# Generated by pormake.
# Topology anh, (6,3)-cn, num edge types: 1
# Building blocks:
#     Node 0, Type 0, BuildingBlock: GEDQOX_clean_sbu_0, # of connection points: 6
#     Node 1, Type 0, BuildingBlock: GEDQOX_clean_sbu_0, # of connection points: 6
#     Node 2, Type 0, BuildingBlock: GEDQOX_clean_sbu_0, # of connection points: 6
#     Node 3, Type 1, BuildingBlock: WUSLED_clean_sbu_0, # of connection points: 3
#     Node 4, Type 1, BuildingBlock: WUSLED_clean_sbu_0, # of connection points: 3
#     Node 5, Type 1, BuildingBlock: WUSLED_clean_sbu_0, # of connection points: 3
#     Node 6, Type 1, BuildingBlock: WUSLED_clean_sbu_0, # of connection points: 3
#     Node 7, Type 1, BuildingBlock: WUSLED_clean_sbu_0, # of connection points: 3
#     Node 8, Type 1, BuildingBlock: WUSLED_clean_sbu_0, # of connection points: 3
#     Edge 9, Type (0, 1), BuildingBlock: TEMPAE_clean_linker_10, # of connection points: 2
#     Edge 10, Type (0, 1), BuildingBlock: TEMPAE_clean_linker_10, # of connection points: 2
#     Edge 11, Type (0, 1), BuildingBlock: TEMPAE_clean_linker_10, # of connection points: 2
#     Edge 12, Type (0, 1), BuildingBlock: TEMPAE_clean_linker_10, # of connection points: 2
#     Edge 13, Type (0, 1), BuildingBlock: TEMPAE_clean_linker_10, # of connection points: 2
#     Edge 14, Type (0, 1), BuildingBlock: TEMPAE_clean_linker_10, # of connection points: 2
#     Edge 15, Type (0, 1), BuildingBlock: TEMPAE_clean_linker_10, # of connection points: 2
#     Edge 16, Type (0, 1), BuildingBlock: TEMPAE_clean_linker_10, # of connection points: 2
#     Edge 17, Type (0, 1), BuildingBlock: TEMPAE_clean_linker_10, # of connection points: 2
#     Edge 18, Type (0, 1), BuildingBlock: TEMPAE_clean_linker_10, # of connection points: 2
#     Edge 19, Type (0, 1), BuildingBlock: TEMPAE_clean_linker_10, # of connection points: 2
#     Edge 20, Type (0, 1), BuildingBlock: TEMPAE_clean_linker_10, # of connection points: 2
#     Edge 21, Type (0, 1), BuildingBlock: TEMPAE_clean_linker_10, # of connection points: 2
#     Edge 22, Type (0, 1), BuildingBlock: TEMPAE_clean_linker_10, # of connection points: 2
#     Edge 23, Type (0, 1), BuildingBlock: TEMPAE_clean_linker_10, # of connection points: 2
#     Edge 24, Type (0, 1), BuildingBlock: TEMPAE_clean_linker_10, # of connection points: 2
#     Edge 25, Type (0, 1), BuildingBlock: TEMPAE_clean_linker_10, # of connection points: 2
#     Edge 26, Type (0, 1), BuildingBlock: TEMPAE_clean_linker_10, # of connection points: 2
# Relax obj value: 0.166
# Max RMSD: 0.203
# Mean RMSD: 0.150
data_MOF--net-anh--node1-GEDQOX_clean_sbu_0--node2-WUSLED_clean_sbu_0--edge1-TEMPAE_clean_linker_10
_symmetry_space_group_name_H-M    P1
_symmetry_Int_Tables_number       1
_symmetry_cell_setting            triclinic
loop_
_symmetry_equiv_pos_as_xyz
'x, y, z'
_cell_length_a     40.571061
_cell_length_b     38.738345
_cell_length_c     69.62223
_cell_angle_alpha  93.173517
_cell_angle_beta   90.479388
_cell_angle_gamma 108.13202
loop_
_atom_site_label
_atom_site_type_symbol
_atom_site_fract_x
_atom_site_fract_y
_atom_site_fract_z
_atom_type_partial_charge
Nd0 Nd 0.07998 0.54043 0.17497 0.0
Nd1 Nd 0.05496 0.45979 0.17493 0.0
C2 C 0.11416 0.60902 0.16882 0.0
C3 C 0.1501 0.63446 0.17094 0.0
C4 C 0.17365 0.63799 0.15588 0.0
C5 C 0.2066 0.66412 0.15753 0.0
C6 C 0.21651 0.68744 0.17422 0.0
C7 C 0.19338 0.68296 0.18949 0.0
C8 C 0.16058 0.65698 0.18785 0.0
C9 C 0.06347 0.51555 0.21065 0.0
C10 C 0.13955 0.4944 0.17389 0.0
C11 C 1.01949 0.39211 0.18179 0.0
C12 C 0.98217 0.37058 0.18206 0.0
C13 C 0.96213 0.37307 0.19817 0.0
C14 C 0.92734 0.35173 0.1986 0.0
C15 C 0.9119 0.32768 0.18293 0.0
C16 C 0.93142 0.32558 0.16665 0.0
C17 C 0.96632 0.34679 0.16623 0.0
C18 C 0.07115 0.48669 0.14 0.0
C19 C 0.99513 0.50419 0.17008 0.0
O20 O 0.10781 0.58264 0.15537 0.0
O21 O 0.09777 0.59879 0.18465 0.0
O22 O 0.05564 0.54271 0.20405 0.0
O23 O 0.08031 0.50237 0.19864 0.0
O24 O 0.13263 0.52573 0.17271 0.0
O25 O 0.11373 0.46409 0.17647 0.0
O26 O 1.03142 0.41782 0.19546 0.0
O27 O 1.03213 0.40176 0.16499 0.0
O28 O 0.07868 0.45831 0.14526 0.0
O29 O 0.05415 0.49812 0.1524 0.0
O30 O 1.00174 0.47335 0.17335 0.0
O31 O 1.02147 0.53456 0.16853 0.0
H32 H 0.16639 0.62113 0.14263 0.0
H33 H 0.2238 0.66692 0.14551 0.0
H34 H 0.20048 0.69995 0.20271 0.0
H35 H 0.1432 0.65505 0.19975 0.0
H36 H 0.9734 0.39107 0.2106 0.0
H37 H 0.91262 0.35345 0.21133 0.0
H38 H 0.91993 0.30684 0.1545 0.0
H39 H 0.98104 0.34415 0.15363 0.0
Nd40 Nd 0.5141 0.01138 0.52618 0.0
Nd41 Nd 0.58947 0.0389 0.52327 0.0
C42 C 0.45061 0.9735 0.53521 0.0
C43 C 0.4279 0.93574 0.53113 0.0
C44 C 0.41541 0.91358 0.54645 0.0
C45 C 0.3927 0.87826 0.54296 0.0
C46 C 0.38187 0.8646 0.52406 0.0
C47 C 0.39563 0.88624 0.50868 0.0
C48 C 0.41846 0.92144 0.51217 0.0
C49 C 0.5342 0.02561 0.4891 0.0
C50 C 0.55833 0.95246 0.52092 0.0
C51 C 0.65476 0.07736 0.51778 0.0
C52 C 0.67568 0.11597 0.51629 0.0
C53 C 0.67776 0.13275 0.49876 0.0
C54 C 0.7003 0.16794 0.49706 0.0
C55 C 0.72113 0.1871 0.51283 0.0
C56 C 0.7178 0.17115 0.53061 0.0
C57 C 0.69546 0.13582 0.5323 0.0
C58 C 0.56795 0.02315 0.55994 0.0
C59 C 0.5451 0.09664 0.52684 0.0
O60 O 0.47774 0.97758 0.54642 0.0
O61 O 0.45729 0.99485 0.52085 0.0
O62 O 0.50802 0.0329 0.49691 0.0
O63 O 0.54859 0.0101 0.50059 0.0
O64 O 0.52892 0.95849 0.52517 0.0
O65 O 0.5866 0.9793 0.51762 0.0
O66 O 0.6329 0.0613 0.50365 0.0
O67 O 0.64243 0.06816 0.53464 0.0
O68 O 0.59314 0.01432 0.55198 0.0
O69 O 0.55473 0.03998 0.54864 0.0
O70 O 0.57162 0.08919 0.51882 0.0
O71 O 0.5205 0.07094 0.53464 0.0
H72 H 0.4227 0.92387 0.56118 0.0
H73 H 0.38248 0.86224 0.55508 0.0
H74 H 0.38823 0.87615 0.49394 0.0
H75 H 0.42821 0.93757 0.50001 0.0
H76 H 0.66277 0.11836 0.48619 0.0
H77 H 0.70222 0.17985 0.48323 0.0
H78 H 0.73375 0.18524 0.54295 0.0
H79 H 0.6945 0.12364 0.546 0.0
Nd80 Nd 0.52696 0.5092 0.84715 0.0
Nd81 Nd 0.60365 0.54156 0.84961 0.0
C82 C 0.46234 0.49481 0.83733 0.0
C83 C 0.44732 0.52269 0.83182 0.0
C84 C 0.44365 0.52876 0.81232 0.0
C85 C 0.42964 0.55561 0.80721 0.0
C86 C 0.41824 0.57575 0.82156 0.0
C87 C 0.42656 0.57313 0.84095 0.0
C88 C 0.44047 0.54645 0.84604 0.0
C89 C 0.55351 0.51071 0.88371 0.0
C90 C 0.56111 0.59859 0.84736 0.0
C91 C 0.66789 0.56155 0.86077 0.0
C92 C 0.69119 0.54226 0.85341 0.0
C93 C 0.68366 0.50486 0.85608 0.0
C94 C 0.7037 0.48544 0.84759 0.0
C95 C 0.73223 0.50347 0.83688 0.0
C96 C 0.73769 0.53988 0.83263 0.0
C97 C 0.71737 0.55923 0.84097 0.0
C98 C 0.58555 0.52908 0.81067 0.0
C99 C 0.57005 0.45276 0.84433 0.0
O100 O 0.48465 0.48839 0.82531 0.0
O101 O 0.47245 0.49702 0.8554 0.0
O102 O 0.5293 0.48342 0.87552 0.0
O103 O 0.56318 0.53671 0.87251 0.0
O104 O 0.53282 0.57022 0.8451 0.0
O105 O 0.59163 0.59496 0.85091 0.0
O106 O 0.64331 0.54293 0.87168 0.0
O107 O 0.65697 0.57914 0.84788 0.0
O108 O 0.61727 0.54178 0.81709 0.0
O109 O 0.56564 0.52239 0.82462 0.0
O110 O 0.59709 0.4802 0.8507 0.0
O111 O 0.54074 0.45795 0.83928 0.0
H112 H 0.45035 0.51192 0.80103 0.0
H113 H 0.42381 0.55757 0.79217 0.0
H114 H 0.41831 0.58839 0.85242 0.0
H115 H 0.4445 0.54365 0.8612 0.0
H116 H 0.66279 0.49058 0.86508 0.0
H117 H 0.6992 0.45742 0.85102 0.0
H118 H 0.75976 0.55449 0.82446 0.0
H119 H 0.72255 0.58759 0.83803 0.0
C120 C 0.61417 0.09816 0.21595 0.0
C121 C 0.63926 0.11488 0.23042 0.0
C122 C 0.67559 0.15313 0.20704 0.0
C123 C 0.66971 0.14211 0.226 0.0
C124 C 0.64988 0.13679 0.19274 0.0
C125 C 0.61953 0.10956 0.19716 0.0
U126 U 0.55345 0.03779 0.25102 0.0
O127 O 0.49639 0.01414 0.2503 0.0
O128 O 0.5293 0.97846 0.24944 0.0
C129 C 0.4976 0.98057 0.24894 0.0
C130 C 0.583 0.06793 0.22002 0.0
C131 C 0.4723 0.95418 0.2357 0.0
C132 C 0.45695 0.91489 0.20625 0.0
C133 C 0.48063 0.94392 0.21711 0.0
C134 C 0.41634 0.90735 0.23218 0.0
C135 C 0.42499 0.89562 0.214 0.0
C136 C 0.4397 0.93626 0.24287 0.0
C137 C 0.57533 0.05684 0.3056 0.0
C138 C 0.53773 0.03784 0.33273 0.0
C139 C 0.60009 0.05931 0.33777 0.0
C140 C 0.60424 0.06462 0.31813 0.0
C141 C 0.5668 0.04631 0.34544 0.0
C142 C 0.54196 0.043 0.31298 0.0
C143 C 0.58111 0.06436 0.2851 0.0
O144 O 0.58895 0.03966 0.22715 0.0
O145 O 0.55799 0.07709 0.22868 0.0
O146 O 0.55824 0.07605 0.27624 0.0
O147 O 0.59106 0.04046 0.27452 0.0
H148 H 0.63557 0.10641 0.24503 0.0
H149 H 0.68905 0.15378 0.23734 0.0
H150 H 0.65323 0.14498 0.17808 0.0
H151 H 0.60039 0.09706 0.18582 0.0
H152 H 0.46416 0.90653 0.19223 0.0
H153 H 0.5057 0.95749 0.21129 0.0
H154 H 0.39165 0.89354 0.23837 0.0
H155 H 0.43274 0.94378 0.25713 0.0
H156 H 0.51168 0.02803 0.33809 0.0
H157 H 0.62312 0.06538 0.34693 0.0
H158 H 0.63022 0.07512 0.31273 0.0
H159 H 0.5192 0.03664 0.30356 0.0
C160 C 0.53832 0.61674 0.54279 0.0
C161 C 0.54093 0.64076 0.55899 0.0
C162 C 0.54274 0.69022 0.53815 0.0
C163 C 0.54307 0.67723 0.55669 0.0
C164 C 0.53953 0.66562 0.52208 0.0
C165 C 0.53745 0.62943 0.52439 0.0
U166 U 0.53878 0.52871 0.56819 0.0
O167 O 0.56636 0.49107 0.55741 0.0
O168 O 0.50897 0.47246 0.55756 0.0
C169 C 0.53736 0.46517 0.5525 0.0
C170 C 0.53733 0.5786 0.54423 0.0
C171 C 0.53764 0.42733 0.54909 0.0
C172 C 0.52644 0.37391 0.52684 0.0
C173 C 0.52484 0.409 0.5313 0.0
C174 C 0.55344 0.37467 0.55807 0.0
C175 C 0.54076 0.35616 0.54015 0.0
C176 C 0.55205 0.41 0.56245 0.0
C177 C 0.54525 0.53954 0.6261 0.0
C178 C 0.53222 0.50228 0.65394 0.0
C179 C 0.56308 0.56666 0.65845 0.0
C180 C 0.56143 0.56986 0.6386 0.0
C181 C 0.54865 0.53289 0.66648 0.0
C182 C 0.53053 0.50556 0.63388 0.0
C183 C 0.54258 0.54598 0.60543 0.0
O184 O 0.56604 0.57324 0.55017 0.0
O185 O 0.50929 0.55615 0.55119 0.0
O186 O 0.51304 0.53067 0.59587 0.0
O187 O 0.57011 0.55055 0.59482 0.0
H188 H 0.54169 0.63146 0.57332 0.0
H189 H 0.54574 0.69539 0.5694 0.0
H190 H 0.53846 0.67426 0.50762 0.0
H191 H 0.53534 0.61127 0.51171 0.0
H192 H 0.51699 0.36099 0.5128 0.0
H193 H 0.51407 0.42214 0.52065 0.0
H194 H 0.5642 0.36175 0.56881 0.0
H195 H 0.56227 0.42377 0.57621 0.0
H196 H 0.52099 0.47579 0.6596 0.0
H197 H 0.57529 0.59096 0.66758 0.0
H198 H 0.57243 0.59647 0.633 0.0
H199 H 0.51766 0.48177 0.62455 0.0
C200 C 1.03966 0.56245 0.87649 0.0
C201 C 1.01414 0.56719 0.88889 0.0
C202 C 0.9766 0.56342 0.86146 0.0
C203 C 0.98269 0.56791 0.88137 0.0
C204 C 1.00302 0.56155 0.84901 0.0
C205 C 1.03472 0.56112 0.85656 0.0
U206 U 0.07769 0.53696 0.91947 0.0
O207 O 0.10911 0.50088 0.92398 0.0
O208 O 0.13013 0.55954 0.93219 0.0
C209 C 0.13698 0.52918 0.92752 0.0
C210 C 0.06891 0.55405 0.88462 0.0
C211 C 0.16412 0.53382 0.91334 0.0
C212 C 0.1793 0.5251 0.88016 0.0
C213 C 0.1563 0.51524 0.89506 0.0
C214 C 0.21793 0.57252 0.90144 0.0
C215 C 0.21019 0.55362 0.88339 0.0
C216 C 0.19504 0.56262 0.91637 0.0
C217 C 1.03791 0.52927 0.96591 0.0
C218 C 0.07909 0.52718 0.99081 0.0
C219 C 1.02253 0.53178 0.99922 0.0
C220 C 1.01392 0.53173 0.97977 0.0
C221 C 0.05536 0.53006 1.00474 0.0
C222 C 0.07028 0.52647 0.97149 0.0
C223 C 1.03198 0.53365 0.94574 0.0
O224 O 0.08605 0.57804 0.89814 0.0
O225 O 0.06155 0.52009 0.88935 0.0
O226 O 1.03118 0.50532 0.93416 0.0
O227 O 0.05231 0.56465 0.93998 0.0
H228 H 1.01764 0.5677 0.90437 0.0
H229 H 0.96206 0.56835 0.89109 0.0
H230 H 0.99808 0.55742 0.8336 0.0
H231 H 0.05431 0.55723 0.84695 0.0
H232 H 0.17343 0.51 0.86632 0.0
H233 H 0.1321 0.49367 0.89205 0.0
H234 H 0.24198 0.59456 0.904 0.0
H235 H 0.20091 0.57816 0.93008 0.0
H236 H 0.10428 0.52527 0.99489 0.0
H237 H 1.00395 0.53381 1.00996 0.0
H238 H 0.98904 0.53428 0.97559 0.0
H239 H 0.0891 0.52468 0.96087 0.0
C240 C 0.98226 0.4683 0.48299 0.0
C241 C 0.95952 0.44855 0.46809 0.0
C242 C 0.92333 0.41005 0.49131 0.0
C243 C 0.93026 0.4197 0.47222 0.0
C244 C 0.94635 0.42988 0.50615 0.0
C245 C 0.97555 0.45879 0.50201 0.0
U246 U 1.04194 0.52478 0.44689 0.0
O247 O 0.06811 0.58386 0.44689 0.0
O248 O 0.09874 0.5459 0.44629 0.0
C249 C 0.09917 0.58001 0.44711 0.0
C250 C 1.01314 0.49856 0.47879 0.0
C251 C 0.12535 0.60523 0.46018 0.0
C252 C 0.15626 0.62228 0.49111 0.0
C253 C 0.12841 0.59929 0.47977 0.0
C254 C 0.17711 0.65747 0.46346 0.0
C255 C 0.18133 0.65093 0.48282 0.0
C256 C 0.14939 0.63485 0.45228 0.0
C257 C 1.02182 0.49961 0.39318 0.0
C258 C 0.06288 0.521 0.36784 0.0
C259 C 1.00346 0.48512 0.35967 0.0
C260 C 0.99593 0.48319 0.37918 0.0
C261 C 1.03717 0.50337 0.35374 0.0
C262 C 0.05525 0.51911 0.38744 0.0
C263 C 1.0137 0.49453 0.41358 0.0
O264 O 1.03837 0.4889 0.47072 0.0
O265 O 1.00693 0.52587 0.47071 0.0
O266 O 1.00493 0.5207 0.42286 0.0
O267 O 1.0351 0.48253 0.42353 0.0
H268 H 0.96448 0.4554 0.45329 0.0
H269 H 0.91332 0.40462 0.46044 0.0
H270 H 0.94157 0.42333 0.52101 0.0
H271 H 0.99289 0.47375 0.51367 0.0
H272 H 0.15891 0.61694 0.50606 0.0
H273 H 0.10989 0.5765 0.4861 0.0
H274 H 0.1957 0.67984 0.45685 0.0
H275 H 0.14728 0.63993 0.43723 0.0
H276 H 0.08908 0.53529 0.36377 0.0
H277 H 0.98284 0.47205 0.3492 0.0
H278 H 0.96994 0.4683 0.38335 0.0
H279 H 0.07557 0.53215 0.39809 0.0
C280 C 0.54974 0.92468 0.82618 0.0
C281 C 0.55576 0.90475 0.80987 0.0
C282 C 0.55207 0.85303 0.82927 0.0
C283 C 0.55689 0.86915 0.8114 0.0
C284 C 0.54539 0.87312 0.8454 0.0
C285 C 0.54435 0.90853 0.84386 0.0
U286 U 0.55176 0.01295 0.80143 0.0
O287 O 0.52701 0.05371 0.81139 0.0
O288 O 0.58434 0.06824 0.81163 0.0
C289 C 0.55705 0.07803 0.81626 0.0
C290 C 0.5507 0.96289 0.82566 0.0
C291 C 0.55975 0.11674 0.81905 0.0
C292 C 0.57618 0.17154 0.84039 0.0
C293 C 0.57368 0.13503 0.83664 0.0
C294 C 0.55057 0.17211 0.8089 0.0
C295 C 0.56473 0.19066 0.82658 0.0
C296 C 0.54805 0.13537 0.80517 0.0
C297 C 0.54987 1.00232 0.74395 0.0
C298 C 0.53779 0.03452 0.71702 0.0
C299 C 0.55727 0.9819 0.7111 0.0
C300 C 0.55903 0.97829 0.73086 0.0
C301 C 0.54625 1.00974 0.70385 0.0
C302 C 0.53939 0.03071 0.73697 0.0
C303 C 0.54971 0.99464 0.76446 0.0
O304 O 0.57935 0.98546 0.81942 0.0
O305 O 0.52251 0.96888 0.8193 0.0
O306 O 0.52181 0.99307 0.77431 0.0
O307 O 0.57886 1.00751 0.77463 0.0
H308 H 0.56012 0.9169 0.79609 0.0
H309 H 0.56232 0.8546 0.7987 0.0
H310 H 0.54085 0.86146 0.85929 0.0
H311 H 0.53969 0.92353 0.8566 0.0
H312 H 0.58758 0.18488 0.85403 0.0
H313 H 0.58263 0.12096 0.8476 0.0
H314 H 0.54105 0.18584 0.79803 0.0
H315 H 0.53695 0.12158 0.79156 0.0
H316 H 0.5292 0.05627 0.71188 0.0
H317 H 0.56468 0.96282 0.70147 0.0
H318 H 0.56711 0.95616 0.73595 0.0
H319 H 0.53205 0.04948 0.74685 0.0
C320 C 0.66223 0.49571 0.14842 0.0
C321 C 0.68684 0.51068 0.13443 0.0
C322 C 0.73513 0.49794 0.15245 0.0
C323 C 0.72229 0.5116 0.13635 0.0
C324 C 0.71005 0.48316 0.16635 0.0
C325 C 0.67481 0.48197 0.16433 0.0
U326 U 0.56592 0.49522 0.12913 0.0
O327 O 0.51507 0.46351 0.14103 0.0
O328 O 0.53125 0.5227 0.14382 0.0
C329 C 0.50695 0.49237 0.14739 0.0
C330 C 0.62423 0.49548 0.14797 0.0
C331 C 0.46872 0.49125 0.1484 0.0
C332 C 0.41582 0.48069 0.16787 0.0
C333 C 0.45062 0.48085 0.16543 0.0
C334 C 0.41485 0.50114 0.13607 0.0
C335 C 0.39637 0.4909 0.15334 0.0
C336 C 0.45001 0.50143 0.1337 0.0
C337 C 0.56804 0.49933 0.07019 0.0
C338 C 0.5486 0.51851 0.04046 0.0
C339 C 0.59241 0.48819 0.03932 0.0
C340 C 0.59043 0.48512 0.05936 0.0
C341 C 0.57159 0.50508 0.02947 0.0
C342 C 0.54715 0.51602 0.06052 0.0
C343 C 0.56725 0.49786 0.09151 0.0
O344 O 0.61658 0.52499 0.14405 0.0
O345 O 0.59947 0.4658 0.14191 0.0
O346 O 0.55949 0.46702 0.10007 0.0
O347 O 0.57394 0.52724 0.10314 0.0
H348 H 0.67876 0.52181 0.12196 0.0
H349 H 0.73952 0.52293 0.12494 0.0
H350 H 0.7175 0.47295 0.17929 0.0
H351 H 0.65723 0.47061 0.17563 0.0
H352 H 0.40477 0.47251 0.18155 0.0
H353 H 0.46372 0.473 0.17725 0.0
H354 H 0.40259 0.50927 0.12407 0.0
H355 H 0.46256 0.50982 0.12032 0.0
H356 H 0.53136 0.53079 0.0336 0.0
H357 H 0.61084 0.4779 0.03166 0.0
H358 H 0.60704 0.47234 0.06648 0.0
H359 H 0.52945 0.52697 0.06849 0.0
C360 C 0.20616 0.52455 0.17528 0.0
C361 C 0.17704 0.49333 0.17148 0.0
C362 C 0.24105 0.52414 0.17276 0.0
C363 C 0.2482 0.4921 0.16549 0.0
C364 C 0.21884 0.46061 0.16139 0.0
C365 C 0.18426 0.46144 0.16467 0.0
C366 C 0.27048 0.55835 0.17807 0.0
C367 C 0.22387 0.42573 0.15333 0.0
C368 C 0.33835 0.50166 0.14211 0.0
C369 C 0.35795 0.49097 0.15633 0.0
C370 C 0.30338 0.50191 0.14479 0.0
C371 C 0.28599 0.49151 0.16227 0.0
C372 C 0.30516 0.48061 0.17667 0.0
C373 C 0.33997 0.48042 0.17361 0.0
C374 C 0.28481 0.51331 0.12864 0.0
C375 C 0.28901 0.4696 0.19574 0.0
H376 H 0.20172 0.54954 0.18053 0.0
H377 H 0.16262 0.43701 0.16141 0.0
H378 H 0.28898 0.55242 0.18822 0.0
H379 H 0.28495 0.56852 0.16502 0.0
H380 H 0.26128 0.58024 0.1848 0.0
H381 H 0.19887 0.40462 0.14917 0.0
H382 H 0.24039 0.43098 0.14051 0.0
H383 H 0.23751 0.41482 0.16419 0.0
H384 H 0.35 0.51006 0.12857 0.0
H385 H 0.35276 0.47185 0.1852 0.0
H386 H 0.27801 0.53796 0.13344 0.0
H387 H 0.26016 0.4915 0.12473 0.0
H388 H 0.30071 0.51927 0.11561 0.0
H389 H 0.2847 0.49353 0.20354 0.0
H390 H 0.30554 0.45885 0.20498 0.0
H391 H 0.26332 0.44854 0.1935 0.0
C392 C 0.77213 0.22334 0.49523 0.0
C393 C 0.74888 0.22175 0.51016 0.0
C394 C 0.79992 0.25489 0.49285 0.0
C395 C 0.8043 0.28591 0.50554 0.0
C396 C 0.78064 0.2847 0.52055 0.0
C397 C 0.75331 0.25241 0.5228 0.0
C398 C 0.82496 0.25476 0.47694 0.0
C399 C 0.78421 0.31745 0.53415 0.0
C400 C 0.89505 0.35384 0.50876 0.0
C401 C 0.89236 0.37921 0.4957 0.0
C402 C 0.86631 0.32391 0.51255 0.0
C403 C 0.83405 0.3193 0.5031 0.0
C404 C 0.83094 0.34527 0.49026 0.0
C405 C 0.86015 0.37484 0.48666 0.0
C406 C 0.87072 0.29666 0.52624 0.0
C407 C 0.7969 0.34143 0.48004 0.0
H408 H 0.76909 0.19941 0.48568 0.0
H409 H 0.73529 0.25116 0.53435 0.0
H410 H 0.8258 0.27665 0.46716 0.0
H411 H 0.85152 0.26033 0.48314 0.0
H412 H 0.81781 0.22837 0.46831 0.0
H413 H 0.76384 0.31199 0.54516 0.0
H414 H 0.81002 0.32607 0.5416 0.0
H415 H 0.78256 0.34061 0.52593 0.0
H416 H 0.91993 0.35685 0.51565 0.0
H417 H 0.85777 0.39464 0.47678 0.0
H418 H 0.86537 0.26959 0.51849 0.0
H419 H 0.85178 0.2936 0.53792 0.0
H420 H 0.89727 0.3047 0.53282 0.0
H421 H 0.78932 0.3164 0.47031 0.0
H422 H 0.79826 0.36506 0.47138 0.0
H423 H 0.77608 0.33857 0.49064 0.0
C424 C 0.58708 0.66122 0.83646 0.0
C425 C 0.55926 0.63558 0.84473 0.0
C426 C 0.58596 0.6963 0.8333 0.0
C427 C 0.55675 0.70644 0.83911 0.0
C428 C 0.52869 0.68075 0.84768 0.0
C429 C 0.53001 0.64535 0.85006 0.0
C430 C 0.61596 0.7224 0.82361 0.0
C431 C 0.49748 0.69079 0.85453 0.0
C432 C 0.56999 0.80772 0.84786 0.0
C433 C 0.55419 0.81561 0.83135 0.0
C434 C 0.57072 0.77234 0.85064 0.0
C435 C 0.55581 0.74408 0.83641 0.0
C436 C 0.54055 0.75193 0.8195 0.0
C437 C 0.5398 0.78754 0.8172 0.0
C438 C 0.58736 0.76523 0.86886 0.0
C439 C 0.52516 0.72273 0.80378 0.0
H440 H 0.60954 0.65355 0.83205 0.0
H441 H 0.50851 0.62556 0.85646 0.0
H442 H 0.60642 0.73263 0.81079 0.0
H443 H 0.62858 0.74632 0.83357 0.0
H444 H 0.63583 0.7096 0.81899 0.0
H445 H 0.47848 0.66815 0.86154 0.0
H446 H 0.50586 0.71484 0.86493 0.0
H447 H 0.48426 0.69841 0.8422 0.0
H448 H 0.58196 0.82933 0.85868 0.0
H449 H 0.52737 0.79323 0.80445 0.0
H450 H 0.61024 0.75645 0.86531 0.0
H451 H 0.56883 0.74284 0.87624 0.0
H452 H 0.59593 0.78969 0.87901 0.0
H453 H 0.54566 0.71204 0.79791 0.0
H454 H 0.51328 0.73294 0.79179 0.0
H455 H 0.50506 0.69956 0.80969 0.0
C456 C 0.94381 0.52791 0.17849 0.0
C457 C 0.95738 0.50405 0.16746 0.0
C458 C 0.90834 0.52703 0.17659 0.0
C459 C 0.88514 0.50269 0.1627 0.0
C460 C 0.89906 0.47905 0.15128 0.0
C461 C 0.93419 0.47946 0.15405 0.0
C462 C 0.89541 0.55163 0.18998 0.0
C463 C 0.87681 0.45335 0.13581 0.0
C464 C 0.78395 0.47558 0.16696 0.0
C465 C 0.7738 0.49916 0.15495 0.0
C466 C 0.81931 0.47678 0.16976 0.0
C467 C 0.84669 0.50173 0.16016 0.0
C468 C 0.83685 0.52541 0.14792 0.0
C469 C 0.80131 0.52406 0.14561 0.0
C470 C 0.82737 0.45122 0.1833 0.0
C471 C 0.86413 0.55251 0.1371 0.0
H472 H 0.96079 0.54678 0.18912 0.0
H473 H 0.94381 0.46083 0.14531 0.0
H474 H 0.88285 0.56794 0.18167 0.0
H475 H 0.87546 0.53482 0.19934 0.0
H476 H 0.91657 0.57041 0.19926 0.0
H477 H 0.8914 0.43791 0.12746 0.0
H478 H 0.85434 0.4337 0.14232 0.0
H479 H 0.86631 0.46884 0.12574 0.0
H480 H 0.76418 0.45543 0.17422 0.0
H481 H 0.79534 0.54318 0.13651 0.0
H482 H 0.84563 0.4671 0.19491 0.0
H483 H 0.84035 0.43352 0.17551 0.0
H484 H 0.80374 0.43365 0.18997 0.0
H485 H 0.88245 0.57225 0.14742 0.0
H486 H 0.85276 0.56782 0.12736 0.0
H487 H 0.87942 0.53831 0.12845 0.0
C488 C 0.32659 0.82705 0.50765 0.0
C489 C 0.35412 0.82929 0.52042 0.0
C490 C 0.2994 0.79456 0.50422 0.0
C491 C 0.29965 0.76335 0.51382 0.0
C492 C 0.32724 0.76536 0.52687 0.0
C493 C 0.35422 0.79842 0.53005 0.0
C494 C 0.27043 0.79366 0.49022 0.0
C495 C 0.32841 0.73258 0.53727 0.0
C496 C 0.21033 0.69352 0.51077 0.0
C497 C 0.21278 0.67376 0.49367 0.0
C498 C 0.23955 0.72095 0.5187 0.0
C499 C 0.27159 0.72853 0.50921 0.0
C500 C 0.27472 0.70619 0.49301 0.0
C501 C 0.24525 0.67907 0.48545 0.0
C502 C 0.23545 0.74377 0.53625 0.0
C503 C 0.30834 0.71312 0.48247 0.0
H504 H 0.32602 0.85102 0.50049 0.0
H505 H 0.37557 0.80004 0.53989 0.0
H506 H 0.26867 0.7729 0.47828 0.0
H507 H 0.24525 0.78582 0.49758 0.0
H508 H 0.27419 0.82034 0.48397 0.0
H509 H 0.35052 0.7392 0.54781 0.0
H510 H 0.30391 0.72114 0.54494 0.0
H511 H 0.33078 0.711 0.52672 0.0
H512 H 0.18523 0.68924 0.5172 0.0
H513 H 0.24718 0.66325 0.4724 0.0
H514 H 0.23523 0.77081 0.53187 0.0
H515 H 0.25762 0.74837 0.54655 0.0
H516 H 0.21095 0.7309 0.5437 0.0
H517 H 0.31272 0.73783 0.47425 0.0
H518 H 0.30798 0.68998 0.47221 0.0
H519 H 0.33061 0.71812 0.49274 0.0
C520 C 0.60232 0.40722 0.84777 0.0
C521 C 0.57157 0.41491 0.84343 0.0
C522 C 0.60335 0.37116 0.84673 0.0
C523 C 0.57296 0.34224 0.84114 0.0
C524 C 0.54174 0.34984 0.83726 0.0
C525 C 0.54144 0.38593 0.83844 0.0
C526 C 0.63702 0.36407 0.85127 0.0
C527 C 0.50862 0.31983 0.83151 0.0
C528 C 0.57795 0.25449 0.81611 0.0
C529 C 0.56797 0.22985 0.83061 0.0
C530 C 0.58086 0.29138 0.81959 0.0
C531 C 0.57384 0.30416 0.83807 0.0
C532 C 0.56454 0.2797 0.85294 0.0
C533 C 0.56157 0.24284 0.84901 0.0
C534 C 0.59057 0.31654 0.80331 0.0
C535 C 0.55717 0.29234 0.87289 0.0
H536 H 0.62564 0.42933 0.85181 0.0
H537 H 0.51738 0.39137 0.83531 0.0
H538 H 0.63288 0.34302 0.86196 0.0
H539 H 0.64657 0.35343 0.83806 0.0
H540 H 0.65743 0.38904 0.85702 0.0
H541 H 0.48639 0.33029 0.82927 0.0
H542 H 0.51237 0.30508 0.81801 0.0
H543 H 0.50185 0.29981 0.84278 0.0
H544 H 0.58364 0.24497 0.80197 0.0
H545 H 0.55354 0.22405 0.8603 0.0
H546 H 0.61353 0.3402 0.80761 0.0
H547 H 0.56891 0.32729 0.80004 0.0
H548 H 0.5965 0.30272 0.78999 0.0
H549 H 0.58039 0.31394 0.87899 0.0
H550 H 0.55001 0.26986 0.88283 0.0
H551 H 0.53574 0.3044 0.87226 0.0
C552 C 0.58485 0.90651 0.53183 0.0
C553 C 0.55915 0.91464 0.52112 0.0
C554 C 0.58266 0.8702 0.53474 0.0
C555 C 0.55475 0.84139 0.52615 0.0
C556 C 0.52953 0.84963 0.51465 0.0
C557 C 0.53167 0.88615 0.5126 0.0
C558 C 0.60952 0.86266 0.54754 0.0
C559 C 0.49986 0.8199 0.50482 0.0
C560 C 0.5659 0.74733 0.52034 0.0
C561 C 0.54614 0.72921 0.53539 0.0
C562 C 0.56869 0.78361 0.51711 0.0
C563 C 0.55174 0.80269 0.52936 0.0
C564 C 0.53192 0.78475 0.54465 0.0
C565 C 0.52933 0.74828 0.54746 0.0
C566 C 0.58963 0.80148 0.50048 0.0
C567 C 0.51356 0.80414 0.55812 0.0
H568 H 0.60568 0.92859 0.53876 0.0
H569 H 0.51165 0.89251 0.50442 0.0
H570 H 0.59667 0.84698 0.55976 0.0
H571 H 0.6229 0.84575 0.53941 0.0
H572 H 0.62927 0.88804 0.55339 0.0
H573 H 0.48404 0.83084 0.49519 0.0
H574 H 0.50991 0.80056 0.4962 0.0
H575 H 0.48271 0.80426 0.51577 0.0
H576 H 0.5795 0.73319 0.5111 0.0
H577 H 0.51366 0.73453 0.55896 0.0
H578 H 0.61145 0.8254 0.50591 0.0
H579 H 0.57319 0.81154 0.49083 0.0
H580 H 0.60036 0.78261 0.49192 0.0
H581 H 0.53295 0.82734 0.56608 0.0
H582 H 0.49782 0.78591 0.5687 0.0
H583 H 0.49628 0.8155 0.54985 0.0
C584 C 0.78388 0.49669 0.82081 0.0
C585 C 0.76238 0.4906 0.83667 0.0
C586 C 0.8196 0.50448 0.82351 0.0
C587 C 0.83314 0.50547 0.84236 0.0
C588 C 0.81102 0.49428 0.85789 0.0
C589 C 0.77551 0.48599 0.8547 0.0
C590 C 0.843 0.51583 0.80671 0.0
C591 C 0.82477 0.49577 0.87829 0.0
C592 C 0.92658 0.51324 0.84954 0.0
C593 C 0.9409 0.55044 0.85448 0.0
C594 C 0.89124 0.49817 0.84551 0.0
C595 C 0.87038 0.5212 0.84616 0.0
C596 C 0.88478 0.55901 0.85102 0.0
C597 C 0.92025 0.57325 0.85537 0.0
C598 C 0.87599 0.45756 0.84127 0.0
C599 C 0.86272 0.5841 0.85199 0.0
H600 H 0.77336 0.49997 0.8069 0.0
H601 H 0.75881 0.48134 0.86701 0.0
H602 H 0.85696 0.54546 0.80849 0.0
H603 H 0.86284 0.50154 0.80626 0.0
H604 H 0.82828 0.51013 0.79276 0.0
H605 H 0.80427 0.48097 0.88802 0.0
H606 H 0.84651 0.48418 0.87882 0.0
H607 H 0.83486 0.52458 0.88393 0.0
H608 H 0.94291 0.49576 0.84963 0.0
H609 H 0.93178 0.60185 0.85975 0.0
H610 H 0.86204 0.45185 0.8271 0.0
H611 H 0.85672 0.44572 0.85225 0.0
H612 H 0.89607 0.44355 0.84119 0.0
H613 H 0.85019 0.58368 0.83772 0.0
H614 H 0.8781 0.61263 0.85639 0.0
H615 H 0.8417 0.5746 0.86238 0.0
C616 C 0.28116 0.71204 0.16972 0.0
C617 C 0.25005 0.71753 0.17561 0.0
C618 C 0.31308 0.73998 0.17249 0.0
C619 C 0.31381 0.77401 0.18141 0.0
C620 C 0.28225 0.78012 0.18644 0.0
C621 C 0.25088 0.75194 0.18341 0.0
C622 C 0.34607 0.73254 0.16664 0.0
C623 C 0.28168 0.81599 0.1959 0.0
C624 C 0.38706 0.83127 0.21445 0.0
C625 C 0.40096 0.86222 0.20402 0.0
C626 C 0.36038 0.80117 0.20665 0.0
C627 C 0.3472 0.80185 0.18783 0.0
C628 C 0.36292 0.83183 0.17662 0.0
C629 C 0.38976 0.86177 0.18486 0.0
C630 C 0.34459 0.76982 0.21913 0.0
C631 C 0.35015 0.83304 0.15633 0.0
H632 H 0.28071 0.68554 0.16361 0.0
H633 H 0.22686 0.75671 0.18749 0.0
H634 H 0.36282 0.75543 0.1588 0.0
H635 H 0.36089 0.73008 0.17968 0.0
H636 H 0.3408 0.707 0.15739 0.0
H637 H 0.25486 0.81698 0.198 0.0
H638 H 0.29527 0.82056 0.21016 0.0
H639 H 0.29562 0.83873 0.18707 0.0
H640 H 0.39625 0.83118 0.22912 0.0
H641 H 0.40068 0.88551 0.17668 0.0
H642 H 0.34263 0.74356 0.21125 0.0
H643 H 0.31789 0.76928 0.22286 0.0
H644 H 0.35988 0.77192 0.2327 0.0
H645 H 0.3509 0.80847 0.1476 0.0
H646 H 0.36589 0.8576 0.14926 0.0
H647 H 0.32274 0.83282 0.15639 0.0
C648 C 0.5582 0.15661 0.51195 0.0
C649 C 0.54307 0.13415 0.52673 0.0
C650 C 0.55726 0.1926 0.51185 0.0
C651 C 0.54195 0.2069 0.52729 0.0
C652 C 0.52636 0.18413 0.54214 0.0
C653 C 0.52666 0.14789 0.54153 0.0
C654 C 0.57326 0.21534 0.49539 0.0
C655 C 0.51013 0.19836 0.55898 0.0
C656 C 0.5709 0.30838 0.54142 0.0
C657 C 0.54223 0.31849 0.53544 0.0
C658 C 0.57174 0.27253 0.53816 0.0
C659 C 0.54334 0.24597 0.52856 0.0
C660 C 0.51515 0.25635 0.52156 0.0
C661 C 0.51481 0.29234 0.52519 0.0
C662 C 0.60261 0.26279 0.54553 0.0
C663 C 0.48498 0.22919 0.51061 0.0
H664 H 0.57058 0.14595 0.50033 0.0
H665 H 0.51501 0.13064 0.55299 0.0
H666 H 0.55696 0.23188 0.49083 0.0
H667 H 0.599 0.23438 0.50009 0.0
H668 H 0.57696 0.19826 0.48274 0.0
H669 H 0.4991 0.17723 0.56935 0.0
H670 H 0.52989 0.22162 0.56669 0.0
H671 H 0.48917 0.20857 0.5538 0.0
H672 H 0.59271 0.32851 0.5488 0.0
H673 H 0.49249 0.29965 0.52045 0.0
H674 H 0.61395 0.2504 0.53361 0.0
H675 H 0.59418 0.24227 0.55647 0.0
H676 H 0.62316 0.28682 0.5521 0.0
H677 H 0.49454 0.21567 0.49839 0.0
H678 H 0.46627 0.24208 0.50494 0.0
H679 H 0.47105 0.20766 0.52015 0.0
C680 C 0.35791 0.55759 0.81081 0.0
C681 C 0.38699 0.58601 0.81788 0.0
C682 C 0.32523 0.55429 0.818 0.0
C683 C 0.32166 0.58154 0.83136 0.0
C684 C 0.34966 0.61371 0.83558 0.0
C685 C 0.38235 0.61577 0.82855 0.0
C686 C 0.29636 0.51888 0.8139 0.0
C687 C 0.34643 0.64306 0.84995 0.0
C688 C 0.23408 0.57438 0.85171 0.0
C689 C 0.23716 0.55953 0.86924 0.0
C690 C 0.2615 0.5814 0.8389 0.0
C691 C 0.29177 0.57292 0.84395 0.0
C692 C 0.29407 0.5565 0.86138 0.0
C693 C 0.2666 0.55013 0.87384 0.0
C694 C 0.25865 0.59853 0.82026 0.0
C695 C 0.32552 0.54587 0.86702 0.0
H696 H 0.36137 0.53455 0.80246 0.0
H697 H 0.40493 0.63779 0.83388 0.0
H698 H 0.29338 0.50215 0.8266 0.0
H699 H 0.27128 0.52385 0.8113 0.0
H700 H 0.3018 0.5028 0.8013 0.0
H701 H 0.36878 0.66836 0.84953 0.0
H702 H 0.32207 0.64949 0.84722 0.0
H703 H 0.34538 0.63324 0.86468 0.0
H704 H 0.2108 0.58115 0.84831 0.0
H705 H 0.26809 0.53794 0.88736 0.0
H706 H 0.2635 0.58156 0.80791 0.0
H707 H 0.27885 0.62551 0.82015 0.0
H708 H 0.23279 0.6021 0.81809 0.0
H709 H 0.32945 0.52555 0.85617 0.0
H710 H 0.32296 0.53401 0.88132 0.0
H711 H 0.34915 0.56994 0.86749 0.0
C712 C 0.87162 0.27084 0.19435 0.0
C713 C 0.8765 0.30239 0.18446 0.0
C714 C 0.83823 0.24699 0.19695 0.0
C715 C 0.80903 0.25513 0.18957 0.0
C716 C 0.81396 0.28683 0.17923 0.0
C717 C 0.8478 0.31017 0.17678 0.0
C718 C 0.83421 0.21339 0.20788 0.0
C719 C 0.78352 0.29646 0.17116 0.0
C720 C 0.72541 0.17572 0.18493 0.0
C721 C 0.70884 0.18058 0.20204 0.0
C722 C 0.75742 0.20046 0.18034 0.0
C723 C 0.77346 0.23077 0.19321 0.0
C724 C 0.75659 0.23633 0.21029 0.0
C725 C 0.72451 0.21121 0.2145 0.0
C726 C 0.77456 0.19357 0.16199 0.0
C727 C 0.77285 0.26838 0.22435 0.0
H728 H 0.89405 0.26505 0.20022 0.0
H729 H 0.85185 0.33477 0.16917 0.0
H730 H 0.81929 0.2145 0.22106 0.0
H731 H 0.81937 0.18873 0.19896 0.0
H732 H 0.85961 0.21047 0.21215 0.0
H733 H 0.79184 0.32033 0.16217 0.0
H734 H 0.76619 0.273 0.16233 0.0
H735 H 0.76806 0.30277 0.18314 0.0
H736 H 0.71383 0.15193 0.17533 0.0
H737 H 0.71171 0.21554 0.2276 0.0
H738 H 0.79911 0.18805 0.16549 0.0
H739 H 0.78133 0.21805 0.15346 0.0
H740 H 0.75772 0.17009 0.15293 0.0
H741 H 0.79762 0.2664 0.2303 0.0
H742 H 0.75566 0.26988 0.2365 0.0
H743 H 0.77907 0.29413 0.21689 0.0
C744 C 0.06564 0.52942 0.11613 0.0
C745 C 0.08034 0.50317 0.12169 0.0
C746 C 0.06943 0.54117 0.09748 0.0
C747 C 0.08844 0.52623 0.08435 0.0
C748 C 0.10686 0.5032 0.09064 0.0
C749 C 0.1023 0.49157 0.10935 0.0
C750 C 0.04972 0.56611 0.09126 0.0
C751 C 0.12831 0.48783 0.07708 0.0
C752 C 1.04419 0.50174 0.03571 0.0
C753 C 0.06444 0.52957 0.02501 0.0
C754 C 0.05258 0.49993 0.05498 0.0
C755 C 0.08166 0.52706 0.06366 0.0
C756 C 0.10254 0.55511 0.05282 0.0
C757 C 0.09372 0.55591 0.03341 0.0
C758 C 1.02999 0.46922 0.06607 0.0
C759 C 0.13342 0.58461 0.06177 0.0
H760 H 0.04928 0.53901 0.12593 0.0
H761 H 0.1145 0.47208 0.11398 0.0
H762 H 0.06554 0.58662 0.08175 0.0
H763 H 1.02597 0.54982 0.08297 0.0
H764 H 1.04178 0.58046 0.10377 0.0
H765 H 0.14598 0.4763 0.08497 0.0
H766 H 0.1108 0.46583 0.06746 0.0
H767 H 0.14396 0.50906 0.06788 0.0
H768 H 1.02196 0.48118 0.02889 0.0
H769 H 0.10928 0.57732 0.02486 0.0
H770 H 1.01767 0.48039 0.07802 0.0
H771 H 1.046 0.45403 0.0725 0.0
H772 H 1.00919 0.44972 0.05686 0.0
H773 H 0.12421 0.60371 0.07108 0.0
H774 H 0.15029 0.60038 0.05072 0.0
H775 H 0.14917 0.57297 0.07101 0.0
C776 C 0.56329 0.01205 0.45907 0.0
C777 C 0.54118 0.02885 0.46829 0.0
C778 C 0.56825 0.01384 0.43908 0.0
C779 C 0.55095 0.03314 0.42814 0.0
C780 C 0.52912 0.05065 0.43751 0.0
C781 C 0.52448 0.04821 0.45741 0.0
C782 C 0.59183 0.99493 0.42965 0.0
C783 C 0.51035 0.07172 0.42648 0.0
C784 C 0.58505 0.06819 0.37979 0.0
C785 C 0.56274 0.04241 0.36665 0.0
C786 C 0.58206 0.06496 0.39975 0.0
C787 C 0.55577 0.03551 0.40692 0.0
C788 C 0.53304 1.00943 0.3938 0.0
C789 C 0.53687 0.01309 0.37386 0.0
C790 C 0.60679 0.09346 0.41319 0.0
C791 C 0.50453 0.97772 0.40085 0.0
H792 H 0.57628 0.99707 0.46742 0.0
H793 H 0.50753 0.06147 0.46447 0.0
H794 H 0.57722 0.97465 0.41825 0.0
H795 H 0.61327 0.015 0.42259 0.0
H796 H 0.60317 0.98082 0.4401 0.0
H797 H 0.49481 0.08431 0.43596 0.0
H798 H 0.52926 0.09354 0.41895 0.0
H799 H 0.49277 0.05338 0.41533 0.0
H800 H 0.60467 0.09138 0.37449 0.0
H801 H 0.51976 0.99274 0.36391 0.0
H802 H 0.61986 0.08034 0.42325 0.0
H803 H 0.59218 0.10816 0.42202 0.0
H804 H 0.62693 0.11363 0.40535 0.0
H805 H 0.51593 0.96082 0.40948 0.0
H806 H 0.48853 0.96021 0.38884 0.0
H807 H 0.48729 0.98777 0.4104 0.0
C808 C 0.58082 0.50003 0.77727 0.0
C809 C 0.5747 0.52641 0.79008 0.0
C810 C 0.57338 0.49919 0.75739 0.0
C811 C 0.56056 0.5261 0.74999 0.0
C812 C 0.5539 0.55253 0.76302 0.0
C813 C 0.56069 0.55209 0.78291 0.0
C814 C 0.58019 0.47007 0.74418 0.0
C815 C 0.54074 0.58205 0.75588 0.0
C816 C 0.58241 0.549 0.69798 0.0
C817 C 0.55133 0.53025 0.68784 0.0
C818 C 0.58548 0.54821 0.71809 0.0
C819 C 0.55678 0.52813 0.72859 0.0
C820 C 0.52517 0.50931 0.7185 0.0
C821 C 0.5229 0.51036 0.69827 0.0
C822 C 0.61966 0.56886 0.72809 0.0
C823 C 0.49377 0.4879 0.72905 0.0
H824 H 0.59172 0.4802 0.78281 0.0
H825 H 0.55627 0.57272 0.79281 0.0
H826 H 0.55672 0.45589 0.73512 0.0
H827 H 0.60133 0.48271 0.73433 0.0
H828 H 0.5877 0.44958 0.75223 0.0
H829 H 0.53619 0.6001 0.76784 0.0
H830 H 0.5598 0.59893 0.74611 0.0
H831 H 0.51614 0.56977 0.74745 0.0
H832 H 0.60468 0.56416 0.69011 0.0
H833 H 0.49863 0.49616 0.69067 0.0
H834 H 0.63022 0.54971 0.73544 0.0
H835 H 0.61575 0.58861 0.7393 0.0
H836 H 0.63924 0.58387 0.71796 0.0
H837 H 0.49903 0.46438 0.73534 0.0
H838 H 0.47031 0.47758 0.71946 0.0
H839 H 0.48822 0.50499 0.74113 0.0
C840 C 0.53096 0.02481 0.58854 0.0
C841 C 0.56139 0.02074 0.58078 0.0
C842 C 0.52513 0.02257 0.60843 0.0
C843 C 0.55076 0.01712 0.62082 0.0
C844 C 0.5815 0.01302 0.61296 0.0
C845 C 0.58621 0.01444 0.59305 0.0
C846 C 0.49162 0.02602 0.61618 0.0
C847 C 0.60962 1.00737 0.62559 0.0
C848 C 0.55685 0.04601 0.67429 0.0
C849 C 0.54396 0.0124 0.68259 0.0
C850 C 0.55803 0.04809 0.65417 0.0
C851 C 0.54588 0.01583 0.64204 0.0
C852 C 0.5316 0.982 0.65034 0.0
C853 C 0.53071 0.98073 0.67046 0.0
C854 C 0.57372 0.08464 0.64589 0.0
C855 C 0.51814 0.94698 0.63797 0.0
H856 H 0.51161 0.02939 0.57906 0.0
H857 H 0.6098 0.01126 0.58712 0.0
H858 H 0.47835 1.00194 0.62431 0.0
H859 H 0.49714 0.0503 0.62638 0.0
H860 H 0.47367 0.0285 0.60458 0.0
H861 H 0.63239 1.00571 0.61728 0.0
H862 H 0.61852 0.03007 0.63677 0.0
H863 H 0.59922 0.98189 0.63314 0.0
H864 H 0.56735 0.07056 0.68352 0.0
H865 H 0.52005 0.9547 0.67673 0.0
H866 H 0.55556 0.08941 0.63511 0.0
H867 H 0.59779 0.08502 0.63833 0.0
H868 H 0.58016 0.10737 0.65714 0.0
H869 H 0.49735 0.94864 0.62795 0.0
H870 H 0.50766 0.92293 0.64666 0.0
H871 H 0.53923 0.94268 0.62906 0.0
C872 C 0.53232 0.49564 0.91669 0.0
C873 C 0.55946 0.51399 0.90502 0.0
C874 C 0.53672 0.49625 0.93678 0.0
C875 C 0.56951 0.51471 0.94564 0.0
C876 C 0.59721 0.53331 0.93392 0.0
C877 C 0.5917 0.53324 0.91379 0.0
C878 C 0.50605 0.477 0.94853 0.0
C879 C 0.63292 0.5523 0.94256 0.0
C880 C 0.56806 0.53887 0.99963 0.0
C881 C 0.57371 0.50879 1.00795 0.0
C882 C 0.56789 0.54179 0.97952 0.0
C883 C 0.57416 0.51437 0.96713 0.0
C884 C 0.58147 0.48478 0.97537 0.0
C885 C 0.58084 0.48217 0.99554 0.0
C886 C 0.55979 0.57374 0.9715 0.0
C887 C 0.58893 0.45519 0.96283 0.0
H888 H 0.50722 0.4809 0.91009 0.0
H889 H 0.61286 0.54727 0.9049 0.0
H890 H 0.51171 0.45502 0.95616 0.0
H891 H 0.50118 0.49641 0.95963 0.0
H892 H 0.48202 0.46488 0.93955 0.0
H893 H 0.65098 0.56777 0.93188 0.0
H894 H 0.63155 0.57124 0.95485 0.0
H895 H 0.64381 0.53182 0.94825 0.0
H896 H 0.56353 0.5603 1.00885 0.0
H897 H 0.585 0.45857 1.00149 0.0
H898 H 0.53516 0.56391 0.96287 0.0
H899 H 0.58046 0.58786 0.96173 0.0
H900 H 0.55719 0.59373 0.98299 0.0
H901 H 0.56503 0.43903 0.95464 0.0
H902 H 0.59817 0.43644 0.97136 0.0
H903 H 0.60881 0.46727 0.95219 0.0
C904 C 0.08453 0.49643 0.24104 0.0
C905 C 0.06015 0.50823 0.2312 0.0
C906 C 0.08365 0.49456 0.26119 0.0
C907 C 0.05729 0.50387 0.27149 0.0
C908 C 1.03188 0.51437 0.2614 0.0
C909 C 1.03386 0.51677 0.24143 0.0
C910 C 0.11143 0.48373 0.2715 0.0
C911 C 1.00293 0.52384 0.27172 0.0
C912 C 1.0313 0.47107 0.32111 0.0
C913 C 1.04524 0.50303 0.33291 0.0
C914 C 1.0362 0.47059 0.3012 0.0
C915 C 0.05589 0.50276 0.29282 0.0
C916 C 0.0714 0.53474 0.30472 0.0
C917 C 0.06584 0.53453 0.32464 0.0
C918 C 1.01899 0.43604 0.28902 0.0
C919 C 0.0928 0.56953 0.29632 0.0
H920 H 0.10508 0.4902 0.23313 0.0
H921 H 1.01495 0.5258 0.23377 0.0
H922 H 0.12583 0.50604 0.282 0.0
H923 H 0.09945 0.45947 0.27976 0.0
H924 H 0.1302 0.47749 0.26143 0.0
H925 H 0.98409 0.52934 0.26161 0.0
H926 H 0.98875 0.50129 0.28062 0.0
H927 H 1.01393 0.54834 0.28159 0.0
H928 H 1.01606 0.44638 0.32744 0.0
H929 H 0.07665 0.55935 0.33362 0.0
H930 H 1.03828 0.42871 0.27982 0.0
H931 H 0.999 0.44037 0.27931 0.0
H932 H 1.00637 0.41276 0.29787 0.0
H933 H 0.11328 0.56434 0.2872 0.0
H934 H 0.10527 0.59117 0.30762 0.0
H935 H 0.07607 0.57971 0.28693 0.0
loop_
_geom_bond_atom_site_label_1
_geom_bond_atom_site_label_2
_geom_bond_distance
_geom_bond_site_symmetry_2
_ccdc_geom_bond_type
Nd0 C2 2.836 . S
Nd0 O20 2.500 . S
Nd0 O21 2.492 . S
Nd0 O22 2.487 . S
Nd0 O23 2.682 . S
Nd0 O24 2.410 . S
Nd0 O29 2.414 . S
Nd0 O31 2.424 1_455 S
Nd1 C11 2.836 . S
Nd1 O23 2.414 1_655 S
Nd1 O25 2.424 1_655 S
Nd1 O26 2.500 . S
Nd1 O27 2.492 . S
Nd1 O28 2.487 . S
Nd1 O29 2.682 1_655 S
Nd1 O30 2.410 . S
C2 Nd0 2.836 . S
C2 C3 1.498 . S
C2 O20 1.258 . S
C2 O21 1.239 . S
C3 C2 1.498 . S
C3 C4 1.366 . S
C3 C8 1.407 . S
C4 C3 1.366 . S
C4 C5 1.392 . S
C4 H32 0.930 . S
C5 C4 1.392 . S
C5 C6 1.398 . S
C5 H33 0.929 . S
C6 C5 1.398 . S
C6 C7 1.352 . S
C7 C6 1.352 . S
C7 C8 1.384 . S
C7 H34 0.930 . S
C8 C3 1.407 . S
C8 C7 1.384 . S
C8 H35 0.929 . S
C9 O22 1.241 . S
C9 O23 1.273 . S
C10 O24 1.251 . S
C10 O25 1.268 . S
C11 Nd1 2.836 . S
C11 C12 1.498 . S
C11 O26 1.258 . S
C11 O27 1.239 . S
C12 C11 1.498 . S
C12 C13 1.366 . S
C12 C17 1.407 . S
C13 C12 1.366 . S
C13 C14 1.392 . S
C13 H36 0.930 . S
C14 C13 1.392 . S
C14 C15 1.398 . S
C14 H37 0.929 . S
C15 C14 1.398 . S
C15 C16 1.352 . S
C16 C15 1.352 . S
C16 C17 1.384 . S
C16 H38 0.930 . S
C17 C12 1.407 . S
C17 C16 1.384 . S
C17 H39 0.929 . S
C18 O28 1.239 1_455 S
C18 O29 1.273 . S
C19 O30 1.251 . S
C19 O31 1.268 . S
O20 Nd0 2.500 . S
O20 C2 1.258 . S
O21 Nd0 2.492 . S
O21 C2 1.239 . S
O22 Nd0 2.487 . S
O22 C9 1.241 . S
O23 Nd0 2.682 . S
O23 Nd1 2.414 1_455 S
O23 C9 1.273 . S
O24 Nd0 2.410 . S
O24 C10 1.251 . S
O25 Nd1 2.424 1_455 S
O25 C10 1.268 . S
O26 Nd1 2.500 . S
O26 C11 1.258 . S
O27 Nd1 2.492 . S
O27 C11 1.239 . S
O28 Nd1 2.487 . S
O28 C18 1.239 1_655 S
O29 Nd0 2.414 . S
O29 Nd1 2.682 1_455 S
O29 C18 1.273 . S
O30 Nd1 2.410 . S
O30 C19 1.251 . S
O31 Nd0 2.424 1_655 S
O31 C19 1.268 . S
H32 C4 0.930 . S
H33 C5 0.929 . S
H34 C7 0.930 . S
H35 C8 0.929 . S
H36 C13 0.930 . S
H37 C14 0.929 . S
H38 C16 0.930 . S
H39 C17 0.929 . S
Nd40 C42 2.849 . S
Nd40 O60 2.512 . S
Nd40 O61 2.502 . S
Nd40 O62 2.487 . S
Nd40 O63 2.681 1_565 S
Nd40 O64 2.426 . S
Nd40 O69 2.417 1_565 S
Nd40 O71 2.407 1_565 S
Nd41 C51 2.836 . S
Nd41 O63 2.414 . S
Nd41 O65 2.424 1_545 S
Nd41 O66 2.500 . S
Nd41 O67 2.492 . S
Nd41 O68 2.487 . S
Nd41 O69 2.682 . S
Nd41 O70 2.410 . S
C42 Nd40 2.849 . S
C42 C43 1.498 . S
C42 O60 1.258 . S
C42 O61 1.239 . S
C43 C42 1.498 . S
C43 C44 1.366 . S
C43 C48 1.407 . S
C44 C43 1.366 . S
C44 C45 1.392 . S
C44 H72 0.930 . S
C45 C44 1.392 . S
C45 C46 1.398 . S
C45 H73 0.929 . S
C46 C45 1.398 . S
C46 C47 1.352 . S
C47 C46 1.352 . S
C47 C48 1.384 . S
C47 H74 0.930 . S
C48 C43 1.407 . S
C48 C47 1.384 . S
C48 H75 0.929 . S
C49 O62 1.241 1_545 S
C49 O63 1.273 . S
C50 O64 1.251 . S
C50 O65 1.268 . S
C51 Nd41 2.836 . S
C51 C52 1.498 . S
C51 O66 1.258 . S
C51 O67 1.239 . S
C52 C51 1.498 . S
C52 C53 1.366 . S
C52 C57 1.407 . S
C53 C52 1.366 . S
C53 C54 1.392 . S
C53 H76 0.930 . S
C54 C53 1.392 . S
C54 C55 1.398 . S
C54 H77 0.929 . S
C55 C54 1.398 . S
C55 C56 1.352 . S
C56 C55 1.352 . S
C56 C57 1.384 . S
C56 H78 0.930 . S
C57 C52 1.407 . S
C57 C56 1.384 . S
C57 H79 0.929 . S
C58 O68 1.241 . S
C58 O69 1.273 . S
C59 O70 1.251 . S
C59 O71 1.268 . S
O60 Nd40 2.512 . S
O60 C42 1.258 . S
O61 Nd40 2.502 . S
O61 C42 1.239 . S
O62 Nd40 2.487 . S
O62 C49 1.241 1_565 S
O63 Nd40 2.681 1_545 S
O63 Nd41 2.414 . S
O63 C49 1.273 . S
O64 Nd40 2.426 . S
O64 C50 1.251 . S
O65 Nd41 2.424 1_565 S
O65 C50 1.268 . S
O66 Nd41 2.500 . S
O66 C51 1.258 . S
O67 Nd41 2.492 . S
O67 C51 1.239 . S
O68 Nd41 2.487 . S
O68 C58 1.241 . S
O69 Nd40 2.417 1_545 S
O69 Nd41 2.682 . S
O69 C58 1.273 . S
O70 Nd41 2.410 . S
O70 C59 1.251 . S
O71 Nd40 2.407 1_545 S
O71 C59 1.268 . S
H72 C44 0.930 . S
H73 C45 0.929 . S
H74 C47 0.930 . S
H75 C48 0.929 . S
H76 C53 0.930 . S
H77 C54 0.929 . S
H78 C56 0.930 . S
H79 C57 0.929 . S
Nd80 C82 2.836 . S
Nd80 O100 2.500 . S
Nd80 O101 2.492 . S
Nd80 O102 2.487 . S
Nd80 O103 2.682 . S
Nd80 O104 2.410 . S
Nd80 O109 2.414 . S
Nd80 O111 2.424 . S
Nd81 C91 2.836 . S
Nd81 O103 2.414 . S
Nd81 O105 2.424 . S
Nd81 O106 2.500 . S
Nd81 O107 2.492 . S
Nd81 O108 2.487 . S
Nd81 O109 2.682 . S
Nd81 O110 2.410 . S
C82 Nd80 2.836 . S
C82 C83 1.498 . S
C82 O100 1.258 . S
C82 O101 1.239 . S
C83 C82 1.498 . S
C83 C84 1.366 . S
C83 C88 1.407 . S
C84 C83 1.366 . S
C84 C85 1.392 . S
C84 H112 0.930 . S
C85 C84 1.392 . S
C85 C86 1.398 . S
C85 H113 0.929 . S
C86 C85 1.398 . S
C86 C87 1.352 . S
C87 C86 1.352 . S
C87 C88 1.384 . S
C87 H114 0.930 . S
C88 C83 1.407 . S
C88 C87 1.384 . S
C88 H115 0.929 . S
C89 O102 1.241 . S
C89 O103 1.273 . S
C90 O104 1.251 . S
C90 O105 1.268 . S
C91 Nd81 2.836 . S
C91 C92 1.498 . S
C91 O106 1.258 . S
C91 O107 1.239 . S
C92 C91 1.498 . S
C92 C93 1.366 . S
C92 C97 1.407 . S
C93 C92 1.366 . S
C93 C94 1.392 . S
C93 H116 0.930 . S
C94 C93 1.392 . S
C94 C95 1.398 . S
C94 H117 0.929 . S
C95 C94 1.398 . S
C95 C96 1.352 . S
C96 C95 1.352 . S
C96 C97 1.384 . S
C96 H118 0.930 . S
C97 C92 1.407 . S
C97 C96 1.384 . S
C97 H119 0.929 . S
C98 O108 1.241 . S
C98 O109 1.273 . S
C99 O110 1.251 . S
C99 O111 1.268 . S
O100 Nd80 2.500 . S
O100 C82 1.258 . S
O101 Nd80 2.492 . S
O101 C82 1.239 . S
O102 Nd80 2.487 . S
O102 C89 1.241 . S
O103 Nd80 2.682 . S
O103 Nd81 2.414 . S
O103 C89 1.273 . S
O104 Nd80 2.410 . S
O104 C90 1.251 . S
O105 Nd81 2.424 . S
O105 C90 1.268 . S
O106 Nd81 2.500 . S
O106 C91 1.258 . S
O107 Nd81 2.492 . S
O107 C91 1.239 . S
O108 Nd81 2.487 . S
O108 C98 1.241 . S
O109 Nd80 2.414 . S
O109 Nd81 2.682 . S
O109 C98 1.273 . S
O110 Nd81 2.410 . S
O110 C99 1.251 . S
O111 Nd80 2.424 . S
O111 C99 1.268 . S
H112 C84 0.930 . S
H113 C85 0.929 . S
H114 C87 0.930 . S
H115 C88 0.929 . S
H116 C93 0.930 . S
H117 C94 0.929 . S
H118 C96 0.930 . S
H119 C97 0.929 . S
C120 C121 1.264 . S
C120 C125 1.479 . S
C120 C130 1.465 . S
C121 C120 1.264 . S
C121 C123 1.339 . S
C121 H148 0.931 . S
C122 C123 1.395 . S
C122 C124 1.320 . S
C123 C121 1.339 . S
C123 C122 1.395 . S
C123 H149 0.929 . S
C124 C122 1.320 . S
C124 C125 1.405 . S
C124 H150 0.930 . S
C125 C120 1.479 . S
C125 C124 1.405 . S
C125 H151 0.931 . S
U126 O127 2.454 1_545 S
U126 O128 2.458 1_545 S
U126 C129 2.984 1_545 S
U126 C130 2.847 . S
U126 C143 2.882 . S
U126 O144 2.441 . S
U126 O145 2.420 . S
U126 O146 2.455 . S
U126 O147 2.449 . S
O127 U126 2.454 1_565 S
O127 C129 1.353 . S
O128 U126 2.458 1_565 S
O128 C129 1.286 . S
C129 U126 2.984 1_565 S
C129 O127 1.353 . S
C129 O128 1.286 . S
C129 C131 1.363 . S
C130 C120 1.465 . S
C130 U126 2.847 . S
C130 O144 1.249 . S
C130 O145 1.202 . S
C131 C129 1.363 . S
C131 C133 1.408 . S
C131 C136 1.342 . S
C132 C133 1.310 . S
C132 C135 1.461 . S
C132 H152 0.932 . S
C133 C131 1.408 . S
C133 C132 1.310 . S
C133 H153 0.930 . S
C134 C135 1.474 . S
C134 C136 1.285 . S
C134 H154 0.929 . S
C135 C132 1.461 . S
C135 C134 1.474 . S
C136 C131 1.342 . S
C136 C134 1.285 . S
C136 H155 0.930 . S
C137 C140 1.424 . S
C137 C142 1.245 . S
C137 C143 1.428 . S
C138 C141 1.260 . S
C138 C142 1.477 . S
C138 H156 0.932 . S
C139 C140 1.384 . S
C139 C141 1.479 . S
C139 H157 0.929 . S
C140 C137 1.424 . S
C140 C139 1.384 . S
C140 H158 0.928 . S
C141 C138 1.260 . S
C141 C139 1.479 . S
C142 C137 1.245 . S
C142 C138 1.477 . S
C142 H159 0.932 1_545 S
C143 U126 2.882 . S
C143 C137 1.428 . S
C143 O146 1.301 . S
C143 O147 1.282 . S
O144 U126 2.441 . S
O144 C130 1.249 . S
O145 U126 2.420 . S
O145 C130 1.202 . S
O146 U126 2.455 . S
O146 C143 1.301 . S
O147 U126 2.449 . S
O147 C143 1.282 . S
H148 C121 0.931 . S
H149 C123 0.929 . S
H150 C124 0.930 . S
H151 C125 0.931 . S
H152 C132 0.932 . S
H153 C133 0.930 . S
H154 C134 0.929 . S
H155 C136 0.930 . S
H156 C138 0.932 . S
H157 C139 0.929 . S
H158 C140 0.928 . S
H159 C142 0.932 1_565 S
C160 C161 1.264 . S
C160 C165 1.479 . S
C160 C170 1.465 . S
C161 C160 1.264 . S
C161 C163 1.339 . S
C161 H188 0.931 . S
C162 C163 1.395 . S
C162 C164 1.320 . S
C163 C161 1.339 . S
C163 C162 1.395 . S
C163 H189 0.929 . S
C164 C162 1.320 . S
C164 C165 1.405 . S
C164 H190 0.930 . S
C165 C160 1.479 . S
C165 C164 1.405 . S
C165 H191 0.931 . S
U166 O167 2.454 . S
U166 O168 2.458 . S
U166 C169 2.984 . S
U166 C170 2.847 . S
U166 C183 2.882 . S
U166 O184 2.441 . S
U166 O185 2.420 . S
U166 O186 2.455 . S
U166 O187 2.449 . S
O167 U166 2.454 . S
O167 C169 1.353 . S
O168 U166 2.458 . S
O168 C169 1.286 . S
C169 U166 2.984 . S
C169 O167 1.353 . S
C169 O168 1.286 . S
C169 C171 1.363 . S
C170 C160 1.465 . S
C170 U166 2.847 . S
C170 O184 1.249 . S
C170 O185 1.202 . S
C171 C169 1.363 . S
C171 C173 1.408 . S
C171 C176 1.342 . S
C172 C173 1.310 . S
C172 C175 1.461 . S
C172 H192 0.932 . S
C173 C171 1.408 . S
C173 C172 1.310 . S
C173 H193 0.930 . S
C174 C175 1.474 . S
C174 C176 1.285 . S
C174 H194 0.929 . S
C175 C172 1.461 . S
C175 C174 1.474 . S
C176 C171 1.342 . S
C176 C174 1.285 . S
C176 H195 0.930 . S
C177 C180 1.424 . S
C177 C182 1.245 . S
C177 C183 1.428 . S
C178 C181 1.260 . S
C178 C182 1.477 . S
C178 H196 0.932 . S
C179 C180 1.384 . S
C179 C181 1.479 . S
C179 H197 0.929 . S
C180 C177 1.424 . S
C180 C179 1.384 . S
C180 H198 0.928 . S
C181 C178 1.260 . S
C181 C179 1.479 . S
C182 C177 1.245 . S
C182 C178 1.477 . S
C182 H199 0.932 . S
C183 U166 2.882 . S
C183 C177 1.428 . S
C183 O186 1.301 . S
C183 O187 1.282 . S
O184 U166 2.441 . S
O184 C170 1.249 . S
O185 U166 2.420 . S
O185 C170 1.202 . S
O186 U166 2.455 . S
O186 C183 1.301 . S
O187 U166 2.449 . S
O187 C183 1.282 . S
H188 C161 0.931 . S
H189 C163 0.929 . S
H190 C164 0.930 . S
H191 C165 0.931 . S
H192 C172 0.932 . S
H193 C173 0.930 . S
H194 C174 0.929 . S
H195 C176 0.930 . S
H196 C178 0.932 . S
H197 C179 0.929 . S
H198 C180 0.928 . S
H199 C182 0.932 . S
C200 C201 1.264 . S
C200 C205 1.479 . S
C200 C210 1.465 . S
C201 C200 1.264 . S
C201 C203 1.339 . S
C201 H228 0.931 . S
C202 C203 1.395 . S
C202 C204 1.320 . S
C203 C201 1.339 . S
C203 C202 1.395 . S
C203 H229 0.929 . S
C204 C202 1.320 . S
C204 C205 1.405 . S
C204 H230 0.930 . S
C205 C200 1.479 . S
C205 C204 1.405 . S
C205 H231 0.931 . S
U206 O207 2.454 . S
U206 O208 2.458 . S
U206 C209 2.984 . S
U206 C210 2.847 1_455 S
U206 C223 2.882 . S
U206 O224 2.441 1_455 S
U206 O225 2.420 1_455 S
U206 O226 2.455 . S
U206 O227 2.460 . S
O207 U206 2.454 . S
O207 C209 1.353 . S
O208 U206 2.458 . S
O208 C209 1.286 . S
C209 U206 2.984 . S
C209 O207 1.353 . S
C209 O208 1.286 . S
C209 C211 1.363 . S
C210 C200 1.465 . S
C210 U206 2.847 1_655 S
C210 O224 1.249 . S
C210 O225 1.202 . S
C211 C209 1.363 . S
C211 C213 1.408 . S
C211 C216 1.342 . S
C212 C213 1.310 . S
C212 C215 1.461 . S
C212 H232 0.932 . S
C213 C211 1.408 . S
C213 C212 1.310 . S
C213 H233 0.930 . S
C214 C215 1.474 . S
C214 C216 1.285 . S
C214 H234 0.929 . S
C215 C212 1.461 . S
C215 C214 1.474 . S
C216 C211 1.342 . S
C216 C214 1.285 . S
C216 H235 0.930 . S
C217 C220 1.424 . S
C217 C222 1.245 . S
C217 C223 1.428 . S
C218 C221 1.295 . S
C218 C222 1.477 . S
C218 H236 0.932 . S
C219 C220 1.384 1_655 S
C219 C221 1.514 1_655 S
C219 H237 0.929 . S
C220 C217 1.424 . S
C220 C219 1.384 1_455 S
C220 H238 0.928 1_455 S
C221 C218 1.295 . S
C221 C219 1.514 1_455 S
C222 C217 1.245 . S
C222 C218 1.477 . S
C222 H239 0.932 . S
C223 U206 2.882 . S
C223 C217 1.428 . S
C223 O226 1.301 . S
C223 O227 1.304 . S
O224 U206 2.441 1_655 S
O224 C210 1.249 . S
O225 U206 2.420 1_655 S
O225 C210 1.202 . S
O226 U206 2.455 . S
O226 C223 1.301 . S
O227 U206 2.460 . S
O227 C223 1.304 . S
H228 C201 0.931 . S
H229 C203 0.929 . S
H230 C204 0.930 . S
H231 C205 0.931 . S
H232 C212 0.932 . S
H233 C213 0.930 . S
H234 C214 0.929 . S
H235 C216 0.930 . S
H236 C218 0.932 . S
H237 C219 0.929 . S
H238 C220 0.928 1_655 S
H239 C222 0.932 . S
C240 C241 1.264 . S
C240 C245 1.479 . S
C240 C250 1.465 . S
C241 C240 1.264 . S
C241 C243 1.339 . S
C241 H268 0.931 . S
C242 C243 1.395 . S
C242 C244 1.320 . S
C243 C241 1.339 . S
C243 C242 1.395 . S
C243 H269 0.929 . S
C244 C242 1.320 . S
C244 C245 1.405 . S
C244 H270 0.930 . S
C245 C240 1.479 . S
C245 C244 1.405 . S
C245 H271 0.931 . S
U246 O247 2.454 1_655 S
U246 O248 2.458 1_655 S
U246 C249 2.984 1_655 S
U246 C250 2.847 . S
U246 C263 2.882 . S
U246 O264 2.441 . S
U246 O265 2.420 . S
U246 O266 2.455 1_655 S
U246 O267 2.449 . S
O247 U246 2.454 1_455 S
O247 C249 1.353 . S
O248 U246 2.458 1_455 S
O248 C249 1.286 . S
C249 U246 2.984 1_455 S
C249 O247 1.353 . S
C249 O248 1.286 . S
C249 C251 1.363 . S
C250 C240 1.465 . S
C250 U246 2.847 . S
C250 O264 1.249 . S
C250 O265 1.202 . S
C251 C249 1.363 . S
C251 C253 1.408 . S
C251 C256 1.342 . S
C252 C253 1.310 . S
C252 C255 1.461 . S
C252 H272 0.932 . S
C253 C251 1.408 . S
C253 C252 1.310 . S
C253 H273 0.930 . S
C254 C255 1.474 . S
C254 C256 1.285 . S
C254 H274 0.929 . S
C255 C252 1.461 . S
C255 C254 1.474 . S
C256 C251 1.342 . S
C256 C254 1.285 . S
C256 H275 0.930 . S
C257 C260 1.424 . S
C257 C262 1.245 1_655 S
C257 C263 1.428 . S
C258 C261 1.260 1_455 S
C258 C262 1.477 . S
C258 H276 0.932 . S
C259 C260 1.384 . S
C259 C261 1.479 . S
C259 H277 0.929 . S
C260 C257 1.424 . S
C260 C259 1.384 . S
C260 H278 0.928 . S
C261 C258 1.260 1_655 S
C261 C259 1.479 . S
C262 C257 1.245 1_455 S
C262 C258 1.477 . S
C262 H279 0.932 . S
C263 U246 2.882 . S
C263 C257 1.428 . S
C263 O266 1.301 1_655 S
C263 O267 1.282 . S
O264 U246 2.441 . S
O264 C250 1.249 . S
O265 U246 2.420 . S
O265 C250 1.202 . S
O266 U246 2.455 1_455 S
O266 C263 1.301 1_455 S
O267 U246 2.449 . S
O267 C263 1.282 . S
H268 C241 0.931 . S
H269 C243 0.929 . S
H270 C244 0.930 . S
H271 C245 0.931 . S
H272 C252 0.932 . S
H273 C253 0.930 . S
H274 C254 0.929 . S
H275 C256 0.930 . S
H276 C258 0.932 . S
H277 C259 0.929 . S
H278 C260 0.928 . S
H279 C262 0.932 . S
C280 C281 1.264 . S
C280 C285 1.479 . S
C280 C290 1.465 . S
C281 C280 1.264 . S
C281 C283 1.339 . S
C281 H308 0.931 . S
C282 C283 1.395 . S
C282 C284 1.320 . S
C283 C281 1.339 . S
C283 C282 1.395 . S
C283 H309 0.929 . S
C284 C282 1.320 . S
C284 C285 1.405 . S
C284 H310 0.930 . S
C285 C280 1.479 . S
C285 C284 1.405 . S
C285 H311 0.931 . S
U286 O287 2.454 . S
U286 O288 2.458 . S
U286 C289 2.984 . S
U286 C290 2.847 1_545 S
U286 C303 2.882 1_545 S
U286 O304 2.441 1_545 S
U286 O305 2.420 1_545 S
U286 O306 2.455 . S
U286 O307 2.449 1_545 S
O287 U286 2.454 . S
O287 C289 1.353 . S
O288 U286 2.458 . S
O288 C289 1.286 . S
C289 U286 2.984 . S
C289 O287 1.353 . S
C289 O288 1.286 . S
C289 C291 1.363 . S
C290 C280 1.465 . S
C290 U286 2.847 1_565 S
C290 O304 1.249 . S
C290 O305 1.202 . S
C291 C289 1.363 . S
C291 C293 1.408 . S
C291 C296 1.342 . S
C292 C293 1.310 . S
C292 C295 1.461 . S
C292 H312 0.932 . S
C293 C291 1.408 . S
C293 C292 1.310 . S
C293 H313 0.930 . S
C294 C295 1.474 . S
C294 C296 1.285 . S
C294 H314 0.929 . S
C295 C292 1.461 . S
C295 C294 1.474 . S
C296 C291 1.342 . S
C296 C294 1.285 . S
C296 H315 0.930 . S
C297 C300 1.424 . S
C297 C302 1.245 1_565 S
C297 C303 1.428 . S
C298 C301 1.260 1_545 S
C298 C302 1.477 . S
C298 H316 0.932 . S
C299 C300 1.384 . S
C299 C301 1.479 . S
C299 H317 0.929 . S
C300 C297 1.424 . S
C300 C299 1.384 . S
C300 H318 0.928 . S
C301 C298 1.260 1_565 S
C301 C299 1.479 . S
C302 C297 1.245 1_545 S
C302 C298 1.477 . S
C302 H319 0.932 . S
C303 U286 2.882 1_565 S
C303 C297 1.428 . S
C303 O306 1.301 1_565 S
C303 O307 1.282 . S
O304 U286 2.441 1_565 S
O304 C290 1.249 . S
O305 U286 2.420 1_565 S
O305 C290 1.202 . S
O306 U286 2.455 . S
O306 C303 1.301 1_545 S
O307 U286 2.449 1_565 S
O307 C303 1.282 . S
H308 C281 0.931 . S
H309 C283 0.929 . S
H310 C284 0.930 . S
H311 C285 0.931 . S
H312 C292 0.932 . S
H313 C293 0.930 . S
H314 C294 0.929 . S
H315 C296 0.930 . S
H316 C298 0.932 . S
H317 C299 0.929 . S
H318 C300 0.928 . S
H319 C302 0.932 . S
C320 C321 1.264 . S
C320 C325 1.479 . S
C320 C330 1.465 . S
C321 C320 1.264 . S
C321 C323 1.339 . S
C321 H348 0.931 . S
C322 C323 1.395 . S
C322 C324 1.320 . S
C323 C321 1.339 . S
C323 C322 1.395 . S
C323 H349 0.929 . S
C324 C322 1.320 . S
C324 C325 1.405 . S
C324 H350 0.930 . S
C325 C320 1.479 . S
C325 C324 1.405 . S
C325 H351 0.931 . S
U326 O327 2.454 . S
U326 O328 2.458 . S
U326 C329 2.984 . S
U326 C330 2.847 . S
U326 C343 2.882 . S
U326 O344 2.441 . S
U326 O345 2.420 . S
U326 O346 2.455 . S
U326 O347 2.449 . S
O327 U326 2.454 . S
O327 C329 1.353 . S
O328 U326 2.458 . S
O328 C329 1.286 . S
C329 U326 2.984 . S
C329 O327 1.353 . S
C329 O328 1.286 . S
C329 C331 1.363 . S
C330 C320 1.465 . S
C330 U326 2.847 . S
C330 O344 1.249 . S
C330 O345 1.202 . S
C331 C329 1.363 . S
C331 C333 1.408 . S
C331 C336 1.342 . S
C332 C333 1.310 . S
C332 C335 1.461 . S
C332 H352 0.932 . S
C333 C331 1.408 . S
C333 C332 1.310 . S
C333 H353 0.930 . S
C334 C335 1.474 . S
C334 C336 1.285 . S
C334 H354 0.929 . S
C335 C332 1.461 . S
C335 C334 1.474 . S
C336 C331 1.342 . S
C336 C334 1.285 . S
C336 H355 0.930 . S
C337 C340 1.424 . S
C337 C342 1.245 . S
C337 C343 1.428 . S
C338 C341 1.260 . S
C338 C342 1.477 . S
C338 H356 0.932 . S
C339 C340 1.384 . S
C339 C341 1.479 . S
C339 H357 0.929 . S
C340 C337 1.424 . S
C340 C339 1.384 . S
C340 H358 0.928 . S
C341 C338 1.260 . S
C341 C339 1.479 . S
C342 C337 1.245 . S
C342 C338 1.477 . S
C342 H359 0.932 . S
C343 U326 2.882 . S
C343 C337 1.428 . S
C343 O346 1.301 . S
C343 O347 1.282 . S
O344 U326 2.441 . S
O344 C330 1.249 . S
O345 U326 2.420 . S
O345 C330 1.202 . S
O346 U326 2.455 . S
O346 C343 1.301 . S
O347 U326 2.449 . S
O347 C343 1.282 . S
H348 C321 0.931 . S
H349 C323 0.929 . S
H350 C324 0.930 . S
H351 C325 0.931 . S
H352 C332 0.932 . S
H353 C333 0.930 . S
H354 C334 0.929 . S
H355 C336 0.930 . S
H356 C338 0.932 . S
H357 C339 0.929 . S
H358 C340 0.928 . S
H359 C342 0.932 . S
C360 C361 1.391 . S
C360 C362 1.394 . S
C360 H376 0.931 . S
C361 C360 1.391 . S
C361 C365 1.376 . S
C362 C360 1.394 . S
C362 C363 1.369 . S
C362 C366 1.531 . S
C363 C362 1.369 . S
C363 C364 1.410 . S
C363 C371 1.503 . S
C364 C363 1.410 . S
C364 C365 1.392 . S
C364 C367 1.511 . S
C365 C361 1.376 . S
C365 C364 1.392 . S
C365 H377 0.929 . S
C366 C362 1.531 . S
C366 H378 0.960 . S
C366 H379 0.962 . S
C366 H380 0.960 . S
C367 C364 1.511 . S
C367 H381 0.961 . S
C367 H382 0.961 . S
C367 H383 0.961 . S
C368 C369 1.370 . S
C368 C370 1.363 . S
C368 H384 0.931 . S
C369 C368 1.370 . S
C369 C373 1.408 . S
C370 C368 1.363 . S
C370 C371 1.370 . S
C370 C374 1.524 . S
C371 C363 1.503 . S
C371 C370 1.370 . S
C371 C372 1.403 . S
C372 C371 1.403 . S
C372 C373 1.404 . S
C372 C375 1.539 . S
C373 C369 1.408 . S
C373 C372 1.404 . S
C373 H385 0.930 . S
C374 C370 1.524 . S
C374 H386 0.956 . S
C374 H387 0.961 . S
C374 H388 0.961 . S
C375 C372 1.539 . S
C375 H389 0.958 . S
C375 H390 0.961 . S
C375 H391 0.960 . S
H376 C360 0.931 . S
H377 C365 0.929 . S
H378 C366 0.960 . S
H379 C366 0.962 . S
H380 C366 0.960 . S
H381 C367 0.961 . S
H382 C367 0.961 . S
H383 C367 0.961 . S
H384 C368 0.931 . S
H385 C373 0.930 . S
H386 C374 0.956 . S
H387 C374 0.961 . S
H388 C374 0.961 . S
H389 C375 0.958 . S
H390 C375 0.961 . S
H391 C375 0.960 . S
C392 C393 1.391 . S
C392 C394 1.394 . S
C392 H408 0.931 . S
C393 C392 1.391 . S
C393 C397 1.376 . S
C394 C392 1.394 . S
C394 C395 1.369 . S
C394 C398 1.531 . S
C395 C394 1.369 . S
C395 C396 1.410 . S
C395 C403 1.503 . S
C396 C395 1.410 . S
C396 C397 1.392 . S
C396 C399 1.511 . S
C397 C393 1.376 . S
C397 C396 1.392 . S
C397 H409 0.929 . S
C398 C394 1.531 . S
C398 H410 0.960 . S
C398 H411 0.962 . S
C398 H412 0.960 . S
C399 C396 1.511 . S
C399 H413 0.961 . S
C399 H414 0.961 . S
C399 H415 0.961 . S
C400 C401 1.370 . S
C400 C402 1.363 . S
C400 H416 0.931 . S
C401 C400 1.370 . S
C401 C405 1.408 . S
C402 C400 1.363 . S
C402 C403 1.370 . S
C402 C406 1.524 . S
C403 C395 1.503 . S
C403 C402 1.370 . S
C403 C404 1.403 . S
C404 C403 1.403 . S
C404 C405 1.404 . S
C404 C407 1.539 . S
C405 C401 1.408 . S
C405 C404 1.404 . S
C405 H417 0.930 . S
C406 C402 1.524 . S
C406 H418 0.956 . S
C406 H419 0.961 . S
C406 H420 0.961 . S
C407 C404 1.539 . S
C407 H421 0.958 . S
C407 H422 0.961 . S
C407 H423 0.960 . S
H408 C392 0.931 . S
H409 C397 0.929 . S
H410 C398 0.960 . S
H411 C398 0.962 . S
H412 C398 0.960 . S
H413 C399 0.961 . S
H414 C399 0.961 . S
H415 C399 0.961 . S
H416 C400 0.931 . S
H417 C405 0.930 . S
H418 C406 0.956 . S
H419 C406 0.961 . S
H420 C406 0.961 . S
H421 C407 0.958 . S
H422 C407 0.961 . S
H423 C407 0.960 . S
C424 C425 1.391 . S
C424 C426 1.394 . S
C424 H440 0.931 . S
C425 C424 1.391 . S
C425 C429 1.376 . S
C426 C424 1.394 . S
C426 C427 1.369 . S
C426 C430 1.531 . S
C427 C426 1.369 . S
C427 C428 1.410 . S
C427 C435 1.503 . S
C428 C427 1.410 . S
C428 C429 1.392 . S
C428 C431 1.511 . S
C429 C425 1.376 . S
C429 C428 1.392 . S
C429 H441 0.929 . S
C430 C426 1.531 . S
C430 H442 0.960 . S
C430 H443 0.962 . S
C430 H444 0.960 . S
C431 C428 1.511 . S
C431 H445 0.961 . S
C431 H446 0.961 . S
C431 H447 0.961 . S
C432 C433 1.370 . S
C432 C434 1.363 . S
C432 H448 0.931 . S
C433 C432 1.370 . S
C433 C437 1.408 . S
C434 C432 1.363 . S
C434 C435 1.370 . S
C434 C438 1.524 . S
C435 C427 1.503 . S
C435 C434 1.370 . S
C435 C436 1.403 . S
C436 C435 1.403 . S
C436 C437 1.404 . S
C436 C439 1.539 . S
C437 C433 1.408 . S
C437 C436 1.404 . S
C437 H449 0.930 . S
C438 C434 1.524 . S
C438 H450 0.956 . S
C438 H451 0.961 . S
C438 H452 0.961 . S
C439 C436 1.539 . S
C439 H453 0.958 . S
C439 H454 0.961 . S
C439 H455 0.960 . S
H440 C424 0.931 . S
H441 C429 0.929 . S
H442 C430 0.960 . S
H443 C430 0.962 . S
H444 C430 0.960 . S
H445 C431 0.961 . S
H446 C431 0.961 . S
H447 C431 0.961 . S
H448 C432 0.931 . S
H449 C437 0.930 . S
H450 C438 0.956 . S
H451 C438 0.961 . S
H452 C438 0.961 . S
H453 C439 0.958 . S
H454 C439 0.961 . S
H455 C439 0.960 . S
C456 C457 1.391 . S
C456 C458 1.394 . S
C456 H472 0.931 . S
C457 C456 1.391 . S
C457 C461 1.376 . S
C458 C456 1.394 . S
C458 C459 1.369 . S
C458 C462 1.531 . S
C459 C458 1.369 . S
C459 C460 1.410 . S
C459 C467 1.503 . S
C460 C459 1.410 . S
C460 C461 1.392 . S
C460 C463 1.511 . S
C461 C457 1.376 . S
C461 C460 1.392 . S
C461 H473 0.929 . S
C462 C458 1.531 . S
C462 H474 0.960 . S
C462 H475 0.962 . S
C462 H476 0.960 . S
C463 C460 1.511 . S
C463 H477 0.961 . S
C463 H478 0.961 . S
C463 H479 0.961 . S
C464 C465 1.370 . S
C464 C466 1.363 . S
C464 H480 0.931 . S
C465 C464 1.370 . S
C465 C469 1.408 . S
C466 C464 1.363 . S
C466 C467 1.370 . S
C466 C470 1.524 . S
C467 C459 1.503 . S
C467 C466 1.370 . S
C467 C468 1.403 . S
C468 C467 1.403 . S
C468 C469 1.404 . S
C468 C471 1.539 . S
C469 C465 1.408 . S
C469 C468 1.404 . S
C469 H481 0.930 . S
C470 C466 1.524 . S
C470 H482 0.956 . S
C470 H483 0.961 . S
C470 H484 0.961 . S
C471 C468 1.539 . S
C471 H485 0.958 . S
C471 H486 0.961 . S
C471 H487 0.960 . S
H472 C456 0.931 . S
H473 C461 0.929 . S
H474 C462 0.960 . S
H475 C462 0.962 . S
H476 C462 0.960 . S
H477 C463 0.961 . S
H478 C463 0.961 . S
H479 C463 0.961 . S
H480 C464 0.931 . S
H481 C469 0.930 . S
H482 C470 0.956 . S
H483 C470 0.961 . S
H484 C470 0.961 . S
H485 C471 0.958 . S
H486 C471 0.961 . S
H487 C471 0.960 . S
C488 C489 1.391 . S
C488 C490 1.394 . S
C488 H504 0.931 . S
C489 C488 1.391 . S
C489 C493 1.376 . S
C490 C488 1.394 . S
C490 C491 1.369 . S
C490 C494 1.531 . S
C491 C490 1.369 . S
C491 C492 1.410 . S
C491 C499 1.503 . S
C492 C491 1.410 . S
C492 C493 1.392 . S
C492 C495 1.511 . S
C493 C489 1.376 . S
C493 C492 1.392 . S
C493 H505 0.929 . S
C494 C490 1.531 . S
C494 H506 0.960 . S
C494 H507 0.962 . S
C494 H508 0.960 . S
C495 C492 1.511 . S
C495 H509 0.961 . S
C495 H510 0.961 . S
C495 H511 0.961 . S
C496 C497 1.370 . S
C496 C498 1.363 . S
C496 H512 0.931 . S
C497 C496 1.370 . S
C497 C501 1.408 . S
C498 C496 1.363 . S
C498 C499 1.370 . S
C498 C502 1.524 . S
C499 C491 1.503 . S
C499 C498 1.370 . S
C499 C500 1.403 . S
C500 C499 1.403 . S
C500 C501 1.404 . S
C500 C503 1.539 . S
C501 C497 1.408 . S
C501 C500 1.404 . S
C501 H513 0.930 . S
C502 C498 1.524 . S
C502 H514 0.956 . S
C502 H515 0.961 . S
C502 H516 0.961 . S
C503 C500 1.539 . S
C503 H517 0.958 . S
C503 H518 0.961 . S
C503 H519 0.960 . S
H504 C488 0.931 . S
H505 C493 0.929 . S
H506 C494 0.960 . S
H507 C494 0.962 . S
H508 C494 0.960 . S
H509 C495 0.961 . S
H510 C495 0.961 . S
H511 C495 0.961 . S
H512 C496 0.931 . S
H513 C501 0.930 . S
H514 C502 0.956 . S
H515 C502 0.961 . S
H516 C502 0.961 . S
H517 C503 0.958 . S
H518 C503 0.961 . S
H519 C503 0.960 . S
C520 C521 1.391 . S
C520 C522 1.394 . S
C520 H536 0.931 . S
C521 C520 1.391 . S
C521 C525 1.376 . S
C522 C520 1.394 . S
C522 C523 1.369 . S
C522 C526 1.531 . S
C523 C522 1.369 . S
C523 C524 1.410 . S
C523 C531 1.503 . S
C524 C523 1.410 . S
C524 C525 1.392 . S
C524 C527 1.511 . S
C525 C521 1.376 . S
C525 C524 1.392 . S
C525 H537 0.929 . S
C526 C522 1.531 . S
C526 H538 0.960 . S
C526 H539 0.962 . S
C526 H540 0.960 . S
C527 C524 1.511 . S
C527 H541 0.961 . S
C527 H542 0.961 . S
C527 H543 0.961 . S
C528 C529 1.370 . S
C528 C530 1.363 . S
C528 H544 0.931 . S
C529 C528 1.370 . S
C529 C533 1.408 . S
C530 C528 1.363 . S
C530 C531 1.370 . S
C530 C534 1.524 . S
C531 C523 1.503 . S
C531 C530 1.370 . S
C531 C532 1.403 . S
C532 C531 1.403 . S
C532 C533 1.404 . S
C532 C535 1.539 . S
C533 C529 1.408 . S
C533 C532 1.404 . S
C533 H545 0.930 . S
C534 C530 1.524 . S
C534 H546 0.956 . S
C534 H547 0.961 . S
C534 H548 0.961 . S
C535 C532 1.539 . S
C535 H549 0.958 . S
C535 H550 0.961 . S
C535 H551 0.960 . S
H536 C520 0.931 . S
H537 C525 0.929 . S
H538 C526 0.960 . S
H539 C526 0.962 . S
H540 C526 0.960 . S
H541 C527 0.961 . S
H542 C527 0.961 . S
H543 C527 0.961 . S
H544 C528 0.931 . S
H545 C533 0.930 . S
H546 C534 0.956 . S
H547 C534 0.961 . S
H548 C534 0.961 . S
H549 C535 0.958 . S
H550 C535 0.961 . S
H551 C535 0.960 . S
C552 C553 1.391 . S
C552 C554 1.394 . S
C552 H568 0.931 . S
C553 C552 1.391 . S
C553 C557 1.376 . S
C554 C552 1.394 . S
C554 C555 1.369 . S
C554 C558 1.531 . S
C555 C554 1.369 . S
C555 C556 1.410 . S
C555 C563 1.503 . S
C556 C555 1.410 . S
C556 C557 1.392 . S
C556 C559 1.511 . S
C557 C553 1.376 . S
C557 C556 1.392 . S
C557 H569 0.929 . S
C558 C554 1.531 . S
C558 H570 0.960 . S
C558 H571 0.962 . S
C558 H572 0.960 . S
C559 C556 1.511 . S
C559 H573 0.961 . S
C559 H574 0.961 . S
C559 H575 0.961 . S
C560 C561 1.370 . S
C560 C562 1.363 . S
C560 H576 0.931 . S
C561 C560 1.370 . S
C561 C565 1.408 . S
C562 C560 1.363 . S
C562 C563 1.370 . S
C562 C566 1.524 . S
C563 C555 1.503 . S
C563 C562 1.370 . S
C563 C564 1.403 . S
C564 C563 1.403 . S
C564 C565 1.404 . S
C564 C567 1.539 . S
C565 C561 1.408 . S
C565 C564 1.404 . S
C565 H577 0.930 . S
C566 C562 1.524 . S
C566 H578 0.956 . S
C566 H579 0.961 . S
C566 H580 0.961 . S
C567 C564 1.539 . S
C567 H581 0.958 . S
C567 H582 0.961 . S
C567 H583 0.960 . S
H568 C552 0.931 . S
H569 C557 0.929 . S
H570 C558 0.960 . S
H571 C558 0.962 . S
H572 C558 0.960 . S
H573 C559 0.961 . S
H574 C559 0.961 . S
H575 C559 0.961 . S
H576 C560 0.931 . S
H577 C565 0.930 . S
H578 C566 0.956 . S
H579 C566 0.961 . S
H580 C566 0.961 . S
H581 C567 0.958 . S
H582 C567 0.961 . S
H583 C567 0.960 . S
C584 C585 1.391 . S
C584 C586 1.394 . S
C584 H600 0.931 . S
C585 C584 1.391 . S
C585 C589 1.376 . S
C586 C584 1.394 . S
C586 C587 1.369 . S
C586 C590 1.531 . S
C587 C586 1.369 . S
C587 C588 1.410 . S
C587 C595 1.503 . S
C588 C587 1.410 . S
C588 C589 1.392 . S
C588 C591 1.511 . S
C589 C585 1.376 . S
C589 C588 1.392 . S
C589 H601 0.929 . S
C590 C586 1.531 . S
C590 H602 0.960 . S
C590 H603 0.962 . S
C590 H604 0.960 . S
C591 C588 1.511 . S
C591 H605 0.961 . S
C591 H606 0.961 . S
C591 H607 0.961 . S
C592 C593 1.370 . S
C592 C594 1.363 . S
C592 H608 0.931 . S
C593 C592 1.370 . S
C593 C597 1.408 . S
C594 C592 1.363 . S
C594 C595 1.370 . S
C594 C598 1.524 . S
C595 C587 1.503 . S
C595 C594 1.370 . S
C595 C596 1.403 . S
C596 C595 1.403 . S
C596 C597 1.404 . S
C596 C599 1.539 . S
C597 C593 1.408 . S
C597 C596 1.404 . S
C597 H609 0.930 . S
C598 C594 1.524 . S
C598 H610 0.956 . S
C598 H611 0.961 . S
C598 H612 0.961 . S
C599 C596 1.539 . S
C599 H613 0.958 . S
C599 H614 0.961 . S
C599 H615 0.960 . S
H600 C584 0.931 . S
H601 C589 0.929 . S
H602 C590 0.960 . S
H603 C590 0.962 . S
H604 C590 0.960 . S
H605 C591 0.961 . S
H606 C591 0.961 . S
H607 C591 0.961 . S
H608 C592 0.931 . S
H609 C597 0.930 . S
H610 C598 0.956 . S
H611 C598 0.961 . S
H612 C598 0.961 . S
H613 C599 0.958 . S
H614 C599 0.961 . S
H615 C599 0.960 . S
C616 C617 1.391 . S
C616 C618 1.394 . S
C616 H632 0.931 . S
C617 C616 1.391 . S
C617 C621 1.376 . S
C618 C616 1.394 . S
C618 C619 1.369 . S
C618 C622 1.531 . S
C619 C618 1.369 . S
C619 C620 1.410 . S
C619 C627 1.503 . S
C620 C619 1.410 . S
C620 C621 1.392 . S
C620 C623 1.511 . S
C621 C617 1.376 . S
C621 C620 1.392 . S
C621 H633 0.929 . S
C622 C618 1.531 . S
C622 H634 0.960 . S
C622 H635 0.962 . S
C622 H636 0.960 . S
C623 C620 1.511 . S
C623 H637 0.961 . S
C623 H638 0.961 . S
C623 H639 0.961 . S
C624 C625 1.370 . S
C624 C626 1.363 . S
C624 H640 0.931 . S
C625 C624 1.370 . S
C625 C629 1.408 . S
C626 C624 1.363 . S
C626 C627 1.370 . S
C626 C630 1.524 . S
C627 C619 1.503 . S
C627 C626 1.370 . S
C627 C628 1.403 . S
C628 C627 1.403 . S
C628 C629 1.404 . S
C628 C631 1.539 . S
C629 C625 1.408 . S
C629 C628 1.404 . S
C629 H641 0.930 . S
C630 C626 1.524 . S
C630 H642 0.956 . S
C630 H643 0.961 . S
C630 H644 0.961 . S
C631 C628 1.539 . S
C631 H645 0.958 . S
C631 H646 0.961 . S
C631 H647 0.960 . S
H632 C616 0.931 . S
H633 C621 0.929 . S
H634 C622 0.960 . S
H635 C622 0.962 . S
H636 C622 0.960 . S
H637 C623 0.961 . S
H638 C623 0.961 . S
H639 C623 0.961 . S
H640 C624 0.931 . S
H641 C629 0.930 . S
H642 C630 0.956 . S
H643 C630 0.961 . S
H644 C630 0.961 . S
H645 C631 0.958 . S
H646 C631 0.961 . S
H647 C631 0.960 . S
C648 C649 1.391 . S
C648 C650 1.394 . S
C648 H664 0.931 . S
C649 C648 1.391 . S
C649 C653 1.376 . S
C650 C648 1.394 . S
C650 C651 1.369 . S
C650 C654 1.531 . S
C651 C650 1.369 . S
C651 C652 1.410 . S
C651 C659 1.503 . S
C652 C651 1.410 . S
C652 C653 1.392 . S
C652 C655 1.511 . S
C653 C649 1.376 . S
C653 C652 1.392 . S
C653 H665 0.929 . S
C654 C650 1.531 . S
C654 H666 0.960 . S
C654 H667 0.962 . S
C654 H668 0.960 . S
C655 C652 1.511 . S
C655 H669 0.961 . S
C655 H670 0.961 . S
C655 H671 0.961 . S
C656 C657 1.370 . S
C656 C658 1.363 . S
C656 H672 0.931 . S
C657 C656 1.370 . S
C657 C661 1.408 . S
C658 C656 1.363 . S
C658 C659 1.370 . S
C658 C662 1.524 . S
C659 C651 1.503 . S
C659 C658 1.370 . S
C659 C660 1.403 . S
C660 C659 1.403 . S
C660 C661 1.404 . S
C660 C663 1.539 . S
C661 C657 1.408 . S
C661 C660 1.404 . S
C661 H673 0.930 . S
C662 C658 1.524 . S
C662 H674 0.956 . S
C662 H675 0.961 . S
C662 H676 0.961 . S
C663 C660 1.539 . S
C663 H677 0.958 . S
C663 H678 0.961 . S
C663 H679 0.960 . S
H664 C648 0.931 . S
H665 C653 0.929 . S
H666 C654 0.960 . S
H667 C654 0.962 . S
H668 C654 0.960 . S
H669 C655 0.961 . S
H670 C655 0.961 . S
H671 C655 0.961 . S
H672 C656 0.931 . S
H673 C661 0.930 . S
H674 C662 0.956 . S
H675 C662 0.961 . S
H676 C662 0.961 . S
H677 C663 0.958 . S
H678 C663 0.961 . S
H679 C663 0.960 . S
C680 C681 1.391 . S
C680 C682 1.394 . S
C680 H696 0.931 . S
C681 C680 1.391 . S
C681 C685 1.376 . S
C682 C680 1.394 . S
C682 C683 1.369 . S
C682 C686 1.531 . S
C683 C682 1.369 . S
C683 C684 1.410 . S
C683 C691 1.503 . S
C684 C683 1.410 . S
C684 C685 1.392 . S
C684 C687 1.511 . S
C685 C681 1.376 . S
C685 C684 1.392 . S
C685 H697 0.929 . S
C686 C682 1.531 . S
C686 H698 0.960 . S
C686 H699 0.962 . S
C686 H700 0.960 . S
C687 C684 1.511 . S
C687 H701 0.961 . S
C687 H702 0.961 . S
C687 H703 0.961 . S
C688 C689 1.370 . S
C688 C690 1.363 . S
C688 H704 0.931 . S
C689 C688 1.370 . S
C689 C693 1.408 . S
C690 C688 1.363 . S
C690 C691 1.370 . S
C690 C694 1.524 . S
C691 C683 1.503 . S
C691 C690 1.370 . S
C691 C692 1.403 . S
C692 C691 1.403 . S
C692 C693 1.404 . S
C692 C695 1.539 . S
C693 C689 1.408 . S
C693 C692 1.404 . S
C693 H705 0.930 . S
C694 C690 1.524 . S
C694 H706 0.956 . S
C694 H707 0.961 . S
C694 H708 0.961 . S
C695 C692 1.539 . S
C695 H709 0.958 . S
C695 H710 0.961 . S
C695 H711 0.960 . S
H696 C680 0.931 . S
H697 C685 0.929 . S
H698 C686 0.960 . S
H699 C686 0.962 . S
H700 C686 0.960 . S
H701 C687 0.961 . S
H702 C687 0.961 . S
H703 C687 0.961 . S
H704 C688 0.931 . S
H705 C693 0.930 . S
H706 C694 0.956 . S
H707 C694 0.961 . S
H708 C694 0.961 . S
H709 C695 0.958 . S
H710 C695 0.961 . S
H711 C695 0.960 . S
C712 C713 1.391 . S
C712 C714 1.394 . S
C712 H728 0.931 . S
C713 C712 1.391 . S
C713 C717 1.376 . S
C714 C712 1.394 . S
C714 C715 1.369 . S
C714 C718 1.531 . S
C715 C714 1.369 . S
C715 C716 1.410 . S
C715 C723 1.503 . S
C716 C715 1.410 . S
C716 C717 1.392 . S
C716 C719 1.511 . S
C717 C713 1.376 . S
C717 C716 1.392 . S
C717 H729 0.929 . S
C718 C714 1.531 . S
C718 H730 0.960 . S
C718 H731 0.962 . S
C718 H732 0.960 . S
C719 C716 1.511 . S
C719 H733 0.961 . S
C719 H734 0.961 . S
C719 H735 0.961 . S
C720 C721 1.370 . S
C720 C722 1.363 . S
C720 H736 0.931 . S
C721 C720 1.370 . S
C721 C725 1.408 . S
C722 C720 1.363 . S
C722 C723 1.370 . S
C722 C726 1.524 . S
C723 C715 1.503 . S
C723 C722 1.370 . S
C723 C724 1.403 . S
C724 C723 1.403 . S
C724 C725 1.404 . S
C724 C727 1.539 . S
C725 C721 1.408 . S
C725 C724 1.404 . S
C725 H737 0.930 . S
C726 C722 1.524 . S
C726 H738 0.956 . S
C726 H739 0.961 . S
C726 H740 0.961 . S
C727 C724 1.539 . S
C727 H741 0.958 . S
C727 H742 0.961 . S
C727 H743 0.960 . S
H728 C712 0.931 . S
H729 C717 0.929 . S
H730 C718 0.960 . S
H731 C718 0.962 . S
H732 C718 0.960 . S
H733 C719 0.961 . S
H734 C719 0.961 . S
H735 C719 0.961 . S
H736 C720 0.931 . S
H737 C725 0.930 . S
H738 C726 0.956 . S
H739 C726 0.961 . S
H740 C726 0.961 . S
H741 C727 0.958 . S
H742 C727 0.961 . S
H743 C727 0.960 . S
C744 C745 1.391 . S
C744 C746 1.394 . S
C744 H760 0.931 1_455 S
C745 C744 1.391 . S
C745 C749 1.376 . S
C746 C744 1.394 . S
C746 C747 1.369 . S
C746 C750 1.531 1_455 S
C747 C746 1.369 . S
C747 C748 1.410 . S
C747 C755 1.503 . S
C748 C747 1.410 . S
C748 C749 1.392 . S
C748 C751 1.511 . S
C749 C745 1.376 . S
C749 C748 1.392 . S
C749 H761 0.929 . S
C750 C746 1.531 1_655 S
C750 H762 0.960 1_655 S
C750 H763 0.962 . S
C750 H764 0.960 . S
C751 C748 1.511 . S
C751 H765 0.961 . S
C751 H766 0.961 . S
C751 H767 0.961 . S
C752 C753 1.370 . S
C752 C754 1.363 . S
C752 H768 0.931 1_455 S
C753 C752 1.370 . S
C753 C757 1.408 . S
C754 C752 1.363 . S
C754 C755 1.370 . S
C754 C758 1.524 1_455 S
C755 C747 1.503 . S
C755 C754 1.370 . S
C755 C756 1.403 . S
C756 C755 1.403 . S
C756 C757 1.404 . S
C756 C759 1.539 . S
C757 C753 1.408 . S
C757 C756 1.404 . S
C757 H769 0.930 . S
C758 C754 1.524 1_655 S
C758 H770 0.956 . S
C758 H771 0.961 . S
C758 H772 0.961 . S
C759 C756 1.539 . S
C759 H773 0.958 . S
C759 H774 0.961 . S
C759 H775 0.960 . S
H760 C744 0.931 1_655 S
H761 C749 0.929 . S
H762 C750 0.960 1_455 S
H763 C750 0.962 . S
H764 C750 0.960 . S
H765 C751 0.961 . S
H766 C751 0.961 . S
H767 C751 0.961 . S
H768 C752 0.931 1_655 S
H769 C757 0.930 . S
H770 C758 0.956 . S
H771 C758 0.961 . S
H772 C758 0.961 . S
H773 C759 0.958 . S
H774 C759 0.961 . S
H775 C759 0.960 . S
C776 C777 1.386 1_565 S
C776 C778 1.392 1_565 S
C776 H792 0.936 . S
C777 C776 1.386 1_545 S
C777 C781 1.376 . S
C778 C776 1.392 1_545 S
C778 C779 1.380 . S
C778 C782 1.521 1_545 S
C779 C778 1.380 . S
C779 C780 1.410 . S
C779 C787 1.503 . S
C780 C779 1.410 . S
C780 C781 1.392 . S
C780 C783 1.511 . S
C781 C777 1.376 . S
C781 C780 1.392 . S
C781 H793 0.929 . S
C782 C778 1.521 1_565 S
C782 H794 0.960 . S
C782 H795 0.962 . S
C782 H796 0.960 . S
C783 C780 1.511 . S
C783 H797 0.961 . S
C783 H798 0.961 . S
C783 H799 0.961 . S
C784 C785 1.370 . S
C784 C786 1.363 . S
C784 H800 0.931 . S
C785 C784 1.370 . S
C785 C789 1.408 . S
C786 C784 1.363 . S
C786 C787 1.370 . S
C786 C790 1.524 . S
C787 C779 1.503 . S
C787 C786 1.370 . S
C787 C788 1.402 . S
C788 C787 1.402 . S
C788 C789 1.403 . S
C788 C791 1.540 1_545 S
C789 C785 1.408 . S
C789 C788 1.403 . S
C789 H801 0.930 1_545 S
C790 C786 1.524 . S
C790 H802 0.956 . S
C790 H803 0.961 . S
C790 H804 0.961 . S
C791 C788 1.540 1_565 S
C791 H805 0.958 . S
C791 H806 0.961 . S
C791 H807 0.960 . S
H792 C776 0.936 . S
H793 C781 0.929 . S
H794 C782 0.960 . S
H795 C782 0.962 . S
H796 C782 0.960 . S
H797 C783 0.961 . S
H798 C783 0.961 . S
H799 C783 0.961 . S
H800 C784 0.931 . S
H801 C789 0.930 1_565 S
H802 C790 0.956 . S
H803 C790 0.961 . S
H804 C790 0.961 . S
H805 C791 0.958 . S
H806 C791 0.961 . S
H807 C791 0.960 . S
C808 C809 1.391 . S
C808 C810 1.394 . S
C808 H824 0.931 . S
C809 C808 1.391 . S
C809 C813 1.376 . S
C810 C808 1.394 . S
C810 C811 1.369 . S
C810 C814 1.531 . S
C811 C810 1.369 . S
C811 C812 1.410 . S
C811 C819 1.503 . S
C812 C811 1.410 . S
C812 C813 1.392 . S
C812 C815 1.511 . S
C813 C809 1.376 . S
C813 C812 1.392 . S
C813 H825 0.929 . S
C814 C810 1.531 . S
C814 H826 0.960 . S
C814 H827 0.962 . S
C814 H828 0.960 . S
C815 C812 1.511 . S
C815 H829 0.961 . S
C815 H830 0.961 . S
C815 H831 0.961 . S
C816 C817 1.370 . S
C816 C818 1.363 . S
C816 H832 0.931 . S
C817 C816 1.370 . S
C817 C821 1.408 . S
C818 C816 1.363 . S
C818 C819 1.370 . S
C818 C822 1.524 . S
C819 C811 1.503 . S
C819 C818 1.370 . S
C819 C820 1.403 . S
C820 C819 1.403 . S
C820 C821 1.404 . S
C820 C823 1.539 . S
C821 C817 1.408 . S
C821 C820 1.404 . S
C821 H833 0.930 . S
C822 C818 1.524 . S
C822 H834 0.956 . S
C822 H835 0.961 . S
C822 H836 0.961 . S
C823 C820 1.539 . S
C823 H837 0.958 . S
C823 H838 0.961 . S
C823 H839 0.960 . S
H824 C808 0.931 . S
H825 C813 0.929 . S
H826 C814 0.960 . S
H827 C814 0.962 . S
H828 C814 0.960 . S
H829 C815 0.961 . S
H830 C815 0.961 . S
H831 C815 0.961 . S
H832 C816 0.931 . S
H833 C821 0.930 . S
H834 C822 0.956 . S
H835 C822 0.961 . S
H836 C822 0.961 . S
H837 C823 0.958 . S
H838 C823 0.961 . S
H839 C823 0.960 . S
C840 C841 1.391 . S
C840 C842 1.394 . S
C840 H856 0.931 . S
C841 C840 1.391 . S
C841 C845 1.376 . S
C842 C840 1.394 . S
C842 C843 1.369 1_545 S
C842 C846 1.531 1_545 S
C843 C842 1.369 1_565 S
C843 C844 1.409 . S
C843 C851 1.503 . S
C844 C843 1.409 . S
C844 C845 1.392 1_565 S
C844 C847 1.512 . S
C845 C841 1.376 . S
C845 C844 1.392 1_545 S
C845 H857 0.929 . S
C846 C842 1.531 1_565 S
C846 H858 0.960 . S
C846 H859 0.962 1_565 S
C846 H860 0.960 . S
C847 C844 1.512 . S
C847 H861 0.961 1_565 S
C847 H862 0.961 1_565 S
C847 H863 0.961 . S
C848 C849 1.370 1_545 S
C848 C850 1.363 . S
C848 H864 0.931 . S
C849 C848 1.370 1_565 S
C849 C853 1.408 . S
C850 C848 1.363 . S
C850 C851 1.370 1_545 S
C850 C854 1.524 . S
C851 C843 1.503 . S
C851 C850 1.370 1_565 S
C851 C852 1.403 . S
C852 C851 1.403 . S
C852 C853 1.404 . S
C852 C855 1.539 . S
C853 C849 1.408 . S
C853 C852 1.404 . S
C853 H865 0.930 . S
C854 C850 1.524 . S
C854 H866 0.956 . S
C854 H867 0.961 . S
C854 H868 0.961 . S
C855 C852 1.539 . S
C855 H869 0.958 . S
C855 H870 0.961 . S
C855 H871 0.960 . S
H856 C840 0.931 . S
H857 C845 0.929 . S
H858 C846 0.960 . S
H859 C846 0.962 1_545 S
H860 C846 0.960 . S
H861 C847 0.961 1_545 S
H862 C847 0.961 1_545 S
H863 C847 0.961 . S
H864 C848 0.931 . S
H865 C853 0.930 . S
H866 C854 0.956 . S
H867 C854 0.961 . S
H868 C854 0.961 . S
H869 C855 0.958 . S
H870 C855 0.961 . S
H871 C855 0.960 . S
C872 C873 1.391 . S
C872 C874 1.394 . S
C872 H888 0.931 . S
C873 C872 1.391 . S
C873 C877 1.376 . S
C874 C872 1.394 . S
C874 C875 1.369 . S
C874 C878 1.531 . S
C875 C874 1.369 . S
C875 C876 1.410 . S
C875 C883 1.503 . S
C876 C875 1.410 . S
C876 C877 1.392 . S
C876 C879 1.511 . S
C877 C873 1.376 . S
C877 C876 1.392 . S
C877 H889 0.929 . S
C878 C874 1.531 . S
C878 H890 0.960 . S
C878 H891 0.962 . S
C878 H892 0.960 . S
C879 C876 1.511 . S
C879 H893 0.961 . S
C879 H894 0.961 . S
C879 H895 0.961 . S
C880 C881 1.370 . S
C880 C882 1.363 . S
C880 H896 0.931 . S
C881 C880 1.370 . S
C881 C885 1.408 . S
C882 C880 1.363 . S
C882 C883 1.370 . S
C882 C886 1.524 . S
C883 C875 1.503 . S
C883 C882 1.370 . S
C883 C884 1.403 . S
C884 C883 1.403 . S
C884 C885 1.404 . S
C884 C887 1.539 . S
C885 C881 1.408 . S
C885 C884 1.404 . S
C885 H897 0.930 . S
C886 C882 1.524 . S
C886 H898 0.956 . S
C886 H899 0.961 . S
C886 H900 0.961 . S
C887 C884 1.539 . S
C887 H901 0.958 . S
C887 H902 0.961 . S
C887 H903 0.960 . S
H888 C872 0.931 . S
H889 C877 0.929 . S
H890 C878 0.960 . S
H891 C878 0.962 . S
H892 C878 0.960 . S
H893 C879 0.961 . S
H894 C879 0.961 . S
H895 C879 0.961 . S
H896 C880 0.931 . S
H897 C885 0.930 . S
H898 C886 0.956 . S
H899 C886 0.961 . S
H900 C886 0.961 . S
H901 C887 0.958 . S
H902 C887 0.961 . S
H903 C887 0.960 . S
C904 C905 1.391 . S
C904 C906 1.394 . S
C904 H920 0.931 . S
C905 C904 1.391 . S
C905 C909 1.376 1_455 S
C906 C904 1.394 . S
C906 C907 1.369 . S
C906 C910 1.531 . S
C907 C906 1.369 . S
C907 C908 1.410 1_455 S
C907 C915 1.503 . S
C908 C907 1.410 1_655 S
C908 C909 1.392 . S
C908 C911 1.511 . S
C909 C905 1.376 1_655 S
C909 C908 1.392 . S
C909 H921 0.929 . S
C910 C906 1.531 . S
C910 H922 0.960 . S
C910 H923 0.962 . S
C910 H924 0.960 . S
C911 C908 1.511 . S
C911 H925 0.961 . S
C911 H926 0.961 . S
C911 H927 0.961 . S
C912 C913 1.376 . S
C912 C914 1.363 . S
C912 H928 0.931 . S
C913 C912 1.376 . S
C913 C917 1.399 1_655 S
C914 C912 1.363 . S
C914 C915 1.370 1_655 S
C914 C918 1.524 . S
C915 C907 1.503 . S
C915 C914 1.370 1_455 S
C915 C916 1.403 . S
C916 C915 1.403 . S
C916 C917 1.404 . S
C916 C919 1.539 . S
C917 C913 1.399 1_455 S
C917 C916 1.404 . S
C917 H929 0.930 . S
C918 C914 1.524 . S
C918 H930 0.956 . S
C918 H931 0.961 . S
C918 H932 0.961 . S
C919 C916 1.539 . S
C919 H933 0.958 . S
C919 H934 0.961 . S
C919 H935 0.960 . S
H920 C904 0.931 . S
H921 C909 0.929 . S
H922 C910 0.960 . S
H923 C910 0.962 . S
H924 C910 0.960 . S
H925 C911 0.961 . S
H926 C911 0.961 . S
H927 C911 0.961 . S
H928 C912 0.931 . S
H929 C917 0.930 . S
H930 C918 0.956 . S
H931 C918 0.961 . S
H932 C918 0.961 . S
H933 C919 0.958 . S
H934 C919 0.961 . S
H935 C919 0.960 . S
C361 C10 3.181 . S
C369 C335 3.142 . S
C393 C55 1.190 . S
C401 C242 1.183 . S
C425 C90 1.962 . S
C433 C282 1.926 . S
C457 C19 3.036 . S
C465 C322 3.021 . S
C497 C255 1.327 . S
C489 C46 1.321 . S
C529 C295 2.135 . S
C521 C99 2.178 . S
C553 C50 1.969 . S
C561 C162 1.930 . S
C585 C95 0.503 . S
C593 C202 0.618 . S
C617 C6 1.362 . S
C625 C135 1.358 . S
C657 C175 2.088 . S
C649 C59 2.141 . S
C689 C215 0.294 . S
C681 C86 0.315 . S
C713 C15 1.213 . S
C721 C122 1.239 . S
C753 C221 1.060 1_554 S
C745 C18 1.139 . S
C777 C49 1.431 . S
C785 C141 1.498 . S
C809 C98 1.376 . S
C817 C181 1.376 . S
C849 C301 1.388 . S
C841 C58 1.360 . S
C881 C341 1.759 1_556 S
C873 C89 1.697 . S
C905 C9 1.426 . S
C913 C261 1.510 . S
