# Generated by pormake.
# Topology tsx, (6,3)-cn, num edge types: 1
# Building blocks:
#     Node 0, Type 0, BuildingBlock: MIDCAF_clean_sbu_0, # of connection points: 6
#     Node 1, Type 0, BuildingBlock: MIDCAF_clean_sbu_0, # of connection points: 6
#     Node 2, Type 1, BuildingBlock: WUSLED_clean_sbu_0, # of connection points: 3
#     Node 3, Type 1, BuildingBlock: WUSLED_clean_sbu_0, # of connection points: 3
#     Node 4, Type 1, BuildingBlock: WUSLED_clean_sbu_0, # of connection points: 3
#     Node 5, Type 1, BuildingBlock: WUSLED_clean_sbu_0, # of connection points: 3
#     Edge 6, Type (0, 1), BuildingBlock: AJUNOK_clean_linker_0, # of connection points: 2
#     Edge 7, Type (0, 1), BuildingBlock: AJUNOK_clean_linker_0, # of connection points: 2
#     Edge 8, Type (0, 1), BuildingBlock: AJUNOK_clean_linker_0, # of connection points: 2
#     Edge 9, Type (0, 1), BuildingBlock: AJUNOK_clean_linker_0, # of connection points: 2
#     Edge 10, Type (0, 1), BuildingBlock: AJUNOK_clean_linker_0, # of connection points: 2
#     Edge 11, Type (0, 1), BuildingBlock: AJUNOK_clean_linker_0, # of connection points: 2
#     Edge 12, Type (0, 1), BuildingBlock: AJUNOK_clean_linker_0, # of connection points: 2
#     Edge 13, Type (0, 1), BuildingBlock: AJUNOK_clean_linker_0, # of connection points: 2
#     Edge 14, Type (0, 1), BuildingBlock: AJUNOK_clean_linker_0, # of connection points: 2
#     Edge 15, Type (0, 1), BuildingBlock: AJUNOK_clean_linker_0, # of connection points: 2
#     Edge 16, Type (0, 1), BuildingBlock: AJUNOK_clean_linker_0, # of connection points: 2
#     Edge 17, Type (0, 1), BuildingBlock: AJUNOK_clean_linker_0, # of connection points: 2
# Relax obj value: 0.113
# Max RMSD: 0.179
# Mean RMSD: 0.109
data_MOF--net-tsx--node1-MIDCAF_clean_sbu_0--node2-WUSLED_clean_sbu_0--edge1-AJUNOK_clean_linker_0
_symmetry_space_group_name_H-M    P1
_symmetry_Int_Tables_number       1
_symmetry_cell_setting            triclinic
loop_
_symmetry_equiv_pos_as_xyz
'x, y, z'
_cell_length_a     19.532376
_cell_length_b     20.827257
_cell_length_c     39.080536
_cell_angle_alpha  90.345845
_cell_angle_beta   97.116223
_cell_angle_gamma 90.558321
loop_
_atom_site_label
_atom_site_type_symbol
_atom_site_fract_x
_atom_site_fract_y
_atom_site_fract_z
_atom_type_partial_charge
Zn0 Zn 0.94328 0.9748 0.97836 0.0
Zn1 Zn 0.09217 0.94647 0.07275 0.0
Zn2 Zn 1.03466 0.98978 0.02453 0.0
C3 C 0.18161 0.03607 0.04753 0.0
C4 C 0.14045 0.88749 0.01817 0.0
O5 O 0.98409 0.90014 0.0354 0.0
O6 O 0.91002 0.88615 0.98912 0.0
C7 C 0.92014 0.09235 0.01233 0.0
O8 O 0.14318 0.01758 0.01984 0.0
O9 O 0.16617 0.01692 0.07633 0.0
O10 O 0.11514 0.86809 0.04473 0.0
O11 O 0.1273 0.94519 1.00762 0.0
O12 O 0.89019 0.05137 0.99142 0.0
O13 O 0.98006 0.08018 0.02813 0.0
O14 O 0.09845 0.9998 0.98243 0.0
O15 O 1.0077 0.98984 0.94264 0.0
C16 C 0.07163 1.00045 0.95061 0.0
O17 O 1.01994 0.05328 0.06671 0.0
O18 O 1.00929 0.96638 0.09712 0.0
C19 C 0.93698 0.86621 0.01812 0.0
C20 C 1.00286 0.02671 0.094 0.0
Zn21 Zn 0.68765 0.57387 0.56585 0.0
Zn22 Zn 0.47381 0.57361 0.4816 0.0
Zn23 Zn 0.58095 0.57828 0.5209 0.0
C24 C 0.57267 0.53454 0.4422 0.0
C25 C 0.48726 0.70045 0.50072 0.0
O26 O 0.55155 0.54019 0.57084 0.0
O27 O 0.64736 0.54889 0.60737 0.0
C28 C 0.71619 0.49269 0.51348 0.0
O29 O 0.60532 0.52936 0.47283 0.0
O30 O 0.51424 0.56059 0.43804 0.0
O31 O 0.44035 0.66001 0.49093 0.0
O32 O 0.54933 0.68085 0.50998 0.0
O33 O 0.73829 0.507 0.54428 0.0
O34 O 0.65994 0.51776 0.49874 0.0
O35 O 0.61736 0.68 0.52811 0.0
O36 O 0.71553 0.6647 0.56185 0.0
C37 C 0.67422 0.70192 0.54457 0.0
O38 O 0.50062 0.52114 0.5446 0.0
O39 O 0.4234 0.50128 0.49963 0.0
C40 C 0.58406 0.53503 0.60157 0.0
C41 C 0.44506 0.49197 0.53093 0.0
C42 C 1.02237 0.23317 0.45819 0.0
C43 C 1.02923 0.30042 0.45665 0.0
C44 C 0.90917 0.31376 0.46628 0.0
C45 C 0.97328 0.3402 0.46062 0.0
C46 C 0.90238 0.24663 0.46796 0.0
C47 C 0.95824 0.20686 0.46405 0.0
U48 U 0.12225 0.14352 0.39672 0.0
O49 O 0.23323 0.12602 0.39527 0.0
O50 O 0.16091 0.04481 0.39605 0.0
C51 C 0.22553 0.06329 0.39628 0.0
C52 C 0.08087 0.19043 0.45288 0.0
C53 C 0.27743 0.02733 0.41911 0.0
C54 C 0.31745 0.97685 0.4739 0.0
C55 C 0.27216 0.0184 0.45426 0.0
C56 C 0.37511 0.95485 0.42381 0.0
C57 C 0.36861 0.94337 0.45871 0.0
C58 C 0.33023 0.99649 0.40434 0.0
C59 C 0.04706 0.16393 0.30117 0.0
C60 C 0.05329 0.08866 0.25409 0.0
C61 C 1.00767 0.19511 0.24216 0.0
C62 C 1.01922 0.2099 0.2774 0.0
C63 C 1.02343 0.13391 0.23031 0.0
C64 C 0.06528 0.10359 0.28922 0.0
C65 C 0.05098 0.17781 0.33831 0.0
O66 O 0.06365 0.13256 0.44092 0.0
O67 O 0.1315 0.21639 0.43819 0.0
O68 O 0.10578 0.20962 0.35252 0.0
O69 O 1.033 0.13024 0.35736 0.0
H70 H 0.07795 0.32252 0.45255 0.0
H71 H 0.98085 0.39176 0.46027 0.0
H72 H 0.85381 0.22484 0.47259 0.0
H73 H 0.95107 0.15538 0.46562 0.0
H74 H 0.31084 0.96907 0.50068 0.0
H75 H 0.23165 0.04168 0.46617 0.0
H76 H 0.41215 0.92872 0.41083 0.0
H77 H 0.33484 1.00233 0.37718 0.0
H78 H 0.06656 0.04134 0.24549 0.0
H79 H 0.98431 0.23062 0.22435 0.0
H80 H 1.00457 0.25663 0.28623 0.0
H81 H 0.08699 0.06748 0.30712 0.0
C82 C 0.9503 0.01688 0.57964 0.0
C83 C 0.88265 0.03249 0.58548 0.0
C84 C 0.83859 0.93077 0.55987 0.0
C85 C 0.8275 0.98993 0.57572 0.0
C86 C 0.90563 0.91653 0.55267 0.0
C87 C 0.96067 0.95907 0.56232 0.0
U88 U 0.0876 0.07937 0.65073 0.0
O89 O 0.19748 0.1034 0.65075 0.0
O90 O 0.12588 0.17726 0.66431 0.0
C91 C 0.18937 0.1639 0.65903 0.0
C92 C 1.00999 0.05998 0.59158 0.0
C93 C 0.22476 0.21184 0.63976 0.0
C94 C 0.25302 0.25783 0.58621 0.0
C95 C 0.21739 0.21214 0.6036 0.0
C96 C 0.30364 0.30312 0.6409 0.0
C97 C 0.29619 0.3041 0.6047 0.0
C98 C 0.26812 0.25748 0.65823 0.0
C99 C 0.08847 1.00853 0.74104 0.0
C100 C 0.15388 0.05445 0.7926 0.0
C101 C 0.08221 0.95991 0.79678 0.0
C102 C 0.06354 0.96034 0.76113 0.0
C103 C 0.1262 1.00785 0.81309 0.0
C104 C 0.13502 0.05486 0.75679 0.0
C105 C 0.06156 1.01195 0.70426 0.0
O106 O 0.99887 0.10609 0.61332 0.0
O107 O 0.06974 0.03182 0.59983 0.0
O108 O 0.10308 0.99232 0.68243 0.0
O109 O 1.02941 0.06526 0.69474 0.0
H110 H 0.87227 0.07715 0.5981 0.0
H111 H 0.77627 1.003 0.58096 0.0
H112 H 0.91608 0.8713 0.54061 0.0
H113 H 1.01176 0.94595 0.55686 0.0
H114 H 0.24729 0.25661 0.55829 0.0
H115 H 0.18447 0.17698 0.5889 0.0
H116 H 0.33627 0.33821 0.65582 0.0
H117 H 0.27458 0.25778 0.68618 0.0
H118 H 0.18852 0.0915 0.80436 0.0
H119 H 0.05933 0.92379 0.8118 0.0
H120 H 1.02755 0.92426 0.7494 0.0
H121 H 0.15505 0.09232 0.74155 0.0
C122 C 0.4563 0.63293 0.96486 0.0
C123 C 0.42463 0.67053 0.93774 0.0
C124 C 0.35202 0.72021 0.97659 0.0
C125 C 0.37296 0.71406 0.9436 0.0
C126 C 0.38431 0.68268 1.00363 0.0
C127 C 0.43604 0.63955 0.99781 0.0
U128 U 0.54971 0.53064 0.9046 0.0
O129 O 0.66057 0.50826 0.90671 0.0
O130 O 0.58405 0.43069 0.90838 0.0
C131 C 0.6498 0.44647 0.91063 0.0
C132 C 0.50936 0.58573 0.95914 0.0
C133 C 0.69652 0.41313 0.93732 0.0
C134 C 0.71478 0.34747 0.98896 0.0
C135 C 0.67339 0.3892 0.96749 0.0
C136 C 0.80464 0.35673 0.95177 0.0
C137 C 0.78006 0.32917 0.98074 0.0
C138 C 0.76328 0.39826 0.93033 0.0
C139 C 0.49328 0.54156 0.80708 0.0
C140 C 0.56262 0.5148 0.76163 0.0
C141 C 0.43944 0.52921 0.74777 0.0
C142 C 0.43429 0.54181 0.78261 0.0
C143 C 0.50381 0.51609 0.73682 0.0
C144 C 0.55733 0.52687 0.79642 0.0
C145 C 0.48753 0.55943 0.84317 0.0
O146 O 0.48583 0.52953 0.94723 0.0
O147 O 0.56088 0.60759 0.94371 0.0
O148 O 0.53938 0.59302 0.85918 0.0
O149 O 0.46535 0.51404 0.86237 0.0
H150 H 0.43939 0.66571 0.91203 0.0
H151 H 0.34832 0.74176 0.92223 0.0
H152 H 0.36939 0.68669 0.02934 0.0
H153 H 0.45988 0.61095 0.01902 0.0
H154 H 0.69438 0.32702 1.01107 0.0
H155 H 0.62212 0.40012 0.97356 0.0
H156 H 0.85386 0.34265 0.94418 0.0
H157 H 0.78204 0.41587 0.90713 0.0
H158 H 0.61333 0.50681 0.75404 0.0
H159 H 0.39329 0.53069 0.72933 0.0
H160 H 0.38435 0.55298 0.79036 0.0
H161 H 0.60361 0.52642 0.81483 0.0
C162 C 0.50344 0.32347 0.07774 0.0
C163 C 0.46876 0.29754 0.10389 0.0
C164 C 0.40392 0.22455 0.06252 0.0
C165 C 0.41932 0.24885 0.09633 0.0
C166 C 0.43786 0.25146 0.03622 0.0
C167 C 0.48746 0.30041 0.04382 0.0
U168 U 0.61702 0.42497 0.14375 0.0
O169 O 0.72501 0.4581 0.1453 0.0
O170 O 0.64166 0.52818 0.14521 0.0
C171 C 0.70787 0.51902 0.14404 0.0
C172 C 0.55616 0.37432 0.08586 0.0
C173 C 0.74241 0.56031 0.12051 0.0
C174 C 0.84874 0.61043 0.10677 0.0
C175 C 0.81463 0.56612 0.12564 0.0
C176 C 0.739 0.64313 0.07663 0.0
C177 C 0.8113 0.65006 0.08236 0.0
C178 C 0.70487 0.5986 0.09543 0.0
C179 C 0.60374 0.39798 0.23968 0.0
C180 C 0.65654 0.47022 0.28474 0.0
C181 C 0.5857 0.38086 0.29939 0.0
C182 C 0.57499 0.36214 0.26468 0.0
C183 C 0.62555 0.43582 0.30978 0.0
C184 C 0.64578 0.45142 0.24997 0.0
C185 C 0.58514 0.38179 0.20293 0.0
O186 O 0.53452 0.42661 0.09997 0.0
O187 O 0.61603 0.35487 0.10119 0.0
O188 O 0.63428 0.35711 0.18699 0.0
O189 O 0.54934 0.42557 0.18467 0.0
H190 H 0.48002 0.31495 0.13019 0.0
H191 H 0.39287 0.23028 0.11702 0.0
H192 H 0.42691 0.23388 1.00995 0.0
H193 H 0.51361 0.32 0.02327 0.0
H194 H 0.90443 0.61446 0.11169 0.0
H195 H 0.8447 0.53752 0.14501 0.0
H196 H 0.70848 0.67383 0.05852 0.0
H197 H 0.64909 0.59562 0.09104 0.0
H198 H 0.68728 0.51288 0.29192 0.0
H199 H 0.55961 0.35427 0.31778 0.0
H200 H 0.54205 0.32099 0.25717 0.0
H201 H 0.66835 0.47976 0.23099 0.0
C202 C 0.24388 0.12938 0.02433 0.0
C203 C 0.244 0.07695 0.04688 0.0
C204 C 0.29731 0.17587 0.02847 0.0
C205 C 0.3526 0.17116 0.0552 0.0
H206 H 0.20041 0.13652 1.0047 0.0
H207 H 0.29357 0.21727 0.01173 0.0
S208 S 0.38311 0.03645 0.11669 0.0
N209 N 0.30834 0.0188 0.09389 0.0
N210 N 0.40868 0.10497 0.10119 0.0
C211 C 0.35558 0.11634 0.07611 0.0
C212 C 0.30134 0.06955 0.07206 0.0
C213 C 0.18947 0.77952 1.00964 0.0
C214 C 0.19005 0.84583 1.00291 0.0
C215 C 0.24078 0.73926 0.99999 0.0
C216 C 0.29488 0.76348 0.98308 0.0
H217 H 0.14983 0.75854 0.02333 0.0
H218 H 0.23878 0.6888 1.00639 0.0
S219 S 0.31939 0.93301 0.95822 0.0
N220 N 0.24854 0.93369 0.97731 0.0
N221 N 0.34495 0.85759 0.95884 0.0
C222 C 0.29481 0.82918 0.97485 0.0
C223 C 0.24243 0.87047 0.98484 0.0
C224 C 0.92611 0.79401 0.0684 0.0
C225 C 0.90981 0.80693 0.03303 0.0
C226 C 0.89538 0.74233 0.0839 0.0
C227 C 0.84718 0.70127 0.06465 0.0
H228 H 0.96126 0.82528 0.08462 0.0
H229 H 0.90779 0.73581 0.11142 0.0
S230 S 0.79294 0.70897 0.97041 0.0
N231 N 0.84623 0.77072 0.97864 0.0
N232 N 0.78937 0.67343 1.00779 0.0
C233 C 0.83265 0.71186 0.02903 0.0
C234 C 0.86376 0.76455 0.01319 0.0
C235 C 0.81407 0.15803 1.00895 0.0
C236 C 0.88657 0.15547 0.01475 0.0
C237 C 0.77985 0.2158 1.00097 0.0
C238 C 0.81674 0.27345 0.99811 0.0
H239 H 0.78354 0.11422 1.00835 0.0
H240 H 0.72434 0.21412 0.99432 0.0
S241 S 1.00662 0.29473 0.01681 0.0
N242 N 0.99378 0.21696 0.02169 0.0
N243 N 0.92941 0.326 1.00655 0.0
C244 C 0.88894 0.27265 1.0069 0.0
C245 C 0.92386 0.2136 0.0154 0.0
C246 C 0.73094 0.79194 0.51726 0.0
C247 C 0.69497 0.77007 0.54399 0.0
C248 C 0.77367 0.84686 0.52164 0.0
C249 C 0.78233 0.88154 0.55302 0.0
H250 H 0.73019 0.76372 0.49383 0.0
H251 H 0.80307 0.86023 0.50098 0.0
S252 S 0.69533 0.8454 0.63005 0.0
N253 N 0.66706 0.78884 0.60187 0.0
N254 N 0.74736 0.89157 0.61044 0.0
C255 C 0.74283 0.8623 0.57905 0.0
C256 C 0.69935 0.80655 0.57448 0.0
C257 C 0.77269 0.38697 0.51493 0.0
C258 C 0.75451 0.44342 0.4966 0.0
C259 C 0.82008 0.34398 0.50388 0.0
C260 C 0.85192 0.35598 0.47417 0.0
H261 H 0.75206 0.37721 0.53889 0.0
H262 H 0.83451 0.30268 0.51979 0.0
S263 S 0.81684 0.49408 0.41516 0.0
N264 N 0.76837 0.50741 0.44621 0.0
N265 N 0.85703 0.42583 0.4248 0.0
C266 C 0.83158 0.41076 0.45458 0.0
C267 C 0.78291 0.45465 0.46591 0.0
C268 C 0.44 0.41127 0.57827 0.0
C269 C 0.40607 0.4471 0.55097 0.0
C270 C 0.40411 0.36564 0.59579 0.0
C271 C 0.33309 0.35366 0.58641 0.0
H272 H 0.49501 0.41684 0.58541 0.0
H273 H 0.43258 0.3384 0.6163 0.0
S274 S 0.21915 0.43792 0.51844 0.0
N275 N 0.29637 0.4697 0.51663 0.0
N276 N 0.22947 0.38412 0.54943 0.0
C277 C 0.29836 0.39002 0.55962 0.0
C278 C 0.3347 0.43656 0.54193 0.0
C279 C 0.40015 0.7851 0.50492 0.0
C280 C 0.4676 0.76916 0.49892 0.0
C281 C 0.37068 0.84385 0.49433 0.0
C282 C 0.40729 0.88944 0.47713 0.0
H283 H 0.36801 0.75 0.51592 0.0
H284 H 0.31694 0.85127 0.49735 0.0
S285 S 0.59008 0.87614 0.46086 0.0
N286 N 0.57325 0.8069 0.47865 0.0
N287 N 0.51864 0.91847 0.45937 0.0
C288 C 0.4771 0.87664 0.47388 0.0
C289 C 0.50717 0.81638 0.48474 0.0
C290 C 0.96165 0.03369 0.15144 0.0
C291 C 0.99236 0.06437 0.12511 0.0
C292 C 0.96887 0.05863 0.185 0.0
C293 C 1.00679 0.11536 0.19352 0.0
H294 H 0.93548 0.98781 0.14662 0.0
H295 H 0.9472 0.03173 0.20481 0.0
S296 S 0.09012 0.21848 0.1333 0.0
N297 N 0.05632 0.15808 0.10908 0.0
N298 N 0.06978 0.20502 0.17244 0.0
C299 C 1.03289 0.14947 0.16695 0.0
C300 C 1.02553 0.12402 0.1326 0.0
C301 C 0.13575 0.95445 0.90587 0.0
C302 C 0.11305 1.00922 0.92209 0.0
C303 C 0.14731 0.956 0.87116 0.0
C304 C 0.13562 0.01218 0.85144 0.0
H305 H 0.1381 0.90872 0.91903 0.0
H306 H 0.16 0.9116 0.85892 0.0
S307 S 0.08429 0.17025 0.88387 0.0
N308 N 0.08678 0.12246 0.91756 0.0
N309 N 0.10735 0.12573 0.8522 0.0
C310 C 0.11945 0.06876 0.86851 0.0
C311 C 0.10819 0.06708 0.90389 0.0
C312 C 0.49899 0.55885 0.64216 0.0
C313 C 0.5485 0.51751 0.6313 0.0
C314 C 0.48082 0.5552 0.67579 0.0
C315 C 0.5113 0.50975 0.69945 0.0
H316 H 0.47867 0.59761 0.62566 0.0
H317 H 0.44661 0.59123 0.68401 0.0
S318 S 0.63201 0.38172 0.68031 0.0
N319 N 0.62009 0.42431 0.64459 0.0
N320 N 0.58391 0.4154 0.70721 0.0
C321 C 0.55536 0.46401 0.68743 0.0
C322 C 0.57451 0.46843 0.65349 0.0
C323 C 0.59525 0.55043 0.38181 0.0
C324 C 0.60095 0.5111 0.41112 0.0
C325 C 0.60798 0.52661 0.34966 0.0
C326 C 0.62616 0.46213 0.34538 0.0
H327 H 0.57782 0.59948 0.38345 0.0
H328 H 0.5993 0.55803 0.32759 0.0
S329 S 0.6545 0.34093 0.41483 0.0
N330 N 0.63022 0.40581 0.43449 0.0
N331 N 0.65567 0.36091 0.37404 0.0
C332 C 0.63593 0.42319 0.37494 0.0
C333 C 0.62301 0.4477 0.40782 0.0
loop_
_geom_bond_atom_site_label_1
_geom_bond_atom_site_label_2
_geom_bond_distance
_geom_bond_site_symmetry_2
_ccdc_geom_bond_type
Zn0 O6 1.920 1_545 S
Zn0 O12 1.898 . S
Zn0 O15 1.905 1_545 S
Zn1 O9 1.905 . S
Zn1 O10 1.898 1_545 S
Zn1 O18 1.920 1_545 S
Zn2 O5 2.080 1_445 S
Zn2 O8 2.114 . S
Zn2 O11 2.120 1_545 S
Zn2 O13 2.120 1_455 S
Zn2 O14 2.114 1_554 S
Zn2 O17 2.080 . S
C3 O8 1.166 . S
C3 O9 1.182 . S
C4 O10 1.167 . S
C4 O11 1.299 . S
O5 Zn2 2.080 1_665 S
O5 C19 1.305 . S
O6 Zn0 1.920 1_565 S
O6 C19 1.234 1_556 S
C7 O12 1.167 . S
C7 O13 1.299 1_556 S
O8 Zn2 2.114 . S
O8 C3 1.166 . S
O9 Zn1 1.905 . S
O9 C3 1.182 . S
O10 Zn1 1.898 1_565 S
O10 C4 1.167 . S
O11 Zn2 2.120 1_565 S
O11 C4 1.299 . S
O12 Zn0 1.898 . S
O12 C7 1.167 . S
O13 Zn2 2.120 1_655 S
O13 C7 1.299 1_554 S
O14 Zn2 2.114 1_556 S
O14 C16 1.166 1_545 S
O15 Zn0 1.905 1_565 S
O15 C16 1.182 1_655 S
C16 O14 1.166 1_565 S
C16 O15 1.182 1_455 S
O17 Zn2 2.080 . S
O17 C20 1.305 1_545 S
O18 Zn1 1.920 1_565 S
O18 C20 1.234 . S
C19 O5 1.305 . S
C19 O6 1.234 1_554 S
C20 O17 1.305 1_565 S
C20 O18 1.234 . S
Zn21 O27 1.920 . S
Zn21 O33 1.898 . S
Zn21 O36 1.905 . S
Zn22 O30 1.905 . S
Zn22 O31 1.898 . S
Zn22 O39 1.920 . S
Zn23 O26 2.080 . S
Zn23 O29 2.114 . S
Zn23 O32 2.120 . S
Zn23 O34 2.120 . S
Zn23 O35 2.114 . S
Zn23 O38 2.080 . S
C24 O29 1.166 . S
C24 O30 1.182 . S
C25 O31 1.167 . S
C25 O32 1.299 . S
O26 Zn23 2.080 . S
O26 C40 1.305 . S
O27 Zn21 1.920 . S
O27 C40 1.234 . S
C28 O33 1.167 . S
C28 O34 1.299 . S
O29 Zn23 2.114 . S
O29 C24 1.166 . S
O30 Zn22 1.905 . S
O30 C24 1.182 . S
O31 Zn22 1.898 . S
O31 C25 1.167 . S
O32 Zn23 2.120 . S
O32 C25 1.299 . S
O33 Zn21 1.898 . S
O33 C28 1.167 . S
O34 Zn23 2.120 . S
O34 C28 1.299 . S
O35 Zn23 2.114 . S
O35 C37 1.166 . S
O36 Zn21 1.905 . S
O36 C37 1.182 . S
C37 O35 1.166 . S
C37 O36 1.182 . S
O38 Zn23 2.080 . S
O38 C41 1.305 . S
O39 Zn22 1.920 . S
O39 C41 1.234 . S
C40 O26 1.305 . S
C40 O27 1.234 . S
C41 O38 1.305 . S
C41 O39 1.234 . S
C42 C43 1.264 . S
C42 C47 1.479 . S
C42 C52 1.465 1_655 S
C43 C42 1.264 . S
C43 C45 1.339 . S
C43 H70 0.931 . S
C44 C45 1.395 . S
C44 C46 1.320 . S
C45 C43 1.339 . S
C45 C44 1.395 . S
C45 H71 0.929 . S
C46 C44 1.320 . S
C46 C47 1.405 . S
C46 H72 0.930 . S
C47 C42 1.479 . S
C47 C46 1.405 . S
C47 H73 0.931 . S
U48 O49 2.454 . S
U48 O50 2.458 1_545 S
U48 C51 2.984 1_545 S
U48 C52 2.847 . S
U48 C65 2.882 . S
U48 O66 2.441 . S
U48 O67 2.420 . S
U48 O68 2.455 . S
U48 O69 2.449 . S
O49 U48 2.454 . S
O49 C51 1.353 1_545 S
O50 U48 2.458 1_565 S
O50 C51 1.286 . S
C51 U48 2.984 1_565 S
C51 O49 1.353 1_565 S
C51 O50 1.286 . S
C51 C53 1.363 . S
C52 C42 1.465 1_455 S
C52 U48 2.847 . S
C52 O66 1.249 . S
C52 O67 1.202 . S
C53 C51 1.363 . S
C53 C55 1.408 . S
C53 C58 1.342 . S
C54 C55 1.310 . S
C54 C57 1.461 . S
C54 H74 0.932 . S
C55 C53 1.408 . S
C55 C54 1.310 . S
C55 H75 0.930 . S
C56 C57 1.474 . S
C56 C58 1.285 . S
C56 H76 0.929 . S
C57 C54 1.461 . S
C57 C56 1.474 . S
C58 C53 1.342 . S
C58 C56 1.285 . S
C58 H77 0.930 . S
C59 C62 1.424 . S
C59 C64 1.245 . S
C59 C65 1.428 . S
C60 C63 1.260 . S
C60 C64 1.477 . S
C60 H78 0.928 1_545 S
C61 C62 1.384 . S
C61 C63 1.479 . S
C61 H79 0.929 . S
C62 C59 1.424 . S
C62 C61 1.384 . S
C62 H80 0.928 . S
C63 C60 1.260 . S
C63 C61 1.479 . S
C64 C59 1.245 . S
C64 C60 1.477 . S
C64 H81 0.932 1_545 S
C65 U48 2.882 . S
C65 C59 1.428 . S
C65 O68 1.301 . S
C65 O69 1.282 . S
O66 U48 2.441 . S
O66 C52 1.249 . S
O67 U48 2.420 . S
O67 C52 1.202 . S
O68 U48 2.455 . S
O68 C65 1.301 . S
O69 U48 2.449 . S
O69 C65 1.282 . S
H70 C43 0.931 . S
H71 C45 0.929 . S
H72 C46 0.930 . S
H73 C47 0.931 . S
H74 C54 0.932 . S
H75 C55 0.930 . S
H76 C56 0.929 . S
H77 C58 0.930 . S
H78 C60 0.928 1_565 S
H79 C61 0.929 . S
H80 C62 0.928 . S
H81 C64 0.932 1_565 S
C82 C83 1.264 . S
C82 C87 1.479 . S
C82 C92 1.465 . S
C83 C82 1.264 . S
C83 C85 1.339 . S
C83 H110 0.931 . S
C84 C85 1.395 . S
C84 C86 1.320 . S
C85 C83 1.339 . S
C85 C84 1.395 . S
C85 H111 0.929 . S
C86 C84 1.320 . S
C86 C87 1.405 . S
C86 H112 0.930 . S
C87 C82 1.479 . S
C87 C86 1.405 . S
C87 H113 0.931 . S
U88 O89 2.454 . S
U88 O90 2.458 . S
U88 C91 2.984 . S
U88 C92 2.847 1_445 S
U88 C105 2.882 . S
U88 O106 2.441 1_445 S
U88 O107 2.420 1_445 S
U88 O108 2.455 . S
U88 O109 2.449 1_545 S
O89 U88 2.454 . S
O89 C91 1.353 . S
O90 U88 2.458 . S
O90 C91 1.286 . S
C91 U88 2.984 . S
C91 O89 1.353 . S
C91 O90 1.286 . S
C91 C93 1.363 . S
C92 C82 1.465 . S
C92 U88 2.847 1_665 S
C92 O106 1.249 . S
C92 O107 1.202 . S
C93 C91 1.363 . S
C93 C95 1.408 . S
C93 C98 1.342 . S
C94 C95 1.310 . S
C94 C97 1.461 . S
C94 H114 0.932 . S
C95 C93 1.408 . S
C95 C94 1.310 . S
C95 H115 0.930 . S
C96 C97 1.474 . S
C96 C98 1.285 . S
C96 H116 0.929 . S
C97 C94 1.461 . S
C97 C96 1.474 . S
C98 C93 1.342 . S
C98 C96 1.285 . S
C98 H117 0.930 . S
C99 C102 1.424 1_445 S
C99 C104 1.245 . S
C99 C105 1.428 . S
C100 C103 1.260 . S
C100 C104 1.477 . S
C100 H118 0.932 . S
C101 C102 1.384 . S
C101 C103 1.479 1_665 S
C101 H119 0.929 . S
C102 C99 1.424 1_665 S
C102 C101 1.384 . S
C102 H120 0.928 . S
C103 C100 1.260 . S
C103 C101 1.479 1_445 S
C104 C99 1.245 . S
C104 C100 1.477 . S
C104 H121 0.932 . S
C105 U88 2.882 . S
C105 C99 1.428 . S
C105 O108 1.301 . S
C105 O109 1.282 1_545 S
O106 U88 2.441 1_665 S
O106 C92 1.249 . S
O107 U88 2.420 1_665 S
O107 C92 1.202 . S
O108 U88 2.455 . S
O108 C105 1.301 . S
O109 U88 2.449 1_565 S
O109 C105 1.282 1_565 S
H110 C83 0.931 . S
H111 C85 0.929 . S
H112 C86 0.930 . S
H113 C87 0.931 . S
H114 C94 0.932 . S
H115 C95 0.930 . S
H116 C96 0.929 . S
H117 C98 0.930 . S
H118 C100 0.932 . S
H119 C101 0.929 . S
H120 C102 0.928 . S
H121 C104 0.932 . S
C122 C123 1.264 . S
C122 C127 1.479 . S
C122 C132 1.465 . S
C123 C122 1.264 . S
C123 C125 1.339 . S
C123 H150 0.931 . S
C124 C125 1.395 . S
C124 C126 1.320 1_556 S
C125 C123 1.339 . S
C125 C124 1.395 . S
C125 H151 0.929 . S
C126 C124 1.320 1_554 S
C126 C127 1.405 1_554 S
C126 H152 0.930 . S
C127 C122 1.479 . S
C127 C126 1.405 1_556 S
C127 H153 0.931 1_556 S
U128 O129 2.454 . S
U128 O130 2.458 . S
U128 C131 2.984 . S
U128 C132 2.847 . S
U128 C145 2.882 . S
U128 O146 2.441 . S
U128 O147 2.420 . S
U128 O148 2.455 . S
U128 O149 2.449 . S
O129 U128 2.454 . S
O129 C131 1.353 . S
O130 U128 2.458 . S
O130 C131 1.286 . S
C131 U128 2.984 . S
C131 O129 1.353 . S
C131 O130 1.286 . S
C131 C133 1.363 . S
C132 C122 1.465 . S
C132 U128 2.847 . S
C132 O146 1.249 . S
C132 O147 1.202 . S
C133 C131 1.363 . S
C133 C135 1.408 . S
C133 C138 1.342 . S
C134 C135 1.310 1_554 S
C134 C137 1.461 1_554 S
C134 H154 0.932 . S
C135 C133 1.408 . S
C135 C134 1.310 1_556 S
C135 H155 0.930 1_556 S
C136 C137 1.474 . S
C136 C138 1.285 . S
C136 H156 0.929 . S
C137 C134 1.461 1_556 S
C137 C136 1.474 . S
C138 C133 1.342 . S
C138 C136 1.285 . S
C138 H157 0.930 . S
C139 C142 1.424 . S
C139 C144 1.245 . S
C139 C145 1.428 . S
C140 C143 1.260 . S
C140 C144 1.477 . S
C140 H158 0.932 . S
C141 C142 1.384 . S
C141 C143 1.479 . S
C141 H159 0.929 . S
C142 C139 1.424 . S
C142 C141 1.384 . S
C142 H160 0.928 . S
C143 C140 1.260 . S
C143 C141 1.479 . S
C144 C139 1.245 . S
C144 C140 1.477 . S
C144 H161 0.932 . S
C145 U128 2.882 . S
C145 C139 1.428 . S
C145 O148 1.301 . S
C145 O149 1.282 . S
O146 U128 2.441 . S
O146 C132 1.249 . S
O147 U128 2.420 . S
O147 C132 1.202 . S
O148 U128 2.455 . S
O148 C145 1.301 . S
O149 U128 2.449 . S
O149 C145 1.282 . S
H150 C123 0.931 . S
H151 C125 0.929 . S
H152 C126 0.930 . S
H153 C127 0.931 1_554 S
H154 C134 0.932 . S
H155 C135 0.930 1_554 S
H156 C136 0.929 . S
H157 C138 0.930 . S
H158 C140 0.932 . S
H159 C141 0.929 . S
H160 C142 0.928 . S
H161 C144 0.932 . S
C162 C163 1.264 . S
C162 C167 1.479 . S
C162 C172 1.465 . S
C163 C162 1.264 . S
C163 C165 1.339 . S
C163 H190 0.931 . S
C164 C165 1.395 . S
C164 C166 1.320 . S
C165 C163 1.339 . S
C165 C164 1.395 . S
C165 H191 0.929 . S
C166 C164 1.320 . S
C166 C167 1.405 . S
C166 H192 0.930 1_554 S
C167 C162 1.479 . S
C167 C166 1.405 . S
C167 H193 0.931 . S
U168 O169 2.454 . S
U168 O170 2.458 . S
U168 C171 2.984 . S
U168 C172 2.847 . S
U168 C185 2.882 . S
U168 O186 2.441 . S
U168 O187 2.420 . S
U168 O188 2.455 . S
U168 O189 2.449 . S
O169 U168 2.454 . S
O169 C171 1.353 . S
O170 U168 2.458 . S
O170 C171 1.286 . S
C171 U168 2.984 . S
C171 O169 1.353 . S
C171 O170 1.286 . S
C171 C173 1.363 . S
C172 C162 1.465 . S
C172 U168 2.847 . S
C172 O186 1.249 . S
C172 O187 1.202 . S
C173 C171 1.363 . S
C173 C175 1.408 . S
C173 C178 1.342 . S
C174 C175 1.310 . S
C174 C177 1.461 . S
C174 H194 0.932 1_554 S
C175 C173 1.408 . S
C175 C174 1.310 . S
C175 H195 0.930 . S
C176 C177 1.474 . S
C176 C178 1.285 . S
C176 H196 0.929 . S
C177 C174 1.461 . S
C177 C176 1.474 . S
C178 C173 1.342 . S
C178 C176 1.285 . S
C178 H197 0.930 . S
C179 C182 1.424 . S
C179 C184 1.245 . S
C179 C185 1.428 . S
C180 C183 1.260 . S
C180 C184 1.477 . S
C180 H198 0.932 . S
C181 C182 1.384 . S
C181 C183 1.479 . S
C181 H199 0.929 . S
C182 C179 1.424 . S
C182 C181 1.384 . S
C182 H200 0.928 . S
C183 C180 1.260 . S
C183 C181 1.479 . S
C184 C179 1.245 . S
C184 C180 1.477 . S
C184 H201 0.932 . S
C185 U168 2.882 . S
C185 C179 1.428 . S
C185 O188 1.301 . S
C185 O189 1.282 . S
O186 U168 2.441 . S
O186 C172 1.249 . S
O187 U168 2.420 . S
O187 C172 1.202 . S
O188 U168 2.455 . S
O188 C185 1.301 . S
O189 U168 2.449 . S
O189 C185 1.282 . S
H190 C163 0.931 . S
H191 C165 0.929 . S
H192 C166 0.930 1_556 S
H193 C167 0.931 . S
H194 C174 0.932 1_556 S
H195 C175 0.930 . S
H196 C176 0.929 . S
H197 C178 0.930 . S
H198 C180 0.932 . S
H199 C181 0.929 . S
H200 C182 0.928 . S
H201 C184 0.932 . S
C202 C203 1.369 . S
C202 C204 1.419 . S
C202 H206 0.930 . S
C203 C202 1.369 . S
C203 C212 1.429 . S
C204 C202 1.419 . S
C204 C205 1.363 . S
C204 H207 0.929 . S
C205 C204 1.363 . S
C205 C211 1.428 . S
H206 C202 0.930 . S
H207 C204 0.929 . S
S208 N209 1.613 . S
S208 N210 1.610 . S
N209 S208 1.613 . S
N209 C212 1.350 . S
N210 S208 1.610 . S
N210 C211 1.351 . S
C211 C205 1.428 . S
C211 N210 1.351 . S
C211 C212 1.434 . S
C212 C203 1.429 . S
C212 N209 1.350 . S
C212 C211 1.434 . S
C213 C214 1.369 . S
C213 C215 1.419 . S
C213 H217 0.930 . S
C214 C213 1.369 . S
C214 C223 1.429 . S
C215 C213 1.419 . S
C215 C216 1.363 . S
C215 H218 0.929 . S
C216 C215 1.363 . S
C216 C222 1.428 . S
H217 C213 0.930 . S
H218 C215 0.929 . S
S219 N220 1.613 . S
S219 N221 1.610 . S
N220 S219 1.613 . S
N220 C223 1.350 . S
N221 S219 1.610 . S
N221 C222 1.351 . S
C222 C216 1.428 . S
C222 N221 1.351 . S
C222 C223 1.434 . S
C223 C214 1.429 . S
C223 N220 1.350 . S
C223 C222 1.434 . S
C224 C225 1.369 . S
C224 C226 1.419 . S
C224 H228 0.930 . S
C225 C224 1.369 . S
C225 C234 1.429 . S
C226 C224 1.419 . S
C226 C227 1.363 . S
C226 H229 0.929 . S
C227 C226 1.363 . S
C227 C233 1.428 . S
H228 C224 0.930 . S
H229 C226 0.929 . S
S230 N231 1.613 . S
S230 N232 1.610 . S
N231 S230 1.613 . S
N231 C234 1.350 . S
N232 S230 1.610 . S
N232 C233 1.351 . S
C233 C227 1.428 . S
C233 N232 1.351 . S
C233 C234 1.434 . S
C234 C225 1.429 . S
C234 N231 1.350 . S
C234 C233 1.434 . S
C235 C236 1.372 . S
C235 C237 1.419 . S
C235 H239 0.930 . S
C236 C235 1.372 . S
C236 C245 1.425 1_556 S
C237 C235 1.419 . S
C237 C238 1.363 . S
C237 H240 0.929 . S
C238 C237 1.363 . S
C238 C244 1.428 1_556 S
H239 C235 0.930 . S
H240 C237 0.929 . S
S241 N242 1.613 1_455 S
S241 N243 1.611 1_455 S
N242 S241 1.613 1_655 S
N242 C245 1.352 . S
N243 S241 1.611 1_655 S
N243 C244 1.351 . S
C244 C238 1.428 1_554 S
C244 N243 1.351 . S
C244 C245 1.434 . S
C245 C236 1.425 1_554 S
C245 N242 1.352 . S
C245 C244 1.434 . S
C246 C247 1.369 . S
C246 C248 1.419 . S
C246 H250 0.930 . S
C247 C246 1.369 . S
C247 C256 1.429 . S
C248 C246 1.419 . S
C248 C249 1.363 . S
C248 H251 0.929 . S
C249 C248 1.363 . S
C249 C255 1.428 . S
H250 C246 0.930 . S
H251 C248 0.929 . S
S252 N253 1.613 . S
S252 N254 1.610 . S
N253 S252 1.613 . S
N253 C256 1.350 . S
N254 S252 1.610 . S
N254 C255 1.351 . S
C255 C249 1.428 . S
C255 N254 1.351 . S
C255 C256 1.434 . S
C256 C247 1.429 . S
C256 N253 1.350 . S
C256 C255 1.434 . S
C257 C258 1.369 . S
C257 C259 1.419 . S
C257 H261 0.930 . S
C258 C257 1.369 . S
C258 C267 1.429 . S
C259 C257 1.419 . S
C259 C260 1.363 . S
C259 H262 0.929 . S
C260 C259 1.363 . S
C260 C266 1.428 . S
H261 C257 0.930 . S
H262 C259 0.929 . S
S263 N264 1.613 . S
S263 N265 1.610 . S
N264 S263 1.613 . S
N264 C267 1.350 . S
N265 S263 1.610 . S
N265 C266 1.351 . S
C266 C260 1.428 . S
C266 N265 1.351 . S
C266 C267 1.434 . S
C267 C258 1.429 . S
C267 N264 1.350 . S
C267 C266 1.434 . S
C268 C269 1.369 . S
C268 C270 1.419 . S
C268 H272 0.930 . S
C269 C268 1.369 . S
C269 C278 1.429 . S
C270 C268 1.419 . S
C270 C271 1.363 . S
C270 H273 0.929 . S
C271 C270 1.363 . S
C271 C277 1.428 . S
H272 C268 0.930 . S
H273 C270 0.929 . S
S274 N275 1.613 . S
S274 N276 1.610 . S
N275 S274 1.613 . S
N275 C278 1.350 . S
N276 S274 1.610 . S
N276 C277 1.351 . S
C277 C271 1.428 . S
C277 N276 1.351 . S
C277 C278 1.434 . S
C278 C269 1.429 . S
C278 N275 1.350 . S
C278 C277 1.434 . S
C279 C280 1.369 . S
C279 C281 1.419 . S
C279 H283 0.930 . S
C280 C279 1.369 . S
C280 C289 1.429 . S
C281 C279 1.419 . S
C281 C282 1.363 . S
C281 H284 0.929 . S
C282 C281 1.363 . S
C282 C288 1.428 . S
H283 C279 0.930 . S
H284 C281 0.929 . S
S285 N286 1.613 . S
S285 N287 1.610 . S
N286 S285 1.613 . S
N286 C289 1.350 . S
N287 S285 1.610 . S
N287 C288 1.351 . S
C288 C282 1.428 . S
C288 N287 1.351 . S
C288 C289 1.434 . S
C289 C280 1.429 . S
C289 N286 1.350 . S
C289 C288 1.434 . S
C290 C291 1.369 . S
C290 C292 1.419 . S
C290 H294 0.930 . S
C291 C290 1.369 . S
C291 C300 1.429 1_565 S
C292 C290 1.419 . S
C292 C293 1.363 1_565 S
C292 H295 0.929 . S
C293 C292 1.363 1_545 S
C293 C299 1.428 . S
H294 C290 0.930 . S
H295 C292 0.929 . S
S296 N297 1.613 . S
S296 N298 1.610 . S
N297 S296 1.613 . S
N297 C300 1.350 . S
N298 S296 1.610 . S
N298 C299 1.351 . S
C299 C293 1.428 . S
C299 N298 1.351 . S
C299 C300 1.434 . S
C300 C291 1.429 1_545 S
C300 N297 1.350 . S
C300 C299 1.434 . S
C301 C302 1.369 1_655 S
C301 C303 1.419 . S
C301 H305 0.930 . S
C302 C301 1.369 1_455 S
C302 C311 1.429 1_565 S
C303 C301 1.419 . S
C303 C304 1.363 1_665 S
C303 H306 0.929 . S
C304 C303 1.363 1_445 S
C304 C310 1.428 . S
H305 C301 0.930 . S
H306 C303 0.929 . S
S307 N308 1.613 . S
S307 N309 1.610 . S
N308 S307 1.613 . S
N308 C311 1.350 . S
N309 S307 1.610 . S
N309 C310 1.351 . S
C310 C304 1.428 . S
C310 N309 1.351 . S
C310 C311 1.434 . S
C311 C302 1.429 1_545 S
C311 N308 1.350 . S
C311 C310 1.434 . S
C312 C313 1.369 . S
C312 C314 1.419 . S
C312 H316 0.930 . S
C313 C312 1.369 . S
C313 C322 1.429 . S
C314 C312 1.419 . S
C314 C315 1.363 . S
C314 H317 0.929 . S
C315 C314 1.363 . S
C315 C321 1.428 . S
H316 C312 0.930 . S
H317 C314 0.929 . S
S318 N319 1.613 . S
S318 N320 1.610 . S
N319 S318 1.613 . S
N319 C322 1.350 . S
N320 S318 1.610 . S
N320 C321 1.351 . S
C321 C315 1.428 . S
C321 N320 1.351 . S
C321 C322 1.434 . S
C322 C313 1.429 . S
C322 N319 1.350 . S
C322 C321 1.434 . S
C323 C324 1.369 . S
C323 C325 1.419 . S
C323 H327 0.930 . S
C324 C323 1.369 . S
C324 C333 1.429 . S
C325 C323 1.419 . S
C325 C326 1.363 . S
C325 H328 0.929 . S
C326 C325 1.363 . S
C326 C332 1.428 . S
H327 C323 0.930 . S
H328 C325 0.929 . S
S329 N330 1.613 . S
S329 N331 1.610 . S
N330 S329 1.613 . S
N330 C333 1.350 . S
N331 S329 1.610 . S
N331 C332 1.351 . S
C332 C326 1.428 . S
C332 N331 1.351 . S
C332 C333 1.434 . S
C333 C324 1.429 . S
C333 N330 1.350 . S
C333 C332 1.434 . S
C205 C164 1.347 . S
C203 C3 1.269 . S
C214 C4 1.514 1_556 S
C216 C124 1.671 . S
C225 C19 1.543 . S
C227 C177 1.665 . S
C236 C7 1.297 . S
C238 C137 1.357 . S
C247 C37 1.269 . S
C249 C84 1.347 . S
C258 C28 1.521 . S
C260 C44 1.671 . S
C271 C97 1.666 . S
C269 C41 1.540 . S
C282 C57 1.358 . S
C280 C25 1.291 . S
C291 C20 1.313 . S
C293 C63 1.530 . S
C302 C16 1.355 . S
C304 C103 1.511 . S
C315 C143 1.529 . S
C313 C40 1.330 . S
C324 C24 1.366 . S
C326 C183 1.505 . S
