# Generated by pormake.
# Topology gar, (4,6)-cn, num edge types: 1
# Building blocks:
#     Node 0, Type 0, BuildingBlock: QUQFOY_clean_sbu_3, # of connection points: 4
#     Node 1, Type 0, BuildingBlock: QUQFOY_clean_sbu_3, # of connection points: 4
#     Node 2, Type 0, BuildingBlock: QUQFOY_clean_sbu_3, # of connection points: 4
#     Node 3, Type 0, BuildingBlock: QUQFOY_clean_sbu_3, # of connection points: 4
#     Node 4, Type 0, BuildingBlock: QUQFOY_clean_sbu_3, # of connection points: 4
#     Node 5, Type 0, BuildingBlock: QUQFOY_clean_sbu_3, # of connection points: 4
#     Node 6, Type 0, BuildingBlock: QUQFOY_clean_sbu_3, # of connection points: 4
#     Node 7, Type 0, BuildingBlock: QUQFOY_clean_sbu_3, # of connection points: 4
#     Node 8, Type 0, BuildingBlock: QUQFOY_clean_sbu_3, # of connection points: 4
#     Node 9, Type 0, BuildingBlock: QUQFOY_clean_sbu_3, # of connection points: 4
#     Node 10, Type 0, BuildingBlock: QUQFOY_clean_sbu_3, # of connection points: 4
#     Node 11, Type 0, BuildingBlock: QUQFOY_clean_sbu_3, # of connection points: 4
#     Node 12, Type 0, BuildingBlock: QUQFOY_clean_sbu_3, # of connection points: 4
#     Node 13, Type 0, BuildingBlock: QUQFOY_clean_sbu_3, # of connection points: 4
#     Node 14, Type 0, BuildingBlock: QUQFOY_clean_sbu_3, # of connection points: 4
#     Node 15, Type 0, BuildingBlock: QUQFOY_clean_sbu_3, # of connection points: 4
#     Node 16, Type 0, BuildingBlock: QUQFOY_clean_sbu_3, # of connection points: 4
#     Node 17, Type 0, BuildingBlock: QUQFOY_clean_sbu_3, # of connection points: 4
#     Node 18, Type 0, BuildingBlock: QUQFOY_clean_sbu_3, # of connection points: 4
#     Node 19, Type 0, BuildingBlock: QUQFOY_clean_sbu_3, # of connection points: 4
#     Node 20, Type 0, BuildingBlock: QUQFOY_clean_sbu_3, # of connection points: 4
#     Node 21, Type 0, BuildingBlock: QUQFOY_clean_sbu_3, # of connection points: 4
#     Node 22, Type 0, BuildingBlock: QUQFOY_clean_sbu_3, # of connection points: 4
#     Node 23, Type 0, BuildingBlock: QUQFOY_clean_sbu_3, # of connection points: 4
#     Node 24, Type 1, BuildingBlock: HISSIN_clean_sbu_0, # of connection points: 6
#     Node 25, Type 1, BuildingBlock: HISSIN_clean_sbu_0, # of connection points: 6
#     Node 26, Type 1, BuildingBlock: HISSIN_clean_sbu_0, # of connection points: 6
#     Node 27, Type 1, BuildingBlock: HISSIN_clean_sbu_0, # of connection points: 6
#     Node 28, Type 1, BuildingBlock: HISSIN_clean_sbu_0, # of connection points: 6
#     Node 29, Type 1, BuildingBlock: HISSIN_clean_sbu_0, # of connection points: 6
#     Node 30, Type 1, BuildingBlock: HISSIN_clean_sbu_0, # of connection points: 6
#     Node 31, Type 1, BuildingBlock: HISSIN_clean_sbu_0, # of connection points: 6
#     Node 32, Type 1, BuildingBlock: HISSIN_clean_sbu_0, # of connection points: 6
#     Node 33, Type 1, BuildingBlock: HISSIN_clean_sbu_0, # of connection points: 6
#     Node 34, Type 1, BuildingBlock: HISSIN_clean_sbu_0, # of connection points: 6
#     Node 35, Type 1, BuildingBlock: HISSIN_clean_sbu_0, # of connection points: 6
#     Node 36, Type 1, BuildingBlock: HISSIN_clean_sbu_0, # of connection points: 6
#     Node 37, Type 1, BuildingBlock: HISSIN_clean_sbu_0, # of connection points: 6
#     Node 38, Type 1, BuildingBlock: HISSIN_clean_sbu_0, # of connection points: 6
#     Node 39, Type 1, BuildingBlock: HISSIN_clean_sbu_0, # of connection points: 6
#     Edge 40, Type (0, 1), None
#     Edge 41, Type (0, 1), None
#     Edge 42, Type (0, 1), None
#     Edge 43, Type (0, 1), None
#     Edge 44, Type (0, 1), None
#     Edge 45, Type (0, 1), None
#     Edge 46, Type (0, 1), None
#     Edge 47, Type (0, 1), None
#     Edge 48, Type (0, 1), None
#     Edge 49, Type (0, 1), None
#     Edge 50, Type (0, 1), None
#     Edge 51, Type (0, 1), None
#     Edge 52, Type (0, 1), None
#     Edge 53, Type (0, 1), None
#     Edge 54, Type (0, 1), None
#     Edge 55, Type (0, 1), None
#     Edge 56, Type (0, 1), None
#     Edge 57, Type (0, 1), None
#     Edge 58, Type (0, 1), None
#     Edge 59, Type (0, 1), None
#     Edge 60, Type (0, 1), None
#     Edge 61, Type (0, 1), None
#     Edge 62, Type (0, 1), None
#     Edge 63, Type (0, 1), None
#     Edge 64, Type (0, 1), None
#     Edge 65, Type (0, 1), None
#     Edge 66, Type (0, 1), None
#     Edge 67, Type (0, 1), None
#     Edge 68, Type (0, 1), None
#     Edge 69, Type (0, 1), None
#     Edge 70, Type (0, 1), None
#     Edge 71, Type (0, 1), None
#     Edge 72, Type (0, 1), None
#     Edge 73, Type (0, 1), None
#     Edge 74, Type (0, 1), None
#     Edge 75, Type (0, 1), None
#     Edge 76, Type (0, 1), None
#     Edge 77, Type (0, 1), None
#     Edge 78, Type (0, 1), None
#     Edge 79, Type (0, 1), None
#     Edge 80, Type (0, 1), None
#     Edge 81, Type (0, 1), None
#     Edge 82, Type (0, 1), None
#     Edge 83, Type (0, 1), None
#     Edge 84, Type (0, 1), None
#     Edge 85, Type (0, 1), None
#     Edge 86, Type (0, 1), None
#     Edge 87, Type (0, 1), None
#     Edge 88, Type (0, 1), None
#     Edge 89, Type (0, 1), None
#     Edge 90, Type (0, 1), None
#     Edge 91, Type (0, 1), None
#     Edge 92, Type (0, 1), None
#     Edge 93, Type (0, 1), None
#     Edge 94, Type (0, 1), None
#     Edge 95, Type (0, 1), None
#     Edge 96, Type (0, 1), None
#     Edge 97, Type (0, 1), None
#     Edge 98, Type (0, 1), None
#     Edge 99, Type (0, 1), None
#     Edge 100, Type (0, 1), None
#     Edge 101, Type (0, 1), None
#     Edge 102, Type (0, 1), None
#     Edge 103, Type (0, 1), None
#     Edge 104, Type (0, 1), None
#     Edge 105, Type (0, 1), None
#     Edge 106, Type (0, 1), None
#     Edge 107, Type (0, 1), None
#     Edge 108, Type (0, 1), None
#     Edge 109, Type (0, 1), None
#     Edge 110, Type (0, 1), None
#     Edge 111, Type (0, 1), None
#     Edge 112, Type (0, 1), None
#     Edge 113, Type (0, 1), None
#     Edge 114, Type (0, 1), None
#     Edge 115, Type (0, 1), None
#     Edge 116, Type (0, 1), None
#     Edge 117, Type (0, 1), None
#     Edge 118, Type (0, 1), None
#     Edge 119, Type (0, 1), None
#     Edge 120, Type (0, 1), None
#     Edge 121, Type (0, 1), None
#     Edge 122, Type (0, 1), None
#     Edge 123, Type (0, 1), None
#     Edge 124, Type (0, 1), None
#     Edge 125, Type (0, 1), None
#     Edge 126, Type (0, 1), None
#     Edge 127, Type (0, 1), None
#     Edge 128, Type (0, 1), None
#     Edge 129, Type (0, 1), None
#     Edge 130, Type (0, 1), None
#     Edge 131, Type (0, 1), None
#     Edge 132, Type (0, 1), None
#     Edge 133, Type (0, 1), None
#     Edge 134, Type (0, 1), None
#     Edge 135, Type (0, 1), None
# Relax obj value: 0.407
# Max RMSD: 0.417
# Mean RMSD: 0.193
data_MOF--net-gar--node1-QUQFOY_clean_sbu_3--node2-HISSIN_clean_sbu_0--edge1-none
_symmetry_space_group_name_H-M    P1
_symmetry_Int_Tables_number       1
_symmetry_cell_setting            triclinic
loop_
_symmetry_equiv_pos_as_xyz
'x, y, z'
_cell_length_a     30.572939
_cell_length_b     31.165083
_cell_length_c     28.998478
_cell_angle_alpha  106.07438
_cell_angle_beta   92.972261
_cell_angle_gamma 102.82542
loop_
_atom_site_label
_atom_site_type_symbol
_atom_site_fract_x
_atom_site_fract_y
_atom_site_fract_z
_atom_type_partial_charge
C0 C 0.1693 0.39172 0.34197 0.0
O1 O 0.20136 0.41212 0.32366 0.0
Cd2 Cd 0.26616 0.4602 0.37696 0.0
O3 O 0.1756 0.38518 0.38275 0.0
Cd4 Cd 0.22855 0.38911 0.4447 0.0
C5 C 0.198 0.49141 0.46122 0.0
O6 O 0.2919 0.40345 0.40207 0.0
O7 O 0.25124 0.3329 0.3845 0.0
O8 O 0.17759 0.32576 0.45733 0.0
C9 C 0.28073 0.36253 0.37323 0.0
O10 O 0.21979 0.50178 0.42826 0.0
C11 C 0.19219 0.33496 0.50164 0.0
O12 O 0.20054 0.45651 0.47442 0.0
O13 O 0.22631 0.36889 0.51983 0.0
C14 C 0.98709 0.80077 0.74732 0.0
O15 O 1.00696 0.77365 0.75995 0.0
Cd16 Cd 0.04208 0.75803 0.69127 0.0
O17 O 0.99019 0.80673 0.70549 0.0
Cd18 Cd 0.04758 0.78927 0.64762 0.0
C19 C 0.07776 0.68856 0.63259 0.0
O20 O 0.09665 0.82734 0.72206 0.0
O21 O 0.1259 0.79628 0.65987 0.0
O22 O 0.06699 0.86022 0.63022 0.0
C23 C 0.13122 0.81891 0.70405 0.0
O24 O 0.08221 0.70005 0.67817 0.0
C25 C 0.06527 0.84352 0.58499 0.0
O26 O 0.05752 0.71009 0.61037 0.0
O27 O 0.04826 0.80062 0.56689 0.0
C28 C 0.66921 0.89175 0.84209 0.0
O29 O 0.70128 0.91223 0.82386 0.0
Cd30 Cd 0.76605 0.96044 0.87715 0.0
O31 O 0.67544 0.88519 0.88287 0.0
Cd32 Cd 0.7284 0.88922 0.94483 0.0
C33 C 0.69782 0.9915 0.96133 0.0
O34 O 0.79184 0.9038 0.90234 0.0
O35 O 0.75119 0.83323 0.88447 0.0
O36 O 0.67747 0.82581 0.95742 0.0
C37 C 0.78072 0.86295 0.87336 0.0
O38 O 0.71965 1.00192 0.92842 0.0
C39 C 0.69204 0.83501 1.00174 0.0
O40 O 0.70035 0.95658 0.97451 0.0
O41 O 0.72614 0.86895 0.01995 0.0
C42 C 0.48726 0.30109 0.24742 0.0
O43 O 0.50708 0.27388 0.25994 0.0
Cd44 Cd 0.54221 0.25835 0.19127 0.0
O45 O 0.49038 0.30713 0.20562 0.0
Cd46 Cd 0.54772 0.28955 0.1477 0.0
C47 C 0.57777 0.18878 0.13265 0.0
O48 O 0.59688 0.32758 0.22209 0.0
O49 O 0.62602 0.29644 0.15985 0.0
O50 O 0.5672 0.36046 0.13025 0.0
C51 C 0.63141 0.31906 0.20403 0.0
O52 O 0.58225 0.2003 0.17823 0.0
C53 C 0.56542 0.34374 0.08501 0.0
O54 O 0.55754 0.21032 0.11042 0.0
O55 O 0.54835 0.30084 0.06694 0.0
C56 C 0.13052 0.76627 0.18082 0.0
O57 O 0.15528 0.75804 0.21219 0.0
Cd58 Cd 0.23173 0.77158 0.2204 0.0
O59 O 0.14664 0.78606 0.15046 0.0
Cd60 Cd 0.21905 0.81701 0.12849 0.0
C61 C 0.22063 0.71341 0.09787 0.0
O62 O 0.23878 0.84279 0.21028 0.0
O63 O 0.2939 0.86133 0.17102 0.0
O64 O 0.19859 0.88063 0.12259 0.0
C65 C 0.27904 0.86333 0.21153 0.0
O66 O 0.22093 0.71995 0.14269 0.0
C67 C 0.1958 0.87012 0.07698 0.0
O68 O 0.22604 0.74622 0.0798 0.0
O69 O 0.20664 0.83396 0.05402 0.0
C70 C 0.49416 0.84046 0.35604 0.0
O71 O 0.52503 0.86484 0.34038 0.0
Cd72 Cd 0.59664 0.90269 0.37589 0.0
O73 O 0.49854 0.83656 0.39828 0.0
Cd74 Cd 0.56148 0.86716 0.46115 0.0
C75 C 0.57514 0.96733 0.48231 0.0
O76 O 0.61597 0.85038 0.41103 0.0
O77 O 0.64205 0.90421 0.47797 0.0
O78 O 0.54272 0.79953 0.48123 0.0
C79 C 0.64961 0.8768 0.43996 0.0
O80 O 0.59981 0.96168 0.44855 0.0
C81 C 0.56116 0.81816 0.52463 0.0
O82 O 0.54174 0.93619 0.48451 0.0
O83 O 0.57181 0.86171 0.54063 0.0
C84 C 0.63075 0.266 0.68059 0.0
O85 O 0.65552 0.25804 0.71218 0.0
Cd86 Cd 0.73212 0.27218 0.72079 0.0
O87 O 0.64689 0.2856 0.65008 0.0
Cd88 Cd 0.71934 0.31677 0.62795 0.0
C89 C 0.72178 0.21418 0.59771 0.0
O90 O 0.73881 0.34299 0.71005 0.0
O91 O 0.79406 0.36126 0.67086 0.0
O92 O 0.69915 0.38067 0.62228 0.0
C93 C 0.77912 0.36344 0.71135 0.0
O94 O 0.72202 0.22226 0.64269 0.0
C95 C 0.6959 0.37004 0.57667 0.0
O96 O 0.72746 0.2462 0.57848 0.0
O97 O 0.70638 0.33372 0.55359 0.0
C98 C 0.99404 0.34046 0.85606 0.0
O99 O 0.02493 0.36478 0.84036 0.0
Cd100 Cd 0.09636 0.40275 0.87621 0.0
O101 O 0.99841 0.33667 0.89835 0.0
Cd102 Cd 0.06138 0.36715 0.96124 0.0
C103 C 0.0746 0.46741 0.9828 0.0
O104 O 0.11587 0.35032 0.91106 0.0
O105 O 0.14197 0.4043 0.97786 0.0
O106 O 0.04275 0.29944 0.98123 0.0
C107 C 0.14952 0.37679 0.93992 0.0
O108 O 0.09909 0.4617 0.94886 0.0
C109 C 0.06119 0.31805 0.02462 0.0
O110 O 0.04154 0.43613 0.9854 0.0
O111 O 0.07183 0.3616 0.04064 0.0
C112 C 0.57101 0.08151 0.42501 0.0
O113 O 0.58514 0.05827 0.38864 0.0
Cd114 Cd 0.54121 1.01307 0.32092 0.0
O115 O 0.53055 0.08624 0.42356 0.0
Cd116 Cd 0.46898 0.06095 0.35369 0.0
C117 C 0.44428 0.96544 0.36544 0.0
O118 O 0.51322 0.0652 0.29273 0.0
O119 O 0.45967 1.00266 0.27659 0.0
O120 O 0.4489 0.12849 0.34962 0.0
C121 C 0.48889 0.02966 0.26194 0.0
O122 O 0.4792 0.96504 0.34368 0.0
C123 C 0.40911 0.10689 0.32914 0.0
O124 O 0.4331 1.00255 0.38353 0.0
O125 O 0.39515 0.06531 0.32821 0.0
C126 C 0.40067 0.2011 0.5604 0.0
O127 O 0.3664 0.18104 0.57558 0.0
Cd128 Cd 0.29159 0.17618 0.56888 0.0
O129 O 0.39808 0.22461 0.53138 0.0
Cd130 Cd 0.33138 0.24651 0.50547 0.0
C131 C 0.33734 0.28432 0.63623 0.0
O132 O 0.28161 0.16576 0.48528 0.0
O133 O 0.24753 0.21865 0.51136 0.0
O134 O 0.35502 0.2436 0.42067 0.0
C135 C 0.24522 0.17558 0.49738 0.0
O136 O 0.30545 0.24885 0.6317 0.0
C137 C 0.35803 0.28535 0.42242 0.0
O138 O 0.3543 0.29211 0.5987 0.0
O139 O 0.34733 0.30964 0.46134 0.0
C140 C 0.18197 0.0896 0.89908 0.0
O141 O 0.17732 0.12254 0.88317 0.0
Cd142 Cd 0.21836 0.12339 0.81036 0.0
O143 O 0.20689 0.06368 0.87405 0.0
Cd144 Cd 0.25891 0.05904 0.78344 0.0
C145 C 0.30287 0.19967 0.80022 0.0
O146 O 0.18652 0.07382 0.72629 0.0
O147 O 0.24119 0.06004 0.68869 0.0
O148 O 0.26573 0.96127 0.77584 0.0
C149 C 0.20371 0.07171 0.68633 0.0
O150 O 0.26241 0.19891 0.80845 0.0
C151 C 0.30795 0.96099 0.7762 0.0
O152 O 0.3141 0.15963 0.79407 0.0
O153 O 0.32858 1.00274 0.7785 0.0
C154 C 0.47737 0.05728 0.0187 0.0
O155 O 0.46214 0.09024 0.01227 0.0
Cd156 Cd 0.37615 0.05106 0.99547 0.0
O157 O 0.44618 1.02268 0.02059 0.0
Cd158 Cd 0.35144 1.01388 0.01921 0.0
C159 C 0.36389 0.9426 0.9229 0.0
O160 O 0.302 0.07608 0.02584 0.0
O161 O 0.26816 1.01321 0.03824 0.0
O162 O 0.3958 0.0358 0.09435 0.0
C163 C 0.26549 0.05329 0.03804 0.0
O164 O 0.38103 0.9841 0.92441 0.0
C165 C 0.37828 0.99668 0.0993 0.0
O166 O 0.33964 0.93643 0.95553 0.0
O167 O 0.34397 0.96997 0.07079 0.0
C168 C 0.51019 0.50993 0.07319 0.0
O169 O 0.48017 0.5293 0.06383 0.0
Cd170 Cd 0.4044 0.49466 0.0356 0.0
O171 O 0.4992 0.46849 0.07726 0.0
Cd172 Cd 0.42044 0.40522 0.07754 0.0
C173 C 0.40938 0.39264 0.94976 0.0
O174 O 0.37305 0.45484 0.08635 0.0
O175 O 0.34301 0.38516 0.04179 0.0
O176 O 0.41774 0.41145 0.16775 0.0
C177 C 0.33858 0.42529 0.06128 0.0
O178 O 0.40526 0.43377 0.96339 0.0
C179 C 0.39635 0.37042 0.16414 0.0
O180 O 0.41678 0.37174 0.98124 0.0
O181 O 0.39074 0.34275 0.12141 0.0
C182 C 0.98911 0.11773 0.05561 0.0
O183 O 0.96745 0.09998 0.08496 0.0
Cd184 Cd 0.8956 0.13365 0.1034 0.0
O185 O 0.96972 0.14463 0.04046 0.0
Cd186 Cd 0.88693 0.16262 0.06506 0.0
C187 C 0.89615 0.23743 0.16901 0.0
O188 O 0.81133 0.10214 0.07444 0.0
O189 O 0.80408 0.16571 0.06488 0.0
O190 O 0.86913 0.1577 0.98279 0.0
C191 C 0.78396 0.12721 0.0691 0.0
O192 O 0.8904 0.19813 0.1759 0.0
C193 C 0.87408 0.20115 0.99584 0.0
O194 O 0.9054 0.23996 0.12798 0.0
O195 O 0.89022 0.22482 0.03868 0.0
C196 C 0.24287 0.68219 0.31393 0.0
O197 O 0.21714 0.69317 0.28587 0.0
Cd198 Cd 0.20901 0.66345 0.20377 0.0
O199 O 0.26656 0.6541 0.29842 0.0
Cd200 Cd 0.28617 0.60902 0.22835 0.0
C201 C 0.32168 0.7095 0.21338 0.0
O202 O 0.20946 0.58971 0.2063 0.0
O203 O 0.24665 0.56829 0.14715 0.0
O204 O 0.2936 0.56052 0.27544 0.0
C205 C 0.20866 0.57033 0.16235 0.0
O206 O 0.2817 0.70827 0.19855 0.0
C207 C 0.33503 0.56392 0.27028 0.0
O208 O 0.33138 0.67758 0.22707 0.0
O209 O 0.35213 0.58349 0.24023 0.0
C210 C 1.01004 1.00997 0.57322 0.0
O211 O 0.98 0.02937 0.56394 0.0
Cd212 Cd 0.90422 0.99467 0.53568 0.0
O213 O 0.99905 0.96851 0.57722 0.0
Cd214 Cd 0.92032 0.90522 0.5775 0.0
C215 C 0.90921 0.8927 0.44978 0.0
O216 O 0.87283 0.95473 0.58631 0.0
O217 O 0.84291 0.88504 0.54168 0.0
O218 O 0.91773 0.91142 0.66769 0.0
C219 C 0.8384 0.92513 0.5612 0.0
O220 O 0.90508 0.93382 0.46344 0.0
C221 C 0.8963 0.8704 0.66408 0.0
O222 O 0.91666 0.87179 0.48124 0.0
O223 O 0.8906 0.84274 0.62133 0.0
C224 C 0.07723 0.09592 0.39888 0.0
O225 O 0.09175 0.0716 0.3633 0.0
Cd226 Cd 0.04833 0.06522 0.28735 0.0
O227 O 0.04811 0.11808 0.38679 0.0
Cd228 Cd 1.00343 0.12198 0.28875 0.0
C229 C 0.9582 0.98562 0.27967 0.0
O230 O 0.08021 0.11446 0.23546 0.0
O231 O 1.01999 0.09683 0.18967 0.0
O232 O 0.99565 0.22028 0.30554 0.0
C233 C 0.06307 0.10342 0.19113 0.0
O234 O 0.99833 0.98614 0.27014 0.0
C235 C 0.95313 0.21922 0.30145 0.0
O236 O 0.94786 1.02598 0.28773 0.0
O237 O 0.9326 0.17619 0.29209 0.0
C238 C 0.48913 0.61773 0.55559 0.0
O239 O 0.46749 0.6 0.58497 0.0
Cd240 Cd 0.39563 0.63365 0.6034 0.0
O241 O 0.46972 0.6446 0.54041 0.0
Cd242 Cd 0.38695 0.6626 0.56506 0.0
C243 C 0.39613 0.73741 0.66901 0.0
O244 O 0.31137 0.6021 0.57442 0.0
O245 O 0.30411 0.66566 0.56485 0.0
O246 O 0.36914 0.65768 0.4828 0.0
C247 C 0.284 0.62716 0.56907 0.0
O248 O 0.39039 0.69811 0.6759 0.0
C249 C 0.37411 0.70112 0.49585 0.0
O250 O 0.40538 0.73994 0.62798 0.0
O251 O 0.39026 0.7248 0.53869 0.0
C252 C 0.57726 0.59594 0.89886 0.0
O253 O 0.59179 0.57163 0.86327 0.0
Cd254 Cd 0.54836 0.56522 0.78732 0.0
O255 O 0.54813 0.61809 0.88676 0.0
Cd256 Cd 0.50343 0.62197 0.78872 0.0
C257 C 0.45826 0.48558 0.77965 0.0
O258 O 0.58022 0.61448 0.73544 0.0
O259 O 0.52 0.59683 0.68964 0.0
O260 O 0.49564 0.72027 0.80553 0.0
C261 C 0.56307 0.60343 0.6911 0.0
O262 O 0.49839 0.48613 0.77011 0.0
C263 C 0.45312 0.71921 0.80144 0.0
O264 O 0.4479 0.52594 0.78771 0.0
O265 O 0.43259 0.67618 0.79207 0.0
C266 C 0.7429 0.18204 0.81393 0.0
O267 O 0.71727 0.19308 0.78582 0.0
Cd268 Cd 0.70895 0.16326 0.70368 0.0
O269 O 0.76651 0.15385 0.79847 0.0
Cd270 Cd 0.78592 0.10874 0.72832 0.0
C271 C 0.82149 0.20934 0.71334 0.0
O272 O 0.70902 0.08947 0.70645 0.0
O273 O 0.7461 0.06813 0.64721 0.0
O274 O 0.79384 0.06065 0.77587 0.0
C275 C 0.70812 0.07008 0.66249 0.0
O276 O 0.78159 0.20798 0.69807 0.0
C277 C 0.83507 0.06356 0.76994 0.0
O278 O 0.83106 0.1775 0.7273 0.0
O279 O 0.85173 0.08262 0.73932 0.0
C280 C 0.90063 0.70092 0.06021 0.0
O281 O 0.86637 0.68089 0.07542 0.0
Cd282 Cd 0.79159 0.6763 0.06878 0.0
O283 O 0.89805 0.72453 0.03128 0.0
Cd284 Cd 0.83142 0.74662 1.00546 0.0
C285 C 0.83739 0.78441 0.13622 0.0
O286 O 0.78159 0.6659 0.98518 0.0
O287 O 0.74758 0.71881 1.01145 0.0
O288 O 0.85511 0.74374 0.92067 0.0
C289 C 0.74524 0.67573 0.9974 0.0
O290 O 0.8055 0.74893 0.13166 0.0
C291 C 0.8581 0.78548 0.92242 0.0
O292 O 0.85436 0.79222 0.0987 0.0
O293 O 0.84736 0.80976 0.96132 0.0
C294 C 0.07118 0.58111 0.92475 0.0
O295 O 0.08533 0.55757 0.8886 0.0
Cd296 Cd 0.04115 0.51272 0.82079 0.0
O297 O 0.0308 0.58606 0.92311 0.0
Cd298 Cd 0.96917 0.56095 0.85348 0.0
C299 C 0.94414 0.46539 0.86533 0.0
O300 O 1.0134 0.565 0.79257 0.0
O301 O 0.95986 0.50244 0.77654 0.0
O302 O 0.9495 0.62864 0.84902 0.0
C303 C 0.98911 0.52937 0.76186 0.0
O304 O 0.9791 0.46483 0.84365 0.0
C305 C 0.9096 0.60718 0.82882 0.0
O306 O 0.93302 0.50258 0.88324 0.0
O307 O 0.89545 0.56571 0.82824 0.0
C308 C 0.97741 0.55719 0.51865 0.0
O309 O 0.96221 0.5902 0.51229 0.0
Cd310 Cd 0.87619 0.55106 0.49549 0.0
O311 O 0.94621 0.5226 0.5205 0.0
Cd312 Cd 0.85146 0.51388 0.51918 0.0
C313 C 0.86391 0.4426 0.4229 0.0
O314 O 0.80203 0.57609 0.52585 0.0
O315 O 0.76816 0.5132 0.53817 0.0
O316 O 0.89583 0.53577 0.59431 0.0
C317 C 0.7655 0.5533 0.53801 0.0
O318 O 0.88106 0.48411 0.42443 0.0
C319 C 0.87829 0.49665 0.59925 0.0
O320 O 0.83964 0.43642 0.45552 0.0
O321 O 0.84398 0.46996 0.57075 0.0
C322 C 0.68196 0.58959 0.39904 0.0
O323 O 0.67729 0.6225 0.38311 0.0
Cd324 Cd 0.71833 0.62337 0.3103 0.0
O325 O 0.70691 0.56368 0.37402 0.0
Cd326 Cd 0.75893 0.55904 0.28342 0.0
C327 C 0.80279 0.69969 0.3002 0.0
O328 O 0.68655 0.57379 0.22623 0.0
O329 O 0.74126 0.56008 0.18867 0.0
O330 O 0.76576 0.46127 0.27581 0.0
C331 C 0.70376 0.57172 0.18629 0.0
O332 O 0.76233 0.69891 0.30841 0.0
C333 C 0.80798 0.46099 0.27619 0.0
O334 O 0.81406 0.65967 0.29406 0.0
O335 O 0.82861 0.50275 0.2785 0.0
Eu336 Eu 0.15145 0.13902 0.06615 0.0
Eu337 Eu 0.10526 0.04236 0.02753 0.0
C338 C 0.16133 0.08734 0.9487 0.0
C339 C 0.14775 0.25097 0.07615 0.0
C340 C 0.11812 0.22859 0.03322 0.0
C341 C 0.1119 0.31368 0.09196 0.0
C342 C 0.08617 0.24862 0.01944 0.0
C343 C 0.14367 0.29276 0.10646 0.0
C344 C 0.08375 0.29198 0.04777 0.0
C345 C 0.17912 0.22693 0.0898 0.0
O346 O 0.18071 0.03808 0.04281 0.0
O347 O 0.21778 0.11269 0.06192 0.0
C348 C 0.21978 0.06911 0.04781 0.0
O349 O 0.12641 0.12997 0.14014 0.0
O350 O 0.08918 0.97474 0.97287 0.0
O351 O 0.06394 0.98247 0.04194 0.0
O352 O 0.07746 0.06178 0.10451 0.0
C353 C 0.09058 0.09817 0.14389 0.0
O354 O 0.07453 0.14147 0.05849 0.0
O355 O 0.04014 0.06696 0.02043 0.0
O356 O 0.13615 0.04955 0.95568 0.0
O357 O 0.16674 0.20608 0.12175 0.0
O358 O 0.19167 0.20021 0.05296 0.0
O359 O 0.164 0.12611 0.98404 0.0
C360 C 0.10836 0.9323 0.02116 0.0
C361 C 0.1353 0.955 0.06588 0.0
C362 C 0.14853 0.87307 1.00684 0.0
C363 C 0.16787 0.93682 0.08119 0.0
C364 C 0.11614 0.89231 0.99065 0.0
C365 C 0.17311 0.89479 0.05291 0.0
C366 C 0.07681 0.95511 1.00584 0.0
C367 C 0.0363 0.10883 0.04237 0.0
H368 H 0.1197 0.1954 1.0097 0.0
H369 H 0.11079 0.34759 0.11405 0.0
H370 H 0.06532 0.23109 0.98505 0.0
H371 H 0.1655 0.30947 0.14029 0.0
H372 H 0.13132 0.98716 0.08962 0.0
H373 H 0.15242 0.8402 0.9848 0.0
H374 H 0.18697 0.95438 0.11657 0.0
H375 H 0.09666 0.87567 0.95542 0.0
Eu376 Eu 0.40158 0.85055 0.24256 0.0
Eu377 Eu 0.34737 0.82783 0.32902 0.0
C378 C 0.3092 0.86909 0.25336 0.0
C379 C 0.43288 0.91341 0.1605 0.0
C380 C 0.4041 0.93831 0.18528 0.0
C381 C 0.43622 0.95584 0.1035 0.0
C382 C 0.38846 0.9692 0.16757 0.0
C383 C 0.45041 0.9232 0.1205 0.0
C384 C 0.40381 0.97705 0.12614 0.0
C385 C 0.43967 0.87465 0.17453 0.0
O386 O 0.36443 0.76624 0.27985 0.0
O387 O 0.35105 0.78487 0.21194 0.0
C388 C 0.35139 0.75386 0.23347 0.0
O389 O 0.44969 0.8286 0.28452 0.0
O390 O 0.29258 0.77911 0.34397 0.0
O391 O 0.32785 0.84102 0.40134 0.0
O392 O 0.41592 0.82572 0.35329 0.0
C393 C 0.45056 0.82685 0.329 0.0
O394 O 0.40059 0.91604 0.2967 0.0
O395 O 0.39234 0.89688 0.36648 0.0
O396 O 0.29914 0.83905 0.27673 0.0
O397 O 0.46077 0.88561 0.2181 0.0
O398 O 0.40265 0.84164 0.16615 0.0
O399 O 0.35049 0.89046 0.25531 0.0
C400 C 0.31781 0.77144 0.41591 0.0
C401 C 0.34867 0.7463 0.39599 0.0
C402 C 0.32227 0.74712 0.48639 0.0
C403 C 0.36602 0.72114 0.42121 0.0
C404 C 0.30438 0.77175 0.46084 0.0
C405 C 0.35344 0.72257 0.46667 0.0
C406 C 0.30232 0.79926 0.39033 0.0
C407 C 0.40858 0.92573 0.34344 0.0
H408 H 0.3935 0.934 0.21813 0.0
H409 H 0.44749 0.96152 0.07045 0.0
H410 H 0.36323 0.98536 0.18492 0.0
H411 H 0.47305 0.90437 0.10138 0.0
H412 H 0.35958 0.74636 0.36116 0.0
H413 H 0.31234 0.74772 0.52183 0.0
H414 H 0.39028 0.7022 0.40624 0.0
H415 H 0.28077 0.79137 0.47622 0.0
Eu416 Eu 0.68455 0.0675 0.51498 0.0
Eu417 Eu 0.59862 0.10173 0.58708 0.0
C418 C 0.67123 0.07188 0.63092 0.0
C419 C 0.76339 0.9958 0.50099 0.0
C420 C 0.75551 0.99104 0.54668 0.0
C421 C 0.80789 0.94089 0.48989 0.0
C422 C 0.77807 0.96502 0.56604 0.0
C423 C 0.78847 0.96989 0.47201 0.0
C424 C 0.80547 0.9412 0.53804 0.0
C425 C 0.74716 0.02941 0.48481 0.0
O426 O 0.65422 0.16069 0.58406 0.0
O427 O 0.71512 0.14066 0.54571 0.0
C428 C 0.69498 0.17006 0.57091 0.0
O429 O 0.63839 0.08152 0.46475 0.0
O430 O 0.5796 0.15772 0.6365 0.0
O431 O 0.5293 0.09313 0.60213 0.0
O432 O 0.58034 0.09971 0.51025 0.0
C433 C 0.59915 0.09164 0.46997 0.0
O434 O 0.63703 1.01473 0.53789 0.0
O435 O 0.56833 0.03018 0.5444 0.0
O436 O 0.63555 0.08396 0.64545 0.0
O437 O 0.70582 1.015 0.46285 0.0
O438 O 0.75558 0.06974 0.5175 0.0
O439 O 0.67617 0.07025 0.58742 0.0
C440 C 0.50815 0.16087 0.61242 0.0
C441 C 0.50892 0.16824 0.56683 0.0
C442 C 0.44623 0.19485 0.62764 0.0
C443 C 0.47594 0.18656 0.5504 0.0
C444 C 0.47768 0.175 0.64303 0.0
C445 C 0.4433 0.19761 0.58018 0.0
C446 C 0.53706 0.13616 0.62777 0.0
C447 C 0.59358 1.00388 0.52483 0.0
H448 H 0.73392 1.00942 0.56805 0.0
H449 H 0.82652 0.92008 0.46692 0.0
H450 H 0.77561 0.96494 0.60314 0.0
H451 H 0.79357 0.97259 0.43615 0.0
H452 H 0.53319 0.15756 0.54321 0.0
H453 H 0.4214 0.20408 0.65136 0.0
H454 H 0.47376 0.18845 0.51365 0.0
H455 H 0.47699 0.16903 0.67808 0.0
Eu456 Eu 0.33927 0.35913 0.7943 0.0
Eu457 Eu 0.42063 0.32791 0.78856 0.0
C458 C 0.33237 0.2482 0.7972 0.0
C459 C 0.24206 0.38862 0.8461 0.0
C460 C 0.24452 0.35932 0.87454 0.0
C461 C 0.19105 0.422 0.89411 0.0
C462 C 0.21747 0.3594 0.91103 0.0
C463 C 0.21743 0.42151 0.85722 0.0
C464 C 0.18956 0.38954 0.91933 0.0
C465 C 0.267 0.38655 0.80624 0.0
O466 O 0.39133 0.30278 0.70819 0.0
O467 O 0.33216 0.3355 0.71327 0.0
C468 C 0.35693 0.3121 0.68693 0.0
O469 O 0.38453 0.42811 0.78638 0.0
O470 O 0.45757 0.27633 0.78341 0.0
O471 O 0.49318 0.34693 0.78935 0.0
O472 O 0.44825 0.40358 0.7837 0.0
C473 C 0.42845 0.43759 0.78353 0.0
O474 O 0.36479 0.37901 0.8741 0.0
O475 O 0.42563 0.34917 0.87079 0.0
O476 O 0.37553 0.25678 0.79076 0.0
O477 O 0.30696 0.4144 0.81804 0.0
O478 O 0.26644 0.34498 0.77998 0.0
O479 O 0.31299 0.2834 0.80097 0.0
C480 C 0.51911 0.28635 0.74325 0.0
C481 C 0.53105 0.3087 0.70841 0.0
C482 C 0.56671 0.23608 0.7174 0.0
C483 C 0.56389 0.29649 0.68018 0.0
C484 C 0.53415 0.2481 0.7452 0.0
C485 C 0.58429 0.26266 0.68794 0.0
C486 C 0.49529 0.30434 0.78164 0.0
C487 C 0.39846 0.36992 0.89631 0.0
H488 H 0.26534 0.33487 0.86686 0.0
H489 H 0.16882 0.44487 0.89965 0.0
H490 H 0.21569 0.33374 0.93001 0.0
H491 H 0.21696 0.44518 0.83609 0.0
H492 H 0.51821 0.33781 0.70599 0.0
H493 H 0.58197 0.2097 0.72367 0.0
H494 H 0.57713 0.31736 0.65738 0.0
H495 H 0.52381 0.23004 0.77137 0.0
Eu496 Eu 0.12423 0.13038 0.57332 0.0
Eu497 Eu 0.14971 0.04515 0.51799 0.0
C498 C 0.20946 0.14228 0.51217 0.0
C499 C 0.13005 0.24614 0.57979 0.0
C500 C 0.13713 0.22902 0.53146 0.0
C501 C 0.16337 0.32337 0.57731 0.0
C502 C 0.15692 0.25825 0.5063 0.0
C503 C 0.14281 0.29361 0.60259 0.0
C504 C 0.171 0.30543 0.5293 0.0
C505 C 0.11554 0.21302 0.60653 0.0
O506 O 0.18978 0.05842 0.59475 0.0
O507 O 0.15338 0.1077 0.63921 0.0
C508 C 0.18072 0.0793 0.63843 0.0
O509 O 0.06745 0.08063 0.59111 0.0
O510 O 0.19129 0.99593 0.5085 0.0
O511 O 0.12605 0.97711 0.46526 0.0
O512 O 0.08062 1.0172 0.53906 0.0
C513 C 0.0569 0.03588 0.57153 0.0
O514 O 0.08665 0.11726 0.4938 0.0
O515 O 0.1221 0.06533 0.45223 0.0
O516 O 0.20177 0.09723 0.49415 0.0
O517 O 0.08147 0.17843 0.58427 0.0
O518 O 0.14882 0.19967 0.62367 0.0
O519 O 0.18836 0.1599 0.54746 0.0
C520 C 0.13855 0.92955 0.50979 0.0
C521 C 0.1283 0.94773 0.5566 0.0
C522 C 0.09865 0.85352 0.5105 0.0
C523 C 0.10303 0.91973 0.57981 0.0
C524 C 0.12364 0.88225 0.48664 0.0
C525 C 0.08767 0.87245 0.557 0.0
C526 C 0.15717 0.9623 0.48415 0.0
C527 C 0.09565 0.0937 0.45093 0.0
H528 H 0.12889 0.19286 0.51318 0.0
H529 H 0.17346 0.3601 0.59518 0.0
H530 H 0.16248 0.2437 0.4692 0.0
H531 H 0.13815 0.30743 0.64006 0.0
H532 H 0.13842 0.98404 0.57503 0.0
H533 H 0.08799 0.8168 0.49268 0.0
H534 H 0.09562 0.9354 0.61586 0.0
H535 H 0.13049 0.86781 0.45009 0.0
Eu536 Eu 0.42024 0.86988 0.78798 0.0
Eu537 Eu 0.3405 0.81308 0.80283 0.0
C538 C 0.3725 0.90404 0.88344 0.0
C539 C 0.54233 0.91218 0.81007 0.0
C540 C 0.55275 0.90085 0.85215 0.0
C541 C 0.61253 0.89965 0.78275 0.0
C542 C 0.59223 0.88893 0.85933 0.0
C543 C 0.57168 0.9104 0.77476 0.0
C544 C 0.6233 0.89 0.82571 0.0
C545 C 0.49954 0.92288 0.80251 0.0
O546 O 0.31175 0.8767 0.78505 0.0
O547 O 0.37562 0.91917 0.77007 0.0
C548 C 0.33206 0.91686 0.77625 0.0
O549 O 0.4087 0.82005 0.71248 0.0
O550 O 0.28145 0.7958 0.8388 0.0
O551 O 0.28901 0.74906 0.77091 0.0
O552 O 0.35983 0.76745 0.73654 0.0
C553 C 0.38748 0.7771 0.70635 0.0
O554 O 0.44907 0.80424 0.79767 0.0
O555 O 0.38622 0.76223 0.81481 0.0
O556 O 0.35884 0.86024 0.87979 0.0
O557 O 0.47714 0.90448 0.75909 0.0
O558 O 0.4745 0.91937 0.83699 0.0
O559 O 0.39292 0.91486 0.84876 0.0
C560 C 0.22562 0.77524 0.77485 0.0
C561 C 0.23638 0.79242 0.73573 0.0
C562 C 0.15527 0.79616 0.77342 0.0
C563 C 0.20695 0.81134 0.71573 0.0
C564 C 0.1853 0.77746 0.79406 0.0
C565 C 0.16627 0.81283 0.73406 0.0
C566 C 0.26104 0.76385 0.79965 0.0
C567 C 0.42899 0.76381 0.80542 0.0
H568 H 0.53072 0.9013 0.88025 0.0
H569 H 0.63637 0.90091 0.75656 0.0
H570 H 0.5993 0.88192 0.89315 0.0
H571 H 0.56357 0.91839 0.74179 0.0
H572 H 0.26817 0.79229 0.72092 0.0
H573 H 0.12278 0.79563 0.78676 0.0
H574 H 0.21513 0.82305 0.68461 0.0
H575 H 0.17738 0.76526 0.82488 0.0
Eu576 Eu 0.62984 0.06265 0.08268 0.0
Eu577 Eu 0.63164 0.10896 1.00623 0.0
C578 C 0.5983 0.1539 0.10489 0.0
C579 C 0.57971 1.01381 0.16784 0.0
C580 C 0.5517 0.04316 0.16518 0.0
C581 C 0.53244 0.98024 0.21744 0.0
C582 C 0.51512 0.04243 0.19043 0.0
C583 C 0.56902 0.98063 0.19152 0.0
C584 C 0.50734 1.013 0.21882 0.0
C585 C 0.61848 1.01745 0.14332 0.0
O586 O 0.7077 0.13191 0.03871 0.0
O587 O 0.70832 0.08507 0.08576 0.0
C588 C 0.73123 0.11344 0.06418 0.0
O589 O 0.6596 1.01716 0.02755 0.0
O590 O 0.64945 0.17629 0.99799 0.0
O591 O 0.6195 0.11536 0.93511 0.0
O592 O 0.65762 0.04969 0.96664 0.0
C593 C 0.66993 1.02044 0.98572 0.0
O594 O 0.55131 0.04899 0.05698 0.0
O595 O 0.55436 0.07942 0.99464 0.0
O596 O 0.59427 0.14684 0.05881 0.0
O597 O 0.60777 0.99781 0.09692 0.0
O598 O 0.64458 0.05935 0.1551 0.0
O599 O 0.62138 0.13187 0.12484 0.0
C600 C 0.67636 0.17352 0.92708 0.0
C601 C 0.70857 0.14777 0.91752 0.0
C602 C 0.7079 0.2211 0.88029 0.0
C603 C 0.73849 0.1567 0.88566 0.0
C604 C 0.67845 0.21243 0.91246 0.0
C605 C 0.73439 0.19027 0.86317 0.0
C606 C 0.6397 0.15948 0.95117 0.0
C607 C 0.52952 0.06011 0.02271 0.0
H608 H 0.55976 0.06875 0.14632 0.0
H609 H 0.52699 0.95801 0.24042 0.0
H610 H 0.49626 0.06837 0.19231 0.0
H611 H 0.59019 0.95714 0.19221 0.0
H612 H 0.70806 0.11872 0.9313 0.0
H613 H 0.70541 0.24796 0.86404 0.0
H614 H 0.75986 0.13327 0.87386 0.0
H615 H 0.6546 0.23347 0.92227 0.0
Eu616 Eu 0.4013 0.38327 0.32906 0.0
Eu617 Eu 0.3417 0.27919 0.26177 0.0
C618 C 0.38254 0.35636 0.2086 0.0
C619 C 0.4072 0.49769 0.34326 0.0
C620 C 0.37393 0.47294 0.30393 0.0
C621 C 0.39516 0.56823 0.33323 0.0
C622 C 0.34998 0.49482 0.28085 0.0
C623 C 0.41816 0.54565 0.358 0.0
C624 C 0.36087 0.54233 0.29512 0.0
C625 C 0.42872 0.47095 0.36677 0.0
O626 O 0.41157 0.28977 0.24556 0.0
O627 O 0.45432 0.34394 0.31277 0.0
C628 C 0.44982 0.31168 0.2714 0.0
O629 O 0.38287 0.3481 0.38678 0.0
O630 O 0.33797 0.21795 0.20109 0.0
O631 O 0.29071 0.21482 0.25274 0.0
O632 O 0.36641 0.27409 0.33633 0.0
C633 C 0.36982 0.30343 0.38002 0.0
O634 O 0.3281 0.3773 0.31298 0.0
O635 O 0.29109 0.30531 0.30528 0.0
O636 O 0.34843 0.32046 0.20641 0.0
O637 O 0.40073 0.44538 0.38643 0.0
O638 O 0.4528 0.44737 0.33938 0.0
O639 O 0.40641 0.38176 0.25023 0.0
C640 C 0.33805 0.16559 0.24363 0.0
C641 C 0.38067 0.18928 0.26961 0.0
C642 C 0.34129 0.10158 0.27343 0.0
C643 C 0.40267 0.1707 0.29858 0.0
C644 C 0.31839 0.12128 0.24507 0.0
C645 C 0.38301 0.12702 0.30139 0.0
C646 C 0.31334 0.19187 0.2227 0.0
C647 C 0.29831 0.3488 0.32721 0.0
H648 H 0.36705 0.43655 0.28984 0.0
H649 H 0.40332 0.60551 0.34427 0.0
H650 H 0.3239 0.47471 0.25111 0.0
H651 H 0.44403 0.56521 0.38795 0.0
H652 H 0.39688 0.22315 0.26898 0.0
H653 H 0.32618 0.06689 0.27399 0.0
H654 H 0.4352 0.19068 0.31846 0.0
H655 H 0.28542 0.10266 0.22549 0.0
Eu656 Eu 0.62426 0.63038 0.0733 0.0
Eu657 Eu 0.64983 0.54523 0.01794 0.0
C658 C 0.70949 0.6424 0.01217 0.0
C659 C 0.6299 0.74611 0.07981 0.0
C660 C 0.63702 0.72901 0.03149 0.0
C661 C 0.66316 0.82337 0.07738 0.0
C662 C 0.6568 0.75827 1.00636 0.0
C663 C 0.6426 0.79358 0.10263 0.0
C664 C 0.67083 0.80545 0.02937 0.0
C665 C 0.61544 0.71297 0.10654 0.0
O666 O 0.6899 0.55851 0.09472 0.0
O667 O 0.65342 0.6077 0.13918 0.0
C668 C 0.6808 0.57933 0.13839 0.0
O669 O 0.56762 0.58057 0.09119 0.0
O670 O 0.69145 0.49604 1.00843 0.0
O671 O 0.62621 0.4772 0.96518 0.0
O672 O 0.58072 0.51722 0.03894 0.0
C673 C 0.55705 0.53583 0.07152 0.0
O674 O 0.58665 0.61723 0.99378 0.0
O675 O 0.62222 0.56542 0.9522 0.0
O676 O 0.70183 0.59736 0.99412 0.0
O677 O 0.58141 0.67833 0.08426 0.0
O678 O 0.64876 0.69967 0.12367 0.0
O679 O 0.68839 0.65998 0.04749 0.0
C680 C 0.63872 0.42967 1.00974 0.0
C681 C 0.62848 0.44787 0.05655 0.0
C682 C 0.59877 0.35366 1.01048 0.0
C683 C 0.6032 0.4199 0.07977 0.0
C684 C 0.62378 0.38236 0.98661 0.0
C685 C 0.58782 0.37262 0.05699 0.0
C686 C 0.65734 0.46241 0.98409 0.0
C687 C 0.59571 0.59373 0.95091 0.0
H688 H 0.62883 0.69286 0.01321 0.0
H689 H 0.6732 0.86009 0.09526 0.0
H690 H 0.6624 0.74374 0.96927 0.0
H691 H 0.63791 0.80737 0.14009 0.0
H692 H 0.6386 0.48418 0.07495 0.0
H693 H 0.58809 0.31694 0.99269 0.0
H694 H 0.5958 0.4356 0.11582 0.0
H695 H 0.63062 0.3679 0.95006 0.0
Eu696 Eu 0.92028 0.3699 0.28801 0.0
Eu697 Eu 0.84053 0.31309 0.30285 0.0
C698 C 0.87252 0.40405 0.38344 0.0
C699 C 0.0424 0.41227 0.31018 0.0
C700 C 0.05292 0.40106 0.35231 0.0
C701 C 0.11255 0.39967 0.28273 0.0
C702 C 0.09241 0.38914 0.35943 0.0
C703 C 0.07169 0.41042 0.27479 0.0
C704 C 0.12339 0.39008 0.32571 0.0
C705 C 0.99958 0.42292 0.30265 0.0
O706 O 0.81177 0.37669 0.28503 0.0
O707 O 0.87566 0.41919 0.2701 0.0
C708 C 0.83209 0.41686 0.27625 0.0
O709 O 0.90879 0.32007 0.21252 0.0
O710 O 0.78146 0.29587 0.3388 0.0
O711 O 0.78908 0.24903 0.27102 0.0
O712 O 0.85982 0.26748 0.23651 0.0
C713 C 0.88752 0.27713 0.20635 0.0
O714 O 0.94909 0.30424 0.29767 0.0
O715 O 0.88625 0.26225 0.31484 0.0
O716 O 0.85889 0.36025 0.37981 0.0
O717 O 0.9772 0.40459 0.25922 0.0
O718 O 0.97454 0.4193 0.33711 0.0
O719 O 0.89292 0.41487 0.34876 0.0
C720 C 0.72567 0.27516 0.2748 0.0
C721 C 0.73643 0.29224 0.23562 0.0
C722 C 0.65539 0.29624 0.27339 0.0
C723 C 0.70706 0.31121 0.2156 0.0
C724 C 0.68536 0.27749 0.29403 0.0
C725 C 0.66642 0.31285 0.23399 0.0
C726 C 0.76108 0.26385 0.29969 0.0
C727 C 0.92901 0.26382 0.30543 0.0
H728 H 0.03097 0.40161 0.38048 0.0
H729 H 0.13632 0.40085 0.25648 0.0
H730 H 0.09955 0.3822 0.39328 0.0
H731 H 0.06351 0.41834 0.24179 0.0
H732 H 0.76821 0.29203 0.22079 0.0
H733 H 0.62293 0.29582 0.28676 0.0
H734 H 0.71524 0.32286 0.18446 0.0
H735 H 0.67744 0.26538 0.3249 0.0
Eu736 Eu 0.1299 0.56249 0.58253 0.0
Eu737 Eu 0.1317 0.60883 0.50614 0.0
C738 C 0.09834 0.65372 0.60483 0.0
C739 C 0.07984 0.51353 0.66766 0.0
C740 C 0.05179 0.54286 0.66503 0.0
C741 C 0.03267 0.47995 0.71732 0.0
C742 C 1.01525 0.54211 0.69033 0.0
C743 C 0.06921 0.48036 0.69135 0.0
C744 C 1.00754 0.51269 0.71872 0.0
C745 C 0.11859 0.51723 0.64313 0.0
O746 O 0.20773 0.63185 0.53868 0.0
O747 O 0.20837 0.58495 0.58566 0.0
C748 C 0.23127 0.61337 0.56412 0.0
O749 O 0.15968 0.51702 0.52739 0.0
O750 O 0.14946 0.67617 0.49794 0.0
O751 O 0.11956 0.61525 0.43503 0.0
O752 O 0.15781 0.54964 0.46656 0.0
C753 C 0.1701 0.52036 0.48561 0.0
O754 O 0.05136 0.54885 0.55687 0.0
O755 O 0.05441 0.5793 0.49456 0.0
O756 O 0.09434 0.64671 0.55875 0.0
O757 O 0.10787 0.49763 0.59671 0.0
O758 O 0.14466 0.55914 0.65493 0.0
O759 O 0.1214 0.63167 0.62476 0.0
C760 C 0.17639 0.67347 0.42704 0.0
C761 C 0.20859 0.6477 0.4174 0.0
C762 C 0.20794 0.72117 0.38039 0.0
C763 C 0.2385 0.65669 0.38556 0.0
C764 C 0.1785 0.71244 0.41254 0.0
C765 C 0.23441 0.69034 0.36318 0.0
C766 C 0.13974 0.65937 0.45112 0.0
C767 C 0.02957 0.55999 0.52262 0.0
H768 H 0.05981 0.56845 0.64617 0.0
H769 H 0.02726 0.45772 0.74031 0.0
H770 H 0.99636 0.56803 0.69222 0.0
H771 H 0.09041 0.45689 0.69201 0.0
H772 H 0.20807 0.61861 0.4311 0.0
H773 H 0.20547 0.74808 0.36421 0.0
H774 H 0.25985 0.63326 0.37368 0.0
H775 H 0.15466 0.73348 0.42242 0.0
Eu776 Eu 0.83917 0.85918 0.29429 0.0
Eu777 Eu 0.9205 0.82799 0.28864 0.0
C778 C 0.83227 0.74824 0.2972 0.0
C779 C 0.74201 0.88867 0.3461 0.0
C780 C 0.74445 0.85929 0.37445 0.0
C781 C 0.69124 0.92221 0.3944 0.0
C782 C 0.71748 0.85938 0.411 0.0
C783 C 0.71751 0.92168 0.35741 0.0
C784 C 0.68968 0.88962 0.41947 0.0
C785 C 0.7669 0.88659 0.3062 0.0
O786 O 0.89133 0.80288 0.20823 0.0
O787 O 0.83212 0.83554 0.21326 0.0
C788 C 0.85693 0.81218 0.18693 0.0
O789 O 0.88445 0.92815 0.28638 0.0
O790 O 0.9574 0.77642 0.28359 0.0
O791 O 0.99306 0.84704 0.28964 0.0
O792 O 0.94817 0.90363 0.28374 0.0
C793 C 0.92838 0.93763 0.28355 0.0
O794 O 0.86466 0.87911 0.37411 0.0
O795 O 0.92546 0.84922 0.37085 0.0
O796 O 0.87543 0.75683 0.29076 0.0
O797 O 0.80686 0.91445 0.31796 0.0
O798 O 0.76634 0.84503 0.27994 0.0
O799 O 0.8129 0.78344 0.30097 0.0
C800 C 1.01895 0.78649 0.24354 0.0
C801 C 0.0308 0.80883 0.20866 0.0
C802 C 0.06657 0.73629 0.21767 0.0
C803 C 0.06363 0.79667 0.18042 0.0
C804 C 0.03402 0.74826 0.24549 0.0
C805 C 0.0841 0.76291 0.18822 0.0
C806 C 0.99515 0.80445 0.28191 0.0
C807 C 0.8983 0.87 0.39633 0.0
H808 H 0.76519 0.83478 0.36666 0.0
H809 H 0.66912 0.9452 0.40014 0.0
H810 H 0.71566 0.83364 0.42988 0.0
H811 H 0.71708 0.94542 0.33636 0.0
H812 H 1.01789 0.8379 0.20623 0.0
H813 H 0.08184 0.70988 0.22388 0.0
H814 H 0.0768 0.81752 0.15759 0.0
H815 H 0.02371 0.73019 0.27165 0.0
Eu816 Eu 0.90147 0.35047 0.74251 0.0
Eu817 Eu 0.84724 0.3278 0.82893 0.0
C818 C 0.80918 0.36917 0.75327 0.0
C819 C 0.93283 0.41334 0.66045 0.0
C820 C 0.90406 0.43826 0.68522 0.0
C821 C 0.93623 0.45579 0.60347 0.0
C822 C 0.88844 0.46915 0.66751 0.0
C823 C 0.95039 0.42314 0.62047 0.0
C824 C 0.90381 0.47701 0.62609 0.0
C825 C 0.93959 0.37457 0.67448 0.0
O826 O 0.86426 0.26616 0.77981 0.0
O827 O 0.85091 0.28476 0.71187 0.0
C828 C 0.85118 0.25375 0.73343 0.0
O829 O 0.94959 0.32855 0.7845 0.0
O830 O 0.79248 0.27906 0.84389 0.0
O831 O 0.8277 0.34099 0.90125 0.0
O832 O 0.9158 0.32575 0.85327 0.0
C833 C 0.95045 0.32685 0.82899 0.0
O834 O 0.90044 0.41597 0.79662 0.0
O835 O 0.89223 0.39684 0.86642 0.0
O836 O 0.79906 0.33914 0.77664 0.0
O837 O 0.96069 0.38551 0.71805 0.0
O838 O 0.90256 0.34157 0.6661 0.0
O839 O 0.8505 0.39049 0.75529 0.0
C840 C 0.81774 0.27143 0.91586 0.0
C841 C 0.84863 0.2463 0.89595 0.0
C842 C 0.82224 0.24714 0.98636 0.0
C843 C 0.86599 0.22116 0.92119 0.0
C844 C 0.80433 0.27175 0.96079 0.0
C845 C 0.85342 0.2226 0.96665 0.0
C846 C 0.80222 0.29921 0.89025 0.0
C847 C 0.9084 0.42571 0.84337 0.0
H848 H 0.89347 0.43398 0.71809 0.0
H849 H 0.94751 0.46148 0.57043 0.0
H850 H 0.86321 0.48532 0.68485 0.0
H851 H 0.97303 0.4043 0.60136 0.0
H852 H 0.85953 0.24635 0.86112 0.0
H853 H 0.81231 0.24774 0.02181 0.0
H854 H 0.89026 0.20223 0.90622 0.0
H855 H 0.78071 0.29136 0.97617 0.0
Eu856 Eu 0.90152 0.88328 0.829 0.0
Eu857 Eu 0.84169 0.77946 0.76192 0.0
C858 C 0.88256 0.85636 0.70855 0.0
C859 C 0.90776 0.99759 0.84277 0.0
C860 C 0.87497 0.97278 0.80301 0.0
C861 C 0.89478 0.06802 0.8334 0.0
C862 C 0.85101 0.99456 0.77978 0.0
C863 C 0.91797 0.04553 0.85809 0.0
C864 C 0.86115 0.04206 0.79464 0.0
C865 C 0.92925 0.97094 0.86647 0.0
O866 O 0.91143 0.79002 0.74531 0.0
O867 O 0.95424 0.84353 0.81284 0.0
C868 C 0.94969 0.81147 0.77131 0.0
O869 O 0.88292 0.84825 0.88678 0.0
O870 O 0.83751 0.71819 0.70112 0.0
O871 O 0.79084 0.71512 0.75336 0.0
O872 O 0.86668 0.77429 0.83634 0.0
C873 C 0.86993 0.80358 0.88003 0.0
O874 O 0.82839 0.87798 0.81344 0.0
O875 O 0.79119 0.80589 0.80536 0.0
O876 O 0.84828 0.82066 0.7065 0.0
O877 O 0.90125 0.94557 0.88629 0.0
O878 O 0.95327 0.94718 0.83917 0.0
O879 O 0.90674 0.88151 0.75008 0.0
C880 C 0.83811 0.66581 0.74358 0.0
C881 C 0.88096 0.6894 0.76909 0.0
C882 C 0.8415 0.60194 0.77358 0.0
C883 C 0.90317 0.67081 0.79789 0.0
C884 C 0.81842 0.62162 0.74535 0.0
C885 C 0.88345 0.62728 0.80107 0.0
C886 C 0.81319 0.69214 0.72299 0.0
C887 C 0.79848 0.84937 0.82742 0.0
H888 H 0.86819 0.93639 0.78894 0.0
H889 H 0.9023 0.10529 0.84496 0.0
H890 H 0.82533 0.9744 0.74968 0.0
H891 H 0.94333 0.06514 0.88852 0.0
H892 H 0.89714 0.72321 0.76829 0.0
H893 H 0.82632 0.56737 0.77443 0.0
H894 H 0.93588 0.69071 0.81742 0.0
H895 H 0.78528 0.6031 0.72617 0.0
Eu896 Eu 0.65146 0.63903 0.56612 0.0
Eu897 Eu 0.60526 0.54238 0.5275 0.0
C898 C 0.66134 0.58733 0.44867 0.0
C899 C 0.64766 0.75098 0.57613 0.0
C900 C 0.618 0.72862 0.53321 0.0
C901 C 0.61187 0.81375 0.59196 0.0
C902 C 0.58606 0.74868 0.51945 0.0
C903 C 0.64362 0.79279 0.60644 0.0
C904 C 0.5837 0.79206 0.54778 0.0
C905 C 0.67907 0.72694 0.58972 0.0
O906 O 0.68071 0.53808 0.54273 0.0
O907 O 0.71779 0.6127 0.56192 0.0
C908 C 0.71979 0.56912 0.54777 0.0
O909 O 0.62643 0.62998 0.64012 0.0
O910 O 0.58912 0.47474 0.47286 0.0
O911 O 0.56394 0.48253 0.54197 0.0
O912 O 0.57746 0.56181 0.60447 0.0
C913 C 0.59058 0.59819 0.64387 0.0
O914 O 0.57453 0.64146 0.55851 0.0
O915 O 0.54015 0.56698 0.52035 0.0
O916 O 0.63611 0.54955 0.45563 0.0
O917 O 0.66677 0.70611 0.6217 0.0
O918 O 0.69157 0.70022 0.55284 0.0
O919 O 0.66406 0.62609 0.48403 0.0
C920 C 0.6083 0.43229 0.52114 0.0
C921 C 0.63522 0.45493 0.56589 0.0
C922 C 0.64849 0.3731 0.50668 0.0
C923 C 0.66779 0.43672 0.58115 0.0
C924 C 0.61609 0.39235 0.49056 0.0
C925 C 0.67308 0.39474 0.55276 0.0
C926 C 0.57677 0.45514 0.50586 0.0
C927 C 0.5363 0.60883 0.54234 0.0
H928 H 0.61955 0.69542 0.50969 0.0
H929 H 0.6108 0.84767 0.61405 0.0
H930 H 0.5652 0.73116 0.48508 0.0
H931 H 0.66548 0.8095 0.64025 0.0
H932 H 0.63124 0.48706 0.58967 0.0
H933 H 0.65242 0.34028 0.48455 0.0
H934 H 0.68689 0.45423 0.61654 0.0
H935 H 0.59663 0.37577 0.45532 0.0
Eu936 Eu 0.18428 0.56709 0.0147 0.0
Eu937 Eu 0.09988 0.603 0.0869 0.0
C938 C 0.17182 0.57223 0.13079 0.0
C939 C 0.26347 0.49572 1.00068 0.0
C940 C 0.25576 0.49128 0.04652 0.0
C941 C 0.30809 0.44092 0.98987 0.0
C942 C 0.27838 0.46538 0.06603 0.0
C943 C 0.28859 0.46976 0.97182 0.0
C944 C 0.30572 0.44142 0.03808 0.0
C945 C 0.24671 0.52878 0.98401 0.0
O946 O 0.15149 0.6613 0.07491 0.0
O947 O 0.21656 0.63888 0.05121 0.0
C948 C 0.1948 0.66953 0.06954 0.0
O949 O 0.13943 0.58386 0.96519 0.0
O950 O 0.08111 0.65947 0.13582 0.0
O951 O 0.03083 0.59445 0.10281 0.0
O952 O 0.07961 0.5978 1.00963 0.0
C953 C 0.09921 0.59177 0.96984 0.0
O954 O 0.13687 0.51436 0.03771 0.0
O955 O 0.06879 0.53148 0.04397 0.0
O956 O 0.13707 0.58594 0.14568 0.0
O957 O 0.20509 0.51401 0.96292 0.0
O958 O 0.25539 0.56952 0.01596 0.0
O959 O 0.17644 0.57031 0.08721 0.0
C960 C 1.00905 0.66175 0.11235 0.0
C961 C 1.00951 0.66899 0.06669 0.0
C962 C 0.94627 0.69447 0.12732 0.0
C963 C 0.9761 0.68678 0.05019 0.0
C964 C 0.97819 0.67519 0.1428 0.0
C965 C 0.94328 0.69737 0.07991 0.0
C966 C 0.03859 0.63768 0.12784 0.0
C967 C 0.09336 0.50401 0.02525 0.0
H968 H 0.23417 0.50971 0.0678 0.0
H969 H 0.3267 0.42002 0.96696 0.0
H970 H 0.27597 0.46545 0.10319 0.0
H971 H 0.29356 0.47221 0.93584 0.0
H972 H 0.03398 0.65869 0.04313 0.0
H973 H 0.92129 0.7033 0.15099 0.0
H974 H 0.97385 0.68872 0.01346 0.0
H975 H 0.97763 0.66917 0.17783 0.0
loop_
_geom_bond_atom_site_label_1
_geom_bond_atom_site_label_2
_geom_bond_distance
_geom_bond_site_symmetry_2
_ccdc_geom_bond_type
C0 O1 1.306 . S
C0 O3 1.160 . S
O1 C0 1.306 . S
O1 Cd2 2.228 . S
Cd2 O1 2.228 . S
Cd2 O6 2.273 . S
Cd2 O10 2.277 . S
O3 C0 1.160 . S
O3 Cd4 2.203 . S
Cd4 O3 2.203 . S
Cd4 O6 2.411 . S
Cd4 O7 2.333 . S
Cd4 O8 2.352 . S
Cd4 O12 2.277 . S
Cd4 O13 2.356 . S
C5 O10 1.209 . S
C5 O12 1.226 . S
O6 Cd2 2.273 . S
O6 Cd4 2.411 . S
O6 C9 1.320 . S
O7 Cd4 2.333 . S
O7 C9 1.214 . S
O8 Cd4 2.352 . S
O8 C11 1.258 . S
C9 O6 1.320 . S
C9 O7 1.214 . S
O10 Cd2 2.277 . S
O10 C5 1.209 . S
C11 O8 1.258 . S
C11 O13 1.282 . S
O12 Cd4 2.277 . S
O12 C5 1.226 . S
O13 Cd4 2.356 . S
O13 C11 1.282 . S
C14 O15 1.306 . S
C14 O17 1.160 . S
O15 C14 1.306 . S
O15 Cd16 2.228 1_655 S
Cd16 O15 2.228 1_455 S
Cd16 O20 2.273 . S
Cd16 O24 2.277 1_455 S
O17 C14 1.160 . S
O17 Cd18 2.203 1_655 S
Cd18 O17 2.203 1_455 S
Cd18 O20 2.411 . S
Cd18 O21 2.333 . S
Cd18 O22 2.352 . S
Cd18 O26 2.277 1_455 S
Cd18 O27 2.356 . S
C19 O24 1.209 . S
C19 O26 1.226 . S
O20 Cd16 2.273 . S
O20 Cd18 2.411 . S
O20 C23 1.320 . S
O21 Cd18 2.333 . S
O21 C23 1.214 . S
O22 Cd18 2.352 . S
O22 C25 1.258 . S
C23 O20 1.320 . S
C23 O21 1.214 . S
O24 Cd16 2.277 1_655 S
O24 C19 1.209 . S
C25 O22 1.258 . S
C25 O27 1.282 . S
O26 Cd18 2.277 1_655 S
O26 C19 1.226 . S
O27 Cd18 2.356 . S
O27 C25 1.282 . S
C28 O29 1.306 . S
C28 O31 1.160 . S
O29 C28 1.306 . S
O29 Cd30 2.228 . S
Cd30 O29 2.228 . S
Cd30 O34 2.273 . S
Cd30 O38 2.277 . S
O31 C28 1.160 . S
O31 Cd32 2.203 . S
Cd32 O31 2.203 . S
Cd32 O34 2.411 . S
Cd32 O35 2.333 . S
Cd32 O36 2.352 . S
Cd32 O40 2.277 1_556 S
Cd32 O41 2.356 1_556 S
C33 O38 1.210 1_545 S
C33 O40 1.207 1_546 S
O34 Cd30 2.273 . S
O34 Cd32 2.411 . S
O34 C37 1.320 . S
O35 Cd32 2.333 . S
O35 C37 1.214 . S
O36 Cd32 2.352 . S
O36 C39 1.258 . S
C37 O34 1.320 . S
C37 O35 1.214 . S
O38 Cd30 2.277 . S
O38 C33 1.210 1_565 S
C39 O36 1.258 . S
C39 O41 1.282 1_556 S
O40 Cd32 2.277 1_554 S
O40 C33 1.207 1_564 S
O41 Cd32 2.356 1_554 S
O41 C39 1.282 1_554 S
C42 O43 1.306 . S
C42 O45 1.160 . S
O43 C42 1.306 . S
O43 Cd44 2.228 . S
Cd44 O43 2.228 . S
Cd44 O48 2.273 . S
Cd44 O52 2.277 . S
O45 C42 1.160 . S
O45 Cd46 2.203 . S
Cd46 O45 2.203 . S
Cd46 O48 2.411 . S
Cd46 O49 2.333 . S
Cd46 O50 2.352 . S
Cd46 O54 2.277 . S
Cd46 O55 2.356 . S
C47 O52 1.209 . S
C47 O54 1.226 . S
O48 Cd44 2.273 . S
O48 Cd46 2.411 . S
O48 C51 1.320 . S
O49 Cd46 2.333 . S
O49 C51 1.214 . S
O50 Cd46 2.352 . S
O50 C53 1.258 . S
C51 O48 1.320 . S
C51 O49 1.214 . S
O52 Cd44 2.277 . S
O52 C47 1.209 . S
C53 O50 1.258 . S
C53 O55 1.282 . S
O54 Cd46 2.277 . S
O54 C47 1.226 . S
O55 Cd46 2.356 . S
O55 C53 1.282 . S
C56 O57 1.306 . S
C56 O59 1.160 . S
O57 C56 1.306 . S
O57 Cd58 2.228 . S
Cd58 O57 2.228 . S
Cd58 O62 2.273 . S
Cd58 O66 2.277 . S
O59 C56 1.160 . S
O59 Cd60 2.203 . S
Cd60 O59 2.203 . S
Cd60 O62 2.411 . S
Cd60 O63 2.333 . S
Cd60 O64 2.352 . S
Cd60 O68 2.277 . S
Cd60 O69 2.356 . S
C61 O66 1.209 . S
C61 O68 1.226 . S
O62 Cd58 2.273 . S
O62 Cd60 2.411 . S
O62 C65 1.320 . S
O63 Cd60 2.333 . S
O63 C65 1.214 . S
O64 Cd60 2.352 . S
O64 C67 1.258 . S
C65 O62 1.320 . S
C65 O63 1.214 . S
O66 Cd58 2.277 . S
O66 C61 1.209 . S
C67 O64 1.258 . S
C67 O69 1.282 . S
O68 Cd60 2.277 . S
O68 C61 1.226 . S
O69 Cd60 2.356 . S
O69 C67 1.282 . S
C70 O71 1.306 . S
C70 O73 1.160 . S
O71 C70 1.306 . S
O71 Cd72 2.228 . S
Cd72 O71 2.228 . S
Cd72 O76 2.273 . S
Cd72 O80 2.277 . S
O73 C70 1.160 . S
O73 Cd74 2.203 . S
Cd74 O73 2.203 . S
Cd74 O76 2.411 . S
Cd74 O77 2.333 . S
Cd74 O78 2.352 . S
Cd74 O82 2.277 . S
Cd74 O83 2.356 . S
C75 O80 1.209 . S
C75 O82 1.226 . S
O76 Cd72 2.273 . S
O76 Cd74 2.411 . S
O76 C79 1.320 . S
O77 Cd74 2.333 . S
O77 C79 1.214 . S
O78 Cd74 2.352 . S
O78 C81 1.258 . S
C79 O76 1.320 . S
C79 O77 1.214 . S
O80 Cd72 2.277 . S
O80 C75 1.209 . S
C81 O78 1.258 . S
C81 O83 1.282 . S
O82 Cd74 2.277 . S
O82 C75 1.226 . S
O83 Cd74 2.356 . S
O83 C81 1.282 . S
C84 O85 1.306 . S
C84 O87 1.160 . S
O85 C84 1.306 . S
O85 Cd86 2.228 . S
Cd86 O85 2.228 . S
Cd86 O90 2.273 . S
Cd86 O94 2.277 . S
O87 C84 1.160 . S
O87 Cd88 2.203 . S
Cd88 O87 2.203 . S
Cd88 O90 2.411 . S
Cd88 O91 2.333 . S
Cd88 O92 2.352 . S
Cd88 O96 2.277 . S
Cd88 O97 2.356 . S
C89 O94 1.209 . S
C89 O96 1.226 . S
O90 Cd86 2.273 . S
O90 Cd88 2.411 . S
O90 C93 1.320 . S
O91 Cd88 2.333 . S
O91 C93 1.214 . S
O92 Cd88 2.352 . S
O92 C95 1.258 . S
C93 O90 1.320 . S
C93 O91 1.214 . S
O94 Cd86 2.277 . S
O94 C89 1.209 . S
C95 O92 1.258 . S
C95 O97 1.282 . S
O96 Cd88 2.277 . S
O96 C89 1.226 . S
O97 Cd88 2.356 . S
O97 C95 1.282 . S
C98 O99 1.306 . S
C98 O101 1.160 . S
O99 C98 1.306 . S
O99 Cd100 2.228 1_655 S
Cd100 O99 2.228 1_455 S
Cd100 O104 2.273 . S
Cd100 O108 2.277 . S
O101 C98 1.160 . S
O101 Cd102 2.203 1_655 S
Cd102 O101 2.203 1_455 S
Cd102 O104 2.411 . S
Cd102 O105 2.333 . S
Cd102 O106 2.352 . S
Cd102 O110 2.277 1_556 S
Cd102 O111 2.356 1_556 S
C103 O108 1.209 . S
C103 O110 1.226 1_556 S
O104 Cd100 2.273 . S
O104 Cd102 2.411 . S
O104 C107 1.320 . S
O105 Cd102 2.333 . S
O105 C107 1.214 . S
O106 Cd102 2.352 . S
O106 C109 1.258 . S
C107 O104 1.320 . S
C107 O105 1.214 . S
O108 Cd100 2.277 . S
O108 C103 1.209 . S
C109 O106 1.258 . S
C109 O111 1.282 1_556 S
O110 Cd102 2.277 1_554 S
O110 C103 1.226 1_554 S
O111 Cd102 2.356 1_554 S
O111 C109 1.282 1_554 S
C112 O113 1.306 1_545 S
C112 O115 1.160 . S
O113 C112 1.306 1_565 S
O113 Cd114 2.228 . S
Cd114 O113 2.228 . S
Cd114 O118 2.252 1_565 S
Cd114 O122 2.277 . S
O115 C112 1.160 . S
O115 Cd116 2.203 . S
Cd116 O115 2.203 . S
Cd116 O118 2.414 . S
Cd116 O119 2.333 1_545 S
Cd116 O120 2.352 . S
Cd116 O124 2.277 1_545 S
Cd116 O125 2.356 . S
C117 O122 1.209 . S
C117 O124 1.226 . S
O118 Cd114 2.252 1_545 S
O118 Cd116 2.414 . S
O118 C121 1.326 1_545 S
O119 Cd116 2.333 1_565 S
O119 C121 1.214 . S
O120 Cd116 2.352 . S
O120 C123 1.258 . S
C121 O118 1.326 1_565 S
C121 O119 1.214 . S
O122 Cd114 2.277 . S
O122 C117 1.209 . S
C123 O120 1.258 . S
C123 O125 1.282 . S
O124 Cd116 2.277 1_565 S
O124 C117 1.226 . S
O125 Cd116 2.356 . S
O125 C123 1.282 . S
C126 O127 1.306 . S
C126 O129 1.160 . S
O127 C126 1.306 . S
O127 Cd128 2.228 . S
Cd128 O127 2.228 . S
Cd128 O132 2.273 . S
Cd128 O136 2.277 . S
O129 C126 1.160 . S
O129 Cd130 2.203 . S
Cd130 O129 2.203 . S
Cd130 O132 2.411 . S
Cd130 O133 2.333 . S
Cd130 O134 2.352 . S
Cd130 O138 2.277 . S
Cd130 O139 2.356 . S
C131 O136 1.209 . S
C131 O138 1.226 . S
O132 Cd128 2.273 . S
O132 Cd130 2.411 . S
O132 C135 1.320 . S
O133 Cd130 2.333 . S
O133 C135 1.214 . S
O134 Cd130 2.352 . S
O134 C137 1.258 . S
C135 O132 1.320 . S
C135 O133 1.214 . S
O136 Cd128 2.277 . S
O136 C131 1.209 . S
C137 O134 1.258 . S
C137 O139 1.282 . S
O138 Cd130 2.277 . S
O138 C131 1.226 . S
O139 Cd130 2.356 . S
O139 C137 1.282 . S
C140 O141 1.306 . S
C140 O143 1.160 . S
O141 C140 1.306 . S
O141 Cd142 2.228 . S
Cd142 O141 2.228 . S
Cd142 O146 2.273 . S
Cd142 O150 2.277 . S
O143 C140 1.160 . S
O143 Cd144 2.203 . S
Cd144 O143 2.203 . S
Cd144 O146 2.411 . S
Cd144 O147 2.333 . S
Cd144 O148 2.352 1_545 S
Cd144 O152 2.277 . S
Cd144 O153 2.356 1_545 S
C145 O150 1.209 . S
C145 O152 1.226 . S
O146 Cd142 2.273 . S
O146 Cd144 2.411 . S
O146 C149 1.320 . S
O147 Cd144 2.333 . S
O147 C149 1.214 . S
O148 Cd144 2.352 1_565 S
O148 C151 1.258 . S
C149 O146 1.320 . S
C149 O147 1.214 . S
O150 Cd142 2.277 . S
O150 C145 1.209 . S
C151 O148 1.258 . S
C151 O153 1.282 . S
O152 Cd144 2.277 . S
O152 C145 1.226 . S
O153 Cd144 2.356 1_565 S
O153 C151 1.282 . S
C154 O155 1.306 1_554 S
C154 O157 1.160 . S
O155 C154 1.306 1_556 S
O155 Cd156 2.228 . S
Cd156 O155 2.228 . S
Cd156 O160 2.273 1_556 S
Cd156 O164 2.277 1_545 S
O157 C154 1.160 . S
O157 Cd158 2.203 1_545 S
Cd158 O157 2.203 1_565 S
Cd158 O160 2.411 1_565 S
Cd158 O161 2.333 1_554 S
Cd158 O162 2.352 1_565 S
Cd158 O166 2.277 1_554 S
Cd158 O167 2.356 . S
C159 O164 1.209 . S
C159 O166 1.226 . S
O160 Cd156 2.273 1_554 S
O160 Cd158 2.411 1_545 S
O160 C163 1.320 . S
O161 Cd158 2.333 1_556 S
O161 C163 1.219 1_566 S
O162 Cd158 2.352 1_545 S
O162 C165 1.258 1_545 S
C163 O160 1.320 . S
C163 O161 1.219 1_544 S
O164 Cd156 2.277 1_565 S
O164 C159 1.209 . S
C165 O162 1.258 1_565 S
C165 O167 1.282 . S
O166 Cd158 2.277 1_556 S
O166 C159 1.226 . S
O167 Cd158 2.356 . S
O167 C165 1.282 . S
C168 O169 1.306 . S
C168 O171 1.160 . S
O169 C168 1.306 . S
O169 Cd170 2.228 1_554 S
Cd170 O169 2.228 1_556 S
Cd170 O174 2.273 1_556 S
Cd170 O178 2.277 . S
O171 C168 1.160 . S
O171 Cd172 2.203 . S
Cd172 O171 2.203 . S
Cd172 O174 2.411 . S
Cd172 O175 2.333 . S
Cd172 O176 2.352 . S
Cd172 O180 2.277 1_554 S
Cd172 O181 2.356 . S
C173 O178 1.209 . S
C173 O180 1.226 . S
O174 Cd170 2.273 1_554 S
O174 Cd172 2.411 . S
O174 C177 1.320 . S
O175 Cd172 2.333 . S
O175 C177 1.214 . S
O176 Cd172 2.352 . S
O176 C179 1.258 . S
C177 O174 1.320 . S
C177 O175 1.214 . S
O178 Cd170 2.277 . S
O178 C173 1.209 . S
C179 O176 1.258 . S
C179 O181 1.282 . S
O180 Cd172 2.277 1_556 S
O180 C173 1.226 . S
O181 Cd172 2.356 . S
O181 C179 1.282 . S
C182 O183 1.306 . S
C182 O185 1.160 . S
O183 C182 1.306 . S
O183 Cd184 2.228 . S
Cd184 O183 2.228 . S
Cd184 O188 2.273 . S
Cd184 O192 2.277 . S
O185 C182 1.160 . S
O185 Cd186 2.203 . S
Cd186 O185 2.203 . S
Cd186 O188 2.411 . S
Cd186 O189 2.333 . S
Cd186 O190 2.352 1_554 S
Cd186 O194 2.277 . S
Cd186 O195 2.356 . S
C187 O192 1.209 . S
C187 O194 1.226 . S
O188 Cd184 2.273 . S
O188 Cd186 2.411 . S
O188 C191 1.320 . S
O189 Cd186 2.333 . S
O189 C191 1.214 . S
O190 Cd186 2.352 1_556 S
O190 C193 1.258 . S
C191 O188 1.320 . S
C191 O189 1.214 . S
O192 Cd184 2.277 . S
O192 C187 1.209 . S
C193 O190 1.258 . S
C193 O195 1.282 1_556 S
O194 Cd186 2.277 . S
O194 C187 1.226 . S
O195 Cd186 2.356 . S
O195 C193 1.282 1_554 S
C196 O197 1.306 . S
C196 O199 1.160 . S
O197 C196 1.306 . S
O197 Cd198 2.228 . S
Cd198 O197 2.228 . S
Cd198 O202 2.273 . S
Cd198 O206 2.277 . S
O199 C196 1.160 . S
O199 Cd200 2.203 . S
Cd200 O199 2.203 . S
Cd200 O202 2.411 . S
Cd200 O203 2.333 . S
Cd200 O204 2.352 . S
Cd200 O208 2.277 . S
Cd200 O209 2.356 . S
C201 O206 1.209 . S
C201 O208 1.226 . S
O202 Cd198 2.273 . S
O202 Cd200 2.411 . S
O202 C205 1.320 . S
O203 Cd200 2.333 . S
O203 C205 1.214 . S
O204 Cd200 2.352 . S
O204 C207 1.258 . S
C205 O202 1.320 . S
C205 O203 1.214 . S
O206 Cd198 2.277 . S
O206 C201 1.209 . S
C207 O204 1.258 . S
C207 O209 1.282 . S
O208 Cd200 2.277 . S
O208 C201 1.226 . S
O209 Cd200 2.356 . S
O209 C207 1.282 . S
C210 O211 1.306 . S
C210 O213 1.160 . S
O211 C210 1.306 . S
O211 Cd212 2.228 . S
Cd212 O211 2.228 . S
Cd212 O216 2.273 . S
Cd212 O220 2.277 . S
O213 C210 1.160 . S
O213 Cd214 2.203 . S
Cd214 O213 2.203 . S
Cd214 O216 2.411 . S
Cd214 O217 2.333 . S
Cd214 O218 2.352 . S
Cd214 O222 2.277 . S
Cd214 O223 2.356 . S
C215 O220 1.209 . S
C215 O222 1.226 . S
O216 Cd212 2.273 . S
O216 Cd214 2.411 . S
O216 C219 1.320 . S
O217 Cd214 2.333 . S
O217 C219 1.214 . S
O218 Cd214 2.352 . S
O218 C221 1.258 . S
C219 O216 1.320 . S
C219 O217 1.214 . S
O220 Cd212 2.277 . S
O220 C215 1.209 . S
C221 O218 1.258 . S
C221 O223 1.282 . S
O222 Cd214 2.277 . S
O222 C215 1.226 . S
O223 Cd214 2.356 . S
O223 C221 1.282 . S
C224 O225 1.306 . S
C224 O227 1.160 . S
O225 C224 1.306 . S
O225 Cd226 2.228 . S
Cd226 O225 2.228 . S
Cd226 O230 2.273 . S
Cd226 O234 2.277 1_455 S
O227 C224 1.160 . S
O227 Cd228 2.203 1_455 S
Cd228 O227 2.203 1_655 S
Cd228 O230 2.411 1_655 S
Cd228 O231 2.333 . S
Cd228 O232 2.352 . S
Cd228 O236 2.277 . S
Cd228 O237 2.356 . S
C229 O234 1.209 1_565 S
C229 O236 1.226 1_565 S
O230 Cd226 2.273 . S
O230 Cd228 2.411 1_455 S
O230 C233 1.320 . S
O231 Cd228 2.333 . S
O231 C233 1.214 1_655 S
O232 Cd228 2.352 . S
O232 C235 1.258 . S
C233 O230 1.320 . S
C233 O231 1.214 1_455 S
O234 Cd226 2.277 1_655 S
O234 C229 1.209 1_545 S
C235 O232 1.258 . S
C235 O237 1.282 . S
O236 Cd228 2.277 . S
O236 C229 1.226 1_545 S
O237 Cd228 2.356 . S
O237 C235 1.282 . S
C238 O239 1.306 . S
C238 O241 1.160 . S
O239 C238 1.306 . S
O239 Cd240 2.228 . S
Cd240 O239 2.228 . S
Cd240 O244 2.273 . S
Cd240 O248 2.277 . S
O241 C238 1.160 . S
O241 Cd242 2.203 . S
Cd242 O241 2.203 . S
Cd242 O244 2.411 . S
Cd242 O245 2.333 . S
Cd242 O246 2.352 . S
Cd242 O250 2.277 . S
Cd242 O251 2.356 . S
C243 O248 1.209 . S
C243 O250 1.226 . S
O244 Cd240 2.273 . S
O244 Cd242 2.411 . S
O244 C247 1.320 . S
O245 Cd242 2.333 . S
O245 C247 1.214 . S
O246 Cd242 2.352 . S
O246 C249 1.258 . S
C247 O244 1.320 . S
C247 O245 1.214 . S
O248 Cd240 2.277 . S
O248 C243 1.209 . S
C249 O246 1.258 . S
C249 O251 1.282 . S
O250 Cd242 2.277 . S
O250 C243 1.226 . S
O251 Cd242 2.356 . S
O251 C249 1.282 . S
C252 O253 1.306 . S
C252 O255 1.160 . S
O253 C252 1.306 . S
O253 Cd254 2.228 . S
Cd254 O253 2.228 . S
Cd254 O258 2.273 . S
Cd254 O262 2.277 . S
O255 C252 1.160 . S
O255 Cd256 2.203 . S
Cd256 O255 2.203 . S
Cd256 O258 2.411 . S
Cd256 O259 2.333 . S
Cd256 O260 2.352 . S
Cd256 O264 2.277 . S
Cd256 O265 2.356 . S
C257 O262 1.209 . S
C257 O264 1.226 . S
O258 Cd254 2.273 . S
O258 Cd256 2.411 . S
O258 C261 1.320 . S
O259 Cd256 2.333 . S
O259 C261 1.214 . S
O260 Cd256 2.352 . S
O260 C263 1.258 . S
C261 O258 1.320 . S
C261 O259 1.214 . S
O262 Cd254 2.277 . S
O262 C257 1.209 . S
C263 O260 1.258 . S
C263 O265 1.282 . S
O264 Cd256 2.277 . S
O264 C257 1.226 . S
O265 Cd256 2.356 . S
O265 C263 1.282 . S
C266 O267 1.306 . S
C266 O269 1.160 . S
O267 C266 1.306 . S
O267 Cd268 2.228 . S
Cd268 O267 2.228 . S
Cd268 O272 2.273 . S
Cd268 O276 2.277 . S
O269 C266 1.160 . S
O269 Cd270 2.203 . S
Cd270 O269 2.203 . S
Cd270 O272 2.411 . S
Cd270 O273 2.333 . S
Cd270 O274 2.352 . S
Cd270 O278 2.277 . S
Cd270 O279 2.356 . S
C271 O276 1.209 . S
C271 O278 1.226 . S
O272 Cd268 2.273 . S
O272 Cd270 2.411 . S
O272 C275 1.320 . S
O273 Cd270 2.333 . S
O273 C275 1.214 . S
O274 Cd270 2.352 . S
O274 C277 1.258 . S
C275 O272 1.320 . S
C275 O273 1.214 . S
O276 Cd268 2.277 . S
O276 C271 1.209 . S
C277 O274 1.258 . S
C277 O279 1.282 . S
O278 Cd270 2.277 . S
O278 C271 1.226 . S
O279 Cd270 2.356 . S
O279 C277 1.282 . S
C280 O281 1.306 . S
C280 O283 1.160 . S
O281 C280 1.306 . S
O281 Cd282 2.228 . S
Cd282 O281 2.228 . S
Cd282 O286 2.273 . S
Cd282 O290 2.277 . S
O283 C280 1.160 . S
O283 Cd284 2.203 . S
Cd284 O283 2.203 . S
Cd284 O286 2.411 . S
Cd284 O287 2.333 . S
Cd284 O288 2.352 1_554 S
Cd284 O292 2.277 . S
Cd284 O293 2.356 1_554 S
C285 O290 1.209 . S
C285 O292 1.226 . S
O286 Cd282 2.273 . S
O286 Cd284 2.411 . S
O286 C289 1.320 . S
O287 Cd284 2.333 . S
O287 C289 1.214 . S
O288 Cd284 2.352 1_556 S
O288 C291 1.258 . S
C289 O286 1.320 . S
C289 O287 1.214 . S
O290 Cd282 2.277 . S
O290 C285 1.209 . S
C291 O288 1.258 . S
C291 O293 1.282 . S
O292 Cd284 2.277 . S
O292 C285 1.226 . S
O293 Cd284 2.356 1_556 S
O293 C291 1.282 . S
C294 O295 1.306 . S
C294 O297 1.160 1_455 S
O295 C294 1.306 . S
O295 Cd296 2.228 . S
Cd296 O295 2.228 . S
Cd296 O300 2.273 . S
Cd296 O304 2.277 1_455 S
O297 C294 1.160 1_655 S
O297 Cd298 2.203 . S
Cd298 O297 2.203 . S
Cd298 O300 2.411 1_655 S
Cd298 O301 2.333 . S
Cd298 O302 2.352 . S
Cd298 O306 2.277 . S
Cd298 O307 2.356 . S
C299 O304 1.209 . S
C299 O306 1.226 . S
O300 Cd296 2.273 . S
O300 Cd298 2.411 1_455 S
O300 C303 1.320 . S
O301 Cd298 2.333 . S
O301 C303 1.214 1_655 S
O302 Cd298 2.352 . S
O302 C305 1.258 . S
C303 O300 1.320 . S
C303 O301 1.214 1_455 S
O304 Cd296 2.277 1_655 S
O304 C299 1.209 . S
C305 O302 1.258 . S
C305 O307 1.282 . S
O306 Cd298 2.277 . S
O306 C299 1.226 . S
O307 Cd298 2.356 . S
O307 C305 1.282 . S
C308 O309 1.306 . S
C308 O311 1.160 . S
O309 C308 1.306 . S
O309 Cd310 2.228 . S
Cd310 O309 2.228 . S
Cd310 O314 2.273 . S
Cd310 O318 2.277 . S
O311 C308 1.160 . S
O311 Cd312 2.203 . S
Cd312 O311 2.203 . S
Cd312 O314 2.411 . S
Cd312 O315 2.333 . S
Cd312 O316 2.352 . S
Cd312 O320 2.277 . S
Cd312 O321 2.356 . S
C313 O318 1.209 . S
C313 O320 1.226 . S
O314 Cd310 2.273 . S
O314 Cd312 2.411 . S
O314 C317 1.320 . S
O315 Cd312 2.333 . S
O315 C317 1.214 . S
O316 Cd312 2.352 . S
O316 C319 1.258 . S
C317 O314 1.320 . S
C317 O315 1.214 . S
O318 Cd310 2.277 . S
O318 C313 1.209 . S
C319 O316 1.258 . S
C319 O321 1.282 . S
O320 Cd312 2.277 . S
O320 C313 1.226 . S
O321 Cd312 2.356 . S
O321 C319 1.282 . S
C322 O323 1.306 . S
C322 O325 1.160 . S
O323 C322 1.306 . S
O323 Cd324 2.228 . S
Cd324 O323 2.228 . S
Cd324 O328 2.273 . S
Cd324 O332 2.277 . S
O325 C322 1.160 . S
O325 Cd326 2.203 . S
Cd326 O325 2.203 . S
Cd326 O328 2.411 . S
Cd326 O329 2.333 . S
Cd326 O330 2.352 . S
Cd326 O334 2.277 . S
Cd326 O335 2.356 . S
C327 O332 1.209 . S
C327 O334 1.226 . S
O328 Cd324 2.273 . S
O328 Cd326 2.411 . S
O328 C331 1.320 . S
O329 Cd326 2.333 . S
O329 C331 1.214 . S
O330 Cd326 2.352 . S
O330 C333 1.258 . S
C331 O328 1.320 . S
C331 O329 1.214 . S
O332 Cd324 2.277 . S
O332 C327 1.209 . S
C333 O330 1.258 . S
C333 O335 1.282 . S
O334 Cd326 2.277 . S
O334 C327 1.226 . S
O335 Cd326 2.356 . S
O335 C333 1.282 . S
Eu336 C345 2.828 . S
Eu336 O347 2.392 . S
Eu336 O349 2.418 . S
Eu336 O354 2.373 . S
Eu336 O357 2.488 . S
Eu336 O358 2.471 . S
Eu336 O359 2.349 1_554 S
Eu337 O346 2.373 1_565 S
Eu337 O350 2.488 1_554 S
Eu337 O351 2.471 . S
Eu337 O352 2.349 1_565 S
Eu337 O355 2.386 1_564 S
Eu337 O356 2.418 1_554 S
Eu337 C366 2.828 . S
C338 O356 1.244 1_545 S
C338 O359 1.265 . S
C339 C340 1.379 1_554 S
C339 C343 1.373 . S
C339 C345 1.505 . S
C340 C339 1.379 1_556 S
C340 C342 1.369 . S
C340 H368 0.930 . S
C341 C343 1.383 . S
C341 C344 1.382 . S
C341 H369 0.930 . S
C342 C340 1.369 . S
C342 C344 1.392 1_556 S
C342 H370 0.930 . S
C343 C339 1.373 . S
C343 C341 1.383 . S
C343 H371 0.931 . S
C344 C341 1.382 . S
C344 C342 1.392 1_554 S
C345 Eu336 2.828 . S
C345 C339 1.505 . S
C345 O357 1.249 . S
C345 O358 1.244 . S
O346 Eu337 2.373 1_545 S
O346 C348 1.258 . S
O347 Eu336 2.392 . S
O347 C348 1.242 . S
C348 O346 1.258 . S
C348 O347 1.242 . S
O349 Eu336 2.418 . S
O349 C353 1.244 . S
O350 Eu337 2.488 1_556 S
O350 C366 1.249 1_556 S
O351 Eu337 2.471 . S
O351 C366 1.244 . S
O352 Eu337 2.349 1_545 S
O352 C353 1.265 . S
C353 O349 1.244 . S
C353 O352 1.265 . S
O354 Eu336 2.373 . S
O354 C367 1.258 . S
O355 Eu337 2.386 1_546 S
O355 C367 1.242 1_556 S
O356 Eu337 2.418 1_556 S
O356 C338 1.244 1_565 S
O357 Eu336 2.488 . S
O357 C345 1.249 . S
O358 Eu336 2.471 . S
O358 C345 1.244 . S
O359 Eu336 2.349 1_556 S
O359 C338 1.265 . S
C360 C361 1.379 . S
C360 C364 1.368 1_554 S
C360 C366 1.505 . S
C361 C360 1.379 . S
C361 C363 1.369 . S
C361 H372 0.930 . S
C362 C364 1.379 1_554 S
C362 C365 1.382 . S
C362 H373 0.930 1_554 S
C363 C361 1.369 . S
C363 C365 1.392 . S
C363 H374 0.930 . S
C364 C360 1.368 1_556 S
C364 C362 1.379 1_556 S
C364 H375 0.940 . S
C365 C362 1.382 . S
C365 C363 1.392 . S
C366 Eu337 2.828 . S
C366 O350 1.249 1_554 S
C366 O351 1.244 . S
C366 C360 1.505 . S
C367 O354 1.258 . S
C367 O355 1.242 1_554 S
H368 C340 0.930 . S
H369 C341 0.930 . S
H370 C342 0.930 . S
H371 C343 0.931 . S
H372 C361 0.930 . S
H373 C362 0.930 1_556 S
H374 C363 0.930 . S
H375 C364 0.940 . S
Eu376 C385 2.828 . S
Eu376 O387 2.392 . S
Eu376 O389 2.418 . S
Eu376 O394 2.373 . S
Eu376 O397 2.488 . S
Eu376 O398 2.471 . S
Eu376 O399 2.349 . S
Eu377 O386 2.373 . S
Eu377 O390 2.488 . S
Eu377 O391 2.471 . S
Eu377 O392 2.349 . S
Eu377 O395 2.392 . S
Eu377 O396 2.418 . S
Eu377 C406 2.828 . S
C378 O396 1.244 . S
C378 O399 1.265 . S
C379 C380 1.379 . S
C379 C383 1.373 . S
C379 C385 1.505 . S
C380 C379 1.379 . S
C380 C382 1.369 . S
C380 H408 0.930 . S
C381 C383 1.383 . S
C381 C384 1.382 . S
C381 H409 0.930 . S
C382 C380 1.369 . S
C382 C384 1.392 . S
C382 H410 0.930 . S
C383 C379 1.373 . S
C383 C381 1.383 . S
C383 H411 0.931 . S
C384 C381 1.382 . S
C384 C382 1.392 . S
C385 Eu376 2.828 . S
C385 C379 1.505 . S
C385 O397 1.249 . S
C385 O398 1.244 . S
O386 Eu377 2.373 . S
O386 C388 1.258 . S
O387 Eu376 2.392 . S
O387 C388 1.242 . S
C388 O386 1.258 . S
C388 O387 1.242 . S
O389 Eu376 2.418 . S
O389 C393 1.244 . S
O390 Eu377 2.488 . S
O390 C406 1.249 . S
O391 Eu377 2.471 . S
O391 C406 1.244 . S
O392 Eu377 2.349 . S
O392 C393 1.265 . S
C393 O389 1.244 . S
C393 O392 1.265 . S
O394 Eu376 2.373 . S
O394 C407 1.258 . S
O395 Eu377 2.392 . S
O395 C407 1.242 . S
O396 Eu377 2.418 . S
O396 C378 1.244 . S
O397 Eu376 2.488 . S
O397 C385 1.249 . S
O398 Eu376 2.471 . S
O398 C385 1.244 . S
O399 Eu376 2.349 . S
O399 C378 1.265 . S
C400 C401 1.379 . S
C400 C404 1.373 . S
C400 C406 1.505 . S
C401 C400 1.379 . S
C401 C403 1.369 . S
C401 H412 0.930 . S
C402 C404 1.383 . S
C402 C405 1.382 . S
C402 H413 0.930 . S
C403 C401 1.369 . S
C403 C405 1.392 . S
C403 H414 0.930 . S
C404 C400 1.373 . S
C404 C402 1.383 . S
C404 H415 0.931 . S
C405 C402 1.382 . S
C405 C403 1.392 . S
C406 Eu377 2.828 . S
C406 O390 1.249 . S
C406 O391 1.244 . S
C406 C400 1.505 . S
C407 O394 1.258 . S
C407 O395 1.242 . S
H408 C380 0.930 . S
H409 C381 0.930 . S
H410 C382 0.930 . S
H411 C383 0.931 . S
H412 C401 0.930 . S
H413 C402 0.930 . S
H414 C403 0.930 . S
H415 C404 0.931 . S
Eu416 C425 2.828 . S
Eu416 O427 2.392 . S
Eu416 O429 2.418 . S
Eu416 O434 2.373 1_545 S
Eu416 O437 2.488 . S
Eu416 O438 2.471 . S
Eu416 O439 2.349 . S
Eu417 O426 2.373 . S
Eu417 O430 2.488 . S
Eu417 O431 2.471 . S
Eu417 O432 2.349 . S
Eu417 O435 2.392 1_545 S
Eu417 O436 2.418 . S
Eu417 C446 2.828 . S
C418 O436 1.244 . S
C418 O439 1.265 . S
C419 C420 1.379 . S
C419 C423 1.373 . S
C419 C425 1.505 1_565 S
C420 C419 1.379 . S
C420 C422 1.369 . S
C420 H448 0.930 . S
C421 C423 1.383 . S
C421 C424 1.382 . S
C421 H449 0.930 . S
C422 C420 1.369 . S
C422 C424 1.392 . S
C422 H450 0.930 . S
C423 C419 1.373 . S
C423 C421 1.383 . S
C423 H451 0.931 . S
C424 C421 1.382 . S
C424 C422 1.392 . S
C425 Eu416 2.828 . S
C425 C419 1.505 1_545 S
C425 O437 1.249 . S
C425 O438 1.244 . S
O426 Eu417 2.373 . S
O426 C428 1.258 . S
O427 Eu416 2.392 . S
O427 C428 1.242 . S
C428 O426 1.258 . S
C428 O427 1.242 . S
O429 Eu416 2.418 . S
O429 C433 1.244 . S
O430 Eu417 2.488 . S
O430 C446 1.249 . S
O431 Eu417 2.471 . S
O431 C446 1.244 . S
O432 Eu417 2.349 . S
O432 C433 1.265 . S
C433 O429 1.244 . S
C433 O432 1.265 . S
O434 Eu416 2.373 1_565 S
O434 C447 1.258 . S
O435 Eu417 2.392 1_565 S
O435 C447 1.242 . S
O436 Eu417 2.418 . S
O436 C418 1.244 . S
O437 Eu416 2.488 . S
O437 C425 1.249 . S
O438 Eu416 2.471 . S
O438 C425 1.244 . S
O439 Eu416 2.349 . S
O439 C418 1.265 . S
C440 C441 1.379 . S
C440 C444 1.373 . S
C440 C446 1.505 . S
C441 C440 1.379 . S
C441 C443 1.369 . S
C441 H452 0.930 . S
C442 C444 1.383 . S
C442 C445 1.382 . S
C442 H453 0.930 . S
C443 C441 1.369 . S
C443 C445 1.392 . S
C443 H454 0.930 . S
C444 C440 1.373 . S
C444 C442 1.383 . S
C444 H455 0.931 . S
C445 C442 1.382 . S
C445 C443 1.392 . S
C446 Eu417 2.828 . S
C446 O430 1.249 . S
C446 O431 1.244 . S
C446 C440 1.505 . S
C447 O434 1.258 . S
C447 O435 1.242 . S
H448 C420 0.930 . S
H449 C421 0.930 . S
H450 C422 0.930 . S
H451 C423 0.931 . S
H452 C441 0.930 . S
H453 C442 0.930 . S
H454 C443 0.930 . S
H455 C444 0.931 . S
Eu456 C465 2.828 . S
Eu456 O467 2.392 . S
Eu456 O469 2.418 . S
Eu456 O474 2.373 . S
Eu456 O477 2.488 . S
Eu456 O478 2.471 . S
Eu456 O479 2.349 . S
Eu457 O466 2.373 . S
Eu457 O470 2.488 . S
Eu457 O471 2.471 . S
Eu457 O472 2.349 . S
Eu457 O475 2.392 . S
Eu457 O476 2.418 . S
Eu457 C486 2.828 . S
C458 O476 1.244 . S
C458 O479 1.265 . S
C459 C460 1.379 . S
C459 C463 1.373 . S
C459 C465 1.505 . S
C460 C459 1.379 . S
C460 C462 1.369 . S
C460 H488 0.930 . S
C461 C463 1.383 . S
C461 C464 1.382 . S
C461 H489 0.930 . S
C462 C460 1.369 . S
C462 C464 1.392 . S
C462 H490 0.930 . S
C463 C459 1.373 . S
C463 C461 1.383 . S
C463 H491 0.931 . S
C464 C461 1.382 . S
C464 C462 1.392 . S
C465 Eu456 2.828 . S
C465 C459 1.505 . S
C465 O477 1.249 . S
C465 O478 1.244 . S
O466 Eu457 2.373 . S
O466 C468 1.258 . S
O467 Eu456 2.392 . S
O467 C468 1.242 . S
C468 O466 1.258 . S
C468 O467 1.242 . S
O469 Eu456 2.418 . S
O469 C473 1.244 . S
O470 Eu457 2.488 . S
O470 C486 1.249 . S
O471 Eu457 2.471 . S
O471 C486 1.244 . S
O472 Eu457 2.349 . S
O472 C473 1.265 . S
C473 O469 1.244 . S
C473 O472 1.265 . S
O474 Eu456 2.373 . S
O474 C487 1.258 . S
O475 Eu457 2.392 . S
O475 C487 1.242 . S
O476 Eu457 2.418 . S
O476 C458 1.244 . S
O477 Eu456 2.488 . S
O477 C465 1.249 . S
O478 Eu456 2.471 . S
O478 C465 1.244 . S
O479 Eu456 2.349 . S
O479 C458 1.265 . S
C480 C481 1.379 . S
C480 C484 1.373 . S
C480 C486 1.505 . S
C481 C480 1.379 . S
C481 C483 1.369 . S
C481 H492 0.930 . S
C482 C484 1.383 . S
C482 C485 1.382 . S
C482 H493 0.930 . S
C483 C481 1.369 . S
C483 C485 1.392 . S
C483 H494 0.930 . S
C484 C480 1.373 . S
C484 C482 1.383 . S
C484 H495 0.931 . S
C485 C482 1.382 . S
C485 C483 1.392 . S
C486 Eu457 2.828 . S
C486 O470 1.249 . S
C486 O471 1.244 . S
C486 C480 1.505 . S
C487 O474 1.258 . S
C487 O475 1.242 . S
H488 C460 0.930 . S
H489 C461 0.930 . S
H490 C462 0.930 . S
H491 C463 0.931 . S
H492 C481 0.930 . S
H493 C482 0.930 . S
H494 C483 0.930 . S
H495 C484 0.931 . S
Eu496 C505 2.828 . S
Eu496 O507 2.392 . S
Eu496 O509 2.418 . S
Eu496 O514 2.373 . S
Eu496 O517 2.488 . S
Eu496 O518 2.471 . S
Eu496 O519 2.349 . S
Eu497 O506 2.373 . S
Eu497 O510 2.488 1_545 S
Eu497 O511 2.471 1_545 S
Eu497 O512 2.349 . S
Eu497 O515 2.392 . S
Eu497 O516 2.418 . S
Eu497 C526 2.828 1_545 S
C498 O516 1.244 . S
C498 O519 1.265 . S
C499 C500 1.379 . S
C499 C503 1.373 . S
C499 C505 1.505 . S
C500 C499 1.379 . S
C500 C502 1.369 . S
C500 H528 0.930 . S
C501 C503 1.383 . S
C501 C504 1.382 . S
C501 H529 0.930 . S
C502 C500 1.369 . S
C502 C504 1.392 . S
C502 H530 0.930 . S
C503 C499 1.373 . S
C503 C501 1.383 . S
C503 H531 0.931 . S
C504 C501 1.382 . S
C504 C502 1.392 . S
C505 Eu496 2.828 . S
C505 C499 1.505 . S
C505 O517 1.249 . S
C505 O518 1.244 . S
O506 Eu497 2.373 . S
O506 C508 1.258 . S
O507 Eu496 2.392 . S
O507 C508 1.242 . S
C508 O506 1.258 . S
C508 O507 1.242 . S
O509 Eu496 2.418 . S
O509 C513 1.244 . S
O510 Eu497 2.488 1_565 S
O510 C526 1.249 . S
O511 Eu497 2.471 1_565 S
O511 C526 1.244 . S
O512 Eu497 2.349 . S
O512 C513 1.265 . S
C513 O509 1.244 . S
C513 O512 1.265 . S
O514 Eu496 2.373 . S
O514 C527 1.258 . S
O515 Eu497 2.392 . S
O515 C527 1.242 . S
O516 Eu497 2.418 . S
O516 C498 1.244 . S
O517 Eu496 2.488 . S
O517 C505 1.249 . S
O518 Eu496 2.471 . S
O518 C505 1.244 . S
O519 Eu496 2.349 . S
O519 C498 1.265 . S
C520 C521 1.379 . S
C520 C524 1.373 . S
C520 C526 1.505 . S
C521 C520 1.379 . S
C521 C523 1.369 . S
C521 H532 0.930 . S
C522 C524 1.383 . S
C522 C525 1.382 . S
C522 H533 0.930 . S
C523 C521 1.369 . S
C523 C525 1.392 . S
C523 H534 0.930 . S
C524 C520 1.373 . S
C524 C522 1.383 . S
C524 H535 0.931 . S
C525 C522 1.382 . S
C525 C523 1.392 . S
C526 Eu497 2.828 1_565 S
C526 O510 1.249 . S
C526 O511 1.244 . S
C526 C520 1.505 . S
C527 O514 1.258 . S
C527 O515 1.242 . S
H528 C500 0.930 . S
H529 C501 0.930 . S
H530 C502 0.930 . S
H531 C503 0.931 . S
H532 C521 0.930 . S
H533 C522 0.930 . S
H534 C523 0.930 . S
H535 C524 0.931 . S
Eu536 C545 2.828 . S
Eu536 O547 2.392 . S
Eu536 O549 2.418 . S
Eu536 O554 2.373 . S
Eu536 O557 2.488 . S
Eu536 O558 2.471 . S
Eu536 O559 2.349 . S
Eu537 O546 2.373 . S
Eu537 O550 2.488 . S
Eu537 O551 2.471 . S
Eu537 O552 2.349 . S
Eu537 O555 2.392 . S
Eu537 O556 2.418 . S
Eu537 C566 2.828 . S
C538 O556 1.244 . S
C538 O559 1.265 . S
C539 C540 1.379 . S
C539 C543 1.373 . S
C539 C545 1.505 . S
C540 C539 1.379 . S
C540 C542 1.369 . S
C540 H568 0.930 . S
C541 C543 1.383 . S
C541 C544 1.382 . S
C541 H569 0.930 . S
C542 C540 1.369 . S
C542 C544 1.392 . S
C542 H570 0.930 . S
C543 C539 1.373 . S
C543 C541 1.383 . S
C543 H571 0.931 . S
C544 C541 1.382 . S
C544 C542 1.392 . S
C545 Eu536 2.828 . S
C545 C539 1.505 . S
C545 O557 1.249 . S
C545 O558 1.244 . S
O546 Eu537 2.373 . S
O546 C548 1.258 . S
O547 Eu536 2.392 . S
O547 C548 1.242 . S
C548 O546 1.258 . S
C548 O547 1.242 . S
O549 Eu536 2.418 . S
O549 C553 1.244 . S
O550 Eu537 2.488 . S
O550 C566 1.249 . S
O551 Eu537 2.471 . S
O551 C566 1.244 . S
O552 Eu537 2.349 . S
O552 C553 1.265 . S
C553 O549 1.244 . S
C553 O552 1.265 . S
O554 Eu536 2.373 . S
O554 C567 1.258 . S
O555 Eu537 2.392 . S
O555 C567 1.242 . S
O556 Eu537 2.418 . S
O556 C538 1.244 . S
O557 Eu536 2.488 . S
O557 C545 1.249 . S
O558 Eu536 2.471 . S
O558 C545 1.244 . S
O559 Eu536 2.349 . S
O559 C538 1.265 . S
C560 C561 1.379 . S
C560 C564 1.373 . S
C560 C566 1.505 . S
C561 C560 1.379 . S
C561 C563 1.369 . S
C561 H572 0.930 . S
C562 C564 1.383 . S
C562 C565 1.382 . S
C562 H573 0.930 . S
C563 C561 1.369 . S
C563 C565 1.392 . S
C563 H574 0.930 . S
C564 C560 1.373 . S
C564 C562 1.383 . S
C564 H575 0.931 . S
C565 C562 1.382 . S
C565 C563 1.392 . S
C566 Eu537 2.828 . S
C566 O550 1.249 . S
C566 O551 1.244 . S
C566 C560 1.505 . S
C567 O554 1.258 . S
C567 O555 1.242 . S
H568 C540 0.930 . S
H569 C541 0.930 . S
H570 C542 0.930 . S
H571 C543 0.931 . S
H572 C561 0.930 . S
H573 C562 0.930 . S
H574 C563 0.930 . S
H575 C564 0.931 . S
Eu576 C585 2.828 . S
Eu576 O587 2.392 . S
Eu576 O589 2.418 1_545 S
Eu576 O594 2.373 . S
Eu576 O597 2.488 . S
Eu576 O598 2.471 . S
Eu576 O599 2.349 . S
Eu577 O586 2.373 1_556 S
Eu577 O590 2.488 . S
Eu577 O591 2.471 . S
Eu577 O592 2.349 . S
Eu577 O595 2.392 . S
Eu577 O596 2.418 1_556 S
Eu577 C606 2.828 . S
C578 O596 1.244 . S
C578 O599 1.265 . S
C579 C580 1.379 . S
C579 C583 1.373 1_545 S
C579 C585 1.505 . S
C580 C579 1.379 . S
C580 C582 1.369 . S
C580 H608 0.930 . S
C581 C583 1.383 . S
C581 C584 1.382 . S
C581 H609 0.930 . S
C582 C580 1.369 . S
C582 C584 1.392 1_545 S
C582 H610 0.930 . S
C583 C579 1.373 1_565 S
C583 C581 1.383 . S
C583 H611 0.931 . S
C584 C581 1.382 . S
C584 C582 1.392 1_565 S
C585 Eu576 2.828 . S
C585 C579 1.505 . S
C585 O597 1.249 . S
C585 O598 1.244 . S
O586 Eu577 2.373 1_554 S
O586 C588 1.258 . S
O587 Eu576 2.392 . S
O587 C588 1.242 . S
C588 O586 1.258 . S
C588 O587 1.242 . S
O589 Eu576 2.418 1_565 S
O589 C593 1.244 . S
O590 Eu577 2.488 . S
O590 C606 1.249 . S
O591 Eu577 2.471 . S
O591 C606 1.244 . S
O592 Eu577 2.349 . S
O592 C593 1.265 1_546 S
C593 O589 1.244 . S
C593 O592 1.265 1_564 S
O594 Eu576 2.373 . S
O594 C607 1.258 . S
O595 Eu577 2.392 . S
O595 C607 1.242 1_556 S
O596 Eu577 2.418 1_554 S
O596 C578 1.244 . S
O597 Eu576 2.488 . S
O597 C585 1.249 . S
O598 Eu576 2.471 . S
O598 C585 1.244 . S
O599 Eu576 2.349 . S
O599 C578 1.265 . S
C600 C601 1.379 . S
C600 C604 1.373 . S
C600 C606 1.505 . S
C601 C600 1.379 . S
C601 C603 1.369 . S
C601 H612 0.930 . S
C602 C604 1.383 . S
C602 C605 1.382 . S
C602 H613 0.930 . S
C603 C601 1.369 . S
C603 C605 1.392 . S
C603 H614 0.930 . S
C604 C600 1.373 . S
C604 C602 1.383 . S
C604 H615 0.931 . S
C605 C602 1.382 . S
C605 C603 1.392 . S
C606 Eu577 2.828 . S
C606 O590 1.249 . S
C606 O591 1.244 . S
C606 C600 1.505 . S
C607 O594 1.258 . S
C607 O595 1.242 1_554 S
H608 C580 0.930 . S
H609 C581 0.930 . S
H610 C582 0.930 . S
H611 C583 0.931 . S
H612 C601 0.930 . S
H613 C602 0.930 . S
H614 C603 0.930 . S
H615 C604 0.931 . S
Eu616 C625 2.828 . S
Eu616 O627 2.392 . S
Eu616 O629 2.418 . S
Eu616 O634 2.373 . S
Eu616 O637 2.488 . S
Eu616 O638 2.471 . S
Eu616 O639 2.349 . S
Eu617 O626 2.373 . S
Eu617 O630 2.488 . S
Eu617 O631 2.471 . S
Eu617 O632 2.349 . S
Eu617 O635 2.392 . S
Eu617 O636 2.418 . S
Eu617 C646 2.828 . S
C618 O636 1.244 . S
C618 O639 1.265 . S
C619 C620 1.379 . S
C619 C623 1.373 . S
C619 C625 1.505 . S
C620 C619 1.379 . S
C620 C622 1.369 . S
C620 H648 0.930 . S
C621 C623 1.383 . S
C621 C624 1.382 . S
C621 H649 0.930 . S
C622 C620 1.369 . S
C622 C624 1.392 . S
C622 H650 0.930 . S
C623 C619 1.373 . S
C623 C621 1.383 . S
C623 H651 0.931 . S
C624 C621 1.382 . S
C624 C622 1.392 . S
C625 Eu616 2.828 . S
C625 C619 1.505 . S
C625 O637 1.249 . S
C625 O638 1.244 . S
O626 Eu617 2.373 . S
O626 C628 1.258 . S
O627 Eu616 2.392 . S
O627 C628 1.242 . S
C628 O626 1.258 . S
C628 O627 1.242 . S
O629 Eu616 2.418 . S
O629 C633 1.244 . S
O630 Eu617 2.488 . S
O630 C646 1.249 . S
O631 Eu617 2.471 . S
O631 C646 1.244 . S
O632 Eu617 2.349 . S
O632 C633 1.265 . S
C633 O629 1.244 . S
C633 O632 1.265 . S
O634 Eu616 2.373 . S
O634 C647 1.258 . S
O635 Eu617 2.392 . S
O635 C647 1.242 . S
O636 Eu617 2.418 . S
O636 C618 1.244 . S
O637 Eu616 2.488 . S
O637 C625 1.249 . S
O638 Eu616 2.471 . S
O638 C625 1.244 . S
O639 Eu616 2.349 . S
O639 C618 1.265 . S
C640 C641 1.379 . S
C640 C644 1.373 . S
C640 C646 1.505 . S
C641 C640 1.379 . S
C641 C643 1.369 . S
C641 H652 0.930 . S
C642 C644 1.383 . S
C642 C645 1.382 . S
C642 H653 0.930 . S
C643 C641 1.369 . S
C643 C645 1.392 . S
C643 H654 0.930 . S
C644 C640 1.373 . S
C644 C642 1.383 . S
C644 H655 0.931 . S
C645 C642 1.382 . S
C645 C643 1.392 . S
C646 Eu617 2.828 . S
C646 O630 1.249 . S
C646 O631 1.244 . S
C646 C640 1.505 . S
C647 O634 1.258 . S
C647 O635 1.242 . S
H648 C620 0.930 . S
H649 C621 0.930 . S
H650 C622 0.930 . S
H651 C623 0.931 . S
H652 C641 0.930 . S
H653 C642 0.930 . S
H654 C643 0.930 . S
H655 C644 0.931 . S
Eu656 C665 2.828 . S
Eu656 O667 2.392 . S
Eu656 O669 2.418 . S
Eu656 O674 2.373 1_554 S
Eu656 O677 2.488 . S
Eu656 O678 2.471 . S
Eu656 O679 2.349 . S
Eu657 O666 2.373 1_556 S
Eu657 O670 2.488 1_556 S
Eu657 O671 2.471 1_556 S
Eu657 O672 2.349 1_556 S
Eu657 O675 2.392 . S
Eu657 O676 2.418 1_556 S
Eu657 C686 2.828 1_556 S
C658 O676 1.244 . S
C658 O679 1.265 . S
C659 C660 1.361 1_554 S
C659 C663 1.373 . S
C659 C665 1.505 . S
C660 C659 1.361 1_556 S
C660 C662 1.382 . S
C660 H688 0.935 . S
C661 C663 1.383 . S
C661 C664 1.382 1_554 S
C661 H689 0.930 . S
C662 C660 1.382 . S
C662 C664 1.392 . S
C662 H690 0.930 . S
C663 C659 1.373 . S
C663 C661 1.383 . S
C663 H691 0.931 . S
C664 C661 1.382 1_556 S
C664 C662 1.392 . S
C665 Eu656 2.828 . S
C665 C659 1.505 . S
C665 O677 1.249 . S
C665 O678 1.244 . S
O666 Eu657 2.373 1_554 S
O666 C668 1.258 . S
O667 Eu656 2.392 . S
O667 C668 1.242 . S
C668 O666 1.258 . S
C668 O667 1.242 . S
O669 Eu656 2.418 . S
O669 C673 1.244 . S
O670 Eu657 2.488 1_554 S
O670 C686 1.249 . S
O671 Eu657 2.471 1_554 S
O671 C686 1.244 . S
O672 Eu657 2.349 1_554 S
O672 C673 1.265 . S
C673 O669 1.244 . S
C673 O672 1.265 . S
O674 Eu656 2.373 1_556 S
O674 C687 1.258 . S
O675 Eu657 2.392 . S
O675 C687 1.242 . S
O676 Eu657 2.418 1_554 S
O676 C658 1.244 . S
O677 Eu656 2.488 . S
O677 C665 1.249 . S
O678 Eu656 2.471 . S
O678 C665 1.244 . S
O679 Eu656 2.349 . S
O679 C658 1.265 . S
C680 C681 1.379 . S
C680 C684 1.373 . S
C680 C686 1.505 . S
C681 C680 1.379 . S
C681 C683 1.369 . S
C681 H692 0.930 . S
C682 C684 1.383 . S
C682 C685 1.382 . S
C682 H693 0.930 . S
C683 C681 1.369 . S
C683 C685 1.392 . S
C683 H694 0.930 . S
C684 C680 1.373 . S
C684 C682 1.383 . S
C684 H695 0.931 . S
C685 C682 1.382 . S
C685 C683 1.392 . S
C686 Eu657 2.828 1_554 S
C686 O670 1.249 . S
C686 O671 1.244 . S
C686 C680 1.505 . S
C687 O674 1.258 . S
C687 O675 1.242 . S
H688 C660 0.935 . S
H689 C661 0.930 . S
H690 C662 0.930 . S
H691 C663 0.931 . S
H692 C681 0.930 . S
H693 C682 0.930 . S
H694 C683 0.930 . S
H695 C684 0.931 . S
Eu696 C705 2.828 1_655 S
Eu696 O707 2.392 . S
Eu696 O709 2.418 . S
Eu696 O714 2.373 . S
Eu696 O717 2.488 . S
Eu696 O718 2.471 . S
Eu696 O719 2.349 . S
Eu697 O706 2.373 . S
Eu697 O710 2.488 . S
Eu697 O711 2.471 . S
Eu697 O712 2.349 . S
Eu697 O715 2.392 . S
Eu697 O716 2.418 . S
Eu697 C726 2.828 . S
C698 O716 1.244 . S
C698 O719 1.265 . S
C699 C700 1.379 . S
C699 C703 1.373 . S
C699 C705 1.505 . S
C700 C699 1.379 . S
C700 C702 1.369 . S
C700 H728 0.930 . S
C701 C703 1.383 . S
C701 C704 1.382 . S
C701 H729 0.930 . S
C702 C700 1.369 . S
C702 C704 1.392 . S
C702 H730 0.930 . S
C703 C699 1.373 . S
C703 C701 1.383 . S
C703 H731 0.931 . S
C704 C701 1.382 . S
C704 C702 1.392 . S
C705 Eu696 2.828 1_455 S
C705 C699 1.505 . S
C705 O717 1.249 1_455 S
C705 O718 1.244 1_455 S
O706 Eu697 2.373 . S
O706 C708 1.258 . S
O707 Eu696 2.392 . S
O707 C708 1.242 . S
C708 O706 1.258 . S
C708 O707 1.242 . S
O709 Eu696 2.418 . S
O709 C713 1.244 . S
O710 Eu697 2.488 . S
O710 C726 1.249 . S
O711 Eu697 2.471 . S
O711 C726 1.244 . S
O712 Eu697 2.349 . S
O712 C713 1.265 . S
C713 O709 1.244 . S
C713 O712 1.265 . S
O714 Eu696 2.373 . S
O714 C727 1.258 . S
O715 Eu697 2.392 . S
O715 C727 1.242 . S
O716 Eu697 2.418 . S
O716 C698 1.244 . S
O717 Eu696 2.488 . S
O717 C705 1.249 1_655 S
O718 Eu696 2.471 . S
O718 C705 1.244 1_655 S
O719 Eu696 2.349 . S
O719 C698 1.265 . S
C720 C721 1.379 . S
C720 C724 1.373 . S
C720 C726 1.505 . S
C721 C720 1.379 . S
C721 C723 1.369 . S
C721 H732 0.930 . S
C722 C724 1.383 . S
C722 C725 1.382 . S
C722 H733 0.930 . S
C723 C721 1.369 . S
C723 C725 1.392 . S
C723 H734 0.930 . S
C724 C720 1.373 . S
C724 C722 1.383 . S
C724 H735 0.931 . S
C725 C722 1.382 . S
C725 C723 1.392 . S
C726 Eu697 2.828 . S
C726 O710 1.249 . S
C726 O711 1.244 . S
C726 C720 1.505 . S
C727 O714 1.258 . S
C727 O715 1.242 . S
H728 C700 0.930 . S
H729 C701 0.930 . S
H730 C702 0.930 . S
H731 C703 0.931 . S
H732 C721 0.930 . S
H733 C722 0.930 . S
H734 C723 0.930 . S
H735 C724 0.931 . S
Eu736 C745 2.828 . S
Eu736 O747 2.392 . S
Eu736 O749 2.418 . S
Eu736 O754 2.373 . S
Eu736 O757 2.488 . S
Eu736 O758 2.471 . S
Eu736 O759 2.349 . S
Eu737 O746 2.373 . S
Eu737 O750 2.488 . S
Eu737 O751 2.471 . S
Eu737 O752 2.349 . S
Eu737 O755 2.392 . S
Eu737 O756 2.418 . S
Eu737 C766 2.828 . S
C738 O756 1.244 . S
C738 O759 1.265 . S
C739 C740 1.379 . S
C739 C743 1.373 . S
C739 C745 1.505 . S
C740 C739 1.379 . S
C740 C742 1.369 1_455 S
C740 H768 0.930 . S
C741 C743 1.383 . S
C741 C744 1.382 1_455 S
C741 H769 0.930 . S
C742 C740 1.369 1_655 S
C742 C744 1.392 . S
C742 H770 0.930 . S
C743 C739 1.373 . S
C743 C741 1.383 . S
C743 H771 0.931 . S
C744 C741 1.382 1_655 S
C744 C742 1.392 . S
C745 Eu736 2.828 . S
C745 C739 1.505 . S
C745 O757 1.249 . S
C745 O758 1.244 . S
O746 Eu737 2.373 . S
O746 C748 1.258 . S
O747 Eu736 2.392 . S
O747 C748 1.242 . S
C748 O746 1.258 . S
C748 O747 1.242 . S
O749 Eu736 2.418 . S
O749 C753 1.244 . S
O750 Eu737 2.488 . S
O750 C766 1.249 . S
O751 Eu737 2.471 . S
O751 C766 1.244 . S
O752 Eu737 2.349 . S
O752 C753 1.265 . S
C753 O749 1.244 . S
C753 O752 1.265 . S
O754 Eu736 2.373 . S
O754 C767 1.258 . S
O755 Eu737 2.392 . S
O755 C767 1.242 . S
O756 Eu737 2.418 . S
O756 C738 1.244 . S
O757 Eu736 2.488 . S
O757 C745 1.249 . S
O758 Eu736 2.471 . S
O758 C745 1.244 . S
O759 Eu736 2.349 . S
O759 C738 1.265 . S
C760 C761 1.379 . S
C760 C764 1.373 . S
C760 C766 1.505 . S
C761 C760 1.379 . S
C761 C763 1.369 . S
C761 H772 0.930 . S
C762 C764 1.383 . S
C762 C765 1.382 . S
C762 H773 0.930 . S
C763 C761 1.369 . S
C763 C765 1.392 . S
C763 H774 0.930 . S
C764 C760 1.373 . S
C764 C762 1.383 . S
C764 H775 0.931 . S
C765 C762 1.382 . S
C765 C763 1.392 . S
C766 Eu737 2.828 . S
C766 O750 1.249 . S
C766 O751 1.244 . S
C766 C760 1.505 . S
C767 O754 1.258 . S
C767 O755 1.242 . S
H768 C740 0.930 . S
H769 C741 0.930 . S
H770 C742 0.930 . S
H771 C743 0.931 . S
H772 C761 0.930 . S
H773 C762 0.930 . S
H774 C763 0.930 . S
H775 C764 0.931 . S
Eu776 C785 2.828 . S
Eu776 O787 2.392 . S
Eu776 O789 2.418 . S
Eu776 O794 2.373 . S
Eu776 O797 2.488 . S
Eu776 O798 2.471 . S
Eu776 O799 2.349 . S
Eu777 O786 2.373 . S
Eu777 O790 2.488 . S
Eu777 O791 2.471 . S
Eu777 O792 2.349 . S
Eu777 O795 2.392 . S
Eu777 O796 2.418 . S
Eu777 C806 2.828 . S
C778 O796 1.244 . S
C778 O799 1.265 . S
C779 C780 1.379 . S
C779 C783 1.373 . S
C779 C785 1.505 . S
C780 C779 1.379 . S
C780 C782 1.369 . S
C780 H808 0.930 . S
C781 C783 1.383 . S
C781 C784 1.382 . S
C781 H809 0.930 . S
C782 C780 1.369 . S
C782 C784 1.392 . S
C782 H810 0.930 . S
C783 C779 1.373 . S
C783 C781 1.383 . S
C783 H811 0.931 . S
C784 C781 1.382 . S
C784 C782 1.392 . S
C785 Eu776 2.828 . S
C785 C779 1.505 . S
C785 O797 1.249 . S
C785 O798 1.244 . S
O786 Eu777 2.373 . S
O786 C788 1.258 . S
O787 Eu776 2.392 . S
O787 C788 1.242 . S
C788 O786 1.258 . S
C788 O787 1.242 . S
O789 Eu776 2.418 . S
O789 C793 1.244 . S
O790 Eu777 2.488 . S
O790 C806 1.249 . S
O791 Eu777 2.471 . S
O791 C806 1.244 . S
O792 Eu777 2.349 . S
O792 C793 1.265 . S
C793 O789 1.244 . S
C793 O792 1.265 . S
O794 Eu776 2.373 . S
O794 C807 1.258 . S
O795 Eu777 2.392 . S
O795 C807 1.242 . S
O796 Eu777 2.418 . S
O796 C778 1.244 . S
O797 Eu776 2.488 . S
O797 C785 1.249 . S
O798 Eu776 2.471 . S
O798 C785 1.244 . S
O799 Eu776 2.349 . S
O799 C778 1.265 . S
C800 C801 1.379 . S
C800 C804 1.373 . S
C800 C806 1.505 1_455 S
C801 C800 1.379 . S
C801 C803 1.369 . S
C801 H812 0.930 . S
C802 C804 1.383 . S
C802 C805 1.382 . S
C802 H813 0.930 . S
C803 C801 1.369 . S
C803 C805 1.392 . S
C803 H814 0.930 . S
C804 C800 1.373 . S
C804 C802 1.383 . S
C804 H815 0.931 . S
C805 C802 1.382 . S
C805 C803 1.392 . S
C806 Eu777 2.828 . S
C806 O790 1.249 . S
C806 O791 1.244 . S
C806 C800 1.505 1_655 S
C807 O794 1.258 . S
C807 O795 1.242 . S
H808 C780 0.930 . S
H809 C781 0.930 . S
H810 C782 0.930 . S
H811 C783 0.931 . S
H812 C801 0.930 . S
H813 C802 0.930 . S
H814 C803 0.930 . S
H815 C804 0.931 . S
Eu816 C825 2.828 . S
Eu816 O827 2.392 . S
Eu816 O829 2.418 . S
Eu816 O834 2.373 . S
Eu816 O837 2.488 . S
Eu816 O838 2.471 . S
Eu816 O839 2.349 . S
Eu817 O826 2.373 . S
Eu817 O830 2.488 . S
Eu817 O831 2.471 . S
Eu817 O832 2.349 . S
Eu817 O835 2.392 . S
Eu817 O836 2.418 . S
Eu817 C846 2.828 . S
C818 O836 1.244 . S
C818 O839 1.265 . S
C819 C820 1.379 . S
C819 C823 1.373 . S
C819 C825 1.505 . S
C820 C819 1.379 . S
C820 C822 1.369 . S
C820 H848 0.930 . S
C821 C823 1.383 . S
C821 C824 1.382 . S
C821 H849 0.930 . S
C822 C820 1.369 . S
C822 C824 1.392 . S
C822 H850 0.930 . S
C823 C819 1.373 . S
C823 C821 1.383 . S
C823 H851 0.931 . S
C824 C821 1.382 . S
C824 C822 1.392 . S
C825 Eu816 2.828 . S
C825 C819 1.505 . S
C825 O837 1.249 . S
C825 O838 1.244 . S
O826 Eu817 2.373 . S
O826 C828 1.258 . S
O827 Eu816 2.392 . S
O827 C828 1.242 . S
C828 O826 1.258 . S
C828 O827 1.242 . S
O829 Eu816 2.418 . S
O829 C833 1.244 . S
O830 Eu817 2.488 . S
O830 C846 1.249 . S
O831 Eu817 2.471 . S
O831 C846 1.244 . S
O832 Eu817 2.349 . S
O832 C833 1.265 . S
C833 O829 1.244 . S
C833 O832 1.265 . S
O834 Eu816 2.373 . S
O834 C847 1.258 . S
O835 Eu817 2.392 . S
O835 C847 1.242 . S
O836 Eu817 2.418 . S
O836 C818 1.244 . S
O837 Eu816 2.488 . S
O837 C825 1.249 . S
O838 Eu816 2.471 . S
O838 C825 1.244 . S
O839 Eu816 2.349 . S
O839 C818 1.265 . S
C840 C841 1.379 . S
C840 C844 1.373 . S
C840 C846 1.505 . S
C841 C840 1.379 . S
C841 C843 1.369 . S
C841 H852 0.930 . S
C842 C844 1.383 . S
C842 C845 1.382 . S
C842 H853 0.930 . S
C843 C841 1.369 . S
C843 C845 1.392 . S
C843 H854 0.930 . S
C844 C840 1.373 . S
C844 C842 1.383 . S
C844 H855 0.931 . S
C845 C842 1.382 . S
C845 C843 1.392 . S
C846 Eu817 2.828 . S
C846 O830 1.249 . S
C846 O831 1.244 . S
C846 C840 1.505 . S
C847 O834 1.258 . S
C847 O835 1.242 . S
H848 C820 0.930 . S
H849 C821 0.930 . S
H850 C822 0.930 . S
H851 C823 0.931 . S
H852 C841 0.930 . S
H853 C842 0.930 . S
H854 C843 0.930 . S
H855 C844 0.931 . S
Eu856 C865 2.828 . S
Eu856 O867 2.392 . S
Eu856 O869 2.418 . S
Eu856 O874 2.373 . S
Eu856 O877 2.488 . S
Eu856 O878 2.471 . S
Eu856 O879 2.349 . S
Eu857 O866 2.373 . S
Eu857 O870 2.488 . S
Eu857 O871 2.471 . S
Eu857 O872 2.349 . S
Eu857 O875 2.392 . S
Eu857 O876 2.418 . S
Eu857 C886 2.828 . S
C858 O876 1.244 . S
C858 O879 1.265 . S
C859 C860 1.379 . S
C859 C863 1.373 . S
C859 C865 1.505 1_545 S
C860 C859 1.379 . S
C860 C862 1.369 . S
C860 H888 0.930 1_545 S
C861 C863 1.383 . S
C861 C864 1.382 . S
C861 H889 0.930 . S
C862 C860 1.369 . S
C862 C864 1.392 . S
C862 H890 0.930 . S
C863 C859 1.373 . S
C863 C861 1.383 . S
C863 H891 0.931 . S
C864 C861 1.382 . S
C864 C862 1.392 . S
C865 Eu856 2.828 . S
C865 C859 1.505 1_565 S
C865 O877 1.249 . S
C865 O878 1.244 . S
O866 Eu857 2.373 . S
O866 C868 1.258 . S
O867 Eu856 2.392 . S
O867 C868 1.242 . S
C868 O866 1.258 . S
C868 O867 1.242 . S
O869 Eu856 2.418 . S
O869 C873 1.244 . S
O870 Eu857 2.488 . S
O870 C886 1.249 . S
O871 Eu857 2.471 . S
O871 C886 1.244 . S
O872 Eu857 2.349 . S
O872 C873 1.265 . S
C873 O869 1.244 . S
C873 O872 1.265 . S
O874 Eu856 2.373 . S
O874 C887 1.258 . S
O875 Eu857 2.392 . S
O875 C887 1.242 . S
O876 Eu857 2.418 . S
O876 C858 1.244 . S
O877 Eu856 2.488 . S
O877 C865 1.249 . S
O878 Eu856 2.471 . S
O878 C865 1.244 . S
O879 Eu856 2.349 . S
O879 C858 1.265 . S
C880 C881 1.379 . S
C880 C884 1.373 . S
C880 C886 1.505 . S
C881 C880 1.379 . S
C881 C883 1.369 . S
C881 H892 0.930 . S
C882 C884 1.383 . S
C882 C885 1.382 . S
C882 H893 0.930 . S
C883 C881 1.369 . S
C883 C885 1.392 . S
C883 H894 0.930 . S
C884 C880 1.373 . S
C884 C882 1.383 . S
C884 H895 0.931 . S
C885 C882 1.382 . S
C885 C883 1.392 . S
C886 Eu857 2.828 . S
C886 O870 1.249 . S
C886 O871 1.244 . S
C886 C880 1.505 . S
C887 O874 1.258 . S
C887 O875 1.242 . S
H888 C860 0.930 1_565 S
H889 C861 0.930 . S
H890 C862 0.930 . S
H891 C863 0.931 . S
H892 C881 0.930 . S
H893 C882 0.930 . S
H894 C883 0.930 . S
H895 C884 0.931 . S
Eu896 C905 2.828 . S
Eu896 O907 2.392 . S
Eu896 O909 2.418 . S
Eu896 O914 2.373 . S
Eu896 O917 2.488 . S
Eu896 O918 2.471 . S
Eu896 O919 2.349 . S
Eu897 O906 2.373 . S
Eu897 O910 2.488 . S
Eu897 O911 2.471 . S
Eu897 O912 2.349 . S
Eu897 O915 2.392 . S
Eu897 O916 2.418 . S
Eu897 C926 2.828 . S
C898 O916 1.244 . S
C898 O919 1.265 . S
C899 C900 1.379 . S
C899 C903 1.373 . S
C899 C905 1.505 . S
C900 C899 1.379 . S
C900 C902 1.369 . S
C900 H928 0.930 . S
C901 C903 1.383 . S
C901 C904 1.382 . S
C901 H929 0.930 . S
C902 C900 1.369 . S
C902 C904 1.392 . S
C902 H930 0.930 . S
C903 C899 1.373 . S
C903 C901 1.383 . S
C903 H931 0.931 . S
C904 C901 1.382 . S
C904 C902 1.392 . S
C905 Eu896 2.828 . S
C905 C899 1.505 . S
C905 O917 1.249 . S
C905 O918 1.244 . S
O906 Eu897 2.373 . S
O906 C908 1.258 . S
O907 Eu896 2.392 . S
O907 C908 1.242 . S
C908 O906 1.258 . S
C908 O907 1.242 . S
O909 Eu896 2.418 . S
O909 C913 1.244 . S
O910 Eu897 2.488 . S
O910 C926 1.249 . S
O911 Eu897 2.471 . S
O911 C926 1.244 . S
O912 Eu897 2.349 . S
O912 C913 1.265 . S
C913 O909 1.244 . S
C913 O912 1.265 . S
O914 Eu896 2.373 . S
O914 C927 1.258 . S
O915 Eu897 2.392 . S
O915 C927 1.242 . S
O916 Eu897 2.418 . S
O916 C898 1.244 . S
O917 Eu896 2.488 . S
O917 C905 1.249 . S
O918 Eu896 2.471 . S
O918 C905 1.244 . S
O919 Eu896 2.349 . S
O919 C898 1.265 . S
C920 C921 1.379 . S
C920 C924 1.373 . S
C920 C926 1.505 . S
C921 C920 1.379 . S
C921 C923 1.369 . S
C921 H932 0.930 . S
C922 C924 1.383 . S
C922 C925 1.382 . S
C922 H933 0.930 . S
C923 C921 1.369 . S
C923 C925 1.392 . S
C923 H934 0.930 . S
C924 C920 1.373 . S
C924 C922 1.383 . S
C924 H935 0.931 . S
C925 C922 1.382 . S
C925 C923 1.392 . S
C926 Eu897 2.828 . S
C926 O910 1.249 . S
C926 O911 1.244 . S
C926 C920 1.505 . S
C927 O914 1.258 . S
C927 O915 1.242 . S
H928 C900 0.930 . S
H929 C901 0.930 . S
H930 C902 0.930 . S
H931 C903 0.931 . S
H932 C921 0.930 . S
H933 C922 0.930 . S
H934 C923 0.930 . S
H935 C924 0.931 . S
Eu936 C945 2.828 1_554 S
Eu936 O947 2.392 . S
Eu936 O949 2.418 1_554 S
Eu936 O954 2.373 1_554 S
Eu936 O957 2.488 1_554 S
Eu936 O958 2.471 . S
Eu936 O959 2.349 . S
Eu937 O946 2.373 . S
Eu937 O950 2.488 . S
Eu937 O951 2.471 1_455 S
Eu937 O952 2.349 1_554 S
Eu937 O955 2.392 . S
Eu937 O956 2.418 . S
Eu937 C966 2.828 1_455 S
C938 O956 1.244 . S
C938 O959 1.265 . S
C939 C940 1.379 1_556 S
C939 C943 1.373 . S
C939 C945 1.505 . S
C940 C939 1.379 1_554 S
C940 C942 1.369 . S
C940 H968 0.930 . S
C941 C943 1.383 . S
C941 C944 1.382 . S
C941 H969 0.930 . S
C942 C940 1.369 . S
C942 C944 1.392 1_554 S
C942 H970 0.930 . S
C943 C939 1.373 . S
C943 C941 1.383 . S
C943 H971 0.931 . S
C944 C941 1.382 . S
C944 C942 1.392 1_556 S
C945 Eu936 2.828 1_556 S
C945 C939 1.505 . S
C945 O957 1.249 . S
C945 O958 1.244 1_556 S
O946 Eu937 2.373 . S
O946 C948 1.258 . S
O947 Eu936 2.392 . S
O947 C948 1.242 . S
C948 O946 1.258 . S
C948 O947 1.242 . S
O949 Eu936 2.418 1_556 S
O949 C953 1.244 . S
O950 Eu937 2.488 . S
O950 C966 1.249 1_455 S
O951 Eu937 2.471 1_655 S
O951 C966 1.244 . S
O952 Eu937 2.349 1_556 S
O952 C953 1.265 . S
C953 O949 1.244 . S
C953 O952 1.265 . S
O954 Eu936 2.373 1_556 S
O954 C967 1.258 1_556 S
O955 Eu937 2.392 . S
O955 C967 1.242 . S
O956 Eu937 2.418 . S
O956 C938 1.244 . S
O957 Eu936 2.488 1_556 S
O957 C945 1.249 . S
O958 Eu936 2.471 . S
O958 C945 1.244 1_554 S
O959 Eu936 2.349 . S
O959 C938 1.265 . S
C960 C961 1.379 . S
C960 C964 1.373 . S
C960 C966 1.505 . S
C961 C960 1.379 . S
C961 C963 1.369 . S
C961 H972 0.930 . S
C962 C964 1.383 . S
C962 C965 1.382 . S
C962 H973 0.930 . S
C963 C961 1.369 . S
C963 C965 1.392 . S
C963 H974 0.930 . S
C964 C960 1.373 . S
C964 C962 1.383 . S
C964 H975 0.931 . S
C965 C962 1.382 . S
C965 C963 1.392 . S
C966 Eu937 2.828 1_655 S
C966 O950 1.249 1_655 S
C966 O951 1.244 . S
C966 C960 1.505 . S
C967 O954 1.258 1_554 S
C967 O955 1.242 . S
H968 C940 0.930 . S
H969 C941 0.930 . S
H970 C942 0.930 . S
H971 C943 0.931 . S
H972 C961 0.930 . S
H973 C962 0.930 . S
H974 C963 0.930 . S
H975 C964 0.931 . S
C109 C344 1.502 1_556 S
C65 C378 2.442 . S
C75 C447 1.089 . S
C485 C84 1.349 . S
C25 C525 4.037 . S
C544 C28 0.756 . S
C578 C47 3.272 . S
C9 C647 3.502 . S
C353 C233 3.832 . S
C249 C405 2.979 . S
C418 C275 1.931 . S
C487 C173 2.212 . S
C224 C527 3.058 . S
C553 C243 2.983 . S
C605 C266 1.058 . S
C618 C179 3.667 . S
C348 C163 3.761 . S
C289 C658 3.251 . S
C708 C333 3.990 . S
C767 C308 2.816 1_455 S
C123 C645 4.492 . S
C126 C445 2.606 . S
C327 C778 3.484 . S
C847 C299 1.647 . S
C365 C67 1.520 . S
C833 C98 2.271 . S
C89 C428 0.983 . S
C79 C784 1.151 . S
C504 C11 4.085 . S
C51 C725 0.759 . S
C593 C33 3.306 1_564 S
C868 C14 3.359 . S
C338 C140 3.721 . S
C824 C319 2.937 . S
C112 C433 1.791 . S
C285 C788 2.227 . S
C149 C508 3.176 . S
C698 C313 2.966 . S
C121 C584 0.842 . S
C291 C873 3.730 . S
C182 C367 3.877 1_655 S
C168 C673 3.003 . S
C263 C567 4.052 . S
C247 C748 2.748 . S
C864 C277 4.537 . S
C219 C424 2.680 . S
C473 C257 3.571 . S
C388 C201 1.446 . S
C81 C904 1.502 . S
C818 C93 2.442 . S
C103 C967 1.089 1_556 S
C56 C805 1.349 . S
C53 C685 4.037 . S
C704 C0 0.755 . S
C738 C19 3.272 1_455 S
C887 C37 3.501 . S
C913 C261 3.832 . S
C193 C845 2.979 . S
C938 C205 1.931 . S
C807 C215 2.212 . S
C687 C252 3.058 . S
C187 C713 2.983 . S
C765 C196 1.058 . S
C221 C858 3.666 . S
C908 C317 3.761 . S
C135 C498 3.251 . S
C548 C151 3.990 . S
C607 C154 2.817 . S
C885 C305 4.492 . S
C280 C965 2.606 . S
C458 C145 3.484 . S
C407 C117 1.647 . S
C95 C925 1.519 . S
C393 C70 2.270 . S
C61 C948 0.984 . S
C107 C464 1.151 . S
C39 C664 4.084 . S
C565 C23 0.759 . S
C5 C753 3.304 . S
C42 C628 3.359 . S
C898 C322 3.721 . S
C165 C384 2.936 . S
C953 C294 1.793 . S
C131 C468 2.227 . S
C331 C668 3.176 . S
C538 C159 2.966 . S
C303 C744 0.843 1_455 S
C633 C137 3.730 . S
C927 C238 3.877 . S
C513 C210 3.003 1_445 S
C235 C727 4.052 . S
C588 C191 2.748 . S
C207 C624 4.536 . S
C177 C944 2.680 1_554 S
C793 C229 3.571 . S
C828 C271 1.446 . S
