# Generated by pormake.
# Topology gar, (4,6)-cn, num edge types: 1
# Building blocks:
#     Node 0, Type 0, BuildingBlock: TATPOV_clean_sbu_0, # of connection points: 4
#     Node 1, Type 0, BuildingBlock: TATPOV_clean_sbu_0, # of connection points: 4
#     Node 2, Type 0, BuildingBlock: TATPOV_clean_sbu_0, # of connection points: 4
#     Node 3, Type 0, BuildingBlock: TATPOV_clean_sbu_0, # of connection points: 4
#     Node 4, Type 0, BuildingBlock: TATPOV_clean_sbu_0, # of connection points: 4
#     Node 5, Type 0, BuildingBlock: TATPOV_clean_sbu_0, # of connection points: 4
#     Node 6, Type 0, BuildingBlock: TATPOV_clean_sbu_0, # of connection points: 4
#     Node 7, Type 0, BuildingBlock: TATPOV_clean_sbu_0, # of connection points: 4
#     Node 8, Type 0, BuildingBlock: TATPOV_clean_sbu_0, # of connection points: 4
#     Node 9, Type 0, BuildingBlock: TATPOV_clean_sbu_0, # of connection points: 4
#     Node 10, Type 0, BuildingBlock: TATPOV_clean_sbu_0, # of connection points: 4
#     Node 11, Type 0, BuildingBlock: TATPOV_clean_sbu_0, # of connection points: 4
#     Node 12, Type 0, BuildingBlock: TATPOV_clean_sbu_0, # of connection points: 4
#     Node 13, Type 0, BuildingBlock: TATPOV_clean_sbu_0, # of connection points: 4
#     Node 14, Type 0, BuildingBlock: TATPOV_clean_sbu_0, # of connection points: 4
#     Node 15, Type 0, BuildingBlock: TATPOV_clean_sbu_0, # of connection points: 4
#     Node 16, Type 0, BuildingBlock: TATPOV_clean_sbu_0, # of connection points: 4
#     Node 17, Type 0, BuildingBlock: TATPOV_clean_sbu_0, # of connection points: 4
#     Node 18, Type 0, BuildingBlock: TATPOV_clean_sbu_0, # of connection points: 4
#     Node 19, Type 0, BuildingBlock: TATPOV_clean_sbu_0, # of connection points: 4
#     Node 20, Type 0, BuildingBlock: TATPOV_clean_sbu_0, # of connection points: 4
#     Node 21, Type 0, BuildingBlock: TATPOV_clean_sbu_0, # of connection points: 4
#     Node 22, Type 0, BuildingBlock: TATPOV_clean_sbu_0, # of connection points: 4
#     Node 23, Type 0, BuildingBlock: TATPOV_clean_sbu_0, # of connection points: 4
#     Node 24, Type 1, BuildingBlock: BETDIP_clean_sbu_0, # of connection points: 6
#     Node 25, Type 1, BuildingBlock: BETDIP_clean_sbu_0, # of connection points: 6
#     Node 26, Type 1, BuildingBlock: BETDIP_clean_sbu_0, # of connection points: 6
#     Node 27, Type 1, BuildingBlock: BETDIP_clean_sbu_0, # of connection points: 6
#     Node 28, Type 1, BuildingBlock: BETDIP_clean_sbu_0, # of connection points: 6
#     Node 29, Type 1, BuildingBlock: BETDIP_clean_sbu_0, # of connection points: 6
#     Node 30, Type 1, BuildingBlock: BETDIP_clean_sbu_0, # of connection points: 6
#     Node 31, Type 1, BuildingBlock: BETDIP_clean_sbu_0, # of connection points: 6
#     Node 32, Type 1, BuildingBlock: BETDIP_clean_sbu_0, # of connection points: 6
#     Node 33, Type 1, BuildingBlock: BETDIP_clean_sbu_0, # of connection points: 6
#     Node 34, Type 1, BuildingBlock: BETDIP_clean_sbu_0, # of connection points: 6
#     Node 35, Type 1, BuildingBlock: BETDIP_clean_sbu_0, # of connection points: 6
#     Node 36, Type 1, BuildingBlock: BETDIP_clean_sbu_0, # of connection points: 6
#     Node 37, Type 1, BuildingBlock: BETDIP_clean_sbu_0, # of connection points: 6
#     Node 38, Type 1, BuildingBlock: BETDIP_clean_sbu_0, # of connection points: 6
#     Node 39, Type 1, BuildingBlock: BETDIP_clean_sbu_0, # of connection points: 6
#     Edge 40, Type (0, 1), BuildingBlock: CIFDUS_clean_linker_0, # of connection points: 2
#     Edge 41, Type (0, 1), BuildingBlock: CIFDUS_clean_linker_0, # of connection points: 2
#     Edge 42, Type (0, 1), BuildingBlock: CIFDUS_clean_linker_0, # of connection points: 2
#     Edge 43, Type (0, 1), BuildingBlock: CIFDUS_clean_linker_0, # of connection points: 2
#     Edge 44, Type (0, 1), BuildingBlock: CIFDUS_clean_linker_0, # of connection points: 2
#     Edge 45, Type (0, 1), BuildingBlock: CIFDUS_clean_linker_0, # of connection points: 2
#     Edge 46, Type (0, 1), BuildingBlock: CIFDUS_clean_linker_0, # of connection points: 2
#     Edge 47, Type (0, 1), BuildingBlock: CIFDUS_clean_linker_0, # of connection points: 2
#     Edge 48, Type (0, 1), BuildingBlock: CIFDUS_clean_linker_0, # of connection points: 2
#     Edge 49, Type (0, 1), BuildingBlock: CIFDUS_clean_linker_0, # of connection points: 2
#     Edge 50, Type (0, 1), BuildingBlock: CIFDUS_clean_linker_0, # of connection points: 2
#     Edge 51, Type (0, 1), BuildingBlock: CIFDUS_clean_linker_0, # of connection points: 2
#     Edge 52, Type (0, 1), BuildingBlock: CIFDUS_clean_linker_0, # of connection points: 2
#     Edge 53, Type (0, 1), BuildingBlock: CIFDUS_clean_linker_0, # of connection points: 2
#     Edge 54, Type (0, 1), BuildingBlock: CIFDUS_clean_linker_0, # of connection points: 2
#     Edge 55, Type (0, 1), BuildingBlock: CIFDUS_clean_linker_0, # of connection points: 2
#     Edge 56, Type (0, 1), BuildingBlock: CIFDUS_clean_linker_0, # of connection points: 2
#     Edge 57, Type (0, 1), BuildingBlock: CIFDUS_clean_linker_0, # of connection points: 2
#     Edge 58, Type (0, 1), BuildingBlock: CIFDUS_clean_linker_0, # of connection points: 2
#     Edge 59, Type (0, 1), BuildingBlock: CIFDUS_clean_linker_0, # of connection points: 2
#     Edge 60, Type (0, 1), BuildingBlock: CIFDUS_clean_linker_0, # of connection points: 2
#     Edge 61, Type (0, 1), BuildingBlock: CIFDUS_clean_linker_0, # of connection points: 2
#     Edge 62, Type (0, 1), BuildingBlock: CIFDUS_clean_linker_0, # of connection points: 2
#     Edge 63, Type (0, 1), BuildingBlock: CIFDUS_clean_linker_0, # of connection points: 2
#     Edge 64, Type (0, 1), BuildingBlock: CIFDUS_clean_linker_0, # of connection points: 2
#     Edge 65, Type (0, 1), BuildingBlock: CIFDUS_clean_linker_0, # of connection points: 2
#     Edge 66, Type (0, 1), BuildingBlock: CIFDUS_clean_linker_0, # of connection points: 2
#     Edge 67, Type (0, 1), BuildingBlock: CIFDUS_clean_linker_0, # of connection points: 2
#     Edge 68, Type (0, 1), BuildingBlock: CIFDUS_clean_linker_0, # of connection points: 2
#     Edge 69, Type (0, 1), BuildingBlock: CIFDUS_clean_linker_0, # of connection points: 2
#     Edge 70, Type (0, 1), BuildingBlock: CIFDUS_clean_linker_0, # of connection points: 2
#     Edge 71, Type (0, 1), BuildingBlock: CIFDUS_clean_linker_0, # of connection points: 2
#     Edge 72, Type (0, 1), BuildingBlock: CIFDUS_clean_linker_0, # of connection points: 2
#     Edge 73, Type (0, 1), BuildingBlock: CIFDUS_clean_linker_0, # of connection points: 2
#     Edge 74, Type (0, 1), BuildingBlock: CIFDUS_clean_linker_0, # of connection points: 2
#     Edge 75, Type (0, 1), BuildingBlock: CIFDUS_clean_linker_0, # of connection points: 2
#     Edge 76, Type (0, 1), BuildingBlock: CIFDUS_clean_linker_0, # of connection points: 2
#     Edge 77, Type (0, 1), BuildingBlock: CIFDUS_clean_linker_0, # of connection points: 2
#     Edge 78, Type (0, 1), BuildingBlock: CIFDUS_clean_linker_0, # of connection points: 2
#     Edge 79, Type (0, 1), BuildingBlock: CIFDUS_clean_linker_0, # of connection points: 2
#     Edge 80, Type (0, 1), BuildingBlock: CIFDUS_clean_linker_0, # of connection points: 2
#     Edge 81, Type (0, 1), BuildingBlock: CIFDUS_clean_linker_0, # of connection points: 2
#     Edge 82, Type (0, 1), BuildingBlock: CIFDUS_clean_linker_0, # of connection points: 2
#     Edge 83, Type (0, 1), BuildingBlock: CIFDUS_clean_linker_0, # of connection points: 2
#     Edge 84, Type (0, 1), BuildingBlock: CIFDUS_clean_linker_0, # of connection points: 2
#     Edge 85, Type (0, 1), BuildingBlock: CIFDUS_clean_linker_0, # of connection points: 2
#     Edge 86, Type (0, 1), BuildingBlock: CIFDUS_clean_linker_0, # of connection points: 2
#     Edge 87, Type (0, 1), BuildingBlock: CIFDUS_clean_linker_0, # of connection points: 2
#     Edge 88, Type (0, 1), BuildingBlock: CIFDUS_clean_linker_0, # of connection points: 2
#     Edge 89, Type (0, 1), BuildingBlock: CIFDUS_clean_linker_0, # of connection points: 2
#     Edge 90, Type (0, 1), BuildingBlock: CIFDUS_clean_linker_0, # of connection points: 2
#     Edge 91, Type (0, 1), BuildingBlock: CIFDUS_clean_linker_0, # of connection points: 2
#     Edge 92, Type (0, 1), BuildingBlock: CIFDUS_clean_linker_0, # of connection points: 2
#     Edge 93, Type (0, 1), BuildingBlock: CIFDUS_clean_linker_0, # of connection points: 2
#     Edge 94, Type (0, 1), BuildingBlock: CIFDUS_clean_linker_0, # of connection points: 2
#     Edge 95, Type (0, 1), BuildingBlock: CIFDUS_clean_linker_0, # of connection points: 2
#     Edge 96, Type (0, 1), BuildingBlock: CIFDUS_clean_linker_0, # of connection points: 2
#     Edge 97, Type (0, 1), BuildingBlock: CIFDUS_clean_linker_0, # of connection points: 2
#     Edge 98, Type (0, 1), BuildingBlock: CIFDUS_clean_linker_0, # of connection points: 2
#     Edge 99, Type (0, 1), BuildingBlock: CIFDUS_clean_linker_0, # of connection points: 2
#     Edge 100, Type (0, 1), BuildingBlock: CIFDUS_clean_linker_0, # of connection points: 2
#     Edge 101, Type (0, 1), BuildingBlock: CIFDUS_clean_linker_0, # of connection points: 2
#     Edge 102, Type (0, 1), BuildingBlock: CIFDUS_clean_linker_0, # of connection points: 2
#     Edge 103, Type (0, 1), BuildingBlock: CIFDUS_clean_linker_0, # of connection points: 2
#     Edge 104, Type (0, 1), BuildingBlock: CIFDUS_clean_linker_0, # of connection points: 2
#     Edge 105, Type (0, 1), BuildingBlock: CIFDUS_clean_linker_0, # of connection points: 2
#     Edge 106, Type (0, 1), BuildingBlock: CIFDUS_clean_linker_0, # of connection points: 2
#     Edge 107, Type (0, 1), BuildingBlock: CIFDUS_clean_linker_0, # of connection points: 2
#     Edge 108, Type (0, 1), BuildingBlock: CIFDUS_clean_linker_0, # of connection points: 2
#     Edge 109, Type (0, 1), BuildingBlock: CIFDUS_clean_linker_0, # of connection points: 2
#     Edge 110, Type (0, 1), BuildingBlock: CIFDUS_clean_linker_0, # of connection points: 2
#     Edge 111, Type (0, 1), BuildingBlock: CIFDUS_clean_linker_0, # of connection points: 2
#     Edge 112, Type (0, 1), BuildingBlock: CIFDUS_clean_linker_0, # of connection points: 2
#     Edge 113, Type (0, 1), BuildingBlock: CIFDUS_clean_linker_0, # of connection points: 2
#     Edge 114, Type (0, 1), BuildingBlock: CIFDUS_clean_linker_0, # of connection points: 2
#     Edge 115, Type (0, 1), BuildingBlock: CIFDUS_clean_linker_0, # of connection points: 2
#     Edge 116, Type (0, 1), BuildingBlock: CIFDUS_clean_linker_0, # of connection points: 2
#     Edge 117, Type (0, 1), BuildingBlock: CIFDUS_clean_linker_0, # of connection points: 2
#     Edge 118, Type (0, 1), BuildingBlock: CIFDUS_clean_linker_0, # of connection points: 2
#     Edge 119, Type (0, 1), BuildingBlock: CIFDUS_clean_linker_0, # of connection points: 2
#     Edge 120, Type (0, 1), BuildingBlock: CIFDUS_clean_linker_0, # of connection points: 2
#     Edge 121, Type (0, 1), BuildingBlock: CIFDUS_clean_linker_0, # of connection points: 2
#     Edge 122, Type (0, 1), BuildingBlock: CIFDUS_clean_linker_0, # of connection points: 2
#     Edge 123, Type (0, 1), BuildingBlock: CIFDUS_clean_linker_0, # of connection points: 2
#     Edge 124, Type (0, 1), BuildingBlock: CIFDUS_clean_linker_0, # of connection points: 2
#     Edge 125, Type (0, 1), BuildingBlock: CIFDUS_clean_linker_0, # of connection points: 2
#     Edge 126, Type (0, 1), BuildingBlock: CIFDUS_clean_linker_0, # of connection points: 2
#     Edge 127, Type (0, 1), BuildingBlock: CIFDUS_clean_linker_0, # of connection points: 2
#     Edge 128, Type (0, 1), BuildingBlock: CIFDUS_clean_linker_0, # of connection points: 2
#     Edge 129, Type (0, 1), BuildingBlock: CIFDUS_clean_linker_0, # of connection points: 2
#     Edge 130, Type (0, 1), BuildingBlock: CIFDUS_clean_linker_0, # of connection points: 2
#     Edge 131, Type (0, 1), BuildingBlock: CIFDUS_clean_linker_0, # of connection points: 2
#     Edge 132, Type (0, 1), BuildingBlock: CIFDUS_clean_linker_0, # of connection points: 2
#     Edge 133, Type (0, 1), BuildingBlock: CIFDUS_clean_linker_0, # of connection points: 2
#     Edge 134, Type (0, 1), BuildingBlock: CIFDUS_clean_linker_0, # of connection points: 2
#     Edge 135, Type (0, 1), BuildingBlock: CIFDUS_clean_linker_0, # of connection points: 2
# Relax obj value: 0.221
# Max RMSD: 0.335
# Mean RMSD: 0.172
data_MOF--net-gar--node1-TATPOV_clean_sbu_0--node2-BETDIP_clean_sbu_0--edge1-CIFDUS_clean_linker_0
_symmetry_space_group_name_H-M    P1
_symmetry_Int_Tables_number       1
_symmetry_cell_setting            triclinic
loop_
_symmetry_equiv_pos_as_xyz
'x, y, z'
_cell_length_a     56.787201
_cell_length_b     50.228634
_cell_length_c     48.185473
_cell_angle_alpha  98.106935
_cell_angle_beta   100.1481
_cell_angle_gamma 103.41136
loop_
_atom_site_label
_atom_site_type_symbol
_atom_site_fract_x
_atom_site_fract_y
_atom_site_fract_z
_atom_type_partial_charge
Zn0 Zn 0.96469 0.34343 0.44054 0.0
Zn1 Zn 1.01083 0.3317 0.38883 0.0
O2 O 0.02222 0.37527 0.40186 0.0
O3 O 0.99071 0.35937 0.41891 0.0
O4 O 0.03618 0.31799 0.37029 0.0
O5 O 0.98235 0.31614 0.45668 0.0
O6 O 1.00735 0.31253 0.42529 0.0
C7 C 1.00839 0.38002 0.41884 0.0
C8 C 0.96161 0.31974 0.37643 0.0
O9 O 0.97649 0.31605 0.36048 0.0
O10 O 0.97137 0.33622 0.40025 0.0
C11 C 0.05685 0.33354 0.36868 0.0
O12 O 0.06252 0.3603 0.3795 0.0
C13 C 0.99913 0.30628 0.44754 0.0
Zn14 Zn 0.08314 0.73193 0.78564 0.0
Zn15 Zn 0.07944 0.7728 0.75357 0.0
O16 O 0.05781 0.77688 0.78176 0.0
O17 O 0.05798 0.74406 0.80746 0.0
O18 O 0.07531 0.80257 0.73132 0.0
O19 O 0.12017 0.75164 0.7972 0.0
O20 O 0.116 0.78313 0.77041 0.0
C21 C 0.05062 0.76499 0.80149 0.0
C22 C 0.0683 0.71224 0.72364 0.0
O23 O 0.069 0.73762 0.72319 0.0
O24 O 0.07304 0.70422 0.74734 0.0
C25 C 0.08065 0.80187 0.70679 0.0
O26 O 0.08936 0.78149 0.69626 0.0
C27 C 0.12962 0.77265 0.7871 0.0
Zn28 Zn 0.51663 0.84043 0.97685 0.0
Zn29 Zn 0.55135 0.84629 0.94494 0.0
O30 O 0.56643 0.87839 0.9792 0.0
O31 O 0.54053 0.87034 1.00797 0.0
O32 O 0.5778 0.84752 0.9223 0.0
O33 O 0.51664 0.80016 0.9762 0.0
O34 O 0.54791 0.80774 0.95459 0.0
C35 C 0.56046 0.88441 1.00312 0.0
C36 C 0.50021 0.85285 0.92131 0.0
O37 O 0.52118 0.85012 0.91751 0.0
O38 O 0.49427 0.8511 0.94525 0.0
C39 C 0.5753 0.84762 0.89558 0.0
O40 O 0.55417 0.84936 0.88069 0.0
C41 C 0.53323 0.79172 0.96594 0.0
Zn42 Zn 0.52463 0.17195 0.24915 0.0
Zn43 Zn 0.53404 0.22052 0.22764 0.0
O44 O 0.51736 0.22875 0.25976 0.0
O45 O 0.50691 0.19045 0.27715 0.0
O46 O 0.53772 0.25488 0.21137 0.0
O47 O 0.56308 0.18029 0.25986 0.0
O48 O 0.56845 0.21891 0.2422 0.0
C49 C 0.50774 0.21595 0.27757 0.0
C50 C 0.506 0.16496 0.18782 0.0
O51 O 0.51609 0.19097 0.19291 0.0
O52 O 0.50608 0.1515 0.20822 0.0
C53 C 0.5181 0.26128 0.20101 0.0
O54 O 0.49647 0.24535 0.20201 0.0
C55 C 0.57736 0.20171 0.25472 0.0
Zn56 Zn 0.12536 0.82166 0.13532 0.0
Zn57 Zn 0.09188 0.82172 0.16803 0.0
O58 O 0.09019 0.85495 0.14573 0.0
O59 O 0.11909 0.85572 0.12056 0.0
O60 O 0.06425 0.82068 0.19091 0.0
O61 O 0.10745 0.78203 0.1152 0.0
O62 O 0.08095 0.78175 0.14348 0.0
C63 C 0.10237 0.86593 0.12835 0.0
C64 C 0.14722 0.82673 0.19503 0.0
O65 O 0.12514 0.82627 0.19805 0.0
O66 O 0.1521 0.82575 0.17032 0.0
C67 C 0.06228 0.80552 0.20992 0.0
O68 O 0.07894 0.79161 0.21562 0.0
C69 C 0.08908 0.76906 0.12392 0.0
Zn70 Zn 0.49085 0.77465 0.4896 0.0
Zn71 Zn 0.52276 0.77373 0.45686 0.0
O72 O 0.53455 0.81412 0.48246 0.0
O73 O 0.50972 0.81247 0.51275 0.0
O74 O 0.55073 0.77316 0.43437 0.0
O75 O 0.49322 0.73869 0.50246 0.0
O76 O 0.52195 0.73851 0.4773 0.0
C77 C 0.52735 0.82612 0.5034 0.0
C78 C 0.4686 0.77296 0.43076 0.0
O79 O 0.48987 0.77089 0.42661 0.0
O80 O 0.46451 0.77477 0.45586 0.0
C81 C 0.55873 0.79296 0.4217 0.0
O82 O 0.54808 0.81358 0.42203 0.0
C83 C 0.50892 0.72721 0.49384 0.0
Zn84 Zn 0.62648 0.32751 0.64382 0.0
Zn85 Zn 0.59059 0.31782 0.67339 0.0
O86 O 0.58675 0.35202 0.65374 0.0
O87 O 0.61702 0.36108 0.63077 0.0
O88 O 0.56116 0.31245 0.69378 0.0
O89 O 0.61282 0.28803 0.62058 0.0
O90 O 0.58456 0.27937 0.64641 0.0
C91 C 0.59827 0.3669 0.63832 0.0
C92 C 0.6459 0.32899 0.70379 0.0
O93 O 0.62298 0.32406 0.70499 0.0
O94 O 0.65216 0.3322 0.68025 0.0
C95 C 0.56342 0.31988 0.72074 0.0
O96 O 0.58574 0.33096 0.73691 0.0
C97 C 0.59526 0.27096 0.62694 0.0
Zn98 Zn 0.98343 0.27056 0.99451 0.0
Zn99 Zn 1.01588 0.27364 0.95926 0.0
O100 O 0.0258 0.31316 0.98451 0.0
O101 O 1.00101 0.31048 0.01497 0.0
O102 O 0.04177 0.27642 0.93439 0.0
O103 O 0.99293 0.23634 1.00719 0.0
O104 O 0.02062 0.24105 0.98029 0.0
C105 C 0.01823 0.32465 1.00535 0.0
C106 C 0.96017 0.26577 0.93458 0.0
O107 O 0.98196 0.26671 0.93048 0.0
O108 O 0.95606 0.26703 0.95968 0.0
C109 C 0.06386 0.27558 0.94447 0.0
O110 O 0.06977 0.27245 0.97121 0.0
C111 C 1.01023 0.22839 0.99795 0.0
Zn112 Zn 0.45319 0.04002 0.3072 0.0
Zn113 Zn 0.42689 0.07684 0.30953 0.0
O114 O 0.45212 0.08241 0.35327 0.0
O115 O 0.47071 0.04852 0.34901 0.0
O116 O 0.40758 0.11339 0.31339 0.0
O117 O 0.47153 0.05055 0.27614 0.0
O118 O 0.44556 0.07681 0.27007 0.0
C119 C 0.46662 0.06848 0.36487 0.0
C120 C 0.40221 1.01041 0.30065 0.0
O121 O 0.39989 0.03565 0.30613 0.0
O122 O 0.42297 1.00701 0.29713 0.0
C123 C 0.38865 0.11987 0.29864 0.0
O124 O 0.37609 0.10228 0.275 0.0
C125 C 0.46265 0.06625 0.26136 0.0
Zn126 Zn 0.24032 0.20857 0.54035 0.0
Zn127 Zn 0.27191 0.17748 0.543 0.0
O128 O 0.27876 0.19984 0.51032 0.0
O129 O 0.25303 0.22674 0.51014 0.0
O130 O 0.29614 0.15291 0.54431 0.0
O131 O 0.25493 0.22642 0.58143 0.0
O132 O 0.28275 0.20227 0.58332 0.0
C133 C 0.27007 0.21881 0.50056 0.0
C134 C 0.21465 0.15236 0.53365 0.0
O135 O 0.23687 0.14988 0.5383 0.0
O136 O 0.2108 0.17583 0.5313 0.0
C137 C 0.3195 0.16366 0.54937 0.0
O138 O 0.3278 0.19088 0.55296 0.0
C139 C 0.27345 0.2204 0.59532 0.0
Zn140 Zn 0.13454 0.11022 0.8457 0.0
Zn141 Zn 0.15779 0.06916 0.84095 0.0
O142 O 0.13968 0.06074 0.87311 0.0
O143 O 0.12189 0.0951 0.879 0.0
O144 O 0.17461 0.03874 0.83573 0.0
O145 O 0.11572 0.09478 0.80406 0.0
O146 O 0.13524 0.06177 0.80153 0.0
C147 C 0.12637 0.07309 0.88604 0.0
C148 C 0.18744 0.13086 0.85231 0.0
O149 O 0.18636 0.10492 0.84862 0.0
O150 O 0.16783 0.13876 0.85255 0.0
C151 C 0.18397 0.02751 0.8554 0.0
O152 O 0.18346 0.03641 0.88222 0.0
C153 C 0.11974 0.07367 0.78984 0.0
Zn154 Zn 0.24873 0.81057 1.0071 0.0
Zn155 Zn 0.24053 0.85907 0.02371 0.0
O156 O 0.23823 0.85558 0.98021 0.0
O157 O 0.23906 0.81243 0.96543 0.0
O158 O 0.22924 0.89323 0.03487 0.0
O159 O 0.22428 0.78942 0.02665 0.0
O160 O 0.21901 0.83037 0.04211 0.0
C161 C 0.23751 0.83594 0.95999 0.0
C162 C 0.29233 0.85438 0.04139 0.0
O163 O 0.27699 0.86917 0.04255 0.0
O164 O 0.28492 0.82917 0.02825 0.0
C165 C 0.20601 0.89044 0.02883 0.0
O166 O 0.19131 0.86624 0.01486 0.0
C167 C 0.21413 0.80421 0.04161 0.0
Zn168 Zn 0.36354 0.37914 0.09839 0.0
Zn169 Zn 0.33521 0.41335 0.09782 0.0
O170 O 0.32438 0.38908 0.05672 0.0
O171 O 0.34689 0.35889 0.05895 0.0
O172 O 0.30937 0.43635 0.09717 0.0
O173 O 0.35412 0.36354 0.13157 0.0
O174 O 0.32913 0.39123 0.13113 0.0
C175 C 0.33085 0.36838 0.04479 0.0
C176 C 0.39161 0.43506 0.10231 0.0
O177 O 0.3707 0.44067 0.1023 0.0
O178 O 0.3933 0.41033 0.10171 0.0
C179 C 0.28694 0.42189 0.09297 0.0
O180 O 0.2827 0.39467 0.08989 0.0
C181 C 0.33782 0.37261 0.14166 0.0
Zn182 Zn 0.87217 0.27422 0.15364 0.0
Zn183 Zn 0.87084 0.22205 0.13254 0.0
O184 O 0.89459 0.24742 0.11411 0.0
O185 O 0.89728 0.29095 0.13184 0.0
O186 O 0.8752 0.1843 0.11882 0.0
O187 O 0.88179 0.26933 0.19451 0.0
O188 O 0.87366 0.22487 0.17571 0.0
C189 C 0.90319 0.27333 0.11481 0.0
C190 C 0.82353 0.23824 0.11968 0.0
O191 O 0.83532 0.21993 0.11539 0.0
O192 O 0.83477 0.26214 0.13487 0.0
C193 C 0.87272 0.17586 0.09207 0.0
O194 O 0.8665 0.19171 0.07408 0.0
C195 C 0.87787 0.24417 0.19755 0.0
Zn196 Zn 0.15502 0.56499 0.33603 0.0
Zn197 Zn 0.17904 0.52618 0.33476 0.0
O198 O 0.16089 0.52824 0.37464 0.0
O199 O 0.13875 0.5585 0.36952 0.0
O200 O 0.1959 0.48803 0.33296 0.0
O201 O 0.13564 0.55388 0.29467 0.0
O202 O 0.15348 0.51932 0.2913 0.0
C203 C 0.1458 0.54164 0.38416 0.0
C204 C 0.20592 0.59193 0.33961 0.0
O205 O 0.20728 0.5662 0.33585 0.0
O206 O 0.18562 0.59685 0.34288 0.0
C207 C 0.2181 0.4842 0.33955 0.0
O208 O 0.2366 0.50654 0.35007 0.0
C209 C 0.13901 0.53305 0.27936 0.0
Zn210 Zn 0.85893 0.87222 0.59169 0.0
Zn211 Zn 0.82527 0.90096 0.58679 0.0
O212 O 0.81517 0.87509 0.54659 0.0
O213 O 0.84404 0.85234 0.55086 0.0
O214 O 0.80082 0.92545 0.58613 0.0
O215 O 0.84765 0.85552 0.62397 0.0
O216 O 0.8198 0.87977 0.62098 0.0
C217 C 0.82541 0.8572 0.53579 0.0
C218 C 0.88207 0.929 0.59463 0.0
O219 O 0.85939 0.92985 0.59016 0.0
O220 O 0.88737 0.90644 0.59828 0.0
C221 C 0.77737 0.91633 0.5826 0.0
O222 O 0.76759 0.88934 0.57891 0.0
C223 C 0.82987 0.86262 0.63267 0.0
Zn224 Zn 0.98258 0.96177 0.27705 0.0
Zn225 Zn 0.9562 1.0001 0.28387 0.0
O226 O 0.97762 1.00506 0.32367 0.0
O227 O 1.00154 0.97674 0.31864 0.0
O228 O 0.93637 0.02755 0.28941 0.0
O229 O 0.99258 0.97939 0.24353 0.0
O230 O 0.97426 1.01267 0.25331 0.0
C231 C 0.99475 0.9947 0.33438 0.0
C232 C 0.92993 0.93789 0.26944 0.0
O233 O 0.92931 0.96325 0.27238 0.0
O234 O 0.9504 0.93154 0.27135 0.0
C235 C 0.92271 0.02477 0.30757 0.0
O236 O 0.92266 1.00453 0.32214 0.0
C237 C 0.98734 1.00176 0.23871 0.0
Zn238 Zn 0.36474 0.72669 0.65923 0.0
Zn239 Zn 0.37061 0.67609 0.6302 0.0
O240 O 0.37595 0.70685 0.606 0.0
O241 O 0.36252 0.74228 0.62356 0.0
O242 O 0.37859 0.64505 0.60632 0.0
O243 O 0.40032 0.7229 0.66995 0.0
O244 O 0.3879 0.68024 0.67242 0.0
C245 C 0.37078 0.73003 0.6041 0.0
C246 C 0.32288 0.674 0.64654 0.0
O247 O 0.33494 0.66363 0.63007 0.0
O248 O 0.33245 0.69791 0.66263 0.0
C249 C 0.36221 0.6274 0.58667 0.0
O250 O 0.33879 0.62748 0.58358 0.0
C251 C 0.39898 0.70478 0.68551 0.0
Zn252 Zn 0.48777 0.48131 0.78824 0.0
Zn253 Zn 0.45905 0.51676 0.7951 0.0
O254 O 0.48293 0.52706 0.83427 0.0
O255 O 0.50738 0.49939 0.82904 0.0
O256 O 0.43743 0.54297 0.79868 0.0
O257 O 0.49595 0.49636 0.75301 0.0
O258 O 0.47417 0.52654 0.7609 0.0
C259 C 0.50112 0.51803 0.84454 0.0
C260 C 0.43696 0.45308 0.78559 0.0
O261 O 0.43476 0.47797 0.78933 0.0
O262 O 0.4578 0.44869 0.78391 0.0
C263 C 0.44416 0.56757 0.79395 0.0
O264 O 0.46561 0.5759 0.78686 0.0
C265 C 0.48784 0.51659 0.74634 0.0
Zn266 Zn 0.65411 0.05952 0.83861 0.0
Zn267 Zn 0.67818 0.02097 0.837 0.0
O268 O 0.65953 0.02308 0.87659 0.0
O269 O 0.63548 0.05129 0.87001 0.0
O270 O 0.69591 0.98314 0.83532 0.0
O271 O 0.63692 0.05061 0.79654 0.0
O272 O 0.65288 1.01456 0.7932 0.0
C273 C 0.6433 0.03523 0.8852 0.0
C274 C 0.7051 0.08692 0.84414 0.0
O275 O 0.70631 0.0612 0.83893 0.0
O276 O 0.6849 0.09163 0.84817 0.0
C277 C 0.71845 0.97986 0.83981 0.0
O278 O 0.73683 1.00262 0.84755 0.0
C279 C 0.63949 0.02934 0.78114 0.0
Zn280 Zn 0.73003 0.70004 0.02813 0.0
Zn281 Zn 0.76784 0.67736 0.03446 0.0
O282 O 0.77082 0.69701 0.99886 0.0
O283 O 0.73722 0.71218 0.99195 0.0
O284 O 0.79601 0.6579 0.03905 0.0
O285 O 0.74394 0.72507 0.06671 0.0
O286 O 0.77384 0.70404 0.07398 0.0
C287 C 0.7568 0.70913 0.98436 0.0
C288 C 0.7137 0.6423 0.02788 0.0
O289 O 0.73669 0.64388 0.02953 0.0
O290 O 0.70584 0.66382 0.02719 0.0
C291 C 0.81806 0.66669 0.03561 0.0
O292 O 0.82467 0.6911 0.02825 0.0
C293 C 0.76254 0.7216 0.08314 0.0
Zn294 Zn 0.94874 0.5322 0.80345 0.0
Zn295 Zn 0.92501 0.5713 0.80575 0.0
O296 O 0.95089 0.57759 0.84903 0.0
O297 O 0.9681 0.54254 0.8448 0.0
O298 O 0.90798 0.60956 0.80786 0.0
O299 O 0.96524 0.53953 0.77034 0.0
O300 O 0.94351 0.57027 0.76611 0.0
C301 C 0.96519 0.56342 0.8605 0.0
C302 C 0.89799 0.505 0.79949 0.0
O303 O 0.89674 0.53078 0.80393 0.0
O304 O 0.91825 0.50016 0.79591 0.0
C305 C 0.88567 0.61347 0.80394 0.0
O306 O 0.86691 0.59107 0.79688 0.0
C307 C 0.95855 0.55699 0.7563 0.0
Zn308 Zn 0.79732 0.40342 0.5561 0.0
Zn309 Zn 0.75989 0.41929 0.52816 0.0
O310 O 0.76379 0.39178 0.49549 0.0
O311 O 0.79504 0.37858 0.51818 0.0
O312 O 0.7331 0.43544 0.51183 0.0
O313 O 0.7761 0.38816 0.58217 0.0
O314 O 0.74438 0.3992 0.55753 0.0
C315 C 0.77895 0.37671 0.49559 0.0
C316 C 0.81058 0.46107 0.55834 0.0
O317 O 0.7887 0.45475 0.54297 0.0
O318 O 0.81938 0.44228 0.56761 0.0
C319 C 0.73711 0.45653 0.49986 0.0
O320 O 0.7583 0.46422 0.492 0.0
C321 C 0.75353 0.38838 0.57773 0.0
Zn322 Zn 0.64105 0.59314 0.35203 0.0
Zn323 Zn 0.66188 0.55119 0.34449 0.0
O324 O 0.64674 0.54705 0.38009 0.0
O325 O 0.63348 0.58443 0.38952 0.0
O326 O 0.67695 0.51836 0.34204 0.0
O327 O 0.61701 0.57681 0.31409 0.0
O328 O 0.63707 0.54497 0.30556 0.0
C329 C 0.6372 0.562 0.39605 0.0
C330 C 0.69238 0.61132 0.35026 0.0
O331 O 0.6916 0.5856 0.34914 0.0
O332 O 0.67309 0.61969 0.351 0.0
C333 C 0.6912 0.51635 0.36475 0.0
O334 O 0.69616 0.53608 0.3876 0.0
C335 C 0.62027 0.55692 0.29719 0.0
Tb336 Tb 0.0213 0.02342 0.03903 0.0
Tb337 Tb 0.0715 0.05799 0.07424 0.0
C338 C 0.97535 1.00526 0.02061 0.0
C339 C 0.95595 0.02019 0.01628 0.0
C340 C 0.93451 1.0118 0.02689 0.0
C341 C 0.91855 0.02906 0.0288 0.0
C342 C 0.92382 0.05499 0.0201 0.0
C343 C 0.9444 0.06242 1.00762 0.0
C344 C 0.96038 0.04522 1.00582 0.0
C345 C 0.05676 0.03478 0.01057 0.0
C346 C 0.03402 0.09069 0.052 0.0
C347 C 0.11769 0.0767 0.08981 0.0
C348 C 0.13739 0.06242 0.09536 0.0
C349 C 0.15814 0.06932 0.08311 0.0
C350 C 0.17348 0.05133 0.08109 0.0
C351 C 0.1681 0.02621 0.0912 0.0
C352 C 0.14874 0.02067 0.10584 0.0
C353 C 0.13342 0.03858 0.10783 0.0
C354 C 0.03646 0.04706 0.10336 0.0
C355 C 0.05708 0.99006 0.06467 0.0
O356 O 0.98629 1.00786 0.04751 0.0
O357 O 0.99117 1.00808 1.00375 0.0
O358 O 0.05272 0.05044 0.03084 0.0
O359 O 0.03941 1.01151 1.00417 0.0
O360 O 0.01691 0.0664 0.0459 0.0
O361 O 0.05781 0.09238 0.06118 0.0
O362 O 0.10567 0.07091 0.06296 0.0
O363 O 0.10276 0.07623 0.10774 0.0
O364 O 0.03999 0.03147 0.08262 0.0
O365 O 0.05438 0.06993 0.1099 0.0
O366 O 0.07473 1.01415 0.07167 0.0
O367 O 0.0339 0.98891 0.05284 0.0
H368 H 0.93084 0.99265 0.0352 0.0
H369 H 0.90266 0.0227 0.03822 0.0
H370 H 0.94912 0.08239 1.00105 0.0
H371 H 0.97694 0.05235 0.99779 0.0
H372 H 0.16138 0.08752 0.07318 0.0
H373 H 0.18827 0.05595 0.06963 0.0
H374 H 0.14449 1.00157 0.11412 0.0
H375 H 0.11749 0.03271 0.1173 0.0
Tb376 Tb 0.30752 0.78442 0.2864 0.0
Tb377 Tb 0.30329 0.81403 0.34778 0.0
C378 C 0.29635 0.76251 0.23415 0.0
C379 C 0.27347 0.7512 0.21207 0.0
C380 C 0.25032 0.75214 0.21803 0.0
C381 C 0.22945 0.74635 0.19556 0.0
C382 C 0.23146 0.73854 0.16708 0.0
C383 C 0.25425 0.73506 0.16172 0.0
C384 C 0.27512 0.74159 0.18403 0.0
C385 C 0.34766 0.78804 0.32657 0.0
C386 C 0.3278 0.85206 0.30636 0.0
C387 C 0.31264 0.83317 0.40051 0.0
C388 C 0.32457 0.82481 0.42605 0.0
C389 C 0.33406 0.80146 0.42336 0.0
C390 C 0.34613 0.794 0.44764 0.0
C391 C 0.34767 0.80882 0.47528 0.0
C392 C 0.33757 0.83198 0.47773 0.0
C393 C 0.32642 0.8401 0.45327 0.0
C394 C 0.26462 0.81246 0.30617 0.0
C395 C 0.28276 0.7474 0.32816 0.0
O396 O 0.29949 0.74847 0.25479 0.0
O397 O 0.30221 0.7895 0.2436 0.0
O398 O 0.32838 0.79568 0.32903 0.0
O399 O 0.34472 0.77771 0.29959 0.0
O400 O 0.32293 0.82933 0.28578 0.0
O401 O 0.3224 0.8507 0.33206 0.0
O402 O 0.32728 0.84171 0.38348 0.0
O403 O 0.29139 0.81603 0.38651 0.0
O404 O 0.28279 0.80243 0.30521 0.0
O405 O 0.26754 0.82405 0.33278 0.0
O406 O 0.29228 0.76916 0.34983 0.0
O407 O 0.28367 0.74997 0.30119 0.0
H408 H 0.24869 0.75868 0.23984 0.0
H409 H 0.21215 0.74929 0.20021 0.0
H410 H 0.25649 0.72952 0.13996 0.0
H411 H 0.29284 0.74053 0.17915 0.0
H412 H 0.33212 0.78897 0.40244 0.0
H413 H 0.35404 0.77645 0.44456 0.0
H414 H 0.33764 0.84353 0.49849 0.0
H415 H 0.31886 0.85801 0.45564 0.0
Tb416 Tb 0.57817 0.05152 0.56406 0.0
Tb417 Tb 0.52766 0.04097 0.58139 0.0
C418 C 0.62327 0.0542 0.56479 0.0
C419 C 0.64045 0.03641 0.56979 0.0
C420 C 0.66247 0.04188 0.55972 0.0
C421 C 0.6784 0.02443 0.56251 0.0
C422 C 0.67269 1.00098 0.57548 0.0
C423 C 0.65067 0.99582 0.58596 0.0
C424 C 0.6347 1.0133 0.58308 0.0
C425 C 0.54252 0.05527 0.51978 0.0
C426 C 0.5435 0.98954 0.55512 0.0
C427 C 0.4842 0.04123 0.58606 0.0
C428 C 0.46692 0.05911 0.58121 0.0
C429 C 0.4442 0.04825 0.56126 0.0
C430 C 0.42716 0.06426 0.55692 0.0
C431 C 0.43233 0.0916 0.57255 0.0
C432 C 0.45516 0.10247 0.59251 0.0
C433 C 0.47223 0.08646 0.59678 0.0
C434 C 0.56492 0.03318 0.62045 0.0
C435 C 0.56043 0.10377 0.58606 0.0
O436 O 0.61534 0.06432 0.58688 0.0
O437 O 0.60552 0.04503 0.54174 0.0
O438 O 0.54081 0.04894 0.54411 0.0
O439 O 0.5661 0.06055 0.5204 0.0
O440 O 0.56636 1.0058 0.55963 0.0
O441 O 0.52449 0.99974 0.5583 0.0
O442 O 0.48947 0.02866 0.56312 0.0
O443 O 0.50365 0.0507 0.60739 0.0
O444 O 0.56599 0.05141 0.60443 0.0
O445 O 0.5417 0.01954 0.61542 0.0
O446 O 0.53899 0.08647 0.58647 0.0
O447 O 0.57929 0.09495 0.57909 0.0
H448 H 0.66716 0.05946 0.54917 0.0
H449 H 0.69487 0.02892 0.55374 0.0
H450 H 0.64573 0.97823 0.59639 0.0
H451 H 0.61775 1.00861 0.59094 0.0
H452 H 0.43956 0.02721 0.54901 0.0
H453 H 0.41001 0.05526 0.54106 0.0
H454 H 0.45973 0.12325 0.60528 0.0
H455 H 0.48948 0.09548 0.61247 0.0
Tb456 Tb 0.28052 0.30827 0.81726 0.0
Tb457 Tb 0.33098 0.29307 0.82111 0.0
C458 C 0.23737 0.3111 0.82079 0.0
C459 C 0.21896 0.30382 0.83867 0.0
C460 C 0.19439 0.28952 0.82514 0.0
C461 C 0.17611 0.28397 0.84117 0.0
C462 C 0.18192 0.29271 0.8712 0.0
C463 C 0.20673 0.30653 0.88479 0.0
C464 C 0.22505 0.31198 0.86873 0.0
C465 C 0.31627 0.34557 0.80512 0.0
C466 C 0.31621 0.31425 0.87792 0.0
C467 C 0.37433 0.29046 0.81791 0.0
C468 C 0.39352 0.29578 0.80043 0.0
C469 C 0.41594 0.31625 0.81224 0.0
C470 C 0.4356 0.31954 0.79795 0.0
C471 C 0.43358 0.30213 0.77154 0.0
C472 C 0.41085 0.28204 0.75938 0.0
C473 C 0.3911 0.2789 0.77362 0.0
C474 C 0.29485 0.25572 0.83288 0.0
C475 C 0.29478 0.28603 0.76058 0.0
O476 O 0.24199 0.29033 0.80489 0.0
O477 O 0.25744 0.33131 0.83241 0.0
O478 O 0.31879 0.33028 0.82343 0.0
O479 O 0.29287 0.34299 0.79593 0.0
O480 O 0.29331 0.31043 0.86319 0.0
O481 O 0.33486 0.31175 0.86558 0.0
O482 O 0.36934 0.31213 0.83182 0.0
O483 O 0.35447 0.26964 0.80755 0.0
O484 O 0.29287 0.27144 0.81498 0.0
O485 O 0.31817 0.25795 0.84237 0.0
O486 O 0.31784 0.29017 0.77504 0.0
O487 O 0.27632 0.28864 0.77318 0.0
H488 H 0.18924 0.28292 0.802 0.0
H489 H 0.15739 0.2728 0.82995 0.0
H490 H 0.21195 0.31382 0.90782 0.0
H491 H 0.24384 0.323 0.87981 0.0
H492 H 0.41848 0.32948 0.83293 0.0
H493 H 0.45249 0.33566 0.80781 0.0
H494 H 0.40855 0.26802 0.73927 0.0
H495 H 0.37421 0.26269 0.76397 0.0
Tb496 Tb 0.04069 0.07346 0.56627 0.0
Tb497 Tb 0.05139 0.01792 0.56064 0.0
C498 C 0.04397 0.12476 0.57659 0.0
C499 C 0.03666 0.14547 0.5607 0.0
C500 C 0.05391 0.17107 0.56287 0.0
C501 C 0.04726 0.19139 0.54853 0.0
C502 C 0.02315 0.18645 0.53203 0.0
C503 C 1.00599 0.16064 0.52952 0.0
C504 C 1.01273 0.14022 0.54361 0.0
C505 C 1.00364 0.03206 0.56962 0.0
C506 C 0.02615 0.03866 0.50497 0.0
C507 C 0.04818 0.96664 0.54981 0.0
C508 C 0.05099 0.94413 0.56554 0.0
C509 C 0.03611 0.93635 0.58497 0.0
C510 C 0.03961 0.91521 0.5999 0.0
C511 C 0.05807 0.90154 0.59571 0.0
C512 C 0.07266 0.90914 0.57595 0.0
C513 C 0.06907 0.93016 0.56095 0.0
C514 C 0.08878 0.05893 0.55804 0.0
C515 C 0.06659 0.05404 0.62149 0.0
O516 O 0.06137 0.11446 0.56859 0.0
O517 O 0.02609 0.10575 0.58175 0.0
O518 O 0.02632 0.03553 0.57998 0.0
O519 O 1.00081 0.05322 0.55801 0.0
O520 O 0.02981 0.06386 0.52004 0.0
O521 O 0.03172 0.01805 0.51695 0.0
O522 O 0.02909 0.97681 0.55138 0.0
O523 O 0.06853 0.98604 0.5517 0.0
O524 O 0.06618 0.05584 0.54721 0.0
O525 O 0.09109 0.03769 0.56971 0.0
O526 O 0.06012 0.02795 0.60739 0.0
O527 O 0.06354 0.07471 0.60824 0.0
H528 H 0.07248 0.17543 0.5759 0.0
H529 H 0.06075 0.2112 0.5509 0.0
H530 H 0.98738 0.15627 0.51663 0.0
H531 H 0.99917 0.12047 0.5413 0.0
H532 H 0.02186 0.94657 0.58876 0.0
H533 H 0.02782 0.9095 0.61466 0.0
H534 H 0.08721 0.89925 0.5725 0.0
H535 H 0.08067 0.93576 0.54594 0.0
Tb536 Tb 0.32588 0.78978 0.8143 0.0
Tb537 Tb 0.32098 0.84045 0.78905 0.0
C538 C 0.32697 0.74092 0.81919 0.0
C539 C 0.34278 0.72265 0.81264 0.0
C540 C 0.33184 0.6941 0.80289 0.0
C541 C 0.34637 0.67613 0.7966 0.0
C542 C 0.37217 0.68642 0.80017 0.0
C543 C 0.38299 0.71526 0.80917 0.0
C544 C 0.36838 0.73328 0.81527 0.0
C545 C 0.31939 0.83132 0.85054 0.0
C546 C 0.37155 0.83949 0.82503 0.0
C547 C 0.31006 0.88307 0.77583 0.0
C548 C 0.28916 0.89488 0.77849 0.0
C549 C 0.27342 0.8857 0.7966 0.0
C550 C 0.25509 0.89897 0.80142 0.0
C551 C 0.25224 0.92153 0.78812 0.0
C552 C 0.26738 0.92982 0.76903 0.0
C553 C 0.28576 0.91659 0.76431 0.0
C554 C 0.34273 0.8073 0.76127 0.0
C555 C 0.27209 0.79253 0.78687 0.0
O556 O 0.31412 0.74706 0.7969 0.0
O557 O 0.33678 0.76253 0.84003 0.0
O558 O 0.31003 0.82366 0.82424 0.0
O559 O 0.33164 0.81368 0.85786 0.0
O560 O 0.36413 0.81203 0.81793 0.0
O561 O 0.356 0.85517 0.82068 0.0
O562 O 0.32435 0.88297 0.80038 0.0
O563 O 0.30493 0.85952 0.75744 0.0
O564 O 0.32498 0.80045 0.77325 0.0
O565 O 0.34785 0.83397 0.76275 0.0
O566 O 0.28196 0.81644 0.77947 0.0
O567 O 0.28576 0.77914 0.80168 0.0
H568 H 0.31203 0.68567 0.80023 0.0
H569 H 0.33739 0.65414 0.78905 0.0
H570 H 0.4028 0.72383 0.81216 0.0
H571 H 0.37708 0.7554 0.82224 0.0
H572 H 0.27582 0.86885 0.80768 0.0
H573 H 0.2435 0.89201 0.816 0.0
H574 H 0.26575 0.94734 0.75874 0.0
H575 H 0.29782 0.92387 0.7503 0.0
Tb576 Tb 0.53198 0.0314 0.05882 0.0
Tb577 Tb 0.57773 0.07728 0.09103 0.0
C578 C 0.50067 0.98484 0.04491 0.0
C579 C 0.47667 0.97187 0.05095 0.0
C580 C 0.46647 0.98598 0.07104 0.0
C581 C 0.44314 0.97352 0.07569 0.0
C582 C 0.42959 0.94684 0.06018 0.0
C583 C 0.44015 0.93277 0.04032 0.0
C584 C 0.46348 0.94518 0.03582 0.0
C585 C 0.52787 0.08273 0.05769 0.0
C586 C 0.53431 0.05949 0.12583 0.0
C587 C 0.60952 0.12335 0.10398 0.0
C588 C 0.63374 0.1348 0.09737 0.0
C589 C 0.64002 0.1623 0.09291 0.0
C590 C 0.66345 0.174 0.08809 0.0
C591 C 0.68112 0.15843 0.08789 0.0
C592 C 0.67439 0.13055 0.09154 0.0
C593 C 0.6509 0.1188 0.09605 0.0
C594 C 0.57999 0.02663 0.09467 0.0
C595 C 0.57548 0.04869 0.02412 0.0
O596 O 0.51988 0.99101 0.06653 0.0
O597 O 0.5008 1.0047 0.02989 0.0
O598 O 0.53965 0.07374 0.07717 0.0
O599 O 0.51534 0.06103 0.0382 0.0
O600 O 0.52272 0.03934 0.10278 0.0
O601 O 0.55548 0.0777 0.12507 0.0
O602 O 0.59023 0.11736 0.08246 0.0
O603 O 0.60861 0.10419 0.12 0.0
O604 O 0.56999 0.0349 0.07343 0.0
O605 O 0.59275 0.04807 0.11429 0.0
O606 O 0.58757 0.06815 0.04756 0.0
O607 O 0.5536 0.03155 0.02418 0.0
H608 H 0.4764 1.00669 0.08286 0.0
H609 H 0.43566 0.98484 0.09129 0.0
H610 H 0.43008 0.91248 0.02756 0.0
H611 H 0.47107 0.93409 0.02013 0.0
H612 H 0.62691 0.17485 0.09355 0.0
H613 H 0.66781 0.19534 0.08485 0.0
H614 H 0.68755 0.11801 0.09193 0.0
H615 H 0.64637 0.09741 0.09914 0.0
Tb616 Tb 0.27619 0.28206 0.30817 0.0
Tb617 Tb 0.32565 0.31841 0.3374 0.0
C618 C 0.23124 0.2569 0.30094 0.0
C619 C 0.20879 0.2665 0.30221 0.0
C620 C 0.19096 0.25222 0.31541 0.0
C621 C 0.1715 0.26328 0.32105 0.0
C622 C 0.16947 0.28888 0.31357 0.0
C623 C 0.18687 0.30259 0.29928 0.0
C624 C 0.20639 0.29154 0.29373 0.0
C625 C 0.30131 0.30598 0.27364 0.0
C626 C 0.28139 0.34886 0.33147 0.0
C627 C 0.37083 0.34267 0.34755 0.0
C628 C 0.39215 0.33095 0.35348 0.0
C629 C 0.41228 0.33921 0.34067 0.0
C630 C 0.42919 0.32309 0.33924 0.0
C631 C 0.42603 0.29844 0.35048 0.0
C632 C 0.40712 0.29165 0.36554 0.0
C633 C 0.39025 0.30772 0.36695 0.0
C634 C 0.30064 0.29323 0.37152 0.0
C635 C 0.32094 0.25185 0.31285 0.0
O636 O 0.24711 0.26237 0.32557 0.0
O637 O 0.24209 0.26208 0.27969 0.0
O638 O 0.30061 0.31678 0.29862 0.0
O639 O 0.28617 0.28113 0.26643 0.0
O640 O 0.26649 0.32302 0.32158 0.0
O641 O 0.30591 0.35206 0.33741 0.0
O642 O 0.35718 0.33333 0.3215 0.0
O643 O 0.35749 0.34296 0.36714 0.0
O644 O 0.30157 0.28339 0.34642 0.0
O645 O 0.31545 0.31819 0.37911 0.0
O646 O 0.3355 0.27744 0.32504 0.0
O647 O 0.29642 0.24856 0.30492 0.0
H648 H 0.19269 0.23307 0.32246 0.0
H649 H 0.1587 0.25234 0.33246 0.0
H650 H 0.18568 0.32214 0.29288 0.0
H651 H 0.22004 0.30306 0.28368 0.0
H652 H 0.41386 0.35687 0.32989 0.0
H653 H 0.44348 0.32868 0.32728 0.0
H654 H 0.40446 0.27291 0.37463 0.0
H655 H 0.37471 0.30079 0.37676 0.0
Tb656 Tb 0.56381 0.5524 0.07586 0.0
Tb657 Tb 0.56311 0.49236 0.0617 0.0
C658 C 0.57376 0.60409 0.07855 0.0
C659 C 0.56502 0.62209 0.06015 0.0
C660 C 0.58012 0.64874 0.06158 0.0
C661 C 0.57197 0.66627 0.04434 0.0
C662 C 0.54854 0.65735 0.02552 0.0
C663 C 0.5336 0.63038 0.02375 0.0
C664 C 0.54189 0.61275 0.04085 0.0
C665 C 0.52159 0.5183 0.07747 0.0
C666 C 0.5506 0.52081 1.00998 0.0
C667 C 0.55528 0.44053 0.05696 0.0
C668 C 0.55394 0.42104 0.07681 0.0
C669 C 0.56859 0.4288 0.10478 0.0
C670 C 0.56666 0.41018 0.12366 0.0
C671 C 0.54996 0.38361 0.11481 0.0
C672 C 0.53527 0.37598 0.08678 0.0
C673 C 0.53726 0.3946 0.06791 0.0
C674 C 0.60478 0.5284 0.06087 0.0
C675 C 0.57623 0.52305 0.12701 0.0
O676 O 0.58641 0.58833 0.06747 0.0
O677 O 0.55746 0.5906 0.09119 0.0
O678 O 0.53496 0.51448 0.05961 0.0
O679 O 0.53064 0.54294 0.09318 0.0
O680 O 0.5556 0.54468 0.02842 0.0
O681 O 0.55 0.49689 0.01844 0.0
O682 O 0.53761 0.45328 0.05452 0.0
O683 O 0.57714 0.45732 0.05892 0.0
O684 O 0.59122 0.5302 0.07864 0.0
O685 O 0.5957 0.5049 0.04297 0.0
O686 O 0.56745 0.49907 0.10858 0.0
O687 O 0.58008 0.54722 0.11836 0.0
H688 H 0.5981 0.65608 0.07624 0.0
H689 H 0.58368 0.68711 0.04634 0.0
H690 H 0.51555 0.62305 1.00927 0.0
H691 H 0.53018 0.59196 0.03923 0.0
H692 H 0.58149 0.44921 0.112 0.0
H693 H 0.57802 0.41664 0.14524 0.0
H694 H 0.52248 0.35548 0.07933 0.0
H695 H 0.52578 0.38839 0.04638 0.0
Tb696 Tb 0.77031 0.20317 0.34416 0.0
Tb697 Tb 0.77105 0.26171 0.33539 0.0
C698 C 0.76748 0.152 0.33673 0.0
C699 C 0.78566 0.13566 0.33653 0.0
C700 C 0.81058 0.14875 0.33783 0.0
C701 C 0.82788 0.1331 0.33762 0.0
C702 C 0.8205 0.10411 0.33606 0.0
C703 C 0.79549 0.09114 0.33496 0.0
C704 C 0.77819 0.10685 0.3352 0.0
C705 C 0.76423 0.23608 0.38803 0.0
C706 C 0.82024 0.24853 0.36638 0.0
C707 C 0.77605 0.31345 0.34025 0.0
C708 C 0.76196 0.33429 0.34452 0.0
C709 C 0.73635 0.32812 0.33325 0.0
C710 C 0.72407 0.34929 0.3349 0.0
C711 C 0.73719 0.37692 0.34794 0.0
C712 C 0.76264 0.38262 0.36023 0.0
C713 C 0.77486 0.3615 0.35852 0.0
C714 C 0.78139 0.22876 0.29309 0.0
C715 C 0.72054 0.21766 0.31569 0.0
O716 O 0.76508 0.16575 0.31566 0.0
O717 O 0.76859 0.16708 0.36164 0.0
O718 O 0.75562 0.23538 0.36196 0.0
O719 O 0.77491 0.21608 0.3903 0.0
O720 O 0.81035 0.2217 0.35536 0.0
O721 O 0.80717 0.26702 0.36374 0.0
O722 O 0.78181 0.30143 0.36188 0.0
O723 O 0.76913 0.29594 0.31569 0.0
O724 O 0.78751 0.23026 0.31952 0.0
O725 O 0.77021 0.24811 0.28971 0.0
O726 O 0.7314 0.24448 0.32524 0.0
O727 O 0.73279 0.19841 0.31883 0.0
H728 H 0.81663 0.17104 0.33893 0.0
H729 H 0.84707 0.14371 0.33884 0.0
H730 H 0.78922 0.06879 0.33339 0.0
H731 H 0.75897 0.09651 0.33417 0.0
H732 H 0.72599 0.30715 0.32255 0.0
H733 H 0.70439 0.34411 0.32564 0.0
H734 H 0.77339 0.40364 0.37016 0.0
H735 H 0.79463 0.36664 0.36735 0.0
Tb736 Tb 0.03511 0.56378 0.55521 0.0
Tb737 Tb 0.07224 0.54031 0.58722 0.0
C738 C 0.9952 0.57026 0.52912 0.0
C739 C 0.97333 0.57553 0.53866 0.0
C740 C 0.95015 0.56495 0.51992 0.0
C741 C 0.92858 0.56266 0.53046 0.0
C742 C 0.92992 0.57081 0.56003 0.0
C743 C 0.95319 0.58416 0.5782 0.0
C744 C 0.9748 0.58642 0.56759 0.0
C745 C 0.07198 0.60185 0.59116 0.0
C746 C 0.02738 0.54779 0.61755 0.0
C747 C 0.11151 0.53527 0.61696 0.0
C748 C 0.13808 0.54404 0.61751 0.0
C749 C 0.15479 0.55241 0.6442 0.0
C750 C 0.1797 0.56529 0.64597 0.0
C751 C 0.1883 0.56995 0.62102 0.0
C752 C 0.1717 0.56047 0.59415 0.0
C753 C 0.14672 0.5477 0.59241 0.0
C754 C 0.0345 0.50272 0.55261 0.0
C755 C 0.07927 0.55512 0.5245 0.0
O756 O 0.99871 0.54584 0.53212 0.0
O757 O 1.01571 0.5904 0.53754 0.0
O758 O 0.06154 0.57791 0.59444 0.0
O759 O 0.06115 0.60511 0.56626 0.0
O760 O 0.01845 0.55679 0.59401 0.0
O761 O 0.04843 0.53998 0.61922 0.0
O762 O 0.10171 0.55592 0.62269 0.0
O763 O 0.09736 0.51599 0.59551 0.0
O764 O 0.04556 0.52597 0.54819 0.0
O765 O 0.04523 0.49962 0.57767 0.0
O766 O 0.08998 0.55037 0.5498 0.0
O767 O 0.05667 0.55932 0.5214 0.0
H768 H 0.94874 0.55636 0.49757 0.0
H769 H 0.91107 0.55198 0.51583 0.0
H770 H 0.9548 0.59096 0.60097 0.0
H771 H 0.99262 0.59483 0.58238 0.0
H772 H 0.14835 0.54994 0.6638 0.0
H773 H 0.19216 0.57207 0.6669 0.0
H774 H 0.1778 0.56398 0.57458 0.0
H775 H 0.13406 0.54164 0.57161 0.0
Tb776 Tb 0.7821 0.78746 0.30864 0.0
Tb777 Tb 0.83344 0.77435 0.3169 0.0
C778 C 0.7381 0.78931 0.30998 0.0
C779 C 0.71952 0.78698 0.32861 0.0
C780 C 0.70498 0.76084 0.33084 0.0
C781 C 0.68532 0.75889 0.34521 0.0
C782 C 0.67946 0.78299 0.35766 0.0
C783 C 0.69443 0.80912 0.356 0.0
C784 C 0.71406 0.81106 0.34162 0.0
C785 C 0.81988 0.82744 0.30477 0.0
C786 C 0.81448 0.79192 0.37184 0.0
C787 C 0.87757 0.7734 0.31574 0.0
C788 C 0.89639 0.77845 0.29782 0.0
C789 C 0.90186 0.80285 0.28635 0.0
C790 C 0.92163 0.80833 0.27224 0.0
C791 C 0.93637 0.78948 0.26913 0.0
C792 C 0.93021 0.76465 0.27985 0.0
C793 C 0.91059 0.75931 0.29407 0.0
C794 C 0.79606 0.73405 0.32098 0.0
C795 C 0.80133 0.77004 0.25382 0.0
O796 O 0.74423 0.76673 0.30036 0.0
O797 O 0.75715 0.81132 0.31667 0.0
O798 O 0.81997 0.81041 0.32149 0.0
O799 O 0.79743 0.82373 0.29034 0.0
O800 O 0.79238 0.78881 0.35514 0.0
O801 O 0.83421 0.78977 0.36144 0.0
O802 O 0.87131 0.79503 0.32772 0.0
O803 O 0.85853 0.75152 0.3064 0.0
O804 O 0.79552 0.75113 0.30426 0.0
O805 O 0.81874 0.73768 0.33466 0.0
O806 O 0.82348 0.77416 0.27077 0.0
O807 O 0.78132 0.77144 0.264 0.0
H808 H 0.7083 0.74177 0.32076 0.0
H809 H 0.67417 0.73837 0.34565 0.0
H810 H 0.69089 0.8282 0.36565 0.0
H811 H 0.72461 0.83154 0.34008 0.0
H812 H 0.8912 0.81798 0.28876 0.0
H813 H 0.92576 0.82775 0.26451 0.0
H814 H 0.94062 0.74926 0.27736 0.0
H815 H 0.9068 0.74033 0.30266 0.0
Tb816 Tb 0.8009 0.28086 0.78976 0.0
Tb817 Tb 0.80115 0.31088 0.85345 0.0
C818 C 0.78291 0.2585 0.73813 0.0
C819 C 0.76702 0.26358 0.71284 0.0
C820 C 0.74308 0.26672 0.71331 0.0
C821 C 0.72928 0.27385 0.68983 0.0
C822 C 0.73898 0.27721 0.66537 0.0
C823 C 0.7621 0.27208 0.66416 0.0
C824 C 0.77603 0.26539 0.68773 0.0
C825 C 0.84131 0.28143 0.82785 0.0
C826 C 0.82205 0.34847 0.80946 0.0
C827 C 0.81629 0.32857 0.90627 0.0
C828 C 0.83222 0.31888 0.92774 0.0
C829 C 0.84248 0.33531 0.95502 0.0
C830 C 0.85886 0.32674 0.97484 0.0
C831 C 0.86585 0.30188 0.96744 0.0
C832 C 0.85548 0.28568 0.93975 0.0
C833 C 0.83848 0.29383 0.92038 0.0
C834 C 0.76197 0.31214 0.81456 0.0
C835 C 0.78107 0.24314 0.83408 0.0
O836 O 0.77219 0.25243 0.75927 0.0
O837 O 0.80527 0.2756 0.74711 0.0
O838 O 0.82297 0.29046 0.83137 0.0
O839 O 0.837 0.27044 0.80073 0.0
O840 O 0.81402 0.32598 0.78815 0.0
O841 O 0.8202 0.34691 0.83649 0.0
O842 O 0.82734 0.33909 0.88706 0.0
O843 O 0.79438 0.31134 0.89483 0.0
O844 O 0.77953 0.30152 0.81192 0.0
O845 O 0.76575 0.32278 0.84169 0.0
O846 O 0.788 0.26585 0.85489 0.0
O847 O 0.78378 0.24446 0.80738 0.0
H848 H 0.73535 0.26469 0.73213 0.0
H849 H 0.71151 0.2778 0.69117 0.0
H850 H 0.77009 0.27489 0.6456 0.0
H851 H 0.79421 0.26252 0.68668 0.0
H852 H 0.83773 0.35469 0.96105 0.0
H853 H 0.86549 0.33943 0.99614 0.0
H854 H 0.86055 0.26677 0.93273 0.0
H855 H 0.83072 0.28091 0.89926 0.0
Tb856 Tb 0.77754 0.7791 0.80806 0.0
Tb857 Tb 0.83089 0.81749 0.8315 0.0
C858 C 0.73314 0.75432 0.80417 0.0
C859 C 0.71277 0.76415 0.81341 0.0
C860 C 0.70057 0.75088 0.83259 0.0
C861 C 0.68378 0.76224 0.84495 0.0
C862 C 0.67884 0.78701 0.83823 0.0
C863 C 0.69027 0.79966 0.8181 0.0
C864 C 0.70718 0.78839 0.80586 0.0
C865 C 0.80097 0.79935 0.76988 0.0
C866 C 0.78438 0.84624 0.83002 0.0
C867 C 0.87323 0.84589 0.83131 0.0
C868 C 0.89809 0.84148 0.83868 0.0
C869 C 0.91917 0.86406 0.84469 0.0
C870 C 0.94276 0.85942 0.84748 0.0
C871 C 0.94557 0.83204 0.84376 0.0
C872 C 0.92437 0.80964 0.83963 0.0
C873 C 0.90094 0.81436 0.83737 0.0
C874 C 0.81466 0.7925 0.87211 0.0
C875 C 0.82306 0.74969 0.81255 0.0
O876 O 0.75112 0.7539 0.82514 0.0
O877 O 0.74138 0.76438 0.783 0.0
O878 O 0.80188 0.81132 0.79495 0.0
O879 O 0.78536 0.77482 0.76479 0.0
O880 O 0.76903 0.82047 0.82125 0.0
O881 O 0.80909 0.84961 0.8347 0.0
O882 O 0.85842 0.82848 0.80866 0.0
O883 O 0.86218 0.85 0.85272 0.0
O884 O 0.80375 0.79162 0.84684 0.0
O885 O 0.83651 0.80938 0.8758 0.0
O886 O 0.83853 0.77545 0.81879 0.0
O887 O 0.79852 0.74654 0.80881 0.0
H888 H 0.70469 0.73226 0.8388 0.0
H889 H 0.67495 0.75189 0.86015 0.0
H890 H 0.6869 0.81887 0.81271 0.0
H891 H 0.71649 0.79925 0.79131 0.0
H892 H 0.91733 0.88518 0.84613 0.0
H893 H 0.9587 0.87724 0.85142 0.0
H894 H 0.92554 0.78826 0.8363 0.0
H895 H 0.88496 0.79662 0.83309 0.0
Tb896 Tb 0.53586 0.52961 0.54898 0.0
Tb897 Tb 0.5796 0.56931 0.59005 0.0
C898 C 0.49296 0.50279 0.52215 0.0
C899 C 0.47126 0.51165 0.50957 0.0
C900 C 0.44903 0.50232 0.51831 0.0
C901 C 0.43099 0.51697 0.51512 0.0
C902 C 0.43491 0.54106 0.50292 0.0
C903 C 0.45551 0.54769 0.49026 0.0
C904 C 0.47378 0.53334 0.49393 0.0
C905 C 0.57707 0.53892 0.52945 0.0
C906 C 0.54515 0.59551 0.55072 0.0
C907 C 0.6233 0.59441 0.61502 0.0
C908 C 0.64575 0.58867 0.6069 0.0
C909 C 0.65034 0.59203 0.57964 0.0
C910 C 0.66444 0.57669 0.56684 0.0
C911 C 0.67444 0.55816 0.58132 0.0
C912 C 0.673 0.55809 0.61015 0.0
C913 C 0.65875 0.57328 0.62288 0.0
C914 C 0.53887 0.55734 0.61086 0.0
C915 C 0.57322 0.50386 0.58321 0.0
O916 O 0.49949 0.50974 0.55019 0.0
O917 O 0.51202 0.50757 0.51002 0.0
O918 O 0.56961 0.55629 0.54469 0.0
O919 O 0.56033 0.51524 0.52334 0.0
O920 O 0.5286 0.57075 0.54439 0.0
O921 O 0.56752 0.59909 0.56648 0.0
O922 O 0.60975 0.60443 0.59649 0.0
O923 O 0.6097 0.57429 0.62441 0.0
O924 O 0.54669 0.54158 0.59434 0.0
O925 O 0.5554 0.58118 0.6179 0.0
O926 O 0.58911 0.52875 0.5869 0.0
O927 O 0.54951 0.4999 0.57165 0.0
H928 H 0.44673 0.48551 0.53028 0.0
H929 H 0.41542 0.51114 0.52516 0.0
H930 H 0.45872 0.56566 0.48 0.0
H931 H 0.4907 0.5408 0.4867 0.0
H932 H 0.64107 0.60427 0.56695 0.0
H933 H 0.66543 0.57735 0.54469 0.0
H934 H 0.68119 0.5445 0.62204 0.0
H935 H 0.65585 0.57069 0.64408 0.0
Tb936 Tb 0.07894 0.54737 0.05866 0.0
Tb937 Tb 0.0279 0.54566 0.07856 0.0
C938 C 0.12317 0.5465 0.05857 0.0
C939 C 0.1425 0.53191 0.06753 0.0
C940 C 0.16386 0.54621 0.08865 0.0
C941 C 0.18396 0.53452 0.09444 0.0
C942 C 0.18335 0.50821 0.07916 0.0
C943 C 0.1616 0.49352 0.05867 0.0
C944 C 0.14149 0.5052 0.0529 0.0
C945 C 0.04352 0.55429 0.01583 0.0
C946 C 0.04022 0.4891 0.0563 0.0
C947 C 0.98394 0.54706 0.07935 0.0
C948 C 0.96586 0.56315 0.07128 0.0
C949 C 0.96651 0.5777 0.04846 0.0
C950 C 0.94903 0.59287 0.04177 0.0
C951 C 0.93059 0.59385 0.05782 0.0
C952 C 0.93021 0.57924 0.08069 0.0
C953 C 0.94758 0.5641 0.08726 0.0
C954 C 0.06318 0.53912 0.12166 0.0
C955 C 0.06649 0.60387 0.08029 0.0
O956 O 0.11684 0.56222 0.07864 0.0
O957 O 0.10417 0.53294 0.03769 0.0
O958 O 0.04237 0.54997 0.04098 0.0
O959 O 0.06632 0.55513 0.01452 0.0
O960 O 0.06335 0.50285 0.05684 0.0
O961 O 0.02287 0.50167 0.06154 0.0
O962 O 0.99006 0.53198 0.0586 0.0
O963 O 1.00298 0.55986 0.10039 0.0
O964 O 0.06452 0.54306 0.0964 0.0
O965 O 0.04037 0.5383 0.12275 0.0
O966 O 0.04337 0.59017 0.07987 0.0
O967 O 0.08388 0.59125 0.07551 0.0
H968 H 0.16536 0.5669 0.10014 0.0
H969 H 0.20014 0.54633 0.11071 0.0
H970 H 0.16042 0.47338 0.04619 0.0
H971 H 0.12549 0.49363 0.03626 0.0
H972 H 0.9805 0.57736 0.03586 0.0
H973 H 0.94983 0.60361 0.02386 0.0
H974 H 0.91673 0.57987 0.09393 0.0
H975 H 0.94683 0.55318 0.10509 0.0
H976 H 0.98423 0.18624 0.01988 0.0
H977 H 0.0549 0.21671 0.99821 0.0
H978 H 0.06901 0.17811 0.01483 0.0
H979 H 0.06114 0.13504 0.03468 0.0
H980 H 0.98945 0.1024 0.05281 0.0
H981 H 0.97593 0.14231 0.03853 0.0
C982 C 1.00276 0.18449 0.01888 0.0
C983 C 0.01851 0.20454 1.00789 0.0
C984 C 1.0106 0.1618 0.02793 0.0
C985 C 0.04234 0.20165 1.00646 0.0
C986 C 0.05047 0.17958 0.01606 0.0
C987 C 0.04267 0.13687 0.03588 0.0
C988 C 0.02645 0.11591 0.0452 0.0
C989 C 0.03478 0.15949 0.0268 0.0
C990 C 1.00236 0.11827 0.04589 0.0
C991 C 0.9946 0.14111 0.03768 0.0
H992 H 0.19376 0.82192 0.19324 0.0
H993 H 0.14541 0.82947 0.25209 0.0
H994 H 0.17747 0.82558 0.29144 0.0
H995 H 0.2191 0.81917 0.30898 0.0
H996 H 0.26715 0.81212 0.25005 0.0
H997 H 0.23526 0.81631 0.21074 0.0
C998 C 0.19017 0.82293 0.21469 0.0
C999 C 0.16708 0.82615 0.21961 0.0
C1000 C 0.20858 0.82038 0.23711 0.0
C1001 C 0.16293 0.82716 0.24761 0.0
C1002 C 0.18127 0.82484 0.27012 0.0
C1003 C 0.2225 0.81845 0.28747 0.0
C1004 C 0.24521 0.81451 0.28217 0.0
C1005 C 0.2041 0.82126 0.26509 0.0
C1006 C 0.24956 0.81413 0.2544 0.0
C1007 C 0.23139 0.81686 0.23202 0.0
H1008 H 0.50588 0.85854 0.53483 0.0
H1009 H 0.56869 0.86325 0.49503 0.0
H1010 H 0.58024 0.91435 0.5087 0.0
H1011 H 0.5709 0.95808 0.52999 0.0
H1012 H 0.50571 0.95135 0.5659 0.0
H1013 H 0.49674 0.90085 0.5556 0.0
C1014 C 0.52234 0.87058 0.5294 0.0
C1015 C 0.5365 0.85688 0.51409 0.0
C1016 C 0.52828 0.8998 0.53636 0.0
C1017 C 0.55751 0.87313 0.50694 0.0
C1018 C 0.56404 0.90239 0.51464 0.0
C1019 C 0.55479 0.9455 0.53559 0.0
C1020 C 0.53892 0.95866 0.54856 0.0
C1021 C 0.54932 0.91604 0.52901 0.0
C1022 C 0.5181 0.94197 0.55561 0.0
C1023 C 0.51297 0.91298 0.54985 0.0
H1024 H 0.51404 0.30678 0.69403 0.0
H1025 H 0.56302 0.32609 0.77773 0.0
H1026 H 0.52763 0.32223 0.80048 0.0
H1027 H 0.48283 0.31331 0.79703 0.0
H1028 H 0.4335 0.29582 0.71374 0.0
H1029 H 0.46878 0.29861 0.69066 0.0
C1030 C 0.51697 0.31004 0.71724 0.0
C1031 C 0.54131 0.3167 0.73404 0.0
C1032 C 0.49639 0.30806 0.73038 0.0
C1033 C 0.54462 0.321 0.76413 0.0
C1034 C 0.52433 0.31879 0.77725 0.0
C1035 C 0.4797 0.31047 0.77383 0.0
C1036 C 0.4553 0.30438 0.75731 0.0
C1037 C 0.50014 0.31245 0.76063 0.0
C1038 C 0.45187 0.30017 0.72717 0.0
C1039 C 0.47213 0.30193 0.71389 0.0
H1040 H 0.08099 0.80094 0.65045 0.0
H1041 H 0.0704 0.85082 0.72557 0.0
H1042 H 0.06244 0.88598 0.69773 0.0
H1043 H 0.05871 0.90264 0.65226 0.0
H1044 H 0.0677 0.85208 0.57664 0.0
H1045 H 0.07637 0.8172 0.60463 0.0
C1046 C 0.07703 0.81956 0.66075 0.0
C1047 C 0.07634 0.82331 0.69001 0.0
C1048 C 0.07222 0.83955 0.64457 0.0
C1049 C 0.07101 0.84742 0.70303 0.0
C1050 C 0.06645 0.86755 0.68715 0.0
C1051 C 0.06224 0.88382 0.6418 0.0
C1052 C 0.06255 0.87995 0.61243 0.0
C1053 C 0.06693 0.86377 0.65791 0.0
C1054 C 0.06764 0.8557 0.59932 0.0
C1055 C 0.07248 0.8357 0.61526 0.0
H1056 H 0.46609 0.88219 0.92274 0.0
H1057 H 0.49225 0.8271 0.8658 0.0
H1058 H 0.45522 0.82093 0.82832 0.0
H1059 H 0.41255 0.82509 0.81537 0.0
H1060 H 0.38687 0.88129 0.8716 0.0
H1061 H 0.42686 0.89369 0.90574 0.0
C1062 C 0.46388 0.8694 0.90185 0.0
C1063 C 0.48142 0.85467 0.89704 0.0
C1064 C 0.44265 0.86603 0.88051 0.0
C1065 C 0.4788 0.83851 0.86988 0.0
C1066 C 0.4576 0.83483 0.84857 0.0
C1067 C 0.41606 0.84062 0.83475 0.0
C1068 C 0.39697 0.85205 0.84137 0.0
C1069 C 0.43897 0.84756 0.85415 0.0
C1070 C 0.40149 0.87233 0.86624 0.0
C1071 C 0.42422 0.87922 0.88582 0.0
H1072 H 0.52467 0.18102 0.14341 0.0
H1073 H 0.47143 0.11514 0.16496 0.0
H1074 H 0.46688 0.08617 0.11796 0.0
H1075 H 0.48667 0.07548 0.07797 0.0
H1076 H 0.54572 0.13843 0.06192 0.0
H1077 H 0.53921 0.17292 0.09898 0.0
C1078 C 0.51159 0.16057 0.13755 0.0
C1079 C 0.49867 0.14996 0.15773 0.0
C1080 C 0.51051 0.1434 0.11154 0.0
C1081 C 0.48183 0.12349 0.14991 0.0
C1082 C 0.47935 0.10693 0.12314 0.0
C1083 C 0.49709 0.09718 0.08155 0.0
C1084 C 0.51645 0.10468 0.0672 0.0
C1085 C 0.49478 0.11603 0.10466 0.0
C1086 C 0.53048 0.13247 0.07245 0.0
C1087 C 0.52706 0.15197 0.09404 0.0
H1088 H 0.10313 0.36025 0.36387 0.0
H1089 H 0.05042 0.27931 0.34361 0.0
H1090 H 0.08002 0.25875 0.32333 0.0
H1091 H 0.12129 0.26336 0.31267 0.0
H1092 H 0.1746 0.34392 0.33466 0.0
H1093 H 0.14414 0.36504 0.35223 0.0
C1094 C 0.09805 0.33813 0.35493 0.0
C1095 C 0.07459 0.32137 0.35543 0.0
C1096 C 0.11524 0.32635 0.34343 0.0
C1097 C 0.06836 0.29274 0.34365 0.0
C1098 C 0.08528 0.28092 0.33201 0.0
C1099 C 0.1263 0.28552 0.32139 0.0
C1100 C 0.15026 0.30195 0.32232 0.0
C1101 C 0.10886 0.29747 0.33204 0.0
C1102 C 0.15622 0.33077 0.33324 0.0
C1103 C 0.13887 0.34286 0.34357 0.0
H1104 H 0.98893 0.97594 0.1864 0.0
H1105 H 1.00449 0.0572 0.23942 0.0
H1106 H 0.02001 0.07911 0.20149 0.0
H1107 H 0.03095 0.07465 0.15383 0.0
H1108 H 1.01213 0.99312 0.10003 0.0
H1109 H 0.99573 0.97189 0.13734 0.0
C1110 C 0.99575 0.99843 0.18957 0.0
C1111 C 0.99603 1.01497 0.21566 0.0
C1112 C 1.00389 1.01083 0.16745 0.0
C1113 C 1.00431 0.04412 0.21944 0.0
C1114 C 1.01314 0.05662 0.1978 0.0
C1115 C 0.02292 0.05232 0.15021 0.0
C1116 C 0.02305 0.03549 0.12438 0.0
C1117 C 1.01322 0.04014 0.17176 0.0
C1118 C 1.0124 1.00657 0.11979 0.0
C1119 C 1.0031 0.99433 0.14118 0.0
H1120 H 0.38161 0.78407 0.5985 0.0
H1121 H 0.36051 0.69998 0.55008 0.0
H1122 H 0.35303 0.71724 0.50529 0.0
H1123 H 0.34708 0.75531 0.48117 0.0
H1124 H 0.37208 0.84018 0.52866 0.0
H1125 H 0.38297 0.82328 0.57283 0.0
C1126 C 0.37582 0.76965 0.57805 0.0
C1127 C 0.37124 0.74087 0.57742 0.0
C1128 C 0.37175 0.77971 0.55243 0.0
C1129 C 0.36412 0.72227 0.55096 0.0
C1130 C 0.35967 0.7321 0.52541 0.0
C1131 C 0.35566 0.77041 0.50082 0.0
C1132 C 0.35807 0.79905 0.5014 0.0
C1133 C 0.36268 0.7607 0.52602 0.0
C1134 C 0.369 0.81793 0.52753 0.0
C1135 C 0.37552 0.80834 0.55285 0.0
H1136 H 0.63907 0.06657 0.74453 0.0
H1137 H 0.61073 0.97948 0.74539 0.0
H1138 H 0.58567 0.97282 0.69645 0.0
H1139 H 0.5695 0.99261 0.65379 0.0
H1140 H 0.60107 0.079 0.65226 0.0
H1141 H 0.62687 0.08489 0.70029 0.0
C1142 C 0.62774 0.04593 0.73392 0.0
C1143 C 0.62712 0.02354 0.74921 0.0
C1144 C 0.6136 0.04218 0.70534 0.0
C1145 C 0.61211 0.9971 0.73459 0.0
C1146 C 0.59751 0.99337 0.70647 0.0
C1147 C 0.58223 1.01269 0.66378 0.0
C1148 C 0.58292 0.03542 0.64889 0.0
C1149 C 0.59775 1.01584 0.69165 0.0
C1150 C 0.59986 0.06108 0.66261 0.0
C1151 C 0.61467 0.06449 0.69036 0.0
H1152 H 0.35272 0.33832 0.01186 0.0
H1153 H 0.29069 0.37473 1.00756 0.0
H1154 H 0.27982 0.35972 0.95515 0.0
H1155 H 0.28955 0.33839 0.9106 0.0
H1156 H 0.35365 0.3054 0.91595 0.0
H1157 H 0.36222 0.31715 0.96821 0.0
C1158 C 0.33659 0.34272 0.9996 0.0
C1159 C 0.32242 0.35747 0.01359 0.0
C1160 C 0.33104 0.33491 0.9697 0.0
C1161 C 0.30184 0.36334 0.99726 0.0
C1162 C 0.2957 0.35484 0.96734 0.0
C1163 C 0.30529 0.33364 0.92325 0.0
C1164 C 0.32099 0.3211 0.90948 0.0
C1165 C 0.31041 0.34097 0.95333 0.0
C1166 C 0.34144 0.31526 0.92606 0.0
C1167 C 0.34629 0.32187 0.95592 0.0
H1168 H 0.98668 0.03454 0.37328 0.0
H1169 H 0.02495 0.96976 0.36619 0.0
H1170 H 0.03734 0.97719 0.4184 0.0
H1171 H 0.0361 1.00087 0.46601 0.0
H1172 H 0.9992 0.06675 0.47333 0.0
H1173 H 0.98723 0.05988 0.42095 0.0
C1174 C 0.99792 0.02219 0.38312 0.0
C1175 C 1.00477 1.00153 0.36579 0.0
C1176 C 1.00493 0.02651 0.41316 0.0
C1177 C 0.01945 0.98584 0.37895 0.0
C1178 C 0.02642 0.98995 0.40883 0.0
C1179 C 0.02527 1.01358 0.45614 0.0
C1180 C 0.01821 0.03401 0.47344 0.0
C1181 C 0.01896 1.00993 0.42612 0.0
C1182 C 1.00469 0.05077 0.4604 0.0
C1183 C 0.99791 0.04689 0.4305 0.0
H1184 H 0.42242 0.75278 0.72202 0.0
H1185 H 0.36324 0.67844 0.71197 0.0
H1186 H 0.34077 0.70485 0.73884 0.0
H1187 H 0.33304 0.75087 0.75242 0.0
H1188 H 0.39058 0.82554 0.75738 0.0
H1189 H 0.41817 0.79756 0.74425 0.0
C1190 C 0.40512 0.74215 0.72691 0.0
C1191 C 0.39397 0.71412 0.71387 0.0
C1192 C 0.39135 0.75792 0.74001 0.0
C1193 C 0.37199 0.70024 0.72106 0.0
C1194 C 0.3588 0.7155 0.73586 0.0
C1195 C 0.3518 0.76092 0.75128 0.0
C1196 C 0.35967 0.79011 0.75529 0.0
C1197 C 0.36742 0.74466 0.74324 0.0
C1198 C 0.38396 0.80303 0.75363 0.0
C1199 C 0.39982 0.78706 0.74645 0.0
H1200 H 0.59874 0.04185 0.89706 0.0
H1201 H 0.66615 0.02547 0.93839 0.0
H1202 H 0.65252 0.02927 0.98432 0.0
H1203 H 0.62133 0.03901 0.01418 0.0
H1204 H 0.55294 0.05158 0.97032 0.0
H1205 H 0.56698 0.04777 0.92514 0.0
C1206 C 0.61053 0.03871 0.91593 0.0
C1207 C 0.63375 0.03315 0.91333 0.0
C1208 C 0.60234 0.04069 0.94254 0.0
C1209 C 0.64822 0.02933 0.93877 0.0
C1210 C 0.6404 0.03182 0.96541 0.0
C1211 C 0.60949 0.04106 0.9948 0.0
C1212 C 0.58589 0.04621 0.9965 0.0
C1213 C 0.61754 0.03784 0.96786 0.0
C1214 C 0.57104 0.04798 0.97044 0.0
C1215 C 0.57914 0.04571 0.94428 0.0
H1216 H 0.34253 0.39248 0.19859 0.0
H1217 H 0.30983 0.32004 0.13159 0.0
H1218 H 0.29585 0.29263 0.16652 0.0
H1219 H 0.29432 0.28871 0.21628 0.0
H1220 H 0.32756 0.36058 0.284 0.0
H1221 H 0.34025 0.38866 0.24893 0.0
C1222 C 0.33194 0.37085 0.19177 0.0
C1223 C 0.32679 0.35826 0.16268 0.0
C1224 C 0.32448 0.35502 0.21215 0.0
C1225 C 0.31362 0.33009 0.15393 0.0
C1226 C 0.30581 0.3144 0.17388 0.0
C1227 C 0.30441 0.31049 0.22336 0.0
C1228 C 0.31011 0.32251 0.25265 0.0
C1229 C 0.31143 0.32652 0.20308 0.0
C1230 C 0.32309 0.3508 0.26153 0.0
C1231 C 0.33024 0.36691 0.24148 0.0
H1232 H 0.23097 0.94313 0.05735 0.0
H1233 H 0.1572 0.88936 0.02231 0.0
H1234 H 0.13931 0.92657 0.03918 0.0
H1235 H 0.14445 0.97443 0.06297 0.0
H1236 H 0.21763 0.02874 0.09835 0.0
H1237 H 0.23607 0.99138 0.0818 0.0
C1238 C 0.21099 0.93958 0.05336 0.0
C1239 C 0.19546 0.91348 0.03854 0.0
C1240 C 0.20077 0.96113 0.06311 0.0
C1241 C 0.1696 0.90923 0.03355 0.0
C1242 C 0.15932 0.93048 0.04322 0.0
C1243 C 0.16444 0.97783 0.06759 0.0
C1244 C 0.17973 1.00389 0.08243 0.0
C1245 C 0.17472 0.95644 0.05801 0.0
C1246 C 0.20558 1.00863 0.08722 0.0
C1247 C 0.21606 0.98733 0.07776 0.0
H1248 H 0.68982 0.63693 0.07044 0.0
H1249 H 0.69887 0.59088 0.99241 0.0
H1250 H 0.66603 0.55058 0.99602 0.0
H1251 H 0.63291 0.52991 0.02028 0.0
H1252 H 0.62633 0.5761 0.09985 0.0
H1253 H 0.66013 0.61491 0.09692 0.0
C1254 C 0.68474 0.61789 0.05443 0.0
C1255 C 0.69647 0.61669 0.03116 0.0
C1256 C 0.66622 0.59502 0.05688 0.0
C1257 C 0.69004 0.59205 0.01057 0.0
C1258 C 0.67123 0.56916 0.01259 0.0
C1259 C 0.63909 0.5484 0.03705 0.0
C1260 C 0.62679 0.55045 0.05992 0.0
C1261 C 0.65891 0.57058 0.03546 0.0
C1262 C 0.63517 0.57428 0.08175 0.0
C1263 C 0.65453 0.59646 0.08014 0.0
H1264 H 0.68257 0.47024 0.32296 0.0
H1265 H 0.72262 0.50707 0.4099 0.0
H1266 H 0.73932 0.46679 0.41286 0.0
H1267 H 0.74314 0.42137 0.39067 0.0
H1268 H 0.70383 0.38477 0.30348 0.0
H1269 H 0.6859 0.42432 0.30101 0.0
C1270 C 0.69499 0.46949 0.34253 0.0
C1271 C 0.70142 0.4918 0.36608 0.0
C1272 C 0.70454 0.44616 0.34417 0.0
C1273 C 0.71741 0.49032 0.39136 0.0
C1274 C 0.72697 0.46723 0.39312 0.0
C1275 C 0.73072 0.42207 0.37108 0.0
C1276 C 0.72491 0.40008 0.3473 0.0
C1277 C 0.72076 0.44509 0.36963 0.0
C1278 C 0.7084 0.40117 0.32227 0.0
C1279 C 0.6983 0.42393 0.32073 0.0
H1280 H 0.85283 0.48435 0.59866 0.0
H1281 H 0.80486 0.50157 0.52731 0.0
H1282 H 0.83695 0.54305 0.52627 0.0
H1283 H 0.88127 0.56782 0.53885 0.0
H1284 H 0.92963 0.54778 0.60798 0.0
H1285 H 0.89456 0.51512 0.61755 0.0
C1286 C 0.8492 0.49754 0.5833 0.0
C1287 C 0.82689 0.48948 0.56252 0.0
C1288 C 0.86788 0.52093 0.58239 0.0
C1289 C 0.8221 0.50711 0.54325 0.0
C1290 C 0.84048 0.53078 0.54256 0.0
C1291 C 0.88399 0.55681 0.55647 0.0
C1292 C 0.90814 0.55968 0.57206 0.0
C1293 C 0.86389 0.53693 0.56098 0.0
C1294 C 0.91132 0.54597 0.59545 0.0
C1295 C 0.89128 0.52689 0.60072 0.0
H1296 H 0.34887 0.13654 0.26973 0.0
H1297 H 0.40709 0.16513 0.34608 0.0
H1298 H 0.39218 0.20686 0.35743 0.0
H1299 H 0.36287 0.23752 0.34474 0.0
H1300 H 0.30381 0.20603 0.26932 0.0
H1301 H 0.31898 0.16486 0.25871 0.0
C1302 C 0.35865 0.1518 0.28893 0.0
C1303 C 0.3797 0.14672 0.3067 0.0
C1304 C 0.34984 0.17626 0.29539 0.0
C1305 C 0.3912 0.16752 0.33153 0.0
C1306 C 0.38252 0.1918 0.33805 0.0
C1307 C 0.35327 0.22179 0.32585 0.0
C1308 C 0.33189 0.22606 0.30773 0.0
C1309 C 0.36199 0.19688 0.31998 0.0
C1310 C 0.32005 0.20435 0.28385 0.0
C1311 C 0.32887 0.18041 0.27766 0.0
H1312 H 0.36989 0.1803 0.5577 0.0
H1313 H 0.3092 0.10721 0.54753 0.0
H1314 H 0.33851 0.07859 0.55362 0.0
H1315 H 0.3815 0.07444 0.56294 0.0
H1316 H 0.44196 0.14756 0.57184 0.0
H1317 H 0.41264 0.17594 0.56558 0.0
C1318 C 0.363 0.1581 0.55674 0.0
C1319 C 0.33727 0.14602 0.55219 0.0
C1320 C 0.37998 0.14172 0.56025 0.0
C1321 C 0.32883 0.11715 0.55097 0.0
C1322 C 0.34562 0.10074 0.5545 0.0
C1323 C 0.38831 0.09652 0.56318 0.0
C1324 C 0.41408 0.10873 0.56805 0.0
C1325 C 0.37126 0.11281 0.55925 0.0
C1326 C 0.42238 0.13753 0.56869 0.0
C1327 C 0.40557 0.15382 0.56489 0.0
H1328 H 0.69467 0.64755 0.3147 0.0
H1329 H 0.74019 0.61961 0.37976 0.0
H1330 H 0.77673 0.65581 0.37685 0.0
H1331 H 0.79507 0.69643 0.35647 0.0
H1332 H 0.74984 0.7195 0.28701 0.0
H1333 H 0.71358 0.68446 0.29114 0.0
C1334 C 0.71264 0.64941 0.32819 0.0
C1335 C 0.71488 0.63139 0.34767 0.0
C1336 C 0.73341 0.66959 0.3258 0.0
C1337 C 0.7382 0.63343 0.36467 0.0
C1338 C 0.75897 0.65412 0.36304 0.0
C1339 C 0.77726 0.69369 0.34225 0.0
C1340 C 0.77477 0.7114 0.32236 0.0
C1341 C 0.75673 0.67248 0.34382 0.0
C1342 C 0.75184 0.70718 0.30352 0.0
C1343 C 0.73121 0.68684 0.30556 0.0
H1344 H 0.88574 0.45223 0.76743 0.0
H1345 H 0.86588 0.49953 0.83715 0.0
H1346 H 0.84103 0.45605 0.84682 0.0
H1347 H 0.82721 0.40335 0.83762 0.0
H1348 H 0.84584 0.35749 0.76567 0.0
H1349 H 0.86856 0.40103 0.75505 0.0
C1350 C 0.8755 0.45326 0.78436 0.0
C1351 C 0.87773 0.47972 0.80124 0.0
C1352 C 0.86118 0.42798 0.7898 0.0
C1353 C 0.86435 0.47999 0.82326 0.0
C1354 C 0.85032 0.45487 0.82907 0.0
C1355 C 0.8361 0.40281 0.81949 0.0
C1356 C 0.8347 0.37646 0.80268 0.0
C1357 C 0.84896 0.42853 0.81288 0.0
C1358 C 0.84631 0.37687 0.77913 0.0
C1359 C 0.85946 0.40201 0.77299 0.0
H1360 H 0.05823 0.87941 0.11404 0.0
H1361 H 0.13647 0.90869 0.11754 0.0
H1362 H 0.12994 0.94952 0.09854 0.0
H1363 H 0.10173 0.97712 0.07978 0.0
H1364 H 0.02313 0.94578 0.0734 0.0
H1365 H 0.02998 0.90587 0.09373 0.0
C1366 C 0.07383 0.89483 0.11073 0.0
C1367 C 0.09782 0.89105 0.11748 0.0
C1368 C 0.06983 0.91794 0.0987 0.0
C1369 C 0.11778 0.91103 0.11257 0.0
C1370 C 0.11406 0.93444 0.10155 0.0
C1371 C 0.08614 0.96152 0.08277 0.0
C1372 C 0.06197 0.96469 0.07494 0.0
C1373 C 0.09014 0.93812 0.09432 0.0
C1374 C 0.04196 0.94399 0.07883 0.0
C1375 C 0.04584 0.9211 0.09072 0.0
H1376 H 0.93002 0.29997 0.93431 0.0
H1377 H 0.94493 0.23192 0.88136 0.0
H1378 H 0.90932 0.23067 0.84337 0.0
H1379 H 0.87292 0.24821 0.82611 0.0
H1380 H 0.86165 0.31972 0.87716 0.0
H1381 H 0.89702 0.32083 0.91485 0.0
C1382 C 0.92549 0.28493 0.91437 0.0
C1383 C 0.9398 0.26579 0.91069 0.0
C1384 C 0.90559 0.28498 0.89242 0.0
C1385 C 0.93409 0.24676 0.88463 0.0
C1386 C 0.91373 0.24604 0.86299 0.0
C1387 C 0.87825 0.264 0.84554 0.0
C1388 C 0.86388 0.28307 0.84962 0.0
C1389 C 0.89917 0.2649 0.86676 0.0
C1390 C 0.87153 0.30398 0.87431 0.0
C1391 C 0.89198 0.30479 0.89567 0.0
H1392 H 0.55945 0.22739 0.63519 0.0
H1393 H 0.61873 0.24615 0.59004 0.0
H1394 H 0.61344 0.19659 0.57354 0.0
H1395 H 0.59334 0.14745 0.57359 0.0
H1396 H 0.53322 0.12871 0.61743 0.0
H1397 H 0.53753 0.1783 0.63257 0.0
C1398 C 0.57102 0.22068 0.62146 0.0
C1399 C 0.58952 0.24072 0.61407 0.0
C1400 C 0.56792 0.19194 0.61193 0.0
C1401 C 0.60429 0.23141 0.59618 0.0
C1402 C 0.60139 0.20295 0.58678 0.0
C1403 C 0.58119 0.15422 0.58645 0.0
C1404 C 0.56311 0.13423 0.59447 0.0
C1405 C 0.58353 0.18297 0.59487 0.0
C1406 C 0.54731 0.1435 0.61085 0.0
C1407 C 0.54976 0.17195 0.6196 0.0
H1408 H 0.59026 0.75846 0.42271 0.0
H1409 H 0.57592 0.82948 0.38852 0.0
H1410 H 0.61143 0.83265 0.3661 0.0
H1411 H 0.64675 0.81561 0.35592 0.0
H1412 H 0.66228 0.74543 0.3908 0.0
H1413 H 0.62623 0.7415 0.41268 0.0
C1414 C 0.59483 0.77455 0.41026 0.0
C1415 C 0.58021 0.79367 0.40742 0.0
C1416 C 0.61562 0.77647 0.39741 0.0
C1417 C 0.58667 0.81445 0.39124 0.0
C1418 C 0.60708 0.81633 0.37834 0.0
C1419 C 0.64252 0.79962 0.36858 0.0
C1420 C 0.6575 0.7809 0.37158 0.0
C1421 C 0.62178 0.79757 0.38136 0.0
C1422 C 0.65112 0.76 0.38768 0.0
C1423 C 0.63049 0.7578 0.40039 0.0
H1424 H 0.97658 0.27632 0.48234 0.0
H1425 H 0.04114 0.28877 0.44501 0.0
H1426 H 0.05459 0.25294 0.46837 0.0
H1427 H 0.04748 0.21756 0.49889 0.0
H1428 H 0.98201 0.20457 0.53441 0.0
H1429 H 0.96932 0.24118 0.51206 0.0
C1430 C 0.99372 0.27141 0.47944 0.0
C1431 C 1.00793 0.28532 0.46213 0.0
C1432 C 1.00106 0.2506 0.49246 0.0
C1433 C 0.02987 0.27836 0.45827 0.0
C1434 C 0.03757 0.2579 0.4716 0.0
C1435 C 0.03051 0.22292 0.50178 0.0
C1436 C 1.01565 0.20848 0.51818 0.0
C1437 C 0.02324 0.24382 0.48866 0.0
C1438 C 0.99357 0.21527 0.5216 0.0
C1439 C 0.98639 0.23625 0.50897 0.0
H1440 H 0.60499 0.16667 0.27206 0.0
H1441 H 0.61077 0.25107 0.25878 0.0
H1442 H 0.65542 0.26294 0.27572 0.0
H1443 H 0.69268 0.25015 0.29538 0.0
H1444 H 0.68828 0.16595 0.3081 0.0
H1445 H 0.64328 0.15318 0.29002 0.0
C1446 C 0.61607 0.18761 0.27287 0.0
C1447 C 0.60452 0.20793 0.26429 0.0
C1448 C 0.64196 0.19438 0.28247 0.0
C1449 C 0.61913 0.23495 0.26519 0.0
C1450 C 0.64471 0.24185 0.27493 0.0
C1451 C 0.68191 0.22898 0.29421 0.0
C1452 C 0.6937 0.20911 0.30329 0.0
C1453 C 0.65626 0.22182 0.28378 0.0
C1454 C 0.67957 0.18165 0.30123 0.0
C1455 C 0.65385 0.17436 0.291 0.0
H1456 H 0.5553 0.90041 0.05739 0.0
H1457 H 0.59783 0.926 0.99521 0.0
H1458 H 0.61337 0.97296 0.02394 0.0
H1459 H 0.60694 1.00838 0.06017 0.0
H1460 H 0.56167 0.98377 0.1198 0.0
H1461 H 0.55556 0.93456 0.09919 0.0
C1462 C 0.56844 0.91608 0.05047 0.0
C1463 C 0.57482 0.91001 0.0238 0.0
C1464 C 0.57671 0.9432 0.06665 0.0
C1465 C 0.59231 0.93028 0.01542 0.0
C1466 C 0.60115 0.95717 0.03179 0.0
C1467 C 0.59674 0.99207 0.06943 0.0
C1468 C 0.58479 0.99923 0.09135 0.0
C1469 C 0.59237 0.96415 0.05654 0.0
C1470 C 0.57125 0.9784 0.10314 0.0
C1471 C 0.56748 0.95037 0.09106 0.0
H1472 H 0.03907 0.81387 0.79961 0.0
H1473 H 0.02308 0.74045 0.83727 0.0
H1474 H 0.99108 0.7569 0.85737 0.0
H1475 H 0.96523 0.79008 0.86017 0.0
H1476 H 0.98003 0.86118 0.81853 0.0
H1477 H 1.01554 0.84812 0.80509 0.0
C1478 C 0.02872 0.80143 0.81235 0.0
C1479 C 0.03316 0.77572 0.81652 0.0
C1480 C 1.01024 0.81074 0.82333 0.0
C1481 C 0.01989 0.76022 0.83356 0.0
C1482 C 1.00158 0.7696 0.84499 0.0
C1483 C 0.97623 0.80279 0.84821 0.0
C1484 C 0.96964 0.82651 0.84024 0.0
C1485 C 0.99617 0.7945 0.83937 0.0
C1486 C 0.98464 0.84306 0.82542 0.0
C1487 C 1.00485 0.83541 0.81731 0.0
H1488 H 0.11581 0.10137 0.93217 0.0
H1489 H 0.11235 0.01834 0.89053 0.0
H1490 H 0.09085 0.99866 0.92584 0.0
H1491 H 0.07101 1.00526 0.96735 0.0
H1492 H 0.0774 0.0889 0.01019 0.0
H1493 H 0.09985 0.10809 0.97586 0.0
C1494 C 0.11044 0.07898 0.93093 0.0
C1495 C 0.11534 0.06131 0.90866 0.0
C1496 C 0.09856 0.06791 0.95152 0.0
C1497 C 0.10871 0.03235 0.90753 0.0
C1498 C 0.09636 0.0211 0.92764 0.0
C1499 C 0.07753 0.02764 0.96919 0.0
C1500 C 0.07233 0.04559 0.99104 0.0
C1501 C 0.09087 0.03867 0.94954 0.0
C1502 C 0.0811 0.07459 0.9935 0.0
C1503 C 0.09389 0.08564 0.97383 0.0
H1504 H 0.73114 0.3344 0.5613 0.0
H1505 H 0.74286 0.40477 0.62917 0.0
H1506 H 0.73129 0.37341 0.66201 0.0
H1507 H 0.72956 0.32729 0.67388 0.0
H1508 H 0.72483 0.25792 0.60759 0.0
H1509 H 0.72118 0.28706 0.57126 0.0
C1510 C 0.72995 0.34269 0.58292 0.0
C1511 C 0.73762 0.37157 0.59304 0.0
C1512 C 0.72503 0.32457 0.60199 0.0
C1513 C 0.73669 0.38249 0.6211 0.0
C1514 C 0.7304 0.36456 0.63987 0.0
C1515 C 0.7266 0.31832 0.65134 0.0
C1516 C 0.72771 0.29074 0.64328 0.0
C1517 C 0.72622 0.33568 0.63102 0.0
C1518 C 0.72415 0.27922 0.61411 0.0
C1519 C 0.72229 0.29594 0.59345 0.0
H1520 H 0.4548 0.04262 0.40995 0.0
H1521 H 0.51083 0.10644 0.39003 0.0
H1522 H 0.53856 0.10859 0.43592 0.0
H1523 H 0.54879 0.08934 0.48014 0.0
H1524 H 0.49237 0.02757 0.50217 0.0
H1525 H 0.46323 0.02781 0.45789 0.0
C1526 C 0.47273 0.05778 0.41608 0.0
C1527 C 0.48016 0.07503 0.39633 0.0
C1528 C 0.48885 0.05891 0.44302 0.0
C1529 C 0.50401 0.0936 0.40468 0.0
C1530 C 0.52011 0.09454 0.43098 0.0
C1531 C 0.52997 0.07622 0.47561 0.0
C1532 C 0.52308 0.05836 0.49498 0.0
C1533 C 0.51303 0.07688 0.45011 0.0
C1534 C 0.49844 0.04167 0.48825 0.0
C1535 C 0.48172 0.04172 0.46263 0.0
H1536 H 0.8022 0.72231 0.12542 0.0
H1537 H 0.73652 0.75225 0.11015 0.0
H1538 H 0.7429 0.7703 0.16116 0.0
H1539 H 0.76549 0.77519 0.21075 0.0
H1540 H 0.83212 0.74725 0.22635 0.0
H1541 H 0.82703 0.73109 0.17491 0.0
C1542 C 0.78946 0.73307 0.13321 0.0
C1543 C 0.76882 0.73562 0.11382 0.0
C1544 C 0.79325 0.74365 0.16281 0.0
C1545 C 0.7526 0.74984 0.12441 0.0
C1546 C 0.75613 0.76013 0.15371 0.0
C1547 C 0.77895 0.76568 0.20287 0.0
C1548 C 0.79898 0.7622 0.22242 0.0
C1549 C 0.77611 0.75672 0.17318 0.0
C1550 C 0.81647 0.75019 0.21181 0.0
C1551 C 0.81356 0.74085 0.18234 0.0
H1552 H 0.09977 0.10334 0.75407 0.0
H1553 H 0.11454 0.02311 0.75613 0.0
H1554 H 0.09879 1.0093 0.70412 0.0
H1555 H 0.08227 0.02096 0.65759 0.0
H1556 H 0.07004 0.10262 0.65659 0.0
H1557 H 0.08343 0.11482 0.70841 0.0
C1558 C 0.09927 0.0827 0.74322 0.0
C1559 C 0.10818 0.06426 0.75893 0.0
C1560 C 0.09088 0.07521 0.71335 0.0
C1561 C 0.10774 0.03772 0.74447 0.0
C1562 C 0.09881 0.02983 0.71473 0.0
C1563 C 0.08255 0.04138 0.66876 0.0
C1564 C 0.07527 0.06081 0.6531 0.0
C1565 C 0.09061 0.04856 0.69885 0.0
C1566 C 0.07575 0.08724 0.66793 0.0
C1567 C 0.08331 0.09429 0.69769 0.0
H1568 H 0.80056 0.33422 0.49419 0.0
H1569 H 0.74926 0.36808 0.44187 0.0
H1570 H 0.73945 0.32677 0.40394 0.0
H1571 H 0.74385 0.27979 0.38707 0.0
H1572 H 0.79533 0.24678 0.44006 0.0
H1573 H 0.80599 0.28873 0.47694 0.0
C1574 C 0.78744 0.33282 0.47438 0.0
C1575 C 0.7756 0.35414 0.47091 0.0
C1576 C 0.78145 0.30887 0.45316 0.0
C1577 C 0.75859 0.35189 0.4451 0.0
C1578 C 0.75284 0.3282 0.42352 0.0
C1579 C 0.75738 0.28189 0.40674 0.0
C1580 C 0.76887 0.26042 0.41093 0.0
C1581 C 0.76378 0.30632 0.42761 0.0
C1582 C 0.7862 0.26308 0.43647 0.0
C1583 C 0.79246 0.28712 0.45744 0.0
H1584 H 0.51074 0.08073 0.25269 0.0
H1585 H 0.43508 0.05527 0.20512 0.0
H1586 H 0.44951 0.04904 0.15993 0.0
H1587 H 0.48426 0.04819 0.13308 0.0
H1588 H 0.55969 0.07915 0.18148 0.0
H1589 H 0.54495 0.08541 0.22598 0.0
C1590 C 0.49726 0.07453 0.23245 0.0
C1591 C 0.47152 0.06908 0.23309 0.0
C1592 C 0.50584 0.07133 0.20612 0.0
C1593 C 0.45484 0.06047 0.20605 0.0
C1594 C 0.46321 0.05645 0.17993 0.0
C1595 C 0.49756 0.05643 0.1533 0.0
C1596 C 0.52349 0.06284 0.15313 0.0
C1597 C 0.48875 0.06134 0.17951 0.0
C1598 C 0.53987 0.07379 0.18013 0.0
C1599 C 0.53134 0.07749 0.20594 0.0
H1600 H 0.8026 0.72455 0.97177 0.0
H1601 H 0.72566 0.72096 0.94086 0.0
H1602 H 0.73623 0.74488 0.90227 0.0
H1603 H 0.76782 0.77014 0.87927 0.0
H1604 H 0.84482 0.77541 0.91142 0.0
H1605 H 0.83389 0.74799 0.94748 0.0
C1606 C 0.78813 0.72865 0.95635 0.0
C1607 C 0.76341 0.72098 0.95931 0.0
C1608 C 0.7944 0.74307 0.93449 0.0
C1609 C 0.7449 0.72675 0.93924 0.0
C1610 C 0.75091 0.74049 0.91712 0.0
C1611 C 0.78206 0.76467 0.89371 0.0
C1612 C 0.80701 0.77447 0.89245 0.0
C1613 C 0.77565 0.7492 0.91479 0.0
C1614 C 0.82543 0.7681 0.912 0.0
C1615 C 0.81921 0.75237 0.93262 0.0
H1616 H 0.87733 0.15677 0.03812 0.0
H1617 H 0.88239 0.1365 0.12277 0.0
H1618 H 0.89643 0.09571 0.10692 0.0
H1619 H 0.91054 0.06817 0.07039 0.0
H1620 H 0.90688 0.08896 0.98616 0.0
H1621 H 0.88899 0.12726 1.0005 0.0
C1622 C 0.88122 0.14326 0.05302 0.0
C1623 C 0.87897 0.14979 0.08164 0.0
C1624 C 0.88967 0.12005 0.0439 0.0
C1625 C 0.88412 0.13207 0.10067 0.0
C1626 C 0.89216 0.10873 0.09164 0.0
C1627 C 0.90527 0.08065 0.05494 0.0
C1628 C 0.90994 0.0757 0.02723 0.0
C1629 C 0.89542 0.10283 0.06348 0.0
C1630 C 0.90355 0.09247 1.00766 0.0
C1631 C 0.89335 0.11435 0.01586 0.0
H1632 H 0.4215 0.42708 0.06664 0.0
H1633 H 0.41128 0.48945 0.13124 0.0
H1634 H 0.45093 0.52096 0.12902 0.0
H1635 H 0.48947 0.52928 0.11035 0.0
H1636 H 0.49741 0.46776 0.04303 0.0
H1637 H 0.45766 0.43707 0.04483 0.0
C1638 C 0.4279 0.44767 0.08014 0.0
C1639 C 0.41373 0.45591 0.09935 0.0
C1640 C 0.45037 0.46553 0.07845 0.0
C1641 C 0.42191 0.48274 0.11632 0.0
C1642 C 0.4446 0.5006 0.11513 0.0
C1643 C 0.48245 0.50918 0.096 0.0
C1644 C 0.49678 0.50039 0.07716 0.0
C1645 C 0.45916 0.49201 0.09658 0.0
C1646 C 0.48721 0.47458 0.05835 0.0
C1647 C 0.46436 0.45716 0.0592 0.0
H1648 H 0.44894 0.61745 0.77666 0.0
H1649 H 0.40313 0.5604 0.817 0.0
H1650 H 0.37683 0.59208 0.82211 0.0
H1651 H 0.36746 0.63627 0.81631 0.0
H1652 H 0.41203 0.69284 0.77444 0.0
H1653 H 0.43845 0.66113 0.76907 0.0
C1654 C 0.43321 0.61195 0.78658 0.0
C1655 C 0.42807 0.58666 0.79655 0.0
C1656 C 0.41803 0.63019 0.78928 0.0
C1657 C 0.4075 0.57973 0.80914 0.0
C1658 C 0.39246 0.59784 0.81211 0.0
C1659 C 0.38271 0.64151 0.80559 0.0
C1660 C 0.38775 0.66688 0.79579 0.0
C1661 C 0.3976 0.62312 0.80233 0.0
C1662 C 0.40793 0.67359 0.7825 0.0
C1663 C 0.42296 0.65542 0.7793 0.0
H1664 H 0.29721 0.62507 0.61166 0.0
H1665 H 0.29155 0.68632 0.68096 0.0
H1666 H 0.24946 0.65896 0.67962 0.0
H1667 H 0.21411 0.61808 0.65792 0.0
H1668 H 0.22036 0.55747 0.5885 0.0
H1669 H 0.26261 0.58442 0.59067 0.0
C1670 C 0.28688 0.63253 0.62659 0.0
C1671 C 0.29753 0.65777 0.64637 0.0
C1672 C 0.26284 0.61685 0.62561 0.0
C1673 C 0.28377 0.66702 0.66546 0.0
C1674 C 0.25974 0.65138 0.66472 0.0
C1675 C 0.22486 0.61064 0.64352 0.0
C1676 C 0.2142 0.5858 0.62311 0.0
C1677 C 0.24908 0.6263 0.64481 0.0
C1678 C 0.22812 0.57663 0.60422 0.0
C1679 C 0.25227 0.59196 0.60551 0.0
H1680 H 0.76525 0.96969 0.84971 0.0
H1681 H 0.68835 0.92395 0.8226 0.0
H1682 H 0.70084 0.87991 0.81755 0.0
H1683 H 0.73442 0.85319 0.82027 0.0
H1684 H 0.81087 0.90115 0.84785 0.0
H1685 H 0.79775 0.94402 0.85299 0.0
C1686 C 0.7509 0.95025 0.84266 0.0
C1687 C 0.72545 0.95127 0.83662 0.0
C1688 C 0.75835 0.92457 0.83976 0.0
C1689 C 0.70791 0.92491 0.82757 0.0
C1690 C 0.71521 0.89934 0.82463 0.0
C1691 C 0.74836 0.87291 0.82753 0.0
C1692 C 0.77416 0.87276 0.83362 0.0
C1693 C 0.74049 0.89864 0.83058 0.0
C1694 C 0.79116 0.89941 0.84288 0.0
C1695 C 0.78356 0.92444 0.84587 0.0
H1696 H 0.72682 0.90353 0.57444 0.0
H1697 H 0.79145 0.97342 0.59102 0.0
H1698 H 0.76507 1.00555 0.59098 0.0
H1699 H 0.72361 1.01398 0.58608 0.0
H1700 H 0.65897 0.9439 0.56818 0.0
H1701 H 0.68541 0.91195 0.56945 0.0
C1702 C 0.7352 0.92579 0.57807 0.0
C1703 C 0.76119 0.93592 0.58268 0.0
C1704 C 0.71988 0.94424 0.57796 0.0
C1705 C 0.77157 0.96491 0.58736 0.0
C1706 C 0.75646 0.98336 0.58736 0.0
C1707 C 0.71523 0.99171 0.58224 0.0
C1708 C 0.68917 0.98156 0.5771 0.0
C1709 C 0.73058 0.97328 0.5826 0.0
C1710 C 0.67888 0.95255 0.57267 0.0
C1711 C 0.69401 0.93415 0.57314 0.0
H1712 H 0.39023 0.45476 0.79068 0.0
H1713 H 0.43608 0.39792 0.7808 0.0
H1714 H 0.40269 0.35959 0.78555 0.0
H1715 H 0.36107 0.34245 0.79497 0.0
H1716 H 0.31499 0.39882 0.80372 0.0
H1717 H 0.34782 0.43706 0.79706 0.0
C1718 C 0.39292 0.43397 0.78942 0.0
C1719 C 0.41577 0.42939 0.78564 0.0
C1720 C 0.37371 0.41197 0.79243 0.0
C1721 C 0.41878 0.40219 0.78385 0.0
C1722 C 0.39974 0.38021 0.78675 0.0
C1723 C 0.3585 0.36322 0.7959 0.0
C1724 C 0.33609 0.36814 0.80064 0.0
C1725 C 0.37732 0.38495 0.79163 0.0
C1726 C 0.33231 0.39475 0.8004 0.0
C1727 C 0.35104 0.41657 0.79659 0.0
H1728 H 0.21839 0.64489 0.37102 0.0
H1729 H 0.23767 0.59654 0.30158 0.0
H1730 H 0.2625 0.63964 0.29116 0.0
H1731 H 0.27664 0.69235 0.29981 0.0
H1732 H 0.25871 0.73916 0.37167 0.0
H1733 H 0.23572 0.696 0.38273 0.0
C1734 C 0.2285 0.64357 0.35399 0.0
C1735 C 0.22615 0.61695 0.33742 0.0
C1736 C 0.2428 0.66861 0.34812 0.0
C1737 C 0.23934 0.61624 0.31524 0.0
C1738 C 0.25334 0.64114 0.309 0.0
C1739 C 0.26778 0.69314 0.31796 0.0
C1740 C 0.26945 0.71962 0.33464 0.0
C1741 C 0.25486 0.66765 0.32491 0.0
C1742 C 0.25797 0.71962 0.35829 0.0
C1743 C 0.24469 0.69473 0.3647 0.0
H1744 H 0.54849 0.70396 0.49644 0.0
H1745 H 0.4746 0.69021 0.51223 0.0
H1746 H 0.47813 0.64755 0.52925 0.0
H1747 H 0.50277 0.61422 0.54149 0.0
H1748 H 0.57778 0.63035 0.52912 0.0
H1749 H 0.57311 0.67109 0.50884 0.0
C1750 C 0.53309 0.6915 0.50336 0.0
C1751 C 0.51133 0.70048 0.50295 0.0
C1752 C 0.53539 0.66706 0.51383 0.0
C1753 C 0.49167 0.68404 0.51235 0.0
C1754 C 0.4936 0.65945 0.52206 0.0
C1755 C 0.51796 0.62656 0.53412 0.0
C1756 C 0.54059 0.61916 0.53691 0.0
C1757 C 0.51544 0.65076 0.52316 0.0
C1758 C 0.56019 0.63561 0.52747 0.0
C1759 C 0.55755 0.65899 0.51579 0.0
H1760 H 0.69465 0.33255 0.70514 0.0
H1761 H 0.64086 0.32316 0.75862 0.0
H1762 H 0.67217 0.31763 0.79786 0.0
H1763 H 0.7147 0.31368 0.81639 0.0
H1764 H 0.76713 0.32074 0.76142 0.0
H1765 H 0.73687 0.33002 0.72391 0.0
C1766 C 0.6897 0.32957 0.72543 0.0
C1767 C 0.66529 0.32831 0.7288 0.0
C1768 C 0.70762 0.32587 0.74767 0.0
C1769 C 0.65942 0.32427 0.75533 0.0
C1770 C 0.67732 0.32099 0.77777 0.0
C1771 C 0.71929 0.31693 0.796 0.0
C1772 C 0.74295 0.31606 0.79142 0.0
C1773 C 0.70139 0.32133 0.77404 0.0
C1774 C 0.7489 0.32075 0.76521 0.0
C1775 C 0.73157 0.32608 0.74374 0.0
H1776 H 0.99566 0.35831 0.03412 0.0
H1777 H 0.06118 0.36001 0.99994 0.0
H1778 H 0.07428 0.41091 0.01369 0.0
H1779 H 0.06609 0.45511 0.03338 0.0
H1780 H 0.99921 0.45305 0.06497 0.0
H1781 H 0.98771 0.40222 0.05415 0.0
C1782 C 1.013 0.36974 0.03001 0.0
C1783 C 0.0275 0.35526 0.01616 0.0
C1784 C 0.02005 0.39904 0.03723 0.0
C1785 C 0.04969 0.37056 0.01062 0.0
C1786 C 0.05715 0.3997 0.0184 0.0
C1787 C 0.04904 0.44358 0.03804 0.0
C1788 C 0.03354 0.45806 0.04996 0.0
C1789 C 0.0423 0.4142 0.03137 0.0
C1790 C 1.01146 0.44262 0.05565 0.0
C1791 C 1.00487 0.41347 0.04955 0.0
H1792 H 0.01901 0.82157 0.1966 0.0
H1793 H 0.05771 0.78193 0.25685 0.0
H1794 H 0.02287 0.77415 0.28052 0.0
H1795 H 0.98119 0.77777 0.28402 0.0
H1796 H 0.94124 0.81553 0.22294 0.0
H1797 H 0.97676 0.82521 0.20025 0.0
C1798 C 0.01988 0.81139 0.21502 0.0
C1799 C 0.04111 0.80236 0.22482 0.0
C1800 C 0.99948 0.80661 0.2285 0.0
C1801 C 0.04172 0.78906 0.24867 0.0
C1802 C 0.02173 0.78457 0.26229 0.0
C1803 C 0.98002 0.78783 0.26553 0.0
C1804 C 0.95827 0.79571 0.25527 0.0
C1805 C 1.00043 0.79301 0.25227 0.0
C1806 C 0.95766 0.8094 0.23166 0.0
C1807 C 0.97799 0.81482 0.21849 0.0
H1808 H 0.55974 0.29834 0.19699 0.0
H1809 H 0.47986 0.27754 0.17154 0.0
H1810 H 0.48273 0.3147 0.14362 0.0
H1811 H 0.50802 0.3514 0.12454 0.0
H1812 H 0.58784 0.37126 0.14921 0.0
H1813 H 0.58489 0.33626 0.17974 0.0
C1814 C 0.54293 0.30201 0.18548 0.0
C1815 C 0.51964 0.28508 0.1861 0.0
C1816 C 0.54471 0.32317 0.16935 0.0
C1817 C 0.49803 0.29024 0.17129 0.0
C1818 C 0.49965 0.31143 0.15529 0.0
C1819 C 0.52474 0.34798 0.13659 0.0
C1820 C 0.54809 0.36365 0.13454 0.0
C1821 C 0.5229 0.32769 0.15381 0.0
C1822 C 0.56965 0.3595 0.15063 0.0
C1823 C 0.56798 0.33943 0.16793 0.0
H1824 H 0.92713 0.32618 0.40669 0.0
H1825 H 0.93844 0.27385 0.33387 0.0
H1826 H 0.89618 0.24408 0.3269 0.0
H1827 H 0.85538 0.23459 0.34044 0.0
H1828 H 0.84459 0.28878 0.41215 0.0
H1829 H 0.88793 0.31554 0.42165 0.0
C1830 C 0.92056 0.30809 0.3895 0.0
C1831 C 0.93593 0.30216 0.37093 0.0
C1832 C 0.89653 0.29116 0.38581 0.0
C1833 C 0.92688 0.27892 0.34838 0.0
C1834 C 0.90282 0.26181 0.34453 0.0
C1835 C 0.86282 0.25178 0.3586 0.0
C1836 C 0.84714 0.25966 0.37587 0.0
C1837 C 0.88745 0.26782 0.36308 0.0
C1838 C 0.85659 0.28232 0.39889 0.0
C1839 C 0.8812 0.29775 0.40408 0.0
H1840 H 0.09078 0.67088 0.71507 0.0
H1841 H 0.04175 0.71275 0.67089 0.0
H1842 H 0.04133 0.68469 0.62483 0.0
H1843 H 0.0539 0.6472 0.59752 0.0
H1844 H 0.10362 0.60619 0.64176 0.0
H1845 H 0.10551 0.63564 0.68739 0.0
C1846 C 0.07973 0.67355 0.69538 0.0
C1847 C 0.06585 0.69334 0.69634 0.0
C1848 C 0.08024 0.65804 0.66899 0.0
C1849 C 0.05225 0.69728 0.67064 0.0
C1850 C 0.0522 0.68145 0.64433 0.0
C1851 C 0.06577 0.64533 0.61701 0.0
C1852 C 0.07878 0.62467 0.61629 0.0
C1853 C 0.0662 0.66184 0.64325 0.0
C1854 C 0.09358 0.62202 0.64179 0.0
C1855 C 0.09443 0.63865 0.66792 0.0
H1856 H 0.61698 0.83464 0.91935 0.0
H1857 H 0.57681 0.84553 0.83875 0.0
H1858 H 0.60625 0.82901 0.8139 0.0
H1859 H 0.64159 0.8081 0.81474 0.0
H1860 H 0.68029 0.79584 0.89544 0.0
H1861 H 0.65298 0.81605 0.92059 0.0
C1862 C 0.61475 0.83374 0.89638 0.0
C1863 C 0.59463 0.84116 0.88091 0.0
C1864 C 0.63128 0.8236 0.88221 0.0
C1865 C 0.5921 0.83985 0.85117 0.0
C1866 C 0.60886 0.83031 0.83692 0.0
C1867 C 0.64413 0.81013 0.83786 0.0
C1868 C 0.66268 0.80022 0.85321 0.0
C1869 C 0.62822 0.82158 0.85216 0.0
C1870 C 0.66579 0.80284 0.88313 0.0
C1871 C 0.65032 0.81455 0.89753 0.0
H1872 H 0.49108 0.48901 0.69548 0.0
H1873 H 0.49913 0.57147 0.74221 0.0
H1874 H 0.51372 0.59192 0.703 0.0
H1875 H 0.52753 0.58614 0.65701 0.0
H1876 H 0.51663 0.50309 0.6095 0.0
H1877 H 0.49934 0.48312 0.64701 0.0
C1878 C 0.49589 0.51145 0.69693 0.0
C1879 C 0.49452 0.52878 0.72177 0.0
C1880 C 0.50367 0.52294 0.6741 0.0
C1881 C 0.50024 0.55777 0.72327 0.0
C1882 C 0.50859 0.56944 0.70089 0.0
C1883 C 0.5209 0.56371 0.65468 0.0
C1884 C 0.52375 0.54616 0.63074 0.0
C1885 C 0.51082 0.55223 0.6764 0.0
C1886 C 0.51486 0.51711 0.62781 0.0
C1887 C 0.50508 0.50561 0.64935 0.0
H1888 H 0.89948 0.24074 0.06385 0.0
H1889 H 0.92742 0.32588 0.10945 0.0
H1890 H 0.92432 0.34226 0.06387 0.0
H1891 H 0.90271 0.33279 0.01333 0.0
H1892 H 0.86563 0.24753 0.97135 0.0
H1893 H 0.8839 0.231 0.01239 0.0
C1894 C 0.90573 0.26287 0.0639 0.0
C1895 C 0.91273 0.28213 0.08999 0.0
C1896 C 0.90153 0.27219 0.03791 0.0
C1897 C 0.9214 0.31064 0.08962 0.0
C1898 C 0.91929 0.32002 0.06354 0.0
C1899 C 0.89852 0.31057 0.01304 0.0
C1900 C 0.88183 0.29172 0.9894 0.0
C1901 C 0.90738 0.30108 0.03783 0.0
C1902 C 0.8781 0.2629 0.98898 0.0
C1903 C 0.8884 0.25326 0.01275 0.0
H1904 H 0.15197 0.55077 0.23027 0.0
H1905 H 0.09192 0.50042 0.25879 0.0
H1906 H 0.06392 0.49704 0.21281 0.0
H1907 H 0.05503 0.51179 0.16585 0.0
H1908 H 0.11472 0.56042 0.13541 0.0
H1909 H 0.14394 0.56079 0.1799 0.0
C1910 C 0.13298 0.53817 0.22606 0.0
C1911 C 0.12451 0.52508 0.24826 0.0
C1912 C 0.11663 0.53639 0.19906 0.0
C1913 C 0.09942 0.50994 0.2423 0.0
C1914 C 0.08321 0.50831 0.21592 0.0
C1915 C 0.07453 0.52212 0.1686 0.0
C1916 C 0.08238 0.53608 0.14674 0.0
C1917 C 0.09138 0.52192 0.19432 0.0
C1918 C 0.10787 0.54926 0.15124 0.0
C1919 C 0.12465 0.54961 0.17701 0.0
H1920 H 0.84787 0.82435 0.50632 0.0
H1921 H 0.78527 0.85985 0.49572 0.0
H1922 H 0.77511 0.84076 0.44406 0.0
H1923 H 0.78593 0.81668 0.4015 0.0
H1924 H 0.85025 0.78408 0.41298 0.0
H1925 H 0.85775 0.79934 0.46481 0.0
C1926 C 0.83181 0.82776 0.49288 0.0
C1927 C 0.81739 0.84362 0.50498 0.0
C1928 C 0.8265 0.81737 0.46327 0.0
C1929 C 0.79672 0.84778 0.48703 0.0
C1930 C 0.79095 0.83692 0.45747 0.0
C1931 C 0.80141 0.81264 0.4154 0.0
C1932 C 0.81757 0.79932 0.40336 0.0
C1933 C 0.80598 0.82208 0.44528 0.0
C1934 C 0.83765 0.79445 0.42164 0.0
C1935 C 0.84195 0.80315 0.4513 0.0
H1936 H 0.53146 0.49351 0.87554 0.0
H1937 H 0.49632 0.56087 0.88361 0.0
H1938 H 0.51047 0.56964 0.93591 0.0
H1939 H 0.52959 0.55503 0.97975 0.0
H1940 H 0.56167 0.48522 0.97019 0.0
H1941 H 0.55203 0.48066 0.91826 0.0
C1942 C 0.5272 0.51044 0.88862 0.0
C1943 C 0.51278 0.52641 0.87562 0.0
C1944 C 0.53461 0.51471 0.91858 0.0
C1945 C 0.50736 0.54816 0.89305 0.0
C1946 C 0.51535 0.55313 0.92299 0.0
C1947 C 0.53463 0.53905 0.96622 0.0
C1948 C 0.54602 0.52026 0.97875 0.0
C1949 C 0.52845 0.53604 0.93607 0.0
C1950 C 0.5525 0.49963 0.96103 0.0
C1951 C 0.54709 0.49705 0.93131 0.0
H1952 H 0.83893 0.20242 0.19797 0.0
H1953 H 0.89482 0.27188 0.25329 0.0
H1954 H 0.87006 0.27047 0.29011 0.0
H1955 H 0.82938 0.25528 0.30219 0.0
H1956 H 0.77133 0.19054 0.24371 0.0
H1957 H 0.79985 0.18448 0.2119 0.0
C1958 C 0.84619 0.21654 0.21855 0.0
C1959 C 0.86872 0.23718 0.22305 0.0
C1960 C 0.831 0.21701 0.23846 0.0
C1961 C 0.87764 0.25571 0.24953 0.0
C1962 C 0.86331 0.25515 0.27034 0.0
C1963 C 0.82323 0.23953 0.28267 0.0
C1964 C 0.79849 0.22339 0.27492 0.0
C1965 C 0.83946 0.23688 0.26434 0.0
C1966 C 0.79034 0.20323 0.24969 0.0
C1967 C 0.80664 0.19974 0.23172 0.0
H1968 H 0.11062 0.56483 0.40331 0.0
H1969 H 0.15918 0.51461 0.43034 0.0
H1970 H 0.14449 0.51486 0.47567 0.0
H1971 H 0.11713 0.52987 0.50884 0.0
H1972 H 0.06881 0.57943 0.47854 0.0
H1973 H 0.08412 0.57889 0.43457 0.0
C1974 C 0.1182 0.55371 0.41886 0.0
C1975 C 0.13633 0.53962 0.4124 0.0
C1976 C 0.10959 0.55399 0.44511 0.0
C1977 C 0.14531 0.52558 0.43375 0.0
C1978 C 0.13685 0.52585 0.46005 0.0
C1979 C 0.11005 0.54079 0.49279 0.0
C1980 C 0.0915 0.55495 0.49807 0.0
C1981 C 0.11895 0.54012 0.46628 0.0
C1982 C 0.0828 0.56838 0.47606 0.0
C1983 C 0.09164 0.56807 0.45047 0.0
H1984 H 0.83818 0.88281 0.68993 0.0
H1985 H 0.80068 0.81038 0.62445 0.0
H1986 H 0.78882 0.78377 0.66099 0.0
H1987 H 0.79036 0.78064 0.71189 0.0
H1988 H 0.82791 0.85324 0.77748 0.0
H1989 H 0.8388 0.88001 0.74093 0.0
C1990 C 0.82699 0.86138 0.68378 0.0
C1991 C 0.81981 0.84864 0.65463 0.0
C1992 C 0.82068 0.84606 0.70501 0.0
C1993 C 0.80594 0.82066 0.6468 0.0
C1994 C 0.79936 0.80541 0.66769 0.0
C1995 C 0.80104 0.80227 0.71816 0.0
C1996 C 0.8086 0.81476 0.74742 0.0
C1997 C 0.8069 0.81776 0.69691 0.0
C1998 C 0.82219 0.84293 0.75515 0.0
C1999 C 0.82826 0.85837 0.73422 0.0
H2000 H 0.69762 0.44996 0.52452 0.0
H2001 H 0.74411 0.50903 0.48686 0.0
H2002 H 0.72753 0.54617 0.50771 0.0
H2003 H 0.70421 0.5628 0.5424 0.0
H2004 H 0.66156 0.5033 0.5832 0.0
H2005 H 0.67296 0.46554 0.55613 0.0
C2006 C 0.70392 0.47084 0.5204 0.0
C2007 C 0.72246 0.47682 0.50467 0.0
C2008 C 0.69558 0.49222 0.53385 0.0
C2009 C 0.72999 0.50391 0.49913 0.0
C2010 C 0.72075 0.52522 0.51135 0.0
C2011 C 0.69742 0.54153 0.54521 0.0
C2012 C 0.68246 0.5359 0.56516 0.0
C2013 C 0.70438 0.51982 0.5298 0.0
C2014 C 0.67359 0.50827 0.56852 0.0
C2015 C 0.67987 0.4866 0.55282 0.0
H2016 H 0.16568 0.14926 0.51767 0.0
H2017 H 0.21582 0.10428 0.5541 0.0
H2018 H 0.18111 0.07133 0.56492 0.0
H2019 H 0.137 0.05749 0.56727 0.0
H2020 H 0.08696 0.10195 0.5297 0.0
H2021 H 0.1213 0.13334 0.51662 0.0
C2022 C 0.16904 0.13204 0.52764 0.0
C2023 C 0.19341 0.12939 0.53522 0.0
C2024 C 0.14908 0.11347 0.53416 0.0
C2025 C 0.1973 0.10679 0.54791 0.0
C2026 C 0.17747 0.0881 0.55437 0.0
C2027 C 0.13363 0.07407 0.55623 0.0
C2028 C 0.10956 0.07781 0.55002 0.0
C2029 C 0.15339 0.09165 0.54821 0.0
C2030 C 0.10539 0.09904 0.53527 0.0
C2031 C 0.12499 0.11684 0.52758 0.0
H2032 H 0.1837 1.00203 0.80198 0.0
H2033 H 0.21092 1.0027 0.89167 0.0
H2034 H 0.23283 0.96789 0.87849 0.0
H2035 H 0.24664 0.94005 0.84151 0.0
H2036 H 0.21983 0.94026 0.75202 0.0
H2037 H 0.19523 0.97209 0.76516 0.0
C2038 C 0.19434 0.99452 0.81871 0.0
C2039 C 0.19592 1.00518 0.84778 0.0
C2040 C 0.20697 0.97477 0.811 0.0
C2041 C 0.20953 0.99495 0.86914 0.0
C2042 C 0.22207 0.97508 0.86162 0.0
C2043 C 0.23501 0.94664 0.82489 0.0
C2044 C 0.23507 0.93796 0.79585 0.0
C2045 C 0.22122 0.96519 0.83263 0.0
C2046 C 0.22023 0.94693 0.77452 0.0
C2047 C 0.20619 0.96508 0.78202 0.0
H2048 H 0.31525 0.90974 0.0569 0.0
H2049 H 0.32996 0.82875 0.04819 0.0
H2050 H 0.37437 0.85066 0.05649 0.0
H2051 H 0.40839 0.89242 0.06098 0.0
H2052 H 0.39302 0.97301 0.06598 0.0
H2053 H 0.34965 0.95168 0.06505 0.0
C2054 C 0.32818 0.89685 0.05738 0.0
C2055 C 0.31925 0.86762 0.05169 0.0
C2056 C 0.35361 0.90954 0.0613 0.0
C2057 C 0.33631 0.85129 0.05232 0.0
C2058 C 0.36171 0.8638 0.05696 0.0
C2059 C 0.39557 0.90534 0.06192 0.0
C2060 C 0.40397 0.93425 0.06323 0.0
C2061 C 0.37046 0.89285 0.06053 0.0
C2062 C 0.38719 0.95075 0.06517 0.0
C2063 C 0.36229 0.93853 0.0644 0.0
H2064 H 0.83943 0.62497 0.796 0.0
H2065 H 0.9169 0.6689 0.81878 0.0
H2066 H 0.90552 0.71362 0.82324 0.0
H2067 H 0.87275 0.74151 0.8209 0.0
H2068 H 0.79568 0.69509 0.79786 0.0
H2069 H 0.80776 0.65164 0.79351 0.0
C2070 C 0.85414 0.64416 0.80197 0.0
C2071 C 0.87939 0.64243 0.80696 0.0
C2072 C 0.84735 0.67021 0.80453 0.0
C2073 C 0.89744 0.66848 0.81467 0.0
C2074 C 0.89079 0.69445 0.81724 0.0
C2075 C 0.85845 0.72199 0.81483 0.0
C2076 C 0.83281 0.7228 0.80974 0.0
C2077 C 0.86569 0.69586 0.81226 0.0
C2078 C 0.81532 0.69638 0.80203 0.0
C2079 C 0.8223 0.67099 0.79948 0.0
H2080 H 0.86661 0.67924 0.03077 0.0
H2081 H 0.81023 0.6152 0.0504 0.0
H2082 H 0.8396 0.587 0.05815 0.0
H2083 H 0.88132 0.58041 0.0597 0.0
H2084 H 0.93813 0.64482 0.04131 0.0
H2085 H 0.90848 0.67253 0.03223 0.0
C2086 C 0.8607 0.6591 0.03672 0.0
C2087 C 0.83613 0.6495 0.04002 0.0
C2088 C 0.87777 0.64289 0.04123 0.0
C2089 C 0.82894 0.62327 0.04772 0.0
C2090 C 0.84576 0.60706 0.05216 0.0
C2091 C 0.88736 0.6006 0.05394 0.0
C2092 C 0.91211 0.61038 0.05129 0.0
C2093 C 0.87025 0.61668 0.04909 0.0
C2094 C 0.91923 0.63644 0.04319 0.0
C2095 C 0.90229 0.65246 0.03819 0.0
H2096 H 0.19502 0.18683 0.85582 0.0
H2097 H 0.23298 0.1217 0.85047 0.0
H2098 H 0.27028 0.1551 0.84585 0.0
H2099 H 0.29111 0.20225 0.8395 0.0
H2100 H 0.25286 0.26668 0.84482 0.0
H2101 H 0.21662 0.23427 0.85301 0.0
C2102 C 0.2115 0.17991 0.85397 0.0
C2103 C 0.21105 0.15168 0.85329 0.0
C2104 C 0.23272 0.19908 0.85078 0.0
C2105 C 0.23271 0.14325 0.85097 0.0
C2106 C 0.25405 0.16234 0.84821 0.0
C2107 C 0.27483 0.20909 0.84261 0.0
C2108 C 0.27407 0.23647 0.84034 0.0
C2109 C 0.25411 0.19018 0.84747 0.0
C2110 C 0.25317 0.24533 0.84484 0.0
C2111 C 0.23265 0.22687 0.85002 0.0
H2112 H 0.39466 0.95758 0.27048 0.0
H2113 H 0.36631 1.00314 0.33359 0.0
H2114 H 0.3411 0.95892 0.34126 0.0
H2115 H 0.32905 0.9063 0.33227 0.0
H2116 H 0.35655 0.86206 0.26706 0.0
H2117 H 0.37984 0.90622 0.2583 0.0
C2118 C 0.38261 0.95803 0.28558 0.0
C2119 C 0.38252 0.9842 0.30126 0.0
C2120 C 0.3681 0.93236 0.28988 0.0
C2121 C 0.3667 0.98378 0.32076 0.0
C2122 C 0.35242 0.95827 0.32541 0.0
C2123 C 0.34003 0.90625 0.31602 0.0
C2124 C 0.34093 0.88023 0.30055 0.0
C2125 C 0.35328 0.93226 0.31051 0.0
C2126 C 0.35522 0.8812 0.27941 0.0
C2127 C 0.36869 0.90668 0.27435 0.0
H2128 H 0.62529 0.41182 0.62125 0.0
H2129 H 0.55231 0.37629 0.63465 0.0
H2130 H 0.53805 0.41488 0.61806 0.0
H2131 H 0.54615 0.45869 0.59944 0.0
H2132 H 0.61975 0.49605 0.58931 0.0
H2133 H 0.63394 0.45689 0.60481 0.0
C2134 C 0.60624 0.41248 0.62052 0.0
C2135 C 0.58985 0.39095 0.62904 0.0
C2136 C 0.59828 0.43509 0.61146 0.0
C2137 C 0.56534 0.39247 0.62828 0.0
C2138 C 0.55715 0.41454 0.61871 0.0
C2139 C 0.56528 0.4582 0.60049 0.0
C2140 C 0.58184 0.48014 0.59284 0.0
C2141 C 0.57341 0.43593 0.61015 0.0
C2142 C 0.60666 0.47941 0.59493 0.0
C2143 C 0.61474 0.45699 0.6038 0.0
H2144 H 0.43274 0.79962 0.43524 0.0
H2145 H 0.4593 0.75025 0.37317 0.0
H2146 H 0.42422 0.75085 0.3355 0.0
H2147 H 0.38509 0.76401 0.3208 0.0
H2148 H 0.36106 0.81687 0.38201 0.0
H2149 H 0.39587 0.8161 0.41972 0.0
C2150 C 0.4309 0.78897 0.41345 0.0
C2151 C 0.4485 0.77456 0.40711 0.0
C2152 C 0.41097 0.78983 0.39193 0.0
C2153 C 0.44606 0.7614 0.37865 0.0
C2154 C 0.42595 0.7617 0.35715 0.0
C2155 C 0.38752 0.77544 0.3424 0.0
C2156 C 0.36982 0.78958 0.34902 0.0
C2157 C 0.40816 0.77562 0.36362 0.0
C2158 C 0.37362 0.80478 0.37684 0.0
C2159 C 0.39376 0.80461 0.39823 0.0
H2160 H 0.11149 0.73396 0.09728 0.0
H2161 H 0.04543 0.73497 0.12956 0.0
H2162 H 0.03206 0.68394 0.11796 0.0
H2163 H 0.04029 0.63889 0.10083 0.0
H2164 H 0.10782 0.63881 0.07127 0.0
H2165 H 0.11944 0.68953 0.07983 0.0
C2166 C 0.09396 0.72311 0.10142 0.0
C2167 C 0.0794 0.73837 0.11409 0.0
C2168 C 0.08679 0.69382 0.09552 0.0
C2169 C 0.05696 0.7238 0.11971 0.0
C2170 C 0.04936 0.6946 0.11319 0.0
C2171 C 0.0575 0.64995 0.09615 0.0
C2172 C 0.07316 0.63488 0.0855 0.0
C2173 C 0.06432 0.67935 0.10147 0.0
C2174 C 0.09544 0.64969 0.07968 0.0
C2175 C 0.1021 0.67879 0.08447 0.0
H2176 H 0.11122 0.27096 0.95859 0.0
H2177 H 0.05955 0.28752 0.8903 0.0
H2178 H 0.09126 0.29403 0.86171 0.0
H2179 H 0.13397 0.29614 0.85651 0.0
H2180 H 0.18522 0.27829 0.92435 0.0
H2181 H 0.15348 0.2716 0.95274 0.0
C2182 C 0.10682 0.27595 0.93743 0.0
C2183 C 0.08295 0.27879 0.92671 0.0
C2184 C 0.12516 0.27963 0.92104 0.0
C2185 C 0.07769 0.28517 0.89916 0.0
C2186 C 0.09586 0.28894 0.88278 0.0
C2187 C 0.13817 0.29042 0.87734 0.0
C2188 C 0.16214 0.28785 0.88819 0.0
C2189 C 0.11969 0.28631 0.89353 0.0
C2190 C 0.16717 0.28089 0.91552 0.0
C2191 C 0.14894 0.27687 0.93175 0.0
H2192 H 0.50279 0.75024 0.98335 0.0
H2193 H 0.57224 0.77148 0.95622 0.0
H2194 H 0.58174 0.72935 0.96913 0.0
H2195 H 0.57269 0.68976 0.99362 0.0
H2196 H 0.50382 0.66909 0.02177 0.0
H2197 H 0.49145 0.70742 1.00239 0.0
C2198 C 0.51986 0.74547 0.97993 0.0
C2199 C 0.537 0.76422 0.96942 0.0
C2200 C 0.52534 0.72138 0.98765 0.0
C2201 C 0.55883 0.75752 0.96458 0.0
C2202 C 0.56433 0.73348 0.97202 0.0
C2203 C 0.55485 0.69351 0.99514 0.0
C2204 C 0.53931 0.67704 1.00938 0.0
C2205 C 0.5481 0.71579 0.98444 0.0
C2206 C 0.51604 0.68159 0.01083 0.0
C2207 C 0.50907 0.70359 0.99998 0.0
H2208 H 0.1622 0.74163 0.795 0.0
H2209 H 0.15713 0.82421 0.7848 0.0
H2210 H 0.20081 0.8373 0.78202 0.0
H2211 H 0.2398 0.82456 0.78078 0.0
H2212 H 0.24433 0.74144 0.7897 0.0
H2213 H 0.2011 0.72896 0.79383 0.0
C2214 C 0.1708 0.76265 0.79275 0.0
C2215 C 0.15665 0.78204 0.79041 0.0
C2216 C 0.19553 0.76965 0.79011 0.0
C2217 C 0.16781 0.80903 0.78684 0.0
C2218 C 0.19265 0.81641 0.78499 0.0
C2219 C 0.23122 0.80358 0.78314 0.0
C2220 C 0.24514 0.78387 0.78468 0.0
C2221 C 0.20653 0.7967 0.78603 0.0
C2222 C 0.2339 0.75692 0.78827 0.0
C2223 C 0.20928 0.74984 0.79088 0.0
H2224 H 0.99288 0.38699 0.46853 0.0
H2225 H 0.03654 0.43146 0.41653 0.0
H2226 H 0.04607 0.47445 0.45234 0.0
H2227 H 0.04352 0.49843 0.49921 0.0
H2228 H 1.00329 0.45283 0.55328 0.0
H2229 H 0.99027 0.41099 0.51537 0.0
C2230 C 1.00426 0.40614 0.46485 0.0
C2231 C 1.0139 0.40618 0.43986 0.0
C2232 C 1.01008 0.43043 0.48577 0.0
C2233 C 0.02898 0.431 0.43563 0.0
C2234 C 0.03434 0.45552 0.45603 0.0
C2235 C 0.03155 0.47947 0.50253 0.0
C2236 C 0.02406 0.47865 0.52882 0.0
C2237 C 0.02515 0.45538 0.48126 0.0
C2238 C 1.00904 0.45385 0.53309 0.0
C2239 C 1.00176 0.42999 0.51153 0.0
H2240 H 0.46329 0.20082 0.29222 0.0
H2241 H 0.53056 0.26703 0.30909 0.0
H2242 H 0.51228 0.2978 0.33731 0.0
H2243 H 0.4754 0.30773 0.35164 0.0
H2244 H 0.40667 0.24348 0.32933 0.0
H2245 H 0.42711 0.20994 0.30938 0.0
C2246 C 0.47403 0.22174 0.30277 0.0
C2247 C 0.49809 0.2318 0.29875 0.0
C2248 C 0.46303 0.2397 0.31787 0.0
C2249 C 0.51189 0.25903 0.31198 0.0
C2250 C 0.50145 0.27663 0.32799 0.0
C2251 C 0.46508 0.28626 0.34284 0.0
C2252 C 0.43967 0.27782 0.34245 0.0
C2253 C 0.47675 0.26752 0.3302 0.0
C2254 C 0.42642 0.25003 0.33083 0.0
C2255 C 0.43803 0.231 0.31903 0.0
H2256 H 0.63407 0.59488 0.44398 0.0
H2257 H 0.624 0.50888 0.40594 0.0
H2258 H 0.60697 0.49386 0.44618 0.0
H2259 H 0.59069 0.5053 0.48938 0.0
H2260 H 0.60163 0.59154 0.52733 0.0
H2261 H 0.62309 0.60638 0.49032 0.0
C2262 C 0.62833 0.57285 0.44464 0.0
C2263 C 0.62977 0.55298 0.42181 0.0
C2264 C 0.61875 0.56444 0.46783 0.0
C2265 C 0.62284 0.52455 0.4232 0.0
C2266 C 0.61307 0.51596 0.44615 0.0
C2267 C 0.59819 0.52731 0.48977 0.0
C2268 C 0.59424 0.54731 0.51069 0.0
C2269 C 0.61032 0.53572 0.46819 0.0
C2270 C 0.60428 0.57576 0.51128 0.0
C2271 C 0.61643 0.58427 0.49003 0.0
H2272 H 0.1984 0.74951 0.0444 0.0
H2273 H 0.20225 0.83205 0.08806 0.0
H2274 H 0.19953 0.81485 0.13253 0.0
H2275 H 0.21027 0.78074 0.16089 0.0
H2276 H 0.21087 0.69976 0.11777 0.0
H2277 H 0.19686 0.71153 0.07129 0.0
C2278 C 0.19773 0.76354 0.06338 0.0
C2279 C 0.20174 0.79223 0.06332 0.0
C2280 C 0.19744 0.7538 0.08922 0.0
C2281 C 0.19991 0.80998 0.08773 0.0
C2282 C 0.19857 0.80019 0.1133 0.0
C2283 C 0.20608 0.76518 0.1414 0.0
C2284 C 0.21231 0.73978 0.14251 0.0
C2285 C 0.19949 0.77274 0.11475 0.0
C2286 C 0.20663 0.71966 0.11723 0.0
C2287 C 0.19889 0.72652 0.09067 0.0
H2288 H 0.95333 0.54414 0.90931 0.0
H2289 H 1.01218 0.59656 0.88084 0.0
H2290 H 0.04093 0.59908 0.92603 0.0
H2291 H 0.05082 0.583 0.97221 0.0
H2292 H 0.99217 0.53245 1.00256 0.0
H2293 H 0.96229 0.53286 0.95901 0.0
C2294 C 0.97221 0.557 0.91339 0.0
C2295 C 0.9801 0.57092 0.89143 0.0
C2296 C 0.98899 0.55831 0.93994 0.0
C2297 C 1.00509 0.5864 0.89719 0.0
C2298 C 0.02174 0.58753 0.92311 0.0
C2299 C 0.03141 0.57241 0.96964 0.0
C2300 C 0.02406 0.55769 0.99121 0.0
C2301 C 1.01413 0.57309 0.94444 0.0
C2302 C 0.99866 0.54419 0.98696 0.0
C2303 C 0.98148 0.5443 0.96172 0.0
H2304 H 0.25235 0.25212 0.62777 0.0
H2305 H 0.31542 0.21742 0.63188 0.0
H2306 H 0.32869 0.23653 0.68351 0.0
H2307 H 0.32081 0.26086 0.7278 0.0
H2308 H 0.25612 0.29279 0.72286 0.0
H2309 H 0.24508 0.27697 0.67098 0.0
C2310 C 0.26915 0.24886 0.6398 0.0
C2311 C 0.28285 0.23331 0.626 0.0
C2312 C 0.27628 0.25929 0.66933 0.0
C2313 C 0.3045 0.22926 0.64203 0.0
C2314 C 0.31206 0.24014 0.67152 0.0
C2315 C 0.30443 0.26455 0.71528 0.0
C2316 C 0.28922 0.27784 0.72909 0.0
C2317 C 0.29788 0.25486 0.68545 0.0
C2318 C 0.26798 0.28237 0.71272 0.0
C2319 C 0.26168 0.27339 0.68307 0.0
H2320 H 0.62017 0.51467 0.25424 0.0
H2321 H 0.59023 0.58543 0.27133 0.0
H2322 H 0.57344 0.5806 0.22037 0.0
H2323 H 0.57007 0.55893 0.17051 0.0
H2324 H 0.5979 0.48698 0.15264 0.0
H2325 H 0.61254 0.48951 0.20416 0.0
C2326 C 0.60966 0.52876 0.24685 0.0
C2327 C 0.6068 0.55058 0.2667 0.0
C2328 C 0.59985 0.52585 0.21729 0.0
C2329 C 0.59289 0.56849 0.25668 0.0
C2330 C 0.58333 0.56588 0.22744 0.0
C2331 C 0.57921 0.54372 0.17798 0.0
C2332 C 0.58316 0.52299 0.15796 0.0
C2333 C 0.58722 0.5451 0.20752 0.0
C2334 C 0.59461 0.50308 0.16775 0.0
C2335 C 0.60307 0.50461 0.19718 0.0
H2336 H 0.27959 0.87039 0.95712 0.0
H2337 H 0.21239 0.81416 0.90452 0.0
H2338 H 0.23159 0.81328 0.86269 0.0
H2339 H 0.26995 0.82033 0.84474 0.0
H2340 H 0.33919 0.86811 0.90081 0.0
H2341 H 0.31705 0.8808 0.93787 0.0
C2342 C 0.26888 0.85895 0.93614 0.0
C2343 C 0.24456 0.84279 0.93352 0.0
C2344 C 0.2808 0.85651 0.91319 0.0
C2345 C 0.23099 0.82714 0.90669 0.0
C2346 C 0.24211 0.82635 0.883 0.0
C2347 C 0.28005 0.83416 0.86479 0.0
C2348 C 0.30607 0.84342 0.87028 0.0
C2349 C 0.26739 0.8397 0.88648 0.0
C2350 C 0.31914 0.86086 0.89637 0.0
C2351 C 0.30649 0.868 0.91747 0.0
H2352 H 0.99352 0.53377 0.73674 0.0
H2353 H 0.94643 0.58607 0.71141 0.0
H2354 H 0.96205 0.58741 0.66674 0.0
H2355 H 0.98999 0.57345 0.63385 0.0
H2356 H 0.03646 0.52128 0.66227 0.0
H2357 H 0.02027 0.52035 0.70556 0.0
C2358 C 0.98647 0.54569 0.72172 0.0
C2359 C 0.96849 0.5599 0.72846 0.0
C2360 C 0.99561 0.54635 0.69587 0.0
C2361 C 0.96017 0.57498 0.70778 0.0
C2362 C 0.96918 0.57565 0.68187 0.0
C2363 C 0.99652 0.56168 0.64935 0.0
C2364 C 1.01485 0.5473 0.64375 0.0
C2365 C 0.987 0.56134 0.67541 0.0
C2366 C 0.02272 0.53262 0.66501 0.0
C2367 C 1.01336 0.53206 0.69021 0.0
H2368 H 0.26448 0.20154 0.44326 0.0
H2369 H 0.29878 0.27125 0.51293 0.0
H2370 H 0.31105 0.30101 0.47909 0.0
H2371 H 0.30995 0.30784 0.42952 0.0
H2372 H 0.27569 0.23825 0.35948 0.0
H2373 H 0.26507 0.20795 0.39337 0.0
C2374 C 0.27518 0.22305 0.45089 0.0
C2375 C 0.28122 0.23422 0.48037 0.0
C2376 C 0.2816 0.2402 0.43121 0.0
C2377 C 0.29442 0.26227 0.49023 0.0
C2378 C 0.30118 0.27931 0.47092 0.0
C2379 C 0.30007 0.28608 0.42171 0.0
C2380 C 0.29325 0.27542 0.39207 0.0
C2381 C 0.29445 0.26866 0.44133 0.0
C2382 C 0.28075 0.24708 0.38222 0.0
C2383 C 0.27486 0.22966 0.40159 0.0
H2384 H 0.40472 0.63894 0.56845 0.0
H2385 H 0.33652 0.57515 0.55731 0.0
H2386 H 0.35132 0.54358 0.52504 0.0
H2387 H 0.38579 0.53285 0.50481 0.0
H2388 H 0.45428 0.59722 0.51832 0.0
H2389 H 0.43661 0.63027 0.54341 0.0
C2390 C 0.39308 0.61813 0.55888 0.0
C2391 C 0.36995 0.60894 0.56574 0.0
C2392 C 0.40158 0.6004 0.54036 0.0
C2393 C 0.35462 0.58237 0.55256 0.0
C2394 C 0.36304 0.56442 0.53411 0.0
C2395 C 0.39669 0.55423 0.51284 0.0
C2396 C 0.42147 0.56228 0.50998 0.0
C2397 C 0.3868 0.573 0.5285 0.0
C2398 C 0.43512 0.5903 0.51986 0.0
C2399 C 0.4252 0.60922 0.53474 0.0
H2400 H 0.93184 0.9355 0.60876 0.0
H2401 H 0.87739 0.97599 0.5735 0.0
H2402 H 0.9101 1.0114 0.56233 0.0
H2403 H 0.95412 0.02939 0.5601 0.0
H2404 H 1.00822 0.98937 0.597 0.0
H2405 H 0.97571 0.95501 0.60947 0.0
C2406 C 0.92708 0.95222 0.5989 0.0
C2407 C 0.90209 0.95293 0.5919 0.0
C2408 C 0.94593 0.97235 0.59232 0.0
C2409 C 0.89642 0.97492 0.57928 0.0
C2410 C 0.91512 0.99508 0.57265 0.0
C2411 C 0.95873 1.01311 0.57084 0.0
C2412 C 0.98351 1.01155 0.57705 0.0
C2413 C 0.9399 0.99372 0.57859 0.0
C2414 C 0.98926 0.99064 0.59141 0.0
C2415 C 0.97068 0.97112 0.59876 0.0
H2416 H 0.88896 0.02166 0.34129 0.0
H2417 H 0.91921 0.069 0.28159 0.0
H2418 H 0.89054 0.09802 0.28568 0.0
H2419 H 0.85599 0.10886 0.3048 0.0
H2420 H 0.82572 0.06178 0.36457 0.0
H2421 H 0.85516 0.03344 0.36154 0.0
C2422 C 0.88938 0.03841 0.32928 0.0
C2423 C 0.90614 0.0431 0.31112 0.0
C2424 C 0.87274 0.0549 0.33155 0.0
C2425 C 0.90644 0.06489 0.29568 0.0
C2426 C 0.89005 0.08149 0.29797 0.0
C2427 C 0.85605 0.09264 0.31745 0.0
C2428 C 0.83873 0.0874 0.33487 0.0
C2429 C 0.87302 0.07653 0.31567 0.0
C2430 C 0.83871 0.06598 0.35074 0.0
C2431 C 0.85561 0.04989 0.34914 0.0
H2432 H 0.79421 0.19098 0.08373 0.0
H2433 H 0.79128 0.26733 0.13523 0.0
H2434 H 0.74636 0.25018 0.12766 0.0
H2435 H 0.70896 0.2113 0.11181 0.0
H2436 H 0.71159 0.13516 0.05964 0.0
H2437 H 0.75571 0.15442 0.06246 0.0
C2438 C 0.78372 0.20409 0.09291 0.0
C2439 C 0.79617 0.23024 0.11036 0.0
C2440 C 0.75791 0.19396 0.08881 0.0
C2441 C 0.78223 0.24707 0.1218 0.0
C2442 C 0.75652 0.2372 0.11764 0.0
C2443 C 0.71895 0.19912 0.10038 0.0
C2444 C 0.70696 0.1716 0.08593 0.0
C2445 C 0.7443 0.21035 0.10196 0.0
C2446 C 0.72043 0.15612 0.07155 0.0
C2447 C 0.74565 0.16718 0.073 0.0
H2448 H 0.26406 0.47276 0.35278 0.0
H2449 H 0.18738 0.42906 0.31802 0.0
H2450 H 0.199 0.3845 0.31266 0.0
H2451 H 0.23183 0.35676 0.31759 0.0
H2452 H 0.30806 0.40299 0.35269 0.0
H2453 H 0.29569 0.44623 0.3579 0.0
C2454 C 0.24957 0.45365 0.34398 0.0
C2455 C 0.2245 0.45536 0.33589 0.0
C2456 C 0.2565 0.42772 0.34093 0.0
C2457 C 0.20671 0.42944 0.3246 0.0
C2458 C 0.2135 0.40358 0.32151 0.0
C2459 C 0.24585 0.37619 0.32648 0.0
C2460 C 0.27136 0.37545 0.33468 0.0
C2461 C 0.23845 0.40219 0.32956 0.0
C2462 C 0.28854 0.40172 0.34602 0.0
C2463 C 0.28139 0.42697 0.34908 0.0
H2464 H 0.28706 0.47731 0.09575 0.0
H2465 H 0.23821 0.39505 0.08572 0.0
H2466 H 0.20247 0.41421 0.08129 0.0
H2467 H 0.1845 0.45401 0.07969 0.0
H2468 H 0.23261 0.5364 0.08861 0.0
H2469 H 0.2688 0.51763 0.0945 0.0
C2470 C 0.26861 0.4636 0.09267 0.0
C2471 C 0.26554 0.43468 0.09103 0.0
C2472 C 0.24779 0.47479 0.09004 0.0
C2473 C 0.24136 0.41734 0.08703 0.0
C2474 C 0.22076 0.42828 0.08448 0.0
C2475 C 0.20286 0.46791 0.08272 0.0
C2476 C 0.20559 0.49666 0.08368 0.0
C2477 C 0.22369 0.45693 0.0858 0.0
C2478 C 0.22974 0.51425 0.08816 0.0
C2479 C 0.25055 0.50348 0.09133 0.0
H2480 H 0.92502 0.90459 0.30759 0.0
H2481 H 0.88449 0.9251 0.23291 0.0
H2482 H 0.84638 0.89185 0.23665 0.0
H2483 H 0.82464 0.85767 0.26236 0.0
H2484 H 0.86482 0.84324 0.34101 0.0
H2485 H 0.90307 0.87345 0.3348 0.0
C2486 C 0.90787 0.9014 0.29192 0.0
C2487 C 0.90745 0.91653 0.26963 0.0
C2488 C 0.88603 0.88352 0.29514 0.0
C2489 C 0.88511 0.91317 0.24996 0.0
C2490 C 0.8634 0.89434 0.25222 0.0
C2491 C 0.8418 0.86125 0.27809 0.0
C2492 C 0.84221 0.8475 0.30156 0.0
C2493 C 0.8636 0.87956 0.27492 0.0
C2494 C 0.86435 0.8527 0.32215 0.0
C2495 C 0.88616 0.87019 0.31877 0.0
H2496 H 0.71702 0.13973 0.87598 0.0
H2497 H 0.7375 0.09224 0.8069 0.0
H2498 H 0.76257 0.13563 0.79734 0.0
H2499 H 0.77635 0.18827 0.80638 0.0
H2500 H 0.75702 0.23433 0.87767 0.0
H2501 H 0.73417 0.19088 0.88827 0.0
C2502 C 0.72742 0.13865 0.8592 0.0
C2503 C 0.7253 0.1122 0.84244 0.0
C2504 C 0.74187 0.16386 0.85383 0.0
C2505 C 0.73893 0.11181 0.82066 0.0
C2506 C 0.75308 0.13687 0.81492 0.0
C2507 C 0.7673 0.18887 0.82438 0.0
C2508 C 0.76853 0.21523 0.84099 0.0
C2509 C 0.75433 0.16322 0.83096 0.0
C2510 C 0.7567 0.21492 0.86437 0.0
C2511 C 0.74346 0.18985 0.87049 0.0
loop_
_geom_bond_atom_site_label_1
_geom_bond_atom_site_label_2
_geom_bond_distance
_geom_bond_site_symmetry_2
_ccdc_geom_bond_type
Zn0 O3 2.031 . S
Zn0 O5 2.049 . S
Zn0 O10 2.067 . S
Zn1 O2 1.962 . S
Zn1 O4 1.986 . S
Zn1 O6 1.996 . S
Zn1 O9 1.943 1_455 S
O2 Zn1 1.962 . S
O2 C7 1.254 . S
O3 Zn0 2.031 . S
O3 C7 1.269 1_655 S
O4 Zn1 1.986 . S
O4 C11 1.262 . S
O5 Zn0 2.049 . S
O5 C13 1.260 . S
O6 Zn1 1.996 . S
O6 C13 1.257 1_455 S
C7 O2 1.254 . S
C7 O3 1.269 1_455 S
C8 O9 1.249 . S
C8 O10 1.270 . S
O9 Zn1 1.943 1_655 S
O9 C8 1.249 . S
O10 Zn0 2.067 . S
O10 C8 1.270 . S
C11 O4 1.262 . S
C11 O12 1.232 . S
O12 C11 1.232 . S
C13 O5 1.260 . S
C13 O6 1.257 1_655 S
Zn14 O17 2.031 . S
Zn14 O19 2.049 . S
Zn14 O24 2.067 . S
Zn15 O16 1.962 . S
Zn15 O18 1.986 . S
Zn15 O20 1.996 . S
Zn15 O23 1.943 . S
O16 Zn15 1.962 . S
O16 C21 1.254 . S
O17 Zn14 2.031 . S
O17 C21 1.269 . S
O18 Zn15 1.986 . S
O18 C25 1.262 . S
O19 Zn14 2.049 . S
O19 C27 1.260 . S
O20 Zn15 1.996 . S
O20 C27 1.257 . S
C21 O16 1.254 . S
C21 O17 1.269 . S
C22 O23 1.249 . S
C22 O24 1.270 . S
O23 Zn15 1.943 . S
O23 C22 1.249 . S
O24 Zn14 2.067 . S
O24 C22 1.270 . S
C25 O18 1.262 . S
C25 O26 1.232 . S
O26 C25 1.232 . S
C27 O19 1.260 . S
C27 O20 1.257 . S
Zn28 O31 2.031 . S
Zn28 O33 2.049 . S
Zn28 O38 2.067 . S
Zn29 O30 1.962 . S
Zn29 O32 1.986 . S
Zn29 O34 1.996 . S
Zn29 O37 1.943 . S
O30 Zn29 1.962 . S
O30 C35 1.254 . S
O31 Zn28 2.031 . S
O31 C35 1.269 . S
O32 Zn29 1.986 . S
O32 C39 1.262 . S
O33 Zn28 2.049 . S
O33 C41 1.260 . S
O34 Zn29 1.996 . S
O34 C41 1.257 . S
C35 O30 1.254 . S
C35 O31 1.269 . S
C36 O37 1.249 . S
C36 O38 1.270 . S
O37 Zn29 1.943 . S
O37 C36 1.249 . S
O38 Zn28 2.067 . S
O38 C36 1.270 . S
C39 O32 1.262 . S
C39 O40 1.232 . S
O40 C39 1.232 . S
C41 O33 1.260 . S
C41 O34 1.257 . S
Zn42 O45 2.031 . S
Zn42 O47 2.049 . S
Zn42 O52 2.067 . S
Zn43 O44 1.962 . S
Zn43 O46 1.986 . S
Zn43 O48 1.996 . S
Zn43 O51 1.943 . S
O44 Zn43 1.962 . S
O44 C49 1.254 . S
O45 Zn42 2.031 . S
O45 C49 1.269 . S
O46 Zn43 1.986 . S
O46 C53 1.262 . S
O47 Zn42 2.049 . S
O47 C55 1.260 . S
O48 Zn43 1.996 . S
O48 C55 1.257 . S
C49 O44 1.254 . S
C49 O45 1.269 . S
C50 O51 1.249 . S
C50 O52 1.270 . S
O51 Zn43 1.943 . S
O51 C50 1.249 . S
O52 Zn42 2.067 . S
O52 C50 1.270 . S
C53 O46 1.262 . S
C53 O54 1.232 . S
O54 C53 1.232 . S
C55 O47 1.260 . S
C55 O48 1.257 . S
Zn56 O59 2.031 . S
Zn56 O61 2.049 . S
Zn56 O66 2.067 . S
Zn57 O58 1.962 . S
Zn57 O60 1.986 . S
Zn57 O62 1.996 . S
Zn57 O65 1.943 . S
O58 Zn57 1.962 . S
O58 C63 1.254 . S
O59 Zn56 2.031 . S
O59 C63 1.269 . S
O60 Zn57 1.986 . S
O60 C67 1.262 . S
O61 Zn56 2.049 . S
O61 C69 1.260 . S
O62 Zn57 1.996 . S
O62 C69 1.257 . S
C63 O58 1.254 . S
C63 O59 1.269 . S
C64 O65 1.249 . S
C64 O66 1.270 . S
O65 Zn57 1.943 . S
O65 C64 1.249 . S
O66 Zn56 2.067 . S
O66 C64 1.270 . S
C67 O60 1.262 . S
C67 O68 1.232 . S
O68 C67 1.232 . S
C69 O61 1.260 . S
C69 O62 1.257 . S
Zn70 O73 2.031 . S
Zn70 O75 2.049 . S
Zn70 O80 2.067 . S
Zn71 O72 1.962 . S
Zn71 O74 1.986 . S
Zn71 O76 1.996 . S
Zn71 O79 1.943 . S
O72 Zn71 1.962 . S
O72 C77 1.254 . S
O73 Zn70 2.031 . S
O73 C77 1.269 . S
O74 Zn71 1.986 . S
O74 C81 1.262 . S
O75 Zn70 2.049 . S
O75 C83 1.260 . S
O76 Zn71 1.996 . S
O76 C83 1.257 . S
C77 O72 1.254 . S
C77 O73 1.269 . S
C78 O79 1.249 . S
C78 O80 1.270 . S
O79 Zn71 1.943 . S
O79 C78 1.249 . S
O80 Zn70 2.067 . S
O80 C78 1.270 . S
C81 O74 1.262 . S
C81 O82 1.232 . S
O82 C81 1.232 . S
C83 O75 1.260 . S
C83 O76 1.257 . S
Zn84 O87 2.031 . S
Zn84 O89 2.049 . S
Zn84 O94 2.067 . S
Zn85 O86 1.962 . S
Zn85 O88 1.986 . S
Zn85 O90 1.996 . S
Zn85 O93 1.943 . S
O86 Zn85 1.962 . S
O86 C91 1.254 . S
O87 Zn84 2.031 . S
O87 C91 1.269 . S
O88 Zn85 1.986 . S
O88 C95 1.262 . S
O89 Zn84 2.049 . S
O89 C97 1.260 . S
O90 Zn85 1.996 . S
O90 C97 1.257 . S
C91 O86 1.254 . S
C91 O87 1.269 . S
C92 O93 1.249 . S
C92 O94 1.270 . S
O93 Zn85 1.943 . S
O93 C92 1.249 . S
O94 Zn84 2.067 . S
O94 C92 1.270 . S
C95 O88 1.262 . S
C95 O96 1.232 . S
O96 C95 1.232 . S
C97 O89 1.260 . S
C97 O90 1.257 . S
Zn98 O101 2.031 . S
Zn98 O103 2.049 1_556 S
Zn98 O108 2.067 . S
Zn99 O100 1.962 . S
Zn99 O102 1.986 . S
Zn99 O104 1.996 . S
Zn99 O107 1.943 1_455 S
O100 Zn99 1.962 . S
O100 C105 1.254 . S
O101 Zn98 2.031 . S
O101 C105 1.269 1_655 S
O102 Zn99 1.986 . S
O102 C109 1.262 . S
O103 Zn98 2.049 1_554 S
O103 C111 1.227 1_654 S
O104 Zn99 1.996 . S
O104 C111 1.271 . S
C105 O100 1.254 . S
C105 O101 1.269 1_455 S
C106 O107 1.249 . S
C106 O108 1.270 . S
O107 Zn99 1.943 1_655 S
O107 C106 1.249 . S
O108 Zn98 2.067 . S
O108 C106 1.270 . S
C109 O102 1.262 . S
C109 O110 1.232 . S
O110 C109 1.232 . S
C111 O103 1.227 1_456 S
C111 O104 1.271 . S
Zn112 O115 2.031 1_565 S
Zn112 O117 2.049 . S
Zn112 O122 2.067 . S
Zn113 O114 1.962 . S
Zn113 O116 1.986 . S
Zn113 O118 1.996 . S
Zn113 O121 1.943 . S
O114 Zn113 1.962 . S
O114 C119 1.254 . S
O115 Zn112 2.031 1_545 S
O115 C119 1.269 . S
O116 Zn113 1.986 . S
O116 C123 1.262 . S
O117 Zn112 2.049 . S
O117 C125 1.260 1_565 S
O118 Zn113 1.996 . S
O118 C125 1.257 . S
C119 O114 1.254 . S
C119 O115 1.269 . S
C120 O121 1.249 1_565 S
C120 O122 1.270 . S
O121 Zn113 1.943 . S
O121 C120 1.249 1_545 S
O122 Zn112 2.067 . S
O122 C120 1.270 . S
C123 O116 1.262 . S
C123 O124 1.232 . S
O124 C123 1.232 . S
C125 O117 1.260 1_545 S
C125 O118 1.257 . S
Zn126 O129 2.031 . S
Zn126 O131 2.049 . S
Zn126 O136 2.067 . S
Zn127 O128 1.962 . S
Zn127 O130 1.986 . S
Zn127 O132 1.996 . S
Zn127 O135 1.943 . S
O128 Zn127 1.962 . S
O128 C133 1.254 . S
O129 Zn126 2.031 . S
O129 C133 1.269 . S
O130 Zn127 1.986 . S
O130 C137 1.262 . S
O131 Zn126 2.049 . S
O131 C139 1.260 . S
O132 Zn127 1.996 . S
O132 C139 1.257 . S
C133 O128 1.254 . S
C133 O129 1.269 . S
C134 O135 1.249 . S
C134 O136 1.270 . S
O135 Zn127 1.943 . S
O135 C134 1.249 . S
O136 Zn126 2.067 . S
O136 C134 1.270 . S
C137 O130 1.262 . S
C137 O138 1.232 . S
O138 C137 1.232 . S
C139 O131 1.260 . S
C139 O132 1.257 . S
Zn140 O143 2.031 . S
Zn140 O145 2.049 . S
Zn140 O150 2.067 . S
Zn141 O142 1.962 . S
Zn141 O144 1.986 . S
Zn141 O146 1.996 . S
Zn141 O149 1.943 . S
O142 Zn141 1.962 . S
O142 C147 1.254 . S
O143 Zn140 2.031 . S
O143 C147 1.269 . S
O144 Zn141 1.986 . S
O144 C151 1.262 . S
O145 Zn140 2.049 . S
O145 C153 1.260 . S
O146 Zn141 1.996 . S
O146 C153 1.257 . S
C147 O142 1.254 . S
C147 O143 1.269 . S
C148 O149 1.249 . S
C148 O150 1.270 . S
O149 Zn141 1.943 . S
O149 C148 1.249 . S
O150 Zn140 2.067 . S
O150 C148 1.270 . S
C151 O144 1.262 . S
C151 O152 1.232 . S
O152 C151 1.232 . S
C153 O145 1.260 . S
C153 O146 1.257 . S
Zn154 O157 2.031 1_554 S
Zn154 O159 2.049 . S
Zn154 O164 2.067 . S
Zn155 O156 1.962 . S
Zn155 O158 1.986 1_556 S
Zn155 O160 1.996 1_556 S
Zn155 O163 1.943 1_556 S
O156 Zn155 1.962 . S
O156 C161 1.254 . S
O157 Zn154 2.031 1_556 S
O157 C161 1.269 . S
O158 Zn155 1.986 1_554 S
O158 C165 1.262 1_554 S
O159 Zn154 2.049 . S
O159 C167 1.260 . S
O160 Zn155 1.996 1_554 S
O160 C167 1.257 . S
C161 O156 1.254 . S
C161 O157 1.269 . S
C162 O163 1.249 . S
C162 O164 1.270 . S
O163 Zn155 1.943 1_554 S
O163 C162 1.249 . S
O164 Zn154 2.067 . S
O164 C162 1.270 . S
C165 O158 1.262 1_556 S
C165 O166 1.232 . S
O166 C165 1.232 . S
C167 O159 1.260 . S
C167 O160 1.257 . S
Zn168 O171 2.031 . S
Zn168 O173 2.049 . S
Zn168 O178 2.067 . S
Zn169 O170 1.962 . S
Zn169 O172 1.986 . S
Zn169 O174 1.996 . S
Zn169 O177 1.943 . S
O170 Zn169 1.962 . S
O170 C175 1.254 . S
O171 Zn168 2.031 . S
O171 C175 1.269 . S
O172 Zn169 1.986 . S
O172 C179 1.262 . S
O173 Zn168 2.049 . S
O173 C181 1.260 . S
O174 Zn169 1.996 . S
O174 C181 1.257 . S
C175 O170 1.254 . S
C175 O171 1.269 . S
C176 O177 1.249 . S
C176 O178 1.270 . S
O177 Zn169 1.943 . S
O177 C176 1.249 . S
O178 Zn168 2.067 . S
O178 C176 1.270 . S
C179 O172 1.262 . S
C179 O180 1.232 . S
O180 C179 1.232 . S
C181 O173 1.260 . S
C181 O174 1.257 . S
Zn182 O185 2.031 . S
Zn182 O187 2.049 . S
Zn182 O192 2.067 . S
Zn183 O184 1.962 . S
Zn183 O186 1.986 . S
Zn183 O188 1.996 . S
Zn183 O191 1.943 . S
O184 Zn183 1.962 . S
O184 C189 1.254 . S
O185 Zn182 2.031 . S
O185 C189 1.269 . S
O186 Zn183 1.986 . S
O186 C193 1.262 . S
O187 Zn182 2.049 . S
O187 C195 1.260 . S
O188 Zn183 1.996 . S
O188 C195 1.257 . S
C189 O184 1.254 . S
C189 O185 1.269 . S
C190 O191 1.249 . S
C190 O192 1.270 . S
O191 Zn183 1.943 . S
O191 C190 1.249 . S
O192 Zn182 2.067 . S
O192 C190 1.270 . S
C193 O186 1.262 . S
C193 O194 1.232 . S
O194 C193 1.232 . S
C195 O187 1.260 . S
C195 O188 1.257 . S
Zn196 O199 2.031 . S
Zn196 O201 2.049 . S
Zn196 O206 2.067 . S
Zn197 O198 1.962 . S
Zn197 O200 1.986 . S
Zn197 O202 1.996 . S
Zn197 O205 1.943 . S
O198 Zn197 1.962 . S
O198 C203 1.254 . S
O199 Zn196 2.031 . S
O199 C203 1.269 . S
O200 Zn197 1.986 . S
O200 C207 1.262 . S
O201 Zn196 2.049 . S
O201 C209 1.260 . S
O202 Zn197 1.996 . S
O202 C209 1.257 . S
C203 O198 1.254 . S
C203 O199 1.269 . S
C204 O205 1.249 . S
C204 O206 1.270 . S
O205 Zn197 1.943 . S
O205 C204 1.249 . S
O206 Zn196 2.067 . S
O206 C204 1.270 . S
C207 O200 1.262 . S
C207 O208 1.232 . S
O208 C207 1.232 . S
C209 O201 1.260 . S
C209 O202 1.257 . S
Zn210 O213 2.031 . S
Zn210 O215 2.049 . S
Zn210 O220 2.067 . S
Zn211 O212 1.962 . S
Zn211 O214 1.986 . S
Zn211 O216 1.996 . S
Zn211 O219 1.943 . S
O212 Zn211 1.962 . S
O212 C217 1.254 . S
O213 Zn210 2.031 . S
O213 C217 1.269 . S
O214 Zn211 1.986 . S
O214 C221 1.262 . S
O215 Zn210 2.049 . S
O215 C223 1.260 . S
O216 Zn211 1.996 . S
O216 C223 1.257 . S
C217 O212 1.254 . S
C217 O213 1.269 . S
C218 O219 1.249 . S
C218 O220 1.270 . S
O219 Zn211 1.943 . S
O219 C218 1.249 . S
O220 Zn210 2.067 . S
O220 C218 1.270 . S
C221 O214 1.262 . S
C221 O222 1.232 . S
O222 C221 1.232 . S
C223 O215 1.260 . S
C223 O216 1.257 . S
Zn224 O227 2.031 . S
Zn224 O229 2.049 . S
Zn224 O234 2.067 . S
Zn225 O226 1.962 . S
Zn225 O228 1.986 . S
Zn225 O230 1.996 . S
Zn225 O233 1.943 1_545 S
O226 Zn225 1.962 . S
O226 C231 1.254 . S
O227 Zn224 2.031 . S
O227 C231 1.269 1_565 S
O228 Zn225 1.986 . S
O228 C235 1.262 . S
O229 Zn224 2.049 . S
O229 C237 1.260 . S
O230 Zn225 1.996 . S
O230 C237 1.257 1_545 S
C231 O226 1.254 . S
C231 O227 1.269 1_545 S
C232 O233 1.249 . S
C232 O234 1.270 . S
O233 Zn225 1.943 1_565 S
O233 C232 1.249 . S
O234 Zn224 2.067 . S
O234 C232 1.270 . S
C235 O228 1.262 . S
C235 O236 1.232 . S
O236 C235 1.232 . S
C237 O229 1.260 . S
C237 O230 1.257 1_565 S
Zn238 O241 2.031 . S
Zn238 O243 2.049 . S
Zn238 O248 2.067 . S
Zn239 O240 1.962 . S
Zn239 O242 1.986 . S
Zn239 O244 1.996 . S
Zn239 O247 1.943 . S
O240 Zn239 1.962 . S
O240 C245 1.254 . S
O241 Zn238 2.031 . S
O241 C245 1.269 . S
O242 Zn239 1.986 . S
O242 C249 1.262 . S
O243 Zn238 2.049 . S
O243 C251 1.260 . S
O244 Zn239 1.996 . S
O244 C251 1.257 . S
C245 O240 1.254 . S
C245 O241 1.269 . S
C246 O247 1.249 . S
C246 O248 1.270 . S
O247 Zn239 1.943 . S
O247 C246 1.249 . S
O248 Zn238 2.067 . S
O248 C246 1.270 . S
C249 O242 1.262 . S
C249 O250 1.232 . S
O250 C249 1.232 . S
C251 O243 1.260 . S
C251 O244 1.257 . S
Zn252 O255 2.031 . S
Zn252 O257 2.049 . S
Zn252 O262 2.067 . S
Zn253 O254 1.962 . S
Zn253 O256 1.986 . S
Zn253 O258 1.996 . S
Zn253 O261 1.943 . S
O254 Zn253 1.962 . S
O254 C259 1.254 . S
O255 Zn252 2.031 . S
O255 C259 1.269 . S
O256 Zn253 1.986 . S
O256 C263 1.262 . S
O257 Zn252 2.049 . S
O257 C265 1.260 . S
O258 Zn253 1.996 . S
O258 C265 1.257 . S
C259 O254 1.254 . S
C259 O255 1.269 . S
C260 O261 1.249 . S
C260 O262 1.270 . S
O261 Zn253 1.943 . S
O261 C260 1.249 . S
O262 Zn252 2.067 . S
O262 C260 1.270 . S
C263 O256 1.262 . S
C263 O264 1.232 . S
O264 C263 1.232 . S
C265 O257 1.260 . S
C265 O258 1.257 . S
Zn266 O269 2.031 . S
Zn266 O271 2.049 . S
Zn266 O276 2.067 . S
Zn267 O268 1.962 . S
Zn267 O270 1.986 1_545 S
Zn267 O272 1.996 . S
Zn267 O275 1.943 . S
O268 Zn267 1.962 . S
O268 C273 1.254 . S
O269 Zn266 2.031 . S
O269 C273 1.269 . S
O270 Zn267 1.986 1_565 S
O270 C277 1.262 . S
O271 Zn266 2.049 . S
O271 C279 1.260 . S
O272 Zn267 1.996 . S
O272 C279 1.257 . S
C273 O268 1.254 . S
C273 O269 1.269 . S
C274 O275 1.249 . S
C274 O276 1.270 . S
O275 Zn267 1.943 . S
O275 C274 1.249 . S
O276 Zn266 2.067 . S
O276 C274 1.270 . S
C277 O270 1.262 . S
C277 O278 1.232 . S
O278 C277 1.232 . S
C279 O271 1.260 . S
C279 O272 1.257 . S
Zn280 O283 2.031 . S
Zn280 O285 2.049 . S
Zn280 O290 2.067 . S
Zn281 O282 1.962 . S
Zn281 O284 1.986 . S
Zn281 O286 1.996 . S
Zn281 O289 1.943 . S
O282 Zn281 1.962 . S
O282 C287 1.254 . S
O283 Zn280 2.031 . S
O283 C287 1.269 . S
O284 Zn281 1.986 . S
O284 C291 1.262 . S
O285 Zn280 2.049 . S
O285 C293 1.260 . S
O286 Zn281 1.996 . S
O286 C293 1.257 . S
C287 O282 1.254 . S
C287 O283 1.269 . S
C288 O289 1.249 . S
C288 O290 1.270 . S
O289 Zn281 1.943 . S
O289 C288 1.249 . S
O290 Zn280 2.067 . S
O290 C288 1.270 . S
C291 O284 1.262 . S
C291 O292 1.232 . S
O292 C291 1.232 . S
C293 O285 1.260 . S
C293 O286 1.257 . S
Zn294 O297 2.031 . S
Zn294 O299 2.049 . S
Zn294 O304 2.067 . S
Zn295 O296 1.962 . S
Zn295 O298 1.986 . S
Zn295 O300 1.996 . S
Zn295 O303 1.943 . S
O296 Zn295 1.962 . S
O296 C301 1.254 . S
O297 Zn294 2.031 . S
O297 C301 1.269 . S
O298 Zn295 1.986 . S
O298 C305 1.262 . S
O299 Zn294 2.049 . S
O299 C307 1.260 . S
O300 Zn295 1.996 . S
O300 C307 1.257 . S
C301 O296 1.254 . S
C301 O297 1.269 . S
C302 O303 1.249 . S
C302 O304 1.270 . S
O303 Zn295 1.943 . S
O303 C302 1.249 . S
O304 Zn294 2.067 . S
O304 C302 1.270 . S
C305 O298 1.262 . S
C305 O306 1.232 . S
O306 C305 1.232 . S
C307 O299 1.260 . S
C307 O300 1.257 . S
Zn308 O311 2.031 . S
Zn308 O313 2.049 . S
Zn308 O318 2.067 . S
Zn309 O310 1.962 . S
Zn309 O312 1.986 . S
Zn309 O314 1.996 . S
Zn309 O317 1.943 . S
O310 Zn309 1.962 . S
O310 C315 1.254 . S
O311 Zn308 2.031 . S
O311 C315 1.269 . S
O312 Zn309 1.986 . S
O312 C319 1.262 . S
O313 Zn308 2.049 . S
O313 C321 1.260 . S
O314 Zn309 1.996 . S
O314 C321 1.257 . S
C315 O310 1.254 . S
C315 O311 1.269 . S
C316 O317 1.249 . S
C316 O318 1.270 . S
O317 Zn309 1.943 . S
O317 C316 1.249 . S
O318 Zn308 2.067 . S
O318 C316 1.270 . S
C319 O312 1.262 . S
C319 O320 1.232 . S
O320 C319 1.232 . S
C321 O313 1.260 . S
C321 O314 1.257 . S
Zn322 O325 2.031 . S
Zn322 O327 2.049 . S
Zn322 O332 2.067 . S
Zn323 O324 1.962 . S
Zn323 O326 1.986 . S
Zn323 O328 1.996 . S
Zn323 O331 1.943 . S
O324 Zn323 1.962 . S
O324 C329 1.254 . S
O325 Zn322 2.031 . S
O325 C329 1.269 . S
O326 Zn323 1.986 . S
O326 C333 1.262 . S
O327 Zn322 2.049 . S
O327 C335 1.260 . S
O328 Zn323 1.996 . S
O328 C335 1.257 . S
C329 O324 1.254 . S
C329 O325 1.269 . S
C330 O331 1.249 . S
C330 O332 1.270 . S
O331 Zn323 1.943 . S
O331 C330 1.249 . S
O332 Zn322 2.067 . S
O332 C330 1.270 . S
C333 O326 1.262 . S
C333 O334 1.232 . S
O334 C333 1.232 . S
C335 O327 1.260 . S
C335 O328 1.257 . S
Tb336 C338 2.809 1_455 S
Tb336 O356 2.484 1_455 S
Tb336 O357 2.440 1_455 S
Tb336 O358 2.658 . S
Tb336 O359 2.409 . S
Tb336 O360 2.378 . S
Tb336 O364 2.325 . S
Tb336 O367 2.341 1_545 S
Tb337 C347 2.809 . S
Tb337 O358 2.325 . S
Tb337 O361 2.341 . S
Tb337 O362 2.484 . S
Tb337 O363 2.440 . S
Tb337 O364 2.658 . S
Tb337 O365 2.409 . S
Tb337 O366 2.378 1_545 S
C338 Tb336 2.809 1_655 S
C338 C339 1.514 . S
C338 O356 1.248 . S
C338 O357 1.266 . S
C339 C338 1.514 . S
C339 C340 1.359 . S
C339 C344 1.348 . S
C340 C339 1.359 . S
C340 C341 1.380 . S
C340 H368 0.929 . S
C341 C340 1.380 . S
C341 C342 1.347 . S
C341 H369 0.931 . S
C342 C341 1.347 . S
C342 C343 1.369 . S
C343 C342 1.369 . S
C343 C344 1.408 . S
C343 H370 0.930 1_554 S
C344 C339 1.348 . S
C344 C343 1.408 . S
C344 H371 0.930 1_554 S
C345 O358 1.281 . S
C345 O359 1.254 . S
C346 O360 1.236 . S
C346 O361 1.266 . S
C347 Tb337 2.809 . S
C347 C348 1.514 1_545 S
C347 O362 1.248 . S
C347 O363 1.266 . S
C348 C347 1.514 1_565 S
C348 C349 1.359 . S
C348 C353 1.348 . S
C349 C348 1.359 . S
C349 C350 1.380 . S
C349 H372 0.929 . S
C350 C349 1.380 . S
C350 C351 1.347 . S
C350 H373 0.931 . S
C351 C350 1.347 . S
C351 C352 1.369 . S
C352 C351 1.369 . S
C352 C353 1.408 . S
C352 H374 0.930 . S
C353 C348 1.348 . S
C353 C352 1.408 . S
C353 H375 0.944 . S
C354 O364 1.281 . S
C354 O365 1.254 . S
C355 O366 1.236 . S
C355 O367 1.266 . S
O356 Tb336 2.484 1_655 S
O356 C338 1.248 . S
O357 Tb336 2.440 1_655 S
O357 C338 1.266 . S
O358 Tb336 2.658 . S
O358 Tb337 2.325 . S
O358 C345 1.281 . S
O359 Tb336 2.409 . S
O359 C345 1.254 . S
O360 Tb336 2.378 . S
O360 C346 1.236 . S
O361 Tb337 2.341 . S
O361 C346 1.266 . S
O362 Tb337 2.484 . S
O362 C347 1.248 . S
O363 Tb337 2.440 . S
O363 C347 1.266 . S
O364 Tb336 2.325 . S
O364 Tb337 2.658 . S
O364 C354 1.281 . S
O365 Tb337 2.409 . S
O365 C354 1.254 . S
O366 Tb337 2.378 1_565 S
O366 C355 1.236 . S
O367 Tb336 2.341 1_565 S
O367 C355 1.266 . S
H368 C340 0.929 . S
H369 C341 0.931 . S
H370 C343 0.930 1_556 S
H371 C344 0.930 1_556 S
H372 C349 0.929 . S
H373 C350 0.931 . S
H374 C352 0.930 . S
H375 C353 0.944 . S
Tb376 C378 2.809 . S
Tb376 O396 2.484 . S
Tb376 O397 2.440 . S
Tb376 O398 2.658 . S
Tb376 O399 2.409 . S
Tb376 O400 2.378 . S
Tb376 O404 2.325 . S
Tb376 O407 2.341 . S
Tb377 C387 2.809 . S
Tb377 O398 2.325 . S
Tb377 O401 2.341 . S
Tb377 O402 2.484 . S
Tb377 O403 2.440 . S
Tb377 O404 2.658 . S
Tb377 O405 2.409 . S
Tb377 O406 2.378 . S
C378 Tb376 2.809 . S
C378 C379 1.514 . S
C378 O396 1.248 . S
C378 O397 1.266 . S
C379 C378 1.514 . S
C379 C380 1.359 . S
C379 C384 1.348 . S
C380 C379 1.359 . S
C380 C381 1.380 . S
C380 H408 0.929 . S
C381 C380 1.380 . S
C381 C382 1.347 . S
C381 H409 0.931 . S
C382 C381 1.347 . S
C382 C383 1.369 . S
C383 C382 1.369 . S
C383 C384 1.408 . S
C383 H410 0.930 . S
C384 C379 1.348 . S
C384 C383 1.408 . S
C384 H411 0.930 . S
C385 O398 1.281 . S
C385 O399 1.254 . S
C386 O400 1.236 . S
C386 O401 1.266 . S
C387 Tb377 2.809 . S
C387 C388 1.514 . S
C387 O402 1.248 . S
C387 O403 1.266 . S
C388 C387 1.514 . S
C388 C389 1.359 . S
C388 C393 1.348 . S
C389 C388 1.359 . S
C389 C390 1.380 . S
C389 H412 0.929 . S
C390 C389 1.380 . S
C390 C391 1.347 . S
C390 H413 0.931 . S
C391 C390 1.347 . S
C391 C392 1.369 . S
C392 C391 1.369 . S
C392 C393 1.408 . S
C392 H414 0.930 . S
C393 C388 1.348 . S
C393 C392 1.408 . S
C393 H415 0.930 . S
C394 O404 1.281 . S
C394 O405 1.254 . S
C395 O406 1.236 . S
C395 O407 1.266 . S
O396 Tb376 2.484 . S
O396 C378 1.248 . S
O397 Tb376 2.440 . S
O397 C378 1.266 . S
O398 Tb376 2.658 . S
O398 Tb377 2.325 . S
O398 C385 1.281 . S
O399 Tb376 2.409 . S
O399 C385 1.254 . S
O400 Tb376 2.378 . S
O400 C386 1.236 . S
O401 Tb377 2.341 . S
O401 C386 1.266 . S
O402 Tb377 2.484 . S
O402 C387 1.248 . S
O403 Tb377 2.440 . S
O403 C387 1.266 . S
O404 Tb376 2.325 . S
O404 Tb377 2.658 . S
O404 C394 1.281 . S
O405 Tb377 2.409 . S
O405 C394 1.254 . S
O406 Tb377 2.378 . S
O406 C395 1.236 . S
O407 Tb376 2.341 . S
O407 C395 1.266 . S
H408 C380 0.929 . S
H409 C381 0.931 . S
H410 C383 0.930 . S
H411 C384 0.930 . S
H412 C389 0.929 . S
H413 C390 0.931 . S
H414 C392 0.930 . S
H415 C393 0.930 . S
Tb416 C418 2.782 1_545 S
Tb416 O436 2.505 . S
Tb416 O437 2.440 . S
Tb416 O438 2.658 . S
Tb416 O439 2.409 . S
Tb416 O440 2.378 1_545 S
Tb416 O444 2.325 . S
Tb416 O447 2.341 . S
Tb417 C427 2.809 . S
Tb417 O438 2.325 . S
Tb417 O441 2.341 1_545 S
Tb417 O442 2.484 . S
Tb417 O443 2.440 . S
Tb417 O444 2.658 . S
Tb417 O445 2.409 . S
Tb417 O446 2.378 . S
C418 Tb416 2.782 1_565 S
C418 C419 1.540 . S
C418 O436 1.250 1_565 S
C418 O437 1.241 1_565 S
C419 C418 1.540 . S
C419 C420 1.359 . S
C419 C424 1.348 . S
C420 C419 1.359 . S
C420 C421 1.380 . S
C420 H448 0.929 . S
C421 C420 1.380 . S
C421 C422 1.347 . S
C421 H449 0.931 . S
C422 C421 1.347 . S
C422 C423 1.369 . S
C423 C422 1.369 . S
C423 C424 1.408 . S
C423 H450 0.930 . S
C424 C419 1.348 . S
C424 C423 1.408 . S
C424 H451 0.930 . S
C425 O438 1.281 . S
C425 O439 1.254 . S
C426 O440 1.236 . S
C426 O441 1.266 . S
C427 Tb417 2.809 . S
C427 C428 1.514 . S
C427 O442 1.248 . S
C427 O443 1.266 . S
C428 C427 1.514 . S
C428 C429 1.359 . S
C428 C433 1.348 . S
C429 C428 1.359 . S
C429 C430 1.380 . S
C429 H452 0.929 . S
C430 C429 1.380 . S
C430 C431 1.347 . S
C430 H453 0.931 . S
C431 C430 1.347 . S
C431 C432 1.369 . S
C432 C431 1.369 . S
C432 C433 1.408 . S
C432 H454 0.930 . S
C433 C428 1.348 . S
C433 C432 1.408 . S
C433 H455 0.930 . S
C434 O444 1.281 . S
C434 O445 1.254 . S
C435 O446 1.236 . S
C435 O447 1.266 . S
O436 Tb416 2.505 . S
O436 C418 1.250 1_545 S
O437 Tb416 2.440 . S
O437 C418 1.241 1_545 S
O438 Tb416 2.658 . S
O438 Tb417 2.325 . S
O438 C425 1.281 . S
O439 Tb416 2.409 . S
O439 C425 1.254 . S
O440 Tb416 2.378 1_565 S
O440 C426 1.236 . S
O441 Tb417 2.341 1_565 S
O441 C426 1.266 . S
O442 Tb417 2.484 . S
O442 C427 1.248 . S
O443 Tb417 2.440 . S
O443 C427 1.266 . S
O444 Tb416 2.325 . S
O444 Tb417 2.658 . S
O444 C434 1.281 . S
O445 Tb417 2.409 . S
O445 C434 1.254 . S
O446 Tb417 2.378 . S
O446 C435 1.236 . S
O447 Tb416 2.341 . S
O447 C435 1.266 . S
H448 C420 0.929 . S
H449 C421 0.931 . S
H450 C423 0.930 . S
H451 C424 0.930 . S
H452 C429 0.929 . S
H453 C430 0.931 . S
H454 C432 0.930 . S
H455 C433 0.930 . S
Tb456 C458 2.809 . S
Tb456 O476 2.484 . S
Tb456 O477 2.440 . S
Tb456 O478 2.658 . S
Tb456 O479 2.409 . S
Tb456 O480 2.378 . S
Tb456 O484 2.325 . S
Tb456 O487 2.341 . S
Tb457 C467 2.809 . S
Tb457 O478 2.325 . S
Tb457 O481 2.341 . S
Tb457 O482 2.484 . S
Tb457 O483 2.440 . S
Tb457 O484 2.658 . S
Tb457 O485 2.409 . S
Tb457 O486 2.378 . S
C458 Tb456 2.809 . S
C458 C459 1.514 . S
C458 O476 1.248 . S
C458 O477 1.266 . S
C459 C458 1.514 . S
C459 C460 1.359 . S
C459 C464 1.348 . S
C460 C459 1.359 . S
C460 C461 1.380 . S
C460 H488 0.929 . S
C461 C460 1.380 . S
C461 C462 1.347 . S
C461 H489 0.931 . S
C462 C461 1.347 . S
C462 C463 1.369 . S
C463 C462 1.369 . S
C463 C464 1.408 . S
C463 H490 0.930 . S
C464 C459 1.348 . S
C464 C463 1.408 . S
C464 H491 0.930 . S
C465 O478 1.281 . S
C465 O479 1.254 . S
C466 O480 1.236 . S
C466 O481 1.266 . S
C467 Tb457 2.809 . S
C467 C468 1.514 . S
C467 O482 1.248 . S
C467 O483 1.266 . S
C468 C467 1.514 . S
C468 C469 1.359 . S
C468 C473 1.348 . S
C469 C468 1.359 . S
C469 C470 1.380 . S
C469 H492 0.929 . S
C470 C469 1.380 . S
C470 C471 1.347 . S
C470 H493 0.931 . S
C471 C470 1.347 . S
C471 C472 1.369 . S
C472 C471 1.369 . S
C472 C473 1.408 . S
C472 H494 0.930 . S
C473 C468 1.348 . S
C473 C472 1.408 . S
C473 H495 0.930 . S
C474 O484 1.281 . S
C474 O485 1.254 . S
C475 O486 1.236 . S
C475 O487 1.266 . S
O476 Tb456 2.484 . S
O476 C458 1.248 . S
O477 Tb456 2.440 . S
O477 C458 1.266 . S
O478 Tb456 2.658 . S
O478 Tb457 2.325 . S
O478 C465 1.281 . S
O479 Tb456 2.409 . S
O479 C465 1.254 . S
O480 Tb456 2.378 . S
O480 C466 1.236 . S
O481 Tb457 2.341 . S
O481 C466 1.266 . S
O482 Tb457 2.484 . S
O482 C467 1.248 . S
O483 Tb457 2.440 . S
O483 C467 1.266 . S
O484 Tb456 2.325 . S
O484 Tb457 2.658 . S
O484 C474 1.281 . S
O485 Tb457 2.409 . S
O485 C474 1.254 . S
O486 Tb457 2.378 . S
O486 C475 1.236 . S
O487 Tb456 2.341 . S
O487 C475 1.266 . S
H488 C460 0.929 . S
H489 C461 0.931 . S
H490 C463 0.930 . S
H491 C464 0.930 . S
H492 C469 0.929 . S
H493 C470 0.931 . S
H494 C472 0.930 . S
H495 C473 0.930 . S
Tb496 C498 2.809 . S
Tb496 O516 2.484 . S
Tb496 O517 2.440 . S
Tb496 O518 2.658 . S
Tb496 O519 2.409 1_455 S
Tb496 O520 2.378 . S
Tb496 O524 2.325 . S
Tb496 O527 2.341 . S
Tb497 C507 2.809 . S
Tb497 O518 2.325 1_565 S
Tb497 O521 2.341 1_565 S
Tb497 O522 2.484 . S
Tb497 O523 2.440 . S
Tb497 O524 2.658 1_565 S
Tb497 O525 2.409 1_565 S
Tb497 O526 2.378 1_565 S
C498 Tb496 2.809 . S
C498 C499 1.514 . S
C498 O516 1.248 . S
C498 O517 1.266 . S
C499 C498 1.514 . S
C499 C500 1.359 . S
C499 C504 1.348 1_455 S
C500 C499 1.359 . S
C500 C501 1.380 . S
C500 H528 0.929 . S
C501 C500 1.380 . S
C501 C502 1.347 . S
C501 H529 0.931 . S
C502 C501 1.347 . S
C502 C503 1.369 1_455 S
C503 C502 1.369 1_655 S
C503 C504 1.408 . S
C503 H530 0.930 . S
C504 C499 1.348 1_655 S
C504 C503 1.408 . S
C504 H531 0.930 . S
C505 O518 1.281 1_655 S
C505 O519 1.254 . S
C506 O520 1.236 . S
C506 O521 1.266 . S
C507 Tb497 2.809 . S
C507 C508 1.514 . S
C507 O522 1.248 . S
C507 O523 1.266 . S
C508 C507 1.514 . S
C508 C509 1.359 . S
C508 C513 1.348 . S
C509 C508 1.359 . S
C509 C510 1.380 . S
C509 H532 0.929 . S
C510 C509 1.380 . S
C510 C511 1.347 . S
C510 H533 0.931 . S
C511 C510 1.347 . S
C511 C512 1.369 . S
C512 C511 1.369 . S
C512 C513 1.408 . S
C512 H534 0.930 . S
C513 C508 1.348 . S
C513 C512 1.408 . S
C513 H535 0.930 . S
C514 O524 1.281 . S
C514 O525 1.254 . S
C515 O526 1.236 . S
C515 O527 1.266 . S
O516 Tb496 2.484 . S
O516 C498 1.248 . S
O517 Tb496 2.440 . S
O517 C498 1.266 . S
O518 Tb496 2.658 . S
O518 Tb497 2.325 1_545 S
O518 C505 1.281 1_455 S
O519 Tb496 2.409 1_655 S
O519 C505 1.254 . S
O520 Tb496 2.378 . S
O520 C506 1.236 . S
O521 Tb497 2.341 1_545 S
O521 C506 1.266 . S
O522 Tb497 2.484 . S
O522 C507 1.248 . S
O523 Tb497 2.440 . S
O523 C507 1.266 . S
O524 Tb496 2.325 . S
O524 Tb497 2.658 1_545 S
O524 C514 1.281 . S
O525 Tb497 2.409 1_545 S
O525 C514 1.254 . S
O526 Tb497 2.378 1_545 S
O526 C515 1.236 . S
O527 Tb496 2.341 . S
O527 C515 1.266 . S
H528 C500 0.929 . S
H529 C501 0.931 . S
H530 C503 0.930 . S
H531 C504 0.930 . S
H532 C509 0.929 . S
H533 C510 0.931 . S
H534 C512 0.930 . S
H535 C513 0.930 . S
Tb536 C538 2.809 . S
Tb536 O556 2.484 . S
Tb536 O557 2.440 . S
Tb536 O558 2.658 . S
Tb536 O559 2.409 . S
Tb536 O560 2.378 . S
Tb536 O564 2.325 . S
Tb536 O567 2.341 . S
Tb537 C547 2.809 . S
Tb537 O558 2.325 . S
Tb537 O561 2.341 . S
Tb537 O562 2.484 . S
Tb537 O563 2.440 . S
Tb537 O564 2.658 . S
Tb537 O565 2.409 . S
Tb537 O566 2.378 . S
C538 Tb536 2.809 . S
C538 C539 1.514 . S
C538 O556 1.248 . S
C538 O557 1.266 . S
C539 C538 1.514 . S
C539 C540 1.359 . S
C539 C544 1.348 . S
C540 C539 1.359 . S
C540 C541 1.380 . S
C540 H568 0.929 . S
C541 C540 1.380 . S
C541 C542 1.347 . S
C541 H569 0.931 . S
C542 C541 1.347 . S
C542 C543 1.369 . S
C543 C542 1.369 . S
C543 C544 1.408 . S
C543 H570 0.930 . S
C544 C539 1.348 . S
C544 C543 1.408 . S
C544 H571 0.930 . S
C545 O558 1.281 . S
C545 O559 1.254 . S
C546 O560 1.236 . S
C546 O561 1.266 . S
C547 Tb537 2.809 . S
C547 C548 1.514 . S
C547 O562 1.248 . S
C547 O563 1.266 . S
C548 C547 1.514 . S
C548 C549 1.359 . S
C548 C553 1.348 . S
C549 C548 1.359 . S
C549 C550 1.380 . S
C549 H572 0.929 . S
C550 C549 1.380 . S
C550 C551 1.347 . S
C550 H573 0.931 . S
C551 C550 1.347 . S
C551 C552 1.369 . S
C552 C551 1.369 . S
C552 C553 1.408 . S
C552 H574 0.930 . S
C553 C548 1.348 . S
C553 C552 1.408 . S
C553 H575 0.930 . S
C554 O564 1.281 . S
C554 O565 1.254 . S
C555 O566 1.236 . S
C555 O567 1.266 . S
O556 Tb536 2.484 . S
O556 C538 1.248 . S
O557 Tb536 2.440 . S
O557 C538 1.266 . S
O558 Tb536 2.658 . S
O558 Tb537 2.325 . S
O558 C545 1.281 . S
O559 Tb536 2.409 . S
O559 C545 1.254 . S
O560 Tb536 2.378 . S
O560 C546 1.236 . S
O561 Tb537 2.341 . S
O561 C546 1.266 . S
O562 Tb537 2.484 . S
O562 C547 1.248 . S
O563 Tb537 2.440 . S
O563 C547 1.266 . S
O564 Tb536 2.325 . S
O564 Tb537 2.658 . S
O564 C554 1.281 . S
O565 Tb537 2.409 . S
O565 C554 1.254 . S
O566 Tb537 2.378 . S
O566 C555 1.236 . S
O567 Tb536 2.341 . S
O567 C555 1.266 . S
H568 C540 0.929 . S
H569 C541 0.931 . S
H570 C543 0.930 . S
H571 C544 0.930 . S
H572 C549 0.929 . S
H573 C550 0.931 . S
H574 C552 0.930 . S
H575 C553 0.930 . S
Tb576 C578 2.809 . S
Tb576 O596 2.484 1_545 S
Tb576 O597 2.440 . S
Tb576 O598 2.658 . S
Tb576 O599 2.409 . S
Tb576 O600 2.378 . S
Tb576 O604 2.325 . S
Tb576 O607 2.341 . S
Tb577 C587 2.809 . S
Tb577 O598 2.325 . S
Tb577 O601 2.341 . S
Tb577 O602 2.484 . S
Tb577 O603 2.440 . S
Tb577 O604 2.658 . S
Tb577 O605 2.409 1_545 S
Tb577 O606 2.378 . S
C578 Tb576 2.809 . S
C578 C579 1.514 1_545 S
C578 O596 1.248 1_545 S
C578 O597 1.266 . S
C579 C578 1.514 1_565 S
C579 C580 1.359 . S
C579 C584 1.348 1_565 S
C580 C579 1.359 . S
C580 C581 1.380 . S
C580 H608 0.929 . S
C581 C580 1.380 . S
C581 C582 1.347 . S
C581 H609 0.931 . S
C582 C581 1.347 . S
C582 C583 1.369 . S
C583 C582 1.369 . S
C583 C584 1.408 1_565 S
C583 H610 0.930 1_565 S
C584 C579 1.348 1_545 S
C584 C583 1.408 1_545 S
C584 H611 0.930 . S
C585 O598 1.281 . S
C585 O599 1.254 . S
C586 O600 1.236 . S
C586 O601 1.266 . S
C587 Tb577 2.809 . S
C587 C588 1.514 . S
C587 O602 1.248 . S
C587 O603 1.266 . S
C588 C587 1.514 . S
C588 C589 1.359 . S
C588 C593 1.348 . S
C589 C588 1.359 . S
C589 C590 1.380 . S
C589 H612 0.929 . S
C590 C589 1.380 . S
C590 C591 1.347 . S
C590 H613 0.931 . S
C591 C590 1.347 . S
C591 C592 1.369 . S
C592 C591 1.369 . S
C592 C593 1.408 . S
C592 H614 0.930 . S
C593 C588 1.348 . S
C593 C592 1.408 . S
C593 H615 0.930 . S
C594 O604 1.281 1_565 S
C594 O605 1.254 . S
C595 O606 1.236 . S
C595 O607 1.266 . S
O596 Tb576 2.484 1_565 S
O596 C578 1.248 1_565 S
O597 Tb576 2.440 . S
O597 C578 1.266 . S
O598 Tb576 2.658 . S
O598 Tb577 2.325 . S
O598 C585 1.281 . S
O599 Tb576 2.409 . S
O599 C585 1.254 . S
O600 Tb576 2.378 . S
O600 C586 1.236 . S
O601 Tb577 2.341 . S
O601 C586 1.266 . S
O602 Tb577 2.484 . S
O602 C587 1.248 . S
O603 Tb577 2.440 . S
O603 C587 1.266 . S
O604 Tb576 2.325 . S
O604 Tb577 2.658 . S
O604 C594 1.281 1_545 S
O605 Tb577 2.409 1_565 S
O605 C594 1.254 . S
O606 Tb577 2.378 . S
O606 C595 1.236 . S
O607 Tb576 2.341 . S
O607 C595 1.266 . S
H608 C580 0.929 . S
H609 C581 0.931 . S
H610 C583 0.930 1_545 S
H611 C584 0.930 . S
H612 C589 0.929 . S
H613 C590 0.931 . S
H614 C592 0.930 . S
H615 C593 0.930 . S
Tb616 C618 2.809 . S
Tb616 O636 2.484 . S
Tb616 O637 2.440 . S
Tb616 O638 2.658 . S
Tb616 O639 2.409 . S
Tb616 O640 2.378 . S
Tb616 O644 2.325 . S
Tb616 O647 2.341 . S
Tb617 C627 2.809 . S
Tb617 O638 2.325 . S
Tb617 O641 2.341 . S
Tb617 O642 2.484 . S
Tb617 O643 2.440 . S
Tb617 O644 2.658 . S
Tb617 O645 2.409 . S
Tb617 O646 2.378 . S
C618 Tb616 2.809 . S
C618 C619 1.514 . S
C618 O636 1.248 . S
C618 O637 1.266 . S
C619 C618 1.514 . S
C619 C620 1.359 . S
C619 C624 1.348 . S
C620 C619 1.359 . S
C620 C621 1.380 . S
C620 H648 0.929 . S
C621 C620 1.380 . S
C621 C622 1.347 . S
C621 H649 0.931 . S
C622 C621 1.347 . S
C622 C623 1.369 . S
C623 C622 1.369 . S
C623 C624 1.408 . S
C623 H650 0.930 . S
C624 C619 1.348 . S
C624 C623 1.408 . S
C624 H651 0.930 . S
C625 O638 1.281 . S
C625 O639 1.254 . S
C626 O640 1.236 . S
C626 O641 1.266 . S
C627 Tb617 2.809 . S
C627 C628 1.514 . S
C627 O642 1.248 . S
C627 O643 1.266 . S
C628 C627 1.514 . S
C628 C629 1.359 . S
C628 C633 1.348 . S
C629 C628 1.359 . S
C629 C630 1.380 . S
C629 H652 0.929 . S
C630 C629 1.380 . S
C630 C631 1.347 . S
C630 H653 0.931 . S
C631 C630 1.347 . S
C631 C632 1.369 . S
C632 C631 1.369 . S
C632 C633 1.408 . S
C632 H654 0.930 . S
C633 C628 1.348 . S
C633 C632 1.408 . S
C633 H655 0.930 . S
C634 O644 1.281 . S
C634 O645 1.254 . S
C635 O646 1.236 . S
C635 O647 1.266 . S
O636 Tb616 2.484 . S
O636 C618 1.248 . S
O637 Tb616 2.440 . S
O637 C618 1.266 . S
O638 Tb616 2.658 . S
O638 Tb617 2.325 . S
O638 C625 1.281 . S
O639 Tb616 2.409 . S
O639 C625 1.254 . S
O640 Tb616 2.378 . S
O640 C626 1.236 . S
O641 Tb617 2.341 . S
O641 C626 1.266 . S
O642 Tb617 2.484 . S
O642 C627 1.248 . S
O643 Tb617 2.440 . S
O643 C627 1.266 . S
O644 Tb616 2.325 . S
O644 Tb617 2.658 . S
O644 C634 1.281 . S
O645 Tb617 2.409 . S
O645 C634 1.254 . S
O646 Tb617 2.378 . S
O646 C635 1.236 . S
O647 Tb616 2.341 . S
O647 C635 1.266 . S
H648 C620 0.929 . S
H649 C621 0.931 . S
H650 C623 0.930 . S
H651 C624 0.930 . S
H652 C629 0.929 . S
H653 C630 0.931 . S
H654 C632 0.930 . S
H655 C633 0.930 . S
Tb656 C658 2.809 . S
Tb656 O676 2.484 . S
Tb656 O677 2.440 . S
Tb656 O678 2.658 . S
Tb656 O679 2.409 . S
Tb656 O680 2.378 . S
Tb656 O684 2.325 . S
Tb656 O687 2.341 . S
Tb657 C667 2.809 . S
Tb657 O678 2.325 . S
Tb657 O681 2.341 . S
Tb657 O682 2.484 . S
Tb657 O683 2.440 . S
Tb657 O684 2.658 . S
Tb657 O685 2.409 . S
Tb657 O686 2.378 . S
C658 Tb656 2.809 . S
C658 C659 1.514 . S
C658 O676 1.248 . S
C658 O677 1.266 . S
C659 C658 1.514 . S
C659 C660 1.360 . S
C659 C664 1.348 . S
C660 C659 1.360 . S
C660 C661 1.379 1_554 S
C660 H688 0.929 . S
C661 C660 1.379 1_556 S
C661 C662 1.347 . S
C661 H689 0.931 . S
C662 C661 1.347 . S
C662 C663 1.369 . S
C663 C662 1.369 . S
C663 C664 1.408 1_556 S
C663 H690 0.930 . S
C664 C659 1.348 . S
C664 C663 1.408 1_554 S
C664 H691 0.930 . S
C665 O678 1.281 . S
C665 O679 1.254 . S
C666 O680 1.236 . S
C666 O681 1.266 . S
C667 Tb657 2.809 . S
C667 C668 1.514 . S
C667 O682 1.248 . S
C667 O683 1.266 . S
C668 C667 1.514 . S
C668 C669 1.359 . S
C668 C673 1.348 . S
C669 C668 1.359 . S
C669 C670 1.380 . S
C669 H692 0.929 . S
C670 C669 1.380 . S
C670 C671 1.347 . S
C670 H693 0.931 . S
C671 C670 1.347 . S
C671 C672 1.369 . S
C672 C671 1.369 . S
C672 C673 1.408 . S
C672 H694 0.930 . S
C673 C668 1.348 . S
C673 C672 1.408 . S
C673 H695 0.930 . S
C674 O684 1.281 . S
C674 O685 1.254 . S
C675 O686 1.236 . S
C675 O687 1.266 . S
O676 Tb656 2.484 . S
O676 C658 1.248 . S
O677 Tb656 2.440 . S
O677 C658 1.266 . S
O678 Tb656 2.658 . S
O678 Tb657 2.325 . S
O678 C665 1.281 . S
O679 Tb656 2.409 . S
O679 C665 1.254 . S
O680 Tb656 2.378 . S
O680 C666 1.236 . S
O681 Tb657 2.341 . S
O681 C666 1.266 . S
O682 Tb657 2.484 . S
O682 C667 1.248 . S
O683 Tb657 2.440 . S
O683 C667 1.266 . S
O684 Tb656 2.325 . S
O684 Tb657 2.658 . S
O684 C674 1.281 . S
O685 Tb657 2.409 . S
O685 C674 1.254 . S
O686 Tb657 2.378 . S
O686 C675 1.236 . S
O687 Tb656 2.341 . S
O687 C675 1.266 . S
H688 C660 0.929 . S
H689 C661 0.931 . S
H690 C663 0.930 . S
H691 C664 0.930 . S
H692 C669 0.929 . S
H693 C670 0.931 . S
H694 C672 0.930 . S
H695 C673 0.930 . S
Tb696 C698 2.809 . S
Tb696 O716 2.484 . S
Tb696 O717 2.440 . S
Tb696 O718 2.658 . S
Tb696 O719 2.409 . S
Tb696 O720 2.378 . S
Tb696 O724 2.325 . S
Tb696 O727 2.341 . S
Tb697 C707 2.809 . S
Tb697 O718 2.325 . S
Tb697 O721 2.341 . S
Tb697 O722 2.484 . S
Tb697 O723 2.440 . S
Tb697 O724 2.658 . S
Tb697 O725 2.409 . S
Tb697 O726 2.378 . S
C698 Tb696 2.809 . S
C698 C699 1.514 . S
C698 O716 1.248 . S
C698 O717 1.266 . S
C699 C698 1.514 . S
C699 C700 1.359 . S
C699 C704 1.348 . S
C700 C699 1.359 . S
C700 C701 1.380 . S
C700 H728 0.929 . S
C701 C700 1.380 . S
C701 C702 1.347 . S
C701 H729 0.931 . S
C702 C701 1.347 . S
C702 C703 1.369 . S
C703 C702 1.369 . S
C703 C704 1.408 . S
C703 H730 0.930 . S
C704 C699 1.348 . S
C704 C703 1.408 . S
C704 H731 0.930 . S
C705 O718 1.281 . S
C705 O719 1.254 . S
C706 O720 1.236 . S
C706 O721 1.266 . S
C707 Tb697 2.809 . S
C707 C708 1.514 . S
C707 O722 1.248 . S
C707 O723 1.266 . S
C708 C707 1.514 . S
C708 C709 1.359 . S
C708 C713 1.348 . S
C709 C708 1.359 . S
C709 C710 1.380 . S
C709 H732 0.929 . S
C710 C709 1.380 . S
C710 C711 1.347 . S
C710 H733 0.931 . S
C711 C710 1.347 . S
C711 C712 1.369 . S
C712 C711 1.369 . S
C712 C713 1.408 . S
C712 H734 0.930 . S
C713 C708 1.348 . S
C713 C712 1.408 . S
C713 H735 0.930 . S
C714 O724 1.281 . S
C714 O725 1.254 . S
C715 O726 1.236 . S
C715 O727 1.266 . S
O716 Tb696 2.484 . S
O716 C698 1.248 . S
O717 Tb696 2.440 . S
O717 C698 1.266 . S
O718 Tb696 2.658 . S
O718 Tb697 2.325 . S
O718 C705 1.281 . S
O719 Tb696 2.409 . S
O719 C705 1.254 . S
O720 Tb696 2.378 . S
O720 C706 1.236 . S
O721 Tb697 2.341 . S
O721 C706 1.266 . S
O722 Tb697 2.484 . S
O722 C707 1.248 . S
O723 Tb697 2.440 . S
O723 C707 1.266 . S
O724 Tb696 2.325 . S
O724 Tb697 2.658 . S
O724 C714 1.281 . S
O725 Tb697 2.409 . S
O725 C714 1.254 . S
O726 Tb697 2.378 . S
O726 C715 1.236 . S
O727 Tb696 2.341 . S
O727 C715 1.266 . S
H728 C700 0.929 . S
H729 C701 0.931 . S
H730 C703 0.930 . S
H731 C704 0.930 . S
H732 C709 0.929 . S
H733 C710 0.931 . S
H734 C712 0.930 . S
H735 C713 0.930 . S
Tb736 C738 2.826 . S
Tb736 O756 2.496 . S
Tb736 O757 2.460 . S
Tb736 O758 2.647 1_655 S
Tb736 O759 2.412 1_655 S
Tb736 O760 2.383 . S
Tb736 O764 2.312 1_655 S
Tb736 O767 2.325 1_655 S
Tb737 C747 2.809 . S
Tb737 O758 2.325 . S
Tb737 O761 2.341 . S
Tb737 O762 2.484 . S
Tb737 O763 2.440 . S
Tb737 O764 2.658 . S
Tb737 O765 2.409 . S
Tb737 O766 2.378 . S
C738 Tb736 2.826 . S
C738 C739 1.514 . S
C738 O756 1.248 . S
C738 O757 1.266 . S
C739 C738 1.514 . S
C739 C740 1.359 . S
C739 C744 1.348 . S
C740 C739 1.359 . S
C740 C741 1.380 . S
C740 H768 0.929 . S
C741 C740 1.380 . S
C741 C742 1.347 . S
C741 H769 0.931 . S
C742 C741 1.347 . S
C742 C743 1.369 . S
C743 C742 1.369 . S
C743 C744 1.408 . S
C743 H770 0.930 . S
C744 C739 1.348 . S
C744 C743 1.408 . S
C744 H771 0.930 . S
C745 O758 1.281 . S
C745 O759 1.254 . S
C746 O760 1.236 1_455 S
C746 O761 1.266 . S
C747 Tb737 2.809 . S
C747 C748 1.514 . S
C747 O762 1.248 . S
C747 O763 1.266 . S
C748 C747 1.514 . S
C748 C749 1.359 . S
C748 C753 1.348 . S
C749 C748 1.359 . S
C749 C750 1.380 . S
C749 H772 0.929 . S
C750 C749 1.380 . S
C750 C751 1.347 . S
C750 H773 0.931 . S
C751 C750 1.347 . S
C751 C752 1.369 . S
C752 C751 1.369 . S
C752 C753 1.408 . S
C752 H774 0.930 . S
C753 C748 1.348 . S
C753 C752 1.408 . S
C753 H775 0.930 . S
C754 O764 1.281 . S
C754 O765 1.254 . S
C755 O766 1.236 . S
C755 O767 1.266 . S
O756 Tb736 2.496 . S
O756 C738 1.248 . S
O757 Tb736 2.460 . S
O757 C738 1.266 . S
O758 Tb736 2.647 1_455 S
O758 Tb737 2.325 . S
O758 C745 1.281 . S
O759 Tb736 2.412 1_455 S
O759 C745 1.254 . S
O760 Tb736 2.383 . S
O760 C746 1.236 1_655 S
O761 Tb737 2.341 . S
O761 C746 1.266 . S
O762 Tb737 2.484 . S
O762 C747 1.248 . S
O763 Tb737 2.440 . S
O763 C747 1.266 . S
O764 Tb736 2.312 1_455 S
O764 Tb737 2.658 . S
O764 C754 1.281 . S
O765 Tb737 2.409 . S
O765 C754 1.254 . S
O766 Tb737 2.378 . S
O766 C755 1.236 . S
O767 Tb736 2.325 1_455 S
O767 C755 1.266 . S
H768 C740 0.929 . S
H769 C741 0.931 . S
H770 C743 0.930 . S
H771 C744 0.930 . S
H772 C749 0.929 . S
H773 C750 0.931 . S
H774 C752 0.930 . S
H775 C753 0.930 . S
Tb776 C778 2.809 . S
Tb776 O796 2.484 . S
Tb776 O797 2.440 . S
Tb776 O798 2.658 . S
Tb776 O799 2.409 . S
Tb776 O800 2.378 . S
Tb776 O804 2.325 . S
Tb776 O807 2.341 . S
Tb777 C787 2.809 . S
Tb777 O798 2.325 . S
Tb777 O801 2.341 . S
Tb777 O802 2.484 . S
Tb777 O803 2.440 . S
Tb777 O804 2.658 . S
Tb777 O805 2.409 . S
Tb777 O806 2.378 . S
C778 Tb776 2.809 . S
C778 C779 1.514 . S
C778 O796 1.248 . S
C778 O797 1.266 . S
C779 C778 1.514 . S
C779 C780 1.359 . S
C779 C784 1.348 . S
C780 C779 1.359 . S
C780 C781 1.380 . S
C780 H808 0.929 . S
C781 C780 1.380 . S
C781 C782 1.347 . S
C781 H809 0.931 . S
C782 C781 1.347 . S
C782 C783 1.369 . S
C783 C782 1.369 . S
C783 C784 1.408 . S
C783 H810 0.930 . S
C784 C779 1.348 . S
C784 C783 1.408 . S
C784 H811 0.930 . S
C785 O798 1.281 . S
C785 O799 1.254 . S
C786 O800 1.236 . S
C786 O801 1.266 . S
C787 Tb777 2.809 . S
C787 C788 1.514 . S
C787 O802 1.248 . S
C787 O803 1.266 . S
C788 C787 1.514 . S
C788 C789 1.359 . S
C788 C793 1.348 . S
C789 C788 1.359 . S
C789 C790 1.380 . S
C789 H812 0.929 . S
C790 C789 1.380 . S
C790 C791 1.347 . S
C790 H813 0.931 . S
C791 C790 1.347 . S
C791 C792 1.369 . S
C792 C791 1.369 . S
C792 C793 1.408 . S
C792 H814 0.930 . S
C793 C788 1.348 . S
C793 C792 1.408 . S
C793 H815 0.930 . S
C794 O804 1.281 . S
C794 O805 1.254 . S
C795 O806 1.236 . S
C795 O807 1.266 . S
O796 Tb776 2.484 . S
O796 C778 1.248 . S
O797 Tb776 2.440 . S
O797 C778 1.266 . S
O798 Tb776 2.658 . S
O798 Tb777 2.325 . S
O798 C785 1.281 . S
O799 Tb776 2.409 . S
O799 C785 1.254 . S
O800 Tb776 2.378 . S
O800 C786 1.236 . S
O801 Tb777 2.341 . S
O801 C786 1.266 . S
O802 Tb777 2.484 . S
O802 C787 1.248 . S
O803 Tb777 2.440 . S
O803 C787 1.266 . S
O804 Tb776 2.325 . S
O804 Tb777 2.658 . S
O804 C794 1.281 . S
O805 Tb777 2.409 . S
O805 C794 1.254 . S
O806 Tb777 2.378 . S
O806 C795 1.236 . S
O807 Tb776 2.341 . S
O807 C795 1.266 . S
H808 C780 0.929 . S
H809 C781 0.931 . S
H810 C783 0.930 . S
H811 C784 0.930 . S
H812 C789 0.929 . S
H813 C790 0.931 . S
H814 C792 0.930 . S
H815 C793 0.930 . S
Tb816 C818 2.809 . S
Tb816 O836 2.484 . S
Tb816 O837 2.440 . S
Tb816 O838 2.658 . S
Tb816 O839 2.409 . S
Tb816 O840 2.378 . S
Tb816 O844 2.325 . S
Tb816 O847 2.341 . S
Tb817 C827 2.809 . S
Tb817 O838 2.325 . S
Tb817 O841 2.341 . S
Tb817 O842 2.484 . S
Tb817 O843 2.440 . S
Tb817 O844 2.658 . S
Tb817 O845 2.409 . S
Tb817 O846 2.378 . S
C818 Tb816 2.809 . S
C818 C819 1.514 . S
C818 O836 1.248 . S
C818 O837 1.266 . S
C819 C818 1.514 . S
C819 C820 1.359 . S
C819 C824 1.348 . S
C820 C819 1.359 . S
C820 C821 1.380 . S
C820 H848 0.929 . S
C821 C820 1.380 . S
C821 C822 1.347 . S
C821 H849 0.931 . S
C822 C821 1.347 . S
C822 C823 1.369 . S
C823 C822 1.369 . S
C823 C824 1.408 . S
C823 H850 0.930 . S
C824 C819 1.348 . S
C824 C823 1.408 . S
C824 H851 0.930 . S
C825 O838 1.281 . S
C825 O839 1.254 . S
C826 O840 1.236 . S
C826 O841 1.266 . S
C827 Tb817 2.809 . S
C827 C828 1.514 . S
C827 O842 1.248 . S
C827 O843 1.266 . S
C828 C827 1.514 . S
C828 C829 1.359 . S
C828 C833 1.348 . S
C829 C828 1.359 . S
C829 C830 1.380 . S
C829 H852 0.929 . S
C830 C829 1.380 . S
C830 C831 1.347 . S
C830 H853 0.931 . S
C831 C830 1.347 . S
C831 C832 1.369 . S
C832 C831 1.369 . S
C832 C833 1.408 . S
C832 H854 0.930 . S
C833 C828 1.348 . S
C833 C832 1.408 . S
C833 H855 0.930 . S
C834 O844 1.281 . S
C834 O845 1.254 . S
C835 O846 1.236 . S
C835 O847 1.266 . S
O836 Tb816 2.484 . S
O836 C818 1.248 . S
O837 Tb816 2.440 . S
O837 C818 1.266 . S
O838 Tb816 2.658 . S
O838 Tb817 2.325 . S
O838 C825 1.281 . S
O839 Tb816 2.409 . S
O839 C825 1.254 . S
O840 Tb816 2.378 . S
O840 C826 1.236 . S
O841 Tb817 2.341 . S
O841 C826 1.266 . S
O842 Tb817 2.484 . S
O842 C827 1.248 . S
O843 Tb817 2.440 . S
O843 C827 1.266 . S
O844 Tb816 2.325 . S
O844 Tb817 2.658 . S
O844 C834 1.281 . S
O845 Tb817 2.409 . S
O845 C834 1.254 . S
O846 Tb817 2.378 . S
O846 C835 1.236 . S
O847 Tb816 2.341 . S
O847 C835 1.266 . S
H848 C820 0.929 . S
H849 C821 0.931 . S
H850 C823 0.930 . S
H851 C824 0.930 . S
H852 C829 0.929 . S
H853 C830 0.931 . S
H854 C832 0.930 . S
H855 C833 0.930 . S
Tb856 C858 2.809 . S
Tb856 O876 2.484 . S
Tb856 O877 2.440 . S
Tb856 O878 2.658 . S
Tb856 O879 2.409 . S
Tb856 O880 2.378 . S
Tb856 O884 2.325 . S
Tb856 O887 2.341 . S
Tb857 C867 2.809 . S
Tb857 O878 2.325 . S
Tb857 O881 2.341 . S
Tb857 O882 2.484 . S
Tb857 O883 2.440 . S
Tb857 O884 2.658 . S
Tb857 O885 2.409 . S
Tb857 O886 2.378 . S
C858 Tb856 2.809 . S
C858 C859 1.514 . S
C858 O876 1.248 . S
C858 O877 1.266 . S
C859 C858 1.514 . S
C859 C860 1.359 . S
C859 C864 1.348 . S
C860 C859 1.359 . S
C860 C861 1.380 . S
C860 H888 0.929 . S
C861 C860 1.380 . S
C861 C862 1.347 . S
C861 H889 0.931 . S
C862 C861 1.347 . S
C862 C863 1.369 . S
C863 C862 1.369 . S
C863 C864 1.408 . S
C863 H890 0.930 . S
C864 C859 1.348 . S
C864 C863 1.408 . S
C864 H891 0.930 . S
C865 O878 1.281 . S
C865 O879 1.254 . S
C866 O880 1.236 . S
C866 O881 1.266 . S
C867 Tb857 2.809 . S
C867 C868 1.514 . S
C867 O882 1.248 . S
C867 O883 1.266 . S
C868 C867 1.514 . S
C868 C869 1.359 . S
C868 C873 1.348 . S
C869 C868 1.359 . S
C869 C870 1.380 . S
C869 H892 0.929 . S
C870 C869 1.380 . S
C870 C871 1.347 . S
C870 H893 0.931 . S
C871 C870 1.347 . S
C871 C872 1.369 . S
C872 C871 1.369 . S
C872 C873 1.408 . S
C872 H894 0.930 . S
C873 C868 1.348 . S
C873 C872 1.408 . S
C873 H895 0.930 . S
C874 O884 1.281 . S
C874 O885 1.254 . S
C875 O886 1.236 . S
C875 O887 1.266 . S
O876 Tb856 2.484 . S
O876 C858 1.248 . S
O877 Tb856 2.440 . S
O877 C858 1.266 . S
O878 Tb856 2.658 . S
O878 Tb857 2.325 . S
O878 C865 1.281 . S
O879 Tb856 2.409 . S
O879 C865 1.254 . S
O880 Tb856 2.378 . S
O880 C866 1.236 . S
O881 Tb857 2.341 . S
O881 C866 1.266 . S
O882 Tb857 2.484 . S
O882 C867 1.248 . S
O883 Tb857 2.440 . S
O883 C867 1.266 . S
O884 Tb856 2.325 . S
O884 Tb857 2.658 . S
O884 C874 1.281 . S
O885 Tb857 2.409 . S
O885 C874 1.254 . S
O886 Tb857 2.378 . S
O886 C875 1.236 . S
O887 Tb856 2.341 . S
O887 C875 1.266 . S
H888 C860 0.929 . S
H889 C861 0.931 . S
H890 C863 0.930 . S
H891 C864 0.930 . S
H892 C869 0.929 . S
H893 C870 0.931 . S
H894 C872 0.930 . S
H895 C873 0.930 . S
Tb896 C898 2.809 . S
Tb896 O916 2.484 . S
Tb896 O917 2.440 . S
Tb896 O918 2.658 . S
Tb896 O919 2.409 . S
Tb896 O920 2.378 . S
Tb896 O924 2.325 . S
Tb896 O927 2.341 . S
Tb897 C907 2.809 . S
Tb897 O918 2.325 . S
Tb897 O921 2.341 . S
Tb897 O922 2.484 . S
Tb897 O923 2.440 . S
Tb897 O924 2.658 . S
Tb897 O925 2.409 . S
Tb897 O926 2.378 . S
C898 Tb896 2.809 . S
C898 C899 1.514 . S
C898 O916 1.248 . S
C898 O917 1.266 . S
C899 C898 1.514 . S
C899 C900 1.359 . S
C899 C904 1.348 . S
C900 C899 1.359 . S
C900 C901 1.380 . S
C900 H928 0.929 . S
C901 C900 1.380 . S
C901 C902 1.347 . S
C901 H929 0.931 . S
C902 C901 1.347 . S
C902 C903 1.369 . S
C903 C902 1.369 . S
C903 C904 1.408 . S
C903 H930 0.930 . S
C904 C899 1.348 . S
C904 C903 1.408 . S
C904 H931 0.930 . S
C905 O918 1.281 . S
C905 O919 1.254 . S
C906 O920 1.236 . S
C906 O921 1.266 . S
C907 Tb897 2.809 . S
C907 C908 1.514 . S
C907 O922 1.248 . S
C907 O923 1.266 . S
C908 C907 1.514 . S
C908 C909 1.359 . S
C908 C913 1.348 . S
C909 C908 1.359 . S
C909 C910 1.380 . S
C909 H932 0.929 . S
C910 C909 1.380 . S
C910 C911 1.347 . S
C910 H933 0.931 . S
C911 C910 1.347 . S
C911 C912 1.369 . S
C912 C911 1.369 . S
C912 C913 1.408 . S
C912 H934 0.930 . S
C913 C908 1.348 . S
C913 C912 1.408 . S
C913 H935 0.930 . S
C914 O924 1.281 . S
C914 O925 1.254 . S
C915 O926 1.236 . S
C915 O927 1.266 . S
O916 Tb896 2.484 . S
O916 C898 1.248 . S
O917 Tb896 2.440 . S
O917 C898 1.266 . S
O918 Tb896 2.658 . S
O918 Tb897 2.325 . S
O918 C905 1.281 . S
O919 Tb896 2.409 . S
O919 C905 1.254 . S
O920 Tb896 2.378 . S
O920 C906 1.236 . S
O921 Tb897 2.341 . S
O921 C906 1.266 . S
O922 Tb897 2.484 . S
O922 C907 1.248 . S
O923 Tb897 2.440 . S
O923 C907 1.266 . S
O924 Tb896 2.325 . S
O924 Tb897 2.658 . S
O924 C914 1.281 . S
O925 Tb897 2.409 . S
O925 C914 1.254 . S
O926 Tb897 2.378 . S
O926 C915 1.236 . S
O927 Tb896 2.341 . S
O927 C915 1.266 . S
H928 C900 0.929 . S
H929 C901 0.931 . S
H930 C903 0.930 . S
H931 C904 0.930 . S
H932 C909 0.929 . S
H933 C910 0.931 . S
H934 C912 0.930 . S
H935 C913 0.930 . S
Tb936 C938 2.809 . S
Tb936 O956 2.484 . S
Tb936 O957 2.440 . S
Tb936 O958 2.658 . S
Tb936 O959 2.409 . S
Tb936 O960 2.378 . S
Tb936 O964 2.325 . S
Tb936 O967 2.341 . S
Tb937 C947 2.771 1_455 S
Tb937 O958 2.349 . S
Tb937 O961 2.366 . S
Tb937 O962 2.453 1_455 S
Tb937 O963 2.404 1_455 S
Tb937 O964 2.702 . S
Tb937 O965 2.425 . S
Tb937 O966 2.390 . S
C938 Tb936 2.809 . S
C938 C939 1.514 . S
C938 O956 1.248 . S
C938 O957 1.266 . S
C939 C938 1.514 . S
C939 C940 1.359 . S
C939 C944 1.348 . S
C940 C939 1.359 . S
C940 C941 1.380 . S
C940 H968 0.929 . S
C941 C940 1.380 . S
C941 C942 1.347 . S
C941 H969 0.931 . S
C942 C941 1.347 . S
C942 C943 1.369 . S
C943 C942 1.369 . S
C943 C944 1.408 . S
C943 H970 0.930 1_554 S
C944 C939 1.348 . S
C944 C943 1.408 . S
C944 H971 0.930 1_554 S
C945 O958 1.281 . S
C945 O959 1.254 . S
C946 O960 1.236 . S
C946 O961 1.266 . S
C947 Tb937 2.771 1_655 S
C947 C948 1.514 . S
C947 O962 1.248 . S
C947 O963 1.266 . S
C948 C947 1.514 . S
C948 C949 1.359 . S
C948 C953 1.348 . S
C949 C948 1.359 . S
C949 C950 1.380 . S
C949 H972 0.929 . S
C950 C949 1.380 . S
C950 C951 1.347 . S
C950 H973 0.931 . S
C951 C950 1.347 . S
C951 C952 1.369 . S
C952 C951 1.369 . S
C952 C953 1.408 . S
C952 H974 0.930 . S
C953 C948 1.348 . S
C953 C952 1.408 . S
C953 H975 0.930 . S
C954 O964 1.281 . S
C954 O965 1.254 . S
C955 O966 1.236 . S
C955 O967 1.266 . S
O956 Tb936 2.484 . S
O956 C938 1.248 . S
O957 Tb936 2.440 . S
O957 C938 1.266 . S
O958 Tb936 2.658 . S
O958 Tb937 2.349 . S
O958 C945 1.281 . S
O959 Tb936 2.409 . S
O959 C945 1.254 . S
O960 Tb936 2.378 . S
O960 C946 1.236 . S
O961 Tb937 2.366 . S
O961 C946 1.266 . S
O962 Tb937 2.453 1_655 S
O962 C947 1.248 . S
O963 Tb937 2.404 1_655 S
O963 C947 1.266 . S
O964 Tb936 2.325 . S
O964 Tb937 2.702 . S
O964 C954 1.281 . S
O965 Tb937 2.425 . S
O965 C954 1.254 . S
O966 Tb937 2.390 . S
O966 C955 1.236 . S
O967 Tb936 2.341 . S
O967 C955 1.266 . S
H968 C940 0.929 . S
H969 C941 0.931 . S
H970 C943 0.930 1_556 S
H971 C944 0.930 1_556 S
H972 C949 0.929 . S
H973 C950 0.931 . S
H974 C952 0.930 . S
H975 C953 0.930 . S
H976 C982 0.930 . S
H977 C985 0.930 . S
H978 C986 0.930 1_655 S
H979 C987 0.930 . S
H980 C990 0.930 . S
H981 C991 0.930 . S
C982 H976 0.930 . S
C982 C983 1.355 . S
C982 C984 1.415 . S
C983 C982 1.355 . S
C983 C985 1.419 1_454 S
C984 C982 1.415 . S
C984 C989 1.425 . S
C984 C991 1.409 . S
C985 H977 0.930 . S
C985 C983 1.419 1_656 S
C985 C986 1.362 1_655 S
C986 H978 0.930 1_455 S
C986 C985 1.362 1_455 S
C986 C989 1.409 1_556 S
C987 H979 0.930 . S
C987 C988 1.355 . S
C987 C989 1.415 . S
C988 C987 1.355 . S
C988 C990 1.419 . S
C989 C984 1.425 . S
C989 C986 1.409 1_554 S
C989 C987 1.415 . S
C990 H980 0.930 . S
C990 C988 1.419 . S
C990 C991 1.362 . S
C991 H981 0.930 . S
C991 C984 1.409 . S
C991 C990 1.362 . S
H992 C998 0.930 . S
H993 C1001 0.930 . S
H994 C1002 0.930 . S
H995 C1003 0.930 . S
H996 C1006 0.930 . S
H997 C1007 0.930 . S
C998 H992 0.930 . S
C998 C999 1.355 . S
C998 C1000 1.415 . S
C999 C998 1.355 . S
C999 C1001 1.419 . S
C1000 C998 1.415 . S
C1000 C1005 1.425 . S
C1000 C1007 1.409 . S
C1001 H993 0.930 . S
C1001 C999 1.419 . S
C1001 C1002 1.362 . S
C1002 H994 0.930 . S
C1002 C1001 1.362 . S
C1002 C1005 1.409 . S
C1003 H995 0.930 . S
C1003 C1004 1.355 . S
C1003 C1005 1.415 . S
C1004 C1003 1.355 . S
C1004 C1006 1.419 . S
C1005 C1000 1.425 . S
C1005 C1002 1.409 . S
C1005 C1003 1.415 . S
C1006 H996 0.930 . S
C1006 C1004 1.419 . S
C1006 C1007 1.362 . S
C1007 H997 0.930 . S
C1007 C1000 1.409 . S
C1007 C1006 1.362 . S
H1008 C1014 0.930 . S
H1009 C1017 0.930 . S
H1010 C1018 0.930 . S
H1011 C1019 0.930 . S
H1012 C1022 0.930 . S
H1013 C1023 0.930 . S
C1014 H1008 0.930 . S
C1014 C1015 1.355 . S
C1014 C1016 1.415 . S
C1015 C1014 1.355 . S
C1015 C1017 1.419 . S
C1016 C1014 1.415 . S
C1016 C1021 1.425 . S
C1016 C1023 1.409 . S
C1017 H1009 0.930 . S
C1017 C1015 1.419 . S
C1017 C1018 1.362 . S
C1018 H1010 0.930 . S
C1018 C1017 1.362 . S
C1018 C1021 1.409 . S
C1019 H1011 0.930 . S
C1019 C1020 1.355 . S
C1019 C1021 1.415 . S
C1020 C1019 1.355 . S
C1020 C1022 1.419 . S
C1021 C1016 1.425 . S
C1021 C1018 1.409 . S
C1021 C1019 1.415 . S
C1022 H1012 0.930 . S
C1022 C1020 1.419 . S
C1022 C1023 1.362 . S
C1023 H1013 0.930 . S
C1023 C1016 1.409 . S
C1023 C1022 1.362 . S
H1024 C1030 0.930 . S
H1025 C1033 0.930 . S
H1026 C1034 0.930 . S
H1027 C1035 0.930 . S
H1028 C1038 0.930 . S
H1029 C1039 0.930 . S
C1030 H1024 0.930 . S
C1030 C1031 1.355 . S
C1030 C1032 1.415 . S
C1031 C1030 1.355 . S
C1031 C1033 1.419 . S
C1032 C1030 1.415 . S
C1032 C1037 1.425 . S
C1032 C1039 1.409 . S
C1033 H1025 0.930 . S
C1033 C1031 1.419 . S
C1033 C1034 1.362 . S
C1034 H1026 0.930 . S
C1034 C1033 1.362 . S
C1034 C1037 1.409 . S
C1035 H1027 0.930 . S
C1035 C1036 1.355 . S
C1035 C1037 1.415 . S
C1036 C1035 1.355 . S
C1036 C1038 1.419 . S
C1037 C1032 1.425 . S
C1037 C1034 1.409 . S
C1037 C1035 1.415 . S
C1038 H1028 0.930 . S
C1038 C1036 1.419 . S
C1038 C1039 1.362 . S
C1039 H1029 0.930 . S
C1039 C1032 1.409 . S
C1039 C1038 1.362 . S
H1040 C1046 0.930 . S
H1041 C1049 0.930 . S
H1042 C1050 0.930 . S
H1043 C1051 0.930 . S
H1044 C1054 0.930 . S
H1045 C1055 0.930 . S
C1046 H1040 0.930 . S
C1046 C1047 1.355 . S
C1046 C1048 1.415 . S
C1047 C1046 1.355 . S
C1047 C1049 1.419 . S
C1048 C1046 1.415 . S
C1048 C1053 1.425 . S
C1048 C1055 1.409 . S
C1049 H1041 0.930 . S
C1049 C1047 1.419 . S
C1049 C1050 1.362 . S
C1050 H1042 0.930 . S
C1050 C1049 1.362 . S
C1050 C1053 1.409 . S
C1051 H1043 0.930 . S
C1051 C1052 1.355 . S
C1051 C1053 1.415 . S
C1052 C1051 1.355 . S
C1052 C1054 1.419 . S
C1053 C1048 1.425 . S
C1053 C1050 1.409 . S
C1053 C1051 1.415 . S
C1054 H1044 0.930 . S
C1054 C1052 1.419 . S
C1054 C1055 1.362 . S
C1055 H1045 0.930 . S
C1055 C1048 1.409 . S
C1055 C1054 1.362 . S
H1056 C1062 0.930 . S
H1057 C1065 0.930 . S
H1058 C1066 0.930 . S
H1059 C1067 0.930 . S
H1060 C1070 0.930 . S
H1061 C1071 0.930 . S
C1062 H1056 0.930 . S
C1062 C1063 1.355 . S
C1062 C1064 1.415 . S
C1063 C1062 1.355 . S
C1063 C1065 1.419 . S
C1064 C1062 1.415 . S
C1064 C1069 1.425 . S
C1064 C1071 1.409 . S
C1065 H1057 0.930 . S
C1065 C1063 1.419 . S
C1065 C1066 1.362 . S
C1066 H1058 0.930 . S
C1066 C1065 1.362 . S
C1066 C1069 1.409 . S
C1067 H1059 0.930 . S
C1067 C1068 1.355 . S
C1067 C1069 1.415 . S
C1068 C1067 1.355 . S
C1068 C1070 1.419 . S
C1069 C1064 1.425 . S
C1069 C1066 1.409 . S
C1069 C1067 1.415 . S
C1070 H1060 0.930 . S
C1070 C1068 1.419 . S
C1070 C1071 1.362 . S
C1071 H1061 0.930 . S
C1071 C1064 1.409 . S
C1071 C1070 1.362 . S
H1072 C1078 0.930 . S
H1073 C1081 0.930 . S
H1074 C1082 0.930 . S
H1075 C1083 0.930 . S
H1076 C1086 0.930 . S
H1077 C1087 0.930 . S
C1078 H1072 0.930 . S
C1078 C1079 1.355 . S
C1078 C1080 1.415 . S
C1079 C1078 1.355 . S
C1079 C1081 1.419 . S
C1080 C1078 1.415 . S
C1080 C1085 1.425 . S
C1080 C1087 1.409 . S
C1081 H1073 0.930 . S
C1081 C1079 1.419 . S
C1081 C1082 1.362 . S
C1082 H1074 0.930 . S
C1082 C1081 1.362 . S
C1082 C1085 1.409 . S
C1083 H1075 0.930 . S
C1083 C1084 1.355 . S
C1083 C1085 1.415 . S
C1084 C1083 1.355 . S
C1084 C1086 1.419 . S
C1085 C1080 1.425 . S
C1085 C1082 1.409 . S
C1085 C1083 1.415 . S
C1086 H1076 0.930 . S
C1086 C1084 1.419 . S
C1086 C1087 1.362 . S
C1087 H1077 0.930 . S
C1087 C1080 1.409 . S
C1087 C1086 1.362 . S
H1088 C1094 0.930 . S
H1089 C1097 0.930 . S
H1090 C1098 0.930 . S
H1091 C1099 0.930 . S
H1092 C1102 0.930 . S
H1093 C1103 0.930 . S
C1094 H1088 0.930 . S
C1094 C1095 1.355 . S
C1094 C1096 1.415 . S
C1095 C1094 1.355 . S
C1095 C1097 1.419 . S
C1096 C1094 1.415 . S
C1096 C1101 1.425 . S
C1096 C1103 1.409 . S
C1097 H1089 0.930 . S
C1097 C1095 1.419 . S
C1097 C1098 1.362 . S
C1098 H1090 0.930 . S
C1098 C1097 1.362 . S
C1098 C1101 1.409 . S
C1099 H1091 0.930 . S
C1099 C1100 1.355 . S
C1099 C1101 1.415 . S
C1100 C1099 1.355 . S
C1100 C1102 1.419 . S
C1101 C1096 1.425 . S
C1101 C1098 1.409 . S
C1101 C1099 1.415 . S
C1102 H1092 0.930 . S
C1102 C1100 1.419 . S
C1102 C1103 1.362 . S
C1103 H1093 0.930 . S
C1103 C1096 1.409 . S
C1103 C1102 1.362 . S
H1104 C1110 0.930 . S
H1105 C1113 0.938 1_455 S
H1106 C1114 0.930 . S
H1107 C1115 0.930 . S
H1108 C1118 0.923 1_665 S
H1109 C1119 0.930 . S
C1110 H1104 0.930 . S
C1110 C1111 1.355 1_565 S
C1110 C1112 1.415 1_565 S
C1111 C1110 1.355 1_545 S
C1111 C1113 1.419 . S
C1112 C1110 1.415 1_545 S
C1112 C1117 1.425 1_655 S
C1112 C1119 1.409 1_545 S
C1113 H1105 0.938 1_655 S
C1113 C1111 1.419 . S
C1113 C1114 1.362 1_655 S
C1114 H1106 0.930 . S
C1114 C1113 1.362 1_455 S
C1114 C1117 1.409 . S
C1115 H1107 0.930 . S
C1115 C1116 1.355 . S
C1115 C1117 1.415 . S
C1116 C1115 1.355 . S
C1116 C1118 1.453 . S
C1117 C1112 1.425 1_455 S
C1117 C1114 1.409 . S
C1117 C1115 1.415 . S
C1118 H1108 0.923 1_445 S
C1118 C1116 1.453 . S
C1118 C1119 1.337 1_445 S
C1119 H1109 0.930 . S
C1119 C1112 1.409 1_565 S
C1119 C1118 1.337 1_665 S
H1120 C1126 0.930 . S
H1121 C1129 0.930 . S
H1122 C1130 0.930 . S
H1123 C1131 0.930 . S
H1124 C1134 0.930 . S
H1125 C1135 0.930 . S
C1126 H1120 0.930 . S
C1126 C1127 1.355 . S
C1126 C1128 1.415 . S
C1127 C1126 1.355 . S
C1127 C1129 1.419 . S
C1128 C1126 1.415 . S
C1128 C1133 1.425 . S
C1128 C1135 1.409 . S
C1129 H1121 0.930 . S
C1129 C1127 1.419 . S
C1129 C1130 1.362 . S
C1130 H1122 0.930 . S
C1130 C1129 1.362 . S
C1130 C1133 1.409 . S
C1131 H1123 0.930 . S
C1131 C1132 1.355 . S
C1131 C1133 1.415 . S
C1132 C1131 1.355 . S
C1132 C1134 1.419 . S
C1133 C1128 1.425 . S
C1133 C1130 1.409 . S
C1133 C1131 1.415 . S
C1134 H1124 0.930 . S
C1134 C1132 1.419 . S
C1134 C1135 1.362 . S
C1135 H1125 0.930 . S
C1135 C1128 1.409 . S
C1135 C1134 1.362 . S
H1136 C1142 0.930 . S
H1137 C1145 0.930 . S
H1138 C1146 0.930 . S
H1139 C1147 0.930 . S
H1140 C1150 0.930 . S
H1141 C1151 0.930 . S
C1142 H1136 0.930 . S
C1142 C1143 1.355 1_565 S
C1142 C1144 1.415 1_565 S
C1143 C1142 1.355 1_545 S
C1143 C1145 1.419 . S
C1144 C1142 1.415 1_545 S
C1144 C1149 1.425 . S
C1144 C1151 1.409 1_545 S
C1145 H1137 0.930 . S
C1145 C1143 1.419 . S
C1145 C1146 1.362 . S
C1146 H1138 0.930 . S
C1146 C1145 1.362 . S
C1146 C1149 1.409 . S
C1147 H1139 0.930 . S
C1147 C1148 1.355 . S
C1147 C1149 1.415 . S
C1148 C1147 1.355 . S
C1148 C1150 1.419 1_545 S
C1149 C1144 1.425 . S
C1149 C1146 1.409 . S
C1149 C1147 1.415 . S
C1150 H1140 0.930 . S
C1150 C1148 1.419 1_565 S
C1150 C1151 1.362 . S
C1151 H1141 0.930 . S
C1151 C1144 1.409 1_565 S
C1151 C1150 1.362 . S
H1152 C1158 0.930 . S
H1153 C1161 0.930 . S
H1154 C1162 0.930 . S
H1155 C1163 0.930 . S
H1156 C1166 0.930 . S
H1157 C1167 0.930 . S
C1158 H1152 0.930 . S
C1158 C1159 1.355 . S
C1158 C1160 1.415 . S
C1159 C1158 1.355 . S
C1159 C1161 1.419 . S
C1160 C1158 1.415 . S
C1160 C1165 1.425 . S
C1160 C1167 1.409 . S
C1161 H1153 0.930 . S
C1161 C1159 1.419 . S
C1161 C1162 1.362 . S
C1162 H1154 0.930 . S
C1162 C1161 1.362 . S
C1162 C1165 1.409 . S
C1163 H1155 0.930 . S
C1163 C1164 1.355 . S
C1163 C1165 1.415 . S
C1164 C1163 1.355 . S
C1164 C1166 1.419 . S
C1165 C1160 1.425 . S
C1165 C1162 1.409 . S
C1165 C1163 1.415 . S
C1166 H1156 0.930 . S
C1166 C1164 1.419 . S
C1166 C1167 1.362 . S
C1167 H1157 0.930 . S
C1167 C1160 1.409 . S
C1167 C1166 1.362 . S
H1168 C1174 0.930 . S
H1169 C1177 0.930 . S
H1170 C1178 0.930 . S
H1171 C1179 0.931 . S
H1172 C1182 0.930 . S
H1173 C1183 0.930 . S
C1174 H1168 0.930 . S
C1174 C1175 1.355 . S
C1174 C1176 1.415 . S
C1175 C1174 1.355 . S
C1175 C1177 1.419 1_545 S
C1176 C1174 1.415 . S
C1176 C1181 1.463 . S
C1176 C1183 1.409 1_655 S
C1177 H1169 0.930 . S
C1177 C1175 1.419 1_565 S
C1177 C1178 1.362 . S
C1178 H1170 0.930 . S
C1178 C1177 1.362 . S
C1178 C1181 1.384 1_565 S
C1179 H1171 0.931 . S
C1179 C1180 1.354 1_565 S
C1179 C1181 1.404 1_465 S
C1180 C1179 1.354 1_545 S
C1180 C1182 1.419 . S
C1181 C1176 1.463 . S
C1181 C1178 1.384 1_545 S
C1181 C1179 1.404 1_645 S
C1182 H1172 0.930 . S
C1182 C1180 1.419 . S
C1182 C1183 1.362 . S
C1183 H1173 0.930 . S
C1183 C1176 1.409 1_455 S
C1183 C1182 1.362 . S
H1184 C1190 0.930 . S
H1185 C1193 0.930 . S
H1186 C1194 0.930 . S
H1187 C1195 0.930 . S
H1188 C1198 0.930 . S
H1189 C1199 0.930 . S
C1190 H1184 0.930 . S
C1190 C1191 1.355 . S
C1190 C1192 1.415 . S
C1191 C1190 1.355 . S
C1191 C1193 1.419 . S
C1192 C1190 1.415 . S
C1192 C1197 1.425 . S
C1192 C1199 1.409 . S
C1193 H1185 0.930 . S
C1193 C1191 1.419 . S
C1193 C1194 1.362 . S
C1194 H1186 0.930 . S
C1194 C1193 1.362 . S
C1194 C1197 1.409 . S
C1195 H1187 0.930 . S
C1195 C1196 1.355 . S
C1195 C1197 1.415 . S
C1196 C1195 1.355 . S
C1196 C1198 1.419 . S
C1197 C1192 1.425 . S
C1197 C1194 1.409 . S
C1197 C1195 1.415 . S
C1198 H1188 0.930 . S
C1198 C1196 1.419 . S
C1198 C1199 1.362 . S
C1199 H1189 0.930 . S
C1199 C1192 1.409 . S
C1199 C1198 1.362 . S
H1200 C1206 0.934 1_565 S
H1201 C1209 0.930 . S
H1202 C1210 0.930 . S
H1203 C1211 0.930 . S
H1204 C1214 0.930 . S
H1205 C1215 0.930 1_565 S
C1206 H1200 0.934 1_545 S
C1206 C1207 1.355 . S
C1206 C1208 1.415 . S
C1207 C1206 1.355 . S
C1207 C1209 1.419 . S
C1208 C1206 1.415 . S
C1208 C1213 1.425 . S
C1208 C1215 1.409 . S
C1209 H1201 0.930 . S
C1209 C1207 1.419 . S
C1209 C1210 1.362 . S
C1210 H1202 0.930 . S
C1210 C1209 1.362 . S
C1210 C1213 1.409 . S
C1211 H1203 0.930 . S
C1211 C1212 1.355 . S
C1211 C1213 1.415 . S
C1212 C1211 1.355 . S
C1212 C1214 1.419 . S
C1213 C1208 1.425 . S
C1213 C1210 1.409 . S
C1213 C1211 1.415 . S
C1214 H1204 0.930 . S
C1214 C1212 1.419 . S
C1214 C1215 1.362 . S
C1215 H1205 0.930 1_545 S
C1215 C1208 1.409 . S
C1215 C1214 1.362 . S
H1216 C1222 0.930 . S
H1217 C1225 0.930 . S
H1218 C1226 0.930 . S
H1219 C1227 0.930 . S
H1220 C1230 0.930 . S
H1221 C1231 0.930 . S
C1222 H1216 0.930 . S
C1222 C1223 1.355 . S
C1222 C1224 1.415 . S
C1223 C1222 1.355 . S
C1223 C1225 1.419 . S
C1224 C1222 1.415 . S
C1224 C1229 1.425 . S
C1224 C1231 1.409 . S
C1225 H1217 0.930 . S
C1225 C1223 1.419 . S
C1225 C1226 1.362 . S
C1226 H1218 0.930 . S
C1226 C1225 1.362 . S
C1226 C1229 1.409 . S
C1227 H1219 0.930 . S
C1227 C1228 1.355 . S
C1227 C1229 1.415 . S
C1228 C1227 1.355 . S
C1228 C1230 1.419 . S
C1229 C1224 1.425 . S
C1229 C1226 1.409 . S
C1229 C1227 1.415 . S
C1230 H1220 0.930 . S
C1230 C1228 1.419 . S
C1230 C1231 1.362 . S
C1231 H1221 0.930 . S
C1231 C1224 1.409 . S
C1231 C1230 1.362 . S
H1232 C1238 0.930 . S
H1233 C1241 0.930 1_556 S
H1234 C1242 0.930 . S
H1235 C1243 0.930 . S
H1236 C1246 0.930 . S
H1237 C1247 0.930 . S
C1238 H1232 0.930 . S
C1238 C1239 1.355 . S
C1238 C1240 1.415 . S
C1239 C1238 1.355 . S
C1239 C1241 1.419 . S
C1240 C1238 1.415 . S
C1240 C1245 1.425 . S
C1240 C1247 1.409 . S
C1241 H1233 0.930 1_554 S
C1241 C1239 1.419 . S
C1241 C1242 1.362 . S
C1242 H1234 0.930 . S
C1242 C1241 1.362 . S
C1242 C1245 1.409 . S
C1243 H1235 0.930 . S
C1243 C1244 1.355 . S
C1243 C1245 1.415 . S
C1244 C1243 1.355 . S
C1244 C1246 1.419 . S
C1245 C1240 1.425 . S
C1245 C1242 1.409 . S
C1245 C1243 1.415 . S
C1246 H1236 0.930 . S
C1246 C1244 1.419 . S
C1246 C1247 1.362 . S
C1247 H1237 0.930 . S
C1247 C1240 1.409 . S
C1247 C1246 1.362 . S
H1248 C1254 0.930 . S
H1249 C1257 0.930 . S
H1250 C1258 0.930 . S
H1251 C1259 0.930 . S
H1252 C1262 0.930 . S
H1253 C1263 0.930 . S
C1254 H1248 0.930 . S
C1254 C1255 1.355 . S
C1254 C1256 1.415 . S
C1255 C1254 1.355 . S
C1255 C1257 1.419 . S
C1256 C1254 1.415 . S
C1256 C1261 1.425 . S
C1256 C1263 1.409 . S
C1257 H1249 0.930 . S
C1257 C1255 1.419 . S
C1257 C1258 1.362 . S
C1258 H1250 0.930 . S
C1258 C1257 1.362 . S
C1258 C1261 1.409 . S
C1259 H1251 0.930 . S
C1259 C1260 1.355 . S
C1259 C1261 1.415 . S
C1260 C1259 1.355 . S
C1260 C1262 1.419 . S
C1261 C1256 1.425 . S
C1261 C1258 1.409 . S
C1261 C1259 1.415 . S
C1262 H1252 0.930 . S
C1262 C1260 1.419 . S
C1262 C1263 1.362 . S
C1263 H1253 0.930 . S
C1263 C1256 1.409 . S
C1263 C1262 1.362 . S
H1264 C1270 0.930 . S
H1265 C1273 0.930 . S
H1266 C1274 0.930 . S
H1267 C1275 0.930 . S
H1268 C1278 0.930 . S
H1269 C1279 0.930 . S
C1270 H1264 0.930 . S
C1270 C1271 1.355 . S
C1270 C1272 1.415 . S
C1271 C1270 1.355 . S
C1271 C1273 1.419 . S
C1272 C1270 1.415 . S
C1272 C1277 1.425 . S
C1272 C1279 1.409 . S
C1273 H1265 0.930 . S
C1273 C1271 1.419 . S
C1273 C1274 1.362 . S
C1274 H1266 0.930 . S
C1274 C1273 1.362 . S
C1274 C1277 1.409 . S
C1275 H1267 0.930 . S
C1275 C1276 1.355 . S
C1275 C1277 1.415 . S
C1276 C1275 1.355 . S
C1276 C1278 1.419 . S
C1277 C1272 1.425 . S
C1277 C1274 1.409 . S
C1277 C1275 1.415 . S
C1278 H1268 0.930 . S
C1278 C1276 1.419 . S
C1278 C1279 1.362 . S
C1279 H1269 0.930 . S
C1279 C1272 1.409 . S
C1279 C1278 1.362 . S
H1280 C1286 0.930 . S
H1281 C1289 0.930 . S
H1282 C1290 0.930 . S
H1283 C1291 0.930 . S
H1284 C1294 0.930 . S
H1285 C1295 0.930 . S
C1286 H1280 0.930 . S
C1286 C1287 1.355 . S
C1286 C1288 1.415 . S
C1287 C1286 1.355 . S
C1287 C1289 1.419 . S
C1288 C1286 1.415 . S
C1288 C1293 1.425 . S
C1288 C1295 1.409 . S
C1289 H1281 0.930 . S
C1289 C1287 1.419 . S
C1289 C1290 1.362 . S
C1290 H1282 0.930 . S
C1290 C1289 1.362 . S
C1290 C1293 1.409 . S
C1291 H1283 0.930 . S
C1291 C1292 1.355 . S
C1291 C1293 1.415 . S
C1292 C1291 1.355 . S
C1292 C1294 1.419 . S
C1293 C1288 1.425 . S
C1293 C1290 1.409 . S
C1293 C1291 1.415 . S
C1294 H1284 0.930 . S
C1294 C1292 1.419 . S
C1294 C1295 1.362 . S
C1295 H1285 0.930 . S
C1295 C1288 1.409 . S
C1295 C1294 1.362 . S
H1296 C1302 0.930 . S
H1297 C1305 0.930 . S
H1298 C1306 0.930 . S
H1299 C1307 0.930 . S
H1300 C1310 0.930 . S
H1301 C1311 0.930 . S
C1302 H1296 0.930 . S
C1302 C1303 1.355 . S
C1302 C1304 1.415 . S
C1303 C1302 1.355 . S
C1303 C1305 1.419 . S
C1304 C1302 1.415 . S
C1304 C1309 1.425 . S
C1304 C1311 1.409 . S
C1305 H1297 0.930 . S
C1305 C1303 1.419 . S
C1305 C1306 1.362 . S
C1306 H1298 0.930 . S
C1306 C1305 1.362 . S
C1306 C1309 1.409 . S
C1307 H1299 0.930 . S
C1307 C1308 1.355 . S
C1307 C1309 1.415 . S
C1308 C1307 1.355 . S
C1308 C1310 1.419 . S
C1309 C1304 1.425 . S
C1309 C1306 1.409 . S
C1309 C1307 1.415 . S
C1310 H1300 0.930 . S
C1310 C1308 1.419 . S
C1310 C1311 1.362 . S
C1311 H1301 0.930 . S
C1311 C1304 1.409 . S
C1311 C1310 1.362 . S
H1312 C1318 0.930 . S
H1313 C1321 0.930 . S
H1314 C1322 0.930 . S
H1315 C1323 0.930 . S
H1316 C1326 0.930 . S
H1317 C1327 0.930 . S
C1318 H1312 0.930 . S
C1318 C1319 1.355 . S
C1318 C1320 1.415 . S
C1319 C1318 1.355 . S
C1319 C1321 1.419 . S
C1320 C1318 1.415 . S
C1320 C1325 1.425 . S
C1320 C1327 1.409 . S
C1321 H1313 0.930 . S
C1321 C1319 1.419 . S
C1321 C1322 1.362 . S
C1322 H1314 0.930 . S
C1322 C1321 1.362 . S
C1322 C1325 1.409 . S
C1323 H1315 0.930 . S
C1323 C1324 1.355 . S
C1323 C1325 1.415 . S
C1324 C1323 1.355 . S
C1324 C1326 1.419 . S
C1325 C1320 1.425 . S
C1325 C1322 1.409 . S
C1325 C1323 1.415 . S
C1326 H1316 0.930 . S
C1326 C1324 1.419 . S
C1326 C1327 1.362 . S
C1327 H1317 0.930 . S
C1327 C1320 1.409 . S
C1327 C1326 1.362 . S
H1328 C1334 0.930 . S
H1329 C1337 0.930 . S
H1330 C1338 0.930 . S
H1331 C1339 0.930 . S
H1332 C1342 0.930 . S
H1333 C1343 0.930 . S
C1334 H1328 0.930 . S
C1334 C1335 1.355 . S
C1334 C1336 1.415 . S
C1335 C1334 1.355 . S
C1335 C1337 1.419 . S
C1336 C1334 1.415 . S
C1336 C1341 1.425 . S
C1336 C1343 1.409 . S
C1337 H1329 0.930 . S
C1337 C1335 1.419 . S
C1337 C1338 1.362 . S
C1338 H1330 0.930 . S
C1338 C1337 1.362 . S
C1338 C1341 1.409 . S
C1339 H1331 0.930 . S
C1339 C1340 1.355 . S
C1339 C1341 1.415 . S
C1340 C1339 1.355 . S
C1340 C1342 1.419 . S
C1341 C1336 1.425 . S
C1341 C1338 1.409 . S
C1341 C1339 1.415 . S
C1342 H1332 0.930 . S
C1342 C1340 1.419 . S
C1342 C1343 1.362 . S
C1343 H1333 0.930 . S
C1343 C1336 1.409 . S
C1343 C1342 1.362 . S
H1344 C1350 0.930 . S
H1345 C1353 0.930 . S
H1346 C1354 0.930 . S
H1347 C1355 0.930 . S
H1348 C1358 0.930 . S
H1349 C1359 0.930 . S
C1350 H1344 0.930 . S
C1350 C1351 1.355 . S
C1350 C1352 1.415 . S
C1351 C1350 1.355 . S
C1351 C1353 1.419 . S
C1352 C1350 1.415 . S
C1352 C1357 1.425 . S
C1352 C1359 1.409 . S
C1353 H1345 0.930 . S
C1353 C1351 1.419 . S
C1353 C1354 1.362 . S
C1354 H1346 0.930 . S
C1354 C1353 1.362 . S
C1354 C1357 1.409 . S
C1355 H1347 0.930 . S
C1355 C1356 1.355 . S
C1355 C1357 1.415 . S
C1356 C1355 1.355 . S
C1356 C1358 1.419 . S
C1357 C1352 1.425 . S
C1357 C1354 1.409 . S
C1357 C1355 1.415 . S
C1358 H1348 0.930 . S
C1358 C1356 1.419 . S
C1358 C1359 1.362 . S
C1359 H1349 0.930 . S
C1359 C1352 1.409 . S
C1359 C1358 1.362 . S
H1360 C1366 0.930 . S
H1361 C1369 0.930 . S
H1362 C1370 0.930 . S
H1363 C1371 0.930 . S
H1364 C1374 0.930 . S
H1365 C1375 0.930 . S
C1366 H1360 0.930 . S
C1366 C1367 1.355 . S
C1366 C1368 1.415 . S
C1367 C1366 1.355 . S
C1367 C1369 1.419 . S
C1368 C1366 1.415 . S
C1368 C1373 1.425 . S
C1368 C1375 1.409 . S
C1369 H1361 0.930 . S
C1369 C1367 1.419 . S
C1369 C1370 1.362 . S
C1370 H1362 0.930 . S
C1370 C1369 1.362 . S
C1370 C1373 1.409 . S
C1371 H1363 0.930 . S
C1371 C1372 1.355 . S
C1371 C1373 1.415 . S
C1372 C1371 1.355 . S
C1372 C1374 1.419 . S
C1373 C1368 1.425 . S
C1373 C1370 1.409 . S
C1373 C1371 1.415 . S
C1374 H1364 0.930 . S
C1374 C1372 1.419 . S
C1374 C1375 1.362 . S
C1375 H1365 0.930 . S
C1375 C1368 1.409 . S
C1375 C1374 1.362 . S
H1376 C1382 0.930 . S
H1377 C1385 0.930 . S
H1378 C1386 0.930 . S
H1379 C1387 0.930 . S
H1380 C1390 0.930 . S
H1381 C1391 0.930 . S
C1382 H1376 0.930 . S
C1382 C1383 1.355 . S
C1382 C1384 1.415 . S
C1383 C1382 1.355 . S
C1383 C1385 1.419 . S
C1384 C1382 1.415 . S
C1384 C1389 1.425 . S
C1384 C1391 1.409 . S
C1385 H1377 0.930 . S
C1385 C1383 1.419 . S
C1385 C1386 1.362 . S
C1386 H1378 0.930 . S
C1386 C1385 1.362 . S
C1386 C1389 1.409 . S
C1387 H1379 0.930 . S
C1387 C1388 1.355 . S
C1387 C1389 1.415 . S
C1388 C1387 1.355 . S
C1388 C1390 1.419 . S
C1389 C1384 1.425 . S
C1389 C1386 1.409 . S
C1389 C1387 1.415 . S
C1390 H1380 0.930 . S
C1390 C1388 1.419 . S
C1390 C1391 1.362 . S
C1391 H1381 0.930 . S
C1391 C1384 1.409 . S
C1391 C1390 1.362 . S
H1392 C1398 0.930 . S
H1393 C1401 0.930 . S
H1394 C1402 0.930 . S
H1395 C1403 0.930 . S
H1396 C1406 0.930 . S
H1397 C1407 0.930 . S
C1398 H1392 0.930 . S
C1398 C1399 1.355 . S
C1398 C1400 1.415 . S
C1399 C1398 1.355 . S
C1399 C1401 1.419 . S
C1400 C1398 1.415 . S
C1400 C1405 1.425 . S
C1400 C1407 1.409 . S
C1401 H1393 0.930 . S
C1401 C1399 1.419 . S
C1401 C1402 1.362 . S
C1402 H1394 0.930 . S
C1402 C1401 1.362 . S
C1402 C1405 1.409 . S
C1403 H1395 0.930 . S
C1403 C1404 1.355 . S
C1403 C1405 1.415 . S
C1404 C1403 1.355 . S
C1404 C1406 1.419 . S
C1405 C1400 1.425 . S
C1405 C1402 1.409 . S
C1405 C1403 1.415 . S
C1406 H1396 0.930 . S
C1406 C1404 1.419 . S
C1406 C1407 1.362 . S
C1407 H1397 0.930 . S
C1407 C1400 1.409 . S
C1407 C1406 1.362 . S
H1408 C1414 0.930 . S
H1409 C1417 0.930 . S
H1410 C1418 0.930 . S
H1411 C1419 0.930 . S
H1412 C1422 0.930 . S
H1413 C1423 0.930 . S
C1414 H1408 0.930 . S
C1414 C1415 1.355 . S
C1414 C1416 1.415 . S
C1415 C1414 1.355 . S
C1415 C1417 1.419 . S
C1416 C1414 1.415 . S
C1416 C1421 1.425 . S
C1416 C1423 1.409 . S
C1417 H1409 0.930 . S
C1417 C1415 1.419 . S
C1417 C1418 1.362 . S
C1418 H1410 0.930 . S
C1418 C1417 1.362 . S
C1418 C1421 1.409 . S
C1419 H1411 0.930 . S
C1419 C1420 1.355 . S
C1419 C1421 1.415 . S
C1420 C1419 1.355 . S
C1420 C1422 1.419 . S
C1421 C1416 1.425 . S
C1421 C1418 1.409 . S
C1421 C1419 1.415 . S
C1422 H1412 0.930 . S
C1422 C1420 1.419 . S
C1422 C1423 1.362 . S
C1423 H1413 0.930 . S
C1423 C1416 1.409 . S
C1423 C1422 1.362 . S
H1424 C1430 0.930 . S
H1425 C1433 0.930 . S
H1426 C1434 0.930 . S
H1427 C1435 0.930 . S
H1428 C1438 0.930 . S
H1429 C1439 0.930 . S
C1430 H1424 0.930 . S
C1430 C1431 1.355 . S
C1430 C1432 1.415 . S
C1431 C1430 1.355 . S
C1431 C1433 1.421 1_455 S
C1432 C1430 1.415 . S
C1432 C1437 1.425 1_455 S
C1432 C1439 1.409 . S
C1433 H1425 0.930 . S
C1433 C1431 1.421 1_655 S
C1433 C1434 1.362 . S
C1434 H1426 0.930 . S
C1434 C1433 1.362 . S
C1434 C1437 1.409 . S
C1435 H1427 0.930 . S
C1435 C1436 1.355 . S
C1435 C1437 1.415 . S
C1436 C1435 1.355 . S
C1436 C1438 1.422 1_655 S
C1437 C1432 1.425 1_655 S
C1437 C1434 1.409 . S
C1437 C1435 1.415 . S
C1438 H1428 0.930 . S
C1438 C1436 1.422 1_455 S
C1438 C1439 1.362 . S
C1439 H1429 0.930 . S
C1439 C1432 1.409 . S
C1439 C1438 1.362 . S
H1440 C1446 0.930 . S
H1441 C1449 0.930 . S
H1442 C1450 0.930 . S
H1443 C1451 0.930 . S
H1444 C1454 0.930 . S
H1445 C1455 0.930 . S
C1446 H1440 0.930 . S
C1446 C1447 1.355 . S
C1446 C1448 1.415 . S
C1447 C1446 1.355 . S
C1447 C1449 1.419 . S
C1448 C1446 1.415 . S
C1448 C1453 1.425 . S
C1448 C1455 1.409 . S
C1449 H1441 0.930 . S
C1449 C1447 1.419 . S
C1449 C1450 1.362 . S
C1450 H1442 0.930 . S
C1450 C1449 1.362 . S
C1450 C1453 1.409 . S
C1451 H1443 0.930 . S
C1451 C1452 1.355 . S
C1451 C1453 1.415 . S
C1452 C1451 1.355 . S
C1452 C1454 1.419 . S
C1453 C1448 1.425 . S
C1453 C1450 1.409 . S
C1453 C1451 1.415 . S
C1454 H1444 0.930 . S
C1454 C1452 1.419 . S
C1454 C1455 1.362 . S
C1455 H1445 0.930 . S
C1455 C1448 1.409 . S
C1455 C1454 1.362 . S
H1456 C1462 0.930 . S
H1457 C1465 0.930 . S
H1458 C1466 0.930 . S
H1459 C1467 0.930 . S
H1460 C1470 0.930 . S
H1461 C1471 0.930 . S
C1462 H1456 0.930 . S
C1462 C1463 1.355 . S
C1462 C1464 1.415 . S
C1463 C1462 1.355 . S
C1463 C1465 1.419 . S
C1464 C1462 1.415 . S
C1464 C1469 1.395 1_556 S
C1464 C1471 1.409 . S
C1465 H1457 0.930 . S
C1465 C1463 1.419 . S
C1465 C1466 1.362 1_556 S
C1466 H1458 0.930 . S
C1466 C1465 1.362 1_554 S
C1466 C1469 1.417 . S
C1467 H1459 0.930 . S
C1467 C1468 1.355 . S
C1467 C1469 1.437 . S
C1468 C1467 1.355 . S
C1468 C1470 1.419 1_554 S
C1469 C1464 1.395 1_554 S
C1469 C1466 1.417 . S
C1469 C1467 1.437 . S
C1470 H1460 0.930 . S
C1470 C1468 1.419 1_556 S
C1470 C1471 1.362 . S
C1471 H1461 0.930 . S
C1471 C1464 1.409 . S
C1471 C1470 1.362 . S
H1472 C1478 0.930 . S
H1473 C1481 0.930 . S
H1474 C1482 0.930 . S
H1475 C1483 0.930 . S
H1476 C1486 0.930 . S
H1477 C1487 0.930 . S
C1478 H1472 0.930 . S
C1478 C1479 1.355 1_655 S
C1478 C1480 1.415 . S
C1479 C1478 1.355 1_455 S
C1479 C1481 1.419 . S
C1480 C1478 1.415 . S
C1480 C1485 1.425 . S
C1480 C1487 1.409 . S
C1481 H1473 0.930 . S
C1481 C1479 1.419 . S
C1481 C1482 1.362 . S
C1482 H1474 0.930 . S
C1482 C1481 1.362 . S
C1482 C1485 1.409 1_455 S
C1483 H1475 0.930 . S
C1483 C1484 1.355 . S
C1483 C1485 1.415 . S
C1484 C1483 1.355 . S
C1484 C1486 1.419 . S
C1485 C1480 1.425 . S
C1485 C1482 1.409 1_655 S
C1485 C1483 1.415 . S
C1486 H1476 0.930 . S
C1486 C1484 1.419 . S
C1486 C1487 1.362 . S
C1487 H1477 0.930 . S
C1487 C1480 1.409 . S
C1487 C1486 1.362 . S
H1488 C1494 0.930 . S
H1489 C1497 0.930 . S
H1490 C1498 0.930 . S
H1491 C1499 0.930 . S
H1492 C1502 0.930 1_554 S
H1493 C1503 0.930 . S
C1494 H1488 0.930 . S
C1494 C1495 1.355 . S
C1494 C1496 1.415 . S
C1495 C1494 1.355 . S
C1495 C1497 1.419 . S
C1496 C1494 1.415 . S
C1496 C1501 1.425 . S
C1496 C1503 1.409 . S
C1497 H1489 0.930 . S
C1497 C1495 1.419 . S
C1497 C1498 1.362 . S
C1498 H1490 0.930 . S
C1498 C1497 1.362 . S
C1498 C1501 1.409 . S
C1499 H1491 0.930 . S
C1499 C1500 1.355 . S
C1499 C1501 1.415 . S
C1500 C1499 1.355 . S
C1500 C1502 1.419 . S
C1501 C1496 1.425 . S
C1501 C1498 1.409 . S
C1501 C1499 1.415 . S
C1502 H1492 0.930 1_556 S
C1502 C1500 1.419 . S
C1502 C1503 1.362 . S
C1503 H1493 0.930 . S
C1503 C1496 1.409 . S
C1503 C1502 1.362 . S
H1504 C1510 0.930 . S
H1505 C1513 0.930 . S
H1506 C1514 0.930 . S
H1507 C1515 0.930 . S
H1508 C1518 0.930 . S
H1509 C1519 0.930 . S
C1510 H1504 0.930 . S
C1510 C1511 1.355 . S
C1510 C1512 1.415 . S
C1511 C1510 1.355 . S
C1511 C1513 1.419 . S
C1512 C1510 1.415 . S
C1512 C1517 1.425 . S
C1512 C1519 1.409 . S
C1513 H1505 0.930 . S
C1513 C1511 1.419 . S
C1513 C1514 1.362 . S
C1514 H1506 0.930 . S
C1514 C1513 1.362 . S
C1514 C1517 1.409 . S
C1515 H1507 0.930 . S
C1515 C1516 1.355 . S
C1515 C1517 1.415 . S
C1516 C1515 1.355 . S
C1516 C1518 1.419 . S
C1517 C1512 1.425 . S
C1517 C1514 1.409 . S
C1517 C1515 1.415 . S
C1518 H1508 0.930 . S
C1518 C1516 1.419 . S
C1518 C1519 1.362 . S
C1519 H1509 0.930 . S
C1519 C1512 1.409 . S
C1519 C1518 1.362 . S
H1520 C1526 0.930 . S
H1521 C1529 0.930 . S
H1522 C1530 0.930 1_565 S
H1523 C1531 0.930 . S
H1524 C1534 0.930 . S
H1525 C1535 0.930 . S
C1526 H1520 0.930 . S
C1526 C1527 1.355 . S
C1526 C1528 1.415 . S
C1527 C1526 1.355 . S
C1527 C1529 1.419 . S
C1528 C1526 1.415 . S
C1528 C1533 1.425 . S
C1528 C1535 1.409 . S
C1529 H1521 0.930 . S
C1529 C1527 1.419 . S
C1529 C1530 1.362 . S
C1530 H1522 0.930 1_545 S
C1530 C1529 1.362 . S
C1530 C1533 1.409 . S
C1531 H1523 0.930 . S
C1531 C1532 1.355 . S
C1531 C1533 1.415 . S
C1532 C1531 1.355 . S
C1532 C1534 1.419 . S
C1533 C1528 1.425 . S
C1533 C1530 1.409 . S
C1533 C1531 1.415 . S
C1534 H1524 0.930 . S
C1534 C1532 1.419 . S
C1534 C1535 1.362 . S
C1535 H1525 0.930 . S
C1535 C1528 1.409 . S
C1535 C1534 1.362 . S
H1536 C1542 0.930 . S
H1537 C1545 0.930 . S
H1538 C1546 0.930 . S
H1539 C1547 0.930 . S
H1540 C1550 0.930 . S
H1541 C1551 0.930 . S
C1542 H1536 0.930 . S
C1542 C1543 1.355 . S
C1542 C1544 1.415 . S
C1543 C1542 1.355 . S
C1543 C1545 1.419 . S
C1544 C1542 1.415 . S
C1544 C1549 1.425 . S
C1544 C1551 1.409 . S
C1545 H1537 0.930 . S
C1545 C1543 1.419 . S
C1545 C1546 1.362 . S
C1546 H1538 0.930 . S
C1546 C1545 1.362 . S
C1546 C1549 1.409 . S
C1547 H1539 0.930 . S
C1547 C1548 1.355 . S
C1547 C1549 1.415 . S
C1548 C1547 1.355 . S
C1548 C1550 1.419 . S
C1549 C1544 1.425 . S
C1549 C1546 1.409 . S
C1549 C1547 1.415 . S
C1550 H1540 0.930 . S
C1550 C1548 1.419 . S
C1550 C1551 1.362 . S
C1551 H1541 0.930 . S
C1551 C1544 1.409 . S
C1551 C1550 1.362 . S
H1552 C1558 0.930 . S
H1553 C1561 0.930 . S
H1554 C1562 0.930 1_565 S
H1555 C1563 0.930 . S
H1556 C1566 0.930 . S
H1557 C1567 0.930 . S
C1558 H1552 0.930 . S
C1558 C1559 1.355 . S
C1558 C1560 1.415 . S
C1559 C1558 1.355 . S
C1559 C1561 1.419 . S
C1560 C1558 1.415 . S
C1560 C1565 1.425 . S
C1560 C1567 1.409 . S
C1561 H1553 0.930 . S
C1561 C1559 1.419 . S
C1561 C1562 1.362 . S
C1562 H1554 0.930 1_545 S
C1562 C1561 1.362 . S
C1562 C1565 1.409 . S
C1563 H1555 0.930 . S
C1563 C1564 1.355 . S
C1563 C1565 1.415 . S
C1564 C1563 1.355 . S
C1564 C1566 1.419 . S
C1565 C1560 1.425 . S
C1565 C1562 1.409 . S
C1565 C1563 1.415 . S
C1566 H1556 0.930 . S
C1566 C1564 1.419 . S
C1566 C1567 1.362 . S
C1567 H1557 0.930 . S
C1567 C1560 1.409 . S
C1567 C1566 1.362 . S
H1568 C1574 0.930 . S
H1569 C1577 0.930 . S
H1570 C1578 0.930 . S
H1571 C1579 0.930 . S
H1572 C1582 0.930 . S
H1573 C1583 0.930 . S
C1574 H1568 0.930 . S
C1574 C1575 1.355 . S
C1574 C1576 1.415 . S
C1575 C1574 1.355 . S
C1575 C1577 1.419 . S
C1576 C1574 1.415 . S
C1576 C1581 1.425 . S
C1576 C1583 1.409 . S
C1577 H1569 0.930 . S
C1577 C1575 1.419 . S
C1577 C1578 1.362 . S
C1578 H1570 0.930 . S
C1578 C1577 1.362 . S
C1578 C1581 1.409 . S
C1579 H1571 0.930 . S
C1579 C1580 1.355 . S
C1579 C1581 1.415 . S
C1580 C1579 1.355 . S
C1580 C1582 1.419 . S
C1581 C1576 1.425 . S
C1581 C1578 1.409 . S
C1581 C1579 1.415 . S
C1582 H1572 0.930 . S
C1582 C1580 1.419 . S
C1582 C1583 1.362 . S
C1583 H1573 0.930 . S
C1583 C1576 1.409 . S
C1583 C1582 1.362 . S
H1584 C1590 0.930 . S
H1585 C1593 0.935 . S
H1586 C1594 0.930 1_565 S
H1587 C1595 0.930 1_565 S
H1588 C1598 0.930 . S
H1589 C1599 0.930 . S
C1590 H1584 0.930 . S
C1590 C1591 1.355 . S
C1590 C1592 1.415 . S
C1591 C1590 1.355 . S
C1591 C1593 1.419 . S
C1592 C1590 1.415 . S
C1592 C1597 1.425 . S
C1592 C1599 1.409 . S
C1593 H1585 0.935 . S
C1593 C1591 1.419 . S
C1593 C1594 1.362 . S
C1594 H1586 0.930 1_545 S
C1594 C1593 1.362 . S
C1594 C1597 1.409 . S
C1595 H1587 0.930 1_545 S
C1595 C1596 1.355 . S
C1595 C1597 1.415 . S
C1596 C1595 1.355 . S
C1596 C1598 1.419 . S
C1597 C1592 1.425 . S
C1597 C1594 1.409 . S
C1597 C1595 1.415 . S
C1598 H1588 0.930 . S
C1598 C1596 1.419 . S
C1598 C1599 1.362 . S
C1599 H1589 0.930 . S
C1599 C1592 1.409 . S
C1599 C1598 1.362 . S
H1600 C1606 0.930 . S
H1601 C1609 0.930 . S
H1602 C1610 0.930 . S
H1603 C1611 0.930 . S
H1604 C1614 0.930 . S
H1605 C1615 0.930 . S
C1606 H1600 0.930 . S
C1606 C1607 1.355 . S
C1606 C1608 1.415 . S
C1607 C1606 1.355 . S
C1607 C1609 1.419 . S
C1608 C1606 1.415 . S
C1608 C1613 1.425 . S
C1608 C1615 1.409 . S
C1609 H1601 0.930 . S
C1609 C1607 1.419 . S
C1609 C1610 1.362 . S
C1610 H1602 0.930 . S
C1610 C1609 1.362 . S
C1610 C1613 1.409 . S
C1611 H1603 0.930 . S
C1611 C1612 1.355 . S
C1611 C1613 1.415 . S
C1612 C1611 1.355 . S
C1612 C1614 1.419 . S
C1613 C1608 1.425 . S
C1613 C1610 1.409 . S
C1613 C1611 1.415 . S
C1614 H1604 0.930 . S
C1614 C1612 1.419 . S
C1614 C1615 1.362 . S
C1615 H1605 0.930 . S
C1615 C1608 1.409 . S
C1615 C1614 1.362 . S
H1616 C1622 0.930 . S
H1617 C1625 0.930 . S
H1618 C1626 0.930 . S
H1619 C1627 0.930 . S
H1620 C1630 0.930 . S
H1621 C1631 0.930 . S
C1622 H1616 0.930 . S
C1622 C1623 1.355 . S
C1622 C1624 1.415 . S
C1623 C1622 1.355 . S
C1623 C1625 1.419 . S
C1624 C1622 1.415 . S
C1624 C1629 1.425 . S
C1624 C1631 1.409 . S
C1625 H1617 0.930 . S
C1625 C1623 1.419 . S
C1625 C1626 1.362 . S
C1626 H1618 0.930 . S
C1626 C1625 1.362 . S
C1626 C1629 1.409 . S
C1627 H1619 0.930 . S
C1627 C1628 1.355 . S
C1627 C1629 1.415 . S
C1628 C1627 1.355 . S
C1628 C1630 1.419 . S
C1629 C1624 1.425 . S
C1629 C1626 1.409 . S
C1629 C1627 1.415 . S
C1630 H1620 0.930 . S
C1630 C1628 1.419 . S
C1630 C1631 1.362 . S
C1631 H1621 0.930 . S
C1631 C1624 1.409 . S
C1631 C1630 1.362 . S
H1632 C1638 0.930 . S
H1633 C1641 0.930 . S
H1634 C1642 0.930 . S
H1635 C1643 0.930 . S
H1636 C1646 0.930 . S
H1637 C1647 0.930 . S
C1638 H1632 0.930 . S
C1638 C1639 1.355 . S
C1638 C1640 1.415 . S
C1639 C1638 1.355 . S
C1639 C1641 1.419 . S
C1640 C1638 1.415 . S
C1640 C1645 1.425 . S
C1640 C1647 1.409 . S
C1641 H1633 0.930 . S
C1641 C1639 1.419 . S
C1641 C1642 1.362 . S
C1642 H1634 0.930 . S
C1642 C1641 1.362 . S
C1642 C1645 1.409 . S
C1643 H1635 0.930 . S
C1643 C1644 1.355 . S
C1643 C1645 1.415 . S
C1644 C1643 1.355 . S
C1644 C1646 1.419 . S
C1645 C1640 1.425 . S
C1645 C1642 1.409 . S
C1645 C1643 1.415 . S
C1646 H1636 0.930 . S
C1646 C1644 1.419 . S
C1646 C1647 1.362 . S
C1647 H1637 0.930 . S
C1647 C1640 1.409 . S
C1647 C1646 1.362 . S
H1648 C1654 0.930 . S
H1649 C1657 0.930 . S
H1650 C1658 0.930 . S
H1651 C1659 0.930 . S
H1652 C1662 0.930 . S
H1653 C1663 0.930 . S
C1654 H1648 0.930 . S
C1654 C1655 1.355 . S
C1654 C1656 1.415 . S
C1655 C1654 1.355 . S
C1655 C1657 1.419 . S
C1656 C1654 1.415 . S
C1656 C1661 1.425 . S
C1656 C1663 1.409 . S
C1657 H1649 0.930 . S
C1657 C1655 1.419 . S
C1657 C1658 1.362 . S
C1658 H1650 0.930 . S
C1658 C1657 1.362 . S
C1658 C1661 1.409 . S
C1659 H1651 0.930 . S
C1659 C1660 1.355 . S
C1659 C1661 1.415 . S
C1660 C1659 1.355 . S
C1660 C1662 1.419 . S
C1661 C1656 1.425 . S
C1661 C1658 1.409 . S
C1661 C1659 1.415 . S
C1662 H1652 0.930 . S
C1662 C1660 1.419 . S
C1662 C1663 1.362 . S
C1663 H1653 0.930 . S
C1663 C1656 1.409 . S
C1663 C1662 1.362 . S
H1664 C1670 0.930 . S
H1665 C1673 0.930 . S
H1666 C1674 0.930 . S
H1667 C1675 0.930 . S
H1668 C1678 0.930 . S
H1669 C1679 0.930 . S
C1670 H1664 0.930 . S
C1670 C1671 1.355 . S
C1670 C1672 1.415 . S
C1671 C1670 1.355 . S
C1671 C1673 1.419 . S
C1672 C1670 1.415 . S
C1672 C1677 1.425 . S
C1672 C1679 1.409 . S
C1673 H1665 0.930 . S
C1673 C1671 1.419 . S
C1673 C1674 1.362 . S
C1674 H1666 0.930 . S
C1674 C1673 1.362 . S
C1674 C1677 1.409 . S
C1675 H1667 0.930 . S
C1675 C1676 1.355 . S
C1675 C1677 1.415 . S
C1676 C1675 1.355 . S
C1676 C1678 1.419 . S
C1677 C1672 1.425 . S
C1677 C1674 1.409 . S
C1677 C1675 1.415 . S
C1678 H1668 0.930 . S
C1678 C1676 1.419 . S
C1678 C1679 1.362 . S
C1679 H1669 0.930 . S
C1679 C1672 1.409 . S
C1679 C1678 1.362 . S
H1680 C1686 0.930 . S
H1681 C1689 0.930 . S
H1682 C1690 0.930 . S
H1683 C1691 0.930 . S
H1684 C1694 0.930 . S
H1685 C1695 0.930 . S
C1686 H1680 0.930 . S
C1686 C1687 1.355 . S
C1686 C1688 1.415 . S
C1687 C1686 1.355 . S
C1687 C1689 1.419 . S
C1688 C1686 1.415 . S
C1688 C1693 1.425 . S
C1688 C1695 1.409 . S
C1689 H1681 0.930 . S
C1689 C1687 1.419 . S
C1689 C1690 1.362 . S
C1690 H1682 0.930 . S
C1690 C1689 1.362 . S
C1690 C1693 1.409 . S
C1691 H1683 0.930 . S
C1691 C1692 1.355 . S
C1691 C1693 1.415 . S
C1692 C1691 1.355 . S
C1692 C1694 1.419 . S
C1693 C1688 1.425 . S
C1693 C1690 1.409 . S
C1693 C1691 1.415 . S
C1694 H1684 0.930 . S
C1694 C1692 1.419 . S
C1694 C1695 1.362 . S
C1695 H1685 0.930 . S
C1695 C1688 1.409 . S
C1695 C1694 1.362 . S
H1696 C1702 0.930 . S
H1697 C1705 0.930 . S
H1698 C1706 0.930 . S
H1699 C1707 0.930 . S
H1700 C1710 0.930 . S
H1701 C1711 0.930 . S
C1702 H1696 0.930 . S
C1702 C1703 1.355 . S
C1702 C1704 1.415 . S
C1703 C1702 1.355 . S
C1703 C1705 1.419 . S
C1704 C1702 1.415 . S
C1704 C1709 1.425 . S
C1704 C1711 1.409 . S
C1705 H1697 0.930 . S
C1705 C1703 1.419 . S
C1705 C1706 1.362 . S
C1706 H1698 0.930 . S
C1706 C1705 1.362 . S
C1706 C1709 1.409 . S
C1707 H1699 0.930 . S
C1707 C1708 1.355 . S
C1707 C1709 1.415 . S
C1708 C1707 1.355 . S
C1708 C1710 1.419 . S
C1709 C1704 1.425 . S
C1709 C1706 1.409 . S
C1709 C1707 1.415 . S
C1710 H1700 0.930 . S
C1710 C1708 1.419 . S
C1710 C1711 1.362 . S
C1711 H1701 0.930 . S
C1711 C1704 1.409 . S
C1711 C1710 1.362 . S
H1712 C1718 0.930 . S
H1713 C1721 0.930 . S
H1714 C1722 0.930 . S
H1715 C1723 0.930 . S
H1716 C1726 0.930 . S
H1717 C1727 0.930 . S
C1718 H1712 0.930 . S
C1718 C1719 1.355 . S
C1718 C1720 1.415 . S
C1719 C1718 1.355 . S
C1719 C1721 1.419 . S
C1720 C1718 1.415 . S
C1720 C1725 1.425 . S
C1720 C1727 1.409 . S
C1721 H1713 0.930 . S
C1721 C1719 1.419 . S
C1721 C1722 1.362 . S
C1722 H1714 0.930 . S
C1722 C1721 1.362 . S
C1722 C1725 1.409 . S
C1723 H1715 0.930 . S
C1723 C1724 1.355 . S
C1723 C1725 1.415 . S
C1724 C1723 1.355 . S
C1724 C1726 1.419 . S
C1725 C1720 1.425 . S
C1725 C1722 1.409 . S
C1725 C1723 1.415 . S
C1726 H1716 0.930 . S
C1726 C1724 1.419 . S
C1726 C1727 1.362 . S
C1727 H1717 0.930 . S
C1727 C1720 1.409 . S
C1727 C1726 1.362 . S
H1728 C1734 0.930 . S
H1729 C1737 0.930 . S
H1730 C1738 0.930 . S
H1731 C1739 0.930 . S
H1732 C1742 0.930 . S
H1733 C1743 0.930 . S
C1734 H1728 0.930 . S
C1734 C1735 1.355 . S
C1734 C1736 1.415 . S
C1735 C1734 1.355 . S
C1735 C1737 1.419 . S
C1736 C1734 1.415 . S
C1736 C1741 1.425 . S
C1736 C1743 1.409 . S
C1737 H1729 0.930 . S
C1737 C1735 1.419 . S
C1737 C1738 1.362 . S
C1738 H1730 0.930 . S
C1738 C1737 1.362 . S
C1738 C1741 1.409 . S
C1739 H1731 0.930 . S
C1739 C1740 1.355 . S
C1739 C1741 1.415 . S
C1740 C1739 1.355 . S
C1740 C1742 1.419 . S
C1741 C1736 1.425 . S
C1741 C1738 1.409 . S
C1741 C1739 1.415 . S
C1742 H1732 0.930 . S
C1742 C1740 1.419 . S
C1742 C1743 1.362 . S
C1743 H1733 0.930 . S
C1743 C1736 1.409 . S
C1743 C1742 1.362 . S
H1744 C1750 0.930 . S
H1745 C1753 0.930 . S
H1746 C1754 0.930 . S
H1747 C1755 0.930 . S
H1748 C1758 0.930 . S
H1749 C1759 0.930 . S
C1750 H1744 0.930 . S
C1750 C1751 1.355 . S
C1750 C1752 1.415 . S
C1751 C1750 1.355 . S
C1751 C1753 1.419 . S
C1752 C1750 1.415 . S
C1752 C1757 1.425 . S
C1752 C1759 1.409 . S
C1753 H1745 0.930 . S
C1753 C1751 1.419 . S
C1753 C1754 1.362 . S
C1754 H1746 0.930 . S
C1754 C1753 1.362 . S
C1754 C1757 1.409 . S
C1755 H1747 0.930 . S
C1755 C1756 1.355 . S
C1755 C1757 1.415 . S
C1756 C1755 1.355 . S
C1756 C1758 1.419 . S
C1757 C1752 1.425 . S
C1757 C1754 1.409 . S
C1757 C1755 1.415 . S
C1758 H1748 0.930 . S
C1758 C1756 1.419 . S
C1758 C1759 1.362 . S
C1759 H1749 0.930 . S
C1759 C1752 1.409 . S
C1759 C1758 1.362 . S
H1760 C1766 0.930 . S
H1761 C1769 0.930 . S
H1762 C1770 0.930 . S
H1763 C1771 0.930 . S
H1764 C1774 0.930 . S
H1765 C1775 0.930 . S
C1766 H1760 0.930 . S
C1766 C1767 1.355 . S
C1766 C1768 1.415 . S
C1767 C1766 1.355 . S
C1767 C1769 1.419 . S
C1768 C1766 1.415 . S
C1768 C1773 1.425 . S
C1768 C1775 1.409 . S
C1769 H1761 0.930 . S
C1769 C1767 1.419 . S
C1769 C1770 1.362 . S
C1770 H1762 0.930 . S
C1770 C1769 1.362 . S
C1770 C1773 1.409 . S
C1771 H1763 0.930 . S
C1771 C1772 1.355 . S
C1771 C1773 1.415 . S
C1772 C1771 1.355 . S
C1772 C1774 1.419 . S
C1773 C1768 1.425 . S
C1773 C1770 1.409 . S
C1773 C1771 1.415 . S
C1774 H1764 0.930 . S
C1774 C1772 1.419 . S
C1774 C1775 1.362 . S
C1775 H1765 0.930 . S
C1775 C1768 1.409 . S
C1775 C1774 1.362 . S
H1776 C1782 0.930 1_656 S
H1777 C1785 0.930 . S
H1778 C1786 0.930 . S
H1779 C1787 0.930 . S
H1780 C1790 0.931 . S
H1781 C1791 0.930 . S
C1782 H1776 0.930 1_454 S
C1782 C1783 1.355 . S
C1782 C1784 1.415 . S
C1783 C1782 1.355 . S
C1783 C1785 1.419 . S
C1784 C1782 1.415 . S
C1784 C1789 1.425 . S
C1784 C1791 1.409 1_455 S
C1785 H1777 0.930 . S
C1785 C1783 1.419 . S
C1785 C1786 1.362 . S
C1786 H1778 0.930 . S
C1786 C1785 1.362 . S
C1786 C1789 1.409 . S
C1787 H1779 0.930 . S
C1787 C1788 1.355 . S
C1787 C1789 1.415 . S
C1788 C1787 1.355 . S
C1788 C1790 1.418 1_455 S
C1789 C1784 1.425 . S
C1789 C1786 1.409 . S
C1789 C1787 1.415 . S
C1790 H1780 0.931 . S
C1790 C1788 1.418 1_655 S
C1790 C1791 1.362 . S
C1791 H1781 0.930 . S
C1791 C1784 1.409 1_655 S
C1791 C1790 1.362 . S
H1792 C1798 0.930 . S
H1793 C1801 0.930 . S
H1794 C1802 0.930 . S
H1795 C1803 0.930 . S
H1796 C1806 0.930 . S
H1797 C1807 0.930 . S
C1798 H1792 0.930 . S
C1798 C1799 1.355 1_655 S
C1798 C1800 1.415 . S
C1799 C1798 1.355 1_455 S
C1799 C1801 1.419 . S
C1800 C1798 1.415 . S
C1800 C1805 1.425 . S
C1800 C1807 1.409 . S
C1801 H1793 0.930 . S
C1801 C1799 1.419 . S
C1801 C1802 1.362 1_455 S
C1802 H1794 0.930 . S
C1802 C1801 1.362 1_655 S
C1802 C1805 1.409 . S
C1803 H1795 0.930 . S
C1803 C1804 1.355 . S
C1803 C1805 1.415 . S
C1804 C1803 1.355 . S
C1804 C1806 1.419 . S
C1805 C1800 1.425 . S
C1805 C1802 1.409 . S
C1805 C1803 1.415 . S
C1806 H1796 0.930 . S
C1806 C1804 1.419 . S
C1806 C1807 1.362 . S
C1807 H1797 0.930 . S
C1807 C1800 1.409 . S
C1807 C1806 1.362 . S
H1808 C1814 0.930 . S
H1809 C1817 0.930 . S
H1810 C1818 0.930 . S
H1811 C1819 0.930 . S
H1812 C1822 0.930 . S
H1813 C1823 0.930 . S
C1814 H1808 0.930 . S
C1814 C1815 1.355 . S
C1814 C1816 1.415 . S
C1815 C1814 1.355 . S
C1815 C1817 1.419 . S
C1816 C1814 1.415 . S
C1816 C1821 1.425 . S
C1816 C1823 1.409 . S
C1817 H1809 0.930 . S
C1817 C1815 1.419 . S
C1817 C1818 1.362 . S
C1818 H1810 0.930 . S
C1818 C1817 1.362 . S
C1818 C1821 1.409 . S
C1819 H1811 0.930 . S
C1819 C1820 1.355 . S
C1819 C1821 1.415 . S
C1820 C1819 1.355 . S
C1820 C1822 1.419 . S
C1821 C1816 1.425 . S
C1821 C1818 1.409 . S
C1821 C1819 1.415 . S
C1822 H1812 0.930 . S
C1822 C1820 1.419 . S
C1822 C1823 1.362 . S
C1823 H1813 0.930 . S
C1823 C1816 1.409 . S
C1823 C1822 1.362 . S
H1824 C1830 0.930 . S
H1825 C1833 0.930 . S
H1826 C1834 0.930 . S
H1827 C1835 0.930 . S
H1828 C1838 0.930 . S
H1829 C1839 0.930 . S
C1830 H1824 0.930 . S
C1830 C1831 1.355 . S
C1830 C1832 1.415 . S
C1831 C1830 1.355 . S
C1831 C1833 1.419 . S
C1832 C1830 1.415 . S
C1832 C1837 1.425 . S
C1832 C1839 1.409 . S
C1833 H1825 0.930 . S
C1833 C1831 1.419 . S
C1833 C1834 1.362 . S
C1834 H1826 0.930 . S
C1834 C1833 1.362 . S
C1834 C1837 1.409 . S
C1835 H1827 0.930 . S
C1835 C1836 1.355 . S
C1835 C1837 1.415 . S
C1836 C1835 1.355 . S
C1836 C1838 1.419 . S
C1837 C1832 1.425 . S
C1837 C1834 1.409 . S
C1837 C1835 1.415 . S
C1838 H1828 0.930 . S
C1838 C1836 1.419 . S
C1838 C1839 1.362 . S
C1839 H1829 0.930 . S
C1839 C1832 1.409 . S
C1839 C1838 1.362 . S
H1840 C1846 0.930 . S
H1841 C1849 0.930 . S
H1842 C1850 0.930 . S
H1843 C1851 0.930 . S
H1844 C1854 0.930 . S
H1845 C1855 0.930 . S
C1846 H1840 0.930 . S
C1846 C1847 1.355 . S
C1846 C1848 1.415 . S
C1847 C1846 1.355 . S
C1847 C1849 1.419 . S
C1848 C1846 1.415 . S
C1848 C1853 1.425 . S
C1848 C1855 1.409 . S
C1849 H1841 0.930 . S
C1849 C1847 1.419 . S
C1849 C1850 1.362 . S
C1850 H1842 0.930 . S
C1850 C1849 1.362 . S
C1850 C1853 1.409 . S
C1851 H1843 0.930 . S
C1851 C1852 1.355 . S
C1851 C1853 1.415 . S
C1852 C1851 1.355 . S
C1852 C1854 1.419 . S
C1853 C1848 1.425 . S
C1853 C1850 1.409 . S
C1853 C1851 1.415 . S
C1854 H1844 0.930 . S
C1854 C1852 1.419 . S
C1854 C1855 1.362 . S
C1855 H1845 0.930 . S
C1855 C1848 1.409 . S
C1855 C1854 1.362 . S
H1856 C1862 0.930 . S
H1857 C1865 0.930 . S
H1858 C1866 0.930 . S
H1859 C1867 0.930 . S
H1860 C1870 0.930 . S
H1861 C1871 0.930 . S
C1862 H1856 0.930 . S
C1862 C1863 1.355 . S
C1862 C1864 1.415 . S
C1863 C1862 1.355 . S
C1863 C1865 1.419 . S
C1864 C1862 1.415 . S
C1864 C1869 1.425 . S
C1864 C1871 1.409 . S
C1865 H1857 0.930 . S
C1865 C1863 1.419 . S
C1865 C1866 1.362 . S
C1866 H1858 0.930 . S
C1866 C1865 1.362 . S
C1866 C1869 1.409 . S
C1867 H1859 0.930 . S
C1867 C1868 1.355 . S
C1867 C1869 1.415 . S
C1868 C1867 1.355 . S
C1868 C1870 1.419 . S
C1869 C1864 1.425 . S
C1869 C1866 1.409 . S
C1869 C1867 1.415 . S
C1870 H1860 0.930 . S
C1870 C1868 1.419 . S
C1870 C1871 1.362 . S
C1871 H1861 0.930 . S
C1871 C1864 1.409 . S
C1871 C1870 1.362 . S
H1872 C1878 0.930 . S
H1873 C1881 0.930 . S
H1874 C1882 0.930 . S
H1875 C1883 0.930 . S
H1876 C1886 0.930 . S
H1877 C1887 0.930 . S
C1878 H1872 0.930 . S
C1878 C1879 1.355 . S
C1878 C1880 1.415 . S
C1879 C1878 1.355 . S
C1879 C1881 1.419 . S
C1880 C1878 1.415 . S
C1880 C1885 1.425 . S
C1880 C1887 1.409 . S
C1881 H1873 0.930 . S
C1881 C1879 1.419 . S
C1881 C1882 1.362 . S
C1882 H1874 0.930 . S
C1882 C1881 1.362 . S
C1882 C1885 1.409 . S
C1883 H1875 0.930 . S
C1883 C1884 1.355 . S
C1883 C1885 1.415 . S
C1884 C1883 1.355 . S
C1884 C1886 1.419 . S
C1885 C1880 1.425 . S
C1885 C1882 1.409 . S
C1885 C1883 1.415 . S
C1886 H1876 0.930 . S
C1886 C1884 1.419 . S
C1886 C1887 1.362 . S
C1887 H1877 0.930 . S
C1887 C1880 1.409 . S
C1887 C1886 1.362 . S
H1888 C1894 0.930 . S
H1889 C1897 0.930 . S
H1890 C1898 0.930 . S
H1891 C1899 0.930 . S
H1892 C1902 0.930 . S
H1893 C1903 0.930 . S
C1894 H1888 0.930 . S
C1894 C1895 1.355 . S
C1894 C1896 1.415 . S
C1895 C1894 1.355 . S
C1895 C1897 1.419 . S
C1896 C1894 1.415 . S
C1896 C1901 1.425 . S
C1896 C1903 1.409 . S
C1897 H1889 0.930 . S
C1897 C1895 1.419 . S
C1897 C1898 1.362 . S
C1898 H1890 0.930 . S
C1898 C1897 1.362 . S
C1898 C1901 1.409 . S
C1899 H1891 0.930 . S
C1899 C1900 1.355 . S
C1899 C1901 1.415 1_556 S
C1900 C1899 1.355 . S
C1900 C1902 1.419 1_556 S
C1901 C1896 1.425 . S
C1901 C1898 1.409 . S
C1901 C1899 1.415 1_554 S
C1902 H1892 0.930 . S
C1902 C1900 1.419 1_554 S
C1902 C1903 1.362 . S
C1903 H1893 0.930 . S
C1903 C1896 1.409 . S
C1903 C1902 1.362 . S
H1904 C1910 0.930 . S
H1905 C1913 0.930 . S
H1906 C1914 0.930 . S
H1907 C1915 0.930 . S
H1908 C1918 0.930 . S
H1909 C1919 0.930 . S
C1910 H1904 0.930 . S
C1910 C1911 1.355 . S
C1910 C1912 1.415 . S
C1911 C1910 1.355 . S
C1911 C1913 1.419 . S
C1912 C1910 1.415 . S
C1912 C1917 1.425 . S
C1912 C1919 1.409 . S
C1913 H1905 0.930 . S
C1913 C1911 1.419 . S
C1913 C1914 1.362 . S
C1914 H1906 0.930 . S
C1914 C1913 1.362 . S
C1914 C1917 1.409 . S
C1915 H1907 0.930 . S
C1915 C1916 1.355 . S
C1915 C1917 1.415 . S
C1916 C1915 1.355 . S
C1916 C1918 1.419 . S
C1917 C1912 1.425 . S
C1917 C1914 1.409 . S
C1917 C1915 1.415 . S
C1918 H1908 0.930 . S
C1918 C1916 1.419 . S
C1918 C1919 1.362 . S
C1919 H1909 0.930 . S
C1919 C1912 1.409 . S
C1919 C1918 1.362 . S
H1920 C1926 0.930 . S
H1921 C1929 0.930 . S
H1922 C1930 0.930 . S
H1923 C1931 0.930 . S
H1924 C1934 0.930 . S
H1925 C1935 0.930 . S
C1926 H1920 0.930 . S
C1926 C1927 1.355 . S
C1926 C1928 1.415 . S
C1927 C1926 1.355 . S
C1927 C1929 1.419 . S
C1928 C1926 1.415 . S
C1928 C1933 1.425 . S
C1928 C1935 1.409 . S
C1929 H1921 0.930 . S
C1929 C1927 1.419 . S
C1929 C1930 1.362 . S
C1930 H1922 0.930 . S
C1930 C1929 1.362 . S
C1930 C1933 1.409 . S
C1931 H1923 0.930 . S
C1931 C1932 1.355 . S
C1931 C1933 1.415 . S
C1932 C1931 1.355 . S
C1932 C1934 1.419 . S
C1933 C1928 1.425 . S
C1933 C1930 1.409 . S
C1933 C1931 1.415 . S
C1934 H1924 0.930 . S
C1934 C1932 1.419 . S
C1934 C1935 1.362 . S
C1935 H1925 0.930 . S
C1935 C1928 1.409 . S
C1935 C1934 1.362 . S
H1936 C1942 0.930 . S
H1937 C1945 0.930 . S
H1938 C1946 0.930 . S
H1939 C1947 0.930 . S
H1940 C1950 0.930 . S
H1941 C1951 0.930 . S
C1942 H1936 0.930 . S
C1942 C1943 1.355 . S
C1942 C1944 1.415 . S
C1943 C1942 1.355 . S
C1943 C1945 1.419 . S
C1944 C1942 1.415 . S
C1944 C1949 1.425 . S
C1944 C1951 1.409 . S
C1945 H1937 0.930 . S
C1945 C1943 1.419 . S
C1945 C1946 1.362 . S
C1946 H1938 0.930 . S
C1946 C1945 1.362 . S
C1946 C1949 1.409 . S
C1947 H1939 0.930 . S
C1947 C1948 1.355 . S
C1947 C1949 1.415 . S
C1948 C1947 1.355 . S
C1948 C1950 1.419 . S
C1949 C1944 1.425 . S
C1949 C1946 1.409 . S
C1949 C1947 1.415 . S
C1950 H1940 0.930 . S
C1950 C1948 1.419 . S
C1950 C1951 1.362 . S
C1951 H1941 0.930 . S
C1951 C1944 1.409 . S
C1951 C1950 1.362 . S
H1952 C1958 0.930 . S
H1953 C1961 0.930 . S
H1954 C1962 0.930 . S
H1955 C1963 0.930 . S
H1956 C1966 0.930 . S
H1957 C1967 0.930 . S
C1958 H1952 0.930 . S
C1958 C1959 1.355 . S
C1958 C1960 1.415 . S
C1959 C1958 1.355 . S
C1959 C1961 1.419 . S
C1960 C1958 1.415 . S
C1960 C1965 1.425 . S
C1960 C1967 1.409 . S
C1961 H1953 0.930 . S
C1961 C1959 1.419 . S
C1961 C1962 1.362 . S
C1962 H1954 0.930 . S
C1962 C1961 1.362 . S
C1962 C1965 1.409 . S
C1963 H1955 0.930 . S
C1963 C1964 1.355 . S
C1963 C1965 1.415 . S
C1964 C1963 1.355 . S
C1964 C1966 1.419 . S
C1965 C1960 1.425 . S
C1965 C1962 1.409 . S
C1965 C1963 1.415 . S
C1966 H1956 0.930 . S
C1966 C1964 1.419 . S
C1966 C1967 1.362 . S
C1967 H1957 0.930 . S
C1967 C1960 1.409 . S
C1967 C1966 1.362 . S
H1968 C1974 0.930 . S
H1969 C1977 0.930 . S
H1970 C1978 0.930 . S
H1971 C1979 0.930 . S
H1972 C1982 0.930 . S
H1973 C1983 0.930 . S
C1974 H1968 0.930 . S
C1974 C1975 1.355 . S
C1974 C1976 1.415 . S
C1975 C1974 1.355 . S
C1975 C1977 1.419 . S
C1976 C1974 1.415 . S
C1976 C1981 1.425 . S
C1976 C1983 1.409 . S
C1977 H1969 0.930 . S
C1977 C1975 1.419 . S
C1977 C1978 1.362 . S
C1978 H1970 0.930 . S
C1978 C1977 1.362 . S
C1978 C1981 1.409 . S
C1979 H1971 0.930 . S
C1979 C1980 1.355 . S
C1979 C1981 1.415 . S
C1980 C1979 1.355 . S
C1980 C1982 1.419 . S
C1981 C1976 1.425 . S
C1981 C1978 1.409 . S
C1981 C1979 1.415 . S
C1982 H1972 0.930 . S
C1982 C1980 1.419 . S
C1982 C1983 1.362 . S
C1983 H1973 0.930 . S
C1983 C1976 1.409 . S
C1983 C1982 1.362 . S
H1984 C1990 0.930 . S
H1985 C1993 0.930 . S
H1986 C1994 0.930 . S
H1987 C1995 0.930 . S
H1988 C1998 0.930 . S
H1989 C1999 0.930 . S
C1990 H1984 0.930 . S
C1990 C1991 1.355 . S
C1990 C1992 1.415 . S
C1991 C1990 1.355 . S
C1991 C1993 1.419 . S
C1992 C1990 1.415 . S
C1992 C1997 1.425 . S
C1992 C1999 1.409 . S
C1993 H1985 0.930 . S
C1993 C1991 1.419 . S
C1993 C1994 1.362 . S
C1994 H1986 0.930 . S
C1994 C1993 1.362 . S
C1994 C1997 1.409 . S
C1995 H1987 0.930 . S
C1995 C1996 1.355 . S
C1995 C1997 1.415 . S
C1996 C1995 1.355 . S
C1996 C1998 1.419 . S
C1997 C1992 1.425 . S
C1997 C1994 1.409 . S
C1997 C1995 1.415 . S
C1998 H1988 0.930 . S
C1998 C1996 1.419 . S
C1998 C1999 1.362 . S
C1999 H1989 0.930 . S
C1999 C1992 1.409 . S
C1999 C1998 1.362 . S
H2000 C2006 0.930 . S
H2001 C2009 0.930 . S
H2002 C2010 0.930 . S
H2003 C2011 0.930 . S
H2004 C2014 0.930 . S
H2005 C2015 0.930 . S
C2006 H2000 0.930 . S
C2006 C2007 1.355 . S
C2006 C2008 1.415 . S
C2007 C2006 1.355 . S
C2007 C2009 1.419 . S
C2008 C2006 1.415 . S
C2008 C2013 1.425 . S
C2008 C2015 1.409 . S
C2009 H2001 0.930 . S
C2009 C2007 1.419 . S
C2009 C2010 1.362 . S
C2010 H2002 0.930 . S
C2010 C2009 1.362 . S
C2010 C2013 1.409 . S
C2011 H2003 0.930 . S
C2011 C2012 1.355 . S
C2011 C2013 1.415 . S
C2012 C2011 1.355 . S
C2012 C2014 1.419 . S
C2013 C2008 1.425 . S
C2013 C2010 1.409 . S
C2013 C2011 1.415 . S
C2014 H2004 0.930 . S
C2014 C2012 1.419 . S
C2014 C2015 1.362 . S
C2015 H2005 0.930 . S
C2015 C2008 1.409 . S
C2015 C2014 1.362 . S
H2016 C2022 0.930 . S
H2017 C2025 0.930 . S
H2018 C2026 0.930 . S
H2019 C2027 0.930 . S
H2020 C2030 0.930 . S
H2021 C2031 0.930 . S
C2022 H2016 0.930 . S
C2022 C2023 1.355 . S
C2022 C2024 1.415 . S
C2023 C2022 1.355 . S
C2023 C2025 1.419 . S
C2024 C2022 1.415 . S
C2024 C2029 1.425 . S
C2024 C2031 1.409 . S
C2025 H2017 0.930 . S
C2025 C2023 1.419 . S
C2025 C2026 1.362 . S
C2026 H2018 0.930 . S
C2026 C2025 1.362 . S
C2026 C2029 1.409 . S
C2027 H2019 0.930 . S
C2027 C2028 1.355 . S
C2027 C2029 1.415 . S
C2028 C2027 1.355 . S
C2028 C2030 1.419 . S
C2029 C2024 1.425 . S
C2029 C2026 1.409 . S
C2029 C2027 1.415 . S
C2030 H2020 0.930 . S
C2030 C2028 1.419 . S
C2030 C2031 1.362 . S
C2031 H2021 0.930 . S
C2031 C2024 1.409 . S
C2031 C2030 1.362 . S
H2032 C2038 0.930 . S
H2033 C2041 0.930 . S
H2034 C2042 0.930 . S
H2035 C2043 0.930 . S
H2036 C2046 0.930 . S
H2037 C2047 0.930 . S
C2038 H2032 0.930 . S
C2038 C2039 1.355 . S
C2038 C2040 1.415 . S
C2039 C2038 1.355 . S
C2039 C2041 1.419 . S
C2040 C2038 1.415 . S
C2040 C2045 1.425 . S
C2040 C2047 1.409 . S
C2041 H2033 0.930 . S
C2041 C2039 1.419 . S
C2041 C2042 1.362 . S
C2042 H2034 0.930 . S
C2042 C2041 1.362 . S
C2042 C2045 1.409 . S
C2043 H2035 0.930 . S
C2043 C2044 1.355 . S
C2043 C2045 1.415 . S
C2044 C2043 1.355 . S
C2044 C2046 1.419 . S
C2045 C2040 1.425 . S
C2045 C2042 1.409 . S
C2045 C2043 1.415 . S
C2046 H2036 0.930 . S
C2046 C2044 1.419 . S
C2046 C2047 1.362 . S
C2047 H2037 0.930 . S
C2047 C2040 1.409 . S
C2047 C2046 1.362 . S
H2048 C2054 0.930 . S
H2049 C2057 0.930 . S
H2050 C2058 0.930 . S
H2051 C2059 0.930 1_556 S
H2052 C2062 0.930 . S
H2053 C2063 0.930 . S
C2054 H2048 0.930 . S
C2054 C2055 1.355 . S
C2054 C2056 1.415 . S
C2055 C2054 1.355 . S
C2055 C2057 1.419 1_554 S
C2056 C2054 1.415 . S
C2056 C2061 1.425 . S
C2056 C2063 1.409 . S
C2057 H2049 0.930 . S
C2057 C2055 1.419 1_556 S
C2057 C2058 1.362 . S
C2058 H2050 0.930 . S
C2058 C2057 1.362 . S
C2058 C2061 1.409 1_556 S
C2059 H2051 0.930 1_554 S
C2059 C2060 1.355 . S
C2059 C2061 1.415 . S
C2060 C2059 1.355 . S
C2060 C2062 1.419 . S
C2061 C2056 1.425 . S
C2061 C2058 1.409 1_554 S
C2061 C2059 1.415 . S
C2062 H2052 0.930 . S
C2062 C2060 1.419 . S
C2062 C2063 1.362 . S
C2063 H2053 0.930 . S
C2063 C2056 1.409 . S
C2063 C2062 1.362 . S
H2064 C2070 0.930 . S
H2065 C2073 0.930 . S
H2066 C2074 0.930 . S
H2067 C2075 0.930 . S
H2068 C2078 0.930 . S
H2069 C2079 0.930 . S
C2070 H2064 0.930 . S
C2070 C2071 1.355 . S
C2070 C2072 1.415 . S
C2071 C2070 1.355 . S
C2071 C2073 1.419 . S
C2072 C2070 1.415 . S
C2072 C2077 1.425 . S
C2072 C2079 1.409 . S
C2073 H2065 0.930 . S
C2073 C2071 1.419 . S
C2073 C2074 1.362 . S
C2074 H2066 0.930 . S
C2074 C2073 1.362 . S
C2074 C2077 1.409 . S
C2075 H2067 0.930 . S
C2075 C2076 1.355 . S
C2075 C2077 1.415 . S
C2076 C2075 1.355 . S
C2076 C2078 1.419 . S
C2077 C2072 1.425 . S
C2077 C2074 1.409 . S
C2077 C2075 1.415 . S
C2078 H2068 0.930 . S
C2078 C2076 1.419 . S
C2078 C2079 1.362 . S
C2079 H2069 0.930 . S
C2079 C2072 1.409 . S
C2079 C2078 1.362 . S
H2080 C2086 0.930 . S
H2081 C2089 0.930 . S
H2082 C2090 0.930 . S
H2083 C2091 0.930 . S
H2084 C2094 0.930 . S
H2085 C2095 0.930 . S
C2086 H2080 0.930 . S
C2086 C2087 1.355 . S
C2086 C2088 1.415 . S
C2087 C2086 1.355 . S
C2087 C2089 1.419 . S
C2088 C2086 1.415 . S
C2088 C2093 1.425 . S
C2088 C2095 1.409 . S
C2089 H2081 0.930 . S
C2089 C2087 1.419 . S
C2089 C2090 1.362 . S
C2090 H2082 0.930 . S
C2090 C2089 1.362 . S
C2090 C2093 1.409 . S
C2091 H2083 0.930 . S
C2091 C2092 1.355 . S
C2091 C2093 1.415 . S
C2092 C2091 1.355 . S
C2092 C2094 1.419 . S
C2093 C2088 1.425 . S
C2093 C2090 1.409 . S
C2093 C2091 1.415 . S
C2094 H2084 0.930 . S
C2094 C2092 1.419 . S
C2094 C2095 1.362 . S
C2095 H2085 0.930 . S
C2095 C2088 1.409 . S
C2095 C2094 1.362 . S
H2096 C2102 0.930 . S
H2097 C2105 0.930 . S
H2098 C2106 0.930 . S
H2099 C2107 0.930 . S
H2100 C2110 0.930 . S
H2101 C2111 0.930 . S
C2102 H2096 0.930 . S
C2102 C2103 1.355 . S
C2102 C2104 1.415 . S
C2103 C2102 1.355 . S
C2103 C2105 1.419 . S
C2104 C2102 1.415 . S
C2104 C2109 1.425 . S
C2104 C2111 1.409 . S
C2105 H2097 0.930 . S
C2105 C2103 1.419 . S
C2105 C2106 1.362 . S
C2106 H2098 0.930 . S
C2106 C2105 1.362 . S
C2106 C2109 1.409 . S
C2107 H2099 0.930 . S
C2107 C2108 1.355 . S
C2107 C2109 1.415 . S
C2108 C2107 1.355 . S
C2108 C2110 1.419 . S
C2109 C2104 1.425 . S
C2109 C2106 1.409 . S
C2109 C2107 1.415 . S
C2110 H2100 0.930 . S
C2110 C2108 1.419 . S
C2110 C2111 1.362 . S
C2111 H2101 0.930 . S
C2111 C2104 1.409 . S
C2111 C2110 1.362 . S
H2112 C2118 0.930 . S
H2113 C2121 0.930 . S
H2114 C2122 0.930 . S
H2115 C2123 0.930 . S
H2116 C2126 0.930 . S
H2117 C2127 0.930 . S
C2118 H2112 0.930 . S
C2118 C2119 1.355 . S
C2118 C2120 1.415 . S
C2119 C2118 1.355 . S
C2119 C2121 1.419 . S
C2120 C2118 1.415 . S
C2120 C2125 1.425 . S
C2120 C2127 1.409 . S
C2121 H2113 0.930 . S
C2121 C2119 1.419 . S
C2121 C2122 1.362 . S
C2122 H2114 0.930 . S
C2122 C2121 1.362 . S
C2122 C2125 1.409 . S
C2123 H2115 0.930 . S
C2123 C2124 1.355 . S
C2123 C2125 1.415 . S
C2124 C2123 1.355 . S
C2124 C2126 1.419 . S
C2125 C2120 1.425 . S
C2125 C2122 1.409 . S
C2125 C2123 1.415 . S
C2126 H2116 0.930 . S
C2126 C2124 1.419 . S
C2126 C2127 1.362 . S
C2127 H2117 0.930 . S
C2127 C2120 1.409 . S
C2127 C2126 1.362 . S
H2128 C2134 0.930 . S
H2129 C2137 0.930 . S
H2130 C2138 0.930 . S
H2131 C2139 0.930 . S
H2132 C2142 0.930 . S
H2133 C2143 0.930 . S
C2134 H2128 0.930 . S
C2134 C2135 1.355 . S
C2134 C2136 1.415 . S
C2135 C2134 1.355 . S
C2135 C2137 1.419 . S
C2136 C2134 1.415 . S
C2136 C2141 1.425 . S
C2136 C2143 1.409 . S
C2137 H2129 0.930 . S
C2137 C2135 1.419 . S
C2137 C2138 1.362 . S
C2138 H2130 0.930 . S
C2138 C2137 1.362 . S
C2138 C2141 1.409 . S
C2139 H2131 0.930 . S
C2139 C2140 1.355 . S
C2139 C2141 1.415 . S
C2140 C2139 1.355 . S
C2140 C2142 1.419 . S
C2141 C2136 1.425 . S
C2141 C2138 1.409 . S
C2141 C2139 1.415 . S
C2142 H2132 0.930 . S
C2142 C2140 1.419 . S
C2142 C2143 1.362 . S
C2143 H2133 0.930 . S
C2143 C2136 1.409 . S
C2143 C2142 1.362 . S
H2144 C2150 0.930 . S
H2145 C2153 0.930 . S
H2146 C2154 0.930 . S
H2147 C2155 0.930 . S
H2148 C2158 0.930 . S
H2149 C2159 0.930 . S
C2150 H2144 0.930 . S
C2150 C2151 1.355 . S
C2150 C2152 1.415 . S
C2151 C2150 1.355 . S
C2151 C2153 1.419 . S
C2152 C2150 1.415 . S
C2152 C2157 1.425 . S
C2152 C2159 1.409 . S
C2153 H2145 0.930 . S
C2153 C2151 1.419 . S
C2153 C2154 1.362 . S
C2154 H2146 0.930 . S
C2154 C2153 1.362 . S
C2154 C2157 1.409 . S
C2155 H2147 0.930 . S
C2155 C2156 1.355 . S
C2155 C2157 1.415 . S
C2156 C2155 1.355 . S
C2156 C2158 1.419 . S
C2157 C2152 1.425 . S
C2157 C2154 1.409 . S
C2157 C2155 1.415 . S
C2158 H2148 0.930 . S
C2158 C2156 1.419 . S
C2158 C2159 1.362 . S
C2159 H2149 0.930 . S
C2159 C2152 1.409 . S
C2159 C2158 1.362 . S
H2160 C2166 0.930 . S
H2161 C2169 0.930 . S
H2162 C2170 0.930 . S
H2163 C2171 0.930 . S
H2164 C2174 0.930 . S
H2165 C2175 0.930 . S
C2166 H2160 0.930 . S
C2166 C2167 1.355 . S
C2166 C2168 1.415 . S
C2167 C2166 1.355 . S
C2167 C2169 1.419 . S
C2168 C2166 1.415 . S
C2168 C2173 1.425 . S
C2168 C2175 1.409 . S
C2169 H2161 0.930 . S
C2169 C2167 1.419 . S
C2169 C2170 1.362 . S
C2170 H2162 0.930 . S
C2170 C2169 1.362 . S
C2170 C2173 1.409 . S
C2171 H2163 0.930 . S
C2171 C2172 1.355 . S
C2171 C2173 1.415 . S
C2172 C2171 1.355 . S
C2172 C2174 1.419 . S
C2173 C2168 1.425 . S
C2173 C2170 1.409 . S
C2173 C2171 1.415 . S
C2174 H2164 0.930 . S
C2174 C2172 1.419 . S
C2174 C2175 1.362 . S
C2175 H2165 0.930 . S
C2175 C2168 1.409 . S
C2175 C2174 1.362 . S
H2176 C2182 0.930 . S
H2177 C2185 0.930 . S
H2178 C2186 0.930 . S
H2179 C2187 0.930 . S
H2180 C2190 0.930 . S
H2181 C2191 0.930 . S
C2182 H2176 0.930 . S
C2182 C2183 1.355 . S
C2182 C2184 1.415 . S
C2183 C2182 1.355 . S
C2183 C2185 1.419 . S
C2184 C2182 1.415 . S
C2184 C2189 1.425 . S
C2184 C2191 1.409 . S
C2185 H2177 0.930 . S
C2185 C2183 1.419 . S
C2185 C2186 1.362 . S
C2186 H2178 0.930 . S
C2186 C2185 1.362 . S
C2186 C2189 1.409 . S
C2187 H2179 0.930 . S
C2187 C2188 1.355 . S
C2187 C2189 1.415 . S
C2188 C2187 1.355 . S
C2188 C2190 1.419 . S
C2189 C2184 1.425 . S
C2189 C2186 1.409 . S
C2189 C2187 1.415 . S
C2190 H2180 0.930 . S
C2190 C2188 1.419 . S
C2190 C2191 1.362 . S
C2191 H2181 0.930 . S
C2191 C2184 1.409 . S
C2191 C2190 1.362 . S
H2192 C2198 0.930 . S
H2193 C2201 0.930 . S
H2194 C2202 0.930 . S
H2195 C2203 0.930 . S
H2196 C2206 0.930 . S
H2197 C2207 0.930 . S
C2198 H2192 0.930 . S
C2198 C2199 1.355 . S
C2198 C2200 1.415 . S
C2199 C2198 1.355 . S
C2199 C2201 1.419 . S
C2200 C2198 1.415 . S
C2200 C2205 1.425 . S
C2200 C2207 1.409 . S
C2201 H2193 0.930 . S
C2201 C2199 1.419 . S
C2201 C2202 1.362 . S
C2202 H2194 0.930 . S
C2202 C2201 1.362 . S
C2202 C2205 1.409 . S
C2203 H2195 0.930 . S
C2203 C2204 1.355 . S
C2203 C2205 1.415 . S
C2204 C2203 1.355 . S
C2204 C2206 1.419 . S
C2205 C2200 1.425 . S
C2205 C2202 1.409 . S
C2205 C2203 1.415 . S
C2206 H2196 0.930 . S
C2206 C2204 1.419 . S
C2206 C2207 1.362 . S
C2207 H2197 0.930 . S
C2207 C2200 1.409 . S
C2207 C2206 1.362 . S
H2208 C2214 0.930 . S
H2209 C2217 0.930 . S
H2210 C2218 0.930 . S
H2211 C2219 0.930 . S
H2212 C2222 0.930 . S
H2213 C2223 0.930 . S
C2214 H2208 0.930 . S
C2214 C2215 1.355 . S
C2214 C2216 1.415 . S
C2215 C2214 1.355 . S
C2215 C2217 1.419 . S
C2216 C2214 1.415 . S
C2216 C2221 1.425 . S
C2216 C2223 1.409 . S
C2217 H2209 0.930 . S
C2217 C2215 1.419 . S
C2217 C2218 1.362 . S
C2218 H2210 0.930 . S
C2218 C2217 1.362 . S
C2218 C2221 1.409 . S
C2219 H2211 0.930 . S
C2219 C2220 1.355 . S
C2219 C2221 1.415 . S
C2220 C2219 1.355 . S
C2220 C2222 1.419 . S
C2221 C2216 1.425 . S
C2221 C2218 1.409 . S
C2221 C2219 1.415 . S
C2222 H2212 0.930 . S
C2222 C2220 1.419 . S
C2222 C2223 1.362 . S
C2223 H2213 0.930 . S
C2223 C2216 1.409 . S
C2223 C2222 1.362 . S
H2224 C2230 0.930 . S
H2225 C2233 0.930 . S
H2226 C2234 0.930 . S
H2227 C2235 0.930 . S
H2228 C2238 0.930 . S
H2229 C2239 0.930 . S
C2230 H2224 0.930 . S
C2230 C2231 1.355 . S
C2230 C2232 1.415 . S
C2231 C2230 1.355 . S
C2231 C2233 1.419 1_455 S
C2232 C2230 1.415 . S
C2232 C2237 1.425 . S
C2232 C2239 1.409 . S
C2233 H2225 0.930 . S
C2233 C2231 1.419 1_655 S
C2233 C2234 1.362 . S
C2234 H2226 0.930 . S
C2234 C2233 1.362 . S
C2234 C2237 1.409 1_655 S
C2235 H2227 0.930 . S
C2235 C2236 1.355 . S
C2235 C2237 1.415 . S
C2236 C2235 1.355 . S
C2236 C2238 1.419 . S
C2237 C2232 1.425 . S
C2237 C2234 1.409 1_455 S
C2237 C2235 1.415 . S
C2238 H2228 0.930 . S
C2238 C2236 1.419 . S
C2238 C2239 1.362 . S
C2239 H2229 0.930 . S
C2239 C2232 1.409 . S
C2239 C2238 1.362 . S
H2240 C2246 0.930 . S
H2241 C2249 0.930 . S
H2242 C2250 0.930 . S
H2243 C2251 0.930 . S
H2244 C2254 0.930 . S
H2245 C2255 0.930 . S
C2246 H2240 0.930 . S
C2246 C2247 1.355 . S
C2246 C2248 1.415 . S
C2247 C2246 1.355 . S
C2247 C2249 1.419 . S
C2248 C2246 1.415 . S
C2248 C2253 1.425 . S
C2248 C2255 1.409 . S
C2249 H2241 0.930 . S
C2249 C2247 1.419 . S
C2249 C2250 1.362 . S
C2250 H2242 0.930 . S
C2250 C2249 1.362 . S
C2250 C2253 1.409 . S
C2251 H2243 0.930 . S
C2251 C2252 1.355 . S
C2251 C2253 1.415 . S
C2252 C2251 1.355 . S
C2252 C2254 1.419 . S
C2253 C2248 1.425 . S
C2253 C2250 1.409 . S
C2253 C2251 1.415 . S
C2254 H2244 0.930 . S
C2254 C2252 1.419 . S
C2254 C2255 1.362 . S
C2255 H2245 0.930 . S
C2255 C2248 1.409 . S
C2255 C2254 1.362 . S
H2256 C2262 0.930 . S
H2257 C2265 0.930 . S
H2258 C2266 0.930 . S
H2259 C2267 0.930 . S
H2260 C2270 0.930 . S
H2261 C2271 0.930 . S
C2262 H2256 0.930 . S
C2262 C2263 1.355 . S
C2262 C2264 1.415 . S
C2263 C2262 1.355 . S
C2263 C2265 1.419 . S
C2264 C2262 1.415 . S
C2264 C2269 1.425 . S
C2264 C2271 1.409 . S
C2265 H2257 0.930 . S
C2265 C2263 1.419 . S
C2265 C2266 1.362 . S
C2266 H2258 0.930 . S
C2266 C2265 1.362 . S
C2266 C2269 1.409 . S
C2267 H2259 0.930 . S
C2267 C2268 1.355 . S
C2267 C2269 1.415 . S
C2268 C2267 1.355 . S
C2268 C2270 1.419 . S
C2269 C2264 1.425 . S
C2269 C2266 1.409 . S
C2269 C2267 1.415 . S
C2270 H2260 0.930 . S
C2270 C2268 1.419 . S
C2270 C2271 1.362 . S
C2271 H2261 0.930 . S
C2271 C2264 1.409 . S
C2271 C2270 1.362 . S
H2272 C2278 0.930 . S
H2273 C2281 0.930 . S
H2274 C2282 0.930 . S
H2275 C2283 0.930 . S
H2276 C2286 0.930 . S
H2277 C2287 0.930 . S
C2278 H2272 0.930 . S
C2278 C2279 1.355 . S
C2278 C2280 1.415 . S
C2279 C2278 1.355 . S
C2279 C2281 1.419 . S
C2280 C2278 1.415 . S
C2280 C2285 1.425 . S
C2280 C2287 1.409 . S
C2281 H2273 0.930 . S
C2281 C2279 1.419 . S
C2281 C2282 1.362 . S
C2282 H2274 0.930 . S
C2282 C2281 1.362 . S
C2282 C2285 1.409 . S
C2283 H2275 0.930 . S
C2283 C2284 1.355 . S
C2283 C2285 1.415 . S
C2284 C2283 1.355 . S
C2284 C2286 1.419 . S
C2285 C2280 1.425 . S
C2285 C2282 1.409 . S
C2285 C2283 1.415 . S
C2286 H2276 0.930 . S
C2286 C2284 1.419 . S
C2286 C2287 1.362 . S
C2287 H2277 0.930 . S
C2287 C2280 1.409 . S
C2287 C2286 1.362 . S
H2288 C2294 0.930 . S
H2289 C2297 0.930 . S
H2290 C2298 0.930 1_455 S
H2291 C2299 0.930 . S
H2292 C2302 0.930 . S
H2293 C2303 0.930 . S
C2294 H2288 0.930 . S
C2294 C2295 1.355 . S
C2294 C2296 1.415 . S
C2295 C2294 1.355 . S
C2295 C2297 1.419 . S
C2296 C2294 1.415 . S
C2296 C2301 1.425 . S
C2296 C2303 1.409 . S
C2297 H2289 0.930 . S
C2297 C2295 1.419 . S
C2297 C2298 1.362 . S
C2298 H2290 0.930 1_655 S
C2298 C2297 1.362 . S
C2298 C2301 1.409 . S
C2299 H2291 0.930 . S
C2299 C2300 1.355 1_455 S
C2299 C2301 1.415 1_455 S
C2300 C2299 1.355 1_655 S
C2300 C2302 1.419 . S
C2301 C2296 1.425 . S
C2301 C2298 1.409 . S
C2301 C2299 1.415 1_655 S
C2302 H2292 0.930 . S
C2302 C2300 1.419 . S
C2302 C2303 1.362 . S
C2303 H2293 0.930 . S
C2303 C2296 1.409 . S
C2303 C2302 1.362 . S
H2304 C2310 0.930 . S
H2305 C2313 0.930 . S
H2306 C2314 0.930 . S
H2307 C2315 0.930 . S
H2308 C2318 0.930 . S
H2309 C2319 0.930 . S
C2310 H2304 0.930 . S
C2310 C2311 1.355 . S
C2310 C2312 1.415 . S
C2311 C2310 1.355 . S
C2311 C2313 1.419 . S
C2312 C2310 1.415 . S
C2312 C2317 1.425 . S
C2312 C2319 1.409 . S
C2313 H2305 0.930 . S
C2313 C2311 1.419 . S
C2313 C2314 1.362 . S
C2314 H2306 0.930 . S
C2314 C2313 1.362 . S
C2314 C2317 1.409 . S
C2315 H2307 0.930 . S
C2315 C2316 1.355 . S
C2315 C2317 1.415 . S
C2316 C2315 1.355 . S
C2316 C2318 1.419 . S
C2317 C2312 1.425 . S
C2317 C2314 1.409 . S
C2317 C2315 1.415 . S
C2318 H2308 0.930 . S
C2318 C2316 1.419 . S
C2318 C2319 1.362 . S
C2319 H2309 0.930 . S
C2319 C2312 1.409 . S
C2319 C2318 1.362 . S
H2320 C2326 0.930 . S
H2321 C2329 0.930 . S
H2322 C2330 0.930 . S
H2323 C2331 0.930 . S
H2324 C2334 0.930 . S
H2325 C2335 0.930 . S
C2326 H2320 0.930 . S
C2326 C2327 1.355 . S
C2326 C2328 1.415 . S
C2327 C2326 1.355 . S
C2327 C2329 1.419 . S
C2328 C2326 1.415 . S
C2328 C2333 1.425 . S
C2328 C2335 1.409 . S
C2329 H2321 0.930 . S
C2329 C2327 1.419 . S
C2329 C2330 1.362 . S
C2330 H2322 0.930 . S
C2330 C2329 1.362 . S
C2330 C2333 1.409 . S
C2331 H2323 0.930 . S
C2331 C2332 1.355 . S
C2331 C2333 1.415 . S
C2332 C2331 1.355 . S
C2332 C2334 1.419 . S
C2333 C2328 1.425 . S
C2333 C2330 1.409 . S
C2333 C2331 1.415 . S
C2334 H2324 0.930 . S
C2334 C2332 1.419 . S
C2334 C2335 1.362 . S
C2335 H2325 0.930 . S
C2335 C2328 1.409 . S
C2335 C2334 1.362 . S
H2336 C2342 0.930 . S
H2337 C2345 0.930 . S
H2338 C2346 0.930 . S
H2339 C2347 0.930 . S
H2340 C2350 0.930 . S
H2341 C2351 0.930 . S
C2342 H2336 0.930 . S
C2342 C2343 1.355 . S
C2342 C2344 1.415 . S
C2343 C2342 1.355 . S
C2343 C2345 1.419 . S
C2344 C2342 1.415 . S
C2344 C2349 1.425 . S
C2344 C2351 1.409 . S
C2345 H2337 0.930 . S
C2345 C2343 1.419 . S
C2345 C2346 1.362 . S
C2346 H2338 0.930 . S
C2346 C2345 1.362 . S
C2346 C2349 1.409 . S
C2347 H2339 0.930 . S
C2347 C2348 1.355 . S
C2347 C2349 1.415 . S
C2348 C2347 1.355 . S
C2348 C2350 1.419 . S
C2349 C2344 1.425 . S
C2349 C2346 1.409 . S
C2349 C2347 1.415 . S
C2350 H2340 0.930 . S
C2350 C2348 1.419 . S
C2350 C2351 1.362 . S
C2351 H2341 0.930 . S
C2351 C2344 1.409 . S
C2351 C2350 1.362 . S
H2352 C2358 0.930 . S
H2353 C2361 0.930 . S
H2354 C2362 0.930 . S
H2355 C2363 0.930 . S
H2356 C2366 0.930 . S
H2357 C2367 0.930 . S
C2358 H2352 0.930 . S
C2358 C2359 1.355 . S
C2358 C2360 1.415 . S
C2359 C2358 1.355 . S
C2359 C2361 1.419 . S
C2360 C2358 1.415 . S
C2360 C2365 1.425 . S
C2360 C2367 1.409 . S
C2361 H2353 0.930 . S
C2361 C2359 1.419 . S
C2361 C2362 1.362 . S
C2362 H2354 0.930 . S
C2362 C2361 1.362 . S
C2362 C2365 1.409 . S
C2363 H2355 0.930 . S
C2363 C2364 1.355 . S
C2363 C2365 1.415 . S
C2364 C2363 1.355 . S
C2364 C2366 1.419 . S
C2365 C2360 1.425 . S
C2365 C2362 1.409 . S
C2365 C2363 1.415 . S
C2366 H2356 0.930 . S
C2366 C2364 1.419 . S
C2366 C2367 1.362 . S
C2367 H2357 0.930 . S
C2367 C2360 1.409 . S
C2367 C2366 1.362 . S
H2368 C2374 0.930 . S
H2369 C2377 0.930 . S
H2370 C2378 0.930 . S
H2371 C2379 0.930 . S
H2372 C2382 0.930 . S
H2373 C2383 0.930 . S
C2374 H2368 0.930 . S
C2374 C2375 1.355 . S
C2374 C2376 1.415 . S
C2375 C2374 1.355 . S
C2375 C2377 1.419 . S
C2376 C2374 1.415 . S
C2376 C2381 1.425 . S
C2376 C2383 1.409 . S
C2377 H2369 0.930 . S
C2377 C2375 1.419 . S
C2377 C2378 1.362 . S
C2378 H2370 0.930 . S
C2378 C2377 1.362 . S
C2378 C2381 1.409 . S
C2379 H2371 0.930 . S
C2379 C2380 1.355 . S
C2379 C2381 1.415 . S
C2380 C2379 1.355 . S
C2380 C2382 1.419 . S
C2381 C2376 1.425 . S
C2381 C2378 1.409 . S
C2381 C2379 1.415 . S
C2382 H2372 0.930 . S
C2382 C2380 1.419 . S
C2382 C2383 1.362 . S
C2383 H2373 0.930 . S
C2383 C2376 1.409 . S
C2383 C2382 1.362 . S
H2384 C2390 0.930 . S
H2385 C2393 0.930 . S
H2386 C2394 0.930 . S
H2387 C2395 0.930 . S
H2388 C2398 0.930 . S
H2389 C2399 0.930 . S
C2390 H2384 0.930 . S
C2390 C2391 1.355 . S
C2390 C2392 1.415 . S
C2391 C2390 1.355 . S
C2391 C2393 1.419 . S
C2392 C2390 1.415 . S
C2392 C2397 1.425 . S
C2392 C2399 1.409 . S
C2393 H2385 0.930 . S
C2393 C2391 1.419 . S
C2393 C2394 1.362 . S
C2394 H2386 0.930 . S
C2394 C2393 1.362 . S
C2394 C2397 1.409 . S
C2395 H2387 0.930 . S
C2395 C2396 1.355 . S
C2395 C2397 1.415 . S
C2396 C2395 1.355 . S
C2396 C2398 1.419 . S
C2397 C2392 1.425 . S
C2397 C2394 1.409 . S
C2397 C2395 1.415 . S
C2398 H2388 0.930 . S
C2398 C2396 1.419 . S
C2398 C2399 1.362 . S
C2399 H2389 0.930 . S
C2399 C2392 1.409 . S
C2399 C2398 1.362 . S
H2400 C2406 0.930 . S
H2401 C2409 0.930 . S
H2402 C2410 0.930 . S
H2403 C2411 0.930 1_545 S
H2404 C2414 0.930 . S
H2405 C2415 0.930 . S
C2406 H2400 0.930 . S
C2406 C2407 1.355 . S
C2406 C2408 1.415 . S
C2407 C2406 1.355 . S
C2407 C2409 1.419 . S
C2408 C2406 1.415 . S
C2408 C2413 1.425 . S
C2408 C2415 1.409 . S
C2409 H2401 0.930 . S
C2409 C2407 1.419 . S
C2409 C2410 1.362 . S
C2410 H2402 0.930 . S
C2410 C2409 1.362 . S
C2410 C2413 1.409 . S
C2411 H2403 0.930 1_565 S
C2411 C2412 1.355 . S
C2411 C2413 1.415 . S
C2412 C2411 1.355 . S
C2412 C2414 1.419 . S
C2413 C2408 1.425 . S
C2413 C2410 1.409 . S
C2413 C2411 1.415 . S
C2414 H2404 0.930 . S
C2414 C2412 1.419 . S
C2414 C2415 1.362 . S
C2415 H2405 0.930 . S
C2415 C2408 1.409 . S
C2415 C2414 1.362 . S
H2416 C2422 0.930 . S
H2417 C2425 0.930 . S
H2418 C2426 0.930 . S
H2419 C2427 0.930 . S
H2420 C2430 0.930 . S
H2421 C2431 0.930 . S
C2422 H2416 0.930 . S
C2422 C2423 1.355 . S
C2422 C2424 1.415 . S
C2423 C2422 1.355 . S
C2423 C2425 1.419 . S
C2424 C2422 1.415 . S
C2424 C2429 1.425 . S
C2424 C2431 1.409 . S
C2425 H2417 0.930 . S
C2425 C2423 1.419 . S
C2425 C2426 1.362 . S
C2426 H2418 0.930 . S
C2426 C2425 1.362 . S
C2426 C2429 1.409 . S
C2427 H2419 0.930 . S
C2427 C2428 1.355 . S
C2427 C2429 1.415 . S
C2428 C2427 1.355 . S
C2428 C2430 1.419 . S
C2429 C2424 1.425 . S
C2429 C2426 1.409 . S
C2429 C2427 1.415 . S
C2430 H2420 0.930 . S
C2430 C2428 1.419 . S
C2430 C2431 1.362 . S
C2431 H2421 0.930 . S
C2431 C2424 1.409 . S
C2431 C2430 1.362 . S
H2432 C2438 0.930 . S
H2433 C2441 0.930 . S
H2434 C2442 0.930 . S
H2435 C2443 0.930 . S
H2436 C2446 0.930 . S
H2437 C2447 0.930 . S
C2438 H2432 0.930 . S
C2438 C2439 1.355 . S
C2438 C2440 1.415 . S
C2439 C2438 1.355 . S
C2439 C2441 1.419 . S
C2440 C2438 1.415 . S
C2440 C2445 1.425 . S
C2440 C2447 1.409 . S
C2441 H2433 0.930 . S
C2441 C2439 1.419 . S
C2441 C2442 1.362 . S
C2442 H2434 0.930 . S
C2442 C2441 1.362 . S
C2442 C2445 1.409 . S
C2443 H2435 0.930 . S
C2443 C2444 1.355 . S
C2443 C2445 1.415 . S
C2444 C2443 1.355 . S
C2444 C2446 1.419 . S
C2445 C2440 1.425 . S
C2445 C2442 1.409 . S
C2445 C2443 1.415 . S
C2446 H2436 0.930 . S
C2446 C2444 1.419 . S
C2446 C2447 1.362 . S
C2447 H2437 0.930 . S
C2447 C2440 1.409 . S
C2447 C2446 1.362 . S
H2448 C2454 0.930 . S
H2449 C2457 0.930 . S
H2450 C2458 0.930 . S
H2451 C2459 0.930 . S
H2452 C2462 0.930 . S
H2453 C2463 0.930 . S
C2454 H2448 0.930 . S
C2454 C2455 1.355 . S
C2454 C2456 1.415 . S
C2455 C2454 1.355 . S
C2455 C2457 1.419 . S
C2456 C2454 1.415 . S
C2456 C2461 1.425 . S
C2456 C2463 1.409 . S
C2457 H2449 0.930 . S
C2457 C2455 1.419 . S
C2457 C2458 1.362 . S
C2458 H2450 0.930 . S
C2458 C2457 1.362 . S
C2458 C2461 1.409 . S
C2459 H2451 0.930 . S
C2459 C2460 1.355 . S
C2459 C2461 1.415 . S
C2460 C2459 1.355 . S
C2460 C2462 1.419 . S
C2461 C2456 1.425 . S
C2461 C2458 1.409 . S
C2461 C2459 1.415 . S
C2462 H2452 0.930 . S
C2462 C2460 1.419 . S
C2462 C2463 1.362 . S
C2463 H2453 0.930 . S
C2463 C2456 1.409 . S
C2463 C2462 1.362 . S
H2464 C2470 0.930 . S
H2465 C2473 0.930 . S
H2466 C2474 0.930 . S
H2467 C2475 0.930 . S
H2468 C2478 0.930 . S
H2469 C2479 0.930 . S
C2470 H2464 0.930 . S
C2470 C2471 1.355 . S
C2470 C2472 1.415 . S
C2471 C2470 1.355 . S
C2471 C2473 1.419 . S
C2472 C2470 1.415 . S
C2472 C2477 1.425 . S
C2472 C2479 1.409 . S
C2473 H2465 0.930 . S
C2473 C2471 1.419 . S
C2473 C2474 1.362 . S
C2474 H2466 0.930 . S
C2474 C2473 1.362 . S
C2474 C2477 1.409 . S
C2475 H2467 0.930 . S
C2475 C2476 1.355 . S
C2475 C2477 1.415 . S
C2476 C2475 1.355 . S
C2476 C2478 1.419 . S
C2477 C2472 1.425 . S
C2477 C2474 1.409 . S
C2477 C2475 1.415 . S
C2478 H2468 0.930 . S
C2478 C2476 1.419 . S
C2478 C2479 1.362 . S
C2479 H2469 0.930 . S
C2479 C2472 1.409 . S
C2479 C2478 1.362 . S
H2480 C2486 0.930 . S
H2481 C2489 0.930 . S
H2482 C2490 0.930 . S
H2483 C2491 0.930 . S
H2484 C2494 0.930 . S
H2485 C2495 0.930 . S
C2486 H2480 0.930 . S
C2486 C2487 1.355 . S
C2486 C2488 1.415 . S
C2487 C2486 1.355 . S
C2487 C2489 1.419 . S
C2488 C2486 1.415 . S
C2488 C2493 1.425 . S
C2488 C2495 1.409 . S
C2489 H2481 0.930 . S
C2489 C2487 1.419 . S
C2489 C2490 1.362 . S
C2490 H2482 0.930 . S
C2490 C2489 1.362 . S
C2490 C2493 1.409 . S
C2491 H2483 0.930 . S
C2491 C2492 1.355 . S
C2491 C2493 1.415 . S
C2492 C2491 1.355 . S
C2492 C2494 1.419 . S
C2493 C2488 1.425 . S
C2493 C2490 1.409 . S
C2493 C2491 1.415 . S
C2494 H2484 0.930 . S
C2494 C2492 1.419 . S
C2494 C2495 1.362 . S
C2495 H2485 0.930 . S
C2495 C2488 1.409 . S
C2495 C2494 1.362 . S
H2496 C2502 0.930 . S
H2497 C2505 0.930 . S
H2498 C2506 0.930 . S
H2499 C2507 0.930 . S
H2500 C2510 0.930 . S
H2501 C2511 0.930 . S
C2502 H2496 0.930 . S
C2502 C2503 1.355 . S
C2502 C2504 1.415 . S
C2503 C2502 1.355 . S
C2503 C2505 1.419 . S
C2504 C2502 1.415 . S
C2504 C2509 1.425 . S
C2504 C2511 1.409 . S
C2505 H2497 0.930 . S
C2505 C2503 1.419 . S
C2505 C2506 1.362 . S
C2506 H2498 0.930 . S
C2506 C2505 1.362 . S
C2506 C2509 1.409 . S
C2507 H2499 0.930 . S
C2507 C2508 1.355 . S
C2507 C2509 1.415 . S
C2508 C2507 1.355 . S
C2508 C2510 1.419 . S
C2509 C2504 1.425 . S
C2509 C2506 1.409 . S
C2509 C2507 1.415 . S
C2510 H2500 0.930 . S
C2510 C2508 1.419 . S
C2510 C2511 1.362 . S
C2511 H2501 0.930 . S
C2511 C2504 1.409 . S
C2511 C2510 1.362 . S
C983 C111 2.318 1_554 S
C988 C346 2.266 . S
C999 C64 1.972 . S
C1004 C394 2.046 . S
C1015 C77 1.344 . S
C1020 C426 1.333 . S
C1036 C471 1.452 . S
C1031 C95 1.495 . S
C1047 C25 0.784 . S
C1052 C511 0.737 . S
C1068 C546 0.990 . S
C1063 C36 0.923 . S
C1084 C585 1.272 . S
C1079 C50 1.263 . S
C1095 C11 1.164 . S
C1100 C622 1.152 . S
C1116 C354 2.037 . S
C1111 C237 1.964 1_545 S
C1127 C245 0.553 . S
C1132 C391 0.579 . S
C1148 C434 2.256 . S
C1143 C279 2.092 . S
C1164 C466 1.098 . S
C1159 C175 1.085 1_556 S
C1175 C231 1.267 . S
C1180 C506 1.266 . S
C1196 C554 0.487 . S
C1191 C251 0.822 . S
C1212 C595 2.013 1_556 S
C1207 C273 2.105 . S
C1228 C625 2.001 . S
C1223 C181 1.938 . S
C1244 C351 1.586 . S
C1239 C165 1.673 1_554 S
C1255 C288 2.066 . S
C1260 C674 2.111 . S
C1276 C711 1.143 . S
C1271 C333 1.153 . S
C1292 C742 0.824 . S
C1287 C316 0.924 . S
C1303 C123 2.630 . S
C1308 C635 2.614 . S
C1319 C137 1.338 . S
C1324 C431 1.336 . S
C1335 C330 1.664 . S
C1340 C794 1.711 . S
C1356 C826 1.866 . S
C1351 C302 1.823 . S
C1372 C355 2.302 . S
C1367 C63 2.395 . S
C1388 C825 2.099 . S
C1383 C106 2.108 . S
C1399 C97 1.330 . S
C1404 C435 1.426 . S
C1415 C81 1.477 . S
C1420 C782 1.457 . S
C1436 C502 0.875 1_655 S
C1431 C13 0.918 1_455 S
C1447 C55 1.109 . S
C1452 C715 1.103 . S
C1468 C594 1.142 . S
C1463 C35 1.108 . S
C1484 C871 1.285 . S
C1479 C21 1.293 . S
C1500 C345 2.146 1_556 S
C1495 C147 2.139 . S
C1516 C822 0.722 . S
C1511 C321 0.801 . S
C1527 C119 2.331 . S
C1532 C425 2.304 . S
C1543 C293 1.125 . S
C1548 C795 1.224 . S
C1559 C153 1.365 . S
C1564 C515 1.392 . S
C1580 C705 0.423 . S
C1575 C315 0.456 . S
C1591 C125 2.000 . S
C1596 C586 2.045 . S
C1607 C287 2.096 1_556 S
C1612 C874 2.062 . S
C1623 C193 1.593 . S
C1628 C342 1.591 . S
C1639 C176 2.167 . S
C1644 C665 2.167 . S
C1655 C263 1.176 . S
C1660 C542 1.178 . S
C1671 C246 0.864 . S
C1676 C751 0.847 . S
C1692 C866 2.720 . S
C1687 C277 2.755 . S
C1703 C221 1.341 . S
C1708 C422 1.349 . S
C1724 C465 1.721 . S
C1719 C260 1.731 . S
C1740 C395 1.944 . S
C1735 C204 1.813 . S
C1751 C83 2.269 . S
C1756 C906 2.226 . S
C1772 C834 2.027 . S
C1767 C92 1.935 . S
C1783 C105 1.349 1_554 S
C1788 C946 1.327 . S
C1799 C67 1.494 . S
C1804 C791 1.438 . S
C1815 C53 0.734 . S
C1820 C671 0.793 . S
C1836 C706 1.004 . S
C1831 C8 0.877 . S
C1852 C745 1.254 . S
C1847 C22 1.267 . S
C1868 C862 1.143 . S
C1863 C39 1.196 . S
C1884 C914 2.046 . S
C1879 C265 1.952 . S
C1895 C189 0.677 . S
C1900 C831 0.711 . S
C1916 C954 2.276 . S
C1911 C209 2.145 . S
C1932 C786 1.085 . S
C1927 C217 1.094 . S
C1948 C666 1.250 1_556 S
C1943 C259 1.269 . S
C1959 C195 0.744 . S
C1964 C714 0.606 . S
C1980 C755 2.027 . S
C1975 C203 2.101 . S
C1991 C223 1.939 . S
C1996 C865 1.999 . S
C2012 C911 1.522 . S
C2007 C319 1.626 . S
C2023 C134 2.055 . S
C2028 C514 2.125 . S
C2044 C551 1.160 . S
C2039 C151 1.157 1_565 S
C2060 C582 0.909 . S
C2055 C162 0.973 . S
C2076 C875 2.590 . S
C2071 C305 2.639 . S
C2087 C291 1.335 . S
C2092 C951 1.282 . S
C2108 C474 1.677 . S
C2103 C148 1.592 . S
C2124 C386 1.862 . S
C2119 C120 1.837 . S
C2135 C91 2.386 . S
C2140 C915 2.334 . S
C2156 C385 2.092 . S
C2151 C78 2.108 . S
C2167 C69 1.362 . S
C2172 C955 1.399 . S
C2183 C109 1.529 . S
C2188 C462 1.518 . S
C2199 C41 0.931 . S
C2204 C662 0.911 . S
C2220 C555 1.112 . S
C2215 C27 1.116 . S
C2231 C7 1.131 . S
C2236 C754 1.099 . S
C2247 C49 1.300 . S
C2252 C631 1.316 . S
C2268 C905 2.146 . S
C2263 C329 2.139 . S
C2279 C167 0.807 . S
C2284 C382 0.729 . S
C2300 C945 2.332 1_656 S
C2295 C301 2.346 . S
C2311 C139 1.221 . S
C2316 C475 1.223 . S
C2327 C335 1.320 . S
C2332 C675 1.417 . S
C2348 C545 0.644 . S
C2343 C161 0.697 . S
C2359 C307 1.984 . S
C2364 C746 2.074 1_655 S
C2380 C634 2.085 . S
C2375 C133 2.086 . S
C2396 C902 1.494 . S
C2391 C249 1.498 . S
C2412 C505 2.167 1_565 S
C2407 C218 2.165 . S
C2423 C235 1.179 . S
C2428 C702 1.178 . S
C2444 C591 0.885 . S
C2439 C190 0.849 . S
C2455 C207 2.752 . S
C2460 C626 2.712 . S
C2471 C179 1.324 . S
C2476 C942 1.331 . S
C2492 C785 1.737 . S
C2487 C232 1.745 . S
C2508 C835 1.928 . S
C2503 C274 1.826 . S
