# Generated by pormake.
# Topology pth, (4,4)-cn, num edge types: 1
# Building blocks:
#     Node 0, Type 0, BuildingBlock: KUFVIS_clean_sbu_0, # of connection points: 4
#     Node 1, Type 0, BuildingBlock: KUFVIS_clean_sbu_0, # of connection points: 4
#     Node 2, Type 0, BuildingBlock: KUFVIS_clean_sbu_0, # of connection points: 4
#     Node 3, Type 1, BuildingBlock: NAWXER_clean_sbu_0, # of connection points: 4
#     Node 4, Type 1, BuildingBlock: NAWXER_clean_sbu_0, # of connection points: 4
#     Node 5, Type 1, BuildingBlock: NAWXER_clean_sbu_0, # of connection points: 4
#     Edge 6, Type (0, 1), BuildingBlock: XIVTED_clean_linker_0, # of connection points: 2
#     Edge 7, Type (0, 1), BuildingBlock: XIVTED_clean_linker_0, # of connection points: 2
#     Edge 8, Type (0, 1), BuildingBlock: XIVTED_clean_linker_0, # of connection points: 2
#     Edge 9, Type (0, 1), BuildingBlock: XIVTED_clean_linker_0, # of connection points: 2
#     Edge 10, Type (0, 1), BuildingBlock: XIVTED_clean_linker_0, # of connection points: 2
#     Edge 11, Type (0, 1), BuildingBlock: XIVTED_clean_linker_0, # of connection points: 2
#     Edge 12, Type (0, 1), BuildingBlock: XIVTED_clean_linker_0, # of connection points: 2
#     Edge 13, Type (0, 1), BuildingBlock: XIVTED_clean_linker_0, # of connection points: 2
#     Edge 14, Type (0, 1), BuildingBlock: XIVTED_clean_linker_0, # of connection points: 2
#     Edge 15, Type (0, 1), BuildingBlock: XIVTED_clean_linker_0, # of connection points: 2
#     Edge 16, Type (0, 1), BuildingBlock: XIVTED_clean_linker_0, # of connection points: 2
#     Edge 17, Type (0, 1), BuildingBlock: XIVTED_clean_linker_0, # of connection points: 2
# Relax obj value: 0.009
# Max RMSD: 0.080
# Mean RMSD: 0.046
data_MOF--net-pth--node1-KUFVIS_clean_sbu_0--node2-NAWXER_clean_sbu_0--edge1-XIVTED_clean_linker_0
_symmetry_space_group_name_H-M    P1
_symmetry_Int_Tables_number       1
_symmetry_cell_setting            triclinic
loop_
_symmetry_equiv_pos_as_xyz
'x, y, z'
_cell_length_a     22.602119
_cell_length_b     22.573249
_cell_length_c     58.326331
_cell_angle_alpha  90.424974
_cell_angle_beta   91.927075
_cell_angle_gamma 119.87137
loop_
_atom_site_label
_atom_site_type_symbol
_atom_site_fract_x
_atom_site_fract_y
_atom_site_fract_z
_atom_type_partial_charge
Mn0 Mn 0.06371 0.11117 0.06158 0.0
Mn1 Mn 1.00208 0.19519 0.0302 0.0
C2 C 0.99093 0.05748 0.03003 0.0
C3 C 0.05543 0.04159 0.09208 0.0
C4 C 0.1469 0.2209 0.02734 0.0
O5 O 0.08308 0.19205 0.08275 0.0
O6 O 0.03314 0.23887 0.06123 0.0
C7 C 0.87999 0.161 0.05657 0.0
N8 N 0.90813 0.16066 0.03632 0.0
C9 C 0.79786 0.10482 0.01652 0.0
C10 C 0.76772 0.10499 0.03713 0.0
C11 C 0.80898 0.13311 0.05724 0.0
C12 C 0.86894 0.13373 0.01687 0.0
H13 H 0.91152 0.18223 0.07208 0.0
C14 C 0.06495 0.23682 0.07956 0.0
O15 O 0.11353 0.08154 0.08308 0.0
O16 O 1.00269 0.04436 0.08403 0.0
N17 N 0.96993 0.15825 0.99976 0.0
C18 C 1.0067 0.15944 0.98155 0.0
C19 C 0.97288 0.13191 0.9602 0.0
C20 C 0.90178 0.10391 0.95776 0.0
C21 C 0.86519 0.10415 0.97667 0.0
C22 C 0.90175 0.13299 0.99745 0.0
H23 H 0.06133 0.18078 0.98335 0.0
O24 O 0.03067 0.03566 0.03799 0.0
O25 O 0.99442 0.10969 0.04089 0.0
O26 O 0.14129 0.17505 0.04118 0.0
O27 O 0.09858 0.23324 0.02247 0.0
C28 C 0.7937 0.07567 0.97583 0.0
C29 C 0.76006 0.07589 0.99575 0.0
H30 H 0.71292 0.08313 0.03775 0.0
H31 H 0.78605 0.13309 0.07324 0.0
H32 H 1.00149 0.13195 0.94569 0.0
H33 H 0.87578 0.08199 0.94134 0.0
H34 H 0.76401 0.05261 0.96004 0.0
H35 H 0.70499 0.05304 0.99496 0.0
Mn36 Mn 0.0446 0.10773 0.397 0.0
Mn37 Mn 0.10504 0.25334 0.42889 0.0
C38 C 0.11739 0.12749 0.4285 0.0
C39 C 0.05347 0.04625 0.36632 0.0
C40 C 0.96069 0.13377 0.43151 0.0
O41 O 0.02487 0.1687 0.37608 0.0
O42 O 0.07378 0.26546 0.39796 0.0
C43 C 0.2269 0.34181 0.40269 0.0
N44 N 0.19886 0.31326 0.42285 0.0
C45 C 0.30901 0.36894 0.44274 0.0
C46 C 0.33904 0.39933 0.42222 0.0
C47 C 0.29779 0.38559 0.4021 0.0
C48 C 0.23805 0.32607 0.4423 0.0
H49 H 0.19538 0.33112 0.38718 0.0
C50 C 0.04243 0.23145 0.37951 0.0
O51 O 0.99524 0.02806 0.37531 0.0
O52 O 0.10598 0.10197 0.37446 0.0
N53 N 0.13735 0.24893 0.45922 0.0
C54 C 0.1008 0.21294 0.4773 0.0
C55 C 0.1347 0.21951 0.4986 0.0
C56 C 0.20564 0.26336 0.50113 0.0
C57 C 0.24201 0.30059 0.48237 0.0
C58 C 0.20539 0.2924 0.46161 0.0
H59 H 0.04628 0.17911 0.47543 0.0
O60 O 0.07793 0.06586 0.42038 0.0
O61 O 0.1136 0.17592 0.41783 0.0
O62 O 0.9667 0.09376 0.41744 0.0
O63 O 1.00867 0.19448 0.43657 0.0
C64 C 0.31334 0.34443 0.48331 0.0
C65 C 0.34682 0.37849 0.4635 0.0
H66 H 0.39374 0.43281 0.42166 0.0
H67 H 0.32064 0.40856 0.38618 0.0
H68 H 0.10626 0.19063 0.513 0.0
H69 H 0.2317 0.26773 0.51752 0.0
H70 H 0.34306 0.35154 0.49909 0.0
H71 H 0.40179 0.41132 0.46436 0.0
Mn72 Mn 0.06703 0.09337 0.73095 0.0
Mn73 Mn 1.00455 0.17706 0.76119 0.0
C74 C 0.12946 0.16341 0.76225 0.0
C75 C 0.12765 0.08351 0.70093 0.0
C76 C 0.95287 0.02489 0.76448 0.0
O77 O 0.99253 0.0907 0.70906 0.0
O78 O 0.96417 0.15748 0.72953 0.0
C79 C 0.06327 0.30673 0.73623 0.0
N80 N 0.05461 0.27309 0.75622 0.0
C81 C 0.11826 0.37901 0.77789 0.0
C82 C 0.12721 0.41482 0.75757 0.0
C83 C 0.09987 0.37849 0.73664 0.0
C84 C 0.08124 0.30751 0.77642 0.0
H85 H 0.04256 0.279 0.7201 0.0
C86 C 0.96061 0.12392 0.71124 0.0
O87 O 0.08028 0.03028 0.71061 0.0
O88 O 0.13833 0.14284 0.70813 0.0
N89 N 0.04055 0.20033 0.79218 0.0
C90 C 0.03159 0.15815 0.80994 0.0
C91 C 0.05839 0.18645 0.83194 0.0
C92 C 0.09344 0.25771 0.83551 0.0
C93 C 0.10147 0.30006 0.81703 0.0
C94 C 0.07351 0.26895 0.7955 0.0
H95 H 1.00439 0.10334 0.80734 0.0
O96 O 0.14097 0.11555 0.75516 0.0
O97 O 0.08215 0.16886 0.75091 0.0
O98 O 0.99601 0.02311 0.75149 0.0
O99 O 0.94942 0.07887 0.76824 0.0
C100 C 0.13724 0.37196 0.81903 0.0
C101 C 0.14579 0.41141 0.79946 0.0
H102 H 0.15563 0.47016 0.7578 0.0
H103 H 0.10702 0.40575 0.72086 0.0
H104 H 0.05204 0.15341 0.84612 0.0
H105 H 0.11445 0.27936 0.85248 0.0
H106 H 0.15952 0.39746 0.83545 0.0
H107 H 0.17455 0.46664 0.80114 0.0
C108 C 0.09765 0.71906 0.26057 0.0
C109 C 0.11414 0.57219 0.20158 0.0
O110 O 0.15317 0.72352 0.25425 0.0
Zn111 Zn 0.11107 0.6464 0.23213 0.0
O112 O 0.04049 0.67232 0.25166 0.0
Zn113 Zn 1.00038 0.59098 0.22666 0.0
O114 O 0.94745 0.50962 0.24489 0.0
O115 O 0.05809 0.56336 0.25395 0.0
O116 O 0.05346 0.55994 0.20491 0.0
O117 O 0.16411 0.61713 0.21397 0.0
O118 O 0.07084 0.68656 0.20708 0.0
O119 O 0.95818 0.62505 0.2045 0.0
C120 C 0.99745 0.51519 0.25731 0.0
C121 C 0.01362 0.67578 0.19816 0.0
C122 C 0.6483 0.13634 0.5879 0.0
C123 C 0.47845 0.1478 0.53633 0.0
O124 O 0.59808 0.07802 0.58144 0.0
Zn125 Zn 0.50707 0.0359 0.56046 0.0
O126 O 0.65038 0.19067 0.58097 0.0
Zn127 Zn 0.5664 0.14734 0.56176 0.0
O128 O 0.4901 0.10301 0.58624 0.0
O129 O 0.43512 0.99047 0.58268 0.0
O130 O 0.53373 0.19938 0.54404 0.0
O131 O 0.46529 0.08731 0.54122 0.0
O132 O 0.52708 0.98699 0.53656 0.0
O133 O 0.58996 0.09939 0.53525 0.0
C134 C 0.44332 0.0447 0.59264 0.0
C135 C 0.57314 0.04 0.52715 0.0
C136 C 0.53181 0.51773 0.93226 0.0
C137 C 0.6501 0.64694 0.86476 0.0
O138 O 0.51306 0.55906 0.92461 0.0
Zn139 Zn 0.5325 0.62898 0.89813 0.0
O140 O 0.57777 0.51148 0.92226 0.0
Zn141 Zn 0.5941 0.57866 0.8984 0.0
O142 O 0.63639 0.67255 0.91738 0.0
O143 O 0.56673 0.7149 0.91572 0.0
O144 O 0.66234 0.60386 0.87474 0.0
O145 O 0.604 0.6583 0.87221 0.0
O146 O 0.44634 0.58592 0.87992 0.0
O147 O 0.50057 0.52714 0.87897 0.0
C148 C 0.62299 0.71964 0.92271 0.0
C149 C 0.44906 0.5336 0.87312 0.0
H150 H 0.13459 0.25819 0.12165 0.0
H151 H 0.05827 0.55366 0.15902 0.0
H152 H 0.03332 0.33862 0.07856 0.0
H153 H 0.18767 0.50441 0.20095 0.0
H154 H 0.05457 0.47713 0.12883 0.0
H155 H 0.15869 0.34785 0.15073 0.0
C156 C 0.11754 0.29452 0.11824 0.0
C157 C 0.08138 0.29027 0.09761 0.0
C158 C 0.0846 0.48326 0.14444 0.0
C159 C 0.10915 0.39287 0.13067 0.0
C160 C 0.08687 0.52725 0.16166 0.0
C161 C 0.12339 0.53526 0.18239 0.0
C162 C 0.11799 0.44551 0.14805 0.0
C163 C 0.15944 0.49984 0.18504 0.0
C164 C 0.13162 0.34582 0.13481 0.0
C165 C 0.06098 0.33912 0.09415 0.0
N166 N 0.15508 0.4555 0.16813 0.0
N167 N 0.0749 0.38783 0.11047 0.0
H168 H 0.86398 1.00244 0.44218 0.0
H169 H 0.619 0.12759 0.49244 0.0
H170 H 0.90704 0.21131 0.44551 0.0
H171 H 0.61603 0.9472 0.5178 0.0
H172 H 0.70501 0.14179 0.46565 0.0
H173 H 0.75693 0.96742 0.46187 0.0
C174 C 0.85064 0.04071 0.44685 0.0
C175 C 0.89461 0.10999 0.44236 0.0
C176 C 0.685 0.09847 0.47681 0.0
C177 C 0.77254 0.07023 0.46429 0.0
C178 C 0.63558 0.09006 0.49202 0.0
C179 C 0.61109 0.03664 0.50754 0.0
C180 C 0.71084 0.05346 0.47713 0.0
C181 C 0.63378 0.9891 0.50609 0.0
C182 C 0.78985 0.02071 0.4581 0.0
C183 C 0.87512 0.15752 0.44883 0.0
N184 N 0.68348 0.9992 0.49135 0.0
N185 N 0.81562 0.13673 0.45936 0.0
H186 H 0.9694 0.91496 0.77412 0.0
H187 H 0.61289 0.71359 0.83434 0.0
H188 H 0.83033 0.9917 0.78247 0.0
H189 H 0.77899 0.67716 0.85177 0.0
H190 H 0.68445 0.79935 0.80759 0.0
H191 H 0.89352 0.8139 0.79579 0.0
C192 C 0.92264 0.91029 0.7803 0.0
C193 C 0.90616 0.96196 0.77649 0.0
C194 C 0.70525 0.77233 0.8171 0.0
C195 C 0.8193 0.84643 0.801 0.0
C196 C 0.66435 0.72304 0.83235 0.0
C197 C 0.69034 0.68878 0.84562 0.0
C198 C 0.77294 0.78782 0.8149 0.0
C199 C 0.75705 0.70255 0.84195 0.0
C200 C 0.87968 0.8528 0.79273 0.0
C201 C 0.84527 0.95343 0.78506 0.0
N202 N 0.79652 0.75172 0.82704 0.0
N203 N 0.80405 0.89676 0.79682 0.0
H204 H 0.15673 0.02448 0.11194 0.0
H205 H 0.90619 0.69057 0.18077 0.0
H206 H 0.93852 0.94209 0.11086 0.0
H207 H 0.1242 0.77528 0.17772 0.0
H208 H 0.91457 0.78121 0.15554 0.0
H209 H 0.14409 0.93414 0.13733 0.0
C210 C 0.10613 0.98765 0.1172 0.0
C211 C 0.04864 0.99085 0.10924 0.0
C212 C 0.96038 0.77957 0.1604 0.0
C213 C 0.03345 0.88625 0.13822 0.0
C214 C 0.95554 0.72769 0.17468 0.0
C215 C 0.01455 0.72539 0.18147 0.0
C216 C 0.02463 0.82916 0.15293 0.0
C217 C 0.07727 0.77504 0.17313 0.0
C218 C 0.09882 0.93574 0.13165 0.0
C219 C 0.98427 0.94156 0.11663 0.0
N220 N 0.08057 0.82469 0.15943 0.0
N221 N 0.97833 0.89105 0.13065 0.0
H222 H 0.25435 0.21297 0.42582 0.0
H223 H 0.34224 0.06451 0.53673 0.0
H224 H 0.10283 0.06665 0.4694 0.0
H225 H 0.49537 0.2462 0.50509 0.0
H226 H 0.25463 0.06645 0.51204 0.0
H227 H 0.34433 0.22744 0.45397 0.0
C228 C 0.24021 0.185 0.44159 0.0
C229 C 0.17138 0.14038 0.44584 0.0
C230 C 0.30718 0.10637 0.51052 0.0
C231 C 0.27329 0.15459 0.47753 0.0
C232 C 0.35736 0.10517 0.52458 0.0
C233 C 0.4262 0.15492 0.52276 0.0
C234 C 0.32574 0.15707 0.49412 0.0
C235 C 0.44277 0.20691 0.50697 0.0
C236 C 0.29139 0.19296 0.45754 0.0
C237 C 0.1554 0.10265 0.46584 0.0
N238 N 0.39282 0.20615 0.49295 0.0
N239 N 0.20597 0.11073 0.48098 0.0
H240 H 0.17236 0.14592 0.80467 0.0
H241 H 0.37122 0.54557 0.83815 0.0
H242 H 0.19667 0.30041 0.75696 0.0
H243 H 0.40509 0.39833 0.87426 0.0
H244 H 0.29319 0.45431 0.81072 0.0
H245 H 0.24718 0.23638 0.83279 0.0
C246 C 0.19366 0.19898 0.80019 0.0
C247 C 0.17677 0.21627 0.77896 0.0
C248 C 0.31722 0.44202 0.82482 0.0
C249 C 0.26211 0.31942 0.81064 0.0
C250 C 0.36112 0.49386 0.84053 0.0
C251 C 0.39453 0.47925 0.85837 0.0
C252 C 0.30584 0.37522 0.82737 0.0
C253 C 0.38052 0.41164 0.86061 0.0
C254 C 0.23611 0.25048 0.81616 0.0
C255 C 0.20674 0.28545 0.77358 0.0
N256 N 0.33718 0.36213 0.84533 0.0
N257 N 0.24741 0.3347 0.78943 0.0
H258 H 0.91815 0.21679 0.70542 0.0
H259 H 0.67736 0.03442 0.59539 0.0
H260 H 0.90968 0.0411 0.67204 0.0
H261 H 0.74123 0.2422 0.61632 0.0
H262 H 0.75897 0.03351 0.62368 0.0
H263 H 0.84988 0.22394 0.67371 0.0
C264 C 0.90193 0.17948 0.69142 0.0
C265 C 0.9195 0.12781 0.69155 0.0
C266 C 0.75564 0.07951 0.62195 0.0
C267 C 0.84055 0.13601 0.65498 0.0
C268 C 0.70888 0.08009 0.60587 0.0
C269 C 0.70208 0.1384 0.60363 0.0
C270 C 0.79527 0.13727 0.6362 0.0
C271 C 0.74472 0.19619 0.6175 0.0
C272 C 0.86318 0.18402 0.6732 0.0
C273 C 0.89726 0.0816 0.67272 0.0
N274 N 0.78895 0.19388 0.6334 0.0
N275 N 0.85829 0.08636 0.65527 0.0
H276 H 1.00667 0.01268 0.98873 0.0
H277 H 0.60644 0.80384 0.95343 0.0
H278 H 0.85371 1.00478 0.03267 0.0
H279 H 0.7592 0.77035 0.92307 0.0
H280 H 0.6969 0.89401 0.97866 0.0
H281 H 0.91638 0.93838 0.96058 0.0
C282 C 0.9539 0.99569 0.99225 0.0
C283 C 0.9373 0.01636 0.01252 0.0
C284 C 0.71028 0.86697 0.96633 0.0
C285 C 0.83375 0.93039 0.98087 0.0
C286 C 0.65892 0.81604 0.95189 0.0
C287 C 0.67539 0.77916 0.93639 0.0
C288 C 0.77817 0.88126 0.96489 0.0
C289 C 0.74409 0.79679 0.93504 0.0
C290 C 0.90242 0.95335 0.97627 0.0
C291 C 0.86828 0.99167 0.01675 0.0
N292 N 0.79274 0.8463 0.94911 0.0
N293 N 0.81877 0.95004 0.00098 0.0
H294 H 0.95269 0.92738 0.3463 0.0
H295 H 0.20469 0.84227 0.27775 0.0
H296 H 0.17079 0.06341 0.34763 0.0
H297 H 0.98701 0.70827 0.28116 0.0
H298 H 0.19578 0.92542 0.30287 0.0
H299 H 0.966 0.84898 0.32099 0.0
C300 C 1.00341 0.94106 0.3411 0.0
C301 C 0.06067 1.002 0.34912 0.0
C302 C 0.15017 0.87762 0.29811 0.0
C303 C 0.07664 0.91178 0.32024 0.0
C304 C 0.15531 0.83008 0.2839 0.0
C305 C 0.09653 0.76832 0.27724 0.0
C306 C 0.08584 0.86302 0.30563 0.0
C307 C 0.03376 0.7553 0.28565 0.0
C308 C 0.01111 0.89606 0.3267 0.0
C309 C 0.12521 0.01694 0.34181 0.0
N310 N 0.03016 0.80216 0.29927 0.0
N311 N 0.13154 0.97197 0.32784 0.0
H312 H 0.24045 0.18539 0.68143 0.0
H313 H 0.31969 0.93698 0.60569 0.0
H314 H 0.11395 0.96583 0.68168 0.0
H315 H 0.46084 0.15148 0.61943 0.0
H316 H 0.23982 0.94437 0.63173 0.0
H317 H 0.31669 0.17271 0.65575 0.0
C318 C 0.22839 0.1345 0.67594 0.0
C319 C 0.17086 0.07665 0.68377 0.0
C320 C 0.28857 0.98954 0.62907 0.0
C321 C 0.25839 0.06151 0.65445 0.0
C322 C 0.33426 0.98523 0.61435 0.0
C323 C 0.39697 0.0437 0.61025 0.0
C324 C 0.30579 0.0528 0.63957 0.0
C325 C 0.41297 0.10505 0.62184 0.0
C326 C 0.27219 0.12718 0.66137 0.0
C327 C 0.1579 0.01187 0.67609 0.0
N328 N 0.36767 0.108 0.63577 0.0
N329 N 0.20138 1.006 0.66187 0.0
H330 H 0.24392 0.18697 0.01575 0.0
H331 H 0.48767 0.55866 0.96809 0.0
H332 H 0.2002 0.35247 0.01454 0.0
H333 H 0.49031 0.38228 0.9405 0.0
H334 H 0.40249 0.48599 0.99482 0.0
H335 H 0.35092 0.25984 0.99626 0.0
C336 C 0.25712 0.23869 0.01159 0.0
C337 C 0.21296 0.26366 0.0166 0.0
C338 C 0.42233 0.46312 0.98319 0.0
C339 C 0.33499 0.34694 0.99494 0.0
C340 C 0.47132 0.50463 0.96804 0.0
C341 C 0.49542 0.47623 0.95192 0.0
C342 C 0.39655 0.39234 0.98221 0.0
C343 C 0.47293 0.40603 0.95271 0.0
C344 C 0.31788 0.27996 1.00047 0.0
C345 C 0.23226 0.33085 0.0108 0.0
N346 N 0.42364 0.36597 0.96741 0.0
N347 N 0.29175 0.37004 1.00038 0.0
H348 H 0.97355 0.18257 0.33728 0.0
H349 H 0.05592 0.55394 0.29958 0.0
H350 H 0.07395 0.36482 0.38078 0.0
H351 H 0.92117 0.37423 0.25834 0.0
H352 H 0.05853 0.48188 0.32983 0.0
H353 H 0.95069 0.24784 0.30817 0.0
C354 C 0.99062 0.236 0.34077 0.0
C355 C 0.02625 0.26818 0.36153 0.0
C356 C 0.02758 0.45763 0.31435 0.0
C357 C 0.99998 0.34269 0.32841 0.0
C358 C 0.02599 0.49891 0.29709 0.0
C359 C 0.98825 0.46984 0.27653 0.0
C360 C 0.99223 0.38632 0.31096 0.0
C361 C 0.95043 0.39835 0.2741 0.0
C362 C 0.97725 0.27306 0.32419 0.0
C363 C 0.04671 0.33749 0.36511 0.0
N364 N 0.95411 0.35874 0.29105 0.0
N365 N 0.03357 0.37214 0.34874 0.0
loop_
_geom_bond_atom_site_label_1
_geom_bond_atom_site_label_2
_geom_bond_distance
_geom_bond_site_symmetry_2
_ccdc_geom_bond_type
Mn0 O5 2.095 . S
Mn0 O15 2.162 . S
Mn0 O16 2.297 . S
Mn0 O24 2.385 . S
Mn0 O25 2.209 1_455 S
Mn0 O26 2.094 . S
Mn1 O6 2.121 . S
Mn1 N8 2.257 1_455 S
Mn1 N17 2.282 1_454 S
Mn1 O25 2.215 1_455 S
Mn1 O27 2.117 . S
C2 O24 1.234 1_655 S
C2 O25 1.283 . S
C3 O15 1.281 . S
C3 O16 1.236 . S
C4 O26 1.240 . S
C4 O27 1.264 . S
O5 Mn0 2.095 . S
O5 C14 1.250 . S
O6 Mn1 2.121 . S
O6 C14 1.258 . S
C7 N8 1.326 . S
C7 C11 1.460 . S
C7 H13 0.929 . S
N8 Mn1 2.257 1_655 S
N8 C7 1.326 . S
N8 C12 1.362 . S
C9 C10 1.258 . S
C9 C12 1.431 . S
C9 C29 1.449 1_554 S
C10 C9 1.258 . S
C10 C11 1.477 . S
C10 H30 0.931 . S
C11 C7 1.460 . S
C11 C10 1.477 . S
C11 H31 0.930 . S
C12 N8 1.362 . S
C12 C9 1.431 . S
C12 C22 1.476 1_554 S
H13 C7 0.929 . S
C14 O5 1.250 . S
C14 O6 1.258 . S
O15 Mn0 2.162 . S
O15 C3 1.281 . S
O16 Mn0 2.297 . S
O16 C3 1.236 . S
N17 Mn1 2.282 1_656 S
N17 C18 1.328 1_655 S
N17 C22 1.318 . S
C18 N17 1.328 1_455 S
C18 C19 1.457 1_455 S
C18 H23 0.929 . S
C19 C18 1.457 1_655 S
C19 C20 1.291 . S
C19 H32 0.931 1_655 S
C20 C19 1.291 . S
C20 C21 1.373 . S
C20 H33 0.929 . S
C21 C20 1.373 . S
C21 C22 1.396 . S
C21 C28 1.403 . S
C22 C12 1.476 1_556 S
C22 N17 1.318 . S
C22 C21 1.396 . S
H23 C18 0.929 . S
O24 Mn0 2.385 . S
O24 C2 1.234 1_455 S
O25 Mn0 2.209 1_655 S
O25 Mn1 2.215 1_655 S
O25 C2 1.283 . S
O26 Mn0 2.094 . S
O26 C4 1.240 . S
O27 Mn1 2.117 . S
O27 C4 1.264 . S
C28 C21 1.403 . S
C28 C29 1.399 . S
C28 H34 0.929 . S
C29 C9 1.449 1_556 S
C29 C28 1.399 . S
C29 H35 0.930 . S
H30 C10 0.931 . S
H31 C11 0.930 . S
H32 C19 0.931 1_455 S
H33 C20 0.929 . S
H34 C28 0.929 . S
H35 C29 0.930 . S
Mn36 O41 2.095 1_455 S
Mn36 O51 2.162 1_445 S
Mn36 O52 2.297 . S
Mn36 O60 2.385 . S
Mn36 O61 2.209 . S
Mn36 O62 2.094 1_455 S
Mn37 O42 2.121 . S
Mn37 N44 2.257 . S
Mn37 N53 2.282 . S
Mn37 O61 2.215 . S
Mn37 O63 2.117 1_455 S
C38 O60 1.234 . S
C38 O61 1.283 . S
C39 O51 1.281 1_455 S
C39 O52 1.236 1_565 S
C40 O62 1.240 . S
C40 O63 1.264 . S
O41 Mn36 2.095 1_655 S
O41 C50 1.250 1_655 S
O42 Mn37 2.121 . S
O42 C50 1.258 . S
C43 N44 1.326 . S
C43 C47 1.460 . S
C43 H49 0.929 . S
N44 Mn37 2.257 . S
N44 C43 1.326 . S
N44 C48 1.362 . S
C45 C46 1.258 . S
C45 C48 1.431 . S
C45 C65 1.449 . S
C46 C45 1.258 . S
C46 C47 1.477 . S
C46 H66 0.931 . S
C47 C43 1.460 . S
C47 C46 1.477 . S
C47 H67 0.930 . S
C48 N44 1.362 . S
C48 C45 1.431 . S
C48 C58 1.476 . S
H49 C43 0.929 . S
C50 O41 1.250 1_455 S
C50 O42 1.258 . S
O51 Mn36 2.162 1_665 S
O51 C39 1.281 1_655 S
O52 Mn36 2.297 . S
O52 C39 1.236 1_545 S
N53 Mn37 2.282 . S
N53 C54 1.328 . S
N53 C58 1.318 . S
C54 N53 1.328 . S
C54 C55 1.457 . S
C54 H59 0.929 . S
C55 C54 1.457 . S
C55 C56 1.291 . S
C55 H68 0.931 . S
C56 C55 1.291 . S
C56 C57 1.373 . S
C56 H69 0.929 . S
C57 C56 1.373 . S
C57 C58 1.396 . S
C57 C64 1.403 . S
C58 C48 1.476 . S
C58 N53 1.318 . S
C58 C57 1.396 . S
H59 C54 0.929 . S
O60 Mn36 2.385 . S
O60 C38 1.234 . S
O61 Mn36 2.209 . S
O61 Mn37 2.215 . S
O61 C38 1.283 . S
O62 Mn36 2.094 1_655 S
O62 C40 1.240 . S
O63 Mn37 2.117 1_655 S
O63 C40 1.264 . S
C64 C57 1.403 . S
C64 C65 1.399 . S
C64 H70 0.929 . S
C65 C45 1.449 . S
C65 C64 1.399 . S
C65 H71 0.930 . S
H66 C46 0.931 . S
H67 C47 0.930 . S
H68 C55 0.931 . S
H69 C56 0.929 . S
H70 C64 0.929 . S
H71 C65 0.930 . S
Mn72 O77 2.095 1_455 S
Mn72 O87 2.162 . S
Mn72 O88 2.297 . S
Mn72 O96 2.385 . S
Mn72 O97 2.209 . S
Mn72 O98 2.094 1_455 S
Mn73 O78 2.121 . S
Mn73 N80 2.257 1_655 S
Mn73 N89 2.282 1_655 S
Mn73 O97 2.215 1_655 S
Mn73 O99 2.117 . S
C74 O96 1.234 . S
C74 O97 1.283 . S
C75 O87 1.281 . S
C75 O88 1.236 . S
C76 O98 1.240 . S
C76 O99 1.264 . S
O77 Mn72 2.095 1_655 S
O77 C86 1.250 . S
O78 Mn73 2.121 . S
O78 C86 1.258 . S
C79 N80 1.326 1_655 S
C79 C83 1.460 1_655 S
C79 H85 0.929 . S
N80 Mn73 2.257 1_455 S
N80 C79 1.326 1_455 S
N80 C84 1.362 . S
C81 C82 1.258 . S
C81 C84 1.431 . S
C81 C101 1.449 . S
C82 C81 1.258 . S
C82 C83 1.477 . S
C82 H102 0.931 . S
C83 C79 1.460 1_455 S
C83 C82 1.477 . S
C83 H103 0.930 . S
C84 N80 1.362 . S
C84 C81 1.431 . S
C84 C94 1.476 . S
H85 C79 0.929 . S
C86 O77 1.250 . S
C86 O78 1.258 . S
O87 Mn72 2.162 . S
O87 C75 1.281 . S
O88 Mn72 2.297 . S
O88 C75 1.236 . S
N89 Mn73 2.282 1_455 S
N89 C90 1.328 . S
N89 C94 1.318 . S
C90 N89 1.328 . S
C90 C91 1.457 . S
C90 H95 0.929 . S
C91 C90 1.457 . S
C91 C92 1.291 . S
C91 H104 0.931 . S
C92 C91 1.291 . S
C92 C93 1.373 . S
C92 H105 0.929 . S
C93 C92 1.373 . S
C93 C94 1.396 . S
C93 C100 1.403 . S
C94 C84 1.476 . S
C94 N89 1.318 . S
C94 C93 1.396 . S
H95 C90 0.929 . S
O96 Mn72 2.385 . S
O96 C74 1.234 . S
O97 Mn72 2.209 . S
O97 Mn73 2.215 1_455 S
O97 C74 1.283 . S
O98 Mn72 2.094 1_655 S
O98 C76 1.240 . S
O99 Mn73 2.117 . S
O99 C76 1.264 . S
C100 C93 1.403 . S
C100 C101 1.399 . S
C100 H106 0.929 . S
C101 C81 1.449 . S
C101 C100 1.399 . S
C101 H107 0.930 . S
H102 C82 0.931 . S
H103 C83 0.930 . S
H104 C91 0.931 . S
H105 C92 0.929 . S
H106 C100 0.929 . S
H107 C101 0.930 . S
C108 O110 1.247 . S
C108 O112 1.258 1_455 S
C109 O116 1.247 1_455 S
C109 O117 1.258 . S
O110 C108 1.247 . S
O110 Zn111 2.028 . S
Zn111 O110 2.028 . S
Zn111 O115 2.035 . S
Zn111 O117 2.035 . S
Zn111 O118 2.028 . S
O112 C108 1.258 1_655 S
O112 Zn113 2.035 . S
Zn113 O112 2.035 . S
Zn113 O114 2.028 . S
Zn113 O116 2.028 . S
Zn113 O119 2.035 . S
O114 Zn113 2.028 . S
O114 C120 1.247 1_655 S
O115 Zn111 2.035 . S
O115 C120 1.258 . S
O116 C109 1.247 1_655 S
O116 Zn113 2.028 . S
O117 C109 1.258 . S
O117 Zn111 2.035 . S
O118 Zn111 2.028 . S
O118 C121 1.247 . S
O119 Zn113 2.035 . S
O119 C121 1.258 1_655 S
C120 O114 1.247 1_455 S
C120 O115 1.258 . S
C121 O118 1.247 . S
C121 O119 1.258 1_455 S
C122 O124 1.247 . S
C122 O126 1.258 . S
C123 O130 1.247 . S
C123 O131 1.258 . S
O124 C122 1.247 . S
O124 Zn125 2.028 . S
Zn125 O124 2.028 . S
Zn125 O129 2.035 . S
Zn125 O131 2.035 . S
Zn125 O132 2.028 . S
O126 C122 1.258 . S
O126 Zn127 2.035 . S
Zn127 O126 2.035 . S
Zn127 O128 2.028 . S
Zn127 O130 2.028 . S
Zn127 O133 2.035 . S
O128 Zn127 2.028 . S
O128 C134 1.247 . S
O129 Zn125 2.035 . S
O129 C134 1.258 . S
O130 C123 1.247 . S
O130 Zn127 2.028 . S
O131 C123 1.258 . S
O131 Zn125 2.035 . S
O132 Zn125 2.028 . S
O132 C135 1.247 . S
O133 Zn127 2.035 . S
O133 C135 1.258 . S
C134 O128 1.247 . S
C134 O129 1.258 . S
C135 O132 1.247 . S
C135 O133 1.258 . S
C136 O138 1.247 . S
C136 O140 1.258 . S
C137 O144 1.247 . S
C137 O145 1.258 . S
O138 C136 1.247 . S
O138 Zn139 2.028 . S
Zn139 O138 2.028 . S
Zn139 O143 2.035 . S
Zn139 O145 2.035 . S
Zn139 O146 2.028 . S
O140 C136 1.258 . S
O140 Zn141 2.035 . S
Zn141 O140 2.035 . S
Zn141 O142 2.028 . S
Zn141 O144 2.028 . S
Zn141 O147 2.035 . S
O142 Zn141 2.028 . S
O142 C148 1.247 . S
O143 Zn139 2.035 . S
O143 C148 1.258 . S
O144 C137 1.247 . S
O144 Zn141 2.028 . S
O145 C137 1.258 . S
O145 Zn139 2.035 . S
O146 Zn139 2.028 . S
O146 C149 1.247 . S
O147 Zn141 2.035 . S
O147 C149 1.258 . S
C148 O142 1.247 . S
C148 O143 1.258 . S
C149 O146 1.247 . S
C149 O147 1.258 . S
H150 C156 0.930 . S
H151 C160 0.930 1_655 S
H152 C165 0.929 1_655 S
H153 C163 0.929 . S
H154 C158 0.929 1_655 S
H155 C164 0.929 . S
C156 H150 0.930 . S
C156 C157 1.367 . S
C156 C164 1.378 . S
C157 C156 1.367 . S
C157 C165 1.433 . S
C158 H154 0.929 1_455 S
C158 C160 1.378 . S
C158 C162 1.350 . S
C159 C162 1.463 . S
C159 C164 1.350 . S
C159 N167 1.427 . S
C160 H151 0.930 1_455 S
C160 C158 1.378 . S
C160 C161 1.367 . S
C161 C160 1.367 . S
C161 C163 1.433 . S
C162 C158 1.350 . S
C162 C159 1.463 . S
C162 N166 1.427 . S
C163 H153 0.929 . S
C163 C161 1.433 . S
C163 N166 1.384 . S
C164 H155 0.929 . S
C164 C156 1.378 . S
C164 C159 1.350 . S
C165 H152 0.929 1_455 S
C165 C157 1.433 . S
C165 N167 1.384 . S
N166 C162 1.427 . S
N166 C163 1.384 . S
N167 C159 1.427 . S
N167 C165 1.384 . S
H168 C174 0.930 1_565 S
H169 C178 0.930 . S
H170 C183 0.929 . S
H171 C181 0.929 . S
H172 C176 0.929 . S
H173 C182 0.929 . S
C174 H168 0.930 1_545 S
C174 C175 1.367 . S
C174 C182 1.378 . S
C175 C174 1.367 . S
C175 C183 1.433 . S
C176 H172 0.929 . S
C176 C178 1.378 . S
C176 C180 1.350 . S
C177 C180 1.463 . S
C177 C182 1.350 . S
C177 N185 1.427 . S
C178 H169 0.930 . S
C178 C176 1.378 . S
C178 C179 1.367 . S
C179 C178 1.367 . S
C179 C181 1.433 . S
C180 C176 1.350 . S
C180 C177 1.463 . S
C180 N184 1.427 . S
C181 H171 0.929 . S
C181 C179 1.433 . S
C181 N184 1.384 . S
C182 H173 0.929 . S
C182 C174 1.378 . S
C182 C177 1.350 . S
C183 H170 0.929 . S
C183 C175 1.433 . S
C183 N185 1.384 . S
N184 C180 1.427 . S
N184 C181 1.384 . S
N185 C177 1.427 . S
N185 C183 1.384 . S
H186 C192 0.930 . S
H187 C196 0.930 . S
H188 C201 0.929 . S
H189 C199 0.929 . S
H190 C194 0.929 . S
H191 C200 0.929 . S
C192 H186 0.930 . S
C192 C193 1.367 . S
C192 C200 1.378 . S
C193 C192 1.367 . S
C193 C201 1.433 . S
C194 H190 0.929 . S
C194 C196 1.378 . S
C194 C198 1.350 . S
C195 C198 1.463 . S
C195 C200 1.350 . S
C195 N203 1.427 . S
C196 H187 0.930 . S
C196 C194 1.378 . S
C196 C197 1.367 . S
C197 C196 1.367 . S
C197 C199 1.433 . S
C198 C194 1.350 . S
C198 C195 1.463 . S
C198 N202 1.427 . S
C199 H189 0.929 . S
C199 C197 1.433 . S
C199 N202 1.384 . S
C200 H191 0.929 . S
C200 C192 1.378 . S
C200 C195 1.350 . S
C201 H188 0.929 . S
C201 C193 1.433 . S
C201 N203 1.384 . S
N202 C198 1.427 . S
N202 C199 1.384 . S
N203 C195 1.427 . S
N203 C201 1.384 . S
H204 C210 0.930 1_545 S
H205 C214 0.930 . S
H206 C219 0.929 1_655 S
H207 C217 0.929 . S
H208 C212 0.929 . S
H209 C218 0.929 . S
C210 H204 0.930 1_565 S
C210 C211 1.367 . S
C210 C218 1.378 . S
C211 C210 1.367 . S
C211 C219 1.433 . S
C212 H208 0.929 . S
C212 C214 1.378 . S
C212 C216 1.350 1_655 S
C213 C216 1.463 . S
C213 C218 1.350 . S
C213 N221 1.427 . S
C214 H205 0.930 . S
C214 C212 1.378 . S
C214 C215 1.367 1_655 S
C215 C214 1.367 1_455 S
C215 C217 1.433 . S
C216 C212 1.350 1_455 S
C216 C213 1.463 . S
C216 N220 1.427 . S
C217 H207 0.929 . S
C217 C215 1.433 . S
C217 N220 1.384 . S
C218 H209 0.929 . S
C218 C210 1.378 . S
C218 C213 1.350 . S
C219 H206 0.929 1_455 S
C219 C211 1.433 . S
C219 N221 1.384 . S
N220 C216 1.427 . S
N220 C217 1.384 . S
N221 C213 1.427 . S
N221 C219 1.384 . S
H222 C228 0.930 . S
H223 C232 0.930 . S
H224 C237 0.929 . S
H225 C235 0.929 . S
H226 C230 0.929 . S
H227 C236 0.929 . S
C228 H222 0.930 . S
C228 C229 1.367 . S
C228 C236 1.378 . S
C229 C228 1.367 . S
C229 C237 1.433 . S
C230 H226 0.929 . S
C230 C232 1.378 . S
C230 C234 1.350 . S
C231 C234 1.463 . S
C231 C236 1.350 . S
C231 N239 1.427 . S
C232 H223 0.930 . S
C232 C230 1.378 . S
C232 C233 1.367 . S
C233 C232 1.367 . S
C233 C235 1.433 . S
C234 C230 1.350 . S
C234 C231 1.463 . S
C234 N238 1.427 . S
C235 H225 0.929 . S
C235 C233 1.433 . S
C235 N238 1.384 . S
C236 H227 0.929 . S
C236 C228 1.378 . S
C236 C231 1.350 . S
C237 H224 0.929 . S
C237 C229 1.433 . S
C237 N239 1.384 . S
N238 C234 1.427 . S
N238 C235 1.384 . S
N239 C231 1.427 . S
N239 C237 1.384 . S
H240 C246 0.930 . S
H241 C250 0.930 . S
H242 C255 0.929 . S
H243 C253 0.929 . S
H244 C248 0.929 . S
H245 C254 0.929 . S
C246 H240 0.930 . S
C246 C247 1.367 . S
C246 C254 1.378 . S
C247 C246 1.367 . S
C247 C255 1.433 . S
C248 H244 0.929 . S
C248 C250 1.378 . S
C248 C252 1.350 . S
C249 C252 1.463 . S
C249 C254 1.350 . S
C249 N257 1.427 . S
C250 H241 0.930 . S
C250 C248 1.378 . S
C250 C251 1.367 . S
C251 C250 1.367 . S
C251 C253 1.433 . S
C252 C248 1.350 . S
C252 C249 1.463 . S
C252 N256 1.427 . S
C253 H243 0.929 . S
C253 C251 1.433 . S
C253 N256 1.384 . S
C254 H245 0.929 . S
C254 C246 1.378 . S
C254 C249 1.350 . S
C255 H242 0.929 . S
C255 C247 1.433 . S
C255 N257 1.384 . S
N256 C252 1.427 . S
N256 C253 1.384 . S
N257 C249 1.427 . S
N257 C255 1.384 . S
H258 C264 0.930 . S
H259 C268 0.930 . S
H260 C273 0.929 . S
H261 C271 0.929 . S
H262 C266 0.929 . S
H263 C272 0.929 . S
C264 H258 0.930 . S
C264 C265 1.367 . S
C264 C272 1.378 . S
C265 C264 1.367 . S
C265 C273 1.433 . S
C266 H262 0.929 . S
C266 C268 1.378 . S
C266 C270 1.350 . S
C267 C270 1.463 . S
C267 C272 1.350 . S
C267 N275 1.427 . S
C268 H259 0.930 . S
C268 C266 1.378 . S
C268 C269 1.367 . S
C269 C268 1.367 . S
C269 C271 1.433 . S
C270 C266 1.350 . S
C270 C267 1.463 . S
C270 N274 1.427 . S
C271 H261 0.929 . S
C271 C269 1.433 . S
C271 N274 1.384 . S
C272 H263 0.929 . S
C272 C264 1.378 . S
C272 C267 1.350 . S
C273 H260 0.929 . S
C273 C265 1.433 . S
C273 N275 1.384 . S
N274 C270 1.427 . S
N274 C271 1.384 . S
N275 C267 1.427 . S
N275 C273 1.384 . S
H276 C282 0.930 1_545 S
H277 C286 0.930 . S
H278 C291 0.929 . S
H279 C289 0.929 . S
H280 C284 0.929 . S
H281 C290 0.929 . S
C282 H276 0.930 1_565 S
C282 C283 1.367 1_556 S
C282 C290 1.378 . S
C283 C282 1.367 1_554 S
C283 C291 1.433 . S
C284 H280 0.929 . S
C284 C286 1.378 . S
C284 C288 1.350 . S
C285 C288 1.463 . S
C285 C290 1.350 . S
C285 N293 1.427 1_556 S
C286 H277 0.930 . S
C286 C284 1.378 . S
C286 C287 1.367 . S
C287 C286 1.367 . S
C287 C289 1.433 . S
C288 C284 1.350 . S
C288 C285 1.463 . S
C288 N292 1.427 . S
C289 H279 0.929 . S
C289 C287 1.433 . S
C289 N292 1.384 . S
C290 H281 0.929 . S
C290 C282 1.378 . S
C290 C285 1.350 . S
C291 H278 0.929 . S
C291 C283 1.433 . S
C291 N293 1.384 . S
N292 C288 1.427 . S
N292 C289 1.384 . S
N293 C285 1.427 1_554 S
N293 C291 1.384 . S
H294 C300 0.930 . S
H295 C304 0.930 . S
H296 C309 0.929 1_545 S
H297 C307 0.929 . S
H298 C302 0.929 . S
H299 C308 0.929 . S
C300 H294 0.930 . S
C300 C301 1.367 1_655 S
C300 C308 1.378 . S
C301 C300 1.367 1_455 S
C301 C309 1.433 . S
C302 H298 0.929 . S
C302 C304 1.378 . S
C302 C306 1.350 . S
C303 C306 1.463 . S
C303 C308 1.350 1_455 S
C303 N311 1.427 . S
C304 H295 0.930 . S
C304 C302 1.378 . S
C304 C305 1.367 . S
C305 C304 1.367 . S
C305 C307 1.433 1_455 S
C306 C302 1.350 . S
C306 C303 1.463 . S
C306 N310 1.427 1_455 S
C307 H297 0.929 . S
C307 C305 1.433 1_655 S
C307 N310 1.384 . S
C308 H299 0.929 . S
C308 C300 1.378 . S
C308 C303 1.350 1_655 S
C309 H296 0.929 1_565 S
C309 C301 1.433 . S
C309 N311 1.384 . S
N310 C306 1.427 1_655 S
N310 C307 1.384 . S
N311 C303 1.427 . S
N311 C309 1.384 . S
H312 C318 0.930 . S
H313 C322 0.930 . S
H314 C327 0.929 . S
H315 C325 0.929 . S
H316 C320 0.929 . S
H317 C326 0.929 . S
C318 H312 0.930 . S
C318 C319 1.367 . S
C318 C326 1.378 . S
C319 C318 1.367 . S
C319 C327 1.433 . S
C320 H316 0.929 . S
C320 C322 1.378 . S
C320 C324 1.350 . S
C321 C324 1.463 . S
C321 C326 1.350 . S
C321 N329 1.427 . S
C322 H313 0.930 . S
C322 C320 1.378 . S
C322 C323 1.367 . S
C323 C322 1.367 . S
C323 C325 1.433 . S
C324 C320 1.350 . S
C324 C321 1.463 . S
C324 N328 1.427 . S
C325 H315 0.929 . S
C325 C323 1.433 . S
C325 N328 1.384 . S
C326 H317 0.929 . S
C326 C318 1.378 . S
C326 C321 1.350 . S
C327 H314 0.929 . S
C327 C319 1.433 . S
C327 N329 1.384 . S
N328 C324 1.427 . S
N328 C325 1.384 . S
N329 C321 1.427 . S
N329 C327 1.384 . S
H330 C336 0.930 . S
H331 C340 0.930 . S
H332 C345 0.928 . S
H333 C343 0.929 . S
H334 C338 0.929 . S
H335 C344 0.928 . S
C336 H330 0.930 . S
C336 C337 1.367 . S
C336 C344 1.413 . S
C337 C336 1.367 . S
C337 C345 1.458 . S
C338 H334 0.929 . S
C338 C340 1.378 . S
C338 C342 1.350 . S
C339 C342 1.463 . S
C339 C344 1.319 1_556 S
C339 N347 1.427 . S
C340 H331 0.930 . S
C340 C338 1.378 . S
C340 C341 1.367 . S
C341 C340 1.367 . S
C341 C343 1.433 . S
C342 C338 1.350 . S
C342 C339 1.463 . S
C342 N346 1.427 . S
C343 H333 0.929 . S
C343 C341 1.433 . S
C343 N346 1.384 . S
C344 H335 0.928 . S
C344 C336 1.413 . S
C344 C339 1.319 1_554 S
C345 H332 0.928 . S
C345 C337 1.458 . S
C345 N347 1.358 1_554 S
N346 C342 1.427 . S
N346 C343 1.384 . S
N347 C339 1.427 . S
N347 C345 1.358 1_556 S
H348 C354 0.930 . S
H349 C358 0.930 . S
H350 C363 0.929 . S
H351 C361 0.929 . S
H352 C356 0.929 . S
H353 C362 0.929 . S
C354 H348 0.930 . S
C354 C355 1.367 1_655 S
C354 C362 1.378 . S
C355 C354 1.367 1_455 S
C355 C363 1.433 . S
C356 H352 0.929 . S
C356 C358 1.378 . S
C356 C360 1.350 . S
C357 C360 1.463 . S
C357 C362 1.350 1_455 S
C357 N365 1.427 . S
C358 H349 0.930 . S
C358 C356 1.378 . S
C358 C359 1.367 . S
C359 C358 1.367 . S
C359 C361 1.433 1_455 S
C360 C356 1.350 . S
C360 C357 1.463 . S
C360 N364 1.427 1_455 S
C361 H351 0.929 . S
C361 C359 1.433 1_655 S
C361 N364 1.384 . S
C362 H353 0.929 . S
C362 C354 1.378 . S
C362 C357 1.350 1_655 S
C363 H350 0.929 . S
C363 C355 1.433 . S
C363 N365 1.384 . S
N364 C360 1.427 1_655 S
N364 C361 1.384 . S
N365 C357 1.427 . S
N365 C363 1.384 . S
C161 C109 1.468 . S
C157 C14 1.436 . S
C175 C40 1.463 . S
C179 C135 1.476 . S
C193 C76 1.448 1_565 S
C197 C137 1.460 . S
C211 C3 1.439 1_565 S
C215 C121 1.439 . S
C233 C123 1.480 . S
C229 C38 1.462 . S
C247 C74 1.444 . S
C251 C149 1.458 . S
C269 C122 1.435 . S
C265 C86 1.404 . S
C283 C2 1.441 1_565 S
C287 C148 1.458 . S
C305 C108 1.440 . S
C301 C39 1.440 . S
C323 C134 1.447 . S
C319 C75 1.448 . S
C341 C136 1.462 . S
C337 C4 1.450 . S
C355 C50 1.436 . S
C359 C120 1.468 . S
