# Generated by pormake.
# Topology gar, (4,6)-cn, num edge types: 1
# Building blocks:
#     Node 0, Type 0, BuildingBlock: CEKHIL_clean_sbu_0, # of connection points: 4
#     Node 1, Type 0, BuildingBlock: CEKHIL_clean_sbu_0, # of connection points: 4
#     Node 2, Type 0, BuildingBlock: CEKHIL_clean_sbu_0, # of connection points: 4
#     Node 3, Type 0, BuildingBlock: CEKHIL_clean_sbu_0, # of connection points: 4
#     Node 4, Type 0, BuildingBlock: CEKHIL_clean_sbu_0, # of connection points: 4
#     Node 5, Type 0, BuildingBlock: CEKHIL_clean_sbu_0, # of connection points: 4
#     Node 6, Type 0, BuildingBlock: CEKHIL_clean_sbu_0, # of connection points: 4
#     Node 7, Type 0, BuildingBlock: CEKHIL_clean_sbu_0, # of connection points: 4
#     Node 8, Type 0, BuildingBlock: CEKHIL_clean_sbu_0, # of connection points: 4
#     Node 9, Type 0, BuildingBlock: CEKHIL_clean_sbu_0, # of connection points: 4
#     Node 10, Type 0, BuildingBlock: CEKHIL_clean_sbu_0, # of connection points: 4
#     Node 11, Type 0, BuildingBlock: CEKHIL_clean_sbu_0, # of connection points: 4
#     Node 12, Type 0, BuildingBlock: CEKHIL_clean_sbu_0, # of connection points: 4
#     Node 13, Type 0, BuildingBlock: CEKHIL_clean_sbu_0, # of connection points: 4
#     Node 14, Type 0, BuildingBlock: CEKHIL_clean_sbu_0, # of connection points: 4
#     Node 15, Type 0, BuildingBlock: CEKHIL_clean_sbu_0, # of connection points: 4
#     Node 16, Type 0, BuildingBlock: CEKHIL_clean_sbu_0, # of connection points: 4
#     Node 17, Type 0, BuildingBlock: CEKHIL_clean_sbu_0, # of connection points: 4
#     Node 18, Type 0, BuildingBlock: CEKHIL_clean_sbu_0, # of connection points: 4
#     Node 19, Type 0, BuildingBlock: CEKHIL_clean_sbu_0, # of connection points: 4
#     Node 20, Type 0, BuildingBlock: CEKHIL_clean_sbu_0, # of connection points: 4
#     Node 21, Type 0, BuildingBlock: CEKHIL_clean_sbu_0, # of connection points: 4
#     Node 22, Type 0, BuildingBlock: CEKHIL_clean_sbu_0, # of connection points: 4
#     Node 23, Type 0, BuildingBlock: CEKHIL_clean_sbu_0, # of connection points: 4
#     Node 24, Type 1, BuildingBlock: BETDAH_clean_sbu_0, # of connection points: 6
#     Node 25, Type 1, BuildingBlock: BETDAH_clean_sbu_0, # of connection points: 6
#     Node 26, Type 1, BuildingBlock: BETDAH_clean_sbu_0, # of connection points: 6
#     Node 27, Type 1, BuildingBlock: BETDAH_clean_sbu_0, # of connection points: 6
#     Node 28, Type 1, BuildingBlock: BETDAH_clean_sbu_0, # of connection points: 6
#     Node 29, Type 1, BuildingBlock: BETDAH_clean_sbu_0, # of connection points: 6
#     Node 30, Type 1, BuildingBlock: BETDAH_clean_sbu_0, # of connection points: 6
#     Node 31, Type 1, BuildingBlock: BETDAH_clean_sbu_0, # of connection points: 6
#     Node 32, Type 1, BuildingBlock: BETDAH_clean_sbu_0, # of connection points: 6
#     Node 33, Type 1, BuildingBlock: BETDAH_clean_sbu_0, # of connection points: 6
#     Node 34, Type 1, BuildingBlock: BETDAH_clean_sbu_0, # of connection points: 6
#     Node 35, Type 1, BuildingBlock: BETDAH_clean_sbu_0, # of connection points: 6
#     Node 36, Type 1, BuildingBlock: BETDAH_clean_sbu_0, # of connection points: 6
#     Node 37, Type 1, BuildingBlock: BETDAH_clean_sbu_0, # of connection points: 6
#     Node 38, Type 1, BuildingBlock: BETDAH_clean_sbu_0, # of connection points: 6
#     Node 39, Type 1, BuildingBlock: BETDAH_clean_sbu_0, # of connection points: 6
#     Edge 40, Type (0, 1), BuildingBlock: OJICUG_clean_linker_0, # of connection points: 2
#     Edge 41, Type (0, 1), BuildingBlock: OJICUG_clean_linker_0, # of connection points: 2
#     Edge 42, Type (0, 1), BuildingBlock: OJICUG_clean_linker_0, # of connection points: 2
#     Edge 43, Type (0, 1), BuildingBlock: OJICUG_clean_linker_0, # of connection points: 2
#     Edge 44, Type (0, 1), BuildingBlock: OJICUG_clean_linker_0, # of connection points: 2
#     Edge 45, Type (0, 1), BuildingBlock: OJICUG_clean_linker_0, # of connection points: 2
#     Edge 46, Type (0, 1), BuildingBlock: OJICUG_clean_linker_0, # of connection points: 2
#     Edge 47, Type (0, 1), BuildingBlock: OJICUG_clean_linker_0, # of connection points: 2
#     Edge 48, Type (0, 1), BuildingBlock: OJICUG_clean_linker_0, # of connection points: 2
#     Edge 49, Type (0, 1), BuildingBlock: OJICUG_clean_linker_0, # of connection points: 2
#     Edge 50, Type (0, 1), BuildingBlock: OJICUG_clean_linker_0, # of connection points: 2
#     Edge 51, Type (0, 1), BuildingBlock: OJICUG_clean_linker_0, # of connection points: 2
#     Edge 52, Type (0, 1), BuildingBlock: OJICUG_clean_linker_0, # of connection points: 2
#     Edge 53, Type (0, 1), BuildingBlock: OJICUG_clean_linker_0, # of connection points: 2
#     Edge 54, Type (0, 1), BuildingBlock: OJICUG_clean_linker_0, # of connection points: 2
#     Edge 55, Type (0, 1), BuildingBlock: OJICUG_clean_linker_0, # of connection points: 2
#     Edge 56, Type (0, 1), BuildingBlock: OJICUG_clean_linker_0, # of connection points: 2
#     Edge 57, Type (0, 1), BuildingBlock: OJICUG_clean_linker_0, # of connection points: 2
#     Edge 58, Type (0, 1), BuildingBlock: OJICUG_clean_linker_0, # of connection points: 2
#     Edge 59, Type (0, 1), BuildingBlock: OJICUG_clean_linker_0, # of connection points: 2
#     Edge 60, Type (0, 1), BuildingBlock: OJICUG_clean_linker_0, # of connection points: 2
#     Edge 61, Type (0, 1), BuildingBlock: OJICUG_clean_linker_0, # of connection points: 2
#     Edge 62, Type (0, 1), BuildingBlock: OJICUG_clean_linker_0, # of connection points: 2
#     Edge 63, Type (0, 1), BuildingBlock: OJICUG_clean_linker_0, # of connection points: 2
#     Edge 64, Type (0, 1), BuildingBlock: OJICUG_clean_linker_0, # of connection points: 2
#     Edge 65, Type (0, 1), BuildingBlock: OJICUG_clean_linker_0, # of connection points: 2
#     Edge 66, Type (0, 1), BuildingBlock: OJICUG_clean_linker_0, # of connection points: 2
#     Edge 67, Type (0, 1), BuildingBlock: OJICUG_clean_linker_0, # of connection points: 2
#     Edge 68, Type (0, 1), BuildingBlock: OJICUG_clean_linker_0, # of connection points: 2
#     Edge 69, Type (0, 1), BuildingBlock: OJICUG_clean_linker_0, # of connection points: 2
#     Edge 70, Type (0, 1), BuildingBlock: OJICUG_clean_linker_0, # of connection points: 2
#     Edge 71, Type (0, 1), BuildingBlock: OJICUG_clean_linker_0, # of connection points: 2
#     Edge 72, Type (0, 1), BuildingBlock: OJICUG_clean_linker_0, # of connection points: 2
#     Edge 73, Type (0, 1), BuildingBlock: OJICUG_clean_linker_0, # of connection points: 2
#     Edge 74, Type (0, 1), BuildingBlock: OJICUG_clean_linker_0, # of connection points: 2
#     Edge 75, Type (0, 1), BuildingBlock: OJICUG_clean_linker_0, # of connection points: 2
#     Edge 76, Type (0, 1), BuildingBlock: OJICUG_clean_linker_0, # of connection points: 2
#     Edge 77, Type (0, 1), BuildingBlock: OJICUG_clean_linker_0, # of connection points: 2
#     Edge 78, Type (0, 1), BuildingBlock: OJICUG_clean_linker_0, # of connection points: 2
#     Edge 79, Type (0, 1), BuildingBlock: OJICUG_clean_linker_0, # of connection points: 2
#     Edge 80, Type (0, 1), BuildingBlock: OJICUG_clean_linker_0, # of connection points: 2
#     Edge 81, Type (0, 1), BuildingBlock: OJICUG_clean_linker_0, # of connection points: 2
#     Edge 82, Type (0, 1), BuildingBlock: OJICUG_clean_linker_0, # of connection points: 2
#     Edge 83, Type (0, 1), BuildingBlock: OJICUG_clean_linker_0, # of connection points: 2
#     Edge 84, Type (0, 1), BuildingBlock: OJICUG_clean_linker_0, # of connection points: 2
#     Edge 85, Type (0, 1), BuildingBlock: OJICUG_clean_linker_0, # of connection points: 2
#     Edge 86, Type (0, 1), BuildingBlock: OJICUG_clean_linker_0, # of connection points: 2
#     Edge 87, Type (0, 1), BuildingBlock: OJICUG_clean_linker_0, # of connection points: 2
#     Edge 88, Type (0, 1), BuildingBlock: OJICUG_clean_linker_0, # of connection points: 2
#     Edge 89, Type (0, 1), BuildingBlock: OJICUG_clean_linker_0, # of connection points: 2
#     Edge 90, Type (0, 1), BuildingBlock: OJICUG_clean_linker_0, # of connection points: 2
#     Edge 91, Type (0, 1), BuildingBlock: OJICUG_clean_linker_0, # of connection points: 2
#     Edge 92, Type (0, 1), BuildingBlock: OJICUG_clean_linker_0, # of connection points: 2
#     Edge 93, Type (0, 1), BuildingBlock: OJICUG_clean_linker_0, # of connection points: 2
#     Edge 94, Type (0, 1), BuildingBlock: OJICUG_clean_linker_0, # of connection points: 2
#     Edge 95, Type (0, 1), BuildingBlock: OJICUG_clean_linker_0, # of connection points: 2
#     Edge 96, Type (0, 1), BuildingBlock: OJICUG_clean_linker_0, # of connection points: 2
#     Edge 97, Type (0, 1), BuildingBlock: OJICUG_clean_linker_0, # of connection points: 2
#     Edge 98, Type (0, 1), BuildingBlock: OJICUG_clean_linker_0, # of connection points: 2
#     Edge 99, Type (0, 1), BuildingBlock: OJICUG_clean_linker_0, # of connection points: 2
#     Edge 100, Type (0, 1), BuildingBlock: OJICUG_clean_linker_0, # of connection points: 2
#     Edge 101, Type (0, 1), BuildingBlock: OJICUG_clean_linker_0, # of connection points: 2
#     Edge 102, Type (0, 1), BuildingBlock: OJICUG_clean_linker_0, # of connection points: 2
#     Edge 103, Type (0, 1), BuildingBlock: OJICUG_clean_linker_0, # of connection points: 2
#     Edge 104, Type (0, 1), BuildingBlock: OJICUG_clean_linker_0, # of connection points: 2
#     Edge 105, Type (0, 1), BuildingBlock: OJICUG_clean_linker_0, # of connection points: 2
#     Edge 106, Type (0, 1), BuildingBlock: OJICUG_clean_linker_0, # of connection points: 2
#     Edge 107, Type (0, 1), BuildingBlock: OJICUG_clean_linker_0, # of connection points: 2
#     Edge 108, Type (0, 1), BuildingBlock: OJICUG_clean_linker_0, # of connection points: 2
#     Edge 109, Type (0, 1), BuildingBlock: OJICUG_clean_linker_0, # of connection points: 2
#     Edge 110, Type (0, 1), BuildingBlock: OJICUG_clean_linker_0, # of connection points: 2
#     Edge 111, Type (0, 1), BuildingBlock: OJICUG_clean_linker_0, # of connection points: 2
#     Edge 112, Type (0, 1), BuildingBlock: OJICUG_clean_linker_0, # of connection points: 2
#     Edge 113, Type (0, 1), BuildingBlock: OJICUG_clean_linker_0, # of connection points: 2
#     Edge 114, Type (0, 1), BuildingBlock: OJICUG_clean_linker_0, # of connection points: 2
#     Edge 115, Type (0, 1), BuildingBlock: OJICUG_clean_linker_0, # of connection points: 2
#     Edge 116, Type (0, 1), BuildingBlock: OJICUG_clean_linker_0, # of connection points: 2
#     Edge 117, Type (0, 1), BuildingBlock: OJICUG_clean_linker_0, # of connection points: 2
#     Edge 118, Type (0, 1), BuildingBlock: OJICUG_clean_linker_0, # of connection points: 2
#     Edge 119, Type (0, 1), BuildingBlock: OJICUG_clean_linker_0, # of connection points: 2
#     Edge 120, Type (0, 1), BuildingBlock: OJICUG_clean_linker_0, # of connection points: 2
#     Edge 121, Type (0, 1), BuildingBlock: OJICUG_clean_linker_0, # of connection points: 2
#     Edge 122, Type (0, 1), BuildingBlock: OJICUG_clean_linker_0, # of connection points: 2
#     Edge 123, Type (0, 1), BuildingBlock: OJICUG_clean_linker_0, # of connection points: 2
#     Edge 124, Type (0, 1), BuildingBlock: OJICUG_clean_linker_0, # of connection points: 2
#     Edge 125, Type (0, 1), BuildingBlock: OJICUG_clean_linker_0, # of connection points: 2
#     Edge 126, Type (0, 1), BuildingBlock: OJICUG_clean_linker_0, # of connection points: 2
#     Edge 127, Type (0, 1), BuildingBlock: OJICUG_clean_linker_0, # of connection points: 2
#     Edge 128, Type (0, 1), BuildingBlock: OJICUG_clean_linker_0, # of connection points: 2
#     Edge 129, Type (0, 1), BuildingBlock: OJICUG_clean_linker_0, # of connection points: 2
#     Edge 130, Type (0, 1), BuildingBlock: OJICUG_clean_linker_0, # of connection points: 2
#     Edge 131, Type (0, 1), BuildingBlock: OJICUG_clean_linker_0, # of connection points: 2
#     Edge 132, Type (0, 1), BuildingBlock: OJICUG_clean_linker_0, # of connection points: 2
#     Edge 133, Type (0, 1), BuildingBlock: OJICUG_clean_linker_0, # of connection points: 2
#     Edge 134, Type (0, 1), BuildingBlock: OJICUG_clean_linker_0, # of connection points: 2
#     Edge 135, Type (0, 1), BuildingBlock: OJICUG_clean_linker_0, # of connection points: 2
# Relax obj value: 0.247
# Max RMSD: 0.341
# Mean RMSD: 0.172
data_MOF--net-gar--node1-CEKHIL_clean_sbu_0--node2-BETDAH_clean_sbu_0--edge1-OJICUG_clean_linker_0
_symmetry_space_group_name_H-M    P1
_symmetry_Int_Tables_number       1
_symmetry_cell_setting            triclinic
loop_
_symmetry_equiv_pos_as_xyz
'x, y, z'
_cell_length_a     47.462577
_cell_length_b     41.093723
_cell_length_c     40.639967
_cell_angle_alpha  99.472061
_cell_angle_beta   95.962433
_cell_angle_gamma 102.43416
loop_
_atom_site_label
_atom_site_type_symbol
_atom_site_fract_x
_atom_site_fract_y
_atom_site_fract_z
_atom_type_partial_charge
Co0 Co 0.19294 0.42189 0.41942 0.0
O1 O 0.23261 0.42353 0.41269 0.0
O2 O 0.1937 0.39488 0.37611 0.0
C3 C 0.19841 0.47781 0.43831 0.0
O4 O 0.14919 0.41594 0.41658 0.0
Co5 Co 0.1771 0.44454 0.49067 0.0
O6 O 0.13827 0.44185 0.46513 0.0
C7 C 0.1903 0.37766 0.4729 0.0
C8 C 0.22195 0.40447 0.38338 0.0
C9 C 0.131 0.42665 0.43442 0.0
O10 O 0.19072 0.38094 0.44189 0.0
O11 O 0.18865 0.40165 0.49651 0.0
O12 O 0.19521 0.46606 0.40609 0.0
O13 O 0.20164 0.45635 0.45736 0.0
Co14 Co 1.01439 0.77258 0.66667 0.0
O15 O 0.97376 0.76 0.67083 0.0
O16 O 1.00994 0.76422 0.71162 0.0
C17 C 1.0123 0.81752 0.64207 0.0
O18 O 0.05857 0.78534 0.67175 0.0
Co19 Co 0.03422 0.7728 0.59544 0.0
O20 O 0.07391 0.78994 0.62173 0.0
C21 C 1.01131 0.70949 0.61726 0.0
C22 C 0.98204 0.75872 0.70194 0.0
C23 C 0.07897 0.79153 0.6535 0.0
O24 O 1.01518 0.72405 0.64851 0.0
O25 O 1.00982 0.72593 0.59326 0.0
O26 O 1.01401 0.82106 0.67466 0.0
O27 O 1.00908 0.78704 0.62603 0.0
Co28 Co 0.69411 0.92123 0.91869 0.0
O29 O 0.73412 0.92425 0.91234 0.0
O30 O 0.69585 0.89441 0.87552 0.0
C31 C 0.69777 0.9769 0.93754 0.0
O32 O 0.65016 0.91372 0.91555 0.0
Co33 Co 0.67791 0.94271 0.99007 0.0
O34 O 0.63879 0.93842 0.96442 0.0
C35 C 0.69263 0.87682 0.97213 0.0
C36 C 0.72406 0.90466 0.88316 0.0
C37 C 0.63169 0.92344 0.93362 0.0
O38 O 0.69286 0.88037 0.94117 0.0
O39 O 0.69065 0.9005 0.99588 0.0
O40 O 0.69508 0.96527 0.90534 0.0
O41 O 0.70182 0.95572 0.95661 0.0
Co42 Co 0.51418 0.27364 0.16926 0.0
O43 O 0.47334 0.2616 0.17261 0.0
O44 O 0.50887 0.2676 0.21469 0.0
C45 C 0.51251 0.31713 0.14216 0.0
O46 O 0.55841 0.28631 0.17536 0.0
Co47 Co 0.53584 0.27151 0.09874 0.0
O48 O 0.57471 0.29185 0.12604 0.0
C49 C 0.51557 0.2083 0.12438 0.0
C50 C 0.48106 0.26171 0.20422 0.0
C51 C 0.57919 0.29332 0.15781 0.0
O52 O 0.51495 0.22448 0.15417 0.0
O53 O 0.51926 0.22257 0.0989 0.0
O54 O 0.51376 0.32198 0.17474 0.0
O55 O 0.50956 0.28623 0.12737 0.0
Co56 Co 0.14682 0.86692 0.15197 0.0
O57 O 0.10485 0.86276 0.1426 0.0
O58 O 0.1284 0.85794 0.19056 0.0
C59 C 0.15624 0.91537 0.12827 0.0
O60 O 0.18816 0.86957 0.17655 0.0
Co61 Co 0.19026 0.86489 0.10771 0.0
O62 O 0.22323 0.8712 0.14464 0.0
C63 C 0.15086 0.79968 0.11036 0.0
C64 C 0.10387 0.85775 0.17329 0.0
C65 C 0.21509 0.87055 0.17331 0.0
O66 O 0.14056 0.81603 0.13428 0.0
O67 O 0.17029 0.81502 0.09499 0.0
O68 O 0.15301 0.91661 0.1598 0.0
O69 O 0.15635 0.88532 0.11197 0.0
Co70 Co 0.54756 0.80962 0.44038 0.0
O71 O 0.58957 0.81916 0.44532 0.0
O72 O 0.56059 0.79176 0.39856 0.0
C73 C 0.54664 0.86394 0.46374 0.0
O74 O 0.50292 0.79735 0.42409 0.0
Co75 Co 0.5155 0.81328 0.49969 0.0
O76 O 0.48142 0.81551 0.4676 0.0
C77 C 0.5461 0.75851 0.48761 0.0
C78 C 0.58707 0.80452 0.41406 0.0
C79 C 0.48048 0.80513 0.43611 0.0
O80 O 0.54746 0.76524 0.45775 0.0
O81 O 0.53613 0.77693 0.50995 0.0
O82 O 0.54837 0.8552 0.43203 0.0
O83 O 0.54705 0.84024 0.48124 0.0
Co84 Co 0.64766 0.36658 0.64892 0.0
O85 O 0.6054 0.3605 0.6413 0.0
O86 O 0.63094 0.358 0.68888 0.0
C87 C 0.65472 0.41434 0.62416 0.0
O88 O 0.69044 0.3723 0.67148 0.0
Co89 Co 0.68787 0.36401 0.59991 0.0
O90 O 0.72181 0.36894 0.63493 0.0
C91 C 0.65107 0.29903 0.60652 0.0
C92 C 0.60569 0.3565 0.67239 0.0
C93 C 0.71644 0.37164 0.66506 0.0
O94 O 0.64252 0.31551 0.63196 0.0
O95 O 0.66833 0.31425 0.58878 0.0
O96 O 0.65237 0.41601 0.65593 0.0
O97 O 0.65447 0.38418 0.60794 0.0
Co98 Co 0.04845 0.30927 0.93954 0.0
O99 O 0.09055 0.31777 0.94588 0.0
O100 O 0.06229 0.29158 0.89828 0.0
C101 C 0.0481 0.36387 0.96322 0.0
O102 O 1.00407 0.29839 0.92128 0.0
Co103 Co 1.01409 0.31214 0.9966 0.0
O104 O 0.98119 0.31598 0.96369 0.0
C105 C 0.04488 0.25733 0.986 0.0
C106 C 0.08857 0.30368 0.91449 0.0
C107 C 0.98129 0.30641 0.93227 0.0
O108 O 0.0468 0.26423 0.95627 0.0
O109 O 0.03438 0.2757 1.00786 0.0
O110 O 0.05109 0.35525 0.93187 0.0
O111 O 0.04689 0.33969 0.98043 0.0
Co112 Co 0.46169 0.08228 0.34094 0.0
O113 O 0.45729 0.12068 0.32064 0.0
O114 O 0.42139 0.08016 0.32991 0.0
C115 C 0.49689 0.10982 0.38408 0.0
O116 O 0.45505 0.03997 0.3605 0.0
Co117 Co 0.51711 0.05459 0.35053 0.0
O118 O 0.49414 1.01943 0.37166 0.0
C119 C 0.47979 0.03818 0.28381 0.0
C120 C 0.42936 0.10731 0.31766 0.0
C121 C 0.46708 1.01805 0.37134 0.0
O122 O 0.46163 0.0547 0.29518 0.0
O123 O 0.50327 0.03654 0.30134 0.0
O124 O 0.46975 0.11006 0.38633 0.0
O125 O 0.502 0.09527 0.35548 0.0
Co126 Co 0.31211 0.22713 0.50731 0.0
O127 O 0.35444 0.23553 0.51264 0.0
O128 O 0.32466 0.18788 0.51763 0.0
C129 C 0.30903 0.24906 0.45851 0.0
O130 O 0.26811 0.20527 0.50266 0.0
Co131 Co 0.27691 0.27905 0.50948 0.0
O132 O 0.24061 0.24306 0.50502 0.0
C133 C 0.30753 0.27248 0.57376 0.0
C134 C 0.35121 0.20479 0.51829 0.0
C135 C 0.24309 0.21265 0.50285 0.0
O136 O 0.31437 0.2461 0.55769 0.0
O137 O 0.29396 0.29069 0.55852 0.0
O138 O 0.31043 0.21776 0.45803 0.0
O139 O 0.30942 0.26653 0.48836 0.0
Co140 Co 0.22332 0.05463 0.80738 0.0
O141 O 0.22059 1.00222 0.80116 0.0
O142 O 0.25934 0.03616 0.79644 0.0
C143 C 0.19943 0.06122 0.86048 0.0
O144 O 0.24424 0.10804 0.81197 0.0
Co145 Co 0.18162 0.09986 0.81191 0.0
O146 O 0.21326 0.1418 0.81607 0.0
C147 C 0.18514 0.06742 0.74203 0.0
C148 C 0.24768 1.00455 0.79616 0.0
C149 C 0.23907 0.13851 0.81399 0.0
O150 O 0.20568 0.0534 0.75485 0.0
O151 O 0.17236 0.08511 0.76169 0.0
O152 O 0.22618 0.0581 0.85966 0.0
O153 O 0.18784 0.06014 0.82992 0.0
Co154 Co 0.36454 0.97267 1.01204 0.0
O155 O 0.32797 0.97133 0.02944 0.0
O156 O 0.36001 1.01829 0.02683 0.0
C157 C 0.34616 0.9325 0.96558 0.0
O158 O 0.40392 0.98492 0.99551 0.0
Co159 Co 0.39305 0.91112 0.9979 0.0
O160 O 0.41902 0.93921 0.973 0.0
C161 C 0.40064 0.9528 0.06731 0.0
C162 C 0.33496 1.00431 0.03467 0.0
C163 C 0.422 0.9712 0.97984 0.0
O164 O 0.38512 0.97251 0.05765 0.0
O165 O 0.40504 0.92712 0.04774 0.0
O166 O 0.34434 0.96373 0.96614 0.0
O167 O 0.35726 0.92614 0.99338 0.0
Co168 Co 0.38057 0.43835 0.06045 0.0
O169 O 0.33837 0.42754 0.0521 0.0
O170 O 0.36603 0.47729 0.07825 0.0
C171 C 0.38463 0.41559 1.00639 0.0
O172 O 0.42462 0.46184 0.07155 0.0
Co173 Co 0.41697 0.38762 0.05695 0.0
O174 O 0.44895 0.42468 0.04985 0.0
C175 C 0.38557 0.39568 0.11537 0.0
C176 C 0.34004 0.45875 0.0662 0.0
C177 C 0.44793 0.45505 0.06122 0.0
O178 O 0.37859 0.4213 0.10494 0.0
O179 O 0.40037 0.37769 0.09905 0.0
O180 O 0.38166 0.44637 1.01487 0.0
O181 O 0.38442 0.39846 0.03063 0.0
Co182 Co 0.82776 0.17121 0.05577 0.0
O183 O 0.86587 0.17195 0.04336 0.0
O184 O 0.84514 0.13895 0.07618 0.0
C185 C 0.80484 0.16797 1.00376 0.0
O186 O 0.788 0.16383 0.07236 0.0
Co187 Co 0.80099 0.23253 0.04296 0.0
O188 O 0.76789 0.20662 0.06113 0.0
C189 C 0.8469 0.24234 0.09962 0.0
C190 C 0.86712 0.14808 0.06024 0.0
C191 C 0.76701 0.17934 0.07257 0.0
O192 O 0.84447 0.2099 0.09583 0.0
O193 O 0.83515 0.25625 0.0777 0.0
O194 O 0.80944 0.14046 1.01267 0.0
O195 O 0.81718 0.19583 0.02439 0.0
Co196 Co 0.24619 0.56056 0.24658 0.0
O197 O 0.25526 0.51696 0.23579 0.0
O198 O 0.27734 0.56376 0.21969 0.0
C199 C 0.24563 0.56103 0.30211 0.0
O200 O 0.24504 0.60996 0.25378 0.0
Co201 Co 0.19069 0.57191 0.27681 0.0
O202 O 0.21316 0.62018 0.28898 0.0
C203 C 0.1871 0.54491 0.2038 0.0
C204 C 0.27631 0.53231 0.22169 0.0
C205 C 0.23423 0.63035 0.27324 0.0
O206 O 0.21508 0.54999 0.20585 0.0
O207 O 0.17369 0.54885 0.2294 0.0
O208 O 0.27021 0.56953 0.29078 0.0
O209 O 0.22283 0.55007 0.27956 0.0
Co210 Co 0.87951 0.93966 0.56342 0.0
O211 O 0.8372 0.92927 0.55601 0.0
O212 O 0.86539 0.97889 0.58143 0.0
C213 C 0.88258 0.91648 0.509 0.0
O214 O 0.92371 0.96302 0.5735 0.0
Co215 Co 0.91579 0.88892 0.55911 0.0
O216 O 0.94769 0.92569 0.55137 0.0
C217 C 0.8861 0.8977 0.61892 0.0
C218 C 0.83921 0.96064 0.56986 0.0
C219 C 0.94687 0.95611 0.5628 0.0
O220 O 0.87835 0.92287 0.60826 0.0
O221 O 0.90074 0.87976 0.60224 0.0
O222 O 0.87979 0.94731 0.51757 0.0
O223 O 0.88279 0.89952 0.53336 0.0
Co224 Co 0.97518 0.1114 0.28545 0.0
O225 O 0.98005 0.1641 0.29303 0.0
O226 O 0.93945 0.13051 0.27288 0.0
C227 C 1.00054 0.10741 0.33991 0.0
O228 O 0.95241 0.058 0.27814 0.0
Co229 Co 1.01622 0.06395 0.28393 0.0
O230 O 0.98358 1.02599 0.28883 0.0
C231 C 1.01254 0.09495 0.2231 0.0
C232 C 0.9525 0.16225 0.28331 0.0
C233 C 0.95735 1.02858 0.28308 0.0
O234 O 0.99139 0.10817 0.2357 0.0
O235 O 1.02547 0.07733 0.23997 0.0
O236 O 0.97489 0.11409 0.33628 0.0
O237 O 1.01073 0.10537 0.31155 0.0
Co238 Co 0.32966 0.68386 0.54589 0.0
O239 O 0.36657 0.68327 0.53037 0.0
O240 O 0.34689 0.64967 0.56315 0.0
C241 C 0.3046 0.68403 0.49569 0.0
O242 O 0.29111 0.67719 0.56505 0.0
Co243 Co 0.30457 0.74768 0.53941 0.0
O244 O 0.27163 0.72148 0.55767 0.0
C245 C 0.35143 0.75288 0.5937 0.0
C246 C 0.36804 0.65848 0.54594 0.0
C247 C 0.27061 0.6933 0.56742 0.0
O248 O 0.34874 0.72036 0.58715 0.0
O249 O 0.33942 0.76877 0.57396 0.0
O250 O 0.3085 0.65546 0.50264 0.0
O251 O 0.31866 0.7108 0.5169 0.0
Co252 Co 0.47527 0.61047 0.78418 0.0
O253 O 0.48011 0.66314 0.79162 0.0
O254 O 0.4395 0.6295 0.77156 0.0
C255 C 0.50074 0.60656 0.83862 0.0
O256 O 0.45272 0.55698 0.7769 0.0
Co257 Co 0.51663 0.56333 0.78255 0.0
O258 O 0.48414 0.52517 0.78732 0.0
C259 C 0.51242 0.59419 0.72171 0.0
C260 C 0.45257 0.66126 0.78184 0.0
C261 C 0.45786 0.52759 0.78167 0.0
O262 O 0.49127 0.60726 0.73441 0.0
O263 O 0.52558 0.5767 0.73849 0.0
O264 O 0.47506 0.61318 0.83503 0.0
O265 O 0.51091 0.60458 0.81023 0.0
Co266 Co 0.7355 0.06336 0.74479 0.0
O267 O 0.73956 1.01776 0.7442 0.0
O268 O 0.77009 0.05778 0.72627 0.0
C269 C 0.72487 0.07289 0.79779 0.0
O270 O 0.74068 0.11313 0.74318 0.0
Co271 Co 0.67885 0.08739 0.75659 0.0
O272 O 0.70616 0.13307 0.76813 0.0
C273 C 0.68262 0.04422 0.69238 0.0
C274 C 0.76408 1.02741 0.73291 0.0
C275 C 0.7306 0.13768 0.75707 0.0
O276 O 0.71061 0.04994 0.69907 0.0
O277 O 0.66642 0.05296 0.71386 0.0
O278 O 0.7519 0.07589 0.79298 0.0
O279 O 0.70584 0.06187 0.77115 0.0
Co280 Co 0.81328 0.72587 1.00991 0.0
O281 O 0.85562 0.73429 1.01602 0.0
O282 O 0.82563 0.68687 1.02124 0.0
C283 C 0.81075 0.7469 0.9606 0.0
O284 O 0.76926 0.7041 1.0046 0.0
Co285 Co 0.7782 0.77785 1.01051 0.0
O286 O 0.74178 0.74188 1.00529 0.0
C287 C 0.8079 0.77201 0.07558 0.0
C288 C 0.85225 0.70372 1.02215 0.0
C289 C 0.7442 0.71152 1.00376 0.0
O290 O 0.81492 0.74551 0.06004 0.0
O291 O 0.79453 0.79001 0.05979 0.0
O292 O 0.81219 0.71572 0.96078 0.0
O293 O 0.81089 0.76485 0.99014 0.0
Co294 Co 0.96395 0.58106 0.84613 0.0
O295 O 0.95954 0.61902 0.82502 0.0
O296 O 0.92367 0.57744 0.83237 0.0
C297 C 0.99706 0.60978 0.89096 0.0
O298 O 0.95734 0.53884 0.86577 0.0
Co299 Co 1.02046 0.55618 0.86009 0.0
O300 O 0.99673 0.51922 0.87838 0.0
C301 C 0.98619 0.53854 0.79136 0.0
C302 C 0.93169 0.6048 0.82046 0.0
C303 C 0.96947 0.5171 0.87681 0.0
O304 O 0.96657 0.55356 0.80123 0.0
O305 O 1.00942 0.53863 0.81048 0.0
O306 O 0.96949 0.60887 0.89135 0.0
O307 O 1.00379 0.59564 0.86314 0.0
Co308 Co 0.86891 0.47578 0.51494 0.0
O309 O 0.83275 0.47275 0.53354 0.0
O310 O 0.86334 0.52078 0.53091 0.0
C311 C 0.84994 0.43576 0.46843 0.0
O312 O 0.90755 0.48985 0.49725 0.0
Co313 Co 0.89879 0.41583 0.49726 0.0
O314 O 0.92339 0.4456 0.47249 0.0
C315 C 0.90797 0.45636 0.56755 0.0
C316 C 0.83873 0.50573 0.53899 0.0
C317 C 0.92566 0.4774 0.48045 0.0
O318 O 0.89103 0.47537 0.55972 0.0
O319 O 0.91256 0.43165 0.54678 0.0
O320 O 0.84744 0.46683 0.46954 0.0
O321 O 0.8624 0.42956 0.49556 0.0
Co322 Co 0.72279 0.55491 0.30681 0.0
O323 O 0.71992 0.50253 0.30081 0.0
O324 O 0.75882 0.53636 0.2962 0.0
C325 C 0.69877 0.56149 0.35964 0.0
O326 O 0.74357 0.6084 0.3115 0.0
Co327 Co 0.68079 0.59983 0.31087 0.0
O328 O 0.71237 0.64191 0.31557 0.0
C329 C 0.68474 0.56731 0.24117 0.0
C330 C 0.74704 0.50479 0.29601 0.0
C331 C 0.73826 0.63883 0.31365 0.0
O332 O 0.70534 0.5535 0.2542 0.0
O333 O 0.67177 0.58493 0.26064 0.0
O334 O 0.72556 0.55847 0.35901 0.0
O335 O 0.68721 0.56029 0.32905 0.0
Ho336 Ho 0.08405 0.06205 1.02393 0.0
Ho337 Ho 0.1273 0.1039 0.06311 0.0
C338 C 0.08802 0.14322 0.02685 0.0
C339 C 1.0292 0.03601 1.00098 0.0
C340 C 1.00452 0.04941 1.01243 0.0
C341 C 1.0103 0.07801 0.03854 0.0
C342 C 0.98785 0.09246 0.04896 0.0
C343 C 0.95885 0.07846 0.03378 0.0
C344 C 0.9528 0.04904 1.00837 0.0
C345 C 0.97551 0.03472 0.99764 0.0
C346 C 0.13034 0.06492 0.98426 0.0
C347 C 0.12323 1.02382 0.06372 0.0
C348 C 0.18089 0.13117 0.0903 0.0
C349 C 0.20718 0.11701 0.08854 0.0
C350 C 0.22707 0.12711 0.0667 0.0
C351 C 0.24945 0.11048 0.06095 0.0
C352 C 0.25262 0.08337 0.07702 0.0
C353 C 0.23358 0.07438 0.10013 0.0
C354 C 0.21119 0.091 0.10586 0.0
C355 C 0.07978 0.10053 0.10042 0.0
O356 O 0.07263 0.11184 1.016 0.0
O357 O 0.11265 0.14825 0.04698 0.0
O358 O 0.04658 0.05552 0.98569 0.0
O359 O 0.0439 1.02456 1.02345 0.0
O360 O 0.10942 0.0387 0.98478 0.0
O361 O 0.12504 0.08964 1.00535 0.0
O362 O 0.13907 0.05513 0.07294 0.0
O363 O 0.09871 1.01846 0.04307 0.0
O364 O 0.161 0.11705 0.10676 0.0
O365 O 0.16932 0.13707 0.06204 0.0
O366 O 0.09882 0.12777 0.09815 0.0
O367 O 0.08684 0.0759 0.08133 0.0
H368 H 1.03234 0.08958 0.05066 0.0
H369 H 0.99325 0.11485 0.06881 0.0
H370 H 0.93067 0.03781 0.99606 0.0
H371 H 0.97048 1.01258 0.97755 0.0
H372 H 0.22463 0.14707 0.05299 0.0
H373 H 0.26349 0.11798 0.04279 0.0
H374 H 0.23568 0.05408 0.11347 0.0
H375 H 0.1965 0.08268 0.1231 0.0
Ho376 Ho 0.3535 0.82638 0.28971 0.0
Ho377 Ho 0.32248 0.84048 0.34483 0.0
C378 C 0.37626 0.89914 0.33888 0.0
C379 C 0.37777 0.82801 0.23613 0.0
C380 C 0.38722 0.85648 0.21891 0.0
C381 C 0.36658 0.86809 0.1996 0.0
C382 C 0.37525 0.89599 0.18469 0.0
C383 C 0.40485 0.91268 0.18823 0.0
C384 C 0.42555 0.9013 0.20777 0.0
C385 C 0.41679 0.87349 0.2231 0.0
C386 C 0.37582 0.80428 0.34435 0.0
C387 C 0.30498 0.76672 0.30218 0.0
C388 C 0.29887 0.84857 0.39908 0.0
C389 C 0.27572 0.82399 0.40934 0.0
C390 C 0.27734 0.82145 0.44339 0.0
C391 C 0.26586 0.79038 0.45229 0.0
C392 C 0.253 0.76161 0.42712 0.0
C393 C 0.24699 0.76574 0.39379 0.0
C394 C 0.25846 0.79682 0.38484 0.0
C395 C 0.29256 0.84371 0.28418 0.0
O396 O 0.37887 0.87937 0.31098 0.0
O397 O 0.3548 0.89075 0.35623 0.0
O398 O 0.39237 0.83037 0.26578 0.0
O399 O 0.34965 0.81734 0.23545 0.0
O400 O 0.37088 0.78751 0.31355 0.0
O401 O 0.36714 0.83145 0.34468 0.0
O402 O 0.31025 0.78382 0.33333 0.0
O403 O 0.3162 0.78061 0.27812 0.0
O404 O 0.29183 0.86147 0.37295 0.0
O405 O 0.32291 0.83818 0.39747 0.0
O406 O 0.2816 0.82856 0.30699 0.0
O407 O 0.31964 0.85602 0.29418 0.0
H408 H 0.34368 0.85538 0.19549 0.0
H409 H 0.35882 0.90325 0.16881 0.0
H410 H 0.44852 0.91322 0.2104 0.0
H411 H 0.43316 0.86509 0.23794 0.0
H412 H 0.29067 0.84201 0.46262 0.0
H413 H 0.27081 0.78776 0.47823 0.0
H414 H 0.23662 0.74394 0.3742 0.0
H415 H 0.2569 0.79818 0.35835 0.0
Ho416 Ho 0.62498 0.08147 0.52611 0.0
Ho417 Ho 0.56457 0.07907 0.55108 0.0
C418 C 0.57669 1.00961 0.51525 0.0
C419 C 0.67678 0.07461 0.51649 0.0
C420 C 0.69881 0.05655 0.5273 0.0
C421 C 0.69141 1.02622 0.53952 0.0
C422 C 0.71322 1.01008 0.54966 0.0
C423 C 0.74278 1.02422 0.54809 0.0
C424 C 0.74989 0.05477 0.5361 0.0
C425 C 0.72817 0.07067 0.52585 0.0
C426 C 0.58539 0.10121 0.48576 0.0
C427 C 0.6129 0.15137 0.56245 0.0
C428 C 0.51328 0.08618 0.56249 0.0
C429 C 0.49192 0.10605 0.55353 0.0
C430 C 0.46614 0.08951 0.53152 0.0
C431 C 0.4444 0.10664 0.52485 0.0
C432 C 0.4477 0.14078 0.54021 0.0
C433 C 0.47389 0.15772 0.56147 0.0
C434 C 0.49574 0.14051 0.56815 0.0
C435 C 0.60422 0.05831 0.58998 0.0
O436 O 0.60485 1.02505 0.52195 0.0
O437 O 0.55622 1.02674 0.51917 0.0
O438 O 0.65292 0.0567 0.49696 0.0
O439 O 0.67181 0.09796 0.5396 0.0
O440 O 0.61332 0.11108 0.4864 0.0
O441 O 0.58029 0.07805 0.50242 0.0
O442 O 0.58475 0.1358 0.55755 0.0
O443 O 0.63318 0.13444 0.55621 0.0
O444 O 0.5373 0.10203 0.58284 0.0
O445 O 0.51767 0.06359 0.53814 0.0
O446 O 0.57632 0.04704 0.58836 0.0
O447 O 0.60911 0.08241 0.57451 0.0
H448 H 0.66887 1.01507 0.54121 0.0
H449 H 0.70699 0.98673 0.55899 0.0
H450 H 0.77227 0.06613 0.53397 0.0
H451 H 0.73436 0.0941 0.51659 0.0
H452 H 0.4625 0.06297 0.5199 0.0
H453 H 0.42478 0.09296 0.50787 0.0
H454 H 0.4771 0.18393 0.57388 0.0
H455 H 0.5153 0.15402 0.58534 0.0
Ho456 Ho 0.31992 0.34603 0.79246 0.0
Ho457 Ho 0.37464 0.31749 0.79256 0.0
C458 C 0.35997 0.35227 0.86388 0.0
C459 C 0.26652 0.35035 0.79671 0.0
C460 C 0.24211 0.33922 0.81576 0.0
C461 C 0.22114 0.30839 0.8039 0.0
C462 C 0.19675 0.2997 0.82033 0.0
C463 C 0.19266 0.32164 0.849 0.0
C464 C 0.21387 0.35223 0.861 0.0
C465 C 0.23814 0.36092 0.84459 0.0
C466 C 0.36576 0.39891 0.78397 0.0
C467 C 0.33563 0.31403 0.72066 0.0
C468 C 0.42718 0.30963 0.7893 0.0
C469 C 0.45269 0.31864 0.77191 0.0
C470 C 0.45399 0.34101 0.74914 0.0
C471 C 0.47845 0.34801 0.73242 0.0
C472 C 0.50197 0.33276 0.73827 0.0
C473 C 0.50024 0.31023 0.761 0.0
C474 C 0.47593 0.30334 0.7776 0.0
C475 C 0.329 0.26528 0.80268 0.0
O476 O 0.33422 0.35231 0.84807 0.0
O477 O 0.38002 0.34145 0.84774 0.0
O478 O 0.28944 0.37293 0.81345 0.0
O479 O 0.27351 0.32733 0.77483 0.0
O480 O 0.33862 0.39975 0.78409 0.0
O481 O 0.36675 0.3684 0.78713 0.0
O482 O 0.36102 0.31255 0.7365 0.0
O483 O 0.31562 0.32442 0.73715 0.0
O484 O 0.40392 0.28914 0.77099 0.0
O485 O 0.42107 0.33382 0.81057 0.0
O486 O 0.35598 0.26424 0.80199 0.0
O487 O 0.32805 0.29556 0.79882 0.0
H488 H 0.22328 0.29118 0.78157 0.0
H489 H 0.18104 0.27582 0.81048 0.0
H490 H 0.2113 0.37012 0.88257 0.0
H491 H 0.25349 0.38513 0.85413 0.0
H492 H 0.43613 0.35295 0.74428 0.0
H493 H 0.47911 0.36565 0.71528 0.0
H494 H 0.51755 0.29747 0.7657 0.0
H495 H 0.4752 0.28573 0.79481 0.0
Ho496 Ho 0.09298 0.11636 0.55404 0.0
Ho497 Ho 0.10182 0.05112 0.51999 0.0
C498 C 0.06752 0.09029 0.47085 0.0
C499 C 0.09726 0.1811 0.56862 0.0
C500 C 0.11127 0.20814 0.55186 0.0
C501 C 0.1179 0.20013 0.51903 0.0
C502 C 0.13424 0.2251 0.5045 0.0
C503 C 0.1442 0.25866 0.5225 0.0
C504 C 0.13699 0.26664 0.55519 0.0
C505 C 0.12082 0.24157 0.56977 0.0
C506 C 0.05132 0.06258 0.56254 0.0
C507 C 0.12751 0.07691 0.60307 0.0
C508 C 0.09814 0.98674 0.50686 0.0
C509 C 0.087 0.96272 0.52812 0.0
C510 C 0.0765 0.97481 0.55767 0.0
C511 C 0.06373 0.95251 0.57719 0.0
C512 C 0.06112 0.91754 0.56747 0.0
C513 C 0.07208 0.90543 0.53808 0.0
C514 C 0.08493 0.92792 0.51848 0.0
C515 C 0.14237 0.10502 0.51017 0.0
O516 O 0.07389 0.1152 0.49816 0.0
O517 O 0.0757 0.06152 0.47308 0.0
O518 O 0.07395 0.15956 0.55156 0.0
O519 O 0.11521 0.16596 0.58296 0.0
O520 O 0.06033 0.09081 0.5845 0.0
O521 O 0.06297 0.06602 0.53637 0.0
O522 O 0.12016 0.05157 0.57617 0.0
O523 O 0.12032 0.10608 0.60012 0.0
O524 O 0.12252 1.00891 0.51981 0.0
O525 O 0.07855 1.00082 0.494 0.0
O526 O 0.13342 0.07655 0.48858 0.0
O527 O 0.13162 0.10169 0.53693 0.0
H528 H 0.1113 0.17429 0.50499 0.0
H529 H 0.1396 0.21793 0.47948 0.0
H530 H 0.14368 0.29236 0.56954 0.0
H531 H 0.11613 0.24819 0.59521 0.0
H532 H 0.0773 1.0015 0.56515 0.0
H533 H 0.05511 0.96257 0.59931 0.0
H534 H 0.07064 0.87856 0.53019 0.0
H535 H 0.09278 0.91814 0.49567 0.0
Ho536 Ho 0.38028 0.86228 0.79191 0.0
Ho537 Ho 0.32439 0.80669 0.77668 0.0
C538 C 0.38555 0.7787 0.78847 0.0
C539 C 0.42638 0.9035 0.82701 0.0
C540 C 0.45701 0.90561 0.83901 0.0
C541 C 0.46899 0.87717 0.83345 0.0
C542 C 0.49748 0.8792 0.84813 0.0
C543 C 0.5142 0.90963 0.86867 0.0
C544 C 0.50219 0.93819 0.87339 0.0
C545 C 0.47381 0.93614 0.85874 0.0
C546 C 0.36675 0.83163 0.72702 0.0
C547 C 0.31805 0.88978 0.78132 0.0
C548 C 0.27676 0.76872 0.7422 0.0
C549 C 0.24729 0.77294 0.73288 0.0
C550 C 0.23115 0.75437 0.70223 0.0
C551 C 0.20454 0.76072 0.69067 0.0
C552 C 0.19362 0.78581 0.70962 0.0
C553 C 0.20953 0.80391 0.74078 0.0
C554 C 0.23633 0.79767 0.75224 0.0
C555 C 0.3389 0.8391 0.84113 0.0
O556 O 0.39873 0.81247 0.79594 0.0
O557 O 0.35633 0.77031 0.77987 0.0
O558 O 0.41909 0.9022 0.7947 0.0
O559 O 0.40736 0.88281 0.83977 0.0
O560 O 0.37968 0.86374 0.73661 0.0
O561 O 0.36334 0.81804 0.75235 0.0
O562 O 0.30513 0.85605 0.77445 0.0
O563 O 0.34746 0.89824 0.78849 0.0
O564 O 0.28475 0.76815 0.774 0.0
O565 O 0.29691 0.78731 0.72892 0.0
O566 O 0.32574 0.8069 0.833 0.0
O567 O 0.34148 0.85096 0.81491 0.0
H568 H 0.45614 0.85331 0.81846 0.0
H569 H 0.50611 0.85673 0.84422 0.0
H570 H 0.51472 0.96214 0.88851 0.0
H571 H 0.46478 0.95826 0.86338 0.0
H572 H 0.23947 0.73545 0.68684 0.0
H573 H 0.19251 0.74601 0.66682 0.0
H574 H 0.20163 0.82346 0.75579 0.0
H575 H 0.24876 0.81264 0.77577 0.0
Ho576 Ho 0.59555 0.05537 0.06281 0.0
Ho577 Ho 0.59641 0.09843 1.0116 0.0
C578 C 0.54151 0.03959 1.00247 0.0
C579 C 0.58145 1.01651 0.10519 0.0
C580 C 0.55511 1.00495 0.11982 0.0
C581 C 0.52909 1.01397 0.10984 0.0
C582 C 0.50619 1.00919 0.12891 0.0
C583 C 0.50934 0.99592 0.15851 0.0
C584 C 0.53458 0.98421 0.16642 0.0
C585 C 0.55722 0.98869 0.1472 0.0
C586 C 0.63131 0.04342 1.01709 0.0
C587 C 0.65049 0.11445 0.07255 0.0
C588 C 0.61335 0.13576 0.96894 0.0
C589 C 0.64089 0.14145 0.95514 0.0
C590 C 0.6612 0.12235 0.96243 0.0
C591 C 0.68311 0.11992 0.94242 0.0
C592 C 0.68468 0.13646 0.91492 0.0
C593 C 0.6669 0.15924 0.91069 0.0
C594 C 0.64488 0.16151 0.93059 0.0
C595 C 0.56092 0.1116 0.05744 0.0
O596 O 0.54992 0.04031 0.03458 0.0
O597 O 0.55851 0.05701 0.98467 0.0
O598 O 0.58051 1.00499 0.07305 0.0
O599 O 0.59331 0.04905 0.11409 0.0
O600 O 0.63634 0.04153 0.04846 0.0
O601 O 0.60635 0.0487 1.01052 0.0
O602 O 0.64158 0.11534 0.04099 0.0
O603 O 0.63446 0.09516 0.08972 0.0
O604 O 0.61495 0.14793 1.00101 0.0
O605 O 0.5975 0.10464 0.96008 0.0
O606 O 0.55613 0.11327 0.02591 0.0
O607 O 0.58576 0.10573 0.06409 0.0
H608 H 0.52713 1.02657 0.08862 0.0
H609 H 0.48688 1.0179 0.12175 0.0
H610 H 0.53821 0.97431 0.18918 0.0
H611 H 0.57722 0.98165 0.15518 0.0
H612 H 0.65843 0.10675 0.9814 0.0
H613 H 0.69638 0.10202 0.94595 0.0
H614 H 0.66786 0.17222 0.88953 0.0
H615 H 0.62951 0.17654 0.92485 0.0
Ho616 Ho 0.36981 0.35678 0.30614 0.0
Ho617 Ho 0.32272 0.29455 0.26575 0.0
C618 C 0.3012 0.35575 0.30176 0.0
C619 C 0.40309 0.41674 0.3142 0.0
C620 C 0.39996 0.44272 0.29378 0.0
C621 C 0.39706 0.43444 0.25839 0.0
C622 C 0.38356 0.45299 0.2385 0.0
C623 C 0.37337 0.48047 0.25373 0.0
C624 C 0.37975 0.49147 0.28888 0.0
C625 C 0.3929 0.47264 0.3088 0.0
C626 C 0.34988 0.31711 0.35054 0.0
C627 C 0.39165 0.29135 0.27693 0.0
C628 C 0.29284 0.23384 0.24091 0.0
C629 C 0.3037 0.20262 0.23837 0.0
C630 C 0.2977 0.18182 0.26214 0.0
C631 C 0.31592 0.16064 0.2692 0.0
C632 C 0.34018 0.15969 0.25227 0.0
C633 C 0.34376 0.17691 0.22537 0.0
C634 C 0.32556 0.19814 0.21834 0.0
C635 C 0.34115 0.34487 0.23101 0.0
O636 O 0.3277 0.37417 0.30121 0.0
O637 O 0.29418 0.32257 0.29195 0.0
O638 O 0.38193 0.40928 0.33191 0.0
O639 O 0.41014 0.38958 0.29904 0.0
O640 O 0.37051 0.34478 0.35862 0.0
O641 O 0.34216 0.31169 0.31891 0.0
O642 O 0.36404 0.27564 0.26556 0.0
O643 O 0.39962 0.32279 0.2943 0.0
O644 O 0.3033 0.25521 0.22213 0.0
O645 O 0.29262 0.24909 0.27179 0.0
O646 O 0.31423 0.32785 0.22813 0.0
O647 O 0.35627 0.33393 0.25217 0.0
H648 H 0.40289 0.41196 0.24606 0.0
H649 H 0.3792 0.44448 0.21143 0.0
H650 H 0.37194 0.51259 0.30116 0.0
H651 H 0.39495 0.47963 0.33599 0.0
H652 H 0.28081 0.18451 0.27769 0.0
H653 H 0.31249 0.14746 0.28996 0.0
H654 H 0.36181 0.17577 0.21129 0.0
H655 H 0.33043 0.2133 0.19931 0.0
Ho656 Ho 0.59338 0.61595 0.05272 0.0
Ho657 Ho 0.60209 0.55027 1.01881 0.0
C658 C 0.56789 0.58954 0.96955 0.0
C659 C 0.59808 0.68078 0.06702 0.0
C660 C 0.61261 0.70766 0.05039 0.0
C661 C 0.61912 0.69955 1.01751 0.0
C662 C 0.63586 0.7243 1.00308 0.0
C663 C 0.64637 0.75776 1.02121 0.0
C664 C 0.63933 0.76583 0.05398 0.0
C665 C 0.62275 0.74097 0.06846 0.0
C666 C 0.55166 0.56229 0.06118 0.0
C667 C 0.62752 0.57632 0.10193 0.0
C668 C 0.59839 0.48585 1.00574 0.0
C669 C 0.58715 0.46167 0.02683 0.0
C670 C 0.5762 0.47351 0.05612 0.0
C671 C 0.5634 0.45104 0.07547 0.0
C672 C 0.56136 0.41613 0.06597 0.0
C673 C 0.57283 0.40431 0.03686 0.0
C674 C 0.58559 0.42696 1.01735 0.0
C675 C 0.64286 0.60412 1.00928 0.0
O676 O 0.57438 0.61458 0.99677 0.0
O677 O 0.57596 0.56072 0.97188 0.0
O678 O 0.57481 0.6594 0.04968 0.0
O679 O 0.61564 0.66549 0.08181 0.0
O680 O 0.56049 0.59061 0.08305 0.0
O681 O 0.56342 0.56564 0.03507 0.0
O682 O 0.61997 0.55081 0.07517 0.0
O683 O 0.62064 0.60561 0.0988 0.0
O684 O 0.62272 0.50803 1.01889 0.0
O685 O 0.57887 0.49995 0.9928 0.0
O686 O 0.63402 0.57565 0.98766 0.0
O687 O 0.63187 0.60077 0.03588 0.0
H688 H 0.61206 0.67378 1.00334 0.0
H689 H 0.64106 0.71705 0.978 0.0
H690 H 0.64643 0.79148 0.06845 0.0
H691 H 0.61819 0.74766 0.09395 0.0
H692 H 0.57677 0.50015 0.06357 0.0
H693 H 0.55439 0.46094 0.09734 0.0
H694 H 0.57193 0.37755 0.02914 0.0
H695 H 0.59385 0.41738 0.99477 0.0
Ho696 Ho 0.87946 0.36276 0.29313 0.0
Ho697 Ho 0.82354 0.30695 0.28054 0.0
C698 C 0.88517 0.27948 0.29127 0.0
C699 C 0.92572 0.40489 0.32673 0.0
C700 C 0.95645 0.4076 0.33864 0.0
C701 C 0.96855 0.37919 0.33429 0.0
C702 C 0.99707 0.3818 0.34919 0.0
C703 C 1.01374 0.41281 0.36874 0.0
C704 C 1.00162 0.44131 0.37225 0.0
C705 C 0.97319 0.43867 0.35737 0.0
C706 C 0.86454 0.32963 0.2291 0.0
C707 C 0.81706 0.38979 0.28288 0.0
C708 C 0.7755 0.26832 0.24779 0.0
C709 C 0.74606 0.27272 0.23873 0.0
C710 C 0.72972 0.25414 0.20819 0.0
C711 C 0.70332 0.26096 0.19662 0.0
C712 C 0.69282 0.28649 0.21546 0.0
C713 C 0.70885 0.30451 0.24656 0.0
C714 C 0.73546 0.29784 0.25802 0.0
C715 C 0.8393 0.34097 0.34421 0.0
O716 O 0.8983 0.31328 0.29777 0.0
O717 O 0.85585 0.27093 0.28366 0.0
O718 O 0.91807 0.40248 0.29428 0.0
O719 O 0.90705 0.38469 0.34037 0.0
O720 O 0.87771 0.3618 0.23713 0.0
O721 O 0.86182 0.31753 0.25533 0.0
O722 O 0.80417 0.35608 0.2772 0.0
O723 O 0.84649 0.39839 0.28929 0.0
O724 O 0.78401 0.26886 0.27974 0.0
O725 O 0.79541 0.28598 0.23345 0.0
O726 O 0.82627 0.3087 0.33707 0.0
O727 O 0.84124 0.35215 0.31752 0.0
H728 H 0.95573 0.35491 0.32015 0.0
H729 H 1.00575 0.35935 0.34626 0.0
H730 H 1.01408 0.46566 0.38662 0.0
H731 H 0.96404 0.46077 0.36111 0.0
H732 H 0.73777 0.23494 0.19284 0.0
H733 H 0.69115 0.24634 0.1728 0.0
H734 H 0.70124 0.32438 0.26147 0.0
H735 H 0.74808 0.31284 0.28144 0.0
Ho736 Ho 0.09897 0.56771 0.56076 0.0
Ho737 Ho 0.1019 0.60354 0.50169 0.0
C738 C 0.04423 0.54977 0.50072 0.0
C739 C 0.08293 0.53522 0.6071 0.0
C740 C 0.05573 0.52554 0.621 0.0
C741 C 0.03927 0.54931 0.62989 0.0
C742 C 1.01692 0.54183 0.64911 0.0
C743 C 1.01049 0.51031 0.65949 0.0
C744 C 1.02456 0.48511 0.64654 0.0
C745 C 0.04725 0.49284 0.62779 0.0
C746 C 0.13366 0.54842 0.51673 0.0
C747 C 0.15461 0.62482 0.56566 0.0
C748 C 0.12177 0.62965 0.45278 0.0
C749 C 0.15034 0.63087 0.44153 0.0
C750 C 0.16963 0.61452 0.45705 0.0
C751 C 0.1936 0.60827 0.44224 0.0
C752 C 0.1989 0.61885 0.41196 0.0
C753 C 0.18129 0.63822 0.39821 0.0
C754 C 0.15691 0.64396 0.41281 0.0
C755 C 0.06783 0.62481 0.54548 0.0
O756 O 0.05313 0.55332 0.53327 0.0
O757 O 0.06137 0.56307 0.48041 0.0
O758 O 0.08324 0.51998 0.57629 0.0
O759 O 0.09546 0.56773 0.61307 0.0
O760 O 0.13885 0.5499 0.54884 0.0
O761 O 0.1092 0.55447 0.50909 0.0
O762 O 0.14633 0.6225 0.53316 0.0
O763 O 0.13805 0.60856 0.58464 0.0
O764 O 0.12202 0.64777 0.48248 0.0
O765 O 0.10524 0.59897 0.44867 0.0
O766 O 0.0636 0.62471 0.51339 0.0
O767 O 0.09176 0.61736 0.55343 0.0
H768 H 0.0449 0.57449 0.624 0.0
H769 H 1.00676 0.56205 0.65833 0.0
H770 H 1.01967 0.4602 0.65302 0.0
H771 H 0.05926 0.47387 0.62029 0.0
H772 H 0.16499 0.60434 0.47925 0.0
H773 H 0.20678 0.59312 0.4531 0.0
H774 H 0.18486 0.64627 0.37459 0.0
H775 H 0.14227 0.65663 0.40051 0.0
Ho776 Ho 0.81867 0.84762 0.29393 0.0
Ho777 Ho 0.87323 0.8193 0.29488 0.0
C778 C 0.85799 0.8537 0.36604 0.0
C779 C 0.76518 0.85198 0.29713 0.0
C780 C 0.74046 0.8407 0.31564 0.0
C781 C 0.71933 0.81013 0.30308 0.0
C782 C 0.69476 0.80124 0.31914 0.0
C783 C 0.69068 0.82272 0.34812 0.0
C784 C 0.71199 0.8531 0.36075 0.0
C785 C 0.73643 0.86199 0.34471 0.0
C786 C 0.8646 0.9005 0.28556 0.0
C787 C 0.83464 0.81507 0.22249 0.0
C788 C 0.92613 0.8137 0.29069 0.0
C789 C 0.9502 0.82453 0.27141 0.0
C790 C 0.97695 0.84479 0.28875 0.0
C791 C 1.00103 0.85225 0.27182 0.0
C792 C 0.99904 0.83935 0.23712 0.0
C793 C 0.97191 0.82017 0.21947 0.0
C794 C 0.94775 0.81282 0.23642 0.0
C795 C 0.8278 0.76672 0.3043 0.0
O796 O 0.83253 0.8543 0.34979 0.0
O797 O 0.87803 0.84246 0.35022 0.0
O798 O 0.78795 0.87447 0.31432 0.0
O799 O 0.77242 0.82904 0.27542 0.0
O800 O 0.83743 0.90134 0.2854 0.0
O801 O 0.86547 0.87005 0.28897 0.0
O802 O 0.85982 0.81345 0.23868 0.0
O803 O 0.81464 0.82591 0.23864 0.0
O804 O 0.903 0.79134 0.27419 0.0
O805 O 0.91969 0.83717 0.31254 0.0
O806 O 0.85492 0.76602 0.30415 0.0
O807 O 0.82651 0.79695 0.30043 0.0
H808 H 0.72152 0.79327 0.28052 0.0
H809 H 0.67894 0.77756 0.30882 0.0
H810 H 0.7094 0.87065 0.38258 0.0
H811 H 0.7519 0.88601 0.35478 0.0
H812 H 0.97948 0.85417 0.31567 0.0
H813 H 1.02141 0.86768 0.28611 0.0
H814 H 0.96959 0.80966 0.19282 0.0
H815 H 0.92742 0.79713 0.22224 0.0
Ho816 Ho 0.85919 0.33003 0.78103 0.0
Ho817 Ho 0.82398 0.34176 0.83149 0.0
C818 C 0.87724 0.40091 0.83555 0.0
C819 C 0.88899 0.33444 0.73141 0.0
C820 C 0.90739 0.36224 0.71959 0.0
C821 C 0.9095 0.39622 0.73438 0.0
C822 C 0.92119 0.42234 0.71818 0.0
C823 C 0.9306 0.41464 0.68683 0.0
C824 C 0.93131 0.38082 0.67409 0.0
C825 C 0.9197 0.35482 0.69036 0.0
C826 C 0.87941 0.30779 0.83646 0.0
C827 C 0.81177 0.26805 0.78763 0.0
C828 C 0.78963 0.33104 0.87543 0.0
C829 C 0.78488 0.30045 0.89031 0.0
C830 C 0.80858 0.28618 0.89751 0.0
C831 C 0.80424 0.25465 0.9067 0.0
C832 C 0.77605 0.23628 0.90871 0.0
C833 C 0.75217 0.25037 0.9012 0.0
C834 C 0.75658 0.28224 0.89189 0.0
C835 C 0.80541 0.36333 0.77435 0.0
O836 O 0.87734 0.38545 0.80443 0.0
O837 O 0.8584 0.38796 0.85404 0.0
O838 O 0.89894 0.32757 0.75988 0.0
O839 O 0.86146 0.33479 0.72927 0.0
O840 O 0.87626 0.29166 0.80555 0.0
O841 O 0.86975 0.33447 0.83667 0.0
O842 O 0.81557 0.28521 0.81856 0.0
O843 O 0.82504 0.28166 0.76469 0.0
O844 O 0.78037 0.32512 0.84323 0.0
O845 O 0.8157 0.35126 0.88323 0.0
O846 O 0.80773 0.37986 0.80491 0.0
O847 O 0.81382 0.33624 0.77568 0.0
H848 H 0.9003 0.40252 0.75705 0.0
H849 H 0.92074 0.44817 0.72877 0.0
H850 H 0.93812 0.37383 0.64982 0.0
H851 H 0.91833 0.32872 0.67872 0.0
H852 H 0.8306 0.29914 0.8955 0.0
H853 H 0.82328 0.24521 0.91324 0.0
H854 H 0.73021 0.23683 0.90264 0.0
H855 H 0.73793 0.29237 0.88534 0.0
Ho856 Ho 0.87361 0.85277 0.80846 0.0
Ho857 Ho 0.82548 0.79207 0.76743 0.0
C858 C 0.80509 0.85356 0.8054 0.0
C859 C 0.90664 0.91262 0.81718 0.0
C860 C 0.89838 0.94058 0.80272 0.0
C861 C 0.8955 0.939 0.76755 0.0
C862 C 0.87671 0.95576 0.75214 0.0
C863 C 0.86081 0.9743 0.77177 0.0
C864 C 0.86667 0.97963 0.80703 0.0
C865 C 0.88565 0.96325 0.82245 0.0
C866 C 0.85324 0.8125 0.85201 0.0
C867 C 0.89436 0.78743 0.77778 0.0
C868 C 0.79557 0.73148 0.74222 0.0
C869 C 0.80654 0.70028 0.73995 0.0
C870 C 0.80064 0.67966 0.76391 0.0
C871 C 0.81884 0.65844 0.771 0.0
C872 C 0.84302 0.65728 0.75396 0.0
C873 C 0.84656 0.67441 0.727 0.0
C874 C 0.82834 0.69562 0.71988 0.0
C875 C 0.84408 0.84346 0.73406 0.0
O876 O 0.83201 0.87155 0.80602 0.0
O877 O 0.79741 0.82052 0.79422 0.0
O878 O 0.89104 0.90239 0.83991 0.0
O879 O 0.91042 0.88712 0.79554 0.0
O880 O 0.87453 0.83951 0.86032 0.0
O881 O 0.84529 0.80769 0.82043 0.0
O882 O 0.86661 0.77277 0.76586 0.0
O883 O 0.90287 0.81824 0.79649 0.0
O884 O 0.80623 0.75291 0.72357 0.0
O885 O 0.79495 0.74671 0.773 0.0
O886 O 0.81707 0.82664 0.73105 0.0
O887 O 0.8592 0.83148 0.75431 0.0
H888 H 0.90542 0.92225 0.75159 0.0
H889 H 0.87268 0.95179 0.72488 0.0
H890 H 0.85488 0.99443 0.82256 0.0
H891 H 0.88777 0.9654 0.84958 0.0
H892 H 0.78381 0.68246 0.77952 0.0
H893 H 0.81543 0.64533 0.79182 0.0
H894 H 0.86456 0.67314 0.71287 0.0
H895 H 0.83311 0.7106 0.70069 0.0
Ho896 Ho 0.58272 0.56218 0.52193 0.0
Ho897 Ho 0.62669 0.60306 0.56163 0.0
C898 C 0.58776 0.64352 0.52708 0.0
C899 C 0.52843 0.53757 0.49613 0.0
C900 C 0.50249 0.5507 0.50405 0.0
C901 C 0.49692 0.55835 0.53753 0.0
C902 C 0.4743 0.57414 0.54509 0.0
C903 C 0.45694 0.58313 0.51947 0.0
C904 C 0.46212 0.57474 0.48595 0.0
C905 C 0.48455 0.55867 0.47836 0.0
C906 C 0.62949 0.56494 0.4829 0.0
C907 C 0.62082 0.52255 0.56085 0.0
C908 C 0.68066 0.62834 0.58876 0.0
C909 C 0.70555 0.61273 0.58342 0.0
C910 C 0.70209 0.58505 0.55675 0.0
C911 C 0.72455 0.56851 0.55203 0.0
C912 C 0.75125 0.57943 0.57366 0.0
C913 C 0.75506 0.60772 0.59995 0.0
C914 C 0.73226 0.62409 0.60495 0.0
C915 C 0.57907 0.60007 0.59887 0.0
O916 O 0.57111 0.61259 0.5178 0.0
O917 O 0.61328 0.64781 0.54514 0.0
O918 O 0.54702 0.55652 0.48164 0.0
O919 O 0.54159 0.52579 0.51966 0.0
O920 O 0.60851 0.53878 0.48329 0.0
O921 O 0.62412 0.58958 0.50393 0.0
O922 O 0.63751 0.5534 0.56938 0.0
O923 O 0.5958 0.51795 0.54139 0.0
O924 O 0.66104 0.61221 0.60423 0.0
O925 O 0.66869 0.6371 0.5623 0.0
O926 O 0.59885 0.62701 0.59745 0.0
O927 O 0.58565 0.5754 0.57932 0.0
H928 H 0.51053 0.55302 0.55809 0.0
H929 H 0.47114 0.5805 0.57118 0.0
H930 H 0.44899 0.58093 0.46553 0.0
H931 H 0.48838 0.55328 0.45242 0.0
H932 H 0.68185 0.57601 0.53953 0.0
H933 H 0.72108 0.54724 0.53119 0.0
H934 H 0.77541 0.61668 0.61702 0.0
H935 H 0.73539 0.64537 0.62571 0.0
Ho936 Ho 0.1249 0.58167 0.03321 0.0
Ho937 Ho 0.0651 0.57833 0.05922 0.0
C938 C 0.07758 0.50855 1.02285 0.0
C939 C 0.17674 0.57483 1.02403 0.0
C940 C 0.19744 0.55425 0.03347 0.0
C941 C 0.21417 0.5622 0.0657 0.0
C942 C 0.23562 0.54492 0.07344 0.0
C943 C 0.24115 0.5194 0.0491 0.0
C944 C 0.22398 0.51094 1.0171 0.0
C945 C 0.20247 0.52821 1.00938 0.0
C946 C 0.08437 0.60031 0.9933 0.0
C947 C 0.11252 0.65164 0.06825 0.0
C948 C 1.01373 0.58532 0.07035 0.0
C949 C 0.99245 0.60518 0.06107 0.0
C950 C 0.96691 0.58865 0.03865 0.0
C951 C 0.94528 0.60579 0.03148 0.0
C952 C 0.94846 0.63993 0.04673 0.0
C953 C 0.97442 0.65687 0.06841 0.0
C954 C 0.99617 0.63965 0.07561 0.0
C955 C 0.10548 0.55902 0.0985 0.0
O956 O 0.10536 0.52503 0.02621 0.0
O957 O 0.05694 0.52439 0.03071 0.0
O958 O 0.15338 0.55961 1.0023 0.0
O959 O 0.17145 0.59678 0.04833 0.0
O960 O 0.11225 0.61127 0.99406 0.0
O961 O 0.07984 0.57707 1.01003 0.0
O962 O 0.08463 0.63538 0.06519 0.0
O963 O 0.13293 0.63527 0.06114 0.0
O964 O 0.03766 0.60115 0.09091 0.0
O965 O 1.01827 0.56276 0.04608 0.0
O966 O 0.07763 0.54779 0.09736 0.0
O967 O 0.11004 0.58275 0.08238 0.0
H968 H 0.21123 0.58236 0.08486 0.0
H969 H 0.24813 0.55186 0.09845 0.0
H970 H 0.22788 0.49178 0.99755 0.0
H971 H 0.19029 0.52178 0.98419 0.0
H972 H 0.96336 0.56212 0.02706 0.0
H973 H 0.92585 0.5921 1.01418 0.0
H974 H 0.97752 0.68309 0.08073 0.0
H975 H 1.01555 0.65316 0.09307 0.0
C976 C 0.05179 0.19664 0.97357 0.0
C977 C 0.0559 0.22788 0.99601 0.0
H978 H 0.05771 0.14547 0.96588 0.0
C979 C 0.07093 0.23091 0.02867 0.0
H980 H 0.04034 0.19316 0.94829 0.0
C981 C 0.08184 0.20396 0.03838 0.0
C982 C 0.07719 0.1725 1.01623 0.0
H983 H 0.07471 0.25451 0.0467 0.0
H984 H 0.09347 0.20757 0.06359 0.0
C985 C 0.06174 0.16921 0.98374 0.0
C986 C 0.22481 0.8535 0.22992 0.0
C987 C 0.23584 0.8666 0.20266 0.0
H988 H 0.23351 0.83567 0.27579 0.0
C989 C 0.26642 0.87317 0.20297 0.0
H990 H 0.20157 0.84769 0.23082 0.0
C991 C 0.2851 0.86675 0.22954 0.0
C992 C 0.27376 0.85266 0.25617 0.0
H993 H 0.27596 0.88314 0.18253 0.0
H994 H 0.30836 0.87225 0.22895 0.0
C995 C 0.2433 0.84636 0.25584 0.0
C996 C 0.57509 0.91527 0.50613 0.0
C997 C 0.55217 0.90054 0.47947 0.0
H998 H 0.60138 0.96137 0.53762 0.0
C999 C 0.53688 0.92188 0.46536 0.0
H1000 H 0.58759 0.89955 0.51711 0.0
C1001 C 0.54422 0.95713 0.47772 0.0
C1002 C 0.56786 0.97203 0.5035 0.0
H1003 H 0.51936 0.91129 0.44453 0.0
H1004 H 0.53205 0.97288 0.46627 0.0
C1005 C 0.58317 0.95067 0.51762 0.0
C1006 C 0.55122 0.34827 0.67092 0.0
C1007 C 0.57893 0.35104 0.68879 0.0
H1008 H 0.50515 0.34016 0.67234 0.0
C1009 C 0.5811 0.34881 0.72306 0.0
H1010 H 0.54881 0.34997 0.64451 0.0
C1011 C 0.55626 0.34353 0.73902 0.0
C1012 C 0.52842 0.34015 0.72118 0.0
H1013 H 0.60208 0.35115 0.73773 0.0
H1014 H 0.55895 0.34224 0.76553 0.0
C1015 C 0.52623 0.3429 0.68695 0.0
C1016 C 0.03918 0.87696 0.64137 0.0
C1017 C 1.02084 0.84589 0.62451 0.0
H1018 H 0.06695 0.92395 0.63633 0.0
C1019 C 1.01404 0.83982 0.58923 0.0
H1020 H 0.04498 0.88207 0.66852 0.0
C1021 C 1.02662 0.86346 0.57089 0.0
C1022 C 0.0463 0.89372 0.58742 0.0
H1023 H 0.99978 0.81611 0.57561 0.0
H1024 H 1.02129 0.85776 0.54367 0.0
C1025 C 0.05186 0.90074 0.62292 0.0
C1026 C 0.59216 0.90082 0.88397 0.0
C1027 C 0.60119 0.91826 0.91753 0.0
H1028 H 0.55767 0.8846 0.84217 0.0
C1029 C 0.58105 0.93182 0.93512 0.0
H1030 H 0.60709 0.89006 0.86964 0.0
C1031 C 0.55275 0.92853 0.91938 0.0
C1032 C 0.54391 0.9117 0.88566 0.0
H1033 H 0.5872 0.94541 0.96097 0.0
H1034 H 0.53772 0.93912 0.93366 0.0
C1035 C 0.5638 0.89753 0.86824 0.0
C1036 C 0.54442 0.16654 0.13313 0.0
C1037 C 0.51836 0.17303 0.11887 0.0
H1038 H 0.57894 0.14122 0.12436 0.0
C1039 C 0.50295 0.15176 0.08904 0.0
H1040 H 0.55689 0.18293 0.15599 0.0
C1041 C 0.51604 0.12922 0.07038 0.0
C1042 C 0.54417 0.12641 0.08202 0.0
H1043 H 0.48297 0.15649 0.07744 0.0
H1044 H 0.50544 0.11702 0.04518 0.0
C1045 C 0.55732 0.14313 0.11473 0.0
C1046 C 0.23105 0.36634 0.33304 0.0
C1047 C 0.24132 0.39439 0.35957 0.0
H1048 H 0.24212 0.33219 0.29347 0.0
C1049 C 0.27066 0.41223 0.3639 0.0
H1050 H 0.20848 0.3523 0.32899 0.0
C1051 C 0.28977 0.40122 0.34314 0.0
C1052 C 0.27996 0.3718 0.31807 0.0
H1053 H 0.27906 0.43426 0.38389 0.0
H1054 H 0.31255 0.41459 0.34808 0.0
C1055 C 0.25028 0.35495 0.31265 0.0
C1056 C 0.03744 0.12792 0.17762 0.0
C1057 C 1.02415 0.09729 0.18779 0.0
H1058 H 0.06415 0.1532 0.14438 0.0
C1059 C 1.02919 0.0677 0.16732 0.0
H1060 H 0.036 0.15186 0.19226 0.0
C1061 C 0.04575 0.06837 0.13933 0.0
C1062 C 0.05961 0.09893 0.12966 0.0
H1063 H 1.02081 0.04321 0.1737 0.0
H1064 H 0.04844 0.0445 0.1258 0.0
C1065 C 0.0544 0.12865 0.14975 0.0
C1066 C 0.25662 0.69364 0.4766 0.0
C1067 C 0.2831 0.68688 0.46841 0.0
H1068 H 0.22557 0.72382 0.46948 0.0
C1069 C 0.29332 0.69612 0.43941 0.0
H1070 H 0.24804 0.68608 0.49853 0.0
C1071 C 0.27982 0.7165 0.42199 0.0
C1072 C 0.25642 0.72842 0.43395 0.0
H1073 H 0.31383 0.69142 0.43285 0.0
H1074 H 0.29031 0.7268 0.40227 0.0
C1075 C 0.24359 0.71497 0.45985 0.0
C1076 C 0.67697 0.05722 0.63566 0.0
C1077 C 0.66803 0.03513 0.65745 0.0
H1078 H 0.66303 0.08299 0.5977 0.0
C1079 C 0.63946 1.01469 0.65103 0.0
H1080 H 0.69881 0.07343 0.64027 0.0
C1081 C 0.6189 1.02037 0.62687 0.0
C1082 C 0.62682 0.04641 0.60888 0.0
H1083 H 0.63212 0.99749 0.66762 0.0
H1084 H 0.59638 1.00652 0.62447 0.0
C1085 C 0.65633 0.06313 0.6117 0.0
C1086 C 0.39116 0.37139 0.95786 0.0
C1087 C 0.37934 0.39888 0.97009 0.0
H1088 H 0.39504 0.33544 0.91439 0.0
C1089 C 0.36131 0.41039 0.94716 0.0
H1090 H 0.4051 0.36193 0.9749 0.0
C1091 C 0.35486 0.3947 0.91313 0.0
C1092 C 0.36688 0.36757 0.90059 0.0
H1093 H 0.35161 0.43128 0.95565 0.0
H1094 H 0.34072 0.4043 0.89643 0.0
C1095 C 0.38542 0.35627 0.92327 0.0
C1096 C 0.03775 0.08196 0.3741 0.0
C1097 C 1.01725 0.10264 0.37363 0.0
H1098 H 0.06822 0.06105 0.403 0.0
C1099 C 1.01384 0.11921 0.40607 0.0
H1100 H 0.0416 0.0685 0.3504 0.0
C1101 C 1.0302 0.11584 0.43672 0.0
C1102 C 0.05035 0.0947 0.43722 0.0
H1103 H 0.99877 0.13558 0.40786 0.0
H1104 H 1.0266 0.12963 0.46039 0.0
C1105 C 0.05331 0.07762 0.40481 0.0
C1106 C 0.37101 0.80809 0.63394 0.0
C1107 C 0.36266 0.77234 0.62828 0.0
H1108 H 0.37848 0.85493 0.66952 0.0
C1109 C 0.35826 0.75641 0.65597 0.0
H1110 H 0.37443 0.82113 0.61306 0.0
C1111 C 0.35995 0.77582 0.6881 0.0
C1112 C 0.36644 0.81152 0.69327 0.0
H1113 H 0.35137 0.72902 0.65247 0.0
H1114 H 0.35526 0.76276 0.70869 0.0
C1115 C 0.37295 0.82749 0.66614 0.0
C1116 C 0.68649 0.08944 0.82874 0.0
C1117 C 0.71592 0.08845 0.82916 0.0
H1118 H 0.6543 0.10655 0.85495 0.0
C1119 C 0.73573 0.10352 0.85871 0.0
H1120 H 0.67033 0.07731 0.80695 0.0
C1121 C 0.72596 0.11947 0.88718 0.0
C1122 C 0.69677 0.12181 0.88563 0.0
H1123 H 0.75847 0.10277 0.85987 0.0
H1124 H 0.74098 0.12989 0.91022 0.0
C1125 C 0.6772 0.10637 0.85629 0.0
C1126 C 0.34835 0.39033 0.15607 0.0
C1127 C 0.37516 0.38542 0.1467 0.0
H1128 H 0.31637 0.38096 0.18955 0.0
C1129 C 0.39101 0.36827 0.16628 0.0
H1130 H 0.33538 0.40313 0.14148 0.0
C1131 C 0.38039 0.35623 0.19415 0.0
C1132 C 0.35328 0.36033 0.20301 0.0
H1133 H 0.41166 0.3639 0.15989 0.0
H1134 H 0.39316 0.34289 0.20832 0.0
C1135 C 0.33737 0.37753 0.18356 0.0
C1136 C 0.3222 0.06041 0.05192 0.0
C1137 C 0.31476 1.02479 0.04755 0.0
H1138 H 0.30878 0.10687 0.06515 0.0
C1139 C 0.28729 1.00877 0.05438 0.0
H1140 H 0.34322 0.07358 0.04699 0.0
C1141 C 0.26748 1.02782 0.0646 0.0
C1142 C 0.27461 0.06343 0.0683 0.0
H1143 H 0.28081 0.98138 0.05121 0.0
H1144 H 0.2462 1.01445 0.0686 0.0
C1145 C 0.30237 0.07949 0.06215 0.0
C1146 C 0.71199 0.65263 0.98202 0.0
C1147 C 0.71771 0.68433 1.00392 0.0
H1148 H 0.68338 0.60292 0.96569 0.0
C1149 C 0.6985 0.68945 0.02735 0.0
H1150 H 0.72646 0.64786 0.96381 0.0
C1151 C 0.67462 0.66326 0.02944 0.0
C1152 C 0.66845 0.6318 1.00711 0.0
H1153 H 0.70247 0.71344 0.04484 0.0
H1154 H 0.66092 0.66772 0.04853 0.0
C1155 C 0.68732 0.62692 0.98314 0.0
C1156 C 0.75118 0.43901 0.28826 0.0
C1157 C 0.76428 0.47456 0.29185 0.0
H1158 H 0.75532 0.38639 0.28237 0.0
C1159 C 0.79519 0.48071 0.29181 0.0
H1160 H 0.72786 0.43136 0.28803 0.0
C1161 C 0.81143 0.45427 0.28883 0.0
C1162 C 0.79844 0.41874 0.28508 0.0
H1163 H 0.8074 0.50672 0.2945 0.0
H1164 H 0.8348 0.46208 0.28954 0.0
C1165 C 0.76743 0.41241 0.28485 0.0
C1166 C 0.97341 0.48958 0.45745 0.0
C1167 C 0.95385 0.50031 0.47832 0.0
H1168 H 1.0179 0.49777 0.44761 0.0
C1169 C 0.96376 0.53039 0.50254 0.0
H1170 H 0.96642 0.46642 0.43861 0.0
C1171 C 0.99307 0.54719 0.50834 0.0
C1172 C 1.01295 0.53537 0.48912 0.0
H1173 H 0.94954 0.53932 0.5193 0.0
H1174 H 1.0005 0.56837 0.5293 0.0
C1175 C 1.0028 0.50736 0.46256 0.0
C1176 C 0.41457 0.15064 0.28713 0.0
C1177 C 0.40715 0.1205 0.2995 0.0
H1178 H 0.39896 0.18673 0.2623 0.0
C1179 C 0.37789 0.10206 0.29389 0.0
H1180 H 0.43697 0.1652 0.29092 0.0
C1181 C 0.3563 0.11397 0.27712 0.0
C1182 C 0.36347 0.14463 0.26567 0.0
H1183 H 0.37149 0.07842 0.30268 0.0
H1184 H 0.3339 0.09945 0.27359 0.0
C1185 C 0.39287 0.16267 0.27039 0.0
C1186 C 0.40513 0.20725 0.52521 0.0
C1187 C 0.37624 0.18922 0.52462 0.0
H1188 H 0.4504 0.20614 0.53038 0.0
C1189 C 0.37122 0.15556 0.5297 0.0
H1190 H 0.40973 0.23323 0.52138 0.0
C1191 C 0.39439 0.14013 0.53486 0.0
C1192 C 0.42329 0.15789 0.53511 0.0
H1193 H 0.34929 0.14094 0.52958 0.0
H1194 H 0.38962 0.11425 0.53898 0.0
C1195 C 0.42843 0.19178 0.5305 0.0
C1196 C 0.7914 0.6728 0.31063 0.0
C1197 C 0.76162 0.67177 0.31221 0.0
H1198 H 0.83432 0.70193 0.30723 0.0
C1199 C 0.75382 0.70343 0.31126 0.0
H1200 H 0.79907 0.64986 0.31105 0.0
C1201 C 0.77433 0.73392 0.30874 0.0
C1202 C 0.80411 0.7348 0.3072 0.0
H1203 H 0.73138 0.70476 0.31218 0.0
H1204 H 0.76672 0.75685 0.30798 0.0
C1205 C 0.8119 0.70327 0.30834 0.0
C1206 C 0.92205 0.48429 0.88729 0.0
C1207 C 0.94951 0.48454 0.87702 0.0
H1208 H 0.87721 0.45723 0.882 0.0
C1209 C 0.95359 0.45551 0.85644 0.0
H1210 H 0.91833 0.50667 0.90274 0.0
C1211 C 0.92991 0.42826 0.84328 0.0
C1212 C 0.90199 0.42917 0.85135 0.0
H1213 H 0.97434 0.45527 0.84761 0.0
H1214 H 0.93327 0.40687 0.82594 0.0
C1215 C 0.89847 0.45646 0.8749 0.0
C1216 C 0.15811 0.97757 0.12639 0.0
C1217 C 0.14977 0.94315 0.11026 0.0
H1218 H 0.15711 1.02932 0.12441 0.0
C1219 C 0.13298 0.93553 0.07789 0.0
H1220 H 0.17077 0.98468 0.15132 0.0
C1221 C 0.12423 0.96123 0.06271 0.0
C1222 C 0.13271 0.9957 0.07888 0.0
H1223 H 0.12569 0.9094 0.06467 0.0
H1224 H 0.11083 0.95408 0.03823 0.0
C1225 C 0.15019 1.00331 0.11081 0.0
C1226 C 0.93375 0.32377 0.91788 0.0
C1227 C 0.95438 0.30517 0.90809 0.0
H1228 H 0.89445 0.33952 0.90344 0.0
C1229 C 0.94915 0.28635 0.87491 0.0
H1230 H 0.93688 0.33879 0.94308 0.0
C1231 C 0.92434 0.28622 0.85239 0.0
C1232 C 0.90415 0.30552 0.86192 0.0
H1233 H 0.96427 0.27167 0.86624 0.0
H1234 H 0.92144 0.27158 0.82705 0.0
C1235 C 0.90926 0.32422 0.89511 0.0
C1236 C 0.6141 0.24306 0.6032 0.0
C1237 C 0.64121 0.26107 0.59697 0.0
H1238 H 0.5835 0.19457 0.59662 0.0
C1239 C 0.65875 0.24248 0.57976 0.0
H1240 H 0.59992 0.25649 0.61617 0.0
C1241 C 0.64962 0.20714 0.56911 0.0
C1242 C 0.62231 0.18911 0.5746 0.0
H1243 H 0.67978 0.2553 0.57453 0.0
H1244 H 0.6639 0.19401 0.55597 0.0
C1245 C 0.60461 0.20757 0.59178 0.0
C1246 C 0.64126 0.81729 0.41595 0.0
C1247 C 0.61334 0.80507 0.39694 0.0
H1248 H 0.6873 0.83162 0.41572 0.0
C1249 C 0.61111 0.7961 0.36169 0.0
H1250 H 0.64386 0.82417 0.44318 0.0
C1251 C 0.63622 0.8007 0.34579 0.0
C1252 C 0.66409 0.81435 0.36482 0.0
H1253 H 0.58994 0.7867 0.34629 0.0
H1254 H 0.63367 0.79485 0.31852 0.0
C1255 C 0.66624 0.82179 0.40016 0.0
C1256 C 0.19549 0.34052 0.51457 0.0
C1257 C 0.18583 0.34359 0.48161 0.0
H1258 H 0.19052 0.31086 0.55307 0.0
C1259 C 0.16595 0.31596 0.46036 0.0
H1260 H 0.21092 0.36141 0.53144 0.0
C1261 C 0.15359 0.28729 0.47305 0.0
C1262 C 0.16115 0.28568 0.50709 0.0
H1263 H 0.15785 0.31778 0.43497 0.0
H1264 H 0.13656 0.26764 0.45685 0.0
C1265 C 0.18344 0.31178 0.5271 0.0
C1266 C 0.63235 0.29932 0.15457 0.0
C1267 C 0.60958 0.29844 0.17422 0.0
H1268 H 0.67658 0.2963 0.15239 0.0
C1269 C 0.6156 0.29786 0.20875 0.0
H1270 H 0.62865 0.30002 0.12797 0.0
C1271 C 0.64318 0.29574 0.2227 0.0
C1272 C 0.66514 0.29396 0.20232 0.0
H1273 H 0.59864 0.29734 0.22468 0.0
H1274 H 0.64683 0.29359 0.24893 0.0
C1275 C 0.65978 0.29694 0.16845 0.0
C1276 C 0.69733 1.02223 0.98472 0.0
C1277 C 0.6859 1.00553 0.9516 0.0
H1278 H 0.68856 0.04722 0.03142 0.0
C1279 C 0.6583 1.00829 0.93765 0.0
H1280 H 0.71855 1.02048 0.99597 0.0
C1281 C 0.64078 1.02334 0.95827 0.0
C1282 C 0.65096 0.03572 0.99272 0.0
H1283 H 0.64892 0.99528 0.9122 0.0
H1284 H 0.61855 1.02243 0.94807 0.0
C1285 C 0.67997 0.0371 1.00513 0.0
C1286 C 0.96832 0.77654 0.75868 0.0
C1287 C 0.96068 0.757 0.72589 0.0
H1288 H 0.95297 0.80157 0.80141 0.0
C1289 C 0.93123 0.74171 0.71388 0.0
H1290 H 0.99091 0.78872 0.7685 0.0
C1291 C 0.90959 0.7487 0.73279 0.0
C1292 C 0.91694 0.77156 0.76388 0.0
H1293 H 0.92477 0.72643 0.68872 0.0
H1294 H 0.88709 0.73882 0.72137 0.0
C1295 C 0.94657 0.78402 0.77745 0.0
C1296 C 0.1959 0.07486 0.92731 0.0
C1297 C 0.18234 0.06366 0.89286 0.0
H1298 H 0.19209 0.08537 0.98107 0.0
C1299 C 0.15121 0.05442 0.89 0.0
H1300 H 0.21947 0.08243 0.93236 0.0
C1301 C 0.13519 0.05538 0.91863 0.0
C1302 C 0.14857 0.067 0.953 0.0
H1303 H 0.13876 0.04544 0.86505 0.0
H1304 H 0.11167 0.04679 0.91354 0.0
C1305 C 0.17975 0.07683 0.95602 0.0
C1306 C 0.90431 0.46656 0.6288 0.0
C1307 C 0.92072 0.45993 0.60283 0.0
H1308 H 0.8951 0.45751 0.67718 0.0
C1309 C 0.9462 0.44861 0.6097 0.0
H1310 H 0.88476 0.4757 0.6242 0.0
C1311 C 0.95216 0.43813 0.63998 0.0
C1312 C 0.9328 0.43907 0.66373 0.0
H1313 H 0.95974 0.4443 0.59029 0.0
H1314 H 0.96999 0.42581 0.64316 0.0
C1315 C 0.91036 0.45616 0.65925 0.0
C1316 C 0.54877 0.12558 0.40989 0.0
C1317 C 0.51923 0.11582 0.41373 0.0
H1318 H 0.59308 0.12914 0.43019 0.0
C1319 C 0.51185 0.1054 0.4435 0.0
H1320 H 0.55493 0.13357 0.387 0.0
C1321 C 0.53365 0.10203 0.46774 0.0
C1322 C 0.56304 0.10959 0.46283 0.0
H1323 H 0.48922 0.09737 0.44688 0.0
H1324 H 0.52743 0.09227 0.48966 0.0
C1325 C 0.57056 0.12288 0.43446 0.0
C1326 C 0.7995 0.80338 0.1311 0.0
C1327 C 0.81494 0.78234 0.11326 0.0
H1328 H 0.7933 0.8298 0.17886 0.0
C1329 C 0.83722 0.77224 0.13181 0.0
H1330 H 0.78213 0.81167 0.11788 0.0
C1331 C 0.84403 0.78326 0.16708 0.0
C1332 C 0.82834 0.80411 0.18484 0.0
H1333 H 0.84968 0.7562 0.11904 0.0
H1334 H 0.86136 0.77508 0.18049 0.0
C1335 C 0.8059 0.81382 0.16626 0.0
C1336 C 0.1648 0.03941 0.67704 0.0
C1337 C 0.17538 0.06804 0.70384 0.0
H1338 H 0.14219 1.019 0.62574 0.0
C1339 C 0.17031 0.09895 0.69563 0.0
H1340 H 0.16682 1.01466 0.68134 0.0
C1341 C 0.15555 0.1014 0.66391 0.0
C1342 C 0.14442 0.07307 0.6373 0.0
H1343 H 0.17717 0.12196 0.71469 0.0
H1344 H 0.15251 0.12606 0.66051 0.0
C1345 C 0.15 0.04193 0.64473 0.0
C1346 C 0.84282 0.37617 0.43716 0.0
C1347 C 0.84488 0.41085 0.43675 0.0
H1348 H 0.83906 0.32635 0.40788 0.0
C1349 C 0.84442 0.42184 0.40601 0.0
H1350 H 0.84321 0.36714 0.46075 0.0
C1351 C 0.84283 0.39886 0.37629 0.0
C1352 C 0.84098 0.36421 0.37646 0.0
H1353 H 0.84625 0.44838 0.40497 0.0
H1354 H 0.8431 0.40853 0.35314 0.0
C1355 C 0.84056 0.35288 0.4071 0.0
C1356 C 0.4739 0.04209 0.22348 0.0
C1357 C 0.47523 1.02216 0.24815 0.0
H1358 H 0.48377 0.04921 0.17482 0.0
C1359 C 0.47955 0.98936 0.23936 0.0
H1360 H 0.47055 0.06751 0.22989 0.0
C1361 C 0.48653 0.97845 0.2076 0.0
C1362 C 0.49012 1.00061 0.18464 0.0
H1363 H 0.48017 0.97341 0.25804 0.0
H1364 H 0.49206 0.95407 0.20239 0.0
C1365 C 0.48144 1.03143 0.19183 0.0
C1366 C 0.82898 0.79864 0.93601 0.0
C1367 C 0.81789 0.76332 0.93101 0.0
H1368 H 0.84889 0.84117 0.91536 0.0
C1369 C 0.81643 0.74409 0.89836 0.0
H1370 H 0.83064 0.81442 0.96059 0.0
C1371 C 0.82644 0.75978 0.87181 0.0
C1372 C 0.8389 0.79492 0.87762 0.0
H1373 H 0.80809 0.71681 0.89349 0.0
H1374 H 0.82561 0.74426 0.84728 0.0
C1375 C 0.83962 0.81403 0.90995 0.0
C1376 C 0.887 0.09566 0.0582 0.0
C1377 C 0.89137 0.1306 0.05806 0.0
H1378 H 0.90474 0.05144 0.0499 0.0
C1379 C 0.91831 0.14819 0.05128 0.0
H1380 H 0.8663 0.08135 0.06285 0.0
C1381 C 0.94021 0.13128 0.0442 0.0
C1382 C 0.93562 0.09613 0.04306 0.0
H1383 H 0.92227 0.17505 0.05073 0.0
H1384 H 0.9605 0.14559 0.03849 0.0
C1385 C 0.90883 0.07849 0.05039 0.0
C1386 C 0.4815 0.51304 0.08654 0.0
C1387 C 0.47443 0.48288 0.06204 0.0
H1388 H 0.51178 0.56128 0.1062 0.0
C1389 C 0.49307 0.4793 0.03758 0.0
H1390 H 0.4677 0.51669 0.10578 0.0
C1391 C 0.51769 0.50517 0.0372 0.0
C1392 C 0.52521 0.535 0.062 0.0
H1393 H 0.48829 0.45664 1.01812 0.0
H1394 H 0.53095 0.50166 1.01744 0.0
C1395 C 0.50682 0.53855 0.08682 0.0
C1396 C 0.40535 0.68682 0.77448 0.0
C1397 C 0.43622 0.69219 0.78352 0.0
H1398 H 0.36645 0.70665 0.76877 0.0
C1399 C 0.45007 0.72758 0.79468 0.0
H1400 H 0.39263 0.661 0.76577 0.0
C1401 C 0.43448 0.7548 0.79642 0.0
C1402 C 0.4035 0.74923 0.78743 0.0
H1403 H 0.47344 0.73461 0.80227 0.0
H1404 H 0.4471 0.78067 0.80505 0.0
C1405 C 0.38983 0.71386 0.77637 0.0
C1406 C 0.23567 0.64214 0.57847 0.0
C1407 C 0.2427 0.67702 0.57768 0.0
H1408 H 0.2013 0.59803 0.57664 0.0
C1409 C 0.22092 0.69532 0.58144 0.0
H1410 H 0.25188 0.6273 0.57579 0.0
C1411 C 0.19211 0.67848 0.58156 0.0
C1412 C 0.18469 0.64323 0.57886 0.0
H1413 H 0.22558 0.72233 0.58151 0.0
H1414 H 0.17529 0.6926 0.58098 0.0
C1415 C 0.20677 0.62537 0.57909 0.0
C1416 C 0.78356 0.98162 0.75305 0.0
C1417 C 0.78687 1.00821 0.73502 0.0
H1418 H 0.80493 0.95046 0.77919 0.0
C1419 C 0.8141 1.02037 0.72501 0.0
H1420 H 0.7629 0.97167 0.7611 0.0
C1421 C 0.83817 1.00806 0.73535 0.0
C1422 C 0.83524 0.98382 0.75605 0.0
H1423 H 0.81724 0.0408 0.71099 0.0
H1424 H 0.85932 1.01887 0.72891 0.0
C1425 C 0.80762 0.96971 0.76371 0.0
C1426 C 0.78581 0.95636 0.55278 0.0
C1427 C 0.81345 0.97584 0.56875 0.0
H1428 H 0.7419 0.95624 0.53371 0.0
C1429 C 0.81679 1.01076 0.58067 0.0
H1430 H 0.78246 0.9294 0.54325 0.0
C1431 C 0.79353 1.02613 0.5752 0.0
C1432 C 0.76628 1.007 0.5577 0.0
H1433 H 0.83769 1.02652 0.59322 0.0
H1434 H 0.7971 0.05323 0.58406 0.0
C1435 C 0.76249 0.97174 0.54739 0.0
C1436 C 0.44123 0.46315 0.78435 0.0
C1437 C 0.43369 0.49447 0.7808 0.0
H1438 H 0.42766 0.40992 0.788 0.0
C1439 C 0.40341 0.49277 0.77766 0.0
H1440 H 0.46396 0.46221 0.78696 0.0
C1441 C 0.38232 0.46211 0.77835 0.0
C1442 C 0.38991 0.43096 0.78213 0.0
H1443 H 0.39582 0.51536 0.775 0.0
H1444 H 0.35958 0.46299 0.7761 0.0
C1445 C 0.42012 0.43246 0.78496 0.0
C1446 C 0.25255 0.68656 0.31172 0.0
C1447 C 0.249 0.66656 0.27944 0.0
H1448 H 0.27452 0.7333 0.34453 0.0
C1449 C 0.26315 0.68009 0.25428 0.0
H1450 H 0.24223 0.67657 0.33169 0.0
C1451 C 0.28103 0.71287 0.26146 0.0
C1452 C 0.28556 0.73239 0.29414 0.0
H1453 H 0.26083 0.66506 0.22918 0.0
H1454 H 0.29179 0.72254 0.24161 0.0
C1455 C 0.27107 0.71897 0.31911 0.0
C1456 C 0.57389 0.73248 0.52883 0.0
C1457 C 0.55701 0.72898 0.49717 0.0
H1458 H 0.59748 0.70905 0.56264 0.0
C1459 C 0.55056 0.69708 0.47542 0.0
H1460 H 0.57939 0.75663 0.54624 0.0
C1461 C 0.5601 0.66939 0.48539 0.0
C1462 C 0.57736 0.67307 0.51685 0.0
H1463 H 0.53758 0.69331 0.45096 0.0
H1464 H 0.55429 0.64511 0.46816 0.0
C1465 C 0.58436 0.70518 0.53824 0.0
C1466 C 0.73968 0.38556 0.72689 0.0
C1467 C 0.74018 0.37142 0.69297 0.0
H1468 H 0.75993 0.39505 0.77856 0.0
C1469 C 0.76308 0.35544 0.68611 0.0
H1470 H 0.72253 0.398 0.7334 0.0
C1471 C 0.78418 0.3529 0.71223 0.0
C1472 C 0.7837 0.36713 0.74609 0.0
H1473 H 0.76425 0.34392 0.66049 0.0
H1474 H 0.80092 0.33971 0.7059 0.0
C1475 C 0.76129 0.38391 0.75287 0.0
C1476 C 0.04006 0.4135 1.00463 0.0
C1477 C 0.05523 0.40059 0.9795 0.0
H1478 H 0.03455 0.45794 0.03744 0.0
C1479 C 0.07769 0.42341 0.96924 0.0
H1480 H 1.02262 0.39659 1.01301 0.0
C1481 C 0.08508 0.45806 0.98383 0.0
C1482 C 0.06963 0.47129 1.0084 0.0
H1483 H 0.08993 0.41434 0.95008 0.0
H1484 H 0.10265 0.47468 0.97532 0.0
C1485 C 0.04683 0.44861 1.01849 0.0
C1486 C 0.04998 0.85463 0.17141 0.0
C1487 C 0.07661 0.85258 0.18863 0.0
H1488 H 1.00457 0.85255 0.17328 0.0
C1489 C 0.07737 0.846 0.22154 0.0
H1490 H 0.0487 0.85974 0.14605 0.0
C1491 C 0.05228 0.8418 0.237 0.0
C1492 C 1.02563 0.84416 0.22011 0.0
H1493 H 0.09744 0.84403 0.23552 0.0
H1494 H 0.05375 0.83621 0.26217 0.0
C1495 C 1.02471 0.85043 0.18698 0.0
C1496 C 0.51585 0.33749 0.08828 0.0
C1497 C 0.52144 0.3447 0.12367 0.0
H1498 H 0.52377 0.35446 0.04241 0.0
C1499 C 0.53869 0.37651 0.14024 0.0
H1500 H 0.50246 0.31318 0.07486 0.0
C1501 C 0.55134 0.40004 0.12154 0.0
C1502 C 0.54681 0.39214 0.08603 0.0
H1503 H 0.54358 0.38254 0.16749 0.0
H1504 H 0.56555 0.42387 0.1349 0.0
C1505 C 0.52834 0.36095 0.06967 0.0
C1506 C 0.08085 0.43696 0.43508 0.0
C1507 C 0.10064 0.42201 0.41816 0.0
H1508 H 0.03781 0.4453 0.4329 0.0
C1509 C 0.09141 0.40344 0.38505 0.0
H1510 H 0.08722 0.4515 0.46055 0.0
C1511 C 0.06314 0.40017 0.36913 0.0
C1512 C 0.04352 0.41547 0.3859 0.0
H1513 H 0.10607 0.39163 0.37122 0.0
H1514 H 0.05686 0.38622 0.34342 0.0
C1515 C 0.0526 0.43369 0.41913 0.0
C1516 C 1.00521 0.65731 0.57529 0.0
C1517 C 1.01794 0.67616 0.60739 0.0
H1518 H 1.01206 0.62779 0.52986 0.0
C1519 C 0.04424 0.67067 0.62225 0.0
H1520 H 0.98495 0.66101 0.5633 0.0
C1521 C 0.05976 0.65102 0.60307 0.0
C1522 C 0.04909 0.63709 0.56899 0.0
H1523 H 0.05467 0.68507 0.64689 0.0
H1524 H 0.08126 0.6497 0.61379 0.0
C1525 C 1.02096 0.63863 0.55597 0.0
C1526 C 0.73418 0.86555 0.83414 0.0
C1527 C 0.74401 0.89408 0.86022 0.0
H1528 H 0.74588 0.83043 0.79602 0.0
C1529 C 0.77349 0.91162 0.86521 0.0
H1530 H 0.71154 0.85168 0.82957 0.0
C1531 C 0.79308 0.89987 0.84558 0.0
C1532 C 0.78363 0.86999 0.821 0.0
H1533 H 0.78161 0.93398 0.88488 0.0
H1534 H 0.81589 0.91314 0.85096 0.0
C1535 C 0.75385 0.85345 0.81489 0.0
C1536 C 0.52808 0.56705 0.66526 0.0
C1537 C 0.52378 0.59669 0.68635 0.0
H1538 H 0.54664 0.54388 0.6231 0.0
C1539 C 0.53771 0.62741 0.67681 0.0
H1540 H 0.51921 0.54249 0.6712 0.0
C1541 C 0.55455 0.62817 0.64889 0.0
C1542 C 0.55899 0.59841 0.62812 0.0
H1543 H 0.53687 0.65132 0.69202 0.0
H1544 H 0.56484 0.65276 0.64403 0.0
C1545 C 0.54452 0.56778 0.63718 0.0
C1546 C 0.76374 0.18439 0.97472 0.0
C1547 C 0.78718 0.1688 0.97245 0.0
H1548 H 0.74115 0.21824 0.95521 0.0
C1549 C 0.79966 0.16613 0.94272 0.0
H1550 H 0.75344 0.18607 0.99726 0.0
C1551 C 0.79232 0.18415 0.91816 0.0
C1552 C 0.77296 0.20546 0.92375 0.0
H1553 H 0.81772 0.15403 0.94048 0.0
H1554 H 0.80445 0.18481 0.89703 0.0
C1555 C 0.75659 0.2027 0.95044 0.0
C1556 C 0.178 0.56185 0.14847 0.0
C1557 C 0.16914 0.54032 0.17085 0.0
H1558 H 0.16427 0.58561 0.10854 0.0
C1559 C 0.14014 0.52126 0.16582 0.0
H1560 H 0.20011 0.57725 0.15214 0.0
C1561 C 0.11976 0.52584 0.14074 0.0
C1562 C 0.12797 0.54993 0.12062 0.0
H1563 H 0.13278 0.50461 0.18288 0.0
H1564 H 0.09724 0.51209 0.13854 0.0
C1565 C 0.15744 0.56688 0.12372 0.0
C1566 C 0.88898 0.87238 0.46019 0.0
C1567 C 0.87702 0.89969 0.47263 0.0
H1568 H 0.89307 0.8368 0.41653 0.0
C1569 C 0.8588 0.91109 0.44982 0.0
H1570 H 0.90309 0.86299 0.47711 0.0
C1571 C 0.85237 0.89556 0.4157 0.0
C1572 C 0.8646 0.86868 0.40292 0.0
H1573 H 0.849 0.93186 0.45844 0.0
H1574 H 0.83813 0.90515 0.39911 0.0
C1575 C 0.88326 0.85742 0.42553 0.0
C1576 C 0.53799 0.5811 0.87279 0.0
C1577 C 0.51751 0.60181 0.87233 0.0
H1578 H 0.56849 0.5602 0.90167 0.0
C1579 C 0.51415 0.61841 0.90477 0.0
H1580 H 0.54181 0.56761 0.84908 0.0
C1581 C 0.53054 0.61506 0.93541 0.0
C1582 C 0.55068 0.5939 0.93591 0.0
H1583 H 0.49909 0.63479 0.90658 0.0
H1584 H 0.52698 0.62889 0.95908 0.0
C1585 C 0.55358 0.57678 0.90349 0.0
C1586 C 0.86559 0.29999 0.13606 0.0
C1587 C 0.85803 0.26438 0.13307 0.0
H1588 H 0.87332 0.34868 0.16879 0.0
C1589 C 0.85506 0.25077 0.16231 0.0
H1590 H 0.86798 0.31127 0.11391 0.0
C1591 C 0.85745 0.27218 0.19344 0.0
C1592 C 0.86334 0.30767 0.19611 0.0
H1593 H 0.84888 0.22356 0.16089 0.0
H1594 H 0.8539 0.26076 0.21529 0.0
C1595 C 0.86832 0.32145 0.16734 0.0
C1596 C 0.25245 0.60833 0.35108 0.0
C1597 C 0.24193 0.57367 0.3369 0.0
H1598 H 0.24597 0.65052 0.38592 0.0
C1599 C 0.22156 0.55335 0.35213 0.0
H1600 H 0.26796 0.6245 0.33942 0.0
C1601 C 0.20989 0.56797 0.37931 0.0
C1602 C 0.21774 0.60328 0.39087 0.0
H1603 H 0.21301 0.52664 0.34135 0.0
H1604 H 0.19266 0.55213 0.38911 0.0
C1605 C 0.23987 0.62325 0.3775 0.0
C1606 C 0.84984 0.89155 0.66077 0.0
C1607 C 0.87672 0.88766 0.65085 0.0
H1608 H 0.81825 0.8803 0.69432 0.0
C1609 C 0.89354 0.8713 0.67029 0.0
H1610 H 0.83618 0.90381 0.64641 0.0
C1611 C 0.88357 0.85858 0.69819 0.0
C1612 C 0.85608 0.86094 0.70707 0.0
H1613 H 0.91435 0.86783 0.6636 0.0
H1614 H 0.89698 0.84564 0.71203 0.0
C1615 C 0.83948 0.87794 0.68818 0.0
C1616 C 0.7891 0.50748 0.55393 0.0
C1617 C 0.81746 0.52491 0.55134 0.0
H1618 H 0.74614 0.51103 0.56319 0.0
C1619 C 0.82453 0.56066 0.55861 0.0
H1620 H 0.78289 0.47998 0.54861 0.0
C1621 C 0.80341 0.57851 0.56723 0.0
C1622 C 0.77471 0.56097 0.56832 0.0
H1623 H 0.8462 0.57486 0.5569 0.0
H1624 H 0.80922 0.606 0.57174 0.0
C1625 C 0.76797 0.52527 0.56215 0.0
C1626 C 0.19776 0.19056 0.52721 0.0
C1627 C 0.21676 0.18538 0.50351 0.0
H1628 H 0.16052 0.16887 0.54901 0.0
C1629 C 0.21099 0.15354 0.48184 0.0
H1630 H 0.20176 0.21465 0.54454 0.0
C1631 C 0.18649 0.12777 0.48343 0.0
C1632 C 0.16784 0.13273 0.50764 0.0
H1633 H 0.22528 0.14868 0.46344 0.0
H1634 H 0.18251 0.10368 0.46613 0.0
C1635 C 0.17406 0.16433 0.52976 0.0
C1636 C 0.29599 0.98072 0.79186 0.0
C1637 C 0.26502 0.9744 0.79161 0.0
H1638 H 0.33571 0.96231 0.7895 0.0
C1639 C 0.25199 0.93875 0.78731 0.0
H1640 H 0.30817 1.0068 0.79508 0.0
C1641 C 0.26833 0.91224 0.78348 0.0
C1642 C 0.29939 0.91873 0.784 0.0
H1643 H 0.22865 0.93094 0.7868 0.0
H1644 H 0.25625 0.88613 0.78043 0.0
C1645 C 0.31232 0.95435 0.78851 0.0
C1646 C 0.47048 0.98071 0.95826 0.0
C1647 C 0.45078 0.99296 0.97793 0.0
H1648 H 0.51531 0.9868 0.95005 0.0
C1649 C 0.46092 1.02347 1.00149 0.0
H1650 H 0.46331 0.95716 0.93997 0.0
C1651 C 0.49044 0.03927 1.00789 0.0
C1652 C 0.51035 1.02605 0.98989 0.0
H1653 H 0.44661 0.03351 1.01741 0.0
H1654 H 0.49801 0.06065 0.02854 0.0
C1655 C 0.50015 0.99749 0.96399 0.0
C1656 C 0.88042 0.59917 0.79536 0.0
C1657 C 0.90967 0.6177 0.80151 0.0
H1658 H 0.83654 0.59667 0.77465 0.0
C1659 C 0.91722 0.64794 0.78932 0.0
H1660 H 0.87392 0.57546 0.80401 0.0
C1661 C 0.89565 0.66004 0.77235 0.0
C1662 C 0.86623 0.64201 0.7673 0.0
H1663 H 0.9396 0.66259 0.79349 0.0
H1664 H 0.90183 0.68419 0.76444 0.0
C1665 C 0.85895 0.61119 0.77845 0.0
C1666 C 0.90617 0.70626 0.03026 0.0
C1667 C 0.87721 0.68823 0.02923 0.0
H1668 H 0.95145 0.70518 0.03641 0.0
C1669 C 0.87205 0.65465 0.03454 0.0
H1670 H 0.91088 0.73218 0.02625 0.0
C1671 C 0.89515 0.63928 0.04035 0.0
C1672 C 0.92413 0.65702 0.04103 0.0
H1673 H 0.85005 0.64004 0.03409 0.0
H1674 H 0.89027 0.61345 0.0446 0.0
C1675 C 0.92941 0.69084 0.0362 0.0
C1676 C 0.25495 0.20299 0.81117 0.0
C1677 C 0.26253 0.17122 0.81214 0.0
H1678 H 0.26813 0.25626 0.80743 0.0
C1679 C 0.29218 0.17184 0.81007 0.0
H1680 H 0.23261 0.20461 0.81244 0.0
C1681 C 0.31276 0.20205 0.8073 0.0
C1682 C 0.30521 0.23369 0.80612 0.0
H1683 H 0.29967 0.1488 0.81046 0.0
H1684 H 0.33508 0.20041 0.80582 0.0
C1685 C 0.27556 0.23322 0.80817 0.0
C1686 C 0.45204 0.95553 0.35804 0.0
C1687 C 0.44696 0.98626 0.37389 0.0
H1688 H 0.43315 0.90419 0.33351 0.0
C1689 C 0.419 0.98698 0.38229 0.0
H1690 H 0.47321 0.95429 0.3509 0.0
C1691 C 0.39593 0.95819 0.37222 0.0
C1692 C 0.40048 0.92869 0.35303 0.0
H1693 H 0.41454 1.01052 0.39433 0.0
H1694 H 0.3743 0.95969 0.37754 0.0
C1695 C 0.42891 0.92712 0.34733 0.0
C1696 C 0.62947 0.43401 0.57487 0.0
C1697 C 0.64782 0.44185 0.60625 0.0
H1698 H 0.60587 0.45254 0.53636 0.0
C1699 C 0.65743 0.47634 0.62173 0.0
H1700 H 0.62122 0.40777 0.56227 0.0
C1701 C 0.64924 0.50204 0.60644 0.0
C1702 C 0.63021 0.49428 0.57558 0.0
H1703 H 0.67132 0.48353 0.64591 0.0
H1704 H 0.65727 0.52817 0.61944 0.0
C1705 C 0.62044 0.45973 0.56005 0.0
C1706 C 0.43231 0.82135 0.42359 0.0
C1707 C 0.45278 0.80292 0.41299 0.0
H1708 H 0.3925 0.83647 0.4106 0.0
C1709 C 0.44668 0.78351 0.38001 0.0
H1710 H 0.43613 0.8368 0.44865 0.0
C1711 C 0.42115 0.78277 0.35839 0.0
C1712 C 0.40117 0.802 0.36873 0.0
H1713 H 0.46171 0.76895 0.37079 0.0
H1714 H 0.41755 0.76786 0.33309 0.0
C1715 C 0.40715 0.82118 0.40174 0.0
C1716 C 0.15766 0.74294 0.08249 0.0
C1717 C 0.14053 0.76174 0.10017 0.0
H1718 H 0.16255 0.69427 0.05906 0.0
C1719 C 0.11365 0.74385 0.10722 0.0
H1720 H 0.17848 0.75558 0.07659 0.0
C1721 C 0.10416 0.70826 0.09652 0.0
C1722 C 0.12158 0.68957 0.07914 0.0
H1723 H 0.09977 0.75738 0.12062 0.0
H1724 H 0.08335 0.69536 0.10223 0.0
C1725 C 0.14849 0.70754 0.07245 0.0
C1726 C 0.1131 0.29464 0.8626 0.0
C1727 C 0.11512 0.30438 0.89777 0.0
H1728 H 0.1358 0.29263 0.81958 0.0
C1729 C 0.14295 0.31746 0.91683 0.0
H1730 H 0.09202 0.28459 0.84713 0.0
C1731 C 0.16802 0.32193 0.90112 0.0
C1732 C 0.16605 0.31356 0.86582 0.0
H1733 H 0.14539 0.32504 0.94399 0.0
H1734 H 0.189 0.33241 0.9167 0.0
C1735 C 0.13826 0.29917 0.84681 0.0
C1736 C 0.66842 0.81512 0.95925 0.0
C1737 C 0.68841 0.84263 0.98054 0.0
H1738 H 0.63881 0.76694 0.95562 0.0
C1739 C 0.69816 0.83932 1.01339 0.0
H1740 H 0.66025 0.81712 0.93394 0.0
C1741 C 0.68603 0.81053 0.02581 0.0
C1742 C 0.66357 0.78463 1.00581 0.0
H1743 H 0.71366 0.86011 0.0303 0.0
H1744 H 0.69316 0.80946 0.05173 0.0
C1745 C 0.65598 0.78642 0.97183 0.0
C1746 C 0.13194 0.79696 0.64914 0.0
C1747 C 0.10953 0.7964 0.66928 0.0
H1748 H 0.17615 0.79423 0.64627 0.0
C1749 C 0.11609 0.79632 0.70386 0.0
H1750 H 0.12781 0.79729 0.62249 0.0
C1751 C 0.14389 0.79452 0.71743 0.0
C1752 C 0.16557 0.79261 0.69666 0.0
H1753 H 0.09943 0.79605 0.72017 0.0
H1754 H 0.14794 0.79283 0.74375 0.0
C1755 C 0.15961 0.79496 0.66267 0.0
C1756 C 0.16056 0.51123 0.43811 0.0
C1757 C 0.18754 0.50712 0.45244 0.0
H1758 H 0.12152 0.52733 0.44789 0.0
C1759 C 0.19881 0.52307 0.48581 0.0
H1760 H 0.15133 0.49885 0.41243 0.0
C1761 C 0.18169 0.53856 0.50604 0.0
C1762 C 0.15318 0.53868 0.4931 0.0
H1763 H 0.21958 0.52025 0.49732 0.0
H1764 H 0.19005 0.54817 0.53247 0.0
C1765 C 0.14332 0.52692 0.4585 0.0
C1766 C 0.42988 0.24498 0.21514 0.0
C1767 C 0.45919 0.26076 0.22753 0.0
H1768 H 0.38545 0.2417 0.22163 0.0
C1769 C 0.46626 0.28114 0.25994 0.0
H1770 H 0.42387 0.22903 0.19027 0.0
C1771 C 0.44411 0.28881 0.27791 0.0
C1772 C 0.41464 0.27567 0.26394 0.0
H1773 H 0.48872 0.2937 0.27004 0.0
H1774 H 0.45007 0.30691 0.30154 0.0
C1775 C 0.40783 0.25213 0.2333 0.0
C1776 C 0.65051 0.55401 0.38888 0.0
C1777 C 0.68161 0.56386 0.39186 0.0
H1778 H 0.61096 0.54585 0.41232 0.0
C1779 C 0.69511 0.57558 0.42626 0.0
H1780 H 0.63816 0.5446 0.36392 0.0
C1781 C 0.67889 0.57751 0.45488 0.0
C1782 C 0.64775 0.56705 0.45175 0.0
H1783 H 0.71865 0.58363 0.43134 0.0
H1784 H 0.69116 0.58654 0.4799 0.0
C1785 C 0.63444 0.5549 0.41742 0.0
C1786 C 0.39465 0.96882 0.12752 0.0
C1787 C 0.41087 0.95649 0.10345 0.0
H1788 H 0.38096 0.96525 0.17558 0.0
C1789 C 0.43269 0.94033 0.11338 0.0
H1790 H 0.37819 0.98215 0.1208 0.0
C1791 C 0.43404 0.93038 0.14449 0.0
C1792 C 0.41373 0.93682 0.16593 0.0
H1793 H 0.44631 0.93173 0.09563 0.0
H1794 H 0.44825 0.91384 0.14952 0.0
C1795 C 0.39621 0.95911 0.15886 0.0
C1796 C 1.01028 0.60041 0.94888 0.0
C1797 C 1.01809 0.61574 0.92174 0.0
H1798 H 1.02548 0.5827 0.99242 0.0
C1799 C 0.04765 0.62962 0.92063 0.0
H1800 H 0.98767 0.58888 0.94988 0.0
C1801 C 0.06924 0.62643 0.94518 0.0
C1802 C 0.06159 0.60852 0.97073 0.0
H1803 H 0.05414 0.64118 0.89962 0.0
H1804 H 0.09192 0.63613 0.94294 0.0
C1805 C 1.03194 0.59653 0.97301 0.0
C1806 C 0.3374 0.27206 0.62945 0.0
C1807 C 0.31497 0.28241 0.61142 0.0
H1808 H 0.36196 0.27436 0.67775 0.0
C1809 C 0.29975 0.30333 0.62978 0.0
H1810 H 0.3497 0.2561 0.61625 0.0
C1811 C 0.30649 0.31342 0.66493 0.0
C1812 C 0.32907 0.30347 0.68301 0.0
H1813 H 0.28227 0.3118 0.61698 0.0
H1814 H 0.29404 0.32933 0.67794 0.0
C1815 C 0.34454 0.28274 0.66473 0.0
C1816 C 0.67036 0.59869 0.19447 0.0
C1817 C 0.67516 0.56777 0.20292 0.0
H1818 H 0.65285 0.62571 0.15907 0.0
C1819 C 0.66436 0.539 0.17631 0.0
H1820 H 0.67737 0.62178 0.2134 0.0
C1821 C 0.64963 0.5414 0.14393 0.0
C1822 C 0.64434 0.57256 0.13625 0.0
H1823 H 0.66614 0.51424 0.18084 0.0
H1824 H 0.64164 0.51838 0.1251 0.0
C1825 C 0.65567 0.60102 0.16267 0.0
C1826 C 0.33917 0.8729 0.93394 0.0
C1827 C 0.34227 0.9078 0.93392 0.0
H1828 H 0.33523 0.82317 0.90423 0.0
C1829 C 0.34391 0.91938 0.9036 0.0
H1830 H 0.338 0.86344 0.95724 0.0
C1831 C 0.3432 0.89677 0.87396 0.0
C1832 C 0.34005 0.86183 0.8736 0.0
H1833 H 0.34667 0.94611 0.90286 0.0
H1834 H 0.34512 0.90701 0.85126 0.0
C1835 C 0.33771 0.84992 0.90382 0.0
C1836 C 0.96893 0.53419 0.73005 0.0
C1837 C 0.9836 0.52237 0.7557 0.0
H1838 H 0.96468 0.53789 0.67792 0.0
C1839 C 1.0 0.4985 0.74696 0.0
H1840 H 0.95542 0.55189 0.73599 0.0
C1841 C 1.00576 0.49102 0.71412 0.0
C1842 C 0.99505 0.50717 0.68927 0.0
H1843 H 1.01069 0.48795 0.76612 0.0
H1844 H 1.0213 0.47561 0.70956 0.0
C1845 C 0.97447 0.52639 0.69687 0.0
C1846 C 0.31418 0.24745 0.39625 0.0
C1847 C 0.31594 0.26611 0.42923 0.0
H1848 H 0.32269 0.24864 0.34508 0.0
C1849 C 0.32705 0.30147 0.43478 0.0
H1850 H 0.30583 0.22016 0.39094 0.0
C1851 C 0.33732 0.31745 0.4089 0.0
C1852 C 0.33622 0.29892 0.37619 0.0
H1853 H 0.32896 0.31683 0.45963 0.0
H1854 H 0.34655 0.3446 0.41471 0.0
C1855 C 0.32382 0.26374 0.3699 0.0
C1856 C 0.41141 0.64881 0.51902 0.0
C1857 C 0.39161 0.63997 0.54141 0.0
H1858 H 0.4472 0.63812 0.49475 0.0
C1859 C 0.39389 0.61257 0.55741 0.0
H1860 H 0.41045 0.66975 0.50621 0.0
C1861 C 0.41527 0.59429 0.55077 0.0
C1862 C 0.43454 0.60273 0.52764 0.0
H1863 H 0.37897 0.605 0.5747 0.0
H1864 H 0.41628 0.57307 0.56313 0.0
C1865 C 0.43243 0.63044 0.51216 0.0
C1866 C 0.9807 1.01411 0.58778 0.0
C1867 C 0.97351 0.9838 0.56348 0.0
H1868 H 1.0112 0.06224 0.60726 0.0
C1869 C 0.99227 0.97985 0.53918 0.0
H1870 H 0.96686 1.01807 0.60691 0.0
C1871 C 1.01709 1.00549 0.53878 0.0
C1872 C 1.02469 0.03548 0.56338 0.0
H1873 H 0.98744 0.95706 0.51988 0.0
H1874 H 1.03045 1.00166 0.51918 0.0
C1875 C 1.00619 0.03939 0.58803 0.0
C1876 C 0.94994 0.22857 0.29627 0.0
C1877 C 0.93609 0.19315 0.28532 0.0
H1878 H 0.94691 0.28164 0.30671 0.0
C1879 C 0.90516 0.18771 0.27683 0.0
H1880 H 0.97336 0.23566 0.30344 0.0
C1881 C 0.88957 0.21469 0.27906 0.0
C1882 C 0.90324 0.25009 0.28991 0.0
H1883 H 0.89244 0.16186 0.26832 0.0
H1884 H 0.86615 0.20742 0.27189 0.0
C1885 C 0.93428 0.25574 0.2983 0.0
C1886 C 0.73143 0.1293 0.08505 0.0
C1887 C 0.73905 0.16393 0.08331 0.0
H1888 H 0.69639 0.08623 0.0847 0.0
C1889 C 0.71784 0.18305 0.08697 0.0
H1890 H 0.74723 0.1139 0.08254 0.0
C1891 C 0.68893 0.16716 0.08774 0.0
C1892 C 0.68079 0.13205 0.08584 0.0
H1893 H 0.72299 0.20995 0.08647 0.0
H1894 H 0.67253 0.18185 0.08692 0.0
C1895 C 0.70239 0.11348 0.08645 0.0
C1896 C 0.32997 0.54003 0.22586 0.0
C1897 C 0.302 0.51808 0.21773 0.0
H1898 H 0.37506 0.54516 0.24441 0.0
C1899 C 0.29922 0.48297 0.21449 0.0
H1900 H 0.33273 0.56726 0.22882 0.0
C1901 C 0.3236 0.47036 0.2226 0.0
C1902 C 0.3509 0.49276 0.23478 0.0
H1903 H 0.27791 0.46556 0.20842 0.0
H1904 H 0.32053 0.44346 0.22261 0.0
C1905 C 0.35421 0.5275 0.23493 0.0
C1906 C 0.28674 0.45355 0.04851 0.0
C1907 C 0.31397 0.47329 0.06533 0.0
H1908 H 0.24238 0.45239 0.03054 0.0
C1909 C 0.31651 0.50774 0.07874 0.0
H1910 H 0.28398 0.42691 0.03791 0.0
C1911 C 0.29268 0.52241 0.07434 0.0
C1912 C 0.2657 0.503 0.05636 0.0
H1913 H 0.33718 0.5237 0.09176 0.0
H1914 H 0.29578 0.54932 0.08392 0.0
C1915 C 0.26292 0.46823 0.04403 0.0
C1916 C 0.94036 0.96428 0.28615 0.0
C1917 C 0.93302 0.99563 0.28229 0.0
H1918 H 0.92647 0.91116 0.29008 0.0
C1919 C 0.90275 0.99412 0.27891 0.0
H1920 H 0.96305 0.9632 0.28896 0.0
C1921 C 0.8815 0.9636 0.27966 0.0
C1922 C 0.88889 0.93242 0.28373 0.0
H1923 H 0.89531 1.01674 0.27601 0.0
H1924 H 0.85879 0.96462 0.27721 0.0
C1925 C 0.91908 0.93374 0.28681 0.0
C1926 C 0.77055 0.18035 0.74165 0.0
C1927 C 0.74953 0.1721 0.76283 0.0
H1928 H 0.80681 0.21752 0.73275 0.0
C1929 C 0.74896 0.19571 0.79171 0.0
H1930 H 0.77149 0.16243 0.71927 0.0
C1931 C 0.76956 0.22664 0.79983 0.0
C1932 C 0.79079 0.23481 0.77889 0.0
H1933 H 0.7333 0.1898 0.80874 0.0
H1934 H 0.76874 0.24419 0.82253 0.0
C1935 C 0.79082 0.21169 0.74941 0.0
loop_
_geom_bond_atom_site_label_1
_geom_bond_atom_site_label_2
_geom_bond_distance
_geom_bond_site_symmetry_2
_ccdc_geom_bond_type
Co0 O1 2.216 . S
Co0 O2 2.091 . S
Co0 O4 2.004 . S
Co0 O10 2.021 . S
Co0 O12 2.137 . S
Co0 O13 2.244 . S
O1 Co0 2.216 . S
O1 C8 1.247 . S
O2 Co0 2.091 . S
O2 C8 1.261 . S
C3 O12 1.247 . S
C3 O13 1.272 . S
O4 Co0 2.004 . S
O4 C9 1.259 . S
Co5 O6 2.061 . S
Co5 O11 2.052 . S
Co5 O13 2.135 . S
O6 Co5 2.061 . S
O6 C9 1.235 . S
C7 O10 1.238 . S
C7 O11 1.241 . S
C8 O1 1.247 . S
C8 O2 1.261 . S
C9 O4 1.259 . S
C9 O6 1.235 . S
O10 Co0 2.021 . S
O10 C7 1.238 . S
O11 Co5 2.052 . S
O11 C7 1.241 . S
O12 Co0 2.137 . S
O12 C3 1.247 . S
O13 Co0 2.244 . S
O13 C3 1.272 . S
O13 Co5 2.135 . S
Co14 O15 2.216 . S
Co14 O16 2.091 . S
Co14 O18 2.004 1_655 S
Co14 O24 2.021 . S
Co14 O26 2.142 1_655 S
Co14 O27 2.244 1_655 S
O15 Co14 2.216 . S
O15 C22 1.247 . S
O16 Co14 2.091 . S
O16 C22 1.261 . S
C17 O26 1.257 . S
C17 O27 1.272 . S
O18 Co14 2.004 1_455 S
O18 C23 1.259 . S
Co19 O20 2.061 . S
Co19 O25 2.052 . S
Co19 O27 2.135 . S
O20 Co19 2.061 . S
O20 C23 1.235 . S
C21 O24 1.238 . S
C21 O25 1.241 1_655 S
C22 O15 1.247 . S
C22 O16 1.261 . S
C23 O18 1.259 . S
C23 O20 1.235 . S
O24 Co14 2.021 . S
O24 C21 1.238 . S
O25 Co19 2.052 . S
O25 C21 1.241 1_455 S
O26 Co14 2.142 1_455 S
O26 C17 1.257 . S
O27 Co14 2.244 1_455 S
O27 C17 1.272 . S
O27 Co19 2.135 . S
Co28 O29 2.216 . S
Co28 O30 2.091 . S
Co28 O32 2.004 . S
Co28 O38 2.021 . S
Co28 O40 2.137 . S
Co28 O41 2.244 . S
O29 Co28 2.216 . S
O29 C36 1.247 . S
O30 Co28 2.091 . S
O30 C36 1.261 . S
C31 O40 1.247 . S
C31 O41 1.272 . S
O32 Co28 2.004 . S
O32 C37 1.259 . S
Co33 O34 2.061 . S
Co33 O39 2.052 . S
Co33 O41 2.135 . S
O34 Co33 2.061 . S
O34 C37 1.235 . S
C35 O38 1.238 . S
C35 O39 1.241 . S
C36 O29 1.247 . S
C36 O30 1.261 . S
C37 O32 1.259 . S
C37 O34 1.235 . S
O38 Co28 2.021 . S
O38 C35 1.238 . S
O39 Co33 2.052 . S
O39 C35 1.241 . S
O40 Co28 2.137 . S
O40 C31 1.247 . S
O41 Co28 2.244 . S
O41 C31 1.272 . S
O41 Co33 2.135 . S
Co42 O43 2.216 . S
Co42 O44 2.091 . S
Co42 O46 2.004 . S
Co42 O52 2.021 . S
Co42 O54 2.137 . S
Co42 O55 2.244 . S
O43 Co42 2.216 . S
O43 C50 1.247 . S
O44 Co42 2.091 . S
O44 C50 1.261 . S
C45 O54 1.247 . S
C45 O55 1.272 . S
O46 Co42 2.004 . S
O46 C51 1.259 . S
Co47 O48 2.061 . S
Co47 O53 2.052 . S
Co47 O55 2.135 . S
O48 Co47 2.061 . S
O48 C51 1.235 . S
C49 O52 1.238 . S
C49 O53 1.241 . S
C50 O43 1.247 . S
C50 O44 1.261 . S
C51 O46 1.259 . S
C51 O48 1.235 . S
O52 Co42 2.021 . S
O52 C49 1.238 . S
O53 Co47 2.052 . S
O53 C49 1.241 . S
O54 Co42 2.137 . S
O54 C45 1.247 . S
O55 Co42 2.244 . S
O55 C45 1.272 . S
O55 Co47 2.135 . S
Co56 O57 2.216 . S
Co56 O58 2.091 . S
Co56 O60 2.004 . S
Co56 O66 2.021 . S
Co56 O68 2.137 . S
Co56 O69 2.244 . S
O57 Co56 2.216 . S
O57 C64 1.247 . S
O58 Co56 2.091 . S
O58 C64 1.261 . S
C59 O68 1.247 . S
C59 O69 1.272 . S
O60 Co56 2.004 . S
O60 C65 1.259 . S
Co61 O62 2.061 . S
Co61 O67 2.052 . S
Co61 O69 2.135 . S
O62 Co61 2.061 . S
O62 C65 1.235 . S
C63 O66 1.238 . S
C63 O67 1.241 . S
C64 O57 1.247 . S
C64 O58 1.261 . S
C65 O60 1.259 . S
C65 O62 1.235 . S
O66 Co56 2.021 . S
O66 C63 1.238 . S
O67 Co61 2.052 . S
O67 C63 1.241 . S
O68 Co56 2.137 . S
O68 C59 1.247 . S
O69 Co56 2.244 . S
O69 C59 1.272 . S
O69 Co61 2.135 . S
Co70 O71 2.216 . S
Co70 O72 2.091 . S
Co70 O74 2.004 . S
Co70 O80 2.021 . S
Co70 O82 2.137 . S
Co70 O83 2.244 . S
O71 Co70 2.216 . S
O71 C78 1.247 . S
O72 Co70 2.091 . S
O72 C78 1.261 . S
C73 O82 1.247 . S
C73 O83 1.272 . S
O74 Co70 2.004 . S
O74 C79 1.259 . S
Co75 O76 2.061 . S
Co75 O81 2.052 . S
Co75 O83 2.135 . S
O76 Co75 2.061 . S
O76 C79 1.235 . S
C77 O80 1.238 . S
C77 O81 1.241 . S
C78 O71 1.247 . S
C78 O72 1.261 . S
C79 O74 1.259 . S
C79 O76 1.235 . S
O80 Co70 2.021 . S
O80 C77 1.238 . S
O81 Co75 2.052 . S
O81 C77 1.241 . S
O82 Co70 2.137 . S
O82 C73 1.247 . S
O83 Co70 2.244 . S
O83 C73 1.272 . S
O83 Co75 2.135 . S
Co84 O85 2.216 . S
Co84 O86 2.091 . S
Co84 O88 2.004 . S
Co84 O94 2.021 . S
Co84 O96 2.137 . S
Co84 O97 2.244 . S
O85 Co84 2.216 . S
O85 C92 1.247 . S
O86 Co84 2.091 . S
O86 C92 1.261 . S
C87 O96 1.247 . S
C87 O97 1.272 . S
O88 Co84 2.004 . S
O88 C93 1.259 . S
Co89 O90 2.061 . S
Co89 O95 2.052 . S
Co89 O97 2.135 . S
O90 Co89 2.061 . S
O90 C93 1.235 . S
C91 O94 1.238 . S
C91 O95 1.241 . S
C92 O85 1.247 . S
C92 O86 1.261 . S
C93 O88 1.259 . S
C93 O90 1.235 . S
O94 Co84 2.021 . S
O94 C91 1.238 . S
O95 Co89 2.052 . S
O95 C91 1.241 . S
O96 Co84 2.137 . S
O96 C87 1.247 . S
O97 Co84 2.244 . S
O97 C87 1.272 . S
O97 Co89 2.135 . S
Co98 O99 2.216 . S
Co98 O100 2.091 . S
Co98 O102 2.004 1_455 S
Co98 O108 2.021 . S
Co98 O110 2.137 . S
Co98 O111 2.244 . S
O99 Co98 2.216 . S
O99 C106 1.247 . S
O100 Co98 2.091 . S
O100 C106 1.261 . S
C101 O110 1.247 . S
C101 O111 1.272 . S
O102 Co98 2.004 1_655 S
O102 C107 1.259 . S
Co103 O104 2.061 . S
Co103 O109 2.052 1_655 S
Co103 O111 2.135 1_655 S
O104 Co103 2.061 . S
O104 C107 1.235 . S
C105 O108 1.238 . S
C105 O109 1.241 . S
C106 O99 1.247 . S
C106 O100 1.261 . S
C107 O102 1.259 . S
C107 O104 1.235 . S
O108 Co98 2.021 . S
O108 C105 1.238 . S
O109 Co103 2.052 1_455 S
O109 C105 1.241 . S
O110 Co98 2.137 . S
O110 C101 1.247 . S
O111 Co98 2.244 . S
O111 C101 1.272 . S
O111 Co103 2.135 1_455 S
Co112 O113 2.216 . S
Co112 O114 2.091 . S
Co112 O116 2.004 1_545 S
Co112 O122 2.021 1_545 S
Co112 O124 2.137 . S
Co112 O125 2.259 . S
O113 Co112 2.216 . S
O113 C120 1.247 . S
O114 Co112 2.091 . S
O114 C120 1.261 . S
C115 O124 1.247 . S
C115 O125 1.280 . S
O116 Co112 2.004 1_565 S
O116 C121 1.259 . S
Co117 O118 2.061 . S
Co117 O123 2.052 . S
Co117 O125 2.109 1_565 S
O118 Co117 2.061 . S
O118 C121 1.235 . S
C119 O122 1.238 . S
C119 O123 1.241 . S
C120 O113 1.247 . S
C120 O114 1.261 . S
C121 O116 1.259 . S
C121 O118 1.235 . S
O122 Co112 2.021 1_565 S
O122 C119 1.238 . S
O123 Co117 2.052 . S
O123 C119 1.241 . S
O124 Co112 2.137 . S
O124 C115 1.247 . S
O125 Co112 2.259 . S
O125 C115 1.280 . S
O125 Co117 2.109 1_545 S
Co126 O127 2.216 . S
Co126 O128 2.091 . S
Co126 O130 2.004 . S
Co126 O136 2.021 . S
Co126 O138 2.137 . S
Co126 O139 2.244 . S
O127 Co126 2.216 . S
O127 C134 1.247 . S
O128 Co126 2.091 . S
O128 C134 1.261 . S
C129 O138 1.247 . S
C129 O139 1.272 . S
O130 Co126 2.004 . S
O130 C135 1.259 . S
Co131 O132 2.061 . S
Co131 O137 2.052 . S
Co131 O139 2.135 . S
O132 Co131 2.061 . S
O132 C135 1.235 . S
C133 O136 1.238 . S
C133 O137 1.241 . S
C134 O127 1.247 . S
C134 O128 1.261 . S
C135 O130 1.259 . S
C135 O132 1.235 . S
O136 Co126 2.021 . S
O136 C133 1.238 . S
O137 Co131 2.052 . S
O137 C133 1.241 . S
O138 Co126 2.137 . S
O138 C129 1.247 . S
O139 Co126 2.244 . S
O139 C129 1.272 . S
O139 Co131 2.135 . S
Co140 O141 2.216 1_545 S
Co140 O142 2.091 1_545 S
Co140 O144 2.004 . S
Co140 O150 2.021 . S
Co140 O152 2.137 . S
Co140 O153 2.244 . S
O141 Co140 2.216 1_565 S
O141 C148 1.247 . S
O142 Co140 2.091 1_565 S
O142 C148 1.261 . S
C143 O152 1.247 . S
C143 O153 1.272 . S
O144 Co140 2.004 . S
O144 C149 1.259 . S
Co145 O146 2.061 . S
Co145 O151 2.052 . S
Co145 O153 2.135 . S
O146 Co145 2.061 . S
O146 C149 1.235 . S
C147 O150 1.238 . S
C147 O151 1.241 . S
C148 O141 1.247 . S
C148 O142 1.261 . S
C149 O144 1.259 . S
C149 O146 1.235 . S
O150 Co140 2.021 . S
O150 C147 1.238 . S
O151 Co145 2.052 . S
O151 C147 1.241 . S
O152 Co140 2.137 . S
O152 C143 1.247 . S
O153 Co140 2.244 . S
O153 C143 1.272 . S
O153 Co145 2.135 . S
Co154 O155 2.216 . S
Co154 O156 2.091 1_556 S
Co154 O158 2.004 1_556 S
Co154 O164 2.021 1_556 S
Co154 O166 2.137 . S
Co154 O167 2.244 . S
O155 Co154 2.216 . S
O155 C162 1.247 1_556 S
O156 Co154 2.091 1_554 S
O156 C162 1.262 . S
C157 O166 1.247 . S
C157 O167 1.272 . S
O158 Co154 2.004 1_554 S
O158 C163 1.259 . S
Co159 O160 2.061 1_556 S
Co159 O165 2.052 1_556 S
Co159 O167 2.135 . S
O160 Co159 2.061 1_554 S
O160 C163 1.235 . S
C161 O164 1.238 . S
C161 O165 1.241 . S
C162 O155 1.247 1_554 S
C162 O156 1.262 . S
C163 O158 1.259 . S
C163 O160 1.235 . S
O164 Co154 2.021 1_554 S
O164 C161 1.238 . S
O165 Co159 2.052 1_554 S
O165 C161 1.241 . S
O166 Co154 2.137 . S
O166 C157 1.247 . S
O167 Co154 2.244 . S
O167 C157 1.272 . S
O167 Co159 2.135 . S
Co168 O169 2.216 . S
Co168 O170 2.091 . S
Co168 O172 2.004 . S
Co168 O178 2.021 . S
Co168 O180 2.137 1_554 S
Co168 O181 2.244 1_554 S
O169 Co168 2.216 . S
O169 C176 1.247 . S
O170 Co168 2.091 . S
O170 C176 1.261 . S
C171 O180 1.247 . S
C171 O181 1.272 . S
O172 Co168 2.004 . S
O172 C177 1.259 . S
Co173 O174 2.061 . S
Co173 O179 2.052 . S
Co173 O181 2.135 1_554 S
O174 Co173 2.061 . S
O174 C177 1.235 . S
C175 O178 1.238 . S
C175 O179 1.241 . S
C176 O169 1.247 . S
C176 O170 1.261 . S
C177 O172 1.259 . S
C177 O174 1.235 . S
O178 Co168 2.021 . S
O178 C175 1.238 . S
O179 Co173 2.052 . S
O179 C175 1.241 . S
O180 Co168 2.137 1_556 S
O180 C171 1.247 . S
O181 Co168 2.244 1_556 S
O181 C171 1.272 . S
O181 Co173 2.135 1_556 S
Co182 O183 2.216 . S
Co182 O184 2.091 . S
Co182 O186 2.004 . S
Co182 O192 2.021 . S
Co182 O194 2.137 1_554 S
Co182 O195 2.244 . S
O183 Co182 2.216 . S
O183 C190 1.247 . S
O184 Co182 2.091 . S
O184 C190 1.261 . S
C185 O194 1.247 . S
C185 O195 1.272 1_556 S
O186 Co182 2.004 . S
O186 C191 1.259 . S
Co187 O188 2.061 . S
Co187 O193 2.052 . S
Co187 O195 2.135 . S
O188 Co187 2.061 . S
O188 C191 1.235 . S
C189 O192 1.238 . S
C189 O193 1.241 . S
C190 O183 1.247 . S
C190 O184 1.261 . S
C191 O186 1.259 . S
C191 O188 1.235 . S
O192 Co182 2.021 . S
O192 C189 1.238 . S
O193 Co187 2.052 . S
O193 C189 1.241 . S
O194 Co182 2.137 1_556 S
O194 C185 1.247 . S
O195 Co182 2.244 . S
O195 C185 1.272 1_554 S
O195 Co187 2.135 . S
Co196 O197 2.216 . S
Co196 O198 2.091 . S
Co196 O200 2.004 . S
Co196 O206 2.021 . S
Co196 O208 2.137 . S
Co196 O209 2.244 . S
O197 Co196 2.216 . S
O197 C204 1.247 . S
O198 Co196 2.091 . S
O198 C204 1.261 . S
C199 O208 1.247 . S
C199 O209 1.272 . S
O200 Co196 2.004 . S
O200 C205 1.259 . S
Co201 O202 2.061 . S
Co201 O207 2.052 . S
Co201 O209 2.135 . S
O202 Co201 2.061 . S
O202 C205 1.235 . S
C203 O206 1.238 . S
C203 O207 1.241 . S
C204 O197 1.247 . S
C204 O198 1.261 . S
C205 O200 1.259 . S
C205 O202 1.235 . S
O206 Co196 2.021 . S
O206 C203 1.238 . S
O207 Co201 2.052 . S
O207 C203 1.241 . S
O208 Co196 2.137 . S
O208 C199 1.247 . S
O209 Co196 2.244 . S
O209 C199 1.272 . S
O209 Co201 2.135 . S
Co210 O211 2.216 . S
Co210 O212 2.091 . S
Co210 O214 2.004 . S
Co210 O220 2.021 . S
Co210 O222 2.137 . S
Co210 O223 2.244 . S
O211 Co210 2.216 . S
O211 C218 1.247 . S
O212 Co210 2.091 . S
O212 C218 1.261 . S
C213 O222 1.247 . S
C213 O223 1.272 . S
O214 Co210 2.004 . S
O214 C219 1.259 . S
Co215 O216 2.061 . S
Co215 O221 2.052 . S
Co215 O223 2.135 . S
O216 Co215 2.061 . S
O216 C219 1.235 . S
C217 O220 1.238 . S
C217 O221 1.241 . S
C218 O211 1.247 . S
C218 O212 1.261 . S
C219 O214 1.259 . S
C219 O216 1.235 . S
O220 Co210 2.021 . S
O220 C217 1.238 . S
O221 Co215 2.052 . S
O221 C217 1.241 . S
O222 Co210 2.137 . S
O222 C213 1.247 . S
O223 Co210 2.244 . S
O223 C213 1.272 . S
O223 Co215 2.135 . S
Co224 O225 2.216 . S
Co224 O226 2.091 . S
Co224 O228 2.004 . S
Co224 O234 2.021 . S
Co224 O236 2.137 . S
Co224 O237 2.244 . S
O225 Co224 2.216 . S
O225 C232 1.247 . S
O226 Co224 2.091 . S
O226 C232 1.261 . S
C227 O236 1.247 . S
C227 O237 1.272 . S
O228 Co224 2.004 . S
O228 C233 1.259 . S
Co229 O230 2.083 . S
Co229 O235 2.054 . S
Co229 O237 2.147 . S
O230 Co229 2.083 . S
O230 C233 1.235 . S
C231 O234 1.238 . S
C231 O235 1.241 . S
C232 O225 1.247 . S
C232 O226 1.261 . S
C233 O228 1.259 . S
C233 O230 1.235 . S
O234 Co224 2.021 . S
O234 C231 1.238 . S
O235 Co229 2.054 . S
O235 C231 1.241 . S
O236 Co224 2.137 . S
O236 C227 1.247 . S
O237 Co224 2.244 . S
O237 C227 1.272 . S
O237 Co229 2.147 . S
Co238 O239 2.216 . S
Co238 O240 2.091 . S
Co238 O242 2.004 . S
Co238 O248 2.021 . S
Co238 O250 2.137 . S
Co238 O251 2.244 . S
O239 Co238 2.216 . S
O239 C246 1.247 . S
O240 Co238 2.091 . S
O240 C246 1.261 . S
C241 O250 1.247 . S
C241 O251 1.272 . S
O242 Co238 2.004 . S
O242 C247 1.259 . S
Co243 O244 2.061 . S
Co243 O249 2.052 . S
Co243 O251 2.135 . S
O244 Co243 2.061 . S
O244 C247 1.235 . S
C245 O248 1.238 . S
C245 O249 1.241 . S
C246 O239 1.247 . S
C246 O240 1.261 . S
C247 O242 1.259 . S
C247 O244 1.235 . S
O248 Co238 2.021 . S
O248 C245 1.238 . S
O249 Co243 2.052 . S
O249 C245 1.241 . S
O250 Co238 2.137 . S
O250 C241 1.247 . S
O251 Co238 2.244 . S
O251 C241 1.272 . S
O251 Co243 2.135 . S
Co252 O253 2.216 . S
Co252 O254 2.091 . S
Co252 O256 2.004 . S
Co252 O262 2.021 . S
Co252 O264 2.137 . S
Co252 O265 2.244 . S
O253 Co252 2.216 . S
O253 C260 1.247 . S
O254 Co252 2.091 . S
O254 C260 1.261 . S
C255 O264 1.247 . S
C255 O265 1.272 . S
O256 Co252 2.004 . S
O256 C261 1.259 . S
Co257 O258 2.061 . S
Co257 O263 2.052 . S
Co257 O265 2.135 . S
O258 Co257 2.061 . S
O258 C261 1.235 . S
C259 O262 1.238 . S
C259 O263 1.241 . S
C260 O253 1.247 . S
C260 O254 1.261 . S
C261 O256 1.259 . S
C261 O258 1.235 . S
O262 Co252 2.021 . S
O262 C259 1.238 . S
O263 Co257 2.052 . S
O263 C259 1.241 . S
O264 Co252 2.137 . S
O264 C255 1.247 . S
O265 Co252 2.244 . S
O265 C255 1.272 . S
O265 Co257 2.135 . S
Co266 O267 2.216 . S
Co266 O268 2.091 . S
Co266 O270 2.004 . S
Co266 O276 2.021 . S
Co266 O278 2.137 . S
Co266 O279 2.244 . S
O267 Co266 2.216 . S
O267 C274 1.247 . S
O268 Co266 2.091 . S
O268 C274 1.261 . S
C269 O278 1.247 . S
C269 O279 1.272 . S
O270 Co266 2.004 . S
O270 C275 1.259 . S
Co271 O272 2.061 . S
Co271 O277 2.052 . S
Co271 O279 2.135 . S
O272 Co271 2.061 . S
O272 C275 1.235 . S
C273 O276 1.238 . S
C273 O277 1.241 . S
C274 O267 1.247 . S
C274 O268 1.261 . S
C275 O270 1.259 . S
C275 O272 1.235 . S
O276 Co266 2.021 . S
O276 C273 1.238 . S
O277 Co271 2.052 . S
O277 C273 1.241 . S
O278 Co266 2.137 . S
O278 C269 1.247 . S
O279 Co266 2.244 . S
O279 C269 1.272 . S
O279 Co271 2.135 . S
Co280 O281 2.216 . S
Co280 O282 2.094 . S
Co280 O284 2.006 1_554 S
Co280 O290 2.039 . S
Co280 O292 2.118 1_554 S
Co280 O293 2.235 1_554 S
O281 Co280 2.216 . S
O281 C288 1.247 . S
O282 Co280 2.094 . S
O282 C288 1.261 . S
C283 O292 1.247 . S
C283 O293 1.272 . S
O284 Co280 2.006 1_556 S
O284 C289 1.259 . S
Co285 O286 2.061 . S
Co285 O291 2.052 . S
Co285 O293 2.135 1_554 S
O286 Co285 2.061 . S
O286 C289 1.235 1_554 S
C287 O290 1.238 . S
C287 O291 1.241 . S
C288 O281 1.247 . S
C288 O282 1.261 . S
C289 O284 1.259 . S
C289 O286 1.235 1_556 S
O290 Co280 2.039 . S
O290 C287 1.238 . S
O291 Co285 2.052 . S
O291 C287 1.241 . S
O292 Co280 2.118 1_556 S
O292 C283 1.247 . S
O293 Co280 2.235 1_556 S
O293 C283 1.272 . S
O293 Co285 2.135 1_556 S
Co294 O295 2.216 . S
Co294 O296 2.091 . S
Co294 O298 2.004 . S
Co294 O304 2.021 . S
Co294 O306 2.137 . S
Co294 O307 2.244 . S
O295 Co294 2.216 . S
O295 C302 1.247 . S
O296 Co294 2.091 . S
O296 C302 1.261 . S
C297 O306 1.247 . S
C297 O307 1.272 . S
O298 Co294 2.004 . S
O298 C303 1.259 . S
Co299 O300 2.061 . S
Co299 O305 2.052 . S
Co299 O307 2.135 . S
O300 Co299 2.061 . S
O300 C303 1.235 . S
C301 O304 1.238 . S
C301 O305 1.241 . S
C302 O295 1.247 . S
C302 O296 1.261 . S
C303 O298 1.259 . S
C303 O300 1.235 . S
O304 Co294 2.021 . S
O304 C301 1.238 . S
O305 Co299 2.052 . S
O305 C301 1.241 . S
O306 Co294 2.137 . S
O306 C297 1.247 . S
O307 Co294 2.244 . S
O307 C297 1.272 . S
O307 Co299 2.135 . S
Co308 O309 2.216 . S
Co308 O310 2.091 . S
Co308 O312 2.004 . S
Co308 O318 2.021 . S
Co308 O320 2.137 . S
Co308 O321 2.244 . S
O309 Co308 2.216 . S
O309 C316 1.247 . S
O310 Co308 2.091 . S
O310 C316 1.261 . S
C311 O320 1.247 . S
C311 O321 1.272 . S
O312 Co308 2.004 . S
O312 C317 1.259 . S
Co313 O314 2.061 . S
Co313 O319 2.052 . S
Co313 O321 2.135 . S
O314 Co313 2.061 . S
O314 C317 1.235 . S
C315 O318 1.238 . S
C315 O319 1.241 . S
C316 O309 1.247 . S
C316 O310 1.261 . S
C317 O312 1.259 . S
C317 O314 1.235 . S
O318 Co308 2.021 . S
O318 C315 1.238 . S
O319 Co313 2.052 . S
O319 C315 1.241 . S
O320 Co308 2.137 . S
O320 C311 1.247 . S
O321 Co308 2.244 . S
O321 C311 1.272 . S
O321 Co313 2.135 . S
Co322 O323 2.216 . S
Co322 O324 2.091 . S
Co322 O326 2.004 . S
Co322 O332 2.021 . S
Co322 O334 2.137 . S
Co322 O335 2.244 . S
O323 Co322 2.216 . S
O323 C330 1.247 . S
O324 Co322 2.091 . S
O324 C330 1.261 . S
C325 O334 1.247 . S
C325 O335 1.272 . S
O326 Co322 2.004 . S
O326 C331 1.259 . S
Co327 O328 2.061 . S
Co327 O333 2.052 . S
Co327 O335 2.135 . S
O328 Co327 2.061 . S
O328 C331 1.235 . S
C329 O332 1.238 . S
C329 O333 1.241 . S
C330 O323 1.247 . S
C330 O324 1.261 . S
C331 O326 1.259 . S
C331 O328 1.235 . S
O332 Co322 2.021 . S
O332 C329 1.238 . S
O333 Co327 2.052 . S
O333 C329 1.241 . S
O334 Co322 2.137 . S
O334 C325 1.247 . S
O335 Co322 2.244 . S
O335 C325 1.272 . S
O335 Co327 2.135 . S
Ho336 C339 2.814 1_455 S
Ho336 O356 2.328 . S
Ho336 O358 2.387 1_455 S
Ho336 O359 2.519 1_456 S
Ho336 O360 2.398 . S
Ho336 O361 2.676 . S
Ho336 O363 2.340 1_546 S
Ho336 O367 2.291 1_556 S
Ho337 C348 2.811 . S
Ho337 O357 2.346 . S
Ho337 O361 2.305 1_554 S
Ho337 O362 2.322 . S
Ho337 O364 2.378 . S
Ho337 O365 2.524 . S
Ho337 O366 2.381 . S
Ho337 O367 2.669 . S
C338 O356 1.259 1_554 S
C338 O357 1.268 . S
C339 Ho336 2.814 1_655 S
C339 C340 1.488 . S
C339 O358 1.215 . S
C339 O359 1.289 1_556 S
C340 C339 1.488 . S
C340 C341 1.348 1_556 S
C340 C345 1.413 . S
C341 C340 1.348 1_554 S
C341 C342 1.442 1_554 S
C341 H368 0.930 . S
C342 C341 1.442 1_556 S
C342 C343 1.381 . S
C342 H369 0.931 1_556 S
C343 C342 1.381 . S
C343 C344 1.321 . S
C344 C343 1.321 . S
C344 C345 1.403 . S
C344 H370 0.934 . S
C345 C340 1.413 . S
C345 C344 1.403 . S
C345 H371 0.930 . S
C346 O360 1.275 . S
C346 O361 1.256 . S
C347 O362 1.259 1_565 S
C347 O363 1.268 . S
C348 Ho337 2.811 . S
C348 C349 1.488 . S
C348 O364 1.215 . S
C348 O365 1.289 . S
C349 C348 1.488 . S
C349 C350 1.348 . S
C349 C354 1.413 . S
C350 C349 1.348 . S
C350 C351 1.442 . S
C350 H372 0.930 . S
C351 C350 1.442 . S
C351 C352 1.381 . S
C351 H373 0.931 1_545 S
C352 C351 1.381 . S
C352 C353 1.321 . S
C353 C352 1.321 . S
C353 C354 1.403 . S
C353 H374 0.934 . S
C354 C349 1.413 . S
C354 C353 1.403 . S
C354 H375 0.930 . S
C355 O366 1.275 . S
C355 O367 1.256 . S
O356 Ho336 2.328 . S
O356 C338 1.259 1_556 S
O357 Ho337 2.346 . S
O357 C338 1.268 . S
O358 Ho336 2.387 1_655 S
O358 C339 1.215 . S
O359 Ho336 2.519 1_654 S
O359 C339 1.289 1_554 S
O360 Ho336 2.398 . S
O360 C346 1.275 . S
O361 Ho336 2.676 . S
O361 Ho337 2.305 1_556 S
O361 C346 1.256 . S
O362 Ho337 2.322 . S
O362 C347 1.259 1_545 S
O363 Ho336 2.340 1_564 S
O363 C347 1.268 . S
O364 Ho337 2.378 . S
O364 C348 1.215 . S
O365 Ho337 2.524 . S
O365 C348 1.289 . S
O366 Ho337 2.381 . S
O366 C355 1.275 . S
O367 Ho336 2.291 1_554 S
O367 Ho337 2.669 . S
O367 C355 1.256 . S
H368 C341 0.930 . S
H369 C342 0.931 1_554 S
H370 C344 0.934 . S
H371 C345 0.930 . S
H372 C350 0.930 . S
H373 C351 0.931 1_565 S
H374 C353 0.934 . S
H375 C354 0.930 . S
Ho376 C379 2.811 . S
Ho376 O396 2.322 . S
Ho376 O398 2.378 . S
Ho376 O399 2.524 . S
Ho376 O400 2.381 . S
Ho376 O401 2.669 . S
Ho376 O403 2.346 . S
Ho376 O407 2.305 . S
Ho377 C388 2.811 . S
Ho377 O397 2.346 . S
Ho377 O401 2.305 . S
Ho377 O402 2.322 . S
Ho377 O404 2.378 . S
Ho377 O405 2.524 . S
Ho377 O406 2.381 . S
Ho377 O407 2.669 . S
C378 O396 1.259 . S
C378 O397 1.268 . S
C379 Ho376 2.811 . S
C379 C380 1.488 . S
C379 O398 1.215 . S
C379 O399 1.289 . S
C380 C379 1.488 . S
C380 C381 1.348 . S
C380 C385 1.413 . S
C381 C380 1.348 . S
C381 C382 1.442 . S
C381 H408 0.930 . S
C382 C381 1.442 . S
C382 C383 1.381 . S
C382 H409 0.931 . S
C383 C382 1.381 . S
C383 C384 1.321 . S
C384 C383 1.321 . S
C384 C385 1.403 . S
C384 H410 0.934 . S
C385 C380 1.413 . S
C385 C384 1.403 . S
C385 H411 0.930 . S
C386 O400 1.275 . S
C386 O401 1.256 . S
C387 O402 1.259 . S
C387 O403 1.268 . S
C388 Ho377 2.811 . S
C388 C389 1.488 . S
C388 O404 1.215 . S
C388 O405 1.289 . S
C389 C388 1.488 . S
C389 C390 1.348 . S
C389 C394 1.413 . S
C390 C389 1.348 . S
C390 C391 1.442 . S
C390 H412 0.930 . S
C391 C390 1.442 . S
C391 C392 1.381 . S
C391 H413 0.931 . S
C392 C391 1.381 . S
C392 C393 1.321 . S
C393 C392 1.321 . S
C393 C394 1.403 . S
C393 H414 0.934 . S
C394 C389 1.413 . S
C394 C393 1.403 . S
C394 H415 0.930 . S
C395 O406 1.275 . S
C395 O407 1.256 . S
O396 Ho376 2.322 . S
O396 C378 1.259 . S
O397 Ho377 2.346 . S
O397 C378 1.268 . S
O398 Ho376 2.378 . S
O398 C379 1.215 . S
O399 Ho376 2.524 . S
O399 C379 1.289 . S
O400 Ho376 2.381 . S
O400 C386 1.275 . S
O401 Ho376 2.669 . S
O401 Ho377 2.305 . S
O401 C386 1.256 . S
O402 Ho377 2.322 . S
O402 C387 1.259 . S
O403 Ho376 2.346 . S
O403 C387 1.268 . S
O404 Ho377 2.378 . S
O404 C388 1.215 . S
O405 Ho377 2.524 . S
O405 C388 1.289 . S
O406 Ho377 2.381 . S
O406 C395 1.275 . S
O407 Ho376 2.305 . S
O407 Ho377 2.669 . S
O407 C395 1.256 . S
H408 C381 0.930 . S
H409 C382 0.931 . S
H410 C384 0.934 . S
H411 C385 0.930 . S
H412 C390 0.930 . S
H413 C391 0.931 . S
H414 C393 0.934 . S
H415 C394 0.930 . S
Ho416 C419 2.811 . S
Ho416 O436 2.299 1_545 S
Ho416 O438 2.378 . S
Ho416 O439 2.524 . S
Ho416 O440 2.381 . S
Ho416 O441 2.669 . S
Ho416 O443 2.346 . S
Ho416 O447 2.305 . S
Ho417 C428 2.811 . S
Ho417 O437 2.346 1_545 S
Ho417 O441 2.305 . S
Ho417 O442 2.322 . S
Ho417 O444 2.378 . S
Ho417 O445 2.524 . S
Ho417 O446 2.381 . S
Ho417 O447 2.669 . S
C418 O436 1.272 . S
C418 O437 1.268 . S
C419 Ho416 2.811 . S
C419 C420 1.488 1_545 S
C419 O438 1.215 . S
C419 O439 1.289 . S
C420 C419 1.488 1_565 S
C420 C421 1.348 . S
C420 C425 1.413 . S
C421 C420 1.348 . S
C421 C422 1.442 . S
C421 H448 0.930 . S
C422 C421 1.442 . S
C422 C423 1.381 . S
C422 H449 0.931 . S
C423 C422 1.381 . S
C423 C424 1.321 . S
C424 C423 1.321 . S
C424 C425 1.403 . S
C424 H450 0.934 . S
C425 C420 1.413 . S
C425 C424 1.403 . S
C425 H451 0.930 . S
C426 O440 1.275 . S
C426 O441 1.256 . S
C427 O442 1.259 . S
C427 O443 1.268 . S
C428 Ho417 2.811 . S
C428 C429 1.488 . S
C428 O444 1.215 . S
C428 O445 1.289 . S
C429 C428 1.488 . S
C429 C430 1.348 . S
C429 C434 1.413 . S
C430 C429 1.348 . S
C430 C431 1.442 . S
C430 H452 0.930 . S
C431 C430 1.442 . S
C431 C432 1.381 . S
C431 H453 0.931 . S
C432 C431 1.381 . S
C432 C433 1.321 . S
C433 C432 1.321 . S
C433 C434 1.403 . S
C433 H454 0.934 . S
C434 C429 1.413 . S
C434 C433 1.403 . S
C434 H455 0.930 . S
C435 O446 1.275 . S
C435 O447 1.256 . S
O436 Ho416 2.299 1_565 S
O436 C418 1.272 . S
O437 Ho417 2.346 1_565 S
O437 C418 1.268 . S
O438 Ho416 2.378 . S
O438 C419 1.215 . S
O439 Ho416 2.524 . S
O439 C419 1.289 . S
O440 Ho416 2.381 . S
O440 C426 1.275 . S
O441 Ho416 2.669 . S
O441 Ho417 2.305 . S
O441 C426 1.256 . S
O442 Ho417 2.322 . S
O442 C427 1.259 . S
O443 Ho416 2.346 . S
O443 C427 1.268 . S
O444 Ho417 2.378 . S
O444 C428 1.215 . S
O445 Ho417 2.524 . S
O445 C428 1.289 . S
O446 Ho417 2.381 . S
O446 C435 1.275 . S
O447 Ho416 2.305 . S
O447 Ho417 2.669 . S
O447 C435 1.256 . S
H448 C421 0.930 . S
H449 C422 0.931 . S
H450 C424 0.934 . S
H451 C425 0.930 . S
H452 C430 0.930 . S
H453 C431 0.931 . S
H454 C433 0.934 . S
H455 C434 0.930 . S
Ho456 C459 2.811 . S
Ho456 O476 2.322 . S
Ho456 O478 2.378 . S
Ho456 O479 2.524 . S
Ho456 O480 2.381 . S
Ho456 O481 2.669 . S
Ho456 O483 2.346 . S
Ho456 O487 2.305 . S
Ho457 C468 2.811 . S
Ho457 O477 2.346 . S
Ho457 O481 2.305 . S
Ho457 O482 2.322 . S
Ho457 O484 2.378 . S
Ho457 O485 2.524 . S
Ho457 O486 2.381 . S
Ho457 O487 2.669 . S
C458 O476 1.259 . S
C458 O477 1.268 . S
C459 Ho456 2.811 . S
C459 C460 1.488 . S
C459 O478 1.215 . S
C459 O479 1.289 . S
C460 C459 1.488 . S
C460 C461 1.348 . S
C460 C465 1.413 . S
C461 C460 1.348 . S
C461 C462 1.442 . S
C461 H488 0.930 . S
C462 C461 1.442 . S
C462 C463 1.381 . S
C462 H489 0.931 . S
C463 C462 1.381 . S
C463 C464 1.321 . S
C464 C463 1.321 . S
C464 C465 1.403 . S
C464 H490 0.934 . S
C465 C460 1.413 . S
C465 C464 1.403 . S
C465 H491 0.930 . S
C466 O480 1.275 . S
C466 O481 1.256 . S
C467 O482 1.259 . S
C467 O483 1.268 . S
C468 Ho457 2.811 . S
C468 C469 1.488 . S
C468 O484 1.215 . S
C468 O485 1.289 . S
C469 C468 1.488 . S
C469 C470 1.348 . S
C469 C474 1.413 . S
C470 C469 1.348 . S
C470 C471 1.442 . S
C470 H492 0.930 . S
C471 C470 1.442 . S
C471 C472 1.381 . S
C471 H493 0.931 . S
C472 C471 1.381 . S
C472 C473 1.321 . S
C473 C472 1.321 . S
C473 C474 1.403 . S
C473 H494 0.934 . S
C474 C469 1.413 . S
C474 C473 1.403 . S
C474 H495 0.930 . S
C475 O486 1.275 . S
C475 O487 1.256 . S
O476 Ho456 2.322 . S
O476 C458 1.259 . S
O477 Ho457 2.346 . S
O477 C458 1.268 . S
O478 Ho456 2.378 . S
O478 C459 1.215 . S
O479 Ho456 2.524 . S
O479 C459 1.289 . S
O480 Ho456 2.381 . S
O480 C466 1.275 . S
O481 Ho456 2.669 . S
O481 Ho457 2.305 . S
O481 C466 1.256 . S
O482 Ho457 2.322 . S
O482 C467 1.259 . S
O483 Ho456 2.346 . S
O483 C467 1.268 . S
O484 Ho457 2.378 . S
O484 C468 1.215 . S
O485 Ho457 2.524 . S
O485 C468 1.289 . S
O486 Ho457 2.381 . S
O486 C475 1.275 . S
O487 Ho456 2.305 . S
O487 Ho457 2.669 . S
O487 C475 1.256 . S
H488 C461 0.930 . S
H489 C462 0.931 . S
H490 C464 0.934 . S
H491 C465 0.930 . S
H492 C470 0.930 . S
H493 C471 0.931 . S
H494 C473 0.934 . S
H495 C474 0.930 . S
Ho496 C499 2.811 . S
Ho496 O516 2.322 . S
Ho496 O518 2.378 . S
Ho496 O519 2.524 . S
Ho496 O520 2.381 . S
Ho496 O521 2.669 . S
Ho496 O523 2.346 . S
Ho496 O527 2.305 . S
Ho497 C508 2.811 1_545 S
Ho497 O517 2.346 . S
Ho497 O521 2.305 . S
Ho497 O522 2.322 . S
Ho497 O524 2.378 1_545 S
Ho497 O525 2.524 1_545 S
Ho497 O526 2.381 . S
Ho497 O527 2.669 . S
C498 O516 1.259 . S
C498 O517 1.268 . S
C499 Ho496 2.811 . S
C499 C500 1.488 . S
C499 O518 1.215 . S
C499 O519 1.289 . S
C500 C499 1.488 . S
C500 C501 1.348 . S
C500 C505 1.413 . S
C501 C500 1.348 . S
C501 C502 1.442 . S
C501 H528 0.930 . S
C502 C501 1.442 . S
C502 C503 1.381 . S
C502 H529 0.931 . S
C503 C502 1.381 . S
C503 C504 1.321 . S
C504 C503 1.321 . S
C504 C505 1.403 . S
C504 H530 0.934 . S
C505 C500 1.413 . S
C505 C504 1.403 . S
C505 H531 0.930 . S
C506 O520 1.275 . S
C506 O521 1.256 . S
C507 O522 1.259 . S
C507 O523 1.268 . S
C508 Ho497 2.811 1_565 S
C508 C509 1.488 . S
C508 O524 1.215 . S
C508 O525 1.289 . S
C509 C508 1.488 . S
C509 C510 1.348 . S
C509 C514 1.413 . S
C510 C509 1.348 . S
C510 C511 1.442 . S
C510 H532 0.930 . S
C511 C510 1.442 . S
C511 C512 1.381 . S
C511 H533 0.931 . S
C512 C511 1.381 . S
C512 C513 1.321 . S
C513 C512 1.321 . S
C513 C514 1.403 . S
C513 H534 0.934 . S
C514 C509 1.413 . S
C514 C513 1.403 . S
C514 H535 0.930 . S
C515 O526 1.275 . S
C515 O527 1.256 . S
O516 Ho496 2.322 . S
O516 C498 1.259 . S
O517 Ho497 2.346 . S
O517 C498 1.268 . S
O518 Ho496 2.378 . S
O518 C499 1.215 . S
O519 Ho496 2.524 . S
O519 C499 1.289 . S
O520 Ho496 2.381 . S
O520 C506 1.275 . S
O521 Ho496 2.669 . S
O521 Ho497 2.305 . S
O521 C506 1.256 . S
O522 Ho497 2.322 . S
O522 C507 1.259 . S
O523 Ho496 2.346 . S
O523 C507 1.268 . S
O524 Ho497 2.378 1_565 S
O524 C508 1.215 . S
O525 Ho497 2.524 1_565 S
O525 C508 1.289 . S
O526 Ho497 2.381 . S
O526 C515 1.275 . S
O527 Ho496 2.305 . S
O527 Ho497 2.669 . S
O527 C515 1.256 . S
H528 C501 0.930 . S
H529 C502 0.931 . S
H530 C504 0.934 . S
H531 C505 0.930 . S
H532 C510 0.930 . S
H533 C511 0.931 . S
H534 C513 0.934 . S
H535 C514 0.930 . S
Ho536 C539 2.811 . S
Ho536 O556 2.322 . S
Ho536 O558 2.378 . S
Ho536 O559 2.524 . S
Ho536 O560 2.381 . S
Ho536 O561 2.669 . S
Ho536 O563 2.346 . S
Ho536 O567 2.305 . S
Ho537 C548 2.811 . S
Ho537 O557 2.346 . S
Ho537 O561 2.305 . S
Ho537 O562 2.322 . S
Ho537 O564 2.378 . S
Ho537 O565 2.524 . S
Ho537 O566 2.381 . S
Ho537 O567 2.669 . S
C538 O556 1.259 . S
C538 O557 1.268 . S
C539 Ho536 2.811 . S
C539 C540 1.488 . S
C539 O558 1.215 . S
C539 O559 1.289 . S
C540 C539 1.488 . S
C540 C541 1.348 . S
C540 C545 1.413 . S
C541 C540 1.348 . S
C541 C542 1.442 . S
C541 H568 0.930 . S
C542 C541 1.442 . S
C542 C543 1.381 . S
C542 H569 0.931 . S
C543 C542 1.381 . S
C543 C544 1.321 . S
C544 C543 1.321 . S
C544 C545 1.403 . S
C544 H570 0.934 . S
C545 C540 1.413 . S
C545 C544 1.403 . S
C545 H571 0.930 . S
C546 O560 1.275 . S
C546 O561 1.256 . S
C547 O562 1.259 . S
C547 O563 1.268 . S
C548 Ho537 2.811 . S
C548 C549 1.488 . S
C548 O564 1.215 . S
C548 O565 1.289 . S
C549 C548 1.488 . S
C549 C550 1.348 . S
C549 C554 1.413 . S
C550 C549 1.348 . S
C550 C551 1.442 . S
C550 H572 0.930 . S
C551 C550 1.442 . S
C551 C552 1.381 . S
C551 H573 0.931 . S
C552 C551 1.381 . S
C552 C553 1.321 . S
C553 C552 1.321 . S
C553 C554 1.403 . S
C553 H574 0.934 . S
C554 C549 1.413 . S
C554 C553 1.403 . S
C554 H575 0.930 . S
C555 O566 1.275 . S
C555 O567 1.256 . S
O556 Ho536 2.322 . S
O556 C538 1.259 . S
O557 Ho537 2.346 . S
O557 C538 1.268 . S
O558 Ho536 2.378 . S
O558 C539 1.215 . S
O559 Ho536 2.524 . S
O559 C539 1.289 . S
O560 Ho536 2.381 . S
O560 C546 1.275 . S
O561 Ho536 2.669 . S
O561 Ho537 2.305 . S
O561 C546 1.256 . S
O562 Ho537 2.322 . S
O562 C547 1.259 . S
O563 Ho536 2.346 . S
O563 C547 1.268 . S
O564 Ho537 2.378 . S
O564 C548 1.215 . S
O565 Ho537 2.524 . S
O565 C548 1.289 . S
O566 Ho537 2.381 . S
O566 C555 1.275 . S
O567 Ho536 2.305 . S
O567 Ho537 2.669 . S
O567 C555 1.256 . S
H568 C541 0.930 . S
H569 C542 0.931 . S
H570 C544 0.934 . S
H571 C545 0.930 . S
H572 C550 0.930 . S
H573 C551 0.931 . S
H574 C553 0.934 . S
H575 C554 0.930 . S
Ho576 C579 2.811 . S
Ho576 O596 2.322 . S
Ho576 O598 2.378 . S
Ho576 O599 2.524 . S
Ho576 O600 2.381 1_545 S
Ho576 O601 2.669 1_554 S
Ho576 O603 2.346 . S
Ho576 O607 2.305 . S
Ho577 C588 2.811 . S
Ho577 O597 2.346 . S
Ho577 O601 2.305 . S
Ho577 O602 2.322 1_556 S
Ho577 O604 2.378 . S
Ho577 O605 2.524 . S
Ho577 O606 2.381 1_556 S
Ho577 O607 2.669 1_556 S
C578 O596 1.259 . S
C578 O597 1.268 1_554 S
C579 Ho576 2.811 . S
C579 C580 1.488 . S
C579 O598 1.215 . S
C579 O599 1.289 . S
C580 C579 1.488 . S
C580 C581 1.348 . S
C580 C585 1.413 1_545 S
C581 C580 1.348 . S
C581 C582 1.442 . S
C581 H608 0.930 . S
C582 C581 1.442 . S
C582 C583 1.381 1_545 S
C582 H609 0.931 . S
C583 C582 1.381 1_565 S
C583 C584 1.321 . S
C584 C583 1.321 . S
C584 C585 1.403 . S
C584 H610 0.934 . S
C585 C580 1.413 1_565 S
C585 C584 1.403 . S
C585 H611 0.930 . S
C586 O600 1.275 1_556 S
C586 O601 1.256 1_565 S
C587 O602 1.259 . S
C587 O603 1.268 . S
C588 Ho577 2.811 . S
C588 C589 1.488 . S
C588 O604 1.215 . S
C588 O605 1.289 . S
C589 C588 1.488 . S
C589 C590 1.348 . S
C589 C594 1.413 . S
C590 C589 1.348 . S
C590 C591 1.442 . S
C590 H612 0.930 . S
C591 C590 1.442 . S
C591 C592 1.381 . S
C591 H613 0.931 . S
C592 C591 1.381 . S
C592 C593 1.321 . S
C593 C592 1.321 . S
C593 C594 1.403 . S
C593 H614 0.934 . S
C594 C589 1.413 . S
C594 C593 1.403 . S
C594 H615 0.930 . S
C595 O606 1.275 . S
C595 O607 1.256 . S
O596 Ho576 2.322 . S
O596 C578 1.259 . S
O597 Ho577 2.346 . S
O597 C578 1.268 1_556 S
O598 Ho576 2.378 . S
O598 C579 1.215 . S
O599 Ho576 2.524 . S
O599 C579 1.289 . S
O600 Ho576 2.381 1_565 S
O600 C586 1.275 1_554 S
O601 Ho576 2.669 1_556 S
O601 Ho577 2.305 . S
O601 C586 1.256 1_545 S
O602 Ho577 2.322 1_554 S
O602 C587 1.259 . S
O603 Ho576 2.346 . S
O603 C587 1.268 . S
O604 Ho577 2.378 . S
O604 C588 1.215 . S
O605 Ho577 2.524 . S
O605 C588 1.289 . S
O606 Ho577 2.381 1_554 S
O606 C595 1.275 . S
O607 Ho576 2.305 . S
O607 Ho577 2.669 1_554 S
O607 C595 1.256 . S
H608 C581 0.930 . S
H609 C582 0.931 . S
H610 C584 0.934 . S
H611 C585 0.930 . S
H612 C590 0.930 . S
H613 C591 0.931 . S
H614 C593 0.934 . S
H615 C594 0.930 . S
Ho616 C619 2.811 . S
Ho616 O636 2.322 . S
Ho616 O638 2.378 . S
Ho616 O639 2.524 . S
Ho616 O640 2.381 . S
Ho616 O641 2.669 . S
Ho616 O643 2.346 . S
Ho616 O647 2.305 . S
Ho617 C628 2.811 . S
Ho617 O637 2.346 . S
Ho617 O641 2.305 . S
Ho617 O642 2.322 . S
Ho617 O644 2.378 . S
Ho617 O645 2.524 . S
Ho617 O646 2.381 . S
Ho617 O647 2.669 . S
C618 O636 1.259 . S
C618 O637 1.268 . S
C619 Ho616 2.811 . S
C619 C620 1.488 . S
C619 O638 1.215 . S
C619 O639 1.289 . S
C620 C619 1.488 . S
C620 C621 1.348 . S
C620 C625 1.413 . S
C621 C620 1.348 . S
C621 C622 1.442 . S
C621 H648 0.930 . S
C622 C621 1.442 . S
C622 C623 1.381 . S
C622 H649 0.931 . S
C623 C622 1.381 . S
C623 C624 1.321 . S
C624 C623 1.321 . S
C624 C625 1.403 . S
C624 H650 0.934 . S
C625 C620 1.413 . S
C625 C624 1.403 . S
C625 H651 0.930 . S
C626 O640 1.275 . S
C626 O641 1.256 . S
C627 O642 1.259 . S
C627 O643 1.268 . S
C628 Ho617 2.811 . S
C628 C629 1.488 . S
C628 O644 1.215 . S
C628 O645 1.289 . S
C629 C628 1.488 . S
C629 C630 1.348 . S
C629 C634 1.413 . S
C630 C629 1.348 . S
C630 C631 1.442 . S
C630 H652 0.930 . S
C631 C630 1.442 . S
C631 C632 1.381 . S
C631 H653 0.931 . S
C632 C631 1.381 . S
C632 C633 1.321 . S
C633 C632 1.321 . S
C633 C634 1.403 . S
C633 H654 0.934 . S
C634 C629 1.413 . S
C634 C633 1.403 . S
C634 H655 0.930 . S
C635 O646 1.275 . S
C635 O647 1.256 . S
O636 Ho616 2.322 . S
O636 C618 1.259 . S
O637 Ho617 2.346 . S
O637 C618 1.268 . S
O638 Ho616 2.378 . S
O638 C619 1.215 . S
O639 Ho616 2.524 . S
O639 C619 1.289 . S
O640 Ho616 2.381 . S
O640 C626 1.275 . S
O641 Ho616 2.669 . S
O641 Ho617 2.305 . S
O641 C626 1.256 . S
O642 Ho617 2.322 . S
O642 C627 1.259 . S
O643 Ho616 2.346 . S
O643 C627 1.268 . S
O644 Ho617 2.378 . S
O644 C628 1.215 . S
O645 Ho617 2.524 . S
O645 C628 1.289 . S
O646 Ho617 2.381 . S
O646 C635 1.275 . S
O647 Ho616 2.305 . S
O647 Ho617 2.669 . S
O647 C635 1.256 . S
H648 C621 0.930 . S
H649 C622 0.931 . S
H650 C624 0.934 . S
H651 C625 0.930 . S
H652 C630 0.930 . S
H653 C631 0.931 . S
H654 C633 0.934 . S
H655 C634 0.930 . S
Ho656 C659 2.811 . S
Ho656 O676 2.322 1_554 S
Ho656 O678 2.378 . S
Ho656 O679 2.525 . S
Ho656 O680 2.381 . S
Ho656 O681 2.669 . S
Ho656 O683 2.346 . S
Ho656 O687 2.305 . S
Ho657 C668 2.797 1_556 S
Ho657 O677 2.365 . S
Ho657 O681 2.295 1_556 S
Ho657 O682 2.301 1_556 S
Ho657 O684 2.371 1_556 S
Ho657 O685 2.506 1_556 S
Ho657 O686 2.386 . S
Ho657 O687 2.672 1_556 S
C658 O676 1.259 . S
C658 O677 1.268 . S
C659 Ho656 2.811 . S
C659 C660 1.488 1_554 S
C659 O678 1.215 . S
C659 O679 1.289 . S
C660 C659 1.488 1_556 S
C660 C661 1.348 . S
C660 C665 1.413 . S
C661 C660 1.348 . S
C661 C662 1.442 . S
C661 H688 0.930 . S
C662 C661 1.442 . S
C662 C663 1.381 . S
C662 H689 0.931 . S
C663 C662 1.381 . S
C663 C664 1.321 . S
C664 C663 1.321 . S
C664 C665 1.403 . S
C664 H690 0.934 . S
C665 C660 1.413 . S
C665 C664 1.403 . S
C665 H691 0.930 1_556 S
C666 O680 1.275 . S
C666 O681 1.256 . S
C667 O682 1.259 . S
C667 O683 1.268 . S
C668 Ho657 2.797 1_554 S
C668 C669 1.488 . S
C668 O684 1.215 . S
C668 O685 1.289 . S
C669 C668 1.488 . S
C669 C670 1.348 . S
C669 C674 1.413 . S
C670 C669 1.348 . S
C670 C671 1.442 . S
C670 H692 0.930 . S
C671 C670 1.442 . S
C671 C672 1.381 . S
C671 H693 0.931 . S
C672 C671 1.381 . S
C672 C673 1.321 . S
C673 C672 1.321 . S
C673 C674 1.403 . S
C673 H694 0.934 . S
C674 C669 1.413 . S
C674 C673 1.403 . S
C674 H695 0.930 . S
C675 O686 1.275 1_554 S
C675 O687 1.256 . S
O676 Ho656 2.322 1_556 S
O676 C658 1.259 . S
O677 Ho657 2.365 . S
O677 C658 1.268 . S
O678 Ho656 2.378 . S
O678 C659 1.215 . S
O679 Ho656 2.525 . S
O679 C659 1.289 . S
O680 Ho656 2.381 . S
O680 C666 1.275 . S
O681 Ho656 2.669 . S
O681 Ho657 2.295 1_554 S
O681 C666 1.256 . S
O682 Ho657 2.301 1_554 S
O682 C667 1.259 . S
O683 Ho656 2.346 . S
O683 C667 1.268 . S
O684 Ho657 2.371 1_554 S
O684 C668 1.215 . S
O685 Ho657 2.506 1_554 S
O685 C668 1.289 . S
O686 Ho657 2.386 . S
O686 C675 1.275 1_556 S
O687 Ho656 2.305 . S
O687 Ho657 2.672 1_554 S
O687 C675 1.256 . S
H688 C661 0.930 . S
H689 C662 0.931 . S
H690 C664 0.934 . S
H691 C665 0.930 1_554 S
H692 C670 0.930 . S
H693 C671 0.931 . S
H694 C673 0.934 . S
H695 C674 0.930 . S
Ho696 C699 2.811 . S
Ho696 O716 2.322 . S
Ho696 O718 2.378 . S
Ho696 O719 2.524 . S
Ho696 O720 2.381 . S
Ho696 O721 2.669 . S
Ho696 O723 2.346 . S
Ho696 O727 2.305 . S
Ho697 C708 2.811 . S
Ho697 O717 2.346 . S
Ho697 O721 2.305 . S
Ho697 O722 2.322 . S
Ho697 O724 2.378 . S
Ho697 O725 2.524 . S
Ho697 O726 2.381 . S
Ho697 O727 2.669 . S
C698 O716 1.259 . S
C698 O717 1.268 . S
C699 Ho696 2.811 . S
C699 C700 1.488 . S
C699 O718 1.215 . S
C699 O719 1.289 . S
C700 C699 1.488 . S
C700 C701 1.348 . S
C700 C705 1.413 . S
C701 C700 1.348 . S
C701 C702 1.442 . S
C701 H728 0.930 . S
C702 C701 1.442 . S
C702 C703 1.381 . S
C702 H729 0.931 . S
C703 C702 1.381 . S
C703 C704 1.321 . S
C704 C703 1.321 . S
C704 C705 1.403 . S
C704 H730 0.934 . S
C705 C700 1.413 . S
C705 C704 1.403 . S
C705 H731 0.930 . S
C706 O720 1.275 . S
C706 O721 1.256 . S
C707 O722 1.259 . S
C707 O723 1.268 . S
C708 Ho697 2.811 . S
C708 C709 1.488 . S
C708 O724 1.215 . S
C708 O725 1.289 . S
C709 C708 1.488 . S
C709 C710 1.348 . S
C709 C714 1.413 . S
C710 C709 1.348 . S
C710 C711 1.442 . S
C710 H732 0.930 . S
C711 C710 1.442 . S
C711 C712 1.381 . S
C711 H733 0.931 . S
C712 C711 1.381 . S
C712 C713 1.321 . S
C713 C712 1.321 . S
C713 C714 1.403 . S
C713 H734 0.934 . S
C714 C709 1.413 . S
C714 C713 1.403 . S
C714 H735 0.930 . S
C715 O726 1.275 . S
C715 O727 1.256 . S
O716 Ho696 2.322 . S
O716 C698 1.259 . S
O717 Ho697 2.346 . S
O717 C698 1.268 . S
O718 Ho696 2.378 . S
O718 C699 1.215 . S
O719 Ho696 2.524 . S
O719 C699 1.289 . S
O720 Ho696 2.381 . S
O720 C706 1.275 . S
O721 Ho696 2.669 . S
O721 Ho697 2.305 . S
O721 C706 1.256 . S
O722 Ho697 2.322 . S
O722 C707 1.259 . S
O723 Ho696 2.346 . S
O723 C707 1.268 . S
O724 Ho697 2.378 . S
O724 C708 1.215 . S
O725 Ho697 2.524 . S
O725 C708 1.289 . S
O726 Ho697 2.381 . S
O726 C715 1.275 . S
O727 Ho696 2.305 . S
O727 Ho697 2.669 . S
O727 C715 1.256 . S
H728 C701 0.930 . S
H729 C702 0.931 . S
H730 C704 0.934 . S
H731 C705 0.930 . S
H732 C710 0.930 . S
H733 C711 0.931 . S
H734 C713 0.934 . S
H735 C714 0.930 . S
Ho736 C739 2.811 . S
Ho736 O756 2.322 . S
Ho736 O758 2.378 . S
Ho736 O759 2.524 . S
Ho736 O760 2.381 . S
Ho736 O761 2.669 . S
Ho736 O763 2.346 . S
Ho736 O767 2.305 . S
Ho737 C748 2.811 . S
Ho737 O757 2.346 . S
Ho737 O761 2.305 . S
Ho737 O762 2.322 . S
Ho737 O764 2.378 . S
Ho737 O765 2.524 . S
Ho737 O766 2.381 . S
Ho737 O767 2.669 . S
C738 O756 1.259 . S
C738 O757 1.268 . S
C739 Ho736 2.811 . S
C739 C740 1.488 . S
C739 O758 1.215 . S
C739 O759 1.289 . S
C740 C739 1.488 . S
C740 C741 1.348 . S
C740 C745 1.413 . S
C741 C740 1.348 . S
C741 C742 1.442 1_455 S
C741 H768 0.920 1_455 S
C742 C741 1.442 1_655 S
C742 C743 1.381 . S
C742 H769 0.931 . S
C743 C742 1.381 . S
C743 C744 1.321 1_655 S
C744 C743 1.321 1_455 S
C744 C745 1.403 . S
C744 H770 0.934 . S
C745 C740 1.413 . S
C745 C744 1.403 . S
C745 H771 0.930 . S
C746 O760 1.275 . S
C746 O761 1.256 . S
C747 O762 1.259 . S
C747 O763 1.268 . S
C748 Ho737 2.811 . S
C748 C749 1.488 . S
C748 O764 1.215 . S
C748 O765 1.289 . S
C749 C748 1.488 . S
C749 C750 1.348 . S
C749 C754 1.413 . S
C750 C749 1.348 . S
C750 C751 1.442 . S
C750 H772 0.930 . S
C751 C750 1.442 . S
C751 C752 1.381 . S
C751 H773 0.931 . S
C752 C751 1.381 . S
C752 C753 1.321 . S
C753 C752 1.321 . S
C753 C754 1.403 . S
C753 H774 0.934 . S
C754 C749 1.413 . S
C754 C753 1.403 . S
C754 H775 0.930 . S
C755 O766 1.275 . S
C755 O767 1.256 . S
O756 Ho736 2.322 . S
O756 C738 1.259 . S
O757 Ho737 2.346 . S
O757 C738 1.268 . S
O758 Ho736 2.378 . S
O758 C739 1.215 . S
O759 Ho736 2.524 . S
O759 C739 1.289 . S
O760 Ho736 2.381 . S
O760 C746 1.275 . S
O761 Ho736 2.669 . S
O761 Ho737 2.305 . S
O761 C746 1.256 . S
O762 Ho737 2.322 . S
O762 C747 1.259 . S
O763 Ho736 2.346 . S
O763 C747 1.268 . S
O764 Ho737 2.378 . S
O764 C748 1.215 . S
O765 Ho737 2.524 . S
O765 C748 1.289 . S
O766 Ho737 2.381 . S
O766 C755 1.275 . S
O767 Ho736 2.305 . S
O767 Ho737 2.669 . S
O767 C755 1.256 . S
H768 C741 0.920 1_655 S
H769 C742 0.931 . S
H770 C744 0.934 . S
H771 C745 0.930 . S
H772 C750 0.930 . S
H773 C751 0.931 . S
H774 C753 0.934 . S
H775 C754 0.930 . S
Ho776 C779 2.811 . S
Ho776 O796 2.322 . S
Ho776 O798 2.378 . S
Ho776 O799 2.524 . S
Ho776 O800 2.381 . S
Ho776 O801 2.669 . S
Ho776 O803 2.346 . S
Ho776 O807 2.305 . S
Ho777 C788 2.811 . S
Ho777 O797 2.346 . S
Ho777 O801 2.305 . S
Ho777 O802 2.322 . S
Ho777 O804 2.378 . S
Ho777 O805 2.524 . S
Ho777 O806 2.381 . S
Ho777 O807 2.669 . S
C778 O796 1.259 . S
C778 O797 1.268 . S
C779 Ho776 2.811 . S
C779 C780 1.488 . S
C779 O798 1.215 . S
C779 O799 1.289 . S
C780 C779 1.488 . S
C780 C781 1.348 . S
C780 C785 1.413 . S
C781 C780 1.348 . S
C781 C782 1.442 . S
C781 H808 0.930 . S
C782 C781 1.442 . S
C782 C783 1.381 . S
C782 H809 0.931 . S
C783 C782 1.381 . S
C783 C784 1.321 . S
C784 C783 1.321 . S
C784 C785 1.403 . S
C784 H810 0.934 . S
C785 C780 1.413 . S
C785 C784 1.403 . S
C785 H811 0.930 . S
C786 O800 1.275 . S
C786 O801 1.256 . S
C787 O802 1.259 . S
C787 O803 1.268 . S
C788 Ho777 2.811 . S
C788 C789 1.488 . S
C788 O804 1.215 . S
C788 O805 1.289 . S
C789 C788 1.488 . S
C789 C790 1.348 . S
C789 C794 1.413 . S
C790 C789 1.348 . S
C790 C791 1.442 . S
C790 H812 0.930 . S
C791 C790 1.442 . S
C791 C792 1.381 . S
C791 H813 0.931 . S
C792 C791 1.381 . S
C792 C793 1.321 . S
C793 C792 1.321 . S
C793 C794 1.403 . S
C793 H814 0.934 . S
C794 C789 1.413 . S
C794 C793 1.403 . S
C794 H815 0.930 . S
C795 O806 1.275 . S
C795 O807 1.256 . S
O796 Ho776 2.322 . S
O796 C778 1.259 . S
O797 Ho777 2.346 . S
O797 C778 1.268 . S
O798 Ho776 2.378 . S
O798 C779 1.215 . S
O799 Ho776 2.524 . S
O799 C779 1.289 . S
O800 Ho776 2.381 . S
O800 C786 1.275 . S
O801 Ho776 2.669 . S
O801 Ho777 2.305 . S
O801 C786 1.256 . S
O802 Ho777 2.322 . S
O802 C787 1.259 . S
O803 Ho776 2.346 . S
O803 C787 1.268 . S
O804 Ho777 2.378 . S
O804 C788 1.215 . S
O805 Ho777 2.524 . S
O805 C788 1.289 . S
O806 Ho777 2.381 . S
O806 C795 1.275 . S
O807 Ho776 2.305 . S
O807 Ho777 2.669 . S
O807 C795 1.256 . S
H808 C781 0.930 . S
H809 C782 0.931 . S
H810 C784 0.934 . S
H811 C785 0.930 . S
H812 C790 0.930 . S
H813 C791 0.931 . S
H814 C793 0.934 . S
H815 C794 0.930 . S
Ho816 C819 2.811 . S
Ho816 O836 2.322 . S
Ho816 O838 2.378 . S
Ho816 O839 2.524 . S
Ho816 O840 2.381 . S
Ho816 O841 2.669 . S
Ho816 O843 2.346 . S
Ho816 O847 2.305 . S
Ho817 C828 2.811 . S
Ho817 O837 2.346 . S
Ho817 O841 2.305 . S
Ho817 O842 2.322 . S
Ho817 O844 2.378 . S
Ho817 O845 2.524 . S
Ho817 O846 2.381 . S
Ho817 O847 2.669 . S
C818 O836 1.259 . S
C818 O837 1.268 . S
C819 Ho816 2.811 . S
C819 C820 1.488 . S
C819 O838 1.215 . S
C819 O839 1.289 . S
C820 C819 1.488 . S
C820 C821 1.348 . S
C820 C825 1.413 . S
C821 C820 1.348 . S
C821 C822 1.442 . S
C821 H848 0.930 . S
C822 C821 1.442 . S
C822 C823 1.381 . S
C822 H849 0.931 . S
C823 C822 1.381 . S
C823 C824 1.321 . S
C824 C823 1.321 . S
C824 C825 1.403 . S
C824 H850 0.934 . S
C825 C820 1.413 . S
C825 C824 1.403 . S
C825 H851 0.930 . S
C826 O840 1.275 . S
C826 O841 1.256 . S
C827 O842 1.259 . S
C827 O843 1.268 . S
C828 Ho817 2.811 . S
C828 C829 1.488 . S
C828 O844 1.215 . S
C828 O845 1.289 . S
C829 C828 1.488 . S
C829 C830 1.348 . S
C829 C834 1.413 . S
C830 C829 1.348 . S
C830 C831 1.442 . S
C830 H852 0.930 . S
C831 C830 1.442 . S
C831 C832 1.381 . S
C831 H853 0.931 . S
C832 C831 1.381 . S
C832 C833 1.321 . S
C833 C832 1.321 . S
C833 C834 1.403 . S
C833 H854 0.934 . S
C834 C829 1.413 . S
C834 C833 1.403 . S
C834 H855 0.930 . S
C835 O846 1.275 . S
C835 O847 1.256 . S
O836 Ho816 2.322 . S
O836 C818 1.259 . S
O837 Ho817 2.346 . S
O837 C818 1.268 . S
O838 Ho816 2.378 . S
O838 C819 1.215 . S
O839 Ho816 2.524 . S
O839 C819 1.289 . S
O840 Ho816 2.381 . S
O840 C826 1.275 . S
O841 Ho816 2.669 . S
O841 Ho817 2.305 . S
O841 C826 1.256 . S
O842 Ho817 2.322 . S
O842 C827 1.259 . S
O843 Ho816 2.346 . S
O843 C827 1.268 . S
O844 Ho817 2.378 . S
O844 C828 1.215 . S
O845 Ho817 2.524 . S
O845 C828 1.289 . S
O846 Ho817 2.381 . S
O846 C835 1.275 . S
O847 Ho816 2.305 . S
O847 Ho817 2.669 . S
O847 C835 1.256 . S
H848 C821 0.930 . S
H849 C822 0.931 . S
H850 C824 0.934 . S
H851 C825 0.930 . S
H852 C830 0.930 . S
H853 C831 0.931 . S
H854 C833 0.934 . S
H855 C834 0.930 . S
Ho856 C859 2.811 . S
Ho856 O876 2.322 . S
Ho856 O878 2.378 . S
Ho856 O879 2.524 . S
Ho856 O880 2.381 . S
Ho856 O881 2.669 . S
Ho856 O883 2.346 . S
Ho856 O887 2.305 . S
Ho857 C868 2.811 . S
Ho857 O877 2.346 . S
Ho857 O881 2.305 . S
Ho857 O882 2.322 . S
Ho857 O884 2.378 . S
Ho857 O885 2.524 . S
Ho857 O886 2.381 . S
Ho857 O887 2.669 . S
C858 O876 1.259 . S
C858 O877 1.268 . S
C859 Ho856 2.811 . S
C859 C860 1.488 . S
C859 O878 1.215 . S
C859 O879 1.289 . S
C860 C859 1.488 . S
C860 C861 1.348 . S
C860 C865 1.413 . S
C861 C860 1.348 . S
C861 C862 1.442 . S
C861 H888 0.930 . S
C862 C861 1.442 . S
C862 C863 1.381 . S
C862 H889 0.931 . S
C863 C862 1.381 . S
C863 C864 1.321 . S
C864 C863 1.321 . S
C864 C865 1.403 . S
C864 H890 0.934 . S
C865 C860 1.413 . S
C865 C864 1.403 . S
C865 H891 0.930 . S
C866 O880 1.275 . S
C866 O881 1.256 . S
C867 O882 1.259 . S
C867 O883 1.268 . S
C868 Ho857 2.811 . S
C868 C869 1.488 . S
C868 O884 1.215 . S
C868 O885 1.289 . S
C869 C868 1.488 . S
C869 C870 1.348 . S
C869 C874 1.413 . S
C870 C869 1.348 . S
C870 C871 1.442 . S
C870 H892 0.930 . S
C871 C870 1.442 . S
C871 C872 1.381 . S
C871 H893 0.931 . S
C872 C871 1.381 . S
C872 C873 1.321 . S
C873 C872 1.321 . S
C873 C874 1.403 . S
C873 H894 0.934 . S
C874 C869 1.413 . S
C874 C873 1.403 . S
C874 H895 0.930 . S
C875 O886 1.275 . S
C875 O887 1.256 . S
O876 Ho856 2.322 . S
O876 C858 1.259 . S
O877 Ho857 2.346 . S
O877 C858 1.268 . S
O878 Ho856 2.378 . S
O878 C859 1.215 . S
O879 Ho856 2.524 . S
O879 C859 1.289 . S
O880 Ho856 2.381 . S
O880 C866 1.275 . S
O881 Ho856 2.669 . S
O881 Ho857 2.305 . S
O881 C866 1.256 . S
O882 Ho857 2.322 . S
O882 C867 1.259 . S
O883 Ho856 2.346 . S
O883 C867 1.268 . S
O884 Ho857 2.378 . S
O884 C868 1.215 . S
O885 Ho857 2.524 . S
O885 C868 1.289 . S
O886 Ho857 2.381 . S
O886 C875 1.275 . S
O887 Ho856 2.305 . S
O887 Ho857 2.669 . S
O887 C875 1.256 . S
H888 C861 0.930 . S
H889 C862 0.931 . S
H890 C864 0.934 . S
H891 C865 0.930 . S
H892 C870 0.930 . S
H893 C871 0.931 . S
H894 C873 0.934 . S
H895 C874 0.930 . S
Ho896 C899 2.811 . S
Ho896 O916 2.322 . S
Ho896 O918 2.378 . S
Ho896 O919 2.524 . S
Ho896 O920 2.381 . S
Ho896 O921 2.669 . S
Ho896 O923 2.346 . S
Ho896 O927 2.305 . S
Ho897 C908 2.811 . S
Ho897 O917 2.346 . S
Ho897 O921 2.305 . S
Ho897 O922 2.322 . S
Ho897 O924 2.378 . S
Ho897 O925 2.524 . S
Ho897 O926 2.381 . S
Ho897 O927 2.669 . S
C898 O916 1.259 . S
C898 O917 1.268 . S
C899 Ho896 2.811 . S
C899 C900 1.488 . S
C899 O918 1.215 . S
C899 O919 1.289 . S
C900 C899 1.488 . S
C900 C901 1.348 . S
C900 C905 1.413 . S
C901 C900 1.348 . S
C901 C902 1.442 . S
C901 H928 0.930 . S
C902 C901 1.442 . S
C902 C903 1.381 . S
C902 H929 0.931 . S
C903 C902 1.381 . S
C903 C904 1.321 . S
C904 C903 1.321 . S
C904 C905 1.403 . S
C904 H930 0.934 . S
C905 C900 1.413 . S
C905 C904 1.403 . S
C905 H931 0.930 . S
C906 O920 1.275 . S
C906 O921 1.256 . S
C907 O922 1.259 . S
C907 O923 1.268 . S
C908 Ho897 2.811 . S
C908 C909 1.488 . S
C908 O924 1.215 . S
C908 O925 1.289 . S
C909 C908 1.488 . S
C909 C910 1.348 . S
C909 C914 1.413 . S
C910 C909 1.348 . S
C910 C911 1.442 . S
C910 H932 0.930 . S
C911 C910 1.442 . S
C911 C912 1.381 . S
C911 H933 0.931 . S
C912 C911 1.381 . S
C912 C913 1.321 . S
C913 C912 1.321 . S
C913 C914 1.403 . S
C913 H934 0.934 . S
C914 C909 1.413 . S
C914 C913 1.403 . S
C914 H935 0.930 . S
C915 O926 1.275 . S
C915 O927 1.256 . S
O916 Ho896 2.322 . S
O916 C898 1.259 . S
O917 Ho897 2.346 . S
O917 C898 1.268 . S
O918 Ho896 2.378 . S
O918 C899 1.215 . S
O919 Ho896 2.524 . S
O919 C899 1.289 . S
O920 Ho896 2.381 . S
O920 C906 1.275 . S
O921 Ho896 2.669 . S
O921 Ho897 2.305 . S
O921 C906 1.256 . S
O922 Ho897 2.322 . S
O922 C907 1.259 . S
O923 Ho896 2.346 . S
O923 C907 1.268 . S
O924 Ho897 2.378 . S
O924 C908 1.215 . S
O925 Ho897 2.524 . S
O925 C908 1.289 . S
O926 Ho897 2.381 . S
O926 C915 1.275 . S
O927 Ho896 2.305 . S
O927 Ho897 2.669 . S
O927 C915 1.256 . S
H928 C901 0.930 . S
H929 C902 0.931 . S
H930 C904 0.934 . S
H931 C905 0.930 . S
H932 C910 0.930 . S
H933 C911 0.931 . S
H934 C913 0.934 . S
H935 C914 0.930 . S
Ho936 C939 2.811 1_554 S
Ho936 O956 2.322 1_554 S
Ho936 O958 2.378 1_554 S
Ho936 O959 2.524 . S
Ho936 O960 2.381 1_554 S
Ho936 O961 2.669 1_554 S
Ho936 O963 2.346 . S
Ho936 O967 2.305 . S
Ho937 C948 2.811 1_455 S
Ho937 O957 2.346 . S
Ho937 O961 2.305 1_554 S
Ho937 O962 2.322 . S
Ho937 O964 2.398 . S
Ho937 O965 2.524 1_455 S
Ho937 O966 2.381 . S
Ho937 O967 2.669 . S
C938 O956 1.259 1_554 S
C938 O957 1.268 . S
C939 Ho936 2.811 1_556 S
C939 C940 1.488 . S
C939 O958 1.215 . S
C939 O959 1.289 1_556 S
C940 C939 1.488 . S
C940 C941 1.348 1_556 S
C940 C945 1.413 . S
C941 C940 1.348 1_554 S
C941 C942 1.442 . S
C941 H968 0.930 . S
C942 C941 1.442 . S
C942 C943 1.381 1_554 S
C942 H969 0.931 . S
C943 C942 1.381 1_556 S
C943 C944 1.321 . S
C944 C943 1.321 . S
C944 C945 1.403 . S
C944 H970 0.934 . S
C945 C940 1.413 . S
C945 C944 1.403 . S
C945 H971 0.930 . S
C946 O960 1.275 . S
C946 O961 1.256 . S
C947 O962 1.259 . S
C947 O963 1.268 . S
C948 Ho937 2.811 1_655 S
C948 C949 1.488 . S
C948 O964 1.205 1_655 S
C948 O965 1.289 . S
C949 C948 1.488 . S
C949 C950 1.348 . S
C949 C954 1.413 . S
C950 C949 1.348 . S
C950 C951 1.442 . S
C950 H972 0.930 . S
C951 C950 1.442 . S
C951 C952 1.381 . S
C951 H973 0.931 . S
C952 C951 1.381 . S
C952 C953 1.321 . S
C953 C952 1.321 . S
C953 C954 1.403 . S
C953 H974 0.934 . S
C954 C949 1.413 . S
C954 C953 1.403 . S
C954 H975 0.930 . S
C955 O966 1.275 . S
C955 O967 1.256 . S
O956 Ho936 2.322 1_556 S
O956 C938 1.259 1_556 S
O957 Ho937 2.346 . S
O957 C938 1.268 . S
O958 Ho936 2.378 1_556 S
O958 C939 1.215 . S
O959 Ho936 2.524 . S
O959 C939 1.289 1_554 S
O960 Ho936 2.381 1_556 S
O960 C946 1.275 . S
O961 Ho936 2.669 1_556 S
O961 Ho937 2.305 1_556 S
O961 C946 1.256 . S
O962 Ho937 2.322 . S
O962 C947 1.259 . S
O963 Ho936 2.346 . S
O963 C947 1.268 . S
O964 Ho937 2.398 . S
O964 C948 1.205 1_455 S
O965 Ho937 2.524 1_655 S
O965 C948 1.289 . S
O966 Ho937 2.381 . S
O966 C955 1.275 . S
O967 Ho936 2.305 . S
O967 Ho937 2.669 . S
O967 C955 1.256 . S
H968 C941 0.930 . S
H969 C942 0.931 . S
H970 C944 0.934 . S
H971 C945 0.930 . S
H972 C950 0.930 . S
H973 C951 0.931 . S
H974 C953 0.934 . S
H975 C954 0.930 . S
C976 C977 1.387 . S
C976 H980 0.950 . S
C976 C985 1.390 . S
C977 C976 1.387 . S
C977 C979 1.381 1_556 S
H978 C985 0.950 . S
C979 C977 1.381 1_554 S
C979 C981 1.395 . S
C979 H983 0.952 . S
H980 C976 0.950 . S
C981 C979 1.395 . S
C981 C982 1.387 1_554 S
C981 H984 0.950 . S
C982 C981 1.387 1_556 S
C982 C985 1.387 . S
H983 C979 0.952 . S
H984 C981 0.950 . S
C985 C976 1.390 . S
C985 H978 0.950 . S
C985 C982 1.387 . S
C986 C987 1.387 . S
C986 H990 0.950 . S
C986 C995 1.390 . S
C987 C986 1.387 . S
C987 C989 1.387 . S
H988 C995 0.950 . S
C989 C987 1.387 . S
C989 C991 1.390 . S
C989 H993 0.950 . S
H990 C986 0.950 . S
C991 C989 1.390 . S
C991 C992 1.387 . S
C991 H994 0.950 . S
C992 C991 1.387 . S
C992 C995 1.387 . S
H993 C989 0.950 . S
H994 C991 0.950 . S
C995 C986 1.390 . S
C995 H988 0.950 . S
C995 C992 1.387 . S
C996 C997 1.387 . S
C996 H1000 0.950 . S
C996 C1005 1.390 . S
C997 C996 1.387 . S
C997 C999 1.387 . S
H998 C1005 0.950 . S
C999 C997 1.387 . S
C999 C1001 1.390 . S
C999 H1003 0.950 . S
H1000 C996 0.950 . S
C1001 C999 1.390 . S
C1001 C1002 1.387 . S
C1001 H1004 0.950 . S
C1002 C1001 1.387 . S
C1002 C1005 1.387 . S
H1003 C999 0.950 . S
H1004 C1001 0.950 . S
C1005 C996 1.390 . S
C1005 H998 0.950 . S
C1005 C1002 1.387 . S
C1006 C1007 1.387 . S
C1006 H1010 0.950 . S
C1006 C1015 1.390 . S
C1007 C1006 1.387 . S
C1007 C1009 1.387 . S
H1008 C1015 0.950 . S
C1009 C1007 1.387 . S
C1009 C1011 1.390 . S
C1009 H1013 0.950 . S
H1010 C1006 0.950 . S
C1011 C1009 1.390 . S
C1011 C1012 1.387 . S
C1011 H1014 0.950 . S
C1012 C1011 1.387 . S
C1012 C1015 1.387 . S
H1013 C1009 0.950 . S
H1014 C1011 0.950 . S
C1015 C1006 1.390 . S
C1015 H1008 0.950 . S
C1015 C1012 1.387 . S
C1016 C1017 1.387 . S
C1016 H1020 0.950 . S
C1016 C1025 1.390 . S
C1017 C1016 1.387 . S
C1017 C1019 1.387 . S
H1018 C1025 0.950 . S
C1019 C1017 1.387 . S
C1019 C1021 1.390 . S
C1019 H1023 0.950 . S
H1020 C1016 0.950 . S
C1021 C1019 1.390 . S
C1021 C1022 1.387 . S
C1021 H1024 0.950 . S
C1022 C1021 1.387 . S
C1022 C1025 1.387 . S
H1023 C1019 0.950 . S
H1024 C1021 0.950 . S
C1025 C1016 1.390 . S
C1025 H1018 0.950 . S
C1025 C1022 1.387 . S
C1026 C1027 1.387 . S
C1026 H1030 0.950 . S
C1026 C1035 1.390 . S
C1027 C1026 1.387 . S
C1027 C1029 1.387 . S
H1028 C1035 0.950 . S
C1029 C1027 1.387 . S
C1029 C1031 1.390 . S
C1029 H1033 0.950 . S
H1030 C1026 0.950 . S
C1031 C1029 1.390 . S
C1031 C1032 1.387 . S
C1031 H1034 0.950 . S
C1032 C1031 1.387 . S
C1032 C1035 1.387 . S
H1033 C1029 0.950 . S
H1034 C1031 0.950 . S
C1035 C1026 1.390 . S
C1035 H1028 0.950 . S
C1035 C1032 1.387 . S
C1036 C1037 1.387 . S
C1036 H1040 0.950 . S
C1036 C1045 1.390 . S
C1037 C1036 1.387 . S
C1037 C1039 1.387 . S
H1038 C1045 0.950 . S
C1039 C1037 1.387 . S
C1039 C1041 1.390 . S
C1039 H1043 0.950 . S
H1040 C1036 0.950 . S
C1041 C1039 1.390 . S
C1041 C1042 1.387 . S
C1041 H1044 0.950 . S
C1042 C1041 1.387 . S
C1042 C1045 1.387 . S
H1043 C1039 0.950 . S
H1044 C1041 0.950 . S
C1045 C1036 1.390 . S
C1045 H1038 0.950 . S
C1045 C1042 1.387 . S
C1046 C1047 1.387 . S
C1046 H1050 0.950 . S
C1046 C1055 1.390 . S
C1047 C1046 1.387 . S
C1047 C1049 1.387 . S
H1048 C1055 0.950 . S
C1049 C1047 1.387 . S
C1049 C1051 1.390 . S
C1049 H1053 0.950 . S
H1050 C1046 0.950 . S
C1051 C1049 1.390 . S
C1051 C1052 1.387 . S
C1051 H1054 0.950 . S
C1052 C1051 1.387 . S
C1052 C1055 1.387 . S
H1053 C1049 0.950 . S
H1054 C1051 0.950 . S
C1055 C1046 1.390 . S
C1055 H1048 0.950 . S
C1055 C1052 1.387 . S
C1056 C1057 1.387 . S
C1056 H1060 0.950 . S
C1056 C1065 1.390 . S
C1057 C1056 1.387 . S
C1057 C1059 1.387 . S
H1058 C1065 0.950 . S
C1059 C1057 1.387 . S
C1059 C1061 1.390 . S
C1059 H1063 0.950 1_455 S
H1060 C1056 0.950 . S
C1061 C1059 1.390 . S
C1061 C1062 1.387 . S
C1061 H1064 0.950 . S
C1062 C1061 1.387 . S
C1062 C1065 1.387 . S
H1063 C1059 0.950 1_655 S
H1064 C1061 0.950 . S
C1065 C1056 1.390 . S
C1065 H1058 0.950 . S
C1065 C1062 1.387 . S
C1066 C1067 1.387 . S
C1066 H1070 0.950 . S
C1066 C1075 1.390 . S
C1067 C1066 1.387 . S
C1067 C1069 1.387 . S
H1068 C1075 0.950 . S
C1069 C1067 1.387 . S
C1069 C1071 1.390 . S
C1069 H1073 0.950 . S
H1070 C1066 0.950 . S
C1071 C1069 1.390 . S
C1071 C1072 1.387 . S
C1071 H1074 0.950 . S
C1072 C1071 1.387 . S
C1072 C1075 1.387 . S
H1073 C1069 0.950 . S
H1074 C1071 0.950 . S
C1075 C1066 1.390 . S
C1075 H1068 0.950 . S
C1075 C1072 1.387 . S
C1076 C1077 1.387 . S
C1076 H1080 0.950 . S
C1076 C1085 1.390 . S
C1077 C1076 1.387 . S
C1077 C1079 1.387 . S
H1078 C1085 0.950 . S
C1079 C1077 1.387 . S
C1079 C1081 1.390 . S
C1079 H1083 0.950 . S
H1080 C1076 0.950 . S
C1081 C1079 1.390 . S
C1081 C1082 1.387 . S
C1081 H1084 0.950 . S
C1082 C1081 1.387 . S
C1082 C1085 1.387 . S
H1083 C1079 0.950 . S
H1084 C1081 0.950 . S
C1085 C1076 1.390 . S
C1085 H1078 0.950 . S
C1085 C1082 1.387 . S
C1086 C1087 1.387 . S
C1086 H1090 0.950 . S
C1086 C1095 1.390 . S
C1087 C1086 1.387 . S
C1087 C1089 1.387 . S
H1088 C1095 0.950 . S
C1089 C1087 1.387 . S
C1089 C1091 1.390 . S
C1089 H1093 0.950 . S
H1090 C1086 0.950 . S
C1091 C1089 1.390 . S
C1091 C1092 1.387 . S
C1091 H1094 0.950 . S
C1092 C1091 1.387 . S
C1092 C1095 1.387 . S
H1093 C1089 0.950 . S
H1094 C1091 0.950 . S
C1095 C1086 1.390 . S
C1095 H1088 0.950 . S
C1095 C1092 1.387 . S
C1096 C1097 1.387 . S
C1096 H1100 0.950 . S
C1096 C1105 1.390 . S
C1097 C1096 1.387 . S
C1097 C1099 1.387 . S
H1098 C1105 0.950 . S
C1099 C1097 1.387 . S
C1099 C1101 1.390 . S
C1099 H1103 0.950 1_455 S
H1100 C1096 0.950 . S
C1101 C1099 1.390 . S
C1101 C1102 1.387 . S
C1101 H1104 0.950 . S
C1102 C1101 1.387 . S
C1102 C1105 1.387 . S
H1103 C1099 0.950 1_655 S
H1104 C1101 0.950 . S
C1105 C1096 1.390 . S
C1105 H1098 0.950 . S
C1105 C1102 1.387 . S
C1106 C1107 1.387 . S
C1106 H1110 0.950 . S
C1106 C1115 1.390 . S
C1107 C1106 1.387 . S
C1107 C1109 1.387 . S
H1108 C1115 0.950 . S
C1109 C1107 1.387 . S
C1109 C1111 1.390 . S
C1109 H1113 0.950 . S
H1110 C1106 0.950 . S
C1111 C1109 1.390 . S
C1111 C1112 1.387 . S
C1111 H1114 0.950 . S
C1112 C1111 1.387 . S
C1112 C1115 1.387 . S
H1113 C1109 0.950 . S
H1114 C1111 0.950 . S
C1115 C1106 1.390 . S
C1115 H1108 0.950 . S
C1115 C1112 1.387 . S
C1116 C1117 1.387 . S
C1116 H1120 0.950 . S
C1116 C1125 1.390 . S
C1117 C1116 1.387 . S
C1117 C1119 1.387 . S
H1118 C1125 0.950 . S
C1119 C1117 1.387 . S
C1119 C1121 1.390 . S
C1119 H1123 0.950 . S
H1120 C1116 0.950 . S
C1121 C1119 1.390 . S
C1121 C1122 1.387 . S
C1121 H1124 0.950 . S
C1122 C1121 1.387 . S
C1122 C1125 1.387 . S
H1123 C1119 0.950 . S
H1124 C1121 0.950 . S
C1125 C1116 1.390 . S
C1125 H1118 0.950 . S
C1125 C1122 1.387 . S
C1126 C1127 1.387 . S
C1126 H1130 0.950 . S
C1126 C1135 1.390 . S
C1127 C1126 1.387 . S
C1127 C1129 1.387 . S
H1128 C1135 0.950 . S
C1129 C1127 1.387 . S
C1129 C1131 1.390 . S
C1129 H1133 0.950 . S
H1130 C1126 0.950 . S
C1131 C1129 1.390 . S
C1131 C1132 1.387 . S
C1131 H1134 0.950 . S
C1132 C1131 1.387 . S
C1132 C1135 1.387 . S
H1133 C1129 0.950 . S
H1134 C1131 0.950 . S
C1135 C1126 1.390 . S
C1135 H1128 0.950 . S
C1135 C1132 1.387 . S
C1136 C1137 1.381 1_545 S
C1136 H1140 0.953 1_554 S
C1136 C1145 1.393 . S
C1137 C1136 1.381 1_565 S
C1137 C1139 1.387 . S
H1138 C1145 0.950 . S
C1139 C1137 1.387 . S
C1139 C1141 1.390 . S
C1139 H1143 0.950 . S
H1140 C1136 0.953 1_556 S
C1141 C1139 1.390 . S
C1141 C1142 1.387 1_565 S
C1141 H1144 0.950 . S
C1142 C1141 1.387 1_545 S
C1142 C1145 1.387 . S
H1143 C1139 0.950 . S
H1144 C1141 0.950 . S
C1145 C1136 1.393 . S
C1145 H1138 0.950 . S
C1145 C1142 1.387 . S
C1146 C1147 1.387 . S
C1146 H1150 0.950 . S
C1146 C1155 1.390 . S
C1147 C1146 1.387 . S
C1147 C1149 1.387 1_556 S
H1148 C1155 0.950 . S
C1149 C1147 1.387 1_554 S
C1149 C1151 1.390 . S
C1149 H1153 0.950 . S
H1150 C1146 0.950 . S
C1151 C1149 1.390 . S
C1151 C1152 1.387 . S
C1151 H1154 0.950 . S
C1152 C1151 1.387 . S
C1152 C1155 1.387 1_554 S
H1153 C1149 0.950 . S
H1154 C1151 0.950 . S
C1155 C1146 1.390 . S
C1155 H1148 0.950 . S
C1155 C1152 1.387 1_556 S
C1156 C1157 1.387 . S
C1156 H1160 0.950 . S
C1156 C1165 1.390 . S
C1157 C1156 1.387 . S
C1157 C1159 1.387 . S
H1158 C1165 0.950 . S
C1159 C1157 1.387 . S
C1159 C1161 1.390 . S
C1159 H1163 0.950 . S
H1160 C1156 0.950 . S
C1161 C1159 1.390 . S
C1161 C1162 1.387 . S
C1161 H1164 0.950 . S
C1162 C1161 1.387 . S
C1162 C1165 1.387 . S
H1163 C1159 0.950 . S
H1164 C1161 0.950 . S
C1165 C1156 1.390 . S
C1165 H1158 0.950 . S
C1165 C1162 1.387 . S
C1166 C1167 1.387 . S
C1166 H1170 0.950 . S
C1166 C1175 1.390 . S
C1167 C1166 1.387 . S
C1167 C1169 1.387 . S
H1168 C1175 0.950 . S
C1169 C1167 1.387 . S
C1169 C1171 1.390 . S
C1169 H1173 0.950 . S
H1170 C1166 0.950 . S
C1171 C1169 1.390 . S
C1171 C1172 1.387 . S
C1171 H1174 0.950 . S
C1172 C1171 1.387 . S
C1172 C1175 1.387 . S
H1173 C1169 0.950 . S
H1174 C1171 0.950 . S
C1175 C1166 1.390 . S
C1175 H1168 0.950 . S
C1175 C1172 1.387 . S
C1176 C1177 1.387 . S
C1176 H1180 0.950 . S
C1176 C1185 1.390 . S
C1177 C1176 1.387 . S
C1177 C1179 1.387 . S
H1178 C1185 0.950 . S
C1179 C1177 1.387 . S
C1179 C1181 1.390 . S
C1179 H1183 0.950 . S
H1180 C1176 0.950 . S
C1181 C1179 1.390 . S
C1181 C1182 1.387 . S
C1181 H1184 0.950 . S
C1182 C1181 1.387 . S
C1182 C1185 1.387 . S
H1183 C1179 0.950 . S
H1184 C1181 0.950 . S
C1185 C1176 1.390 . S
C1185 H1178 0.950 . S
C1185 C1182 1.387 . S
C1186 C1187 1.387 . S
C1186 H1190 0.950 . S
C1186 C1195 1.390 . S
C1187 C1186 1.387 . S
C1187 C1189 1.387 . S
H1188 C1195 0.950 . S
C1189 C1187 1.387 . S
C1189 C1191 1.390 . S
C1189 H1193 0.950 . S
H1190 C1186 0.950 . S
C1191 C1189 1.390 . S
C1191 C1192 1.387 . S
C1191 H1194 0.950 . S
C1192 C1191 1.387 . S
C1192 C1195 1.387 . S
H1193 C1189 0.950 . S
H1194 C1191 0.950 . S
C1195 C1186 1.390 . S
C1195 H1188 0.950 . S
C1195 C1192 1.387 . S
C1196 C1197 1.387 . S
C1196 H1200 0.950 . S
C1196 C1205 1.390 . S
C1197 C1196 1.387 . S
C1197 C1199 1.387 . S
H1198 C1205 0.950 . S
C1199 C1197 1.387 . S
C1199 C1201 1.390 . S
C1199 H1203 0.950 . S
H1200 C1196 0.950 . S
C1201 C1199 1.390 . S
C1201 C1202 1.387 . S
C1201 H1204 0.950 . S
C1202 C1201 1.387 . S
C1202 C1205 1.387 . S
H1203 C1199 0.950 . S
H1204 C1201 0.950 . S
C1205 C1196 1.390 . S
C1205 H1198 0.950 . S
C1205 C1202 1.387 . S
C1206 C1207 1.387 . S
C1206 H1210 0.950 . S
C1206 C1215 1.390 . S
C1207 C1206 1.387 . S
C1207 C1209 1.387 . S
H1208 C1215 0.950 . S
C1209 C1207 1.387 . S
C1209 C1211 1.390 . S
C1209 H1213 0.950 . S
H1210 C1206 0.950 . S
C1211 C1209 1.390 . S
C1211 C1212 1.387 . S
C1211 H1214 0.950 . S
C1212 C1211 1.387 . S
C1212 C1215 1.387 . S
H1213 C1209 0.950 . S
H1214 C1211 0.950 . S
C1215 C1206 1.390 . S
C1215 H1208 0.950 . S
C1215 C1212 1.387 . S
C1216 C1217 1.387 . S
C1216 H1220 0.950 . S
C1216 C1225 1.390 . S
C1217 C1216 1.387 . S
C1217 C1219 1.387 . S
H1218 C1225 0.950 . S
C1219 C1217 1.387 . S
C1219 C1221 1.390 . S
C1219 H1223 0.950 . S
H1220 C1216 0.950 . S
C1221 C1219 1.390 . S
C1221 C1222 1.387 . S
C1221 H1224 0.950 1_554 S
C1222 C1221 1.387 . S
C1222 C1225 1.387 . S
H1223 C1219 0.950 . S
H1224 C1221 0.950 1_556 S
C1225 C1216 1.390 . S
C1225 H1218 0.950 . S
C1225 C1222 1.387 . S
C1226 C1227 1.387 . S
C1226 H1230 0.950 . S
C1226 C1235 1.390 . S
C1227 C1226 1.387 . S
C1227 C1229 1.387 . S
H1228 C1235 0.950 . S
C1229 C1227 1.387 . S
C1229 C1231 1.390 . S
C1229 H1233 0.950 . S
H1230 C1226 0.950 . S
C1231 C1229 1.390 . S
C1231 C1232 1.387 . S
C1231 H1234 0.950 . S
C1232 C1231 1.387 . S
C1232 C1235 1.387 . S
H1233 C1229 0.950 . S
H1234 C1231 0.950 . S
C1235 C1226 1.390 . S
C1235 H1228 0.950 . S
C1235 C1232 1.387 . S
C1236 C1237 1.387 . S
C1236 H1240 0.950 . S
C1236 C1245 1.390 . S
C1237 C1236 1.387 . S
C1237 C1239 1.387 . S
H1238 C1245 0.950 . S
C1239 C1237 1.387 . S
C1239 C1241 1.390 . S
C1239 H1243 0.950 . S
H1240 C1236 0.950 . S
C1241 C1239 1.390 . S
C1241 C1242 1.387 . S
C1241 H1244 0.950 . S
C1242 C1241 1.387 . S
C1242 C1245 1.387 . S
H1243 C1239 0.950 . S
H1244 C1241 0.950 . S
C1245 C1236 1.390 . S
C1245 H1238 0.950 . S
C1245 C1242 1.387 . S
C1246 C1247 1.387 . S
C1246 H1250 0.950 . S
C1246 C1255 1.390 . S
C1247 C1246 1.387 . S
C1247 C1249 1.387 . S
H1248 C1255 0.950 . S
C1249 C1247 1.387 . S
C1249 C1251 1.390 . S
C1249 H1253 0.950 . S
H1250 C1246 0.950 . S
C1251 C1249 1.390 . S
C1251 C1252 1.387 . S
C1251 H1254 0.950 . S
C1252 C1251 1.387 . S
C1252 C1255 1.387 . S
H1253 C1249 0.950 . S
H1254 C1251 0.950 . S
C1255 C1246 1.390 . S
C1255 H1248 0.950 . S
C1255 C1252 1.387 . S
C1256 C1257 1.387 . S
C1256 H1260 0.950 . S
C1256 C1265 1.390 . S
C1257 C1256 1.387 . S
C1257 C1259 1.387 . S
H1258 C1265 0.950 . S
C1259 C1257 1.387 . S
C1259 C1261 1.390 . S
C1259 H1263 0.950 . S
H1260 C1256 0.950 . S
C1261 C1259 1.390 . S
C1261 C1262 1.387 . S
C1261 H1264 0.950 . S
C1262 C1261 1.387 . S
C1262 C1265 1.387 . S
H1263 C1259 0.950 . S
H1264 C1261 0.950 . S
C1265 C1256 1.390 . S
C1265 H1258 0.950 . S
C1265 C1262 1.387 . S
C1266 C1267 1.387 . S
C1266 H1270 0.950 . S
C1266 C1275 1.390 . S
C1267 C1266 1.387 . S
C1267 C1269 1.387 . S
H1268 C1275 0.950 . S
C1269 C1267 1.387 . S
C1269 C1271 1.390 . S
C1269 H1273 0.950 . S
H1270 C1266 0.950 . S
C1271 C1269 1.390 . S
C1271 C1272 1.387 . S
C1271 H1274 0.950 . S
C1272 C1271 1.387 . S
C1272 C1275 1.387 . S
H1273 C1269 0.950 . S
H1274 C1271 0.950 . S
C1275 C1266 1.390 . S
C1275 H1268 0.950 . S
C1275 C1272 1.387 . S
C1276 C1277 1.387 . S
C1276 H1280 0.950 . S
C1276 C1285 1.390 . S
C1277 C1276 1.387 . S
C1277 C1279 1.387 . S
H1278 C1285 0.950 . S
C1279 C1277 1.387 . S
C1279 C1281 1.390 . S
C1279 H1283 0.950 . S
H1280 C1276 0.950 . S
C1281 C1279 1.390 . S
C1281 C1282 1.387 . S
C1281 H1284 0.950 1_565 S
C1282 C1281 1.387 . S
C1282 C1285 1.387 . S
H1283 C1279 0.950 . S
H1284 C1281 0.950 1_545 S
C1285 C1276 1.390 . S
C1285 H1278 0.950 . S
C1285 C1282 1.387 . S
C1286 C1287 1.387 . S
C1286 H1290 0.950 . S
C1286 C1295 1.390 . S
C1287 C1286 1.387 . S
C1287 C1289 1.387 . S
H1288 C1295 0.950 . S
C1289 C1287 1.387 . S
C1289 C1291 1.390 . S
C1289 H1293 0.950 . S
H1290 C1286 0.950 . S
C1291 C1289 1.390 . S
C1291 C1292 1.387 . S
C1291 H1294 0.950 . S
C1292 C1291 1.387 . S
C1292 C1295 1.387 . S
H1293 C1289 0.950 . S
H1294 C1291 0.950 . S
C1295 C1286 1.390 . S
C1295 H1288 0.950 . S
C1295 C1292 1.387 . S
C1296 C1297 1.368 1_565 S
C1296 H1300 0.970 . S
C1296 C1305 1.390 1_565 S
C1297 C1296 1.368 1_545 S
C1297 C1299 1.387 . S
H1298 C1305 0.924 1_565 S
C1299 C1297 1.387 . S
C1299 C1301 1.390 . S
C1299 H1303 0.950 . S
H1300 C1296 0.970 . S
C1301 C1299 1.390 . S
C1301 C1302 1.387 . S
C1301 H1304 0.950 . S
C1302 C1301 1.387 . S
C1302 C1305 1.415 . S
H1303 C1299 0.950 . S
H1304 C1301 0.950 . S
C1305 C1296 1.390 1_545 S
C1305 H1298 0.924 1_545 S
C1305 C1302 1.415 . S
C1306 C1307 1.387 . S
C1306 H1310 0.950 . S
C1306 C1315 1.390 . S
C1307 C1306 1.387 . S
C1307 C1309 1.387 . S
H1308 C1315 0.950 . S
C1309 C1307 1.387 . S
C1309 C1311 1.390 . S
C1309 H1313 0.950 . S
H1310 C1306 0.950 . S
C1311 C1309 1.390 . S
C1311 C1312 1.387 . S
C1311 H1314 0.950 . S
C1312 C1311 1.387 . S
C1312 C1315 1.387 . S
H1313 C1309 0.950 . S
H1314 C1311 0.950 . S
C1315 C1306 1.390 . S
C1315 H1308 0.950 . S
C1315 C1312 1.387 . S
C1316 C1317 1.387 . S
C1316 H1320 0.950 . S
C1316 C1325 1.390 . S
C1317 C1316 1.387 . S
C1317 C1319 1.387 1_545 S
H1318 C1325 0.950 . S
C1319 C1317 1.387 1_565 S
C1319 C1321 1.390 1_565 S
C1319 H1323 0.950 . S
H1320 C1316 0.950 . S
C1321 C1319 1.390 1_545 S
C1321 C1322 1.387 . S
C1321 H1324 0.950 1_545 S
C1322 C1321 1.387 . S
C1322 C1325 1.387 . S
H1323 C1319 0.950 . S
H1324 C1321 0.950 1_565 S
C1325 C1316 1.390 . S
C1325 H1318 0.950 . S
C1325 C1322 1.387 . S
C1326 C1327 1.387 . S
C1326 H1330 0.950 . S
C1326 C1335 1.390 . S
C1327 C1326 1.387 . S
C1327 C1329 1.387 . S
H1328 C1335 0.950 . S
C1329 C1327 1.387 . S
C1329 C1331 1.390 . S
C1329 H1333 0.950 . S
H1330 C1326 0.950 . S
C1331 C1329 1.390 . S
C1331 C1332 1.387 . S
C1331 H1334 0.950 . S
C1332 C1331 1.387 . S
C1332 C1335 1.387 . S
H1333 C1329 0.950 . S
H1334 C1331 0.950 . S
C1335 C1326 1.390 . S
C1335 H1328 0.950 . S
C1335 C1332 1.387 . S
C1336 C1337 1.387 1_565 S
C1336 H1340 0.950 . S
C1336 C1345 1.374 1_565 S
C1337 C1336 1.387 1_545 S
C1337 C1339 1.387 . S
H1338 C1345 0.938 1_565 S
C1339 C1337 1.387 . S
C1339 C1341 1.390 . S
C1339 H1343 0.950 . S
H1340 C1336 0.950 . S
C1341 C1339 1.390 . S
C1341 C1342 1.387 . S
C1341 H1344 0.950 . S
C1342 C1341 1.387 . S
C1342 C1345 1.416 . S
H1343 C1339 0.950 . S
H1344 C1341 0.950 . S
C1345 C1336 1.374 1_545 S
C1345 H1338 0.938 1_545 S
C1345 C1342 1.416 . S
C1346 C1347 1.387 . S
C1346 H1350 0.950 . S
C1346 C1355 1.390 . S
C1347 C1346 1.387 . S
C1347 C1349 1.387 . S
H1348 C1355 0.950 . S
C1349 C1347 1.387 . S
C1349 C1351 1.390 . S
C1349 H1353 0.950 . S
H1350 C1346 0.950 . S
C1351 C1349 1.390 . S
C1351 C1352 1.387 . S
C1351 H1354 0.950 . S
C1352 C1351 1.387 . S
C1352 C1355 1.387 . S
H1353 C1349 0.950 . S
H1354 C1351 0.950 . S
C1355 C1346 1.390 . S
C1355 H1348 0.950 . S
C1355 C1352 1.387 . S
C1356 C1357 1.387 1_545 S
C1356 H1360 0.950 . S
C1356 C1365 1.390 . S
C1357 C1356 1.387 1_565 S
C1357 C1359 1.387 . S
H1358 C1365 0.950 . S
C1359 C1357 1.387 . S
C1359 C1361 1.390 . S
C1359 H1363 0.950 . S
H1360 C1356 0.950 . S
C1361 C1359 1.390 . S
C1361 C1362 1.387 . S
C1361 H1364 0.950 . S
C1362 C1361 1.387 . S
C1362 C1365 1.387 1_565 S
H1363 C1359 0.950 . S
H1364 C1361 0.950 . S
C1365 C1356 1.390 . S
C1365 H1358 0.950 . S
C1365 C1362 1.387 1_545 S
C1366 C1367 1.387 . S
C1366 H1370 0.950 . S
C1366 C1375 1.390 . S
C1367 C1366 1.387 . S
C1367 C1369 1.387 . S
H1368 C1375 0.950 . S
C1369 C1367 1.387 . S
C1369 C1371 1.390 . S
C1369 H1373 0.950 . S
H1370 C1366 0.950 . S
C1371 C1369 1.390 . S
C1371 C1372 1.387 . S
C1371 H1374 0.950 . S
C1372 C1371 1.387 . S
C1372 C1375 1.387 . S
H1373 C1369 0.950 . S
H1374 C1371 0.950 . S
C1375 C1366 1.390 . S
C1375 H1368 0.950 . S
C1375 C1372 1.387 . S
C1376 C1377 1.387 . S
C1376 H1380 0.950 . S
C1376 C1385 1.373 1_554 S
C1377 C1376 1.387 . S
C1377 C1379 1.387 1_554 S
H1378 C1385 0.943 1_554 S
C1379 C1377 1.387 1_556 S
C1379 C1381 1.390 . S
C1379 H1383 0.950 . S
H1380 C1376 0.950 . S
C1381 C1379 1.390 . S
C1381 C1382 1.387 . S
C1381 H1384 0.950 . S
C1382 C1381 1.387 . S
C1382 C1385 1.410 . S
H1383 C1379 0.950 . S
H1384 C1381 0.950 . S
C1385 C1376 1.373 1_556 S
C1385 H1378 0.943 1_556 S
C1385 C1382 1.410 . S
C1386 C1387 1.387 . S
C1386 H1390 0.950 . S
C1386 C1395 1.390 . S
C1387 C1386 1.387 . S
C1387 C1389 1.387 . S
H1388 C1395 0.950 . S
C1389 C1387 1.387 . S
C1389 C1391 1.390 . S
C1389 H1393 0.950 . S
H1390 C1386 0.950 . S
C1391 C1389 1.390 . S
C1391 C1392 1.387 . S
C1391 H1394 0.950 . S
C1392 C1391 1.387 . S
C1392 C1395 1.387 . S
H1393 C1389 0.950 . S
H1394 C1391 0.950 . S
C1395 C1386 1.390 . S
C1395 H1388 0.950 . S
C1395 C1392 1.387 . S
C1396 C1397 1.387 . S
C1396 H1400 0.950 . S
C1396 C1405 1.390 . S
C1397 C1396 1.387 . S
C1397 C1399 1.387 . S
H1398 C1405 0.950 . S
C1399 C1397 1.387 . S
C1399 C1401 1.390 . S
C1399 H1403 0.950 . S
H1400 C1396 0.950 . S
C1401 C1399 1.390 . S
C1401 C1402 1.387 . S
C1401 H1404 0.950 . S
C1402 C1401 1.387 . S
C1402 C1405 1.387 . S
H1403 C1399 0.950 . S
H1404 C1401 0.950 . S
C1405 C1396 1.390 . S
C1405 H1398 0.950 . S
C1405 C1402 1.387 . S
C1406 C1407 1.387 . S
C1406 H1410 0.950 . S
C1406 C1415 1.390 . S
C1407 C1406 1.387 . S
C1407 C1409 1.387 . S
H1408 C1415 0.950 . S
C1409 C1407 1.387 . S
C1409 C1411 1.390 . S
C1409 H1413 0.950 . S
H1410 C1406 0.950 . S
C1411 C1409 1.390 . S
C1411 C1412 1.387 . S
C1411 H1414 0.950 . S
C1412 C1411 1.387 . S
C1412 C1415 1.387 . S
H1413 C1409 0.950 . S
H1414 C1411 0.950 . S
C1415 C1406 1.390 . S
C1415 H1408 0.950 . S
C1415 C1412 1.387 . S
C1416 C1417 1.387 1_565 S
C1416 H1420 0.950 . S
C1416 C1425 1.390 . S
C1417 C1416 1.387 1_545 S
C1417 C1419 1.387 . S
H1418 C1425 0.950 . S
C1419 C1417 1.387 . S
C1419 C1421 1.390 . S
C1419 H1423 0.950 . S
H1420 C1416 0.950 . S
C1421 C1419 1.390 . S
C1421 C1422 1.387 . S
C1421 H1424 0.950 . S
C1422 C1421 1.387 . S
C1422 C1425 1.387 1_545 S
H1423 C1419 0.950 . S
H1424 C1421 0.950 . S
C1425 C1416 1.390 . S
C1425 H1418 0.950 . S
C1425 C1422 1.387 1_565 S
C1426 C1427 1.387 . S
C1426 H1430 0.950 . S
C1426 C1435 1.390 . S
C1427 C1426 1.387 . S
C1427 C1429 1.387 . S
H1428 C1435 0.950 . S
C1429 C1427 1.387 . S
C1429 C1431 1.390 . S
C1429 H1433 0.950 . S
H1430 C1426 0.950 . S
C1431 C1429 1.390 . S
C1431 C1432 1.387 . S
C1431 H1434 0.950 . S
C1432 C1431 1.387 . S
C1432 C1435 1.387 . S
H1433 C1429 0.950 . S
H1434 C1431 0.950 . S
C1435 C1426 1.390 . S
C1435 H1428 0.950 . S
C1435 C1432 1.387 . S
C1436 C1437 1.387 . S
C1436 H1440 0.950 . S
C1436 C1445 1.390 . S
C1437 C1436 1.387 . S
C1437 C1439 1.387 . S
H1438 C1445 0.950 . S
C1439 C1437 1.387 . S
C1439 C1441 1.390 . S
C1439 H1443 0.950 . S
H1440 C1436 0.950 . S
C1441 C1439 1.390 . S
C1441 C1442 1.387 . S
C1441 H1444 0.950 . S
C1442 C1441 1.387 . S
C1442 C1445 1.387 . S
H1443 C1439 0.950 . S
H1444 C1441 0.950 . S
C1445 C1436 1.390 . S
C1445 H1438 0.950 . S
C1445 C1442 1.387 . S
C1446 C1447 1.387 . S
C1446 H1450 0.950 . S
C1446 C1455 1.390 . S
C1447 C1446 1.387 . S
C1447 C1449 1.387 . S
H1448 C1455 0.950 . S
C1449 C1447 1.387 . S
C1449 C1451 1.390 . S
C1449 H1453 0.950 . S
H1450 C1446 0.950 . S
C1451 C1449 1.390 . S
C1451 C1452 1.387 . S
C1451 H1454 0.950 . S
C1452 C1451 1.387 . S
C1452 C1455 1.387 . S
H1453 C1449 0.950 . S
H1454 C1451 0.950 . S
C1455 C1446 1.390 . S
C1455 H1448 0.950 . S
C1455 C1452 1.387 . S
C1456 C1457 1.387 . S
C1456 H1460 0.950 . S
C1456 C1465 1.390 . S
C1457 C1456 1.387 . S
C1457 C1459 1.387 . S
H1458 C1465 0.950 . S
C1459 C1457 1.387 . S
C1459 C1461 1.390 . S
C1459 H1463 0.950 . S
H1460 C1456 0.950 . S
C1461 C1459 1.390 . S
C1461 C1462 1.387 . S
C1461 H1464 0.950 . S
C1462 C1461 1.387 . S
C1462 C1465 1.387 . S
H1463 C1459 0.950 . S
H1464 C1461 0.950 . S
C1465 C1456 1.390 . S
C1465 H1458 0.950 . S
C1465 C1462 1.387 . S
C1466 C1467 1.387 . S
C1466 H1470 0.950 . S
C1466 C1475 1.390 . S
C1467 C1466 1.387 . S
C1467 C1469 1.387 . S
H1468 C1475 0.950 . S
C1469 C1467 1.387 . S
C1469 C1471 1.390 . S
C1469 H1473 0.950 . S
H1470 C1466 0.950 . S
C1471 C1469 1.390 . S
C1471 C1472 1.387 . S
C1471 H1474 0.950 . S
C1472 C1471 1.387 . S
C1472 C1475 1.387 . S
H1473 C1469 0.950 . S
H1474 C1471 0.950 . S
C1475 C1466 1.390 . S
C1475 H1468 0.950 . S
C1475 C1472 1.387 . S
C1476 C1477 1.387 1_554 S
C1476 H1480 0.950 . S
C1476 C1485 1.390 . S
C1477 C1476 1.387 1_556 S
C1477 C1479 1.387 . S
H1478 C1485 0.950 . S
C1479 C1477 1.387 . S
C1479 C1481 1.390 . S
C1479 H1483 0.950 . S
H1480 C1476 0.950 . S
C1481 C1479 1.390 . S
C1481 C1482 1.387 1_556 S
C1481 H1484 0.950 . S
C1482 C1481 1.387 1_554 S
C1482 C1485 1.387 . S
H1483 C1479 0.950 . S
H1484 C1481 0.950 . S
C1485 C1476 1.390 . S
C1485 H1478 0.950 . S
C1485 C1482 1.387 . S
C1486 C1487 1.387 . S
C1486 H1490 0.950 . S
C1486 C1495 1.390 1_455 S
C1487 C1486 1.387 . S
C1487 C1489 1.387 . S
H1488 C1495 0.950 . S
C1489 C1487 1.387 . S
C1489 C1491 1.390 1_455 S
C1489 H1493 0.950 . S
H1490 C1486 0.950 . S
C1491 C1489 1.390 1_655 S
C1491 C1492 1.387 . S
C1491 H1494 0.950 . S
C1492 C1491 1.387 . S
C1492 C1495 1.387 . S
H1493 C1489 0.950 . S
H1494 C1491 0.950 . S
C1495 C1486 1.390 1_655 S
C1495 H1488 0.950 . S
C1495 C1492 1.387 . S
C1496 C1497 1.387 . S
C1496 H1500 0.950 . S
C1496 C1505 1.390 . S
C1497 C1496 1.387 . S
C1497 C1499 1.387 . S
H1498 C1505 0.950 . S
C1499 C1497 1.387 . S
C1499 C1501 1.390 . S
C1499 H1503 0.950 . S
H1500 C1496 0.950 . S
C1501 C1499 1.390 . S
C1501 C1502 1.387 . S
C1501 H1504 0.950 . S
C1502 C1501 1.387 . S
C1502 C1505 1.387 . S
H1503 C1499 0.950 . S
H1504 C1501 0.950 . S
C1505 C1496 1.390 . S
C1505 H1498 0.950 . S
C1505 C1502 1.387 . S
C1506 C1507 1.387 . S
C1506 H1510 0.950 . S
C1506 C1515 1.390 . S
C1507 C1506 1.387 . S
C1507 C1509 1.387 . S
H1508 C1515 0.950 . S
C1509 C1507 1.387 . S
C1509 C1511 1.390 . S
C1509 H1513 0.950 . S
H1510 C1506 0.950 . S
C1511 C1509 1.390 . S
C1511 C1512 1.387 . S
C1511 H1514 0.950 . S
C1512 C1511 1.387 . S
C1512 C1515 1.387 . S
H1513 C1509 0.950 . S
H1514 C1511 0.950 . S
C1515 C1506 1.390 . S
C1515 H1508 0.950 . S
C1515 C1512 1.387 . S
C1516 C1517 1.387 1_655 S
C1516 H1520 0.950 . S
C1516 C1525 1.390 1_655 S
C1517 C1516 1.387 1_455 S
C1517 C1519 1.387 . S
H1518 C1525 0.950 . S
C1519 C1517 1.387 . S
C1519 C1521 1.390 . S
C1519 H1523 0.950 . S
H1520 C1516 0.950 . S
C1521 C1519 1.390 . S
C1521 C1522 1.387 . S
C1521 H1524 0.950 . S
C1522 C1521 1.387 . S
C1522 C1525 1.387 . S
H1523 C1519 0.950 . S
H1524 C1521 0.950 . S
C1525 C1516 1.390 1_455 S
C1525 H1518 0.950 . S
C1525 C1522 1.387 . S
C1526 C1527 1.387 . S
C1526 H1530 0.950 . S
C1526 C1535 1.390 . S
C1527 C1526 1.387 . S
C1527 C1529 1.387 . S
H1528 C1535 0.950 . S
C1529 C1527 1.387 . S
C1529 C1531 1.390 . S
C1529 H1533 0.950 . S
H1530 C1526 0.950 . S
C1531 C1529 1.390 . S
C1531 C1532 1.387 . S
C1531 H1534 0.950 . S
C1532 C1531 1.387 . S
C1532 C1535 1.387 . S
H1533 C1529 0.950 . S
H1534 C1531 0.950 . S
C1535 C1526 1.390 . S
C1535 H1528 0.950 . S
C1535 C1532 1.387 . S
C1536 C1537 1.387 . S
C1536 H1540 0.950 . S
C1536 C1545 1.390 . S
C1537 C1536 1.387 . S
C1537 C1539 1.387 . S
H1538 C1545 0.950 . S
C1539 C1537 1.387 . S
C1539 C1541 1.390 . S
C1539 H1543 0.950 . S
H1540 C1536 0.950 . S
C1541 C1539 1.390 . S
C1541 C1542 1.387 . S
C1541 H1544 0.950 . S
C1542 C1541 1.387 . S
C1542 C1545 1.387 . S
H1543 C1539 0.950 . S
H1544 C1541 0.950 . S
C1545 C1536 1.390 . S
C1545 H1538 0.950 . S
C1545 C1542 1.387 . S
C1546 C1547 1.387 . S
C1546 H1550 0.950 . S
C1546 C1555 1.390 . S
C1547 C1546 1.387 . S
C1547 C1549 1.387 . S
H1548 C1555 0.950 . S
C1549 C1547 1.387 . S
C1549 C1551 1.390 . S
C1549 H1553 0.950 . S
H1550 C1546 0.950 . S
C1551 C1549 1.390 . S
C1551 C1552 1.387 . S
C1551 H1554 0.950 . S
C1552 C1551 1.387 . S
C1552 C1555 1.387 . S
H1553 C1549 0.950 . S
H1554 C1551 0.950 . S
C1555 C1546 1.390 . S
C1555 H1548 0.950 . S
C1555 C1552 1.387 . S
C1556 C1557 1.387 . S
C1556 H1560 0.950 . S
C1556 C1565 1.390 . S
C1557 C1556 1.387 . S
C1557 C1559 1.387 . S
H1558 C1565 0.950 . S
C1559 C1557 1.387 . S
C1559 C1561 1.390 . S
C1559 H1563 0.950 . S
H1560 C1556 0.950 . S
C1561 C1559 1.390 . S
C1561 C1562 1.387 . S
C1561 H1564 0.950 . S
C1562 C1561 1.387 . S
C1562 C1565 1.387 . S
H1563 C1559 0.950 . S
H1564 C1561 0.950 . S
C1565 C1556 1.390 . S
C1565 H1558 0.950 . S
C1565 C1562 1.387 . S
C1566 C1567 1.387 . S
C1566 H1570 0.950 . S
C1566 C1575 1.390 . S
C1567 C1566 1.387 . S
C1567 C1569 1.387 . S
H1568 C1575 0.950 . S
C1569 C1567 1.387 . S
C1569 C1571 1.390 . S
C1569 H1573 0.950 . S
H1570 C1566 0.950 . S
C1571 C1569 1.390 . S
C1571 C1572 1.387 . S
C1571 H1574 0.950 . S
C1572 C1571 1.387 . S
C1572 C1575 1.387 . S
H1573 C1569 0.950 . S
H1574 C1571 0.950 . S
C1575 C1566 1.390 . S
C1575 H1568 0.950 . S
C1575 C1572 1.387 . S
C1576 C1577 1.387 . S
C1576 H1580 0.950 . S
C1576 C1585 1.390 . S
C1577 C1576 1.387 . S
C1577 C1579 1.387 . S
H1578 C1585 0.950 . S
C1579 C1577 1.387 . S
C1579 C1581 1.390 . S
C1579 H1583 0.950 . S
H1580 C1576 0.950 . S
C1581 C1579 1.390 . S
C1581 C1582 1.387 . S
C1581 H1584 0.950 . S
C1582 C1581 1.387 . S
C1582 C1585 1.387 . S
H1583 C1579 0.950 . S
H1584 C1581 0.950 . S
C1585 C1576 1.390 . S
C1585 H1578 0.950 . S
C1585 C1582 1.387 . S
C1586 C1587 1.387 . S
C1586 H1590 0.950 . S
C1586 C1595 1.390 . S
C1587 C1586 1.387 . S
C1587 C1589 1.387 . S
H1588 C1595 0.950 . S
C1589 C1587 1.387 . S
C1589 C1591 1.390 . S
C1589 H1593 0.950 . S
H1590 C1586 0.950 . S
C1591 C1589 1.390 . S
C1591 C1592 1.387 . S
C1591 H1594 0.950 . S
C1592 C1591 1.387 . S
C1592 C1595 1.387 . S
H1593 C1589 0.950 . S
H1594 C1591 0.950 . S
C1595 C1586 1.390 . S
C1595 H1588 0.950 . S
C1595 C1592 1.387 . S
C1596 C1597 1.387 . S
C1596 H1600 0.950 . S
C1596 C1605 1.390 . S
C1597 C1596 1.387 . S
C1597 C1599 1.387 . S
H1598 C1605 0.950 . S
C1599 C1597 1.387 . S
C1599 C1601 1.390 . S
C1599 H1603 0.950 . S
H1600 C1596 0.950 . S
C1601 C1599 1.390 . S
C1601 C1602 1.387 . S
C1601 H1604 0.950 . S
C1602 C1601 1.387 . S
C1602 C1605 1.387 . S
H1603 C1599 0.950 . S
H1604 C1601 0.950 . S
C1605 C1596 1.390 . S
C1605 H1598 0.950 . S
C1605 C1602 1.387 . S
C1606 C1607 1.387 . S
C1606 H1610 0.950 . S
C1606 C1615 1.390 . S
C1607 C1606 1.387 . S
C1607 C1609 1.387 . S
H1608 C1615 0.950 . S
C1609 C1607 1.387 . S
C1609 C1611 1.390 . S
C1609 H1613 0.950 . S
H1610 C1606 0.950 . S
C1611 C1609 1.390 . S
C1611 C1612 1.387 . S
C1611 H1614 0.950 . S
C1612 C1611 1.387 . S
C1612 C1615 1.387 . S
H1613 C1609 0.950 . S
H1614 C1611 0.950 . S
C1615 C1606 1.390 . S
C1615 H1608 0.950 . S
C1615 C1612 1.387 . S
C1616 C1617 1.387 . S
C1616 H1620 0.950 . S
C1616 C1625 1.390 . S
C1617 C1616 1.387 . S
C1617 C1619 1.387 . S
H1618 C1625 0.950 . S
C1619 C1617 1.387 . S
C1619 C1621 1.390 . S
C1619 H1623 0.950 . S
H1620 C1616 0.950 . S
C1621 C1619 1.390 . S
C1621 C1622 1.387 . S
C1621 H1624 0.950 . S
C1622 C1621 1.387 . S
C1622 C1625 1.387 . S
H1623 C1619 0.950 . S
H1624 C1621 0.950 . S
C1625 C1616 1.390 . S
C1625 H1618 0.950 . S
C1625 C1622 1.387 . S
C1626 C1627 1.387 . S
C1626 H1630 0.950 . S
C1626 C1635 1.390 . S
C1627 C1626 1.387 . S
C1627 C1629 1.387 . S
H1628 C1635 0.950 . S
C1629 C1627 1.387 . S
C1629 C1631 1.390 . S
C1629 H1633 0.950 . S
H1630 C1626 0.950 . S
C1631 C1629 1.390 . S
C1631 C1632 1.387 . S
C1631 H1634 0.950 . S
C1632 C1631 1.387 . S
C1632 C1635 1.387 . S
H1633 C1629 0.950 . S
H1634 C1631 0.950 . S
C1635 C1626 1.390 . S
C1635 H1628 0.950 . S
C1635 C1632 1.387 . S
C1636 C1637 1.387 . S
C1636 H1640 0.950 . S
C1636 C1645 1.390 . S
C1637 C1636 1.387 . S
C1637 C1639 1.387 . S
H1638 C1645 0.950 . S
C1639 C1637 1.387 . S
C1639 C1641 1.390 . S
C1639 H1643 0.950 . S
H1640 C1636 0.950 . S
C1641 C1639 1.390 . S
C1641 C1642 1.387 . S
C1641 H1644 0.950 . S
C1642 C1641 1.387 . S
C1642 C1645 1.387 . S
H1643 C1639 0.950 . S
H1644 C1641 0.950 . S
C1645 C1636 1.390 . S
C1645 H1638 0.950 . S
C1645 C1642 1.387 . S
C1646 C1647 1.387 1_556 S
C1646 H1650 0.950 . S
C1646 C1655 1.390 1_565 S
C1647 C1646 1.387 1_554 S
C1647 C1649 1.391 1_565 S
H1648 C1655 0.950 . S
C1649 C1647 1.391 1_545 S
C1649 C1651 1.392 . S
C1649 H1653 0.941 1_545 S
H1650 C1646 0.950 . S
C1651 C1649 1.392 . S
C1651 C1652 1.387 . S
C1651 H1654 0.950 . S
C1652 C1651 1.387 . S
C1652 C1655 1.387 1_554 S
H1653 C1649 0.941 1_565 S
H1654 C1651 0.950 . S
C1655 C1646 1.390 1_545 S
C1655 H1648 0.950 . S
C1655 C1652 1.387 1_556 S
C1656 C1657 1.387 . S
C1656 H1660 0.950 . S
C1656 C1665 1.390 . S
C1657 C1656 1.387 . S
C1657 C1659 1.387 . S
H1658 C1665 0.950 . S
C1659 C1657 1.387 . S
C1659 C1661 1.390 . S
C1659 H1663 0.950 . S
H1660 C1656 0.950 . S
C1661 C1659 1.390 . S
C1661 C1662 1.387 . S
C1661 H1664 0.950 . S
C1662 C1661 1.387 . S
C1662 C1665 1.387 . S
H1663 C1659 0.950 . S
H1664 C1661 0.950 . S
C1665 C1656 1.390 . S
C1665 H1658 0.950 . S
C1665 C1662 1.387 . S
C1666 C1667 1.387 . S
C1666 H1670 0.950 . S
C1666 C1675 1.390 . S
C1667 C1666 1.387 . S
C1667 C1669 1.387 . S
H1668 C1675 0.950 . S
C1669 C1667 1.387 . S
C1669 C1671 1.390 . S
C1669 H1673 0.950 1_554 S
H1670 C1666 0.950 . S
C1671 C1669 1.390 . S
C1671 C1672 1.387 . S
C1671 H1674 0.950 . S
C1672 C1671 1.387 . S
C1672 C1675 1.387 . S
H1673 C1669 0.950 1_556 S
H1674 C1671 0.950 . S
C1675 C1666 1.390 . S
C1675 H1668 0.950 . S
C1675 C1672 1.387 . S
C1676 C1677 1.387 . S
C1676 H1680 0.950 . S
C1676 C1685 1.390 . S
C1677 C1676 1.387 . S
C1677 C1679 1.387 . S
H1678 C1685 0.950 . S
C1679 C1677 1.387 . S
C1679 C1681 1.390 . S
C1679 H1683 0.950 . S
H1680 C1676 0.950 . S
C1681 C1679 1.390 . S
C1681 C1682 1.387 . S
C1681 H1684 0.950 . S
C1682 C1681 1.387 . S
C1682 C1685 1.387 . S
H1683 C1679 0.950 . S
H1684 C1681 0.950 . S
C1685 C1676 1.390 . S
C1685 H1678 0.950 . S
C1685 C1682 1.387 . S
C1686 C1687 1.387 . S
C1686 H1690 0.950 . S
C1686 C1695 1.390 . S
C1687 C1686 1.387 . S
C1687 C1689 1.387 . S
H1688 C1695 0.950 . S
C1689 C1687 1.387 . S
C1689 C1691 1.390 . S
C1689 H1693 0.950 . S
H1690 C1686 0.950 . S
C1691 C1689 1.390 . S
C1691 C1692 1.387 . S
C1691 H1694 0.950 . S
C1692 C1691 1.387 . S
C1692 C1695 1.387 . S
H1693 C1689 0.950 . S
H1694 C1691 0.950 . S
C1695 C1686 1.390 . S
C1695 H1688 0.950 . S
C1695 C1692 1.387 . S
C1696 C1697 1.387 . S
C1696 H1700 0.950 . S
C1696 C1705 1.390 . S
C1697 C1696 1.387 . S
C1697 C1699 1.387 . S
H1698 C1705 0.950 . S
C1699 C1697 1.387 . S
C1699 C1701 1.390 . S
C1699 H1703 0.950 . S
H1700 C1696 0.950 . S
C1701 C1699 1.390 . S
C1701 C1702 1.387 . S
C1701 H1704 0.950 . S
C1702 C1701 1.387 . S
C1702 C1705 1.387 . S
H1703 C1699 0.950 . S
H1704 C1701 0.950 . S
C1705 C1696 1.390 . S
C1705 H1698 0.950 . S
C1705 C1702 1.387 . S
C1706 C1707 1.387 . S
C1706 H1710 0.950 . S
C1706 C1715 1.390 . S
C1707 C1706 1.387 . S
C1707 C1709 1.387 . S
H1708 C1715 0.950 . S
C1709 C1707 1.387 . S
C1709 C1711 1.390 . S
C1709 H1713 0.950 . S
H1710 C1706 0.950 . S
C1711 C1709 1.390 . S
C1711 C1712 1.387 . S
C1711 H1714 0.950 . S
C1712 C1711 1.387 . S
C1712 C1715 1.387 . S
H1713 C1709 0.950 . S
H1714 C1711 0.950 . S
C1715 C1706 1.390 . S
C1715 H1708 0.950 . S
C1715 C1712 1.387 . S
C1716 C1717 1.387 . S
C1716 H1720 0.950 . S
C1716 C1725 1.390 . S
C1717 C1716 1.387 . S
C1717 C1719 1.387 . S
H1718 C1725 0.950 . S
C1719 C1717 1.387 . S
C1719 C1721 1.390 . S
C1719 H1723 0.950 . S
H1720 C1716 0.950 . S
C1721 C1719 1.390 . S
C1721 C1722 1.387 . S
C1721 H1724 0.950 . S
C1722 C1721 1.387 . S
C1722 C1725 1.387 . S
H1723 C1719 0.950 . S
H1724 C1721 0.950 . S
C1725 C1716 1.390 . S
C1725 H1718 0.950 . S
C1725 C1722 1.387 . S
C1726 C1727 1.387 . S
C1726 H1730 0.950 . S
C1726 C1735 1.390 . S
C1727 C1726 1.387 . S
C1727 C1729 1.387 . S
H1728 C1735 0.950 . S
C1729 C1727 1.387 . S
C1729 C1731 1.390 . S
C1729 H1733 0.950 . S
H1730 C1726 0.950 . S
C1731 C1729 1.390 . S
C1731 C1732 1.387 . S
C1731 H1734 0.950 . S
C1732 C1731 1.387 . S
C1732 C1735 1.387 . S
H1733 C1729 0.950 . S
H1734 C1731 0.950 . S
C1735 C1726 1.390 . S
C1735 H1728 0.950 . S
C1735 C1732 1.387 . S
C1736 C1737 1.387 . S
C1736 H1740 0.950 . S
C1736 C1745 1.390 . S
C1737 C1736 1.387 . S
C1737 C1739 1.387 . S
H1738 C1745 0.950 . S
C1739 C1737 1.387 . S
C1739 C1741 1.390 . S
C1739 H1743 0.950 . S
H1740 C1736 0.950 . S
C1741 C1739 1.390 . S
C1741 C1742 1.387 . S
C1741 H1744 0.950 . S
C1742 C1741 1.387 . S
C1742 C1745 1.387 . S
H1743 C1739 0.950 . S
H1744 C1741 0.950 . S
C1745 C1736 1.390 . S
C1745 H1738 0.950 . S
C1745 C1742 1.387 . S
C1746 C1747 1.387 . S
C1746 H1750 0.950 . S
C1746 C1755 1.390 . S
C1747 C1746 1.387 . S
C1747 C1749 1.387 . S
H1748 C1755 0.950 . S
C1749 C1747 1.387 . S
C1749 C1751 1.390 . S
C1749 H1753 0.950 . S
H1750 C1746 0.950 . S
C1751 C1749 1.390 . S
C1751 C1752 1.387 . S
C1751 H1754 0.950 . S
C1752 C1751 1.387 . S
C1752 C1755 1.387 . S
H1753 C1749 0.950 . S
H1754 C1751 0.950 . S
C1755 C1746 1.390 . S
C1755 H1748 0.950 . S
C1755 C1752 1.387 . S
C1756 C1757 1.387 . S
C1756 H1760 0.950 . S
C1756 C1765 1.390 . S
C1757 C1756 1.387 . S
C1757 C1759 1.387 . S
H1758 C1765 0.950 . S
C1759 C1757 1.387 . S
C1759 C1761 1.390 . S
C1759 H1763 0.950 . S
H1760 C1756 0.950 . S
C1761 C1759 1.390 . S
C1761 C1762 1.387 . S
C1761 H1764 0.950 . S
C1762 C1761 1.387 . S
C1762 C1765 1.387 . S
H1763 C1759 0.950 . S
H1764 C1761 0.950 . S
C1765 C1756 1.390 . S
C1765 H1758 0.950 . S
C1765 C1762 1.387 . S
C1766 C1767 1.387 . S
C1766 H1770 0.950 . S
C1766 C1775 1.390 . S
C1767 C1766 1.387 . S
C1767 C1769 1.387 . S
H1768 C1775 0.950 . S
C1769 C1767 1.387 . S
C1769 C1771 1.390 . S
C1769 H1773 0.950 . S
H1770 C1766 0.950 . S
C1771 C1769 1.390 . S
C1771 C1772 1.387 . S
C1771 H1774 0.950 . S
C1772 C1771 1.387 . S
C1772 C1775 1.387 . S
H1773 C1769 0.950 . S
H1774 C1771 0.950 . S
C1775 C1766 1.390 . S
C1775 H1768 0.950 . S
C1775 C1772 1.387 . S
C1776 C1777 1.387 . S
C1776 H1780 0.950 . S
C1776 C1785 1.390 . S
C1777 C1776 1.387 . S
C1777 C1779 1.387 . S
H1778 C1785 0.950 . S
C1779 C1777 1.387 . S
C1779 C1781 1.390 . S
C1779 H1783 0.950 . S
H1780 C1776 0.950 . S
C1781 C1779 1.390 . S
C1781 C1782 1.387 . S
C1781 H1784 0.950 . S
C1782 C1781 1.387 . S
C1782 C1785 1.387 . S
H1783 C1779 0.950 . S
H1784 C1781 0.950 . S
C1785 C1776 1.390 . S
C1785 H1778 0.950 . S
C1785 C1782 1.387 . S
C1786 C1787 1.387 . S
C1786 H1790 0.950 . S
C1786 C1795 1.390 . S
C1787 C1786 1.387 . S
C1787 C1789 1.387 . S
H1788 C1795 0.950 . S
C1789 C1787 1.387 . S
C1789 C1791 1.390 . S
C1789 H1793 0.950 . S
H1790 C1786 0.950 . S
C1791 C1789 1.390 . S
C1791 C1792 1.387 . S
C1791 H1794 0.950 . S
C1792 C1791 1.387 . S
C1792 C1795 1.387 . S
H1793 C1789 0.950 . S
H1794 C1791 0.950 . S
C1795 C1786 1.390 . S
C1795 H1788 0.950 . S
C1795 C1792 1.387 . S
C1796 C1797 1.387 . S
C1796 H1800 0.950 . S
C1796 C1805 1.390 1_655 S
C1797 C1796 1.387 . S
C1797 C1799 1.387 . S
H1798 C1805 0.950 . S
C1799 C1797 1.387 . S
C1799 C1801 1.391 1_655 S
C1799 H1803 0.949 . S
H1800 C1796 0.950 . S
C1801 C1799 1.391 1_455 S
C1801 C1802 1.387 . S
C1801 H1804 0.950 . S
C1802 C1801 1.387 . S
C1802 C1805 1.387 . S
H1803 C1799 0.949 . S
H1804 C1801 0.950 . S
C1805 C1796 1.390 1_455 S
C1805 H1798 0.950 . S
C1805 C1802 1.387 . S
C1806 C1807 1.387 . S
C1806 H1810 0.950 . S
C1806 C1815 1.390 . S
C1807 C1806 1.387 . S
C1807 C1809 1.387 . S
H1808 C1815 0.950 . S
C1809 C1807 1.387 . S
C1809 C1811 1.390 . S
C1809 H1813 0.950 . S
H1810 C1806 0.950 . S
C1811 C1809 1.390 . S
C1811 C1812 1.387 . S
C1811 H1814 0.950 . S
C1812 C1811 1.387 . S
C1812 C1815 1.387 . S
H1813 C1809 0.950 . S
H1814 C1811 0.950 . S
C1815 C1806 1.390 . S
C1815 H1808 0.950 . S
C1815 C1812 1.387 . S
C1816 C1817 1.387 . S
C1816 H1820 0.950 . S
C1816 C1825 1.390 . S
C1817 C1816 1.387 . S
C1817 C1819 1.387 . S
H1818 C1825 0.950 . S
C1819 C1817 1.387 . S
C1819 C1821 1.390 . S
C1819 H1823 0.950 . S
H1820 C1816 0.950 . S
C1821 C1819 1.390 . S
C1821 C1822 1.387 . S
C1821 H1824 0.950 . S
C1822 C1821 1.387 . S
C1822 C1825 1.387 . S
H1823 C1819 0.950 . S
H1824 C1821 0.950 . S
C1825 C1816 1.390 . S
C1825 H1818 0.950 . S
C1825 C1822 1.387 . S
C1826 C1827 1.387 . S
C1826 H1830 0.950 . S
C1826 C1835 1.390 . S
C1827 C1826 1.387 . S
C1827 C1829 1.387 . S
H1828 C1835 0.950 . S
C1829 C1827 1.387 . S
C1829 C1831 1.390 . S
C1829 H1833 0.950 . S
H1830 C1826 0.950 . S
C1831 C1829 1.390 . S
C1831 C1832 1.387 . S
C1831 H1834 0.950 . S
C1832 C1831 1.387 . S
C1832 C1835 1.387 . S
H1833 C1829 0.950 . S
H1834 C1831 0.950 . S
C1835 C1826 1.390 . S
C1835 H1828 0.950 . S
C1835 C1832 1.387 . S
C1836 C1837 1.387 . S
C1836 H1840 0.950 . S
C1836 C1845 1.390 . S
C1837 C1836 1.387 . S
C1837 C1839 1.387 . S
H1838 C1845 0.950 . S
C1839 C1837 1.387 . S
C1839 C1841 1.390 . S
C1839 H1843 0.950 . S
H1840 C1836 0.950 . S
C1841 C1839 1.390 . S
C1841 C1842 1.387 . S
C1841 H1844 0.950 1_655 S
C1842 C1841 1.387 . S
C1842 C1845 1.387 . S
H1843 C1839 0.950 . S
H1844 C1841 0.950 1_455 S
C1845 C1836 1.390 . S
C1845 H1838 0.950 . S
C1845 C1842 1.387 . S
C1846 C1847 1.387 . S
C1846 H1850 0.950 . S
C1846 C1855 1.390 . S
C1847 C1846 1.387 . S
C1847 C1849 1.387 . S
H1848 C1855 0.950 . S
C1849 C1847 1.387 . S
C1849 C1851 1.390 . S
C1849 H1853 0.950 . S
H1850 C1846 0.950 . S
C1851 C1849 1.390 . S
C1851 C1852 1.387 . S
C1851 H1854 0.950 . S
C1852 C1851 1.387 . S
C1852 C1855 1.387 . S
H1853 C1849 0.950 . S
H1854 C1851 0.950 . S
C1855 C1846 1.390 . S
C1855 H1848 0.950 . S
C1855 C1852 1.387 . S
C1856 C1857 1.387 . S
C1856 H1860 0.950 . S
C1856 C1865 1.390 . S
C1857 C1856 1.387 . S
C1857 C1859 1.387 . S
H1858 C1865 0.950 . S
C1859 C1857 1.387 . S
C1859 C1861 1.390 . S
C1859 H1863 0.950 . S
H1860 C1856 0.950 . S
C1861 C1859 1.390 . S
C1861 C1862 1.387 . S
C1861 H1864 0.950 . S
C1862 C1861 1.387 . S
C1862 C1865 1.387 . S
H1863 C1859 0.950 . S
H1864 C1861 0.950 . S
C1865 C1856 1.390 . S
C1865 H1858 0.950 . S
C1865 C1862 1.387 . S
C1866 C1867 1.387 . S
C1866 H1870 0.950 . S
C1866 C1875 1.390 . S
C1867 C1866 1.387 . S
C1867 C1869 1.387 . S
H1868 C1875 0.950 1_545 S
C1869 C1867 1.387 . S
C1869 C1871 1.390 . S
C1869 H1873 0.950 . S
H1870 C1866 0.950 . S
C1871 C1869 1.390 . S
C1871 C1872 1.390 . S
C1871 H1874 0.950 . S
C1872 C1871 1.390 . S
C1872 C1875 1.391 . S
H1873 C1869 0.950 . S
H1874 C1871 0.950 . S
C1875 C1866 1.390 . S
C1875 H1868 0.950 1_565 S
C1875 C1872 1.391 . S
C1876 C1877 1.387 . S
C1876 H1880 0.950 . S
C1876 C1885 1.390 . S
C1877 C1876 1.387 . S
C1877 C1879 1.387 . S
H1878 C1885 0.950 . S
C1879 C1877 1.387 . S
C1879 C1881 1.390 . S
C1879 H1883 0.950 . S
H1880 C1876 0.950 . S
C1881 C1879 1.390 . S
C1881 C1882 1.387 . S
C1881 H1884 0.950 . S
C1882 C1881 1.387 . S
C1882 C1885 1.387 . S
H1883 C1879 0.950 . S
H1884 C1881 0.950 . S
C1885 C1876 1.390 . S
C1885 H1878 0.950 . S
C1885 C1882 1.387 . S
C1886 C1887 1.387 1_556 S
C1886 H1890 0.950 . S
C1886 C1895 1.390 . S
C1887 C1886 1.387 1_554 S
C1887 C1889 1.387 . S
H1888 C1895 0.950 . S
C1889 C1887 1.387 . S
C1889 C1891 1.390 . S
C1889 H1893 0.950 . S
H1890 C1886 0.950 . S
C1891 C1889 1.390 . S
C1891 C1892 1.387 . S
C1891 H1894 0.950 . S
C1892 C1891 1.387 . S
C1892 C1895 1.387 1_554 S
H1893 C1889 0.950 . S
H1894 C1891 0.950 . S
C1895 C1886 1.390 . S
C1895 H1888 0.950 . S
C1895 C1892 1.387 1_556 S
C1896 C1897 1.387 . S
C1896 H1900 0.950 . S
C1896 C1905 1.390 . S
C1897 C1896 1.387 . S
C1897 C1899 1.387 . S
H1898 C1905 0.950 . S
C1899 C1897 1.387 . S
C1899 C1901 1.390 . S
C1899 H1903 0.950 . S
H1900 C1896 0.950 . S
C1901 C1899 1.390 . S
C1901 C1902 1.387 . S
C1901 H1904 0.950 . S
C1902 C1901 1.387 . S
C1902 C1905 1.387 . S
H1903 C1899 0.950 . S
H1904 C1901 0.950 . S
C1905 C1896 1.390 . S
C1905 H1898 0.950 . S
C1905 C1902 1.387 . S
C1906 C1907 1.387 1_556 S
C1906 H1910 0.950 . S
C1906 C1915 1.390 . S
C1907 C1906 1.387 1_554 S
C1907 C1909 1.387 . S
H1908 C1915 0.950 . S
C1909 C1907 1.387 . S
C1909 C1911 1.390 . S
C1909 H1913 0.950 . S
H1910 C1906 0.950 . S
C1911 C1909 1.390 . S
C1911 C1912 1.387 1_554 S
C1911 H1914 0.950 . S
C1912 C1911 1.387 1_556 S
C1912 C1915 1.387 . S
H1913 C1909 0.950 . S
H1914 C1911 0.950 . S
C1915 C1906 1.390 . S
C1915 H1908 0.950 . S
C1915 C1912 1.387 . S
C1916 C1917 1.387 . S
C1916 H1920 0.950 . S
C1916 C1925 1.390 . S
C1917 C1916 1.387 . S
C1917 C1919 1.387 . S
H1918 C1925 0.950 . S
C1919 C1917 1.387 . S
C1919 C1921 1.390 . S
C1919 H1923 0.950 . S
H1920 C1916 0.950 . S
C1921 C1919 1.390 . S
C1921 C1922 1.387 . S
C1921 H1924 0.950 . S
C1922 C1921 1.387 . S
C1922 C1925 1.387 . S
H1923 C1919 0.950 . S
H1924 C1921 0.950 . S
C1925 C1916 1.390 . S
C1925 H1918 0.950 . S
C1925 C1922 1.387 . S
C1926 C1927 1.387 . S
C1926 H1930 0.950 . S
C1926 C1935 1.390 . S
C1927 C1926 1.387 . S
C1927 C1929 1.387 . S
H1928 C1935 0.950 . S
C1929 C1927 1.387 . S
C1929 C1931 1.390 . S
C1929 H1933 0.950 . S
H1930 C1926 0.950 . S
C1931 C1929 1.390 . S
C1931 C1932 1.387 . S
C1931 H1934 0.950 . S
C1932 C1931 1.387 . S
C1932 C1935 1.387 . S
H1933 C1929 0.950 . S
H1934 C1931 0.950 . S
C1935 C1926 1.390 . S
C1935 H1928 0.950 . S
C1935 C1932 1.387 . S
C977 C105 2.405 . S
C982 C338 2.367 1_556 S
C987 C65 2.258 . S
C992 C395 2.276 . S
C997 C73 1.425 . S
C1002 C418 1.392 . S
C1012 C472 1.395 . S
C1007 C92 1.435 . S
C1017 C17 1.714 . S
C1022 C512 1.613 . S
C1032 C543 0.827 . S
C1027 C37 0.847 . S
C1042 C595 1.680 . S
C1037 C49 1.381 . S
C1047 C8 2.052 . S
C1052 C618 1.975 . S
C1062 C355 2.560 . S
C1057 C231 2.482 1_455 S
C1067 C241 0.913 . S
C1072 C392 0.871 . S
C1082 C435 1.302 . S
C1077 C273 1.240 . S
C1092 C458 1.509 . S
C1087 C171 1.516 . S
C1097 C227 2.067 1_455 S
C1102 C498 2.044 . S
C1112 C546 1.508 . S
C1107 C245 1.450 . S
C1122 C592 0.653 . S
C1117 C269 0.620 . S
C1132 C635 2.206 . S
C1127 C175 2.217 . S
C1142 C352 1.681 . S
C1137 C162 1.777 . S
C1147 C289 2.018 . S
C1152 C675 2.028 . S
C1162 C707 2.667 . S
C1157 C330 2.705 . S
C1172 C738 0.761 1_655 S
C1167 C317 0.758 . S
C1177 C120 1.912 . S
C1182 C632 1.826 . S
C1187 C134 1.727 . S
C1192 C432 1.665 . S
C1197 C331 2.233 . S
C1202 C795 2.233 . S
C1212 C818 0.792 . S
C1207 C303 0.815 . S
C1222 C347 2.376 . S
C1217 C59 2.376 . S
C1232 C826 2.297 . S
C1227 C107 2.270 . S
C1237 C91 1.470 . S
C1242 C427 1.441 . S
C1247 C78 1.437 . S
C1252 C783 1.415 . S
C1262 C503 1.610 . S
C1257 C7 1.530 . S
C1267 C51 0.840 . S
C1272 C712 0.829 . S
C1282 C586 1.717 . S
C1277 C31 1.631 . S
C1292 C867 1.965 . S
C1287 C22 2.002 . S
C1302 C346 2.575 . S
C1297 C143 2.576 . S
C1312 C823 0.860 . S
C1307 C315 0.854 . S
C1317 C115 1.316 . S
C1322 C426 1.323 . S
C1327 C287 1.552 . S
C1332 C787 1.546 . S
C1337 C147 1.966 . S
C1342 C507 2.073 . S
C1352 C715 1.505 . S
C1347 C311 1.511 . S
C1357 C119 0.650 . S
C1362 C583 0.651 . S
C1367 C283 2.221 . S
C1372 C866 2.216 . S
C1377 C190 1.741 . S
C1382 C343 1.689 . S
C1387 C177 2.029 . S
C1392 C666 2.047 . S
C1397 C260 2.718 . S
C1402 C538 2.682 . S
C1407 C247 0.824 . S
C1412 C747 0.836 . S
C1422 C863 1.793 1_545 S
C1417 C274 1.818 . S
C1427 C218 1.684 . S
C1432 C423 1.658 . S
C1442 C466 2.256 . S
C1437 C261 2.251 . S
C1452 C387 0.783 . S
C1447 C205 0.796 . S
C1457 C77 2.405 . S
C1462 C898 2.368 . S
C1472 C835 2.275 . S
C1467 C93 2.259 . S
C1477 C101 1.425 . S
C1482 C938 1.394 . S
C1487 C64 1.435 . S
C1492 C792 1.394 . S
C1497 C45 1.711 . S
C1502 C672 1.608 . S
C1512 C703 0.833 1_455 S
C1507 C9 0.848 . S
C1522 C755 1.680 . S
C1517 C21 1.382 1_455 S
C1532 C858 1.973 . S
C1527 C36 2.050 . S
C1542 C915 2.560 . S
C1537 C259 2.481 . S
C1547 C185 0.913 . S
C1552 C832 0.871 . S
C1562 C955 1.303 . S
C1557 C203 1.240 . S
C1572 C778 1.509 . S
C1567 C213 1.517 . S
C1582 C658 2.044 . S
C1577 C255 2.067 . S
C1587 C189 1.450 . S
C1592 C706 1.507 . S
C1602 C752 0.657 . S
C1597 C199 0.622 . S
C1607 C217 2.217 . S
C1612 C875 2.206 . S
C1622 C912 1.684 . S
C1617 C316 1.783 . S
C1627 C135 2.017 . S
C1632 C515 2.027 . S
C1642 C547 2.667 . S
C1637 C148 2.706 . S
C1652 C578 0.761 . S
C1647 C163 0.757 . S
C1662 C872 1.827 . S
C1657 C302 1.910 . S
C1667 C288 1.727 . S
C1672 C952 1.665 . S
C1682 C475 2.232 . S
C1677 C149 2.233 . S
C1692 C378 0.784 . S
C1687 C121 0.813 . S
C1697 C87 2.378 . S
C1702 C907 2.376 . S
C1712 C386 2.297 . S
C1707 C79 2.270 . S
C1717 C63 1.470 . S
C1722 C947 1.440 . S
C1727 C106 1.440 . S
C1732 C463 1.417 . S
C1737 C35 1.526 . S
C1742 C663 1.606 . S
C1752 C552 0.829 . S
C1747 C23 0.840 . S
C1757 C3 1.635 . S
C1762 C746 1.720 . S
C1767 C50 2.004 . S
C1772 C627 1.967 . S
C1782 C906 2.575 . S
C1777 C325 2.576 . S
C1787 C161 0.848 . S
C1792 C383 0.850 . S
C1802 C946 1.322 . S
C1797 C297 1.317 . S
C1807 C133 1.552 . S
C1812 C467 1.546 . S
C1817 C329 1.966 . S
C1822 C667 2.071 . S
C1832 C555 1.506 . S
C1827 C157 1.516 . S
C1837 C301 0.648 . S
C1842 C743 0.651 . S
C1852 C626 2.215 . S
C1847 C129 2.220 . S
C1862 C903 1.686 . S
C1857 C246 1.739 . S
C1872 C506 2.042 1_665 S
C1867 C219 2.029 . S
C1877 C232 2.717 . S
C1882 C698 2.682 . S
C1892 C587 0.836 . S
C1887 C191 0.824 . S
C1897 C204 1.819 . S
C1902 C623 1.794 . S
C1907 C176 1.684 . S
C1912 C943 1.660 . S
C1922 C786 2.257 . S
C1917 C233 2.251 1_565 S
C1932 C827 0.775 . S
C1927 C275 0.792 . S
