# Generated by pormake.
# Topology pth, (4,4)-cn, num edge types: 1
# Building blocks:
#     Node 0, Type 0, BuildingBlock: AZAVOO_clean_sbu_0, # of connection points: 4
#     Node 1, Type 0, BuildingBlock: AZAVOO_clean_sbu_0, # of connection points: 4
#     Node 2, Type 0, BuildingBlock: AZAVOO_clean_sbu_0, # of connection points: 4
#     Node 3, Type 1, BuildingBlock: NAWXER_clean_sbu_0, # of connection points: 4
#     Node 4, Type 1, BuildingBlock: NAWXER_clean_sbu_0, # of connection points: 4
#     Node 5, Type 1, BuildingBlock: NAWXER_clean_sbu_0, # of connection points: 4
#     Edge 6, Type (0, 1), BuildingBlock: CIFDUS_clean_linker_0, # of connection points: 2
#     Edge 7, Type (0, 1), BuildingBlock: CIFDUS_clean_linker_0, # of connection points: 2
#     Edge 8, Type (0, 1), BuildingBlock: CIFDUS_clean_linker_0, # of connection points: 2
#     Edge 9, Type (0, 1), BuildingBlock: CIFDUS_clean_linker_0, # of connection points: 2
#     Edge 10, Type (0, 1), BuildingBlock: CIFDUS_clean_linker_0, # of connection points: 2
#     Edge 11, Type (0, 1), BuildingBlock: CIFDUS_clean_linker_0, # of connection points: 2
#     Edge 12, Type (0, 1), BuildingBlock: CIFDUS_clean_linker_0, # of connection points: 2
#     Edge 13, Type (0, 1), BuildingBlock: CIFDUS_clean_linker_0, # of connection points: 2
#     Edge 14, Type (0, 1), BuildingBlock: CIFDUS_clean_linker_0, # of connection points: 2
#     Edge 15, Type (0, 1), BuildingBlock: CIFDUS_clean_linker_0, # of connection points: 2
#     Edge 16, Type (0, 1), BuildingBlock: CIFDUS_clean_linker_0, # of connection points: 2
#     Edge 17, Type (0, 1), BuildingBlock: CIFDUS_clean_linker_0, # of connection points: 2
# Relax obj value: 0.079
# Max RMSD: 0.221
# Mean RMSD: 0.117
data_MOF--net-pth--node1-AZAVOO_clean_sbu_0--node2-NAWXER_clean_sbu_0--edge1-CIFDUS_clean_linker_0
_symmetry_space_group_name_H-M    P1
_symmetry_Int_Tables_number       1
_symmetry_cell_setting            triclinic
loop_
_symmetry_equiv_pos_as_xyz
'x, y, z'
_cell_length_a     19.7555
_cell_length_b     20.238705
_cell_length_c     50.52548
_cell_angle_alpha  91.269877
_cell_angle_beta   93.315633
_cell_angle_gamma 122.36508
loop_
_atom_site_label
_atom_site_type_symbol
_atom_site_fract_x
_atom_site_fract_y
_atom_site_fract_z
_atom_type_partial_charge
Mg0 Mg 0.15213 0.09542 0.05568 0.0
O1 O 0.03049 0.02744 0.03103 0.0
O2 O 0.0185 0.11169 0.00646 0.0
Mg3 Mg 0.13846 0.23153 0.01211 0.0
C4 C 0.99049 0.04269 0.01428 0.0
C5 C 0.05173 0.92849 0.08328 0.0
O6 O 1.00089 0.90256 0.06203 0.0
O7 O 0.11093 0.15931 0.08177 0.0
O8 O 0.12186 0.25165 0.05543 0.0
O9 O 0.21312 0.07137 0.02349 0.0
O10 O 0.19791 0.17161 0.02582 0.0
C11 C 0.11097 0.22157 0.07795 0.0
C12 C 0.22205 0.13334 0.01322 0.0
O13 O 0.11279 0.99852 0.08495 0.0
Mg14 Mg 0.96081 0.02098 0.38231 0.0
O15 O 0.0753 0.05822 0.40876 0.0
O16 O 0.11718 0.17328 0.42987 0.0
Mg17 Mg 0.02514 0.20632 0.41937 0.0
C18 C 0.12521 0.11592 0.42477 0.0
C19 C 0.93055 0.86291 0.35584 0.0
O20 O 0.86122 0.83351 0.36617 0.0
O21 O 0.02475 0.11453 0.35259 0.0
O22 O 0.05395 0.22327 0.37598 0.0
O23 O 0.8851 0.96018 0.41629 0.0
O24 O 0.93175 0.08282 0.40777 0.0
C25 C 0.05193 0.1878 0.35447 0.0
C26 C 0.89156 0.02591 0.42251 0.0
O27 O 0.98205 0.93608 0.35915 0.0
Mg28 Mg 0.03408 0.99746 0.71506 0.0
O29 O 0.10876 0.10738 0.7426 0.0
O30 O 0.02956 0.12221 0.76837 0.0
Mg31 Mg 0.902 0.01195 0.75976 0.0
C32 C 0.09892 0.14586 0.76059 0.0
C33 C 0.20613 0.05515 0.69939 0.0
O34 O 0.21001 0.03619 0.72388 0.0
O35 O 0.97662 0.05138 0.69026 0.0
O36 O 0.88535 0.04021 0.71726 0.0
O37 O 0.04728 0.92285 0.74543 0.0
O38 O 0.94983 0.94514 0.74281 0.0
C39 C 0.9151 0.05416 0.69477 0.0
C40 C 0.98221 0.9119 0.75444 0.0
O41 O 0.1405 0.04514 0.68937 0.0
C42 C 0.0701 0.65342 0.25681 0.0
C43 C 0.11723 0.51649 0.18579 0.0
O44 O 0.13851 0.67257 0.24934 0.0
Zn45 Zn 0.10004 0.59003 0.22115 0.0
O46 O 1.0062 0.59394 0.24519 0.0
Zn47 Zn 0.9709 0.50664 0.21384 0.0
O48 O 0.92129 0.41001 0.23248 0.0
O49 O 0.05242 0.48691 0.24237 0.0
O50 O 0.0434 0.48683 0.18989 0.0
O51 O 0.17183 0.57929 0.19879 0.0
O52 O 0.04059 0.62272 0.19367 0.0
O53 O 0.91138 0.53107 0.18738 0.0
C54 C 0.98554 0.42281 0.24502 0.0
C55 C 0.97089 0.59777 0.18226 0.0
C56 C 0.59021 0.02309 0.58605 0.0
C57 C 0.41504 0.03825 0.51665 0.0
O58 O 0.52373 0.965 0.57557 0.0
Zn59 Zn 0.49927 0.02464 0.55154 0.0
O60 O 0.61506 0.09248 0.57911 0.0
Zn61 Zn 0.57958 0.15118 0.55257 0.0
O62 O 0.56128 0.21556 0.5771 0.0
O63 O 0.47575 0.08803 0.57936 0.0
O64 O 0.47756 0.1043 0.52499 0.0
O65 O 0.40358 0.9758 0.52631 0.0
O66 O 0.59574 0.06601 0.52693 0.0
O67 O 0.66837 0.19549 0.52977 0.0
C68 C 0.50199 0.15866 0.58739 0.0
C69 C 0.65615 0.13065 0.52041 0.0
C70 C 0.52697 0.42173 0.91735 0.0
C71 C 0.68318 0.62539 0.85722 0.0
O72 O 0.50581 0.47133 0.91511 0.0
Zn73 Zn 0.54072 0.5761 0.89532 0.0
O74 O 0.58702 0.43164 0.90584 0.0
Zn75 Zn 0.60869 0.52471 0.88821 0.0
O76 O 0.65818 0.61307 0.92031 0.0
O77 O 0.57862 0.65782 0.92347 0.0
O78 O 0.69293 0.57059 0.86382 0.0
O79 O 0.62889 0.63191 0.86737 0.0
O80 O 0.44194 0.54337 0.87433 0.0
O81 O 0.49926 0.48004 0.86241 0.0
C82 C 0.64177 0.65972 0.93154 0.0
C83 C 0.44129 0.49147 0.85945 0.0
H84 H 0.19582 0.37837 0.08798 0.0
H85 H 0.0165 0.16165 0.11924 0.0
H86 H 1.00654 0.23506 0.15645 0.0
H87 H 0.04456 0.36073 0.17867 0.0
H88 H 0.22962 0.57758 0.1492 0.0
H89 H 0.24317 0.50416 0.11272 0.0
C90 C 0.15443 0.34737 0.10295 0.0
C91 C 0.10564 0.26491 0.10072 0.0
C92 C 0.1508 0.38987 0.12455 0.0
C93 C 0.05392 0.22509 0.12051 0.0
C94 C 0.04838 0.26701 0.14172 0.0
C95 C 0.08848 0.39181 0.16437 0.0
C96 C 0.13567 0.47426 0.16633 0.0
C97 C 0.09598 0.34931 0.14376 0.0
C98 C 0.19307 0.51411 0.14805 0.0
C99 C 0.20021 0.47217 0.12714 0.0
H100 H 0.89429 0.15685 0.4376 0.0
H101 H 0.79571 0.91656 0.4566 0.0
H102 H 0.71631 0.92958 0.48933 0.0
H103 H 0.66937 0.00658 0.51032 0.0
H104 H 0.76849 0.24705 0.49151 0.0
H105 H 0.85457 0.23672 0.46085 0.0
C106 C 0.85668 0.10754 0.44918 0.0
C107 C 0.85108 0.0357 0.44463 0.0
C108 C 0.81096 0.11535 0.46774 0.0
C109 C 0.80125 0.97244 0.45972 0.0
C110 C 0.75562 0.9798 0.47834 0.0
C111 C 0.70979 0.05691 0.49953 0.0
C112 C 0.71173 0.12727 0.50286 0.0
C113 C 0.75896 0.05052 0.48211 0.0
C114 C 0.76558 0.19223 0.48916 0.0
C115 C 0.81464 0.18625 0.47164 0.0
H116 H 0.8454 0.88054 0.77438 0.0
H117 H 0.02678 0.82367 0.78259 0.0
H118 H 0.94988 0.72823 0.8152 0.0
H119 H 0.82759 0.65837 0.84033 0.0
H120 H 0.65037 0.72105 0.83094 0.0
H121 H 0.72973 0.81715 0.79978 0.0
C122 C 0.86943 0.84864 0.78353 0.0
C123 C 0.94222 0.85992 0.77616 0.0
C124 C 0.82503 0.79418 0.8019 0.0
C125 C 0.97111 0.81655 0.78804 0.0
C126 C 0.92692 0.7617 0.80656 0.0
C127 C 0.80648 0.693 0.83137 0.0
C128 C 0.73291 0.6822 0.83793 0.0
C129 C 0.85314 0.74937 0.81343 0.0
C130 C 0.70667 0.72804 0.82635 0.0
C131 C 0.75203 0.78318 0.80849 0.0
H132 H 0.93392 0.77297 0.08587 0.0
H133 H 0.14299 0.96746 0.13013 0.0
H134 H 0.13053 0.88294 0.16539 0.0
H135 H 0.06693 0.75383 0.1825 0.0
H136 H 0.85954 0.55612 0.1393 0.0
H137 H 0.86364 0.64232 0.10498 0.0
C138 C 0.97643 0.79688 0.1033 0.0
C139 C 0.03992 0.87648 0.10513 0.0
C140 C 0.96919 0.74755 0.12368 0.0
C141 C 0.09407 0.90651 0.12797 0.0
C142 C 0.08698 0.85822 0.14823 0.0
C143 C 0.02213 0.72938 0.16566 0.0
C144 C 0.96359 0.64859 0.16324 0.0
C145 C 0.02575 0.77866 0.14608 0.0
C146 C 0.90517 0.61818 0.14158 0.0
C147 C 0.90796 0.66738 0.12191 0.0
H148 H 0.12957 0.98725 0.43665 0.0
H149 H 0.26771 0.23993 0.44663 0.0
H150 H 0.37105 0.23731 0.47458 0.0
H151 H 0.41832 0.16407 0.4981 0.0
H152 H 0.27876 0.91111 0.49075 0.0
H153 H 0.17967 0.91305 0.45974 0.0
C154 C 0.18286 0.04174 0.44465 0.0
C155 C 0.19098 0.11379 0.43953 0.0
C156 C 0.24129 0.03972 0.46133 0.0
C157 C 0.25985 0.18379 0.45033 0.0
C158 C 0.31893 0.18233 0.46634 0.0
C159 C 0.3666 0.10907 0.48964 0.0
C160 C 0.35605 0.03745 0.49683 0.0
C161 C 0.3096 0.11069 0.4723 0.0
C162 C 0.28834 0.96704 0.48564 0.0
C163 C 0.2317 0.96818 0.46791 0.0
H164 H 0.10605 0.25268 0.79691 0.0
H165 H 0.25585 0.19708 0.75509 0.0
H166 H 0.37497 0.30231 0.78071 0.0
H167 H 0.4362 0.40333 0.8173 0.0
H168 H 0.28887 0.46215 0.85887 0.0
H169 H 0.16979 0.36331 0.83087 0.0
C170 C 0.16479 0.26405 0.79321 0.0
C171 C 0.17141 0.21607 0.77425 0.0
C172 C 0.23374 0.32516 0.80805 0.0
C173 C 0.2484 0.23247 0.76959 0.0
C174 C 0.31686 0.29268 0.7843 0.0
C175 C 0.37817 0.39511 0.82007 0.0
C176 C 0.37134 0.4395 0.84031 0.0
C177 C 0.3101 0.33829 0.80394 0.0
C178 C 0.29585 0.42878 0.84342 0.0
C179 C 0.22762 0.37194 0.8275 0.0
H180 H 0.75514 0.96407 0.68496 0.0
H181 H 0.96837 0.1526 0.65391 0.0
H182 H 0.88548 0.15775 0.61681 0.0
H183 H 0.75194 0.1101 0.59417 0.0
H184 H 0.54021 0.91489 0.62363 0.0
H185 H 0.62332 0.9097 0.66046 0.0
C186 C 0.78335 0.00668 0.67014 0.0
C187 C 0.86735 0.05923 0.67234 0.0
C188 C 0.73575 0.00734 0.64862 0.0
C189 C 0.9037 0.11242 0.65268 0.0
C190 C 0.85637 0.11512 0.63153 0.0
C191 C 0.72414 0.06613 0.6086 0.0
C192 C 0.6401 0.01328 0.60644 0.0
C193 C 0.77235 0.06307 0.62941 0.0
C194 C 0.60475 0.95585 0.62491 0.0
C195 C 0.65217 0.95332 0.64601 0.0
H196 H 0.93737 0.88805 0.01171 0.0
H197 H 0.87015 0.04957 0.98725 0.0
H198 H 0.7501 0.94264 0.96183 0.0
H199 H 0.67103 0.80536 0.94326 0.0
H200 H 0.74532 0.64761 0.96562 0.0
H201 H 0.85482 0.75049 -0.00447 0.0
C202 C 0.89571 0.89979 0.00132 0.0
C203 C 0.91285 0.97684 0.00148 0.0
C204 C 0.82809 0.83854 0.98621 0.0
C205 C 0.85867 0.99091 0.98742 0.0
C206 C 0.78999 0.92976 0.97285 0.0
C207 C 0.71032 0.79325 0.95509 0.0
C208 C 0.70018 0.71904 0.95224 0.0
C209 C 0.77501 0.85362 0.97162 0.0
C210 C 0.75215 0.70438 0.9674 0.0
C211 C 0.81487 0.76321 0.98446 0.0
H212 H 0.0717 0.90204 0.33533 0.0
H213 H 0.82663 0.70904 0.33963 0.0
H214 H 0.85036 0.6266 0.31076 0.0
H215 H 0.93773 0.61091 0.28259 0.0
H216 H 0.18305 0.80219 0.27785 0.0
H217 H 0.16239 0.88341 0.30891 0.0
C218 C 0.02355 0.84184 0.33004 0.0
C219 C 0.94717 0.81209 0.33949 0.0
C220 C 0.03763 0.79445 0.31338 0.0
C221 C 0.88582 0.7337 0.33262 0.0
C222 C 0.89931 0.68643 0.31607 0.0
C223 C 0.98703 0.67025 0.28843 0.0
C224 C 0.0617 0.70062 0.27771 0.0
C225 C 0.97456 0.71648 0.30608 0.0
C226 C 0.12502 0.77732 0.28579 0.0
C227 C 0.11306 0.82388 0.30345 0.0
H228 H 0.24054 0.14145 0.65568 0.0
H229 H 0.32821 0.03107 0.70715 0.0
H230 H 0.43643 0.06474 0.67867 0.0
H231 H 0.49645 0.11185 0.63657 0.0
H232 H 0.41233 0.22435 0.58511 0.0
H233 H 0.31355 0.2055 0.61639 0.0
C234 C 0.28383 0.12546 0.66074 0.0
C235 C 0.27555 0.0826 0.68324 0.0
C236 C 0.34678 0.14593 0.64439 0.0
C237 C 0.33289 0.06355 0.68986 0.0
C238 C 0.39483 0.08276 0.67359 0.0
C239 C 0.45824 0.13461 0.63275 0.0
C240 C 0.46177 0.17016 0.60891 0.0
C241 C 0.40122 0.12231 0.65053 0.0
C242 C 0.41143 0.1983 0.60369 0.0
C243 C 0.3543 0.18642 0.62137 0.0
H244 H 0.36805 0.16552 0.0007 0.0
H245 H 0.16163 0.16998 0.97106 0.0
H246 H 0.23764 0.25474 0.93635 0.0
H247 H 0.36745 0.34345 0.91929 0.0
H248 H 0.5769 0.34425 0.94885 0.0
H249 H 0.49539 0.24107 0.97867 0.0
C250 C 0.33929 0.18293 0.98598 0.0
C251 C 0.25979 0.16227 0.98833 0.0
C252 C 0.38442 0.23392 0.96657 0.0
C253 C 0.22301 0.18583 0.96957 0.0
C254 C 0.26654 0.2346 0.94987 0.0
C255 C 0.39504 0.32033 0.93207 0.0
C256 C 0.47805 0.3522 0.93243 0.0
C257 C 0.34813 0.26183 0.94902 0.0
C258 C 0.51303 0.32077 0.94849 0.0
C259 C 0.46649 0.26204 0.96554 0.0
H260 H 0.93779 0.1484 0.31516 0.0
H261 H 0.18363 0.32372 0.34162 0.0
H262 H 0.18525 0.41063 0.30832 0.0
H263 H 0.11203 0.44195 0.27585 0.0
H264 H 0.86162 0.27215 0.2521 0.0
H265 H 0.86576 0.17775 0.28061 0.0
C266 C 0.99246 0.20456 0.31288 0.0
C267 C 0.06127 0.22932 0.3302 0.0
C268 C 0.99108 0.25578 0.29487 0.0
C269 C 0.13088 0.30319 0.32798 0.0
C270 C 0.13126 0.35307 0.30925 0.0
C271 C 0.05818 0.38419 0.27672 0.0
C272 C 0.98626 0.36444 0.26202 0.0
C273 C 0.06086 0.33096 0.2933 0.0
C274 C 0.91742 0.28919 0.26343 0.0
C275 C 0.91995 0.2351 0.27959 0.0
loop_
_geom_bond_atom_site_label_1
_geom_bond_atom_site_label_2
_geom_bond_distance
_geom_bond_site_symmetry_2
_ccdc_geom_bond_type
Mg0 O1 2.028 1_545 S
Mg0 O7 1.986 . S
Mg0 O9 2.114 . S
Mg0 O10 2.251 . S
Mg0 O13 2.010 . S
O1 Mg0 2.028 1_565 S
O1 C4 1.250 1_455 S
O2 Mg3 2.028 1_655 S
O2 C4 1.248 1_545 S
Mg3 O2 2.028 1_455 S
Mg3 O8 2.032 . S
Mg3 O10 2.079 . S
C4 O1 1.250 1_655 S
C4 O2 1.248 1_565 S
C5 O6 1.264 . S
C5 O13 1.249 1_565 S
O6 C5 1.264 . S
O7 Mg0 1.986 . S
O7 C11 1.246 . S
O8 Mg3 2.032 . S
O8 C11 1.259 . S
O9 Mg0 2.114 . S
O9 C12 1.252 . S
O10 Mg0 2.251 . S
O10 Mg3 2.079 . S
O10 C12 1.273 . S
C11 O7 1.246 . S
C11 O8 1.259 . S
C12 O9 1.252 . S
C12 O10 1.273 . S
O13 Mg0 2.010 . S
O13 C5 1.249 1_545 S
Mg14 O15 2.028 1_655 S
Mg14 O21 1.986 1_655 S
Mg14 O23 2.114 1_545 S
Mg14 O24 2.251 . S
Mg14 O27 2.010 1_545 S
O15 Mg14 2.028 1_455 S
O15 C18 1.250 . S
O16 Mg17 2.028 . S
O16 C18 1.248 . S
Mg17 O16 2.028 . S
Mg17 O22 2.032 . S
Mg17 O24 2.079 1_455 S
C18 O15 1.250 . S
C18 O16 1.248 . S
C19 O20 1.264 . S
C19 O27 1.249 . S
O20 C19 1.264 . S
O21 Mg14 1.986 1_455 S
O21 C25 1.246 . S
O22 Mg17 2.032 . S
O22 C25 1.259 . S
O23 Mg14 2.114 1_565 S
O23 C26 1.252 1_565 S
O24 Mg14 2.251 . S
O24 Mg17 2.079 1_655 S
O24 C26 1.273 . S
C25 O21 1.246 . S
C25 O22 1.259 . S
C26 O23 1.252 1_545 S
C26 O24 1.273 . S
O27 Mg14 2.010 1_565 S
O27 C19 1.249 . S
Mg28 O29 2.028 . S
Mg28 O35 1.986 1_455 S
Mg28 O37 2.114 1_545 S
Mg28 O38 2.251 1_445 S
Mg28 O41 2.010 1_545 S
O29 Mg28 2.028 . S
O29 C32 1.250 . S
O30 Mg31 2.028 1_455 S
O30 C32 1.248 . S
Mg31 O30 2.028 1_655 S
Mg31 O36 2.032 . S
Mg31 O38 2.079 1_545 S
C32 O29 1.250 . S
C32 O30 1.248 . S
C33 O34 1.264 . S
C33 O41 1.249 . S
O34 C33 1.264 . S
O35 Mg28 1.986 1_655 S
O35 C39 1.246 . S
O36 Mg31 2.032 . S
O36 C39 1.259 . S
O37 Mg28 2.114 1_565 S
O37 C40 1.252 1_455 S
O38 Mg28 2.251 1_665 S
O38 Mg31 2.079 1_565 S
O38 C40 1.273 . S
C39 O35 1.246 . S
C39 O36 1.259 . S
C40 O37 1.252 1_655 S
C40 O38 1.273 . S
O41 Mg28 2.010 1_565 S
O41 C33 1.249 . S
C42 O44 1.247 . S
C42 O46 1.258 1_455 S
C43 O50 1.247 1_455 S
C43 O51 1.258 . S
O44 C42 1.247 . S
O44 Zn45 2.028 . S
Zn45 O44 2.028 . S
Zn45 O49 2.035 . S
Zn45 O51 2.035 . S
Zn45 O52 2.028 . S
O46 C42 1.258 1_655 S
O46 Zn47 2.035 . S
Zn47 O46 2.035 . S
Zn47 O48 2.028 . S
Zn47 O50 2.028 . S
Zn47 O53 2.035 . S
O48 Zn47 2.028 . S
O48 C54 1.247 1_655 S
O49 Zn45 2.035 . S
O49 C54 1.258 . S
O50 C43 1.247 1_655 S
O50 Zn47 2.028 . S
O51 C43 1.258 . S
O51 Zn45 2.035 . S
O52 Zn45 2.028 . S
O52 C55 1.247 . S
O53 Zn47 2.035 . S
O53 C55 1.258 1_655 S
C54 O48 1.247 1_455 S
C54 O49 1.258 . S
C55 O52 1.247 . S
C55 O53 1.258 1_455 S
C56 O58 1.247 . S
C56 O60 1.258 . S
C57 O64 1.247 . S
C57 O65 1.258 . S
O58 C56 1.247 . S
O58 Zn59 2.028 1_545 S
Zn59 O58 2.028 1_565 S
Zn59 O63 2.035 1_565 S
Zn59 O65 2.035 1_565 S
Zn59 O66 2.028 1_565 S
O60 C56 1.258 . S
O60 Zn61 2.035 . S
Zn61 O60 2.035 . S
Zn61 O62 2.028 . S
Zn61 O64 2.028 . S
Zn61 O67 2.035 . S
O62 Zn61 2.028 . S
O62 C68 1.247 . S
O63 Zn59 2.035 1_545 S
O63 C68 1.258 . S
O64 C57 1.247 . S
O64 Zn61 2.028 . S
O65 C57 1.258 . S
O65 Zn59 2.035 1_545 S
O66 Zn59 2.028 1_545 S
O66 C69 1.247 . S
O67 Zn61 2.035 . S
O67 C69 1.258 . S
C68 O62 1.247 . S
C68 O63 1.258 . S
C69 O66 1.247 . S
C69 O67 1.258 . S
C70 O72 1.247 . S
C70 O74 1.258 . S
C71 O78 1.247 . S
C71 O79 1.258 . S
O72 C70 1.247 . S
O72 Zn73 2.028 . S
Zn73 O72 2.028 . S
Zn73 O77 2.035 . S
Zn73 O79 2.035 . S
Zn73 O80 2.028 . S
O74 C70 1.258 . S
O74 Zn75 2.035 . S
Zn75 O74 2.035 . S
Zn75 O76 2.028 . S
Zn75 O78 2.028 . S
Zn75 O81 2.035 . S
O76 Zn75 2.028 . S
O76 C82 1.247 . S
O77 Zn73 2.035 . S
O77 C82 1.258 . S
O78 C71 1.247 . S
O78 Zn75 2.028 . S
O79 C71 1.258 . S
O79 Zn73 2.035 . S
O80 Zn73 2.028 . S
O80 C83 1.247 . S
O81 Zn75 2.035 . S
O81 C83 1.258 . S
C82 O76 1.247 . S
C82 O77 1.258 . S
C83 O80 1.247 . S
C83 O81 1.258 . S
H84 C90 0.930 . S
H85 C93 0.930 . S
H86 C94 0.930 . S
H87 C95 0.930 . S
H88 C98 0.930 . S
H89 C99 0.930 . S
C90 H84 0.930 . S
C90 C91 1.355 1_655 S
C90 C92 1.415 1_655 S
C91 C90 1.355 1_455 S
C91 C93 1.419 . S
C92 C90 1.415 1_455 S
C92 C97 1.425 . S
C92 C99 1.409 1_455 S
C93 H85 0.930 . S
C93 C91 1.419 . S
C93 C94 1.362 . S
C94 H86 0.930 . S
C94 C93 1.362 . S
C94 C97 1.409 . S
C95 H87 0.930 . S
C95 C96 1.355 . S
C95 C97 1.415 . S
C96 C95 1.355 . S
C96 C98 1.419 1_455 S
C97 C92 1.425 . S
C97 C94 1.409 . S
C97 C95 1.415 . S
C98 H88 0.930 . S
C98 C96 1.419 1_655 S
C98 C99 1.362 . S
C99 H89 0.930 . S
C99 C92 1.409 1_655 S
C99 C98 1.362 . S
H100 C106 0.930 . S
H101 C109 0.930 . S
H102 C110 0.930 1_565 S
H103 C111 0.930 . S
H104 C114 0.930 . S
H105 C115 0.930 . S
C106 H100 0.930 . S
C106 C107 1.355 . S
C106 C108 1.415 . S
C107 C106 1.355 . S
C107 C109 1.419 1_545 S
C108 C106 1.415 . S
C108 C113 1.425 . S
C108 C115 1.409 . S
C109 H101 0.930 . S
C109 C107 1.419 1_565 S
C109 C110 1.362 1_565 S
C110 H102 0.930 1_545 S
C110 C109 1.362 1_545 S
C110 C113 1.409 . S
C111 H103 0.930 . S
C111 C112 1.355 . S
C111 C113 1.415 . S
C112 C111 1.355 . S
C112 C114 1.419 . S
C113 C108 1.425 . S
C113 C110 1.409 . S
C113 C111 1.415 . S
C114 H104 0.930 . S
C114 C112 1.419 . S
C114 C115 1.362 . S
C115 H105 0.930 . S
C115 C108 1.409 . S
C115 C114 1.362 . S
H116 C122 0.930 . S
H117 C125 0.930 . S
H118 C126 0.930 . S
H119 C127 0.930 . S
H120 C130 0.930 . S
H121 C131 0.930 . S
C122 H116 0.930 . S
C122 C123 1.355 . S
C122 C124 1.415 . S
C123 C122 1.355 . S
C123 C125 1.419 . S
C124 C122 1.415 . S
C124 C129 1.425 . S
C124 C131 1.409 . S
C125 H117 0.930 . S
C125 C123 1.419 . S
C125 C126 1.362 . S
C126 H118 0.930 . S
C126 C125 1.362 . S
C126 C129 1.409 . S
C127 H119 0.930 . S
C127 C128 1.355 . S
C127 C129 1.415 . S
C128 C127 1.355 . S
C128 C130 1.419 . S
C129 C124 1.425 . S
C129 C126 1.409 . S
C129 C127 1.415 . S
C130 H120 0.930 . S
C130 C128 1.419 . S
C130 C131 1.362 . S
C131 H121 0.930 . S
C131 C124 1.409 . S
C131 C130 1.362 . S
H132 C138 0.930 . S
H133 C141 0.930 1_655 S
H134 C142 0.930 . S
H135 C143 0.930 1_655 S
H136 C146 0.930 . S
H137 C147 0.930 . S
C138 H132 0.930 . S
C138 C139 1.355 . S
C138 C140 1.415 . S
C139 C138 1.355 . S
C139 C141 1.419 . S
C140 C138 1.415 . S
C140 C145 1.425 . S
C140 C147 1.409 . S
C141 H133 0.930 1_455 S
C141 C139 1.419 . S
C141 C142 1.362 1_455 S
C142 H134 0.930 . S
C142 C141 1.362 1_655 S
C142 C145 1.409 1_655 S
C143 H135 0.930 1_455 S
C143 C144 1.355 . S
C143 C145 1.415 . S
C144 C143 1.355 . S
C144 C146 1.419 . S
C145 C140 1.425 . S
C145 C142 1.409 1_455 S
C145 C143 1.415 . S
C146 H136 0.930 . S
C146 C144 1.419 . S
C146 C147 1.362 . S
C147 H137 0.930 . S
C147 C140 1.409 . S
C147 C146 1.362 . S
H148 C154 0.930 . S
H149 C157 0.930 . S
H150 C158 0.930 . S
H151 C159 0.930 . S
H152 C162 0.930 . S
H153 C163 0.930 . S
C154 H148 0.930 . S
C154 C155 1.355 . S
C154 C156 1.415 . S
C155 C154 1.355 . S
C155 C157 1.419 . S
C156 C154 1.415 . S
C156 C161 1.425 . S
C156 C163 1.409 . S
C157 H149 0.930 . S
C157 C155 1.419 . S
C157 C158 1.362 . S
C158 H150 0.930 . S
C158 C157 1.362 . S
C158 C161 1.409 . S
C159 H151 0.930 . S
C159 C160 1.355 . S
C159 C161 1.415 . S
C160 C159 1.355 . S
C160 C162 1.419 . S
C161 C156 1.425 . S
C161 C158 1.409 . S
C161 C159 1.415 . S
C162 H152 0.930 . S
C162 C160 1.419 . S
C162 C163 1.362 . S
C163 H153 0.930 . S
C163 C156 1.409 . S
C163 C162 1.362 . S
H164 C170 0.930 . S
H165 C173 0.930 . S
H166 C174 0.930 . S
H167 C175 0.930 . S
H168 C178 0.930 . S
H169 C179 0.930 . S
C170 H164 0.930 . S
C170 C171 1.355 . S
C170 C172 1.415 . S
C171 C170 1.355 . S
C171 C173 1.419 . S
C172 C170 1.415 . S
C172 C177 1.425 . S
C172 C179 1.409 . S
C173 H165 0.930 . S
C173 C171 1.419 . S
C173 C174 1.362 . S
C174 H166 0.930 . S
C174 C173 1.362 . S
C174 C177 1.409 . S
C175 H167 0.930 . S
C175 C176 1.355 . S
C175 C177 1.415 . S
C176 C175 1.355 . S
C176 C178 1.419 . S
C177 C172 1.425 . S
C177 C174 1.409 . S
C177 C175 1.415 . S
C178 H168 0.930 . S
C178 C176 1.419 . S
C178 C179 1.362 . S
C179 H169 0.930 . S
C179 C172 1.409 . S
C179 C178 1.362 . S
H180 C186 0.930 . S
H181 C189 0.930 . S
H182 C190 0.930 . S
H183 C191 0.930 . S
H184 C194 0.930 . S
H185 C195 0.930 . S
C186 H180 0.930 . S
C186 C187 1.355 . S
C186 C188 1.415 . S
C187 C186 1.355 . S
C187 C189 1.419 . S
C188 C186 1.415 . S
C188 C193 1.425 . S
C188 C195 1.409 . S
C189 H181 0.930 . S
C189 C187 1.419 . S
C189 C190 1.362 . S
C190 H182 0.930 . S
C190 C189 1.362 . S
C190 C193 1.409 . S
C191 H183 0.930 . S
C191 C192 1.355 . S
C191 C193 1.415 . S
C192 C191 1.355 . S
C192 C194 1.419 . S
C193 C188 1.425 . S
C193 C190 1.409 . S
C193 C191 1.415 . S
C194 H184 0.930 . S
C194 C192 1.419 . S
C194 C195 1.362 . S
C195 H185 0.930 . S
C195 C188 1.409 . S
C195 C194 1.362 . S
H196 C202 0.930 . S
H197 C205 0.930 1_545 S
H198 C206 0.930 . S
H199 C207 0.930 . S
H200 C210 0.930 . S
H201 C211 0.930 1_554 S
C202 H196 0.930 . S
C202 C203 1.355 . S
C202 C204 1.415 1_554 S
C203 C202 1.355 . S
C203 C205 1.419 1_554 S
C204 C202 1.415 1_556 S
C204 C209 1.425 . S
C204 C211 1.409 . S
C205 H197 0.930 1_565 S
C205 C203 1.419 1_556 S
C205 C206 1.362 . S
C206 H198 0.930 . S
C206 C205 1.362 . S
C206 C209 1.409 . S
C207 H199 0.930 . S
C207 C208 1.355 . S
C207 C209 1.415 . S
C208 C207 1.355 . S
C208 C210 1.419 . S
C209 C204 1.425 . S
C209 C206 1.409 . S
C209 C207 1.415 . S
C210 H200 0.930 . S
C210 C208 1.419 . S
C210 C211 1.362 . S
C211 H201 0.930 1_556 S
C211 C204 1.409 . S
C211 C210 1.362 . S
H212 C218 0.930 . S
H213 C221 0.930 . S
H214 C222 0.930 . S
H215 C223 0.930 . S
H216 C226 0.930 . S
H217 C227 0.930 . S
C218 H212 0.930 . S
C218 C219 1.355 1_455 S
C218 C220 1.415 . S
C219 C218 1.355 1_655 S
C219 C221 1.419 . S
C220 C218 1.415 . S
C220 C225 1.425 1_455 S
C220 C227 1.409 . S
C221 H213 0.930 . S
C221 C219 1.419 . S
C221 C222 1.362 . S
C222 H214 0.930 . S
C222 C221 1.362 . S
C222 C225 1.409 . S
C223 H215 0.930 . S
C223 C224 1.355 1_655 S
C223 C225 1.415 . S
C224 C223 1.355 1_455 S
C224 C226 1.419 . S
C225 C220 1.425 1_655 S
C225 C222 1.409 . S
C225 C223 1.415 . S
C226 H216 0.930 . S
C226 C224 1.419 . S
C226 C227 1.362 . S
C227 H217 0.930 . S
C227 C220 1.409 . S
C227 C226 1.362 . S
H228 C234 0.930 . S
H229 C237 0.930 . S
H230 C238 0.921 1_565 S
H231 C239 0.930 . S
H232 C242 0.930 . S
H233 C243 0.930 . S
C234 H228 0.930 . S
C234 C235 1.355 . S
C234 C236 1.415 . S
C235 C234 1.355 . S
C235 C237 1.419 1_545 S
C236 C234 1.415 . S
C236 C241 1.425 . S
C236 C243 1.409 . S
C237 H229 0.930 . S
C237 C235 1.419 1_565 S
C237 C238 1.367 1_565 S
C238 H230 0.921 1_545 S
C238 C237 1.367 1_545 S
C238 C241 1.414 . S
C239 H231 0.930 . S
C239 C240 1.355 . S
C239 C241 1.415 . S
C240 C239 1.355 . S
C240 C242 1.419 . S
C241 C236 1.425 . S
C241 C238 1.414 . S
C241 C239 1.415 . S
C242 H232 0.930 . S
C242 C240 1.419 . S
C242 C243 1.362 . S
C243 H233 0.930 . S
C243 C236 1.409 . S
C243 C242 1.362 . S
H244 C250 0.939 . S
H245 C253 0.930 . S
H246 C254 0.930 . S
H247 C255 0.930 . S
H248 C258 0.930 . S
H249 C259 0.930 . S
C250 H244 0.939 . S
C250 C251 1.377 . S
C250 C252 1.385 1_554 S
C251 C250 1.377 . S
C251 C253 1.419 . S
C252 C250 1.385 1_556 S
C252 C257 1.425 . S
C252 C259 1.409 . S
C253 H245 0.930 . S
C253 C251 1.419 . S
C253 C254 1.362 1_554 S
C254 H246 0.930 . S
C254 C253 1.362 1_556 S
C254 C257 1.409 . S
C255 H247 0.930 . S
C255 C256 1.355 . S
C255 C257 1.415 . S
C256 C255 1.355 . S
C256 C258 1.419 . S
C257 C252 1.425 . S
C257 C254 1.409 . S
C257 C255 1.415 . S
C258 H248 0.930 . S
C258 C256 1.419 . S
C258 C259 1.362 . S
C259 H249 0.930 . S
C259 C252 1.409 . S
C259 C258 1.362 . S
H260 C266 0.930 1_655 S
H261 C269 0.930 . S
H262 C270 0.930 . S
H263 C271 0.930 . S
H264 C274 0.930 . S
H265 C275 0.930 . S
C266 H260 0.930 1_455 S
C266 C267 1.355 . S
C266 C268 1.415 . S
C267 C266 1.355 . S
C267 C269 1.419 . S
C268 C266 1.415 . S
C268 C273 1.425 . S
C268 C275 1.409 1_455 S
C269 H261 0.930 . S
C269 C267 1.419 . S
C269 C270 1.362 . S
C270 H262 0.930 . S
C270 C269 1.362 . S
C270 C273 1.409 . S
C271 H263 0.930 . S
C271 C272 1.355 . S
C271 C273 1.415 . S
C272 C271 1.355 . S
C272 C274 1.419 1_455 S
C273 C268 1.425 . S
C273 C270 1.409 . S
C273 C271 1.415 . S
C274 H264 0.930 . S
C274 C272 1.419 1_655 S
C274 C275 1.362 . S
C275 H265 0.930 . S
C275 C268 1.409 1_655 S
C275 C274 1.362 . S
C96 C43 1.410 . S
C91 C11 1.392 . S
C107 C26 1.522 . S
C112 C69 1.535 . S
C123 C40 1.433 . S
C128 C71 1.433 . S
C139 C5 1.311 . S
C144 C55 1.405 . S
C160 C57 1.528 . S
C155 C18 1.523 . S
C171 C32 1.390 . S
C176 C83 1.410 . S
C192 C56 1.323 . S
C187 C39 1.296 . S
C203 C4 1.385 . S
C208 C82 1.422 . S
C224 C42 1.431 . S
C219 C19 1.222 . S
C240 C68 1.365 . S
C235 C33 1.193 1_545 S
C256 C70 1.430 . S
C251 C12 1.405 . S
C267 C25 1.430 . S
C272 C54 1.437 . S
