# Generated by pormake.
# Topology myd, (4,6)-cn, num edge types: 1
# Building blocks:
#     Node 0, Type 0, BuildingBlock: NAWXER_clean_sbu_0, # of connection points: 4
#     Node 1, Type 0, BuildingBlock: NAWXER_clean_sbu_0, # of connection points: 4
#     Node 2, Type 0, BuildingBlock: NAWXER_clean_sbu_0, # of connection points: 4
#     Node 3, Type 0, BuildingBlock: NAWXER_clean_sbu_0, # of connection points: 4
#     Node 4, Type 0, BuildingBlock: NAWXER_clean_sbu_0, # of connection points: 4
#     Node 5, Type 0, BuildingBlock: NAWXER_clean_sbu_0, # of connection points: 4
#     Node 6, Type 0, BuildingBlock: NAWXER_clean_sbu_0, # of connection points: 4
#     Node 7, Type 0, BuildingBlock: NAWXER_clean_sbu_0, # of connection points: 4
#     Node 8, Type 0, BuildingBlock: NAWXER_clean_sbu_0, # of connection points: 4
#     Node 9, Type 0, BuildingBlock: NAWXER_clean_sbu_0, # of connection points: 4
#     Node 10, Type 0, BuildingBlock: NAWXER_clean_sbu_0, # of connection points: 4
#     Node 11, Type 0, BuildingBlock: NAWXER_clean_sbu_0, # of connection points: 4
#     Node 12, Type 1, BuildingBlock: JUFBIX_clean_sbu_0, # of connection points: 6
#     Node 13, Type 1, BuildingBlock: JUFBIX_clean_sbu_0, # of connection points: 6
#     Node 14, Type 1, BuildingBlock: JUFBIX_clean_sbu_0, # of connection points: 6
#     Node 15, Type 1, BuildingBlock: JUFBIX_clean_sbu_0, # of connection points: 6
#     Node 16, Type 1, BuildingBlock: JUFBIX_clean_sbu_0, # of connection points: 6
#     Node 17, Type 1, BuildingBlock: JUFBIX_clean_sbu_0, # of connection points: 6
#     Node 18, Type 1, BuildingBlock: JUFBIX_clean_sbu_0, # of connection points: 6
#     Node 19, Type 1, BuildingBlock: JUFBIX_clean_sbu_0, # of connection points: 6
#     Edge 20, Type (0, 1), None
#     Edge 21, Type (0, 1), None
#     Edge 22, Type (0, 1), None
#     Edge 23, Type (0, 1), None
#     Edge 24, Type (0, 1), None
#     Edge 25, Type (0, 1), None
#     Edge 26, Type (0, 1), None
#     Edge 27, Type (0, 1), None
#     Edge 28, Type (0, 1), None
#     Edge 29, Type (0, 1), None
#     Edge 30, Type (0, 1), None
#     Edge 31, Type (0, 1), None
#     Edge 32, Type (0, 1), None
#     Edge 33, Type (0, 1), None
#     Edge 34, Type (0, 1), None
#     Edge 35, Type (0, 1), None
#     Edge 36, Type (0, 1), None
#     Edge 37, Type (0, 1), None
#     Edge 38, Type (0, 1), None
#     Edge 39, Type (0, 1), None
#     Edge 40, Type (0, 1), None
#     Edge 41, Type (0, 1), None
#     Edge 42, Type (0, 1), None
#     Edge 43, Type (0, 1), None
#     Edge 44, Type (0, 1), None
#     Edge 45, Type (0, 1), None
#     Edge 46, Type (0, 1), None
#     Edge 47, Type (0, 1), None
#     Edge 48, Type (0, 1), None
#     Edge 49, Type (0, 1), None
#     Edge 50, Type (0, 1), None
#     Edge 51, Type (0, 1), None
#     Edge 52, Type (0, 1), None
#     Edge 53, Type (0, 1), None
#     Edge 54, Type (0, 1), None
#     Edge 55, Type (0, 1), None
#     Edge 56, Type (0, 1), None
#     Edge 57, Type (0, 1), None
#     Edge 58, Type (0, 1), None
#     Edge 59, Type (0, 1), None
#     Edge 60, Type (0, 1), None
#     Edge 61, Type (0, 1), None
#     Edge 62, Type (0, 1), None
#     Edge 63, Type (0, 1), None
#     Edge 64, Type (0, 1), None
#     Edge 65, Type (0, 1), None
#     Edge 66, Type (0, 1), None
#     Edge 67, Type (0, 1), None
# Relax obj value: 0.338
# Max RMSD: 0.277
# Mean RMSD: 0.153
data_MOF--net-myd--node1-NAWXER_clean_sbu_0--node2-JUFBIX_clean_sbu_0--edge1-none
_symmetry_space_group_name_H-M    P1
_symmetry_Int_Tables_number       1
_symmetry_cell_setting            triclinic
loop_
_symmetry_equiv_pos_as_xyz
'x, y, z'
_cell_length_a     19.145436
_cell_length_b     22.475106
_cell_length_c     21.532337
_cell_angle_alpha  90.568912
_cell_angle_beta   83.554058
_cell_angle_gamma 91.419333
loop_
_atom_site_label
_atom_site_type_symbol
_atom_site_fract_x
_atom_site_fract_y
_atom_site_fract_z
_atom_type_partial_charge
C0 C 1.00178 0.13122 0.25869 0.0
C1 C 1.01487 0.27945 0.43121 0.0
O2 O 0.06313 0.14519 0.27371 0.0
Zn3 Zn 0.11368 0.1946 0.34412 0.0
O4 O 0.94721 0.14946 0.29245 0.0
Zn5 Zn 0.99985 0.19125 0.35537 0.0
O6 O 0.05158 0.25524 0.29558 0.0
O7 O 0.16827 0.25068 0.29018 0.0
O8 O 0.96131 0.24667 0.42211 0.0
O9 O 0.07552 0.26335 0.40755 0.0
O10 O 0.15766 0.13383 0.38711 0.0
O11 O 1.04242 0.11874 0.39606 0.0
C12 C 0.11294 0.2757 0.27606 0.0
C13 C 0.10365 0.10161 0.40405 0.0
C14 C 0.12481 0.7602 0.26287 0.0
C15 C 0.05519 0.60218 0.12861 0.0
O16 O 0.16669 0.74166 0.21655 0.0
Zn17 Zn 0.09929 0.68296 0.19208 0.0
O18 O 0.06418 0.73634 0.27613 0.0
Zn19 Zn 0.99301 0.68174 0.23877 0.0
O20 O 0.97742 0.62639 0.30911 0.0
O21 O 0.08966 0.62588 0.27403 0.0
O22 O 1.00603 0.62227 0.16698 0.0
O23 O 0.11682 0.62519 0.12498 0.0
O24 O 1.03898 0.75515 0.16175 0.0
O25 O 0.93386 0.74852 0.21421 0.0
C26 C 1.03891 0.60671 0.31308 0.0
C27 C 0.979 0.77812 0.17756 0.0
C28 C 0.4117 0.04017 0.1593 0.0
C29 C 0.29277 0.96974 0.35939 0.0
O30 O 0.41298 0.98662 0.17875 0.0
Zn31 Zn 0.3527 0.99592 0.25434 0.0
O32 O 0.37729 0.08011 0.19224 0.0
Zn33 Zn 0.30848 0.08471 0.2799 0.0
O34 O 0.35727 0.1147 0.35843 0.0
O35 O 0.41828 0.05888 0.29356 0.0
O36 O 0.27418 1.02006 0.34205 0.0
O37 O 0.33166 0.9375 0.32152 0.0
O38 O 0.25762 1.00424 0.21212 0.0
O39 O 0.21821 0.0922 0.24274 0.0
C40 C 0.4056 0.07636 0.34956 0.0
C41 C 0.21161 0.04422 0.2109 0.0
C42 C 0.83073 0.46171 0.23012 0.0
C43 C 0.65617 0.49119 0.43074 0.0
O44 O 0.80259 0.41878 0.26398 0.0
Zn45 Zn 0.73829 0.46246 0.3316 0.0
O46 O 0.81894 0.51464 0.24921 0.0
Zn47 Zn 0.75266 0.55826 0.31984 0.0
O48 O 0.82001 0.59877 0.36631 0.0
O49 O 0.81528 0.5015 0.38236 0.0
O50 O 0.68226 0.53528 0.39838 0.0
O51 O 0.66897 0.43867 0.40946 0.0
O52 O 0.67698 0.49928 0.26676 0.0
O53 O 0.69964 0.59618 0.26238 0.0
C54 C 0.83929 0.55327 0.39436 0.0
C55 C 0.67501 0.54896 0.23853 0.0
C56 C 0.18615 0.43922 0.99676 0.0
C57 C 0.40142 0.3213 0.96488 0.0
O58 O 0.2138 0.426 0.94162 0.0
Zn59 Zn 0.30731 0.39365 0.95957 0.0
O60 O 0.226 0.44246 0.04103 0.0
Zn61 Zn 0.30591 0.38933 0.07053 0.0
O62 O 0.39378 0.43204 0.09248 0.0
O63 O 0.38215 0.45406 0.99457 0.0
O64 O 0.37424 0.34057 1.01683 0.0
O65 O 0.37542 0.33496 0.9147 0.0
O66 O 0.24957 0.32873 1.00614 0.0
O67 O 0.2503 0.31675 0.10703 0.0
C68 C 0.42165 0.45062 0.03903 0.0
C69 C 0.22825 0.30069 0.05538 0.0
C70 C 0.21029 0.78394 0.50834 0.0
C71 C 0.39064 0.61194 0.52105 0.0
O72 O 0.24179 0.75931 0.45914 0.0
Zn73 Zn 0.30797 0.69681 0.48874 0.0
O74 O 0.22258 0.76501 0.56133 0.0
Zn75 Zn 0.27996 0.69608 0.59378 0.0
O76 O 0.35316 0.75524 0.62781 0.0
O77 O 0.37223 0.76131 0.52591 0.0
O78 O 0.35298 0.63152 0.56879 0.0
O79 O 0.38674 0.63747 0.46853 0.0
O80 O 0.23031 0.63141 0.50553 0.0
O81 O 0.19608 0.6356 0.60546 0.0
C82 C 0.38723 0.7792 0.57912 0.0
C83 C 0.19022 0.61137 0.55188 0.0
C84 C 0.68616 0.93922 0.49676 0.0
C85 C 0.90142 0.82131 0.46489 0.0
O86 O 0.71381 0.926 0.44163 0.0
Zn87 Zn 0.80731 0.89365 0.45958 0.0
O88 O 0.726 0.94247 0.54104 0.0
Zn89 Zn 0.80591 0.88934 0.57053 0.0
O90 O 0.89378 0.93205 0.59248 0.0
O91 O 0.88215 0.95406 0.49458 0.0
O92 O 0.87425 0.84057 0.51684 0.0
O93 O 0.87543 0.83496 0.41471 0.0
O94 O 0.74958 0.82874 0.50615 0.0
O95 O 0.7503 0.81675 0.60703 0.0
C96 C 0.92165 0.95062 0.53904 0.0
C97 C 0.72825 0.80069 0.55538 0.0
C98 C 0.61294 0.7757 0.77607 0.0
C99 C 0.60365 0.6016 0.90405 0.0
O100 O 0.55158 0.75524 0.79558 0.0
Zn101 Zn 0.49984 0.69125 0.85537 0.0
O102 O 0.66826 0.75067 0.79018 0.0
Zn103 Zn 0.61368 0.6946 0.84412 0.0
O104 O 0.56312 0.64519 0.7737 0.0
O105 O 0.4472 0.64946 0.79245 0.0
O106 O 0.65766 0.63382 0.88711 0.0
O107 O 0.54242 0.61874 0.89606 0.0
O108 O 0.46131 0.74666 0.92211 0.0
O109 O 0.57552 0.76335 0.90755 0.0
C110 C 0.50177 0.63122 0.75869 0.0
C111 C 0.51486 0.77945 0.93121 0.0
C112 C 0.5389 0.10671 0.81308 0.0
C113 C 0.47901 0.27812 0.67756 0.0
O114 O 0.47741 0.1264 0.80911 0.0
Zn115 Zn 0.49301 0.18174 0.73877 0.0
O116 O 0.58965 0.12589 0.77403 0.0
Zn117 Zn 0.59929 0.18297 0.69208 0.0
O118 O 0.66669 0.24166 0.71655 0.0
O119 O 0.56418 0.23634 0.77613 0.0
O120 O 0.53898 0.25515 0.66175 0.0
O121 O 0.43387 0.24853 0.71421 0.0
O122 O 0.50603 0.12228 0.66698 0.0
O123 O 0.61682 0.12519 0.62498 0.0
C124 C 0.62481 0.2602 0.76288 0.0
C125 C 0.55519 0.10218 0.62862 0.0
C126 C 0.71161 0.54423 0.71089 0.0
C127 C 0.90561 0.57639 0.84958 0.0
O128 O 0.71821 0.59222 0.74273 0.0
Zn129 Zn 0.80847 0.58473 0.77989 0.0
O130 O 0.75762 0.50425 0.71211 0.0
Zn131 Zn 0.8527 0.49593 0.75435 0.0
O132 O 0.83165 0.43752 0.82152 0.0
O133 O 0.77417 0.52009 0.84205 0.0
O134 O 0.91828 0.5589 0.79357 0.0
O135 O 0.85726 0.61472 0.85842 0.0
O136 O 0.8773 0.58013 0.69224 0.0
O137 O 0.91298 0.48663 0.67876 0.0
C138 C 0.79274 0.46976 0.85938 0.0
C139 C 0.91171 0.54019 0.6593 0.0
C140 C 0.33073 0.9617 0.73012 0.0
C141 C 0.15616 0.99117 0.93075 0.0
O142 O 0.30258 0.91877 0.76397 0.0
Zn143 Zn 0.23828 0.96245 0.8316 0.0
O144 O 0.31893 1.01463 0.74921 0.0
Zn145 Zn 0.25265 0.05825 0.81984 0.0
O146 O 0.32 0.09876 0.86631 0.0
O147 O 0.31527 1.00148 0.88236 0.0
O148 O 0.18225 0.03526 0.89838 0.0
O149 O 0.16897 0.93866 0.90946 0.0
O150 O 0.17696 0.99926 0.76676 0.0
O151 O 0.19963 0.09617 0.76238 0.0
C152 C 0.33928 0.05326 0.89436 0.0
C153 C 0.175 0.04895 0.73853 0.0
C154 C 0.69021 0.11139 0.05184 0.0
C155 C 0.88724 0.2792 0.07912 0.0
O156 O 0.69606 0.13562 0.10542 0.0
Zn157 Zn 0.77994 0.19608 0.09378 0.0
O158 O 0.73033 0.13141 1.0055 0.0
Zn159 Zn 0.80798 0.19682 0.98874 0.0
O160 O 0.88676 0.13748 0.96856 0.0
O161 O 0.85296 0.13153 0.06882 0.0
O162 O 0.87224 0.26132 1.02591 0.0
O163 O 0.85315 0.25525 0.1278 0.0
O164 O 0.72257 0.26502 0.06134 0.0
O165 O 0.7418 0.25932 0.95915 0.0
C166 C 0.89066 0.11197 1.02108 0.0
C167 C 0.71029 0.28395 1.00835 0.0
Co168 Co 1.0352 1.0097 0.11089 0.0
C169 C 0.99977 0.10463 0.196 0.0
Co170 Co 0.08041 0.09789 0.08291 0.0
C171 C 1.01676 0.87768 0.13703 0.0
C172 C 0.92385 0.92684 0.16237 0.0
N173 N 0.99125 0.93392 0.13679 0.0
N174 N 0.96819 0.83647 0.16238 0.0
C175 C 0.90978 0.86786 0.17832 0.0
H176 H 0.07099 0.86765 0.12146 0.0
H177 H 0.8873 0.96278 0.17048 0.0
C178 C 0.12074 1.00696 0.99483 0.0
N179 N 0.12158 0.169 0.05826 0.0
C180 C 0.15867 0.21044 0.08805 0.0
C181 C 0.12292 0.18806 0.99915 0.0
N182 N 0.1837 0.25396 0.04852 0.0
C183 C 0.16023 0.23998 0.99317 0.0
C184 C 0.1592 0.04027 0.16433 0.0
O185 O 0.07976 0.97287 0.03065 0.0
O186 O 0.13096 0.06012 1.01313 0.0
O187 O 0.15243 0.08664 0.13323 0.0
O188 O 0.11907 0.99461 0.15609 0.0
O189 O 1.03044 0.13538 0.15149 0.0
H190 H 0.10011 0.16463 0.96192 0.0
H191 H 0.16939 0.20739 0.13623 0.0
O192 O 0.99435 0.04817 0.18879 0.0
O193 O 0.9513 0.03247 0.06817 0.0
O194 O 1.00851 0.11263 0.0337 0.0
C195 C 0.95413 0.08007 0.03505 0.0
H196 H 0.86084 0.84993 0.20169 0.0
H197 H 0.17126 0.26483 0.95015 0.0
Co198 Co 1.02115 0.42012 0.1282 0.0
C199 C 1.04158 0.54347 0.10461 0.0
Co200 Co 0.9662 0.45825 0.05557 0.0
C201 C 0.05897 0.34975 0.22289 0.0
C202 C 0.14561 0.40619 0.18881 0.0
N203 N 0.07569 0.39672 0.18689 0.0
N204 N 0.11582 0.32632 0.24337 0.0
C205 C 0.17083 0.36211 0.22385 0.0
H206 H 1.00658 0.32986 0.22955 0.0
H207 H 0.17726 0.43935 0.1618 0.0
C208 C 0.93599 0.33319 0.08114 0.0
N209 N 0.92543 0.48366 0.98357 0.0
C210 C 0.90767 0.53678 0.95902 0.0
C211 C 0.9462 0.4504 0.93277 0.0
N212 N 0.91983 0.53714 0.89515 0.0
C213 C 0.94721 0.48344 0.88036 0.0
C214 C 0.10966 0.427 1.01853 0.0
O215 O 0.9767 0.3408 0.12339 0.0
O216 O 0.93399 0.375 0.04144 0.0
O217 O 0.05851 0.4534 0.99894 0.0
O218 O 0.09723 0.40013 0.06971 0.0
O219 O 0.99245 0.53649 0.07062 0.0
H220 H 0.96849 0.40676 0.93365 0.0
H221 H 0.89213 0.57547 0.98706 0.0
O222 O 0.06129 0.49904 0.13372 0.0
O223 O 0.94688 0.43822 0.19018 0.0
O224 O 0.8802 0.46576 0.11879 0.0
C225 C 0.88699 0.45287 0.17647 0.0
H226 H 0.22488 0.35545 0.23195 0.0
H227 H 0.96527 0.46778 0.83366 0.0
Co228 Co 0.14389 0.96327 0.51193 0.0
C229 C 0.2515 0.94556 0.4138 0.0
Co230 Co 0.11551 0.91904 0.42967 0.0
C231 C 0.15243 0.99793 0.64267 0.0
C232 C 0.20427 0.05887 0.57622 0.0
N233 N 0.17268 1.00435 0.58088 0.0
N234 N 0.16915 0.04671 0.67623 0.0
C235 C 0.20098 0.0853 0.63415 0.0
H236 H 0.12571 0.95838 0.66267 0.0
H237 H 0.22606 0.07933 0.53281 0.0
C238 C 0.99927 0.9437 0.51888 0.0
N239 N 0.09721 0.88828 0.3533 0.0
C240 C 0.09632 0.82936 0.3439 0.0
C241 C 0.13105 0.91009 0.29907 0.0
N242 N 0.13391 0.81323 0.29006 0.0
C243 C 0.15524 0.8639 0.26076 0.0
C244 C 0.16584 0.83803 0.50543 0.0
O245 O 0.0474 0.95229 0.55523 0.0
O246 O 1.01797 0.92649 0.46265 0.0
O247 O 0.12518 0.84166 0.46303 0.0
O248 O 0.17673 0.88505 0.53774 0.0
O249 O 0.20628 0.91016 0.39811 0.0
H250 H 0.14585 0.9562 0.29097 0.0
H251 H 0.0716 0.79776 0.37759 0.0
O252 O 0.23632 0.97704 0.4631 0.0
O253 O 0.11623 0.03739 0.48633 0.0
O254 O 0.11147 0.99726 0.39485 0.0
C255 C 0.11081 0.0431 0.42935 0.0
H256 H 0.22478 0.12786 0.64488 0.0
H257 H 0.18277 0.86733 0.21411 0.0
Co258 Co 0.99424 0.61506 0.49418 0.0
C259 C 0.12192 0.5851 0.53595 0.0
Co260 Co 1.01643 0.52076 0.47998 0.0
C261 C 0.95474 0.72797 0.45322 0.0
C262 C 1.01234 0.73403 0.53326 0.0
N263 N 0.98588 0.69502 0.49427 0.0
N264 N 0.95704 0.7861 0.46725 0.0
C265 C 0.99486 0.78941 0.51692 0.0
H266 H 0.92445 0.70952 0.41778 0.0
H267 H 1.03861 0.72292 0.57336 0.0
C268 C 0.89257 0.55849 0.43744 0.0
N269 N 1.01423 0.43352 0.47945 0.0
C270 C 0.04617 0.3853 0.45033 0.0
C271 C 0.95435 0.40858 0.50949 0.0
N272 N 1.00675 0.33364 0.4604 0.0
C273 C 0.94926 0.3491 0.49735 0.0
C274 C 0.94644 0.55541 0.59733 0.0
O275 O 0.91335 0.60895 0.45362 0.0
O276 O 0.92465 0.51314 0.45238 0.0
O277 O 0.98036 0.51566 0.56579 0.0
O278 O 0.94038 0.60622 0.57328 0.0
O279 O 0.11341 0.53443 0.50801 0.0
H280 H 0.91233 0.4328 0.53527 0.0
H281 H 0.09321 0.3889 0.41747 0.0
O282 O 0.07492 0.62317 0.5349 0.0
O283 O 0.04657 0.62478 0.41675 0.0
O284 O 0.0493 0.53023 0.39103 0.0
C285 C 0.05419 0.58515 0.37485 0.0
H286 H 1.00085 0.8284 0.54577 0.0
H287 H 0.90497 0.3198 0.51255 0.0
Co288 Co 0.52115 0.92012 0.6282 0.0
C289 C 0.54157 0.04347 0.60462 0.0
Co290 Co 0.4662 0.95825 0.55558 0.0
C291 C 0.55897 0.84975 0.7229 0.0
C292 C 0.6456 0.90619 0.68882 0.0
N293 N 0.57569 0.89672 0.6869 0.0
N294 N 0.61581 0.82632 0.74338 0.0
C295 C 0.67082 0.86211 0.72385 0.0
H296 H 0.50658 0.82986 0.72955 0.0
H297 H 0.67726 0.93935 0.66181 0.0
C298 C 0.43599 0.83318 0.58114 0.0
N299 N 0.42544 0.98366 0.48357 0.0
C300 C 0.40768 0.03677 0.45902 0.0
C301 C 0.44621 0.95039 0.43278 0.0
N302 N 0.41985 0.03712 0.39515 0.0
C303 C 0.44723 0.98343 0.38036 0.0
C304 C 0.60967 0.927 0.51854 0.0
O305 O 0.4767 0.8408 0.62339 0.0
O306 O 0.434 0.87499 0.54144 0.0
O307 O 0.55851 0.9534 0.49894 0.0
O308 O 0.59723 0.90013 0.56971 0.0
O309 O 0.49245 0.03649 0.57063 0.0
H310 H 0.4685 0.90675 0.43366 0.0
H311 H 0.39212 0.07546 0.48706 0.0
O312 O 0.56129 0.99904 0.63372 0.0
O313 O 0.44688 0.93822 0.69018 0.0
O314 O 0.3802 0.96575 0.61879 0.0
C315 C 0.38698 0.95286 0.67647 0.0
H316 H 0.72488 0.85545 0.73195 0.0
H317 H 0.46529 0.96776 0.33366 0.0
Co318 Co 0.5352 0.5097 0.61088 0.0
C319 C 0.49976 0.60464 0.696 0.0
Co320 Co 0.5804 0.5979 0.58291 0.0
C321 C 0.51677 0.37769 0.63702 0.0
C322 C 0.42385 0.42684 0.66236 0.0
N323 N 0.49125 0.43393 0.63678 0.0
N324 N 0.46819 0.33648 0.66237 0.0
C325 C 0.40979 0.36786 0.6783 0.0
H326 H 0.571 0.36766 0.62146 0.0
H327 H 0.3873 0.46278 0.67046 0.0
C328 C 0.62074 0.50698 0.49483 0.0
N329 N 0.62156 0.66902 0.55827 0.0
C330 C 0.65866 0.71045 0.58805 0.0
C331 C 0.62289 0.68808 0.49916 0.0
N332 N 0.68369 0.75397 0.54853 0.0
C333 C 0.66022 0.74 0.49318 0.0
C334 C 0.6592 0.54028 0.66432 0.0
O335 O 0.57976 0.47288 0.53065 0.0
O336 O 0.63094 0.56014 0.51312 0.0
O337 O 0.65242 0.58665 0.63323 0.0
O338 O 0.61907 0.49463 0.65608 0.0
O339 O 0.53043 0.63538 0.65149 0.0
H340 H 0.60008 0.66466 0.46192 0.0
H341 H 0.66939 0.70739 0.63623 0.0
O342 O 0.49434 0.54817 0.68879 0.0
O343 O 0.4513 0.53246 0.56816 0.0
O344 O 0.50849 0.61265 0.53371 0.0
C345 C 0.45412 0.58008 0.53504 0.0
H346 H 0.36085 0.34994 0.70167 0.0
H347 H 0.67125 0.76485 0.45015 0.0
Co348 Co 0.64389 0.46328 1.01193 0.0
C349 C 0.7515 0.44557 0.91381 0.0
Co350 Co 0.61552 0.41904 0.92968 0.0
C351 C 0.65243 0.49794 0.14267 0.0
C352 C 0.70426 0.55888 0.07622 0.0
N353 N 0.67267 0.50436 0.08088 0.0
N354 N 0.66915 0.54672 0.17624 0.0
C355 C 0.70097 0.58531 0.13415 0.0
H356 H 0.62572 0.45839 0.16268 0.0
H357 H 0.72604 0.57934 0.0328 0.0
C358 C 0.49927 0.4437 1.01887 0.0
N359 N 0.59723 0.38828 0.8533 0.0
C360 C 0.59634 0.32935 0.84391 0.0
C361 C 0.63109 0.41009 0.79908 0.0
N362 N 0.63392 0.31322 0.79006 0.0
C363 C 0.65526 0.36389 0.76077 0.0
C364 C 0.66584 0.33804 1.00544 0.0
O365 O 0.5474 0.45229 0.05523 0.0
O366 O 0.51798 0.4265 0.96264 0.0
O367 O 0.62518 0.34167 0.96304 0.0
O368 O 0.67674 0.38506 0.03774 0.0
O369 O 0.70629 0.41015 0.89813 0.0
H370 H 0.64589 0.4562 0.79098 0.0
H371 H 0.57161 0.29776 0.8776 0.0
O372 O 0.73631 0.47706 0.9631 0.0
O373 O 0.61621 0.5374 0.98633 0.0
O374 O 0.61149 0.49726 0.89485 0.0
C375 C 0.61081 0.5431 0.92936 0.0
H376 H 0.72477 0.62788 0.14488 0.0
H377 H 0.6828 0.36733 0.71412 0.0
Co378 Co 0.49422 0.11505 0.99418 0.0
C379 C 0.6219 0.0851 0.03594 0.0
Co380 Co 0.51642 0.02076 0.97997 0.0
C381 C 0.45472 0.22796 0.95321 0.0
C382 C 0.51232 0.23402 0.03325 0.0
N383 N 0.48585 0.19502 0.99427 0.0
N384 N 0.45703 0.2861 0.96723 0.0
C385 C 0.49485 0.28941 1.01691 0.0
H386 H 0.42443 0.20951 0.91778 0.0
H387 H 0.5386 0.22292 0.07335 0.0
C388 C 0.39256 0.05848 0.93744 0.0
N389 N 0.51422 0.93352 0.97945 0.0
C390 C 0.54617 0.88529 0.95033 0.0
C391 C 0.45435 0.90857 1.00949 0.0
N392 N 0.50675 0.83364 0.9604 0.0
C393 C 0.44926 0.8491 0.99735 0.0
C394 C 0.44642 0.0554 0.09733 0.0
O395 O 0.41333 0.10895 0.95362 0.0
O396 O 0.42464 1.01313 0.95238 0.0
O397 O 0.48036 1.01566 0.06578 0.0
O398 O 0.44035 0.10621 0.07327 0.0
O399 O 0.6134 0.03443 1.00799 0.0
H400 H 0.41232 0.9328 0.03527 0.0
H401 H 0.5932 0.8889 0.91746 0.0
O402 O 0.57489 0.12317 0.0349 0.0
O403 O 0.54656 0.12478 0.91675 0.0
O404 O 0.54928 0.03023 0.89102 0.0
C405 C 0.55417 0.08515 0.87484 0.0
H406 H 0.50086 0.3284 0.04575 0.0
H407 H 0.40498 0.81979 1.01256 0.0
loop_
_geom_bond_atom_site_label_1
_geom_bond_atom_site_label_2
_geom_bond_distance
_geom_bond_site_symmetry_2
_ccdc_geom_bond_type
C0 O2 1.247 . S
C0 O4 1.258 1_455 S
C1 O8 1.247 1_455 S
C1 O9 1.258 . S
O2 C0 1.247 . S
O2 Zn3 2.028 . S
Zn3 O2 2.028 . S
Zn3 O7 2.035 . S
Zn3 O9 2.035 . S
Zn3 O10 2.028 . S
O4 C0 1.258 1_655 S
O4 Zn5 2.035 . S
Zn5 O4 2.035 . S
Zn5 O6 2.028 . S
Zn5 O8 2.028 . S
Zn5 O11 2.035 1_655 S
O6 Zn5 2.028 . S
O6 C12 1.247 1_655 S
O7 Zn3 2.035 . S
O7 C12 1.258 . S
O8 C1 1.247 1_655 S
O8 Zn5 2.028 . S
O9 C1 1.258 . S
O9 Zn3 2.035 . S
O10 Zn3 2.028 . S
O10 C13 1.247 . S
O11 Zn5 2.035 1_455 S
O11 C13 1.258 . S
C12 O6 1.247 1_455 S
C12 O7 1.258 . S
C13 O10 1.247 . S
C13 O11 1.258 . S
C14 O16 1.247 . S
C14 O18 1.258 1_455 S
C15 O22 1.247 . S
C15 O23 1.258 1_655 S
O16 C14 1.247 . S
O16 Zn17 2.028 . S
Zn17 O16 2.028 . S
Zn17 O21 2.035 . S
Zn17 O23 2.035 . S
Zn17 O24 2.028 . S
O18 C14 1.258 1_655 S
O18 Zn19 2.035 . S
Zn19 O18 2.035 . S
Zn19 O20 2.028 . S
Zn19 O22 2.028 . S
Zn19 O25 2.035 . S
O20 Zn19 2.028 . S
O20 C26 1.247 . S
O21 Zn17 2.035 . S
O21 C26 1.258 1_455 S
O22 C15 1.247 . S
O22 Zn19 2.028 . S
O23 C15 1.258 1_455 S
O23 Zn17 2.035 . S
O24 Zn17 2.028 . S
O24 C27 1.247 . S
O25 Zn19 2.035 . S
O25 C27 1.258 1_655 S
C26 O20 1.247 . S
C26 O21 1.258 1_655 S
C27 O24 1.247 . S
C27 O25 1.258 1_455 S
C28 O30 1.247 1_545 S
C28 O32 1.258 . S
C29 O36 1.247 1_565 S
C29 O37 1.258 . S
O30 C28 1.247 1_565 S
O30 Zn31 2.028 . S
Zn31 O30 2.028 . S
Zn31 O35 2.035 . S
Zn31 O37 2.035 . S
Zn31 O38 2.028 . S
O32 C28 1.258 . S
O32 Zn33 2.035 . S
Zn33 O32 2.035 . S
Zn33 O34 2.028 . S
Zn33 O36 2.028 . S
Zn33 O39 2.035 . S
O34 Zn33 2.028 . S
O34 C40 1.247 1_545 S
O35 Zn31 2.035 . S
O35 C40 1.258 . S
O36 C29 1.247 1_545 S
O36 Zn33 2.028 . S
O37 C29 1.258 . S
O37 Zn31 2.035 . S
O38 Zn31 2.028 . S
O38 C41 1.247 1_565 S
O39 Zn33 2.035 . S
O39 C41 1.258 . S
C40 O34 1.247 1_565 S
C40 O35 1.258 . S
C41 O38 1.247 1_545 S
C41 O39 1.258 . S
C42 O44 1.247 . S
C42 O46 1.258 . S
C43 O50 1.247 . S
C43 O51 1.258 . S
O44 C42 1.247 . S
O44 Zn45 2.028 . S
Zn45 O44 2.028 . S
Zn45 O49 2.035 . S
Zn45 O51 2.035 . S
Zn45 O52 2.028 . S
O46 C42 1.258 . S
O46 Zn47 2.035 . S
Zn47 O46 2.035 . S
Zn47 O48 2.028 . S
Zn47 O50 2.028 . S
Zn47 O53 2.035 . S
O48 Zn47 2.028 . S
O48 C54 1.247 . S
O49 Zn45 2.035 . S
O49 C54 1.258 . S
O50 C43 1.247 . S
O50 Zn47 2.028 . S
O51 C43 1.258 . S
O51 Zn45 2.035 . S
O52 Zn45 2.028 . S
O52 C55 1.247 . S
O53 Zn47 2.035 . S
O53 C55 1.258 . S
C54 O48 1.247 . S
C54 O49 1.258 . S
C55 O52 1.247 . S
C55 O53 1.258 . S
C56 O58 1.247 1_554 S
C56 O60 1.258 . S
C57 O64 1.247 . S
C57 O65 1.258 1_554 S
O58 C56 1.247 1_556 S
O58 Zn59 2.028 . S
Zn59 O58 2.028 . S
Zn59 O63 2.035 . S
Zn59 O65 2.035 . S
Zn59 O66 2.028 . S
O60 C56 1.258 . S
O60 Zn61 2.035 . S
Zn61 O60 2.035 . S
Zn61 O62 2.028 . S
Zn61 O64 2.028 . S
Zn61 O67 2.035 . S
O62 Zn61 2.028 . S
O62 C68 1.247 . S
O63 Zn59 2.035 . S
O63 C68 1.258 1_556 S
O64 C57 1.247 . S
O64 Zn61 2.028 . S
O65 C57 1.258 1_556 S
O65 Zn59 2.035 . S
O66 Zn59 2.028 . S
O66 C69 1.247 1_556 S
O67 Zn61 2.035 . S
O67 C69 1.258 . S
C68 O62 1.247 . S
C68 O63 1.258 1_554 S
C69 O66 1.247 1_554 S
C69 O67 1.258 . S
C70 O72 1.247 . S
C70 O74 1.258 . S
C71 O78 1.247 . S
C71 O79 1.258 . S
O72 C70 1.247 . S
O72 Zn73 2.028 . S
Zn73 O72 2.028 . S
Zn73 O77 2.035 . S
Zn73 O79 2.035 . S
Zn73 O80 2.028 . S
O74 C70 1.258 . S
O74 Zn75 2.035 . S
Zn75 O74 2.035 . S
Zn75 O76 2.028 . S
Zn75 O78 2.028 . S
Zn75 O81 2.035 . S
O76 Zn75 2.028 . S
O76 C82 1.247 . S
O77 Zn73 2.035 . S
O77 C82 1.258 . S
O78 C71 1.247 . S
O78 Zn75 2.028 . S
O79 C71 1.258 . S
O79 Zn73 2.035 . S
O80 Zn73 2.028 . S
O80 C83 1.247 . S
O81 Zn75 2.035 . S
O81 C83 1.258 . S
C82 O76 1.247 . S
C82 O77 1.258 . S
C83 O80 1.247 . S
C83 O81 1.258 . S
C84 O86 1.247 . S
C84 O88 1.258 . S
C85 O92 1.247 . S
C85 O93 1.258 . S
O86 C84 1.247 . S
O86 Zn87 2.028 . S
Zn87 O86 2.028 . S
Zn87 O91 2.035 . S
Zn87 O93 2.035 . S
Zn87 O94 2.028 . S
O88 C84 1.258 . S
O88 Zn89 2.035 . S
Zn89 O88 2.035 . S
Zn89 O90 2.028 . S
Zn89 O92 2.028 . S
Zn89 O95 2.035 . S
O90 Zn89 2.028 . S
O90 C96 1.247 . S
O91 Zn87 2.035 . S
O91 C96 1.258 . S
O92 C85 1.247 . S
O92 Zn89 2.028 . S
O93 C85 1.258 . S
O93 Zn87 2.035 . S
O94 Zn87 2.028 . S
O94 C97 1.247 . S
O95 Zn89 2.035 . S
O95 C97 1.258 . S
C96 O90 1.247 . S
C96 O91 1.258 . S
C97 O94 1.247 . S
C97 O95 1.258 . S
C98 O100 1.247 . S
C98 O102 1.258 . S
C99 O106 1.247 . S
C99 O107 1.258 . S
O100 C98 1.247 . S
O100 Zn101 2.028 . S
Zn101 O100 2.028 . S
Zn101 O105 2.035 . S
Zn101 O107 2.035 . S
Zn101 O108 2.028 . S
O102 C98 1.258 . S
O102 Zn103 2.035 . S
Zn103 O102 2.035 . S
Zn103 O104 2.028 . S
Zn103 O106 2.028 . S
Zn103 O109 2.035 . S
O104 Zn103 2.028 . S
O104 C110 1.247 . S
O105 Zn101 2.035 . S
O105 C110 1.258 . S
O106 C99 1.247 . S
O106 Zn103 2.028 . S
O107 C99 1.258 . S
O107 Zn101 2.035 . S
O108 Zn101 2.028 . S
O108 C111 1.247 . S
O109 Zn103 2.035 . S
O109 C111 1.258 . S
C110 O104 1.247 . S
C110 O105 1.258 . S
C111 O108 1.247 . S
C111 O109 1.258 . S
C112 O114 1.247 . S
C112 O116 1.258 . S
C113 O120 1.247 . S
C113 O121 1.258 . S
O114 C112 1.247 . S
O114 Zn115 2.028 . S
Zn115 O114 2.028 . S
Zn115 O119 2.035 . S
Zn115 O121 2.035 . S
Zn115 O122 2.028 . S
O116 C112 1.258 . S
O116 Zn117 2.035 . S
Zn117 O116 2.035 . S
Zn117 O118 2.028 . S
Zn117 O120 2.028 . S
Zn117 O123 2.035 . S
O118 Zn117 2.028 . S
O118 C124 1.247 . S
O119 Zn115 2.035 . S
O119 C124 1.258 . S
O120 C113 1.247 . S
O120 Zn117 2.028 . S
O121 C113 1.258 . S
O121 Zn115 2.035 . S
O122 Zn115 2.028 . S
O122 C125 1.247 . S
O123 Zn117 2.035 . S
O123 C125 1.258 . S
C124 O118 1.247 . S
C124 O119 1.258 . S
C125 O122 1.247 . S
C125 O123 1.258 . S
C126 O128 1.247 . S
C126 O130 1.258 . S
C127 O134 1.247 . S
C127 O135 1.258 . S
O128 C126 1.247 . S
O128 Zn129 2.028 . S
Zn129 O128 2.028 . S
Zn129 O133 2.035 . S
Zn129 O135 2.035 . S
Zn129 O136 2.028 . S
O130 C126 1.258 . S
O130 Zn131 2.035 . S
Zn131 O130 2.035 . S
Zn131 O132 2.028 . S
Zn131 O134 2.028 . S
Zn131 O137 2.035 . S
O132 Zn131 2.028 . S
O132 C138 1.247 . S
O133 Zn129 2.035 . S
O133 C138 1.258 . S
O134 C127 1.247 . S
O134 Zn131 2.028 . S
O135 C127 1.258 . S
O135 Zn129 2.035 . S
O136 Zn129 2.028 . S
O136 C139 1.247 . S
O137 Zn131 2.035 . S
O137 C139 1.258 . S
C138 O132 1.247 . S
C138 O133 1.258 . S
C139 O136 1.247 . S
C139 O137 1.258 . S
C140 O142 1.247 . S
C140 O144 1.258 1_565 S
C141 O148 1.247 . S
C141 O149 1.258 1_545 S
O142 C140 1.247 . S
O142 Zn143 2.028 . S
Zn143 O142 2.028 . S
Zn143 O147 2.035 . S
Zn143 O149 2.035 . S
Zn143 O150 2.028 . S
O144 C140 1.258 1_545 S
O144 Zn145 2.035 . S
Zn145 O144 2.035 . S
Zn145 O146 2.028 . S
Zn145 O148 2.028 . S
Zn145 O151 2.035 . S
O146 Zn145 2.028 . S
O146 C152 1.247 . S
O147 Zn143 2.035 . S
O147 C152 1.258 1_565 S
O148 C141 1.247 . S
O148 Zn145 2.028 . S
O149 C141 1.258 1_565 S
O149 Zn143 2.035 . S
O150 Zn143 2.028 . S
O150 C153 1.247 . S
O151 Zn145 2.035 . S
O151 C153 1.258 1_545 S
C152 O146 1.247 . S
C152 O147 1.258 1_545 S
C153 O150 1.247 . S
C153 O151 1.258 1_565 S
C154 O156 1.247 1_556 S
C154 O158 1.258 . S
C155 O162 1.247 1_554 S
C155 O163 1.258 . S
O156 C154 1.247 1_554 S
O156 Zn157 2.028 . S
Zn157 O156 2.028 . S
Zn157 O161 2.035 . S
Zn157 O163 2.035 . S
Zn157 O164 2.028 . S
O158 C154 1.258 . S
O158 Zn159 2.035 . S
Zn159 O158 2.035 . S
Zn159 O160 2.028 . S
Zn159 O162 2.028 . S
Zn159 O165 2.035 . S
O160 Zn159 2.028 . S
O160 C166 1.247 1_556 S
O161 Zn157 2.035 . S
O161 C166 1.258 . S
O162 C155 1.247 1_556 S
O162 Zn159 2.028 . S
O163 C155 1.258 . S
O163 Zn157 2.035 . S
O164 Zn157 2.028 . S
O164 C167 1.247 1_554 S
O165 Zn159 2.035 . S
O165 C167 1.258 . S
C166 O160 1.247 1_554 S
C166 O161 1.258 . S
C167 O164 1.247 1_556 S
C167 O165 1.258 . S
Co168 N173 2.057 1_455 S
Co168 O185 2.021 1_554 S
Co168 O188 2.062 . S
Co168 O192 2.117 1_465 S
Co168 O193 2.020 1_465 S
C169 O189 1.259 1_655 S
C169 O192 1.258 . S
Co170 N179 2.057 . S
Co170 O186 2.117 1_554 S
Co170 O187 2.020 . S
Co170 O189 2.021 . S
Co170 O194 2.062 1_455 S
C171 N173 1.316 . S
C171 N174 1.347 . S
C171 H176 0.931 . S
C172 N173 1.375 . S
C172 C175 1.350 . S
C172 H177 0.930 . S
N173 Co168 2.057 1_655 S
N173 C171 1.316 . S
N173 C172 1.375 . S
N174 C171 1.347 . S
N174 C175 1.373 . S
C175 C172 1.350 . S
C175 N174 1.373 . S
C175 H196 0.931 . S
H176 C171 0.931 . S
H177 C172 0.930 . S
C178 O185 1.259 . S
C178 O186 1.258 1_565 S
N179 Co170 2.057 . S
N179 C180 1.316 . S
N179 C181 1.375 1_554 S
C180 N179 1.316 . S
C180 N182 1.347 1_554 S
C180 H191 0.931 . S
C181 N179 1.375 1_556 S
C181 C183 1.350 . S
C181 H190 0.930 . S
N182 C180 1.347 1_556 S
N182 C183 1.373 . S
C183 C181 1.350 . S
C183 N182 1.373 . S
C183 H197 0.931 . S
C184 O187 1.256 1_565 S
C184 O188 1.255 . S
O185 Co168 2.021 1_556 S
O185 C178 1.259 . S
O186 Co170 2.117 1_556 S
O186 C178 1.258 1_545 S
O187 Co170 2.020 . S
O187 C184 1.256 1_545 S
O188 Co168 2.062 . S
O188 C184 1.255 . S
O189 C169 1.259 1_455 S
O189 Co170 2.021 . S
H190 C181 0.930 . S
H191 C180 0.931 . S
O192 Co168 2.117 1_645 S
O192 C169 1.258 . S
O193 Co168 2.020 1_645 S
O193 C195 1.256 . S
O194 Co170 2.062 1_655 S
O194 C195 1.255 . S
C195 O193 1.256 . S
C195 O194 1.255 . S
H196 C175 0.931 . S
H197 C183 0.931 . S
Co198 N203 2.057 1_655 S
Co198 O215 2.021 . S
Co198 O218 2.062 1_655 S
Co198 O222 2.117 1_655 S
Co198 O223 2.020 . S
C199 O219 1.259 1_455 S
C199 O222 1.258 . S
Co200 N209 2.057 1_554 S
Co200 O216 2.117 . S
Co200 O217 2.020 1_654 S
Co200 O219 2.021 . S
Co200 O224 2.062 . S
C201 N203 1.316 . S
C201 N204 1.347 . S
C201 H206 0.931 1_455 S
C202 N203 1.375 . S
C202 C205 1.350 . S
C202 H207 0.930 . S
N203 Co198 2.057 1_455 S
N203 C201 1.316 . S
N203 C202 1.375 . S
N204 C201 1.347 . S
N204 C205 1.373 . S
C205 C202 1.350 . S
C205 N204 1.373 . S
C205 H226 0.931 . S
H206 C201 0.931 1_655 S
H207 C202 0.930 . S
C208 O215 1.259 . S
C208 O216 1.258 . S
N209 Co200 2.057 1_556 S
N209 C210 1.316 . S
N209 C211 1.375 . S
C210 N209 1.316 . S
C210 N212 1.347 . S
C210 H221 0.931 . S
C211 N209 1.375 . S
C211 C213 1.350 . S
C211 H220 0.930 . S
N212 C210 1.347 . S
N212 C213 1.373 . S
C213 C211 1.350 . S
C213 N212 1.373 . S
C213 H227 0.931 . S
C214 O217 1.256 1_554 S
C214 O218 1.255 . S
O215 Co198 2.021 . S
O215 C208 1.259 . S
O216 Co200 2.117 . S
O216 C208 1.258 . S
O217 Co200 2.020 1_456 S
O217 C214 1.256 1_556 S
O218 Co198 2.062 1_455 S
O218 C214 1.255 . S
O219 C199 1.259 1_655 S
O219 Co200 2.021 . S
H220 C211 0.930 . S
H221 C210 0.931 . S
O222 Co198 2.117 1_455 S
O222 C199 1.258 . S
O223 Co198 2.020 . S
O223 C225 1.256 . S
O224 Co200 2.062 . S
O224 C225 1.255 . S
C225 O223 1.256 . S
C225 O224 1.255 . S
H226 C205 0.931 . S
H227 C213 0.931 . S
Co228 N233 2.057 1_565 S
Co228 O245 2.021 1_455 S
Co228 O248 2.062 . S
Co228 O252 2.117 . S
Co228 O253 2.020 1_565 S
C229 O249 1.259 . S
C229 O252 1.258 . S
Co230 N239 2.057 1_455 S
Co230 O246 2.117 1_455 S
Co230 O247 2.020 . S
Co230 O249 2.021 . S
Co230 O254 2.062 . S
C231 N233 1.316 . S
C231 N234 1.347 . S
C231 H236 0.931 1_545 S
C232 N233 1.375 . S
C232 C235 1.350 . S
C232 H237 0.930 . S
N233 Co228 2.057 1_545 S
N233 C231 1.316 . S
N233 C232 1.375 . S
N234 C231 1.347 . S
N234 C235 1.373 . S
C235 C232 1.350 . S
C235 N234 1.373 . S
C235 H256 0.931 . S
H236 C231 0.931 1_565 S
H237 C232 0.930 . S
C238 O245 1.259 . S
C238 O246 1.258 . S
N239 Co230 2.057 1_655 S
N239 C240 1.316 1_655 S
N239 C241 1.375 . S
C240 N239 1.316 1_455 S
C240 N242 1.347 1_455 S
C240 H251 0.931 . S
C241 N239 1.375 . S
C241 C243 1.350 . S
C241 H250 0.930 . S
N242 C240 1.347 1_655 S
N242 C243 1.373 . S
C243 C241 1.350 . S
C243 N242 1.373 . S
C243 H257 0.931 . S
C244 O247 1.256 . S
C244 O248 1.255 . S
O245 Co228 2.021 1_655 S
O245 C238 1.259 . S
O246 Co230 2.117 1_655 S
O246 C238 1.258 . S
O247 Co230 2.020 . S
O247 C244 1.256 . S
O248 Co228 2.062 . S
O248 C244 1.255 . S
O249 C229 1.259 . S
O249 Co230 2.021 . S
H250 C241 0.930 . S
H251 C240 0.931 . S
O252 Co228 2.117 . S
O252 C229 1.258 . S
O253 Co228 2.020 1_545 S
O253 C255 1.256 . S
O254 Co230 2.062 . S
O254 C255 1.255 1_565 S
C255 O253 1.256 . S
C255 O254 1.255 1_545 S
H256 C235 0.931 . S
H257 C243 0.931 . S
Co258 N263 2.057 . S
Co258 O275 2.021 . S
Co258 O278 2.062 . S
Co258 O282 2.117 1_655 S
Co258 O283 2.020 . S
C259 O279 1.259 . S
C259 O282 1.258 . S
Co260 N269 2.057 . S
Co260 O276 2.117 1_455 S
Co260 O277 2.020 1_455 S
Co260 O279 2.020 . S
Co260 O284 2.061 . S
C261 N263 1.316 . S
C261 N264 1.347 . S
C261 H266 0.931 . S
C262 N263 1.375 . S
C262 C265 1.350 . S
C262 H267 0.930 1_655 S
N263 Co258 2.057 . S
N263 C261 1.316 . S
N263 C262 1.375 . S
N264 C261 1.347 . S
N264 C265 1.373 . S
C265 C262 1.350 . S
C265 N264 1.373 . S
C265 H286 0.931 . S
H266 C261 0.931 . S
H267 C262 0.930 1_455 S
C268 O275 1.259 . S
C268 O276 1.258 . S
N269 Co260 2.057 . S
N269 C270 1.316 . S
N269 C271 1.375 1_455 S
C270 N269 1.316 . S
C270 N272 1.347 . S
C270 H281 0.931 . S
C271 N269 1.375 1_655 S
C271 C273 1.350 1_655 S
C271 H280 0.930 . S
N272 C270 1.347 . S
N272 C273 1.373 . S
C273 C271 1.350 1_455 S
C273 N272 1.373 . S
C273 H287 0.931 1_455 S
C274 O277 1.256 . S
C274 O278 1.255 . S
O275 Co258 2.021 . S
O275 C268 1.259 . S
O276 Co260 2.117 1_655 S
O276 C268 1.258 . S
O277 Co260 2.020 1_655 S
O277 C274 1.256 . S
O278 Co258 2.062 . S
O278 C274 1.255 . S
O279 C259 1.259 . S
O279 Co260 2.020 . S
H280 C271 0.930 . S
H281 C270 0.931 . S
O282 Co258 2.117 1_455 S
O282 C259 1.258 . S
O283 Co258 2.020 . S
O283 C285 1.256 1_655 S
O284 Co260 2.061 . S
O284 C285 1.255 . S
C285 O283 1.256 1_455 S
C285 O284 1.255 . S
H286 C265 0.931 . S
H287 C273 0.931 1_655 S
Co288 N293 2.057 . S
Co288 O305 2.021 . S
Co288 O308 2.062 . S
Co288 O312 2.117 . S
Co288 O313 2.020 . S
C289 O309 1.259 . S
C289 O312 1.258 1_545 S
Co290 N299 2.057 . S
Co290 O306 2.117 . S
Co290 O307 2.020 . S
Co290 O309 2.021 1_565 S
Co290 O314 2.062 . S
C291 N293 1.316 . S
C291 N294 1.347 . S
C291 H296 0.931 . S
C292 N293 1.375 . S
C292 C295 1.350 . S
C292 H297 0.930 . S
N293 Co288 2.057 . S
N293 C291 1.316 . S
N293 C292 1.375 . S
N294 C291 1.347 . S
N294 C295 1.373 . S
C295 C292 1.350 . S
C295 N294 1.373 . S
C295 H316 0.931 . S
H296 C291 0.931 . S
H297 C292 0.930 . S
C298 O305 1.259 . S
C298 O306 1.258 . S
N299 Co290 2.057 . S
N299 C300 1.316 1_565 S
N299 C301 1.375 . S
C300 N299 1.316 1_545 S
C300 N302 1.347 . S
C300 H311 0.931 . S
C301 N299 1.375 . S
C301 C303 1.350 . S
C301 H310 0.930 . S
N302 C300 1.347 . S
N302 C303 1.373 1_545 S
C303 C301 1.350 . S
C303 N302 1.373 1_565 S
C303 H317 0.931 . S
C304 O307 1.256 . S
C304 O308 1.255 . S
O305 Co288 2.021 . S
O305 C298 1.259 . S
O306 Co290 2.117 . S
O306 C298 1.258 . S
O307 Co290 2.020 . S
O307 C304 1.256 . S
O308 Co288 2.062 . S
O308 C304 1.255 . S
O309 C289 1.259 . S
O309 Co290 2.021 1_545 S
H310 C301 0.930 . S
H311 C300 0.931 . S
O312 Co288 2.117 . S
O312 C289 1.258 1_565 S
O313 Co288 2.020 . S
O313 C315 1.256 . S
O314 Co290 2.062 . S
O314 C315 1.255 . S
C315 O313 1.256 . S
C315 O314 1.255 . S
H316 C295 0.931 . S
H317 C303 0.931 . S
Co318 N323 2.057 . S
Co318 O335 2.021 . S
Co318 O338 2.062 . S
Co318 O342 2.117 . S
Co318 O343 2.020 . S
C319 O339 1.259 . S
C319 O342 1.258 . S
Co320 N329 2.057 . S
Co320 O336 2.117 . S
Co320 O337 2.020 . S
Co320 O339 2.021 . S
Co320 O344 2.062 . S
C321 N323 1.316 . S
C321 N324 1.347 . S
C321 H326 0.931 . S
C322 N323 1.375 . S
C322 C325 1.350 . S
C322 H327 0.930 . S
N323 Co318 2.057 . S
N323 C321 1.316 . S
N323 C322 1.375 . S
N324 C321 1.347 . S
N324 C325 1.373 . S
C325 C322 1.350 . S
C325 N324 1.373 . S
C325 H346 0.931 . S
H326 C321 0.931 . S
H327 C322 0.930 . S
C328 O335 1.259 . S
C328 O336 1.258 . S
N329 Co320 2.057 . S
N329 C330 1.316 . S
N329 C331 1.375 . S
C330 N329 1.316 . S
C330 N332 1.347 . S
C330 H341 0.931 . S
C331 N329 1.375 . S
C331 C333 1.350 . S
C331 H340 0.930 . S
N332 C330 1.347 . S
N332 C333 1.373 . S
C333 C331 1.350 . S
C333 N332 1.373 . S
C333 H347 0.931 . S
C334 O337 1.256 . S
C334 O338 1.255 . S
O335 Co318 2.021 . S
O335 C328 1.259 . S
O336 Co320 2.117 . S
O336 C328 1.258 . S
O337 Co320 2.020 . S
O337 C334 1.256 . S
O338 Co318 2.062 . S
O338 C334 1.255 . S
O339 C319 1.259 . S
O339 Co320 2.021 . S
H340 C331 0.930 . S
H341 C330 0.931 . S
O342 Co318 2.117 . S
O342 C319 1.258 . S
O343 Co318 2.020 . S
O343 C345 1.256 . S
O344 Co320 2.062 . S
O344 C345 1.255 . S
C345 O343 1.256 . S
C345 O344 1.255 . S
H346 C325 0.931 . S
H347 C333 0.931 . S
Co348 N353 2.057 1_556 S
Co348 O365 2.021 1_556 S
Co348 O368 2.062 1_556 S
Co348 O372 2.117 . S
Co348 O373 2.020 . S
C349 O369 1.259 . S
C349 O372 1.258 . S
Co350 N359 2.057 . S
Co350 O366 2.117 . S
Co350 O367 2.020 . S
Co350 O369 2.021 . S
Co350 O374 2.062 . S
C351 N353 1.316 . S
C351 N354 1.347 . S
C351 H356 0.931 . S
C352 N353 1.375 . S
C352 C355 1.350 . S
C352 H357 0.930 . S
N353 Co348 2.057 1_554 S
N353 C351 1.316 . S
N353 C352 1.375 . S
N354 C351 1.347 . S
N354 C355 1.373 . S
C355 C352 1.350 . S
C355 N354 1.373 . S
C355 H376 0.931 . S
H356 C351 0.931 . S
H357 C352 0.930 . S
C358 O365 1.259 . S
C358 O366 1.258 1_554 S
N359 Co350 2.057 . S
N359 C360 1.316 . S
N359 C361 1.375 . S
C360 N359 1.316 . S
C360 N362 1.347 . S
C360 H371 0.931 . S
C361 N359 1.375 . S
C361 C363 1.350 . S
C361 H370 0.930 . S
N362 C360 1.347 . S
N362 C363 1.373 . S
C363 C361 1.350 . S
C363 N362 1.373 . S
C363 H377 0.931 . S
C364 O367 1.256 . S
C364 O368 1.255 1_556 S
O365 Co348 2.021 1_554 S
O365 C358 1.259 . S
O366 Co350 2.117 . S
O366 C358 1.258 1_556 S
O367 Co350 2.020 . S
O367 C364 1.256 . S
O368 Co348 2.062 1_554 S
O368 C364 1.255 1_554 S
O369 C349 1.259 . S
O369 Co350 2.021 . S
H370 C361 0.930 . S
H371 C360 0.931 . S
O372 Co348 2.117 . S
O372 C349 1.258 . S
O373 Co348 2.020 . S
O373 C375 1.256 . S
O374 Co350 2.062 . S
O374 C375 1.255 . S
C375 O373 1.256 . S
C375 O374 1.255 . S
H376 C355 0.931 . S
H377 C363 0.931 . S
Co378 N383 2.057 . S
Co378 O395 2.021 . S
Co378 O398 2.062 1_556 S
Co378 O402 2.117 . S
Co378 O403 2.020 . S
C379 O399 1.259 1_554 S
C379 O402 1.258 1_554 S
Co380 N389 2.057 . S
Co380 O396 2.117 . S
Co380 O397 2.020 1_556 S
Co380 O399 2.021 1_565 S
Co380 O404 2.062 1_565 S
C381 N383 1.316 1_554 S
C381 N384 1.347 . S
C381 H386 0.930 1_554 S
C382 N383 1.375 1_554 S
C382 C385 1.350 . S
C382 H387 0.930 . S
N383 Co378 2.057 . S
N383 C381 1.316 1_556 S
N383 C382 1.375 1_556 S
N384 C381 1.347 . S
N384 C385 1.373 . S
C385 C382 1.350 . S
C385 N384 1.373 . S
C385 H406 0.931 . S
H386 C381 0.930 1_556 S
H387 C382 0.930 . S
C388 O395 1.259 . S
C388 O396 1.258 1_545 S
N389 Co380 2.057 . S
N389 C390 1.316 . S
N389 C391 1.375 . S
C390 N389 1.316 . S
C390 N392 1.347 . S
C390 H401 0.931 . S
C391 N389 1.375 . S
C391 C393 1.350 . S
C391 H400 0.930 . S
N392 C390 1.347 . S
N392 C393 1.373 . S
C393 C391 1.350 . S
C393 N392 1.373 . S
C393 H407 0.931 . S
C394 O397 1.256 1_545 S
C394 O398 1.255 . S
O395 Co378 2.021 . S
O395 C388 1.259 . S
O396 Co380 2.117 . S
O396 C388 1.258 1_565 S
O397 Co380 2.020 1_554 S
O397 C394 1.256 1_565 S
O398 Co378 2.062 1_554 S
O398 C394 1.255 . S
O399 C379 1.259 1_556 S
O399 Co380 2.021 1_545 S
H400 C391 0.930 . S
H401 C390 0.931 . S
O402 Co378 2.117 . S
O402 C379 1.258 1_556 S
O403 Co378 2.020 . S
O403 C405 1.256 . S
O404 Co380 2.062 1_545 S
O404 C405 1.255 . S
C405 O403 1.256 . S
C405 O404 1.255 . S
H406 C385 0.931 . S
H407 C393 0.931 . S
C13 C255 1.932 . S
N272 C1 2.037 . S
N174 C27 2.462 1_655 S
C15 C199 1.317 1_655 S
C28 C394 2.066 . S
C55 N354 2.012 . S
N302 C40 2.036 1_545 S
C43 C328 2.190 . S
C214 C56 2.432 . S
C259 C83 2.153 . S
C96 C238 2.372 . S
C71 C345 2.233 . S
C375 C99 1.932 . S
N392 C111 2.037 . S
C113 N324 2.462 . S
C289 C125 1.318 . S
C139 C274 2.070 . S
C153 N234 2.012 1_565 S
N212 C127 2.042 . S
C141 C178 2.190 1_545 S
C304 C84 2.432 . S
C379 C154 2.151 1_554 S
C68 C358 2.372 . S
C166 C195 2.229 . S
C169 C0 2.233 1_655 S
C12 N204 1.900 . S
N242 C14 2.046 1_655 S
C285 C26 2.469 1_455 S
C41 C184 1.960 1_545 S
C42 C225 2.116 . S
C229 C29 1.840 . S
C54 C268 1.824 . S
C69 N182 1.466 1_554 S
C244 C70 2.268 . S
C85 N264 1.221 . S
C82 C298 1.870 . S
C319 C110 2.233 . S
C98 N294 1.900 . S
C124 N362 2.046 . S
C112 C405 2.469 . S
C126 C334 1.965 . S
C315 C140 2.116 . S
C138 C349 1.837 . S
C388 C152 1.824 . S
N332 C97 1.466 . S
C364 C167 2.268 . S
N384 C57 1.221 . S
C155 C208 1.869 . S
