# Generated by pormake.
# Topology ocu, (6,8)-cn, num edge types: 1
# Building blocks:
#     Node 0, Type 0, BuildingBlock: JUFBIX_clean_sbu_0, # of connection points: 6
#     Node 1, Type 0, BuildingBlock: JUFBIX_clean_sbu_0, # of connection points: 6
#     Node 2, Type 0, BuildingBlock: JUFBIX_clean_sbu_0, # of connection points: 6
#     Node 3, Type 0, BuildingBlock: JUFBIX_clean_sbu_0, # of connection points: 6
#     Node 4, Type 0, BuildingBlock: JUFBIX_clean_sbu_0, # of connection points: 6
#     Node 5, Type 0, BuildingBlock: JUFBIX_clean_sbu_0, # of connection points: 6
#     Node 6, Type 0, BuildingBlock: JUFBIX_clean_sbu_0, # of connection points: 6
#     Node 7, Type 0, BuildingBlock: JUFBIX_clean_sbu_0, # of connection points: 6
#     Node 8, Type 1, BuildingBlock: TAGTUT_clean_sbu_1, # of connection points: 8
#     Node 9, Type 1, BuildingBlock: TAGTUT_clean_sbu_1, # of connection points: 8
#     Node 10, Type 1, BuildingBlock: TAGTUT_clean_sbu_1, # of connection points: 8
#     Node 11, Type 1, BuildingBlock: TAGTUT_clean_sbu_1, # of connection points: 8
#     Node 12, Type 1, BuildingBlock: TAGTUT_clean_sbu_1, # of connection points: 8
#     Node 13, Type 1, BuildingBlock: TAGTUT_clean_sbu_1, # of connection points: 8
#     Edge 14, Type (0, 1), BuildingBlock: ZUJKAS_clean_linker_0, # of connection points: 2
#     Edge 15, Type (0, 1), BuildingBlock: ZUJKAS_clean_linker_0, # of connection points: 2
#     Edge 16, Type (0, 1), BuildingBlock: ZUJKAS_clean_linker_0, # of connection points: 2
#     Edge 17, Type (0, 1), BuildingBlock: ZUJKAS_clean_linker_0, # of connection points: 2
#     Edge 18, Type (0, 1), BuildingBlock: ZUJKAS_clean_linker_0, # of connection points: 2
#     Edge 19, Type (0, 1), BuildingBlock: ZUJKAS_clean_linker_0, # of connection points: 2
#     Edge 20, Type (0, 1), BuildingBlock: ZUJKAS_clean_linker_0, # of connection points: 2
#     Edge 21, Type (0, 1), BuildingBlock: ZUJKAS_clean_linker_0, # of connection points: 2
#     Edge 22, Type (0, 1), BuildingBlock: ZUJKAS_clean_linker_0, # of connection points: 2
#     Edge 23, Type (0, 1), BuildingBlock: ZUJKAS_clean_linker_0, # of connection points: 2
#     Edge 24, Type (0, 1), BuildingBlock: ZUJKAS_clean_linker_0, # of connection points: 2
#     Edge 25, Type (0, 1), BuildingBlock: ZUJKAS_clean_linker_0, # of connection points: 2
#     Edge 26, Type (0, 1), BuildingBlock: ZUJKAS_clean_linker_0, # of connection points: 2
#     Edge 27, Type (0, 1), BuildingBlock: ZUJKAS_clean_linker_0, # of connection points: 2
#     Edge 28, Type (0, 1), BuildingBlock: ZUJKAS_clean_linker_0, # of connection points: 2
#     Edge 29, Type (0, 1), BuildingBlock: ZUJKAS_clean_linker_0, # of connection points: 2
#     Edge 30, Type (0, 1), BuildingBlock: ZUJKAS_clean_linker_0, # of connection points: 2
#     Edge 31, Type (0, 1), BuildingBlock: ZUJKAS_clean_linker_0, # of connection points: 2
#     Edge 32, Type (0, 1), BuildingBlock: ZUJKAS_clean_linker_0, # of connection points: 2
#     Edge 33, Type (0, 1), BuildingBlock: ZUJKAS_clean_linker_0, # of connection points: 2
#     Edge 34, Type (0, 1), BuildingBlock: ZUJKAS_clean_linker_0, # of connection points: 2
#     Edge 35, Type (0, 1), BuildingBlock: ZUJKAS_clean_linker_0, # of connection points: 2
#     Edge 36, Type (0, 1), BuildingBlock: ZUJKAS_clean_linker_0, # of connection points: 2
#     Edge 37, Type (0, 1), BuildingBlock: ZUJKAS_clean_linker_0, # of connection points: 2
#     Edge 38, Type (0, 1), BuildingBlock: ZUJKAS_clean_linker_0, # of connection points: 2
#     Edge 39, Type (0, 1), BuildingBlock: ZUJKAS_clean_linker_0, # of connection points: 2
#     Edge 40, Type (0, 1), BuildingBlock: ZUJKAS_clean_linker_0, # of connection points: 2
#     Edge 41, Type (0, 1), BuildingBlock: ZUJKAS_clean_linker_0, # of connection points: 2
#     Edge 42, Type (0, 1), BuildingBlock: ZUJKAS_clean_linker_0, # of connection points: 2
#     Edge 43, Type (0, 1), BuildingBlock: ZUJKAS_clean_linker_0, # of connection points: 2
#     Edge 44, Type (0, 1), BuildingBlock: ZUJKAS_clean_linker_0, # of connection points: 2
#     Edge 45, Type (0, 1), BuildingBlock: ZUJKAS_clean_linker_0, # of connection points: 2
#     Edge 46, Type (0, 1), BuildingBlock: ZUJKAS_clean_linker_0, # of connection points: 2
#     Edge 47, Type (0, 1), BuildingBlock: ZUJKAS_clean_linker_0, # of connection points: 2
#     Edge 48, Type (0, 1), BuildingBlock: ZUJKAS_clean_linker_0, # of connection points: 2
#     Edge 49, Type (0, 1), BuildingBlock: ZUJKAS_clean_linker_0, # of connection points: 2
#     Edge 50, Type (0, 1), BuildingBlock: ZUJKAS_clean_linker_0, # of connection points: 2
#     Edge 51, Type (0, 1), BuildingBlock: ZUJKAS_clean_linker_0, # of connection points: 2
#     Edge 52, Type (0, 1), BuildingBlock: ZUJKAS_clean_linker_0, # of connection points: 2
#     Edge 53, Type (0, 1), BuildingBlock: ZUJKAS_clean_linker_0, # of connection points: 2
#     Edge 54, Type (0, 1), BuildingBlock: ZUJKAS_clean_linker_0, # of connection points: 2
#     Edge 55, Type (0, 1), BuildingBlock: ZUJKAS_clean_linker_0, # of connection points: 2
#     Edge 56, Type (0, 1), BuildingBlock: ZUJKAS_clean_linker_0, # of connection points: 2
#     Edge 57, Type (0, 1), BuildingBlock: ZUJKAS_clean_linker_0, # of connection points: 2
#     Edge 58, Type (0, 1), BuildingBlock: ZUJKAS_clean_linker_0, # of connection points: 2
#     Edge 59, Type (0, 1), BuildingBlock: ZUJKAS_clean_linker_0, # of connection points: 2
#     Edge 60, Type (0, 1), BuildingBlock: ZUJKAS_clean_linker_0, # of connection points: 2
#     Edge 61, Type (0, 1), BuildingBlock: ZUJKAS_clean_linker_0, # of connection points: 2
# Relax obj value: 0.171
# Max RMSD: 0.304
# Mean RMSD: 0.184
data_MOF--net-ocu--node1-JUFBIX_clean_sbu_0--node2-TAGTUT_clean_sbu_1--edge1-ZUJKAS_clean_linker_0
_symmetry_space_group_name_H-M    P1
_symmetry_Int_Tables_number       1
_symmetry_cell_setting            triclinic
loop_
_symmetry_equiv_pos_as_xyz
'x, y, z'
_cell_length_a     47.736344
_cell_length_b     46.127215
_cell_length_c     49.918633
_cell_angle_alpha  92.879019
_cell_angle_beta   95.0328
_cell_angle_gamma 99.489474
loop_
_atom_site_label
_atom_site_type_symbol
_atom_site_fract_x
_atom_site_fract_y
_atom_site_fract_z
_atom_type_partial_charge
Co0 Co 0.24077 0.23936 0.24802 0.0
C1 C 0.23619 0.28231 0.28852 0.0
Co2 Co 0.27654 0.27648 0.25296 0.0
C3 C 0.19512 0.19742 0.26334 0.0
C4 C 0.19405 0.19801 0.22045 0.0
N5 N 0.20946 0.20967 0.24356 0.0
N6 N 0.17113 0.17884 0.25363 0.0
C7 C 0.17033 0.17908 0.22659 0.0
H8 H 0.20141 0.20327 0.28453 0.0
H9 H 0.19917 0.20375 0.20049 0.0
C10 C 0.28118 0.23329 0.21263 0.0
N11 N 0.308 0.30602 0.25769 0.0
C12 C 0.32404 0.31682 0.23844 0.0
C13 C 0.32255 0.31782 0.28115 0.0
N14 N 0.34846 0.33434 0.24884 0.0
C15 C 0.34744 0.33531 0.27577 0.0
C16 C 0.28476 0.22881 0.2843 0.0
O17 O 0.25759 0.22075 0.21995 0.0
O18 O 0.2928 0.25816 0.22399 0.0
O19 O 0.29563 0.2543 0.27798 0.0
O20 O 0.25983 0.21755 0.27375 0.0
O21 O 0.26016 0.29448 0.28171 0.0
H22 H 0.31625 0.31274 0.30091 0.0
H23 H 0.31824 0.31105 0.21718 0.0
O24 O 0.22411 0.25801 0.27634 0.0
O25 O 0.22189 0.26142 0.2224 0.0
O26 O 0.25728 0.29867 0.2279 0.0
C27 C 0.23257 0.28733 0.21686 0.0
H28 H 0.15358 0.16693 0.21235 0.0
H29 H 0.36411 0.34651 0.2906 0.0
Co30 Co 0.78339 0.25563 0.24047 0.0
C31 C 0.76638 0.28652 0.28497 0.0
Co32 Co 0.74283 0.23658 0.25519 0.0
C33 C 0.83266 0.27599 0.21162 0.0
C34 C 0.8416 0.27836 0.25452 0.0
N35 N 0.82021 0.27118 0.23457 0.0
N36 N 0.86105 0.28569 0.21661 0.0
C37 C 0.86663 0.28728 0.24359 0.0
H38 H 0.8212 0.27215 0.19173 0.0
H39 H 0.83917 0.27702 0.27579 0.0
C40 C 0.76039 0.20557 0.21097 0.0
N41 N 0.70605 0.2205 0.26114 0.0
C42 C 0.69227 0.22109 0.28357 0.0
C43 C 0.68592 0.20764 0.24149 0.0
N44 N 0.66447 0.2089 0.27855 0.0
C45 C 0.66045 0.20028 0.25217 0.0
C46 C 0.74037 0.27872 0.21494 0.0
O47 O 0.78114 0.22673 0.21151 0.0
O48 O 0.7423 0.20592 0.22808 0.0
O49 O 0.72675 0.2603 0.2293 0.0
O50 O 0.76748 0.28141 0.21648 0.0
O51 O 0.74402 0.26705 0.28263 0.0
H52 H 0.68929 0.20454 0.22047 0.0
H53 H 0.70234 0.2303 0.30311 0.0
O54 O 0.78549 0.28469 0.26914 0.0
O55 O 0.79896 0.22961 0.2644 0.0
O56 O 0.75898 0.21301 0.28117 0.0
C57 C 0.78565 0.21335 0.28061 0.0
H58 H 0.88721 0.29515 0.25471 0.0
H59 H 0.64037 0.18995 0.24131 0.0
Co60 Co 0.78711 0.77835 0.25716 0.0
C61 C 0.80619 0.83733 0.24847 0.0
Co62 Co 0.76225 0.79651 0.22504 0.0
C63 C 0.82408 0.7419 0.28052 0.0
C64 C 0.8203 0.77802 0.30785 0.0
N65 N 0.81043 0.76503 0.28328 0.0
N66 N 0.84246 0.74011 0.30218 0.0
C67 C 0.84004 0.76271 0.31955 0.0
H68 H 0.82149 0.72744 0.26239 0.0
H69 H 0.81427 0.7979 0.31629 0.0
C70 C 0.74292 0.7375 0.23387 0.0
N71 N 0.73883 0.81001 0.19927 0.0
C72 C 0.71019 0.80561 0.19843 0.0
C73 C 0.74537 0.82828 0.17966 0.0
N74 N 0.69847 0.82075 0.17944 0.0
C75 C 0.72046 0.83511 0.16746 0.0
C76 C 0.80513 0.77074 0.20581 0.0
O77 O 0.76378 0.74053 0.25196 0.0
O78 O 0.73863 0.75925 0.22046 0.0
O79 O 0.78481 0.78402 0.19811 0.0
O80 O 0.80986 0.76699 0.23069 0.0
O81 O 0.78572 0.83412 0.23 0.0
H82 H 0.76683 0.83695 0.17528 0.0
H83 H 0.69822 0.79287 0.21258 0.0
O84 O 0.81037 0.81564 0.26203 0.0
O85 O 0.76409 0.79013 0.28388 0.0
O86 O 0.73988 0.80872 0.25178 0.0
C87 C 0.74424 0.80414 0.27652 0.0
H88 H 0.85186 0.76802 0.33917 0.0
H89 H 0.71868 0.85 0.15155 0.0
Co90 Co 0.24026 0.76408 0.24031 0.0
C91 C 0.27122 0.78973 0.28763 0.0
Co92 Co 0.27468 0.74094 0.25481 0.0
C93 C 0.19283 0.79361 0.24318 0.0
C94 C 0.20793 0.79599 0.20413 0.0
N95 N 0.2119 0.78415 0.22809 0.0
N96 N 0.17743 0.81124 0.22989 0.0
C97 C 0.18693 0.81314 0.20535 0.0
H98 H 0.19184 0.7896 0.2643 0.0
H99 H 0.22058 0.79369 0.18744 0.0
C100 C 0.24378 0.71545 0.20741 0.0
N101 N 0.30299 0.7206 0.26673 0.0
C102 C 0.32096 0.71009 0.25097 0.0
C103 C 0.30681 0.70822 0.29043 0.0
N104 N 0.33537 0.69112 0.26351 0.0
C105 C 0.32651 0.68964 0.28834 0.0
C106 C 0.2221 0.72042 0.27611 0.0
O107 O 0.22984 0.73632 0.21067 0.0
O108 O 0.26426 0.71312 0.22471 0.0
O109 O 0.24799 0.71689 0.27566 0.0
O110 O 0.21366 0.74003 0.26174 0.0
O111 O 0.28487 0.76853 0.2847 0.0
H112 H 0.29458 0.71082 0.30737 0.0
H113 H 0.32146 0.71406 0.2298 0.0
O114 O 0.25091 0.79221 0.27014 0.0
O115 O 0.26681 0.78781 0.21917 0.0
O116 O 0.30139 0.76531 0.23375 0.0
C117 C 0.29283 0.78463 0.21908 0.0
H118 H 0.18016 0.82699 0.19002 0.0
H119 H 0.33258 0.67496 0.30322 0.0
Co120 Co 0.28381 0.76214 0.74199 0.0
C121 C 0.27087 0.79797 0.78511 0.0
Co122 Co 0.24458 0.74581 0.76041 0.0
C123 C 0.33069 0.77513 0.70866 0.0
C124 C 0.34291 0.78393 0.75096 0.0
N125 N 0.32004 0.77516 0.73279 0.0
N126 N 0.35936 0.78319 0.71124 0.0
C127 C 0.36706 0.78887 0.7378 0.0
H128 H 0.3178 0.76866 0.6897 0.0
H129 H 0.34213 0.786 0.77255 0.0
C130 C 0.25732 0.71021 0.71699 0.0
N131 N 0.20823 0.73259 0.76934 0.0
C132 C 0.19672 0.73301 0.79306 0.0
C133 C 0.18595 0.72307 0.75068 0.0
N134 N 0.16808 0.72447 0.78969 0.0
C135 C 0.16135 0.71806 0.76308 0.0
C136 C 0.24024 0.78422 0.71682 0.0
O137 O 0.27884 0.7301 0.7157 0.0
O138 O 0.24044 0.71301 0.73484 0.0
O139 O 0.22785 0.76858 0.734 0.0
O140 O 0.267 0.78534 0.71606 0.0
O141 O 0.24902 0.77838 0.78611 0.0
H142 H 0.18741 0.72053 0.72921 0.0
H143 H 0.20894 0.74006 0.81225 0.0
O144 O 0.28837 0.7946 0.76794 0.0
O145 O 0.30043 0.73854 0.76785 0.0
O146 O 0.2615 0.72333 0.78688 0.0
C147 C 0.28804 0.7235 0.78544 0.0
H148 H 0.38857 0.79654 0.74701 0.0
H149 H 0.14018 0.70981 0.75332 0.0
Co150 Co 0.25979 0.23461 0.77437 0.0
C151 C 0.28764 0.29288 0.77555 0.0
Co152 Co 0.24447 0.26044 0.74205 0.0
C153 C 0.28735 0.19045 0.79746 0.0
C154 C 0.28037 0.22239 0.82766 0.0
N155 N 0.27493 0.21431 0.80115 0.0
N156 N 0.30128 0.18384 0.82035 0.0
C157 C 0.29662 0.20365 0.83954 0.0
H158 H 0.28754 0.17914 0.77797 0.0
H159 H 0.27468 0.24184 0.83729 0.0
C160 C 0.21733 0.2019 0.74068 0.0
N161 N 0.22901 0.28041 0.71489 0.0
C162 C 0.21371 0.30228 0.71766 0.0
C163 C 0.22609 0.27279 0.68822 0.0
N164 N 0.20063 0.30801 0.69398 0.0
C165 C 0.20868 0.28973 0.67532 0.0
C166 C 0.28712 0.23116 0.72707 0.0
O167 O 0.23377 0.20046 0.76176 0.0
O168 O 0.21821 0.22618 0.72961 0.0
O169 O 0.2709 0.24871 0.71876 0.0
O170 O 0.28618 0.22322 0.75098 0.0
O171 O 0.27086 0.29484 0.75475 0.0
H172 H 0.2345 0.25478 0.67894 0.0
H173 H 0.21048 0.31235 0.73692 0.0
O174 O 0.28618 0.26861 0.7867 0.0
O175 O 0.23326 0.24615 0.79768 0.0
O176 O 0.21818 0.27166 0.76536 0.0
C177 C 0.21686 0.26346 0.78914 0.0
H178 H 0.30621 0.20601 0.86017 0.0
H179 H 0.20148 0.28775 0.65403 0.0
Co180 Co 0.74401 0.26965 0.74867 0.0
C181 C 0.77782 0.29214 0.79544 0.0
Co182 Co 0.77824 0.24492 0.75996 0.0
C183 C 0.70007 0.30225 0.75725 0.0
C184 C 0.71155 0.30567 0.71694 0.0
N185 N 0.71603 0.29153 0.73954 0.0
N186 N 0.68651 0.32324 0.74712 0.0
C187 C 0.69363 0.32558 0.72171 0.0
H188 H 0.70098 0.29721 0.77824 0.0
H189 H 0.72253 0.30357 0.69907 0.0
C190 C 0.74453 0.22227 0.7132 0.0
N191 N 0.80623 0.22323 0.76929 0.0
C192 C 0.82325 0.21325 0.7522 0.0
C193 C 0.81167 0.21052 0.79253 0.0
N194 N 0.83878 0.19447 0.76355 0.0
C195 C 0.83153 0.19243 0.78893 0.0
C196 C 0.7267 0.22465 0.78326 0.0
O197 O 0.73197 0.24404 0.71753 0.0
O198 O 0.76496 0.21819 0.72982 0.0
O199 O 0.75253 0.22117 0.78201 0.0
O200 O 0.71782 0.24447 0.76947 0.0
O201 O 0.79153 0.2716 0.78997 0.0
H202 H 0.80079 0.21299 0.81042 0.0
H203 H 0.82266 0.2179 0.73112 0.0
O204 O 0.75615 0.29521 0.77998 0.0
O205 O 0.7704 0.29481 0.72814 0.0
O206 O 0.80379 0.26875 0.73768 0.0
C207 C 0.7956 0.28999 0.72548 0.0
H208 H 0.68804 0.34196 0.70835 0.0
H209 H 0.83912 0.17803 0.80333 0.0
Co210 Co 0.7388 0.73641 0.7436 0.0
C211 C 0.73485 0.77846 0.78469 0.0
Co212 Co 0.77501 0.773 0.74846 0.0
C213 C 0.69493 0.69225 0.75865 0.0
C214 C 0.69085 0.69681 0.71611 0.0
N215 N 0.70766 0.70663 0.739 0.0
N216 N 0.67063 0.67415 0.74909 0.0
C217 C 0.66784 0.67693 0.72231 0.0
H218 H 0.70251 0.69627 0.77981 0.0
H219 H 0.6945 0.70449 0.69639 0.0
C220 C 0.77873 0.73074 0.70733 0.0
N221 N 0.8063 0.80273 0.75324 0.0
C222 C 0.82182 0.8143 0.73392 0.0
C223 C 0.82084 0.81465 0.77668 0.0
N224 N 0.84573 0.8326 0.74428 0.0
C225 C 0.84522 0.83298 0.77122 0.0
C226 C 0.78351 0.72491 0.77892 0.0
O227 O 0.75455 0.71912 0.71407 0.0
O228 O 0.79148 0.75462 0.71983 0.0
O229 O 0.79407 0.75091 0.77365 0.0
O230 O 0.7588 0.71365 0.76784 0.0
O231 O 0.7583 0.79107 0.77708 0.0
H232 H 0.81477 0.80931 0.79646 0.0
H233 H 0.81652 0.80799 0.71267 0.0
O234 O 0.72303 0.75376 0.7731 0.0
O235 O 0.71903 0.75934 0.71979 0.0
O236 O 0.75583 0.79512 0.72298 0.0
C237 C 0.73038 0.78462 0.71337 0.0
H238 H 0.65017 0.66593 0.70841 0.0
H239 H 0.86161 0.84498 0.7859 0.0
C240 C 0.94415 0.06112 0.54523 0.0
C241 C 0.95862 0.06263 0.46103 0.0
C242 C 0.96402 0.94766 0.46745 0.0
Mg243 Mg 0.99822 0.06612 0.51398 0.0
O244 O 0.98905 0.02525 0.51674 0.0
Mg245 Mg 0.95018 1.00478 0.50178 0.0
Mg246 Mg 0.01237 0.99911 0.49955 0.0
O247 O 0.03561 0.97296 0.48229 0.0
Mg248 Mg 0.02626 0.93194 0.48458 0.0
Mg249 Mg 0.07451 0.99353 0.4971 0.0
C250 C 0.0607 0.0509 0.53034 0.0
C251 C 0.04664 0.03649 0.45627 0.0
O252 O 0.93372 0.0364 0.53212 0.0
O253 O 0.96863 0.07585 0.54166 0.0
O254 O 0.94603 0.03796 0.46827 0.0
O255 O 0.98109 0.07686 0.47461 0.0
O256 O 0.04416 0.07027 0.52771 0.0
O257 O 0.05198 0.02353 0.52349 0.0
C258 C 0.97802 0.96198 0.54284 0.0
O259 O 1.00203 0.96863 0.53316 0.0
O260 O 0.95601 0.97265 0.53424 0.0
O261 O 0.09082 0.9623 0.46651 0.0
O262 O 0.05613 0.92264 0.45693 0.0
O263 O 0.07869 0.95993 0.53006 0.0
C264 C 0.0805 0.93762 0.45333 0.0
O265 O 0.04352 0.92111 0.52414 0.0
O266 O 0.98038 0.92804 0.46958 0.0
C267 C 0.06625 0.93526 0.53747 0.0
O268 O 0.97285 0.97466 0.47565 0.0
O269 O 0.02264 0.02967 0.46592 0.0
O270 O 0.06869 0.02589 0.46486 0.0
C271 C 0.44841 0.08171 0.04157 0.0
C272 C 0.48495 0.07777 0.96328 0.0
C273 C 0.4584 0.96371 0.96207 0.0
Mg274 Mg 0.50722 0.07433 0.02217 0.0
O275 O 0.49046 0.03431 0.01927 0.0
Mg276 Mg 0.45203 0.02346 0.99761 0.0
Mg277 Mg 0.51038 1.0044 0.00171 0.0
O278 O 0.53007 0.97457 0.98387 0.0
Mg279 Mg 0.51279 0.93482 0.97946 0.0
Mg280 Mg 0.56814 0.98437 0.00584 0.0
C281 C 0.56244 0.04558 0.03949 0.0
C282 C 0.56241 0.03749 0.96533 0.0
O283 O 0.4367 0.05975 0.02513 0.0
O284 O 0.47553 0.09043 0.04482 0.0
O285 O 0.4652 0.05645 0.96675 0.0
O286 O 0.50439 0.08871 0.98183 0.0
O287 O 0.54977 0.06814 0.03843 0.0
O288 O 0.54986 0.01954 0.03081 0.0
C289 C 0.45867 0.971 0.03831 0.0
O290 O 0.48473 0.97203 0.03218 0.0
O291 O 0.44291 0.98841 0.02799 0.0
O292 O 0.58332 0.9487 0.97766 0.0
O293 O 0.54478 0.91773 0.95811 0.0
O294 O 0.55408 0.94941 0.03598 0.0
C295 C 0.57187 0.92655 0.96134 0.0
O296 O 0.51393 0.91977 0.01905 0.0
O297 O 0.47082 0.94099 0.96207 0.0
C298 C 0.5334 0.92836 0.03822 0.0
O299 O 0.47083 0.989 0.97274 0.0
O300 O 0.53637 0.03692 0.97143 0.0
O301 O 0.5778 0.01981 0.97579 0.0
C302 C 0.95012 0.58894 0.04289 0.0
C303 C 0.95519 0.57273 0.95918 0.0
C304 C 0.95395 0.45848 0.98419 0.0
Mg305 Mg 1.00037 0.581 0.00892 0.0
O306 O 0.98954 0.54176 0.01714 0.0
Mg307 Mg 0.94849 0.52341 0.00807 0.0
Mg308 Mg 1.00824 0.51003 0.00107 0.0
O309 O 0.02672 0.47811 0.98514 0.0
Mg310 Mg 0.01572 0.43911 0.99436 0.0
Mg311 Mg 0.06783 0.49612 0.99412 0.0
C312 C 0.06251 0.56157 0.01971 0.0
C313 C 0.03894 0.53542 0.95016 0.0
O314 O 0.93749 0.56292 0.03406 0.0
O315 O 0.9752 0.59981 0.03701 0.0
O316 O 0.94232 0.55051 0.97028 0.0
O317 O 0.9795 0.58668 0.96943 0.0
O318 O 0.04696 0.58182 0.01669 0.0
O319 O 0.05173 0.53403 0.018 0.0
C320 C 0.97796 0.48486 0.05223 0.0
O321 O 1.00002 0.48694 0.03915 0.0
O322 O 0.95637 0.49684 0.04475 0.0
O323 O 0.07796 0.45641 0.96767 0.0
O324 O 0.04028 0.41958 0.96619 0.0
O325 O 0.07425 0.46868 0.03186 0.0
C326 C 0.06503 0.4303 0.95939 0.0
O327 O 0.03658 0.43339 0.03364 0.0
O328 O 0.96915 0.43808 0.98779 0.0
C329 C 0.06126 0.4468 0.04333 0.0
O330 O 0.96483 0.48585 0.9843 0.0
O331 O 0.01667 0.53341 0.96298 0.0
O332 O 0.0602 0.52298 0.95772 0.0
C333 C 0.43881 0.56278 0.04583 0.0
C334 C 0.46235 0.57216 0.9653 0.0
C335 C 0.4789 0.45808 0.97055 0.0
Mg336 Mg 0.497 0.57538 0.02116 0.0
O337 O 0.49093 0.53419 0.02163 0.0
Mg338 Mg 0.45494 0.51109 0.00244 0.0
Mg339 Mg 0.51927 0.51202 0.00738 0.0
O340 O 0.54767 0.4899 0.99307 0.0
Mg341 Mg 0.54174 0.44883 0.99425 0.0
Mg342 Mg 0.58366 0.51323 0.01202 0.0
C343 C 0.55992 0.56593 0.04423 0.0
C344 C 0.5558 0.55402 0.96878 0.0
O345 O 0.43179 0.53829 0.0314 0.0
O346 O 0.46281 0.57987 0.04522 0.0
O347 O 0.45114 0.54592 0.97011 0.0
O348 O 0.48263 0.58715 0.98126 0.0
O349 O 0.54169 0.5834 0.04002 0.0
O350 O 0.55452 0.53866 0.03588 0.0
C351 C 0.48225 0.46969 0.04539 0.0
O352 O 0.50728 0.47924 0.03885 0.0
O353 O 0.46005 0.47823 0.03431 0.0
O354 O 0.6069 0.48594 0.98351 0.0
O355 O 0.57632 0.4438 0.97067 0.0
O356 O 0.58782 0.47854 0.04431 0.0
C357 C 0.60019 0.46104 0.96973 0.0
O358 O 0.5553 0.43785 0.03467 0.0
O359 O 0.49728 0.44084 0.97506 0.0
C360 C 0.57627 0.45269 0.04992 0.0
O361 O 0.48407 0.48542 0.97876 0.0
O362 O 0.53103 0.54459 0.97594 0.0
O363 O 0.57826 0.54577 0.97967 0.0
C364 C 0.93929 0.57854 0.5318 0.0
C365 C 0.97443 0.56961 0.45354 0.0
C366 C 0.95741 0.45536 0.46542 0.0
Mg367 Mg 0.9989 0.57371 0.5126 0.0
O368 O 0.98495 0.53327 0.51364 0.0
Mg369 Mg 0.94666 0.51722 0.49326 0.0
Mg370 Mg 1.00734 0.5042 0.4988 0.0
O371 O 0.02952 0.47464 0.48429 0.0
Mg372 Mg 0.0154 0.43427 0.48669 0.0
Mg373 Mg 0.06743 0.49052 0.50534 0.0
C374 C 0.05674 0.55256 0.5339 0.0
C375 C 0.05668 0.53674 0.45934 0.0
O376 O 0.92894 0.55391 0.51837 0.0
O377 O 0.96583 0.58986 0.53289 0.0
O378 O 0.956 0.5479 0.45911 0.0
O379 O 0.99409 0.58277 0.471 0.0
O380 O 0.04239 0.57366 0.53075 0.0
O381 O 0.04607 0.52568 0.52636 0.0
C382 C 0.95877 0.4704 0.53818 0.0
O383 O 0.98499 0.47368 0.53218 0.0
O384 O 0.94084 0.4847 0.52646 0.0
O385 O 0.08514 0.45322 0.48129 0.0
O386 O 0.04832 0.41721 0.46679 0.0
O387 O 0.05712 0.46132 0.54016 0.0
C388 C 0.07488 0.42849 0.46801 0.0
O389 O 0.01935 0.42606 0.52863 0.0
O390 O 0.97173 0.43437 0.46932 0.0
C391 C 0.0385 0.44003 0.54611 0.0
O392 O 0.96819 0.48259 0.47131 0.0
O393 O 0.0305 0.53494 0.46545 0.0
O394 O 0.07362 0.52158 0.47138 0.0
C395 C 0.43926 0.07059 0.55031 0.0
C396 C 0.45093 0.07275 0.46619 0.0
C397 C 0.45847 0.95689 0.47041 0.0
Mg398 Mg 0.49243 0.0748 0.51792 0.0
O399 O 0.48416 0.03382 0.51955 0.0
Mg400 Mg 0.44464 0.01393 0.50546 0.0
Mg401 Mg 0.50755 0.0086 0.50047 0.0
O402 O 0.53091 0.98316 0.48151 0.0
Mg403 Mg 0.52224 0.94205 0.48221 0.0
Mg404 Mg 0.57005 1.00238 0.49721 0.0
C405 C 0.5563 0.06044 0.52931 0.0
C406 C 0.54249 0.04778 0.45858 0.0
O407 O 0.42838 0.04598 0.53699 0.0
O408 O 0.46416 0.08451 0.547 0.0
O409 O 0.43892 0.04766 0.47303 0.0
O410 O 0.47357 0.08678 0.47964 0.0
O411 O 0.53895 0.07913 0.52778 0.0
O412 O 0.54792 0.03264 0.5241 0.0
C413 C 0.47401 0.96875 0.54271 0.0
O414 O 0.4975 0.97621 0.53232 0.0
O415 O 0.45183 0.98028 0.53637 0.0
O416 O 0.58739 0.97045 0.4669 0.0
O417 O 0.55201 0.93222 0.45442 0.0
O418 O 0.57387 0.96827 0.53009 0.0
C419 C 0.57736 0.94612 0.45288 0.0
O420 O 0.5394 0.92914 0.52068 0.0
O421 O 0.47591 0.93826 0.47121 0.0
C422 C 0.56127 0.94279 0.53551 0.0
O423 O 0.4667 0.98446 0.47715 0.0
O424 O 0.51849 0.04118 0.46848 0.0
O425 O 0.56407 0.03564 0.46578 0.0
H426 H 0.17996 0.15973 0.30325 0.0
H427 H 0.14373 0.13961 0.33195 0.0
H428 H 0.07753 0.14503 0.26875 0.0
H429 H 0.11391 0.16565 0.23979 0.0
H430 H 0.09525 0.17079 0.34537 0.0
H431 H 0.06292 0.05766 0.2956 0.0
H432 H 0.09743 0.07899 0.29169 0.0
H433 H 0.06583 0.08952 0.27582 0.0
C434 C 0.15772 0.15668 0.29542 0.0
C435 C 0.14977 0.16444 0.26936 0.0
C436 C 0.13707 0.14514 0.3118 0.0
C437 C 0.10807 0.14103 0.30243 0.0
C438 C 0.09989 0.14799 0.2762 0.0
H439 H 1.00395 0.04858 0.42022 0.0
H440 H 1.0097 0.07817 0.38077 0.0
C441 C 0.12066 0.15958 0.25969 0.0
C442 C 0.08691 0.12993 0.3209 0.0
H443 H 0.05109 0.06525 0.33989 0.0
C444 C 0.08475 0.14796 0.34383 0.0
C445 C 0.07308 0.10027 0.3186 0.0
C446 C 0.07477 0.08029 0.29416 0.0
C447 C 0.07137 0.1363 0.36572 0.0
C448 C 0.06023 0.10593 0.36458 0.0
C449 C 0.05972 0.08858 0.34058 0.0
C450 C 0.05541 0.09076 0.38946 0.0
C451 C 0.07122 0.15596 0.39075 0.0
C452 C 0.0792 0.0883 0.40719 0.0
C453 C 0.07612 0.07126 0.42928 0.0
C454 C 0.0491 0.05648 0.43416 0.0
C455 C 0.02502 0.05982 0.41693 0.0
C456 C 0.02823 0.07663 0.39446 0.0
H457 H 0.07261 0.1794 0.38599 0.0
H458 H 0.05163 0.14921 0.40095 0.0
H459 H 0.08997 0.15418 0.40499 0.0
H460 H 0.10039 0.09881 0.4034 0.0
H461 H 0.09501 0.06926 0.44229 0.0
H462 H 0.83181 0.18962 0.26876 0.0
H463 H 0.86015 0.16142 0.29703 0.0
H464 H 0.80584 0.1694 0.36079 0.0
H465 H 0.77621 0.19608 0.33161 0.0
H466 H 0.89235 0.1749 0.33941 0.0
H467 H 0.8091 0.08537 0.36507 0.0
H468 H 0.80193 0.11074 0.34009 0.0
H469 H 0.8013 0.12068 0.37542 0.0
C470 C 0.82562 0.18498 0.28868 0.0
C471 C 0.80161 0.19492 0.29786 0.0
C472 C 0.84196 0.16888 0.30495 0.0
C473 C 0.83518 0.16269 0.33115 0.0
C474 C 0.81121 0.17283 0.34045 0.0
H475 H 0.9633 0.12137 0.453 0.0
H476 H 0.93422 0.14499 0.42106 0.0
C477 C 0.79432 0.18833 0.32382 0.0
C478 C 0.85412 0.14694 0.34881 0.0
H479 H 0.85414 0.09105 0.39142 0.0
C480 C 0.88387 0.15638 0.35055 0.0
C481 C 0.8435 0.12233 0.36316 0.0
C482 C 0.81225 0.10899 0.36062 0.0
C483 C 0.90303 0.14233 0.36617 0.0
C484 C 0.89231 0.11889 0.3818 0.0
C485 C 0.8626 0.10917 0.37982 0.0
C486 C 0.91132 0.10435 0.4005 0.0
C487 C 0.9346 0.15237 0.36495 0.0
C488 C 0.90803 0.07342 0.40037 0.0
C489 C 0.92421 0.05979 0.41925 0.0
C490 C 0.94443 0.07672 0.43855 0.0
C491 C 0.94838 0.1076 0.43812 0.0
C492 C 0.93173 0.1212 0.41967 0.0
H493 H 0.93899 0.16191 0.34543 0.0
H494 H 0.94265 0.16987 0.38115 0.0
H495 H 0.94674 0.13397 0.36755 0.0
H496 H 0.89253 0.05973 0.38591 0.0
H497 H 0.92049 0.03597 0.41907 0.0
H498 H 0.86235 0.85406 0.26408 0.0
H499 H 0.88078 0.89106 0.30072 0.0
H500 H 0.79995 0.9216 0.29649 0.0
H501 H 0.78157 0.88483 0.25929 0.0
H502 H 0.88077 0.95548 0.31848 0.0
H503 H 0.8068 0.86964 0.36473 0.0
H504 H 0.81765 0.86296 0.33159 0.0
H505 H 0.79346 0.88818 0.33668 0.0
C506 C 0.84918 0.86994 0.26979 0.0
C507 C 0.82059 0.86661 0.25916 0.0
C508 C 0.85964 0.89098 0.29078 0.0
C509 C 0.84146 0.90853 0.30154 0.0
C510 C 0.81419 0.90812 0.2884 0.0
H511 H 0.92296 0.98239 0.45995 0.0
H512 H 0.88544 0.97679 0.42282 0.0
C513 C 0.80382 0.88729 0.26702 0.0
C514 C 0.84883 0.92083 0.32954 0.0
H515 H 0.84323 0.89874 0.39338 0.0
C516 C 0.87197 0.94392 0.33505 0.0
C517 C 0.8373 0.90529 0.35094 0.0
C518 C 0.81247 0.88008 0.34591 0.0
C519 C 0.88536 0.95045 0.3613 0.0
C520 C 0.87526 0.93329 0.3823 0.0
C521 C 0.85077 0.91176 0.37713 0.0
C522 C 0.89272 0.93403 0.40826 0.0
C523 C 0.91164 0.97397 0.36602 0.0
C524 C 0.90788 0.91095 0.41329 0.0
C525 C 0.92949 0.91408 0.43449 0.0
C526 C 0.93623 0.94042 0.45088 0.0
C527 C 0.91879 0.96208 0.44746 0.0
C528 C 0.89727 0.95897 0.42622 0.0
H529 H 0.91802 0.98357 0.34704 0.0
H530 H 0.90746 0.99199 0.37989 0.0
H531 H 0.9298 0.96474 0.37566 0.0
H532 H 0.90444 0.89141 0.39962 0.0
H533 H 0.94229 0.89685 0.43661 0.0
H534 H 0.13505 0.79317 0.25988 0.0
H535 H 0.11527 0.82445 0.29172 0.0
H536 H 0.1633 0.90174 0.26193 0.0
H537 H 0.18283 0.87023 0.22972 0.0
H538 H 0.17613 0.89169 0.31797 0.0
H539 H 0.06008 0.88534 0.29122 0.0
H540 H 0.07176 0.85036 0.28802 0.0
H541 H 0.08441 0.87893 0.26662 0.0
C542 C 0.1403 0.81688 0.25941 0.0
C543 C 0.16022 0.82945 0.24249 0.0
C544 C 0.12902 0.83472 0.27748 0.0
C545 C 0.13775 0.86535 0.27898 0.0
C546 C 0.15613 0.87813 0.26077 0.0
H547 H 0.12011 0.97105 0.42629 0.0
H548 H 0.13649 0.95738 0.3831 0.0
C549 C 0.1671 0.86022 0.24236 0.0
C550 C 0.13174 0.8828 0.30266 0.0
H551 H 0.07702 0.89635 0.3381 0.0
C552 C 0.15455 0.89347 0.32223 0.0
C553 C 0.10359 0.88476 0.30802 0.0
C554 C 0.07855 0.87448 0.28725 0.0
C555 C 0.14971 0.90415 0.3479 0.0
C556 C 0.12136 0.90461 0.35374 0.0
C557 C 0.09872 0.89564 0.33357 0.0
C558 C 0.11434 0.91233 0.38109 0.0
C559 C 0.17471 0.91306 0.36901 0.0
C560 C 0.09691 0.89135 0.39439 0.0
C561 C 0.08737 0.89909 0.41889 0.0
C562 C 0.09516 0.92797 0.43055 0.0
C563 C 0.11397 0.94853 0.41794 0.0
C564 C 0.12332 0.9408 0.39324 0.0
H565 H 0.19441 0.90583 0.36281 0.0
H566 H 0.17906 0.93741 0.37239 0.0
H567 H 0.16987 0.90364 0.38845 0.0
H568 H 0.08994 0.86919 0.38535 0.0
H569 H 0.073 0.88275 0.42818 0.0
H570 H 0.18394 0.78838 0.71748 0.0
H571 H 0.15498 0.81491 0.68814 0.0
H572 H 0.22782 0.84467 0.64531 0.0
H573 H 0.25725 0.81787 0.67479 0.0
H574 H 0.16183 0.87521 0.67968 0.0
H575 H 0.16554 0.80852 0.58463 0.0
H576 H 0.17583 0.79644 0.61735 0.0
H577 H 0.19964 0.82384 0.60229 0.0
C578 C 0.19397 0.80047 0.70182 0.0
C579 C 0.22306 0.8008 0.69853 0.0
C580 C 0.17727 0.81575 0.68504 0.0
C581 C 0.189 0.83163 0.66427 0.0
C582 C 0.21809 0.83223 0.66092 0.0
H583 H 0.11206 0.9604 0.57292 0.0
H584 H 0.14078 0.93581 0.60454 0.0
C585 C 0.23496 0.817 0.67788 0.0
C586 C 0.17059 0.84757 0.64648 0.0
H587 H 0.14179 0.84951 0.58144 0.0
C588 C 0.15754 0.86964 0.65818 0.0
C589 C 0.16454 0.84007 0.61846 0.0
C590 C 0.17687 0.81577 0.60485 0.0
C591 C 0.13897 0.88453 0.64269 0.0
C592 C 0.13331 0.87738 0.61459 0.0
C593 C 0.14614 0.85512 0.60293 0.0
C594 C 0.11438 0.89285 0.59689 0.0
C595 C 0.12508 0.90741 0.65663 0.0
C596 C 0.08966 0.87708 0.58206 0.0
C597 C 0.073 0.89115 0.56394 0.0
C598 C 0.08089 0.92131 0.5599 0.0
C599 C 0.10518 0.9372 0.57544 0.0
C600 C 0.12169 0.92315 0.59365 0.0
H601 H 0.12579 0.90509 0.67872 0.0
H602 H 0.13659 0.92967 0.6533 0.0
H603 H 0.10249 0.90588 0.64834 0.0
H604 H 0.08352 0.85369 0.58417 0.0
H605 H 0.05461 0.8781 0.55229 0.0
H606 H 0.23034 0.14659 0.7415 0.0
H607 H 0.21269 0.10605 0.70729 0.0
H608 H 0.15224 0.15653 0.67199 0.0
H609 H 0.16993 0.19716 0.70565 0.0
H610 H 0.13967 0.08227 0.68032 0.0
H611 H 0.22591 0.13541 0.62171 0.0
H612 H 0.23095 0.13321 0.65782 0.0
H613 H 0.21006 0.15874 0.64387 0.0
C614 C 0.21253 0.14853 0.72706 0.0
C615 C 0.20152 0.17498 0.72601 0.0
C616 C 0.20267 0.12548 0.70752 0.0
C617 C 0.18148 0.12867 0.68719 0.0
C618 C 0.1687 0.15391 0.68763 0.0
H619 H 0.08772 0.10638 0.54794 0.0
H620 H 0.1263 0.11855 0.5841 0.0
C621 C 0.17874 0.17701 0.70685 0.0
C622 C 0.17471 0.10793 0.66335 0.0
H623 H 0.18555 0.10591 0.59677 0.0
C624 C 0.15023 0.0864 0.66218 0.0
C625 C 0.18875 0.11368 0.63995 0.0
C626 C 0.2155 0.13641 0.64071 0.0
C627 C 0.13776 0.07236 0.63744 0.0
C628 C 0.15024 0.08034 0.61357 0.0
C629 C 0.17619 0.09988 0.61516 0.0
C630 C 0.13348 0.07367 0.58717 0.0
C631 C 0.10984 0.05132 0.63667 0.0
C632 C 0.12618 0.04472 0.57592 0.0
C633 C 0.10411 0.03768 0.55521 0.0
C634 C 0.08898 0.0595 0.54573 0.0
C635 C 0.09863 0.089 0.55505 0.0
C636 C 0.12075 0.09601 0.57565 0.0
H637 H 0.10234 0.0487 0.657 0.0
H638 H 0.09312 0.05924 0.62347 0.0
H639 H 0.11241 0.02934 0.62812 0.0
H640 H 0.13604 0.02729 0.58447 0.0
H641 H 0.09746 0.01479 0.5483 0.0
H642 H 0.87551 0.21215 0.72776 0.0
H643 H 0.89407 0.1802 0.69547 0.0
H644 H 0.85496 0.10368 0.73317 0.0
H645 H 0.83649 0.13578 0.76577 0.0
H646 H 0.9263 0.12485 0.70551 0.0
H647 H 0.81798 0.10654 0.64898 0.0
H648 H 0.83029 0.13928 0.67098 0.0
H649 H 0.822 0.10429 0.68507 0.0
C650 C 0.87164 0.18855 0.72957 0.0
C651 C 0.85465 0.17629 0.74905 0.0
C652 C 0.88217 0.1704 0.71122 0.0
C653 C 0.87561 0.13975 0.71199 0.0
C654 C 0.86018 0.12737 0.73245 0.0
H655 H 0.90093 0.02981 0.57001 0.0
H656 H 0.88259 0.04468 0.612 0.0
C657 C 0.84986 0.14563 0.75107 0.0
C658 C 0.88245 0.12124 0.68948 0.0
H659 H 0.85538 0.09256 0.62643 0.0
C660 C 0.91074 0.11717 0.68842 0.0
C661 C 0.86194 0.11131 0.66739 0.0
C662 C 0.83128 0.11547 0.6679 0.0
C663 C 0.91942 0.1045 0.66513 0.0
C664 C 0.89936 0.09654 0.64228 0.0
C665 C 0.87068 0.09895 0.64396 0.0
C666 C 0.90837 0.08815 0.61589 0.0
C667 C 0.95014 0.1005 0.66492 0.0
C668 C 0.92778 0.10826 0.60367 0.0
C669 C 0.93821 0.09995 0.57979 0.0
C670 C 0.92921 0.07143 0.56757 0.0
C671 C 0.90829 0.05194 0.57894 0.0
C672 C 0.89793 0.06029 0.60298 0.0
H673 H 0.96011 0.09886 0.68563 0.0
H674 H 0.95198 0.08045 0.65238 0.0
H675 H 0.96238 0.11987 0.65636 0.0
H676 H 0.9354 0.13019 0.613 0.0
H677 H 0.95402 0.11561 0.57139 0.0
H678 H 0.90251 0.84374 0.7606 0.0
H679 H 0.94113 0.86168 0.73298 0.0
H680 H 0.87881 0.86818 0.66658 0.0
H681 H 0.84034 0.85074 0.69396 0.0
H682 H 0.9271 0.8331 0.6577 0.0
H683 H 0.96022 0.94814 0.70282 0.0
H684 H 0.95415 0.91742 0.72384 0.0
H685 H 0.9245 0.92886 0.70521 0.0
C686 C 0.8971 0.84951 0.74028 0.0
C687 C 0.86842 0.8457 0.72933 0.0
C688 C 0.91914 0.85954 0.72454 0.0
C689 C 0.91267 0.86599 0.6978 0.0
C690 C 0.88412 0.86303 0.68716 0.0
H691 H 0.9299 0.92838 0.55626 0.0
H692 H 0.92424 0.9002 0.59596 0.0
C693 C 0.8622 0.85303 0.70277 0.0
C694 C 0.93513 0.87527 0.6801 0.0
H695 H 0.97266 0.93794 0.65907 0.0
C696 C 0.93796 0.85576 0.65842 0.0
C697 C 0.94944 0.9047 0.68136 0.0
C698 C 0.94712 0.92617 0.70452 0.0
C699 C 0.95233 0.86579 0.6365 0.0
C700 C 0.96377 0.89599 0.63634 0.0
C701 C 0.96378 0.91476 0.65935 0.0
C702 C 0.96899 0.90961 0.61079 0.0
C703 C 0.95307 0.84462 0.61267 0.0
C704 C 0.99614 0.92398 0.60597 0.0
C705 C 0.9995 0.93998 0.58302 0.0
C706 C 0.97558 0.94232 0.56516 0.0
C707 C 0.94865 0.92714 0.56977 0.0
C708 C 0.94542 0.91086 0.59232 0.0
H709 H 0.95175 0.82166 0.61883 0.0
H710 H 0.93448 0.84533 0.59786 0.0
H711 H 0.97284 0.85072 0.60257 0.0
H712 H 0.01448 0.92342 0.62023 0.0
H713 H 0.02051 0.95155 0.57991 0.0
H714 H 0.27999 0.17428 0.20402 0.0
H715 H 0.30799 0.14944 0.17436 0.0
H716 H 0.34245 0.23312 0.14506 0.0
H717 H 0.31622 0.25818 0.17643 0.0
H718 H 0.30993 0.14055 0.1251 0.0
H719 H 0.41497 0.20649 0.16141 0.0
H720 H 0.3833 0.21016 0.17744 0.0
H721 H 0.39132 0.22953 0.14776 0.0
C722 C 0.29359 0.18736 0.19124 0.0
C723 C 0.29608 0.21819 0.19268 0.0
C724 C 0.30964 0.17313 0.17423 0.0
C725 C 0.32814 0.1893 0.15778 0.0
C726 C 0.32944 0.22006 0.15825 0.0
H727 H 0.39586 0.0952 0.02617 0.0
H728 H 0.36663 0.12196 0.05305 0.0
C729 C 0.3141 0.2344 0.17594 0.0
C730 C 0.34577 0.17383 0.14019 0.0
H731 H 0.41321 0.17589 0.12133 0.0
C732 C 0.33259 0.14821 0.12451 0.0
C733 C 0.37554 0.18326 0.13954 0.0
C734 C 0.39214 0.20865 0.15767 0.0
C735 C 0.34809 0.13186 0.10848 0.0
C736 C 0.37752 0.14222 0.10668 0.0
C737 C 0.39066 0.16791 0.12228 0.0
C738 C 0.39542 0.12639 0.08969 0.0
C739 C 0.33279 0.10303 0.09462 0.0
C740 C 0.42219 0.1211 0.10058 0.0
C741 C 0.43945 0.10696 0.08483 0.0
C742 C 0.43012 0.09707 0.05795 0.0
C743 C 0.40339 0.10219 0.04697 0.0
C744 C 0.38652 0.11725 0.06248 0.0
H745 H 0.31422 0.09363 0.10525 0.0
H746 H 0.32452 0.10685 0.07385 0.0
H747 H 0.34719 0.0865 0.09354 0.0
H748 H 0.42979 0.12782 0.12141 0.0
H749 H 0.45993 0.10326 0.09387 0.0
H750 H 0.91791 0.28536 0.22176 0.0
H751 H 0.95297 0.31203 0.1949 0.0
H752 H 0.8847 0.33501 0.14214 0.0
H753 H 0.84962 0.30886 0.16902 0.0
H754 H 0.93564 0.32136 0.11661 0.0
H755 H 0.95872 0.4041 0.20475 0.0
H756 H 0.9619 0.36636 0.20976 0.0
H757 H 0.92737 0.37589 0.20154 0.0
C758 C 0.9104 0.29575 0.20419 0.0
C759 C 0.88106 0.29567 0.19781 0.0
C760 C 0.93042 0.31075 0.18883 0.0
C761 C 0.92129 0.32572 0.16691 0.0
C762 C 0.89204 0.32347 0.15907 0.0
H763 H 0.93044 0.46271 0.07586 0.0
H764 H 0.92581 0.42334 0.1068 0.0
C765 C 0.87201 0.30851 0.17441 0.0
C766 C 0.94149 0.34727 0.15438 0.0
H767 H 0.9725 0.41961 0.16325 0.0
C768 C 0.94464 0.34253 0.12695 0.0
C769 C 0.95311 0.3748 0.16812 0.0
C770 C 0.95016 0.38086 0.19765 0.0
C771 C 0.95712 0.36553 0.11234 0.0
C772 C 0.96621 0.3937 0.12556 0.0
C773 C 0.96544 0.3978 0.15341 0.0
C774 C 0.97059 0.41985 0.10995 0.0
C775 C 0.95833 0.36041 0.08241 0.0
C776 C 0.99756 0.4314 0.10256 0.0
C777 C 1.00034 0.45412 0.08502 0.0
C778 C 0.97613 0.46519 0.07457 0.0
C779 C 0.94947 0.45466 0.08348 0.0
C780 C 0.94676 0.4321 0.10103 0.0
H781 H 0.95441 0.33657 0.07593 0.0
H782 H 0.94187 0.37096 0.07143 0.0
H783 H 0.97947 0.37066 0.07661 0.0
H784 H 0.01614 0.42222 0.10959 0.0
H785 H 0.02124 0.46231 0.07896 0.0
H786 H 0.67766 0.86978 0.16744 0.0
H787 H 0.62756 0.87489 0.16056 0.0
H788 H 0.60231 0.78362 0.17634 0.0
H789 H 0.65283 0.77845 0.18331 0.0
H790 H 0.579 0.79988 0.12714 0.0
H791 H 0.56163 0.87795 0.20814 0.0
H792 H 0.59616 0.88929 0.19688 0.0
H793 H 0.58844 0.85447 0.21193 0.0
C794 C 0.66144 0.85088 0.16957 0.0
C795 C 0.66898 0.8237 0.17561 0.0
C796 C 0.63286 0.85393 0.16623 0.0
C797 C 0.61128 0.82982 0.16874 0.0
C798 C 0.6187 0.80262 0.175 0.0
H799 H 0.49261 0.88326 0.05103 0.0
H800 H 0.49501 0.85358 0.09019 0.0
C801 C 0.64743 0.79967 0.17873 0.0
C802 C 0.58161 0.83254 0.15994 0.0
H803 H 0.54226 0.88748 0.16176 0.0
C804 C 0.56982 0.81809 0.13518 0.0
C805 C 0.56913 0.85553 0.17099 0.0
C806 C 0.57937 0.86993 0.19865 0.0
C807 C 0.55003 0.83007 0.11865 0.0
C808 C 0.54185 0.85679 0.12765 0.0
C809 C 0.54917 0.86745 0.15462 0.0
C810 C 0.53547 0.8782 0.10794 0.0
C811 C 0.54161 0.8166 0.0903 0.0
C812 C 0.55649 0.90294 0.10588 0.0
C813 C 0.55507 0.9201 0.08385 0.0
C814 C 0.53269 0.91267 0.06327 0.0
C815 C 0.5105 0.88915 0.06631 0.0
C816 C 0.51174 0.8722 0.08868 0.0
H817 H 0.54986 0.79572 0.08674 0.0
H818 H 0.51801 0.81183 0.0864 0.0
H819 H 0.54998 0.83225 0.07555 0.0
H820 H 0.57508 0.90795 0.1205 0.0
H821 H 0.5723 0.93826 0.08237 0.0
H822 H 0.20546 0.71851 0.16447 0.0
H823 H 0.19155 0.68314 0.12579 0.0
H824 H 0.25135 0.6297 0.15711 0.0
H825 H 0.2656 0.66521 0.19623 0.0
H826 H 0.22817 0.65805 0.08649 0.0
H827 H 0.16861 0.57741 0.14979 0.0
H828 H 0.17811 0.61579 0.16129 0.0
H829 H 0.20531 0.59335 0.15992 0.0
C830 C 0.21581 0.69935 0.16316 0.0
C831 C 0.23637 0.69446 0.18357 0.0
C832 C 0.20801 0.6793 0.14092 0.0
C833 C 0.22046 0.65393 0.13869 0.0
C834 C 0.24155 0.64922 0.15859 0.0
H835 H 0.10163 0.5265 0.03472 0.0
H836 H 0.14961 0.54281 0.05707 0.0
C837 C 0.24954 0.66944 0.18089 0.0
C838 C 0.20899 0.63161 0.11658 0.0
H839 H 0.15556 0.57269 0.1034 0.0
C840 C 0.21292 0.63877 0.09004 0.0
C841 C 0.18957 0.60626 0.12134 0.0
C842 C 0.18496 0.59753 0.14957 0.0
C843 C 0.19582 0.62279 0.06816 0.0
C844 C 0.17385 0.59973 0.0732 0.0
C845 C 0.17223 0.59054 0.09951 0.0
C846 C 0.14894 0.58922 0.05324 0.0
C847 C 0.20043 0.63182 0.04007 0.0
C848 C 0.133 0.60979 0.04275 0.0
C849 C 0.10563 0.60057 0.02991 0.0
C850 C 0.09345 0.57057 0.02764 0.0
C851 C 0.11028 0.54979 0.03622 0.0
C852 C 0.13778 0.55906 0.04899 0.0
H853 H 0.22352 0.63903 0.0382 0.0
H854 H 0.19193 0.61359 0.02463 0.0
H855 H 0.18958 0.65086 0.03592 0.0
H856 H 0.14072 0.63321 0.04634 0.0
H857 H 0.09339 0.61717 0.02338 0.0
H858 H 0.27021 0.80123 0.8396 0.0
H859 H 0.28961 0.84414 0.87042 0.0
H860 H 0.30262 0.89761 0.80251 0.0
H861 H 0.28524 0.85412 0.77183 0.0
H862 H 0.34868 0.90318 0.83096 0.0
H863 H 0.2701 0.91675 0.90258 0.0
H864 H 0.27562 0.8793 0.9019 0.0
H865 H 0.26061 0.89354 0.87183 0.0
C866 C 0.27652 0.82237 0.83141 0.0
C867 C 0.27651 0.82454 0.80352 0.0
C868 C 0.28733 0.84703 0.84901 0.0
C869 C 0.29732 0.87441 0.83891 0.0
C870 C 0.2951 0.87684 0.81088 0.0
H871 H 0.43264 1.00251 0.93282 0.0
H872 H 0.38737 0.99036 0.90372 0.0
C873 C 0.2852 0.85204 0.79336 0.0
C874 C 0.31471 0.8986 0.85705 0.0
H875 H 0.3208 0.93103 0.9208 0.0
C876 C 0.3421 0.91008 0.85018 0.0
C877 C 0.30628 0.90793 0.88214 0.0
C878 C 0.27639 0.89891 0.88982 0.0
C879 C 0.36208 0.92825 0.86856 0.0
C880 C 0.35454 0.93508 0.89459 0.0
C881 C 0.32653 0.92564 0.90082 0.0
C882 C 0.37702 0.9461 0.91669 0.0
C883 C 0.39194 0.93785 0.86081 0.0
C884 C 0.38527 0.92577 0.93443 0.0
C885 C 0.41102 0.93247 0.95063 0.0
C886 C 0.4288 0.95977 0.94962 0.0
C887 C 0.41926 0.98129 0.93388 0.0
C888 C 0.39348 0.97439 0.9173 0.0
H889 H 0.39469 0.9292 0.84021 0.0
H890 H 0.39685 0.96226 0.86155 0.0
H891 H 0.40772 0.93022 0.87531 0.0
H892 H 0.37289 0.90383 0.9342 0.0
H893 H 0.41775 0.91567 0.9629 0.0
H894 H 0.20954 0.25276 0.84198 0.0
H895 H 0.18101 0.2768 0.872 0.0
H896 H 0.15439 0.32745 0.80704 0.0
H897 H 0.18192 0.30309 0.77692 0.0
H898 H 0.18715 0.33424 0.88774 0.0
H899 H 0.07919 0.2988 0.83511 0.0
H900 H 0.10922 0.28191 0.82716 0.0
H901 H 0.10365 0.31591 0.81301 0.0
C902 C 0.19719 0.26864 0.83399 0.0
C903 C 0.19793 0.27588 0.807 0.0
C904 C 0.18098 0.28243 0.85119 0.0
C905 C 0.16517 0.30362 0.84169 0.0
C906 C 0.16574 0.31064 0.8147 0.0
H907 H 0.11359 0.44641 0.93422 0.0
H908 H 0.13765 0.41486 0.90652 0.0
C909 C 0.18173 0.29679 0.79751 0.0
C910 C 0.1495 0.31982 0.86023 0.0
H911 H 0.08494 0.34073 0.86685 0.0
C912 C 0.16471 0.33539 0.88334 0.0
C913 C 0.12013 0.32104 0.85471 0.0
C914 C 0.10204 0.30326 0.8313 0.0
C915 C 0.15162 0.35288 0.90059 0.0
C916 C 0.12268 0.35549 0.89417 0.0
C917 C 0.10724 0.33914 0.87155 0.0
C918 C 0.10794 0.37486 0.91072 0.0
C919 C 0.16887 0.3681 0.92565 0.0
C920 C 0.08262 0.36317 0.9215 0.0
C921 C 0.06855 0.38124 0.93698 0.0
C922 C 0.0795 0.41146 0.94207 0.0
C923 C 0.10468 0.42322 0.93093 0.0
C924 C 0.11861 0.40514 0.91524 0.0
H925 H 0.18709 0.35692 0.93186 0.0
H926 H 0.17773 0.39105 0.92153 0.0
H927 H 0.1555 0.36882 0.94271 0.0
H928 H 0.07387 0.33992 0.91817 0.0
H929 H 0.04925 0.37137 0.94523 0.0
H930 H 0.73879 0.17933 0.81406 0.0
H931 H 0.7085 0.15004 0.84346 0.0
H932 H 0.64109 0.19923 0.8236 0.0
H933 H 0.67115 0.22819 0.79368 0.0
H934 H 0.68612 0.16341 0.8881 0.0
H935 H 0.59503 0.11839 0.81302 0.0
H936 H 0.62839 0.13742 0.80339 0.0
H937 H 0.60262 0.15788 0.81574 0.0
C938 C 0.71743 0.18385 0.81568 0.0
C939 C 0.70759 0.20622 0.80105 0.0
C940 C 0.69999 0.16698 0.8327 0.0
C941 C 0.67193 0.17165 0.83577 0.0
C942 C 0.66215 0.19421 0.82134 0.0
H943 H 0.54326 0.08528 0.94088 0.0
H944 H 0.56789 0.11867 0.90994 0.0
C945 C 0.67958 0.21107 0.80422 0.0
C946 C 0.65365 0.15363 0.85467 0.0
H947 H 0.58893 0.10896 0.85863 0.0
C948 C 0.6649 0.15153 0.88145 0.0
C949 C 0.62563 0.13797 0.84662 0.0
C950 C 0.61225 0.13773 0.81808 0.0
C951 C 0.64937 0.13468 0.89998 0.0
C952 C 0.6216 0.11864 0.89181 0.0
C953 C 0.61004 0.12113 0.86523 0.0
C954 C 0.60537 0.09784 0.91006 0.0
C955 C 0.6629 0.13454 0.92843 0.0
C956 C 0.61743 0.07434 0.92026 0.0
C957 C 0.60327 0.05517 0.93769 0.0
C958 C 0.57619 0.05841 0.94575 0.0
C959 C 0.56376 0.08167 0.93517 0.0
C960 C 0.57802 0.10095 0.91746 0.0
H961 H 0.67943 0.15439 0.93388 0.0
H962 H 0.6467 0.13355 0.94317 0.0
H963 H 0.67343 0.11491 0.93019 0.0
H964 H 0.63803 0.07065 0.91465 0.0
H965 H 0.61384 0.03761 0.94489 0.0
H966 H 0.76832 0.66846 0.79465 0.0
H967 H 0.79731 0.64034 0.8229 0.0
H968 H 0.86625 0.71438 0.83208 0.0
H969 H 0.83762 0.74247 0.80374 0.0
H970 H 0.8847 0.66149 0.81999 0.0
H971 H 0.81635 0.65005 0.90454 0.0
H972 H 0.79809 0.63726 0.87205 0.0
H973 H 0.81241 0.67572 0.87892 0.0
C974 C 0.78958 0.67885 0.80281 0.0
C975 C 0.80048 0.70786 0.79694 0.0
C976 C 0.80614 0.66275 0.81909 0.0
C977 C 0.83395 0.67528 0.82999 0.0
C978 C 0.84488 0.70417 0.82405 0.0
H979 H 0.97178 0.62372 0.93409 0.0
H980 H 0.94313 0.64712 0.90137 0.0
C981 C 0.82837 0.72028 0.80785 0.0
C982 C 0.85192 0.65831 0.84721 0.0
H983 H 0.85524 0.62421 0.90647 0.0
C984 C 0.87825 0.65336 0.83892 0.0
C985 C 0.8436 0.64757 0.87192 0.0
C986 C 0.81621 0.65308 0.88259 0.0
C987 C 0.89622 0.6378 0.8544 0.0
C988 C 0.88805 0.62732 0.87926 0.0
C989 C 0.86161 0.63209 0.88744 0.0
C990 C 0.90666 0.61187 0.89743 0.0
C991 C 0.92355 0.63224 0.84363 0.0
C992 C 0.89596 0.58415 0.90636 0.0
C993 C 0.91229 0.57073 0.92527 0.0
C994 C 0.93979 0.58474 0.93593 0.0
C995 C 0.95085 0.61206 0.92626 0.0
C996 C 0.93445 0.6255 0.90739 0.0
H997 H 0.92245 0.63329 0.82138 0.0
H998 H 0.94141 0.64944 0.85261 0.0
H999 H 0.92848 0.61039 0.84886 0.0
H1000 H 0.87463 0.57309 0.89909 0.0
H1001 H 0.90292 0.54975 0.93217 0.0
H1002 H 0.17786 0.27065 0.19297 0.0
H1003 H 0.14918 0.29957 0.16549 0.0
H1004 H 0.21947 0.37222 0.17322 0.0
H1005 H 0.24843 0.34336 0.2006 0.0
H1006 H 0.13275 0.35365 0.17903 0.0
H1007 H 0.19743 0.36296 0.09179 0.0
H1008 H 0.2014 0.33684 0.117 0.0
H1009 H 0.21722 0.37493 0.1238 0.0
C1010 C 0.18739 0.29269 0.18866 0.0
C1011 C 0.21563 0.30453 0.19895 0.0
C1012 C 0.17086 0.30927 0.17298 0.0
C1013 C 0.18215 0.33804 0.16694 0.0
C1014 C 0.21035 0.34992 0.17713 0.0
H1015 H 0.11495 0.46762 0.06851 0.0
H1016 H 0.14324 0.44279 0.10036 0.0
C1017 C 0.22689 0.33338 0.1929 0.0
C1018 C 0.16419 0.3557 0.1505 0.0
H1019 H 0.15995 0.39068 0.09178 0.0
C1020 C 0.13868 0.3617 0.15992 0.0
C1021 C 0.17185 0.36637 0.12557 0.0
C1022 C 0.19832 0.35979 0.11374 0.0
C1023 C 0.12095 0.37831 0.14538 0.0
C1024 C 0.12849 0.38877 0.12031 0.0
C1025 C 0.15408 0.38285 0.11098 0.0
C1026 C 0.11002 0.4053 0.10308 0.0
C1027 C 0.09462 0.38501 0.15739 0.0
C1028 C 0.08157 0.39295 0.09419 0.0
C1029 C 0.06517 0.40728 0.07608 0.0
C1030 C 0.07688 0.43421 0.06608 0.0
C1031 C 0.10507 0.447 0.07572 0.0
C1032 C 0.1214 0.4327 0.0939 0.0
H1033 H 0.09664 0.38385 0.17964 0.0
H1034 H 0.09034 0.40721 0.15259 0.0
H1035 H 0.07595 0.36845 0.14899 0.0
H1036 H 0.0723 0.37161 0.10039 0.0
H1037 H 0.04367 0.39655 0.06905 0.0
H1038 H 0.11287 0.7314 0.78508 0.0
H1039 H 0.07695 0.71185 0.81453 0.0
H1040 H 0.14307 0.68728 0.869 0.0
H1041 H 0.17889 0.70678 0.83967 0.0
H1042 H 0.06951 0.65359 0.82012 0.0
H1043 H 0.08952 0.71075 0.92122 0.0
H1044 H 0.10289 0.72755 0.89186 0.0
H1045 H 0.12244 0.70325 0.91008 0.0
C1046 C 0.11974 0.72254 0.80374 0.0
C1047 C 0.14852 0.72001 0.80992 0.0
C1048 C 0.09927 0.71163 0.82061 0.0
C1049 C 0.10734 0.69824 0.84397 0.0
C1050 C 0.13641 0.69813 0.85138 0.0
H1051 H 0.08711 0.55536 0.92652 0.0
H1052 H 0.09463 0.59695 0.89831 0.0
C1053 C 0.15691 0.70913 0.83454 0.0
C1054 C 0.08576 0.67901 0.85737 0.0
H1055 H 0.07247 0.657 0.91976 0.0
C1056 C 0.06921 0.6549 0.84185 0.0
C1057 C 0.08519 0.68086 0.88563 0.0
C1058 C 0.10077 0.70723 0.90306 0.0
C1059 C 0.05489 0.63095 0.85417 0.0
C1060 C 0.05726 0.63139 0.88249 0.0
C1061 C 0.07108 0.65678 0.89793 0.0
C1062 C 0.05087 0.6041 0.8963 0.0
C1063 C 0.03963 0.60417 0.83708 0.0
C1064 C 0.02343 0.59379 0.90333 0.0
C1065 C 0.01894 0.56971 0.91926 0.0
C1066 C 0.04194 0.55611 0.9286 0.0
C1067 C 0.06895 0.5654 0.91986 0.0
C1068 C 0.07336 0.58927 0.90389 0.0
H1069 H 0.03715 0.60845 0.81537 0.0
H1070 H 0.05188 0.58584 0.83954 0.0
H1071 H 0.0182 0.59689 0.84387 0.0
H1072 H 1.00584 0.60491 0.89726 0.0
H1073 H 0.99777 0.56249 0.92508 0.0
H1074 H 0.31788 0.15752 0.86462 0.0
H1075 H 0.35851 0.13176 0.87037 0.0
H1076 H 0.37254 0.14057 0.78675 0.0
H1077 H 0.33252 0.16721 0.78103 0.0
H1078 H 0.37214 0.08063 0.8427 0.0
H1079 H 0.44778 0.18351 0.82908 0.0
H1080 H 0.41107 0.18458 0.83444 0.0
H1081 H 0.41965 0.16948 0.80297 0.0
C1082 C 0.32945 0.15377 0.84742 0.0
C1083 C 0.32216 0.1647 0.82253 0.0
C1084 C 0.3525 0.1389 0.85064 0.0
C1085 C 0.36863 0.13466 0.82901 0.0
C1086 C 0.36048 0.14395 0.80369 0.0
H1087 H 0.49133 0.04902 0.91641 0.0
H1088 H 0.47412 0.06181 0.87154 0.0
C1089 C 0.3374 0.15892 0.80046 0.0
C1090 C 0.39516 0.12267 0.8343 0.0
H1091 H 0.46581 0.1472 0.85295 0.0
C1092 C 0.39293 0.09461 0.84416 0.0
C1093 C 0.4221 0.14109 0.83571 0.0
C1094 C 0.42555 0.1714 0.82506 0.0
C1095 C 0.41615 0.08595 0.8588 0.0
C1096 C 0.44246 0.10581 0.8629 0.0
C1097 C 0.4456 0.1322 0.84982 0.0
C1098 C 0.46337 0.10325 0.88589 0.0
C1099 C 0.41114 0.05723 0.87241 0.0
C1100 C 0.46611 0.12395 0.90806 0.0
C1101 C 0.47679 0.11713 0.93342 0.0
C1102 C 0.48449 0.0895 0.93671 0.0
C1103 C 0.48521 0.07043 0.91406 0.0
C1104 C 0.47529 0.07762 0.88856 0.0
H1105 H 0.38859 0.0459 0.86892 0.0
H1106 H 0.42471 0.0421 0.86447 0.0
H1107 H 0.4168 0.06113 0.8945 0.0
H1108 H 0.45718 0.14399 0.9064 0.0
H1109 H 0.47604 0.13198 0.95076 0.0
H1110 H 0.74411 0.31992 0.82595 0.0
H1111 H 0.75891 0.34952 0.86862 0.0
H1112 H 0.84621 0.33881 0.86155 0.0
H1113 H 0.83127 0.30791 0.82012 0.0
H1114 H 0.83206 0.32844 0.9101 0.0
H1115 H 0.79755 0.43322 0.88161 0.0
H1116 H 0.77019 0.40129 0.88027 0.0
H1117 H 0.79711 0.40303 0.85713 0.0
C1118 C 0.76646 0.32411 0.83357 0.0
C1119 C 0.78664 0.31168 0.81991 0.0
C1120 C 0.77488 0.34114 0.85782 0.0
C1121 C 0.80369 0.34663 0.86819 0.0
C1122 C 0.82381 0.33469 0.85407 0.0
H1123 H 0.92498 0.47298 0.93976 0.0
H1124 H 0.87909 0.44704 0.91906 0.0
C1125 C 0.81533 0.31713 0.83036 0.0
C1126 C 0.81366 0.36411 0.89396 0.0
H1127 H 0.82589 0.43436 0.92239 0.0
C1128 C 0.83053 0.35157 0.91304 0.0
C1129 C 0.81088 0.39403 0.89798 0.0
C1130 C 0.79312 0.40885 0.87815 0.0
C1131 C 0.8479 0.36887 0.93392 0.0
C1132 C 0.84681 0.39943 0.9369 0.0
C1133 C 0.82694 0.41108 0.91991 0.0
C1134 C 0.87002 0.42033 0.95288 0.0
C1135 C 0.86929 0.35456 0.95044 0.0
C1136 C 0.87945 0.41565 0.97955 0.0
C1137 C 0.9065 0.42947 0.99082 0.0
C1138 C 0.92342 0.44951 0.97618 0.0
C1139 C 0.91222 0.45743 0.95128 0.0
C1140 C 0.88588 0.44266 0.93953 0.0
H1141 H 0.87031 0.33198 0.94215 0.0
H1142 H 0.89102 0.36779 0.95124 0.0
H1143 H 0.86311 0.35272 0.97127 0.0
H1144 H 0.86697 0.39968 0.99083 0.0
H1145 H 0.91474 0.42353 0.01035 0.0
H1146 H 0.682 0.76014 0.80124 0.0
H1147 H 0.65694 0.78587 0.83305 0.0
H1148 H 0.73009 0.85521 0.84773 0.0
H1149 H 0.75509 0.82995 0.81538 0.0
H1150 H 0.66843 0.80229 0.88629 0.0
H1151 H 0.66754 0.90183 0.82846 0.0
H1152 H 0.67756 0.86861 0.81451 0.0
H1153 H 0.70263 0.89388 0.83714 0.0
C1154 C 0.69284 0.78084 0.81126 0.0
C1155 C 0.72052 0.79307 0.80555 0.0
C1156 C 0.67844 0.79555 0.82948 0.0
C1157 C 0.69134 0.82283 0.84243 0.0
C1158 C 0.71935 0.83461 0.83748 0.0
H1159 H 0.62921 0.94262 0.95637 0.0
H1160 H 0.65912 0.91736 0.9289 0.0
C1161 C 0.73372 0.82 0.81912 0.0
C1162 C 0.67535 0.8388 0.86102 0.0
H1163 H 0.65018 0.90335 0.87143 0.0
C1164 C 0.66444 0.82438 0.883 0.0
C1165 C 0.67005 0.86765 0.85678 0.0
C1166 C 0.6798 0.88384 0.83282 0.0
C1167 C 0.6486 0.83802 0.90084 0.0
C1168 C 0.64323 0.86677 0.89652 0.0
C1169 C 0.65441 0.88135 0.87479 0.0
C1170 C 0.62525 0.88169 0.91376 0.0
C1171 C 0.63791 0.82165 0.92436 0.0
C1172 C 0.5962 0.87019 0.91422 0.0
C1173 C 0.57899 0.88462 0.92978 0.0
C1174 C 0.59045 0.91093 0.9453 0.0
C1175 C 0.61964 0.92236 0.94483 0.0
C1176 C 0.63679 0.90798 0.92908 0.0
H1177 H 0.64959 0.80321 0.92872 0.0
H1178 H 0.64006 0.83671 0.94277 0.0
H1179 H 0.61497 0.81228 0.91956 0.0
H1180 H 0.58669 0.8502 0.90223 0.0
H1181 H 0.55665 0.87514 0.92954 0.0
H1182 H 0.79252 0.75987 0.15103 0.0
H1183 H 0.81591 0.72968 0.12094 0.0
H1184 H 0.87767 0.71986 0.18678 0.0
H1185 H 0.85439 0.74942 0.21688 0.0
H1186 H 0.8721 0.73401 0.10624 0.0
H1187 H 0.84219 0.63467 0.16232 0.0
H1188 H 0.82668 0.66749 0.16695 0.0
H1189 H 0.86131 0.66551 0.18344 0.0
C1190 C 0.81135 0.75165 0.15895 0.0
C1191 C 0.82144 0.75682 0.18639 0.0
C1192 C 0.82461 0.73432 0.14178 0.0
C1193 C 0.84809 0.72194 0.15182 0.0
C1194 C 0.85915 0.72856 0.17878 0.0
H1195 H 0.9709 0.64304 0.06875 0.0
H1196 H 0.94494 0.67487 0.09392 0.0
C1197 C 0.8459 0.74566 0.19592 0.0
C1198 C 0.86071 0.7014 0.13453 0.0
H1199 H 0.87673 0.6319 0.13094 0.0
C1200 C 0.87295 0.71161 0.11149 0.0
C1201 C 0.86131 0.67199 0.14113 0.0
C1202 C 0.84692 0.65913 0.16465 0.0
C1203 C 0.88669 0.69352 0.09541 0.0
C1204 C 0.8887 0.66465 0.1029 0.0
C1205 C 0.87555 0.65414 0.1254 0.0
C1206 C 0.90454 0.64507 0.08786 0.0
C1207 C 0.89871 0.70544 0.07043 0.0
C1208 C 0.89078 0.61716 0.07698 0.0
C1209 C 0.90568 0.59866 0.06285 0.0
C1210 C 0.9347 0.60768 0.05935 0.0
C1211 C 0.94854 0.63541 0.07082 0.0
C1212 C 0.93366 0.65381 0.08504 0.0
H1213 H 0.88815 0.72372 0.06321 0.0
H1214 H 0.9218 0.71421 0.07515 0.0
H1215 H 0.89626 0.68793 0.05388 0.0
H1216 H 0.86838 0.60983 0.07912 0.0
H1217 H 0.8943 0.57749 0.05431 0.0
H1218 H 0.27984 0.82518 0.18324 0.0
H1219 H 0.31098 0.85436 0.15452 0.0
H1220 H 0.3821 0.81602 0.18685 0.0
H1221 H 0.35075 0.7861 0.21515 0.0
H1222 H 0.35535 0.89628 0.16403 0.0
H1223 H 0.39324 0.80511 0.10926 0.0
H1224 H 0.36453 0.79865 0.13058 0.0
H1225 H 0.40108 0.80571 0.1451 0.0
C1226 C 0.30208 0.82274 0.18424 0.0
C1227 C 0.31248 0.80292 0.20168 0.0
C1228 C 0.32005 0.83961 0.16767 0.0
C1229 C 0.34918 0.83739 0.16773 0.0
C1230 C 0.35973 0.81788 0.18546 0.0
H1231 H 0.48398 0.93908 0.07733 0.0
H1232 H 0.45997 0.90626 0.10918 0.0
C1233 C 0.34169 0.80084 0.20199 0.0
C1234 C 0.36825 0.8561 0.14989 0.0
H1235 H 0.41504 0.85356 0.10135 0.0
C1236 C 0.36831 0.88671 0.15038 0.0
C1237 C 0.38566 0.84425 0.13187 0.0
C1238 C 0.386 0.81162 0.12891 0.0
C1239 C 0.38474 0.90535 0.13372 0.0
C1240 C 0.40173 0.89345 0.11542 0.0
C1241 C 0.40228 0.863 0.11528 0.0
C1242 C 0.41712 0.91203 0.09513 0.0
C1243 C 0.38386 0.93791 0.13602 0.0
C1244 C 0.40147 0.92581 0.07591 0.0
C1245 C 0.41511 0.9441 0.05755 0.0
C1246 C 0.44514 0.94948 0.05744 0.0
C1247 C 0.46094 0.93519 0.07631 0.0
C1248 C 0.44712 0.91655 0.09475 0.0
H1249 H 0.37703 0.94479 0.15573 0.0
H1250 H 0.40505 0.95108 0.13359 0.0
H1251 H 0.36827 0.94312 0.11991 0.0
H1252 H 0.3784 0.92249 0.07511 0.0
H1253 H 0.40185 0.95425 0.04338 0.0
H1254 H 0.7539 0.14784 0.22 0.0
H1255 H 0.73542 0.10652 0.18712 0.0
H1256 H 0.7354 0.16702 0.12383 0.0
H1257 H 0.7557 0.20796 0.15655 0.0
H1258 H 0.68551 0.10201 0.16493 0.0
H1259 H 0.75295 0.09888 0.08145 0.0
H1260 H 0.766 0.11925 0.11316 0.0
H1261 H 0.74648 0.13572 0.08708 0.0
C1262 C 0.7511 0.15197 0.19883 0.0
C1263 C 0.75622 0.18083 0.1906 0.0
C1264 C 0.74051 0.12842 0.18006 0.0
C1265 C 0.73405 0.13346 0.15286 0.0
C1266 C 0.74092 0.16225 0.14444 0.0
H1267 H 0.60075 0.09573 0.03876 0.0
H1268 H 0.64757 0.10814 0.06402 0.0
C1269 C 0.75231 0.18574 0.16316 0.0
C1270 C 0.71512 0.11028 0.13483 0.0
H1271 H 0.70109 0.08342 0.06916 0.0
C1272 C 0.68944 0.09713 0.14425 0.0
C1273 C 0.72009 0.10373 0.10782 0.0
C1274 C 0.74807 0.11495 0.09696 0.0
C1275 C 0.66767 0.0799 0.12692 0.0
C1276 C 0.67167 0.07561 0.09938 0.0
C1277 C 0.69808 0.08681 0.09031 0.0
C1278 C 0.64692 0.06504 0.07937 0.0
C1279 C 0.6396 0.0686 0.13772 0.0
C1280 C 0.63157 0.03622 0.07871 0.0
C1281 C 0.60458 0.029 0.0642 0.0
C1282 C 0.59267 0.05067 0.05053 0.0
C1283 C 0.60916 0.07873 0.04956 0.0
C1284 C 0.63606 0.08579 0.06376 0.0
H1285 H 0.63933 0.07586 0.15925 0.0
H1286 H 0.62184 0.07633 0.1258 0.0
H1287 H 0.63552 0.04416 0.13588 0.0
H1288 H 0.63974 0.01987 0.09058 0.0
H1289 H 0.59236 0.00714 0.0651 0.0
H1290 H 0.61298 0.66679 0.74101 0.0
H1291 H 0.57918 0.64576 0.77228 0.0
H1292 H 0.64925 0.62578 0.82466 0.0
H1293 H 0.6829 0.64666 0.79365 0.0
H1294 H 0.59305 0.57907 0.81109 0.0
H1295 H 0.58341 0.69141 0.85216 0.0
H1296 H 0.58097 0.68275 0.81627 0.0
H1297 H 0.6146 0.68553 0.83604 0.0
C1298 C 0.62099 0.65729 0.75892 0.0
C1299 C 0.65048 0.65842 0.76512 0.0
C1300 C 0.60176 0.6455 0.77674 0.0
C1301 C 0.6119 0.63448 0.80069 0.0
C1302 C 0.64115 0.63427 0.80621 0.0
H1303 H 0.60427 0.58524 0.95271 0.0
H1304 H 0.60976 0.6071 0.90957 0.0
C1305 C 0.6603 0.64625 0.78862 0.0
C1306 C 0.59281 0.62488 0.8213 0.0
H1307 H 0.56936 0.65165 0.87865 0.0
C1308 C 0.58688 0.59477 0.8254 0.0
C1309 C 0.58512 0.64561 0.83989 0.0
C1310 C 0.59125 0.6782 0.83607 0.0
C1311 C 0.57518 0.58495 0.84876 0.0
C1312 C 0.5696 0.60587 0.86836 0.0
C1313 C 0.5736 0.6358 0.86338 0.0
C1314 C 0.5648 0.59735 0.89577 0.0
C1315 C 0.57103 0.55253 0.8535 0.0
C1316 C 0.53751 0.5857 0.90242 0.0
C1317 C 0.53423 0.57328 0.92717 0.0
C1318 C 0.55831 0.57214 0.94531 0.0
C1319 C 0.58537 0.58556 0.93911 0.0
C1320 C 0.58855 0.59811 0.91454 0.0
H1321 H 0.57395 0.53889 0.8353 0.0
H1322 H 0.58664 0.54867 0.87021 0.0
H1323 H 0.54932 0.54514 0.8596 0.0
H1324 H 0.51901 0.58498 0.88802 0.0
H1325 H 0.5131 0.56309 0.93137 0.0
H1326 H 0.33658 0.70316 0.77505 0.0
H1327 H 0.36543 0.67572 0.80355 0.0
H1328 H 0.3081 0.67875 0.86544 0.0
H1329 H 0.27808 0.70483 0.83605 0.0
H1330 H 0.39594 0.68863 0.84729 0.0
H1331 H 0.31398 0.59491 0.86725 0.0
H1332 H 0.30696 0.62099 0.84289 0.0
H1333 H 0.30465 0.62933 0.87824 0.0
C1334 C 0.32987 0.69771 0.79463 0.0
C1335 C 0.30485 0.70609 0.80316 0.0
C1336 C 0.34652 0.68201 0.81103 0.0
C1337 C 0.33901 0.67452 0.83674 0.0
C1338 C 0.31411 0.68321 0.84546 0.0
H1339 H 0.46514 0.63134 0.96003 0.0
H1340 H 0.43615 0.65561 0.92862 0.0
C1341 C 0.29699 0.69839 0.82871 0.0
C1342 C 0.35799 0.65877 0.85443 0.0
H1343 H 0.35836 0.6007 0.89456 0.0
C1344 C 0.3876 0.66926 0.85742 0.0
C1345 C 0.3476 0.63306 0.86746 0.0
C1346 C 0.31662 0.61873 0.86357 0.0
C1347 C 0.40682 0.65518 0.87297 0.0
C1348 C 0.39626 0.63048 0.88722 0.0
C1349 C 0.3667 0.61975 0.88402 0.0
C1350 C 0.41528 0.61559 0.90568 0.0
C1351 C 0.43835 0.66658 0.87315 0.0
C1352 C 0.41315 0.5847 0.90401 0.0
C1353 C 0.42936 0.5706 0.92253 0.0
C1354 C 0.44842 0.58701 0.94308 0.0
C1355 C 0.45118 0.61793 0.9442 0.0
C1356 C 0.43456 0.63195 0.92606 0.0
H1357 H 0.44319 0.67756 0.85438 0.0
H1358 H 0.44525 0.68323 0.89029 0.0
H1359 H 0.45111 0.64861 0.87522 0.0
H1360 H 0.39853 0.57137 0.88861 0.0
H1361 H 0.42649 0.54676 0.9211 0.0
H1362 H 0.28128 0.35083 0.77664 0.0
H1363 H 0.31118 0.39176 0.8048 0.0
H1364 H 0.36809 0.33306 0.83123 0.0
H1365 H 0.3384 0.29241 0.80372 0.0
H1366 H 0.32222 0.38722 0.8635 0.0
H1367 H 0.42158 0.40898 0.81304 0.0
H1368 H 0.38758 0.39244 0.7953 0.0
H1369 H 0.40853 0.37036 0.81468 0.0
C1370 C 0.30061 0.347 0.78794 0.0
C1371 C 0.30763 0.31858 0.78812 0.0
C1372 C 0.31752 0.37026 0.80403 0.0
C1373 C 0.3419 0.36537 0.81981 0.0
C1374 C 0.34959 0.33733 0.81885 0.0
H1375 H 0.4585 0.40121 0.95184 0.0
H1376 H 0.42126 0.38447 0.91507 0.0
C1377 C 0.33257 0.31412 0.80324 0.0
C1378 C 0.35792 0.38807 0.83979 0.0
H1379 H 0.42642 0.41914 0.86152 0.0
C1380 C 0.34482 0.39514 0.8628 0.0
C1381 C 0.38733 0.39824 0.83871 0.0
C1382 C 0.40204 0.39236 0.81397 0.0
C1383 C 0.36106 0.4099 0.88577 0.0
C1384 C 0.39085 0.41765 0.88542 0.0
C1385 C 0.40352 0.41279 0.86168 0.0
C1386 C 0.40979 0.42746 0.91021 0.0
C1387 C 0.34681 0.41518 0.91091 0.0
C1388 C 0.41484 0.45699 0.92006 0.0
C1389 C 0.43609 0.46667 0.94116 0.0
C1390 C 0.45269 0.44694 0.95247 0.0
C1391 C 0.44625 0.417 0.94352 0.0
C1392 C 0.42502 0.40739 0.92251 0.0
H1393 H 0.32324 0.40864 0.90764 0.0
H1394 H 0.35512 0.40246 0.92723 0.0
H1395 H 0.35202 0.43886 0.91788 0.0
H1396 H 0.40327 0.47274 0.91065 0.0
H1397 H 0.44053 0.48988 0.94749 0.0
H1398 H 0.69862 0.38261 0.74734 0.0
H1399 H 0.69054 0.41707 0.78393 0.0
H1400 H 0.64259 0.34509 0.82123 0.0
H1401 H 0.65073 0.31074 0.78488 0.0
H1402 H 0.63542 0.42606 0.81084 0.0
H1403 H 0.71757 0.38072 0.87402 0.0
H1404 H 0.71623 0.3798 0.83766 0.0
H1405 H 0.69172 0.354 0.85366 0.0
C1406 C 0.68542 0.37444 0.76281 0.0
C1407 C 0.67528 0.34411 0.7635 0.0
C1408 C 0.68108 0.39403 0.78375 0.0
C1409 C 0.66649 0.38336 0.80536 0.0
C1410 C 0.65421 0.35354 0.80479 0.0
H1411 H 0.60312 0.40615 0.94918 0.0
H1412 H 0.62664 0.39347 0.90986 0.0
C1413 C 0.65866 0.33404 0.78404 0.0
C1414 C 0.66601 0.40232 0.82985 0.0
H1415 H 0.68699 0.40696 0.8972 0.0
C1416 C 0.6472 0.42262 0.82966 0.0
C1417 C 0.68173 0.39778 0.85417 0.0
C1418 C 0.70316 0.37708 0.855 0.0
C1419 C 0.64186 0.43672 0.85379 0.0
C1420 C 0.65592 0.43034 0.8784 0.0
C1421 C 0.67631 0.41173 0.87825 0.0
C1422 C 0.64595 0.43836 0.90442 0.0
C1423 C 0.61966 0.45656 0.85312 0.0
C1424 C 0.65009 0.46768 0.91491 0.0
C1425 C 0.63679 0.475 0.93759 0.0
C1426 C 0.61902 0.45306 0.94974 0.0
C1427 C 0.61649 0.42353 0.9401 0.0
C1428 C 0.62994 0.41625 0.91769 0.0
H1429 H 0.60944 0.45777 0.83242 0.0
H1430 H 0.60283 0.44852 0.86628 0.0
H1431 H 0.62975 0.47913 0.861 0.0
H1432 H 0.66261 0.48494 0.90496 0.0
H1433 H 0.63902 0.49796 0.94456 0.0
H1434 H 0.76086 0.32915 0.19016 0.0
H1435 H 0.73294 0.36072 0.16465 0.0
H1436 H 0.65555 0.30089 0.17439 0.0
H1437 H 0.68302 0.26999 0.2004 0.0
H1438 H 0.69874 0.35262 0.11866 0.0
H1439 H 0.63311 0.37613 0.20042 0.0
H1440 H 0.66389 0.35843 0.20609 0.0
H1441 H 0.63 0.33734 0.19247 0.0
C1442 C 0.7379 0.32274 0.18684 0.0
C1443 C 0.72424 0.29714 0.19762 0.0
C1444 C 0.7219 0.34085 0.17227 0.0
C1445 C 0.6919 0.33377 0.16813 0.0
C1446 C 0.67846 0.30758 0.17802 0.0
H1447 H 0.55835 0.39851 0.06945 0.0
H1448 H 0.58626 0.37098 0.09939 0.0
C1449 C 0.69432 0.28971 0.19274 0.0
C1450 C 0.67462 0.35326 0.15309 0.0
H1451 H 0.61698 0.38853 0.15637 0.0
C1452 C 0.68107 0.36067 0.12708 0.0
C1453 C 0.65146 0.36402 0.16393 0.0
C1454 C 0.64438 0.35884 0.19236 0.0
C1455 C 0.66468 0.37768 0.11149 0.0
C1456 C 0.64118 0.38774 0.12209 0.0
C1457 C 0.63484 0.38064 0.14814 0.0
C1458 C 0.62307 0.40564 0.10627 0.0
C1459 C 0.67221 0.38431 0.08346 0.0
C1460 C 0.63396 0.43474 0.101 0.0
C1461 C 0.61794 0.4507 0.08415 0.0
C1462 C 0.59065 0.43786 0.07192 0.0
C1463 C 0.57924 0.40917 0.07837 0.0
C1464 C 0.59522 0.39332 0.09546 0.0
H1465 H 0.68806 0.37118 0.07657 0.0
H1466 H 0.65278 0.37981 0.06891 0.0
H1467 H 0.68137 0.40802 0.08323 0.0
H1468 H 0.65523 0.44487 0.10936 0.0
H1469 H 0.62756 0.47268 0.07976 0.0
H1470 H 0.68627 0.7255 0.21925 0.0
H1471 H 0.66063 0.6818 0.19265 0.0
H1472 H 0.73615 0.64162 0.20008 0.0
H1473 H 0.76183 0.68532 0.22744 0.0
H1474 H 0.71399 0.65311 0.14577 0.0
H1475 H 0.63014 0.59287 0.20195 0.0
H1476 H 0.63324 0.63222 0.2061 0.0
H1477 H 0.66247 0.61492 0.2185 0.0
C1478 C 0.69697 0.70678 0.21623 0.0
C1479 C 0.72587 0.70855 0.22539 0.0
C1480 C 0.68233 0.68183 0.2011 0.0
C1481 C 0.69649 0.65848 0.19457 0.0
C1482 C 0.72484 0.65933 0.20524 0.0
H1483 H 0.59428 0.533 0.07119 0.0
H1484 H 0.63293 0.55052 0.1066 0.0
C1485 C 0.73938 0.68415 0.22093 0.0
C1486 C 0.68312 0.63652 0.17273 0.0
H1487 H 0.62072 0.58987 0.15337 0.0
C1488 C 0.69402 0.63854 0.14754 0.0
C1489 C 0.65715 0.61763 0.17515 0.0
C1490 C 0.64515 0.61402 0.20195 0.0
C1491 C 0.67832 0.62403 0.12425 0.0
C1492 C 0.65125 0.60715 0.12638 0.0
C1493 C 0.64147 0.60309 0.15185 0.0
C1494 C 0.63125 0.59661 0.10237 0.0
C1495 C 0.68998 0.62807 0.09733 0.0
C1496 C 0.618 0.61686 0.08804 0.0
C1497 C 0.59572 0.60699 0.06797 0.0
C1498 C 0.58652 0.57668 0.06184 0.0
C1499 C 0.601 0.55651 0.07525 0.0
C1500 C 0.62301 0.56641 0.09556 0.0
H1501 H 0.71341 0.63594 0.0996 0.0
H1502 H 0.68525 0.6071 0.08457 0.0
H1503 H 0.67959 0.64464 0.08669 0.0
H1504 H 0.62399 0.64029 0.09328 0.0
H1505 H 0.58502 0.62304 0.05801 0.0
H1506 H 0.32683 0.63191 0.26407 0.0
H1507 H 0.34414 0.59823 0.23208 0.0
H1508 H 0.39389 0.67263 0.1995 0.0
H1509 H 0.37636 0.70608 0.23114 0.0
H1510 H 0.33265 0.60497 0.17461 0.0
H1511 H 0.44783 0.61047 0.2053 0.0
H1512 H 0.42288 0.61878 0.22862 0.0
H1513 H 0.43689 0.64591 0.20641 0.0
C1514 C 0.34233 0.64082 0.25074 0.0
C1515 C 0.35055 0.67142 0.25 0.0
C1516 C 0.35199 0.62168 0.23243 0.0
C1517 C 0.37042 0.63301 0.21366 0.0
C1518 C 0.38006 0.66347 0.21416 0.0
H1519 H 0.4365 0.61709 0.06811 0.0
H1520 H 0.4155 0.62838 0.10937 0.0
C1521 C 0.37009 0.68253 0.23213 0.0
C1522 C 0.3767 0.61406 0.19107 0.0
H1523 H 0.43245 0.59857 0.15807 0.0
C1524 C 0.35435 0.60271 0.17122 0.0
C1525 C 0.40499 0.61128 0.18686 0.0
C1526 C 0.42951 0.62201 0.20806 0.0
C1527 C 0.35994 0.59081 0.1462 0.0
C1528 C 0.38849 0.59014 0.1413 0.0
C1529 C 0.41057 0.59943 0.16191 0.0
C1530 C 0.39652 0.58325 0.11416 0.0
C1531 C 0.33569 0.58102 0.12453 0.0
C1532 C 0.39168 0.55426 0.10271 0.0
C1533 C 0.40349 0.54774 0.0789 0.0
C1534 C 0.42054 0.57014 0.0666 0.0
C1535 C 0.42364 0.59938 0.07725 0.0
C1536 C 0.41173 0.60585 0.10083 0.0
H1537 H 0.31484 0.58471 0.13109 0.0
H1538 H 0.33974 0.59311 0.10618 0.0
H1539 H 0.33431 0.5572 0.11894 0.0
H1540 H 0.3801 0.53655 0.11289 0.0
H1541 H 0.40096 0.52497 0.07124 0.0
H1542 H 0.39007 0.38115 0.26523 0.0
H1543 H 0.42797 0.40374 0.2391 0.0
H1544 H 0.39707 0.33918 0.17311 0.0
H1545 H 0.36051 0.31556 0.19944 0.0
H1546 H 0.45559 0.35241 0.1792 0.0
H1547 H 0.4067 0.45429 0.1792 0.0
H1548 H 0.4191 0.44315 0.21146 0.0
H1549 H 0.3893 0.42072 0.19175 0.0
C1550 C 0.39164 0.37147 0.24535 0.0
C1551 C 0.37173 0.34695 0.23423 0.0
C1552 C 0.41323 0.38451 0.2304 0.0
C1553 C 0.41496 0.37345 0.204 0.0
C1554 C 0.39604 0.34816 0.19342 0.0
H1555 H 0.43375 0.43459 0.05631 0.0
H1556 H 0.4252 0.41052 0.09785 0.0
C1557 C 0.37475 0.33497 0.20838 0.0
C1558 C 0.43425 0.38944 0.18602 0.0
H1559 H 0.44092 0.45021 0.14943 0.0
C1560 C 0.45298 0.37413 0.1731 0.0
C1561 C 0.43067 0.41774 0.17812 0.0
C1562 C 0.41027 0.43496 0.19065 0.0
C1563 C 0.4666 0.3855 0.15113 0.0
C1564 C 0.46143 0.4128 0.14224 0.0
C1565 C 0.44466 0.42918 0.15649 0.0
C1566 C 0.46878 0.42264 0.11576 0.0
C1567 C 0.48464 0.36745 0.13626 0.0
C1568 C 0.49643 0.43638 0.11183 0.0
C1569 C 0.50147 0.45007 0.0879 0.0
C1570 C 0.47876 0.45047 0.06798 0.0
C1571 C 0.45157 0.43498 0.07142 0.0
C1572 C 0.44666 0.42117 0.09509 0.0
H1573 H 0.48714 0.34687 0.14617 0.0
H1574 H 0.47471 0.3616 0.11532 0.0
H1575 H 0.5061 0.38064 0.13505 0.0
H1576 H 0.51368 0.43776 0.12771 0.0
H1577 H 0.52266 0.46184 0.08575 0.0
H1578 H 0.7575 0.67935 0.67694 0.0
H1579 H 0.7817 0.65324 0.64455 0.0
H1580 H 0.85577 0.72157 0.65814 0.0
H1581 H 0.83158 0.7481 0.69022 0.0
H1582 H 0.84184 0.70395 0.60406 0.0
H1583 H 0.84491 0.60657 0.6646 0.0
H1584 H 0.80983 0.61504 0.65686 0.0
H1585 H 0.836 0.64051 0.6782 0.0
C1586 C 0.7789 0.68893 0.67297 0.0
C1587 C 0.79264 0.71577 0.68636 0.0
C1588 C 0.79279 0.67383 0.65457 0.0
C1589 C 0.8208 0.6851 0.64928 0.0
C1590 C 0.83424 0.71232 0.662 0.0
H1591 H 0.95285 0.63252 0.55956 0.0
H1592 H 0.92268 0.65776 0.58626 0.0
C1593 C 0.82036 0.72747 0.68036 0.0
C1594 C 0.83621 0.66855 0.63064 0.0
H1595 H 0.86154 0.60393 0.62145 0.0
C1596 C 0.84613 0.68208 0.60787 0.0
C1597 C 0.84179 0.63995 0.63554 0.0
C1598 C 0.83283 0.6247 0.66023 0.0
C1599 C 0.86134 0.6678 0.58987 0.0
C1600 C 0.86722 0.63938 0.59496 0.0
C1601 C 0.85694 0.62566 0.61749 0.0
C1602 C 0.88517 0.6241 0.57791 0.0
C1603 C 0.87074 0.68321 0.56541 0.0
C1604 C 0.87436 0.59639 0.56465 0.0
C1605 C 0.89168 0.58171 0.54932 0.0
C1606 C 0.92028 0.59432 0.54718 0.0
C1607 C 0.93095 0.62208 0.56058 0.0
C1608 C 0.91364 0.63672 0.57577 0.0
H1609 H 0.85779 0.70043 0.56024 0.0
H1610 H 0.89334 0.69411 0.56966 0.0
H1611 H 0.86918 0.66731 0.54766 0.0
H1612 H 0.85251 0.58611 0.56617 0.0
H1613 H 0.88272 0.56034 0.53943 0.0
H1614 H 0.41415 0.77465 0.7132 0.0
H1615 H 0.44851 0.79191 0.68134 0.0
H1616 H 0.38116 0.81943 0.63055 0.0
H1617 H 0.34684 0.80191 0.66204 0.0
H1618 H 0.42309 0.79797 0.60166 0.0
H1619 H 0.47076 0.88168 0.68505 0.0
H1620 H 0.47012 0.84337 0.69052 0.0
H1621 H 0.43731 0.85772 0.68735 0.0
C1622 C 0.40668 0.7839 0.69494 0.0
C1623 C 0.37803 0.78761 0.69027 0.0
C1624 C 0.42626 0.79362 0.6768 0.0
C1625 C 0.41743 0.80748 0.65398 0.0
C1626 C 0.38837 0.80878 0.64811 0.0
H1627 H 0.42531 0.93382 0.55346 0.0
H1628 H 0.421 0.88982 0.57877 0.0
C1629 C 0.36877 0.79881 0.66609 0.0
C1630 C 0.43826 0.82473 0.63831 0.0
H1631 H 0.47924 0.89295 0.6413 0.0
C1632 C 0.43618 0.8183 0.61039 0.0
C1633 C 0.45562 0.85106 0.64985 0.0
C1634 C 0.45866 0.8591 0.6798 0.0
C1635 C 0.44846 0.83902 0.59342 0.0
C1636 C 0.46279 0.86672 0.60478 0.0
C1637 C 0.46795 0.87168 0.6328 0.0
C1638 C 0.4665 0.89253 0.5885 0.0
C1639 C 0.4441 0.83208 0.56335 0.0
C1640 C 0.4935 0.9092 0.58663 0.0
C1641 C 0.49602 0.93464 0.57235 0.0
C1642 C 0.47154 0.94382 0.56011 0.0
C1643 C 0.44455 0.92742 0.56276 0.0
C1644 C 0.44208 0.90201 0.57681 0.0
H1645 H 0.44199 0.80803 0.55835 0.0
H1646 H 0.42409 0.83917 0.55522 0.0
H1647 H 0.46205 0.84385 0.55323 0.0
H1648 H 0.5125 0.90248 0.5961 0.0
H1649 H 0.51705 0.94713 0.57089 0.0
H1650 H 0.156 0.29943 0.65549 0.0
H1651 H 0.11876 0.32939 0.64938 0.0
H1652 H 0.1566 0.38573 0.71918 0.0
H1653 H 0.19474 0.35625 0.72501 0.0
H1654 H 0.0784 0.34736 0.68642 0.0
H1655 H 0.15715 0.43987 0.65502 0.0
H1656 H 0.16573 0.40333 0.65674 0.0
H1657 H 0.16364 0.42495 0.68716 0.0
C1658 C 0.15666 0.31832 0.66942 0.0
C1659 C 0.17865 0.32576 0.69044 0.0
C1660 C 0.13505 0.3351 0.6662 0.0
C1661 C 0.13497 0.35964 0.6839 0.0
C1662 C 0.15637 0.3668 0.70537 0.0
H1663 H 0.05212 0.47611 0.59155 0.0
H1664 H 0.06537 0.46157 0.63669 0.0
C1665 C 0.1781 0.34998 0.70861 0.0
C1666 C 0.11418 0.37916 0.67741 0.0
H1667 H 0.10937 0.43867 0.64106 0.0
C1668 C 0.08498 0.36788 0.67721 0.0
C1669 C 0.12288 0.4062 0.66605 0.0
C1670 C 0.15401 0.41946 0.6661 0.0
C1671 C 0.06435 0.38143 0.66333 0.0
C1672 C 0.0734 0.40621 0.64876 0.0
C1673 C 0.10231 0.41947 0.65194 0.0
C1674 C 0.05543 0.41473 0.62574 0.0
C1675 C 0.03329 0.3681 0.6632 0.0
C1676 C 0.04357 0.39326 0.60501 0.0
C1677 C 0.03548 0.40156 0.57937 0.0
C1678 C 0.03993 0.43138 0.57399 0.0
C1679 C 0.04909 0.4529 0.59524 0.0
C1680 C 0.05642 0.44462 0.62104 0.0
H1681 H 0.02881 0.36051 0.68341 0.0
H1682 H 0.01901 0.38396 0.65747 0.0
H1683 H 0.02828 0.34846 0.64874 0.0
H1684 H 0.04317 0.37007 0.60776 0.0
H1685 H 0.02833 0.38464 0.56325 0.0
H1686 H 0.70333 0.22602 0.67274 0.0
H1687 H 0.68681 0.19098 0.6341 0.0
H1688 H 0.74896 0.13763 0.66011 0.0
H1689 H 0.76572 0.1726 0.69906 0.0
H1690 H 0.71962 0.16654 0.59152 0.0
H1691 H 0.66762 0.08457 0.65828 0.0
H1692 H 0.67786 0.12291 0.66968 0.0
H1693 H 0.70472 0.10046 0.66588 0.0
C1694 C 0.71364 0.20696 0.67021 0.0
C1695 C 0.73555 0.20187 0.68913 0.0
C1696 C 0.70433 0.1871 0.64802 0.0
C1697 C 0.71667 0.1618 0.64441 0.0
C1698 C 0.73917 0.15704 0.66271 0.0
H1699 H 0.59824 0.0286 0.54417 0.0
H1700 H 0.64616 0.04805 0.56562 0.0
C1701 C 0.7486 0.17698 0.68494 0.0
C1702 C 0.70384 0.1395 0.62272 0.0
H1703 H 0.65258 0.07832 0.61232 0.0
C1704 C 0.70553 0.14674 0.5959 0.0
C1705 C 0.68596 0.11348 0.62855 0.0
C1706 C 0.68372 0.1047 0.65711 0.0
C1707 C 0.68782 0.12991 0.57487 0.0
C1708 C 0.6675 0.10587 0.58109 0.0
C1709 C 0.66803 0.09689 0.60757 0.0
C1710 C 0.64205 0.09379 0.56232 0.0
C1711 C 0.69003 0.13897 0.54643 0.0
C1712 C 0.62411 0.11302 0.55274 0.0
C1713 C 0.59683 0.10204 0.54053 0.0
C1714 C 0.58674 0.07156 0.53791 0.0
C1715 C 0.60535 0.05221 0.54591 0.0
C1716 C 0.63277 0.06327 0.55813 0.0
H1717 H 0.71255 0.14771 0.54332 0.0
H1718 H 0.68181 0.12029 0.53137 0.0
H1719 H 0.67753 0.15691 0.54286 0.0
H1720 H 0.63039 0.13665 0.55638 0.0
H1721 H 0.58316 0.11757 0.5344 0.0
H1722 H 0.7995 0.33999 0.28434 0.0
H1723 H 0.81729 0.37478 0.32285 0.0
H1724 H 0.76434 0.32118 0.37352 0.0
H1725 H 0.74607 0.28611 0.33471 0.0
H1726 H 0.79077 0.40628 0.3683 0.0
H1727 H 0.85238 0.31761 0.39642 0.0
H1728 H 0.83551 0.31835 0.36274 0.0
H1729 H 0.81417 0.30852 0.38978 0.0
C1730 C 0.79101 0.336 0.30351 0.0
C1731 C 0.77174 0.31017 0.3067 0.0
C1732 C 0.80103 0.35603 0.32542 0.0
C1733 C 0.79223 0.35042 0.35096 0.0
C1734 C 0.77127 0.32585 0.35386 0.0
H1735 H 0.91834 0.41449 0.48447 0.0
H1736 H 0.87117 0.3931 0.46265 0.0
C1737 C 0.7609 0.30588 0.33175 0.0
C1738 C 0.80903 0.36722 0.37467 0.0
H1739 H 0.867 0.36387 0.41846 0.0
C1740 C 0.80706 0.39696 0.37983 0.0
C1741 C 0.83022 0.35493 0.38953 0.0
C1742 C 0.83347 0.32315 0.38444 0.0
C1743 C 0.82646 0.41507 0.39901 0.0
C1744 C 0.8489 0.40323 0.41258 0.0
C1745 C 0.84984 0.37307 0.40822 0.0
C1746 C 0.87328 0.42163 0.42944 0.0
C1747 C 0.82281 0.44664 0.40422 0.0
C1748 C 0.88966 0.44593 0.41894 0.0
C1749 C 0.91626 0.45889 0.43204 0.0
C1750 C 0.92718 0.44704 0.45525 0.0
C1751 C 0.91021 0.42397 0.46658 0.0
C1752 C 0.88332 0.41171 0.45406 0.0
H1753 H 0.79991 0.44881 0.40138 0.0
H1754 H 0.83159 0.45538 0.42492 0.0
H1755 H 0.83405 0.46038 0.38953 0.0
H1756 H 0.88294 0.45356 0.39965 0.0
H1757 H 0.92921 0.4765 0.42285 0.0
H1758 H 0.75487 0.81013 0.33168 0.0
H1759 H 0.72873 0.83471 0.36362 0.0
H1760 H 0.66986 0.85159 0.29799 0.0
H1761 H 0.69598 0.82758 0.26604 0.0
H1762 H 0.68984 0.9008 0.33216 0.0
H1763 H 0.65105 0.80476 0.38989 0.0
H1764 H 0.68897 0.81209 0.3881 0.0
H1765 H 0.66548 0.80083 0.35793 0.0
C1766 C 0.73612 0.81872 0.32413 0.0
C1767 C 0.72741 0.81672 0.29634 0.0
C1768 C 0.72119 0.83274 0.3424 0.0
C1769 C 0.69715 0.84474 0.33322 0.0
C1770 C 0.68832 0.8425 0.30554 0.0
H1771 H 0.56253 0.89721 0.41797 0.0
H1772 H 0.59304 0.87421 0.38981 0.0
C1773 C 0.70325 0.82866 0.2873 0.0
C1774 C 0.68146 0.86042 0.35215 0.0
H1775 H 0.64109 0.85093 0.40526 0.0
C1776 C 0.67926 0.88994 0.34822 0.0
C1777 C 0.66747 0.84615 0.37293 0.0
C1778 C 0.66807 0.81414 0.37743 0.0
C1779 C 0.66325 0.90549 0.36431 0.0
C1780 C 0.64944 0.8913 0.38524 0.0
C1781 C 0.65185 0.86185 0.38932 0.0
C1782 C 0.63115 0.90603 0.40222 0.0
C1783 C 0.66047 0.93665 0.35816 0.0
C1784 C 0.6424 0.93167 0.41863 0.0
C1785 C 0.62491 0.94508 0.43474 0.0
C1786 C 0.59586 0.93295 0.43492 0.0
C1787 C 0.58475 0.90726 0.41841 0.0
C1788 C 0.6022 0.89397 0.4023 0.0
H1789 H 0.66656 0.9418 0.33773 0.0
H1790 H 0.63827 0.9405 0.3596 0.0
H1791 H 0.67479 0.95221 0.37306 0.0
H1792 H 0.6648 0.94109 0.41927 0.0
H1793 H 0.63427 0.96468 0.44734 0.0
H1794 H 0.16595 0.72378 0.28486 0.0
H1795 H 0.13524 0.69531 0.31479 0.0
H1796 H 0.20261 0.64688 0.33696 0.0
H1797 H 0.23341 0.67551 0.30765 0.0
H1798 H 0.11283 0.63763 0.31766 0.0
H1799 H 0.18482 0.67181 0.41052 0.0
H1800 H 0.19016 0.68919 0.37938 0.0
H1801 H 0.20248 0.65496 0.38524 0.0
C1802 C 0.17431 0.7071 0.29612 0.0
C1803 C 0.2025 0.70234 0.29373 0.0
C1804 C 0.15659 0.69068 0.31333 0.0
C1805 C 0.16645 0.66904 0.32895 0.0
C1806 C 0.19437 0.66383 0.32601 0.0
H1807 H 0.10922 0.53979 0.44075 0.0
H1808 H 0.13219 0.57232 0.4096 0.0
C1809 C 0.21206 0.68022 0.30891 0.0
C1810 C 0.14784 0.65191 0.34814 0.0
H1811 H 0.14774 0.63082 0.41321 0.0
C1812 C 0.12044 0.63644 0.33862 0.0
C1813 C 0.15715 0.65021 0.37578 0.0
C1814 C 0.18511 0.66767 0.38843 0.0
C1815 C 0.10306 0.61856 0.35532 0.0
C1816 C 0.11289 0.61608 0.3827 0.0
C1817 C 0.13991 0.63223 0.39233 0.0
C1818 C 0.09686 0.5954 0.40124 0.0
C1819 C 0.07475 0.60151 0.34313 0.0
C1820 C 0.0687 0.59679 0.40749 0.0
C1821 C 0.05508 0.57774 0.42578 0.0
C1822 C 0.06922 0.55676 0.43847 0.0
C1823 C 0.09722 0.55544 0.4318 0.0
C1824 C 0.11067 0.57429 0.41377 0.0
H1825 H 0.07304 0.60046 0.32075 0.0
H1826 H 0.07143 0.57871 0.34982 0.0
H1827 H 0.05735 0.61251 0.34986 0.0
H1828 H 0.05739 0.61305 0.39872 0.0
H1829 H 0.03373 0.57981 0.4303 0.0
H1830 H 0.27 0.17249 0.30052 0.0
H1831 H 0.29882 0.14553 0.33025 0.0
H1832 H 0.36675 0.22054 0.33942 0.0
H1833 H 0.33814 0.24764 0.31014 0.0
H1834 H 0.35266 0.1304 0.32444 0.0
H1835 H 0.35681 0.20258 0.41742 0.0
H1836 H 0.3319 0.204 0.38833 0.0
H1837 H 0.3684 0.22197 0.38899 0.0
C1838 C 0.29098 0.18334 0.30904 0.0
C1839 C 0.30159 0.21237 0.303 0.0
C1840 C 0.3075 0.16785 0.32599 0.0
C1841 C 0.33487 0.18108 0.33748 0.0
C1842 C 0.34551 0.20998 0.33135 0.0
H1843 H 0.46743 0.12743 0.44718 0.0
H1844 H 0.44047 0.15269 0.41442 0.0
C1845 C 0.3291 0.22544 0.31443 0.0
C1846 C 0.35261 0.1646 0.35538 0.0
H1847 H 0.38752 0.16702 0.41856 0.0
C1848 C 0.36014 0.13833 0.34507 0.0
C1849 C 0.36258 0.17493 0.3823 0.0
C1850 C 0.35433 0.20226 0.39506 0.0
C1851 C 0.37772 0.12249 0.36069 0.0
C1852 C 0.38768 0.13282 0.38763 0.0
C1853 C 0.38011 0.15909 0.39791 0.0
C1854 C 0.40526 0.11642 0.40579 0.0
C1855 C 0.38601 0.09519 0.34793 0.0
C1856 C 0.39475 0.08743 0.41178 0.0
C1857 C 0.4102 0.07285 0.43042 0.0
C1858 C 0.4365 0.08697 0.44382 0.0
C1859 C 0.44734 0.11577 0.43729 0.0
C1860 C 0.43186 0.13032 0.41859 0.0
H1861 H 0.38409 0.09523 0.32559 0.0
H1862 H 0.40824 0.09311 0.35507 0.0
H1863 H 0.37152 0.07551 0.35347 0.0
H1864 H 0.37409 0.07633 0.40271 0.0
H1865 H 0.40098 0.05079 0.43494 0.0
H1866 H 0.7457 0.81606 0.6701 0.0
H1867 H 0.71596 0.84311 0.64152 0.0
H1868 H 0.64719 0.82183 0.69174 0.0
H1869 H 0.676 0.79255 0.71849 0.0
H1870 H 0.624 0.81795 0.64631 0.0
H1871 H 0.69976 0.9223 0.64942 0.0
H1872 H 0.7152 0.89313 0.63493 0.0
H1873 H 0.70698 0.89262 0.66958 0.0
C1874 C 0.72422 0.81727 0.67495 0.0
C1875 C 0.71316 0.80224 0.69651 0.0
C1876 C 0.70725 0.83311 0.65879 0.0
C1877 C 0.67927 0.83552 0.66463 0.0
C1878 C 0.66851 0.82057 0.68648 0.0
H1879 H 0.59235 0.96622 0.58294 0.0
H1880 H 0.61835 0.9404 0.61607 0.0
C1881 C 0.68505 0.80385 0.70192 0.0
C1882 C 0.66072 0.8524 0.64756 0.0
H1883 H 0.66051 0.91605 0.6151 0.0
C1884 C 0.63206 0.8396 0.63988 0.0
C1885 C 0.6705 0.88106 0.63934 0.0
C1886 C 0.69967 0.89817 0.64903 0.0
C1887 C 0.61333 0.85416 0.62423 0.0
C1888 C 0.62378 0.88173 0.61419 0.0
C1889 C 0.65228 0.89478 0.62222 0.0
C1890 C 0.60584 0.89721 0.59515 0.0
C1891 C 0.5823 0.84002 0.6196 0.0
C1892 C 0.58963 0.88191 0.57229 0.0
C1893 C 0.57383 0.8965 0.55397 0.0
C1894 C 0.57471 0.92711 0.55726 0.0
C1895 C 0.59103 0.94259 0.57992 0.0
C1896 C 0.60611 0.92779 0.59878 0.0
H1897 H 0.57589 0.82653 0.63658 0.0
H1898 H 0.56806 0.85666 0.61731 0.0
H1899 H 0.57897 0.82497 0.60112 0.0
H1900 H 0.58979 0.85872 0.56802 0.0
H1901 H 0.56206 0.88397 0.53641 0.0
H1902 H 0.62373 0.16167 0.27947 0.0
H1903 H 0.58996 0.15221 0.31282 0.0
H1904 H 0.62275 0.23774 0.35311 0.0
H1905 H 0.65787 0.24656 0.31997 0.0
H1906 H 0.62105 0.20124 0.38789 0.0
H1907 H 0.51689 0.17134 0.33088 0.0
H1908 H 0.5392 0.15045 0.31396 0.0
H1909 H 0.54701 0.19029 0.31553 0.0
C1910 C 0.6233 0.17869 0.29511 0.0
C1911 C 0.64334 0.20474 0.29731 0.0
C1912 C 0.60365 0.17351 0.31399 0.0
C1913 C 0.60304 0.19464 0.33512 0.0
C1914 C 0.62252 0.22125 0.33682 0.0
H1915 H 0.5036 0.08188 0.44042 0.0
H1916 H 0.51302 0.12652 0.41584 0.0
C1917 C 0.64269 0.22618 0.31811 0.0
C1918 C 0.58576 0.18609 0.35758 0.0
H1919 H 0.52697 0.13651 0.36745 0.0
C1920 C 0.59995 0.18809 0.38362 0.0
C1921 C 0.55763 0.17006 0.35283 0.0
C1922 C 0.53931 0.17084 0.32678 0.0
C1923 C 0.58878 0.17051 0.40348 0.0
C1924 C 0.56356 0.14974 0.39663 0.0
C1925 C 0.54706 0.15143 0.37228 0.0
C1926 C 0.5572 0.12323 0.4119 0.0
C1927 C 0.60524 0.17284 0.43094 0.0
C1928 C 0.57844 0.10588 0.41668 0.0
C1929 C 0.57327 0.0808 0.43101 0.0
C1930 C 0.54651 0.07215 0.44045 0.0
C1931 C 0.52465 0.08847 0.43414 0.0
C1932 C 0.52997 0.11394 0.42005 0.0
H1933 H 0.61503 0.1961 0.43682 0.0
H1934 H 0.59142 0.16445 0.4466 0.0
H1935 H 0.62289 0.15996 0.43025 0.0
H1936 H 0.59919 0.11178 0.40937 0.0
H1937 H 0.5905 0.06852 0.43505 0.0
H1938 H 0.8932 0.74804 0.33269 0.0
H1939 H 0.92335 0.71111 0.34125 0.0
H1940 H 0.86606 0.64819 0.28667 0.0
H1941 H 0.83518 0.68478 0.2787 0.0
H1942 H 0.87358 0.62967 0.33643 0.0
H1943 H 0.97927 0.67019 0.30324 0.0
H1944 H 0.96693 0.69864 0.32242 0.0
H1945 H 0.94745 0.68376 0.29082 0.0
C1946 C 0.8871 0.72644 0.32235 0.0
C1947 C 0.86159 0.71922 0.30533 0.0
C1948 C 0.9047 0.70553 0.32679 0.0
C1949 C 0.89724 0.67711 0.31414 0.0
C1950 C 0.87242 0.67018 0.29624 0.0
H1951 H 0.95278 0.53809 0.40658 0.0
H1952 H 0.93965 0.55803 0.3636 0.0
C1953 C 0.85477 0.6911 0.2918 0.0
C1954 C 0.91227 0.65357 0.32381 0.0
H1955 H 0.97904 0.63984 0.34226 0.0
C1956 C 0.89655 0.63118 0.33698 0.0
C1957 C 0.94217 0.65567 0.32437 0.0
C1958 C 0.95986 0.67823 0.30917 0.0
C1959 C 0.91016 0.61288 0.35328 0.0
C1960 C 0.94037 0.61658 0.3557 0.0
C1961 C 0.95593 0.63714 0.34043 0.0
C1962 C 0.95583 0.60338 0.37754 0.0
C1963 C 0.89213 0.59189 0.36979 0.0
C1964 C 0.97158 0.62204 0.39863 0.0
C1965 C 0.97965 0.61068 0.42292 0.0
C1966 C 0.97164 0.58058 0.42648 0.0
C1967 C 0.95848 0.56153 0.40447 0.0
C1968 C 0.95103 0.57284 0.37995 0.0
H1969 H 0.86957 0.59532 0.3686 0.0
H1970 H 0.89224 0.56888 0.36222 0.0
H1971 H 0.90082 0.59451 0.39131 0.0
H1972 H 0.97567 0.64569 0.39709 0.0
H1973 H 0.99013 0.62575 0.4395 0.0
H1974 H 0.30606 0.78491 0.3327 0.0
H1975 H 0.32187 0.82164 0.37007 0.0
H1976 H 0.27051 0.88019 0.3331 0.0
H1977 H 0.25431 0.84327 0.2954 0.0
H1978 H 0.32892 0.90426 0.34614 0.0
H1979 H 0.28314 0.85298 0.43362 0.0
H1980 H 0.29841 0.82744 0.4135 0.0
H1981 H 0.2683 0.84238 0.39925 0.0
C1982 C 0.2978 0.80542 0.33263 0.0
C1983 C 0.27911 0.81129 0.31103 0.0
C1984 C 0.30659 0.82626 0.35417 0.0
C1985 C 0.29694 0.85338 0.35456 0.0
C1986 C 0.27785 0.85919 0.3333 0.0
H1987 H 0.41642 0.98913 0.45635 0.0
H1988 H 0.36923 0.97034 0.43269 0.0
C1989 C 0.26875 0.83815 0.31179 0.0
C1990 C 0.31005 0.87662 0.37548 0.0
H1991 H 0.32905 0.88576 0.44316 0.0
C1992 C 0.32831 0.90095 0.36745 0.0
C1993 C 0.3089 0.87227 0.40319 0.0
C1994 C 0.28837 0.84749 0.41291 0.0
C1995 C 0.34803 0.91902 0.38624 0.0
C1996 C 0.34893 0.91276 0.41377 0.0
C1997 C 0.32846 0.89038 0.42204 0.0
C1998 C 0.37427 0.92457 0.43276 0.0
C1999 C 0.36956 0.94268 0.37609 0.0
C2000 C 0.39193 0.90497 0.44202 0.0
C2001 C 0.41864 0.91554 0.45567 0.0
C2002 C 0.42831 0.94598 0.46032 0.0
C2003 C 0.40971 0.96556 0.45288 0.0
C2004 C 0.3828 0.95489 0.43923 0.0
H2005 H 0.36772 0.94243 0.35373 0.0
H2006 H 0.36624 0.96461 0.38405 0.0
H2007 H 0.39159 0.9399 0.38325 0.0
H2008 H 0.38574 0.88146 0.43733 0.0
H2009 H 0.43219 0.89979 0.46147 0.0
H2010 H 0.25586 0.33437 0.31848 0.0
H2011 H 0.23133 0.35881 0.35183 0.0
H2012 H 0.15944 0.2879 0.33895 0.0
H2013 H 0.18393 0.26311 0.306 0.0
H2014 H 0.18057 0.37894 0.34467 0.0
H2015 H 0.17316 0.29496 0.42039 0.0
H2016 H 0.19613 0.29465 0.39356 0.0
H2017 H 0.15861 0.28022 0.3872 0.0
C2018 C 0.23495 0.32381 0.32294 0.0
C2019 C 0.22195 0.29668 0.30961 0.0
C2020 C 0.22092 0.33785 0.342 0.0
C2021 C 0.19369 0.32502 0.34827 0.0
C2022 C 0.18069 0.29794 0.33499 0.0
H2023 H 0.06168 0.37482 0.43954 0.0
H2024 H 0.09192 0.35083 0.41171 0.0
C2025 C 0.1947 0.28386 0.31599 0.0
C2026 C 0.17831 0.34056 0.36772 0.0
H2027 H 0.14445 0.33233 0.42517 0.0
C2028 C 0.17294 0.36888 0.36243 0.0
C2029 C 0.1683 0.32745 0.39091 0.0
C2030 C 0.17456 0.29777 0.39855 0.0
C2031 C 0.1571 0.384 0.37915 0.0
C2032 C 0.14669 0.37067 0.40207 0.0
C2033 C 0.15239 0.34254 0.40759 0.0
C2034 C 0.12894 0.38509 0.42 0.0
C2035 C 0.15081 0.4137 0.3716 0.0
C2036 C 0.13982 0.41213 0.43443 0.0
C2037 C 0.12254 0.42598 0.45046 0.0
C2038 C 0.09399 0.41305 0.45245 0.0
C2039 C 0.08346 0.38557 0.43847 0.0
C2040 C 0.10076 0.37175 0.42253 0.0
H2041 H 0.15467 0.41782 0.35038 0.0
H2042 H 0.12834 0.41559 0.37437 0.0
H2043 H 0.16491 0.43119 0.38486 0.0
H2044 H 0.16167 0.42259 0.4332 0.0
H2045 H 0.13147 0.44704 0.46097 0.0
H2046 H 0.32828 0.19817 0.74006 0.0
H2047 H 0.35326 0.17095 0.70934 0.0
H2048 H 0.30918 0.20409 0.64138 0.0
H2049 H 0.28455 0.23193 0.67204 0.0
H2050 H 0.33065 0.1272 0.67135 0.0
H2051 H 0.39087 0.22051 0.62307 0.0
H2052 H 0.37346 0.22565 0.65318 0.0
H2053 H 0.35309 0.2202 0.62072 0.0
C2054 C 0.32422 0.20006 0.71859 0.0
C2055 C 0.30457 0.21743 0.70853 0.0
C2056 C 0.33842 0.18435 0.70103 0.0
C2057 C 0.33333 0.18563 0.67302 0.0
C2058 C 0.31395 0.20322 0.6629 0.0
H2059 H 0.3814 0.05851 0.55497 0.0
H2060 H 0.35417 0.08509 0.58438 0.0
C2061 C 0.29986 0.21913 0.68048 0.0
C2062 C 0.34763 0.16776 0.65454 0.0
H2063 H 0.39185 0.17259 0.60415 0.0
C2064 C 0.34406 0.13712 0.65666 0.0
C2065 C 0.36529 0.18071 0.63549 0.0
C2066 C 0.37118 0.21359 0.63308 0.0
C2067 C 0.35773 0.11912 0.64038 0.0
C2068 C 0.37501 0.13202 0.62103 0.0
C2069 C 0.37843 0.16264 0.61883 0.0
C2070 C 0.39113 0.11462 0.6039 0.0
C2071 C 0.35424 0.08662 0.64464 0.0
C2072 C 0.42088 0.12243 0.60489 0.0
C2073 C 0.43637 0.10755 0.58799 0.0
C2074 C 0.42254 0.08437 0.56962 0.0
C2075 C 0.39276 0.07606 0.56902 0.0
C2076 C 0.37717 0.0912 0.58589 0.0
H2077 H 0.34636 0.08155 0.66446 0.0
H2078 H 0.33846 0.07437 0.62867 0.0
H2079 H 0.37474 0.07846 0.64343 0.0
H2080 H 0.43217 0.14033 0.61863 0.0
H2081 H 0.45928 0.11452 0.58917 0.0
H2082 H 0.79526 0.34735 0.7126 0.0
H2083 H 0.82577 0.37726 0.68391 0.0
H2084 H 0.86908 0.30416 0.668 0.0
H2085 H 0.83995 0.275 0.69852 0.0
H2086 H 0.90672 0.34865 0.66853 0.0
H2087 H 0.81679 0.38031 0.60656 0.0
H2088 H 0.81666 0.39356 0.64083 0.0
H2089 H 0.8111 0.35439 0.63207 0.0
C2090 C 0.8113 0.33759 0.70305 0.0
C2091 C 0.81478 0.3085 0.70792 0.0
C2092 C 0.8287 0.35473 0.68617 0.0
C2093 C 0.8495 0.3431 0.67247 0.0
C2094 C 0.85331 0.31411 0.67781 0.0
H2095 H 0.91003 0.43016 0.53071 0.0
H2096 H 0.88691 0.39842 0.56266 0.0
C2097 C 0.83646 0.29725 0.69535 0.0
C2098 C 0.86716 0.36096 0.65285 0.0
H2099 H 0.86265 0.40724 0.60145 0.0
C2100 C 0.89688 0.3612 0.65371 0.0
C2101 C 0.85495 0.37726 0.63278 0.0
C2102 C 0.82311 0.37611 0.62779 0.0
C2103 C 0.91429 0.37698 0.63568 0.0
C2104 C 0.90224 0.39454 0.61657 0.0
C2105 C 0.87255 0.39426 0.61584 0.0
C2106 C 0.9191 0.41224 0.59628 0.0
C2107 C 0.94525 0.37352 0.63683 0.0
C2108 C 0.94592 0.43058 0.60336 0.0
C2109 C 0.96003 0.44806 0.58429 0.0
C2110 C 0.94729 0.4486 0.5578 0.0
C2111 C 0.92074 0.43024 0.55076 0.0
C2112 C 0.90721 0.41217 0.56937 0.0
H2113 H 0.94868 0.35248 0.64542 0.0
H2114 H 0.95308 0.37406 0.61654 0.0
H2115 H 0.95831 0.3917 0.65013 0.0
H2116 H 0.95566 0.43234 0.62388 0.0
H2117 H 0.98014 0.46229 0.59071 0.0
H2118 H 0.23848 0.65332 0.72614 0.0
H2119 H 0.21669 0.61382 0.69255 0.0
H2120 H 0.23504 0.67249 0.6292 0.0
H2121 H 0.25864 0.71121 0.66277 0.0
H2122 H 0.17079 0.61717 0.66549 0.0
H2123 H 0.24516 0.59905 0.59054 0.0
H2124 H 0.25729 0.61893 0.62265 0.0
H2125 H 0.24393 0.63758 0.59454 0.0
C2126 C 0.23883 0.65727 0.70494 0.0
C2127 C 0.25016 0.68513 0.69689 0.0
C2128 C 0.22636 0.63475 0.68575 0.0
C2129 C 0.22423 0.63998 0.65821 0.0
C2130 C 0.23708 0.66744 0.65014 0.0
H2131 H 0.09237 0.60528 0.53642 0.0
H2132 H 0.13738 0.61995 0.5647 0.0
C2133 C 0.25037 0.68971 0.66935 0.0
C2134 C 0.20422 0.61915 0.63885 0.0
H2135 H 0.19422 0.58963 0.57382 0.0
C2136 C 0.1763 0.6104 0.64578 0.0
C2137 C 0.21115 0.61026 0.613 0.0
C2138 C 0.24114 0.61673 0.60493 0.0
C2139 C 0.15483 0.59475 0.62717 0.0
C2140 C 0.16131 0.58784 0.60081 0.0
C2141 C 0.1894 0.59513 0.5941 0.0
C2142 C 0.13811 0.57679 0.57945 0.0
C2143 C 0.12485 0.58727 0.63522 0.0
C2144 C 0.12422 0.54739 0.57782 0.0
C2145 C 0.09844 0.53887 0.56157 0.0
C2146 C 0.08615 0.55981 0.54714 0.0
C2147 C 0.10115 0.58876 0.54757 0.0
C2148 C 0.12698 0.59712 0.56351 0.0
H2149 H 0.12325 0.59481 0.65644 0.0
H2150 H 0.11003 0.59758 0.62183 0.0
H2151 H 0.11764 0.56306 0.63282 0.0
H2152 H 0.13248 0.5315 0.59021 0.0
H2153 H 0.08732 0.51644 0.56166 0.0
loop_
_geom_bond_atom_site_label_1
_geom_bond_atom_site_label_2
_geom_bond_distance
_geom_bond_site_symmetry_2
_ccdc_geom_bond_type
Co0 N5 2.057 . S
Co0 O17 2.021 . S
Co0 O20 2.062 . S
Co0 O24 2.117 . S
Co0 O25 2.020 . S
C1 O21 1.259 . S
C1 O24 1.258 . S
Co2 N11 2.057 . S
Co2 O18 2.117 . S
Co2 O19 2.020 . S
Co2 O21 2.021 . S
Co2 O26 2.062 . S
C3 N5 1.316 . S
C3 N6 1.347 . S
C3 H8 0.931 . S
C4 N5 1.375 . S
C4 C7 1.350 . S
C4 H9 0.930 . S
N5 Co0 2.057 . S
N5 C3 1.316 . S
N5 C4 1.375 . S
N6 C3 1.347 . S
N6 C7 1.373 . S
C7 C4 1.350 . S
C7 N6 1.373 . S
C7 H28 0.931 . S
H8 C3 0.931 . S
H9 C4 0.930 . S
C10 O17 1.259 . S
C10 O18 1.258 . S
N11 Co2 2.057 . S
N11 C12 1.316 . S
N11 C13 1.375 . S
C12 N11 1.316 . S
C12 N14 1.347 . S
C12 H23 0.931 . S
C13 N11 1.375 . S
C13 C15 1.350 . S
C13 H22 0.930 . S
N14 C12 1.347 . S
N14 C15 1.373 . S
C15 C13 1.350 . S
C15 N14 1.373 . S
C15 H29 0.931 . S
C16 O19 1.256 . S
C16 O20 1.255 . S
O17 Co0 2.021 . S
O17 C10 1.259 . S
O18 Co2 2.117 . S
O18 C10 1.258 . S
O19 Co2 2.020 . S
O19 C16 1.256 . S
O20 Co0 2.062 . S
O20 C16 1.255 . S
O21 C1 1.259 . S
O21 Co2 2.021 . S
H22 C13 0.930 . S
H23 C12 0.931 . S
O24 Co0 2.117 . S
O24 C1 1.258 . S
O25 Co0 2.020 . S
O25 C27 1.256 . S
O26 Co2 2.062 . S
O26 C27 1.255 . S
C27 O25 1.256 . S
C27 O26 1.255 . S
H28 C7 0.931 . S
H29 C15 0.931 . S
Co30 N35 2.057 . S
Co30 O47 2.021 . S
Co30 O50 2.062 . S
Co30 O54 2.117 . S
Co30 O55 2.020 . S
C31 O51 1.259 . S
C31 O54 1.258 . S
Co32 N41 2.057 . S
Co32 O48 2.117 . S
Co32 O49 2.020 . S
Co32 O51 2.021 . S
Co32 O56 2.062 . S
C33 N35 1.316 . S
C33 N36 1.347 . S
C33 H38 0.931 . S
C34 N35 1.375 . S
C34 C37 1.350 . S
C34 H39 0.930 . S
N35 Co30 2.057 . S
N35 C33 1.316 . S
N35 C34 1.375 . S
N36 C33 1.347 . S
N36 C37 1.373 . S
C37 C34 1.350 . S
C37 N36 1.373 . S
C37 H58 0.931 . S
H38 C33 0.931 . S
H39 C34 0.930 . S
C40 O47 1.259 . S
C40 O48 1.258 . S
N41 Co32 2.057 . S
N41 C42 1.316 . S
N41 C43 1.375 . S
C42 N41 1.316 . S
C42 N44 1.347 . S
C42 H53 0.931 . S
C43 N41 1.375 . S
C43 C45 1.350 . S
C43 H52 0.930 . S
N44 C42 1.347 . S
N44 C45 1.373 . S
C45 C43 1.350 . S
C45 N44 1.373 . S
C45 H59 0.931 . S
C46 O49 1.256 . S
C46 O50 1.255 . S
O47 Co30 2.021 . S
O47 C40 1.259 . S
O48 Co32 2.117 . S
O48 C40 1.258 . S
O49 Co32 2.020 . S
O49 C46 1.256 . S
O50 Co30 2.062 . S
O50 C46 1.255 . S
O51 C31 1.259 . S
O51 Co32 2.021 . S
H52 C43 0.930 . S
H53 C42 0.931 . S
O54 Co30 2.117 . S
O54 C31 1.258 . S
O55 Co30 2.020 . S
O55 C57 1.256 . S
O56 Co32 2.062 . S
O56 C57 1.255 . S
C57 O55 1.256 . S
C57 O56 1.255 . S
H58 C37 0.931 . S
H59 C45 0.931 . S
Co60 N65 2.057 . S
Co60 O77 2.021 . S
Co60 O80 2.062 . S
Co60 O84 2.117 . S
Co60 O85 2.020 . S
C61 O81 1.259 . S
C61 O84 1.258 . S
Co62 N71 2.057 . S
Co62 O78 2.117 . S
Co62 O79 2.020 . S
Co62 O81 2.021 . S
Co62 O86 2.062 . S
C63 N65 1.316 . S
C63 N66 1.347 . S
C63 H68 0.931 . S
C64 N65 1.375 . S
C64 C67 1.350 . S
C64 H69 0.930 . S
N65 Co60 2.057 . S
N65 C63 1.316 . S
N65 C64 1.375 . S
N66 C63 1.347 . S
N66 C67 1.373 . S
C67 C64 1.350 . S
C67 N66 1.373 . S
C67 H88 0.931 . S
H68 C63 0.931 . S
H69 C64 0.930 . S
C70 O77 1.259 . S
C70 O78 1.258 . S
N71 Co62 2.057 . S
N71 C72 1.316 . S
N71 C73 1.375 . S
C72 N71 1.316 . S
C72 N74 1.347 . S
C72 H83 0.931 . S
C73 N71 1.375 . S
C73 C75 1.350 . S
C73 H82 0.930 . S
N74 C72 1.347 . S
N74 C75 1.373 . S
C75 C73 1.350 . S
C75 N74 1.373 . S
C75 H89 0.931 . S
C76 O79 1.256 . S
C76 O80 1.255 . S
O77 Co60 2.021 . S
O77 C70 1.259 . S
O78 Co62 2.117 . S
O78 C70 1.258 . S
O79 Co62 2.020 . S
O79 C76 1.256 . S
O80 Co60 2.062 . S
O80 C76 1.255 . S
O81 C61 1.259 . S
O81 Co62 2.021 . S
H82 C73 0.930 . S
H83 C72 0.931 . S
O84 Co60 2.117 . S
O84 C61 1.258 . S
O85 Co60 2.020 . S
O85 C87 1.256 . S
O86 Co62 2.062 . S
O86 C87 1.255 . S
C87 O85 1.256 . S
C87 O86 1.255 . S
H88 C67 0.931 . S
H89 C75 0.931 . S
Co90 N95 2.057 . S
Co90 O107 2.021 . S
Co90 O110 2.062 . S
Co90 O114 2.117 . S
Co90 O115 2.020 . S
C91 O111 1.259 . S
C91 O114 1.258 . S
Co92 N101 2.057 . S
Co92 O108 2.117 . S
Co92 O109 2.020 . S
Co92 O111 2.021 . S
Co92 O116 2.062 . S
C93 N95 1.316 . S
C93 N96 1.347 . S
C93 H98 0.931 . S
C94 N95 1.375 . S
C94 C97 1.350 . S
C94 H99 0.930 . S
N95 Co90 2.057 . S
N95 C93 1.316 . S
N95 C94 1.375 . S
N96 C93 1.347 . S
N96 C97 1.373 . S
C97 C94 1.350 . S
C97 N96 1.373 . S
C97 H118 0.931 . S
H98 C93 0.931 . S
H99 C94 0.930 . S
C100 O107 1.259 . S
C100 O108 1.258 . S
N101 Co92 2.057 . S
N101 C102 1.316 . S
N101 C103 1.375 . S
C102 N101 1.316 . S
C102 N104 1.347 . S
C102 H113 0.931 . S
C103 N101 1.375 . S
C103 C105 1.350 . S
C103 H112 0.930 . S
N104 C102 1.347 . S
N104 C105 1.373 . S
C105 C103 1.350 . S
C105 N104 1.373 . S
C105 H119 0.931 . S
C106 O109 1.256 . S
C106 O110 1.255 . S
O107 Co90 2.021 . S
O107 C100 1.259 . S
O108 Co92 2.117 . S
O108 C100 1.258 . S
O109 Co92 2.020 . S
O109 C106 1.256 . S
O110 Co90 2.062 . S
O110 C106 1.255 . S
O111 C91 1.259 . S
O111 Co92 2.021 . S
H112 C103 0.930 . S
H113 C102 0.931 . S
O114 Co90 2.117 . S
O114 C91 1.258 . S
O115 Co90 2.020 . S
O115 C117 1.256 . S
O116 Co92 2.062 . S
O116 C117 1.255 . S
C117 O115 1.256 . S
C117 O116 1.255 . S
H118 C97 0.931 . S
H119 C105 0.931 . S
Co120 N125 2.057 . S
Co120 O137 2.021 . S
Co120 O140 2.062 . S
Co120 O144 2.117 . S
Co120 O145 2.020 . S
C121 O141 1.259 . S
C121 O144 1.258 . S
Co122 N131 2.057 . S
Co122 O138 2.117 . S
Co122 O139 2.020 . S
Co122 O141 2.021 . S
Co122 O146 2.062 . S
C123 N125 1.316 . S
C123 N126 1.347 . S
C123 H128 0.931 . S
C124 N125 1.375 . S
C124 C127 1.350 . S
C124 H129 0.930 . S
N125 Co120 2.057 . S
N125 C123 1.316 . S
N125 C124 1.375 . S
N126 C123 1.347 . S
N126 C127 1.373 . S
C127 C124 1.350 . S
C127 N126 1.373 . S
C127 H148 0.931 . S
H128 C123 0.931 . S
H129 C124 0.930 . S
C130 O137 1.259 . S
C130 O138 1.258 . S
N131 Co122 2.057 . S
N131 C132 1.316 . S
N131 C133 1.375 . S
C132 N131 1.316 . S
C132 N134 1.347 . S
C132 H143 0.931 . S
C133 N131 1.375 . S
C133 C135 1.350 . S
C133 H142 0.930 . S
N134 C132 1.347 . S
N134 C135 1.373 . S
C135 C133 1.350 . S
C135 N134 1.373 . S
C135 H149 0.931 . S
C136 O139 1.256 . S
C136 O140 1.255 . S
O137 Co120 2.021 . S
O137 C130 1.259 . S
O138 Co122 2.117 . S
O138 C130 1.258 . S
O139 Co122 2.020 . S
O139 C136 1.256 . S
O140 Co120 2.062 . S
O140 C136 1.255 . S
O141 C121 1.259 . S
O141 Co122 2.021 . S
H142 C133 0.930 . S
H143 C132 0.931 . S
O144 Co120 2.117 . S
O144 C121 1.258 . S
O145 Co120 2.020 . S
O145 C147 1.256 . S
O146 Co122 2.062 . S
O146 C147 1.255 . S
C147 O145 1.256 . S
C147 O146 1.255 . S
H148 C127 0.931 . S
H149 C135 0.931 . S
Co150 N155 2.057 . S
Co150 O167 2.021 . S
Co150 O170 2.062 . S
Co150 O174 2.117 . S
Co150 O175 2.020 . S
C151 O171 1.259 . S
C151 O174 1.258 . S
Co152 N161 2.057 . S
Co152 O168 2.117 . S
Co152 O169 2.020 . S
Co152 O171 2.021 . S
Co152 O176 2.062 . S
C153 N155 1.316 . S
C153 N156 1.347 . S
C153 H158 0.931 . S
C154 N155 1.375 . S
C154 C157 1.350 . S
C154 H159 0.930 . S
N155 Co150 2.057 . S
N155 C153 1.316 . S
N155 C154 1.375 . S
N156 C153 1.347 . S
N156 C157 1.373 . S
C157 C154 1.350 . S
C157 N156 1.373 . S
C157 H178 0.931 . S
H158 C153 0.931 . S
H159 C154 0.930 . S
C160 O167 1.259 . S
C160 O168 1.258 . S
N161 Co152 2.057 . S
N161 C162 1.316 . S
N161 C163 1.375 . S
C162 N161 1.316 . S
C162 N164 1.347 . S
C162 H173 0.931 . S
C163 N161 1.375 . S
C163 C165 1.350 . S
C163 H172 0.930 . S
N164 C162 1.347 . S
N164 C165 1.373 . S
C165 C163 1.350 . S
C165 N164 1.373 . S
C165 H179 0.931 . S
C166 O169 1.256 . S
C166 O170 1.255 . S
O167 Co150 2.021 . S
O167 C160 1.259 . S
O168 Co152 2.117 . S
O168 C160 1.258 . S
O169 Co152 2.020 . S
O169 C166 1.256 . S
O170 Co150 2.062 . S
O170 C166 1.255 . S
O171 C151 1.259 . S
O171 Co152 2.021 . S
H172 C163 0.930 . S
H173 C162 0.931 . S
O174 Co150 2.117 . S
O174 C151 1.258 . S
O175 Co150 2.020 . S
O175 C177 1.256 . S
O176 Co152 2.062 . S
O176 C177 1.255 . S
C177 O175 1.256 . S
C177 O176 1.255 . S
H178 C157 0.931 . S
H179 C165 0.931 . S
Co180 N185 2.057 . S
Co180 O197 2.021 . S
Co180 O200 2.062 . S
Co180 O204 2.117 . S
Co180 O205 2.020 . S
C181 O201 1.259 . S
C181 O204 1.258 . S
Co182 N191 2.057 . S
Co182 O198 2.117 . S
Co182 O199 2.020 . S
Co182 O201 2.021 . S
Co182 O206 2.062 . S
C183 N185 1.316 . S
C183 N186 1.347 . S
C183 H188 0.931 . S
C184 N185 1.375 . S
C184 C187 1.350 . S
C184 H189 0.930 . S
N185 Co180 2.057 . S
N185 C183 1.316 . S
N185 C184 1.375 . S
N186 C183 1.347 . S
N186 C187 1.373 . S
C187 C184 1.350 . S
C187 N186 1.373 . S
C187 H208 0.931 . S
H188 C183 0.931 . S
H189 C184 0.930 . S
C190 O197 1.259 . S
C190 O198 1.258 . S
N191 Co182 2.057 . S
N191 C192 1.316 . S
N191 C193 1.375 . S
C192 N191 1.316 . S
C192 N194 1.347 . S
C192 H203 0.931 . S
C193 N191 1.375 . S
C193 C195 1.350 . S
C193 H202 0.930 . S
N194 C192 1.347 . S
N194 C195 1.373 . S
C195 C193 1.350 . S
C195 N194 1.373 . S
C195 H209 0.931 . S
C196 O199 1.256 . S
C196 O200 1.255 . S
O197 Co180 2.021 . S
O197 C190 1.259 . S
O198 Co182 2.117 . S
O198 C190 1.258 . S
O199 Co182 2.020 . S
O199 C196 1.256 . S
O200 Co180 2.062 . S
O200 C196 1.255 . S
O201 C181 1.259 . S
O201 Co182 2.021 . S
H202 C193 0.930 . S
H203 C192 0.931 . S
O204 Co180 2.117 . S
O204 C181 1.258 . S
O205 Co180 2.020 . S
O205 C207 1.256 . S
O206 Co182 2.062 . S
O206 C207 1.255 . S
C207 O205 1.256 . S
C207 O206 1.255 . S
H208 C187 0.931 . S
H209 C195 0.931 . S
Co210 N215 2.057 . S
Co210 O227 2.021 . S
Co210 O230 2.062 . S
Co210 O234 2.117 . S
Co210 O235 2.020 . S
C211 O231 1.259 . S
C211 O234 1.258 . S
Co212 N221 2.057 . S
Co212 O228 2.117 . S
Co212 O229 2.020 . S
Co212 O231 2.021 . S
Co212 O236 2.062 . S
C213 N215 1.316 . S
C213 N216 1.347 . S
C213 H218 0.931 . S
C214 N215 1.375 . S
C214 C217 1.350 . S
C214 H219 0.930 . S
N215 Co210 2.057 . S
N215 C213 1.316 . S
N215 C214 1.375 . S
N216 C213 1.347 . S
N216 C217 1.373 . S
C217 C214 1.350 . S
C217 N216 1.373 . S
C217 H238 0.931 . S
H218 C213 0.931 . S
H219 C214 0.930 . S
C220 O227 1.259 . S
C220 O228 1.258 . S
N221 Co212 2.057 . S
N221 C222 1.316 . S
N221 C223 1.375 . S
C222 N221 1.316 . S
C222 N224 1.347 . S
C222 H233 0.931 . S
C223 N221 1.375 . S
C223 C225 1.350 . S
C223 H232 0.930 . S
N224 C222 1.347 . S
N224 C225 1.373 . S
C225 C223 1.350 . S
C225 N224 1.373 . S
C225 H239 0.931 . S
C226 O229 1.256 . S
C226 O230 1.255 . S
O227 Co210 2.021 . S
O227 C220 1.259 . S
O228 Co212 2.117 . S
O228 C220 1.258 . S
O229 Co212 2.020 . S
O229 C226 1.256 . S
O230 Co210 2.062 . S
O230 C226 1.255 . S
O231 C211 1.259 . S
O231 Co212 2.021 . S
H232 C223 0.930 . S
H233 C222 0.931 . S
O234 Co210 2.117 . S
O234 C211 1.258 . S
O235 Co210 2.020 . S
O235 C237 1.256 . S
O236 Co212 2.062 . S
O236 C237 1.255 . S
C237 O235 1.256 . S
C237 O236 1.255 . S
H238 C217 0.931 . S
H239 C225 0.931 . S
C240 O252 1.241 . S
C240 O253 1.280 . S
C241 O254 1.277 . S
C241 O255 1.245 . S
C242 O266 1.247 . S
C242 O268 1.289 . S
Mg243 O244 1.926 . S
Mg243 O253 1.984 . S
Mg243 O255 1.988 . S
Mg243 O256 2.061 1_655 S
O244 Mg243 1.926 . S
O244 Mg245 1.986 . S
O244 Mg246 1.915 1_655 S
Mg245 O244 1.986 . S
Mg245 O252 2.042 . S
Mg245 O254 2.041 . S
Mg245 O260 2.038 1_545 S
Mg245 O268 2.238 1_545 S
Mg246 O244 1.915 1_455 S
Mg246 O247 1.919 1_545 S
Mg246 O257 2.108 . S
Mg246 O259 2.078 1_445 S
Mg246 O268 2.105 1_445 S
Mg246 O269 2.079 . S
O247 Mg246 1.919 1_565 S
O247 Mg248 1.926 . S
O247 Mg249 1.986 . S
Mg248 O247 1.926 . S
Mg248 O262 1.984 . S
Mg248 O265 1.988 . S
Mg248 O266 2.061 1_455 S
Mg249 O247 1.986 . S
Mg249 O257 2.238 1_565 S
Mg249 O261 2.042 . S
Mg249 O263 2.041 . S
Mg249 O270 2.038 1_565 S
C250 O256 1.247 . S
C250 O257 1.289 . S
C251 O269 1.245 . S
C251 O270 1.274 . S
O252 C240 1.241 . S
O252 Mg245 2.042 . S
O253 C240 1.280 . S
O253 Mg243 1.984 . S
O254 C241 1.277 . S
O254 Mg245 2.041 . S
O255 C241 1.245 . S
O255 Mg243 1.988 . S
O256 Mg243 2.061 1_455 S
O256 C250 1.247 . S
O257 Mg246 2.108 . S
O257 Mg249 2.238 1_545 S
O257 C250 1.289 . S
C258 O259 1.245 . S
C258 O260 1.274 . S
O259 Mg246 2.078 1_665 S
O259 C258 1.245 . S
O260 Mg245 2.038 1_565 S
O260 C258 1.274 . S
O261 Mg249 2.042 . S
O261 C264 1.241 . S
O262 Mg248 1.984 . S
O262 C264 1.280 . S
O263 Mg249 2.041 . S
O263 C267 1.277 . S
C264 O261 1.241 . S
C264 O262 1.280 . S
O265 Mg248 1.988 . S
O265 C267 1.245 . S
O266 C242 1.247 . S
O266 Mg248 2.061 1_655 S
C267 O263 1.277 . S
C267 O265 1.245 . S
O268 C242 1.289 . S
O268 Mg245 2.238 1_565 S
O268 Mg246 2.105 1_665 S
O269 Mg246 2.079 . S
O269 C251 1.245 . S
O270 Mg249 2.038 1_545 S
O270 C251 1.274 . S
C271 O283 1.241 . S
C271 O284 1.280 . S
C272 O285 1.277 . S
C272 O286 1.245 . S
C273 O297 1.247 . S
C273 O299 1.289 . S
Mg274 O275 1.926 . S
Mg274 O284 1.984 . S
Mg274 O286 1.988 1_554 S
Mg274 O287 2.061 . S
O275 Mg274 1.926 . S
O275 Mg276 1.986 1_554 S
O275 Mg277 1.917 . S
Mg276 O275 1.986 1_556 S
Mg276 O283 2.042 1_556 S
Mg276 O285 2.041 . S
Mg276 O291 2.038 1_546 S
Mg276 O299 2.238 1_545 S
Mg277 O275 1.917 . S
Mg277 O278 1.917 1_544 S
Mg277 O288 2.106 . S
Mg277 O290 2.079 1_545 S
Mg277 O299 2.106 1_544 S
Mg277 O300 2.079 1_554 S
O278 Mg277 1.917 1_566 S
O278 Mg279 1.926 . S
O278 Mg280 1.986 1_556 S
Mg279 O278 1.926 . S
Mg279 O293 1.984 . S
Mg279 O296 1.988 1_556 S
Mg279 O297 2.061 . S
Mg280 O278 1.986 1_554 S
Mg280 O288 2.238 1_565 S
Mg280 O292 2.042 1_554 S
Mg280 O294 2.041 . S
Mg280 O301 2.038 1_564 S
C281 O287 1.247 . S
C281 O288 1.289 . S
C282 O300 1.245 . S
C282 O301 1.274 . S
O283 C271 1.241 . S
O283 Mg276 2.042 1_554 S
O284 C271 1.280 . S
O284 Mg274 1.984 . S
O285 C272 1.277 . S
O285 Mg276 2.041 . S
O286 C272 1.245 . S
O286 Mg274 1.988 1_556 S
O287 Mg274 2.061 . S
O287 C281 1.247 . S
O288 Mg277 2.106 . S
O288 Mg280 2.238 1_545 S
O288 C281 1.289 . S
C289 O290 1.245 . S
C289 O291 1.274 . S
O290 Mg277 2.079 1_565 S
O290 C289 1.245 . S
O291 Mg276 2.038 1_564 S
O291 C289 1.274 . S
O292 Mg280 2.042 1_556 S
O292 C295 1.241 . S
O293 Mg279 1.984 . S
O293 C295 1.280 . S
O294 Mg280 2.041 . S
O294 C298 1.277 . S
C295 O292 1.241 . S
C295 O293 1.280 . S
O296 Mg279 1.988 1_554 S
O296 C298 1.245 . S
O297 C273 1.247 . S
O297 Mg279 2.061 . S
C298 O294 1.277 . S
C298 O296 1.245 . S
O299 C273 1.289 . S
O299 Mg276 2.238 1_565 S
O299 Mg277 2.106 1_566 S
O300 Mg277 2.079 1_556 S
O300 C282 1.245 . S
O301 Mg280 2.038 1_546 S
O301 C282 1.274 . S
C302 O314 1.241 . S
C302 O315 1.280 . S
C303 O316 1.277 . S
C303 O317 1.245 . S
C304 O328 1.247 . S
C304 O330 1.289 . S
Mg305 O306 1.926 . S
Mg305 O315 1.984 . S
Mg305 O317 1.988 1_554 S
Mg305 O318 2.061 1_655 S
O306 Mg305 1.926 . S
O306 Mg307 1.986 1_554 S
O306 Mg308 1.915 1_655 S
Mg307 O306 1.986 1_556 S
Mg307 O314 2.042 1_556 S
Mg307 O316 2.041 . S
Mg307 O322 2.038 1_556 S
Mg307 O330 2.238 . S
Mg308 O306 1.915 1_455 S
Mg308 O309 1.919 1_554 S
Mg308 O319 2.108 . S
Mg308 O321 2.078 1_455 S
Mg308 O330 2.105 1_454 S
Mg308 O331 2.079 1_554 S
O309 Mg308 1.919 1_556 S
O309 Mg310 1.926 . S
O309 Mg311 1.986 1_556 S
Mg310 O309 1.926 . S
Mg310 O324 1.984 . S
Mg310 O327 1.988 1_556 S
Mg310 O328 2.061 1_455 S
Mg311 O309 1.986 1_554 S
Mg311 O319 2.238 . S
Mg311 O323 2.042 1_554 S
Mg311 O325 2.041 . S
Mg311 O332 2.038 1_554 S
C312 O318 1.247 . S
C312 O319 1.289 . S
C313 O331 1.245 . S
C313 O332 1.274 . S
O314 C302 1.241 . S
O314 Mg307 2.042 1_554 S
O315 C302 1.280 . S
O315 Mg305 1.984 . S
O316 C303 1.277 . S
O316 Mg307 2.041 . S
O317 C303 1.245 . S
O317 Mg305 1.988 1_556 S
O318 Mg305 2.061 1_455 S
O318 C312 1.247 . S
O319 Mg308 2.108 . S
O319 Mg311 2.238 . S
O319 C312 1.289 . S
C320 O321 1.245 . S
C320 O322 1.274 . S
O321 Mg308 2.078 1_655 S
O321 C320 1.245 . S
O322 Mg307 2.038 1_554 S
O322 C320 1.274 . S
O323 Mg311 2.042 1_556 S
O323 C326 1.241 . S
O324 Mg310 1.984 . S
O324 C326 1.280 . S
O325 Mg311 2.041 . S
O325 C329 1.277 . S
C326 O323 1.241 . S
C326 O324 1.280 . S
O327 Mg310 1.988 1_554 S
O327 C329 1.245 . S
O328 C304 1.247 . S
O328 Mg310 2.061 1_655 S
C329 O325 1.277 . S
C329 O327 1.245 . S
O330 C304 1.289 . S
O330 Mg307 2.238 . S
O330 Mg308 2.105 1_656 S
O331 Mg308 2.079 1_556 S
O331 C313 1.245 . S
O332 Mg311 2.038 1_556 S
O332 C313 1.274 . S
C333 O345 1.241 . S
C333 O346 1.280 . S
C334 O347 1.277 . S
C334 O348 1.245 . S
C335 O359 1.247 . S
C335 O361 1.289 . S
Mg336 O337 1.926 . S
Mg336 O346 1.984 . S
Mg336 O348 1.988 1_554 S
Mg336 O349 2.061 . S
O337 Mg336 1.926 . S
O337 Mg338 1.986 1_554 S
O337 Mg339 1.917 . S
Mg338 O337 1.986 1_556 S
Mg338 O345 2.042 1_556 S
Mg338 O347 2.041 . S
Mg338 O353 2.038 1_556 S
Mg338 O361 2.238 . S
Mg339 O337 1.917 . S
Mg339 O340 1.917 1_554 S
Mg339 O350 2.106 . S
Mg339 O352 2.079 . S
Mg339 O361 2.106 1_554 S
Mg339 O362 2.079 1_554 S
O340 Mg339 1.917 1_556 S
O340 Mg341 1.926 . S
O340 Mg342 1.986 1_556 S
Mg341 O340 1.926 . S
Mg341 O355 1.984 . S
Mg341 O358 1.988 1_556 S
Mg341 O359 2.061 . S
Mg342 O340 1.986 1_554 S
Mg342 O350 2.238 . S
Mg342 O354 2.042 1_554 S
Mg342 O356 2.041 . S
Mg342 O363 2.038 1_554 S
C343 O349 1.247 . S
C343 O350 1.289 . S
C344 O362 1.245 . S
C344 O363 1.274 . S
O345 C333 1.241 . S
O345 Mg338 2.042 1_554 S
O346 C333 1.280 . S
O346 Mg336 1.984 . S
O347 C334 1.277 . S
O347 Mg338 2.041 . S
O348 C334 1.245 . S
O348 Mg336 1.988 1_556 S
O349 Mg336 2.061 . S
O349 C343 1.247 . S
O350 Mg339 2.106 . S
O350 Mg342 2.238 . S
O350 C343 1.289 . S
C351 O352 1.245 . S
C351 O353 1.274 . S
O352 Mg339 2.079 . S
O352 C351 1.245 . S
O353 Mg338 2.038 1_554 S
O353 C351 1.274 . S
O354 Mg342 2.042 1_556 S
O354 C357 1.241 . S
O355 Mg341 1.984 . S
O355 C357 1.280 . S
O356 Mg342 2.041 . S
O356 C360 1.277 . S
C357 O354 1.241 . S
C357 O355 1.280 . S
O358 Mg341 1.988 1_554 S
O358 C360 1.245 . S
O359 C335 1.247 . S
O359 Mg341 2.061 . S
C360 O356 1.277 . S
C360 O358 1.245 . S
O361 C335 1.289 . S
O361 Mg338 2.238 . S
O361 Mg339 2.106 1_556 S
O362 Mg339 2.079 1_556 S
O362 C344 1.245 . S
O363 Mg342 2.038 1_556 S
O363 C344 1.274 . S
C364 O376 1.241 . S
C364 O377 1.280 . S
C365 O378 1.277 . S
C365 O379 1.245 . S
C366 O390 1.247 . S
C366 O392 1.289 . S
Mg367 O368 1.926 . S
Mg367 O377 1.984 . S
Mg367 O379 1.988 . S
Mg367 O380 2.061 1_655 S
O368 Mg367 1.926 . S
O368 Mg369 1.986 . S
O368 Mg370 1.915 1_655 S
Mg369 O368 1.986 . S
Mg369 O376 2.042 . S
Mg369 O378 2.041 . S
Mg369 O384 2.038 . S
Mg369 O392 2.238 . S
Mg370 O368 1.915 1_455 S
Mg370 O371 1.919 . S
Mg370 O381 2.108 . S
Mg370 O383 2.078 1_455 S
Mg370 O392 2.105 1_455 S
Mg370 O393 2.079 . S
O371 Mg370 1.919 . S
O371 Mg372 1.926 . S
O371 Mg373 1.986 . S
Mg372 O371 1.926 . S
Mg372 O386 1.984 . S
Mg372 O389 1.988 . S
Mg372 O390 2.061 1_455 S
Mg373 O371 1.986 . S
Mg373 O381 2.238 . S
Mg373 O385 2.042 . S
Mg373 O387 2.041 . S
Mg373 O394 2.038 . S
C374 O380 1.247 . S
C374 O381 1.289 . S
C375 O393 1.245 . S
C375 O394 1.274 . S
O376 C364 1.241 . S
O376 Mg369 2.042 . S
O377 C364 1.280 . S
O377 Mg367 1.984 . S
O378 C365 1.277 . S
O378 Mg369 2.041 . S
O379 C365 1.245 . S
O379 Mg367 1.988 . S
O380 Mg367 2.061 1_455 S
O380 C374 1.247 . S
O381 Mg370 2.108 . S
O381 Mg373 2.238 . S
O381 C374 1.289 . S
C382 O383 1.245 . S
C382 O384 1.274 . S
O383 Mg370 2.078 1_655 S
O383 C382 1.245 . S
O384 Mg369 2.038 . S
O384 C382 1.274 . S
O385 Mg373 2.042 . S
O385 C388 1.241 . S
O386 Mg372 1.984 . S
O386 C388 1.280 . S
O387 Mg373 2.041 . S
O387 C391 1.277 . S
C388 O385 1.241 . S
C388 O386 1.280 . S
O389 Mg372 1.988 . S
O389 C391 1.245 . S
O390 C366 1.247 . S
O390 Mg372 2.061 1_655 S
C391 O387 1.277 . S
C391 O389 1.245 . S
O392 C366 1.289 . S
O392 Mg369 2.238 . S
O392 Mg370 2.105 1_655 S
O393 Mg370 2.079 . S
O393 C375 1.245 . S
O394 Mg373 2.038 . S
O394 C375 1.274 . S
C395 O407 1.241 . S
C395 O408 1.280 . S
C396 O409 1.277 . S
C396 O410 1.245 . S
C397 O421 1.247 . S
C397 O423 1.289 . S
Mg398 O399 1.926 . S
Mg398 O408 1.984 . S
Mg398 O410 1.988 . S
Mg398 O411 2.061 . S
O399 Mg398 1.926 . S
O399 Mg400 1.986 . S
O399 Mg401 1.917 . S
Mg400 O399 1.986 . S
Mg400 O407 2.042 . S
Mg400 O409 2.041 . S
Mg400 O415 2.038 1_545 S
Mg400 O423 2.238 1_545 S
Mg401 O399 1.917 . S
Mg401 O402 1.917 1_545 S
Mg401 O412 2.106 . S
Mg401 O414 2.079 1_545 S
Mg401 O423 2.106 1_545 S
Mg401 O424 2.079 . S
O402 Mg401 1.917 1_565 S
O402 Mg403 1.926 . S
O402 Mg404 1.986 . S
Mg403 O402 1.926 . S
Mg403 O417 1.984 . S
Mg403 O420 1.988 . S
Mg403 O421 2.061 . S
Mg404 O402 1.986 . S
Mg404 O412 2.238 1_565 S
Mg404 O416 2.042 . S
Mg404 O418 2.041 . S
Mg404 O425 2.038 1_565 S
C405 O411 1.247 . S
C405 O412 1.289 . S
C406 O424 1.245 . S
C406 O425 1.274 . S
O407 C395 1.241 . S
O407 Mg400 2.042 . S
O408 C395 1.280 . S
O408 Mg398 1.984 . S
O409 C396 1.277 . S
O409 Mg400 2.041 . S
O410 C396 1.245 . S
O410 Mg398 1.988 . S
O411 Mg398 2.061 . S
O411 C405 1.247 . S
O412 Mg401 2.106 . S
O412 Mg404 2.238 1_545 S
O412 C405 1.289 . S
C413 O414 1.245 . S
C413 O415 1.274 . S
O414 Mg401 2.079 1_565 S
O414 C413 1.245 . S
O415 Mg400 2.038 1_565 S
O415 C413 1.274 . S
O416 Mg404 2.042 . S
O416 C419 1.241 . S
O417 Mg403 1.984 . S
O417 C419 1.280 . S
O418 Mg404 2.041 . S
O418 C422 1.277 . S
C419 O416 1.241 . S
C419 O417 1.280 . S
O420 Mg403 1.988 . S
O420 C422 1.245 . S
O421 C397 1.247 . S
O421 Mg403 2.061 . S
C422 O418 1.277 . S
C422 O420 1.245 . S
O423 C397 1.289 . S
O423 Mg400 2.238 1_565 S
O423 Mg401 2.106 1_565 S
O424 Mg401 2.079 . S
O424 C406 1.245 . S
O425 Mg404 2.038 1_545 S
O425 C406 1.274 . S
H426 C434 0.929 . S
H427 C436 0.930 . S
H428 C438 0.930 . S
H429 C441 0.929 . S
H430 C444 0.930 . S
H431 C446 0.960 . S
H432 C446 0.960 . S
H433 C446 0.960 . S
C434 H426 0.929 . S
C434 C435 1.377 . S
C434 C436 1.384 . S
C435 C434 1.377 . S
C435 C441 1.390 . S
C436 H427 0.930 . S
C436 C434 1.384 . S
C436 C437 1.372 . S
C437 C436 1.372 . S
C437 C438 1.400 . S
C437 C442 1.490 . S
C438 H428 0.930 . S
C438 C437 1.400 . S
C438 C441 1.386 . S
H439 C455 0.930 . S
H440 C456 0.931 . S
C441 H429 0.929 . S
C441 C435 1.390 . S
C441 C438 1.386 . S
C442 C437 1.490 . S
C442 C444 1.395 . S
C442 C445 1.403 . S
H443 C449 0.930 . S
C444 H430 0.930 . S
C444 C442 1.395 . S
C444 C447 1.403 . S
C445 C442 1.403 . S
C445 C446 1.524 . S
C445 C449 1.400 . S
C446 H431 0.960 . S
C446 H432 0.960 . S
C446 H433 0.960 . S
C446 C445 1.524 . S
C447 C444 1.403 . S
C447 C448 1.392 . S
C447 C451 1.495 . S
C448 C447 1.392 . S
C448 C449 1.385 . S
C448 C450 1.478 . S
C449 H443 0.930 . S
C449 C445 1.400 . S
C449 C448 1.385 . S
C450 C448 1.478 . S
C450 C452 1.381 . S
C450 C456 1.383 . S
C451 C447 1.495 . S
C451 H457 0.959 . S
C451 H458 0.961 . S
C451 H459 0.960 . S
C452 C450 1.381 . S
C452 C453 1.394 . S
C452 H460 0.930 . S
C453 C452 1.394 . S
C453 C454 1.383 . S
C453 H461 0.929 . S
C454 C453 1.383 . S
C454 C455 1.377 . S
C455 H439 0.930 . S
C455 C454 1.377 . S
C455 C456 1.379 . S
C456 H440 0.931 . S
C456 C450 1.383 . S
C456 C455 1.379 . S
H457 C451 0.959 . S
H458 C451 0.961 . S
H459 C451 0.960 . S
H460 C452 0.930 . S
H461 C453 0.929 . S
H462 C470 0.929 . S
H463 C472 0.930 . S
H464 C474 0.930 . S
H465 C477 0.929 . S
H466 C480 0.930 . S
H467 C482 0.960 . S
H468 C482 0.960 . S
H469 C482 0.960 . S
C470 H462 0.929 . S
C470 C471 1.377 . S
C470 C472 1.384 . S
C471 C470 1.377 . S
C471 C477 1.390 . S
C472 H463 0.930 . S
C472 C470 1.384 . S
C472 C473 1.372 . S
C473 C472 1.372 . S
C473 C474 1.400 . S
C473 C478 1.490 . S
C474 H464 0.930 . S
C474 C473 1.400 . S
C474 C477 1.386 . S
H475 C491 0.930 . S
H476 C492 0.931 . S
C477 H465 0.929 . S
C477 C471 1.390 . S
C477 C474 1.386 . S
C478 C473 1.490 . S
C478 C480 1.395 . S
C478 C481 1.403 . S
H479 C485 0.930 . S
C480 H466 0.930 . S
C480 C478 1.395 . S
C480 C483 1.403 . S
C481 C478 1.403 . S
C481 C482 1.524 . S
C481 C485 1.400 . S
C482 H467 0.960 . S
C482 H468 0.960 . S
C482 H469 0.960 . S
C482 C481 1.524 . S
C483 C480 1.403 . S
C483 C484 1.392 . S
C483 C487 1.495 . S
C484 C483 1.392 . S
C484 C485 1.385 . S
C484 C486 1.478 . S
C485 H479 0.930 . S
C485 C481 1.400 . S
C485 C484 1.385 . S
C486 C484 1.478 . S
C486 C488 1.381 . S
C486 C492 1.383 . S
C487 C483 1.495 . S
C487 H493 0.959 . S
C487 H494 0.961 . S
C487 H495 0.960 . S
C488 C486 1.381 . S
C488 C489 1.394 . S
C488 H496 0.930 . S
C489 C488 1.394 . S
C489 C490 1.383 . S
C489 H497 0.929 . S
C490 C489 1.383 . S
C490 C491 1.377 . S
C491 H475 0.930 . S
C491 C490 1.377 . S
C491 C492 1.379 . S
C492 H476 0.931 . S
C492 C486 1.383 . S
C492 C491 1.379 . S
H493 C487 0.959 . S
H494 C487 0.961 . S
H495 C487 0.960 . S
H496 C488 0.930 . S
H497 C489 0.929 . S
H498 C506 0.929 . S
H499 C508 0.930 . S
H500 C510 0.930 . S
H501 C513 0.929 . S
H502 C516 0.930 . S
H503 C518 0.960 . S
H504 C518 0.960 . S
H505 C518 0.960 . S
C506 H498 0.929 . S
C506 C507 1.377 . S
C506 C508 1.384 . S
C507 C506 1.377 . S
C507 C513 1.390 . S
C508 H499 0.930 . S
C508 C506 1.384 . S
C508 C509 1.372 . S
C509 C508 1.372 . S
C509 C510 1.400 . S
C509 C514 1.490 . S
C510 H500 0.930 . S
C510 C509 1.400 . S
C510 C513 1.386 . S
H511 C527 0.930 . S
H512 C528 0.931 . S
C513 H501 0.929 . S
C513 C507 1.390 . S
C513 C510 1.386 . S
C514 C509 1.490 . S
C514 C516 1.395 . S
C514 C517 1.403 . S
H515 C521 0.930 . S
C516 H502 0.930 . S
C516 C514 1.395 . S
C516 C519 1.403 . S
C517 C514 1.403 . S
C517 C518 1.524 . S
C517 C521 1.400 . S
C518 H503 0.960 . S
C518 H504 0.960 . S
C518 H505 0.960 . S
C518 C517 1.524 . S
C519 C516 1.403 . S
C519 C520 1.392 . S
C519 C523 1.495 . S
C520 C519 1.392 . S
C520 C521 1.385 . S
C520 C522 1.478 . S
C521 H515 0.930 . S
C521 C517 1.400 . S
C521 C520 1.385 . S
C522 C520 1.478 . S
C522 C524 1.381 . S
C522 C528 1.383 . S
C523 C519 1.495 . S
C523 H529 0.959 . S
C523 H530 0.961 . S
C523 H531 0.960 . S
C524 C522 1.381 . S
C524 C525 1.394 . S
C524 H532 0.930 . S
C525 C524 1.394 . S
C525 C526 1.383 . S
C525 H533 0.929 . S
C526 C525 1.383 . S
C526 C527 1.377 . S
C527 H511 0.930 . S
C527 C526 1.377 . S
C527 C528 1.379 . S
C528 H512 0.931 . S
C528 C522 1.383 . S
C528 C527 1.379 . S
H529 C523 0.959 . S
H530 C523 0.961 . S
H531 C523 0.960 . S
H532 C524 0.930 . S
H533 C525 0.929 . S
H534 C542 0.929 . S
H535 C544 0.930 . S
H536 C546 0.930 . S
H537 C549 0.929 . S
H538 C552 0.930 . S
H539 C554 0.960 . S
H540 C554 0.960 . S
H541 C554 0.960 . S
C542 H534 0.929 . S
C542 C543 1.377 . S
C542 C544 1.384 . S
C543 C542 1.377 . S
C543 C549 1.390 . S
C544 H535 0.930 . S
C544 C542 1.384 . S
C544 C545 1.372 . S
C545 C544 1.372 . S
C545 C546 1.400 . S
C545 C550 1.490 . S
C546 H536 0.930 . S
C546 C545 1.400 . S
C546 C549 1.386 . S
H547 C563 0.930 . S
H548 C564 0.931 . S
C549 H537 0.929 . S
C549 C543 1.390 . S
C549 C546 1.386 . S
C550 C545 1.490 . S
C550 C552 1.395 . S
C550 C553 1.403 . S
H551 C557 0.930 . S
C552 H538 0.930 . S
C552 C550 1.395 . S
C552 C555 1.403 . S
C553 C550 1.403 . S
C553 C554 1.524 . S
C553 C557 1.400 . S
C554 H539 0.960 . S
C554 H540 0.960 . S
C554 H541 0.960 . S
C554 C553 1.524 . S
C555 C552 1.403 . S
C555 C556 1.392 . S
C555 C559 1.495 . S
C556 C555 1.392 . S
C556 C557 1.385 . S
C556 C558 1.478 . S
C557 H551 0.930 . S
C557 C553 1.400 . S
C557 C556 1.385 . S
C558 C556 1.478 . S
C558 C560 1.381 . S
C558 C564 1.383 . S
C559 C555 1.495 . S
C559 H565 0.959 . S
C559 H566 0.961 . S
C559 H567 0.960 . S
C560 C558 1.381 . S
C560 C561 1.394 . S
C560 H568 0.930 . S
C561 C560 1.394 . S
C561 C562 1.383 . S
C561 H569 0.929 . S
C562 C561 1.383 . S
C562 C563 1.377 . S
C563 H547 0.930 . S
C563 C562 1.377 . S
C563 C564 1.379 . S
C564 H548 0.931 . S
C564 C558 1.383 . S
C564 C563 1.379 . S
H565 C559 0.959 . S
H566 C559 0.961 . S
H567 C559 0.960 . S
H568 C560 0.930 . S
H569 C561 0.929 . S
H570 C578 0.929 . S
H571 C580 0.930 . S
H572 C582 0.930 . S
H573 C585 0.929 . S
H574 C588 0.930 . S
H575 C590 0.960 . S
H576 C590 0.960 . S
H577 C590 0.960 . S
C578 H570 0.929 . S
C578 C579 1.377 . S
C578 C580 1.384 . S
C579 C578 1.377 . S
C579 C585 1.390 . S
C580 H571 0.930 . S
C580 C578 1.384 . S
C580 C581 1.372 . S
C581 C580 1.372 . S
C581 C582 1.400 . S
C581 C586 1.490 . S
C582 H572 0.930 . S
C582 C581 1.400 . S
C582 C585 1.386 . S
H583 C599 0.930 . S
H584 C600 0.931 . S
C585 H573 0.929 . S
C585 C579 1.390 . S
C585 C582 1.386 . S
C586 C581 1.490 . S
C586 C588 1.395 . S
C586 C589 1.403 . S
H587 C593 0.930 . S
C588 H574 0.930 . S
C588 C586 1.395 . S
C588 C591 1.403 . S
C589 C586 1.403 . S
C589 C590 1.524 . S
C589 C593 1.400 . S
C590 H575 0.960 . S
C590 H576 0.960 . S
C590 H577 0.960 . S
C590 C589 1.524 . S
C591 C588 1.403 . S
C591 C592 1.392 . S
C591 C595 1.495 . S
C592 C591 1.392 . S
C592 C593 1.385 . S
C592 C594 1.478 . S
C593 H587 0.930 . S
C593 C589 1.400 . S
C593 C592 1.385 . S
C594 C592 1.478 . S
C594 C596 1.381 . S
C594 C600 1.383 . S
C595 C591 1.495 . S
C595 H601 0.959 . S
C595 H602 0.961 . S
C595 H603 0.960 . S
C596 C594 1.381 . S
C596 C597 1.394 . S
C596 H604 0.930 . S
C597 C596 1.394 . S
C597 C598 1.383 . S
C597 H605 0.929 . S
C598 C597 1.383 . S
C598 C599 1.377 . S
C599 H583 0.930 . S
C599 C598 1.377 . S
C599 C600 1.379 . S
C600 H584 0.931 . S
C600 C594 1.383 . S
C600 C599 1.379 . S
H601 C595 0.959 . S
H602 C595 0.961 . S
H603 C595 0.960 . S
H604 C596 0.930 . S
H605 C597 0.929 . S
H606 C614 0.929 . S
H607 C616 0.930 . S
H608 C618 0.930 . S
H609 C621 0.929 . S
H610 C624 0.930 . S
H611 C626 0.960 . S
H612 C626 0.960 . S
H613 C626 0.960 . S
C614 H606 0.929 . S
C614 C615 1.377 . S
C614 C616 1.384 . S
C615 C614 1.377 . S
C615 C621 1.390 . S
C616 H607 0.930 . S
C616 C614 1.384 . S
C616 C617 1.372 . S
C617 C616 1.372 . S
C617 C618 1.400 . S
C617 C622 1.490 . S
C618 H608 0.930 . S
C618 C617 1.400 . S
C618 C621 1.386 . S
H619 C635 0.930 . S
H620 C636 0.931 . S
C621 H609 0.929 . S
C621 C615 1.390 . S
C621 C618 1.386 . S
C622 C617 1.490 . S
C622 C624 1.395 . S
C622 C625 1.403 . S
H623 C629 0.930 . S
C624 H610 0.930 . S
C624 C622 1.395 . S
C624 C627 1.403 . S
C625 C622 1.403 . S
C625 C626 1.524 . S
C625 C629 1.400 . S
C626 H611 0.960 . S
C626 H612 0.960 . S
C626 H613 0.960 . S
C626 C625 1.524 . S
C627 C624 1.403 . S
C627 C628 1.392 . S
C627 C631 1.495 . S
C628 C627 1.392 . S
C628 C629 1.385 . S
C628 C630 1.478 . S
C629 H623 0.930 . S
C629 C625 1.400 . S
C629 C628 1.385 . S
C630 C628 1.478 . S
C630 C632 1.381 . S
C630 C636 1.383 . S
C631 C627 1.495 . S
C631 H637 0.959 . S
C631 H638 0.961 . S
C631 H639 0.960 . S
C632 C630 1.381 . S
C632 C633 1.394 . S
C632 H640 0.930 . S
C633 C632 1.394 . S
C633 C634 1.383 . S
C633 H641 0.929 . S
C634 C633 1.383 . S
C634 C635 1.377 . S
C635 H619 0.930 . S
C635 C634 1.377 . S
C635 C636 1.379 . S
C636 H620 0.931 . S
C636 C630 1.383 . S
C636 C635 1.379 . S
H637 C631 0.959 . S
H638 C631 0.961 . S
H639 C631 0.960 . S
H640 C632 0.930 . S
H641 C633 0.929 . S
H642 C650 0.929 . S
H643 C652 0.930 . S
H644 C654 0.930 . S
H645 C657 0.929 . S
H646 C660 0.930 . S
H647 C662 0.960 . S
H648 C662 0.960 . S
H649 C662 0.960 . S
C650 H642 0.929 . S
C650 C651 1.377 . S
C650 C652 1.384 . S
C651 C650 1.377 . S
C651 C657 1.390 . S
C652 H643 0.930 . S
C652 C650 1.384 . S
C652 C653 1.372 . S
C653 C652 1.372 . S
C653 C654 1.400 . S
C653 C658 1.490 . S
C654 H644 0.930 . S
C654 C653 1.400 . S
C654 C657 1.386 . S
H655 C671 0.930 . S
H656 C672 0.931 . S
C657 H645 0.929 . S
C657 C651 1.390 . S
C657 C654 1.386 . S
C658 C653 1.490 . S
C658 C660 1.395 . S
C658 C661 1.403 . S
H659 C665 0.930 . S
C660 H646 0.930 . S
C660 C658 1.395 . S
C660 C663 1.403 . S
C661 C658 1.403 . S
C661 C662 1.524 . S
C661 C665 1.400 . S
C662 H647 0.960 . S
C662 H648 0.960 . S
C662 H649 0.960 . S
C662 C661 1.524 . S
C663 C660 1.403 . S
C663 C664 1.392 . S
C663 C667 1.495 . S
C664 C663 1.392 . S
C664 C665 1.385 . S
C664 C666 1.478 . S
C665 H659 0.930 . S
C665 C661 1.400 . S
C665 C664 1.385 . S
C666 C664 1.478 . S
C666 C668 1.381 . S
C666 C672 1.383 . S
C667 C663 1.495 . S
C667 H673 0.959 . S
C667 H674 0.961 . S
C667 H675 0.960 . S
C668 C666 1.381 . S
C668 C669 1.394 . S
C668 H676 0.930 . S
C669 C668 1.394 . S
C669 C670 1.383 . S
C669 H677 0.929 . S
C670 C669 1.383 . S
C670 C671 1.377 . S
C671 H655 0.930 . S
C671 C670 1.377 . S
C671 C672 1.379 . S
C672 H656 0.931 . S
C672 C666 1.383 . S
C672 C671 1.379 . S
H673 C667 0.959 . S
H674 C667 0.961 . S
H675 C667 0.960 . S
H676 C668 0.930 . S
H677 C669 0.929 . S
H678 C686 0.929 . S
H679 C688 0.930 . S
H680 C690 0.930 . S
H681 C693 0.929 . S
H682 C696 0.930 . S
H683 C698 0.960 . S
H684 C698 0.960 . S
H685 C698 0.960 . S
C686 H678 0.929 . S
C686 C687 1.377 . S
C686 C688 1.384 . S
C687 C686 1.377 . S
C687 C693 1.390 . S
C688 H679 0.930 . S
C688 C686 1.384 . S
C688 C689 1.372 . S
C689 C688 1.372 . S
C689 C690 1.400 . S
C689 C694 1.490 . S
C690 H680 0.930 . S
C690 C689 1.400 . S
C690 C693 1.386 . S
H691 C707 0.930 . S
H692 C708 0.931 . S
C693 H681 0.929 . S
C693 C687 1.390 . S
C693 C690 1.386 . S
C694 C689 1.490 . S
C694 C696 1.395 . S
C694 C697 1.403 . S
H695 C701 0.930 . S
C696 H682 0.930 . S
C696 C694 1.395 . S
C696 C699 1.403 . S
C697 C694 1.403 . S
C697 C698 1.524 . S
C697 C701 1.400 . S
C698 H683 0.960 . S
C698 H684 0.960 . S
C698 H685 0.960 . S
C698 C697 1.524 . S
C699 C696 1.403 . S
C699 C700 1.392 . S
C699 C703 1.495 . S
C700 C699 1.392 . S
C700 C701 1.385 . S
C700 C702 1.478 . S
C701 H695 0.930 . S
C701 C697 1.400 . S
C701 C700 1.385 . S
C702 C700 1.478 . S
C702 C704 1.381 . S
C702 C708 1.383 . S
C703 C699 1.495 . S
C703 H709 0.959 . S
C703 H710 0.961 . S
C703 H711 0.960 . S
C704 C702 1.381 . S
C704 C705 1.394 . S
C704 H712 0.930 . S
C705 C704 1.394 . S
C705 C706 1.383 . S
C705 H713 0.929 . S
C706 C705 1.383 . S
C706 C707 1.377 . S
C707 H691 0.930 . S
C707 C706 1.377 . S
C707 C708 1.379 . S
C708 H692 0.931 . S
C708 C702 1.383 . S
C708 C707 1.379 . S
H709 C703 0.959 . S
H710 C703 0.961 . S
H711 C703 0.960 . S
H712 C704 0.930 . S
H713 C705 0.929 . S
H714 C722 0.929 . S
H715 C724 0.930 . S
H716 C726 0.930 . S
H717 C729 0.929 . S
H718 C732 0.930 . S
H719 C734 0.960 . S
H720 C734 0.960 . S
H721 C734 0.960 . S
C722 H714 0.929 . S
C722 C723 1.377 . S
C722 C724 1.384 . S
C723 C722 1.377 . S
C723 C729 1.390 . S
C724 H715 0.930 . S
C724 C722 1.384 . S
C724 C725 1.372 . S
C725 C724 1.372 . S
C725 C726 1.400 . S
C725 C730 1.490 . S
C726 H716 0.930 . S
C726 C725 1.400 . S
C726 C729 1.386 . S
H727 C743 0.930 . S
H728 C744 0.931 . S
C729 H717 0.929 . S
C729 C723 1.390 . S
C729 C726 1.386 . S
C730 C725 1.490 . S
C730 C732 1.395 . S
C730 C733 1.403 . S
H731 C737 0.930 . S
C732 H718 0.930 . S
C732 C730 1.395 . S
C732 C735 1.403 . S
C733 C730 1.403 . S
C733 C734 1.524 . S
C733 C737 1.400 . S
C734 H719 0.960 . S
C734 H720 0.960 . S
C734 H721 0.960 . S
C734 C733 1.524 . S
C735 C732 1.403 . S
C735 C736 1.392 . S
C735 C739 1.495 . S
C736 C735 1.392 . S
C736 C737 1.385 . S
C736 C738 1.478 . S
C737 H731 0.930 . S
C737 C733 1.400 . S
C737 C736 1.385 . S
C738 C736 1.478 . S
C738 C740 1.381 . S
C738 C744 1.383 . S
C739 C735 1.495 . S
C739 H745 0.959 . S
C739 H746 0.961 . S
C739 H747 0.960 . S
C740 C738 1.381 . S
C740 C741 1.394 . S
C740 H748 0.930 . S
C741 C740 1.394 . S
C741 C742 1.383 . S
C741 H749 0.929 . S
C742 C741 1.383 . S
C742 C743 1.377 . S
C743 H727 0.930 . S
C743 C742 1.377 . S
C743 C744 1.379 . S
C744 H728 0.931 . S
C744 C738 1.383 . S
C744 C743 1.379 . S
H745 C739 0.959 . S
H746 C739 0.961 . S
H747 C739 0.960 . S
H748 C740 0.930 . S
H749 C741 0.929 . S
H750 C758 0.929 . S
H751 C760 0.930 . S
H752 C762 0.930 . S
H753 C765 0.929 . S
H754 C768 0.930 . S
H755 C770 0.960 . S
H756 C770 0.960 . S
H757 C770 0.960 . S
C758 H750 0.929 . S
C758 C759 1.377 . S
C758 C760 1.384 . S
C759 C758 1.377 . S
C759 C765 1.390 . S
C760 H751 0.930 . S
C760 C758 1.384 . S
C760 C761 1.372 . S
C761 C760 1.372 . S
C761 C762 1.400 . S
C761 C766 1.490 . S
C762 H752 0.930 . S
C762 C761 1.400 . S
C762 C765 1.386 . S
H763 C779 0.930 . S
H764 C780 0.931 . S
C765 H753 0.929 . S
C765 C759 1.390 . S
C765 C762 1.386 . S
C766 C761 1.490 . S
C766 C768 1.395 . S
C766 C769 1.403 . S
H767 C773 0.930 . S
C768 H754 0.930 . S
C768 C766 1.395 . S
C768 C771 1.403 . S
C769 C766 1.403 . S
C769 C770 1.524 . S
C769 C773 1.400 . S
C770 H755 0.960 . S
C770 H756 0.960 . S
C770 H757 0.960 . S
C770 C769 1.524 . S
C771 C768 1.403 . S
C771 C772 1.392 . S
C771 C775 1.495 . S
C772 C771 1.392 . S
C772 C773 1.385 . S
C772 C774 1.478 . S
C773 H767 0.930 . S
C773 C769 1.400 . S
C773 C772 1.385 . S
C774 C772 1.478 . S
C774 C776 1.381 . S
C774 C780 1.383 . S
C775 C771 1.495 . S
C775 H781 0.959 . S
C775 H782 0.961 . S
C775 H783 0.960 . S
C776 C774 1.381 . S
C776 C777 1.394 . S
C776 H784 0.930 . S
C777 C776 1.394 . S
C777 C778 1.383 . S
C777 H785 0.929 . S
C778 C777 1.383 . S
C778 C779 1.377 . S
C779 H763 0.930 . S
C779 C778 1.377 . S
C779 C780 1.379 . S
C780 H764 0.931 . S
C780 C774 1.383 . S
C780 C779 1.379 . S
H781 C775 0.959 . S
H782 C775 0.961 . S
H783 C775 0.960 . S
H784 C776 0.930 . S
H785 C777 0.929 . S
H786 C794 0.929 . S
H787 C796 0.930 . S
H788 C798 0.930 . S
H789 C801 0.929 . S
H790 C804 0.930 . S
H791 C806 0.960 . S
H792 C806 0.960 . S
H793 C806 0.960 . S
C794 H786 0.929 . S
C794 C795 1.377 . S
C794 C796 1.384 . S
C795 C794 1.377 . S
C795 C801 1.390 . S
C796 H787 0.930 . S
C796 C794 1.384 . S
C796 C797 1.372 . S
C797 C796 1.372 . S
C797 C798 1.400 . S
C797 C802 1.490 . S
C798 H788 0.930 . S
C798 C797 1.400 . S
C798 C801 1.386 . S
H799 C815 0.930 . S
H800 C816 0.931 . S
C801 H789 0.929 . S
C801 C795 1.390 . S
C801 C798 1.386 . S
C802 C797 1.490 . S
C802 C804 1.395 . S
C802 C805 1.403 . S
H803 C809 0.930 . S
C804 H790 0.930 . S
C804 C802 1.395 . S
C804 C807 1.403 . S
C805 C802 1.403 . S
C805 C806 1.524 . S
C805 C809 1.400 . S
C806 H791 0.960 . S
C806 H792 0.960 . S
C806 H793 0.960 . S
C806 C805 1.524 . S
C807 C804 1.403 . S
C807 C808 1.392 . S
C807 C811 1.495 . S
C808 C807 1.392 . S
C808 C809 1.385 . S
C808 C810 1.478 . S
C809 H803 0.930 . S
C809 C805 1.400 . S
C809 C808 1.385 . S
C810 C808 1.478 . S
C810 C812 1.381 . S
C810 C816 1.383 . S
C811 C807 1.495 . S
C811 H817 0.959 . S
C811 H818 0.961 . S
C811 H819 0.960 . S
C812 C810 1.381 . S
C812 C813 1.394 . S
C812 H820 0.930 . S
C813 C812 1.394 . S
C813 C814 1.383 . S
C813 H821 0.929 . S
C814 C813 1.383 . S
C814 C815 1.377 . S
C815 H799 0.930 . S
C815 C814 1.377 . S
C815 C816 1.379 . S
C816 H800 0.931 . S
C816 C810 1.383 . S
C816 C815 1.379 . S
H817 C811 0.959 . S
H818 C811 0.961 . S
H819 C811 0.960 . S
H820 C812 0.930 . S
H821 C813 0.929 . S
H822 C830 0.929 . S
H823 C832 0.930 . S
H824 C834 0.930 . S
H825 C837 0.929 . S
H826 C840 0.930 . S
H827 C842 0.960 . S
H828 C842 0.960 . S
H829 C842 0.960 . S
C830 H822 0.929 . S
C830 C831 1.377 . S
C830 C832 1.384 . S
C831 C830 1.377 . S
C831 C837 1.390 . S
C832 H823 0.930 . S
C832 C830 1.384 . S
C832 C833 1.372 . S
C833 C832 1.372 . S
C833 C834 1.400 . S
C833 C838 1.490 . S
C834 H824 0.930 . S
C834 C833 1.400 . S
C834 C837 1.386 . S
H835 C851 0.930 . S
H836 C852 0.931 . S
C837 H825 0.929 . S
C837 C831 1.390 . S
C837 C834 1.386 . S
C838 C833 1.490 . S
C838 C840 1.395 . S
C838 C841 1.403 . S
H839 C845 0.930 . S
C840 H826 0.930 . S
C840 C838 1.395 . S
C840 C843 1.403 . S
C841 C838 1.403 . S
C841 C842 1.524 . S
C841 C845 1.400 . S
C842 H827 0.960 . S
C842 H828 0.960 . S
C842 H829 0.960 . S
C842 C841 1.524 . S
C843 C840 1.403 . S
C843 C844 1.392 . S
C843 C847 1.495 . S
C844 C843 1.392 . S
C844 C845 1.385 . S
C844 C846 1.478 . S
C845 H839 0.930 . S
C845 C841 1.400 . S
C845 C844 1.385 . S
C846 C844 1.478 . S
C846 C848 1.381 . S
C846 C852 1.383 . S
C847 C843 1.495 . S
C847 H853 0.959 . S
C847 H854 0.961 . S
C847 H855 0.960 . S
C848 C846 1.381 . S
C848 C849 1.394 . S
C848 H856 0.930 . S
C849 C848 1.394 . S
C849 C850 1.383 . S
C849 H857 0.929 . S
C850 C849 1.383 . S
C850 C851 1.377 . S
C851 H835 0.930 . S
C851 C850 1.377 . S
C851 C852 1.379 . S
C852 H836 0.931 . S
C852 C846 1.383 . S
C852 C851 1.379 . S
H853 C847 0.959 . S
H854 C847 0.961 . S
H855 C847 0.960 . S
H856 C848 0.930 . S
H857 C849 0.929 . S
H858 C866 0.929 . S
H859 C868 0.930 . S
H860 C870 0.930 . S
H861 C873 0.929 . S
H862 C876 0.930 . S
H863 C878 0.960 . S
H864 C878 0.960 . S
H865 C878 0.960 . S
C866 H858 0.929 . S
C866 C867 1.377 . S
C866 C868 1.384 . S
C867 C866 1.377 . S
C867 C873 1.390 . S
C868 H859 0.930 . S
C868 C866 1.384 . S
C868 C869 1.372 . S
C869 C868 1.372 . S
C869 C870 1.400 . S
C869 C874 1.490 . S
C870 H860 0.930 . S
C870 C869 1.400 . S
C870 C873 1.386 . S
H871 C887 0.930 . S
H872 C888 0.931 . S
C873 H861 0.929 . S
C873 C867 1.390 . S
C873 C870 1.386 . S
C874 C869 1.490 . S
C874 C876 1.395 . S
C874 C877 1.403 . S
H875 C881 0.930 . S
C876 H862 0.930 . S
C876 C874 1.395 . S
C876 C879 1.403 . S
C877 C874 1.403 . S
C877 C878 1.524 . S
C877 C881 1.400 . S
C878 H863 0.960 . S
C878 H864 0.960 . S
C878 H865 0.960 . S
C878 C877 1.524 . S
C879 C876 1.403 . S
C879 C880 1.392 . S
C879 C883 1.495 . S
C880 C879 1.392 . S
C880 C881 1.385 . S
C880 C882 1.478 . S
C881 H875 0.930 . S
C881 C877 1.400 . S
C881 C880 1.385 . S
C882 C880 1.478 . S
C882 C884 1.381 . S
C882 C888 1.383 . S
C883 C879 1.495 . S
C883 H889 0.959 . S
C883 H890 0.961 . S
C883 H891 0.960 . S
C884 C882 1.381 . S
C884 C885 1.394 . S
C884 H892 0.930 . S
C885 C884 1.394 . S
C885 C886 1.383 . S
C885 H893 0.929 . S
C886 C885 1.383 . S
C886 C887 1.377 . S
C887 H871 0.930 . S
C887 C886 1.377 . S
C887 C888 1.379 . S
C888 H872 0.931 . S
C888 C882 1.383 . S
C888 C887 1.379 . S
H889 C883 0.959 . S
H890 C883 0.961 . S
H891 C883 0.960 . S
H892 C884 0.930 . S
H893 C885 0.929 . S
H894 C902 0.929 . S
H895 C904 0.930 . S
H896 C906 0.930 . S
H897 C909 0.929 . S
H898 C912 0.930 . S
H899 C914 0.960 . S
H900 C914 0.960 . S
H901 C914 0.960 . S
C902 H894 0.929 . S
C902 C903 1.377 . S
C902 C904 1.384 . S
C903 C902 1.377 . S
C903 C909 1.390 . S
C904 H895 0.930 . S
C904 C902 1.384 . S
C904 C905 1.372 . S
C905 C904 1.372 . S
C905 C906 1.400 . S
C905 C910 1.490 . S
C906 H896 0.930 . S
C906 C905 1.400 . S
C906 C909 1.386 . S
H907 C923 0.930 . S
H908 C924 0.931 . S
C909 H897 0.929 . S
C909 C903 1.390 . S
C909 C906 1.386 . S
C910 C905 1.490 . S
C910 C912 1.395 . S
C910 C913 1.403 . S
H911 C917 0.930 . S
C912 H898 0.930 . S
C912 C910 1.395 . S
C912 C915 1.403 . S
C913 C910 1.403 . S
C913 C914 1.524 . S
C913 C917 1.400 . S
C914 H899 0.960 . S
C914 H900 0.960 . S
C914 H901 0.960 . S
C914 C913 1.524 . S
C915 C912 1.403 . S
C915 C916 1.392 . S
C915 C919 1.495 . S
C916 C915 1.392 . S
C916 C917 1.385 . S
C916 C918 1.478 . S
C917 H911 0.930 . S
C917 C913 1.400 . S
C917 C916 1.385 . S
C918 C916 1.478 . S
C918 C920 1.381 . S
C918 C924 1.383 . S
C919 C915 1.495 . S
C919 H925 0.959 . S
C919 H926 0.961 . S
C919 H927 0.960 . S
C920 C918 1.381 . S
C920 C921 1.394 . S
C920 H928 0.930 . S
C921 C920 1.394 . S
C921 C922 1.383 . S
C921 H929 0.929 . S
C922 C921 1.383 . S
C922 C923 1.377 . S
C923 H907 0.930 . S
C923 C922 1.377 . S
C923 C924 1.379 . S
C924 H908 0.931 . S
C924 C918 1.383 . S
C924 C923 1.379 . S
H925 C919 0.959 . S
H926 C919 0.961 . S
H927 C919 0.960 . S
H928 C920 0.930 . S
H929 C921 0.929 . S
H930 C938 0.929 . S
H931 C940 0.930 . S
H932 C942 0.930 . S
H933 C945 0.929 . S
H934 C948 0.930 . S
H935 C950 0.960 . S
H936 C950 0.960 . S
H937 C950 0.960 . S
C938 H930 0.929 . S
C938 C939 1.377 . S
C938 C940 1.384 . S
C939 C938 1.377 . S
C939 C945 1.390 . S
C940 H931 0.930 . S
C940 C938 1.384 . S
C940 C941 1.372 . S
C941 C940 1.372 . S
C941 C942 1.400 . S
C941 C946 1.490 . S
C942 H932 0.930 . S
C942 C941 1.400 . S
C942 C945 1.386 . S
H943 C959 0.930 . S
H944 C960 0.931 . S
C945 H933 0.929 . S
C945 C939 1.390 . S
C945 C942 1.386 . S
C946 C941 1.490 . S
C946 C948 1.395 . S
C946 C949 1.403 . S
H947 C953 0.930 . S
C948 H934 0.930 . S
C948 C946 1.395 . S
C948 C951 1.403 . S
C949 C946 1.403 . S
C949 C950 1.524 . S
C949 C953 1.400 . S
C950 H935 0.960 . S
C950 H936 0.960 . S
C950 H937 0.960 . S
C950 C949 1.524 . S
C951 C948 1.403 . S
C951 C952 1.392 . S
C951 C955 1.495 . S
C952 C951 1.392 . S
C952 C953 1.385 . S
C952 C954 1.478 . S
C953 H947 0.930 . S
C953 C949 1.400 . S
C953 C952 1.385 . S
C954 C952 1.478 . S
C954 C956 1.381 . S
C954 C960 1.383 . S
C955 C951 1.495 . S
C955 H961 0.959 . S
C955 H962 0.961 . S
C955 H963 0.960 . S
C956 C954 1.381 . S
C956 C957 1.394 . S
C956 H964 0.930 . S
C957 C956 1.394 . S
C957 C958 1.383 . S
C957 H965 0.929 . S
C958 C957 1.383 . S
C958 C959 1.377 . S
C959 H943 0.930 . S
C959 C958 1.377 . S
C959 C960 1.379 . S
C960 H944 0.931 . S
C960 C954 1.383 . S
C960 C959 1.379 . S
H961 C955 0.959 . S
H962 C955 0.961 . S
H963 C955 0.960 . S
H964 C956 0.930 . S
H965 C957 0.929 . S
H966 C974 0.929 . S
H967 C976 0.930 . S
H968 C978 0.930 . S
H969 C981 0.929 . S
H970 C984 0.930 . S
H971 C986 0.960 . S
H972 C986 0.960 . S
H973 C986 0.960 . S
C974 H966 0.929 . S
C974 C975 1.377 . S
C974 C976 1.384 . S
C975 C974 1.377 . S
C975 C981 1.390 . S
C976 H967 0.930 . S
C976 C974 1.384 . S
C976 C977 1.372 . S
C977 C976 1.372 . S
C977 C978 1.400 . S
C977 C982 1.490 . S
C978 H968 0.930 . S
C978 C977 1.400 . S
C978 C981 1.386 . S
H979 C995 0.930 . S
H980 C996 0.931 . S
C981 H969 0.929 . S
C981 C975 1.390 . S
C981 C978 1.386 . S
C982 C977 1.490 . S
C982 C984 1.395 . S
C982 C985 1.403 . S
H983 C989 0.930 . S
C984 H970 0.930 . S
C984 C982 1.395 . S
C984 C987 1.403 . S
C985 C982 1.403 . S
C985 C986 1.524 . S
C985 C989 1.400 . S
C986 H971 0.960 . S
C986 H972 0.960 . S
C986 H973 0.960 . S
C986 C985 1.524 . S
C987 C984 1.403 . S
C987 C988 1.392 . S
C987 C991 1.495 . S
C988 C987 1.392 . S
C988 C989 1.385 . S
C988 C990 1.478 . S
C989 H983 0.930 . S
C989 C985 1.400 . S
C989 C988 1.385 . S
C990 C988 1.478 . S
C990 C992 1.381 . S
C990 C996 1.383 . S
C991 C987 1.495 . S
C991 H997 0.959 . S
C991 H998 0.961 . S
C991 H999 0.960 . S
C992 C990 1.381 . S
C992 C993 1.394 . S
C992 H1000 0.930 . S
C993 C992 1.394 . S
C993 C994 1.383 . S
C993 H1001 0.929 . S
C994 C993 1.383 . S
C994 C995 1.377 . S
C995 H979 0.930 . S
C995 C994 1.377 . S
C995 C996 1.379 . S
C996 H980 0.931 . S
C996 C990 1.383 . S
C996 C995 1.379 . S
H997 C991 0.959 . S
H998 C991 0.961 . S
H999 C991 0.960 . S
H1000 C992 0.930 . S
H1001 C993 0.929 . S
H1002 C1010 0.929 . S
H1003 C1012 0.930 . S
H1004 C1014 0.930 . S
H1005 C1017 0.929 . S
H1006 C1020 0.930 . S
H1007 C1022 0.960 . S
H1008 C1022 0.960 . S
H1009 C1022 0.960 . S
C1010 H1002 0.929 . S
C1010 C1011 1.377 . S
C1010 C1012 1.384 . S
C1011 C1010 1.377 . S
C1011 C1017 1.390 . S
C1012 H1003 0.930 . S
C1012 C1010 1.384 . S
C1012 C1013 1.372 . S
C1013 C1012 1.372 . S
C1013 C1014 1.400 . S
C1013 C1018 1.490 . S
C1014 H1004 0.930 . S
C1014 C1013 1.400 . S
C1014 C1017 1.386 . S
H1015 C1031 0.930 . S
H1016 C1032 0.931 . S
C1017 H1005 0.929 . S
C1017 C1011 1.390 . S
C1017 C1014 1.386 . S
C1018 C1013 1.490 . S
C1018 C1020 1.395 . S
C1018 C1021 1.403 . S
H1019 C1025 0.930 . S
C1020 H1006 0.930 . S
C1020 C1018 1.395 . S
C1020 C1023 1.403 . S
C1021 C1018 1.403 . S
C1021 C1022 1.524 . S
C1021 C1025 1.400 . S
C1022 H1007 0.960 . S
C1022 H1008 0.960 . S
C1022 H1009 0.960 . S
C1022 C1021 1.524 . S
C1023 C1020 1.403 . S
C1023 C1024 1.392 . S
C1023 C1027 1.495 . S
C1024 C1023 1.392 . S
C1024 C1025 1.385 . S
C1024 C1026 1.478 . S
C1025 H1019 0.930 . S
C1025 C1021 1.400 . S
C1025 C1024 1.385 . S
C1026 C1024 1.478 . S
C1026 C1028 1.381 . S
C1026 C1032 1.383 . S
C1027 C1023 1.495 . S
C1027 H1033 0.959 . S
C1027 H1034 0.961 . S
C1027 H1035 0.960 . S
C1028 C1026 1.381 . S
C1028 C1029 1.394 . S
C1028 H1036 0.930 . S
C1029 C1028 1.394 . S
C1029 C1030 1.383 . S
C1029 H1037 0.929 . S
C1030 C1029 1.383 . S
C1030 C1031 1.377 . S
C1031 H1015 0.930 . S
C1031 C1030 1.377 . S
C1031 C1032 1.379 . S
C1032 H1016 0.931 . S
C1032 C1026 1.383 . S
C1032 C1031 1.379 . S
H1033 C1027 0.959 . S
H1034 C1027 0.961 . S
H1035 C1027 0.960 . S
H1036 C1028 0.930 . S
H1037 C1029 0.929 . S
H1038 C1046 0.929 . S
H1039 C1048 0.930 . S
H1040 C1050 0.930 . S
H1041 C1053 0.929 . S
H1042 C1056 0.930 . S
H1043 C1058 0.960 . S
H1044 C1058 0.960 . S
H1045 C1058 0.960 . S
C1046 H1038 0.929 . S
C1046 C1047 1.377 . S
C1046 C1048 1.384 . S
C1047 C1046 1.377 . S
C1047 C1053 1.390 . S
C1048 H1039 0.930 . S
C1048 C1046 1.384 . S
C1048 C1049 1.372 . S
C1049 C1048 1.372 . S
C1049 C1050 1.400 . S
C1049 C1054 1.490 . S
C1050 H1040 0.930 . S
C1050 C1049 1.400 . S
C1050 C1053 1.386 . S
H1051 C1067 0.930 . S
H1052 C1068 0.931 . S
C1053 H1041 0.929 . S
C1053 C1047 1.390 . S
C1053 C1050 1.386 . S
C1054 C1049 1.490 . S
C1054 C1056 1.395 . S
C1054 C1057 1.403 . S
H1055 C1061 0.930 . S
C1056 H1042 0.930 . S
C1056 C1054 1.395 . S
C1056 C1059 1.403 . S
C1057 C1054 1.403 . S
C1057 C1058 1.524 . S
C1057 C1061 1.400 . S
C1058 H1043 0.960 . S
C1058 H1044 0.960 . S
C1058 H1045 0.960 . S
C1058 C1057 1.524 . S
C1059 C1056 1.403 . S
C1059 C1060 1.392 . S
C1059 C1063 1.495 . S
C1060 C1059 1.392 . S
C1060 C1061 1.385 . S
C1060 C1062 1.478 . S
C1061 H1055 0.930 . S
C1061 C1057 1.400 . S
C1061 C1060 1.385 . S
C1062 C1060 1.478 . S
C1062 C1064 1.381 . S
C1062 C1068 1.383 . S
C1063 C1059 1.495 . S
C1063 H1069 0.959 . S
C1063 H1070 0.961 . S
C1063 H1071 0.960 . S
C1064 C1062 1.381 . S
C1064 C1065 1.394 . S
C1064 H1072 0.930 . S
C1065 C1064 1.394 . S
C1065 C1066 1.383 . S
C1065 H1073 0.929 . S
C1066 C1065 1.383 . S
C1066 C1067 1.377 . S
C1067 H1051 0.930 . S
C1067 C1066 1.377 . S
C1067 C1068 1.379 . S
C1068 H1052 0.931 . S
C1068 C1062 1.383 . S
C1068 C1067 1.379 . S
H1069 C1063 0.959 . S
H1070 C1063 0.961 . S
H1071 C1063 0.960 . S
H1072 C1064 0.930 . S
H1073 C1065 0.929 . S
H1074 C1082 0.929 . S
H1075 C1084 0.930 . S
H1076 C1086 0.930 . S
H1077 C1089 0.929 . S
H1078 C1092 0.930 . S
H1079 C1094 0.960 . S
H1080 C1094 0.960 . S
H1081 C1094 0.960 . S
C1082 H1074 0.929 . S
C1082 C1083 1.377 . S
C1082 C1084 1.384 . S
C1083 C1082 1.377 . S
C1083 C1089 1.390 . S
C1084 H1075 0.930 . S
C1084 C1082 1.384 . S
C1084 C1085 1.372 . S
C1085 C1084 1.372 . S
C1085 C1086 1.400 . S
C1085 C1090 1.490 . S
C1086 H1076 0.930 . S
C1086 C1085 1.400 . S
C1086 C1089 1.386 . S
H1087 C1103 0.930 . S
H1088 C1104 0.931 . S
C1089 H1077 0.929 . S
C1089 C1083 1.390 . S
C1089 C1086 1.386 . S
C1090 C1085 1.490 . S
C1090 C1092 1.395 . S
C1090 C1093 1.403 . S
H1091 C1097 0.930 . S
C1092 H1078 0.930 . S
C1092 C1090 1.395 . S
C1092 C1095 1.403 . S
C1093 C1090 1.403 . S
C1093 C1094 1.524 . S
C1093 C1097 1.400 . S
C1094 H1079 0.960 . S
C1094 H1080 0.960 . S
C1094 H1081 0.960 . S
C1094 C1093 1.524 . S
C1095 C1092 1.403 . S
C1095 C1096 1.392 . S
C1095 C1099 1.495 . S
C1096 C1095 1.392 . S
C1096 C1097 1.385 . S
C1096 C1098 1.478 . S
C1097 H1091 0.930 . S
C1097 C1093 1.400 . S
C1097 C1096 1.385 . S
C1098 C1096 1.478 . S
C1098 C1100 1.381 . S
C1098 C1104 1.383 . S
C1099 C1095 1.495 . S
C1099 H1105 0.959 . S
C1099 H1106 0.961 . S
C1099 H1107 0.960 . S
C1100 C1098 1.381 . S
C1100 C1101 1.394 . S
C1100 H1108 0.930 . S
C1101 C1100 1.394 . S
C1101 C1102 1.383 . S
C1101 H1109 0.929 . S
C1102 C1101 1.383 . S
C1102 C1103 1.377 . S
C1103 H1087 0.930 . S
C1103 C1102 1.377 . S
C1103 C1104 1.379 . S
C1104 H1088 0.931 . S
C1104 C1098 1.383 . S
C1104 C1103 1.379 . S
H1105 C1099 0.959 . S
H1106 C1099 0.961 . S
H1107 C1099 0.960 . S
H1108 C1100 0.930 . S
H1109 C1101 0.929 . S
H1110 C1118 0.929 . S
H1111 C1120 0.930 . S
H1112 C1122 0.930 . S
H1113 C1125 0.929 . S
H1114 C1128 0.930 . S
H1115 C1130 0.960 . S
H1116 C1130 0.960 . S
H1117 C1130 0.960 . S
C1118 H1110 0.929 . S
C1118 C1119 1.377 . S
C1118 C1120 1.384 . S
C1119 C1118 1.377 . S
C1119 C1125 1.390 . S
C1120 H1111 0.930 . S
C1120 C1118 1.384 . S
C1120 C1121 1.372 . S
C1121 C1120 1.372 . S
C1121 C1122 1.400 . S
C1121 C1126 1.490 . S
C1122 H1112 0.930 . S
C1122 C1121 1.400 . S
C1122 C1125 1.386 . S
H1123 C1139 0.930 . S
H1124 C1140 0.931 . S
C1125 H1113 0.929 . S
C1125 C1119 1.390 . S
C1125 C1122 1.386 . S
C1126 C1121 1.490 . S
C1126 C1128 1.395 . S
C1126 C1129 1.403 . S
H1127 C1133 0.930 . S
C1128 H1114 0.930 . S
C1128 C1126 1.395 . S
C1128 C1131 1.403 . S
C1129 C1126 1.403 . S
C1129 C1130 1.524 . S
C1129 C1133 1.400 . S
C1130 H1115 0.960 . S
C1130 H1116 0.960 . S
C1130 H1117 0.960 . S
C1130 C1129 1.524 . S
C1131 C1128 1.403 . S
C1131 C1132 1.392 . S
C1131 C1135 1.495 . S
C1132 C1131 1.392 . S
C1132 C1133 1.385 . S
C1132 C1134 1.478 . S
C1133 H1127 0.930 . S
C1133 C1129 1.400 . S
C1133 C1132 1.385 . S
C1134 C1132 1.478 . S
C1134 C1136 1.381 . S
C1134 C1140 1.383 . S
C1135 C1131 1.495 . S
C1135 H1141 0.959 . S
C1135 H1142 0.961 . S
C1135 H1143 0.960 . S
C1136 C1134 1.381 . S
C1136 C1137 1.394 . S
C1136 H1144 0.930 . S
C1137 C1136 1.394 . S
C1137 C1138 1.383 . S
C1137 H1145 0.929 . S
C1138 C1137 1.383 . S
C1138 C1139 1.377 . S
C1139 H1123 0.930 . S
C1139 C1138 1.377 . S
C1139 C1140 1.379 . S
C1140 H1124 0.931 . S
C1140 C1134 1.383 . S
C1140 C1139 1.379 . S
H1141 C1135 0.959 . S
H1142 C1135 0.961 . S
H1143 C1135 0.960 . S
H1144 C1136 0.930 . S
H1145 C1137 0.929 . S
H1146 C1154 0.929 . S
H1147 C1156 0.930 . S
H1148 C1158 0.930 . S
H1149 C1161 0.929 . S
H1150 C1164 0.930 . S
H1151 C1166 0.960 . S
H1152 C1166 0.960 . S
H1153 C1166 0.960 . S
C1154 H1146 0.929 . S
C1154 C1155 1.377 . S
C1154 C1156 1.384 . S
C1155 C1154 1.377 . S
C1155 C1161 1.390 . S
C1156 H1147 0.930 . S
C1156 C1154 1.384 . S
C1156 C1157 1.372 . S
C1157 C1156 1.372 . S
C1157 C1158 1.400 . S
C1157 C1162 1.490 . S
C1158 H1148 0.930 . S
C1158 C1157 1.400 . S
C1158 C1161 1.386 . S
H1159 C1175 0.930 . S
H1160 C1176 0.931 . S
C1161 H1149 0.929 . S
C1161 C1155 1.390 . S
C1161 C1158 1.386 . S
C1162 C1157 1.490 . S
C1162 C1164 1.395 . S
C1162 C1165 1.403 . S
H1163 C1169 0.930 . S
C1164 H1150 0.930 . S
C1164 C1162 1.395 . S
C1164 C1167 1.403 . S
C1165 C1162 1.403 . S
C1165 C1166 1.524 . S
C1165 C1169 1.400 . S
C1166 H1151 0.960 . S
C1166 H1152 0.960 . S
C1166 H1153 0.960 . S
C1166 C1165 1.524 . S
C1167 C1164 1.403 . S
C1167 C1168 1.392 . S
C1167 C1171 1.495 . S
C1168 C1167 1.392 . S
C1168 C1169 1.385 . S
C1168 C1170 1.478 . S
C1169 H1163 0.930 . S
C1169 C1165 1.400 . S
C1169 C1168 1.385 . S
C1170 C1168 1.478 . S
C1170 C1172 1.381 . S
C1170 C1176 1.383 . S
C1171 C1167 1.495 . S
C1171 H1177 0.959 . S
C1171 H1178 0.961 . S
C1171 H1179 0.960 . S
C1172 C1170 1.381 . S
C1172 C1173 1.394 . S
C1172 H1180 0.930 . S
C1173 C1172 1.394 . S
C1173 C1174 1.383 . S
C1173 H1181 0.929 . S
C1174 C1173 1.383 . S
C1174 C1175 1.377 . S
C1175 H1159 0.930 . S
C1175 C1174 1.377 . S
C1175 C1176 1.379 . S
C1176 H1160 0.931 . S
C1176 C1170 1.383 . S
C1176 C1175 1.379 . S
H1177 C1171 0.959 . S
H1178 C1171 0.961 . S
H1179 C1171 0.960 . S
H1180 C1172 0.930 . S
H1181 C1173 0.929 . S
H1182 C1190 0.929 . S
H1183 C1192 0.930 . S
H1184 C1194 0.930 . S
H1185 C1197 0.929 . S
H1186 C1200 0.930 . S
H1187 C1202 0.960 . S
H1188 C1202 0.960 . S
H1189 C1202 0.960 . S
C1190 H1182 0.929 . S
C1190 C1191 1.377 . S
C1190 C1192 1.384 . S
C1191 C1190 1.377 . S
C1191 C1197 1.390 . S
C1192 H1183 0.930 . S
C1192 C1190 1.384 . S
C1192 C1193 1.372 . S
C1193 C1192 1.372 . S
C1193 C1194 1.400 . S
C1193 C1198 1.490 . S
C1194 H1184 0.930 . S
C1194 C1193 1.400 . S
C1194 C1197 1.386 . S
H1195 C1211 0.930 . S
H1196 C1212 0.931 . S
C1197 H1185 0.929 . S
C1197 C1191 1.390 . S
C1197 C1194 1.386 . S
C1198 C1193 1.490 . S
C1198 C1200 1.395 . S
C1198 C1201 1.403 . S
H1199 C1205 0.930 . S
C1200 H1186 0.930 . S
C1200 C1198 1.395 . S
C1200 C1203 1.403 . S
C1201 C1198 1.403 . S
C1201 C1202 1.524 . S
C1201 C1205 1.400 . S
C1202 H1187 0.960 . S
C1202 H1188 0.960 . S
C1202 H1189 0.960 . S
C1202 C1201 1.524 . S
C1203 C1200 1.403 . S
C1203 C1204 1.392 . S
C1203 C1207 1.495 . S
C1204 C1203 1.392 . S
C1204 C1205 1.385 . S
C1204 C1206 1.478 . S
C1205 H1199 0.930 . S
C1205 C1201 1.400 . S
C1205 C1204 1.385 . S
C1206 C1204 1.478 . S
C1206 C1208 1.381 . S
C1206 C1212 1.383 . S
C1207 C1203 1.495 . S
C1207 H1213 0.959 . S
C1207 H1214 0.961 . S
C1207 H1215 0.960 . S
C1208 C1206 1.381 . S
C1208 C1209 1.394 . S
C1208 H1216 0.930 . S
C1209 C1208 1.394 . S
C1209 C1210 1.383 . S
C1209 H1217 0.929 . S
C1210 C1209 1.383 . S
C1210 C1211 1.377 . S
C1211 H1195 0.930 . S
C1211 C1210 1.377 . S
C1211 C1212 1.379 . S
C1212 H1196 0.931 . S
C1212 C1206 1.383 . S
C1212 C1211 1.379 . S
H1213 C1207 0.959 . S
H1214 C1207 0.961 . S
H1215 C1207 0.960 . S
H1216 C1208 0.930 . S
H1217 C1209 0.929 . S
H1218 C1226 0.929 . S
H1219 C1228 0.930 . S
H1220 C1230 0.930 . S
H1221 C1233 0.929 . S
H1222 C1236 0.930 . S
H1223 C1238 0.960 . S
H1224 C1238 0.960 . S
H1225 C1238 0.960 . S
C1226 H1218 0.929 . S
C1226 C1227 1.377 . S
C1226 C1228 1.384 . S
C1227 C1226 1.377 . S
C1227 C1233 1.390 . S
C1228 H1219 0.930 . S
C1228 C1226 1.384 . S
C1228 C1229 1.372 . S
C1229 C1228 1.372 . S
C1229 C1230 1.400 . S
C1229 C1234 1.490 . S
C1230 H1220 0.930 . S
C1230 C1229 1.400 . S
C1230 C1233 1.386 . S
H1231 C1247 0.930 . S
H1232 C1248 0.931 . S
C1233 H1221 0.929 . S
C1233 C1227 1.390 . S
C1233 C1230 1.386 . S
C1234 C1229 1.490 . S
C1234 C1236 1.395 . S
C1234 C1237 1.403 . S
H1235 C1241 0.930 . S
C1236 H1222 0.930 . S
C1236 C1234 1.395 . S
C1236 C1239 1.403 . S
C1237 C1234 1.403 . S
C1237 C1238 1.524 . S
C1237 C1241 1.400 . S
C1238 H1223 0.960 . S
C1238 H1224 0.960 . S
C1238 H1225 0.960 . S
C1238 C1237 1.524 . S
C1239 C1236 1.403 . S
C1239 C1240 1.392 . S
C1239 C1243 1.495 . S
C1240 C1239 1.392 . S
C1240 C1241 1.385 . S
C1240 C1242 1.478 . S
C1241 H1235 0.930 . S
C1241 C1237 1.400 . S
C1241 C1240 1.385 . S
C1242 C1240 1.478 . S
C1242 C1244 1.381 . S
C1242 C1248 1.383 . S
C1243 C1239 1.495 . S
C1243 H1249 0.959 . S
C1243 H1250 0.961 . S
C1243 H1251 0.960 . S
C1244 C1242 1.381 . S
C1244 C1245 1.394 . S
C1244 H1252 0.930 . S
C1245 C1244 1.394 . S
C1245 C1246 1.383 . S
C1245 H1253 0.929 . S
C1246 C1245 1.383 . S
C1246 C1247 1.377 . S
C1247 H1231 0.930 . S
C1247 C1246 1.377 . S
C1247 C1248 1.379 . S
C1248 H1232 0.931 . S
C1248 C1242 1.383 . S
C1248 C1247 1.379 . S
H1249 C1243 0.959 . S
H1250 C1243 0.961 . S
H1251 C1243 0.960 . S
H1252 C1244 0.930 . S
H1253 C1245 0.929 . S
H1254 C1262 0.929 . S
H1255 C1264 0.930 . S
H1256 C1266 0.930 . S
H1257 C1269 0.929 . S
H1258 C1272 0.930 . S
H1259 C1274 0.960 . S
H1260 C1274 0.960 . S
H1261 C1274 0.960 . S
C1262 H1254 0.929 . S
C1262 C1263 1.377 . S
C1262 C1264 1.384 . S
C1263 C1262 1.377 . S
C1263 C1269 1.390 . S
C1264 H1255 0.930 . S
C1264 C1262 1.384 . S
C1264 C1265 1.372 . S
C1265 C1264 1.372 . S
C1265 C1266 1.400 . S
C1265 C1270 1.490 . S
C1266 H1256 0.930 . S
C1266 C1265 1.400 . S
C1266 C1269 1.386 . S
H1267 C1283 0.930 . S
H1268 C1284 0.931 . S
C1269 H1257 0.929 . S
C1269 C1263 1.390 . S
C1269 C1266 1.386 . S
C1270 C1265 1.490 . S
C1270 C1272 1.395 . S
C1270 C1273 1.403 . S
H1271 C1277 0.930 . S
C1272 H1258 0.930 . S
C1272 C1270 1.395 . S
C1272 C1275 1.403 . S
C1273 C1270 1.403 . S
C1273 C1274 1.524 . S
C1273 C1277 1.400 . S
C1274 H1259 0.960 . S
C1274 H1260 0.960 . S
C1274 H1261 0.960 . S
C1274 C1273 1.524 . S
C1275 C1272 1.403 . S
C1275 C1276 1.392 . S
C1275 C1279 1.495 . S
C1276 C1275 1.392 . S
C1276 C1277 1.385 . S
C1276 C1278 1.478 . S
C1277 H1271 0.930 . S
C1277 C1273 1.400 . S
C1277 C1276 1.385 . S
C1278 C1276 1.478 . S
C1278 C1280 1.381 . S
C1278 C1284 1.383 . S
C1279 C1275 1.495 . S
C1279 H1285 0.959 . S
C1279 H1286 0.961 . S
C1279 H1287 0.960 . S
C1280 C1278 1.381 . S
C1280 C1281 1.394 . S
C1280 H1288 0.930 . S
C1281 C1280 1.394 . S
C1281 C1282 1.383 . S
C1281 H1289 0.929 . S
C1282 C1281 1.383 . S
C1282 C1283 1.377 . S
C1283 H1267 0.930 . S
C1283 C1282 1.377 . S
C1283 C1284 1.379 . S
C1284 H1268 0.931 . S
C1284 C1278 1.383 . S
C1284 C1283 1.379 . S
H1285 C1279 0.959 . S
H1286 C1279 0.961 . S
H1287 C1279 0.960 . S
H1288 C1280 0.930 . S
H1289 C1281 0.929 . S
H1290 C1298 0.929 . S
H1291 C1300 0.930 . S
H1292 C1302 0.930 . S
H1293 C1305 0.929 . S
H1294 C1308 0.930 . S
H1295 C1310 0.960 . S
H1296 C1310 0.960 . S
H1297 C1310 0.960 . S
C1298 H1290 0.929 . S
C1298 C1299 1.377 . S
C1298 C1300 1.384 . S
C1299 C1298 1.377 . S
C1299 C1305 1.390 . S
C1300 H1291 0.930 . S
C1300 C1298 1.384 . S
C1300 C1301 1.372 . S
C1301 C1300 1.372 . S
C1301 C1302 1.400 . S
C1301 C1306 1.490 . S
C1302 H1292 0.930 . S
C1302 C1301 1.400 . S
C1302 C1305 1.386 . S
H1303 C1319 0.930 . S
H1304 C1320 0.931 . S
C1305 H1293 0.929 . S
C1305 C1299 1.390 . S
C1305 C1302 1.386 . S
C1306 C1301 1.490 . S
C1306 C1308 1.395 . S
C1306 C1309 1.403 . S
H1307 C1313 0.930 . S
C1308 H1294 0.930 . S
C1308 C1306 1.395 . S
C1308 C1311 1.403 . S
C1309 C1306 1.403 . S
C1309 C1310 1.524 . S
C1309 C1313 1.400 . S
C1310 H1295 0.960 . S
C1310 H1296 0.960 . S
C1310 H1297 0.960 . S
C1310 C1309 1.524 . S
C1311 C1308 1.403 . S
C1311 C1312 1.392 . S
C1311 C1315 1.495 . S
C1312 C1311 1.392 . S
C1312 C1313 1.385 . S
C1312 C1314 1.478 . S
C1313 H1307 0.930 . S
C1313 C1309 1.400 . S
C1313 C1312 1.385 . S
C1314 C1312 1.478 . S
C1314 C1316 1.381 . S
C1314 C1320 1.383 . S
C1315 C1311 1.495 . S
C1315 H1321 0.959 . S
C1315 H1322 0.961 . S
C1315 H1323 0.960 . S
C1316 C1314 1.381 . S
C1316 C1317 1.394 . S
C1316 H1324 0.930 . S
C1317 C1316 1.394 . S
C1317 C1318 1.383 . S
C1317 H1325 0.929 . S
C1318 C1317 1.383 . S
C1318 C1319 1.377 . S
C1319 H1303 0.930 . S
C1319 C1318 1.377 . S
C1319 C1320 1.379 . S
C1320 H1304 0.931 . S
C1320 C1314 1.383 . S
C1320 C1319 1.379 . S
H1321 C1315 0.959 . S
H1322 C1315 0.961 . S
H1323 C1315 0.960 . S
H1324 C1316 0.930 . S
H1325 C1317 0.929 . S
H1326 C1334 0.929 . S
H1327 C1336 0.930 . S
H1328 C1338 0.930 . S
H1329 C1341 0.929 . S
H1330 C1344 0.930 . S
H1331 C1346 0.960 . S
H1332 C1346 0.960 . S
H1333 C1346 0.960 . S
C1334 H1326 0.929 . S
C1334 C1335 1.377 . S
C1334 C1336 1.384 . S
C1335 C1334 1.377 . S
C1335 C1341 1.390 . S
C1336 H1327 0.930 . S
C1336 C1334 1.384 . S
C1336 C1337 1.372 . S
C1337 C1336 1.372 . S
C1337 C1338 1.400 . S
C1337 C1342 1.490 . S
C1338 H1328 0.930 . S
C1338 C1337 1.400 . S
C1338 C1341 1.386 . S
H1339 C1355 0.930 . S
H1340 C1356 0.931 . S
C1341 H1329 0.929 . S
C1341 C1335 1.390 . S
C1341 C1338 1.386 . S
C1342 C1337 1.490 . S
C1342 C1344 1.395 . S
C1342 C1345 1.403 . S
H1343 C1349 0.930 . S
C1344 H1330 0.930 . S
C1344 C1342 1.395 . S
C1344 C1347 1.403 . S
C1345 C1342 1.403 . S
C1345 C1346 1.524 . S
C1345 C1349 1.400 . S
C1346 H1331 0.960 . S
C1346 H1332 0.960 . S
C1346 H1333 0.960 . S
C1346 C1345 1.524 . S
C1347 C1344 1.403 . S
C1347 C1348 1.392 . S
C1347 C1351 1.495 . S
C1348 C1347 1.392 . S
C1348 C1349 1.385 . S
C1348 C1350 1.478 . S
C1349 H1343 0.930 . S
C1349 C1345 1.400 . S
C1349 C1348 1.385 . S
C1350 C1348 1.478 . S
C1350 C1352 1.381 . S
C1350 C1356 1.383 . S
C1351 C1347 1.495 . S
C1351 H1357 0.959 . S
C1351 H1358 0.961 . S
C1351 H1359 0.960 . S
C1352 C1350 1.381 . S
C1352 C1353 1.394 . S
C1352 H1360 0.930 . S
C1353 C1352 1.394 . S
C1353 C1354 1.383 . S
C1353 H1361 0.929 . S
C1354 C1353 1.383 . S
C1354 C1355 1.377 . S
C1355 H1339 0.930 . S
C1355 C1354 1.377 . S
C1355 C1356 1.379 . S
C1356 H1340 0.931 . S
C1356 C1350 1.383 . S
C1356 C1355 1.379 . S
H1357 C1351 0.959 . S
H1358 C1351 0.961 . S
H1359 C1351 0.960 . S
H1360 C1352 0.930 . S
H1361 C1353 0.929 . S
H1362 C1370 0.929 . S
H1363 C1372 0.930 . S
H1364 C1374 0.930 . S
H1365 C1377 0.929 . S
H1366 C1380 0.930 . S
H1367 C1382 0.960 . S
H1368 C1382 0.960 . S
H1369 C1382 0.960 . S
C1370 H1362 0.929 . S
C1370 C1371 1.377 . S
C1370 C1372 1.384 . S
C1371 C1370 1.377 . S
C1371 C1377 1.390 . S
C1372 H1363 0.930 . S
C1372 C1370 1.384 . S
C1372 C1373 1.372 . S
C1373 C1372 1.372 . S
C1373 C1374 1.400 . S
C1373 C1378 1.490 . S
C1374 H1364 0.930 . S
C1374 C1373 1.400 . S
C1374 C1377 1.386 . S
H1375 C1391 0.930 . S
H1376 C1392 0.931 . S
C1377 H1365 0.929 . S
C1377 C1371 1.390 . S
C1377 C1374 1.386 . S
C1378 C1373 1.490 . S
C1378 C1380 1.395 . S
C1378 C1381 1.403 . S
H1379 C1385 0.930 . S
C1380 H1366 0.930 . S
C1380 C1378 1.395 . S
C1380 C1383 1.403 . S
C1381 C1378 1.403 . S
C1381 C1382 1.524 . S
C1381 C1385 1.400 . S
C1382 H1367 0.960 . S
C1382 H1368 0.960 . S
C1382 H1369 0.960 . S
C1382 C1381 1.524 . S
C1383 C1380 1.403 . S
C1383 C1384 1.392 . S
C1383 C1387 1.495 . S
C1384 C1383 1.392 . S
C1384 C1385 1.385 . S
C1384 C1386 1.478 . S
C1385 H1379 0.930 . S
C1385 C1381 1.400 . S
C1385 C1384 1.385 . S
C1386 C1384 1.478 . S
C1386 C1388 1.381 . S
C1386 C1392 1.383 . S
C1387 C1383 1.495 . S
C1387 H1393 0.959 . S
C1387 H1394 0.961 . S
C1387 H1395 0.960 . S
C1388 C1386 1.381 . S
C1388 C1389 1.394 . S
C1388 H1396 0.930 . S
C1389 C1388 1.394 . S
C1389 C1390 1.383 . S
C1389 H1397 0.929 . S
C1390 C1389 1.383 . S
C1390 C1391 1.377 . S
C1391 H1375 0.930 . S
C1391 C1390 1.377 . S
C1391 C1392 1.379 . S
C1392 H1376 0.931 . S
C1392 C1386 1.383 . S
C1392 C1391 1.379 . S
H1393 C1387 0.959 . S
H1394 C1387 0.961 . S
H1395 C1387 0.960 . S
H1396 C1388 0.930 . S
H1397 C1389 0.929 . S
H1398 C1406 0.929 . S
H1399 C1408 0.930 . S
H1400 C1410 0.930 . S
H1401 C1413 0.929 . S
H1402 C1416 0.930 . S
H1403 C1418 0.960 . S
H1404 C1418 0.960 . S
H1405 C1418 0.960 . S
C1406 H1398 0.929 . S
C1406 C1407 1.377 . S
C1406 C1408 1.384 . S
C1407 C1406 1.377 . S
C1407 C1413 1.390 . S
C1408 H1399 0.930 . S
C1408 C1406 1.384 . S
C1408 C1409 1.372 . S
C1409 C1408 1.372 . S
C1409 C1410 1.400 . S
C1409 C1414 1.490 . S
C1410 H1400 0.930 . S
C1410 C1409 1.400 . S
C1410 C1413 1.386 . S
H1411 C1427 0.930 . S
H1412 C1428 0.931 . S
C1413 H1401 0.929 . S
C1413 C1407 1.390 . S
C1413 C1410 1.386 . S
C1414 C1409 1.490 . S
C1414 C1416 1.395 . S
C1414 C1417 1.403 . S
H1415 C1421 0.930 . S
C1416 H1402 0.930 . S
C1416 C1414 1.395 . S
C1416 C1419 1.403 . S
C1417 C1414 1.403 . S
C1417 C1418 1.524 . S
C1417 C1421 1.400 . S
C1418 H1403 0.960 . S
C1418 H1404 0.960 . S
C1418 H1405 0.960 . S
C1418 C1417 1.524 . S
C1419 C1416 1.403 . S
C1419 C1420 1.392 . S
C1419 C1423 1.495 . S
C1420 C1419 1.392 . S
C1420 C1421 1.385 . S
C1420 C1422 1.478 . S
C1421 H1415 0.930 . S
C1421 C1417 1.400 . S
C1421 C1420 1.385 . S
C1422 C1420 1.478 . S
C1422 C1424 1.381 . S
C1422 C1428 1.383 . S
C1423 C1419 1.495 . S
C1423 H1429 0.959 . S
C1423 H1430 0.961 . S
C1423 H1431 0.960 . S
C1424 C1422 1.381 . S
C1424 C1425 1.394 . S
C1424 H1432 0.930 . S
C1425 C1424 1.394 . S
C1425 C1426 1.383 . S
C1425 H1433 0.929 . S
C1426 C1425 1.383 . S
C1426 C1427 1.377 . S
C1427 H1411 0.930 . S
C1427 C1426 1.377 . S
C1427 C1428 1.379 . S
C1428 H1412 0.931 . S
C1428 C1422 1.383 . S
C1428 C1427 1.379 . S
H1429 C1423 0.959 . S
H1430 C1423 0.961 . S
H1431 C1423 0.960 . S
H1432 C1424 0.930 . S
H1433 C1425 0.929 . S
H1434 C1442 0.929 . S
H1435 C1444 0.930 . S
H1436 C1446 0.930 . S
H1437 C1449 0.929 . S
H1438 C1452 0.930 . S
H1439 C1454 0.960 . S
H1440 C1454 0.960 . S
H1441 C1454 0.960 . S
C1442 H1434 0.929 . S
C1442 C1443 1.377 . S
C1442 C1444 1.384 . S
C1443 C1442 1.377 . S
C1443 C1449 1.390 . S
C1444 H1435 0.930 . S
C1444 C1442 1.384 . S
C1444 C1445 1.372 . S
C1445 C1444 1.372 . S
C1445 C1446 1.400 . S
C1445 C1450 1.490 . S
C1446 H1436 0.930 . S
C1446 C1445 1.400 . S
C1446 C1449 1.386 . S
H1447 C1463 0.930 . S
H1448 C1464 0.931 . S
C1449 H1437 0.929 . S
C1449 C1443 1.390 . S
C1449 C1446 1.386 . S
C1450 C1445 1.490 . S
C1450 C1452 1.395 . S
C1450 C1453 1.403 . S
H1451 C1457 0.930 . S
C1452 H1438 0.930 . S
C1452 C1450 1.395 . S
C1452 C1455 1.403 . S
C1453 C1450 1.403 . S
C1453 C1454 1.524 . S
C1453 C1457 1.400 . S
C1454 H1439 0.960 . S
C1454 H1440 0.960 . S
C1454 H1441 0.960 . S
C1454 C1453 1.524 . S
C1455 C1452 1.403 . S
C1455 C1456 1.392 . S
C1455 C1459 1.495 . S
C1456 C1455 1.392 . S
C1456 C1457 1.385 . S
C1456 C1458 1.478 . S
C1457 H1451 0.930 . S
C1457 C1453 1.400 . S
C1457 C1456 1.385 . S
C1458 C1456 1.478 . S
C1458 C1460 1.381 . S
C1458 C1464 1.383 . S
C1459 C1455 1.495 . S
C1459 H1465 0.959 . S
C1459 H1466 0.961 . S
C1459 H1467 0.960 . S
C1460 C1458 1.381 . S
C1460 C1461 1.394 . S
C1460 H1468 0.930 . S
C1461 C1460 1.394 . S
C1461 C1462 1.383 . S
C1461 H1469 0.929 . S
C1462 C1461 1.383 . S
C1462 C1463 1.377 . S
C1463 H1447 0.930 . S
C1463 C1462 1.377 . S
C1463 C1464 1.379 . S
C1464 H1448 0.931 . S
C1464 C1458 1.383 . S
C1464 C1463 1.379 . S
H1465 C1459 0.959 . S
H1466 C1459 0.961 . S
H1467 C1459 0.960 . S
H1468 C1460 0.930 . S
H1469 C1461 0.929 . S
H1470 C1478 0.929 . S
H1471 C1480 0.930 . S
H1472 C1482 0.930 . S
H1473 C1485 0.929 . S
H1474 C1488 0.930 . S
H1475 C1490 0.960 . S
H1476 C1490 0.960 . S
H1477 C1490 0.960 . S
C1478 H1470 0.929 . S
C1478 C1479 1.377 . S
C1478 C1480 1.384 . S
C1479 C1478 1.377 . S
C1479 C1485 1.390 . S
C1480 H1471 0.930 . S
C1480 C1478 1.384 . S
C1480 C1481 1.372 . S
C1481 C1480 1.372 . S
C1481 C1482 1.400 . S
C1481 C1486 1.490 . S
C1482 H1472 0.930 . S
C1482 C1481 1.400 . S
C1482 C1485 1.386 . S
H1483 C1499 0.930 . S
H1484 C1500 0.931 . S
C1485 H1473 0.929 . S
C1485 C1479 1.390 . S
C1485 C1482 1.386 . S
C1486 C1481 1.490 . S
C1486 C1488 1.395 . S
C1486 C1489 1.403 . S
H1487 C1493 0.930 . S
C1488 H1474 0.930 . S
C1488 C1486 1.395 . S
C1488 C1491 1.403 . S
C1489 C1486 1.403 . S
C1489 C1490 1.524 . S
C1489 C1493 1.400 . S
C1490 H1475 0.960 . S
C1490 H1476 0.960 . S
C1490 H1477 0.960 . S
C1490 C1489 1.524 . S
C1491 C1488 1.403 . S
C1491 C1492 1.392 . S
C1491 C1495 1.495 . S
C1492 C1491 1.392 . S
C1492 C1493 1.385 . S
C1492 C1494 1.478 . S
C1493 H1487 0.930 . S
C1493 C1489 1.400 . S
C1493 C1492 1.385 . S
C1494 C1492 1.478 . S
C1494 C1496 1.381 . S
C1494 C1500 1.383 . S
C1495 C1491 1.495 . S
C1495 H1501 0.959 . S
C1495 H1502 0.961 . S
C1495 H1503 0.960 . S
C1496 C1494 1.381 . S
C1496 C1497 1.394 . S
C1496 H1504 0.930 . S
C1497 C1496 1.394 . S
C1497 C1498 1.383 . S
C1497 H1505 0.929 . S
C1498 C1497 1.383 . S
C1498 C1499 1.377 . S
C1499 H1483 0.930 . S
C1499 C1498 1.377 . S
C1499 C1500 1.379 . S
C1500 H1484 0.931 . S
C1500 C1494 1.383 . S
C1500 C1499 1.379 . S
H1501 C1495 0.959 . S
H1502 C1495 0.961 . S
H1503 C1495 0.960 . S
H1504 C1496 0.930 . S
H1505 C1497 0.929 . S
H1506 C1514 0.929 . S
H1507 C1516 0.930 . S
H1508 C1518 0.930 . S
H1509 C1521 0.929 . S
H1510 C1524 0.930 . S
H1511 C1526 0.960 . S
H1512 C1526 0.960 . S
H1513 C1526 0.960 . S
C1514 H1506 0.929 . S
C1514 C1515 1.377 . S
C1514 C1516 1.384 . S
C1515 C1514 1.377 . S
C1515 C1521 1.390 . S
C1516 H1507 0.930 . S
C1516 C1514 1.384 . S
C1516 C1517 1.372 . S
C1517 C1516 1.372 . S
C1517 C1518 1.400 . S
C1517 C1522 1.490 . S
C1518 H1508 0.930 . S
C1518 C1517 1.400 . S
C1518 C1521 1.386 . S
H1519 C1535 0.930 . S
H1520 C1536 0.931 . S
C1521 H1509 0.929 . S
C1521 C1515 1.390 . S
C1521 C1518 1.386 . S
C1522 C1517 1.490 . S
C1522 C1524 1.395 . S
C1522 C1525 1.403 . S
H1523 C1529 0.930 . S
C1524 H1510 0.930 . S
C1524 C1522 1.395 . S
C1524 C1527 1.403 . S
C1525 C1522 1.403 . S
C1525 C1526 1.524 . S
C1525 C1529 1.400 . S
C1526 H1511 0.960 . S
C1526 H1512 0.960 . S
C1526 H1513 0.960 . S
C1526 C1525 1.524 . S
C1527 C1524 1.403 . S
C1527 C1528 1.392 . S
C1527 C1531 1.495 . S
C1528 C1527 1.392 . S
C1528 C1529 1.385 . S
C1528 C1530 1.478 . S
C1529 H1523 0.930 . S
C1529 C1525 1.400 . S
C1529 C1528 1.385 . S
C1530 C1528 1.478 . S
C1530 C1532 1.381 . S
C1530 C1536 1.383 . S
C1531 C1527 1.495 . S
C1531 H1537 0.959 . S
C1531 H1538 0.961 . S
C1531 H1539 0.960 . S
C1532 C1530 1.381 . S
C1532 C1533 1.394 . S
C1532 H1540 0.930 . S
C1533 C1532 1.394 . S
C1533 C1534 1.383 . S
C1533 H1541 0.929 . S
C1534 C1533 1.383 . S
C1534 C1535 1.377 . S
C1535 H1519 0.930 . S
C1535 C1534 1.377 . S
C1535 C1536 1.379 . S
C1536 H1520 0.931 . S
C1536 C1530 1.383 . S
C1536 C1535 1.379 . S
H1537 C1531 0.959 . S
H1538 C1531 0.961 . S
H1539 C1531 0.960 . S
H1540 C1532 0.930 . S
H1541 C1533 0.929 . S
H1542 C1550 0.929 . S
H1543 C1552 0.930 . S
H1544 C1554 0.930 . S
H1545 C1557 0.929 . S
H1546 C1560 0.930 . S
H1547 C1562 0.960 . S
H1548 C1562 0.960 . S
H1549 C1562 0.960 . S
C1550 H1542 0.929 . S
C1550 C1551 1.377 . S
C1550 C1552 1.384 . S
C1551 C1550 1.377 . S
C1551 C1557 1.390 . S
C1552 H1543 0.930 . S
C1552 C1550 1.384 . S
C1552 C1553 1.372 . S
C1553 C1552 1.372 . S
C1553 C1554 1.400 . S
C1553 C1558 1.490 . S
C1554 H1544 0.930 . S
C1554 C1553 1.400 . S
C1554 C1557 1.386 . S
H1555 C1571 0.930 . S
H1556 C1572 0.931 . S
C1557 H1545 0.929 . S
C1557 C1551 1.390 . S
C1557 C1554 1.386 . S
C1558 C1553 1.490 . S
C1558 C1560 1.395 . S
C1558 C1561 1.403 . S
H1559 C1565 0.930 . S
C1560 H1546 0.930 . S
C1560 C1558 1.395 . S
C1560 C1563 1.403 . S
C1561 C1558 1.403 . S
C1561 C1562 1.524 . S
C1561 C1565 1.400 . S
C1562 H1547 0.960 . S
C1562 H1548 0.960 . S
C1562 H1549 0.960 . S
C1562 C1561 1.524 . S
C1563 C1560 1.403 . S
C1563 C1564 1.392 . S
C1563 C1567 1.495 . S
C1564 C1563 1.392 . S
C1564 C1565 1.385 . S
C1564 C1566 1.478 . S
C1565 H1559 0.930 . S
C1565 C1561 1.400 . S
C1565 C1564 1.385 . S
C1566 C1564 1.478 . S
C1566 C1568 1.381 . S
C1566 C1572 1.383 . S
C1567 C1563 1.495 . S
C1567 H1573 0.959 . S
C1567 H1574 0.961 . S
C1567 H1575 0.960 . S
C1568 C1566 1.381 . S
C1568 C1569 1.394 . S
C1568 H1576 0.930 . S
C1569 C1568 1.394 . S
C1569 C1570 1.383 . S
C1569 H1577 0.929 . S
C1570 C1569 1.383 . S
C1570 C1571 1.377 . S
C1571 H1555 0.930 . S
C1571 C1570 1.377 . S
C1571 C1572 1.379 . S
C1572 H1556 0.931 . S
C1572 C1566 1.383 . S
C1572 C1571 1.379 . S
H1573 C1567 0.959 . S
H1574 C1567 0.961 . S
H1575 C1567 0.960 . S
H1576 C1568 0.930 . S
H1577 C1569 0.929 . S
H1578 C1586 0.929 . S
H1579 C1588 0.930 . S
H1580 C1590 0.930 . S
H1581 C1593 0.929 . S
H1582 C1596 0.930 . S
H1583 C1598 0.960 . S
H1584 C1598 0.960 . S
H1585 C1598 0.960 . S
C1586 H1578 0.929 . S
C1586 C1587 1.377 . S
C1586 C1588 1.384 . S
C1587 C1586 1.377 . S
C1587 C1593 1.390 . S
C1588 H1579 0.930 . S
C1588 C1586 1.384 . S
C1588 C1589 1.372 . S
C1589 C1588 1.372 . S
C1589 C1590 1.400 . S
C1589 C1594 1.490 . S
C1590 H1580 0.930 . S
C1590 C1589 1.400 . S
C1590 C1593 1.386 . S
H1591 C1607 0.930 . S
H1592 C1608 0.931 . S
C1593 H1581 0.929 . S
C1593 C1587 1.390 . S
C1593 C1590 1.386 . S
C1594 C1589 1.490 . S
C1594 C1596 1.395 . S
C1594 C1597 1.403 . S
H1595 C1601 0.930 . S
C1596 H1582 0.930 . S
C1596 C1594 1.395 . S
C1596 C1599 1.403 . S
C1597 C1594 1.403 . S
C1597 C1598 1.524 . S
C1597 C1601 1.400 . S
C1598 H1583 0.960 . S
C1598 H1584 0.960 . S
C1598 H1585 0.960 . S
C1598 C1597 1.524 . S
C1599 C1596 1.403 . S
C1599 C1600 1.392 . S
C1599 C1603 1.495 . S
C1600 C1599 1.392 . S
C1600 C1601 1.385 . S
C1600 C1602 1.478 . S
C1601 H1595 0.930 . S
C1601 C1597 1.400 . S
C1601 C1600 1.385 . S
C1602 C1600 1.478 . S
C1602 C1604 1.381 . S
C1602 C1608 1.383 . S
C1603 C1599 1.495 . S
C1603 H1609 0.959 . S
C1603 H1610 0.961 . S
C1603 H1611 0.960 . S
C1604 C1602 1.381 . S
C1604 C1605 1.394 . S
C1604 H1612 0.930 . S
C1605 C1604 1.394 . S
C1605 C1606 1.383 . S
C1605 H1613 0.929 . S
C1606 C1605 1.383 . S
C1606 C1607 1.377 . S
C1607 H1591 0.930 . S
C1607 C1606 1.377 . S
C1607 C1608 1.379 . S
C1608 H1592 0.931 . S
C1608 C1602 1.383 . S
C1608 C1607 1.379 . S
H1609 C1603 0.959 . S
H1610 C1603 0.961 . S
H1611 C1603 0.960 . S
H1612 C1604 0.930 . S
H1613 C1605 0.929 . S
H1614 C1622 0.929 . S
H1615 C1624 0.930 . S
H1616 C1626 0.930 . S
H1617 C1629 0.929 . S
H1618 C1632 0.930 . S
H1619 C1634 0.960 . S
H1620 C1634 0.960 . S
H1621 C1634 0.960 . S
C1622 H1614 0.929 . S
C1622 C1623 1.377 . S
C1622 C1624 1.384 . S
C1623 C1622 1.377 . S
C1623 C1629 1.390 . S
C1624 H1615 0.930 . S
C1624 C1622 1.384 . S
C1624 C1625 1.372 . S
C1625 C1624 1.372 . S
C1625 C1626 1.400 . S
C1625 C1630 1.490 . S
C1626 H1616 0.930 . S
C1626 C1625 1.400 . S
C1626 C1629 1.386 . S
H1627 C1643 0.930 . S
H1628 C1644 0.931 . S
C1629 H1617 0.929 . S
C1629 C1623 1.390 . S
C1629 C1626 1.386 . S
C1630 C1625 1.490 . S
C1630 C1632 1.395 . S
C1630 C1633 1.403 . S
H1631 C1637 0.930 . S
C1632 H1618 0.930 . S
C1632 C1630 1.395 . S
C1632 C1635 1.403 . S
C1633 C1630 1.403 . S
C1633 C1634 1.524 . S
C1633 C1637 1.400 . S
C1634 H1619 0.960 . S
C1634 H1620 0.960 . S
C1634 H1621 0.960 . S
C1634 C1633 1.524 . S
C1635 C1632 1.403 . S
C1635 C1636 1.392 . S
C1635 C1639 1.495 . S
C1636 C1635 1.392 . S
C1636 C1637 1.385 . S
C1636 C1638 1.478 . S
C1637 H1631 0.930 . S
C1637 C1633 1.400 . S
C1637 C1636 1.385 . S
C1638 C1636 1.478 . S
C1638 C1640 1.381 . S
C1638 C1644 1.383 . S
C1639 C1635 1.495 . S
C1639 H1645 0.959 . S
C1639 H1646 0.961 . S
C1639 H1647 0.960 . S
C1640 C1638 1.381 . S
C1640 C1641 1.394 . S
C1640 H1648 0.930 . S
C1641 C1640 1.394 . S
C1641 C1642 1.383 . S
C1641 H1649 0.929 . S
C1642 C1641 1.383 . S
C1642 C1643 1.377 . S
C1643 H1627 0.930 . S
C1643 C1642 1.377 . S
C1643 C1644 1.379 . S
C1644 H1628 0.931 . S
C1644 C1638 1.383 . S
C1644 C1643 1.379 . S
H1645 C1639 0.959 . S
H1646 C1639 0.961 . S
H1647 C1639 0.960 . S
H1648 C1640 0.930 . S
H1649 C1641 0.929 . S
H1650 C1658 0.929 . S
H1651 C1660 0.930 . S
H1652 C1662 0.930 . S
H1653 C1665 0.929 . S
H1654 C1668 0.930 . S
H1655 C1670 0.960 . S
H1656 C1670 0.960 . S
H1657 C1670 0.960 . S
C1658 H1650 0.929 . S
C1658 C1659 1.377 . S
C1658 C1660 1.384 . S
C1659 C1658 1.377 . S
C1659 C1665 1.390 . S
C1660 H1651 0.930 . S
C1660 C1658 1.384 . S
C1660 C1661 1.372 . S
C1661 C1660 1.372 . S
C1661 C1662 1.400 . S
C1661 C1666 1.490 . S
C1662 H1652 0.930 . S
C1662 C1661 1.400 . S
C1662 C1665 1.386 . S
H1663 C1679 0.930 . S
H1664 C1680 0.931 . S
C1665 H1653 0.929 . S
C1665 C1659 1.390 . S
C1665 C1662 1.386 . S
C1666 C1661 1.490 . S
C1666 C1668 1.395 . S
C1666 C1669 1.403 . S
H1667 C1673 0.930 . S
C1668 H1654 0.930 . S
C1668 C1666 1.395 . S
C1668 C1671 1.403 . S
C1669 C1666 1.403 . S
C1669 C1670 1.524 . S
C1669 C1673 1.400 . S
C1670 H1655 0.960 . S
C1670 H1656 0.960 . S
C1670 H1657 0.960 . S
C1670 C1669 1.524 . S
C1671 C1668 1.403 . S
C1671 C1672 1.392 . S
C1671 C1675 1.495 . S
C1672 C1671 1.392 . S
C1672 C1673 1.385 . S
C1672 C1674 1.478 . S
C1673 H1667 0.930 . S
C1673 C1669 1.400 . S
C1673 C1672 1.385 . S
C1674 C1672 1.478 . S
C1674 C1676 1.381 . S
C1674 C1680 1.383 . S
C1675 C1671 1.495 . S
C1675 H1681 0.959 . S
C1675 H1682 0.961 . S
C1675 H1683 0.960 . S
C1676 C1674 1.381 . S
C1676 C1677 1.394 . S
C1676 H1684 0.930 . S
C1677 C1676 1.394 . S
C1677 C1678 1.383 . S
C1677 H1685 0.929 . S
C1678 C1677 1.383 . S
C1678 C1679 1.377 . S
C1679 H1663 0.930 . S
C1679 C1678 1.377 . S
C1679 C1680 1.379 . S
C1680 H1664 0.931 . S
C1680 C1674 1.383 . S
C1680 C1679 1.379 . S
H1681 C1675 0.959 . S
H1682 C1675 0.961 . S
H1683 C1675 0.960 . S
H1684 C1676 0.930 . S
H1685 C1677 0.929 . S
H1686 C1694 0.929 . S
H1687 C1696 0.930 . S
H1688 C1698 0.930 . S
H1689 C1701 0.929 . S
H1690 C1704 0.930 . S
H1691 C1706 0.960 . S
H1692 C1706 0.960 . S
H1693 C1706 0.960 . S
C1694 H1686 0.929 . S
C1694 C1695 1.377 . S
C1694 C1696 1.384 . S
C1695 C1694 1.377 . S
C1695 C1701 1.390 . S
C1696 H1687 0.930 . S
C1696 C1694 1.384 . S
C1696 C1697 1.372 . S
C1697 C1696 1.372 . S
C1697 C1698 1.400 . S
C1697 C1702 1.490 . S
C1698 H1688 0.930 . S
C1698 C1697 1.400 . S
C1698 C1701 1.386 . S
H1699 C1715 0.930 . S
H1700 C1716 0.931 . S
C1701 H1689 0.929 . S
C1701 C1695 1.390 . S
C1701 C1698 1.386 . S
C1702 C1697 1.490 . S
C1702 C1704 1.395 . S
C1702 C1705 1.403 . S
H1703 C1709 0.930 . S
C1704 H1690 0.930 . S
C1704 C1702 1.395 . S
C1704 C1707 1.403 . S
C1705 C1702 1.403 . S
C1705 C1706 1.524 . S
C1705 C1709 1.400 . S
C1706 H1691 0.960 . S
C1706 H1692 0.960 . S
C1706 H1693 0.960 . S
C1706 C1705 1.524 . S
C1707 C1704 1.403 . S
C1707 C1708 1.392 . S
C1707 C1711 1.495 . S
C1708 C1707 1.392 . S
C1708 C1709 1.385 . S
C1708 C1710 1.478 . S
C1709 H1703 0.930 . S
C1709 C1705 1.400 . S
C1709 C1708 1.385 . S
C1710 C1708 1.478 . S
C1710 C1712 1.381 . S
C1710 C1716 1.383 . S
C1711 C1707 1.495 . S
C1711 H1717 0.959 . S
C1711 H1718 0.961 . S
C1711 H1719 0.960 . S
C1712 C1710 1.381 . S
C1712 C1713 1.394 . S
C1712 H1720 0.930 . S
C1713 C1712 1.394 . S
C1713 C1714 1.383 . S
C1713 H1721 0.929 . S
C1714 C1713 1.383 . S
C1714 C1715 1.377 . S
C1715 H1699 0.930 . S
C1715 C1714 1.377 . S
C1715 C1716 1.379 . S
C1716 H1700 0.931 . S
C1716 C1710 1.383 . S
C1716 C1715 1.379 . S
H1717 C1711 0.959 . S
H1718 C1711 0.961 . S
H1719 C1711 0.960 . S
H1720 C1712 0.930 . S
H1721 C1713 0.929 . S
H1722 C1730 0.929 . S
H1723 C1732 0.930 . S
H1724 C1734 0.930 . S
H1725 C1737 0.929 . S
H1726 C1740 0.930 . S
H1727 C1742 0.960 . S
H1728 C1742 0.960 . S
H1729 C1742 0.960 . S
C1730 H1722 0.929 . S
C1730 C1731 1.377 . S
C1730 C1732 1.384 . S
C1731 C1730 1.377 . S
C1731 C1737 1.390 . S
C1732 H1723 0.930 . S
C1732 C1730 1.384 . S
C1732 C1733 1.372 . S
C1733 C1732 1.372 . S
C1733 C1734 1.400 . S
C1733 C1738 1.490 . S
C1734 H1724 0.930 . S
C1734 C1733 1.400 . S
C1734 C1737 1.386 . S
H1735 C1751 0.930 . S
H1736 C1752 0.931 . S
C1737 H1725 0.929 . S
C1737 C1731 1.390 . S
C1737 C1734 1.386 . S
C1738 C1733 1.490 . S
C1738 C1740 1.395 . S
C1738 C1741 1.403 . S
H1739 C1745 0.930 . S
C1740 H1726 0.930 . S
C1740 C1738 1.395 . S
C1740 C1743 1.403 . S
C1741 C1738 1.403 . S
C1741 C1742 1.524 . S
C1741 C1745 1.400 . S
C1742 H1727 0.960 . S
C1742 H1728 0.960 . S
C1742 H1729 0.960 . S
C1742 C1741 1.524 . S
C1743 C1740 1.403 . S
C1743 C1744 1.392 . S
C1743 C1747 1.495 . S
C1744 C1743 1.392 . S
C1744 C1745 1.385 . S
C1744 C1746 1.478 . S
C1745 H1739 0.930 . S
C1745 C1741 1.400 . S
C1745 C1744 1.385 . S
C1746 C1744 1.478 . S
C1746 C1748 1.381 . S
C1746 C1752 1.383 . S
C1747 C1743 1.495 . S
C1747 H1753 0.959 . S
C1747 H1754 0.961 . S
C1747 H1755 0.960 . S
C1748 C1746 1.381 . S
C1748 C1749 1.394 . S
C1748 H1756 0.930 . S
C1749 C1748 1.394 . S
C1749 C1750 1.383 . S
C1749 H1757 0.929 . S
C1750 C1749 1.383 . S
C1750 C1751 1.377 . S
C1751 H1735 0.930 . S
C1751 C1750 1.377 . S
C1751 C1752 1.379 . S
C1752 H1736 0.931 . S
C1752 C1746 1.383 . S
C1752 C1751 1.379 . S
H1753 C1747 0.959 . S
H1754 C1747 0.961 . S
H1755 C1747 0.960 . S
H1756 C1748 0.930 . S
H1757 C1749 0.929 . S
H1758 C1766 0.929 . S
H1759 C1768 0.930 . S
H1760 C1770 0.930 . S
H1761 C1773 0.929 . S
H1762 C1776 0.930 . S
H1763 C1778 0.960 . S
H1764 C1778 0.960 . S
H1765 C1778 0.960 . S
C1766 H1758 0.929 . S
C1766 C1767 1.377 . S
C1766 C1768 1.384 . S
C1767 C1766 1.377 . S
C1767 C1773 1.390 . S
C1768 H1759 0.930 . S
C1768 C1766 1.384 . S
C1768 C1769 1.372 . S
C1769 C1768 1.372 . S
C1769 C1770 1.400 . S
C1769 C1774 1.490 . S
C1770 H1760 0.930 . S
C1770 C1769 1.400 . S
C1770 C1773 1.386 . S
H1771 C1787 0.930 . S
H1772 C1788 0.931 . S
C1773 H1761 0.929 . S
C1773 C1767 1.390 . S
C1773 C1770 1.386 . S
C1774 C1769 1.490 . S
C1774 C1776 1.395 . S
C1774 C1777 1.403 . S
H1775 C1781 0.930 . S
C1776 H1762 0.930 . S
C1776 C1774 1.395 . S
C1776 C1779 1.403 . S
C1777 C1774 1.403 . S
C1777 C1778 1.524 . S
C1777 C1781 1.400 . S
C1778 H1763 0.960 . S
C1778 H1764 0.960 . S
C1778 H1765 0.960 . S
C1778 C1777 1.524 . S
C1779 C1776 1.403 . S
C1779 C1780 1.392 . S
C1779 C1783 1.495 . S
C1780 C1779 1.392 . S
C1780 C1781 1.385 . S
C1780 C1782 1.478 . S
C1781 H1775 0.930 . S
C1781 C1777 1.400 . S
C1781 C1780 1.385 . S
C1782 C1780 1.478 . S
C1782 C1784 1.381 . S
C1782 C1788 1.383 . S
C1783 C1779 1.495 . S
C1783 H1789 0.959 . S
C1783 H1790 0.961 . S
C1783 H1791 0.960 . S
C1784 C1782 1.381 . S
C1784 C1785 1.394 . S
C1784 H1792 0.930 . S
C1785 C1784 1.394 . S
C1785 C1786 1.383 . S
C1785 H1793 0.929 . S
C1786 C1785 1.383 . S
C1786 C1787 1.377 . S
C1787 H1771 0.930 . S
C1787 C1786 1.377 . S
C1787 C1788 1.379 . S
C1788 H1772 0.931 . S
C1788 C1782 1.383 . S
C1788 C1787 1.379 . S
H1789 C1783 0.959 . S
H1790 C1783 0.961 . S
H1791 C1783 0.960 . S
H1792 C1784 0.930 . S
H1793 C1785 0.929 . S
H1794 C1802 0.929 . S
H1795 C1804 0.930 . S
H1796 C1806 0.930 . S
H1797 C1809 0.929 . S
H1798 C1812 0.930 . S
H1799 C1814 0.960 . S
H1800 C1814 0.960 . S
H1801 C1814 0.960 . S
C1802 H1794 0.929 . S
C1802 C1803 1.377 . S
C1802 C1804 1.384 . S
C1803 C1802 1.377 . S
C1803 C1809 1.390 . S
C1804 H1795 0.930 . S
C1804 C1802 1.384 . S
C1804 C1805 1.372 . S
C1805 C1804 1.372 . S
C1805 C1806 1.400 . S
C1805 C1810 1.490 . S
C1806 H1796 0.930 . S
C1806 C1805 1.400 . S
C1806 C1809 1.386 . S
H1807 C1823 0.930 . S
H1808 C1824 0.931 . S
C1809 H1797 0.929 . S
C1809 C1803 1.390 . S
C1809 C1806 1.386 . S
C1810 C1805 1.490 . S
C1810 C1812 1.395 . S
C1810 C1813 1.403 . S
H1811 C1817 0.930 . S
C1812 H1798 0.930 . S
C1812 C1810 1.395 . S
C1812 C1815 1.403 . S
C1813 C1810 1.403 . S
C1813 C1814 1.524 . S
C1813 C1817 1.400 . S
C1814 H1799 0.960 . S
C1814 H1800 0.960 . S
C1814 H1801 0.960 . S
C1814 C1813 1.524 . S
C1815 C1812 1.403 . S
C1815 C1816 1.392 . S
C1815 C1819 1.495 . S
C1816 C1815 1.392 . S
C1816 C1817 1.385 . S
C1816 C1818 1.478 . S
C1817 H1811 0.930 . S
C1817 C1813 1.400 . S
C1817 C1816 1.385 . S
C1818 C1816 1.478 . S
C1818 C1820 1.381 . S
C1818 C1824 1.383 . S
C1819 C1815 1.495 . S
C1819 H1825 0.959 . S
C1819 H1826 0.961 . S
C1819 H1827 0.960 . S
C1820 C1818 1.381 . S
C1820 C1821 1.394 . S
C1820 H1828 0.930 . S
C1821 C1820 1.394 . S
C1821 C1822 1.383 . S
C1821 H1829 0.929 . S
C1822 C1821 1.383 . S
C1822 C1823 1.377 . S
C1823 H1807 0.930 . S
C1823 C1822 1.377 . S
C1823 C1824 1.379 . S
C1824 H1808 0.931 . S
C1824 C1818 1.383 . S
C1824 C1823 1.379 . S
H1825 C1819 0.959 . S
H1826 C1819 0.961 . S
H1827 C1819 0.960 . S
H1828 C1820 0.930 . S
H1829 C1821 0.929 . S
H1830 C1838 0.929 . S
H1831 C1840 0.930 . S
H1832 C1842 0.930 . S
H1833 C1845 0.929 . S
H1834 C1848 0.930 . S
H1835 C1850 0.960 . S
H1836 C1850 0.960 . S
H1837 C1850 0.960 . S
C1838 H1830 0.929 . S
C1838 C1839 1.377 . S
C1838 C1840 1.384 . S
C1839 C1838 1.377 . S
C1839 C1845 1.390 . S
C1840 H1831 0.930 . S
C1840 C1838 1.384 . S
C1840 C1841 1.372 . S
C1841 C1840 1.372 . S
C1841 C1842 1.400 . S
C1841 C1846 1.490 . S
C1842 H1832 0.930 . S
C1842 C1841 1.400 . S
C1842 C1845 1.386 . S
H1843 C1859 0.930 . S
H1844 C1860 0.931 . S
C1845 H1833 0.929 . S
C1845 C1839 1.390 . S
C1845 C1842 1.386 . S
C1846 C1841 1.490 . S
C1846 C1848 1.395 . S
C1846 C1849 1.403 . S
H1847 C1853 0.930 . S
C1848 H1834 0.930 . S
C1848 C1846 1.395 . S
C1848 C1851 1.403 . S
C1849 C1846 1.403 . S
C1849 C1850 1.524 . S
C1849 C1853 1.400 . S
C1850 H1835 0.960 . S
C1850 H1836 0.960 . S
C1850 H1837 0.960 . S
C1850 C1849 1.524 . S
C1851 C1848 1.403 . S
C1851 C1852 1.392 . S
C1851 C1855 1.495 . S
C1852 C1851 1.392 . S
C1852 C1853 1.385 . S
C1852 C1854 1.478 . S
C1853 H1847 0.930 . S
C1853 C1849 1.400 . S
C1853 C1852 1.385 . S
C1854 C1852 1.478 . S
C1854 C1856 1.381 . S
C1854 C1860 1.383 . S
C1855 C1851 1.495 . S
C1855 H1861 0.959 . S
C1855 H1862 0.961 . S
C1855 H1863 0.960 . S
C1856 C1854 1.381 . S
C1856 C1857 1.394 . S
C1856 H1864 0.930 . S
C1857 C1856 1.394 . S
C1857 C1858 1.383 . S
C1857 H1865 0.929 . S
C1858 C1857 1.383 . S
C1858 C1859 1.377 . S
C1859 H1843 0.930 . S
C1859 C1858 1.377 . S
C1859 C1860 1.379 . S
C1860 H1844 0.931 . S
C1860 C1854 1.383 . S
C1860 C1859 1.379 . S
H1861 C1855 0.959 . S
H1862 C1855 0.961 . S
H1863 C1855 0.960 . S
H1864 C1856 0.930 . S
H1865 C1857 0.929 . S
H1866 C1874 0.929 . S
H1867 C1876 0.930 . S
H1868 C1878 0.930 . S
H1869 C1881 0.929 . S
H1870 C1884 0.930 . S
H1871 C1886 0.960 . S
H1872 C1886 0.960 . S
H1873 C1886 0.960 . S
C1874 H1866 0.929 . S
C1874 C1875 1.377 . S
C1874 C1876 1.384 . S
C1875 C1874 1.377 . S
C1875 C1881 1.390 . S
C1876 H1867 0.930 . S
C1876 C1874 1.384 . S
C1876 C1877 1.372 . S
C1877 C1876 1.372 . S
C1877 C1878 1.400 . S
C1877 C1882 1.490 . S
C1878 H1868 0.930 . S
C1878 C1877 1.400 . S
C1878 C1881 1.386 . S
H1879 C1895 0.930 . S
H1880 C1896 0.931 . S
C1881 H1869 0.929 . S
C1881 C1875 1.390 . S
C1881 C1878 1.386 . S
C1882 C1877 1.490 . S
C1882 C1884 1.395 . S
C1882 C1885 1.403 . S
H1883 C1889 0.930 . S
C1884 H1870 0.930 . S
C1884 C1882 1.395 . S
C1884 C1887 1.403 . S
C1885 C1882 1.403 . S
C1885 C1886 1.524 . S
C1885 C1889 1.400 . S
C1886 H1871 0.960 . S
C1886 H1872 0.960 . S
C1886 H1873 0.960 . S
C1886 C1885 1.524 . S
C1887 C1884 1.403 . S
C1887 C1888 1.392 . S
C1887 C1891 1.495 . S
C1888 C1887 1.392 . S
C1888 C1889 1.385 . S
C1888 C1890 1.478 . S
C1889 H1883 0.930 . S
C1889 C1885 1.400 . S
C1889 C1888 1.385 . S
C1890 C1888 1.478 . S
C1890 C1892 1.381 . S
C1890 C1896 1.383 . S
C1891 C1887 1.495 . S
C1891 H1897 0.959 . S
C1891 H1898 0.961 . S
C1891 H1899 0.960 . S
C1892 C1890 1.381 . S
C1892 C1893 1.394 . S
C1892 H1900 0.930 . S
C1893 C1892 1.394 . S
C1893 C1894 1.383 . S
C1893 H1901 0.929 . S
C1894 C1893 1.383 . S
C1894 C1895 1.377 . S
C1895 H1879 0.930 . S
C1895 C1894 1.377 . S
C1895 C1896 1.379 . S
C1896 H1880 0.931 . S
C1896 C1890 1.383 . S
C1896 C1895 1.379 . S
H1897 C1891 0.959 . S
H1898 C1891 0.961 . S
H1899 C1891 0.960 . S
H1900 C1892 0.930 . S
H1901 C1893 0.929 . S
H1902 C1910 0.929 . S
H1903 C1912 0.930 . S
H1904 C1914 0.930 . S
H1905 C1917 0.929 . S
H1906 C1920 0.930 . S
H1907 C1922 0.960 . S
H1908 C1922 0.960 . S
H1909 C1922 0.960 . S
C1910 H1902 0.929 . S
C1910 C1911 1.377 . S
C1910 C1912 1.384 . S
C1911 C1910 1.377 . S
C1911 C1917 1.390 . S
C1912 H1903 0.930 . S
C1912 C1910 1.384 . S
C1912 C1913 1.372 . S
C1913 C1912 1.372 . S
C1913 C1914 1.400 . S
C1913 C1918 1.490 . S
C1914 H1904 0.930 . S
C1914 C1913 1.400 . S
C1914 C1917 1.386 . S
H1915 C1931 0.930 . S
H1916 C1932 0.931 . S
C1917 H1905 0.929 . S
C1917 C1911 1.390 . S
C1917 C1914 1.386 . S
C1918 C1913 1.490 . S
C1918 C1920 1.395 . S
C1918 C1921 1.403 . S
H1919 C1925 0.930 . S
C1920 H1906 0.930 . S
C1920 C1918 1.395 . S
C1920 C1923 1.403 . S
C1921 C1918 1.403 . S
C1921 C1922 1.524 . S
C1921 C1925 1.400 . S
C1922 H1907 0.960 . S
C1922 H1908 0.960 . S
C1922 H1909 0.960 . S
C1922 C1921 1.524 . S
C1923 C1920 1.403 . S
C1923 C1924 1.392 . S
C1923 C1927 1.495 . S
C1924 C1923 1.392 . S
C1924 C1925 1.385 . S
C1924 C1926 1.478 . S
C1925 H1919 0.930 . S
C1925 C1921 1.400 . S
C1925 C1924 1.385 . S
C1926 C1924 1.478 . S
C1926 C1928 1.381 . S
C1926 C1932 1.383 . S
C1927 C1923 1.495 . S
C1927 H1933 0.959 . S
C1927 H1934 0.961 . S
C1927 H1935 0.960 . S
C1928 C1926 1.381 . S
C1928 C1929 1.394 . S
C1928 H1936 0.930 . S
C1929 C1928 1.394 . S
C1929 C1930 1.383 . S
C1929 H1937 0.929 . S
C1930 C1929 1.383 . S
C1930 C1931 1.377 . S
C1931 H1915 0.930 . S
C1931 C1930 1.377 . S
C1931 C1932 1.379 . S
C1932 H1916 0.931 . S
C1932 C1926 1.383 . S
C1932 C1931 1.379 . S
H1933 C1927 0.959 . S
H1934 C1927 0.961 . S
H1935 C1927 0.960 . S
H1936 C1928 0.930 . S
H1937 C1929 0.929 . S
H1938 C1946 0.929 . S
H1939 C1948 0.930 . S
H1940 C1950 0.930 . S
H1941 C1953 0.929 . S
H1942 C1956 0.930 . S
H1943 C1958 0.960 . S
H1944 C1958 0.960 . S
H1945 C1958 0.960 . S
C1946 H1938 0.929 . S
C1946 C1947 1.377 . S
C1946 C1948 1.384 . S
C1947 C1946 1.377 . S
C1947 C1953 1.390 . S
C1948 H1939 0.930 . S
C1948 C1946 1.384 . S
C1948 C1949 1.372 . S
C1949 C1948 1.372 . S
C1949 C1950 1.400 . S
C1949 C1954 1.490 . S
C1950 H1940 0.930 . S
C1950 C1949 1.400 . S
C1950 C1953 1.386 . S
H1951 C1967 0.930 . S
H1952 C1968 0.931 . S
C1953 H1941 0.929 . S
C1953 C1947 1.390 . S
C1953 C1950 1.386 . S
C1954 C1949 1.490 . S
C1954 C1956 1.395 . S
C1954 C1957 1.403 . S
H1955 C1961 0.930 . S
C1956 H1942 0.930 . S
C1956 C1954 1.395 . S
C1956 C1959 1.403 . S
C1957 C1954 1.403 . S
C1957 C1958 1.524 . S
C1957 C1961 1.400 . S
C1958 H1943 0.960 . S
C1958 H1944 0.960 . S
C1958 H1945 0.960 . S
C1958 C1957 1.524 . S
C1959 C1956 1.403 . S
C1959 C1960 1.392 . S
C1959 C1963 1.495 . S
C1960 C1959 1.392 . S
C1960 C1961 1.385 . S
C1960 C1962 1.478 . S
C1961 H1955 0.930 . S
C1961 C1957 1.400 . S
C1961 C1960 1.385 . S
C1962 C1960 1.478 . S
C1962 C1964 1.381 . S
C1962 C1968 1.383 . S
C1963 C1959 1.495 . S
C1963 H1969 0.959 . S
C1963 H1970 0.961 . S
C1963 H1971 0.960 . S
C1964 C1962 1.381 . S
C1964 C1965 1.394 . S
C1964 H1972 0.930 . S
C1965 C1964 1.394 . S
C1965 C1966 1.383 . S
C1965 H1973 0.929 . S
C1966 C1965 1.383 . S
C1966 C1967 1.377 . S
C1967 H1951 0.930 . S
C1967 C1966 1.377 . S
C1967 C1968 1.379 . S
C1968 H1952 0.931 . S
C1968 C1962 1.383 . S
C1968 C1967 1.379 . S
H1969 C1963 0.959 . S
H1970 C1963 0.961 . S
H1971 C1963 0.960 . S
H1972 C1964 0.930 . S
H1973 C1965 0.929 . S
H1974 C1982 0.929 . S
H1975 C1984 0.930 . S
H1976 C1986 0.930 . S
H1977 C1989 0.929 . S
H1978 C1992 0.930 . S
H1979 C1994 0.960 . S
H1980 C1994 0.960 . S
H1981 C1994 0.960 . S
C1982 H1974 0.929 . S
C1982 C1983 1.377 . S
C1982 C1984 1.384 . S
C1983 C1982 1.377 . S
C1983 C1989 1.390 . S
C1984 H1975 0.930 . S
C1984 C1982 1.384 . S
C1984 C1985 1.372 . S
C1985 C1984 1.372 . S
C1985 C1986 1.400 . S
C1985 C1990 1.490 . S
C1986 H1976 0.930 . S
C1986 C1985 1.400 . S
C1986 C1989 1.386 . S
H1987 C2003 0.930 . S
H1988 C2004 0.931 . S
C1989 H1977 0.929 . S
C1989 C1983 1.390 . S
C1989 C1986 1.386 . S
C1990 C1985 1.490 . S
C1990 C1992 1.395 . S
C1990 C1993 1.403 . S
H1991 C1997 0.930 . S
C1992 H1978 0.930 . S
C1992 C1990 1.395 . S
C1992 C1995 1.403 . S
C1993 C1990 1.403 . S
C1993 C1994 1.524 . S
C1993 C1997 1.400 . S
C1994 H1979 0.960 . S
C1994 H1980 0.960 . S
C1994 H1981 0.960 . S
C1994 C1993 1.524 . S
C1995 C1992 1.403 . S
C1995 C1996 1.392 . S
C1995 C1999 1.495 . S
C1996 C1995 1.392 . S
C1996 C1997 1.385 . S
C1996 C1998 1.478 . S
C1997 H1991 0.930 . S
C1997 C1993 1.400 . S
C1997 C1996 1.385 . S
C1998 C1996 1.478 . S
C1998 C2000 1.381 . S
C1998 C2004 1.383 . S
C1999 C1995 1.495 . S
C1999 H2005 0.959 . S
C1999 H2006 0.961 . S
C1999 H2007 0.960 . S
C2000 C1998 1.381 . S
C2000 C2001 1.394 . S
C2000 H2008 0.930 . S
C2001 C2000 1.394 . S
C2001 C2002 1.383 . S
C2001 H2009 0.929 . S
C2002 C2001 1.383 . S
C2002 C2003 1.377 . S
C2003 H1987 0.930 . S
C2003 C2002 1.377 . S
C2003 C2004 1.379 . S
C2004 H1988 0.931 . S
C2004 C1998 1.383 . S
C2004 C2003 1.379 . S
H2005 C1999 0.959 . S
H2006 C1999 0.961 . S
H2007 C1999 0.960 . S
H2008 C2000 0.930 . S
H2009 C2001 0.929 . S
H2010 C2018 0.929 . S
H2011 C2020 0.930 . S
H2012 C2022 0.930 . S
H2013 C2025 0.929 . S
H2014 C2028 0.930 . S
H2015 C2030 0.960 . S
H2016 C2030 0.960 . S
H2017 C2030 0.960 . S
C2018 H2010 0.929 . S
C2018 C2019 1.377 . S
C2018 C2020 1.384 . S
C2019 C2018 1.377 . S
C2019 C2025 1.390 . S
C2020 H2011 0.930 . S
C2020 C2018 1.384 . S
C2020 C2021 1.372 . S
C2021 C2020 1.372 . S
C2021 C2022 1.400 . S
C2021 C2026 1.490 . S
C2022 H2012 0.930 . S
C2022 C2021 1.400 . S
C2022 C2025 1.386 . S
H2023 C2039 0.930 . S
H2024 C2040 0.931 . S
C2025 H2013 0.929 . S
C2025 C2019 1.390 . S
C2025 C2022 1.386 . S
C2026 C2021 1.490 . S
C2026 C2028 1.395 . S
C2026 C2029 1.403 . S
H2027 C2033 0.930 . S
C2028 H2014 0.930 . S
C2028 C2026 1.395 . S
C2028 C2031 1.403 . S
C2029 C2026 1.403 . S
C2029 C2030 1.524 . S
C2029 C2033 1.400 . S
C2030 H2015 0.960 . S
C2030 H2016 0.960 . S
C2030 H2017 0.960 . S
C2030 C2029 1.524 . S
C2031 C2028 1.403 . S
C2031 C2032 1.392 . S
C2031 C2035 1.495 . S
C2032 C2031 1.392 . S
C2032 C2033 1.385 . S
C2032 C2034 1.478 . S
C2033 H2027 0.930 . S
C2033 C2029 1.400 . S
C2033 C2032 1.385 . S
C2034 C2032 1.478 . S
C2034 C2036 1.381 . S
C2034 C2040 1.383 . S
C2035 C2031 1.495 . S
C2035 H2041 0.959 . S
C2035 H2042 0.961 . S
C2035 H2043 0.960 . S
C2036 C2034 1.381 . S
C2036 C2037 1.394 . S
C2036 H2044 0.930 . S
C2037 C2036 1.394 . S
C2037 C2038 1.383 . S
C2037 H2045 0.929 . S
C2038 C2037 1.383 . S
C2038 C2039 1.377 . S
C2039 H2023 0.930 . S
C2039 C2038 1.377 . S
C2039 C2040 1.379 . S
C2040 H2024 0.931 . S
C2040 C2034 1.383 . S
C2040 C2039 1.379 . S
H2041 C2035 0.959 . S
H2042 C2035 0.961 . S
H2043 C2035 0.960 . S
H2044 C2036 0.930 . S
H2045 C2037 0.929 . S
H2046 C2054 0.929 . S
H2047 C2056 0.930 . S
H2048 C2058 0.930 . S
H2049 C2061 0.929 . S
H2050 C2064 0.930 . S
H2051 C2066 0.960 . S
H2052 C2066 0.960 . S
H2053 C2066 0.960 . S
C2054 H2046 0.929 . S
C2054 C2055 1.377 . S
C2054 C2056 1.384 . S
C2055 C2054 1.377 . S
C2055 C2061 1.390 . S
C2056 H2047 0.930 . S
C2056 C2054 1.384 . S
C2056 C2057 1.372 . S
C2057 C2056 1.372 . S
C2057 C2058 1.400 . S
C2057 C2062 1.490 . S
C2058 H2048 0.930 . S
C2058 C2057 1.400 . S
C2058 C2061 1.386 . S
H2059 C2075 0.930 . S
H2060 C2076 0.931 . S
C2061 H2049 0.929 . S
C2061 C2055 1.390 . S
C2061 C2058 1.386 . S
C2062 C2057 1.490 . S
C2062 C2064 1.395 . S
C2062 C2065 1.403 . S
H2063 C2069 0.930 . S
C2064 H2050 0.930 . S
C2064 C2062 1.395 . S
C2064 C2067 1.403 . S
C2065 C2062 1.403 . S
C2065 C2066 1.524 . S
C2065 C2069 1.400 . S
C2066 H2051 0.960 . S
C2066 H2052 0.960 . S
C2066 H2053 0.960 . S
C2066 C2065 1.524 . S
C2067 C2064 1.403 . S
C2067 C2068 1.392 . S
C2067 C2071 1.495 . S
C2068 C2067 1.392 . S
C2068 C2069 1.385 . S
C2068 C2070 1.478 . S
C2069 H2063 0.930 . S
C2069 C2065 1.400 . S
C2069 C2068 1.385 . S
C2070 C2068 1.478 . S
C2070 C2072 1.381 . S
C2070 C2076 1.383 . S
C2071 C2067 1.495 . S
C2071 H2077 0.959 . S
C2071 H2078 0.961 . S
C2071 H2079 0.960 . S
C2072 C2070 1.381 . S
C2072 C2073 1.394 . S
C2072 H2080 0.930 . S
C2073 C2072 1.394 . S
C2073 C2074 1.383 . S
C2073 H2081 0.929 . S
C2074 C2073 1.383 . S
C2074 C2075 1.377 . S
C2075 H2059 0.930 . S
C2075 C2074 1.377 . S
C2075 C2076 1.379 . S
C2076 H2060 0.931 . S
C2076 C2070 1.383 . S
C2076 C2075 1.379 . S
H2077 C2071 0.959 . S
H2078 C2071 0.961 . S
H2079 C2071 0.960 . S
H2080 C2072 0.930 . S
H2081 C2073 0.929 . S
H2082 C2090 0.929 . S
H2083 C2092 0.930 . S
H2084 C2094 0.930 . S
H2085 C2097 0.929 . S
H2086 C2100 0.930 . S
H2087 C2102 0.960 . S
H2088 C2102 0.960 . S
H2089 C2102 0.960 . S
C2090 H2082 0.929 . S
C2090 C2091 1.377 . S
C2090 C2092 1.384 . S
C2091 C2090 1.377 . S
C2091 C2097 1.390 . S
C2092 H2083 0.930 . S
C2092 C2090 1.384 . S
C2092 C2093 1.372 . S
C2093 C2092 1.372 . S
C2093 C2094 1.400 . S
C2093 C2098 1.490 . S
C2094 H2084 0.930 . S
C2094 C2093 1.400 . S
C2094 C2097 1.386 . S
H2095 C2111 0.930 . S
H2096 C2112 0.931 . S
C2097 H2085 0.929 . S
C2097 C2091 1.390 . S
C2097 C2094 1.386 . S
C2098 C2093 1.490 . S
C2098 C2100 1.395 . S
C2098 C2101 1.403 . S
H2099 C2105 0.930 . S
C2100 H2086 0.930 . S
C2100 C2098 1.395 . S
C2100 C2103 1.403 . S
C2101 C2098 1.403 . S
C2101 C2102 1.524 . S
C2101 C2105 1.400 . S
C2102 H2087 0.960 . S
C2102 H2088 0.960 . S
C2102 H2089 0.960 . S
C2102 C2101 1.524 . S
C2103 C2100 1.403 . S
C2103 C2104 1.392 . S
C2103 C2107 1.495 . S
C2104 C2103 1.392 . S
C2104 C2105 1.385 . S
C2104 C2106 1.478 . S
C2105 H2099 0.930 . S
C2105 C2101 1.400 . S
C2105 C2104 1.385 . S
C2106 C2104 1.478 . S
C2106 C2108 1.381 . S
C2106 C2112 1.383 . S
C2107 C2103 1.495 . S
C2107 H2113 0.959 . S
C2107 H2114 0.961 . S
C2107 H2115 0.960 . S
C2108 C2106 1.381 . S
C2108 C2109 1.394 . S
C2108 H2116 0.930 . S
C2109 C2108 1.394 . S
C2109 C2110 1.383 . S
C2109 H2117 0.929 . S
C2110 C2109 1.383 . S
C2110 C2111 1.377 . S
C2111 H2095 0.930 . S
C2111 C2110 1.377 . S
C2111 C2112 1.379 . S
C2112 H2096 0.931 . S
C2112 C2106 1.383 . S
C2112 C2111 1.379 . S
H2113 C2107 0.959 . S
H2114 C2107 0.961 . S
H2115 C2107 0.960 . S
H2116 C2108 0.930 . S
H2117 C2109 0.929 . S
H2118 C2126 0.929 . S
H2119 C2128 0.930 . S
H2120 C2130 0.930 . S
H2121 C2133 0.929 . S
H2122 C2136 0.930 . S
H2123 C2138 0.960 . S
H2124 C2138 0.960 . S
H2125 C2138 0.960 . S
C2126 H2118 0.929 . S
C2126 C2127 1.377 . S
C2126 C2128 1.384 . S
C2127 C2126 1.377 . S
C2127 C2133 1.390 . S
C2128 H2119 0.930 . S
C2128 C2126 1.384 . S
C2128 C2129 1.372 . S
C2129 C2128 1.372 . S
C2129 C2130 1.400 . S
C2129 C2134 1.490 . S
C2130 H2120 0.930 . S
C2130 C2129 1.400 . S
C2130 C2133 1.386 . S
H2131 C2147 0.930 . S
H2132 C2148 0.931 . S
C2133 H2121 0.929 . S
C2133 C2127 1.390 . S
C2133 C2130 1.386 . S
C2134 C2129 1.490 . S
C2134 C2136 1.395 . S
C2134 C2137 1.403 . S
H2135 C2141 0.930 . S
C2136 H2122 0.930 . S
C2136 C2134 1.395 . S
C2136 C2139 1.403 . S
C2137 C2134 1.403 . S
C2137 C2138 1.524 . S
C2137 C2141 1.400 . S
C2138 H2123 0.960 . S
C2138 H2124 0.960 . S
C2138 H2125 0.960 . S
C2138 C2137 1.524 . S
C2139 C2136 1.403 . S
C2139 C2140 1.392 . S
C2139 C2143 1.495 . S
C2140 C2139 1.392 . S
C2140 C2141 1.385 . S
C2140 C2142 1.478 . S
C2141 H2135 0.930 . S
C2141 C2137 1.400 . S
C2141 C2140 1.385 . S
C2142 C2140 1.478 . S
C2142 C2144 1.381 . S
C2142 C2148 1.383 . S
C2143 C2139 1.495 . S
C2143 H2149 0.959 . S
C2143 H2150 0.961 . S
C2143 H2151 0.960 . S
C2144 C2142 1.381 . S
C2144 C2145 1.394 . S
C2144 H2152 0.930 . S
C2145 C2144 1.394 . S
C2145 C2146 1.383 . S
C2145 H2153 0.929 . S
C2146 C2145 1.383 . S
C2146 C2147 1.377 . S
C2147 H2131 0.930 . S
C2147 C2146 1.377 . S
C2147 C2148 1.379 . S
C2148 H2132 0.931 . S
C2148 C2142 1.383 . S
C2148 C2147 1.379 . S
H2149 C2143 0.959 . S
H2150 C2143 0.961 . S
H2151 C2143 0.960 . S
H2152 C2144 0.930 . S
H2153 C2145 0.929 . S
C454 C251 0.840 . S
C435 N6 0.855 . S
C490 C241 2.030 . S
C471 C57 2.040 . S
C526 C242 0.837 . S
C507 C61 0.814 . S
C543 N96 0.627 . S
C562 C264 0.626 . S
C579 C136 2.039 . S
C598 C267 2.039 . S
C634 C250 0.848 . S
C615 C160 0.809 . S
C651 N194 0.635 . S
C670 C240 0.629 . S
C687 N224 0.860 . S
C706 C258 0.906 . S
C742 C271 1.902 . S
C723 C10 1.932 . S
C759 N36 0.779 . S
C778 C320 0.729 . S
C814 C298 0.679 . S
C795 N74 0.735 . S
C850 C312 0.800 . S
C831 C100 0.804 . S
C867 C121 0.801 . S
C886 C273 0.812 . S
C922 C326 1.836 . S
C903 C177 1.904 . S
C939 C196 2.175 . S
C958 C282 2.079 . S
C975 C226 2.041 . S
C994 C303 2.024 . S
C1011 C27 2.045 . S
C1030 C329 2.019 . S
C1047 N134 0.790 . S
C1066 C313 0.837 . S
C1102 C272 0.672 . S
C1083 N156 0.701 . S
C1138 C304 0.738 . S
C1119 C181 0.803 . S
C1155 C211 1.939 . S
C1174 C295 1.892 . S
C1191 C76 1.898 . S
C1210 C302 1.835 . S
C1246 C289 2.117 . S
C1227 C117 2.177 . S
C1263 C40 0.804 . S
C1282 C281 0.830 . S
C1299 N216 0.853 . S
C1318 C344 0.829 . S
C1335 C147 2.042 . S
C1354 C334 2.039 . S
C1390 C335 0.847 . S
C1371 C151 0.818 . S
C1426 C357 0.622 . S
C1407 N186 0.618 . S
C1443 C46 2.043 . S
C1462 C360 2.010 . S
C1498 C343 0.766 . S
C1479 C70 0.814 . S
C1515 N104 0.635 . S
C1534 C333 0.574 . S
C1551 N14 0.859 . S
C1570 C351 0.901 . S
C1587 C220 1.940 . S
C1606 C364 1.877 . S
C1642 C413 0.753 . S
C1623 N126 0.774 . S
C1659 N164 0.705 . S
C1678 C391 0.763 . S
C1695 C190 0.806 . S
C1714 C405 0.812 . S
C1750 C366 0.837 . S
C1731 C31 0.799 . S
C1767 C87 1.901 . S
C1786 C419 1.869 . S
C1822 C375 2.096 . S
C1803 C106 2.178 . S
C1858 C396 2.026 . S
C1839 C16 2.039 . S
C1894 C422 2.001 . S
C1875 C237 2.045 . S
C1911 N44 0.774 . S
C1930 C406 0.766 . S
C1947 N66 0.709 . S
C1966 C365 0.664 . S
C2002 C397 0.764 . S
C1983 C91 0.805 . S
C2019 C1 1.940 . S
C2038 C388 1.910 . S
C2055 C166 1.901 . S
C2074 C395 1.865 . S
C2110 C382 2.115 . S
C2091 C207 2.176 . S
C2146 C374 0.803 . S
C2127 C130 0.804 . S
