# Generated by pormake.
# Topology gar, (4,6)-cn, num edge types: 1
# Building blocks:
#     Node 0, Type 0, BuildingBlock: QUQFOY_clean_sbu_3, # of connection points: 4
#     Node 1, Type 0, BuildingBlock: QUQFOY_clean_sbu_3, # of connection points: 4
#     Node 2, Type 0, BuildingBlock: QUQFOY_clean_sbu_3, # of connection points: 4
#     Node 3, Type 0, BuildingBlock: QUQFOY_clean_sbu_3, # of connection points: 4
#     Node 4, Type 0, BuildingBlock: QUQFOY_clean_sbu_3, # of connection points: 4
#     Node 5, Type 0, BuildingBlock: QUQFOY_clean_sbu_3, # of connection points: 4
#     Node 6, Type 0, BuildingBlock: QUQFOY_clean_sbu_3, # of connection points: 4
#     Node 7, Type 0, BuildingBlock: QUQFOY_clean_sbu_3, # of connection points: 4
#     Node 8, Type 0, BuildingBlock: QUQFOY_clean_sbu_3, # of connection points: 4
#     Node 9, Type 0, BuildingBlock: QUQFOY_clean_sbu_3, # of connection points: 4
#     Node 10, Type 0, BuildingBlock: QUQFOY_clean_sbu_3, # of connection points: 4
#     Node 11, Type 0, BuildingBlock: QUQFOY_clean_sbu_3, # of connection points: 4
#     Node 12, Type 0, BuildingBlock: QUQFOY_clean_sbu_3, # of connection points: 4
#     Node 13, Type 0, BuildingBlock: QUQFOY_clean_sbu_3, # of connection points: 4
#     Node 14, Type 0, BuildingBlock: QUQFOY_clean_sbu_3, # of connection points: 4
#     Node 15, Type 0, BuildingBlock: QUQFOY_clean_sbu_3, # of connection points: 4
#     Node 16, Type 0, BuildingBlock: QUQFOY_clean_sbu_3, # of connection points: 4
#     Node 17, Type 0, BuildingBlock: QUQFOY_clean_sbu_3, # of connection points: 4
#     Node 18, Type 0, BuildingBlock: QUQFOY_clean_sbu_3, # of connection points: 4
#     Node 19, Type 0, BuildingBlock: QUQFOY_clean_sbu_3, # of connection points: 4
#     Node 20, Type 0, BuildingBlock: QUQFOY_clean_sbu_3, # of connection points: 4
#     Node 21, Type 0, BuildingBlock: QUQFOY_clean_sbu_3, # of connection points: 4
#     Node 22, Type 0, BuildingBlock: QUQFOY_clean_sbu_3, # of connection points: 4
#     Node 23, Type 0, BuildingBlock: QUQFOY_clean_sbu_3, # of connection points: 4
#     Node 24, Type 1, BuildingBlock: GEDQOX_clean_sbu_0, # of connection points: 6
#     Node 25, Type 1, BuildingBlock: GEDQOX_clean_sbu_0, # of connection points: 6
#     Node 26, Type 1, BuildingBlock: GEDQOX_clean_sbu_0, # of connection points: 6
#     Node 27, Type 1, BuildingBlock: GEDQOX_clean_sbu_0, # of connection points: 6
#     Node 28, Type 1, BuildingBlock: GEDQOX_clean_sbu_0, # of connection points: 6
#     Node 29, Type 1, BuildingBlock: GEDQOX_clean_sbu_0, # of connection points: 6
#     Node 30, Type 1, BuildingBlock: GEDQOX_clean_sbu_0, # of connection points: 6
#     Node 31, Type 1, BuildingBlock: GEDQOX_clean_sbu_0, # of connection points: 6
#     Node 32, Type 1, BuildingBlock: GEDQOX_clean_sbu_0, # of connection points: 6
#     Node 33, Type 1, BuildingBlock: GEDQOX_clean_sbu_0, # of connection points: 6
#     Node 34, Type 1, BuildingBlock: GEDQOX_clean_sbu_0, # of connection points: 6
#     Node 35, Type 1, BuildingBlock: GEDQOX_clean_sbu_0, # of connection points: 6
#     Node 36, Type 1, BuildingBlock: GEDQOX_clean_sbu_0, # of connection points: 6
#     Node 37, Type 1, BuildingBlock: GEDQOX_clean_sbu_0, # of connection points: 6
#     Node 38, Type 1, BuildingBlock: GEDQOX_clean_sbu_0, # of connection points: 6
#     Node 39, Type 1, BuildingBlock: GEDQOX_clean_sbu_0, # of connection points: 6
#     Edge 40, Type (0, 1), BuildingBlock: XUDNAN_clean_linker_2, # of connection points: 2
#     Edge 41, Type (0, 1), BuildingBlock: XUDNAN_clean_linker_2, # of connection points: 2
#     Edge 42, Type (0, 1), BuildingBlock: XUDNAN_clean_linker_2, # of connection points: 2
#     Edge 43, Type (0, 1), BuildingBlock: XUDNAN_clean_linker_2, # of connection points: 2
#     Edge 44, Type (0, 1), BuildingBlock: XUDNAN_clean_linker_2, # of connection points: 2
#     Edge 45, Type (0, 1), BuildingBlock: XUDNAN_clean_linker_2, # of connection points: 2
#     Edge 46, Type (0, 1), BuildingBlock: XUDNAN_clean_linker_2, # of connection points: 2
#     Edge 47, Type (0, 1), BuildingBlock: XUDNAN_clean_linker_2, # of connection points: 2
#     Edge 48, Type (0, 1), BuildingBlock: XUDNAN_clean_linker_2, # of connection points: 2
#     Edge 49, Type (0, 1), BuildingBlock: XUDNAN_clean_linker_2, # of connection points: 2
#     Edge 50, Type (0, 1), BuildingBlock: XUDNAN_clean_linker_2, # of connection points: 2
#     Edge 51, Type (0, 1), BuildingBlock: XUDNAN_clean_linker_2, # of connection points: 2
#     Edge 52, Type (0, 1), BuildingBlock: XUDNAN_clean_linker_2, # of connection points: 2
#     Edge 53, Type (0, 1), BuildingBlock: XUDNAN_clean_linker_2, # of connection points: 2
#     Edge 54, Type (0, 1), BuildingBlock: XUDNAN_clean_linker_2, # of connection points: 2
#     Edge 55, Type (0, 1), BuildingBlock: XUDNAN_clean_linker_2, # of connection points: 2
#     Edge 56, Type (0, 1), BuildingBlock: XUDNAN_clean_linker_2, # of connection points: 2
#     Edge 57, Type (0, 1), BuildingBlock: XUDNAN_clean_linker_2, # of connection points: 2
#     Edge 58, Type (0, 1), BuildingBlock: XUDNAN_clean_linker_2, # of connection points: 2
#     Edge 59, Type (0, 1), BuildingBlock: XUDNAN_clean_linker_2, # of connection points: 2
#     Edge 60, Type (0, 1), BuildingBlock: XUDNAN_clean_linker_2, # of connection points: 2
#     Edge 61, Type (0, 1), BuildingBlock: XUDNAN_clean_linker_2, # of connection points: 2
#     Edge 62, Type (0, 1), BuildingBlock: XUDNAN_clean_linker_2, # of connection points: 2
#     Edge 63, Type (0, 1), BuildingBlock: XUDNAN_clean_linker_2, # of connection points: 2
#     Edge 64, Type (0, 1), BuildingBlock: XUDNAN_clean_linker_2, # of connection points: 2
#     Edge 65, Type (0, 1), BuildingBlock: XUDNAN_clean_linker_2, # of connection points: 2
#     Edge 66, Type (0, 1), BuildingBlock: XUDNAN_clean_linker_2, # of connection points: 2
#     Edge 67, Type (0, 1), BuildingBlock: XUDNAN_clean_linker_2, # of connection points: 2
#     Edge 68, Type (0, 1), BuildingBlock: XUDNAN_clean_linker_2, # of connection points: 2
#     Edge 69, Type (0, 1), BuildingBlock: XUDNAN_clean_linker_2, # of connection points: 2
#     Edge 70, Type (0, 1), BuildingBlock: XUDNAN_clean_linker_2, # of connection points: 2
#     Edge 71, Type (0, 1), BuildingBlock: XUDNAN_clean_linker_2, # of connection points: 2
#     Edge 72, Type (0, 1), BuildingBlock: XUDNAN_clean_linker_2, # of connection points: 2
#     Edge 73, Type (0, 1), BuildingBlock: XUDNAN_clean_linker_2, # of connection points: 2
#     Edge 74, Type (0, 1), BuildingBlock: XUDNAN_clean_linker_2, # of connection points: 2
#     Edge 75, Type (0, 1), BuildingBlock: XUDNAN_clean_linker_2, # of connection points: 2
#     Edge 76, Type (0, 1), BuildingBlock: XUDNAN_clean_linker_2, # of connection points: 2
#     Edge 77, Type (0, 1), BuildingBlock: XUDNAN_clean_linker_2, # of connection points: 2
#     Edge 78, Type (0, 1), BuildingBlock: XUDNAN_clean_linker_2, # of connection points: 2
#     Edge 79, Type (0, 1), BuildingBlock: XUDNAN_clean_linker_2, # of connection points: 2
#     Edge 80, Type (0, 1), BuildingBlock: XUDNAN_clean_linker_2, # of connection points: 2
#     Edge 81, Type (0, 1), BuildingBlock: XUDNAN_clean_linker_2, # of connection points: 2
#     Edge 82, Type (0, 1), BuildingBlock: XUDNAN_clean_linker_2, # of connection points: 2
#     Edge 83, Type (0, 1), BuildingBlock: XUDNAN_clean_linker_2, # of connection points: 2
#     Edge 84, Type (0, 1), BuildingBlock: XUDNAN_clean_linker_2, # of connection points: 2
#     Edge 85, Type (0, 1), BuildingBlock: XUDNAN_clean_linker_2, # of connection points: 2
#     Edge 86, Type (0, 1), BuildingBlock: XUDNAN_clean_linker_2, # of connection points: 2
#     Edge 87, Type (0, 1), BuildingBlock: XUDNAN_clean_linker_2, # of connection points: 2
#     Edge 88, Type (0, 1), BuildingBlock: XUDNAN_clean_linker_2, # of connection points: 2
#     Edge 89, Type (0, 1), BuildingBlock: XUDNAN_clean_linker_2, # of connection points: 2
#     Edge 90, Type (0, 1), BuildingBlock: XUDNAN_clean_linker_2, # of connection points: 2
#     Edge 91, Type (0, 1), BuildingBlock: XUDNAN_clean_linker_2, # of connection points: 2
#     Edge 92, Type (0, 1), BuildingBlock: XUDNAN_clean_linker_2, # of connection points: 2
#     Edge 93, Type (0, 1), BuildingBlock: XUDNAN_clean_linker_2, # of connection points: 2
#     Edge 94, Type (0, 1), BuildingBlock: XUDNAN_clean_linker_2, # of connection points: 2
#     Edge 95, Type (0, 1), BuildingBlock: XUDNAN_clean_linker_2, # of connection points: 2
#     Edge 96, Type (0, 1), BuildingBlock: XUDNAN_clean_linker_2, # of connection points: 2
#     Edge 97, Type (0, 1), BuildingBlock: XUDNAN_clean_linker_2, # of connection points: 2
#     Edge 98, Type (0, 1), BuildingBlock: XUDNAN_clean_linker_2, # of connection points: 2
#     Edge 99, Type (0, 1), BuildingBlock: XUDNAN_clean_linker_2, # of connection points: 2
#     Edge 100, Type (0, 1), BuildingBlock: XUDNAN_clean_linker_2, # of connection points: 2
#     Edge 101, Type (0, 1), BuildingBlock: XUDNAN_clean_linker_2, # of connection points: 2
#     Edge 102, Type (0, 1), BuildingBlock: XUDNAN_clean_linker_2, # of connection points: 2
#     Edge 103, Type (0, 1), BuildingBlock: XUDNAN_clean_linker_2, # of connection points: 2
#     Edge 104, Type (0, 1), BuildingBlock: XUDNAN_clean_linker_2, # of connection points: 2
#     Edge 105, Type (0, 1), BuildingBlock: XUDNAN_clean_linker_2, # of connection points: 2
#     Edge 106, Type (0, 1), BuildingBlock: XUDNAN_clean_linker_2, # of connection points: 2
#     Edge 107, Type (0, 1), BuildingBlock: XUDNAN_clean_linker_2, # of connection points: 2
#     Edge 108, Type (0, 1), BuildingBlock: XUDNAN_clean_linker_2, # of connection points: 2
#     Edge 109, Type (0, 1), BuildingBlock: XUDNAN_clean_linker_2, # of connection points: 2
#     Edge 110, Type (0, 1), BuildingBlock: XUDNAN_clean_linker_2, # of connection points: 2
#     Edge 111, Type (0, 1), BuildingBlock: XUDNAN_clean_linker_2, # of connection points: 2
#     Edge 112, Type (0, 1), BuildingBlock: XUDNAN_clean_linker_2, # of connection points: 2
#     Edge 113, Type (0, 1), BuildingBlock: XUDNAN_clean_linker_2, # of connection points: 2
#     Edge 114, Type (0, 1), BuildingBlock: XUDNAN_clean_linker_2, # of connection points: 2
#     Edge 115, Type (0, 1), BuildingBlock: XUDNAN_clean_linker_2, # of connection points: 2
#     Edge 116, Type (0, 1), BuildingBlock: XUDNAN_clean_linker_2, # of connection points: 2
#     Edge 117, Type (0, 1), BuildingBlock: XUDNAN_clean_linker_2, # of connection points: 2
#     Edge 118, Type (0, 1), BuildingBlock: XUDNAN_clean_linker_2, # of connection points: 2
#     Edge 119, Type (0, 1), BuildingBlock: XUDNAN_clean_linker_2, # of connection points: 2
#     Edge 120, Type (0, 1), BuildingBlock: XUDNAN_clean_linker_2, # of connection points: 2
#     Edge 121, Type (0, 1), BuildingBlock: XUDNAN_clean_linker_2, # of connection points: 2
#     Edge 122, Type (0, 1), BuildingBlock: XUDNAN_clean_linker_2, # of connection points: 2
#     Edge 123, Type (0, 1), BuildingBlock: XUDNAN_clean_linker_2, # of connection points: 2
#     Edge 124, Type (0, 1), BuildingBlock: XUDNAN_clean_linker_2, # of connection points: 2
#     Edge 125, Type (0, 1), BuildingBlock: XUDNAN_clean_linker_2, # of connection points: 2
#     Edge 126, Type (0, 1), BuildingBlock: XUDNAN_clean_linker_2, # of connection points: 2
#     Edge 127, Type (0, 1), BuildingBlock: XUDNAN_clean_linker_2, # of connection points: 2
#     Edge 128, Type (0, 1), BuildingBlock: XUDNAN_clean_linker_2, # of connection points: 2
#     Edge 129, Type (0, 1), BuildingBlock: XUDNAN_clean_linker_2, # of connection points: 2
#     Edge 130, Type (0, 1), BuildingBlock: XUDNAN_clean_linker_2, # of connection points: 2
#     Edge 131, Type (0, 1), BuildingBlock: XUDNAN_clean_linker_2, # of connection points: 2
#     Edge 132, Type (0, 1), BuildingBlock: XUDNAN_clean_linker_2, # of connection points: 2
#     Edge 133, Type (0, 1), BuildingBlock: XUDNAN_clean_linker_2, # of connection points: 2
#     Edge 134, Type (0, 1), BuildingBlock: XUDNAN_clean_linker_2, # of connection points: 2
#     Edge 135, Type (0, 1), BuildingBlock: XUDNAN_clean_linker_2, # of connection points: 2
# Relax obj value: 0.269
# Max RMSD: 0.444
# Mean RMSD: 0.172
data_MOF--net-gar--node1-QUQFOY_clean_sbu_3--node2-GEDQOX_clean_sbu_0--edge1-XUDNAN_clean_linker_2
_symmetry_space_group_name_H-M    P1
_symmetry_Int_Tables_number       1
_symmetry_cell_setting            triclinic
loop_
_symmetry_equiv_pos_as_xyz
'x, y, z'
_cell_length_a     60.858057
_cell_length_b     60.159624
_cell_length_c     53.858626
_cell_angle_alpha  99.130842
_cell_angle_beta   97.346469
_cell_angle_gamma 99.831211
loop_
_atom_site_label
_atom_site_type_symbol
_atom_site_fract_x
_atom_site_fract_y
_atom_site_fract_z
_atom_type_partial_charge
C0 C 0.08177 0.3945 0.48517 0.0
O1 O 0.09474 0.40949 0.47685 0.0
Cd2 Cd 0.1343 0.40653 0.48208 0.0
O3 O 0.08981 0.37989 0.49616 0.0
Cd4 Cd 0.12246 0.36605 0.51124 0.0
C5 C 0.14194 0.41873 0.54548 0.0
O6 O 0.13283 0.36621 0.4697 0.0
O7 O 0.15495 0.3532 0.49634 0.0
O8 O 0.09094 0.33499 0.50249 0.0
C9 C 0.14912 0.35604 0.47372 0.0
O10 O 0.15043 0.42317 0.52601 0.0
C11 C 0.09688 0.3261 0.52145 0.0
O12 O 0.13093 0.39881 0.54529 0.0
O13 O 0.11559 0.33555 0.53564 0.0
C14 C 0.96632 0.75962 0.68891 0.0
O15 O 0.97034 0.73935 0.68548 0.0
Cd16 Cd 0.98646 0.72276 0.65145 0.0
O17 O 0.97195 0.77358 0.67409 0.0
Cd18 Cd 0.99491 0.77619 0.63849 0.0
C19 C 0.96605 0.73493 0.59908 0.0
O20 O 1.01781 0.75427 0.66089 0.0
O21 O 0.03361 0.77049 0.6333 0.0
O22 O 1.00645 0.81641 0.65872 0.0
C23 C 0.03493 0.75813 0.65015 0.0
O24 O 0.96013 0.73291 0.62037 0.0
C25 C 1.00873 0.82328 0.63794 0.0
O26 O 0.97407 0.75514 0.59672 0.0
O27 O 1.00287 0.80844 0.6176 0.0
C28 C 0.57445 0.89331 0.98189 0.0
O29 O 0.58597 0.90825 0.97202 0.0
Cd30 Cd 0.62518 0.90636 0.97056 0.0
O31 O 0.58393 0.87935 0.99252 0.0
Cd32 Cd 0.61959 0.8692 1.00431 0.0
C33 C 0.64114 0.9237 0.0317 0.0
O34 O 0.62521 0.86652 0.96067 0.0
O35 O 0.65258 0.8593 0.98621 0.0
O36 O 0.59136 0.83576 0.99618 0.0
C37 C 0.64362 0.8595 0.9636 0.0
O38 O 0.6487 0.92396 0.01082 0.0
C39 C 0.59716 0.82839 0.01627 0.0
O40 O 0.62854 0.90555 0.03485 0.0
O41 O 0.61457 0.84 0.03152 0.0
C42 C 0.47043 0.25722 0.19451 0.0
O43 O 0.47577 0.23759 0.19337 0.0
Cd44 Cd 0.49188 0.222 0.15878 0.0
O45 O 0.47425 0.26925 0.17737 0.0
Cd46 Cd 0.49321 0.27016 0.13876 0.0
C47 C 0.4647 0.22584 0.10392 0.0
O48 O 0.52201 0.25544 0.16427 0.0
O49 O 0.52999 0.26503 0.12907 0.0
O50 O 0.49624 0.31134 0.15465 0.0
C51 C 0.53663 0.25945 0.14999 0.0
O52 O 0.46145 0.22406 0.12631 0.0
C53 C 0.50423 0.31724 0.13553 0.0
O54 O 0.46966 0.24613 0.1001 0.0
O55 O 0.50518 0.30134 0.1175 0.0
C56 C 0.99959 0.79783 0.27636 0.0
O57 O 1.01215 0.78569 0.28608 0.0
Cd58 Cd 0.04282 0.79015 0.26201 0.0
O59 O 1.00736 0.80909 0.26013 0.0
Cd60 Cd 0.04762 0.80973 0.24578 0.0
C61 C 0.04126 0.75557 0.21556 0.0
O62 O 0.07852 0.81004 0.28488 0.0
O63 O 0.08957 0.81294 0.24905 0.0
O64 O 0.04424 0.84935 0.24466 0.0
C65 C 0.09499 0.81298 0.27257 0.0
O66 O 0.04532 0.75322 0.23853 0.0
C67 C 0.04608 0.84834 0.22128 0.0
O68 O 0.03895 0.77524 0.2112 0.0
O69 O 0.04966 0.82965 0.20948 0.0
C70 C 0.51336 0.83964 0.36931 0.0
O71 O 0.52694 0.85302 0.35975 0.0
Cd72 Cd 0.56723 0.86241 0.3762 0.0
O73 O 0.52149 0.8296 0.38656 0.0
Cd74 Cd 0.56304 0.83172 0.40756 0.0
C75 C 0.56476 0.88668 0.43501 0.0
O76 O 0.59096 0.83317 0.37534 0.0
O77 O 0.60435 0.84594 0.41479 0.0
O78 O 0.55405 0.79104 0.41207 0.0
C79 C 0.60841 0.83977 0.39248 0.0
O80 O 0.57187 0.89174 0.41503 0.0
C81 C 0.56126 0.79491 0.43589 0.0
O82 O 0.55871 0.86574 0.43657 0.0
O83 O 0.56927 0.81563 0.4463 0.0
C84 C 0.49943 0.3029 0.77175 0.0
O85 O 0.51033 0.29369 0.78762 0.0
Cd86 Cd 0.54699 0.28571 0.77767 0.0
O87 O 0.50881 0.30912 0.75342 0.0
Cd88 Cd 0.54797 0.30983 0.74034 0.0
C89 C 0.54019 0.25327 0.71984 0.0
O90 O 0.57842 0.3178 0.77935 0.0
O91 O 0.58675 0.30138 0.74428 0.0
O92 O 0.55193 0.34825 0.72771 0.0
C93 C 0.5936 0.31147 0.76717 0.0
O94 O 0.54555 0.25228 0.74321 0.0
C95 C 0.5497 0.33994 0.70407 0.0
O96 O 0.53748 0.27222 0.71373 0.0
O97 O 0.54732 0.31836 0.69802 0.0
C98 C 1.01069 0.33675 0.86865 0.0
O99 O 0.02569 0.34575 0.8571 0.0
Cd100 Cd 0.05695 0.34763 0.8894 0.0
O101 O 1.01764 0.32942 0.88871 0.0
Cd102 Cd 0.06212 0.33209 0.90636 0.0
C103 C 0.06617 0.38583 0.93483 0.0
O104 O 0.08731 0.3381 0.87044 0.0
O105 O 0.1039 0.33251 0.90583 0.0
O106 O 0.05342 0.29107 0.90913 0.0
C107 C 0.10536 0.33535 0.88326 0.0
O108 O 0.06211 0.38689 0.9115 0.0
C109 C 0.05948 0.29432 0.93317 0.0
O110 O 0.06758 0.36649 0.9407 0.0
O111 O 0.06648 0.31497 0.94449 0.0
C112 C 0.48829 0.1278 0.37291 0.0
O113 O 0.49322 0.11192 0.35733 0.0
Cd114 Cd 0.48576 0.10405 0.31202 0.0
O115 O 0.47698 0.14221 0.36509 0.0
Cd116 Cd 0.4576 0.14551 0.3208 0.0
C117 C 0.42979 0.08979 0.31196 0.0
O118 O 0.49065 0.14155 0.30195 0.0
O119 O 0.46219 0.14206 0.27459 0.0
O120 O 0.45151 0.18428 0.33695 0.0
C121 C 0.48285 0.14094 0.27896 0.0
O122 O 0.44688 0.08261 0.30481 0.0
C123 C 0.43267 0.18175 0.32238 0.0
O124 O 0.43061 0.11101 0.31972 0.0
O125 O 0.42583 0.16277 0.30714 0.0
C126 C 0.291 0.10722 0.49609 0.0
O127 O 0.27645 0.09982 0.50938 0.0
Cd128 Cd 0.23906 0.10516 0.5152 0.0
O129 O 0.28687 0.12047 0.48052 0.0
Cd130 Cd 0.25637 0.14125 0.47202 0.0
C131 C 0.26289 0.15956 0.53834 0.0
O132 O 0.22501 0.11296 0.47523 0.0
O133 O 0.21605 0.14295 0.46361 0.0
O134 O 0.26619 0.16042 0.43684 0.0
C135 C 0.21009 0.12496 0.4724 0.0
O136 O 0.25214 0.14168 0.54447 0.0
C137 C 0.26996 0.18016 0.45136 0.0
O138 O 0.26519 0.1603 0.51541 0.0
O139 O 0.26743 0.18085 0.47448 0.0
C140 C 0.16201 0.07068 0.8889 0.0
O141 O 0.15539 0.08592 0.87754 0.0
Cd142 Cd 0.15962 0.09292 0.8353 0.0
O143 O 0.17546 0.05835 0.87906 0.0
Cd144 Cd 0.19797 0.05579 0.83772 0.0
C145 C 0.21551 0.11872 0.83725 0.0
O146 O 0.16131 0.05613 0.81312 0.0
O147 O 0.18479 0.04824 0.78879 0.0
O148 O 0.20387 0.0141 0.84426 0.0
C149 C 0.16531 0.05243 0.79055 0.0
O150 O 0.19454 0.11936 0.83449 0.0
C151 C 0.22187 0.01391 0.83455 0.0
O152 O 0.22193 0.09969 0.84064 0.0
O153 O 0.22923 0.03269 0.82755 0.0
C154 C 0.27853 0.95555 0.07606 0.0
O155 O 0.26933 0.96808 0.06265 0.0
Cd156 Cd 0.23089 0.95799 0.04365 0.0
O157 O 0.26706 0.93804 0.08222 0.0
Cd158 Cd 0.22774 0.91756 0.08025 0.0
C159 C 0.23349 0.902 0.01656 0.0
O160 O 0.21727 0.95378 0.0824 0.0
O161 O 0.18831 0.92767 0.08133 0.0
O162 O 0.2428 0.91602 0.12451 0.0
C163 C 0.19641 0.94889 0.08301 0.0
O164 O 0.23321 0.92275 0.01437 0.0
C165 C 0.23575 0.89459 0.12253 0.0
O166 O 0.23093 0.89552 0.03767 0.0
O167 O 0.22393 0.88408 0.1014 0.0
C168 C 0.37646 0.54561 0.15112 0.0
O169 O 0.36004 0.55024 0.1371 0.0
Cd170 Cd 0.32036 0.53533 0.12971 0.0
O171 O 0.37329 0.5305 0.16511 0.0
Cd172 Cd 0.33938 0.50431 0.17087 0.0
C173 C 0.32574 0.48071 0.10829 0.0
O174 O 0.31137 0.52774 0.16915 0.0
O175 O 0.2986 0.49152 0.16376 0.0
O176 O 0.34575 0.49686 0.21402 0.0
C177 C 0.29439 0.51143 0.16423 0.0
O178 O 0.31651 0.49735 0.10336 0.0
C179 C 0.3463 0.47584 0.20621 0.0
O180 O 0.33668 0.48126 0.13015 0.0
O181 O 0.34563 0.4693 0.18252 0.0
C182 C 0.90722 0.19224 0.07611 0.0
O183 O 0.89679 0.18462 0.0929 0.0
Cd184 Cd 0.8603 0.19057 0.09977 0.0
O185 O 0.89999 0.20707 0.06425 0.0
Cd186 Cd 0.86666 0.22767 0.06596 0.0
C187 C 0.86372 0.24595 0.12924 0.0
O188 O 0.84078 0.19096 0.05869 0.0
O189 O 0.82658 0.2209 0.06927 0.0
O190 O 0.8604 0.22548 0.02052 0.0
C191 C 0.82345 0.19968 0.06019 0.0
O192 O 0.85909 0.22463 0.12977 0.0
C193 C 0.85945 0.24626 0.02008 0.0
O194 O 0.86969 0.25269 0.10927 0.0
O195 O 0.86444 0.25993 0.04143 0.0
C196 C 0.11923 0.51975 0.3657 0.0
O197 O 0.10417 0.52471 0.35013 0.0
Cd198 Cd 0.11306 0.53354 0.31033 0.0
O199 O 0.13718 0.5146 0.35841 0.0
Cd200 Cd 0.15307 0.50623 0.31771 0.0
C201 C 0.16869 0.56287 0.32844 0.0
O202 O 0.12037 0.50089 0.28374 0.0
O203 O 0.15321 0.5115 0.2735 0.0
O204 O 0.15459 0.4666 0.32088 0.0
C205 C 0.13202 0.50563 0.26664 0.0
O206 O 0.14777 0.56301 0.32246 0.0
C207 C 0.17593 0.46885 0.32291 0.0
O208 O 0.17585 0.54424 0.32865 0.0
O209 O 0.18694 0.48862 0.32217 0.0
C210 C 0.87932 0.0314 0.6463 0.0
O211 O 0.86745 0.04331 0.63493 0.0
Cd212 Cd 0.82839 0.04404 0.63393 0.0
O213 O 0.87122 0.01831 0.66071 0.0
Cd214 Cd 0.83506 1.00833 0.67662 0.0
C215 C 0.81329 0.98594 0.61424 0.0
O216 O 0.82321 0.04368 0.67663 0.0
O217 O 0.79758 0.01665 0.6822 0.0
O218 O 0.85247 0.99769 0.71548 0.0
C219 C 0.80262 0.03676 0.67771 0.0
O220 O 0.81234 1.00554 0.6084 0.0
C221 C 0.83887 0.97834 0.71094 0.0
O222 O 0.82156 0.98408 0.63648 0.0
O223 O 0.82367 0.97408 0.69146 0.0
C224 C 0.95043 0.08033 0.35793 0.0
O225 O 0.95917 0.06755 0.34254 0.0
Cd226 Cd 0.94663 0.05451 0.29816 0.0
O227 O 0.93393 0.08949 0.34957 0.0
Cd228 Cd 0.91136 0.09109 0.30421 0.0
C229 C 0.89211 0.02862 0.30312 0.0
O230 O 0.94612 0.08924 0.28179 0.0
O231 O 0.91617 0.08806 0.25616 0.0
O232 O 0.91337 0.13514 0.31581 0.0
C233 C 0.93729 0.08828 0.25893 0.0
O234 O 0.91203 0.02689 0.2993 0.0
C235 C 0.89258 0.13646 0.31184 0.0
O236 O 0.88661 0.0487 0.30519 0.0
O237 O 0.87944 0.11687 0.30474 0.0
C238 C 0.40305 0.69137 0.57903 0.0
O239 O 0.38963 0.6817 0.59202 0.0
Cd240 Cd 0.35242 0.68624 0.59648 0.0
O241 O 0.39809 0.70742 0.56765 0.0
Cd242 Cd 0.36348 0.72633 0.56446 0.0
C243 C 0.3578 0.74253 0.62705 0.0
O244 O 0.33661 0.69002 0.55548 0.0
O245 O 0.32305 0.7204 0.56548 0.0
O246 O 0.36042 0.72462 0.51921 0.0
C247 C 0.31946 0.6991 0.5567 0.0
O248 O 0.35227 0.72099 0.62615 0.0
C249 C 0.35907 0.74534 0.51885 0.0
O250 O 0.36493 0.7502 0.60806 0.0
O251 O 0.36263 0.75876 0.54033 0.0
C252 C 0.45024 0.58334 0.85915 0.0
O253 O 0.45653 0.56756 0.84466 0.0
Cd254 Cd 0.44663 0.54857 0.80093 0.0
O255 O 0.43522 0.59413 0.8502 0.0
Cd256 Cd 0.41009 0.59262 0.80531 0.0
C257 C 0.3903 0.52862 0.80531 0.0
O258 O 0.43825 0.57825 0.78079 0.0
O259 O 0.42796 0.60482 0.76455 0.0
O260 O 0.40462 0.63512 0.82218 0.0
C261 C 0.44075 0.59025 0.76384 0.0
O262 O 0.41034 0.52572 0.80354 0.0
C263 C 0.38505 0.63389 0.8096 0.0
O264 O 0.3854 0.54897 0.80547 0.0
O265 O 0.37684 0.61407 0.79589 0.0
C266 C 0.61462 0.01563 0.86483 0.0
O267 O 0.60002 0.02229 0.8503 0.0
Cd268 Cd 0.6064 0.03216 0.81073 0.0
O269 O 0.63213 1.00982 0.85691 0.0
Cd270 Cd 0.64918 1.00319 0.81655 0.0
C271 C 0.66225 0.06122 0.82515 0.0
O272 O 0.61575 1.00018 0.78592 0.0
O273 O 0.64645 1.0044 0.77002 0.0
O274 O 0.65777 0.96419 0.81525 0.0
C275 C 0.62523 1.00324 0.76676 0.0
O276 O 0.64123 0.06164 0.82118 0.0
C277 C 0.67865 0.9715 0.82396 0.0
O278 O 0.66945 0.04251 0.82435 0.0
O279 O 0.68567 0.99307 0.82849 0.0
C280 C 0.80164 0.61456 0.99544 0.0
O281 O 0.78731 0.60122 1.0042 0.0
Cd282 Cd 0.75302 0.6104 0.01607 0.0
O283 O 0.79687 0.63255 0.98831 0.0
Cd284 Cd 0.76561 0.65254 0.98624 0.0
C285 C 0.78211 0.66181 0.0497 0.0
O286 O 0.73299 0.6222 0.98084 0.0
O287 O 0.72916 0.65632 0.99671 0.0
O288 O 0.7697 0.66738 0.94748 0.0
C289 C 0.72022 0.63534 0.98893 0.0
O290 O 0.76999 0.64275 0.05135 0.0
C291 C 0.7728 0.68817 0.95904 0.0
O292 O 0.7834 0.66776 0.02835 0.0
O293 O 0.77232 0.69171 0.98278 0.0
C294 C 0.99085 0.64141 0.87889 0.0
O295 O 1.00671 0.63782 0.86653 0.0
Cd296 Cd 0.99624 0.62176 0.82184 0.0
O297 O 0.97192 0.64348 0.86703 0.0
Cd298 Cd 0.95377 0.64462 0.82222 0.0
C299 C 0.94377 0.58957 0.82523 0.0
O300 O 0.98284 0.64495 0.79364 0.0
O301 O 0.94889 0.62611 0.77874 0.0
O302 O 0.94839 0.6838 0.8196 0.0
C303 C 0.96863 0.63349 0.77457 0.0
O304 O 0.96476 0.59151 0.82397 0.0
C305 C 0.92699 0.67925 0.81753 0.0
O306 O 0.93397 0.60664 0.82488 0.0
O307 O 0.918 0.65902 0.81936 0.0
C308 C 0.77275 0.46645 0.57603 0.0
O309 O 0.7614 0.47177 0.55705 0.0
Cd310 Cd 0.72469 0.4544 0.53251 0.0
O311 O 0.76527 0.44954 0.58623 0.0
Cd312 Cd 0.73055 0.42048 0.58217 0.0
C313 C 0.73692 0.40048 0.51729 0.0
O314 O 0.70713 0.44347 0.5657 0.0
O315 O 0.69548 0.43339 0.59842 0.0
O316 O 0.748 0.41806 0.62494 0.0
C317 C 0.69387 0.44577 0.58157 0.0
O318 O 0.73257 0.41868 0.51005 0.0
C319 C 0.74054 0.39663 0.62281 0.0
O320 O 0.73675 0.39788 0.54046 0.0
O321 O 0.72789 0.38641 0.60196 0.0
C322 C 0.66269 0.57014 0.39056 0.0
O323 O 0.65612 0.58534 0.37914 0.0
Cd324 Cd 0.66169 0.59284 0.33758 0.0
O325 O 0.67636 0.55799 0.38093 0.0
Cd326 Cd 0.69942 0.55561 0.33997 0.0
C327 C 0.71775 0.61893 0.34113 0.0
O328 O 0.66364 0.55646 0.31417 0.0
O329 O 0.68914 0.55214 0.29113 0.0
O330 O 0.69762 0.51181 0.33114 0.0
C331 C 0.66892 0.55451 0.29206 0.0
O332 O 0.69687 0.6198 0.33947 0.0
C333 C 0.71826 0.5104 0.33632 0.0
O334 O 0.72396 0.59938 0.34238 0.0
O335 O 0.73136 0.52993 0.34411 0.0
Nd336 Nd 0.06697 0.09593 0.0848 0.0
Nd337 Nd 0.0386 0.05328 0.07126 0.0
C338 C 0.08329 0.13994 0.10216 0.0
C339 C 0.08516 0.15866 0.08717 0.0
C340 C 0.0729 0.17629 0.09194 0.0
C341 C 0.06983 0.19077 0.07432 0.0
C342 C 0.07871 0.18763 0.05148 0.0
C343 C 0.09216 0.17102 0.04748 0.0
C344 C 0.09554 0.15684 0.06523 0.0
C345 C 0.0754 0.08179 0.03537 0.0
C346 C 1.01702 0.0929 0.05449 0.0
C347 C 0.02138 1.00874 0.0601 0.0
C348 C 0.02387 0.99191 0.07674 0.0
C349 C 1.01895 0.96824 0.06708 0.0
C350 C 0.02112 0.95264 0.08361 0.0
C351 C 0.0281 0.96066 0.1099 0.0
C352 C 0.03387 0.98438 0.11923 0.0
C353 C 0.03183 0.99985 0.10281 0.0
C354 C 0.02848 0.07606 0.11631 0.0
C355 C 0.09038 0.05519 0.09885 0.0
O356 O 0.06257 0.13025 0.10309 0.0
O357 O 0.09631 0.12489 0.09842 0.0
O358 O 0.08248 0.10174 0.04931 0.0
O359 O 0.06193 0.06931 0.04628 0.0
O360 O 0.03269 0.10447 0.07305 0.0
O361 O 1.01747 0.07143 0.0453 0.0
O362 O 0.03998 0.01782 0.05297 0.0
O363 O 1.00983 0.02416 0.06771 0.0
O364 O 1.01394 0.0651 0.09683 0.0
O365 O 0.04866 0.07561 0.11175 0.0
O366 O 0.07056 0.04244 0.08885 0.0
O367 O 0.09348 0.07766 0.10186 0.0
H368 H 0.06459 0.17799 0.10858 0.0
H369 H 0.0594 0.20347 0.07783 0.0
H370 H 0.09945 0.16849 0.03016 0.0
H371 H 0.10531 0.14367 0.061 0.0
H372 H 1.01312 0.96188 0.04694 0.0
H373 H 1.01658 0.93439 0.07605 0.0
H374 H 0.03958 0.99096 0.13937 0.0
H375 H 0.03612 0.01808 0.11058 0.0
Nd376 Nd 0.30833 0.84677 0.33553 0.0
Nd377 Nd 0.30086 0.79977 0.30756 0.0
C378 C 0.31074 0.88824 0.36183 0.0
C379 C 0.31992 0.91128 0.35761 0.0
C380 C 0.30666 0.92815 0.35944 0.0
C381 C 0.31453 0.94965 0.35379 0.0
C382 C 0.33591 0.9547 0.34642 0.0
C383 C 0.34922 0.93773 0.34476 0.0
C384 C 0.34122 0.91616 0.35009 0.0
C385 C 0.34818 0.83582 0.32192 0.0
C386 C 0.2976 0.83856 0.27404 0.0
C387 C 0.30648 0.75829 0.28918 0.0
C388 C 0.29803 0.73669 0.29751 0.0
C389 C 0.3002 0.73575 0.32363 0.0
C390 C 0.28852 0.71706 0.33195 0.0
C391 C 0.2746 0.69887 0.31433 0.0
C392 C 0.27343 0.69914 0.28814 0.0
C393 C 0.28498 0.71801 0.27979 0.0
C394 C 0.25764 0.80785 0.31203 0.0
C395 C 0.30345 0.8054 0.36854 0.0
O396 O 0.2929 0.8771 0.34576 0.0
O397 O 0.32533 0.87533 0.36683 0.0
O398 O 0.34018 0.85365 0.31722 0.0
O399 O 0.3334 0.82293 0.33063 0.0
O400 O 0.29497 0.85165 0.29511 0.0
O401 O 0.3051 0.81943 0.27505 0.0
O402 O 0.32195 0.77318 0.30547 0.0
O403 O 0.29095 0.7678 0.27839 0.0
O404 O 0.26192 0.78885 0.30073 0.0
O405 O 0.27584 0.82217 0.32066 0.0
O406 O 0.29959 0.79109 0.34671 0.0
O407 O 0.30698 0.8278 0.36967 0.0
H408 H 0.29005 0.92455 0.36484 0.0
H409 H 0.3037 0.96219 0.35486 0.0
H410 H 0.36592 0.94111 0.33959 0.0
H411 H 0.35167 0.90332 0.3482 0.0
H412 H 0.31017 0.74985 0.33781 0.0
H413 H 0.28985 0.71713 0.35223 0.0
H414 H 0.26263 0.68535 0.2742 0.0
H415 H 0.28288 0.71849 0.25962 0.0
Nd416 Nd 0.57965 0.08085 0.5691 0.0
Nd417 Nd 0.5285 0.06384 0.58147 0.0
C418 C 0.61553 0.09182 0.54814 0.0
C419 C 0.63631 0.08272 0.55129 0.0
C420 C 0.65547 0.09223 0.542 0.0
C421 C 0.67608 0.08575 0.54885 0.0
C422 C 0.67789 0.07027 0.5658 0.0
C423 C 0.65811 0.05968 0.57355 0.0
C424 C 0.63751 0.06561 0.56602 0.0
C425 C 0.58024 0.0615 0.61282 0.0
C426 C 0.55314 0.02707 0.55007 0.0
C427 C 0.49145 0.05231 0.59992 0.0
C428 C 0.46955 0.05778 0.59091 0.0
C429 C 0.45785 0.06915 0.60814 0.0
C430 C 0.43997 0.07911 0.59915 0.0
C431 C 0.43403 0.07813 0.57289 0.0
C432 C 0.44511 0.06598 0.55571 0.0
C433 C 0.46261 0.05578 0.5646 0.0
C434 C 0.52763 0.08356 0.53783 0.0
C435 C 0.55596 0.11627 0.60298 0.0
O436 O 0.59763 0.07688 0.53599 0.0
O437 O 0.61181 0.10427 0.56895 0.0
O438 O 0.59842 0.07006 0.60477 0.0
O439 O 0.56368 0.06396 0.59795 0.0
O440 O 0.56808 0.04427 0.54585 0.0
O441 O 0.53847 0.02993 0.56589 0.0
O442 O 0.50696 0.07033 0.61089 0.0
O443 O 0.49892 0.03766 0.58388 0.0
O444 O 0.50966 0.07444 0.54582 0.0
O445 O 0.54436 0.08113 0.55255 0.0
O446 O 0.54238 0.09853 0.60809 0.0
O447 O 0.56906 0.11439 0.58522 0.0
H448 H 0.65469 0.10522 0.53027 0.0
H449 H 0.69076 0.09367 0.54175 0.0
H450 H 0.65856 0.04787 0.58673 0.0
H451 H 0.62269 0.05764 0.5728 0.0
H452 H 0.46321 0.07122 0.62849 0.0
H453 H 0.43139 0.08829 0.61264 0.0
H454 H 0.44041 0.06464 0.53534 0.0
H455 H 0.47136 0.04726 0.5508 0.0
Nd456 Nd 0.31096 0.32788 0.8447 0.0
Nd457 Nd 0.29177 0.32031 0.79809 0.0
C458 C 0.32068 0.32854 0.89394 0.0
C459 C 0.31315 0.33912 0.91681 0.0
C460 C 0.30603 0.32545 0.93413 0.0
C461 C 0.29991 0.33542 0.9567 0.0
C462 C 0.30114 0.35925 0.96232 0.0
C463 C 0.30716 0.37269 0.94422 0.0
C464 C 0.31295 0.36267 0.92154 0.0
C465 C 0.32028 0.36953 0.82668 0.0
C466 C 0.25804 0.33426 0.83407 0.0
C467 C 0.28161 0.31804 0.74864 0.0
C468 C 0.28763 0.30438 0.72636 0.0
C469 C 0.3062 0.31321 0.71534 0.0
C470 C 0.31253 0.29985 0.69489 0.0
C471 C 0.30034 0.27753 0.68518 0.0
C472 C 0.2817 0.26881 0.69612 0.0
C473 C 0.27541 0.28209 0.7165 0.0
C474 C 0.28281 0.27885 0.81656 0.0
C475 C 0.34484 0.31497 0.8073 0.0
O476 O 0.30565 0.31253 0.87868 0.0
O477 O 0.33247 0.34226 0.88194 0.0
O478 O 0.33496 0.36059 0.83929 0.0
O479 O 0.30102 0.35612 0.82317 0.0
O480 O 0.27331 0.32892 0.8506 0.0
O481 O 0.26309 0.3361 0.81154 0.0
O482 O 0.29808 0.33321 0.763 0.0
O483 O 0.26844 0.30695 0.76183 0.0
O484 O 0.2679 0.28775 0.80423 0.0
O485 O 0.302 0.29226 0.81963 0.0
O486 O 0.3281 0.31777 0.79084 0.0
O487 O 0.34199 0.31561 0.83108 0.0
H488 H 0.3057 0.30714 0.93044 0.0
H489 H 0.295 0.32463 0.97014 0.0
H490 H 0.30864 0.39116 0.94808 0.0
H491 H 0.31796 0.3735 0.90816 0.0
H492 H 0.31588 0.3304 0.72256 0.0
H493 H 0.32686 0.30695 0.68664 0.0
H494 H 0.27157 0.25188 0.6885 0.0
H495 H 0.26093 0.27486 0.72446 0.0
Nd496 Nd 0.04728 0.09293 0.58898 0.0
Nd497 Nd 0.06297 0.05218 0.5663 0.0
C498 C 0.02552 0.12582 0.60265 0.0
C499 C 0.02432 0.14607 0.59139 0.0
C500 C 1.01285 0.1628 0.60145 0.0
C501 C 1.01423 0.1833 0.59213 0.0
C502 C 0.02719 0.18699 0.57291 0.0
C503 C 0.03805 0.16993 0.56235 0.0
C504 C 0.03656 0.1495 0.57148 0.0
C505 C 0.08853 0.1027 0.57333 0.0
C506 C 0.03219 0.07359 0.5268 0.0
C507 C 0.0851 0.01911 0.55543 0.0
C508 C 0.08697 1.00171 0.57119 0.0
C509 C 0.09724 0.98308 0.56416 0.0
C510 C 0.09606 0.9654 0.57827 0.0
C511 C 0.08456 0.96628 0.59942 0.0
C512 C 0.07511 0.98551 0.60679 0.0
C513 C 0.07623 1.00296 0.59275 0.0
C514 C 0.02139 0.0421 0.58035 0.0
C515 C 0.07624 0.07084 0.62886 0.0
O516 O 1.01554 0.10633 0.58793 0.0
O517 O 0.04577 0.12535 0.61379 0.0
O518 O 0.08358 0.11367 0.59387 0.0
O519 O 0.07176 0.08835 0.5611 0.0
O520 O 0.02729 0.0854 0.54758 0.0
O521 O 0.04822 0.06131 0.52844 0.0
O522 O 0.09534 0.03994 0.56641 0.0
O523 O 0.06445 0.01822 0.5445 0.0
O524 O 0.0269 0.03172 0.55986 0.0
O525 O 0.03787 0.0564 0.59357 0.0
O526 O 0.0825 0.06021 0.60825 0.0
O527 O 0.05952 0.08205 0.62639 0.0
H528 H 1.0035 0.16031 0.61693 0.0
H529 H 1.00596 0.19656 0.6005 0.0
H530 H 0.04825 0.17274 0.54763 0.0
H531 H 0.04563 0.1367 0.56368 0.0
H532 H 0.10539 0.98185 0.5474 0.0
H533 H 0.10348 0.95072 0.57219 0.0
H534 H 0.06555 0.98649 0.62244 0.0
H535 H 0.06762 0.0169 0.59803 0.0
Nd536 Nd 0.32284 0.83604 0.82947 0.0
Nd537 Nd 0.27903 0.81062 0.82129 0.0
C538 C 0.36597 0.85412 0.83233 0.0
C539 C 0.3861 0.8538 0.84993 0.0
C540 C 0.40739 0.86304 0.84498 0.0
C541 C 0.4265 0.86453 0.8629 0.0
C542 C 0.42444 0.85703 0.88612 0.0
C543 C 0.40302 0.84701 0.89052 0.0
C544 C 0.38398 0.84532 0.87248 0.0
C545 C 0.30395 0.83832 0.87388 0.0
C546 C 0.31774 0.77941 0.82791 0.0
C547 C 0.23578 0.79395 0.82068 0.0
C548 C 0.21443 0.79329 0.80451 0.0
C549 C 0.1942 0.78549 0.81289 0.0
C550 C 0.1738 0.78142 0.79634 0.0
C551 C 0.17343 0.78498 0.77112 0.0
C552 C 0.19362 0.79435 0.76333 0.0
C553 C 0.21406 0.79846 0.77996 0.0
C554 C 0.29699 0.80814 0.77655 0.0
C555 C 0.28496 0.86665 0.8199 0.0
O556 O 0.35629 0.83453 0.81779 0.0
O557 O 0.3516 0.86512 0.84234 0.0
O558 O 0.31549 0.85554 0.86673 0.0
O559 O 0.30303 0.82008 0.85813 0.0
O560 O 0.3313 0.79865 0.82607 0.0
O561 O 0.29644 0.7803 0.83024 0.0
O562 O 0.24614 0.81391 0.83381 0.0
O563 O 0.24943 0.78223 0.81027 0.0
O564 O 0.28409 0.79141 0.78299 0.0
O565 O 0.29883 0.82642 0.79257 0.0
O566 O 0.27185 0.84857 0.82515 0.0
O567 O 0.3054 0.86441 0.8153 0.0
H568 H 0.40918 0.8695 0.82753 0.0
H569 H 0.44284 0.87183 0.85869 0.0
H570 H 0.40084 0.84124 0.90826 0.0
H571 H 0.36751 0.83807 0.87644 0.0
H572 H 0.19428 0.78162 0.83187 0.0
H573 H 0.15839 0.77461 0.80294 0.0
H574 H 0.19379 0.79721 0.74399 0.0
H575 H 0.22966 0.80463 0.77332 0.0
Nd576 Nd 0.53005 0.06601 0.0616 0.0
Nd577 Nd 0.57865 0.07849 0.09098 0.0
C578 C 0.48691 0.06301 0.04513 0.0
C579 C 0.4674 0.04897 0.05199 0.0
C580 C 0.44596 0.0543 0.04735 0.0
C581 C 0.42754 0.04096 0.05446 0.0
C582 C 0.43043 0.02218 0.06631 0.0
C583 C 0.45206 0.01712 0.07117 0.0
C584 C 0.47043 0.03049 0.06416 0.0
C585 C 0.54779 0.02861 0.07262 0.0
C586 C 0.53996 0.08003 0.12455 0.0
C587 C 0.62114 0.08001 0.10881 0.0
C588 C 0.64245 0.08926 0.10066 0.0
C589 C 0.65004 0.07734 0.07981 0.0
C590 C 0.66935 0.08723 0.07111 0.0
C591 C 0.68129 0.10923 0.083 0.0
C592 C 0.67369 0.12102 0.1039 0.0
C593 C 0.65465 0.11103 0.1128 0.0
C594 C 0.56037 0.11486 0.0795 0.0
C595 C 0.57081 0.0694 0.02803 0.0
O596 O 0.49841 0.07928 0.0635 0.0
O597 O 0.49973 0.05149 0.03268 0.0
O598 O 0.53256 0.02789 0.05324 0.0
O599 O 0.55063 0.04802 0.08669 0.0
O600 O 0.52662 0.08075 0.10335 0.0
O601 O 0.55977 0.07424 0.12386 0.0
O602 O 0.6083 0.06182 0.09391 0.0
O603 O 0.60973 0.09531 0.11762 0.0
O604 O 0.57407 0.11606 0.10046 0.0
O605 O 0.55818 0.0958 0.06523 0.0
O606 O 0.5846 0.07123 0.04961 0.0
O607 O 0.54899 0.06957 0.02742 0.0
H608 H 0.44348 0.06868 0.03821 0.0
H609 H 0.41098 0.0451 0.0503 0.0
H610 H 0.45479 1.00296 0.08057 0.0
H611 H 0.48704 0.02644 0.06827 0.0
H612 H 0.64097 0.06051 0.07001 0.0
H613 H 0.67495 0.0776 0.05517 0.0
H614 H 0.68219 0.1382 0.11317 0.0
H615 H 0.64916 0.12063 0.12886 0.0
Nd616 Nd 0.28135 0.30469 0.30667 0.0
Nd617 Nd 0.31957 0.3397 0.33477 0.0
C618 C 0.24581 0.27597 0.28 0.0
C619 C 0.22277 0.27465 0.28663 0.0
C620 C 0.21111 0.29268 0.28419 0.0
C621 C 0.19409 0.29612 0.29869 0.0
C622 C 0.18863 0.28182 0.3162 0.0
C623 C 0.19846 0.26226 0.31628 0.0
C624 C 0.2151 0.25857 0.30141 0.0
C625 C 0.28612 0.30666 0.35882 0.0
C626 C 0.27052 0.35314 0.33207 0.0
C627 C 0.35644 0.36765 0.35935 0.0
C628 C 0.37879 0.36624 0.35178 0.0
C629 C 0.39414 0.35647 0.36629 0.0
C630 C 0.41102 0.34728 0.35528 0.0
C631 C 0.41269 0.34745 0.32946 0.0
C632 C 0.39881 0.35938 0.3159 0.0
C633 C 0.38226 0.36886 0.32699 0.0
C634 C 0.31354 0.34033 0.28336 0.0
C635 C 0.32942 0.28969 0.31448 0.0
O636 O 0.2546 0.29472 0.27248 0.0
O637 O 0.2602 0.26977 0.29646 0.0
O638 O 0.26717 0.30518 0.34416 0.0
O639 O 0.30172 0.30789 0.34568 0.0
O640 O 0.26408 0.33521 0.3135 0.0
O641 O 0.29069 0.35741 0.34622 0.0
O642 O 0.34704 0.34998 0.36823 0.0
O643 O 0.34207 0.37409 0.34311 0.0
O644 O 0.33187 0.33705 0.29603 0.0
O645 O 0.29816 0.33744 0.29667 0.0
O646 O 0.33496 0.30799 0.33254 0.0
O647 O 0.31082 0.28647 0.29772 0.0
H648 H 0.21636 0.3053 0.27275 0.0
H649 H 0.18638 0.31093 0.29745 0.0
H650 H 0.19493 0.25081 0.32949 0.0
H651 H 0.22362 0.24443 0.30362 0.0
H652 H 0.3919 0.35422 0.38543 0.0
H653 H 0.42183 0.33879 0.36655 0.0
H654 H 0.39926 0.35979 0.29595 0.0
H655 H 0.37084 0.37627 0.31512 0.0
Nd656 Nd 0.55058 0.59828 0.0937 0.0
Nd657 Nd 0.55695 0.55192 0.06868 0.0
C658 C 0.5356 0.63538 0.11043 0.0
C659 C 0.53237 0.65446 0.09781 0.0
C660 C 0.5251 0.6734 0.11037 0.0
C661 C 0.52411 0.69243 0.09874 0.0
C662 C 0.53017 0.69239 0.07444 0.0
C663 C 0.53674 0.67303 0.06165 0.0
C664 C 0.53791 0.6542 0.07331 0.0
C665 C 0.58815 0.59886 0.07055 0.0
C666 C 0.52801 0.57907 0.03272 0.0
C667 C 0.57309 0.51524 0.05304 0.0
C668 C 0.57751 0.4966 0.06626 0.0
C669 C 0.58483 0.50117 0.09271 0.0
C670 C 0.58303 0.48338 0.10646 0.0
C671 C 0.57389 0.4608 0.09393 0.0
C672 C 0.56842 0.45604 0.06721 0.0
C673 C 0.57017 0.47387 0.05347 0.0
C674 C 0.51877 0.55085 0.09039 0.0
C675 C 0.57769 0.57181 0.13074 0.0
O676 O 0.52217 0.61584 0.10001 0.0
O677 O 0.55672 0.63354 0.1158 0.0
O678 O 0.58789 0.61266 0.09155 0.0
O679 O 0.56901 0.58695 0.06192 0.0
O680 O 0.52739 0.59256 0.05451 0.0
O681 O 0.54096 0.56337 0.03223 0.0
O682 O 0.58605 0.53542 0.06191 0.0
O683 O 0.55168 0.51616 0.04811 0.0
O684 O 0.51932 0.53794 0.0689 0.0
O685 O 0.53782 0.56282 0.09984 0.0
O686 O 0.57962 0.55815 0.10944 0.0
O687 O 0.5642 0.58671 0.12982 0.0
H688 H 0.52084 0.67371 0.12933 0.0
H689 H 0.51915 0.70734 0.10887 0.0
H690 H 0.54198 0.6729 0.04314 0.0
H691 H 0.54382 0.63971 0.06356 0.0
H692 H 0.59059 0.51857 0.10303 0.0
H693 H 0.58757 0.48743 0.12702 0.0
H694 H 0.5611 0.43878 0.05709 0.0
H695 H 0.56422 0.47007 0.03313 0.0
Nd696 Nd 0.82562 0.33829 0.33852 0.0
Nd697 Nd 0.7844 0.30879 0.31555 0.0
C698 C 0.864 0.36822 0.35275 0.0
C699 C 0.88567 0.36803 0.36793 0.0
C700 C 0.90585 0.37599 0.35945 0.0
C701 C 0.92655 0.37624 0.37412 0.0
C702 C 0.92728 0.36876 0.39763 0.0
C703 C 0.90692 0.3605 0.4058 0.0
C704 C 0.88633 0.35988 0.39097 0.0
C705 C 0.80036 0.32578 0.37485 0.0
C706 C 0.82755 0.28318 0.33029 0.0
C707 C 0.74545 0.2799 0.30145 0.0
C708 C 0.72457 0.28128 0.2853 0.0
C709 C 0.70413 0.27912 0.29493 0.0
C710 C 0.6844 0.28132 0.27995 0.0
C711 C 0.68485 0.28555 0.25505 0.0
C712 C 0.7054 0.28781 0.24558 0.0
C713 C 0.72508 0.28588 0.26059 0.0
C714 C 0.80987 0.3218 0.27934 0.0
C715 C 0.78279 0.36382 0.32165 0.0
O716 O 0.85899 0.35459 0.33057 0.0
O717 O 0.8469 0.36803 0.36509 0.0
O718 O 0.82164 0.32491 0.37584 0.0
O719 O 0.79301 0.33151 0.35431 0.0
O720 O 0.83975 0.3043 0.33423 0.0
O721 O 0.80517 0.28069 0.3266 0.0
O722 O 0.75051 0.29399 0.32335 0.0
O723 O 0.76293 0.27843 0.28999 0.0
O724 O 0.78837 0.32156 0.27784 0.0
O725 O 0.81696 0.3158 0.29977 0.0
O726 O 0.77044 0.34275 0.31655 0.0
O727 O 0.80503 0.36637 0.32765 0.0
H728 H 0.90558 0.38207 0.34154 0.0
H729 H 0.94192 0.38227 0.36703 0.0
H730 H 0.90679 0.35495 0.42396 0.0
H731 H 0.87095 0.35335 0.39779 0.0
H732 H 0.70347 0.27589 0.31407 0.0
H733 H 0.66886 0.27977 0.2879 0.0
H734 H 0.70629 0.29061 0.22633 0.0
H735 H 0.74066 0.28793 0.25271 0.0
Nd736 Nd 0.02954 0.55946 0.56086 0.0
Nd737 Nd 0.07451 0.58762 0.59029 0.0
C738 C 0.98973 0.54205 0.53336 0.0
C739 C 0.96741 0.53609 0.54119 0.0
C740 C 0.9532 0.5522 0.54335 0.0
C741 C 0.93312 0.54731 0.55313 0.0
C742 C 0.92686 0.52623 0.56093 0.0
C743 C 0.94098 0.51008 0.55854 0.0
C744 C 0.96092 0.51487 0.54862 0.0
C745 C 0.05607 0.53539 0.58653 0.0
C746 C 0.03021 0.58124 0.61987 0.0
C747 C 0.11396 0.6045 0.6189 0.0
C748 C 0.13665 0.60829 0.61219 0.0
C749 C 0.14161 0.59431 0.59098 0.0
C750 C 0.16181 0.60031 0.58186 0.0
C751 C 0.17724 0.6205 0.59366 0.0
C752 C 0.17248 0.63401 0.61542 0.0
C753 C 0.15234 0.6279 0.62461 0.0
C754 C 0.04798 0.61169 0.56474 0.0
C755 C 0.07341 0.56589 0.53103 0.0
O756 O 0.99869 0.56397 0.53708 0.0
O757 O 1.00441 0.52947 0.53948 0.0
O758 O 0.03427 0.53189 0.58533 0.0
O759 O 0.06242 0.55061 0.57413 0.0
O760 O 1.01763 0.57278 0.59747 0.0
O761 O 0.05256 0.58612 0.62255 0.0
O762 O 0.10379 0.58306 0.61656 0.0
O763 O 0.10089 0.61739 0.60972 0.0
O764 O 0.06976 0.61503 0.56571 0.0
O765 O 0.04157 0.59659 0.57726 0.0
O766 O 0.08634 0.57359 0.55342 0.0
O767 O 0.05109 0.56206 0.52864 0.0
H768 H 0.95772 0.5687 0.53778 0.0
H769 H 0.92239 0.55995 0.55432 0.0
H770 H 0.93677 0.49377 0.56463 0.0
H771 H 0.97148 0.50208 0.54729 0.0
H772 H 0.12953 0.5792 0.58091 0.0
H773 H 0.16511 0.58941 0.56527 0.0
H774 H 0.1838 0.64989 0.62468 0.0
H775 H 0.14855 0.63907 0.64069 0.0
Nd776 Nd 0.81435 0.83002 0.35078 0.0
Nd777 Nd 0.79336 0.82141 0.30542 0.0
C778 C 0.82771 0.83405 0.40014 0.0
C779 C 0.82252 0.84667 0.42359 0.0
C780 C 0.80846 0.835 0.43804 0.0
C781 C 0.80276 0.84678 0.45992 0.0
C782 C 0.81128 0.87039 0.46789 0.0
C783 C 0.82554 0.88202 0.45354 0.0
C784 C 0.83106 0.87028 0.43152 0.0
C785 C 0.82329 0.8704 0.33018 0.0
C786 C 0.76087 0.83466 0.34414 0.0
C787 C 0.78093 0.8183 0.25601 0.0
C788 C 0.78849 0.80715 0.23346 0.0
C789 C 0.81163 0.80859 0.2322 0.0
C790 C 0.81848 0.79469 0.21259 0.0
C791 C 0.80226 0.77911 0.19437 0.0
C792 C 0.77918 0.77857 0.19494 0.0
C793 C 0.77235 0.79255 0.21437 0.0
C794 C 0.78508 0.78065 0.32543 0.0
C795 C 0.84567 0.81288 0.31372 0.0
O796 O 0.81138 0.81795 0.38701 0.0
O797 O 0.83873 0.84594 0.3858 0.0
O798 O 0.83844 0.86078 0.34098 0.0
O799 O 0.80388 0.85783 0.32898 0.0
O800 O 0.77843 0.83262 0.36001 0.0
O801 O 0.76265 0.83342 0.32003 0.0
O802 O 0.79499 0.83583 0.27021 0.0
O803 O 0.77122 0.80431 0.26925 0.0
O804 O 0.76969 0.79001 0.31467 0.0
O805 O 0.80426 0.79363 0.32678 0.0
O806 O 0.83048 0.8189 0.29766 0.0
O807 O 0.84124 0.81191 0.33661 0.0
H808 H 0.80172 0.81676 0.43232 0.0
H809 H 0.79159 0.83744 0.4705 0.0
H810 H 0.83275 0.90014 0.45953 0.0
H811 H 0.84203 0.87972 0.42082 0.0
H812 H 0.8244 0.81972 0.24684 0.0
H813 H 0.83635 0.79531 0.21234 0.0
H814 H 0.76644 0.76684 0.18073 0.0
H815 H 0.75447 0.79121 0.21516 0.0
Nd816 Nd 0.80629 0.34701 0.83648 0.0
Nd817 Nd 0.79961 0.29957 0.80883 0.0
C818 C 0.80753 0.38854 0.86204 0.0
C819 C 0.81767 0.41133 0.85813 0.0
C820 C 0.82503 0.42917 0.87916 0.0
C821 C 0.83815 0.44976 0.87643 0.0
C822 C 0.84396 0.45275 0.8526 0.0
C823 C 0.8355 0.43537 0.83122 0.0
C824 C 0.82254 0.41466 0.834 0.0
C825 C 0.84609 0.33661 0.82241 0.0
C826 C 0.79684 0.33824 0.7749 0.0
C827 C 0.80497 0.25801 0.79063 0.0
C828 C 0.79474 0.23607 0.79724 0.0
C829 C 0.79841 0.23244 0.82251 0.0
C830 C 0.78597 0.21343 0.8296 0.0
C831 C 0.76952 0.19768 0.81165 0.0
C832 C 0.76648 0.20082 0.78619 0.0
C833 C 0.779 0.21984 0.77906 0.0
C834 C 0.75612 0.30747 0.81215 0.0
C835 C 0.80219 0.30567 0.86983 0.0
O836 O 0.7904 0.37725 0.845 0.0
O837 O 0.82199 0.37581 0.86811 0.0
O838 O 0.83827 0.35476 0.8187 0.0
O839 O 0.83179 0.32353 0.83147 0.0
O840 O 0.79379 0.35144 0.79568 0.0
O841 O 0.8042 0.31906 0.7762 0.0
O842 O 0.81965 0.27216 0.80851 0.0
O843 O 0.79098 0.2684 0.77851 0.0
O844 O 0.76075 0.28829 0.8018 0.0
O845 O 0.77427 0.32182 0.82098 0.0
O846 O 0.79855 0.29125 0.84809 0.0
O847 O 0.80528 0.32807 0.8708 0.0
H848 H 0.82156 0.42677 0.8979 0.0
H849 H 0.84464 0.463 0.89314 0.0
H850 H 0.84009 0.43726 0.81277 0.0
H851 H 0.81725 0.40089 0.8176 0.0
H852 H 0.81032 0.24466 0.8371 0.0
H853 H 0.78893 0.21131 0.84927 0.0
H854 H 0.75375 0.18913 0.77197 0.0
H855 H 0.77568 0.22237 0.75956 0.0
Nd856 Nd 0.78166 0.80876 0.7938 0.0
Nd857 Nd 0.81903 0.83375 0.83299 0.0
C858 C 0.74394 0.79421 0.76146 0.0
C859 C 0.72158 0.79395 0.76976 0.0
C860 C 0.7125 0.81403 0.77208 0.0
C861 C 0.6969 0.81729 0.78856 0.0
C862 C 0.69005 0.80064 0.80296 0.0
C863 C 0.69698 0.77946 0.79829 0.0
C864 C 0.71243 0.77607 0.78168 0.0
C865 C 0.7831 0.79143 0.83779 0.0
C866 C 0.77382 0.85535 0.82931 0.0
C867 C 0.85406 0.85365 0.8673 0.0
C868 C 0.87722 0.85427 0.86134 0.0
C869 C 0.89082 0.84057 0.87219 0.0
C870 C 0.90741 0.83263 0.85942 0.0
C871 C 0.91026 0.83774 0.83521 0.0
C872 C 0.89886 0.85415 0.82639 0.0
C873 C 0.8828 0.86256 0.83949 0.0
C874 C 0.82512 0.84091 0.78456 0.0
C875 C 0.82488 0.78691 0.80012 0.0
O876 O 0.75645 0.81446 0.76285 0.0
O877 O 0.75563 0.78015 0.77043 0.0
O878 O 0.77888 0.77911 0.81523 0.0
O879 O 0.78614 0.81254 0.83718 0.0
O880 O 0.76491 0.83754 0.81114 0.0
O881 O 0.79441 0.85772 0.84181 0.0
O882 O 0.84285 0.83306 0.86761 0.0
O883 O 0.84183 0.86552 0.85488 0.0
O884 O 0.84015 0.83578 0.80066 0.0
O885 O 0.80714 0.84044 0.79369 0.0
O886 O 0.82703 0.79785 0.82374 0.0
O887 O 0.81102 0.79207 0.78186 0.0
H888 H 0.71888 0.82807 0.76296 0.0
H889 H 0.69116 0.83336 0.79128 0.0
H890 H 0.69199 0.76617 0.80901 0.0
H891 H 0.71883 0.76025 0.78018 0.0
H892 H 0.88714 0.83415 0.8892 0.0
H893 H 0.91675 0.82113 0.86774 0.0
H894 H 0.90056 0.85905 0.80819 0.0
H895 H 0.87298 0.87348 0.83069 0.0
Nd896 Nd 0.57054 0.598 0.58783 0.0
Nd897 Nd 0.53995 0.55801 0.57547 0.0
C898 C 0.58643 0.64174 0.60631 0.0
C899 C 0.58297 0.66101 0.59293 0.0
C900 C 0.56113 0.66567 0.58729 0.0
C901 C 0.55673 0.68023 0.5703 0.0
C902 C 0.57406 0.69083 0.55876 0.0
C903 C 0.59619 0.6875 0.56561 0.0
C904 C 0.60058 0.67261 0.58243 0.0
C905 C 0.57837 0.58323 0.5387 0.0
C906 C 0.52011 0.59952 0.55917 0.0
C907 C 0.51965 0.51428 0.56612 0.0
C908 C 0.5253 0.49452 0.57712 0.0
C909 C 0.53185 0.47635 0.56197 0.0
C910 C 0.53732 0.45774 0.57241 0.0
C911 C 0.53617 0.45683 0.59819 0.0
C912 C 0.53001 0.47528 0.61341 0.0
C913 C 0.52475 0.49391 0.60306 0.0
C914 C 0.53323 0.58183 0.62165 0.0
C915 C 0.59236 0.55641 0.59931 0.0
O916 O 0.56836 0.63034 0.61272 0.0
O917 O 0.5991 0.62812 0.59674 0.0
O918 O 0.58782 0.60234 0.5535 0.0
O919 O 0.56365 0.57147 0.54905 0.0
O920 O 0.53975 0.61064 0.57152 0.0
O921 O 0.51625 0.57699 0.55382 0.0
O922 O 0.53318 0.52288 0.55165 0.0
O923 O 0.51347 0.53017 0.58145 0.0
O924 O 0.51802 0.57461 0.60165 0.0
O925 O 0.55247 0.57857 0.61594 0.0
O926 O 0.57188 0.54474 0.5899 0.0
O927 O 0.59659 0.57888 0.60316 0.0
H928 H 0.54707 0.65723 0.59502 0.0
H929 H 0.53956 0.68269 0.56561 0.0
H930 H 0.60986 0.69541 0.55692 0.0
H931 H 0.61753 0.66934 0.58628 0.0
H932 H 0.5327 0.47652 0.54203 0.0
H933 H 0.54239 0.44404 0.56023 0.0
H934 H 0.52859 0.47509 0.63321 0.0
H935 H 0.52002 0.50772 0.61545 0.0
Nd936 Nd 0.07448 0.58115 0.06885 0.0
Nd937 Nd 0.03299 0.56221 0.07804 0.0
C938 C 0.11354 0.59329 0.05395 0.0
C939 C 0.13467 0.58549 0.06066 0.0
C940 C 0.1459 0.57633 0.04146 0.0
C941 C 0.16421 0.56596 0.04767 0.0
C942 C 0.17152 0.56495 0.07316 0.0
C943 C 0.16047 0.57437 0.09234 0.0
C944 C 0.14213 0.58443 0.08616 0.0
C945 C 0.07759 0.56316 0.11362 0.0
C946 C 0.05504 0.52779 0.04521 0.0
C947 C 0.99529 0.55196 0.0962 0.0
C948 C 0.97717 0.56481 0.0939 0.0
C949 C 0.95604 0.55695 0.10025 0.0
C950 C 0.9382 0.568 0.09421 0.0
C951 C 0.94135 0.58673 0.0814 0.0
C952 C 0.96296 0.59507 0.07625 0.0
C953 C 0.98071 0.58426 0.08255 0.0
C954 C 0.02851 0.57844 0.03235 0.0
C955 C 0.05179 0.61603 0.09943 0.0
O956 O 0.09725 0.57757 0.04002 0.0
O957 O 0.10671 0.60568 0.07252 0.0
O958 O 0.08788 0.58336 0.11191 0.0
O959 O 0.06596 0.5535 0.0926 0.0
O960 O 0.06555 0.54699 0.03984 0.0
O961 O 0.04379 0.52859 0.0644 0.0
O962 O 1.01397 0.56352 0.1105 0.0
O963 O 0.99871 0.54128 0.0744 0.0
O964 O 1.01769 0.55918 0.03611 0.0
O965 O 0.04122 0.589 0.05261 0.0
O966 O 0.04226 0.59707 0.10608 0.0
O967 O 0.06244 0.6145 0.07981 0.0
H968 H 0.14007 0.5766 0.02166 0.0
H969 H 0.17255 0.55862 0.03267 0.0
H970 H 0.16562 0.57332 0.11208 0.0
H971 H 0.13344 0.59075 0.10134 0.0
H972 H 0.95316 0.54189 0.10896 0.0
H973 H 0.92178 0.56139 0.09871 0.0
H974 H 0.96597 0.60906 0.06592 0.0
H975 H 0.99698 0.59038 0.0773 0.0
H976 H 0.07253 0.29661 0.98454 0.0
H977 H 0.04547 0.24845 0.9139 0.0
H978 H 0.04594 0.21621 0.93705 0.0
H979 H 0.11025 0.26396 0.00999 0.0
H980 H 0.10576 0.27144 0.04246 0.0
H981 H 0.10219 0.29091 0.02076 0.0
H982 H 0.06152 0.2911 0.03007 0.0
H983 H 0.065 0.27165 0.05185 0.0
H984 H 0.04175 0.26429 0.0258 0.0
H985 H 0.05059 0.18918 0.96723 0.0
H986 H 0.05963 0.16898 1.00263 0.0
H987 H 0.08369 0.23435 0.05395 0.0
C988 C 0.06652 0.27929 0.97396 0.0
C989 C 0.05893 0.27505 0.94733 0.0
C990 C 0.05132 0.25213 0.93424 0.0
C991 C 0.05151 0.2337 0.94724 0.0
C992 C 0.05925 0.23845 0.97338 0.0
C993 C 0.06657 0.26067 0.98667 0.0
C994 C 0.07463 0.26097 0.01462 0.0
C995 C 0.09969 0.27249 0.0224 0.0
C996 C 0.05984 0.2727 0.03158 0.0
C997 C 0.0711 0.23543 0.01484 0.0
C998 C 0.06205 0.22279 0.99086 0.0
C999 C 0.05768 0.19888 0.98608 0.0
C1000 C 0.06297 0.18758 0.00623 0.0
C1001 C 0.07253 0.20015 0.03086 0.0
C1002 C 0.07633 0.22438 0.03529 0.0
H1003 H 0.13344 0.81889 0.2498 0.0
H1004 H 0.1116 0.8103 0.32184 0.0
H1005 H 0.15102 0.81059 0.34048 0.0
H1006 H 0.17332 0.78261 0.2509 0.0
H1007 H 0.19373 0.80025 0.23715 0.0
H1008 H 0.16421 0.80112 0.23008 0.0
H1009 H 0.17321 0.84511 0.2459 0.0
H1010 H 0.20281 0.84436 0.25301 0.0
H1011 H 0.18855 0.85674 0.27749 0.0
H1012 H 0.19338 0.81056 0.35107 0.0
H1013 H 0.23385 0.80848 0.35177 0.0
H1014 H 0.22816 0.81587 0.27269 0.0
C1015 C 0.13694 0.81734 0.26961 0.0
C1016 C 0.11919 0.8147 0.28435 0.0
C1017 C 0.12472 0.81252 0.31012 0.0
C1018 C 0.14716 0.81267 0.3209 0.0
C1019 C 0.16418 0.81513 0.30581 0.0
C1020 C 0.15931 0.81748 0.28069 0.0
C1021 C 0.18056 0.81912 0.26832 0.0
C1022 C 0.17778 0.79961 0.24525 0.0
C1023 C 0.18664 0.84273 0.26073 0.0
C1024 C 0.19798 0.81648 0.29006 0.0
C1025 C 0.18829 0.81467 0.31171 0.0
C1026 C 0.20107 0.8121 0.33422 0.0
C1027 C 0.22411 0.81105 0.33453 0.0
C1028 C 0.23424 0.81229 0.31245 0.0
C1029 C 0.22093 0.81513 0.28997 0.0
H1030 H 0.58155 0.9333 0.44248 0.0
H1031 H 0.54167 0.88132 0.47462 0.0
H1032 H 0.53485 0.91143 0.50781 0.0
H1033 H 0.60753 0.97016 0.50371 0.0
H1034 H 0.60696 0.9963 0.4915 0.0
H1035 H 0.60938 0.97058 0.47064 0.0
H1036 H 0.57403 0.97404 0.44012 0.0
H1037 H 0.57147 0.99966 0.461 0.0
H1038 H 0.54799 0.9757 0.45232 0.0
H1039 H 0.53043 0.94722 0.5361 0.0
H1040 H 0.53087 0.98623 0.55915 0.0
H1041 H 0.57461 0.01487 0.50965 0.0
C1042 C 0.57153 0.92823 0.4566 0.0
C1043 C 0.56212 0.9049 0.45586 0.0
C1044 C 0.54914 0.89903 0.47478 0.0
C1045 C 0.54511 0.91602 0.49372 0.0
C1046 C 0.55438 0.93883 0.49373 0.0
C1047 C 0.56755 0.94498 0.47588 0.0
C1048 C 0.57548 0.97078 0.48023 0.0
C1049 C 0.60137 0.97733 0.48692 0.0
C1050 C 0.56671 0.98061 0.45704 0.0
C1051 C 0.56437 0.97814 0.50296 0.0
C1052 C 0.55225 0.95946 0.51044 0.0
C1053 C 0.54004 0.96199 0.53057 0.0
C1054 C 0.54034 0.98423 0.5435 0.0
C1055 C 0.55287 1.00364 0.53634 0.0
C1056 C 0.56503 1.00042 0.51579 0.0
H1057 H 0.4797 0.32172 0.81203 0.0
H1058 H 0.464 0.28581 0.73362 0.0
H1059 H 0.42328 0.28441 0.73472 0.0
H1060 H 0.43269 0.29448 0.83638 0.0
H1061 H 0.42773 0.32023 0.85514 0.0
H1062 H 0.45569 0.31855 0.84839 0.0
H1063 H 0.4572 0.35532 0.82889 0.0
H1064 H 0.42926 0.35715 0.83573 0.0
H1065 H 0.43514 0.35652 0.8037 0.0
H1066 H 0.38413 0.28625 0.74425 0.0
H1067 H 0.34931 0.29265 0.76082 0.0
H1068 H 0.38919 0.32823 0.83316 0.0
C1069 C 0.46764 0.31363 0.79511 0.0
C1070 C 0.47509 0.30376 0.77269 0.0
C1071 C 0.45877 0.29359 0.75089 0.0
C1072 C 0.43556 0.29264 0.75139 0.0
C1073 C 0.42874 0.30244 0.77369 0.0
C1074 C 0.44428 0.31311 0.79505 0.0
C1075 C 0.4323 0.32326 0.81609 0.0
C1076 C 0.43741 0.31353 0.84044 0.0
C1077 C 0.43887 0.34962 0.82143 0.0
C1078 C 0.40757 0.31532 0.8038 0.0
C1079 C 0.40603 0.3037 0.77914 0.0
C1080 C 0.38518 0.29533 0.76352 0.0
C1081 C 0.36543 0.29904 0.77313 0.0
C1082 C 0.36635 0.31071 0.79837 0.0
C1083 C 0.38782 0.31886 0.81394 0.0
H1084 H 0.02413 0.83912 0.59753 0.0
H1085 H 0.02002 0.85993 0.67752 0.0
H1086 H 0.04299 0.89803 0.67745 0.0
H1087 H 0.08199 0.8686 0.60133 0.0
H1088 H 0.07694 0.87623 0.57036 0.0
H1089 H 0.06066 0.8504 0.57677 0.0
H1090 H 0.02345 0.86404 0.56331 0.0
H1091 H 0.03961 0.88959 0.55636 0.0
H1092 H 1.01965 0.89186 0.57822 0.0
H1093 H 0.06627 0.93353 0.66859 0.0
H1094 H 0.08408 0.96582 0.65024 0.0
H1095 H 0.07205 0.92141 0.57599 0.0
C1096 C 0.02786 0.85174 0.615 0.0
C1097 C 0.02024 0.84672 0.63752 0.0
C1098 C 0.02568 0.86356 0.66005 0.0
C1099 C 0.03885 0.88511 0.66025 0.0
C1100 C 0.04656 0.8893 0.63785 0.0
C1101 C 0.04111 0.87316 0.6156 0.0
C1102 C 0.05097 0.88211 0.59392 0.0
C1103 C 0.06869 0.86852 0.58508 0.0
C1104 C 0.03231 0.88191 0.57166 0.0
C1105 C 0.062 0.90621 0.6072 0.0
C1106 C 0.05978 0.90982 0.63267 0.0
C1107 C 0.06813 0.93094 0.64868 0.0
C1108 C 0.07819 0.94914 0.63808 0.0
C1109 C 0.07935 0.94613 0.61166 0.0
C1110 C 0.07182 0.92417 0.5963 0.0
H1111 H 0.54702 0.91695 0.9566 0.0
H1112 H 0.5458 0.85938 0.99631 0.0
H1113 H 0.50543 0.84606 0.97969 0.0
H1114 H 0.48671 0.92418 0.96363 0.0
H1115 H 0.48267 0.93184 0.93257 0.0
H1116 H 0.51022 0.93948 0.952 0.0
H1117 H 0.52682 0.91875 0.91497 0.0
H1118 H 0.49938 0.91041 0.89568 0.0
H1119 H 0.51543 0.88884 0.90215 0.0
H1120 H 0.46842 0.83423 0.95151 0.0
H1121 H 0.43502 0.82786 0.91818 0.0
H1122 H 0.45914 0.89426 0.89899 0.0
C1123 C 0.53805 0.90209 0.96262 0.0
C1124 C 0.54959 0.88917 0.97753 0.0
C1125 C 0.53734 0.86961 0.98483 0.0
C1126 C 0.51436 0.86186 0.97551 0.0
C1127 C 0.50378 0.87417 0.95951 0.0
C1128 C 0.51502 0.89424 0.95372 0.0
C1129 C 0.50022 0.90314 0.9344 0.0
C1130 C 0.49462 0.92602 0.94637 0.0
C1131 C 0.51112 0.90539 0.91039 0.0
C1132 C 0.47962 0.88406 0.92891 0.0
C1133 C 0.48188 0.86766 0.94381 0.0
C1134 C 0.46602 0.84733 0.94034 0.0
C1135 C 0.44715 0.84385 0.92135 0.0
C1136 C 0.44438 0.86064 0.90613 0.0
C1137 C 0.46079 0.88104 0.91021 0.0
H1138 H 0.50727 0.22237 0.12109 0.0
H1139 H 0.45124 0.19354 0.06034 0.0
H1140 H 0.47259 0.16433 0.04337 0.0
H1141 H 0.55394 0.21029 0.08534 0.0
H1142 H 0.5696 0.20349 0.11294 0.0
H1143 H 0.55184 0.22444 0.11677 0.0
H1144 H 0.53074 0.20139 0.14646 0.0
H1145 H 0.54826 0.18032 0.14236 0.0
H1146 H 0.51797 0.17157 0.13491 0.0
H1147 H 0.49849 0.1362 0.03626 0.0
H1148 H 0.52554 0.11021 0.04063 0.0
H1149 H 0.56309 0.15682 0.1083 0.0
C1150 C 0.49971 0.21018 0.10404 0.0
C1151 C 0.47777 0.21001 0.09201 0.0
C1152 C 0.46817 0.19383 0.06966 0.0
C1153 C 0.48019 0.17734 0.05992 0.0
C1154 C 0.50168 0.17758 0.07282 0.0
C1155 C 0.51136 0.19368 0.0944 0.0
C1156 C 0.53341 0.18886 0.10659 0.0
C1157 C 0.55337 0.2079 0.10532 0.0
C1158 C 0.53251 0.18531 0.13419 0.0
C1159 C 0.53416 0.16688 0.08917 0.0
C1160 C 0.5161 0.16096 0.06939 0.0
C1161 C 0.51281 0.1408 0.05149 0.0
C1162 C 0.52819 0.12615 0.05417 0.0
C1163 C 0.54619 0.13159 0.07493 0.0
C1164 C 0.54945 0.15237 0.09227 0.0
H1165 H 0.16734 0.36934 0.43372 0.0
H1166 H 0.14115 0.30978 0.46462 0.0
H1167 H 0.14344 0.28439 0.42447 0.0
H1168 H 0.14143 0.34871 0.36801 0.0
H1169 H 0.1659 0.36039 0.35523 0.0
H1170 H 0.16064 0.37419 0.38549 0.0
H1171 H 0.20007 0.37106 0.4071 0.0
H1172 H 0.20601 0.35747 0.37721 0.0
H1173 H 0.20825 0.34344 0.40427 0.0
H1174 H 0.14722 0.2659 0.3807 0.0
H1175 H 0.16028 0.25428 0.34005 0.0
H1176 H 0.18834 0.32573 0.34012 0.0
C1177 C 0.16244 0.35092 0.43201 0.0
C1178 C 0.15449 0.34127 0.4521 0.0
C1179 C 0.14785 0.31723 0.44944 0.0
C1180 C 0.14869 0.3028 0.42664 0.0
C1181 C 0.1564 0.31279 0.40695 0.0
C1182 C 0.1637 0.33624 0.40963 0.0
C1183 C 0.17343 0.34237 0.3866 0.0
C1184 C 0.15952 0.3573 0.37305 0.0
C1185 C 0.19841 0.35427 0.39424 0.0
C1186 C 0.17066 0.31864 0.37067 0.0
C1187 C 0.16015 0.30194 0.38241 0.0
C1188 C 0.15577 0.27877 0.37142 0.0
C1189 C 0.16337 0.27234 0.34836 0.0
C1190 C 0.17583 0.28898 0.33692 0.0
C1191 C 0.17874 0.3125 0.34795 0.0
H1192 H 0.96514 0.05931 0.23873 0.0
H1193 H 0.94134 0.12193 0.23008 0.0
H1194 H 0.96495 0.12726 0.19644 0.0
H1195 H 0.0225 0.07621 0.22606 0.0
H1196 H 0.02332 0.0488 0.20736 0.0
H1197 H 1.00571 0.05036 0.23184 0.0
H1198 H 0.97078 0.02918 0.19888 0.0
H1199 H 0.98837 0.02732 0.17442 0.0
H1200 H 0.96387 0.0403 0.1703 0.0
H1201 H 0.99263 0.12658 0.16389 0.0
H1202 H 1.01626 0.1168 0.13115 0.0
H1203 H 1.01954 0.05242 0.1562 0.0
C1204 C 0.96494 0.07419 0.22978 0.0
C1205 C 0.9513 0.09038 0.23753 0.0
C1206 C 0.95146 0.10931 0.2248 0.0
C1207 C 0.96501 0.11253 0.20564 0.0
C1208 C 0.97829 0.09645 0.19856 0.0
C1209 C 0.97795 0.07731 0.20985 0.0
C1210 C 0.99253 0.06176 0.19724 0.0
C1211 C 1.01218 0.05912 0.2168 0.0
C1212 C 0.97802 0.03824 0.18445 0.0
C1213 C 1.00127 0.07517 0.17734 0.0
C1214 C 0.99315 0.09538 0.17884 0.0
C1215 C 0.99897 0.11076 0.16269 0.0
C1216 C 1.01269 0.10516 0.14417 0.0
C1217 C 0.02056 0.08419 0.14123 0.0
C1218 C 1.01468 0.06903 0.15834 0.0
H1219 H 0.36379 0.78838 0.50439 0.0
H1220 H 0.33165 0.7166 0.4794 0.0
H1221 H 0.31153 0.72578 0.44114 0.0
H1222 H 0.3171 0.81331 0.48031 0.0
H1223 H 0.33429 0.83581 0.46889 0.0
H1224 H 0.34592 0.82438 0.49552 0.0
H1225 H 0.3786 0.81476 0.47199 0.0
H1226 H 0.36725 0.82649 0.44549 0.0
H1227 H 0.37215 0.79751 0.44043 0.0
H1228 H 0.29375 0.74169 0.40686 0.0
H1229 H 0.28396 0.76275 0.37298 0.0
H1230 H 0.32915 0.82444 0.41614 0.0
C1231 C 0.3526 0.77467 0.49074 0.0
C1232 C 0.34932 0.75175 0.49495 0.0
C1233 C 0.33465 0.73423 0.47657 0.0
C1234 C 0.32291 0.73929 0.45484 0.0
C1235 C 0.32622 0.76192 0.45136 0.0
C1236 C 0.34107 0.77933 0.4683 0.0
C1237 C 0.34245 0.80185 0.45849 0.0
C1238 C 0.33446 0.81991 0.47691 0.0
C1239 C 0.36654 0.81067 0.45381 0.0
C1240 C 0.32595 0.79421 0.43355 0.0
C1241 C 0.31658 0.77115 0.43031 0.0
C1242 C 0.30104 0.75973 0.40903 0.0
C1243 C 0.29555 0.7719 0.38989 0.0
C1244 C 0.30579 0.79522 0.39182 0.0
C1245 C 0.32078 0.80673 0.4143 0.0
H1246 H 0.6203 0.98844 0.71485 0.0
H1247 H 0.60726 0.04181 0.77196 0.0
H1248 H 0.59002 0.05966 0.7386 0.0
H1249 H 0.63651 0.02378 0.67184 0.0
H1250 H 0.62299 1.0036 0.64334 0.0
H1251 H 0.63202 0.99335 0.67182 0.0
H1252 H 0.59135 0.97078 0.66988 0.0
H1253 H 0.58214 0.98115 0.64144 0.0
H1254 H 0.56811 0.98578 0.66878 0.0
H1255 H 0.57586 0.0732 0.69916 0.0
H1256 H 0.569 0.08302 0.6562 0.0
H1257 H 0.59254 0.02242 0.62409 0.0
C1258 C 0.61343 1.00365 0.72021 0.0
C1259 C 0.61431 0.01318 0.74612 0.0
C1260 C 0.60574 0.03344 0.75244 0.0
C1261 C 0.59606 0.0439 0.73351 0.0
C1262 C 0.59504 0.03393 0.70817 0.0
C1263 C 0.60355 0.0143 0.70141 0.0
C1264 C 0.60144 1.00794 0.67267 0.0
C1265 C 0.62462 1.00714 0.66445 0.0
C1266 C 0.58478 0.98505 0.6626 0.0
C1267 C 0.59171 0.02777 0.66456 0.0
C1268 C 0.58748 0.04218 0.68531 0.0
C1269 C 0.57884 0.06191 0.68272 0.0
C1270 C 0.57487 0.0673 0.65832 0.0
C1271 C 0.57995 0.05325 0.63705 0.0
C1272 C 0.58822 0.03316 0.64015 0.0
H1273 H 0.3012 0.47072 0.05999 0.0
H1274 H 0.34139 0.44188 0.11475 0.0
H1275 H 0.33316 0.40493 0.08529 0.0
H1276 H 0.25827 0.41794 0.0343 0.0
H1277 H 0.25651 0.42314 1.00212 0.0
H1278 H 0.26324 0.44696 0.02855 0.0
H1279 H 0.30004 0.46273 0.01213 0.0
H1280 H 0.29316 0.43921 0.98553 0.0
H1281 H 0.31993 0.44423 0.00622 0.0
H1282 H 0.32398 0.37271 0.04953 0.0
H1283 H 0.318 0.3484 0.00723 0.0
H1284 H 0.28214 0.39667 0.9756 0.0
C1285 C 0.30814 0.45659 0.06583 0.0
C1286 C 0.32184 0.45919 0.08969 0.0
C1287 C 0.3308 0.44034 0.09656 0.0
C1288 C 0.32603 0.41916 0.08011 0.0
C1289 C 0.31222 0.41707 0.05692 0.0
C1290 C 0.30356 0.43526 0.04961 0.0
C1291 C 0.29103 0.42892 0.0226 0.0
C1292 C 0.26576 0.42926 0.02187 0.0
C1293 C 0.30169 0.4447 1.00563 0.0
C1294 C 0.29486 0.40469 0.01566 0.0
C1295 C 0.30669 0.39805 0.03595 0.0
C1296 C 0.31426 0.3774 0.03358 0.0
C1297 C 0.3106 0.36359 0.00947 0.0
C1298 C 0.29952 0.37062 0.98815 0.0
C1299 C 0.29064 0.39088 0.99159 0.0
H1300 H 0.97628 0.11296 0.39959 0.0
H1301 H 0.93935 0.04273 0.37744 0.0
H1302 H 0.95576 0.03395 0.41807 0.0
H1303 H 0.02623 0.10174 0.43067 0.0
H1304 H 0.03154 0.12536 0.45723 0.0
H1305 H 1.01559 0.1275 0.42743 0.0
H1306 H 0.98236 0.13644 0.45028 0.0
H1307 H 0.99839 0.13468 0.48024 0.0
H1308 H 0.97062 0.11711 0.46971 0.0
H1309 H 0.98019 0.03067 0.45752 0.0
H1310 H 1.00618 0.03499 0.49796 0.0
H1311 H 0.02529 0.10794 0.49897 0.0
C1312 C 0.97097 0.09605 0.40382 0.0
C1313 C 0.95606 0.07859 0.38536 0.0
C1314 C 0.95029 0.05646 0.39136 0.0
C1315 C 0.9597 0.05123 0.41437 0.0
C1316 C 0.97481 0.0684 0.43177 0.0
C1317 C 0.97996 0.09058 0.4273 0.0
C1318 C 0.99693 0.10553 0.44962 0.0
C1319 C 1.01887 0.11563 0.44069 0.0
C1320 C 0.98645 0.12457 0.46327 0.0
C1321 C 1.00096 0.08808 0.46665 0.0
C1322 C 0.98812 0.06673 0.45569 0.0
C1323 C 0.98994 0.04742 0.46658 0.0
C1324 C 1.00487 0.04998 0.48948 0.0
C1325 C 1.01762 0.07174 0.50174 0.0
C1326 C 1.01555 0.09111 0.49016 0.0
H1327 H 0.34008 0.72995 0.6679 0.0
H1328 H 0.36506 0.79032 0.63748 0.0
H1329 H 0.35412 0.81483 0.67374 0.0
H1330 H 0.29176 0.74745 0.68578 0.0
H1331 H 0.29266 0.73476 0.71395 0.0
H1332 H 0.30463 0.72274 0.68728 0.0
H1333 H 0.34305 0.72731 0.71656 0.0
H1334 H 0.33113 0.73924 0.74339 0.0
H1335 H 0.35629 0.75506 0.73526 0.0
H1336 H 0.33852 0.83253 0.7142 0.0
H1337 H 0.31911 0.84048 0.7518 0.0
H1338 H 0.3034 0.76754 0.75223 0.0
C1339 C 0.34369 0.74836 0.66888 0.0
C1340 C 0.35367 0.75814 0.64977 0.0
C1341 C 0.35765 0.78235 0.65192 0.0
C1342 C 0.35144 0.79641 0.67247 0.0
C1343 C 0.34122 0.78601 0.6907 0.0
C1344 C 0.33745 0.76245 0.68892 0.0
C1345 C 0.3251 0.75495 0.70974 0.0
C1346 C 0.30218 0.73905 0.69851 0.0
C1347 C 0.33977 0.74347 0.72727 0.0
C1348 C 0.32209 0.77789 0.72345 0.0
C1349 C 0.33171 0.79578 0.71264 0.0
C1350 C 0.33091 0.81854 0.72265 0.0
C1351 C 0.31987 0.82295 0.74398 0.0
C1352 C 0.30947 0.80463 0.75471 0.0
C1353 C 0.31087 0.78194 0.74428 0.0
H1354 H 0.57713 1.00683 0.88747 0.0
H1355 H 0.64888 0.03571 0.90328 0.0
H1356 H 0.64501 0.05294 0.94689 0.0
H1357 H 0.55729 0.0511 0.91817 0.0
H1358 H 0.53621 0.03474 0.93231 0.0
H1359 H 0.54472 0.02183 0.90352 0.0
H1360 H 0.55543 0.98864 0.92484 0.0
H1361 H 0.54623 1.00105 0.95348 0.0
H1362 H 0.57438 0.99521 0.95475 0.0
H1363 H 0.63265 0.07129 0.98589 0.0
H1364 H 0.61383 0.08444 0.02176 0.0
H1365 H 0.54998 0.0427 0.98187 0.0
C1366 C 0.59213 0.01603 0.90052 0.0
C1367 C 0.61335 0.01976 0.89224 0.0
C1368 C 0.6326 0.03223 0.90951 0.0
C1369 C 0.63051 0.04229 0.93419 0.0
C1370 C 0.60916 0.03917 0.9414 0.0
C1371 C 0.59043 0.02569 0.92545 0.0
C1372 C 0.56943 0.02531 0.93799 0.0
C1373 C 0.55083 0.03376 0.92204 0.0
C1374 C 0.56086 1.00112 0.94307 0.0
C1375 C 0.57901 0.04205 0.96268 0.0
C1376 C 0.60202 0.04959 0.96428 0.0
C1377 C 0.61472 0.06528 0.98503 0.0
C1378 C 0.60383 0.07282 1.00518 0.0
C1379 C 0.58043 0.0648 1.00442 0.0
C1380 C 0.56777 0.04951 0.98268 0.0
H1381 H 0.34537 0.4299 0.19319 0.0
H1382 H 0.34166 0.4831 0.25648 0.0
H1383 H 0.33179 0.45341 0.28212 0.0
H1384 H 0.2985 0.38951 0.20214 0.0
H1385 H 0.31075 0.36469 0.1936 0.0
H1386 H 0.31854 0.38997 0.18023 0.0
H1387 H 0.36081 0.39185 0.19715 0.0
H1388 H 0.35314 0.36638 0.21021 0.0
H1389 H 0.36953 0.39216 0.23051 0.0
H1390 H 0.31869 0.41876 0.29887 0.0
H1391 H 0.30928 0.38065 0.30967 0.0
H1392 H 0.3239 0.34919 0.23687 0.0
C1393 C 0.34297 0.43538 0.21264 0.0
C1394 C 0.3444 0.45882 0.22298 0.0
C1395 C 0.34084 0.46527 0.24833 0.0
C1396 C 0.33505 0.44854 0.26292 0.0
C1397 C 0.33303 0.42559 0.25181 0.0
C1398 C 0.33725 0.41894 0.22747 0.0
C1399 C 0.33369 0.39302 0.22012 0.0
C1400 C 0.31422 0.38377 0.19769 0.0
C1401 C 0.35561 0.38541 0.21416 0.0
C1402 C 0.32723 0.38618 0.24442 0.0
C1403 C 0.32641 0.40532 0.26209 0.0
C1404 C 0.31964 0.40368 0.28542 0.0
C1405 C 0.31424 0.38191 0.29127 0.0
C1406 C 0.31609 0.36207 0.2741 0.0
C1407 C 0.32247 0.36414 0.25025 0.0
H1408 H 0.15125 0.94651 0.08981 0.0
H1409 H 0.21174 0.99394 0.08325 0.0
H1410 H 0.19199 0.0261 0.09021 0.0
H1411 H 0.11154 0.97426 0.05705 0.0
H1412 H 0.09066 0.96964 0.07758 0.0
H1413 H 0.10966 0.94999 0.07303 0.0
H1414 H 0.1223 0.95672 0.12188 0.0
H1415 H 0.10344 0.97657 0.12642 0.0
H1416 H 0.13307 0.98555 0.13921 0.0
H1417 H 0.16648 0.05355 0.09806 0.0
H1418 H 0.13492 0.07407 0.10157 0.0
H1419 H 0.08996 1.00978 0.10185 0.0
C1420 C 0.16027 0.96365 0.08978 0.0
C1421 C 0.18316 0.96757 0.08606 0.0
C1422 C 0.1943 0.99034 0.08617 0.0
C1423 C 0.18325 1.00886 0.09021 0.0
C1424 C 0.16093 1.00454 0.09417 0.0
C1425 C 0.14939 0.98255 0.09378 0.0
C1426 C 0.12515 0.98292 0.09784 0.0
C1427 C 0.10826 0.96835 0.075 0.0
C1428 C 0.12074 0.97496 0.12282 0.0
C1429 C 0.12487 1.00838 0.09978 0.0
C1430 C 0.14586 0.02054 0.09818 0.0
C1431 C 0.14994 0.04425 0.09944 0.0
C1432 C 0.13193 0.05582 0.10169 0.0
C1433 C 0.10998 0.04365 0.10226 0.0
C1434 C 0.10659 0.01964 0.10173 0.0
H1435 H 0.70064 0.65508 0.02687 0.0
H1436 H 0.69212 0.59412 0.96863 0.0
H1437 H 0.65705 0.57768 0.98357 0.0
H1438 H 0.68326 0.62555 0.07553 0.0
H1439 H 0.66956 0.64774 0.08926 0.0
H1440 H 0.69316 0.655 0.07306 0.0
H1441 H 0.66884 0.67441 0.04312 0.0
H1442 H 0.6452 0.66733 0.05931 0.0
H1443 H 0.64226 0.65827 0.0253 0.0
H1444 H 0.62269 0.56877 1.00433 0.0
H1445 H 0.59221 0.56699 0.03057 0.0
H1446 H 0.62554 0.63265 0.07712 0.0
C1447 C 0.69123 0.63841 0.01697 0.0
C1448 C 0.69872 0.62595 0.99635 0.0
C1449 C 0.68637 0.60395 0.98433 0.0
C1450 C 0.66656 0.59451 0.99269 0.0
C1451 C 0.65977 0.60724 0.01329 0.0
C1452 C 0.67183 0.62862 0.02537 0.0
C1453 C 0.66153 0.63846 0.04766 0.0
C1454 C 0.67785 0.64188 0.07286 0.0
C1455 C 0.654 0.66094 0.04359 0.0
C1456 C 0.64156 0.61935 0.04615 0.0
C1457 C 0.64074 0.60157 0.02609 0.0
C1458 C 0.62329 0.58244 0.02026 0.0
C1459 C 0.60614 0.58158 0.03527 0.0
C1460 C 0.60687 0.59956 0.05599 0.0
C1461 C 0.62487 0.61855 0.06162 0.0
H1462 H 0.75943 0.49639 0.35524 0.0
H1463 H 0.69438 0.47023 0.30711 0.0
H1464 H 0.70413 0.43205 0.29823 0.0
H1465 H 0.79261 0.4624 0.31838 0.0
H1466 H 0.80959 0.4563 0.3455 0.0
H1467 H 0.79807 0.48211 0.34841 0.0
H1468 H 0.77899 0.47065 0.38594 0.0
H1469 H 0.79056 0.44485 0.38311 0.0
H1470 H 0.76055 0.44302 0.38167 0.0
H1471 H 0.72021 0.39555 0.29415 0.0
H1472 H 0.74119 0.36408 0.29561 0.0
H1473 H 0.79694 0.41103 0.34611 0.0
C1474 C 0.74724 0.48267 0.34276 0.0
C1475 C 0.72587 0.48702 0.33188 0.0
C1476 C 0.71069 0.46801 0.3159 0.0
C1477 C 0.71614 0.44598 0.31063 0.0
C1478 C 0.73701 0.44229 0.32154 0.0
C1479 C 0.75236 0.46003 0.33747 0.0
C1480 C 0.77337 0.45074 0.34714 0.0
C1481 C 0.79468 0.46367 0.33939 0.0
C1482 C 0.77603 0.45243 0.37619 0.0
C1483 C 0.76767 0.42539 0.33354 0.0
C1484 C 0.7464 0.42101 0.31912 0.0
C1485 C 0.73689 0.39896 0.30536 0.0
C1486 C 0.74908 0.38098 0.30632 0.0
C1487 C 0.77106 0.38452 0.32068 0.0
C1488 C 0.78041 0.40739 0.33449 0.0
H1489 H 0.80799 0.44939 0.56198 0.0
H1490 H 0.7899 0.50913 0.60432 0.0
H1491 H 0.82965 0.52998 0.61007 0.0
H1492 H 0.86719 0.45665 0.59561 0.0
H1493 H 0.87706 0.44758 0.5662 0.0
H1494 H 0.84865 0.43616 0.57029 0.0
H1495 H 0.83314 0.44952 0.52918 0.0
H1496 H 0.86139 0.46114 0.52512 0.0
H1497 H 0.84073 0.4793 0.52667 0.0
H1498 H 0.87007 0.54542 0.60642 0.0
H1499 H 0.90744 0.55464 0.59301 0.0
H1500 H 0.89727 0.48522 0.55014 0.0
C1501 C 0.81271 0.46656 0.57329 0.0
C1502 C 0.7964 0.47767 0.58332 0.0
C1503 C 0.80256 0.50041 0.59703 0.0
C1504 C 0.825 0.51227 0.60036 0.0
C1505 C 0.84073 0.50106 0.58956 0.0
C1506 C 0.83482 0.47867 0.57631 0.0
C1507 C 0.85385 0.47149 0.56356 0.0
C1508 C 0.86218 0.4518 0.57459 0.0
C1509 C 0.84685 0.465 0.53442 0.0
C1510 C 0.87122 0.49348 0.57115 0.0
C1511 C 0.86357 0.51023 0.5865 0.0
C1512 C 0.87633 0.53236 0.59463 0.0
C1513 C 0.89739 0.5375 0.58671 0.0
C1514 C 0.90527 0.52062 0.57058 0.0
C1515 C 0.892 0.49834 0.56296 0.0
H1516 H 0.40728 0.19644 0.28428 0.0
H1517 H 0.42459 0.20481 0.36636 0.0
H1518 H 0.397 0.23011 0.37189 0.0
H1519 H 0.40198 0.25619 0.28457 0.0
H1520 H 0.37921 0.24903 0.25814 0.0
H1521 H 0.39976 0.23087 0.26083 0.0
H1522 H 0.36683 0.19633 0.25822 0.0
H1523 H 0.3466 0.21493 0.25653 0.0
H1524 H 0.34766 0.1978 0.28109 0.0
H1525 H 0.36736 0.25242 0.36918 0.0
H1526 H 0.34163 0.27802 0.35917 0.0
H1527 H 0.34472 0.25941 0.27856 0.0
C1528 C 0.40527 0.2038 0.30335 0.0
C1529 C 0.41799 0.19879 0.32501 0.0
C1530 C 0.41515 0.20869 0.34966 0.0
C1531 C 0.39937 0.22284 0.35294 0.0
C1532 C 0.38692 0.22726 0.33135 0.0
C1533 C 0.38999 0.21862 0.307 0.0
C1534 C 0.37534 0.22766 0.28729 0.0
C1535 C 0.38995 0.24176 0.27178 0.0
C1536 C 0.35808 0.208 0.26975 0.0
C1537 C 0.36372 0.24281 0.30454 0.0
C1538 C 0.3704 0.24169 0.32979 0.0
C1539 C 0.36224 0.25375 0.34956 0.0
C1540 C 0.34766 0.26827 0.34362 0.0
C1541 C 0.34158 0.271 0.31815 0.0
C1542 C 0.34913 0.25759 0.29816 0.0
H1543 H 0.30656 0.08355 0.5316 0.0
H1544 H 0.32864 0.12553 0.47739 0.0
H1545 H 0.36836 0.1261 0.49467 0.0
H1546 H 0.35032 0.11184 0.58394 0.0
H1547 H 0.35298 0.08573 0.59546 0.0
H1548 H 0.32624 0.08863 0.57892 0.0
H1549 H 0.32505 0.05159 0.54622 0.0
H1550 H 0.3515 0.04836 0.56299 0.0
H1551 H 0.34863 0.04931 0.52946 0.0
H1552 H 0.40541 0.12166 0.51743 0.0
H1553 H 0.43715 0.10898 0.5411 0.0
H1554 H 0.39052 0.07116 0.58108 0.0
C1555 C 0.31967 0.09263 0.52303 0.0
C1556 C 0.31445 0.10432 0.50296 0.0
C1557 C 0.3322 0.11618 0.49255 0.0
C1558 C 0.3548 0.11687 0.50245 0.0
C1559 C 0.35926 0.10575 0.52279 0.0
C1560 C 0.3422 0.09369 0.5328 0.0
C1561 C 0.35142 0.08271 0.5542 0.0
C1562 C 0.34484 0.09284 0.57963 0.0
C1563 C 0.3437 0.05644 0.54782 0.0
C1564 C 0.37641 0.08988 0.55417 0.0
C1565 C 0.3806 0.10348 0.53619 0.0
C1566 C 0.40237 0.11117 0.53167 0.0
C1567 C 0.42022 0.10395 0.54516 0.0
C1568 C 0.41605 0.08925 0.56283 0.0
C1569 C 0.39404 0.08276 0.56798 0.0
H1570 H 0.70833 0.66273 0.34596 0.0
H1571 H 0.76357 0.62739 0.33419 0.0
H1572 H 0.78729 0.66436 0.33016 0.0
H1573 H 0.7163 0.69977 0.30169 0.0
H1574 H 0.7091 0.72392 0.32112 0.0
H1575 H 0.69749 0.69516 0.32447 0.0
H1576 H 0.71344 0.70501 0.37262 0.0
H1577 H 0.72503 0.73388 0.36944 0.0
H1578 H 0.74313 0.71657 0.38285 0.0
H1579 H 0.80527 0.70783 0.32709 0.0
H1580 H 0.81377 0.74911 0.32381 0.0
H1581 H 0.74578 0.75486 0.33552 0.0
C1582 C 0.72549 0.66253 0.3427 0.0
C1583 C 0.73381 0.64152 0.34056 0.0
C1584 C 0.75651 0.64281 0.33624 0.0
C1585 C 0.77016 0.66394 0.33382 0.0
C1586 C 0.76119 0.68414 0.33581 0.0
C1587 C 0.73925 0.6834 0.34026 0.0
C1588 C 0.73311 0.70712 0.34141 0.0
C1589 C 0.7128 0.70644 0.32095 0.0
C1590 C 0.72839 0.71618 0.36816 0.0
C1591 C 0.75462 0.72142 0.336 0.0
C1592 C 0.77092 0.70809 0.33336 0.0
C1593 C 0.79241 0.71808 0.32909 0.0
C1594 C 0.79719 0.74177 0.32733 0.0
C1595 C 0.78057 0.75567 0.32926 0.0
C1596 C 0.75899 0.74499 0.33373 0.0
H1597 H 0.89962 0.56724 0.80743 0.0
H1598 H 0.96119 0.56371 0.85593 0.0
H1599 H 0.94203 0.52841 0.8677 0.0
H1600 H 0.86032 0.54633 0.8463 0.0
H1601 H 0.83985 0.52899 0.82029 0.0
H1602 H 0.85813 0.55421 0.81528 0.0
H1603 H 0.87191 0.5297 0.77856 0.0
H1604 H 0.8536 0.50441 0.78342 0.0
H1605 H 0.88341 0.50498 0.78442 0.0
H1606 H 0.91662 0.49558 0.87642 0.0
H1607 H 0.88618 0.46361 0.87885 0.0
H1608 H 0.84114 0.48553 0.82256 0.0
C1609 C 0.90896 0.55889 0.82043 0.0
C1610 C 0.93184 0.56805 0.83081 0.0
C1611 C 0.94371 0.55675 0.84763 0.0
C1612 C 0.93297 0.53679 0.85451 0.0
C1613 C 0.91048 0.52812 0.84404 0.0
C1614 C 0.8986 0.53847 0.82707 0.0
C1615 C 0.87468 0.52491 0.81825 0.0
C1616 C 0.85722 0.53949 0.82547 0.0
C1617 C 0.87067 0.51544 0.78945 0.0
C1618 C 0.87496 0.50577 0.83349 0.0
C1619 C 0.89582 0.50817 0.84829 0.0
C1620 C 0.90025 0.49332 0.86479 0.0
C1621 C 0.88288 0.47536 0.86616 0.0
C1622 C 0.86149 0.47233 0.85098 0.0
C1623 C 0.85746 0.48758 0.83427 0.0
H1624 H 0.06007 0.85766 0.17657 0.0
H1625 H 0.02277 0.88145 0.23571 0.0
H1626 H 1.01329 0.91155 0.21252 0.0
H1627 H 0.08335 0.91528 0.16656 0.0
H1628 H 0.08196 0.90646 0.13273 0.0
H1629 H 0.08586 0.88643 0.15371 0.0
H1630 H 0.05066 0.85792 0.12768 0.0
H1631 H 0.04659 0.87795 0.10675 0.0
H1632 H 0.02402 0.86719 0.12295 0.0
H1633 H 1.00699 0.93819 0.1834 0.0
H1634 H 1.00652 0.96258 0.15074 0.0
H1635 H 0.04867 0.92313 0.11028 0.0
C1636 C 0.05 0.86931 0.18463 0.0
C1637 C 0.04214 0.86728 0.20796 0.0
C1638 C 0.02912 0.88285 0.21802 0.0
C1639 C 0.02353 0.8999 0.20491 0.0
C1640 C 0.03135 0.90138 0.18194 0.0
C1641 C 0.04458 0.8868 0.17197 0.0
C1642 C 0.0514 0.8929 0.14733 0.0
C1643 C 0.07717 0.90073 0.15026 0.0
C1644 C 0.04263 0.87279 0.12485 0.0
C1645 C 0.03941 0.91277 0.14481 0.0
C1646 C 0.02801 0.91729 0.16508 0.0
C1647 C 1.01593 0.93494 0.16748 0.0
C1648 C 1.01578 0.9487 0.1489 0.0
C1649 C 0.02762 0.94474 0.12817 0.0
C1650 C 0.03936 0.92635 0.12589 0.0
H1651 H 0.96931 0.30814 0.87296 0.0
H1652 H 0.99695 0.36986 0.84621 0.0
H1653 H 0.95876 0.37517 0.8318 0.0
H1654 H 0.92189 0.28903 0.8194 0.0
H1655 H 0.90173 0.27777 0.83825 0.0
H1656 H 0.93138 0.27815 0.84737 0.0
H1657 H 0.93035 0.30106 0.89193 0.0
H1658 H 0.90072 0.30071 0.88294 0.0
H1659 H 0.92015 0.32764 0.89453 0.0
H1660 H 0.91874 0.37456 0.81931 0.0
H1661 H 0.87752 0.36868 0.81027 0.0
H1662 H 0.87209 0.30734 0.84399 0.0
C1663 C 0.96723 0.32275 0.86411 0.0
C1664 C 0.98649 0.33851 0.86063 0.0
C1665 C 0.98281 0.35733 0.84886 0.0
C1666 C 0.96104 0.36059 0.84062 0.0
C1667 C 0.94259 0.34479 0.84384 0.0
C1668 C 0.94519 0.32616 0.8552 0.0
C1669 C 0.92184 0.31176 0.85547 0.0
C1670 C 0.91905 0.28774 0.83916 0.0
C1671 C 0.91805 0.31021 0.88286 0.0
C1672 C 0.90603 0.32567 0.84315 0.0
C1673 C 0.91868 0.34448 0.83646 0.0
C1674 C 0.90862 0.3599 0.82449 0.0
C1675 C 0.88502 0.35633 0.81936 0.0
C1676 C 0.87122 0.33757 0.82631 0.0
C1677 C 0.88201 0.32184 0.83829 0.0
H1678 H 0.55627 0.2133 0.72292 0.0
H1679 H 0.52246 0.24864 0.66977 0.0
H1680 H 0.52453 0.21827 0.63418 0.0
H1681 H 0.59433 0.19455 0.68188 0.0
H1682 H 0.59345 0.16717 0.69169 0.0
H1683 H 0.58905 0.19144 0.71344 0.0
H1684 H 0.55054 0.16839 0.7192 0.0
H1685 H 0.55504 0.14397 0.69779 0.0
H1686 H 0.52974 0.15531 0.6915 0.0
H1687 H 0.53192 0.18543 0.60395 0.0
H1688 H 0.54008 0.1492 0.58156 0.0
H1689 H 0.56739 0.13391 0.65386 0.0
C1690 C 0.54896 0.21444 0.70386 0.0
C1691 C 0.53915 0.23338 0.69922 0.0
C1692 C 0.53008 0.23435 0.67388 0.0
C1693 C 0.53125 0.21723 0.65347 0.0
C1694 C 0.54154 0.19916 0.6586 0.0
C1695 C 0.55 0.19744 0.68315 0.0
C1696 C 0.56024 0.17616 0.68327 0.0
C1697 C 0.58578 0.18272 0.69316 0.0
C1698 C 0.54816 0.16 0.69886 0.0
C1699 C 0.55564 0.16594 0.65506 0.0
C1700 C 0.54532 0.1798 0.64113 0.0
C1701 C 0.53993 0.17438 0.61464 0.0
C1702 C 0.54475 0.15394 0.60208 0.0
C1703 C 0.55444 0.13911 0.61608 0.0
C1704 C 0.56007 0.14519 0.64284 0.0
H1705 H 0.62607 0.82046 0.34968 0.0
H1706 H 0.64586 0.86401 0.42444 0.0
H1707 H 0.68573 0.86767 0.41935 0.0
H1708 H 0.67351 0.7907 0.35557 0.0
H1709 H 0.67724 0.78866 0.32268 0.0
H1710 H 0.64973 0.78954 0.33139 0.0
H1711 H 0.6474 0.82458 0.30957 0.0
H1712 H 0.67487 0.82373 0.30076 0.0
H1713 H 0.66962 0.84971 0.31872 0.0
H1714 H 0.72372 0.86574 0.40797 0.0
H1715 H 0.75781 0.8594 0.38979 0.0
H1716 H 0.71573 0.81819 0.32133 0.0
C1717 C 0.6388 0.83092 0.36485 0.0
C1718 C 0.63248 0.84198 0.38754 0.0
C1719 C 0.64991 0.85526 0.40694 0.0
C1720 C 0.67278 0.8575 0.40423 0.0
C1721 C 0.67845 0.84632 0.38198 0.0
C1722 C 0.66207 0.83328 0.36252 0.0
C1723 C 0.6733 0.82267 0.34093 0.0
C1724 C 0.66813 0.79633 0.33743 0.0
C1725 C 0.66585 0.83066 0.31601 0.0
C1726 C 0.69835 0.83229 0.35114 0.0
C1727 C 0.70076 0.84561 0.37506 0.0
C1728 C 0.72203 0.85553 0.38914 0.0
C1729 C 0.74137 0.85181 0.37864 0.0
C1730 C 0.73962 0.83863 0.354 0.0
C1731 C 0.71769 0.82879 0.34001 0.0
H1732 H 0.10667 0.30014 0.55709 0.0
H1733 H 0.05387 0.30703 0.49807 0.0
H1734 H 0.02877 0.27378 0.50755 0.0
H1735 H 0.0966 0.2394 0.54401 0.0
H1736 H 0.10268 0.23671 0.57692 0.0
H1737 H 0.11584 0.26195 0.56647 0.0
H1738 H 0.10017 0.28743 0.6008 0.0
H1739 H 0.08678 0.2622 0.61121 0.0
H1740 H 0.07023 0.28244 0.60163 0.0
H1741 H 1.00995 0.23918 0.52226 0.0
H1742 H 0.99975 0.20362 0.53962 0.0
H1743 H 0.06488 0.21932 0.58831 0.0
C1744 C 0.08978 0.29475 0.5463 0.0
C1745 C 0.08215 0.30612 0.52696 0.0
C1746 C 0.06003 0.29848 0.51301 0.0
C1747 C 0.04561 0.27973 0.51833 0.0
C1748 C 0.05362 0.26892 0.53762 0.0
C1749 C 0.07522 0.27602 0.55126 0.0
C1750 C 0.08015 0.26064 0.56999 0.0
C1751 C 0.09998 0.24898 0.56397 0.0
C1752 C 0.08458 0.27398 0.59754 0.0
C1753 C 0.05802 0.24363 0.56449 0.0
C1754 C 0.04282 0.24884 0.54598 0.0
C1755 C 0.02156 0.23502 0.53699 0.0
C1756 C 1.01586 0.21504 0.54692 0.0
C1757 C 0.03149 0.20933 0.56537 0.0
C1758 C 0.05263 0.22383 0.57449 0.0
H1759 H 0.55687 0.24193 0.18845 0.0
H1760 H 0.57039 0.28837 0.13582 0.0
H1761 H 0.60954 0.30141 0.1584 0.0
H1762 H 0.58876 0.27803 0.24408 0.0
H1763 H 0.59948 0.25545 0.25707 0.0
H1764 H 0.57263 0.24908 0.23638 0.0
H1765 H 0.58636 0.21819 0.20607 0.0
H1766 H 0.61305 0.22409 0.22701 0.0
H1767 H 0.61227 0.22587 0.19381 0.0
H1768 H 0.64579 0.31179 0.18883 0.0
H1769 H 0.67937 0.31411 0.22073 0.0
H1770 H 0.6429 0.25885 0.25147 0.0
C1771 C 0.56822 0.25457 0.18147 0.0
C1772 C 0.56074 0.26418 0.1605 0.0
C1773 C 0.57594 0.28066 0.15176 0.0
C1774 C 0.59809 0.28834 0.1646 0.0
C1775 C 0.60473 0.27908 0.18578 0.0
C1776 C 0.59044 0.26218 0.19381 0.0
C1777 C 0.60196 0.25469 0.21674 0.0
C1778 C 0.58999 0.25962 0.23993 0.0
C1779 C 0.60351 0.2292 0.21053 0.0
C1780 C 0.6249 0.27016 0.22045 0.0
C1781 C 0.62603 0.28433 0.20264 0.0
C1782 C 0.6453 0.3005 0.2026 0.0
C1783 C 0.66428 0.30162 0.22073 0.0
C1784 C 0.66388 0.2864 0.23832 0.0
C1785 C 0.64374 0.27083 0.23843 0.0
H1786 H 0.62039 0.93249 0.07428 0.0
H1787 H 0.65704 0.96573 0.02162 0.0
H1788 H 0.63974 0.99908 0.03124 0.0
H1789 H 0.57218 0.94679 0.06333 0.0
H1790 H 0.56595 0.95526 0.09489 0.0
H1791 H 0.58496 0.93581 0.08974 0.0
H1792 H 0.61645 0.9628 0.12334 0.0
H1793 H 0.59726 0.9821 0.12929 0.0
H1794 H 0.62433 0.99254 0.12082 0.0
H1795 H 0.60582 0.01524 0.02876 0.0
H1796 H 0.5705 0.0284 0.03322 0.0
H1797 H 0.56435 0.99794 0.09976 0.0
C1798 C 0.62593 0.94739 0.06608 0.0
C1799 C 0.63955 0.94611 0.04658 0.0
C1800 C 0.64635 0.96596 0.03623 0.0
C1801 C 0.63659 0.9851 0.04153 0.0
C1802 C 0.6214 0.98485 0.05867 0.0
C1803 C 0.61732 0.96744 0.07237 0.0
C1804 C 0.59946 0.97168 0.08903 0.0
C1805 C 0.57947 0.95116 0.08391 0.0
C1806 C 0.61001 0.97764 0.11731 0.0
C1807 C 0.59244 0.99246 0.08002 0.0
C1808 C 0.60505 0.99921 0.06192 0.0
C1809 C 0.59756 1.01247 0.04496 0.0
C1810 C 0.57769 0.02032 0.04783 0.0
C1811 C 0.56675 0.01705 0.06885 0.0
C1812 C 0.5738 1.00242 0.08495 0.0
H1813 H 0.95786 0.80269 0.70588 0.0
H1814 H 0.95584 0.73511 0.72562 0.0
H1815 H 0.94527 0.74909 0.76677 0.0
H1816 H 0.98013 0.83457 0.76951 0.0
H1817 H 0.9637 0.85658 0.76684 0.0
H1818 H 0.97193 0.8417 0.73882 0.0
H1819 H 0.93001 0.83009 0.71732 0.0
H1820 H 0.92166 0.845 0.7452 0.0
H1821 H 0.90953 0.81511 0.73336 0.0
H1822 H 0.93043 0.76841 0.80332 0.0
H1823 H 0.91541 0.79298 0.83473 0.0
H1824 H 0.93079 0.84967 0.79441 0.0
C1825 C 0.95469 0.7907 0.71862 0.0
C1826 C 0.95741 0.7677 0.71227 0.0
C1827 C 0.95354 0.7527 0.72975 0.0
C1828 C 0.94736 0.76041 0.7532 0.0
C1829 C 0.9446 0.783 0.75877 0.0
C1830 C 0.94826 0.79803 0.74214 0.0
C1831 C 0.94446 0.82158 0.75322 0.0
C1832 C 0.96637 0.83967 0.75734 0.0
C1833 C 0.92527 0.82833 0.73627 0.0
C1834 C 0.93763 0.81718 0.77838 0.0
C1835 C 0.93779 0.7948 0.78108 0.0
C1836 C 0.93058 0.78611 0.8017 0.0
C1837 C 0.92241 0.80052 0.81983 0.0
C1838 C 0.92207 0.82373 0.81773 0.0
C1839 C 0.93044 0.83214 0.79687 0.0
H1840 H 0.15108 0.10301 0.92525 0.0
H1841 H 0.14773 0.02975 0.90571 0.0
H1842 H 0.12437 0.02383 0.9397 0.0
H1843 H 0.15505 0.10541 0.99469 0.0
H1844 H 0.13874 0.12774 0.99837 0.0
H1845 H 0.15569 0.12566 0.97332 0.0
H1846 H 0.1203 0.12374 0.94021 0.0
H1847 H 0.10321 0.12544 0.96513 0.0
H1848 H 0.09563 0.10182 0.9385 0.0
H1849 H 0.09765 0.02647 0.97541 0.0
H1850 H 0.07638 0.03756 0.01044 0.0
H1851 H 0.0992 0.10917 0.00745 0.0
C1852 C 0.14587 0.08568 0.92839 0.0
C1853 C 0.1517 0.06686 0.91262 0.0
C1854 C 0.1441 0.04456 0.91756 0.0
C1855 C 0.13051 0.04104 0.93678 0.0
C1856 C 0.12469 0.05998 0.95151 0.0
C1857 C 0.13268 0.08194 0.94777 0.0
C1858 C 0.12455 0.09963 0.96617 0.0
C1859 C 0.14471 0.11555 0.98421 0.0
C1860 C 0.11007 0.11347 0.95162 0.0
C1861 C 0.11032 0.08438 0.98062 0.0
C1862 C 0.11037 0.06149 0.9719 0.0
C1863 C 0.09782 0.04441 0.98229 0.0
C1864 C 0.08552 0.05085 1.00217 0.0
C1865 C 0.08578 0.07428 0.01192 0.0
C1866 C 0.09839 0.09107 1.0006 0.0
H1867 H 0.76044 0.4143 0.67267 0.0
H1868 H 0.736 0.35025 0.61888 0.0
H1869 H 0.74906 0.32887 0.65153 0.0
H1870 H 0.81013 0.3989 0.70395 0.0
H1871 H 0.80765 0.41287 0.73536 0.0
H1872 H 0.79682 0.42354 0.7078 0.0
H1873 H 0.75738 0.41958 0.72182 0.0
H1874 H 0.76817 0.40908 0.74951 0.0
H1875 H 0.74384 0.3923 0.72783 0.0
H1876 H 0.76621 0.31449 0.68902 0.0
H1877 H 0.78233 0.30741 0.73072 0.0
H1878 H 0.79355 0.38029 0.76176 0.0
C1879 C 0.75779 0.39577 0.6678 0.0
C1880 C 0.74726 0.38394 0.64312 0.0
C1881 C 0.74397 0.35968 0.6376 0.0
C1882 C 0.75143 0.34739 0.656 0.0
C1883 C 0.76195 0.35955 0.67998 0.0
C1884 C 0.76485 0.38316 0.68611 0.0
C1885 C 0.77601 0.39186 0.71366 0.0
C1886 C 0.79902 0.40773 0.71528 0.0
C1887 C 0.76041 0.40391 0.72911 0.0
C1888 C 0.7789 0.36945 0.722 0.0
C1889 C 0.77099 0.3511 0.70209 0.0
C1890 C 0.77234 0.32871 0.70478 0.0
C1891 C 0.78169 0.32489 0.72853 0.0
C1892 C 0.78926 0.3433 0.74949 0.0
C1893 C 0.78787 0.36589 0.74609 0.0
H1894 H 0.47748 0.09238 0.39691 0.0
H1895 H 0.51458 0.16239 0.41011 0.0
H1896 H 0.53064 0.15848 0.45377 0.0
H1897 H 0.4636 0.09359 0.46104 0.0
H1898 H 0.46618 0.06414 0.46065 0.0
H1899 H 0.45763 0.07339 0.43134 0.0
H1900 H 0.49054 0.05813 0.41261 0.0
H1901 H 0.49953 0.04935 0.44209 0.0
H1902 H 0.51908 0.06855 0.42901 0.0
H1903 H 0.54534 0.14461 0.49511 0.0
H1904 H 0.5515 0.12506 0.53213 0.0
H1905 H 0.50221 0.06555 0.4918 0.0
C1906 C 0.48863 0.10705 0.40922 0.0
C1907 C 0.49472 0.12774 0.40034 0.0
C1908 C 0.50949 0.14652 0.41678 0.0
C1909 C 0.51884 0.14432 0.44146 0.0
C1910 C 0.51297 0.12334 0.44939 0.0
C1911 C 0.49771 0.10526 0.43386 0.0
C1912 C 0.49368 0.0846 0.44664 0.0
C1913 C 0.4688 0.07859 0.45014 0.0
C1914 C 0.50116 0.06394 0.43169 0.0
C1915 C 0.50903 0.09371 0.47189 0.0
C1916 C 0.52045 0.11591 0.47307 0.0
C1917 C 0.53626 0.12734 0.49438 0.0
C1918 C 0.53986 0.11607 0.5152 0.0
C1919 C 0.52737 0.09384 0.51465 0.0
C1920 C 0.51198 0.08256 0.49263 0.0
H1921 H 0.77503 0.66306 0.09901 0.0
H1922 H 0.81628 0.69786 0.05135 0.0
H1923 H 0.83242 0.72908 0.08759 0.0
H1924 H 0.75855 0.70865 0.12741 0.0
H1925 H 0.7593 0.70187 0.15889 0.0
H1926 H 0.7556 0.67924 0.1318 0.0
H1927 H 0.7906 0.66511 0.15172 0.0
H1928 H 0.79427 0.68771 0.17915 0.0
H1929 H 0.81724 0.68493 0.16155 0.0
H1930 H 0.83782 0.75981 0.12496 0.0
H1931 H 0.8316 0.78768 0.16117 0.0
H1932 H 0.78742 0.73329 0.1849 0.0
C1933 C 0.78814 0.67678 0.09656 0.0
C1934 C 0.79438 0.67808 0.0725 0.0
C1935 C 0.81118 0.69657 0.0697 0.0
C1936 C 0.82066 0.71431 0.09022 0.0
C1937 C 0.8134 0.71313 0.11349 0.0
C1938 C 0.79773 0.6947 0.1169 0.0
C1939 C 0.79025 0.69923 0.14259 0.0
C1940 C 0.76441 0.69714 0.13998 0.0
C1941 C 0.7986 0.6833 0.15977 0.0
C1942 C 0.8026 0.72373 0.15198 0.0
C1943 C 0.81649 0.7312 0.13536 0.0
C1944 C 0.82757 0.75402 0.13857 0.0
C1945 C 0.82393 0.76972 0.15903 0.0
C1946 C 0.80906 0.7624 0.17549 0.0
C1947 C 0.79893 0.73909 0.17244 0.0
H1948 H 0.15879 0.03282 0.73875 0.0
H1949 H 0.13701 0.08292 0.79257 0.0
H1950 H 0.11272 0.09279 0.7575 0.0
H1951 H 0.15939 0.06276 0.68638 0.0
H1952 H 0.14713 0.03801 0.66197 0.0
H1953 H 0.16317 0.03456 0.69114 0.0
H1954 H 0.12914 1.00554 0.69866 0.0
H1955 H 0.11303 1.00891 0.66945 0.0
H1956 H 0.10208 0.01386 0.69895 0.0
H1957 H 0.09133 0.09827 0.71686 0.0
H1958 H 0.0728 0.09782 0.67339 0.0
H1959 H 0.10613 0.04313 0.64422 0.0
C1960 C 0.14889 0.04586 0.74308 0.0
C1961 C 0.15008 0.05725 0.76864 0.0
C1962 C 0.13655 0.07394 0.7734 0.0
C1963 C 0.12264 0.07971 0.75349 0.0
C1964 C 0.12183 0.06829 0.72866 0.0
C1965 C 0.13428 0.05144 0.72331 0.0
C1966 C 0.12939 0.04131 0.69483 0.0
C1967 C 0.15107 0.04435 0.68288 0.0
C1968 C 0.11773 0.0159 0.69021 0.0
C1969 C 0.11316 0.05586 0.685 0.0
C1970 C 0.10892 0.07112 0.70501 0.0
C1971 C 0.09445 0.08629 0.70108 0.0
C1972 C 0.08393 0.08587 0.67617 0.0
C1973 C 0.08786 0.07047 0.65511 0.0
C1974 C 0.10278 0.05524 0.65975 0.0
H1975 H 0.73022 0.39436 0.4649 0.0
H1976 H 0.76262 0.36883 0.52813 0.0
H1977 H 0.7805 0.3448 0.49821 0.0
H1978 H 0.7199 0.33955 0.41854 0.0
H1979 H 0.72509 0.35397 0.39236 0.0
H1980 H 0.71353 0.36773 0.41853 0.0
H1981 H 0.74627 0.40292 0.42534 0.0
H1982 H 0.75796 0.38923 0.39933 0.0
H1983 H 0.77506 0.39883 0.43033 0.0
H1984 H 0.7984 0.32692 0.4617 0.0
H1985 H 0.81234 0.31461 0.42144 0.0
H1986 H 0.76654 0.34998 0.38179 0.0
C1987 C 0.74072 0.38338 0.47243 0.0
C1988 C 0.7449 0.38347 0.49896 0.0
C1989 C 0.75889 0.36891 0.50794 0.0
C1990 C 0.76923 0.35526 0.49107 0.0
C1991 C 0.76514 0.35597 0.46513 0.0
C1992 C 0.75089 0.36938 0.4558 0.0
C1993 C 0.74964 0.36747 0.42717 0.0
C1994 C 0.72561 0.35652 0.41334 0.0
C1995 C 0.75772 0.39101 0.42015 0.0
C1996 C 0.76596 0.35148 0.42195 0.0
C1997 C 0.77473 0.34501 0.44406 0.0
C1998 C 0.79128 0.33152 0.44421 0.0
C1999 C 0.7991 0.32458 0.42126 0.0
C2000 C 0.7903 0.33095 0.39838 0.0
C2001 C 0.77328 0.34435 0.39881 0.0
H2002 H 0.4712 0.13748 0.22683 0.0
H2003 H 0.52246 0.12597 0.28479 0.0
H2004 H 0.54194 0.1092 0.25146 0.0
H2005 H 0.46804 0.0866 0.18213 0.0
H2006 H 0.4656 0.09958 0.1542 0.0
H2007 H 0.45566 0.11181 0.18239 0.0
H2008 H 0.48134 0.15111 0.1831 0.0
H2009 H 0.49114 0.13899 0.15474 0.0
H2010 H 0.51116 0.15265 0.18287 0.0
H2011 H 0.55475 0.0917 0.21301 0.0
H2012 H 0.56237 0.07691 0.17052 0.0
H2013 H 0.50402 0.10036 0.13603 0.0
C2014 C 0.48666 0.13166 0.23244 0.0
C2015 C 0.49527 0.133 0.25845 0.0
C2016 C 0.51555 0.12521 0.26505 0.0
C2017 C 0.52674 0.11557 0.24625 0.0
C2018 C 0.51766 0.1141 0.22088 0.0
C2019 C 0.49832 0.12221 0.2138 0.0
C2020 C 0.49249 0.11857 0.18495 0.0
C2021 C 0.46906 0.10322 0.17537 0.0
C2022 C 0.49413 0.1417 0.17589 0.0
C2023 C 0.51114 0.10643 0.17712 0.0
C2024 C 0.52544 0.1042 0.19826 0.0
C2025 C 0.54379 0.09346 0.19626 0.0
C2026 C 0.5479 0.08503 0.17196 0.0
C2027 C 0.53376 0.08736 0.14984 0.0
C2028 C 0.51502 0.09812 0.15253 0.0
H2029 H 0.77594 0.68645 0.90881 0.0
H2030 H 0.77813 0.7337 0.97937 0.0
H2031 H 0.78331 0.76632 0.95669 0.0
H2032 H 0.81796 0.72347 0.88396 0.0
H2033 H 0.80344 0.71496 0.85165 0.0
H2034 H 0.80118 0.69496 0.87322 0.0
H2035 H 0.75759 0.68935 0.86475 0.0
H2036 H 0.75962 0.70866 0.84249 0.0
H2037 H 0.74445 0.71409 0.86874 0.0
H2038 H 0.7864 0.79368 0.9254 0.0
H2039 H 0.78656 0.81287 0.88775 0.0
H2040 H 0.78244 0.74701 0.83911 0.0
C2041 C 0.77766 0.70365 0.91954 0.0
C2042 C 0.77661 0.70759 0.94573 0.0
C2043 C 0.77891 0.73034 0.95918 0.0
C2044 C 0.7819 0.74898 0.94653 0.0
C2045 C 0.78267 0.74449 0.92056 0.0
C2046 C 0.78068 0.72237 0.90729 0.0
C2047 C 0.78136 0.72196 0.87942 0.0
C2048 C 0.80226 0.7133 0.87165 0.0
C2049 C 0.75945 0.70768 0.86289 0.0
C2050 C 0.78334 0.74717 0.8789 0.0
C2051 C 0.78437 0.76005 0.90278 0.0
C2052 C 0.78573 0.78379 0.9066 0.0
C2053 C 0.78579 0.79451 0.88525 0.0
C2054 C 0.78431 0.78129 0.86072 0.0
C2055 C 0.78341 0.75749 0.85768 0.0
H2056 H 0.93316 0.16947 0.10407 0.0
H2057 H 0.92159 0.1875 0.02932 0.0
H2058 H 0.94661 0.16158 0.01392 0.0
H2059 H 0.99232 0.16596 0.10376 0.0
H2060 H 0.99035 0.14264 0.12109 0.0
H2061 H 0.97247 0.16334 0.12579 0.0
H2062 H 0.93729 0.13038 0.11449 0.0
H2063 H 0.95511 0.10964 0.10935 0.0
H2064 H 0.93277 0.11082 0.08443 0.0
H2065 H 0.97207 0.13145 0.00652 0.0
H2066 H 0.99887 0.10463 0.00983 0.0
H2067 H 0.99206 0.10668 0.0891 0.0
C2068 C 0.93616 0.16832 0.08455 0.0
C2069 C 0.92551 0.18066 0.06796 0.0
C2070 C 0.92986 0.17854 0.04253 0.0
C2071 C 0.94382 0.16362 0.03354 0.0
C2072 C 0.9534 0.15107 0.05024 0.0
C2073 C 0.95 0.15366 0.07537 0.0
C2074 C 0.96234 0.13868 0.0898 0.0
C2075 C 0.98044 0.15354 0.11137 0.0
C2076 C 0.94588 0.12136 0.10011 0.0
C2077 C 0.97284 0.12678 0.06879 0.0
C2078 C 0.9676 0.13402 0.04603 0.0
C2079 C 0.97614 0.12561 0.02423 0.0
C2080 C 0.99104 0.11013 0.02609 0.0
C2081 C 0.99702 0.10326 0.04952 0.0
C2082 C 0.98735 0.11133 0.07082 0.0
H2083 H 0.41547 0.5303 0.16477 0.0
H2084 H 0.38915 0.58154 0.12773 0.0
H2085 H 0.42472 0.59071 0.11117 0.0
H2086 H 0.47672 0.56237 0.17951 0.0
H2087 H 0.48683 0.53588 0.17325 0.0
H2088 H 0.4611 0.5364 0.18642 0.0
H2089 H 0.44001 0.50393 0.14925 0.0
H2090 H 0.46545 0.50372 0.13561 0.0
H2091 H 0.44038 0.50814 0.11688 0.0
H2092 H 0.45821 0.58805 0.09077 0.0
H2093 H 0.49203 0.57872 0.07387 0.0
H2094 H 0.4989 0.5318 0.12632 0.0
C2095 C 0.41757 0.54416 0.15416 0.0
C2096 C 0.39953 0.55518 0.14749 0.0
C2097 C 0.40273 0.57286 0.13304 0.0
C2098 C 0.42288 0.57821 0.12353 0.0
C2099 C 0.43979 0.56605 0.12907 0.0
C2100 C 0.43771 0.54985 0.14464 0.0
C2101 C 0.45779 0.53801 0.14583 0.0
C2102 C 0.47142 0.5435 0.17286 0.0
C2103 C 0.45045 0.51192 0.13632 0.0
C2104 C 0.47079 0.5493 0.12754 0.0
C2105 C 0.46006 0.56541 0.1181 0.0
C2106 C 0.4673 0.57617 0.09871 0.0
C2107 C 0.4864 0.57074 0.08917 0.0
C2108 C 0.49809 0.55511 0.0994 0.0
C2109 C 0.49028 0.5442 0.11872 0.0
H2110 H 0.39647 0.68017 0.83843 0.0
H2111 H 0.34417 0.63474 0.78177 0.0
H2112 H 0.32259 0.66581 0.78083 0.0
H2113 H 0.35727 0.70999 0.87216 0.0
H2114 H 0.37567 0.73779 0.87887 0.0
H2115 H 0.38745 0.71213 0.87574 0.0
H2116 H 0.40897 0.72565 0.8408 0.0
H2117 H 0.39725 0.75133 0.8439 0.0
H2118 H 0.39355 0.73283 0.81326 0.0
H2119 H 0.30511 0.702 0.78648 0.0
H2120 H 0.29467 0.73993 0.79668 0.0
H2121 H 0.35797 0.76493 0.84824 0.0
C2122 C 0.38047 0.67667 0.8258 0.0
C2123 C 0.37232 0.65424 0.81015 0.0
C2124 C 0.35115 0.65115 0.79408 0.0
C2125 C 0.3386 0.66895 0.79339 0.0
C2126 C 0.34696 0.69052 0.80891 0.0
C2127 C 0.36748 0.69456 0.82484 0.0
C2128 C 0.37231 0.71957 0.83958 0.0
C2129 C 0.37325 0.71989 0.86829 0.0
C2130 C 0.39434 0.73315 0.83405 0.0
C2131 C 0.35171 0.72901 0.82899 0.0
C2132 C 0.33715 0.71166 0.81163 0.0
C2133 C 0.31656 0.71558 0.8 0.0
C2134 C 0.31065 0.7374 0.80606 0.0
C2135 C 0.32518 0.75598 0.82335 0.0
C2136 C 0.34627 0.75147 0.83482 0.0
H2137 H 0.30167 0.68888 0.59761 0.0
H2138 H 0.2886 0.67768 0.5152 0.0
H2139 H 0.25082 0.65419 0.51526 0.0
H2140 H 0.2739 0.63166 0.60351 0.0
H2141 H 0.26324 0.64211 0.63194 0.0
H2142 H 0.28928 0.65724 0.62501 0.0
H2143 H 0.27315 0.6946 0.62805 0.0
H2144 H 0.24705 0.67961 0.6349 0.0
H2145 H 0.2468 0.69461 0.60846 0.0
H2146 H 0.21399 0.6341 0.52491 0.0
H2147 H 0.18079 0.61829 0.54307 0.0
H2148 H 0.21945 0.64097 0.6192 0.0
C2149 C 0.29078 0.68133 0.57965 0.0
C2150 C 0.29754 0.68491 0.5564 0.0
C2151 C 0.28331 0.67492 0.53311 0.0
C2152 C 0.262 0.66162 0.53301 0.0
C2153 C 0.25564 0.65841 0.55637 0.0
C2154 C 0.26969 0.66785 0.57924 0.0
C2155 C 0.25884 0.66212 0.60171 0.0
C2156 C 0.27211 0.6474 0.6164 0.0
C2157 C 0.25631 0.68404 0.6193 0.0
C2158 C 0.23625 0.64842 0.58796 0.0
C2159 C 0.23473 0.64637 0.56185 0.0
C2160 C 0.21507 0.63527 0.54531 0.0
C2161 C 0.19637 0.62621 0.5558 0.0
C2162 C 0.19757 0.62829 0.58257 0.0
C2163 C 0.21794 0.63924 0.5987 0.0
H2164 H 0.68349 0.93198 0.79375 0.0
H2165 H 0.70907 0.97649 0.86688 0.0
H2166 H 0.73528 0.95079 0.87719 0.0
H2167 H 0.68744 0.87598 0.81023 0.0
H2168 H 0.69672 0.86782 0.78006 0.0
H2169 H 0.67925 0.88888 0.78331 0.0
H2170 H 0.71156 0.91405 0.7655 0.0
H2171 H 0.72907 0.89282 0.76673 0.0
H2172 H 0.73955 0.92169 0.78392 0.0
H2173 H 0.75898 0.92043 0.87928 0.0
H2174 H 0.77956 0.88846 0.87223 0.0
H2175 H 0.73919 0.86433 0.79724 0.0
C2176 C 0.69445 0.93607 0.81203 0.0
C2177 C 0.69408 0.9559 0.82976 0.0
C2178 C 0.70909 0.96123 0.85316 0.0
C2179 C 0.72396 0.94674 0.85918 0.0
C2180 C 0.72396 0.92727 0.84132 0.0
C2181 C 0.70988 0.92212 0.81804 0.0
C2182 C 0.71451 0.9012 0.80144 0.0
C2183 C 0.69319 0.88234 0.7934 0.0
C2184 C 0.72425 0.90785 0.77802 0.0
C2185 C 0.73228 0.89447 0.81965 0.0
C2186 C 0.73783 0.90999 0.84237 0.0
C2187 C 0.75467 0.90806 0.86164 0.0
C2188 C 0.76625 0.88986 0.8575 0.0
C2189 C 0.76073 0.8737 0.83441 0.0
C2190 C 0.74343 0.87606 0.81536 0.0
H2191 H 0.75968 0.01505 0.6547 0.0
H2192 H 0.80779 0.07947 0.66625 0.0
H2193 H 0.78238 0.09347 0.63548 0.0
H2194 H 0.74284 1.01077 0.58741 0.0
H2195 H 0.71359 0.99896 0.5876 0.0
H2196 H 0.73525 0.99379 0.61086 0.0
H2197 H 0.71552 1.01063 0.64736 0.0
H2198 H 0.69366 0.01551 0.62418 0.0
H2199 H 0.70921 0.03896 0.64856 0.0
H2200 H 0.75217 0.10077 0.60454 0.0
H2201 H 0.71714 0.10261 0.57776 0.0
H2202 H 0.68952 0.03218 0.58319 0.0
C2203 C 0.76465 0.03229 0.65119 0.0
C2204 C 0.78558 0.04636 0.66313 0.0
C2205 C 0.79169 0.06859 0.65757 0.0
C2206 C 0.77751 0.07658 0.63994 0.0
C2207 C 0.75736 0.06207 0.62798 0.0
C2208 C 0.75078 0.04048 0.63346 0.0
C2209 C 0.72807 0.02852 0.61802 0.0
C2210 C 0.73008 1.00672 0.5999 0.0
C2211 C 0.71059 0.0231 0.63558 0.0
C2212 C 0.72281 0.04702 0.60342 0.0
C2213 C 0.74003 0.06609 0.60934 0.0
C2214 C 0.73862 0.08587 0.59946 0.0
C2215 C 0.71864 0.08659 0.58391 0.0
C2216 C 0.70034 0.06754 0.57812 0.0
C2217 C 0.70293 0.04721 0.58737 0.0
H2218 H 0.40036 0.49187 0.82607 0.0
H2219 H 0.34277 0.5155 0.79086 0.0
H2220 H 0.31827 0.47811 0.79233 0.0
H2221 H 0.38623 0.4338 0.7945 0.0
H2222 H 0.39628 0.42246 0.82191 0.0
H2223 H 0.40846 0.45111 0.81871 0.0
H2224 H 0.39901 0.46723 0.86269 0.0
H2225 H 0.38693 0.43859 0.86611 0.0
H2226 H 0.37037 0.46075 0.86873 0.0
H2227 H 0.30014 0.43473 0.79628 0.0
H2228 H 0.29131 0.39475 0.80416 0.0
H2229 H 0.36113 0.40076 0.83754 0.0
C2230 C 0.38253 0.48945 0.81875 0.0
C2231 C 0.37378 0.50719 0.80828 0.0
C2232 C 0.35019 0.50273 0.7992 0.0
C2233 C 0.3361 0.48127 0.79984 0.0
C2234 C 0.34553 0.46413 0.80994 0.0
C2235 C 0.3683 0.46835 0.81954 0.0
C2236 C 0.37474 0.44761 0.82967 0.0
C2237 C 0.39248 0.43819 0.81534 0.0
C2238 C 0.38327 0.45392 0.85851 0.0
C2239 C 0.35225 0.4306 0.8239 0.0
C2240 C 0.33545 0.4403 0.81254 0.0
C2241 C 0.31336 0.42736 0.80532 0.0
C2242 C 0.30841 0.40445 0.80987 0.0
C2243 C 0.32533 0.39414 0.82164 0.0
C2244 C 0.34757 0.40777 0.82861 0.0
H2245 H 0.20706 0.57228 0.30827 0.0
H2246 H 0.16594 0.60244 0.3591 0.0
H2247 H 0.19165 0.64016 0.36482 0.0
H2248 H 0.26276 0.60794 0.33837 0.0
H2249 H 0.27164 0.6102 0.30805 0.0
H2250 H 0.25235 0.58496 0.3114 0.0
H2251 H 0.22383 0.59097 0.27415 0.0
H2252 H 0.24292 0.61628 0.2708 0.0
H2253 H 0.2145 0.61797 0.27587 0.0
H2254 H 0.2201 0.67469 0.36273 0.0
H2255 H 0.24739 0.7046 0.35024 0.0
H2256 H 0.2682 0.65239 0.29811 0.0
C2257 C 0.20393 0.58675 0.32115 0.0
C2258 C 0.18494 0.58464 0.33368 0.0
C2259 C 0.18065 0.60392 0.34962 0.0
C2260 C 0.19516 0.62528 0.35303 0.0
C2261 C 0.21358 0.62698 0.34001 0.0
C2262 C 0.21789 0.60828 0.3242 0.0
C2263 C 0.23709 0.61526 0.30998 0.0
C2264 C 0.25715 0.60391 0.31741 0.0
C2265 C 0.2291 0.6098 0.28099 0.0
C2266 C 0.24266 0.64084 0.31997 0.0
C2267 C 0.22923 0.64716 0.33767 0.0
C2268 C 0.23084 0.66995 0.34907 0.0
C2269 C 0.24641 0.68677 0.34193 0.0
C2270 C 0.25987 0.68069 0.32331 0.0
C2271 C 0.25808 0.65743 0.3124 0.0
H2272 H 0.58693 0.79482 0.4817 0.0
H2273 H 0.5327 0.75317 0.42433 0.0
H2274 H 0.52955 0.72261 0.45017 0.0
H2275 H 0.61329 0.74781 0.49546 0.0
H2276 H 0.62135 0.7594 0.52902 0.0
H2277 H 0.61882 0.77843 0.5066 0.0
H2278 H 0.5905 0.79664 0.53129 0.0
H2279 H 0.59293 0.77763 0.55376 0.0
H2280 H 0.56556 0.77849 0.53702 0.0
H2281 H 0.53145 0.69718 0.48265 0.0
H2282 H 0.54054 0.67681 0.51781 0.0
H2283 H 0.59517 0.73373 0.5531 0.0
C2284 C 0.57437 0.77927 0.47462 0.0
C2285 C 0.55996 0.77636 0.45104 0.0
C2286 C 0.54393 0.75569 0.44227 0.0
C2287 C 0.54195 0.73831 0.45688 0.0
C2288 C 0.55636 0.74172 0.48003 0.0
C2289 C 0.57246 0.76154 0.48874 0.0
C2290 C 0.58647 0.76042 0.5138 0.0
C2291 C 0.61146 0.76158 0.51104 0.0
C2292 C 0.58369 0.77943 0.53523 0.0
C2293 C 0.57565 0.7369 0.51784 0.0
C2294 C 0.55813 0.72656 0.49828 0.0
C2295 C 0.54521 0.70504 0.49799 0.0
C2296 C 0.55043 0.69366 0.5181 0.0
C2297 C 0.56857 0.70368 0.53814 0.0
C2298 C 0.58134 0.72559 0.53793 0.0
H2299 H 0.62431 0.28488 0.75406 0.0
H2300 H 0.61806 0.34506 0.80666 0.0
H2301 H 0.65888 0.35113 0.82408 0.0
H2302 H 0.66294 0.26501 0.79909 0.0
H2303 H 0.6783 0.25396 0.77499 0.0
H2304 H 0.64889 0.25492 0.76669 0.0
H2305 H 0.65869 0.27859 0.73204 0.0
H2306 H 0.68813 0.27779 0.74028 0.0
H2307 H 0.67935 0.30497 0.74075 0.0
H2308 H 0.70198 0.35156 0.83391 0.0
H2309 H 0.7411 0.3441 0.83795 0.0
H2310 H 0.71792 0.2819 0.78128 0.0
C2311 C 0.6315 0.29935 0.76929 0.0
C2312 C 0.61791 0.31461 0.77886 0.0
C2313 C 0.62803 0.33312 0.79902 0.0
C2314 C 0.65127 0.33673 0.80896 0.0
C2315 C 0.66423 0.32143 0.79895 0.0
C2316 C 0.6545 0.30286 0.77982 0.0
C2317 C 0.67173 0.28835 0.77291 0.0
C2318 C 0.66507 0.26412 0.77877 0.0
C2319 C 0.67464 0.28738 0.74483 0.0
C2320 C 0.69284 0.30183 0.79071 0.0
C2321 C 0.6883 0.32098 0.80549 0.0
C2322 C 0.70553 0.33642 0.82263 0.0
C2323 C 0.72776 0.33208 0.82481 0.0
C2324 C 0.73265 0.31228 0.81023 0.0
C2325 C 0.71479 0.29704 0.79302 0.0
H2326 H 0.03997 0.41828 0.93545 0.0
H2327 H 0.09603 0.39864 0.9792 0.0
H2328 H 0.09889 0.43281 0.01281 0.0
H2329 H 0.05809 0.47867 0.94971 0.0
H2330 H 0.03047 0.4847 0.95303 0.0
H2331 H 0.03312 0.4589 0.93255 0.0
H2332 H 1.0075 0.43454 0.95727 0.0
H2333 H 1.00481 0.46031 0.97786 0.0
H2334 H 1.01494 0.43765 0.99129 0.0
H2335 H 0.09647 0.46977 0.04059 0.0
H2336 H 0.08781 0.50625 0.06174 0.0
H2337 H 0.03203 0.50061 1.00099 0.0
C2338 C 0.05294 0.42134 0.95205 0.0
C2339 C 0.06806 0.4062 0.95471 0.0
C2340 C 0.08443 0.41024 0.97689 0.0
C2341 C 0.08614 0.42953 0.996 0.0
C2342 C 0.07095 0.44416 0.99284 0.0
C2343 C 0.05446 0.44012 0.97159 0.0
C2344 C 0.03966 0.45798 0.9733 0.0
C2345 C 0.0404 0.47083 0.95081 0.0
C2346 C 1.01529 0.44696 0.97503 0.0
C2347 C 0.05113 0.4734 0.99819 0.0
C2348 C 0.06901 0.46497 0.0093 0.0
C2349 C 0.08241 0.47641 0.0322 0.0
C2350 C 0.07743 0.49703 0.04404 0.0
C2351 C 0.05932 0.50587 0.03285 0.0
C2352 C 0.04594 0.49396 0.00978 0.0
H2353 H 0.96561 0.82144 0.25946 0.0
H2354 H 0.98048 0.77411 0.30954 0.0
H2355 H 0.94292 0.77211 0.32175 0.0
H2356 H 0.93353 0.85232 0.30114 0.0
H2357 H 0.91269 0.85584 0.27585 0.0
H2358 H 0.94081 0.85371 0.26993 0.0
H2359 H 0.92423 0.81968 0.23278 0.0
H2360 H 0.89607 0.8217 0.23869 0.0
H2361 H 0.90565 0.79495 0.23856 0.0
H2362 H 0.90469 0.77468 0.32957 0.0
H2363 H 0.86725 0.78303 0.3341 0.0
H2364 H 0.87399 0.82902 0.2798 0.0
C2365 C 0.96093 0.81068 0.273 0.0
C2366 C 0.97639 0.7979 0.28347 0.0
C2367 C 0.96934 0.7841 0.30113 0.0
C2368 C 0.94786 0.78277 0.30822 0.0
C2369 C 0.93314 0.79533 0.29762 0.0
C2370 C 0.93921 0.80914 0.28047 0.0
C2371 C 0.91974 0.82109 0.27266 0.0
C2372 C 0.92714 0.8473 0.28036 0.0
C2373 C 0.91091 0.81393 0.24396 0.0
C2374 C 0.90204 0.81179 0.28822 0.0
C2375 C 0.91039 0.7969 0.30231 0.0
C2376 C 0.89794 0.78626 0.31858 0.0
C2377 C 0.87656 0.79115 0.321 0.0
C2378 C 0.86737 0.80657 0.30726 0.0
C2379 C 0.88027 0.81685 0.29028 0.0
H2380 H 0.5355 0.3321 0.10717 0.0
H2381 H 0.49566 0.35614 0.16342 0.0
H2382 H 0.51326 0.39632 0.16285 0.0
H2383 H 0.58665 0.37701 0.13266 0.0
H2384 H 0.59347 0.3787 0.10134 0.0
H2385 H 0.57916 0.35191 0.10778 0.0
H2386 H 0.54693 0.34983 0.07043 0.0
H2387 H 0.56123 0.37643 0.06385 0.0
H2388 H 0.53249 0.37359 0.06981 0.0
H2389 H 0.53274 0.43342 0.15341 0.0
H2390 H 0.55118 0.46484 0.13432 0.0
H2391 H 0.57935 0.41623 0.08553 0.0
C2392 C 0.53046 0.34583 0.11938 0.0
C2393 C 0.51405 0.34119 0.13512 0.0
C2394 C 0.50815 0.35948 0.15115 0.0
C2395 C 0.51815 0.38226 0.15108 0.0
C2396 C 0.53433 0.38624 0.13532 0.0
C2397 C 0.54055 0.36851 0.11988 0.0
C2398 C 0.55768 0.37733 0.10399 0.0
C2399 C 0.58059 0.37085 0.11192 0.0
C2400 C 0.54905 0.3688 0.07533 0.0
C2401 C 0.55899 0.40282 0.11163 0.0
C2402 C 0.54588 0.40764 0.13021 0.0
C2403 C 0.54339 0.42992 0.13922 0.0
C2404 C 0.55405 0.44766 0.12838 0.0
C2405 C 0.56681 0.44289 0.10862 0.0
C2406 C 0.56979 0.42029 0.10071 0.0
H2407 H 0.0564 0.41846 0.45708 0.0
H2408 H 0.05116 0.363 0.50022 0.0
H2409 H 1.01067 0.35182 0.48398 0.0
H2410 H 0.99883 0.43142 0.46554 0.0
H2411 H 0.9943 0.43803 0.43401 0.0
H2412 H 0.02248 0.44372 0.45179 0.0
H2413 H 0.03526 0.41924 0.41426 0.0
H2414 H 1.00707 0.4129 0.39662 0.0
H2415 H 0.021 0.38981 0.40308 0.0
H2416 H 0.97341 0.34188 0.45734 0.0
H2417 H 0.93835 0.3382 0.4275 0.0
H2418 H 0.96576 0.40207 0.40456 0.0
C2419 C 0.04659 0.40444 0.46369 0.0
C2420 C 0.05701 0.39148 0.47962 0.0
C2421 C 0.04363 0.37314 0.48783 0.0
C2422 C 0.02057 0.36658 0.47873 0.0
C2423 C 1.01103 0.37888 0.46197 0.0
C2424 C 0.02334 0.39783 0.45509 0.0
C2425 C 1.00889 0.4074 0.43603 0.0
C2426 C 1.00595 0.43158 0.44753 0.0
C2427 C 1.01865 0.40731 0.41102 0.0
C2428 C 0.987 0.3901 0.43238 0.0
C2429 C 0.98868 0.37382 0.44754 0.0
C2430 C 0.97148 0.35497 0.44602 0.0
C2431 C 0.95162 0.35306 0.42902 0.0
C2432 C 0.94904 0.37011 0.41408 0.0
C2433 C 0.96712 0.38875 0.4157 0.0
H2434 H 0.96867 0.69359 0.61287 0.0
H2435 H 0.98636 0.73457 0.55623 0.0
H2436 H 1.00763 0.7058 0.53865 0.0
H2437 H 0.02326 0.68103 0.6254 0.0
H2438 H 1.0131 0.65294 0.63192 0.0
H2439 H 0.9972 0.67531 0.6379 0.0
H2440 H 0.96184 0.64923 0.60874 0.0
H2441 H 0.97775 0.62683 0.60298 0.0
H2442 H 0.96393 0.63694 0.57653 0.0
H2443 H 0.03044 0.6743 0.53043 0.0
H2444 H 0.05091 0.64188 0.53141 0.0
H2445 H 1.01768 0.62333 0.59387 0.0
C2446 C 0.97671 0.6965 0.59656 0.0
C2447 C 0.97598 0.71645 0.58605 0.0
C2448 C 0.98676 0.71942 0.56464 0.0
C2449 C 0.9989 0.70322 0.55456 0.0
C2450 C 1.0001 0.68429 0.5662 0.0
C2451 C 0.98923 0.6809 0.58672 0.0
C2452 C 0.99465 0.66044 0.59741 0.0
C2453 C 1.00783 0.66788 0.62476 0.0
C2454 C 0.97326 0.64229 0.59632 0.0
C2455 C 1.0095 0.65226 0.57904 0.0
C2456 C 1.01288 0.66632 0.56139 0.0
C2457 C 0.0276 0.66293 0.54386 0.0
C2458 C 0.03911 0.64461 0.54451 0.0
C2459 C 0.03537 0.63 0.56227 0.0
C2460 C 0.02031 0.63385 0.57953 0.0
H2461 H 0.6734 0.87506 0.93348 0.0
H2462 H 0.62654 0.8154 0.94315 0.0
H2463 H 0.63153 0.79449 0.90148 0.0
H2464 H 0.6561 0.86985 0.86616 0.0
H2465 H 0.68422 0.87882 0.85953 0.0
H2466 H 0.67717 0.88904 0.89021 0.0
H2467 H 0.71027 0.8735 0.91225 0.0
H2468 H 0.71742 0.86354 0.88155 0.0
H2469 H 0.71199 0.84378 0.90297 0.0
H2470 H 0.64043 0.78066 0.85872 0.0
H2471 H 0.65595 0.7729 0.81877 0.0
H2472 H 0.69812 0.84114 0.83731 0.0
C2473 C 0.66474 0.8574 0.92697 0.0
C2474 C 0.65013 0.8464 0.94151 0.0
C2475 C 0.6383 0.82365 0.93234 0.0
C2476 C 0.64082 0.81182 0.90866 0.0
C2477 C 0.65515 0.82313 0.8945 0.0
C2478 C 0.66715 0.84529 0.90336 0.0
C2479 C 0.68162 0.85327 0.88436 0.0
C2480 C 0.67432 0.87396 0.87448 0.0
C2481 C 0.70682 0.85883 0.89597 0.0
C2482 C 0.67601 0.83201 0.86365 0.0
C2483 C 0.66046 0.815 0.86975 0.0
C2484 C 0.65273 0.79376 0.85373 0.0
C2485 C 0.66166 0.7895 0.83113 0.0
C2486 C 0.67825 0.80633 0.82489 0.0
C2487 C 0.68517 0.82801 0.84124 0.0
H2488 H 0.44685 0.61022 0.7203 0.0
H2489 H 0.47311 0.56354 0.76449 0.0
H2490 H 0.50101 0.5584 0.73559 0.0
H2491 H 0.45173 0.57926 0.65849 0.0
H2492 H 0.46004 0.60467 0.64548 0.0
H2493 H 0.44281 0.6055 0.67029 0.0
H2494 H 0.47227 0.63963 0.69757 0.0
H2495 H 0.48964 0.63863 0.67283 0.0
H2496 H 0.50126 0.63663 0.70472 0.0
H2497 H 0.52768 0.55879 0.701 0.0
H2498 H 0.54609 0.56139 0.66262 0.0
H2499 H 0.5011 0.60531 0.63902 0.0
C2500 C 0.45849 0.59895 0.72399 0.0
C2501 C 0.45753 0.58741 0.7452 0.0
C2502 C 0.47321 0.57272 0.74875 0.0
C2503 C 0.48933 0.56972 0.73233 0.0
C2504 C 0.48991 0.58135 0.71182 0.0
C2505 C 0.47467 0.59551 0.70744 0.0
C2506 C 0.47836 0.60536 0.68344 0.0
C2507 C 0.45696 0.59826 0.66323 0.0
C2508 C 0.48581 0.63162 0.69004 0.0
C2509 C 0.49758 0.59422 0.67476 0.0
C2510 C 0.50444 0.58084 0.69169 0.0
C2511 C 0.5223 0.5693 0.68776 0.0
C2512 C 0.53295 0.57107 0.66592 0.0
C2513 C 0.52566 0.58397 0.64767 0.0
C2514 C 0.50767 0.59567 0.65255 0.0
H2515 H 0.86262 0.28954 0.00619 0.0
H2516 H 0.83259 0.21728 0.9803 0.0
H2517 H 0.81218 0.22622 0.94213 0.0
H2518 H 0.81442 0.31271 0.98172 0.0
H2519 H 0.831 0.33603 0.97093 0.0
H2520 H 0.84288 0.32476 0.99756 0.0
H2521 H 0.8765 0.31707 0.9747 0.0
H2522 H 0.86487 0.32862 0.94821 0.0
H2523 H 0.87102 0.30013 0.94299 0.0
H2524 H 0.79412 0.24175 0.90785 0.0
H2525 H 0.78395 0.26257 0.87396 0.0
H2526 H 0.82704 0.32522 0.91792 0.0
C2527 C 0.85181 0.27568 0.99239 0.0
C2528 C 0.84924 0.25268 0.99635 0.0
C2529 C 0.83503 0.23499 0.97775 0.0
C2530 C 0.82313 0.23989 0.95604 0.0
C2531 C 0.82574 0.26258 0.9528 0.0
C2532 C 0.84006 0.28022 0.96999 0.0
C2533 C 0.84069 0.30282 0.96041 0.0
C2534 C 0.83171 0.3201 0.97876 0.0
C2535 C 0.86469 0.31274 0.95633 0.0
C2536 C 0.82459 0.29489 0.93519 0.0
C2537 C 0.8159 0.27166 0.93173 0.0
C2538 C 0.80085 0.25994 0.9102 0.0
C2539 C 0.79513 0.272 0.89105 0.0
C2540 C 0.80468 0.29554 0.89317 0.0
C2541 C 0.81919 0.30734 0.91591 0.0
H2542 H 0.12411 0.54613 0.25447 0.0
H2543 H 0.11693 0.47389 0.22321 0.0
H2544 H 0.10134 0.48074 0.18082 0.0
H2545 H 0.07219 0.55401 0.21632 0.0
H2546 H 0.08443 0.58259 0.21282 0.0
H2547 H 0.09392 0.57172 0.24079 0.0
H2548 H 0.13508 0.5803 0.23197 0.0
H2549 H 0.12573 0.5911 0.20396 0.0
H2550 H 0.14155 0.56831 0.20152 0.0
H2551 H 0.08686 0.49554 0.14202 0.0
H2552 H 0.07565 0.51722 0.10885 0.0
H2553 H 0.09349 0.58049 0.16462 0.0
C2554 C 0.11901 0.53179 0.23866 0.0
C2555 C 0.12145 0.50944 0.2419 0.0
C2556 C 0.11488 0.49104 0.22097 0.0
C2557 C 0.10607 0.49481 0.19691 0.0
C2558 C 0.1039 0.51708 0.19422 0.0
C2559 C 0.11011 0.53527 0.21453 0.0
C2560 C 0.10632 0.55756 0.20639 0.0
C2561 C 0.08814 0.56703 0.21988 0.0
C2562 C 0.1285 0.57536 0.21124 0.0
C2563 C 0.09785 0.54924 0.17811 0.0
C2564 C 0.09615 0.52574 0.17166 0.0
C2565 C 0.08817 0.51393 0.14686 0.0
C2566 C 0.08182 0.5264 0.12814 0.0
C2567 C 0.08388 0.55054 0.13412 0.0
C2568 C 0.092 0.56208 0.15948 0.0
H2569 H 0.80343 0.98205 0.56237 0.0
H2570 H 0.80835 0.94202 0.62258 0.0
H2571 H 0.80303 0.90683 0.59062 0.0
H2572 H 0.7614 0.93617 0.51487 0.0
H2573 H 0.77485 0.94396 0.48871 0.0
H2574 H 0.77473 0.96556 0.51603 0.0
H2575 H 0.81845 0.97652 0.52167 0.0
H2576 H 0.81869 0.95484 0.49465 0.0
H2577 H 0.83496 0.95465 0.52501 0.0
H2578 H 0.804 0.87752 0.55364 0.0
H2579 H 0.80946 0.85545 0.51307 0.0
H2580 H 0.80199 0.91356 0.47628 0.0
C2581 C 0.80258 0.96579 0.56877 0.0
C2582 C 0.80626 0.9648 0.59491 0.0
C2583 C 0.80555 0.94323 0.60261 0.0
C2584 C 0.80243 0.92308 0.58462 0.0
C2585 C 0.79969 0.92473 0.55903 0.0
C2586 C 0.79939 0.94543 0.55102 0.0
C2587 C 0.79843 0.94271 0.52249 0.0
C2588 C 0.77601 0.94738 0.50977 0.0
C2589 C 0.81885 0.95808 0.51557 0.0
C2590 C 0.79952 0.91759 0.51606 0.0
C2591 C 0.79987 0.90745 0.53734 0.0
C2592 C 0.80304 0.885 0.53663 0.0
C2593 C 0.80607 0.8726 0.51351 0.0
C2594 C 0.80596 0.88277 0.49154 0.0
C2595 C 0.80217 0.90537 0.4928 0.0
H2596 H 0.47985 0.56027 0.88253 0.0
H2597 H 0.44326 0.61532 0.89958 0.0
H2598 H 0.45921 0.62015 0.94539 0.0
H2599 H 0.47188 0.53546 0.93764 0.0
H2600 H 0.49944 0.52807 0.94149 0.0
H2601 H 0.48568 0.52956 0.91031 0.0
H2602 H 0.5203 0.55879 0.90462 0.0
H2603 H 0.53423 0.55733 0.93574 0.0
H2604 H 0.53032 0.58466 0.92813 0.0
H2605 H 0.47935 0.61843 0.98994 0.0
H2606 H 0.50114 0.61087 0.02839 0.0
H2607 H 0.52438 0.55632 0.98223 0.0
C2608 C 0.47516 0.57353 0.89572 0.0
C2609 C 0.46019 0.58753 0.88705 0.0
C2610 C 0.45464 0.60443 0.9054 0.0
C2611 C 0.46365 0.60725 0.93155 0.0
C2612 C 0.47819 0.593 0.93926 0.0
C2613 C 0.48388 0.57647 0.92177 0.0
C2614 C 0.49957 0.56306 0.93479 0.0
C2615 C 0.48848 0.53753 0.93082 0.0
C2616 C 0.52246 0.56615 0.92525 0.0
C2617 C 0.50198 0.57461 0.96252 0.0
C2618 C 0.48951 0.59185 0.96466 0.0
C2619 C 0.48909 0.60496 0.98832 0.0
C2620 C 0.50162 0.60046 0.0102 0.0
C2621 C 0.51464 0.58291 0.00871 0.0
C2622 C 0.51469 0.56983 0.98431 0.0
H2623 H 0.84673 0.23558 0.17162 0.0
H2624 H 0.8704 0.29346 0.13655 0.0
H2625 H 0.85985 0.31964 0.17154 0.0
H2626 H 0.79865 0.25535 0.19056 0.0
H2627 H 0.80049 0.24425 0.21977 0.0
H2628 H 0.81109 0.23048 0.19287 0.0
H2629 H 0.85027 0.2353 0.2206 0.0
H2630 H 0.83975 0.24896 0.24764 0.0
H2631 H 0.86453 0.26343 0.23746 0.0
H2632 H 0.84446 0.33931 0.21 0.0
H2633 H 0.82737 0.35029 0.24863 0.0
H2634 H 0.8145 0.27927 0.25781 0.0
C2635 C 0.85009 0.2538 0.17135 0.0
C2636 C 0.85964 0.26241 0.15127 0.0
C2637 C 0.86331 0.28639 0.15172 0.0
C2638 C 0.85728 0.30139 0.17151 0.0
C2639 C 0.84755 0.29218 0.19072 0.0
C2640 C 0.84411 0.26889 0.19078 0.0
C2641 C 0.83269 0.263 0.21298 0.0
C2642 C 0.80935 0.24735 0.20347 0.0
C2643 C 0.84771 0.25203 0.23071 0.0
C2644 C 0.83047 0.28664 0.22571 0.0
C2645 C 0.83892 0.30331 0.21256 0.0
C2646 C 0.83794 0.32637 0.22046 0.0
C2647 C 0.82818 0.33248 0.24232 0.0
C2648 C 0.81977 0.31564 0.25609 0.0
C2649 C 0.82099 0.29249 0.24765 0.0
H2650 H 0.08079 0.512 0.38725 0.0
H2651 H 0.15316 0.53715 0.40563 0.0
H2652 H 0.14935 0.55044 0.45041 0.0
H2653 H 0.06294 0.5551 0.4239 0.0
H2654 H 0.04079 0.53744 0.43528 0.0
H2655 H 0.04927 0.52738 0.40539 0.0
H2656 H 0.05743 0.49056 0.42098 0.0
H2657 H 0.04847 0.50031 0.45077 0.0
H2658 H 0.07599 0.49308 0.45061 0.0
H2659 H 0.13723 0.56507 0.4915 0.0
H2660 H 0.11824 0.57663 0.52778 0.0
H2661 H 0.05359 0.54078 0.48356 0.0
C2662 C 0.09586 0.51977 0.4009 0.0
C2663 C 0.11729 0.52349 0.39307 0.0
C2664 C 0.13666 0.53383 0.41134 0.0
C2665 C 0.13463 0.54155 0.43677 0.0
C2666 C 0.11319 0.53824 0.44374 0.0
C2667 C 0.0942 0.52704 0.42653 0.0
C2668 C 0.07313 0.52597 0.43898 0.0
C2669 C 0.05551 0.53716 0.42506 0.0
C2670 C 0.06317 0.501 0.44042 0.0
C2671 C 0.08303 0.53983 0.46529 0.0
C2672 C 0.10622 0.54638 0.46771 0.0
C2673 C 0.11913 0.55975 0.48997 0.0
C2674 C 0.10813 0.56634 0.51045 0.0
C2675 C 0.0844 0.55971 0.50856 0.0
C2676 C 0.07173 0.54629 0.48559 0.0
H2677 H 0.80551 0.94565 0.71907 0.0
H2678 H 0.87814 0.96966 0.73446 0.0
H2679 H 0.8827 0.93434 0.75118 0.0
H2680 H 0.80194 0.9203 0.77593 0.0
H2681 H 0.77942 0.89703 0.75978 0.0
H2682 H 0.78238 0.92436 0.7497 0.0
H2683 H 0.78378 0.90399 0.70387 0.0
H2684 H 0.78151 0.8767 0.71404 0.0
H2685 H 0.8049 0.88683 0.69866 0.0
H2686 H 0.87926 0.89524 0.76292 0.0
H2687 H 0.86786 0.85901 0.77807 0.0
H2688 H 0.79736 0.86185 0.75661 0.0
C2689 C 0.82234 0.94363 0.7264 0.0
C2690 C 0.84152 0.96021 0.72561 0.0
C2691 C 0.86328 0.95716 0.73529 0.0
C2692 C 0.86602 0.93708 0.74443 0.0
C2693 C 0.84677 0.92059 0.74398 0.0
C2694 C 0.82532 0.92396 0.73589 0.0
C2695 C 0.80733 0.90406 0.73829 0.0
C2696 C 0.79187 0.9119 0.75705 0.0
C2697 C 0.79358 0.8922 0.71215 0.0
C2698 C 0.82206 0.88887 0.74888 0.0
C2699 C 0.84475 0.89849 0.75159 0.0
C2700 C 0.86155 0.88763 0.76113 0.0
C2701 C 0.85493 0.86701 0.76952 0.0
C2702 C 0.83178 0.8579 0.76879 0.0
C2703 C 0.81519 0.86845 0.75732 0.0
H2704 H 0.65328 0.44778 0.59966 0.0
H2705 H 0.70544 0.48645 0.56679 0.0
H2706 H 0.68641 0.51951 0.57119 0.0
H2707 H 0.60704 0.46882 0.56698 0.0
H2708 H 0.59136 0.46977 0.59323 0.0
H2709 H 0.60962 0.44933 0.58892 0.0
H2710 H 0.63074 0.46507 0.63495 0.0
H2711 H 0.6126 0.48568 0.63914 0.0
H2712 H 0.64283 0.49526 0.64433 0.0
H2713 H 0.66349 0.54908 0.58112 0.0
H2714 H 0.63383 0.57142 0.58835 0.0
H2715 H 0.5934 0.51304 0.61006 0.0
C2716 C 0.66059 0.46322 0.59338 0.0
C2717 C 0.68093 0.4646 0.583 0.0
C2718 C 0.68987 0.48497 0.57471 0.0
C2719 C 0.67928 0.50393 0.57731 0.0
C2720 C 0.65945 0.50218 0.58778 0.0
C2721 C 0.64979 0.48222 0.59511 0.0
C2722 C 0.62746 0.48466 0.60414 0.0
C2723 C 0.6077 0.46711 0.5873 0.0
C2724 C 0.62848 0.48254 0.63231 0.0
C2725 C 0.62619 0.50903 0.60062 0.0
C2726 C 0.64518 0.51893 0.59183 0.0
C2727 C 0.64847 0.5415 0.58788 0.0
C2728 C 0.63161 0.55415 0.59232 0.0
C2729 C 0.61143 0.54408 0.60004 0.0
C2730 C 0.60877 0.52123 0.6044 0.0
H2731 H 0.17438 0.09084 0.47405 0.0
H2732 H 0.20957 0.15938 0.5107 0.0
H2733 H 0.18369 0.16002 0.54242 0.0
H2734 H 0.11889 0.1011 0.48058 0.0
H2735 H 0.10826 0.07284 0.48636 0.0
H2736 H 0.13052 0.077 0.46754 0.0
H2737 H 0.15559 0.05859 0.49777 0.0
H2738 H 0.13341 0.05447 0.51675 0.0
H2739 H 0.16117 0.07016 0.53145 0.0
H2740 H 0.15443 0.1535 0.56992 0.0
H2741 H 0.12082 0.1415 0.58954 0.0
H2742 H 0.10292 0.07824 0.53367 0.0
C2743 C 0.17644 0.10593 0.48873 0.0
C2744 C 0.19357 0.1252 0.48989 0.0
C2745 C 0.19612 0.14468 0.50935 0.0
C2746 C 0.1817 0.14511 0.52755 0.0
C2747 C 0.16476 0.12598 0.52583 0.0
C2748 C 0.16184 0.10684 0.50681 0.0
C2749 C 0.14142 0.08919 0.50856 0.0
C2750 C 0.12372 0.08478 0.48432 0.0
C2751 C 0.14832 0.06678 0.51396 0.0
C2752 C 0.13327 0.10158 0.53131 0.0
C2753 C 0.14724 0.12257 0.54124 0.0
C2754 C 0.14328 0.13713 0.56233 0.0
C2755 C 0.12423 0.13019 0.57335 0.0
C2756 C 0.10934 0.10911 0.56294 0.0
C2757 C 0.11404 0.09454 0.54185 0.0
H2758 H 0.21892 0.97362 0.85725 0.0
H2759 H 0.2511 1.00565 0.80104 0.0
H2760 H 0.26952 0.97252 0.79138 0.0
H2761 H 0.26934 0.95176 0.87873 0.0
H2762 H 0.25496 0.92547 0.88567 0.0
H2763 H 0.24195 0.95028 0.88848 0.0
H2764 H 0.20646 0.92916 0.85715 0.0
H2765 H 0.2178 0.90327 0.85497 0.0
H2766 H 0.20926 0.91385 0.82646 0.0
H2767 H 0.28536 0.93527 0.78743 0.0
H2768 H 0.29687 0.89812 0.78986 0.0
H2769 H 0.25537 0.88814 0.84833 0.0
C2770 C 0.22971 0.97365 0.84277 0.0
C2771 C 0.23317 0.99281 0.82986 0.0
C2772 C 0.24792 0.99173 0.81142 0.0
C2773 C 0.25852 0.97272 0.80567 0.0
C2774 C 0.25482 0.95433 0.8186 0.0
C2775 C 0.24088 0.95467 0.83696 0.0
C2776 C 0.24116 0.93322 0.84915 0.0
C2777 C 0.25247 0.9406 0.87716 0.0
C2778 C 0.21723 0.91903 0.84679 0.0
C2779 C 0.2559 0.91997 0.8335 0.0
C2780 C 0.26406 0.9329 0.81642 0.0
C2781 C 0.27882 0.92505 0.80065 0.0
C2782 C 0.28533 0.9037 0.80216 0.0
C2783 C 0.27696 0.88949 0.81891 0.0
C2784 C 0.2619 0.89805 0.83485 0.0
H2785 H 0.30603 0.9969 0.09425 0.0
H2786 H 0.30589 0.92466 0.07028 0.0
H2787 H 0.34724 0.93352 0.07145 0.0
H2788 H 0.34151 0.01856 0.05898 0.0
H2789 H 0.35712 0.04313 0.08186 0.0
H2790 H 0.32878 0.03096 0.08494 0.0
H2791 H 0.34233 0.02537 0.13075 0.0
H2792 H 0.37081 0.03799 0.12803 0.0
H2793 H 0.36486 1.00996 0.13632 0.0
H2794 H 0.38593 0.95091 0.06601 0.0
H2795 H 0.42037 0.97532 0.05827 0.0
H2796 H 0.39605 0.03617 0.08852 0.0
C2797 C 0.31496 0.98296 0.09026 0.0
C2798 C 0.30313 0.96018 0.0823 0.0
C2799 C 0.31495 0.94219 0.07681 0.0
C2800 C 0.33836 0.94707 0.07742 0.0
C2801 C 0.34956 0.9699 0.08438 0.0
C2802 C 0.33836 0.9875 0.09147 0.0
C2803 C 0.35393 1.01069 0.09607 0.0
C2804 C 0.34478 0.02675 0.07945 0.0
C2805 C 0.35823 0.02165 0.12448 0.0
C2806 C 0.37491 1.00354 0.08795 0.0
C2807 C 0.37228 0.97992 0.08192 0.0
C2808 C 0.38854 0.96938 0.07152 0.0
C2809 C 0.408 0.98336 0.06716 0.0
C2810 C 0.41085 1.00758 0.07299 0.0
C2811 C 0.39427 0.01769 0.08394 0.0
H2812 H 0.88911 0.68906 0.83644 0.0
H2813 H 0.93315 0.70634 0.78225 0.0
H2814 H 0.90872 0.73251 0.76815 0.0
H2815 H 0.8379 0.69207 0.79708 0.0
H2816 H 0.82453 0.70521 0.8217 0.0
H2817 H 0.84379 0.68661 0.829 0.0
H2818 H 0.86982 0.71729 0.86371 0.0
H2819 H 0.85035 0.73631 0.85953 0.0
H2820 H 0.87965 0.74544 0.8571 0.0
H2821 H 0.88181 0.75925 0.76219 0.0
H2822 H 0.85336 0.78423 0.76505 0.0
H2823 H 0.82868 0.75165 0.825 0.0
C2824 C 0.89378 0.69863 0.82186 0.0
C2825 C 0.91312 0.69593 0.81062 0.0
C2826 C 0.91862 0.70852 0.79142 0.0
C2827 C 0.90495 0.72339 0.78329 0.0
C2828 C 0.88637 0.72619 0.79518 0.0
C2829 C 0.88084 0.71428 0.81418 0.0
C2830 C 0.86013 0.72068 0.82405 0.0
C2831 C 0.84044 0.6999 0.81764 0.0
C2832 C 0.86531 0.73052 0.8528 0.0
C2833 C 0.85564 0.73888 0.8086 0.0
C2834 C 0.87058 0.74136 0.79151 0.0
C2835 C 0.86983 0.75727 0.77528 0.0
C2836 C 0.85358 0.77126 0.77687 0.0
C2837 C 0.83877 0.76951 0.79493 0.0
C2838 C 0.83971 0.75302 0.8108 0.0
H2839 H 0.81874 0.57713 1.00495 0.0
H2840 H 0.83819 0.6491 1.00038 0.0
H2841 H 0.87622 0.64998 0.02284 0.0
H2842 H 0.84576 0.58058 0.06579 0.0
H2843 H 0.85519 0.55366 0.06022 0.0
H2844 H 0.83022 0.55752 0.04092 0.0
H2845 H 0.84716 0.54712 0.99975 0.0
H2846 H 0.87188 0.54244 0.01889 0.0
H2847 H 0.87476 0.56224 0.99711 0.0
H2848 H 0.90957 0.64477 0.05186 0.0
H2849 H 0.93964 0.63142 0.0773 0.0
H2850 H 0.89922 0.56231 0.06011 0.0
C2851 C 0.83126 0.59282 0.00778 0.0
C2852 C 0.82553 0.61296 1.00085 0.0
C2853 C 0.84227 0.63331 1.00519 0.0
C2854 C 0.86386 0.6341 0.01824 0.0
C2855 C 0.86846 0.6143 0.02626 0.0
C2856 C 0.85293 0.59385 0.0205 0.0
C2857 C 0.86198 0.57516 0.03177 0.0
C2858 C 0.84741 0.56622 0.0508 0.0
C2859 C 0.86409 0.55559 0.01062 0.0
C2860 C 0.88483 0.58847 0.04522 0.0
C2861 C 0.88814 0.61107 0.0421 0.0
C2862 C 0.90748 0.62696 0.05389 0.0
C2863 C 0.92441 0.61921 0.06832 0.0
C2864 C 0.92194 0.59575 0.07041 0.0
C2865 C 0.90164 0.58038 0.05914 0.0
H2866 H 0.20549 0.15413 0.81372 0.0
H2867 H 0.26178 0.1349 0.85738 0.0
H2868 H 0.28541 0.17298 0.85694 0.0
H2869 H 0.239 0.18547 0.77388 0.0
H2870 H 0.22112 0.20639 0.77273 0.0
H2871 H 0.20951 0.17765 0.77625 0.0
H2872 H 0.19506 0.19393 0.81716 0.0
H2873 H 0.20672 0.2227 0.81385 0.0
H2874 H 0.2147 0.21274 0.84293 0.0
H2875 H 0.30277 0.21617 0.85237 0.0
H2876 H 0.31117 0.25576 0.8433 0.0
H2877 H 0.2432 0.24581 0.80232 0.0
C2878 C 0.22285 0.1577 0.82318 0.0
C2879 C 0.23149 0.14098 0.8357 0.0
C2880 C 0.25448 0.14689 0.8475 0.0
C2881 C 0.26807 0.16873 0.84741 0.0
C2882 C 0.25877 0.18481 0.83514 0.0
C2883 C 0.23662 0.17922 0.82299 0.0
C2884 C 0.2303 0.19903 0.81083 0.0
C2885 C 0.22464 0.1917 0.7817 0.0
C2886 C 0.21053 0.2076 0.82186 0.0
C2887 C 0.25203 0.21712 0.81851 0.0
C2888 C 0.26844 0.20867 0.83239 0.0
C2889 C 0.28988 0.22259 0.84141 0.0
C2890 C 0.29458 0.24526 0.83613 0.0
C2891 C 0.27803 0.25438 0.82198 0.0
C2892 C 0.25644 0.23975 0.81319 0.0
H2893 H 0.41723 0.04425 0.28975 0.0
H2894 H 0.39796 0.09786 0.34164 0.0
H2895 H 0.36871 0.06922 0.3527 0.0
H2896 H 0.35797 1.00897 0.26919 0.0
H2897 H 0.36831 0.9825 0.26721 0.0
H2898 H 0.38539 1.00771 0.26037 0.0
H2899 H 0.41815 1.00393 0.2943 0.0
H2900 H 0.40112 0.97901 0.30151 0.0
H2901 H 0.41328 1.0033 0.32653 0.0
H2902 H 0.34668 0.03468 0.36379 0.0
H2903 H 0.3305 0.99639 0.37121 0.0
H2904 H 0.36154 0.96511 0.3098 0.0
C2905 C 0.4064 0.05001 0.30285 0.0
C2906 C 0.40985 0.07324 0.31479 0.0
C2907 C 0.39549 0.08017 0.33204 0.0
C2908 C 0.37883 0.06404 0.33851 0.0
C2909 C 0.37637 0.04116 0.32708 0.0
C2910 C 0.38938 0.03417 0.30918 0.0
C2911 C 0.38419 1.00834 0.30093 0.0
C2912 C 0.37331 1.00148 0.27275 0.0
C2913 C 0.40545 0.99806 0.30615 0.0
C2914 C 0.36732 1.0019 0.31817 0.0
C2915 C 0.36286 0.02109 0.33288 0.0
C2916 C 0.34943 0.01949 0.35184 0.0
C2917 C 0.34026 0.99763 0.35586 0.0
C2918 C 0.34453 0.97768 0.34094 0.0
C2919 C 0.35799 0.97997 0.32161 0.0
H2920 H 0.56258 0.38701 0.70935 0.0
H2921 H 0.53421 0.32494 0.65358 0.0
H2922 H 0.53037 0.34797 0.61996 0.0
H2923 H 0.52799 0.42243 0.6856 0.0
H2924 H 0.54978 0.44785 0.6909 0.0
H2925 H 0.55186 0.4265 0.71055 0.0
H2926 H 0.59122 0.42298 0.69859 0.0
H2927 H 0.58924 0.44439 0.67891 0.0
H2928 H 0.59427 0.41666 0.66549 0.0
H2929 H 0.52651 0.37743 0.59313 0.0
H2930 H 0.52351 0.41177 0.57448 0.0
H2931 H 0.55662 0.45505 0.64649 0.0
C2932 C 0.55578 0.3783 0.69001 0.0
C2933 C 0.5487 0.35418 0.6841 0.0
C2934 C 0.53988 0.34338 0.65856 0.0
C2935 C 0.53763 0.3563 0.63929 0.0
C2936 C 0.54462 0.38001 0.64572 0.0
C2937 C 0.55375 0.39095 0.67036 0.0
C2938 C 0.55944 0.41675 0.67206 0.0
C2939 C 0.54648 0.4291 0.69089 0.0
C2940 C 0.58506 0.42572 0.67919 0.0
C2941 C 0.55115 0.41854 0.64481 0.0
C2942 C 0.5429 0.39712 0.62991 0.0
C2943 C 0.5333 0.39432 0.60445 0.0
C2944 C 0.53182 0.41398 0.59396 0.0
C2945 C 0.53995 0.43621 0.60889 0.0
C2946 C 0.5501 0.43837 0.63456 0.0
H2947 H 0.47395 0.80484 0.35136 0.0
H2948 H 0.49709 0.87819 0.37736 0.0
H2949 H 0.45802 0.88406 0.36936 0.0
H2950 H 0.43102 0.8102 0.30009 0.0
H2951 H 0.41042 0.78602 0.30359 0.0
H2952 H 0.44012 0.78656 0.31249 0.0
H2953 H 0.43345 0.78066 0.35766 0.0
H2954 H 0.40373 0.78007 0.34885 0.0
H2955 H 0.41973 0.80022 0.37619 0.0
H2956 H 0.41771 0.88328 0.35703 0.0
H2957 H 0.3771 0.87592 0.34168 0.0
H2958 H 0.37645 0.80286 0.32294 0.0
C2959 C 0.47065 0.82205 0.35562 0.0
C2960 C 0.4888 0.84115 0.36512 0.0
C2961 C 0.48368 0.86336 0.37004 0.0
C2962 C 0.46145 0.86688 0.36559 0.0
C2963 C 0.44407 0.84803 0.35588 0.0
C2964 C 0.44817 0.82599 0.35089 0.0
C2965 C 0.42593 0.80915 0.33948 0.0
C2966 C 0.42694 0.79727 0.3123 0.0
C2967 C 0.42039 0.79148 0.35657 0.0
C2968 C 0.40891 0.82524 0.33916 0.0
C2969 C 0.42008 0.84756 0.34865 0.0
C2970 C 0.40878 0.86585 0.34965 0.0
C2971 C 0.38553 0.86143 0.34068 0.0
C2972 C 0.37322 0.83881 0.33088 0.0
C2973 C 0.38519 0.82035 0.33036 0.0
H2974 H 0.04534 0.71113 0.21828 0.0
H2975 H 0.03608 0.75691 0.16469 0.0
H2976 H 0.0376 0.72602 0.12928 0.0
H2977 H 0.08448 0.68319 0.18727 0.0
H2978 H 0.07357 0.65529 0.1938 0.0
H2979 H 0.07124 0.6808 0.21507 0.0
H2980 H 0.02787 0.66682 0.20961 0.0
H2981 H 0.03013 0.6412 0.18849 0.0
H2982 H 1.01154 0.65939 0.17805 0.0
H2983 H 0.04259 0.69126 0.10008 0.0
H2984 H 0.04733 0.65337 0.07835 0.0
H2985 H 0.05123 0.62937 0.15029 0.0
C2986 C 0.04341 0.7146 0.19908 0.0
C2987 C 0.04058 0.73645 0.19428 0.0
C2988 C 0.03822 0.74031 0.16887 0.0
C2989 C 0.03912 0.7229 0.14861 0.0
C2990 C 0.04224 0.70169 0.15405 0.0
C2991 C 0.04412 0.69736 0.17859 0.0
C2992 C 0.04752 0.67306 0.17919 0.0
C2993 C 0.07057 0.6731 0.19476 0.0
C2994 C 0.0281 0.65931 0.18944 0.0
C2995 C 0.04699 0.66436 0.15111 0.0
C2996 C 0.0443 0.68129 0.13701 0.0
C2997 C 0.04444 0.67778 0.11085 0.0
C2998 C 0.04723 0.6563 0.09871 0.0
C2999 C 0.04938 0.63856 0.11269 0.0
C3000 C 0.04923 0.64262 0.13918 0.0
H3001 H 0.14646 0.32525 0.90378 0.0
H3002 H 0.11387 0.34792 0.83841 0.0
H3003 H 0.14921 0.35084 0.82035 0.0
H3004 H 0.20197 0.36112 0.90865 0.0
H3005 H 0.21746 0.33953 0.91657 0.0
H3006 H 0.18974 0.33937 0.92508 0.0
H3007 H 0.17647 0.29749 0.90084 0.0
H3008 H 0.20417 0.29755 0.89232 0.0
H3009 H 0.17964 0.29055 0.86784 0.0
H3010 H 0.18763 0.35184 0.80905 0.0
H3011 H 0.22661 0.34928 0.80392 0.0
H3012 H 0.23621 0.32503 0.8756 0.0
C3013 C 0.14678 0.33083 0.88566 0.0
C3014 C 0.12713 0.33639 0.87258 0.0
C3015 C 0.12843 0.3435 0.84886 0.0
C3016 C 0.14855 0.34529 0.83844 0.0
C3017 C 0.16749 0.33979 0.85173 0.0
C3018 C 0.16687 0.33254 0.87474 0.0
C3019 C 0.18976 0.32717 0.88454 0.0
C3020 C 0.20035 0.34273 0.91024 0.0
C3021 C 0.18736 0.30167 0.8865 0.0
C3022 C 0.20331 0.33278 0.86355 0.0
C3023 C 0.18995 0.34005 0.84492 0.0
C3024 C 0.19822 0.34616 0.82352 0.0
C3025 C 0.22057 0.34465 0.82083 0.0
C3026 C 0.23484 0.33703 0.83933 0.0
C3027 C 0.22597 0.33112 0.86116 0.0
H3028 H 0.59772 0.81275 0.06157 0.0
H3029 H 0.56532 0.79731 0.98245 0.0
H3030 H 0.54082 0.76318 0.99055 0.0
H3031 H 0.59904 0.75584 0.06849 0.0
H3032 H 0.593 0.75939 0.10063 0.0
H3033 H 0.60685 0.78364 0.08902 0.0
H3034 H 0.57546 0.80575 0.10088 0.0
H3035 H 0.56137 0.78133 0.11217 0.0
H3036 H 0.54633 0.79326 0.08811 0.0
H3037 H 0.52228 0.72941 1.00563 0.0
H3038 H 0.51191 0.69659 0.02703 0.0
H3039 H 0.55494 0.73419 0.09661 0.0
C3040 C 0.58543 0.80218 0.04603 0.0
C3041 C 0.5834 0.80761 0.02143 0.0
C3042 C 0.5671 0.79347 1.00151 0.0
C3043 C 0.55299 0.77413 1.00591 0.0
C3044 C 0.55521 0.76935 0.03039 0.0
C3045 C 0.57099 0.78288 0.05014 0.0
C3046 C 0.57061 0.7731 0.0743 0.0
C3047 C 0.59374 0.76766 0.08364 0.0
C3048 C 0.56299 0.78934 0.09509 0.0
C3049 C 0.55286 0.7515 0.06465 0.0
C3050 C 0.54395 0.74989 0.03936 0.0
C3051 C 0.52871 0.73061 0.02557 0.0
C3052 C 0.52292 0.71213 0.0378 0.0
C3053 C 0.53236 0.71325 0.06344 0.0
C3054 C 0.54699 0.73336 0.07721 0.0
H3055 H 0.07475 0.78905 0.66001 0.0
H3056 H 0.0431 0.72186 0.67104 0.0
H3057 H 0.07682 0.72057 0.7012 0.0
H3058 H 0.13469 0.78043 0.66778 0.0
H3059 H 0.14511 0.80926 0.68523 0.0
H3060 H 0.12036 0.80321 0.66113 0.0
H3061 H 0.09799 0.82101 0.6943 0.0
H3062 H 0.12249 0.82672 0.71859 0.0
H3063 H 0.09639 0.80991 0.72334 0.0
H3064 H 0.11079 0.7284 0.73361 0.0
H3065 H 0.14516 0.74376 0.76518 0.0
H3066 H 0.15482 0.80674 0.73469 0.0
C3067 C 0.07545 0.77366 0.66791 0.0
C3068 C 0.05673 0.75524 0.66285 0.0
C3069 C 0.05758 0.73584 0.67441 0.0
C3070 C 0.07657 0.73503 0.69158 0.0
C3071 C 0.0944 0.75384 0.69702 0.0
C3072 C 0.09418 0.77274 0.68542 0.0
C3073 C 0.11457 0.79159 0.69668 0.0
C3074 C 0.12958 0.79639 0.6765 0.0
C3075 C 0.10742 0.81359 0.70895 0.0
C3076 C 0.12603 0.7804 0.71664 0.0
C3077 C 0.11408 0.75863 0.71638 0.0
C3078 C 0.12049 0.74529 0.73383 0.0
C3079 C 0.13987 0.75428 0.75186 0.0
C3080 C 0.15255 0.77645 0.7524 0.0
C3081 C 0.14554 0.78965 0.7345 0.0
H3082 H 0.13572 0.45837 0.53187 0.0
H3083 H 0.1307 0.42067 0.59388 0.0
H3084 H 0.10867 0.44795 0.61359 0.0
H3085 H 0.13608 0.51592 0.56248 0.0
H3086 H 0.11702 0.52044 0.53606 0.0
H3087 H 0.13597 0.50091 0.53067 0.0
H3088 H 0.10154 0.46881 0.50871 0.0
H3089 H 0.08262 0.48824 0.51477 0.0
H3090 H 0.07872 0.46139 0.52599 0.0
H3091 H 0.08355 0.47816 0.62368 0.0
H3092 H 0.05986 0.50822 0.6232 0.0
H3093 H 0.07979 0.52065 0.55141 0.0
C3094 C 0.13113 0.45639 0.5503 0.0
C3095 C 0.13568 0.4379 0.56185 0.0
C3096 C 0.128 0.43522 0.58517 0.0
C3097 C 0.11525 0.45043 0.59628 0.0
C3098 C 0.10995 0.46766 0.58337 0.0
C3099 C 0.11765 0.47047 0.56076 0.0
C3100 C 0.10713 0.48756 0.5482 0.0
C3101 C 0.12513 0.50739 0.54416 0.0
C3102 C 0.0916 0.47579 0.52295 0.0
C3103 C 0.09356 0.49524 0.56811 0.0
C3104 C 0.09484 0.4835 0.58815 0.0
C3105 C 0.08263 0.48757 0.60816 0.0
C3106 C 0.06922 0.50447 0.60775 0.0
C3107 C 0.06853 0.51684 0.58756 0.0
C3108 C 0.08053 0.51182 0.56746 0.0
H3109 H 0.46352 0.30118 0.20746 0.0
H3110 H 0.45878 0.23607 0.23365 0.0
H3111 H 0.44777 0.25365 0.27356 0.0
H3112 H 0.48606 0.3378 0.26899 0.0
H3113 H 0.46996 0.35945 0.26299 0.0
H3114 H 0.4785 0.34209 0.23686 0.0
H3115 H 0.43681 0.32954 0.21469 0.0
H3116 H 0.42815 0.34697 0.24059 0.0
H3117 H 0.41582 0.31682 0.23175 0.0
H3118 H 0.43666 0.27793 0.31009 0.0
H3119 H 0.42045 0.30525 0.3376 0.0
H3120 H 0.43465 0.35543 0.28897 0.0
C3121 C 0.46013 0.29057 0.22154 0.0
C3122 C 0.46204 0.26725 0.21743 0.0
C3123 C 0.45745 0.25399 0.23637 0.0
C3124 C 0.45137 0.26385 0.2592 0.0
C3125 C 0.45012 0.287 0.26284 0.0
C3126 C 0.45416 0.30014 0.24447 0.0
C3127 C 0.45048 0.3243 0.25256 0.0
C3128 C 0.47257 0.34195 0.25553 0.0
C3129 C 0.4317 0.32971 0.23379 0.0
C3130 C 0.44318 0.3225 0.27811 0.0
C3131 C 0.44345 0.30097 0.28386 0.0
C3132 C 0.43635 0.29487 0.30581 0.0
C3133 C 0.42748 0.31073 0.3216 0.0
C3134 C 0.42619 0.33267 0.31561 0.0
C3135 C 0.43505 0.33878 0.29404 0.0
H3136 H 0.65184 0.60266 0.42658 0.0
H3137 H 0.64842 0.52934 0.40782 0.0
H3138 H 0.62524 0.52383 0.44209 0.0
H3139 H 0.65634 0.60603 0.49589 0.0
H3140 H 0.63999 0.62834 0.49935 0.0
H3141 H 0.65664 0.62586 0.47405 0.0
H3142 H 0.6209 0.62342 0.44121 0.0
H3143 H 0.6041 0.62548 0.46638 0.0
H3144 H 0.59636 0.60152 0.44013 0.0
H3145 H 0.59874 0.52701 0.47819 0.0
H3146 H 0.57816 0.53869 0.5137 0.0
H3147 H 0.60113 0.60998 0.50956 0.0
C3148 C 0.64663 0.5854 0.42991 0.0
C3149 C 0.65239 0.56646 0.41431 0.0
C3150 C 0.64482 0.54425 0.41953 0.0
C3151 C 0.63133 0.54097 0.43891 0.0
C3152 C 0.62558 0.56005 0.45348 0.0
C3153 C 0.63354 0.5819 0.44941 0.0
C3154 C 0.62557 0.5998 0.46767 0.0
C3155 C 0.64584 0.61596 0.48528 0.0
C3156 C 0.61086 0.61335 0.45296 0.0
C3157 C 0.61159 0.58482 0.48256 0.0
C3158 C 0.61147 0.56186 0.47406 0.0
C3159 C 0.59904 0.54501 0.48488 0.0
C3160 C 0.58711 0.55178 0.50501 0.0
C3161 C 0.58769 0.5753 0.51462 0.0
C3162 C 0.60009 0.59183 0.50282 0.0
H3163 H 0.25008 0.91169 0.1739 0.0
H3164 H 0.23821 0.84941 0.11692 0.0
H3165 H 0.25379 0.82901 0.14921 0.0
H3166 H 0.30168 0.90504 0.20866 0.0
H3167 H 0.29518 0.91511 0.2397 0.0
H3168 H 0.28302 0.92519 0.21235 0.0
H3169 H 0.24282 0.91149 0.22216 0.0
H3170 H 0.25494 0.90162 0.24971 0.0
H3171 H 0.2342 0.88208 0.22562 0.0
H3172 H 0.27283 0.81598 0.18659 0.0
H3173 H 0.28952 0.8094 0.22821 0.0
H3174 H 0.28687 0.87909 0.26252 0.0
C3175 C 0.25059 0.8937 0.16832 0.0
C3176 C 0.24294 0.88212 0.14284 0.0
C3177 C 0.2438 0.85858 0.13631 0.0
C3178 C 0.25277 0.84688 0.1545 0.0
C3179 C 0.26046 0.85882 0.1793 0.0
C3180 C 0.25904 0.88157 0.18644 0.0
C3181 C 0.26778 0.89 0.21471 0.0
C3182 C 0.28812 0.91002 0.21909 0.0
C3183 C 0.2488 0.89669 0.22888 0.0
C3184 C 0.27481 0.86861 0.22212 0.0
C3185 C 0.27058 0.85093 0.2013 0.0
C3186 C 0.27605 0.82964 0.20308 0.0
C3187 C 0.2857 0.82614 0.22685 0.0
C3188 C 0.2896 0.84373 0.24873 0.0
C3189 C 0.28414 0.8653 0.2462 0.0
H3190 H 0.02941 0.64261 0.91285 0.0
H3191 H 0.95624 0.62958 0.90491 0.0
H3192 H 0.95835 0.61447 0.94487 0.0
H3193 H 0.03814 0.59378 0.93535 0.0
H3194 H 0.06302 0.60685 0.95835 0.0
H3195 H 0.05627 0.61935 0.93082 0.0
H3196 H 0.05677 0.65819 0.95979 0.0
H3197 H 0.06387 0.6459 0.98748 0.0
H3198 H 0.03947 0.65913 0.98457 0.0
H3199 H 0.96784 0.59528 0.98164 0.0
H3200 H 0.98436 0.57756 0.01603 0.0
H3201 H 0.05166 0.60508 1.003 0.0
C3202 C 1.01387 0.6373 0.91996 0.0
C3203 C 0.99265 0.63755 0.90571 0.0
C3204 C 0.97271 0.63002 0.91555 0.0
C3205 C 0.97372 0.62122 0.93822 0.0
C3206 C 0.99482 0.62049 0.95129 0.0
C3207 C 1.01459 0.62884 0.94292 0.0
C3208 C 0.03503 0.62531 0.96022 0.0
C3209 C 0.04892 0.61043 0.94528 0.0
C3210 C 0.04965 0.64852 0.97382 0.0
C3211 C 0.0236 0.61274 0.97893 0.0
C3212 C 1.00037 0.61018 0.97335 0.0
C3213 C 0.986 0.59762 0.98653 0.0
C3214 C 0.99553 0.58749 1.00593 0.0
C3215 C 1.01924 0.59011 0.01228 0.0
C3216 C 0.03347 0.60315 0.99879 0.0
H3217 H 0.27376 0.16202 0.5898 0.0
H3218 H 0.27644 0.20292 0.53026 0.0
H3219 H 0.29495 0.23713 0.56205 0.0
H3220 H 0.25882 0.2011 0.63415 0.0
H3221 H 0.27576 0.19529 0.66149 0.0
H3222 H 0.26642 0.17335 0.63358 0.0
H3223 H 0.30805 0.16953 0.63149 0.0
H3224 H 0.31746 0.19182 0.65932 0.0
H3225 H 0.32872 0.19453 0.63034 0.0
H3226 H 0.30706 0.26748 0.59981 0.0
H3227 H 0.30917 0.29215 0.64147 0.0
H3228 H 0.30132 0.232 0.67694 0.0
C3229 C 0.27851 0.17814 0.58349 0.0
C3230 C 0.27367 0.17986 0.55768 0.0
C3231 C 0.28009 0.2012 0.55001 0.0
C3232 C 0.29082 0.2207 0.56785 0.0
C3233 C 0.2954 0.21847 0.59318 0.0
C3234 C 0.28953 0.19775 0.60103 0.0
C3235 C 0.29412 0.20057 0.62969 0.0
C3236 C 0.27249 0.1921 0.64034 0.0
C3237 C 0.31323 0.18838 0.6382 0.0
C3238 C 0.30169 0.22633 0.63667 0.0
C3239 C 0.30303 0.23627 0.61533 0.0
C3240 C 0.30677 0.25997 0.61676 0.0
C3241 C 0.30805 0.27386 0.64051 0.0
C3242 C 0.3054 0.26386 0.66225 0.0
C3243 C 0.30346 0.23997 0.66051 0.0
H3244 H 0.6664 0.53862 0.23952 0.0
H3245 H 0.6361 0.57977 0.29423 0.0
H3246 H 0.61051 0.58804 0.25924 0.0
H3247 H 0.66311 0.57244 0.18984 0.0
H3248 H 0.65484 0.54837 0.16374 0.0
H3249 H 0.67147 0.54552 0.19284 0.0
H3250 H 0.64135 0.51079 0.19677 0.0
H3251 H 0.62464 0.51357 0.16767 0.0
H3252 H 0.61239 0.51397 0.19643 0.0
H3253 H 0.58883 0.59309 0.21932 0.0
H3254 H 0.57043 0.59333 0.17636 0.0
H3255 H 0.61188 0.54737 0.14467 0.0
C3256 C 0.6544 0.54942 0.24405 0.0
C3257 C 0.65353 0.55872 0.26988 0.0
C3258 C 0.63728 0.57245 0.27486 0.0
C3259 C 0.62261 0.57729 0.25501 0.0
C3260 C 0.62382 0.56793 0.22996 0.0
C3261 C 0.63903 0.55402 0.22424 0.0
C3262 C 0.63588 0.54567 0.19538 0.0
C3263 C 0.65763 0.55347 0.18483 0.0
C3264 C 0.62811 0.51944 0.18867 0.0
C3265 C 0.61708 0.55765 0.18592 0.0
C3266 C 0.6105 0.57031 0.20642 0.0
C3267 C 0.59376 0.58314 0.20314 0.0
C3268 C 0.58338 0.58315 0.17838 0.0
C3269 C 0.58948 0.57036 0.15666 0.0
C3270 C 0.60663 0.55729 0.16065 0.0
H3271 H 0.24327 0.91153 0.97043 0.0
H3272 H 0.23922 0.85715 0.01478 0.0
H3273 H 0.25441 0.8333 0.98177 0.0
H3274 H 0.22752 0.87294 0.90926 0.0
H3275 H 0.2462 0.88887 0.89237 0.0
H3276 H 0.23444 0.90381 0.91776 0.0
H3277 H 0.27273 0.92372 0.94412 0.0
H3278 H 0.28603 0.91223 0.91836 0.0
H3279 H 0.29435 0.90727 0.95006 0.0
H3280 H 0.27218 0.81587 0.94347 0.0
H3281 H 0.29182 0.80828 0.90605 0.0
H3282 H 0.28549 0.87512 0.88912 0.0
C3283 C 0.24518 0.89447 0.97313 0.0
C3284 C 0.23983 0.88628 0.99532 0.0
C3285 C 0.24292 0.86385 0.99795 0.0
C3286 C 0.25162 0.85015 0.97927 0.0
C3287 C 0.25717 0.85901 0.95791 0.0
C3288 C 0.25392 0.88067 0.95481 0.0
C3289 C 0.26164 0.88661 0.93062 0.0
C3290 C 0.24126 0.88823 0.91141 0.0
C3291 C 0.27977 0.90876 0.93614 0.0
C3292 C 0.27127 0.86573 0.92148 0.0
C3293 C 0.26787 0.84953 0.93685 0.0
C3294 C 0.27494 0.82856 0.93144 0.0
C3295 C 0.28604 0.82433 0.91014 0.0
C3296 C 0.29046 0.84123 0.89494 0.0
C3297 C 0.28268 0.862 0.90065 0.0
H3298 H 1.01136 0.63687 0.76027 0.0
H3299 H 0.93968 0.61331 0.73149 0.0
H3300 H 0.94843 0.59782 0.68985 0.0
H3301 H 0.02675 0.65288 0.70036 0.0
H3302 H 0.05322 0.64319 0.70396 0.0
H3303 H 0.04167 0.65363 0.73174 0.0
H3304 H 0.04362 0.61548 0.74769 0.0
H3305 H 0.05495 0.60489 0.71982 0.0
H3306 H 0.02973 0.58867 0.72737 0.0
H3307 H 0.96363 0.58313 0.65274 0.0
H3308 H 0.98501 0.57152 0.61925 0.0
H3309 H 0.0479 0.60452 0.66943 0.0
C3310 C 0.99756 0.62872 0.74506 0.0
C3311 C 0.9748 0.62627 0.74922 0.0
C3312 C 0.95722 0.61534 0.7289 0.0
C3313 C 0.96199 0.60646 0.7051 0.0
C3314 C 0.98445 0.60869 0.70174 0.0
C3315 C 1.00204 0.61969 0.72088 0.0
C3316 C 0.02464 0.61922 0.71168 0.0
C3317 C 0.03732 0.64368 0.71195 0.0
C3318 C 0.03908 0.60629 0.72759 0.0
C3319 C 1.01679 0.60596 0.68457 0.0
C3320 C 0.9935 0.60017 0.67952 0.0
C3321 C 0.98188 0.58767 0.65629 0.0
C3322 C 0.9943 0.5811 0.63737 0.0
C3323 C 1.01823 0.58709 0.64156 0.0
C3324 C 0.02965 0.5996 0.66564 0.0
H3325 H 0.27328 0.18626 0.40227 0.0
H3326 H 0.28023 0.22314 0.47994 0.0
H3327 H 0.28734 0.25986 0.46507 0.0
H3328 H 0.317 0.22772 0.3824 0.0
H3329 H 0.30124 0.22434 0.35091 0.0
H3330 H 0.29868 0.20071 0.36784 0.0
H3331 H 0.25521 0.19774 0.3621 0.0
H3332 H 0.25768 0.22141 0.34531 0.0
H3333 H 0.24388 0.2227 0.37304 0.0
H3334 H 0.29045 0.29263 0.44174 0.0
H3335 H 0.29061 0.31911 0.41062 0.0
H3336 H 0.28238 0.26116 0.34886 0.0
C3337 C 0.27669 0.20206 0.41615 0.0
C3338 C 0.27618 0.20182 0.4422 0.0
C3339 C 0.28051 0.22287 0.45983 0.0
C3340 C 0.28463 0.24386 0.45163 0.0
C3341 C 0.28457 0.24355 0.42579 0.0
C3342 C 0.28095 0.22324 0.40831 0.0
C3343 C 0.28084 0.22778 0.38149 0.0
C3344 C 0.30062 0.21966 0.36999 0.0
C3345 C 0.25805 0.21676 0.3645 0.0
C3346 C 0.28422 0.25367 0.38668 0.0
C3347 C 0.28654 0.26251 0.41235 0.0
C3348 C 0.28891 0.28599 0.42157 0.0
C3349 C 0.28889 0.30085 0.40395 0.0
C3350 C 0.28645 0.29191 0.37773 0.0
C3351 C 0.28428 0.26818 0.36901 0.0
H3352 H 0.41977 0.67071 0.53751 0.0
H3353 H 0.43352 0.6923 0.61964 0.0
H3354 H 0.46409 0.67043 0.62207 0.0
H3355 H 0.4277 0.61438 0.53546 0.0
H3356 H 0.44227 0.61212 0.50833 0.0
H3357 H 0.42302 0.63167 0.51156 0.0
H3358 H 0.45456 0.66557 0.50859 0.0
H3359 H 0.47374 0.64596 0.50473 0.0
H3360 H 0.48109 0.67088 0.52982 0.0
H3361 H 0.48951 0.64426 0.61721 0.0
H3362 H 0.51435 0.61824 0.60482 0.0
H3363 H 0.48611 0.61121 0.52518 0.0
C3364 C 0.42996 0.67156 0.55578 0.0
C3365 C 0.42472 0.68363 0.57844 0.0
C3366 C 0.43766 0.6836 0.60214 0.0
C3367 C 0.4549 0.67107 0.6037 0.0
C3368 C 0.45908 0.65862 0.58133 0.0
C3369 C 0.44752 0.65904 0.55769 0.0
C3370 C 0.45549 0.64328 0.53697 0.0
C3371 C 0.43594 0.62424 0.52221 0.0
C3372 C 0.4669 0.65726 0.51896 0.0
C3373 C 0.47265 0.63344 0.55293 0.0
C3374 C 0.4742 0.64277 0.57843 0.0
C3375 C 0.48849 0.63685 0.59733 0.0
C3376 C 0.50224 0.62161 0.59008 0.0
C3377 C 0.5017 0.612 0.56416 0.0
C3378 C 0.4865 0.61781 0.54516 0.0
H3379 H 0.92387 0.0509 0.66578 0.0
H3380 H 0.87958 1.00356 0.60301 0.0
H3381 H 0.91193 0.99957 0.5806 0.0
H3382 H 0.9579 0.08056 0.62983 0.0
H3383 H 0.98442 0.08348 0.65042 0.0
H3384 H 0.95849 0.08078 0.66344 0.0
H3385 H 0.9676 0.04567 0.68208 0.0
H3386 H 0.99372 0.04841 0.66933 0.0
H3387 H 0.97366 0.02162 0.66137 0.0
H3388 H 0.94694 1.00352 0.5631 0.0
H3389 H 0.98479 0.01346 0.55173 0.0
H3390 H 1.00776 0.05815 0.62549 0.0
C3391 C 0.92131 0.03928 0.64766 0.0
C3392 C 0.89955 0.02727 0.63602 0.0
C3393 C 0.89635 1.01258 0.61212 0.0
C3394 C 0.91454 1.01024 0.5993 0.0
C3395 C 0.93578 0.0226 0.61084 0.0
C3396 C 0.93946 0.03661 0.63458 0.0
C3397 C 0.96401 0.04867 0.64183 0.0
C3398 C 0.96632 0.07493 0.64665 0.0
C3399 C 0.97542 0.04061 0.66503 0.0
C3400 C 0.97309 0.04009 0.61791 0.0
C3401 C 0.95649 0.02483 0.60053 0.0
C3402 C 0.96026 0.01511 0.57665 0.0
C3403 C 0.98177 0.0209 0.57037 0.0
C3404 C 0.99911 0.03634 0.58784 0.0
C3405 C 0.99476 0.04612 0.61191 0.0
H3406 H 0.85114 0.1502 0.32329 0.0
H3407 H 0.91665 0.17694 0.30478 0.0
H3408 H 0.90682 0.21518 0.30701 0.0
H3409 H 0.81792 0.18475 0.28989 0.0
H3410 H 0.80102 0.19053 0.31445 0.0
H3411 H 0.81252 0.16472 0.31104 0.0
H3412 H 0.83171 0.17563 0.35811 0.0
H3413 H 0.8202 0.20147 0.36158 0.0
H3414 H 0.85021 0.20318 0.36925 0.0
H3415 H 0.89058 0.25159 0.31145 0.0
H3416 H 0.86963 0.28293 0.31814 0.0
H3417 H 0.81342 0.23568 0.33462 0.0
C3418 C 0.86341 0.16405 0.31957 0.0
C3419 C 0.88494 0.15987 0.31364 0.0
C3420 C 0.90023 0.17906 0.30939 0.0
C3421 C 0.89472 0.20111 0.31058 0.0
C3422 C 0.87372 0.20466 0.31654 0.0
C3423 C 0.85827 0.18674 0.32122 0.0
C3424 C 0.83726 0.19598 0.32834 0.0
C3425 C 0.81591 0.18323 0.30982 0.0
C3426 C 0.83468 0.19393 0.35595 0.0
C3427 C 0.84296 0.22147 0.32585 0.0
C3428 C 0.86431 0.22596 0.31935 0.0
C3429 C 0.87389 0.24811 0.3166 0.0
C3430 C 0.86171 0.26606 0.32061 0.0
C3431 C 0.83963 0.2625 0.32717 0.0
C3432 C 0.83015 0.23948 0.32963 0.0
H3433 H 0.80096 0.19107 0.09847 0.0
H3434 H 0.79735 0.17514 0.0166 0.0
H3435 H 0.75996 0.14957 0.01294 0.0
H3436 H 0.77707 0.13385 0.10519 0.0
H3437 H 0.76241 0.14344 0.13067 0.0
H3438 H 0.78822 0.16097 0.12632 0.0
H3439 H 0.76767 0.19509 0.12343 0.0
H3440 H 0.74179 0.17766 0.12774 0.0
H3441 H 0.74252 0.19129 0.1003 0.0
H3442 H 0.72257 0.12692 0.01874 0.0
H3443 H 0.68885 0.10741 0.03345 0.0
H3444 H 0.71972 0.13575 0.11191 0.0
C3445 C 0.7921 0.18228 0.07982 0.0
C3446 C 0.80143 0.18504 0.05774 0.0
C3447 C 0.79 0.17312 0.03359 0.0
C3448 C 0.76892 0.15866 0.03139 0.0
C3449 C 0.76004 0.15619 0.05363 0.0
C3450 C 0.77141 0.16749 0.07739 0.0
C3451 C 0.75877 0.16131 0.09841 0.0
C3452 C 0.77243 0.14916 0.11618 0.0
C3453 C 0.7523 0.18261 0.11333 0.0
C3454 C 0.73831 0.14502 0.08278 0.0
C3455 C 0.73922 0.14235 0.057 0.0
C3456 C 0.72177 0.12866 0.0389 0.0
C3457 C 0.70279 0.11752 0.04744 0.0
C3458 C 0.70164 0.12005 0.07384 0.0
C3459 C 0.71986 0.13373 0.0916 0.0
H3460 H 0.2218 0.46841 0.33097 0.0
H3461 H 0.15546 0.42485 0.322 0.0
H3462 H 0.1732 0.39172 0.32678 0.0
H3463 H 0.24772 0.42687 0.29614 0.0
H3464 H 0.27466 0.43494 0.31674 0.0
H3465 H 0.25708 0.45587 0.31352 0.0
H3466 H 0.25833 0.46402 0.36244 0.0
H3467 H 0.27587 0.44302 0.36571 0.0
H3468 H 0.24977 0.44062 0.37848 0.0
H3469 H 0.19684 0.36309 0.32875 0.0
H3470 H 0.22613 0.33951 0.33052 0.0
H3471 H 0.27815 0.40055 0.33988 0.0
C3472 C 0.21105 0.45191 0.33014 0.0
C3473 C 0.18717 0.44924 0.32607 0.0
C3474 C 0.17372 0.42737 0.32509 0.0
C3475 C 0.18364 0.40842 0.32784 0.0
C3476 C 0.20708 0.41157 0.33177 0.0
C3477 C 0.22074 0.43268 0.33304 0.0
C3478 C 0.24556 0.43089 0.33691 0.0
C3479 C 0.25692 0.43753 0.31449 0.0
C3480 C 0.25812 0.44551 0.36241 0.0
C3481 C 0.24353 0.40542 0.33733 0.0
C3482 C 0.2211 0.39477 0.33423 0.0
C3483 C 0.21449 0.37119 0.33195 0.0
C3484 C 0.2312 0.35798 0.33296 0.0
C3485 C 0.25427 0.36831 0.33602 0.0
C3486 C 0.26063 0.3924 0.33856 0.0
H3487 H 0.27836 0.55083 0.16448 0.0
H3488 H 0.26406 0.47868 0.12947 0.0
H3489 H 0.2325 0.48517 0.09963 0.0
H3490 H 0.22019 0.55697 0.16076 0.0
H3491 H 0.22611 0.58579 0.15456 0.0
H3492 H 0.24748 0.57508 0.17289 0.0
H3493 H 0.27502 0.58497 0.14142 0.0
H3494 H 0.25358 0.59533 0.12275 0.0
H3495 H 0.26673 0.57315 0.10793 0.0
H3496 H 0.20331 0.49995 0.07276 0.0
H3497 H 0.17526 0.52102 0.0549 0.0
H3498 H 0.20877 0.58293 0.10821 0.0
C3499 C 0.26837 0.53635 0.15078 0.0
C3500 C 0.27347 0.5143 0.14937 0.0
C3501 C 0.26017 0.49571 0.13111 0.0
C3502 C 0.24241 0.49926 0.11388 0.0
C3503 C 0.23819 0.5214 0.11538 0.0
C3504 C 0.25054 0.53953 0.13365 0.0
C3505 C 0.24215 0.56148 0.13188 0.0
C3506 C 0.23346 0.57034 0.15647 0.0
C3507 C 0.26047 0.5798 0.12562 0.0
C3508 C 0.22312 0.55288 0.10977 0.0
C3509 C 0.22125 0.52979 0.10024 0.0
C3510 C 0.20459 0.51804 0.08002 0.0
C3511 C 0.18892 0.5301 0.06987 0.0
C3512 C 0.19012 0.55346 0.08026 0.0
C3513 C 0.20769 0.56506 0.09998 0.0
H3514 H 0.90364 0.98733 0.31125 0.0
H3515 H 0.84502 0.01912 0.30315 0.0
H3516 H 0.82092 0.98275 0.3082 0.0
H3517 H 0.87698 0.93028 0.27781 0.0
H3518 H 0.89275 0.91615 0.29897 0.0
H3519 H 0.90479 0.94436 0.29418 0.0
H3520 H 0.91079 0.95945 0.34275 0.0
H3521 H 0.89881 0.93128 0.34769 0.0
H3522 H 0.88711 0.95567 0.35968 0.0
H3523 H 0.80263 0.94007 0.31325 0.0
H3524 H 0.79376 0.89989 0.3204 0.0
H3525 H 0.86485 0.89713 0.32742 0.0
C3526 C 0.8857 0.98683 0.31039 0.0
C3527 C 0.87651 1.00664 0.30647 0.0
C3528 C 0.85283 1.00464 0.30597 0.0
C3529 C 0.83891 0.98382 0.30881 0.0
C3530 C 0.84864 0.96472 0.31251 0.0
C3531 C 0.87167 0.96631 0.31353 0.0
C3532 C 0.87842 0.94382 0.31837 0.0
C3533 C 0.88886 0.93302 0.296 0.0
C3534 C 0.89475 0.9478 0.34362 0.0
C3535 C 0.85572 0.92907 0.31993 0.0
C3536 C 0.8386 0.94126 0.31626 0.0
C3537 C 0.81614 0.93072 0.31629 0.0
C3538 C 0.81116 0.90766 0.32034 0.0
C3539 C 0.82843 0.89488 0.3247 0.0
C3540 C 0.85105 0.90611 0.32436 0.0
H3541 H 0.69281 0.07318 0.79498 0.0
H3542 H 0.66778 0.09762 0.86395 0.0
H3543 H 0.69481 0.13465 0.86984 0.0
H3544 H 0.75176 0.10142 0.81384 0.0
H3545 H 0.75436 0.10849 0.78292 0.0
H3546 H 0.7347 0.08332 0.78568 0.0
H3547 H 0.70219 0.09802 0.76129 0.0
H3548 H 0.72173 0.12325 0.75852 0.0
H3549 H 0.69695 0.12611 0.77289 0.0
H3550 H 0.72356 0.16914 0.86716 0.0
H3551 H 0.75005 0.19981 0.85487 0.0
H3552 H 0.75508 0.15311 0.78647 0.0
C3553 C 0.69337 0.08628 0.8115 0.0
C3554 C 0.67864 0.08277 0.82926 0.0
C3555 C 0.67916 0.10024 0.85032 0.0
C3556 C 0.69445 0.12117 0.8538 0.0
C3557 C 0.70868 0.12428 0.83578 0.0
C3558 C 0.7081 0.1074 0.8149 0.0
C3559 C 0.72373 0.11573 0.79717 0.0
C3560 C 0.74224 0.10139 0.79478 0.0
C3561 C 0.71035 0.11578 0.77092 0.0
C3562 C 0.73337 0.13988 0.81145 0.0
C3563 C 0.72462 0.14442 0.83375 0.0
C3564 C 0.73064 0.16576 0.84982 0.0
C3565 C 0.7458 0.18301 0.84275 0.0
C3566 C 0.7547 0.17883 0.81974 0.0
C3567 C 0.74848 0.15688 0.80408 0.0
loop_
_geom_bond_atom_site_label_1
_geom_bond_atom_site_label_2
_geom_bond_distance
_geom_bond_site_symmetry_2
_ccdc_geom_bond_type
C0 O1 1.306 . S
C0 O3 1.160 . S
O1 C0 1.306 . S
O1 Cd2 2.228 . S
Cd2 O1 2.228 . S
Cd2 O6 2.273 . S
Cd2 O10 2.277 . S
O3 C0 1.160 . S
O3 Cd4 2.203 . S
Cd4 O3 2.203 . S
Cd4 O6 2.411 . S
Cd4 O7 2.333 . S
Cd4 O8 2.352 . S
Cd4 O12 2.277 . S
Cd4 O13 2.356 . S
C5 O10 1.209 . S
C5 O12 1.226 . S
O6 Cd2 2.273 . S
O6 Cd4 2.411 . S
O6 C9 1.320 . S
O7 Cd4 2.333 . S
O7 C9 1.214 . S
O8 Cd4 2.352 . S
O8 C11 1.258 . S
C9 O6 1.320 . S
C9 O7 1.214 . S
O10 Cd2 2.277 . S
O10 C5 1.209 . S
C11 O8 1.258 . S
C11 O13 1.282 . S
O12 Cd4 2.277 . S
O12 C5 1.226 . S
O13 Cd4 2.356 . S
O13 C11 1.282 . S
C14 O15 1.306 . S
C14 O17 1.160 . S
O15 C14 1.306 . S
O15 Cd16 2.228 1_655 S
Cd16 O15 2.228 1_455 S
Cd16 O20 2.273 . S
Cd16 O24 2.277 1_455 S
O17 C14 1.160 . S
O17 Cd18 2.166 1_655 S
Cd18 O17 2.166 1_455 S
Cd18 O20 2.429 . S
Cd18 O21 2.370 . S
Cd18 O22 2.346 . S
Cd18 O26 2.279 1_455 S
Cd18 O27 2.359 . S
C19 O24 1.209 . S
C19 O26 1.226 . S
O20 Cd16 2.273 . S
O20 Cd18 2.429 . S
O20 C23 1.320 . S
O21 Cd18 2.370 . S
O21 C23 1.214 . S
O22 Cd18 2.346 . S
O22 C25 1.258 . S
C23 O20 1.320 . S
C23 O21 1.214 . S
O24 Cd16 2.277 1_655 S
O24 C19 1.209 . S
C25 O22 1.258 . S
C25 O27 1.282 . S
O26 Cd18 2.279 1_655 S
O26 C19 1.226 . S
O27 Cd18 2.359 . S
O27 C25 1.282 . S
C28 O29 1.306 . S
C28 O31 1.160 . S
O29 C28 1.306 . S
O29 Cd30 2.228 . S
Cd30 O29 2.228 . S
Cd30 O34 2.273 . S
Cd30 O38 2.284 . S
O31 C28 1.160 . S
O31 Cd32 2.203 1_556 S
Cd32 O31 2.203 1_554 S
Cd32 O34 2.411 1_554 S
Cd32 O35 2.333 . S
Cd32 O36 2.352 1_554 S
Cd32 O40 2.277 . S
Cd32 O41 2.356 . S
C33 O38 1.202 1_554 S
C33 O40 1.226 . S
O34 Cd30 2.273 . S
O34 Cd32 2.411 1_556 S
O34 C37 1.320 . S
O35 Cd32 2.333 . S
O35 C37 1.214 1_554 S
O36 Cd32 2.352 1_556 S
O36 C39 1.258 1_556 S
C37 O34 1.320 . S
C37 O35 1.214 1_556 S
O38 Cd30 2.284 . S
O38 C33 1.202 1_556 S
C39 O36 1.258 1_554 S
C39 O41 1.282 . S
O40 Cd32 2.277 . S
O40 C33 1.226 . S
O41 Cd32 2.356 . S
O41 C39 1.282 . S
C42 O43 1.306 . S
C42 O45 1.160 . S
O43 C42 1.306 . S
O43 Cd44 2.228 . S
Cd44 O43 2.228 . S
Cd44 O48 2.273 . S
Cd44 O52 2.277 . S
O45 C42 1.160 . S
O45 Cd46 2.203 . S
Cd46 O45 2.203 . S
Cd46 O48 2.411 . S
Cd46 O49 2.333 . S
Cd46 O50 2.352 . S
Cd46 O54 2.277 . S
Cd46 O55 2.356 . S
C47 O52 1.209 . S
C47 O54 1.226 . S
O48 Cd44 2.273 . S
O48 Cd46 2.411 . S
O48 C51 1.320 . S
O49 Cd46 2.333 . S
O49 C51 1.214 . S
O50 Cd46 2.352 . S
O50 C53 1.258 . S
C51 O48 1.320 . S
C51 O49 1.214 . S
O52 Cd44 2.277 . S
O52 C47 1.209 . S
C53 O50 1.258 . S
C53 O55 1.282 . S
O54 Cd46 2.277 . S
O54 C47 1.226 . S
O55 Cd46 2.356 . S
O55 C53 1.282 . S
C56 O57 1.306 1_655 S
C56 O59 1.160 . S
O57 C56 1.306 1_455 S
O57 Cd58 2.228 . S
Cd58 O57 2.228 . S
Cd58 O62 2.273 . S
Cd58 O66 2.277 . S
O59 C56 1.160 . S
O59 Cd60 2.203 1_655 S
Cd60 O59 2.203 1_455 S
Cd60 O62 2.411 . S
Cd60 O63 2.333 . S
Cd60 O64 2.352 . S
Cd60 O68 2.277 . S
Cd60 O69 2.356 . S
C61 O66 1.209 . S
C61 O68 1.226 . S
O62 Cd58 2.273 . S
O62 Cd60 2.411 . S
O62 C65 1.320 . S
O63 Cd60 2.333 . S
O63 C65 1.214 . S
O64 Cd60 2.352 . S
O64 C67 1.258 . S
C65 O62 1.320 . S
C65 O63 1.214 . S
O66 Cd58 2.277 . S
O66 C61 1.209 . S
C67 O64 1.258 . S
C67 O69 1.282 . S
O68 Cd60 2.277 . S
O68 C61 1.226 . S
O69 Cd60 2.356 . S
O69 C67 1.282 . S
C70 O71 1.306 . S
C70 O73 1.160 . S
O71 C70 1.306 . S
O71 Cd72 2.228 . S
Cd72 O71 2.228 . S
Cd72 O76 2.273 . S
Cd72 O80 2.277 . S
O73 C70 1.160 . S
O73 Cd74 2.203 . S
Cd74 O73 2.203 . S
Cd74 O76 2.411 . S
Cd74 O77 2.333 . S
Cd74 O78 2.352 . S
Cd74 O82 2.277 . S
Cd74 O83 2.356 . S
C75 O80 1.209 . S
C75 O82 1.226 . S
O76 Cd72 2.273 . S
O76 Cd74 2.411 . S
O76 C79 1.320 . S
O77 Cd74 2.333 . S
O77 C79 1.214 . S
O78 Cd74 2.352 . S
O78 C81 1.258 . S
C79 O76 1.320 . S
C79 O77 1.214 . S
O80 Cd72 2.277 . S
O80 C75 1.209 . S
C81 O78 1.258 . S
C81 O83 1.282 . S
O82 Cd74 2.277 . S
O82 C75 1.226 . S
O83 Cd74 2.356 . S
O83 C81 1.282 . S
C84 O85 1.306 . S
C84 O87 1.160 . S
O85 C84 1.306 . S
O85 Cd86 2.228 . S
Cd86 O85 2.228 . S
Cd86 O90 2.273 . S
Cd86 O94 2.277 . S
O87 C84 1.160 . S
O87 Cd88 2.203 . S
Cd88 O87 2.203 . S
Cd88 O90 2.411 . S
Cd88 O91 2.333 . S
Cd88 O92 2.352 . S
Cd88 O96 2.277 . S
Cd88 O97 2.356 . S
C89 O94 1.209 . S
C89 O96 1.226 . S
O90 Cd86 2.273 . S
O90 Cd88 2.411 . S
O90 C93 1.320 . S
O91 Cd88 2.333 . S
O91 C93 1.214 . S
O92 Cd88 2.352 . S
O92 C95 1.258 . S
C93 O90 1.320 . S
C93 O91 1.214 . S
O94 Cd86 2.277 . S
O94 C89 1.209 . S
C95 O92 1.258 . S
C95 O97 1.282 . S
O96 Cd88 2.277 . S
O96 C89 1.226 . S
O97 Cd88 2.356 . S
O97 C95 1.282 . S
C98 O99 1.306 1_655 S
C98 O101 1.160 1_655 S
O99 C98 1.306 1_455 S
O99 Cd100 2.228 . S
Cd100 O99 2.228 . S
Cd100 O104 2.273 . S
Cd100 O108 2.277 . S
O101 C98 1.160 1_455 S
O101 Cd102 2.203 . S
Cd102 O101 2.203 . S
Cd102 O104 2.411 . S
Cd102 O105 2.333 . S
Cd102 O106 2.352 . S
Cd102 O110 2.277 . S
Cd102 O111 2.356 . S
C103 O108 1.209 . S
C103 O110 1.226 . S
O104 Cd100 2.273 . S
O104 Cd102 2.411 . S
O104 C107 1.320 . S
O105 Cd102 2.333 . S
O105 C107 1.214 . S
O106 Cd102 2.352 . S
O106 C109 1.258 . S
C107 O104 1.320 . S
C107 O105 1.214 . S
O108 Cd100 2.277 . S
O108 C103 1.209 . S
C109 O106 1.258 . S
C109 O111 1.282 . S
O110 Cd102 2.277 . S
O110 C103 1.226 . S
O111 Cd102 2.356 . S
O111 C109 1.282 . S
C112 O113 1.306 . S
C112 O115 1.160 . S
O113 C112 1.306 . S
O113 Cd114 2.228 . S
Cd114 O113 2.228 . S
Cd114 O118 2.273 . S
Cd114 O122 2.277 . S
O115 C112 1.160 . S
O115 Cd116 2.203 . S
Cd116 O115 2.203 . S
Cd116 O118 2.411 . S
Cd116 O119 2.333 . S
Cd116 O120 2.352 . S
Cd116 O124 2.277 . S
Cd116 O125 2.356 . S
C117 O122 1.209 . S
C117 O124 1.226 . S
O118 Cd114 2.273 . S
O118 Cd116 2.411 . S
O118 C121 1.320 . S
O119 Cd116 2.333 . S
O119 C121 1.214 . S
O120 Cd116 2.352 . S
O120 C123 1.258 . S
C121 O118 1.320 . S
C121 O119 1.214 . S
O122 Cd114 2.277 . S
O122 C117 1.209 . S
C123 O120 1.258 . S
C123 O125 1.282 . S
O124 Cd116 2.277 . S
O124 C117 1.226 . S
O125 Cd116 2.356 . S
O125 C123 1.282 . S
C126 O127 1.306 . S
C126 O129 1.160 . S
O127 C126 1.306 . S
O127 Cd128 2.228 . S
Cd128 O127 2.228 . S
Cd128 O132 2.273 . S
Cd128 O136 2.277 . S
O129 C126 1.160 . S
O129 Cd130 2.203 . S
Cd130 O129 2.203 . S
Cd130 O132 2.411 . S
Cd130 O133 2.333 . S
Cd130 O134 2.352 . S
Cd130 O138 2.277 . S
Cd130 O139 2.356 . S
C131 O136 1.209 . S
C131 O138 1.226 . S
O132 Cd128 2.273 . S
O132 Cd130 2.411 . S
O132 C135 1.320 . S
O133 Cd130 2.333 . S
O133 C135 1.214 . S
O134 Cd130 2.352 . S
O134 C137 1.258 . S
C135 O132 1.320 . S
C135 O133 1.214 . S
O136 Cd128 2.277 . S
O136 C131 1.209 . S
C137 O134 1.258 . S
C137 O139 1.282 . S
O138 Cd130 2.277 . S
O138 C131 1.226 . S
O139 Cd130 2.356 . S
O139 C137 1.282 . S
C140 O141 1.306 . S
C140 O143 1.160 . S
O141 C140 1.306 . S
O141 Cd142 2.228 . S
Cd142 O141 2.228 . S
Cd142 O146 2.273 . S
Cd142 O150 2.277 . S
O143 C140 1.160 . S
O143 Cd144 2.203 . S
Cd144 O143 2.203 . S
Cd144 O146 2.411 . S
Cd144 O147 2.333 . S
Cd144 O148 2.352 1_545 S
Cd144 O152 2.277 . S
Cd144 O153 2.356 . S
C145 O150 1.209 . S
C145 O152 1.226 . S
O146 Cd142 2.273 . S
O146 Cd144 2.411 . S
O146 C149 1.320 . S
O147 Cd144 2.333 . S
O147 C149 1.214 . S
O148 Cd144 2.352 1_565 S
O148 C151 1.258 . S
C149 O146 1.320 . S
C149 O147 1.214 . S
O150 Cd142 2.277 . S
O150 C145 1.209 . S
C151 O148 1.258 . S
C151 O153 1.282 1_565 S
O152 Cd144 2.277 . S
O152 C145 1.226 . S
O153 Cd144 2.356 . S
O153 C151 1.282 1_545 S
C154 O155 1.306 . S
C154 O157 1.160 . S
O155 C154 1.306 . S
O155 Cd156 2.228 . S
Cd156 O155 2.228 . S
Cd156 O160 2.273 . S
Cd156 O164 2.277 . S
O157 C154 1.160 . S
O157 Cd158 2.203 . S
Cd158 O157 2.203 . S
Cd158 O160 2.411 . S
Cd158 O161 2.333 . S
Cd158 O162 2.352 . S
Cd158 O166 2.277 . S
Cd158 O167 2.356 . S
C159 O164 1.209 . S
C159 O166 1.226 . S
O160 Cd156 2.273 . S
O160 Cd158 2.411 . S
O160 C163 1.320 . S
O161 Cd158 2.333 . S
O161 C163 1.214 . S
O162 Cd158 2.352 . S
O162 C165 1.258 . S
C163 O160 1.320 . S
C163 O161 1.214 . S
O164 Cd156 2.277 . S
O164 C159 1.209 . S
C165 O162 1.258 . S
C165 O167 1.282 . S
O166 Cd158 2.277 . S
O166 C159 1.226 . S
O167 Cd158 2.356 . S
O167 C165 1.282 . S
C168 O169 1.306 . S
C168 O171 1.160 . S
O169 C168 1.306 . S
O169 Cd170 2.228 . S
Cd170 O169 2.228 . S
Cd170 O174 2.273 . S
Cd170 O178 2.277 . S
O171 C168 1.160 . S
O171 Cd172 2.203 . S
Cd172 O171 2.203 . S
Cd172 O174 2.411 . S
Cd172 O175 2.333 . S
Cd172 O176 2.352 . S
Cd172 O180 2.277 . S
Cd172 O181 2.356 . S
C173 O178 1.209 . S
C173 O180 1.226 . S
O174 Cd170 2.273 . S
O174 Cd172 2.411 . S
O174 C177 1.320 . S
O175 Cd172 2.333 . S
O175 C177 1.214 . S
O176 Cd172 2.352 . S
O176 C179 1.258 . S
C177 O174 1.320 . S
C177 O175 1.214 . S
O178 Cd170 2.277 . S
O178 C173 1.209 . S
C179 O176 1.258 . S
C179 O181 1.282 . S
O180 Cd172 2.277 . S
O180 C173 1.226 . S
O181 Cd172 2.356 . S
O181 C179 1.282 . S
C182 O183 1.306 . S
C182 O185 1.160 . S
O183 C182 1.306 . S
O183 Cd184 2.228 . S
Cd184 O183 2.228 . S
Cd184 O188 2.273 . S
Cd184 O192 2.277 . S
O185 C182 1.160 . S
O185 Cd186 2.203 . S
Cd186 O185 2.203 . S
Cd186 O188 2.411 . S
Cd186 O189 2.333 . S
Cd186 O190 2.352 . S
Cd186 O194 2.277 . S
Cd186 O195 2.356 . S
C187 O192 1.209 . S
C187 O194 1.226 . S
O188 Cd184 2.273 . S
O188 Cd186 2.411 . S
O188 C191 1.320 . S
O189 Cd186 2.333 . S
O189 C191 1.214 . S
O190 Cd186 2.352 . S
O190 C193 1.258 . S
C191 O188 1.320 . S
C191 O189 1.214 . S
O192 Cd184 2.277 . S
O192 C187 1.209 . S
C193 O190 1.258 . S
C193 O195 1.282 . S
O194 Cd186 2.277 . S
O194 C187 1.226 . S
O195 Cd186 2.356 . S
O195 C193 1.282 . S
C196 O197 1.306 . S
C196 O199 1.160 . S
O197 C196 1.306 . S
O197 Cd198 2.228 . S
Cd198 O197 2.228 . S
Cd198 O202 2.273 . S
Cd198 O206 2.277 . S
O199 C196 1.160 . S
O199 Cd200 2.203 . S
Cd200 O199 2.203 . S
Cd200 O202 2.411 . S
Cd200 O203 2.333 . S
Cd200 O204 2.352 . S
Cd200 O208 2.277 . S
Cd200 O209 2.356 . S
C201 O206 1.209 . S
C201 O208 1.226 . S
O202 Cd198 2.273 . S
O202 Cd200 2.411 . S
O202 C205 1.320 . S
O203 Cd200 2.333 . S
O203 C205 1.214 . S
O204 Cd200 2.352 . S
O204 C207 1.258 . S
C205 O202 1.320 . S
C205 O203 1.214 . S
O206 Cd198 2.277 . S
O206 C201 1.209 . S
C207 O204 1.258 . S
C207 O209 1.282 . S
O208 Cd200 2.277 . S
O208 C201 1.226 . S
O209 Cd200 2.356 . S
O209 C207 1.282 . S
C210 O211 1.306 . S
C210 O213 1.160 1_545 S
O211 C210 1.306 . S
O211 Cd212 2.228 . S
Cd212 O211 2.228 . S
Cd212 O216 2.273 . S
Cd212 O220 2.277 1_545 S
O213 C210 1.160 1_565 S
O213 Cd214 2.203 . S
Cd214 O213 2.203 . S
Cd214 O216 2.411 1_565 S
Cd214 O217 2.333 . S
Cd214 O218 2.352 . S
Cd214 O222 2.277 . S
Cd214 O223 2.356 . S
C215 O220 1.209 . S
C215 O222 1.226 . S
O216 Cd212 2.273 . S
O216 Cd214 2.411 1_545 S
O216 C219 1.320 1_545 S
O217 Cd214 2.333 . S
O217 C219 1.214 . S
O218 Cd214 2.352 . S
O218 C221 1.258 . S
C219 O216 1.320 1_565 S
C219 O217 1.214 . S
O220 Cd212 2.277 1_565 S
O220 C215 1.209 . S
C221 O218 1.258 . S
C221 O223 1.282 . S
O222 Cd214 2.277 . S
O222 C215 1.226 . S
O223 Cd214 2.356 . S
O223 C221 1.282 . S
C224 O225 1.306 . S
C224 O227 1.160 . S
O225 C224 1.306 . S
O225 Cd226 2.228 . S
Cd226 O225 2.228 . S
Cd226 O230 2.273 . S
Cd226 O234 2.277 . S
O227 C224 1.160 . S
O227 Cd228 2.203 . S
Cd228 O227 2.203 . S
Cd228 O230 2.411 . S
Cd228 O231 2.333 . S
Cd228 O232 2.352 . S
Cd228 O236 2.277 . S
Cd228 O237 2.356 . S
C229 O234 1.209 . S
C229 O236 1.226 . S
O230 Cd226 2.273 . S
O230 Cd228 2.411 . S
O230 C233 1.320 . S
O231 Cd228 2.333 . S
O231 C233 1.214 . S
O232 Cd228 2.352 . S
O232 C235 1.258 . S
C233 O230 1.320 . S
C233 O231 1.214 . S
O234 Cd226 2.277 . S
O234 C229 1.209 . S
C235 O232 1.258 . S
C235 O237 1.282 . S
O236 Cd228 2.277 . S
O236 C229 1.226 . S
O237 Cd228 2.356 . S
O237 C235 1.282 . S
C238 O239 1.306 . S
C238 O241 1.160 . S
O239 C238 1.306 . S
O239 Cd240 2.228 . S
Cd240 O239 2.228 . S
Cd240 O244 2.273 . S
Cd240 O248 2.277 . S
O241 C238 1.160 . S
O241 Cd242 2.203 . S
Cd242 O241 2.203 . S
Cd242 O244 2.411 . S
Cd242 O245 2.333 . S
Cd242 O246 2.352 . S
Cd242 O250 2.277 . S
Cd242 O251 2.356 . S
C243 O248 1.209 . S
C243 O250 1.226 . S
O244 Cd240 2.273 . S
O244 Cd242 2.411 . S
O244 C247 1.320 . S
O245 Cd242 2.333 . S
O245 C247 1.214 . S
O246 Cd242 2.352 . S
O246 C249 1.258 . S
C247 O244 1.320 . S
C247 O245 1.214 . S
O248 Cd240 2.277 . S
O248 C243 1.209 . S
C249 O246 1.258 . S
C249 O251 1.282 . S
O250 Cd242 2.277 . S
O250 C243 1.226 . S
O251 Cd242 2.356 . S
O251 C249 1.282 . S
C252 O253 1.306 . S
C252 O255 1.160 . S
O253 C252 1.306 . S
O253 Cd254 2.228 . S
Cd254 O253 2.228 . S
Cd254 O258 2.273 . S
Cd254 O262 2.277 . S
O255 C252 1.160 . S
O255 Cd256 2.203 . S
Cd256 O255 2.203 . S
Cd256 O258 2.411 . S
Cd256 O259 2.333 . S
Cd256 O260 2.352 . S
Cd256 O264 2.277 . S
Cd256 O265 2.356 . S
C257 O262 1.209 . S
C257 O264 1.226 . S
O258 Cd254 2.273 . S
O258 Cd256 2.411 . S
O258 C261 1.320 . S
O259 Cd256 2.333 . S
O259 C261 1.214 . S
O260 Cd256 2.352 . S
O260 C263 1.258 . S
C261 O258 1.320 . S
C261 O259 1.214 . S
O262 Cd254 2.277 . S
O262 C257 1.209 . S
C263 O260 1.258 . S
C263 O265 1.282 . S
O264 Cd256 2.277 . S
O264 C257 1.226 . S
O265 Cd256 2.356 . S
O265 C263 1.282 . S
C266 O267 1.306 . S
C266 O269 1.160 . S
O267 C266 1.306 . S
O267 Cd268 2.228 . S
Cd268 O267 2.228 . S
Cd268 O272 2.273 1_545 S
Cd268 O276 2.277 . S
O269 C266 1.160 . S
O269 Cd270 2.203 1_545 S
Cd270 O269 2.203 1_565 S
Cd270 O272 2.411 . S
Cd270 O273 2.333 . S
Cd270 O274 2.352 . S
Cd270 O278 2.277 1_565 S
Cd270 O279 2.356 . S
C271 O276 1.209 . S
C271 O278 1.226 . S
O272 Cd268 2.273 1_565 S
O272 Cd270 2.411 . S
O272 C275 1.320 . S
O273 Cd270 2.333 . S
O273 C275 1.214 . S
O274 Cd270 2.352 . S
O274 C277 1.258 . S
C275 O272 1.320 . S
C275 O273 1.214 . S
O276 Cd268 2.277 . S
O276 C271 1.209 . S
C277 O274 1.258 . S
C277 O279 1.282 . S
O278 Cd270 2.277 1_545 S
O278 C271 1.226 . S
O279 Cd270 2.356 . S
O279 C277 1.282 . S
C280 O281 1.306 . S
C280 O283 1.163 . S
O281 C280 1.306 . S
O281 Cd282 2.228 . S
Cd282 O281 2.228 . S
Cd282 O286 2.273 1_554 S
Cd282 O290 2.277 . S
O283 C280 1.163 . S
O283 Cd284 2.204 1_554 S
Cd284 O283 2.204 1_556 S
Cd284 O286 2.411 . S
Cd284 O287 2.333 . S
Cd284 O288 2.352 . S
Cd284 O292 2.277 1_556 S
Cd284 O293 2.356 . S
C285 O290 1.209 . S
C285 O292 1.226 . S
O286 Cd282 2.273 1_556 S
O286 Cd284 2.411 . S
O286 C289 1.320 . S
O287 Cd284 2.333 . S
O287 C289 1.214 . S
O288 Cd284 2.352 . S
O288 C291 1.258 . S
C289 O286 1.320 . S
C289 O287 1.214 . S
O290 Cd282 2.277 . S
O290 C285 1.209 . S
C291 O288 1.258 . S
C291 O293 1.282 . S
O292 Cd284 2.277 1_554 S
O292 C285 1.226 . S
O293 Cd284 2.356 . S
O293 C291 1.282 . S
C294 O295 1.306 . S
C294 O297 1.160 . S
O295 C294 1.306 . S
O295 Cd296 2.228 . S
Cd296 O295 2.228 . S
Cd296 O300 2.273 . S
Cd296 O304 2.277 . S
O297 C294 1.160 . S
O297 Cd298 2.203 . S
Cd298 O297 2.203 . S
Cd298 O300 2.411 . S
Cd298 O301 2.333 . S
Cd298 O302 2.352 . S
Cd298 O306 2.277 . S
Cd298 O307 2.356 . S
C299 O304 1.209 . S
C299 O306 1.226 . S
O300 Cd296 2.273 . S
O300 Cd298 2.411 . S
O300 C303 1.320 . S
O301 Cd298 2.333 . S
O301 C303 1.214 . S
O302 Cd298 2.352 . S
O302 C305 1.258 . S
C303 O300 1.320 . S
C303 O301 1.214 . S
O304 Cd296 2.277 . S
O304 C299 1.209 . S
C305 O302 1.258 . S
C305 O307 1.282 . S
O306 Cd298 2.277 . S
O306 C299 1.226 . S
O307 Cd298 2.356 . S
O307 C305 1.282 . S
C308 O309 1.306 . S
C308 O311 1.160 . S
O309 C308 1.306 . S
O309 Cd310 2.228 . S
Cd310 O309 2.228 . S
Cd310 O314 2.273 . S
Cd310 O318 2.277 . S
O311 C308 1.160 . S
O311 Cd312 2.203 . S
Cd312 O311 2.203 . S
Cd312 O314 2.411 . S
Cd312 O315 2.333 . S
Cd312 O316 2.352 . S
Cd312 O320 2.277 . S
Cd312 O321 2.356 . S
C313 O318 1.209 . S
C313 O320 1.226 . S
O314 Cd310 2.273 . S
O314 Cd312 2.411 . S
O314 C317 1.320 . S
O315 Cd312 2.333 . S
O315 C317 1.214 . S
O316 Cd312 2.352 . S
O316 C319 1.258 . S
C317 O314 1.320 . S
C317 O315 1.214 . S
O318 Cd310 2.277 . S
O318 C313 1.209 . S
C319 O316 1.258 . S
C319 O321 1.282 . S
O320 Cd312 2.277 . S
O320 C313 1.226 . S
O321 Cd312 2.356 . S
O321 C319 1.282 . S
C322 O323 1.306 . S
C322 O325 1.160 . S
O323 C322 1.306 . S
O323 Cd324 2.228 . S
Cd324 O323 2.228 . S
Cd324 O328 2.273 . S
Cd324 O332 2.277 . S
O325 C322 1.160 . S
O325 Cd326 2.203 . S
Cd326 O325 2.203 . S
Cd326 O328 2.411 . S
Cd326 O329 2.333 . S
Cd326 O330 2.352 . S
Cd326 O334 2.277 . S
Cd326 O335 2.356 . S
C327 O332 1.209 . S
C327 O334 1.226 . S
O328 Cd324 2.273 . S
O328 Cd326 2.411 . S
O328 C331 1.320 . S
O329 Cd326 2.333 . S
O329 C331 1.214 . S
O330 Cd326 2.352 . S
O330 C333 1.258 . S
C331 O328 1.320 . S
C331 O329 1.214 . S
O332 Cd324 2.277 . S
O332 C327 1.209 . S
C333 O330 1.258 . S
C333 O335 1.282 . S
O334 Cd326 2.277 . S
O334 C327 1.226 . S
O335 Cd326 2.356 . S
O335 C333 1.282 . S
Nd336 C338 2.836 . S
Nd336 O356 2.500 . S
Nd336 O357 2.492 . S
Nd336 O358 2.487 . S
Nd336 O359 2.682 . S
Nd336 O360 2.410 . S
Nd336 O365 2.414 . S
Nd336 O367 2.424 . S
Nd337 C347 2.836 1_545 S
Nd337 O359 2.414 . S
Nd337 O361 2.424 1_455 S
Nd337 O362 2.500 1_545 S
Nd337 O363 2.466 1_545 S
Nd337 O364 2.487 . S
Nd337 O365 2.682 . S
Nd337 O366 2.410 . S
C338 Nd336 2.836 . S
C338 C339 1.498 . S
C338 O356 1.258 . S
C338 O357 1.239 . S
C339 C338 1.498 . S
C339 C340 1.366 . S
C339 C344 1.407 . S
C340 C339 1.366 . S
C340 C341 1.392 . S
C340 H368 0.930 . S
C341 C340 1.392 . S
C341 C342 1.398 . S
C341 H369 0.929 . S
C342 C341 1.398 . S
C342 C343 1.352 . S
C343 C342 1.352 . S
C343 C344 1.384 . S
C343 H370 0.930 . S
C344 C339 1.407 . S
C344 C343 1.384 . S
C344 H371 0.929 . S
C345 O358 1.241 . S
C345 O359 1.273 . S
C346 O360 1.268 . S
C346 O361 1.266 1_455 S
C347 Nd337 2.836 1_565 S
C347 C348 1.498 . S
C347 O362 1.258 . S
C347 O363 1.253 . S
C348 C347 1.498 . S
C348 C349 1.366 . S
C348 C353 1.407 . S
C349 C348 1.366 . S
C349 C350 1.392 . S
C349 H372 0.930 . S
C350 C349 1.392 . S
C350 C351 1.398 . S
C350 H373 0.929 . S
C351 C350 1.398 . S
C351 C352 1.352 . S
C352 C351 1.352 . S
C352 C353 1.384 . S
C352 H374 0.930 . S
C353 C348 1.407 . S
C353 C352 1.384 . S
C353 H375 0.929 . S
C354 O364 1.241 . S
C354 O365 1.273 . S
C355 O366 1.251 . S
C355 O367 1.268 . S
O356 Nd336 2.500 . S
O356 C338 1.258 . S
O357 Nd336 2.492 . S
O357 C338 1.239 . S
O358 Nd336 2.487 . S
O358 C345 1.241 . S
O359 Nd336 2.682 . S
O359 Nd337 2.414 . S
O359 C345 1.273 . S
O360 Nd336 2.410 . S
O360 C346 1.268 . S
O361 Nd337 2.424 1_655 S
O361 C346 1.266 1_655 S
O362 Nd337 2.500 1_565 S
O362 C347 1.258 . S
O363 Nd337 2.466 1_565 S
O363 C347 1.253 . S
O364 Nd337 2.487 . S
O364 C354 1.241 . S
O365 Nd336 2.414 . S
O365 Nd337 2.682 . S
O365 C354 1.273 . S
O366 Nd337 2.410 . S
O366 C355 1.251 . S
O367 Nd336 2.424 . S
O367 C355 1.268 . S
H368 C340 0.930 . S
H369 C341 0.929 . S
H370 C343 0.930 . S
H371 C344 0.929 . S
H372 C349 0.930 . S
H373 C350 0.929 . S
H374 C352 0.930 . S
H375 C353 0.929 . S
Nd376 C378 2.836 . S
Nd376 O396 2.500 . S
Nd376 O397 2.492 . S
Nd376 O398 2.487 . S
Nd376 O399 2.682 . S
Nd376 O400 2.410 . S
Nd376 O405 2.414 . S
Nd376 O407 2.424 . S
Nd377 C387 2.836 . S
Nd377 O399 2.414 . S
Nd377 O401 2.424 . S
Nd377 O402 2.500 . S
Nd377 O403 2.492 . S
Nd377 O404 2.487 . S
Nd377 O405 2.682 . S
Nd377 O406 2.410 . S
C378 Nd376 2.836 . S
C378 C379 1.498 . S
C378 O396 1.258 . S
C378 O397 1.239 . S
C379 C378 1.498 . S
C379 C380 1.366 . S
C379 C384 1.407 . S
C380 C379 1.366 . S
C380 C381 1.392 . S
C380 H408 0.930 . S
C381 C380 1.392 . S
C381 C382 1.398 . S
C381 H409 0.929 . S
C382 C381 1.398 . S
C382 C383 1.352 . S
C383 C382 1.352 . S
C383 C384 1.384 . S
C383 H410 0.930 . S
C384 C379 1.407 . S
C384 C383 1.384 . S
C384 H411 0.929 . S
C385 O398 1.241 . S
C385 O399 1.273 . S
C386 O400 1.251 . S
C386 O401 1.268 . S
C387 Nd377 2.836 . S
C387 C388 1.498 . S
C387 O402 1.258 . S
C387 O403 1.239 . S
C388 C387 1.498 . S
C388 C389 1.366 . S
C388 C393 1.407 . S
C389 C388 1.366 . S
C389 C390 1.392 . S
C389 H412 0.930 . S
C390 C389 1.392 . S
C390 C391 1.398 . S
C390 H413 0.929 . S
C391 C390 1.398 . S
C391 C392 1.352 . S
C392 C391 1.352 . S
C392 C393 1.384 . S
C392 H414 0.930 . S
C393 C388 1.407 . S
C393 C392 1.384 . S
C393 H415 0.929 . S
C394 O404 1.241 . S
C394 O405 1.273 . S
C395 O406 1.251 . S
C395 O407 1.268 . S
O396 Nd376 2.500 . S
O396 C378 1.258 . S
O397 Nd376 2.492 . S
O397 C378 1.239 . S
O398 Nd376 2.487 . S
O398 C385 1.241 . S
O399 Nd376 2.682 . S
O399 Nd377 2.414 . S
O399 C385 1.273 . S
O400 Nd376 2.410 . S
O400 C386 1.251 . S
O401 Nd377 2.424 . S
O401 C386 1.268 . S
O402 Nd377 2.500 . S
O402 C387 1.258 . S
O403 Nd377 2.492 . S
O403 C387 1.239 . S
O404 Nd377 2.487 . S
O404 C394 1.241 . S
O405 Nd376 2.414 . S
O405 Nd377 2.682 . S
O405 C394 1.273 . S
O406 Nd377 2.410 . S
O406 C395 1.251 . S
O407 Nd376 2.424 . S
O407 C395 1.268 . S
H408 C380 0.930 . S
H409 C381 0.929 . S
H410 C383 0.930 . S
H411 C384 0.929 . S
H412 C389 0.930 . S
H413 C390 0.929 . S
H414 C392 0.930 . S
H415 C393 0.929 . S
Nd416 C418 2.836 . S
Nd416 O436 2.500 . S
Nd416 O437 2.492 . S
Nd416 O438 2.487 . S
Nd416 O439 2.682 . S
Nd416 O440 2.410 . S
Nd416 O445 2.414 . S
Nd416 O447 2.424 . S
Nd417 C427 2.836 . S
Nd417 O439 2.414 . S
Nd417 O441 2.424 . S
Nd417 O442 2.500 . S
Nd417 O443 2.492 . S
Nd417 O444 2.487 . S
Nd417 O445 2.682 . S
Nd417 O446 2.410 . S
C418 Nd416 2.836 . S
C418 C419 1.498 . S
C418 O436 1.258 . S
C418 O437 1.239 . S
C419 C418 1.498 . S
C419 C420 1.366 . S
C419 C424 1.407 . S
C420 C419 1.366 . S
C420 C421 1.392 . S
C420 H448 0.930 . S
C421 C420 1.392 . S
C421 C422 1.398 . S
C421 H449 0.929 . S
C422 C421 1.398 . S
C422 C423 1.352 . S
C423 C422 1.352 . S
C423 C424 1.384 . S
C423 H450 0.930 . S
C424 C419 1.407 . S
C424 C423 1.384 . S
C424 H451 0.929 . S
C425 O438 1.241 . S
C425 O439 1.273 . S
C426 O440 1.251 . S
C426 O441 1.268 . S
C427 Nd417 2.836 . S
C427 C428 1.498 . S
C427 O442 1.258 . S
C427 O443 1.239 . S
C428 C427 1.498 . S
C428 C429 1.366 . S
C428 C433 1.407 . S
C429 C428 1.366 . S
C429 C430 1.392 . S
C429 H452 0.930 . S
C430 C429 1.392 . S
C430 C431 1.398 . S
C430 H453 0.929 . S
C431 C430 1.398 . S
C431 C432 1.352 . S
C432 C431 1.352 . S
C432 C433 1.384 . S
C432 H454 0.930 . S
C433 C428 1.407 . S
C433 C432 1.384 . S
C433 H455 0.929 . S
C434 O444 1.241 . S
C434 O445 1.273 . S
C435 O446 1.251 . S
C435 O447 1.268 . S
O436 Nd416 2.500 . S
O436 C418 1.258 . S
O437 Nd416 2.492 . S
O437 C418 1.239 . S
O438 Nd416 2.487 . S
O438 C425 1.241 . S
O439 Nd416 2.682 . S
O439 Nd417 2.414 . S
O439 C425 1.273 . S
O440 Nd416 2.410 . S
O440 C426 1.251 . S
O441 Nd417 2.424 . S
O441 C426 1.268 . S
O442 Nd417 2.500 . S
O442 C427 1.258 . S
O443 Nd417 2.492 . S
O443 C427 1.239 . S
O444 Nd417 2.487 . S
O444 C434 1.241 . S
O445 Nd416 2.414 . S
O445 Nd417 2.682 . S
O445 C434 1.273 . S
O446 Nd417 2.410 . S
O446 C435 1.251 . S
O447 Nd416 2.424 . S
O447 C435 1.268 . S
H448 C420 0.930 . S
H449 C421 0.929 . S
H450 C423 0.930 . S
H451 C424 0.929 . S
H452 C429 0.930 . S
H453 C430 0.929 . S
H454 C432 0.930 . S
H455 C433 0.929 . S
Nd456 C458 2.836 . S
Nd456 O476 2.500 . S
Nd456 O477 2.492 . S
Nd456 O478 2.487 . S
Nd456 O479 2.682 . S
Nd456 O480 2.410 . S
Nd456 O485 2.414 . S
Nd456 O487 2.424 . S
Nd457 C467 2.836 . S
Nd457 O479 2.414 . S
Nd457 O481 2.424 . S
Nd457 O482 2.500 . S
Nd457 O483 2.492 . S
Nd457 O484 2.487 . S
Nd457 O485 2.682 . S
Nd457 O486 2.410 . S
C458 Nd456 2.836 . S
C458 C459 1.498 . S
C458 O476 1.258 . S
C458 O477 1.239 . S
C459 C458 1.498 . S
C459 C460 1.366 . S
C459 C464 1.407 . S
C460 C459 1.366 . S
C460 C461 1.392 . S
C460 H488 0.930 . S
C461 C460 1.392 . S
C461 C462 1.398 . S
C461 H489 0.929 . S
C462 C461 1.398 . S
C462 C463 1.352 . S
C463 C462 1.352 . S
C463 C464 1.384 . S
C463 H490 0.930 . S
C464 C459 1.407 . S
C464 C463 1.384 . S
C464 H491 0.929 . S
C465 O478 1.241 . S
C465 O479 1.273 . S
C466 O480 1.251 . S
C466 O481 1.268 . S
C467 Nd457 2.836 . S
C467 C468 1.498 . S
C467 O482 1.258 . S
C467 O483 1.239 . S
C468 C467 1.498 . S
C468 C469 1.366 . S
C468 C473 1.407 . S
C469 C468 1.366 . S
C469 C470 1.392 . S
C469 H492 0.930 . S
C470 C469 1.392 . S
C470 C471 1.398 . S
C470 H493 0.929 . S
C471 C470 1.398 . S
C471 C472 1.352 . S
C472 C471 1.352 . S
C472 C473 1.384 . S
C472 H494 0.930 . S
C473 C468 1.407 . S
C473 C472 1.384 . S
C473 H495 0.929 . S
C474 O484 1.241 . S
C474 O485 1.273 . S
C475 O486 1.251 . S
C475 O487 1.268 . S
O476 Nd456 2.500 . S
O476 C458 1.258 . S
O477 Nd456 2.492 . S
O477 C458 1.239 . S
O478 Nd456 2.487 . S
O478 C465 1.241 . S
O479 Nd456 2.682 . S
O479 Nd457 2.414 . S
O479 C465 1.273 . S
O480 Nd456 2.410 . S
O480 C466 1.251 . S
O481 Nd457 2.424 . S
O481 C466 1.268 . S
O482 Nd457 2.500 . S
O482 C467 1.258 . S
O483 Nd457 2.492 . S
O483 C467 1.239 . S
O484 Nd457 2.487 . S
O484 C474 1.241 . S
O485 Nd456 2.414 . S
O485 Nd457 2.682 . S
O485 C474 1.273 . S
O486 Nd457 2.410 . S
O486 C475 1.251 . S
O487 Nd456 2.424 . S
O487 C475 1.268 . S
H488 C460 0.930 . S
H489 C461 0.929 . S
H490 C463 0.930 . S
H491 C464 0.929 . S
H492 C469 0.930 . S
H493 C470 0.929 . S
H494 C472 0.930 . S
H495 C473 0.929 . S
Nd496 C498 2.836 . S
Nd496 O516 2.500 . S
Nd496 O517 2.492 . S
Nd496 O518 2.487 . S
Nd496 O519 2.682 . S
Nd496 O520 2.410 . S
Nd496 O525 2.414 . S
Nd496 O527 2.424 . S
Nd497 C507 2.836 1_545 S
Nd497 O519 2.414 . S
Nd497 O521 2.424 . S
Nd497 O522 2.500 . S
Nd497 O523 2.492 1_545 S
Nd497 O524 2.487 1_455 S
Nd497 O525 2.682 . S
Nd497 O526 2.410 . S
C498 Nd496 2.836 . S
C498 C499 1.498 . S
C498 O516 1.258 . S
C498 O517 1.239 . S
C499 C498 1.498 . S
C499 C500 1.366 . S
C499 C504 1.407 . S
C500 C499 1.366 . S
C500 C501 1.392 1_455 S
C500 H528 0.930 1_455 S
C501 C500 1.392 1_655 S
C501 C502 1.398 1_655 S
C501 H529 0.929 . S
C502 C501 1.398 1_455 S
C502 C503 1.352 . S
C503 C502 1.352 . S
C503 C504 1.384 . S
C503 H530 0.930 . S
C504 C499 1.407 . S
C504 C503 1.384 . S
C504 H531 0.929 . S
C505 O518 1.241 . S
C505 O519 1.273 . S
C506 O520 1.251 . S
C506 O521 1.268 . S
C507 Nd497 2.836 1_565 S
C507 C508 1.498 . S
C507 O522 1.258 1_565 S
C507 O523 1.239 . S
C508 C507 1.498 . S
C508 C509 1.366 . S
C508 C513 1.407 . S
C509 C508 1.366 . S
C509 C510 1.392 . S
C509 H532 0.930 . S
C510 C509 1.392 . S
C510 C511 1.398 . S
C510 H533 0.929 . S
C511 C510 1.398 . S
C511 C512 1.352 . S
C512 C511 1.352 . S
C512 C513 1.384 . S
C512 H534 0.930 . S
C513 C508 1.407 . S
C513 C512 1.384 . S
C513 H535 0.929 . S
C514 O524 1.241 . S
C514 O525 1.273 1_655 S
C515 O526 1.251 . S
C515 O527 1.268 . S
O516 Nd496 2.500 . S
O516 C498 1.258 . S
O517 Nd496 2.492 . S
O517 C498 1.239 . S
O518 Nd496 2.487 . S
O518 C505 1.241 . S
O519 Nd496 2.682 . S
O519 Nd497 2.414 . S
O519 C505 1.273 . S
O520 Nd496 2.410 . S
O520 C506 1.251 . S
O521 Nd497 2.424 . S
O521 C506 1.268 . S
O522 Nd497 2.500 . S
O522 C507 1.258 1_545 S
O523 Nd497 2.492 1_565 S
O523 C507 1.239 . S
O524 Nd497 2.487 1_655 S
O524 C514 1.241 . S
O525 Nd496 2.414 . S
O525 Nd497 2.682 . S
O525 C514 1.273 1_455 S
O526 Nd497 2.410 . S
O526 C515 1.251 . S
O527 Nd496 2.424 . S
O527 C515 1.268 . S
H528 C500 0.930 1_655 S
H529 C501 0.929 . S
H530 C503 0.930 . S
H531 C504 0.929 . S
H532 C509 0.930 . S
H533 C510 0.929 . S
H534 C512 0.930 . S
H535 C513 0.929 . S
Nd536 C538 2.836 . S
Nd536 O556 2.500 . S
Nd536 O557 2.492 . S
Nd536 O558 2.487 . S
Nd536 O559 2.682 . S
Nd536 O560 2.410 . S
Nd536 O565 2.414 . S
Nd536 O567 2.424 . S
Nd537 C547 2.836 . S
Nd537 O559 2.414 . S
Nd537 O561 2.424 . S
Nd537 O562 2.500 . S
Nd537 O563 2.492 . S
Nd537 O564 2.487 . S
Nd537 O565 2.682 . S
Nd537 O566 2.410 . S
C538 Nd536 2.836 . S
C538 C539 1.498 . S
C538 O556 1.258 . S
C538 O557 1.239 . S
C539 C538 1.498 . S
C539 C540 1.366 . S
C539 C544 1.407 . S
C540 C539 1.366 . S
C540 C541 1.392 . S
C540 H568 0.930 . S
C541 C540 1.392 . S
C541 C542 1.398 . S
C541 H569 0.929 . S
C542 C541 1.398 . S
C542 C543 1.352 . S
C543 C542 1.352 . S
C543 C544 1.384 . S
C543 H570 0.930 . S
C544 C539 1.407 . S
C544 C543 1.384 . S
C544 H571 0.929 . S
C545 O558 1.241 . S
C545 O559 1.273 . S
C546 O560 1.251 . S
C546 O561 1.268 . S
C547 Nd537 2.836 . S
C547 C548 1.498 . S
C547 O562 1.258 . S
C547 O563 1.239 . S
C548 C547 1.498 . S
C548 C549 1.366 . S
C548 C553 1.407 . S
C549 C548 1.366 . S
C549 C550 1.392 . S
C549 H572 0.930 . S
C550 C549 1.392 . S
C550 C551 1.398 . S
C550 H573 0.929 . S
C551 C550 1.398 . S
C551 C552 1.352 . S
C552 C551 1.352 . S
C552 C553 1.384 . S
C552 H574 0.930 . S
C553 C548 1.407 . S
C553 C552 1.384 . S
C553 H575 0.929 . S
C554 O564 1.241 . S
C554 O565 1.273 . S
C555 O566 1.251 . S
C555 O567 1.268 . S
O556 Nd536 2.500 . S
O556 C538 1.258 . S
O557 Nd536 2.492 . S
O557 C538 1.239 . S
O558 Nd536 2.487 . S
O558 C545 1.241 . S
O559 Nd536 2.682 . S
O559 Nd537 2.414 . S
O559 C545 1.273 . S
O560 Nd536 2.410 . S
O560 C546 1.251 . S
O561 Nd537 2.424 . S
O561 C546 1.268 . S
O562 Nd537 2.500 . S
O562 C547 1.258 . S
O563 Nd537 2.492 . S
O563 C547 1.239 . S
O564 Nd537 2.487 . S
O564 C554 1.241 . S
O565 Nd536 2.414 . S
O565 Nd537 2.682 . S
O565 C554 1.273 . S
O566 Nd537 2.410 . S
O566 C555 1.251 . S
O567 Nd536 2.424 . S
O567 C555 1.268 . S
H568 C540 0.930 . S
H569 C541 0.929 . S
H570 C543 0.930 . S
H571 C544 0.929 . S
H572 C549 0.930 . S
H573 C550 0.929 . S
H574 C552 0.930 . S
H575 C553 0.929 . S
Nd576 C578 2.836 . S
Nd576 O596 2.500 . S
Nd576 O597 2.492 . S
Nd576 O598 2.487 . S
Nd576 O599 2.682 . S
Nd576 O600 2.410 . S
Nd576 O605 2.414 . S
Nd576 O607 2.424 . S
Nd577 C587 2.836 . S
Nd577 O599 2.414 . S
Nd577 O601 2.424 . S
Nd577 O602 2.500 . S
Nd577 O603 2.492 . S
Nd577 O604 2.487 . S
Nd577 O605 2.682 . S
Nd577 O606 2.410 . S
C578 Nd576 2.836 . S
C578 C579 1.498 . S
C578 O596 1.258 . S
C578 O597 1.239 . S
C579 C578 1.498 . S
C579 C580 1.366 . S
C579 C584 1.407 . S
C580 C579 1.366 . S
C580 C581 1.392 . S
C580 H608 0.930 . S
C581 C580 1.392 . S
C581 C582 1.398 . S
C581 H609 0.929 . S
C582 C581 1.398 . S
C582 C583 1.329 1_545 S
C583 C582 1.329 1_565 S
C583 C584 1.382 1_565 S
C583 H610 0.956 . S
C584 C579 1.407 . S
C584 C583 1.382 1_545 S
C584 H611 0.929 1_545 S
C585 O598 1.241 . S
C585 O599 1.273 . S
C586 O600 1.251 . S
C586 O601 1.268 . S
C587 Nd577 2.836 . S
C587 C588 1.498 . S
C587 O602 1.258 . S
C587 O603 1.239 . S
C588 C587 1.498 . S
C588 C589 1.366 . S
C588 C593 1.407 . S
C589 C588 1.366 . S
C589 C590 1.392 . S
C589 H612 0.930 . S
C590 C589 1.392 . S
C590 C591 1.398 . S
C590 H613 0.929 . S
C591 C590 1.398 . S
C591 C592 1.352 . S
C592 C591 1.352 . S
C592 C593 1.384 . S
C592 H614 0.930 . S
C593 C588 1.407 . S
C593 C592 1.384 . S
C593 H615 0.929 . S
C594 O604 1.241 . S
C594 O605 1.273 . S
C595 O606 1.251 . S
C595 O607 1.268 . S
O596 Nd576 2.500 . S
O596 C578 1.258 . S
O597 Nd576 2.492 . S
O597 C578 1.239 . S
O598 Nd576 2.487 . S
O598 C585 1.241 . S
O599 Nd576 2.682 . S
O599 Nd577 2.414 . S
O599 C585 1.273 . S
O600 Nd576 2.410 . S
O600 C586 1.251 . S
O601 Nd577 2.424 . S
O601 C586 1.268 . S
O602 Nd577 2.500 . S
O602 C587 1.258 . S
O603 Nd577 2.492 . S
O603 C587 1.239 . S
O604 Nd577 2.487 . S
O604 C594 1.241 . S
O605 Nd576 2.414 . S
O605 Nd577 2.682 . S
O605 C594 1.273 . S
O606 Nd577 2.410 . S
O606 C595 1.251 . S
O607 Nd576 2.424 . S
O607 C595 1.268 . S
H608 C580 0.930 . S
H609 C581 0.929 . S
H610 C583 0.956 . S
H611 C584 0.929 1_565 S
H612 C589 0.930 . S
H613 C590 0.929 . S
H614 C592 0.930 . S
H615 C593 0.929 . S
Nd616 C618 2.836 . S
Nd616 O636 2.500 . S
Nd616 O637 2.492 . S
Nd616 O638 2.487 . S
Nd616 O639 2.682 . S
Nd616 O640 2.410 . S
Nd616 O645 2.414 . S
Nd616 O647 2.424 . S
Nd617 C627 2.836 . S
Nd617 O639 2.414 . S
Nd617 O641 2.424 . S
Nd617 O642 2.500 . S
Nd617 O643 2.492 . S
Nd617 O644 2.487 . S
Nd617 O645 2.682 . S
Nd617 O646 2.410 . S
C618 Nd616 2.836 . S
C618 C619 1.498 . S
C618 O636 1.258 . S
C618 O637 1.239 . S
C619 C618 1.498 . S
C619 C620 1.366 . S
C619 C624 1.407 . S
C620 C619 1.366 . S
C620 C621 1.392 . S
C620 H648 0.930 . S
C621 C620 1.392 . S
C621 C622 1.398 . S
C621 H649 0.929 . S
C622 C621 1.398 . S
C622 C623 1.352 . S
C623 C622 1.352 . S
C623 C624 1.384 . S
C623 H650 0.930 . S
C624 C619 1.407 . S
C624 C623 1.384 . S
C624 H651 0.929 . S
C625 O638 1.241 . S
C625 O639 1.273 . S
C626 O640 1.251 . S
C626 O641 1.268 . S
C627 Nd617 2.836 . S
C627 C628 1.498 . S
C627 O642 1.258 . S
C627 O643 1.239 . S
C628 C627 1.498 . S
C628 C629 1.366 . S
C628 C633 1.407 . S
C629 C628 1.366 . S
C629 C630 1.392 . S
C629 H652 0.930 . S
C630 C629 1.392 . S
C630 C631 1.398 . S
C630 H653 0.929 . S
C631 C630 1.398 . S
C631 C632 1.352 . S
C632 C631 1.352 . S
C632 C633 1.384 . S
C632 H654 0.930 . S
C633 C628 1.407 . S
C633 C632 1.384 . S
C633 H655 0.929 . S
C634 O644 1.241 . S
C634 O645 1.273 . S
C635 O646 1.251 . S
C635 O647 1.268 . S
O636 Nd616 2.500 . S
O636 C618 1.258 . S
O637 Nd616 2.492 . S
O637 C618 1.239 . S
O638 Nd616 2.487 . S
O638 C625 1.241 . S
O639 Nd616 2.682 . S
O639 Nd617 2.414 . S
O639 C625 1.273 . S
O640 Nd616 2.410 . S
O640 C626 1.251 . S
O641 Nd617 2.424 . S
O641 C626 1.268 . S
O642 Nd617 2.500 . S
O642 C627 1.258 . S
O643 Nd617 2.492 . S
O643 C627 1.239 . S
O644 Nd617 2.487 . S
O644 C634 1.241 . S
O645 Nd616 2.414 . S
O645 Nd617 2.682 . S
O645 C634 1.273 . S
O646 Nd617 2.410 . S
O646 C635 1.251 . S
O647 Nd616 2.424 . S
O647 C635 1.268 . S
H648 C620 0.930 . S
H649 C621 0.929 . S
H650 C623 0.930 . S
H651 C624 0.929 . S
H652 C629 0.930 . S
H653 C630 0.929 . S
H654 C632 0.930 . S
H655 C633 0.929 . S
Nd656 C658 2.836 . S
Nd656 O676 2.500 . S
Nd656 O677 2.492 . S
Nd656 O678 2.487 . S
Nd656 O679 2.682 . S
Nd656 O680 2.410 . S
Nd656 O685 2.414 . S
Nd656 O687 2.424 . S
Nd657 C667 2.836 . S
Nd657 O679 2.414 . S
Nd657 O681 2.424 . S
Nd657 O682 2.500 . S
Nd657 O683 2.492 . S
Nd657 O684 2.487 . S
Nd657 O685 2.682 . S
Nd657 O686 2.410 . S
C658 Nd656 2.836 . S
C658 C659 1.498 . S
C658 O676 1.258 . S
C658 O677 1.239 . S
C659 C658 1.498 . S
C659 C660 1.366 . S
C659 C664 1.407 . S
C660 C659 1.366 . S
C660 C661 1.392 . S
C660 H688 0.930 . S
C661 C660 1.392 . S
C661 C662 1.398 . S
C661 H689 0.929 . S
C662 C661 1.398 . S
C662 C663 1.352 . S
C663 C662 1.352 . S
C663 C664 1.384 . S
C663 H690 0.930 . S
C664 C659 1.407 . S
C664 C663 1.384 . S
C664 H691 0.929 . S
C665 O678 1.241 . S
C665 O679 1.273 . S
C666 O680 1.251 . S
C666 O681 1.268 . S
C667 Nd657 2.836 . S
C667 C668 1.498 . S
C667 O682 1.258 . S
C667 O683 1.239 . S
C668 C667 1.498 . S
C668 C669 1.366 . S
C668 C673 1.407 . S
C669 C668 1.366 . S
C669 C670 1.392 . S
C669 H692 0.930 . S
C670 C669 1.392 . S
C670 C671 1.398 . S
C670 H693 0.929 . S
C671 C670 1.398 . S
C671 C672 1.352 . S
C672 C671 1.352 . S
C672 C673 1.384 . S
C672 H694 0.930 . S
C673 C668 1.407 . S
C673 C672 1.384 . S
C673 H695 0.929 . S
C674 O684 1.241 . S
C674 O685 1.273 . S
C675 O686 1.251 . S
C675 O687 1.268 . S
O676 Nd656 2.500 . S
O676 C658 1.258 . S
O677 Nd656 2.492 . S
O677 C658 1.239 . S
O678 Nd656 2.487 . S
O678 C665 1.241 . S
O679 Nd656 2.682 . S
O679 Nd657 2.414 . S
O679 C665 1.273 . S
O680 Nd656 2.410 . S
O680 C666 1.251 . S
O681 Nd657 2.424 . S
O681 C666 1.268 . S
O682 Nd657 2.500 . S
O682 C667 1.258 . S
O683 Nd657 2.492 . S
O683 C667 1.239 . S
O684 Nd657 2.487 . S
O684 C674 1.241 . S
O685 Nd656 2.414 . S
O685 Nd657 2.682 . S
O685 C674 1.273 . S
O686 Nd657 2.410 . S
O686 C675 1.251 . S
O687 Nd656 2.424 . S
O687 C675 1.268 . S
H688 C660 0.930 . S
H689 C661 0.929 . S
H690 C663 0.930 . S
H691 C664 0.929 . S
H692 C669 0.930 . S
H693 C670 0.929 . S
H694 C672 0.930 . S
H695 C673 0.929 . S
Nd696 C698 2.836 . S
Nd696 O716 2.500 . S
Nd696 O717 2.492 . S
Nd696 O718 2.487 . S
Nd696 O719 2.682 . S
Nd696 O720 2.410 . S
Nd696 O725 2.414 . S
Nd696 O727 2.424 . S
Nd697 C707 2.836 . S
Nd697 O719 2.414 . S
Nd697 O721 2.424 . S
Nd697 O722 2.500 . S
Nd697 O723 2.492 . S
Nd697 O724 2.487 . S
Nd697 O725 2.682 . S
Nd697 O726 2.410 . S
C698 Nd696 2.836 . S
C698 C699 1.498 . S
C698 O716 1.258 . S
C698 O717 1.239 . S
C699 C698 1.498 . S
C699 C700 1.366 . S
C699 C704 1.407 . S
C700 C699 1.366 . S
C700 C701 1.392 . S
C700 H728 0.930 . S
C701 C700 1.392 . S
C701 C702 1.398 . S
C701 H729 0.929 . S
C702 C701 1.398 . S
C702 C703 1.352 . S
C703 C702 1.352 . S
C703 C704 1.384 . S
C703 H730 0.930 . S
C704 C699 1.407 . S
C704 C703 1.384 . S
C704 H731 0.929 . S
C705 O718 1.241 . S
C705 O719 1.273 . S
C706 O720 1.251 . S
C706 O721 1.268 . S
C707 Nd697 2.836 . S
C707 C708 1.498 . S
C707 O722 1.258 . S
C707 O723 1.239 . S
C708 C707 1.498 . S
C708 C709 1.366 . S
C708 C713 1.407 . S
C709 C708 1.366 . S
C709 C710 1.392 . S
C709 H732 0.930 . S
C710 C709 1.392 . S
C710 C711 1.398 . S
C710 H733 0.929 . S
C711 C710 1.398 . S
C711 C712 1.352 . S
C712 C711 1.352 . S
C712 C713 1.384 . S
C712 H734 0.930 . S
C713 C708 1.407 . S
C713 C712 1.384 . S
C713 H735 0.929 . S
C714 O724 1.241 . S
C714 O725 1.273 . S
C715 O726 1.251 . S
C715 O727 1.268 . S
O716 Nd696 2.500 . S
O716 C698 1.258 . S
O717 Nd696 2.492 . S
O717 C698 1.239 . S
O718 Nd696 2.487 . S
O718 C705 1.241 . S
O719 Nd696 2.682 . S
O719 Nd697 2.414 . S
O719 C705 1.273 . S
O720 Nd696 2.410 . S
O720 C706 1.251 . S
O721 Nd697 2.424 . S
O721 C706 1.268 . S
O722 Nd697 2.500 . S
O722 C707 1.258 . S
O723 Nd697 2.492 . S
O723 C707 1.239 . S
O724 Nd697 2.487 . S
O724 C714 1.241 . S
O725 Nd696 2.414 . S
O725 Nd697 2.682 . S
O725 C714 1.273 . S
O726 Nd697 2.410 . S
O726 C715 1.251 . S
O727 Nd696 2.424 . S
O727 C715 1.268 . S
H728 C700 0.930 . S
H729 C701 0.929 . S
H730 C703 0.930 . S
H731 C704 0.929 . S
H732 C709 0.930 . S
H733 C710 0.929 . S
H734 C712 0.930 . S
H735 C713 0.929 . S
Nd736 C738 2.836 1_455 S
Nd736 O756 2.500 1_455 S
Nd736 O757 2.492 1_455 S
Nd736 O758 2.487 . S
Nd736 O759 2.682 . S
Nd736 O760 2.410 . S
Nd736 O765 2.414 . S
Nd736 O767 2.424 . S
Nd737 C747 2.836 . S
Nd737 O759 2.414 . S
Nd737 O761 2.424 . S
Nd737 O762 2.500 . S
Nd737 O763 2.492 . S
Nd737 O764 2.487 . S
Nd737 O765 2.682 . S
Nd737 O766 2.410 . S
C738 Nd736 2.836 1_655 S
C738 C739 1.498 . S
C738 O756 1.258 . S
C738 O757 1.239 . S
C739 C738 1.498 . S
C739 C740 1.366 . S
C739 C744 1.407 . S
C740 C739 1.366 . S
C740 C741 1.392 . S
C740 H768 0.930 . S
C741 C740 1.392 . S
C741 C742 1.398 . S
C741 H769 0.929 . S
C742 C741 1.398 . S
C742 C743 1.352 . S
C743 C742 1.352 . S
C743 C744 1.384 . S
C743 H770 0.930 . S
C744 C739 1.407 . S
C744 C743 1.384 . S
C744 H771 0.929 . S
C745 O758 1.241 . S
C745 O759 1.273 . S
C746 O760 1.251 . S
C746 O761 1.268 . S
C747 Nd737 2.836 . S
C747 C748 1.498 . S
C747 O762 1.258 . S
C747 O763 1.239 . S
C748 C747 1.498 . S
C748 C749 1.366 . S
C748 C753 1.407 . S
C749 C748 1.366 . S
C749 C750 1.392 . S
C749 H772 0.930 . S
C750 C749 1.392 . S
C750 C751 1.398 . S
C750 H773 0.929 . S
C751 C750 1.398 . S
C751 C752 1.352 . S
C752 C751 1.352 . S
C752 C753 1.384 . S
C752 H774 0.930 . S
C753 C748 1.407 . S
C753 C752 1.384 . S
C753 H775 0.929 . S
C754 O764 1.241 . S
C754 O765 1.273 . S
C755 O766 1.251 . S
C755 O767 1.268 . S
O756 Nd736 2.500 1_655 S
O756 C738 1.258 . S
O757 Nd736 2.492 1_655 S
O757 C738 1.239 . S
O758 Nd736 2.487 . S
O758 C745 1.241 . S
O759 Nd736 2.682 . S
O759 Nd737 2.414 . S
O759 C745 1.273 . S
O760 Nd736 2.410 . S
O760 C746 1.251 . S
O761 Nd737 2.424 . S
O761 C746 1.268 . S
O762 Nd737 2.500 . S
O762 C747 1.258 . S
O763 Nd737 2.492 . S
O763 C747 1.239 . S
O764 Nd737 2.487 . S
O764 C754 1.241 . S
O765 Nd736 2.414 . S
O765 Nd737 2.682 . S
O765 C754 1.273 . S
O766 Nd737 2.410 . S
O766 C755 1.251 . S
O767 Nd736 2.424 . S
O767 C755 1.268 . S
H768 C740 0.930 . S
H769 C741 0.929 . S
H770 C743 0.930 . S
H771 C744 0.929 . S
H772 C749 0.930 . S
H773 C750 0.929 . S
H774 C752 0.930 . S
H775 C753 0.929 . S
Nd776 C778 2.836 . S
Nd776 O796 2.500 . S
Nd776 O797 2.492 . S
Nd776 O798 2.487 . S
Nd776 O799 2.682 . S
Nd776 O800 2.410 . S
Nd776 O805 2.414 . S
Nd776 O807 2.424 . S
Nd777 C787 2.836 . S
Nd777 O799 2.414 . S
Nd777 O801 2.424 . S
Nd777 O802 2.500 . S
Nd777 O803 2.492 . S
Nd777 O804 2.487 . S
Nd777 O805 2.682 . S
Nd777 O806 2.410 . S
C778 Nd776 2.836 . S
C778 C779 1.498 . S
C778 O796 1.258 . S
C778 O797 1.239 . S
C779 C778 1.498 . S
C779 C780 1.366 . S
C779 C784 1.407 . S
C780 C779 1.366 . S
C780 C781 1.392 . S
C780 H808 0.930 . S
C781 C780 1.392 . S
C781 C782 1.398 . S
C781 H809 0.929 . S
C782 C781 1.398 . S
C782 C783 1.352 . S
C783 C782 1.352 . S
C783 C784 1.384 . S
C783 H810 0.930 . S
C784 C779 1.407 . S
C784 C783 1.384 . S
C784 H811 0.929 . S
C785 O798 1.241 . S
C785 O799 1.273 . S
C786 O800 1.251 . S
C786 O801 1.268 . S
C787 Nd777 2.836 . S
C787 C788 1.498 . S
C787 O802 1.258 . S
C787 O803 1.239 . S
C788 C787 1.498 . S
C788 C789 1.366 . S
C788 C793 1.407 . S
C789 C788 1.366 . S
C789 C790 1.392 . S
C789 H812 0.930 . S
C790 C789 1.392 . S
C790 C791 1.398 . S
C790 H813 0.929 . S
C791 C790 1.398 . S
C791 C792 1.352 . S
C792 C791 1.352 . S
C792 C793 1.384 . S
C792 H814 0.930 . S
C793 C788 1.407 . S
C793 C792 1.384 . S
C793 H815 0.929 . S
C794 O804 1.241 . S
C794 O805 1.273 . S
C795 O806 1.251 . S
C795 O807 1.268 . S
O796 Nd776 2.500 . S
O796 C778 1.258 . S
O797 Nd776 2.492 . S
O797 C778 1.239 . S
O798 Nd776 2.487 . S
O798 C785 1.241 . S
O799 Nd776 2.682 . S
O799 Nd777 2.414 . S
O799 C785 1.273 . S
O800 Nd776 2.410 . S
O800 C786 1.251 . S
O801 Nd777 2.424 . S
O801 C786 1.268 . S
O802 Nd777 2.500 . S
O802 C787 1.258 . S
O803 Nd777 2.492 . S
O803 C787 1.239 . S
O804 Nd777 2.487 . S
O804 C794 1.241 . S
O805 Nd776 2.414 . S
O805 Nd777 2.682 . S
O805 C794 1.273 . S
O806 Nd777 2.410 . S
O806 C795 1.251 . S
O807 Nd776 2.424 . S
O807 C795 1.268 . S
H808 C780 0.930 . S
H809 C781 0.929 . S
H810 C783 0.930 . S
H811 C784 0.929 . S
H812 C789 0.930 . S
H813 C790 0.929 . S
H814 C792 0.930 . S
H815 C793 0.929 . S
Nd816 C818 2.836 . S
Nd816 O836 2.500 . S
Nd816 O837 2.492 . S
Nd816 O838 2.487 . S
Nd816 O839 2.682 . S
Nd816 O840 2.410 . S
Nd816 O845 2.414 . S
Nd816 O847 2.424 . S
Nd817 C827 2.836 . S
Nd817 O839 2.414 . S
Nd817 O841 2.424 . S
Nd817 O842 2.500 . S
Nd817 O843 2.492 . S
Nd817 O844 2.487 . S
Nd817 O845 2.682 . S
Nd817 O846 2.410 . S
C818 Nd816 2.836 . S
C818 C819 1.498 . S
C818 O836 1.258 . S
C818 O837 1.239 . S
C819 C818 1.498 . S
C819 C820 1.366 . S
C819 C824 1.407 . S
C820 C819 1.366 . S
C820 C821 1.392 . S
C820 H848 0.930 . S
C821 C820 1.392 . S
C821 C822 1.398 . S
C821 H849 0.929 . S
C822 C821 1.398 . S
C822 C823 1.352 . S
C823 C822 1.352 . S
C823 C824 1.384 . S
C823 H850 0.930 . S
C824 C819 1.407 . S
C824 C823 1.384 . S
C824 H851 0.929 . S
C825 O838 1.241 . S
C825 O839 1.273 . S
C826 O840 1.251 . S
C826 O841 1.268 . S
C827 Nd817 2.836 . S
C827 C828 1.498 . S
C827 O842 1.258 . S
C827 O843 1.239 . S
C828 C827 1.498 . S
C828 C829 1.366 . S
C828 C833 1.407 . S
C829 C828 1.366 . S
C829 C830 1.392 . S
C829 H852 0.930 . S
C830 C829 1.392 . S
C830 C831 1.398 . S
C830 H853 0.929 . S
C831 C830 1.398 . S
C831 C832 1.352 . S
C832 C831 1.352 . S
C832 C833 1.384 . S
C832 H854 0.930 . S
C833 C828 1.407 . S
C833 C832 1.384 . S
C833 H855 0.929 . S
C834 O844 1.241 . S
C834 O845 1.273 . S
C835 O846 1.251 . S
C835 O847 1.268 . S
O836 Nd816 2.500 . S
O836 C818 1.258 . S
O837 Nd816 2.492 . S
O837 C818 1.239 . S
O838 Nd816 2.487 . S
O838 C825 1.241 . S
O839 Nd816 2.682 . S
O839 Nd817 2.414 . S
O839 C825 1.273 . S
O840 Nd816 2.410 . S
O840 C826 1.251 . S
O841 Nd817 2.424 . S
O841 C826 1.268 . S
O842 Nd817 2.500 . S
O842 C827 1.258 . S
O843 Nd817 2.492 . S
O843 C827 1.239 . S
O844 Nd817 2.487 . S
O844 C834 1.241 . S
O845 Nd816 2.414 . S
O845 Nd817 2.682 . S
O845 C834 1.273 . S
O846 Nd817 2.410 . S
O846 C835 1.251 . S
O847 Nd816 2.424 . S
O847 C835 1.268 . S
H848 C820 0.930 . S
H849 C821 0.929 . S
H850 C823 0.930 . S
H851 C824 0.929 . S
H852 C829 0.930 . S
H853 C830 0.929 . S
H854 C832 0.930 . S
H855 C833 0.929 . S
Nd856 C858 2.836 . S
Nd856 O876 2.500 . S
Nd856 O877 2.492 . S
Nd856 O878 2.487 . S
Nd856 O879 2.682 . S
Nd856 O880 2.410 . S
Nd856 O885 2.414 . S
Nd856 O887 2.424 . S
Nd857 C867 2.836 . S
Nd857 O879 2.414 . S
Nd857 O881 2.424 . S
Nd857 O882 2.500 . S
Nd857 O883 2.492 . S
Nd857 O884 2.487 . S
Nd857 O885 2.682 . S
Nd857 O886 2.410 . S
C858 Nd856 2.836 . S
C858 C859 1.498 . S
C858 O876 1.258 . S
C858 O877 1.239 . S
C859 C858 1.498 . S
C859 C860 1.366 . S
C859 C864 1.407 . S
C860 C859 1.366 . S
C860 C861 1.392 . S
C860 H888 0.930 . S
C861 C860 1.392 . S
C861 C862 1.398 . S
C861 H889 0.929 . S
C862 C861 1.398 . S
C862 C863 1.352 . S
C863 C862 1.352 . S
C863 C864 1.384 . S
C863 H890 0.930 . S
C864 C859 1.407 . S
C864 C863 1.384 . S
C864 H891 0.929 . S
C865 O878 1.241 . S
C865 O879 1.273 . S
C866 O880 1.251 . S
C866 O881 1.268 . S
C867 Nd857 2.836 . S
C867 C868 1.498 . S
C867 O882 1.258 . S
C867 O883 1.239 . S
C868 C867 1.498 . S
C868 C869 1.366 . S
C868 C873 1.407 . S
C869 C868 1.366 . S
C869 C870 1.392 . S
C869 H892 0.930 . S
C870 C869 1.392 . S
C870 C871 1.398 . S
C870 H893 0.929 . S
C871 C870 1.398 . S
C871 C872 1.352 . S
C872 C871 1.352 . S
C872 C873 1.384 . S
C872 H894 0.930 . S
C873 C868 1.407 . S
C873 C872 1.384 . S
C873 H895 0.929 . S
C874 O884 1.241 . S
C874 O885 1.273 . S
C875 O886 1.251 . S
C875 O887 1.268 . S
O876 Nd856 2.500 . S
O876 C858 1.258 . S
O877 Nd856 2.492 . S
O877 C858 1.239 . S
O878 Nd856 2.487 . S
O878 C865 1.241 . S
O879 Nd856 2.682 . S
O879 Nd857 2.414 . S
O879 C865 1.273 . S
O880 Nd856 2.410 . S
O880 C866 1.251 . S
O881 Nd857 2.424 . S
O881 C866 1.268 . S
O882 Nd857 2.500 . S
O882 C867 1.258 . S
O883 Nd857 2.492 . S
O883 C867 1.239 . S
O884 Nd857 2.487 . S
O884 C874 1.241 . S
O885 Nd856 2.414 . S
O885 Nd857 2.682 . S
O885 C874 1.273 . S
O886 Nd857 2.410 . S
O886 C875 1.251 . S
O887 Nd856 2.424 . S
O887 C875 1.268 . S
H888 C860 0.930 . S
H889 C861 0.929 . S
H890 C863 0.930 . S
H891 C864 0.929 . S
H892 C869 0.930 . S
H893 C870 0.929 . S
H894 C872 0.930 . S
H895 C873 0.929 . S
Nd896 C898 2.836 . S
Nd896 O916 2.500 . S
Nd896 O917 2.492 . S
Nd896 O918 2.487 . S
Nd896 O919 2.682 . S
Nd896 O920 2.410 . S
Nd896 O925 2.414 . S
Nd896 O927 2.424 . S
Nd897 C907 2.836 . S
Nd897 O919 2.414 . S
Nd897 O921 2.424 . S
Nd897 O922 2.500 . S
Nd897 O923 2.492 . S
Nd897 O924 2.487 . S
Nd897 O925 2.682 . S
Nd897 O926 2.410 . S
C898 Nd896 2.836 . S
C898 C899 1.498 . S
C898 O916 1.258 . S
C898 O917 1.239 . S
C899 C898 1.498 . S
C899 C900 1.366 . S
C899 C904 1.407 . S
C900 C899 1.366 . S
C900 C901 1.392 . S
C900 H928 0.930 . S
C901 C900 1.392 . S
C901 C902 1.398 . S
C901 H929 0.929 . S
C902 C901 1.398 . S
C902 C903 1.352 . S
C903 C902 1.352 . S
C903 C904 1.384 . S
C903 H930 0.930 . S
C904 C899 1.407 . S
C904 C903 1.384 . S
C904 H931 0.929 . S
C905 O918 1.241 . S
C905 O919 1.273 . S
C906 O920 1.251 . S
C906 O921 1.268 . S
C907 Nd897 2.836 . S
C907 C908 1.498 . S
C907 O922 1.258 . S
C907 O923 1.239 . S
C908 C907 1.498 . S
C908 C909 1.366 . S
C908 C913 1.407 . S
C909 C908 1.366 . S
C909 C910 1.392 . S
C909 H932 0.930 . S
C910 C909 1.392 . S
C910 C911 1.398 . S
C910 H933 0.929 . S
C911 C910 1.398 . S
C911 C912 1.352 . S
C912 C911 1.352 . S
C912 C913 1.384 . S
C912 H934 0.930 . S
C913 C908 1.407 . S
C913 C912 1.384 . S
C913 H935 0.929 . S
C914 O924 1.241 . S
C914 O925 1.273 . S
C915 O926 1.251 . S
C915 O927 1.268 . S
O916 Nd896 2.500 . S
O916 C898 1.258 . S
O917 Nd896 2.492 . S
O917 C898 1.239 . S
O918 Nd896 2.487 . S
O918 C905 1.241 . S
O919 Nd896 2.682 . S
O919 Nd897 2.414 . S
O919 C905 1.273 . S
O920 Nd896 2.410 . S
O920 C906 1.251 . S
O921 Nd897 2.424 . S
O921 C906 1.268 . S
O922 Nd897 2.500 . S
O922 C907 1.258 . S
O923 Nd897 2.492 . S
O923 C907 1.239 . S
O924 Nd897 2.487 . S
O924 C914 1.241 . S
O925 Nd896 2.414 . S
O925 Nd897 2.682 . S
O925 C914 1.273 . S
O926 Nd897 2.410 . S
O926 C915 1.251 . S
O927 Nd896 2.424 . S
O927 C915 1.268 . S
H928 C900 0.930 . S
H929 C901 0.929 . S
H930 C903 0.930 . S
H931 C904 0.929 . S
H932 C909 0.930 . S
H933 C910 0.929 . S
H934 C912 0.930 . S
H935 C913 0.929 . S
Nd936 C938 2.836 . S
Nd936 O956 2.500 . S
Nd936 O957 2.492 . S
Nd936 O958 2.487 . S
Nd936 O959 2.682 . S
Nd936 O960 2.410 . S
Nd936 O965 2.414 . S
Nd936 O967 2.424 . S
Nd937 C947 2.825 1_455 S
Nd937 O959 2.422 . S
Nd937 O961 2.432 . S
Nd937 O962 2.490 1_455 S
Nd937 O963 2.481 1_455 S
Nd937 O964 2.489 . S
Nd937 O965 2.693 . S
Nd937 O966 2.411 . S
C938 Nd936 2.836 . S
C938 C939 1.498 . S
C938 O956 1.258 . S
C938 O957 1.239 . S
C939 C938 1.498 . S
C939 C940 1.366 . S
C939 C944 1.407 . S
C940 C939 1.366 . S
C940 C941 1.392 . S
C940 H968 0.930 . S
C941 C940 1.392 . S
C941 C942 1.398 . S
C941 H969 0.929 . S
C942 C941 1.398 . S
C942 C943 1.352 . S
C943 C942 1.352 . S
C943 C944 1.384 . S
C943 H970 0.930 . S
C944 C939 1.407 . S
C944 C943 1.384 . S
C944 H971 0.929 . S
C945 O958 1.241 . S
C945 O959 1.273 . S
C946 O960 1.251 . S
C946 O961 1.268 . S
C947 Nd937 2.825 1_655 S
C947 C948 1.498 . S
C947 O962 1.258 . S
C947 O963 1.239 . S
C948 C947 1.498 . S
C948 C949 1.366 . S
C948 C953 1.407 . S
C949 C948 1.366 . S
C949 C950 1.392 . S
C949 H972 0.930 . S
C950 C949 1.392 . S
C950 C951 1.398 . S
C950 H973 0.929 . S
C951 C950 1.398 . S
C951 C952 1.352 . S
C952 C951 1.352 . S
C952 C953 1.384 . S
C952 H974 0.930 . S
C953 C948 1.407 . S
C953 C952 1.384 . S
C953 H975 0.929 . S
C954 O964 1.241 . S
C954 O965 1.273 . S
C955 O966 1.251 . S
C955 O967 1.268 . S
O956 Nd936 2.500 . S
O956 C938 1.258 . S
O957 Nd936 2.492 . S
O957 C938 1.239 . S
O958 Nd936 2.487 . S
O958 C945 1.241 . S
O959 Nd936 2.682 . S
O959 Nd937 2.422 . S
O959 C945 1.273 . S
O960 Nd936 2.410 . S
O960 C946 1.251 . S
O961 Nd937 2.432 . S
O961 C946 1.268 . S
O962 Nd937 2.490 1_655 S
O962 C947 1.258 . S
O963 Nd937 2.481 1_655 S
O963 C947 1.239 . S
O964 Nd937 2.489 . S
O964 C954 1.241 . S
O965 Nd936 2.414 . S
O965 Nd937 2.693 . S
O965 C954 1.273 . S
O966 Nd937 2.411 . S
O966 C955 1.251 . S
O967 Nd936 2.424 . S
O967 C955 1.268 . S
H968 C940 0.930 . S
H969 C941 0.929 . S
H970 C943 0.930 . S
H971 C944 0.929 . S
H972 C949 0.930 . S
H973 C950 0.929 . S
H974 C952 0.930 . S
H975 C953 0.929 . S
H976 C988 0.930 . S
H977 C990 0.930 . S
H978 C991 0.930 . S
H979 C995 0.959 . S
H980 C995 0.959 . S
H981 C995 0.961 . S
H982 C996 0.960 . S
H983 C996 0.961 . S
H984 C996 0.959 . S
H985 C999 0.929 1_556 S
H986 C1000 0.931 . S
H987 C1002 0.930 . S
C988 H976 0.930 . S
C988 C989 1.399 . S
C988 C993 1.399 . S
C989 C988 1.399 . S
C989 C990 1.376 . S
C990 H977 0.930 . S
C990 C989 1.376 . S
C990 C991 1.388 . S
C991 H978 0.930 . S
C991 C990 1.388 . S
C991 C992 1.390 . S
C992 C991 1.390 . S
C992 C993 1.394 . S
C992 C998 1.465 1_556 S
C993 C988 1.399 . S
C993 C992 1.394 . S
C993 C994 1.516 1_556 S
C994 C993 1.516 1_554 S
C994 C995 1.502 . S
C994 C996 1.561 . S
C994 C997 1.526 . S
C995 H979 0.959 . S
C995 H980 0.959 . S
C995 H981 0.961 . S
C995 C994 1.502 . S
C996 H982 0.960 . S
C996 H983 0.961 . S
C996 H984 0.959 . S
C996 C994 1.561 . S
C997 C994 1.526 . S
C997 C998 1.396 . S
C997 C1002 1.390 . S
C998 C992 1.465 1_554 S
C998 C997 1.396 . S
C998 C999 1.399 . S
C999 H985 0.929 1_554 S
C999 C998 1.399 . S
C999 C1000 1.385 . S
C1000 H986 0.931 . S
C1000 C999 1.385 . S
C1000 C1001 1.389 . S
C1001 C1000 1.389 . S
C1001 C1002 1.387 . S
C1002 H987 0.930 . S
C1002 C997 1.390 . S
C1002 C1001 1.387 . S
H1003 C1015 0.930 . S
H1004 C1017 0.930 . S
H1005 C1018 0.930 . S
H1006 C1022 0.959 . S
H1007 C1022 0.959 . S
H1008 C1022 0.961 . S
H1009 C1023 0.960 . S
H1010 C1023 0.961 . S
H1011 C1023 0.959 . S
H1012 C1026 0.929 . S
H1013 C1027 0.931 . S
H1014 C1029 0.930 . S
C1015 H1003 0.930 . S
C1015 C1016 1.399 . S
C1015 C1020 1.399 . S
C1016 C1015 1.399 . S
C1016 C1017 1.376 . S
C1017 H1004 0.930 . S
C1017 C1016 1.376 . S
C1017 C1018 1.388 . S
C1018 H1005 0.930 . S
C1018 C1017 1.388 . S
C1018 C1019 1.390 . S
C1019 C1018 1.390 . S
C1019 C1020 1.394 . S
C1019 C1025 1.465 . S
C1020 C1015 1.399 . S
C1020 C1019 1.394 . S
C1020 C1021 1.516 . S
C1021 C1020 1.516 . S
C1021 C1022 1.502 . S
C1021 C1023 1.561 . S
C1021 C1024 1.526 . S
C1022 H1006 0.959 . S
C1022 H1007 0.959 . S
C1022 H1008 0.961 . S
C1022 C1021 1.502 . S
C1023 H1009 0.960 . S
C1023 H1010 0.961 . S
C1023 H1011 0.959 . S
C1023 C1021 1.561 . S
C1024 C1021 1.526 . S
C1024 C1025 1.396 . S
C1024 C1029 1.390 . S
C1025 C1019 1.465 . S
C1025 C1024 1.396 . S
C1025 C1026 1.399 . S
C1026 H1012 0.929 . S
C1026 C1025 1.399 . S
C1026 C1027 1.385 . S
C1027 H1013 0.931 . S
C1027 C1026 1.385 . S
C1027 C1028 1.389 . S
C1028 C1027 1.389 . S
C1028 C1029 1.387 . S
C1029 H1014 0.930 . S
C1029 C1024 1.390 . S
C1029 C1028 1.387 . S
H1030 C1042 0.930 . S
H1031 C1044 0.930 . S
H1032 C1045 0.930 . S
H1033 C1049 0.959 . S
H1034 C1049 0.959 . S
H1035 C1049 0.961 . S
H1036 C1050 0.960 . S
H1037 C1050 0.961 . S
H1038 C1050 0.959 . S
H1039 C1053 0.929 . S
H1040 C1054 0.931 . S
H1041 C1056 0.930 1_545 S
C1042 H1030 0.930 . S
C1042 C1043 1.399 . S
C1042 C1047 1.399 . S
C1043 C1042 1.399 . S
C1043 C1044 1.376 . S
C1044 H1031 0.930 . S
C1044 C1043 1.376 . S
C1044 C1045 1.388 . S
C1045 H1032 0.930 . S
C1045 C1044 1.388 . S
C1045 C1046 1.390 . S
C1046 C1045 1.390 . S
C1046 C1047 1.394 . S
C1046 C1052 1.465 . S
C1047 C1042 1.399 . S
C1047 C1046 1.394 . S
C1047 C1048 1.516 . S
C1048 C1047 1.516 . S
C1048 C1049 1.502 . S
C1048 C1050 1.561 . S
C1048 C1051 1.526 . S
C1049 H1033 0.959 . S
C1049 H1034 0.959 . S
C1049 H1035 0.961 . S
C1049 C1048 1.502 . S
C1050 H1036 0.960 . S
C1050 H1037 0.961 . S
C1050 H1038 0.959 . S
C1050 C1048 1.561 . S
C1051 C1048 1.526 . S
C1051 C1052 1.396 . S
C1051 C1056 1.390 . S
C1052 C1046 1.465 . S
C1052 C1051 1.396 . S
C1052 C1053 1.399 . S
C1053 H1039 0.929 . S
C1053 C1052 1.399 . S
C1053 C1054 1.385 . S
C1054 H1040 0.931 . S
C1054 C1053 1.385 . S
C1054 C1055 1.389 . S
C1055 C1054 1.389 . S
C1055 C1056 1.387 . S
C1056 H1041 0.930 1_565 S
C1056 C1051 1.390 . S
C1056 C1055 1.387 . S
H1057 C1069 0.930 . S
H1058 C1071 0.930 . S
H1059 C1072 0.930 . S
H1060 C1076 0.959 . S
H1061 C1076 0.959 . S
H1062 C1076 0.961 . S
H1063 C1077 0.960 . S
H1064 C1077 0.961 . S
H1065 C1077 0.959 . S
H1066 C1080 0.929 . S
H1067 C1081 0.931 . S
H1068 C1083 0.930 . S
C1069 H1057 0.930 . S
C1069 C1070 1.399 . S
C1069 C1074 1.399 . S
C1070 C1069 1.399 . S
C1070 C1071 1.376 . S
C1071 H1058 0.930 . S
C1071 C1070 1.376 . S
C1071 C1072 1.388 . S
C1072 H1059 0.930 . S
C1072 C1071 1.388 . S
C1072 C1073 1.390 . S
C1073 C1072 1.390 . S
C1073 C1074 1.394 . S
C1073 C1079 1.465 . S
C1074 C1069 1.399 . S
C1074 C1073 1.394 . S
C1074 C1075 1.516 . S
C1075 C1074 1.516 . S
C1075 C1076 1.502 . S
C1075 C1077 1.561 . S
C1075 C1078 1.526 . S
C1076 H1060 0.959 . S
C1076 H1061 0.959 . S
C1076 H1062 0.961 . S
C1076 C1075 1.502 . S
C1077 H1063 0.960 . S
C1077 H1064 0.961 . S
C1077 H1065 0.959 . S
C1077 C1075 1.561 . S
C1078 C1075 1.526 . S
C1078 C1079 1.396 . S
C1078 C1083 1.390 . S
C1079 C1073 1.465 . S
C1079 C1078 1.396 . S
C1079 C1080 1.399 . S
C1080 H1066 0.929 . S
C1080 C1079 1.399 . S
C1080 C1081 1.385 . S
C1081 H1067 0.931 . S
C1081 C1080 1.385 . S
C1081 C1082 1.389 . S
C1082 C1081 1.389 . S
C1082 C1083 1.387 . S
C1083 H1068 0.930 . S
C1083 C1078 1.390 . S
C1083 C1082 1.387 . S
H1084 C1096 0.930 . S
H1085 C1098 0.930 . S
H1086 C1099 0.956 . S
H1087 C1103 0.959 . S
H1088 C1103 0.959 . S
H1089 C1103 0.961 . S
H1090 C1104 0.960 . S
H1091 C1104 0.961 . S
H1092 C1104 0.959 . S
H1093 C1107 0.929 . S
H1094 C1108 0.931 . S
H1095 C1110 0.930 . S
C1096 H1084 0.930 . S
C1096 C1097 1.399 . S
C1096 C1101 1.399 . S
C1097 C1096 1.399 . S
C1097 C1098 1.376 1_455 S
C1098 H1085 0.930 . S
C1098 C1097 1.376 1_655 S
C1098 C1099 1.388 1_655 S
C1099 H1086 0.956 . S
C1099 C1098 1.388 1_455 S
C1099 C1100 1.390 . S
C1100 C1099 1.390 . S
C1100 C1101 1.394 . S
C1100 C1106 1.465 . S
C1101 C1096 1.399 . S
C1101 C1100 1.394 . S
C1101 C1102 1.516 . S
C1102 C1101 1.516 . S
C1102 C1103 1.502 . S
C1102 C1104 1.561 . S
C1102 C1105 1.526 . S
C1103 H1087 0.959 . S
C1103 H1088 0.959 . S
C1103 H1089 0.961 . S
C1103 C1102 1.502 . S
C1104 H1090 0.960 . S
C1104 H1091 0.961 . S
C1104 H1092 0.959 . S
C1104 C1102 1.561 . S
C1105 C1102 1.526 . S
C1105 C1106 1.396 . S
C1105 C1110 1.390 . S
C1106 C1100 1.465 . S
C1106 C1105 1.396 . S
C1106 C1107 1.399 . S
C1107 H1093 0.929 . S
C1107 C1106 1.399 . S
C1107 C1108 1.385 . S
C1108 H1094 0.931 . S
C1108 C1107 1.385 . S
C1108 C1109 1.389 . S
C1109 C1108 1.389 . S
C1109 C1110 1.387 . S
C1110 H1095 0.930 . S
C1110 C1105 1.390 . S
C1110 C1109 1.387 . S
H1111 C1123 0.930 . S
H1112 C1125 0.930 . S
H1113 C1126 0.930 . S
H1114 C1130 0.959 . S
H1115 C1130 0.959 . S
H1116 C1130 0.961 . S
H1117 C1131 0.960 . S
H1118 C1131 0.961 . S
H1119 C1131 0.959 . S
H1120 C1134 0.929 . S
H1121 C1135 0.931 . S
H1122 C1137 0.930 . S
C1123 H1111 0.930 . S
C1123 C1124 1.399 . S
C1123 C1128 1.399 . S
C1124 C1123 1.399 . S
C1124 C1125 1.376 . S
C1125 H1112 0.930 . S
C1125 C1124 1.376 . S
C1125 C1126 1.388 . S
C1126 H1113 0.930 . S
C1126 C1125 1.388 . S
C1126 C1127 1.390 . S
C1127 C1126 1.390 . S
C1127 C1128 1.394 . S
C1127 C1133 1.465 . S
C1128 C1123 1.399 . S
C1128 C1127 1.394 . S
C1128 C1129 1.516 . S
C1129 C1128 1.516 . S
C1129 C1130 1.502 . S
C1129 C1131 1.561 . S
C1129 C1132 1.526 . S
C1130 H1114 0.959 . S
C1130 H1115 0.959 . S
C1130 H1116 0.961 . S
C1130 C1129 1.502 . S
C1131 H1117 0.960 . S
C1131 H1118 0.961 . S
C1131 H1119 0.959 . S
C1131 C1129 1.561 . S
C1132 C1129 1.526 . S
C1132 C1133 1.396 . S
C1132 C1137 1.390 . S
C1133 C1127 1.465 . S
C1133 C1132 1.396 . S
C1133 C1134 1.399 . S
C1134 H1120 0.929 . S
C1134 C1133 1.399 . S
C1134 C1135 1.385 . S
C1135 H1121 0.931 . S
C1135 C1134 1.385 . S
C1135 C1136 1.389 . S
C1136 C1135 1.389 . S
C1136 C1137 1.387 . S
C1137 H1122 0.930 . S
C1137 C1132 1.390 . S
C1137 C1136 1.387 . S
H1138 C1150 0.930 . S
H1139 C1152 0.930 . S
H1140 C1153 0.930 . S
H1141 C1157 0.959 . S
H1142 C1157 0.959 . S
H1143 C1157 0.961 . S
H1144 C1158 0.960 . S
H1145 C1158 0.961 . S
H1146 C1158 0.959 . S
H1147 C1161 0.929 . S
H1148 C1162 0.931 . S
H1149 C1164 0.930 . S
C1150 H1138 0.930 . S
C1150 C1151 1.399 . S
C1150 C1155 1.399 . S
C1151 C1150 1.399 . S
C1151 C1152 1.376 . S
C1152 H1139 0.930 . S
C1152 C1151 1.376 . S
C1152 C1153 1.388 . S
C1153 H1140 0.930 . S
C1153 C1152 1.388 . S
C1153 C1154 1.390 . S
C1154 C1153 1.390 . S
C1154 C1155 1.394 . S
C1154 C1160 1.465 . S
C1155 C1150 1.399 . S
C1155 C1154 1.394 . S
C1155 C1156 1.516 . S
C1156 C1155 1.516 . S
C1156 C1157 1.502 . S
C1156 C1158 1.561 . S
C1156 C1159 1.526 . S
C1157 H1141 0.959 . S
C1157 H1142 0.959 . S
C1157 H1143 0.961 . S
C1157 C1156 1.502 . S
C1158 H1144 0.960 . S
C1158 H1145 0.961 . S
C1158 H1146 0.959 . S
C1158 C1156 1.561 . S
C1159 C1156 1.526 . S
C1159 C1160 1.396 . S
C1159 C1164 1.390 . S
C1160 C1154 1.465 . S
C1160 C1159 1.396 . S
C1160 C1161 1.399 . S
C1161 H1147 0.929 . S
C1161 C1160 1.399 . S
C1161 C1162 1.385 . S
C1162 H1148 0.931 . S
C1162 C1161 1.385 . S
C1162 C1163 1.389 . S
C1163 C1162 1.389 . S
C1163 C1164 1.387 . S
C1164 H1149 0.930 . S
C1164 C1159 1.390 . S
C1164 C1163 1.387 . S
H1165 C1177 0.930 . S
H1166 C1179 0.930 . S
H1167 C1180 0.930 . S
H1168 C1184 0.959 . S
H1169 C1184 0.959 . S
H1170 C1184 0.961 . S
H1171 C1185 0.960 . S
H1172 C1185 0.961 . S
H1173 C1185 0.959 . S
H1174 C1188 0.929 . S
H1175 C1189 0.931 . S
H1176 C1191 0.930 . S
C1177 H1165 0.930 . S
C1177 C1178 1.399 . S
C1177 C1182 1.399 . S
C1178 C1177 1.399 . S
C1178 C1179 1.376 . S
C1179 H1166 0.930 . S
C1179 C1178 1.376 . S
C1179 C1180 1.388 . S
C1180 H1167 0.930 . S
C1180 C1179 1.388 . S
C1180 C1181 1.390 . S
C1181 C1180 1.390 . S
C1181 C1182 1.394 . S
C1181 C1187 1.465 . S
C1182 C1177 1.399 . S
C1182 C1181 1.394 . S
C1182 C1183 1.516 . S
C1183 C1182 1.516 . S
C1183 C1184 1.502 . S
C1183 C1185 1.561 . S
C1183 C1186 1.526 . S
C1184 H1168 0.959 . S
C1184 H1169 0.959 . S
C1184 H1170 0.961 . S
C1184 C1183 1.502 . S
C1185 H1171 0.960 . S
C1185 H1172 0.961 . S
C1185 H1173 0.959 . S
C1185 C1183 1.561 . S
C1186 C1183 1.526 . S
C1186 C1187 1.396 . S
C1186 C1191 1.390 . S
C1187 C1181 1.465 . S
C1187 C1186 1.396 . S
C1187 C1188 1.399 . S
C1188 H1174 0.929 . S
C1188 C1187 1.399 . S
C1188 C1189 1.385 . S
C1189 H1175 0.931 . S
C1189 C1188 1.385 . S
C1189 C1190 1.389 . S
C1190 C1189 1.389 . S
C1190 C1191 1.387 . S
C1191 H1176 0.930 . S
C1191 C1186 1.390 . S
C1191 C1190 1.387 . S
H1192 C1204 0.930 . S
H1193 C1206 0.930 . S
H1194 C1207 0.930 . S
H1195 C1211 0.959 1_455 S
H1196 C1211 0.959 1_455 S
H1197 C1211 0.961 . S
H1198 C1212 0.960 . S
H1199 C1212 0.961 . S
H1200 C1212 0.959 . S
H1201 C1215 0.929 . S
H1202 C1216 0.930 1_455 S
H1203 C1218 0.930 . S
C1204 H1192 0.930 . S
C1204 C1205 1.399 . S
C1204 C1209 1.399 . S
C1205 C1204 1.399 . S
C1205 C1206 1.376 . S
C1206 H1193 0.930 . S
C1206 C1205 1.376 . S
C1206 C1207 1.388 . S
C1207 H1194 0.930 . S
C1207 C1206 1.388 . S
C1207 C1208 1.390 . S
C1208 C1207 1.390 . S
C1208 C1209 1.394 . S
C1208 C1214 1.465 . S
C1209 C1204 1.399 . S
C1209 C1208 1.394 . S
C1209 C1210 1.516 . S
C1210 C1209 1.516 . S
C1210 C1211 1.502 . S
C1210 C1212 1.561 . S
C1210 C1213 1.526 . S
C1211 H1195 0.959 1_655 S
C1211 H1196 0.959 1_655 S
C1211 H1197 0.961 . S
C1211 C1210 1.502 . S
C1212 H1198 0.960 . S
C1212 H1199 0.961 . S
C1212 H1200 0.959 . S
C1212 C1210 1.561 . S
C1213 C1210 1.526 . S
C1213 C1214 1.396 . S
C1213 C1218 1.390 1_655 S
C1214 C1208 1.465 . S
C1214 C1213 1.396 . S
C1214 C1215 1.399 . S
C1215 H1201 0.929 . S
C1215 C1214 1.399 . S
C1215 C1216 1.385 . S
C1216 H1202 0.930 1_655 S
C1216 C1215 1.385 . S
C1216 C1217 1.389 1_655 S
C1217 C1216 1.389 1_455 S
C1217 C1218 1.387 . S
C1218 H1203 0.930 . S
C1218 C1213 1.390 1_455 S
C1218 C1217 1.387 . S
H1219 C1231 0.930 . S
H1220 C1233 0.930 . S
H1221 C1234 0.930 . S
H1222 C1238 0.959 . S
H1223 C1238 0.959 . S
H1224 C1238 0.961 . S
H1225 C1239 0.960 . S
H1226 C1239 0.961 . S
H1227 C1239 0.959 . S
H1228 C1242 0.929 . S
H1229 C1243 0.931 . S
H1230 C1245 0.930 . S
C1231 H1219 0.930 . S
C1231 C1232 1.399 . S
C1231 C1236 1.399 . S
C1232 C1231 1.399 . S
C1232 C1233 1.376 . S
C1233 H1220 0.930 . S
C1233 C1232 1.376 . S
C1233 C1234 1.388 . S
C1234 H1221 0.930 . S
C1234 C1233 1.388 . S
C1234 C1235 1.390 . S
C1235 C1234 1.390 . S
C1235 C1236 1.394 . S
C1235 C1241 1.465 . S
C1236 C1231 1.399 . S
C1236 C1235 1.394 . S
C1236 C1237 1.516 . S
C1237 C1236 1.516 . S
C1237 C1238 1.502 . S
C1237 C1239 1.561 . S
C1237 C1240 1.526 . S
C1238 H1222 0.959 . S
C1238 H1223 0.959 . S
C1238 H1224 0.961 . S
C1238 C1237 1.502 . S
C1239 H1225 0.960 . S
C1239 H1226 0.961 . S
C1239 H1227 0.959 . S
C1239 C1237 1.561 . S
C1240 C1237 1.526 . S
C1240 C1241 1.396 . S
C1240 C1245 1.390 . S
C1241 C1235 1.465 . S
C1241 C1240 1.396 . S
C1241 C1242 1.399 . S
C1242 H1228 0.929 . S
C1242 C1241 1.399 . S
C1242 C1243 1.385 . S
C1243 H1229 0.931 . S
C1243 C1242 1.385 . S
C1243 C1244 1.389 . S
C1244 C1243 1.389 . S
C1244 C1245 1.387 . S
C1245 H1230 0.930 . S
C1245 C1240 1.390 . S
C1245 C1244 1.387 . S
H1246 C1258 0.930 . S
H1247 C1260 0.930 . S
H1248 C1261 0.930 . S
H1249 C1265 0.959 . S
H1250 C1265 0.959 . S
H1251 C1265 0.961 . S
H1252 C1266 0.960 . S
H1253 C1266 0.961 . S
H1254 C1266 0.959 . S
H1255 C1269 0.929 . S
H1256 C1270 0.931 . S
H1257 C1272 0.930 . S
C1258 H1246 0.930 . S
C1258 C1259 1.399 1_565 S
C1258 C1263 1.399 1_565 S
C1259 C1258 1.399 1_545 S
C1259 C1260 1.376 . S
C1260 H1247 0.930 . S
C1260 C1259 1.376 . S
C1260 C1261 1.388 . S
C1261 H1248 0.930 . S
C1261 C1260 1.388 . S
C1261 C1262 1.390 . S
C1262 C1261 1.390 . S
C1262 C1263 1.394 . S
C1262 C1268 1.465 . S
C1263 C1258 1.399 1_545 S
C1263 C1262 1.394 . S
C1263 C1264 1.516 1_545 S
C1264 C1263 1.516 1_565 S
C1264 C1265 1.502 . S
C1264 C1266 1.561 . S
C1264 C1267 1.526 1_565 S
C1265 H1249 0.959 . S
C1265 H1250 0.959 . S
C1265 H1251 0.961 . S
C1265 C1264 1.502 . S
C1266 H1252 0.960 . S
C1266 H1253 0.961 . S
C1266 H1254 0.959 . S
C1266 C1264 1.561 . S
C1267 C1264 1.526 1_545 S
C1267 C1268 1.396 . S
C1267 C1272 1.390 . S
C1268 C1262 1.465 . S
C1268 C1267 1.396 . S
C1268 C1269 1.399 . S
C1269 H1255 0.929 . S
C1269 C1268 1.399 . S
C1269 C1270 1.385 . S
C1270 H1256 0.931 . S
C1270 C1269 1.385 . S
C1270 C1271 1.389 . S
C1271 C1270 1.389 . S
C1271 C1272 1.387 . S
C1272 H1257 0.930 . S
C1272 C1267 1.390 . S
C1272 C1271 1.387 . S
H1273 C1285 0.930 . S
H1274 C1287 0.930 . S
H1275 C1288 0.930 . S
H1276 C1292 0.959 . S
H1277 C1292 0.959 . S
H1278 C1292 0.961 . S
H1279 C1293 0.966 . S
H1280 C1293 0.941 1_556 S
H1281 C1293 0.947 1_556 S
H1282 C1296 0.929 . S
H1283 C1297 0.931 . S
H1284 C1299 0.930 . S
C1285 H1273 0.930 . S
C1285 C1286 1.399 . S
C1285 C1290 1.399 . S
C1286 C1285 1.399 . S
C1286 C1287 1.376 . S
C1287 H1274 0.930 . S
C1287 C1286 1.376 . S
C1287 C1288 1.388 . S
C1288 H1275 0.930 . S
C1288 C1287 1.388 . S
C1288 C1289 1.390 . S
C1289 C1288 1.390 . S
C1289 C1290 1.394 . S
C1289 C1295 1.465 . S
C1290 C1285 1.399 . S
C1290 C1289 1.394 . S
C1290 C1291 1.516 . S
C1291 C1290 1.516 . S
C1291 C1292 1.502 . S
C1291 C1293 1.581 . S
C1291 C1294 1.526 . S
C1292 H1276 0.959 . S
C1292 H1277 0.959 . S
C1292 H1278 0.961 . S
C1292 C1291 1.502 . S
C1293 H1279 0.966 . S
C1293 H1280 0.941 1_554 S
C1293 H1281 0.947 1_554 S
C1293 C1291 1.581 . S
C1294 C1291 1.526 . S
C1294 C1295 1.396 . S
C1294 C1299 1.390 1_554 S
C1295 C1289 1.465 . S
C1295 C1294 1.396 . S
C1295 C1296 1.399 . S
C1296 H1282 0.929 . S
C1296 C1295 1.399 . S
C1296 C1297 1.385 . S
C1297 H1283 0.931 . S
C1297 C1296 1.385 . S
C1297 C1298 1.389 1_554 S
C1298 C1297 1.389 1_556 S
C1298 C1299 1.387 . S
C1299 H1284 0.930 . S
C1299 C1294 1.390 1_556 S
C1299 C1298 1.387 . S
H1300 C1312 0.930 . S
H1301 C1314 0.930 . S
H1302 C1315 0.930 . S
H1303 C1319 0.959 1_455 S
H1304 C1319 0.959 1_455 S
H1305 C1319 0.961 . S
H1306 C1320 0.960 . S
H1307 C1320 0.961 . S
H1308 C1320 0.959 . S
H1309 C1323 0.929 . S
H1310 C1324 0.931 . S
H1311 C1326 0.926 1_455 S
C1312 H1300 0.930 . S
C1312 C1313 1.399 . S
C1312 C1317 1.399 . S
C1313 C1312 1.399 . S
C1313 C1314 1.376 . S
C1314 H1301 0.930 . S
C1314 C1313 1.376 . S
C1314 C1315 1.388 . S
C1315 H1302 0.930 . S
C1315 C1314 1.388 . S
C1315 C1316 1.390 . S
C1316 C1315 1.390 . S
C1316 C1317 1.394 . S
C1316 C1322 1.465 . S
C1317 C1312 1.399 . S
C1317 C1316 1.394 . S
C1317 C1318 1.516 . S
C1318 C1317 1.516 . S
C1318 C1319 1.502 . S
C1318 C1320 1.561 . S
C1318 C1321 1.526 . S
C1319 H1303 0.959 1_655 S
C1319 H1304 0.959 1_655 S
C1319 H1305 0.961 . S
C1319 C1318 1.502 . S
C1320 H1306 0.960 . S
C1320 H1307 0.961 . S
C1320 H1308 0.959 . S
C1320 C1318 1.561 . S
C1321 C1318 1.526 . S
C1321 C1322 1.396 . S
C1321 C1326 1.390 . S
C1322 C1316 1.465 . S
C1322 C1321 1.396 . S
C1322 C1323 1.399 . S
C1323 H1309 0.929 . S
C1323 C1322 1.399 . S
C1323 C1324 1.385 . S
C1324 H1310 0.931 . S
C1324 C1323 1.385 . S
C1324 C1325 1.389 . S
C1325 C1324 1.389 . S
C1325 C1326 1.387 . S
C1326 H1311 0.926 1_655 S
C1326 C1321 1.390 . S
C1326 C1325 1.387 . S
H1327 C1339 0.930 . S
H1328 C1341 0.930 . S
H1329 C1342 0.930 . S
H1330 C1346 0.959 . S
H1331 C1346 0.959 . S
H1332 C1346 0.961 . S
H1333 C1347 0.960 . S
H1334 C1347 0.961 . S
H1335 C1347 0.959 . S
H1336 C1350 0.929 . S
H1337 C1351 0.931 . S
H1338 C1353 0.930 . S
C1339 H1327 0.930 . S
C1339 C1340 1.399 . S
C1339 C1344 1.399 . S
C1340 C1339 1.399 . S
C1340 C1341 1.376 . S
C1341 H1328 0.930 . S
C1341 C1340 1.376 . S
C1341 C1342 1.388 . S
C1342 H1329 0.930 . S
C1342 C1341 1.388 . S
C1342 C1343 1.390 . S
C1343 C1342 1.390 . S
C1343 C1344 1.394 . S
C1343 C1349 1.465 . S
C1344 C1339 1.399 . S
C1344 C1343 1.394 . S
C1344 C1345 1.516 . S
C1345 C1344 1.516 . S
C1345 C1346 1.502 . S
C1345 C1347 1.561 . S
C1345 C1348 1.526 . S
C1346 H1330 0.959 . S
C1346 H1331 0.959 . S
C1346 H1332 0.961 . S
C1346 C1345 1.502 . S
C1347 H1333 0.960 . S
C1347 H1334 0.961 . S
C1347 H1335 0.959 . S
C1347 C1345 1.561 . S
C1348 C1345 1.526 . S
C1348 C1349 1.396 . S
C1348 C1353 1.390 . S
C1349 C1343 1.465 . S
C1349 C1348 1.396 . S
C1349 C1350 1.399 . S
C1350 H1336 0.929 . S
C1350 C1349 1.399 . S
C1350 C1351 1.385 . S
C1351 H1337 0.931 . S
C1351 C1350 1.385 . S
C1351 C1352 1.389 . S
C1352 C1351 1.389 . S
C1352 C1353 1.387 . S
C1353 H1338 0.930 . S
C1353 C1348 1.390 . S
C1353 C1352 1.387 . S
H1354 C1366 0.930 1_565 S
H1355 C1368 0.930 . S
H1356 C1369 0.930 . S
H1357 C1373 0.959 1_545 S
H1358 C1373 0.959 . S
H1359 C1373 0.961 . S
H1360 C1374 0.960 . S
H1361 C1374 0.961 . S
H1362 C1374 0.959 1_545 S
H1363 C1377 0.929 . S
H1364 C1378 0.923 1_554 S
H1365 C1380 0.930 . S
C1366 H1354 0.930 1_545 S
C1366 C1367 1.399 . S
C1366 C1371 1.399 . S
C1367 C1366 1.399 . S
C1367 C1368 1.376 . S
C1368 H1355 0.930 . S
C1368 C1367 1.376 . S
C1368 C1369 1.388 . S
C1369 H1356 0.930 . S
C1369 C1368 1.388 . S
C1369 C1370 1.390 . S
C1370 C1369 1.390 . S
C1370 C1371 1.394 . S
C1370 C1376 1.465 . S
C1371 C1366 1.399 . S
C1371 C1370 1.394 . S
C1371 C1372 1.516 . S
C1372 C1371 1.516 . S
C1372 C1373 1.502 1_545 S
C1372 C1374 1.561 1_545 S
C1372 C1375 1.526 . S
C1373 H1357 0.959 1_565 S
C1373 H1358 0.959 . S
C1373 H1359 0.961 . S
C1373 C1372 1.502 1_565 S
C1374 H1360 0.960 . S
C1374 H1361 0.961 . S
C1374 H1362 0.959 1_565 S
C1374 C1372 1.561 1_565 S
C1375 C1372 1.526 . S
C1375 C1376 1.396 . S
C1375 C1380 1.390 . S
C1376 C1370 1.465 . S
C1376 C1375 1.396 . S
C1376 C1377 1.399 . S
C1377 H1363 0.929 . S
C1377 C1376 1.399 . S
C1377 C1378 1.385 . S
C1378 H1364 0.923 1_556 S
C1378 C1377 1.385 . S
C1378 C1379 1.389 . S
C1379 C1378 1.389 . S
C1379 C1380 1.387 . S
C1380 H1365 0.930 . S
C1380 C1375 1.390 . S
C1380 C1379 1.387 . S
H1381 C1393 0.930 . S
H1382 C1395 0.930 . S
H1383 C1396 0.930 . S
H1384 C1400 0.959 . S
H1385 C1400 0.959 . S
H1386 C1400 0.961 . S
H1387 C1401 0.960 . S
H1388 C1401 0.961 . S
H1389 C1401 0.959 . S
H1390 C1404 0.929 . S
H1391 C1405 0.931 . S
H1392 C1407 0.930 . S
C1393 H1381 0.930 . S
C1393 C1394 1.399 . S
C1393 C1398 1.399 . S
C1394 C1393 1.399 . S
C1394 C1395 1.376 . S
C1395 H1382 0.930 . S
C1395 C1394 1.376 . S
C1395 C1396 1.388 . S
C1396 H1383 0.930 . S
C1396 C1395 1.388 . S
C1396 C1397 1.390 . S
C1397 C1396 1.390 . S
C1397 C1398 1.394 . S
C1397 C1403 1.465 . S
C1398 C1393 1.399 . S
C1398 C1397 1.394 . S
C1398 C1399 1.516 . S
C1399 C1398 1.516 . S
C1399 C1400 1.502 . S
C1399 C1401 1.561 . S
C1399 C1402 1.526 . S
C1400 H1384 0.959 . S
C1400 H1385 0.959 . S
C1400 H1386 0.961 . S
C1400 C1399 1.502 . S
C1401 H1387 0.960 . S
C1401 H1388 0.961 . S
C1401 H1389 0.959 . S
C1401 C1399 1.561 . S
C1402 C1399 1.526 . S
C1402 C1403 1.396 . S
C1402 C1407 1.390 . S
C1403 C1397 1.465 . S
C1403 C1402 1.396 . S
C1403 C1404 1.399 . S
C1404 H1390 0.929 . S
C1404 C1403 1.399 . S
C1404 C1405 1.385 . S
C1405 H1391 0.931 . S
C1405 C1404 1.385 . S
C1405 C1406 1.389 . S
C1406 C1405 1.389 . S
C1406 C1407 1.387 . S
C1407 H1392 0.930 . S
C1407 C1402 1.390 . S
C1407 C1406 1.387 . S
H1408 C1420 0.930 . S
H1409 C1422 0.930 . S
H1410 C1423 0.930 . S
H1411 C1427 0.959 . S
H1412 C1427 0.959 . S
H1413 C1427 0.961 . S
H1414 C1428 0.960 . S
H1415 C1428 0.961 . S
H1416 C1428 0.959 1_545 S
H1417 C1431 0.929 . S
H1418 C1432 0.931 . S
H1419 C1434 0.930 . S
C1420 H1408 0.930 . S
C1420 C1421 1.399 . S
C1420 C1425 1.399 . S
C1421 C1420 1.399 . S
C1421 C1422 1.376 . S
C1422 H1409 0.930 . S
C1422 C1421 1.376 . S
C1422 C1423 1.388 . S
C1423 H1410 0.930 . S
C1423 C1422 1.388 . S
C1423 C1424 1.390 . S
C1424 C1423 1.390 . S
C1424 C1425 1.394 . S
C1424 C1430 1.465 . S
C1425 C1420 1.399 . S
C1425 C1424 1.394 . S
C1425 C1426 1.516 . S
C1426 C1425 1.516 . S
C1426 C1427 1.502 . S
C1426 C1428 1.561 . S
C1426 C1429 1.526 . S
C1427 H1411 0.959 . S
C1427 H1412 0.959 . S
C1427 H1413 0.961 . S
C1427 C1426 1.502 . S
C1428 H1414 0.960 . S
C1428 H1415 0.961 . S
C1428 H1416 0.959 1_565 S
C1428 C1426 1.561 . S
C1429 C1426 1.526 . S
C1429 C1430 1.396 . S
C1429 C1434 1.390 1_565 S
C1430 C1424 1.465 . S
C1430 C1429 1.396 . S
C1430 C1431 1.399 1_565 S
C1431 H1417 0.929 . S
C1431 C1430 1.399 1_545 S
C1431 C1432 1.385 . S
C1432 H1418 0.931 . S
C1432 C1431 1.385 . S
C1432 C1433 1.389 . S
C1433 C1432 1.389 . S
C1433 C1434 1.387 . S
C1434 H1419 0.930 . S
C1434 C1429 1.390 1_545 S
C1434 C1433 1.387 . S
H1435 C1447 0.930 . S
H1436 C1449 0.930 . S
H1437 C1450 0.930 . S
H1438 C1454 0.959 . S
H1439 C1454 0.959 . S
H1440 C1454 0.961 . S
H1441 C1455 0.960 . S
H1442 C1455 0.961 . S
H1443 C1455 0.959 . S
H1444 C1458 0.929 . S
H1445 C1459 0.931 . S
H1446 C1461 0.930 . S
C1447 H1435 0.930 . S
C1447 C1448 1.399 1_554 S
C1447 C1452 1.399 . S
C1448 C1447 1.399 1_556 S
C1448 C1449 1.376 . S
C1449 H1436 0.930 . S
C1449 C1448 1.376 . S
C1449 C1450 1.388 . S
C1450 H1437 0.930 . S
C1450 C1449 1.388 . S
C1450 C1451 1.390 1_556 S
C1451 C1450 1.390 1_554 S
C1451 C1452 1.394 . S
C1451 C1457 1.465 . S
C1452 C1447 1.399 . S
C1452 C1451 1.394 . S
C1452 C1453 1.516 . S
C1453 C1452 1.516 . S
C1453 C1454 1.502 . S
C1453 C1455 1.561 . S
C1453 C1456 1.526 . S
C1454 H1438 0.959 . S
C1454 H1439 0.959 . S
C1454 H1440 0.961 . S
C1454 C1453 1.502 . S
C1455 H1441 0.960 . S
C1455 H1442 0.961 . S
C1455 H1443 0.959 . S
C1455 C1453 1.561 . S
C1456 C1453 1.526 . S
C1456 C1457 1.396 . S
C1456 C1461 1.390 . S
C1457 C1451 1.465 . S
C1457 C1456 1.396 . S
C1457 C1458 1.399 . S
C1458 H1444 0.929 . S
C1458 C1457 1.399 . S
C1458 C1459 1.385 . S
C1459 H1445 0.931 . S
C1459 C1458 1.385 . S
C1459 C1460 1.389 . S
C1460 C1459 1.389 . S
C1460 C1461 1.387 . S
C1461 H1446 0.930 . S
C1461 C1456 1.390 . S
C1461 C1460 1.387 . S
H1462 C1474 0.930 . S
H1463 C1476 0.930 . S
H1464 C1477 0.930 . S
H1465 C1481 0.959 . S
H1466 C1481 0.959 . S
H1467 C1481 0.961 . S
H1468 C1482 0.960 . S
H1469 C1482 0.961 . S
H1470 C1482 0.959 . S
H1471 C1485 0.929 . S
H1472 C1486 0.931 . S
H1473 C1488 0.930 . S
C1474 H1462 0.930 . S
C1474 C1475 1.399 . S
C1474 C1479 1.399 . S
C1475 C1474 1.399 . S
C1475 C1476 1.376 . S
C1476 H1463 0.930 . S
C1476 C1475 1.376 . S
C1476 C1477 1.388 . S
C1477 H1464 0.930 . S
C1477 C1476 1.388 . S
C1477 C1478 1.390 . S
C1478 C1477 1.390 . S
C1478 C1479 1.394 . S
C1478 C1484 1.465 . S
C1479 C1474 1.399 . S
C1479 C1478 1.394 . S
C1479 C1480 1.516 . S
C1480 C1479 1.516 . S
C1480 C1481 1.502 . S
C1480 C1482 1.561 . S
C1480 C1483 1.526 . S
C1481 H1465 0.959 . S
C1481 H1466 0.959 . S
C1481 H1467 0.961 . S
C1481 C1480 1.502 . S
C1482 H1468 0.960 . S
C1482 H1469 0.961 . S
C1482 H1470 0.959 . S
C1482 C1480 1.561 . S
C1483 C1480 1.526 . S
C1483 C1484 1.396 . S
C1483 C1488 1.390 . S
C1484 C1478 1.465 . S
C1484 C1483 1.396 . S
C1484 C1485 1.399 . S
C1485 H1471 0.929 . S
C1485 C1484 1.399 . S
C1485 C1486 1.385 . S
C1486 H1472 0.931 . S
C1486 C1485 1.385 . S
C1486 C1487 1.389 . S
C1487 C1486 1.389 . S
C1487 C1488 1.387 . S
C1488 H1473 0.930 . S
C1488 C1483 1.390 . S
C1488 C1487 1.387 . S
H1489 C1501 0.930 . S
H1490 C1503 0.930 . S
H1491 C1504 0.930 . S
H1492 C1508 0.959 . S
H1493 C1508 0.959 . S
H1494 C1508 0.961 . S
H1495 C1509 0.960 . S
H1496 C1509 0.961 . S
H1497 C1509 0.959 . S
H1498 C1512 0.929 . S
H1499 C1513 0.931 . S
H1500 C1515 0.930 . S
C1501 H1489 0.930 . S
C1501 C1502 1.399 . S
C1501 C1506 1.399 . S
C1502 C1501 1.399 . S
C1502 C1503 1.376 . S
C1503 H1490 0.930 . S
C1503 C1502 1.376 . S
C1503 C1504 1.388 . S
C1504 H1491 0.930 . S
C1504 C1503 1.388 . S
C1504 C1505 1.390 . S
C1505 C1504 1.390 . S
C1505 C1506 1.394 . S
C1505 C1511 1.465 . S
C1506 C1501 1.399 . S
C1506 C1505 1.394 . S
C1506 C1507 1.516 . S
C1507 C1506 1.516 . S
C1507 C1508 1.502 . S
C1507 C1509 1.561 . S
C1507 C1510 1.526 . S
C1508 H1492 0.959 . S
C1508 H1493 0.959 . S
C1508 H1494 0.961 . S
C1508 C1507 1.502 . S
C1509 H1495 0.960 . S
C1509 H1496 0.961 . S
C1509 H1497 0.959 . S
C1509 C1507 1.561 . S
C1510 C1507 1.526 . S
C1510 C1511 1.396 . S
C1510 C1515 1.390 . S
C1511 C1505 1.465 . S
C1511 C1510 1.396 . S
C1511 C1512 1.399 . S
C1512 H1498 0.929 . S
C1512 C1511 1.399 . S
C1512 C1513 1.385 . S
C1513 H1499 0.931 . S
C1513 C1512 1.385 . S
C1513 C1514 1.389 . S
C1514 C1513 1.389 . S
C1514 C1515 1.387 . S
C1515 H1500 0.930 . S
C1515 C1510 1.390 . S
C1515 C1514 1.387 . S
H1516 C1528 0.930 . S
H1517 C1530 0.930 . S
H1518 C1531 0.930 . S
H1519 C1535 0.959 . S
H1520 C1535 0.959 . S
H1521 C1535 0.961 . S
H1522 C1536 0.960 . S
H1523 C1536 0.961 . S
H1524 C1536 0.959 . S
H1525 C1539 0.929 . S
H1526 C1540 0.931 . S
H1527 C1542 0.930 . S
C1528 H1516 0.930 . S
C1528 C1529 1.399 . S
C1528 C1533 1.399 . S
C1529 C1528 1.399 . S
C1529 C1530 1.376 . S
C1530 H1517 0.930 . S
C1530 C1529 1.376 . S
C1530 C1531 1.388 . S
C1531 H1518 0.930 . S
C1531 C1530 1.388 . S
C1531 C1532 1.390 . S
C1532 C1531 1.390 . S
C1532 C1533 1.394 . S
C1532 C1538 1.465 . S
C1533 C1528 1.399 . S
C1533 C1532 1.394 . S
C1533 C1534 1.516 . S
C1534 C1533 1.516 . S
C1534 C1535 1.502 . S
C1534 C1536 1.561 . S
C1534 C1537 1.526 . S
C1535 H1519 0.959 . S
C1535 H1520 0.959 . S
C1535 H1521 0.961 . S
C1535 C1534 1.502 . S
C1536 H1522 0.960 . S
C1536 H1523 0.961 . S
C1536 H1524 0.959 . S
C1536 C1534 1.561 . S
C1537 C1534 1.526 . S
C1537 C1538 1.396 . S
C1537 C1542 1.390 . S
C1538 C1532 1.465 . S
C1538 C1537 1.396 . S
C1538 C1539 1.399 . S
C1539 H1525 0.929 . S
C1539 C1538 1.399 . S
C1539 C1540 1.385 . S
C1540 H1526 0.931 . S
C1540 C1539 1.385 . S
C1540 C1541 1.389 . S
C1541 C1540 1.389 . S
C1541 C1542 1.387 . S
C1542 H1527 0.930 . S
C1542 C1537 1.390 . S
C1542 C1541 1.387 . S
H1543 C1555 0.930 . S
H1544 C1557 0.930 . S
H1545 C1558 0.930 . S
H1546 C1562 0.959 . S
H1547 C1562 0.959 . S
H1548 C1562 0.961 . S
H1549 C1563 0.960 . S
H1550 C1563 0.961 . S
H1551 C1563 0.959 . S
H1552 C1566 0.929 . S
H1553 C1567 0.931 . S
H1554 C1569 0.930 . S
C1555 H1543 0.930 . S
C1555 C1556 1.399 . S
C1555 C1560 1.399 . S
C1556 C1555 1.399 . S
C1556 C1557 1.376 . S
C1557 H1544 0.930 . S
C1557 C1556 1.376 . S
C1557 C1558 1.388 . S
C1558 H1545 0.930 . S
C1558 C1557 1.388 . S
C1558 C1559 1.390 . S
C1559 C1558 1.390 . S
C1559 C1560 1.394 . S
C1559 C1565 1.465 . S
C1560 C1555 1.399 . S
C1560 C1559 1.394 . S
C1560 C1561 1.516 . S
C1561 C1560 1.516 . S
C1561 C1562 1.502 . S
C1561 C1563 1.561 . S
C1561 C1564 1.526 . S
C1562 H1546 0.959 . S
C1562 H1547 0.959 . S
C1562 H1548 0.961 . S
C1562 C1561 1.502 . S
C1563 H1549 0.960 . S
C1563 H1550 0.961 . S
C1563 H1551 0.959 . S
C1563 C1561 1.561 . S
C1564 C1561 1.526 . S
C1564 C1565 1.396 . S
C1564 C1569 1.390 . S
C1565 C1559 1.465 . S
C1565 C1564 1.396 . S
C1565 C1566 1.399 . S
C1566 H1552 0.929 . S
C1566 C1565 1.399 . S
C1566 C1567 1.385 . S
C1567 H1553 0.931 . S
C1567 C1566 1.385 . S
C1567 C1568 1.389 . S
C1568 C1567 1.389 . S
C1568 C1569 1.387 . S
C1569 H1554 0.930 . S
C1569 C1564 1.390 . S
C1569 C1568 1.387 . S
H1570 C1582 0.930 . S
H1571 C1584 0.930 . S
H1572 C1585 0.930 . S
H1573 C1589 0.959 . S
H1574 C1589 0.959 . S
H1575 C1589 0.961 . S
H1576 C1590 0.960 . S
H1577 C1590 0.961 . S
H1578 C1590 0.959 . S
H1579 C1593 0.929 . S
H1580 C1594 0.931 . S
H1581 C1596 0.930 . S
C1582 H1570 0.930 . S
C1582 C1583 1.399 . S
C1582 C1587 1.399 . S
C1583 C1582 1.399 . S
C1583 C1584 1.376 . S
C1584 H1571 0.930 . S
C1584 C1583 1.376 . S
C1584 C1585 1.388 . S
C1585 H1572 0.930 . S
C1585 C1584 1.388 . S
C1585 C1586 1.390 . S
C1586 C1585 1.390 . S
C1586 C1587 1.394 . S
C1586 C1592 1.465 . S
C1587 C1582 1.399 . S
C1587 C1586 1.394 . S
C1587 C1588 1.516 . S
C1588 C1587 1.516 . S
C1588 C1589 1.502 . S
C1588 C1590 1.561 . S
C1588 C1591 1.526 . S
C1589 H1573 0.959 . S
C1589 H1574 0.959 . S
C1589 H1575 0.961 . S
C1589 C1588 1.502 . S
C1590 H1576 0.960 . S
C1590 H1577 0.961 . S
C1590 H1578 0.959 . S
C1590 C1588 1.561 . S
C1591 C1588 1.526 . S
C1591 C1592 1.396 . S
C1591 C1596 1.390 . S
C1592 C1586 1.465 . S
C1592 C1591 1.396 . S
C1592 C1593 1.399 . S
C1593 H1579 0.929 . S
C1593 C1592 1.399 . S
C1593 C1594 1.385 . S
C1594 H1580 0.931 . S
C1594 C1593 1.385 . S
C1594 C1595 1.389 . S
C1595 C1594 1.389 . S
C1595 C1596 1.387 . S
C1596 H1581 0.930 . S
C1596 C1591 1.390 . S
C1596 C1595 1.387 . S
H1597 C1609 0.930 . S
H1598 C1611 0.930 . S
H1599 C1612 0.930 . S
H1600 C1616 0.959 . S
H1601 C1616 0.959 . S
H1602 C1616 0.961 . S
H1603 C1617 0.960 . S
H1604 C1617 0.961 . S
H1605 C1617 0.959 . S
H1606 C1620 0.929 . S
H1607 C1621 0.931 . S
H1608 C1623 0.930 . S
C1609 H1597 0.930 . S
C1609 C1610 1.399 . S
C1609 C1614 1.399 . S
C1610 C1609 1.399 . S
C1610 C1611 1.376 . S
C1611 H1598 0.930 . S
C1611 C1610 1.376 . S
C1611 C1612 1.388 . S
C1612 H1599 0.930 . S
C1612 C1611 1.388 . S
C1612 C1613 1.390 . S
C1613 C1612 1.390 . S
C1613 C1614 1.394 . S
C1613 C1619 1.465 . S
C1614 C1609 1.399 . S
C1614 C1613 1.394 . S
C1614 C1615 1.516 . S
C1615 C1614 1.516 . S
C1615 C1616 1.502 . S
C1615 C1617 1.561 . S
C1615 C1618 1.526 . S
C1616 H1600 0.959 . S
C1616 H1601 0.959 . S
C1616 H1602 0.961 . S
C1616 C1615 1.502 . S
C1617 H1603 0.960 . S
C1617 H1604 0.961 . S
C1617 H1605 0.959 . S
C1617 C1615 1.561 . S
C1618 C1615 1.526 . S
C1618 C1619 1.396 . S
C1618 C1623 1.390 . S
C1619 C1613 1.465 . S
C1619 C1618 1.396 . S
C1619 C1620 1.399 . S
C1620 H1606 0.929 . S
C1620 C1619 1.399 . S
C1620 C1621 1.385 . S
C1621 H1607 0.931 . S
C1621 C1620 1.385 . S
C1621 C1622 1.389 . S
C1622 C1621 1.389 . S
C1622 C1623 1.387 . S
C1623 H1608 0.930 . S
C1623 C1618 1.390 . S
C1623 C1622 1.387 . S
H1624 C1636 0.930 . S
H1625 C1638 0.930 . S
H1626 C1639 0.930 1_655 S
H1627 C1643 0.959 . S
H1628 C1643 0.959 . S
H1629 C1643 0.961 . S
H1630 C1644 0.960 . S
H1631 C1644 0.961 . S
H1632 C1644 0.959 . S
H1633 C1647 0.929 1_655 S
H1634 C1648 0.931 . S
H1635 C1650 0.930 . S
C1636 H1624 0.930 . S
C1636 C1637 1.399 . S
C1636 C1641 1.399 . S
C1637 C1636 1.399 . S
C1637 C1638 1.376 . S
C1638 H1625 0.930 . S
C1638 C1637 1.376 . S
C1638 C1639 1.388 . S
C1639 H1626 0.930 1_455 S
C1639 C1638 1.388 . S
C1639 C1640 1.390 . S
C1640 C1639 1.390 . S
C1640 C1641 1.394 . S
C1640 C1646 1.465 . S
C1641 C1636 1.399 . S
C1641 C1640 1.394 . S
C1641 C1642 1.516 . S
C1642 C1641 1.516 . S
C1642 C1643 1.502 . S
C1642 C1644 1.561 . S
C1642 C1645 1.526 . S
C1643 H1627 0.959 . S
C1643 H1628 0.959 . S
C1643 H1629 0.961 . S
C1643 C1642 1.502 . S
C1644 H1630 0.960 . S
C1644 H1631 0.961 . S
C1644 H1632 0.959 . S
C1644 C1642 1.561 . S
C1645 C1642 1.526 . S
C1645 C1646 1.396 . S
C1645 C1650 1.390 . S
C1646 C1640 1.465 . S
C1646 C1645 1.396 . S
C1646 C1647 1.399 . S
C1647 H1633 0.929 1_455 S
C1647 C1646 1.399 . S
C1647 C1648 1.385 . S
C1648 H1634 0.931 . S
C1648 C1647 1.385 . S
C1648 C1649 1.389 . S
C1649 C1648 1.389 . S
C1649 C1650 1.387 . S
C1650 H1635 0.930 . S
C1650 C1645 1.390 . S
C1650 C1649 1.387 . S
H1651 C1663 0.930 . S
H1652 C1665 0.930 . S
H1653 C1666 0.930 . S
H1654 C1670 0.959 . S
H1655 C1670 0.959 . S
H1656 C1670 0.961 . S
H1657 C1671 0.960 . S
H1658 C1671 0.961 . S
H1659 C1671 0.959 . S
H1660 C1674 0.929 . S
H1661 C1675 0.931 . S
H1662 C1677 0.930 . S
C1663 H1651 0.930 . S
C1663 C1664 1.399 . S
C1663 C1668 1.399 . S
C1664 C1663 1.399 . S
C1664 C1665 1.376 . S
C1665 H1652 0.930 . S
C1665 C1664 1.376 . S
C1665 C1666 1.388 . S
C1666 H1653 0.930 . S
C1666 C1665 1.388 . S
C1666 C1667 1.390 . S
C1667 C1666 1.390 . S
C1667 C1668 1.394 . S
C1667 C1673 1.465 . S
C1668 C1663 1.399 . S
C1668 C1667 1.394 . S
C1668 C1669 1.516 . S
C1669 C1668 1.516 . S
C1669 C1670 1.502 . S
C1669 C1671 1.561 . S
C1669 C1672 1.526 . S
C1670 H1654 0.959 . S
C1670 H1655 0.959 . S
C1670 H1656 0.961 . S
C1670 C1669 1.502 . S
C1671 H1657 0.960 . S
C1671 H1658 0.961 . S
C1671 H1659 0.959 . S
C1671 C1669 1.561 . S
C1672 C1669 1.526 . S
C1672 C1673 1.396 . S
C1672 C1677 1.390 . S
C1673 C1667 1.465 . S
C1673 C1672 1.396 . S
C1673 C1674 1.399 . S
C1674 H1660 0.929 . S
C1674 C1673 1.399 . S
C1674 C1675 1.385 . S
C1675 H1661 0.931 . S
C1675 C1674 1.385 . S
C1675 C1676 1.389 . S
C1676 C1675 1.389 . S
C1676 C1677 1.387 . S
C1677 H1662 0.930 . S
C1677 C1672 1.390 . S
C1677 C1676 1.387 . S
H1678 C1690 0.930 . S
H1679 C1692 0.930 . S
H1680 C1693 0.930 . S
H1681 C1697 0.959 . S
H1682 C1697 0.959 . S
H1683 C1697 0.961 . S
H1684 C1698 0.960 . S
H1685 C1698 0.961 . S
H1686 C1698 0.959 . S
H1687 C1701 0.929 . S
H1688 C1702 0.931 . S
H1689 C1704 0.930 . S
C1690 H1678 0.930 . S
C1690 C1691 1.399 . S
C1690 C1695 1.399 . S
C1691 C1690 1.399 . S
C1691 C1692 1.376 . S
C1692 H1679 0.930 . S
C1692 C1691 1.376 . S
C1692 C1693 1.388 . S
C1693 H1680 0.930 . S
C1693 C1692 1.388 . S
C1693 C1694 1.390 . S
C1694 C1693 1.390 . S
C1694 C1695 1.394 . S
C1694 C1700 1.465 . S
C1695 C1690 1.399 . S
C1695 C1694 1.394 . S
C1695 C1696 1.516 . S
C1696 C1695 1.516 . S
C1696 C1697 1.502 . S
C1696 C1698 1.561 . S
C1696 C1699 1.526 . S
C1697 H1681 0.959 . S
C1697 H1682 0.959 . S
C1697 H1683 0.961 . S
C1697 C1696 1.502 . S
C1698 H1684 0.960 . S
C1698 H1685 0.961 . S
C1698 H1686 0.959 . S
C1698 C1696 1.561 . S
C1699 C1696 1.526 . S
C1699 C1700 1.396 . S
C1699 C1704 1.390 . S
C1700 C1694 1.465 . S
C1700 C1699 1.396 . S
C1700 C1701 1.399 . S
C1701 H1687 0.929 . S
C1701 C1700 1.399 . S
C1701 C1702 1.385 . S
C1702 H1688 0.931 . S
C1702 C1701 1.385 . S
C1702 C1703 1.389 . S
C1703 C1702 1.389 . S
C1703 C1704 1.387 . S
C1704 H1689 0.930 . S
C1704 C1699 1.390 . S
C1704 C1703 1.387 . S
H1705 C1717 0.930 . S
H1706 C1719 0.930 . S
H1707 C1720 0.930 . S
H1708 C1724 0.959 . S
H1709 C1724 0.959 . S
H1710 C1724 0.961 . S
H1711 C1725 0.960 . S
H1712 C1725 0.961 . S
H1713 C1725 0.959 . S
H1714 C1728 0.929 . S
H1715 C1729 0.931 . S
H1716 C1731 0.930 . S
C1717 H1705 0.930 . S
C1717 C1718 1.399 . S
C1717 C1722 1.399 . S
C1718 C1717 1.399 . S
C1718 C1719 1.376 . S
C1719 H1706 0.930 . S
C1719 C1718 1.376 . S
C1719 C1720 1.388 . S
C1720 H1707 0.930 . S
C1720 C1719 1.388 . S
C1720 C1721 1.390 . S
C1721 C1720 1.390 . S
C1721 C1722 1.394 . S
C1721 C1727 1.465 . S
C1722 C1717 1.399 . S
C1722 C1721 1.394 . S
C1722 C1723 1.516 . S
C1723 C1722 1.516 . S
C1723 C1724 1.502 . S
C1723 C1725 1.561 . S
C1723 C1726 1.526 . S
C1724 H1708 0.959 . S
C1724 H1709 0.959 . S
C1724 H1710 0.961 . S
C1724 C1723 1.502 . S
C1725 H1711 0.960 . S
C1725 H1712 0.961 . S
C1725 H1713 0.959 . S
C1725 C1723 1.561 . S
C1726 C1723 1.526 . S
C1726 C1727 1.396 . S
C1726 C1731 1.390 . S
C1727 C1721 1.465 . S
C1727 C1726 1.396 . S
C1727 C1728 1.399 . S
C1728 H1714 0.929 . S
C1728 C1727 1.399 . S
C1728 C1729 1.385 . S
C1729 H1715 0.931 . S
C1729 C1728 1.385 . S
C1729 C1730 1.389 . S
C1730 C1729 1.389 . S
C1730 C1731 1.387 . S
C1731 H1716 0.930 . S
C1731 C1726 1.390 . S
C1731 C1730 1.387 . S
H1732 C1744 0.930 . S
H1733 C1746 0.930 . S
H1734 C1747 0.930 . S
H1735 C1751 0.959 . S
H1736 C1751 0.959 . S
H1737 C1751 0.961 . S
H1738 C1752 0.960 . S
H1739 C1752 0.961 . S
H1740 C1752 0.959 . S
H1741 C1755 0.929 1_655 S
H1742 C1756 0.931 . S
H1743 C1758 0.930 . S
C1744 H1732 0.930 . S
C1744 C1745 1.399 . S
C1744 C1749 1.399 . S
C1745 C1744 1.399 . S
C1745 C1746 1.376 . S
C1746 H1733 0.930 . S
C1746 C1745 1.376 . S
C1746 C1747 1.388 . S
C1747 H1734 0.930 . S
C1747 C1746 1.388 . S
C1747 C1748 1.390 . S
C1748 C1747 1.390 . S
C1748 C1749 1.394 . S
C1748 C1754 1.465 . S
C1749 C1744 1.399 . S
C1749 C1748 1.394 . S
C1749 C1750 1.516 . S
C1750 C1749 1.516 . S
C1750 C1751 1.502 . S
C1750 C1752 1.561 . S
C1750 C1753 1.526 . S
C1751 H1735 0.959 . S
C1751 H1736 0.959 . S
C1751 H1737 0.961 . S
C1751 C1750 1.502 . S
C1752 H1738 0.960 . S
C1752 H1739 0.961 . S
C1752 H1740 0.959 . S
C1752 C1750 1.561 . S
C1753 C1750 1.526 . S
C1753 C1754 1.396 . S
C1753 C1758 1.390 . S
C1754 C1748 1.465 . S
C1754 C1753 1.396 . S
C1754 C1755 1.399 . S
C1755 H1741 0.929 1_455 S
C1755 C1754 1.399 . S
C1755 C1756 1.385 1_455 S
C1756 H1742 0.931 . S
C1756 C1755 1.385 1_655 S
C1756 C1757 1.389 1_655 S
C1757 C1756 1.389 1_455 S
C1757 C1758 1.387 . S
C1758 H1743 0.930 . S
C1758 C1753 1.390 . S
C1758 C1757 1.387 . S
H1759 C1771 0.930 . S
H1760 C1773 0.930 . S
H1761 C1774 0.930 . S
H1762 C1778 0.959 . S
H1763 C1778 0.959 . S
H1764 C1778 0.961 . S
H1765 C1779 0.960 . S
H1766 C1779 0.961 . S
H1767 C1779 0.959 . S
H1768 C1782 0.929 . S
H1769 C1783 0.931 . S
H1770 C1785 0.930 . S
C1771 H1759 0.930 . S
C1771 C1772 1.399 . S
C1771 C1776 1.399 . S
C1772 C1771 1.399 . S
C1772 C1773 1.376 . S
C1773 H1760 0.930 . S
C1773 C1772 1.376 . S
C1773 C1774 1.388 . S
C1774 H1761 0.930 . S
C1774 C1773 1.388 . S
C1774 C1775 1.390 . S
C1775 C1774 1.390 . S
C1775 C1776 1.394 . S
C1775 C1781 1.465 . S
C1776 C1771 1.399 . S
C1776 C1775 1.394 . S
C1776 C1777 1.516 . S
C1777 C1776 1.516 . S
C1777 C1778 1.502 . S
C1777 C1779 1.561 . S
C1777 C1780 1.526 . S
C1778 H1762 0.959 . S
C1778 H1763 0.959 . S
C1778 H1764 0.961 . S
C1778 C1777 1.502 . S
C1779 H1765 0.960 . S
C1779 H1766 0.961 . S
C1779 H1767 0.959 . S
C1779 C1777 1.561 . S
C1780 C1777 1.526 . S
C1780 C1781 1.396 . S
C1780 C1785 1.390 . S
C1781 C1775 1.465 . S
C1781 C1780 1.396 . S
C1781 C1782 1.399 . S
C1782 H1768 0.929 . S
C1782 C1781 1.399 . S
C1782 C1783 1.385 . S
C1783 H1769 0.931 . S
C1783 C1782 1.385 . S
C1783 C1784 1.389 . S
C1784 C1783 1.389 . S
C1784 C1785 1.387 . S
C1785 H1770 0.930 . S
C1785 C1780 1.390 . S
C1785 C1784 1.387 . S
H1786 C1798 0.930 . S
H1787 C1800 0.930 1_556 S
H1788 C1801 0.930 1_556 S
H1789 C1805 0.959 . S
H1790 C1805 0.959 . S
H1791 C1805 0.961 . S
H1792 C1806 0.960 . S
H1793 C1806 0.961 . S
H1794 C1806 0.959 . S
H1795 C1809 0.928 . S
H1796 C1810 0.931 . S
H1797 C1812 0.930 . S
C1798 H1786 0.930 . S
C1798 C1799 1.399 . S
C1798 C1803 1.399 . S
C1799 C1798 1.399 . S
C1799 C1800 1.376 . S
C1800 H1787 0.930 1_554 S
C1800 C1799 1.376 . S
C1800 C1801 1.388 . S
C1801 H1788 0.930 1_554 S
C1801 C1800 1.388 . S
C1801 C1802 1.390 . S
C1802 C1801 1.390 . S
C1802 C1803 1.394 . S
C1802 C1808 1.465 . S
C1803 C1798 1.399 . S
C1803 C1802 1.394 . S
C1803 C1804 1.516 . S
C1804 C1803 1.516 . S
C1804 C1805 1.502 . S
C1804 C1806 1.561 . S
C1804 C1807 1.526 . S
C1805 H1789 0.959 . S
C1805 H1790 0.959 . S
C1805 H1791 0.961 . S
C1805 C1804 1.502 . S
C1806 H1792 0.960 . S
C1806 H1793 0.961 . S
C1806 H1794 0.959 . S
C1806 C1804 1.561 . S
C1807 C1804 1.526 . S
C1807 C1808 1.396 . S
C1807 C1812 1.372 1_565 S
C1808 C1802 1.465 . S
C1808 C1807 1.396 . S
C1808 C1809 1.373 1_565 S
C1809 H1795 0.928 . S
C1809 C1808 1.373 1_545 S
C1809 C1810 1.408 . S
C1810 H1796 0.931 . S
C1810 C1809 1.408 . S
C1810 C1811 1.389 . S
C1811 C1810 1.389 . S
C1811 C1812 1.407 . S
C1812 H1797 0.930 . S
C1812 C1807 1.372 1_545 S
C1812 C1811 1.407 . S
H1813 C1825 0.930 . S
H1814 C1827 0.930 . S
H1815 C1828 0.930 . S
H1816 C1832 0.959 . S
H1817 C1832 0.959 . S
H1818 C1832 0.961 . S
H1819 C1833 0.960 . S
H1820 C1833 0.961 . S
H1821 C1833 0.959 . S
H1822 C1836 0.929 . S
H1823 C1837 0.931 . S
H1824 C1839 0.930 . S
C1825 H1813 0.930 . S
C1825 C1826 1.399 . S
C1825 C1830 1.399 . S
C1826 C1825 1.399 . S
C1826 C1827 1.376 . S
C1827 H1814 0.930 . S
C1827 C1826 1.376 . S
C1827 C1828 1.388 . S
C1828 H1815 0.930 . S
C1828 C1827 1.388 . S
C1828 C1829 1.390 . S
C1829 C1828 1.390 . S
C1829 C1830 1.394 . S
C1829 C1835 1.465 . S
C1830 C1825 1.399 . S
C1830 C1829 1.394 . S
C1830 C1831 1.516 . S
C1831 C1830 1.516 . S
C1831 C1832 1.502 . S
C1831 C1833 1.561 . S
C1831 C1834 1.526 . S
C1832 H1816 0.959 . S
C1832 H1817 0.959 . S
C1832 H1818 0.961 . S
C1832 C1831 1.502 . S
C1833 H1819 0.960 . S
C1833 H1820 0.961 . S
C1833 H1821 0.959 . S
C1833 C1831 1.561 . S
C1834 C1831 1.526 . S
C1834 C1835 1.396 . S
C1834 C1839 1.390 . S
C1835 C1829 1.465 . S
C1835 C1834 1.396 . S
C1835 C1836 1.399 . S
C1836 H1822 0.929 . S
C1836 C1835 1.399 . S
C1836 C1837 1.385 . S
C1837 H1823 0.931 . S
C1837 C1836 1.385 . S
C1837 C1838 1.389 . S
C1838 C1837 1.389 . S
C1838 C1839 1.387 . S
C1839 H1824 0.930 . S
C1839 C1834 1.390 . S
C1839 C1838 1.387 . S
H1840 C1852 0.930 . S
H1841 C1854 0.930 . S
H1842 C1855 0.930 . S
H1843 C1859 0.959 . S
H1844 C1859 0.959 . S
H1845 C1859 0.961 . S
H1846 C1860 0.960 . S
H1847 C1860 0.961 . S
H1848 C1860 0.959 . S
H1849 C1863 0.929 . S
H1850 C1864 0.931 . S
H1851 C1866 0.930 1_554 S
C1852 H1840 0.930 . S
C1852 C1853 1.399 . S
C1852 C1857 1.399 . S
C1853 C1852 1.399 . S
C1853 C1854 1.376 . S
C1854 H1841 0.930 . S
C1854 C1853 1.376 . S
C1854 C1855 1.388 . S
C1855 H1842 0.930 . S
C1855 C1854 1.388 . S
C1855 C1856 1.390 . S
C1856 C1855 1.390 . S
C1856 C1857 1.394 . S
C1856 C1862 1.465 . S
C1857 C1852 1.399 . S
C1857 C1856 1.394 . S
C1857 C1858 1.516 . S
C1858 C1857 1.516 . S
C1858 C1859 1.502 . S
C1858 C1860 1.561 . S
C1858 C1861 1.526 . S
C1859 H1843 0.959 . S
C1859 H1844 0.959 . S
C1859 H1845 0.961 . S
C1859 C1858 1.502 . S
C1860 H1846 0.960 . S
C1860 H1847 0.961 . S
C1860 H1848 0.959 . S
C1860 C1858 1.561 . S
C1861 C1858 1.526 . S
C1861 C1862 1.396 . S
C1861 C1866 1.390 . S
C1862 C1856 1.465 . S
C1862 C1861 1.396 . S
C1862 C1863 1.399 . S
C1863 H1849 0.929 . S
C1863 C1862 1.399 . S
C1863 C1864 1.385 . S
C1864 H1850 0.931 . S
C1864 C1863 1.385 . S
C1864 C1865 1.389 . S
C1865 C1864 1.389 . S
C1865 C1866 1.387 . S
C1866 H1851 0.930 1_556 S
C1866 C1861 1.390 . S
C1866 C1865 1.387 . S
H1867 C1879 0.930 . S
H1868 C1881 0.930 . S
H1869 C1882 0.930 . S
H1870 C1886 0.959 . S
H1871 C1886 0.959 . S
H1872 C1886 0.961 . S
H1873 C1887 0.960 . S
H1874 C1887 0.961 . S
H1875 C1887 0.959 . S
H1876 C1890 0.929 . S
H1877 C1891 0.931 . S
H1878 C1893 0.930 . S
C1879 H1867 0.930 . S
C1879 C1880 1.399 . S
C1879 C1884 1.399 . S
C1880 C1879 1.399 . S
C1880 C1881 1.376 . S
C1881 H1868 0.930 . S
C1881 C1880 1.376 . S
C1881 C1882 1.388 . S
C1882 H1869 0.930 . S
C1882 C1881 1.388 . S
C1882 C1883 1.390 . S
C1883 C1882 1.390 . S
C1883 C1884 1.394 . S
C1883 C1889 1.465 . S
C1884 C1879 1.399 . S
C1884 C1883 1.394 . S
C1884 C1885 1.516 . S
C1885 C1884 1.516 . S
C1885 C1886 1.502 . S
C1885 C1887 1.561 . S
C1885 C1888 1.526 . S
C1886 H1870 0.959 . S
C1886 H1871 0.959 . S
C1886 H1872 0.961 . S
C1886 C1885 1.502 . S
C1887 H1873 0.960 . S
C1887 H1874 0.961 . S
C1887 H1875 0.959 . S
C1887 C1885 1.561 . S
C1888 C1885 1.526 . S
C1888 C1889 1.396 . S
C1888 C1893 1.390 . S
C1889 C1883 1.465 . S
C1889 C1888 1.396 . S
C1889 C1890 1.399 . S
C1890 H1876 0.929 . S
C1890 C1889 1.399 . S
C1890 C1891 1.385 . S
C1891 H1877 0.931 . S
C1891 C1890 1.385 . S
C1891 C1892 1.389 . S
C1892 C1891 1.389 . S
C1892 C1893 1.387 . S
C1893 H1878 0.930 . S
C1893 C1888 1.390 . S
C1893 C1892 1.387 . S
H1894 C1906 0.930 . S
H1895 C1908 0.930 . S
H1896 C1909 0.930 . S
H1897 C1913 0.959 . S
H1898 C1913 0.959 . S
H1899 C1913 0.961 . S
H1900 C1914 0.960 . S
H1901 C1914 0.961 . S
H1902 C1914 0.959 . S
H1903 C1917 0.929 . S
H1904 C1918 0.931 . S
H1905 C1920 0.930 . S
C1906 H1894 0.930 . S
C1906 C1907 1.399 . S
C1906 C1911 1.399 . S
C1907 C1906 1.399 . S
C1907 C1908 1.376 . S
C1908 H1895 0.930 . S
C1908 C1907 1.376 . S
C1908 C1909 1.388 . S
C1909 H1896 0.930 . S
C1909 C1908 1.388 . S
C1909 C1910 1.390 . S
C1910 C1909 1.390 . S
C1910 C1911 1.394 . S
C1910 C1916 1.465 . S
C1911 C1906 1.399 . S
C1911 C1910 1.394 . S
C1911 C1912 1.516 . S
C1912 C1911 1.516 . S
C1912 C1913 1.502 . S
C1912 C1914 1.561 . S
C1912 C1915 1.526 . S
C1913 H1897 0.959 . S
C1913 H1898 0.959 . S
C1913 H1899 0.961 . S
C1913 C1912 1.502 . S
C1914 H1900 0.960 . S
C1914 H1901 0.961 . S
C1914 H1902 0.959 . S
C1914 C1912 1.561 . S
C1915 C1912 1.526 . S
C1915 C1916 1.396 . S
C1915 C1920 1.390 . S
C1916 C1910 1.465 . S
C1916 C1915 1.396 . S
C1916 C1917 1.399 . S
C1917 H1903 0.929 . S
C1917 C1916 1.399 . S
C1917 C1918 1.385 . S
C1918 H1904 0.931 . S
C1918 C1917 1.385 . S
C1918 C1919 1.389 . S
C1919 C1918 1.389 . S
C1919 C1920 1.387 . S
C1920 H1905 0.930 . S
C1920 C1915 1.390 . S
C1920 C1919 1.387 . S
H1921 C1933 0.930 . S
H1922 C1935 0.930 . S
H1923 C1936 0.930 . S
H1924 C1940 0.959 . S
H1925 C1940 0.959 . S
H1926 C1940 0.961 . S
H1927 C1941 0.960 . S
H1928 C1941 0.961 . S
H1929 C1941 0.959 . S
H1930 C1944 0.929 . S
H1931 C1945 0.931 . S
H1932 C1947 0.930 . S
C1933 H1921 0.930 . S
C1933 C1934 1.399 . S
C1933 C1938 1.399 . S
C1934 C1933 1.399 . S
C1934 C1935 1.376 . S
C1935 H1922 0.930 . S
C1935 C1934 1.376 . S
C1935 C1936 1.388 . S
C1936 H1923 0.930 . S
C1936 C1935 1.388 . S
C1936 C1937 1.390 . S
C1937 C1936 1.390 . S
C1937 C1938 1.394 . S
C1937 C1943 1.465 . S
C1938 C1933 1.399 . S
C1938 C1937 1.394 . S
C1938 C1939 1.516 . S
C1939 C1938 1.516 . S
C1939 C1940 1.502 . S
C1939 C1941 1.561 . S
C1939 C1942 1.526 . S
C1940 H1924 0.959 . S
C1940 H1925 0.959 . S
C1940 H1926 0.961 . S
C1940 C1939 1.502 . S
C1941 H1927 0.960 . S
C1941 H1928 0.961 . S
C1941 H1929 0.959 . S
C1941 C1939 1.561 . S
C1942 C1939 1.526 . S
C1942 C1943 1.396 . S
C1942 C1947 1.390 . S
C1943 C1937 1.465 . S
C1943 C1942 1.396 . S
C1943 C1944 1.399 . S
C1944 H1930 0.929 . S
C1944 C1943 1.399 . S
C1944 C1945 1.385 . S
C1945 H1931 0.931 . S
C1945 C1944 1.385 . S
C1945 C1946 1.389 . S
C1946 C1945 1.389 . S
C1946 C1947 1.387 . S
C1947 H1932 0.930 . S
C1947 C1942 1.390 . S
C1947 C1946 1.387 . S
H1948 C1960 0.930 . S
H1949 C1962 0.930 . S
H1950 C1963 0.930 . S
H1951 C1967 0.959 1_545 S
H1952 C1967 0.959 . S
H1953 C1967 0.961 . S
H1954 C1968 0.937 1_565 S
H1955 C1968 0.952 1_565 S
H1956 C1968 0.980 . S
H1957 C1971 0.929 . S
H1958 C1972 0.931 . S
H1959 C1974 0.930 . S
C1960 H1948 0.930 . S
C1960 C1961 1.399 . S
C1960 C1965 1.399 . S
C1961 C1960 1.399 . S
C1961 C1962 1.376 . S
C1962 H1949 0.930 . S
C1962 C1961 1.376 . S
C1962 C1963 1.388 . S
C1963 H1950 0.930 . S
C1963 C1962 1.388 . S
C1963 C1964 1.390 . S
C1964 C1963 1.390 . S
C1964 C1965 1.394 . S
C1964 C1970 1.465 . S
C1965 C1960 1.399 . S
C1965 C1964 1.394 . S
C1965 C1966 1.516 . S
C1966 C1965 1.516 . S
C1966 C1967 1.502 1_545 S
C1966 C1968 1.573 . S
C1966 C1969 1.526 . S
C1967 H1951 0.959 1_565 S
C1967 H1952 0.959 . S
C1967 H1953 0.961 . S
C1967 C1966 1.502 1_565 S
C1968 H1954 0.937 1_545 S
C1968 H1955 0.952 1_545 S
C1968 H1956 0.980 . S
C1968 C1966 1.573 . S
C1969 C1966 1.526 . S
C1969 C1970 1.396 . S
C1969 C1974 1.390 . S
C1970 C1964 1.465 . S
C1970 C1969 1.396 . S
C1970 C1971 1.399 . S
C1971 H1957 0.929 . S
C1971 C1970 1.399 . S
C1971 C1972 1.385 . S
C1972 H1958 0.931 . S
C1972 C1971 1.385 . S
C1972 C1973 1.389 . S
C1973 C1972 1.389 . S
C1973 C1974 1.387 . S
C1974 H1959 0.930 . S
C1974 C1969 1.390 . S
C1974 C1973 1.387 . S
H1975 C1987 0.930 . S
H1976 C1989 0.930 . S
H1977 C1990 0.930 . S
H1978 C1994 0.959 . S
H1979 C1994 0.959 . S
H1980 C1994 0.961 . S
H1981 C1995 0.960 . S
H1982 C1995 0.961 . S
H1983 C1995 0.959 . S
H1984 C1998 0.929 . S
H1985 C1999 0.931 . S
H1986 C2001 0.930 . S
C1987 H1975 0.930 . S
C1987 C1988 1.399 . S
C1987 C1992 1.399 . S
C1988 C1987 1.399 . S
C1988 C1989 1.376 . S
C1989 H1976 0.930 . S
C1989 C1988 1.376 . S
C1989 C1990 1.388 . S
C1990 H1977 0.930 . S
C1990 C1989 1.388 . S
C1990 C1991 1.390 . S
C1991 C1990 1.390 . S
C1991 C1992 1.394 . S
C1991 C1997 1.465 . S
C1992 C1987 1.399 . S
C1992 C1991 1.394 . S
C1992 C1993 1.516 . S
C1993 C1992 1.516 . S
C1993 C1994 1.502 . S
C1993 C1995 1.561 . S
C1993 C1996 1.526 . S
C1994 H1978 0.959 . S
C1994 H1979 0.959 . S
C1994 H1980 0.961 . S
C1994 C1993 1.502 . S
C1995 H1981 0.960 . S
C1995 H1982 0.961 . S
C1995 H1983 0.959 . S
C1995 C1993 1.561 . S
C1996 C1993 1.526 . S
C1996 C1997 1.396 . S
C1996 C2001 1.390 . S
C1997 C1991 1.465 . S
C1997 C1996 1.396 . S
C1997 C1998 1.399 . S
C1998 H1984 0.929 . S
C1998 C1997 1.399 . S
C1998 C1999 1.385 . S
C1999 H1985 0.931 . S
C1999 C1998 1.385 . S
C1999 C2000 1.389 . S
C2000 C1999 1.389 . S
C2000 C2001 1.387 . S
C2001 H1986 0.930 . S
C2001 C1996 1.390 . S
C2001 C2000 1.387 . S
H2002 C2014 0.930 . S
H2003 C2016 0.930 . S
H2004 C2017 0.930 . S
H2005 C2021 0.959 . S
H2006 C2021 0.959 . S
H2007 C2021 0.961 . S
H2008 C2022 0.960 . S
H2009 C2022 0.961 . S
H2010 C2022 0.959 . S
H2011 C2025 0.929 . S
H2012 C2026 0.931 . S
H2013 C2028 0.930 . S
C2014 H2002 0.930 . S
C2014 C2015 1.399 . S
C2014 C2019 1.399 . S
C2015 C2014 1.399 . S
C2015 C2016 1.376 . S
C2016 H2003 0.930 . S
C2016 C2015 1.376 . S
C2016 C2017 1.388 . S
C2017 H2004 0.930 . S
C2017 C2016 1.388 . S
C2017 C2018 1.390 . S
C2018 C2017 1.390 . S
C2018 C2019 1.394 . S
C2018 C2024 1.465 . S
C2019 C2014 1.399 . S
C2019 C2018 1.394 . S
C2019 C2020 1.516 . S
C2020 C2019 1.516 . S
C2020 C2021 1.502 . S
C2020 C2022 1.561 . S
C2020 C2023 1.526 . S
C2021 H2005 0.959 . S
C2021 H2006 0.959 . S
C2021 H2007 0.961 . S
C2021 C2020 1.502 . S
C2022 H2008 0.960 . S
C2022 H2009 0.961 . S
C2022 H2010 0.959 . S
C2022 C2020 1.561 . S
C2023 C2020 1.526 . S
C2023 C2024 1.396 . S
C2023 C2028 1.390 . S
C2024 C2018 1.465 . S
C2024 C2023 1.396 . S
C2024 C2025 1.399 . S
C2025 H2011 0.929 . S
C2025 C2024 1.399 . S
C2025 C2026 1.385 . S
C2026 H2012 0.931 . S
C2026 C2025 1.385 . S
C2026 C2027 1.389 . S
C2027 C2026 1.389 . S
C2027 C2028 1.387 . S
C2028 H2013 0.930 . S
C2028 C2023 1.390 . S
C2028 C2027 1.387 . S
H2029 C2041 0.930 . S
H2030 C2043 0.930 . S
H2031 C2044 0.930 . S
H2032 C2048 0.959 . S
H2033 C2048 0.959 . S
H2034 C2048 0.961 . S
H2035 C2049 0.960 . S
H2036 C2049 0.961 . S
H2037 C2049 0.959 . S
H2038 C2052 0.929 . S
H2039 C2053 0.931 . S
H2040 C2055 0.930 . S
C2041 H2029 0.930 . S
C2041 C2042 1.399 . S
C2041 C2046 1.399 . S
C2042 C2041 1.399 . S
C2042 C2043 1.376 . S
C2043 H2030 0.930 . S
C2043 C2042 1.376 . S
C2043 C2044 1.388 . S
C2044 H2031 0.930 . S
C2044 C2043 1.388 . S
C2044 C2045 1.390 . S
C2045 C2044 1.390 . S
C2045 C2046 1.394 . S
C2045 C2051 1.465 . S
C2046 C2041 1.399 . S
C2046 C2045 1.394 . S
C2046 C2047 1.516 . S
C2047 C2046 1.516 . S
C2047 C2048 1.502 . S
C2047 C2049 1.561 . S
C2047 C2050 1.526 . S
C2048 H2032 0.959 . S
C2048 H2033 0.959 . S
C2048 H2034 0.961 . S
C2048 C2047 1.502 . S
C2049 H2035 0.960 . S
C2049 H2036 0.961 . S
C2049 H2037 0.959 . S
C2049 C2047 1.561 . S
C2050 C2047 1.526 . S
C2050 C2051 1.396 . S
C2050 C2055 1.390 . S
C2051 C2045 1.465 . S
C2051 C2050 1.396 . S
C2051 C2052 1.399 . S
C2052 H2038 0.929 . S
C2052 C2051 1.399 . S
C2052 C2053 1.385 . S
C2053 H2039 0.931 . S
C2053 C2052 1.385 . S
C2053 C2054 1.389 . S
C2054 C2053 1.389 . S
C2054 C2055 1.387 . S
C2055 H2040 0.930 . S
C2055 C2050 1.390 . S
C2055 C2054 1.387 . S
H2056 C2068 0.930 . S
H2057 C2070 0.930 . S
H2058 C2071 0.930 . S
H2059 C2075 0.959 . S
H2060 C2075 0.959 . S
H2061 C2075 0.961 . S
H2062 C2076 0.960 . S
H2063 C2076 0.961 . S
H2064 C2076 0.959 . S
H2065 C2079 0.929 . S
H2066 C2080 0.931 . S
H2067 C2082 0.930 . S
C2068 H2056 0.930 . S
C2068 C2069 1.399 . S
C2068 C2073 1.399 . S
C2069 C2068 1.399 . S
C2069 C2070 1.376 . S
C2070 H2057 0.930 . S
C2070 C2069 1.376 . S
C2070 C2071 1.388 . S
C2071 H2058 0.930 . S
C2071 C2070 1.388 . S
C2071 C2072 1.390 . S
C2072 C2071 1.390 . S
C2072 C2073 1.394 . S
C2072 C2078 1.465 . S
C2073 C2068 1.399 . S
C2073 C2072 1.394 . S
C2073 C2074 1.516 . S
C2074 C2073 1.516 . S
C2074 C2075 1.502 . S
C2074 C2076 1.561 . S
C2074 C2077 1.526 . S
C2075 H2059 0.959 . S
C2075 H2060 0.959 . S
C2075 H2061 0.961 . S
C2075 C2074 1.502 . S
C2076 H2062 0.960 . S
C2076 H2063 0.961 . S
C2076 H2064 0.959 . S
C2076 C2074 1.561 . S
C2077 C2074 1.526 . S
C2077 C2078 1.396 . S
C2077 C2082 1.390 . S
C2078 C2072 1.465 . S
C2078 C2077 1.396 . S
C2078 C2079 1.399 . S
C2079 H2065 0.929 . S
C2079 C2078 1.399 . S
C2079 C2080 1.385 . S
C2080 H2066 0.931 . S
C2080 C2079 1.385 . S
C2080 C2081 1.389 . S
C2081 C2080 1.389 . S
C2081 C2082 1.387 . S
C2082 H2067 0.930 . S
C2082 C2077 1.390 . S
C2082 C2081 1.387 . S
H2083 C2095 0.930 . S
H2084 C2097 0.930 . S
H2085 C2098 0.930 . S
H2086 C2102 0.959 . S
H2087 C2102 0.959 . S
H2088 C2102 0.961 . S
H2089 C2103 0.960 . S
H2090 C2103 0.961 . S
H2091 C2103 0.959 . S
H2092 C2106 0.929 . S
H2093 C2107 0.931 . S
H2094 C2109 0.930 . S
C2095 H2083 0.930 . S
C2095 C2096 1.399 . S
C2095 C2100 1.399 . S
C2096 C2095 1.399 . S
C2096 C2097 1.376 . S
C2097 H2084 0.930 . S
C2097 C2096 1.376 . S
C2097 C2098 1.388 . S
C2098 H2085 0.930 . S
C2098 C2097 1.388 . S
C2098 C2099 1.390 . S
C2099 C2098 1.390 . S
C2099 C2100 1.394 . S
C2099 C2105 1.465 . S
C2100 C2095 1.399 . S
C2100 C2099 1.394 . S
C2100 C2101 1.516 . S
C2101 C2100 1.516 . S
C2101 C2102 1.502 . S
C2101 C2103 1.561 . S
C2101 C2104 1.526 . S
C2102 H2086 0.959 . S
C2102 H2087 0.959 . S
C2102 H2088 0.961 . S
C2102 C2101 1.502 . S
C2103 H2089 0.960 . S
C2103 H2090 0.961 . S
C2103 H2091 0.959 . S
C2103 C2101 1.561 . S
C2104 C2101 1.526 . S
C2104 C2105 1.396 . S
C2104 C2109 1.390 . S
C2105 C2099 1.465 . S
C2105 C2104 1.396 . S
C2105 C2106 1.399 . S
C2106 H2092 0.929 . S
C2106 C2105 1.399 . S
C2106 C2107 1.385 . S
C2107 H2093 0.931 . S
C2107 C2106 1.385 . S
C2107 C2108 1.389 . S
C2108 C2107 1.389 . S
C2108 C2109 1.387 . S
C2109 H2094 0.930 . S
C2109 C2104 1.390 . S
C2109 C2108 1.387 . S
H2110 C2122 0.930 . S
H2111 C2124 0.930 . S
H2112 C2125 0.930 . S
H2113 C2129 0.959 . S
H2114 C2129 0.959 . S
H2115 C2129 0.961 . S
H2116 C2130 0.960 . S
H2117 C2130 0.961 . S
H2118 C2130 0.959 . S
H2119 C2133 0.929 . S
H2120 C2134 0.931 . S
H2121 C2136 0.930 . S
C2122 H2110 0.930 . S
C2122 C2123 1.399 . S
C2122 C2127 1.399 . S
C2123 C2122 1.399 . S
C2123 C2124 1.376 . S
C2124 H2111 0.930 . S
C2124 C2123 1.376 . S
C2124 C2125 1.388 . S
C2125 H2112 0.930 . S
C2125 C2124 1.388 . S
C2125 C2126 1.390 . S
C2126 C2125 1.390 . S
C2126 C2127 1.394 . S
C2126 C2132 1.465 . S
C2127 C2122 1.399 . S
C2127 C2126 1.394 . S
C2127 C2128 1.516 . S
C2128 C2127 1.516 . S
C2128 C2129 1.502 . S
C2128 C2130 1.561 . S
C2128 C2131 1.526 . S
C2129 H2113 0.959 . S
C2129 H2114 0.959 . S
C2129 H2115 0.961 . S
C2129 C2128 1.502 . S
C2130 H2116 0.960 . S
C2130 H2117 0.961 . S
C2130 H2118 0.959 . S
C2130 C2128 1.561 . S
C2131 C2128 1.526 . S
C2131 C2132 1.396 . S
C2131 C2136 1.390 . S
C2132 C2126 1.465 . S
C2132 C2131 1.396 . S
C2132 C2133 1.399 . S
C2133 H2119 0.929 . S
C2133 C2132 1.399 . S
C2133 C2134 1.385 . S
C2134 H2120 0.931 . S
C2134 C2133 1.385 . S
C2134 C2135 1.389 . S
C2135 C2134 1.389 . S
C2135 C2136 1.387 . S
C2136 H2121 0.930 . S
C2136 C2131 1.390 . S
C2136 C2135 1.387 . S
H2137 C2149 0.930 . S
H2138 C2151 0.930 . S
H2139 C2152 0.930 . S
H2140 C2156 0.959 . S
H2141 C2156 0.959 . S
H2142 C2156 0.961 . S
H2143 C2157 0.960 . S
H2144 C2157 0.961 . S
H2145 C2157 0.959 . S
H2146 C2160 0.929 . S
H2147 C2161 0.931 . S
H2148 C2163 0.930 . S
C2149 H2137 0.930 . S
C2149 C2150 1.399 . S
C2149 C2154 1.399 . S
C2150 C2149 1.399 . S
C2150 C2151 1.376 . S
C2151 H2138 0.930 . S
C2151 C2150 1.376 . S
C2151 C2152 1.388 . S
C2152 H2139 0.930 . S
C2152 C2151 1.388 . S
C2152 C2153 1.390 . S
C2153 C2152 1.390 . S
C2153 C2154 1.394 . S
C2153 C2159 1.465 . S
C2154 C2149 1.399 . S
C2154 C2153 1.394 . S
C2154 C2155 1.516 . S
C2155 C2154 1.516 . S
C2155 C2156 1.502 . S
C2155 C2157 1.561 . S
C2155 C2158 1.526 . S
C2156 H2140 0.959 . S
C2156 H2141 0.959 . S
C2156 H2142 0.961 . S
C2156 C2155 1.502 . S
C2157 H2143 0.960 . S
C2157 H2144 0.961 . S
C2157 H2145 0.959 . S
C2157 C2155 1.561 . S
C2158 C2155 1.526 . S
C2158 C2159 1.396 . S
C2158 C2163 1.390 . S
C2159 C2153 1.465 . S
C2159 C2158 1.396 . S
C2159 C2160 1.399 . S
C2160 H2146 0.929 . S
C2160 C2159 1.399 . S
C2160 C2161 1.385 . S
C2161 H2147 0.931 . S
C2161 C2160 1.385 . S
C2161 C2162 1.389 . S
C2162 C2161 1.389 . S
C2162 C2163 1.387 . S
C2163 H2148 0.930 . S
C2163 C2158 1.390 . S
C2163 C2162 1.387 . S
H2164 C2176 0.930 . S
H2165 C2178 0.930 . S
H2166 C2179 0.930 . S
H2167 C2183 0.959 . S
H2168 C2183 0.959 . S
H2169 C2183 0.961 . S
H2170 C2184 0.960 . S
H2171 C2184 0.961 . S
H2172 C2184 0.959 . S
H2173 C2187 0.929 . S
H2174 C2188 0.931 . S
H2175 C2190 0.930 . S
C2176 H2164 0.930 . S
C2176 C2177 1.399 . S
C2176 C2181 1.399 . S
C2177 C2176 1.399 . S
C2177 C2178 1.376 . S
C2178 H2165 0.930 . S
C2178 C2177 1.376 . S
C2178 C2179 1.388 . S
C2179 H2166 0.930 . S
C2179 C2178 1.388 . S
C2179 C2180 1.390 . S
C2180 C2179 1.390 . S
C2180 C2181 1.394 . S
C2180 C2186 1.465 . S
C2181 C2176 1.399 . S
C2181 C2180 1.394 . S
C2181 C2182 1.516 . S
C2182 C2181 1.516 . S
C2182 C2183 1.502 . S
C2182 C2184 1.561 . S
C2182 C2185 1.526 . S
C2183 H2167 0.959 . S
C2183 H2168 0.959 . S
C2183 H2169 0.961 . S
C2183 C2182 1.502 . S
C2184 H2170 0.960 . S
C2184 H2171 0.961 . S
C2184 H2172 0.959 . S
C2184 C2182 1.561 . S
C2185 C2182 1.526 . S
C2185 C2186 1.396 . S
C2185 C2190 1.390 . S
C2186 C2180 1.465 . S
C2186 C2185 1.396 . S
C2186 C2187 1.399 . S
C2187 H2173 0.929 . S
C2187 C2186 1.399 . S
C2187 C2188 1.385 . S
C2188 H2174 0.931 . S
C2188 C2187 1.385 . S
C2188 C2189 1.389 . S
C2189 C2188 1.389 . S
C2189 C2190 1.387 . S
C2190 H2175 0.930 . S
C2190 C2185 1.390 . S
C2190 C2189 1.387 . S
H2191 C2203 0.930 . S
H2192 C2205 0.930 . S
H2193 C2206 0.930 . S
H2194 C2210 0.959 . S
H2195 C2210 0.959 . S
H2196 C2210 0.961 . S
H2197 C2211 0.960 . S
H2198 C2211 0.961 . S
H2199 C2211 0.959 1_545 S
H2200 C2214 0.929 . S
H2201 C2215 0.931 . S
H2202 C2217 0.930 1_565 S
C2203 H2191 0.930 . S
C2203 C2204 1.399 1_565 S
C2203 C2208 1.414 . S
C2204 C2203 1.399 1_545 S
C2204 C2205 1.376 . S
C2205 H2192 0.930 . S
C2205 C2204 1.376 . S
C2205 C2206 1.388 . S
C2206 H2193 0.930 . S
C2206 C2205 1.388 . S
C2206 C2207 1.390 . S
C2207 C2206 1.390 . S
C2207 C2208 1.371 1_545 S
C2207 C2213 1.465 . S
C2208 C2203 1.414 . S
C2208 C2207 1.371 1_565 S
C2208 C2209 1.520 . S
C2209 C2208 1.520 . S
C2209 C2210 1.502 . S
C2209 C2211 1.561 . S
C2209 C2212 1.526 1_565 S
C2210 H2194 0.959 . S
C2210 H2195 0.959 . S
C2210 H2196 0.961 . S
C2210 C2209 1.502 . S
C2211 H2197 0.960 . S
C2211 H2198 0.961 . S
C2211 H2199 0.959 1_565 S
C2211 C2209 1.561 . S
C2212 C2209 1.526 1_545 S
C2212 C2213 1.396 . S
C2212 C2217 1.390 . S
C2213 C2207 1.465 . S
C2213 C2212 1.396 . S
C2213 C2214 1.399 . S
C2214 H2200 0.929 . S
C2214 C2213 1.399 . S
C2214 C2215 1.385 . S
C2215 H2201 0.931 . S
C2215 C2214 1.385 . S
C2215 C2216 1.389 . S
C2216 C2215 1.389 . S
C2216 C2217 1.387 . S
C2217 H2202 0.930 1_545 S
C2217 C2212 1.390 . S
C2217 C2216 1.387 . S
H2218 C2230 0.930 . S
H2219 C2232 0.930 . S
H2220 C2233 0.930 . S
H2221 C2237 0.959 . S
H2222 C2237 0.959 . S
H2223 C2237 0.961 . S
H2224 C2238 0.960 . S
H2225 C2238 0.961 . S
H2226 C2238 0.959 . S
H2227 C2241 0.929 . S
H2228 C2242 0.931 . S
H2229 C2244 0.930 . S
C2230 H2218 0.930 . S
C2230 C2231 1.399 . S
C2230 C2235 1.399 . S
C2231 C2230 1.399 . S
C2231 C2232 1.376 . S
C2232 H2219 0.930 . S
C2232 C2231 1.376 . S
C2232 C2233 1.388 . S
C2233 H2220 0.930 . S
C2233 C2232 1.388 . S
C2233 C2234 1.390 . S
C2234 C2233 1.390 . S
C2234 C2235 1.394 . S
C2234 C2240 1.465 . S
C2235 C2230 1.399 . S
C2235 C2234 1.394 . S
C2235 C2236 1.516 . S
C2236 C2235 1.516 . S
C2236 C2237 1.502 . S
C2236 C2238 1.561 . S
C2236 C2239 1.526 . S
C2237 H2221 0.959 . S
C2237 H2222 0.959 . S
C2237 H2223 0.961 . S
C2237 C2236 1.502 . S
C2238 H2224 0.960 . S
C2238 H2225 0.961 . S
C2238 H2226 0.959 . S
C2238 C2236 1.561 . S
C2239 C2236 1.526 . S
C2239 C2240 1.396 . S
C2239 C2244 1.390 . S
C2240 C2234 1.465 . S
C2240 C2239 1.396 . S
C2240 C2241 1.399 . S
C2241 H2227 0.929 . S
C2241 C2240 1.399 . S
C2241 C2242 1.385 . S
C2242 H2228 0.931 . S
C2242 C2241 1.385 . S
C2242 C2243 1.389 . S
C2243 C2242 1.389 . S
C2243 C2244 1.387 . S
C2244 H2229 0.930 . S
C2244 C2239 1.390 . S
C2244 C2243 1.387 . S
H2245 C2257 0.930 . S
H2246 C2259 0.930 . S
H2247 C2260 0.930 . S
H2248 C2264 0.959 . S
H2249 C2264 0.959 . S
H2250 C2264 0.961 . S
H2251 C2265 0.960 . S
H2252 C2265 0.961 . S
H2253 C2265 0.959 . S
H2254 C2268 0.929 . S
H2255 C2269 0.931 . S
H2256 C2271 0.930 . S
C2257 H2245 0.930 . S
C2257 C2258 1.399 . S
C2257 C2262 1.399 . S
C2258 C2257 1.399 . S
C2258 C2259 1.376 . S
C2259 H2246 0.930 . S
C2259 C2258 1.376 . S
C2259 C2260 1.388 . S
C2260 H2247 0.930 . S
C2260 C2259 1.388 . S
C2260 C2261 1.390 . S
C2261 C2260 1.390 . S
C2261 C2262 1.394 . S
C2261 C2267 1.465 . S
C2262 C2257 1.399 . S
C2262 C2261 1.394 . S
C2262 C2263 1.516 . S
C2263 C2262 1.516 . S
C2263 C2264 1.502 . S
C2263 C2265 1.561 . S
C2263 C2266 1.526 . S
C2264 H2248 0.959 . S
C2264 H2249 0.959 . S
C2264 H2250 0.961 . S
C2264 C2263 1.502 . S
C2265 H2251 0.960 . S
C2265 H2252 0.961 . S
C2265 H2253 0.959 . S
C2265 C2263 1.561 . S
C2266 C2263 1.526 . S
C2266 C2267 1.396 . S
C2266 C2271 1.390 . S
C2267 C2261 1.465 . S
C2267 C2266 1.396 . S
C2267 C2268 1.399 . S
C2268 H2254 0.929 . S
C2268 C2267 1.399 . S
C2268 C2269 1.385 . S
C2269 H2255 0.931 . S
C2269 C2268 1.385 . S
C2269 C2270 1.389 . S
C2270 C2269 1.389 . S
C2270 C2271 1.387 . S
C2271 H2256 0.930 . S
C2271 C2266 1.390 . S
C2271 C2270 1.387 . S
H2272 C2284 0.930 . S
H2273 C2286 0.930 . S
H2274 C2287 0.930 . S
H2275 C2291 0.959 . S
H2276 C2291 0.959 . S
H2277 C2291 0.961 . S
H2278 C2292 0.960 . S
H2279 C2292 0.961 . S
H2280 C2292 0.959 . S
H2281 C2295 0.929 . S
H2282 C2296 0.931 . S
H2283 C2298 0.930 . S
C2284 H2272 0.930 . S
C2284 C2285 1.399 . S
C2284 C2289 1.399 . S
C2285 C2284 1.399 . S
C2285 C2286 1.376 . S
C2286 H2273 0.930 . S
C2286 C2285 1.376 . S
C2286 C2287 1.388 . S
C2287 H2274 0.930 . S
C2287 C2286 1.388 . S
C2287 C2288 1.390 . S
C2288 C2287 1.390 . S
C2288 C2289 1.394 . S
C2288 C2294 1.465 . S
C2289 C2284 1.399 . S
C2289 C2288 1.394 . S
C2289 C2290 1.516 . S
C2290 C2289 1.516 . S
C2290 C2291 1.502 . S
C2290 C2292 1.561 . S
C2290 C2293 1.526 . S
C2291 H2275 0.959 . S
C2291 H2276 0.959 . S
C2291 H2277 0.961 . S
C2291 C2290 1.502 . S
C2292 H2278 0.960 . S
C2292 H2279 0.961 . S
C2292 H2280 0.959 . S
C2292 C2290 1.561 . S
C2293 C2290 1.526 . S
C2293 C2294 1.396 . S
C2293 C2298 1.390 . S
C2294 C2288 1.465 . S
C2294 C2293 1.396 . S
C2294 C2295 1.399 . S
C2295 H2281 0.929 . S
C2295 C2294 1.399 . S
C2295 C2296 1.385 . S
C2296 H2282 0.931 . S
C2296 C2295 1.385 . S
C2296 C2297 1.389 . S
C2297 C2296 1.389 . S
C2297 C2298 1.387 . S
C2298 H2283 0.930 . S
C2298 C2293 1.390 . S
C2298 C2297 1.387 . S
H2299 C2311 0.930 . S
H2300 C2313 0.930 . S
H2301 C2314 0.930 . S
H2302 C2318 0.959 . S
H2303 C2318 0.959 . S
H2304 C2318 0.961 . S
H2305 C2319 0.960 . S
H2306 C2319 0.961 . S
H2307 C2319 0.959 . S
H2308 C2322 0.929 . S
H2309 C2323 0.931 . S
H2310 C2325 0.930 . S
C2311 H2299 0.930 . S
C2311 C2312 1.399 . S
C2311 C2316 1.399 . S
C2312 C2311 1.399 . S
C2312 C2313 1.376 . S
C2313 H2300 0.930 . S
C2313 C2312 1.376 . S
C2313 C2314 1.388 . S
C2314 H2301 0.930 . S
C2314 C2313 1.388 . S
C2314 C2315 1.390 . S
C2315 C2314 1.390 . S
C2315 C2316 1.394 . S
C2315 C2321 1.465 . S
C2316 C2311 1.399 . S
C2316 C2315 1.394 . S
C2316 C2317 1.516 . S
C2317 C2316 1.516 . S
C2317 C2318 1.502 . S
C2317 C2319 1.561 . S
C2317 C2320 1.526 . S
C2318 H2302 0.959 . S
C2318 H2303 0.959 . S
C2318 H2304 0.961 . S
C2318 C2317 1.502 . S
C2319 H2305 0.960 . S
C2319 H2306 0.961 . S
C2319 H2307 0.959 . S
C2319 C2317 1.561 . S
C2320 C2317 1.526 . S
C2320 C2321 1.396 . S
C2320 C2325 1.390 . S
C2321 C2315 1.465 . S
C2321 C2320 1.396 . S
C2321 C2322 1.399 . S
C2322 H2308 0.929 . S
C2322 C2321 1.399 . S
C2322 C2323 1.385 . S
C2323 H2309 0.931 . S
C2323 C2322 1.385 . S
C2323 C2324 1.389 . S
C2324 C2323 1.389 . S
C2324 C2325 1.387 . S
C2325 H2310 0.930 . S
C2325 C2320 1.390 . S
C2325 C2324 1.387 . S
H2326 C2338 0.930 . S
H2327 C2340 0.930 . S
H2328 C2341 0.930 1_554 S
H2329 C2345 0.959 . S
H2330 C2345 0.959 1_655 S
H2331 C2345 0.961 1_655 S
H2332 C2346 0.960 . S
H2333 C2346 0.961 . S
H2334 C2346 0.959 1_454 S
H2335 C2349 0.929 . S
H2336 C2350 0.931 . S
H2337 C2352 0.930 . S
C2338 H2326 0.930 . S
C2338 C2339 1.399 . S
C2338 C2343 1.399 . S
C2339 C2338 1.399 . S
C2339 C2340 1.376 . S
C2340 H2327 0.930 . S
C2340 C2339 1.376 . S
C2340 C2341 1.388 . S
C2341 H2328 0.930 1_556 S
C2341 C2340 1.388 . S
C2341 C2342 1.390 . S
C2342 C2341 1.390 . S
C2342 C2343 1.394 . S
C2342 C2348 1.465 1_556 S
C2343 C2338 1.399 . S
C2343 C2342 1.394 . S
C2343 C2344 1.516 . S
C2344 C2343 1.516 . S
C2344 C2345 1.502 . S
C2344 C2346 1.561 1_455 S
C2344 C2347 1.526 1_556 S
C2345 H2329 0.959 . S
C2345 H2330 0.959 1_455 S
C2345 H2331 0.961 1_455 S
C2345 C2344 1.502 . S
C2346 H2332 0.960 . S
C2346 H2333 0.961 . S
C2346 H2334 0.959 1_656 S
C2346 C2344 1.561 1_655 S
C2347 C2344 1.526 1_554 S
C2347 C2348 1.396 . S
C2347 C2352 1.390 . S
C2348 C2342 1.465 1_554 S
C2348 C2347 1.396 . S
C2348 C2349 1.399 . S
C2349 H2335 0.929 . S
C2349 C2348 1.399 . S
C2349 C2350 1.385 . S
C2350 H2336 0.931 . S
C2350 C2349 1.385 . S
C2350 C2351 1.389 . S
C2351 C2350 1.389 . S
C2351 C2352 1.387 . S
C2352 H2337 0.930 . S
C2352 C2347 1.390 . S
C2352 C2351 1.387 . S
H2353 C2365 0.930 . S
H2354 C2367 0.930 . S
H2355 C2368 0.930 . S
H2356 C2372 0.959 . S
H2357 C2372 0.959 . S
H2358 C2372 0.961 . S
H2359 C2373 0.960 . S
H2360 C2373 0.961 . S
H2361 C2373 0.959 . S
H2362 C2376 0.929 . S
H2363 C2377 0.931 . S
H2364 C2379 0.930 . S
C2365 H2353 0.930 . S
C2365 C2366 1.399 . S
C2365 C2370 1.399 . S
C2366 C2365 1.399 . S
C2366 C2367 1.376 . S
C2367 H2354 0.930 . S
C2367 C2366 1.376 . S
C2367 C2368 1.388 . S
C2368 H2355 0.930 . S
C2368 C2367 1.388 . S
C2368 C2369 1.390 . S
C2369 C2368 1.390 . S
C2369 C2370 1.394 . S
C2369 C2375 1.465 . S
C2370 C2365 1.399 . S
C2370 C2369 1.394 . S
C2370 C2371 1.516 . S
C2371 C2370 1.516 . S
C2371 C2372 1.502 . S
C2371 C2373 1.561 . S
C2371 C2374 1.526 . S
C2372 H2356 0.959 . S
C2372 H2357 0.959 . S
C2372 H2358 0.961 . S
C2372 C2371 1.502 . S
C2373 H2359 0.960 . S
C2373 H2360 0.961 . S
C2373 H2361 0.959 . S
C2373 C2371 1.561 . S
C2374 C2371 1.526 . S
C2374 C2375 1.396 . S
C2374 C2379 1.390 . S
C2375 C2369 1.465 . S
C2375 C2374 1.396 . S
C2375 C2376 1.399 . S
C2376 H2362 0.929 . S
C2376 C2375 1.399 . S
C2376 C2377 1.385 . S
C2377 H2363 0.931 . S
C2377 C2376 1.385 . S
C2377 C2378 1.389 . S
C2378 C2377 1.389 . S
C2378 C2379 1.387 . S
C2379 H2364 0.930 . S
C2379 C2374 1.390 . S
C2379 C2378 1.387 . S
H2380 C2392 0.930 . S
H2381 C2394 0.930 . S
H2382 C2395 0.930 . S
H2383 C2399 0.959 . S
H2384 C2399 0.959 . S
H2385 C2399 0.961 . S
H2386 C2400 0.960 . S
H2387 C2400 0.961 . S
H2388 C2400 0.959 . S
H2389 C2403 0.929 . S
H2390 C2404 0.931 . S
H2391 C2406 0.930 . S
C2392 H2380 0.930 . S
C2392 C2393 1.399 . S
C2392 C2397 1.399 . S
C2393 C2392 1.399 . S
C2393 C2394 1.376 . S
C2394 H2381 0.930 . S
C2394 C2393 1.376 . S
C2394 C2395 1.388 . S
C2395 H2382 0.930 . S
C2395 C2394 1.388 . S
C2395 C2396 1.390 . S
C2396 C2395 1.390 . S
C2396 C2397 1.394 . S
C2396 C2402 1.465 . S
C2397 C2392 1.399 . S
C2397 C2396 1.394 . S
C2397 C2398 1.516 . S
C2398 C2397 1.516 . S
C2398 C2399 1.502 . S
C2398 C2400 1.561 . S
C2398 C2401 1.526 . S
C2399 H2383 0.959 . S
C2399 H2384 0.959 . S
C2399 H2385 0.961 . S
C2399 C2398 1.502 . S
C2400 H2386 0.960 . S
C2400 H2387 0.961 . S
C2400 H2388 0.959 . S
C2400 C2398 1.561 . S
C2401 C2398 1.526 . S
C2401 C2402 1.396 . S
C2401 C2406 1.390 . S
C2402 C2396 1.465 . S
C2402 C2401 1.396 . S
C2402 C2403 1.399 . S
C2403 H2389 0.929 . S
C2403 C2402 1.399 . S
C2403 C2404 1.385 . S
C2404 H2390 0.931 . S
C2404 C2403 1.385 . S
C2404 C2405 1.389 . S
C2405 C2404 1.389 . S
C2405 C2406 1.387 . S
C2406 H2391 0.930 . S
C2406 C2401 1.390 . S
C2406 C2405 1.387 . S
H2407 C2419 0.930 . S
H2408 C2421 0.930 . S
H2409 C2422 0.930 . S
H2410 C2426 0.959 . S
H2411 C2426 0.959 . S
H2412 C2426 0.961 . S
H2413 C2427 0.960 . S
H2414 C2427 0.961 . S
H2415 C2427 0.959 . S
H2416 C2430 0.929 . S
H2417 C2431 0.931 . S
H2418 C2433 0.930 . S
C2419 H2407 0.930 . S
C2419 C2420 1.399 . S
C2419 C2424 1.399 1_455 S
C2420 C2419 1.399 . S
C2420 C2421 1.376 . S
C2421 H2408 0.930 . S
C2421 C2420 1.376 . S
C2421 C2422 1.388 1_455 S
C2422 H2409 0.930 . S
C2422 C2421 1.388 1_655 S
C2422 C2423 1.390 . S
C2423 C2422 1.390 . S
C2423 C2424 1.394 . S
C2423 C2429 1.465 . S
C2424 C2419 1.399 1_655 S
C2424 C2423 1.394 . S
C2424 C2425 1.516 . S
C2425 C2424 1.516 . S
C2425 C2426 1.502 . S
C2425 C2427 1.561 . S
C2425 C2428 1.526 . S
C2426 H2410 0.959 . S
C2426 H2411 0.959 . S
C2426 H2412 0.961 . S
C2426 C2425 1.502 . S
C2427 H2413 0.960 . S
C2427 H2414 0.961 . S
C2427 H2415 0.959 . S
C2427 C2425 1.561 . S
C2428 C2425 1.526 . S
C2428 C2429 1.396 . S
C2428 C2433 1.390 . S
C2429 C2423 1.465 . S
C2429 C2428 1.396 . S
C2429 C2430 1.399 . S
C2430 H2416 0.929 . S
C2430 C2429 1.399 . S
C2430 C2431 1.385 . S
C2431 H2417 0.931 . S
C2431 C2430 1.385 . S
C2431 C2432 1.389 . S
C2432 C2431 1.389 . S
C2432 C2433 1.387 . S
C2433 H2418 0.930 . S
C2433 C2428 1.390 . S
C2433 C2432 1.387 . S
H2434 C2446 0.930 1_455 S
H2435 C2448 0.930 . S
H2436 C2449 0.930 . S
H2437 C2453 0.959 . S
H2438 C2453 0.959 . S
H2439 C2453 0.961 . S
H2440 C2454 0.960 . S
H2441 C2454 0.961 1_455 S
H2442 C2454 0.959 . S
H2443 C2457 0.929 1_655 S
H2444 C2458 0.931 . S
H2445 C2460 0.930 . S
C2446 H2434 0.930 1_655 S
C2446 C2447 1.399 . S
C2446 C2451 1.399 1_655 S
C2447 C2446 1.399 . S
C2447 C2448 1.376 . S
C2448 H2435 0.930 . S
C2448 C2447 1.376 . S
C2448 C2449 1.388 . S
C2449 H2436 0.930 . S
C2449 C2448 1.388 . S
C2449 C2450 1.390 . S
C2450 C2449 1.390 . S
C2450 C2451 1.394 1_655 S
C2450 C2456 1.465 1_655 S
C2451 C2446 1.399 1_455 S
C2451 C2450 1.394 1_455 S
C2451 C2452 1.516 . S
C2452 C2451 1.516 . S
C2452 C2453 1.502 . S
C2452 C2454 1.561 1_455 S
C2452 C2455 1.526 . S
C2453 H2437 0.959 . S
C2453 H2438 0.959 . S
C2453 H2439 0.961 . S
C2453 C2452 1.502 . S
C2454 H2440 0.960 . S
C2454 H2441 0.961 1_655 S
C2454 H2442 0.959 . S
C2454 C2452 1.561 1_655 S
C2455 C2452 1.526 . S
C2455 C2456 1.396 . S
C2455 C2460 1.390 . S
C2456 C2450 1.465 1_455 S
C2456 C2455 1.396 . S
C2456 C2457 1.399 . S
C2457 H2443 0.929 1_455 S
C2457 C2456 1.399 . S
C2457 C2458 1.385 . S
C2458 H2444 0.931 . S
C2458 C2457 1.385 . S
C2458 C2459 1.389 . S
C2459 C2458 1.389 . S
C2459 C2460 1.387 . S
C2460 H2445 0.930 . S
C2460 C2455 1.390 . S
C2460 C2459 1.387 . S
H2461 C2473 0.930 . S
H2462 C2475 0.930 . S
H2463 C2476 0.930 . S
H2464 C2480 0.959 . S
H2465 C2480 0.959 . S
H2466 C2480 0.961 . S
H2467 C2481 0.960 . S
H2468 C2481 0.961 . S
H2469 C2481 0.959 . S
H2470 C2484 0.929 . S
H2471 C2485 0.931 . S
H2472 C2487 0.930 . S
C2473 H2461 0.930 . S
C2473 C2474 1.399 . S
C2473 C2478 1.399 . S
C2474 C2473 1.399 . S
C2474 C2475 1.376 . S
C2475 H2462 0.930 . S
C2475 C2474 1.376 . S
C2475 C2476 1.388 . S
C2476 H2463 0.930 . S
C2476 C2475 1.388 . S
C2476 C2477 1.390 . S
C2477 C2476 1.390 . S
C2477 C2478 1.394 . S
C2477 C2483 1.465 . S
C2478 C2473 1.399 . S
C2478 C2477 1.394 . S
C2478 C2479 1.516 . S
C2479 C2478 1.516 . S
C2479 C2480 1.502 . S
C2479 C2481 1.561 . S
C2479 C2482 1.526 . S
C2480 H2464 0.959 . S
C2480 H2465 0.959 . S
C2480 H2466 0.961 . S
C2480 C2479 1.502 . S
C2481 H2467 0.960 . S
C2481 H2468 0.961 . S
C2481 H2469 0.959 . S
C2481 C2479 1.561 . S
C2482 C2479 1.526 . S
C2482 C2483 1.396 . S
C2482 C2487 1.390 . S
C2483 C2477 1.465 . S
C2483 C2482 1.396 . S
C2483 C2484 1.399 . S
C2484 H2470 0.929 . S
C2484 C2483 1.399 . S
C2484 C2485 1.385 . S
C2485 H2471 0.931 . S
C2485 C2484 1.385 . S
C2485 C2486 1.389 . S
C2486 C2485 1.389 . S
C2486 C2487 1.387 . S
C2487 H2472 0.930 . S
C2487 C2482 1.390 . S
C2487 C2486 1.387 . S
H2488 C2500 0.930 . S
H2489 C2502 0.930 . S
H2490 C2503 0.930 . S
H2491 C2507 0.959 . S
H2492 C2507 0.959 . S
H2493 C2507 0.961 . S
H2494 C2508 0.960 . S
H2495 C2508 0.961 . S
H2496 C2508 0.959 . S
H2497 C2511 0.929 . S
H2498 C2512 0.931 . S
H2499 C2514 0.930 . S
C2500 H2488 0.930 . S
C2500 C2501 1.399 . S
C2500 C2505 1.399 . S
C2501 C2500 1.399 . S
C2501 C2502 1.376 . S
C2502 H2489 0.930 . S
C2502 C2501 1.376 . S
C2502 C2503 1.388 . S
C2503 H2490 0.930 . S
C2503 C2502 1.388 . S
C2503 C2504 1.390 . S
C2504 C2503 1.390 . S
C2504 C2505 1.394 . S
C2504 C2510 1.465 . S
C2505 C2500 1.399 . S
C2505 C2504 1.394 . S
C2505 C2506 1.516 . S
C2506 C2505 1.516 . S
C2506 C2507 1.502 . S
C2506 C2508 1.561 . S
C2506 C2509 1.526 . S
C2507 H2491 0.959 . S
C2507 H2492 0.959 . S
C2507 H2493 0.961 . S
C2507 C2506 1.502 . S
C2508 H2494 0.960 . S
C2508 H2495 0.961 . S
C2508 H2496 0.959 . S
C2508 C2506 1.561 . S
C2509 C2506 1.526 . S
C2509 C2510 1.396 . S
C2509 C2514 1.390 . S
C2510 C2504 1.465 . S
C2510 C2509 1.396 . S
C2510 C2511 1.399 . S
C2511 H2497 0.929 . S
C2511 C2510 1.399 . S
C2511 C2512 1.385 . S
C2512 H2498 0.931 . S
C2512 C2511 1.385 . S
C2512 C2513 1.389 . S
C2513 C2512 1.389 . S
C2513 C2514 1.387 . S
C2514 H2499 0.930 . S
C2514 C2509 1.390 . S
C2514 C2513 1.387 . S
H2515 C2527 0.930 . S
H2516 C2529 0.930 . S
H2517 C2530 0.930 . S
H2518 C2534 0.959 . S
H2519 C2534 0.959 . S
H2520 C2534 0.961 . S
H2521 C2535 0.960 . S
H2522 C2535 0.961 . S
H2523 C2535 0.959 . S
H2524 C2538 0.929 . S
H2525 C2539 0.931 . S
H2526 C2541 0.930 . S
C2527 H2515 0.930 . S
C2527 C2528 1.399 . S
C2527 C2532 1.399 . S
C2528 C2527 1.399 . S
C2528 C2529 1.376 . S
C2529 H2516 0.930 . S
C2529 C2528 1.376 . S
C2529 C2530 1.388 . S
C2530 H2517 0.930 . S
C2530 C2529 1.388 . S
C2530 C2531 1.390 . S
C2531 C2530 1.390 . S
C2531 C2532 1.394 . S
C2531 C2537 1.465 . S
C2532 C2527 1.399 . S
C2532 C2531 1.394 . S
C2532 C2533 1.516 . S
C2533 C2532 1.516 . S
C2533 C2534 1.502 . S
C2533 C2535 1.561 . S
C2533 C2536 1.526 . S
C2534 H2518 0.959 . S
C2534 H2519 0.959 . S
C2534 H2520 0.961 . S
C2534 C2533 1.502 . S
C2535 H2521 0.960 . S
C2535 H2522 0.961 . S
C2535 H2523 0.959 . S
C2535 C2533 1.561 . S
C2536 C2533 1.526 . S
C2536 C2537 1.396 . S
C2536 C2541 1.390 . S
C2537 C2531 1.465 . S
C2537 C2536 1.396 . S
C2537 C2538 1.399 . S
C2538 H2524 0.929 . S
C2538 C2537 1.399 . S
C2538 C2539 1.385 . S
C2539 H2525 0.931 . S
C2539 C2538 1.385 . S
C2539 C2540 1.389 . S
C2540 C2539 1.389 . S
C2540 C2541 1.387 . S
C2541 H2526 0.930 . S
C2541 C2536 1.390 . S
C2541 C2540 1.387 . S
H2542 C2554 0.930 . S
H2543 C2556 0.930 . S
H2544 C2557 0.930 . S
H2545 C2561 0.959 . S
H2546 C2561 0.959 . S
H2547 C2561 0.961 . S
H2548 C2562 0.960 . S
H2549 C2562 0.961 . S
H2550 C2562 0.959 . S
H2551 C2565 0.929 . S
H2552 C2566 0.931 . S
H2553 C2568 0.930 . S
C2554 H2542 0.930 . S
C2554 C2555 1.399 . S
C2554 C2559 1.399 . S
C2555 C2554 1.399 . S
C2555 C2556 1.376 . S
C2556 H2543 0.930 . S
C2556 C2555 1.376 . S
C2556 C2557 1.388 . S
C2557 H2544 0.930 . S
C2557 C2556 1.388 . S
C2557 C2558 1.390 . S
C2558 C2557 1.390 . S
C2558 C2559 1.394 . S
C2558 C2564 1.465 . S
C2559 C2554 1.399 . S
C2559 C2558 1.394 . S
C2559 C2560 1.516 . S
C2560 C2559 1.516 . S
C2560 C2561 1.502 . S
C2560 C2562 1.561 . S
C2560 C2563 1.526 . S
C2561 H2545 0.959 . S
C2561 H2546 0.959 . S
C2561 H2547 0.961 . S
C2561 C2560 1.502 . S
C2562 H2548 0.960 . S
C2562 H2549 0.961 . S
C2562 H2550 0.959 . S
C2562 C2560 1.561 . S
C2563 C2560 1.526 . S
C2563 C2564 1.396 . S
C2563 C2568 1.390 . S
C2564 C2558 1.465 . S
C2564 C2563 1.396 . S
C2564 C2565 1.399 . S
C2565 H2551 0.929 . S
C2565 C2564 1.399 . S
C2565 C2566 1.385 . S
C2566 H2552 0.931 . S
C2566 C2565 1.385 . S
C2566 C2567 1.389 . S
C2567 C2566 1.389 . S
C2567 C2568 1.387 . S
C2568 H2553 0.930 . S
C2568 C2563 1.390 . S
C2568 C2567 1.387 . S
H2569 C2581 0.930 . S
H2570 C2583 0.930 . S
H2571 C2584 0.930 . S
H2572 C2588 0.959 . S
H2573 C2588 0.959 . S
H2574 C2588 0.961 . S
H2575 C2589 0.960 . S
H2576 C2589 0.961 . S
H2577 C2589 0.959 . S
H2578 C2592 0.929 . S
H2579 C2593 0.931 . S
H2580 C2595 0.930 . S
C2581 H2569 0.930 . S
C2581 C2582 1.399 . S
C2581 C2586 1.399 . S
C2582 C2581 1.399 . S
C2582 C2583 1.376 . S
C2583 H2570 0.930 . S
C2583 C2582 1.376 . S
C2583 C2584 1.388 . S
C2584 H2571 0.930 . S
C2584 C2583 1.388 . S
C2584 C2585 1.390 . S
C2585 C2584 1.390 . S
C2585 C2586 1.394 . S
C2585 C2591 1.465 . S
C2586 C2581 1.399 . S
C2586 C2585 1.394 . S
C2586 C2587 1.516 . S
C2587 C2586 1.516 . S
C2587 C2588 1.502 . S
C2587 C2589 1.561 . S
C2587 C2590 1.526 . S
C2588 H2572 0.959 . S
C2588 H2573 0.959 . S
C2588 H2574 0.961 . S
C2588 C2587 1.502 . S
C2589 H2575 0.960 . S
C2589 H2576 0.961 . S
C2589 H2577 0.959 . S
C2589 C2587 1.561 . S
C2590 C2587 1.526 . S
C2590 C2591 1.396 . S
C2590 C2595 1.390 . S
C2591 C2585 1.465 . S
C2591 C2590 1.396 . S
C2591 C2592 1.399 . S
C2592 H2578 0.929 . S
C2592 C2591 1.399 . S
C2592 C2593 1.385 . S
C2593 H2579 0.931 . S
C2593 C2592 1.385 . S
C2593 C2594 1.389 . S
C2594 C2593 1.389 . S
C2594 C2595 1.387 . S
C2595 H2580 0.930 . S
C2595 C2590 1.390 . S
C2595 C2594 1.387 . S
H2596 C2608 0.930 . S
H2597 C2610 0.930 . S
H2598 C2611 0.930 . S
H2599 C2615 0.959 . S
H2600 C2615 0.959 . S
H2601 C2615 0.961 . S
H2602 C2616 0.960 . S
H2603 C2616 0.961 . S
H2604 C2616 0.959 . S
H2605 C2619 0.929 . S
H2606 C2620 0.931 1_554 S
H2607 C2622 0.930 . S
C2608 H2596 0.930 . S
C2608 C2609 1.399 . S
C2608 C2613 1.399 . S
C2609 C2608 1.399 . S
C2609 C2610 1.376 . S
C2610 H2597 0.930 . S
C2610 C2609 1.376 . S
C2610 C2611 1.388 . S
C2611 H2598 0.930 . S
C2611 C2610 1.388 . S
C2611 C2612 1.390 . S
C2612 C2611 1.390 . S
C2612 C2613 1.394 . S
C2612 C2618 1.465 . S
C2613 C2608 1.399 . S
C2613 C2612 1.394 . S
C2613 C2614 1.516 . S
C2614 C2613 1.516 . S
C2614 C2615 1.502 . S
C2614 C2616 1.561 . S
C2614 C2617 1.526 . S
C2615 H2599 0.959 . S
C2615 H2600 0.959 . S
C2615 H2601 0.961 . S
C2615 C2614 1.502 . S
C2616 H2602 0.960 . S
C2616 H2603 0.961 . S
C2616 H2604 0.959 . S
C2616 C2614 1.561 . S
C2617 C2614 1.526 . S
C2617 C2618 1.396 . S
C2617 C2622 1.390 . S
C2618 C2612 1.465 . S
C2618 C2617 1.396 . S
C2618 C2619 1.399 . S
C2619 H2605 0.929 . S
C2619 C2618 1.399 . S
C2619 C2620 1.385 . S
C2620 H2606 0.931 1_556 S
C2620 C2619 1.385 . S
C2620 C2621 1.389 . S
C2621 C2620 1.389 . S
C2621 C2622 1.387 . S
C2622 H2607 0.930 . S
C2622 C2617 1.390 . S
C2622 C2621 1.387 . S
H2623 C2635 0.930 . S
H2624 C2637 0.930 . S
H2625 C2638 0.930 . S
H2626 C2642 0.959 . S
H2627 C2642 0.959 . S
H2628 C2642 0.961 . S
H2629 C2643 0.960 . S
H2630 C2643 0.961 . S
H2631 C2643 0.959 . S
H2632 C2646 0.929 . S
H2633 C2647 0.931 . S
H2634 C2649 0.930 . S
C2635 H2623 0.930 . S
C2635 C2636 1.399 . S
C2635 C2640 1.399 . S
C2636 C2635 1.399 . S
C2636 C2637 1.376 . S
C2637 H2624 0.930 . S
C2637 C2636 1.376 . S
C2637 C2638 1.388 . S
C2638 H2625 0.930 . S
C2638 C2637 1.388 . S
C2638 C2639 1.390 . S
C2639 C2638 1.390 . S
C2639 C2640 1.394 . S
C2639 C2645 1.465 . S
C2640 C2635 1.399 . S
C2640 C2639 1.394 . S
C2640 C2641 1.516 . S
C2641 C2640 1.516 . S
C2641 C2642 1.502 . S
C2641 C2643 1.561 . S
C2641 C2644 1.526 . S
C2642 H2626 0.959 . S
C2642 H2627 0.959 . S
C2642 H2628 0.961 . S
C2642 C2641 1.502 . S
C2643 H2629 0.960 . S
C2643 H2630 0.961 . S
C2643 H2631 0.959 . S
C2643 C2641 1.561 . S
C2644 C2641 1.526 . S
C2644 C2645 1.396 . S
C2644 C2649 1.390 . S
C2645 C2639 1.465 . S
C2645 C2644 1.396 . S
C2645 C2646 1.399 . S
C2646 H2632 0.929 . S
C2646 C2645 1.399 . S
C2646 C2647 1.385 . S
C2647 H2633 0.931 . S
C2647 C2646 1.385 . S
C2647 C2648 1.389 . S
C2648 C2647 1.389 . S
C2648 C2649 1.387 . S
C2649 H2634 0.930 . S
C2649 C2644 1.390 . S
C2649 C2648 1.387 . S
H2650 C2662 0.930 . S
H2651 C2664 0.930 . S
H2652 C2665 0.930 . S
H2653 C2669 0.959 . S
H2654 C2669 0.959 . S
H2655 C2669 0.961 . S
H2656 C2670 0.960 . S
H2657 C2670 0.961 . S
H2658 C2670 0.959 . S
H2659 C2673 0.929 . S
H2660 C2674 0.931 . S
H2661 C2676 0.930 . S
C2662 H2650 0.930 . S
C2662 C2663 1.399 . S
C2662 C2667 1.399 . S
C2663 C2662 1.399 . S
C2663 C2664 1.376 . S
C2664 H2651 0.930 . S
C2664 C2663 1.376 . S
C2664 C2665 1.388 . S
C2665 H2652 0.930 . S
C2665 C2664 1.388 . S
C2665 C2666 1.390 . S
C2666 C2665 1.390 . S
C2666 C2667 1.394 . S
C2666 C2672 1.465 . S
C2667 C2662 1.399 . S
C2667 C2666 1.394 . S
C2667 C2668 1.516 . S
C2668 C2667 1.516 . S
C2668 C2669 1.502 . S
C2668 C2670 1.561 . S
C2668 C2671 1.526 . S
C2669 H2653 0.959 . S
C2669 H2654 0.959 . S
C2669 H2655 0.961 . S
C2669 C2668 1.502 . S
C2670 H2656 0.960 . S
C2670 H2657 0.961 . S
C2670 H2658 0.959 . S
C2670 C2668 1.561 . S
C2671 C2668 1.526 . S
C2671 C2672 1.396 . S
C2671 C2676 1.390 . S
C2672 C2666 1.465 . S
C2672 C2671 1.396 . S
C2672 C2673 1.399 . S
C2673 H2659 0.929 . S
C2673 C2672 1.399 . S
C2673 C2674 1.385 . S
C2674 H2660 0.931 . S
C2674 C2673 1.385 . S
C2674 C2675 1.389 . S
C2675 C2674 1.389 . S
C2675 C2676 1.387 . S
C2676 H2661 0.930 . S
C2676 C2671 1.390 . S
C2676 C2675 1.387 . S
H2677 C2689 0.930 . S
H2678 C2691 0.930 . S
H2679 C2692 0.930 . S
H2680 C2696 0.959 . S
H2681 C2696 0.959 . S
H2682 C2696 0.961 . S
H2683 C2697 0.960 . S
H2684 C2697 0.961 . S
H2685 C2697 0.959 . S
H2686 C2700 0.929 . S
H2687 C2701 0.931 . S
H2688 C2703 0.930 . S
C2689 H2677 0.930 . S
C2689 C2690 1.399 . S
C2689 C2694 1.399 . S
C2690 C2689 1.399 . S
C2690 C2691 1.376 . S
C2691 H2678 0.930 . S
C2691 C2690 1.376 . S
C2691 C2692 1.388 . S
C2692 H2679 0.930 . S
C2692 C2691 1.388 . S
C2692 C2693 1.390 . S
C2693 C2692 1.390 . S
C2693 C2694 1.394 . S
C2693 C2699 1.465 . S
C2694 C2689 1.399 . S
C2694 C2693 1.394 . S
C2694 C2695 1.516 . S
C2695 C2694 1.516 . S
C2695 C2696 1.502 . S
C2695 C2697 1.561 . S
C2695 C2698 1.526 . S
C2696 H2680 0.959 . S
C2696 H2681 0.959 . S
C2696 H2682 0.961 . S
C2696 C2695 1.502 . S
C2697 H2683 0.960 . S
C2697 H2684 0.961 . S
C2697 H2685 0.959 . S
C2697 C2695 1.561 . S
C2698 C2695 1.526 . S
C2698 C2699 1.396 . S
C2698 C2703 1.390 . S
C2699 C2693 1.465 . S
C2699 C2698 1.396 . S
C2699 C2700 1.399 . S
C2700 H2686 0.929 . S
C2700 C2699 1.399 . S
C2700 C2701 1.385 . S
C2701 H2687 0.931 . S
C2701 C2700 1.385 . S
C2701 C2702 1.389 . S
C2702 C2701 1.389 . S
C2702 C2703 1.387 . S
C2703 H2688 0.930 . S
C2703 C2698 1.390 . S
C2703 C2702 1.387 . S
H2704 C2716 0.930 . S
H2705 C2718 0.930 . S
H2706 C2719 0.930 . S
H2707 C2723 0.959 . S
H2708 C2723 0.959 . S
H2709 C2723 0.961 . S
H2710 C2724 0.960 . S
H2711 C2724 0.961 . S
H2712 C2724 0.959 . S
H2713 C2727 0.929 . S
H2714 C2728 0.931 . S
H2715 C2730 0.930 . S
C2716 H2704 0.930 . S
C2716 C2717 1.399 . S
C2716 C2721 1.399 . S
C2717 C2716 1.399 . S
C2717 C2718 1.376 . S
C2718 H2705 0.930 . S
C2718 C2717 1.376 . S
C2718 C2719 1.388 . S
C2719 H2706 0.930 . S
C2719 C2718 1.388 . S
C2719 C2720 1.390 . S
C2720 C2719 1.390 . S
C2720 C2721 1.394 . S
C2720 C2726 1.465 . S
C2721 C2716 1.399 . S
C2721 C2720 1.394 . S
C2721 C2722 1.516 . S
C2722 C2721 1.516 . S
C2722 C2723 1.502 . S
C2722 C2724 1.561 . S
C2722 C2725 1.526 . S
C2723 H2707 0.959 . S
C2723 H2708 0.959 . S
C2723 H2709 0.961 . S
C2723 C2722 1.502 . S
C2724 H2710 0.960 . S
C2724 H2711 0.961 . S
C2724 H2712 0.959 . S
C2724 C2722 1.561 . S
C2725 C2722 1.526 . S
C2725 C2726 1.396 . S
C2725 C2730 1.390 . S
C2726 C2720 1.465 . S
C2726 C2725 1.396 . S
C2726 C2727 1.399 . S
C2727 H2713 0.929 . S
C2727 C2726 1.399 . S
C2727 C2728 1.385 . S
C2728 H2714 0.931 . S
C2728 C2727 1.385 . S
C2728 C2729 1.389 . S
C2729 C2728 1.389 . S
C2729 C2730 1.387 . S
C2730 H2715 0.930 . S
C2730 C2725 1.390 . S
C2730 C2729 1.387 . S
H2731 C2743 0.930 . S
H2732 C2745 0.930 . S
H2733 C2746 0.930 . S
H2734 C2750 0.959 . S
H2735 C2750 0.959 . S
H2736 C2750 0.961 . S
H2737 C2751 0.960 . S
H2738 C2751 0.961 . S
H2739 C2751 0.959 . S
H2740 C2754 0.929 . S
H2741 C2755 0.931 . S
H2742 C2757 0.930 . S
C2743 H2731 0.930 . S
C2743 C2744 1.399 . S
C2743 C2748 1.399 . S
C2744 C2743 1.399 . S
C2744 C2745 1.376 . S
C2745 H2732 0.930 . S
C2745 C2744 1.376 . S
C2745 C2746 1.388 . S
C2746 H2733 0.930 . S
C2746 C2745 1.388 . S
C2746 C2747 1.390 . S
C2747 C2746 1.390 . S
C2747 C2748 1.394 . S
C2747 C2753 1.465 . S
C2748 C2743 1.399 . S
C2748 C2747 1.394 . S
C2748 C2749 1.516 . S
C2749 C2748 1.516 . S
C2749 C2750 1.502 . S
C2749 C2751 1.561 . S
C2749 C2752 1.526 . S
C2750 H2734 0.959 . S
C2750 H2735 0.959 . S
C2750 H2736 0.961 . S
C2750 C2749 1.502 . S
C2751 H2737 0.960 . S
C2751 H2738 0.961 . S
C2751 H2739 0.959 . S
C2751 C2749 1.561 . S
C2752 C2749 1.526 . S
C2752 C2753 1.396 . S
C2752 C2757 1.390 . S
C2753 C2747 1.465 . S
C2753 C2752 1.396 . S
C2753 C2754 1.399 . S
C2754 H2740 0.929 . S
C2754 C2753 1.399 . S
C2754 C2755 1.385 . S
C2755 H2741 0.931 . S
C2755 C2754 1.385 . S
C2755 C2756 1.389 . S
C2756 C2755 1.389 . S
C2756 C2757 1.387 . S
C2757 H2742 0.930 . S
C2757 C2752 1.390 . S
C2757 C2756 1.387 . S
H2758 C2770 0.930 . S
H2759 C2772 0.930 . S
H2760 C2773 0.930 . S
H2761 C2777 0.959 . S
H2762 C2777 0.959 . S
H2763 C2777 0.961 . S
H2764 C2778 0.960 . S
H2765 C2778 0.961 . S
H2766 C2778 0.959 . S
H2767 C2781 0.929 . S
H2768 C2782 0.931 . S
H2769 C2784 0.930 . S
C2770 H2758 0.930 . S
C2770 C2771 1.399 . S
C2770 C2775 1.399 . S
C2771 C2770 1.399 . S
C2771 C2772 1.376 . S
C2772 H2759 0.930 . S
C2772 C2771 1.376 . S
C2772 C2773 1.388 . S
C2773 H2760 0.930 . S
C2773 C2772 1.388 . S
C2773 C2774 1.390 . S
C2774 C2773 1.390 . S
C2774 C2775 1.394 . S
C2774 C2780 1.465 . S
C2775 C2770 1.399 . S
C2775 C2774 1.394 . S
C2775 C2776 1.516 . S
C2776 C2775 1.516 . S
C2776 C2777 1.502 . S
C2776 C2778 1.561 . S
C2776 C2779 1.526 . S
C2777 H2761 0.959 . S
C2777 H2762 0.959 . S
C2777 H2763 0.961 . S
C2777 C2776 1.502 . S
C2778 H2764 0.960 . S
C2778 H2765 0.961 . S
C2778 H2766 0.959 . S
C2778 C2776 1.561 . S
C2779 C2776 1.526 . S
C2779 C2780 1.396 . S
C2779 C2784 1.390 . S
C2780 C2774 1.465 . S
C2780 C2779 1.396 . S
C2780 C2781 1.399 . S
C2781 H2767 0.929 . S
C2781 C2780 1.399 . S
C2781 C2782 1.385 . S
C2782 H2768 0.931 . S
C2782 C2781 1.385 . S
C2782 C2783 1.389 . S
C2783 C2782 1.389 . S
C2783 C2784 1.387 . S
C2784 H2769 0.930 . S
C2784 C2779 1.390 . S
C2784 C2783 1.387 . S
H2785 C2797 0.930 . S
H2786 C2799 0.930 . S
H2787 C2800 0.930 . S
H2788 C2804 0.959 . S
H2789 C2804 0.959 . S
H2790 C2804 0.961 . S
H2791 C2805 0.960 . S
H2792 C2805 0.961 . S
H2793 C2805 0.959 . S
H2794 C2808 0.929 . S
H2795 C2809 0.931 . S
H2796 C2811 0.930 . S
C2797 H2785 0.930 . S
C2797 C2798 1.399 . S
C2797 C2802 1.399 . S
C2798 C2797 1.399 . S
C2798 C2799 1.376 . S
C2799 H2786 0.930 . S
C2799 C2798 1.376 . S
C2799 C2800 1.388 . S
C2800 H2787 0.930 . S
C2800 C2799 1.388 . S
C2800 C2801 1.390 . S
C2801 C2800 1.390 . S
C2801 C2802 1.394 . S
C2801 C2807 1.465 . S
C2802 C2797 1.399 . S
C2802 C2801 1.394 . S
C2802 C2803 1.516 . S
C2803 C2802 1.516 . S
C2803 C2804 1.502 1_565 S
C2803 C2805 1.561 . S
C2803 C2806 1.526 . S
C2804 H2788 0.959 . S
C2804 H2789 0.959 . S
C2804 H2790 0.961 . S
C2804 C2803 1.502 1_545 S
C2805 H2791 0.960 . S
C2805 H2792 0.961 . S
C2805 H2793 0.959 . S
C2805 C2803 1.561 . S
C2806 C2803 1.526 . S
C2806 C2807 1.396 . S
C2806 C2811 1.390 1_565 S
C2807 C2801 1.465 . S
C2807 C2806 1.396 . S
C2807 C2808 1.399 . S
C2808 H2794 0.929 . S
C2808 C2807 1.399 . S
C2808 C2809 1.385 . S
C2809 H2795 0.931 . S
C2809 C2808 1.385 . S
C2809 C2810 1.389 1_565 S
C2810 C2809 1.389 1_545 S
C2810 C2811 1.387 . S
C2811 H2796 0.930 . S
C2811 C2806 1.390 1_545 S
C2811 C2810 1.387 . S
H2812 C2824 0.930 . S
H2813 C2826 0.930 . S
H2814 C2827 0.930 . S
H2815 C2831 0.959 . S
H2816 C2831 0.959 . S
H2817 C2831 0.961 . S
H2818 C2832 0.960 . S
H2819 C2832 0.961 . S
H2820 C2832 0.959 . S
H2821 C2835 0.929 . S
H2822 C2836 0.931 . S
H2823 C2838 0.930 . S
C2824 H2812 0.930 . S
C2824 C2825 1.399 . S
C2824 C2829 1.399 . S
C2825 C2824 1.399 . S
C2825 C2826 1.376 . S
C2826 H2813 0.930 . S
C2826 C2825 1.376 . S
C2826 C2827 1.388 . S
C2827 H2814 0.930 . S
C2827 C2826 1.388 . S
C2827 C2828 1.390 . S
C2828 C2827 1.390 . S
C2828 C2829 1.394 . S
C2828 C2834 1.465 . S
C2829 C2824 1.399 . S
C2829 C2828 1.394 . S
C2829 C2830 1.516 . S
C2830 C2829 1.516 . S
C2830 C2831 1.502 . S
C2830 C2832 1.561 . S
C2830 C2833 1.526 . S
C2831 H2815 0.959 . S
C2831 H2816 0.959 . S
C2831 H2817 0.961 . S
C2831 C2830 1.502 . S
C2832 H2818 0.960 . S
C2832 H2819 0.961 . S
C2832 H2820 0.959 . S
C2832 C2830 1.561 . S
C2833 C2830 1.526 . S
C2833 C2834 1.396 . S
C2833 C2838 1.390 . S
C2834 C2828 1.465 . S
C2834 C2833 1.396 . S
C2834 C2835 1.399 . S
C2835 H2821 0.929 . S
C2835 C2834 1.399 . S
C2835 C2836 1.385 . S
C2836 H2822 0.931 . S
C2836 C2835 1.385 . S
C2836 C2837 1.389 . S
C2837 C2836 1.389 . S
C2837 C2838 1.387 . S
C2838 H2823 0.930 . S
C2838 C2833 1.390 . S
C2838 C2837 1.387 . S
H2839 C2851 0.930 . S
H2840 C2853 0.930 . S
H2841 C2854 0.930 . S
H2842 C2858 0.959 . S
H2843 C2858 0.959 . S
H2844 C2858 0.961 . S
H2845 C2859 0.960 1_556 S
H2846 C2859 0.961 . S
H2847 C2859 0.959 . S
H2848 C2862 0.929 . S
H2849 C2863 0.931 . S
H2850 C2865 0.930 . S
C2851 H2839 0.930 . S
C2851 C2852 1.399 . S
C2851 C2856 1.399 . S
C2852 C2851 1.399 . S
C2852 C2853 1.376 . S
C2853 H2840 0.930 . S
C2853 C2852 1.376 . S
C2853 C2854 1.388 . S
C2854 H2841 0.930 . S
C2854 C2853 1.388 . S
C2854 C2855 1.390 . S
C2855 C2854 1.390 . S
C2855 C2856 1.394 . S
C2855 C2861 1.465 . S
C2856 C2851 1.399 . S
C2856 C2855 1.394 . S
C2856 C2857 1.516 . S
C2857 C2856 1.516 . S
C2857 C2858 1.502 . S
C2857 C2859 1.561 . S
C2857 C2860 1.526 . S
C2858 H2842 0.959 . S
C2858 H2843 0.959 . S
C2858 H2844 0.961 . S
C2858 C2857 1.502 . S
C2859 H2845 0.960 1_554 S
C2859 H2846 0.961 . S
C2859 H2847 0.959 . S
C2859 C2857 1.561 . S
C2860 C2857 1.526 . S
C2860 C2861 1.396 . S
C2860 C2865 1.390 . S
C2861 C2855 1.465 . S
C2861 C2860 1.396 . S
C2861 C2862 1.399 . S
C2862 H2848 0.929 . S
C2862 C2861 1.399 . S
C2862 C2863 1.385 . S
C2863 H2849 0.931 . S
C2863 C2862 1.385 . S
C2863 C2864 1.389 . S
C2864 C2863 1.389 . S
C2864 C2865 1.387 . S
C2865 H2850 0.930 . S
C2865 C2860 1.390 . S
C2865 C2864 1.387 . S
H2866 C2878 0.930 . S
H2867 C2880 0.930 . S
H2868 C2881 0.930 . S
H2869 C2885 0.959 . S
H2870 C2885 0.959 . S
H2871 C2885 0.961 . S
H2872 C2886 0.960 . S
H2873 C2886 0.961 . S
H2874 C2886 0.959 . S
H2875 C2889 0.929 . S
H2876 C2890 0.931 . S
H2877 C2892 0.930 . S
C2878 H2866 0.930 . S
C2878 C2879 1.399 . S
C2878 C2883 1.399 . S
C2879 C2878 1.399 . S
C2879 C2880 1.376 . S
C2880 H2867 0.930 . S
C2880 C2879 1.376 . S
C2880 C2881 1.388 . S
C2881 H2868 0.930 . S
C2881 C2880 1.388 . S
C2881 C2882 1.390 . S
C2882 C2881 1.390 . S
C2882 C2883 1.394 . S
C2882 C2888 1.465 . S
C2883 C2878 1.399 . S
C2883 C2882 1.394 . S
C2883 C2884 1.516 . S
C2884 C2883 1.516 . S
C2884 C2885 1.502 . S
C2884 C2886 1.561 . S
C2884 C2887 1.526 . S
C2885 H2869 0.959 . S
C2885 H2870 0.959 . S
C2885 H2871 0.961 . S
C2885 C2884 1.502 . S
C2886 H2872 0.960 . S
C2886 H2873 0.961 . S
C2886 H2874 0.959 . S
C2886 C2884 1.561 . S
C2887 C2884 1.526 . S
C2887 C2888 1.396 . S
C2887 C2892 1.390 . S
C2888 C2882 1.465 . S
C2888 C2887 1.396 . S
C2888 C2889 1.399 . S
C2889 H2875 0.929 . S
C2889 C2888 1.399 . S
C2889 C2890 1.385 . S
C2890 H2876 0.931 . S
C2890 C2889 1.385 . S
C2890 C2891 1.389 . S
C2891 C2890 1.389 . S
C2891 C2892 1.387 . S
C2892 H2877 0.930 . S
C2892 C2887 1.390 . S
C2892 C2891 1.387 . S
H2893 C2905 0.930 . S
H2894 C2907 0.930 . S
H2895 C2908 0.930 . S
H2896 C2912 0.959 . S
H2897 C2912 0.959 . S
H2898 C2912 0.961 . S
H2899 C2913 0.960 . S
H2900 C2913 0.961 . S
H2901 C2913 0.959 . S
H2902 C2916 0.929 1_545 S
H2903 C2917 0.931 . S
H2904 C2919 0.930 . S
C2905 H2893 0.930 . S
C2905 C2906 1.399 . S
C2905 C2910 1.399 . S
C2906 C2905 1.399 . S
C2906 C2907 1.376 . S
C2907 H2894 0.930 . S
C2907 C2906 1.376 . S
C2907 C2908 1.388 . S
C2908 H2895 0.930 . S
C2908 C2907 1.388 . S
C2908 C2909 1.390 . S
C2909 C2908 1.390 . S
C2909 C2910 1.394 . S
C2909 C2915 1.465 . S
C2910 C2905 1.399 . S
C2910 C2909 1.394 . S
C2910 C2911 1.516 . S
C2911 C2910 1.516 . S
C2911 C2912 1.502 . S
C2911 C2913 1.561 1_545 S
C2911 C2914 1.526 1_545 S
C2912 H2896 0.959 . S
C2912 H2897 0.959 . S
C2912 H2898 0.961 . S
C2912 C2911 1.502 . S
C2913 H2899 0.960 . S
C2913 H2900 0.961 . S
C2913 H2901 0.959 . S
C2913 C2911 1.561 1_565 S
C2914 C2911 1.526 1_565 S
C2914 C2915 1.396 1_565 S
C2914 C2919 1.390 . S
C2915 C2909 1.465 . S
C2915 C2914 1.396 1_545 S
C2915 C2916 1.399 1_545 S
C2916 H2902 0.929 1_565 S
C2916 C2915 1.399 1_565 S
C2916 C2917 1.385 . S
C2917 H2903 0.931 . S
C2917 C2916 1.385 . S
C2917 C2918 1.389 . S
C2918 C2917 1.389 . S
C2918 C2919 1.387 . S
C2919 H2904 0.930 . S
C2919 C2914 1.390 . S
C2919 C2918 1.387 . S
H2920 C2932 0.930 . S
H2921 C2934 0.930 . S
H2922 C2935 0.930 . S
H2923 C2939 0.959 . S
H2924 C2939 0.959 . S
H2925 C2939 0.961 . S
H2926 C2940 0.960 . S
H2927 C2940 0.961 . S
H2928 C2940 0.959 . S
H2929 C2943 0.929 . S
H2930 C2944 0.931 . S
H2931 C2946 0.930 . S
C2932 H2920 0.930 . S
C2932 C2933 1.399 . S
C2932 C2937 1.399 . S
C2933 C2932 1.399 . S
C2933 C2934 1.376 . S
C2934 H2921 0.930 . S
C2934 C2933 1.376 . S
C2934 C2935 1.388 . S
C2935 H2922 0.930 . S
C2935 C2934 1.388 . S
C2935 C2936 1.390 . S
C2936 C2935 1.390 . S
C2936 C2937 1.394 . S
C2936 C2942 1.465 . S
C2937 C2932 1.399 . S
C2937 C2936 1.394 . S
C2937 C2938 1.516 . S
C2938 C2937 1.516 . S
C2938 C2939 1.502 . S
C2938 C2940 1.561 . S
C2938 C2941 1.526 . S
C2939 H2923 0.959 . S
C2939 H2924 0.959 . S
C2939 H2925 0.961 . S
C2939 C2938 1.502 . S
C2940 H2926 0.960 . S
C2940 H2927 0.961 . S
C2940 H2928 0.959 . S
C2940 C2938 1.561 . S
C2941 C2938 1.526 . S
C2941 C2942 1.396 . S
C2941 C2946 1.390 . S
C2942 C2936 1.465 . S
C2942 C2941 1.396 . S
C2942 C2943 1.399 . S
C2943 H2929 0.929 . S
C2943 C2942 1.399 . S
C2943 C2944 1.385 . S
C2944 H2930 0.931 . S
C2944 C2943 1.385 . S
C2944 C2945 1.389 . S
C2945 C2944 1.389 . S
C2945 C2946 1.387 . S
C2946 H2931 0.930 . S
C2946 C2941 1.390 . S
C2946 C2945 1.387 . S
H2947 C2959 0.930 . S
H2948 C2961 0.930 . S
H2949 C2962 0.930 . S
H2950 C2966 0.959 . S
H2951 C2966 0.959 . S
H2952 C2966 0.961 . S
H2953 C2967 0.960 . S
H2954 C2967 0.961 . S
H2955 C2967 0.959 . S
H2956 C2970 0.929 . S
H2957 C2971 0.931 . S
H2958 C2973 0.930 . S
C2959 H2947 0.930 . S
C2959 C2960 1.399 . S
C2959 C2964 1.399 . S
C2960 C2959 1.399 . S
C2960 C2961 1.376 . S
C2961 H2948 0.930 . S
C2961 C2960 1.376 . S
C2961 C2962 1.388 . S
C2962 H2949 0.930 . S
C2962 C2961 1.388 . S
C2962 C2963 1.390 . S
C2963 C2962 1.390 . S
C2963 C2964 1.394 . S
C2963 C2969 1.465 . S
C2964 C2959 1.399 . S
C2964 C2963 1.394 . S
C2964 C2965 1.516 . S
C2965 C2964 1.516 . S
C2965 C2966 1.502 . S
C2965 C2967 1.561 . S
C2965 C2968 1.526 . S
C2966 H2950 0.959 . S
C2966 H2951 0.959 . S
C2966 H2952 0.961 . S
C2966 C2965 1.502 . S
C2967 H2953 0.960 . S
C2967 H2954 0.961 . S
C2967 H2955 0.959 . S
C2967 C2965 1.561 . S
C2968 C2965 1.526 . S
C2968 C2969 1.396 . S
C2968 C2973 1.390 . S
C2969 C2963 1.465 . S
C2969 C2968 1.396 . S
C2969 C2970 1.399 . S
C2970 H2956 0.929 . S
C2970 C2969 1.399 . S
C2970 C2971 1.385 . S
C2971 H2957 0.931 . S
C2971 C2970 1.385 . S
C2971 C2972 1.389 . S
C2972 C2971 1.389 . S
C2972 C2973 1.387 . S
C2973 H2958 0.930 . S
C2973 C2968 1.390 . S
C2973 C2972 1.387 . S
H2974 C2986 0.930 . S
H2975 C2988 0.930 1_655 S
H2976 C2989 0.930 1_655 S
H2977 C2993 0.959 . S
H2978 C2993 0.959 . S
H2979 C2993 0.961 . S
H2980 C2994 0.960 . S
H2981 C2994 0.961 . S
H2982 C2994 0.959 . S
H2983 C2997 0.929 1_655 S
H2984 C2998 0.931 . S
H2985 C3000 0.930 . S
C2986 H2974 0.930 . S
C2986 C2987 1.399 . S
C2986 C2991 1.399 . S
C2987 C2986 1.399 . S
C2987 C2988 1.376 . S
C2988 H2975 0.930 1_455 S
C2988 C2987 1.376 . S
C2988 C2989 1.388 . S
C2989 H2976 0.930 1_455 S
C2989 C2988 1.388 . S
C2989 C2990 1.390 . S
C2990 C2989 1.390 . S
C2990 C2991 1.394 . S
C2990 C2996 1.465 . S
C2991 C2986 1.399 . S
C2991 C2990 1.394 . S
C2991 C2992 1.516 . S
C2992 C2991 1.516 . S
C2992 C2993 1.502 . S
C2992 C2994 1.561 . S
C2992 C2995 1.526 . S
C2993 H2977 0.959 . S
C2993 H2978 0.959 . S
C2993 H2979 0.961 . S
C2993 C2992 1.502 . S
C2994 H2980 0.960 . S
C2994 H2981 0.961 . S
C2994 H2982 0.959 . S
C2994 C2992 1.561 . S
C2995 C2992 1.526 . S
C2995 C2996 1.396 . S
C2995 C3000 1.390 . S
C2996 C2990 1.465 . S
C2996 C2995 1.396 . S
C2996 C2997 1.399 . S
C2997 H2983 0.929 1_455 S
C2997 C2996 1.399 . S
C2997 C2998 1.385 . S
C2998 H2984 0.931 . S
C2998 C2997 1.385 . S
C2998 C2999 1.389 . S
C2999 C2998 1.389 . S
C2999 C3000 1.387 . S
C3000 H2985 0.930 . S
C3000 C2995 1.390 . S
C3000 C2999 1.387 . S
H3001 C3013 0.930 . S
H3002 C3015 0.930 . S
H3003 C3016 0.930 . S
H3004 C3020 0.959 . S
H3005 C3020 0.959 . S
H3006 C3020 0.961 . S
H3007 C3021 0.960 . S
H3008 C3021 0.961 . S
H3009 C3021 0.959 . S
H3010 C3024 0.929 . S
H3011 C3025 0.931 . S
H3012 C3027 0.930 . S
C3013 H3001 0.930 . S
C3013 C3014 1.399 . S
C3013 C3018 1.399 . S
C3014 C3013 1.399 . S
C3014 C3015 1.376 . S
C3015 H3002 0.930 . S
C3015 C3014 1.376 . S
C3015 C3016 1.388 . S
C3016 H3003 0.930 . S
C3016 C3015 1.388 . S
C3016 C3017 1.390 . S
C3017 C3016 1.390 . S
C3017 C3018 1.394 . S
C3017 C3023 1.465 . S
C3018 C3013 1.399 . S
C3018 C3017 1.394 . S
C3018 C3019 1.516 . S
C3019 C3018 1.516 . S
C3019 C3020 1.502 . S
C3019 C3021 1.561 . S
C3019 C3022 1.526 . S
C3020 H3004 0.959 . S
C3020 H3005 0.959 . S
C3020 H3006 0.961 . S
C3020 C3019 1.502 . S
C3021 H3007 0.960 . S
C3021 H3008 0.961 . S
C3021 H3009 0.959 . S
C3021 C3019 1.561 . S
C3022 C3019 1.526 . S
C3022 C3023 1.396 . S
C3022 C3027 1.390 . S
C3023 C3017 1.465 . S
C3023 C3022 1.396 . S
C3023 C3024 1.399 . S
C3024 H3010 0.929 . S
C3024 C3023 1.399 . S
C3024 C3025 1.385 . S
C3025 H3011 0.931 . S
C3025 C3024 1.385 . S
C3025 C3026 1.389 . S
C3026 C3025 1.389 . S
C3026 C3027 1.387 . S
C3027 H3012 0.930 . S
C3027 C3022 1.390 . S
C3027 C3026 1.387 . S
H3028 C3040 0.930 . S
H3029 C3042 0.930 1_556 S
H3030 C3043 0.930 . S
H3031 C3047 0.959 . S
H3032 C3047 0.959 . S
H3033 C3047 0.961 . S
H3034 C3048 0.960 . S
H3035 C3048 0.961 . S
H3036 C3048 0.959 . S
H3037 C3051 0.929 1_556 S
H3038 C3052 0.931 1_556 S
H3039 C3054 0.930 . S
C3040 H3028 0.930 . S
C3040 C3041 1.399 . S
C3040 C3045 1.399 . S
C3041 C3040 1.399 . S
C3041 C3042 1.376 . S
C3042 H3029 0.930 1_554 S
C3042 C3041 1.376 . S
C3042 C3043 1.388 1_554 S
C3043 H3030 0.930 . S
C3043 C3042 1.388 1_556 S
C3043 C3044 1.390 1_556 S
C3044 C3043 1.390 1_554 S
C3044 C3045 1.394 . S
C3044 C3050 1.465 . S
C3045 C3040 1.399 . S
C3045 C3044 1.394 . S
C3045 C3046 1.516 . S
C3046 C3045 1.516 . S
C3046 C3047 1.502 . S
C3046 C3048 1.561 . S
C3046 C3049 1.526 . S
C3047 H3031 0.959 . S
C3047 H3032 0.959 . S
C3047 H3033 0.961 . S
C3047 C3046 1.502 . S
C3048 H3034 0.960 . S
C3048 H3035 0.961 . S
C3048 H3036 0.959 . S
C3048 C3046 1.561 . S
C3049 C3046 1.526 . S
C3049 C3050 1.396 . S
C3049 C3054 1.390 . S
C3050 C3044 1.465 . S
C3050 C3049 1.396 . S
C3050 C3051 1.399 . S
C3051 H3037 0.929 1_554 S
C3051 C3050 1.399 . S
C3051 C3052 1.385 . S
C3052 H3038 0.931 1_554 S
C3052 C3051 1.385 . S
C3052 C3053 1.389 . S
C3053 C3052 1.389 . S
C3053 C3054 1.387 . S
C3054 H3039 0.930 . S
C3054 C3049 1.390 . S
C3054 C3053 1.387 . S
H3055 C3067 0.930 . S
H3056 C3069 0.930 . S
H3057 C3070 0.930 . S
H3058 C3074 0.959 . S
H3059 C3074 0.959 . S
H3060 C3074 0.961 . S
H3061 C3075 0.960 . S
H3062 C3075 0.961 . S
H3063 C3075 0.959 . S
H3064 C3078 0.929 . S
H3065 C3079 0.931 . S
H3066 C3081 0.930 . S
C3067 H3055 0.930 . S
C3067 C3068 1.399 . S
C3067 C3072 1.399 . S
C3068 C3067 1.399 . S
C3068 C3069 1.376 . S
C3069 H3056 0.930 . S
C3069 C3068 1.376 . S
C3069 C3070 1.388 . S
C3070 H3057 0.930 . S
C3070 C3069 1.388 . S
C3070 C3071 1.390 . S
C3071 C3070 1.390 . S
C3071 C3072 1.394 . S
C3071 C3077 1.465 . S
C3072 C3067 1.399 . S
C3072 C3071 1.394 . S
C3072 C3073 1.516 . S
C3073 C3072 1.516 . S
C3073 C3074 1.502 . S
C3073 C3075 1.561 . S
C3073 C3076 1.526 . S
C3074 H3058 0.959 . S
C3074 H3059 0.959 . S
C3074 H3060 0.961 . S
C3074 C3073 1.502 . S
C3075 H3061 0.960 . S
C3075 H3062 0.961 . S
C3075 H3063 0.959 . S
C3075 C3073 1.561 . S
C3076 C3073 1.526 . S
C3076 C3077 1.396 . S
C3076 C3081 1.390 . S
C3077 C3071 1.465 . S
C3077 C3076 1.396 . S
C3077 C3078 1.399 . S
C3078 H3064 0.929 . S
C3078 C3077 1.399 . S
C3078 C3079 1.385 . S
C3079 H3065 0.931 . S
C3079 C3078 1.385 . S
C3079 C3080 1.389 . S
C3080 C3079 1.389 . S
C3080 C3081 1.387 . S
C3081 H3066 0.930 . S
C3081 C3076 1.390 . S
C3081 C3080 1.387 . S
H3082 C3094 0.930 . S
H3083 C3096 0.930 . S
H3084 C3097 0.930 . S
H3085 C3101 0.959 . S
H3086 C3101 0.959 . S
H3087 C3101 0.961 . S
H3088 C3102 0.960 . S
H3089 C3102 0.961 . S
H3090 C3102 0.959 . S
H3091 C3105 0.929 . S
H3092 C3106 0.931 . S
H3093 C3108 0.930 . S
C3094 H3082 0.930 . S
C3094 C3095 1.399 . S
C3094 C3099 1.399 . S
C3095 C3094 1.399 . S
C3095 C3096 1.376 . S
C3096 H3083 0.930 . S
C3096 C3095 1.376 . S
C3096 C3097 1.388 . S
C3097 H3084 0.930 . S
C3097 C3096 1.388 . S
C3097 C3098 1.390 . S
C3098 C3097 1.390 . S
C3098 C3099 1.394 . S
C3098 C3104 1.465 . S
C3099 C3094 1.399 . S
C3099 C3098 1.394 . S
C3099 C3100 1.516 . S
C3100 C3099 1.516 . S
C3100 C3101 1.502 . S
C3100 C3102 1.561 . S
C3100 C3103 1.526 . S
C3101 H3085 0.959 . S
C3101 H3086 0.959 . S
C3101 H3087 0.961 . S
C3101 C3100 1.502 . S
C3102 H3088 0.960 . S
C3102 H3089 0.961 . S
C3102 H3090 0.959 . S
C3102 C3100 1.561 . S
C3103 C3100 1.526 . S
C3103 C3104 1.396 . S
C3103 C3108 1.390 . S
C3104 C3098 1.465 . S
C3104 C3103 1.396 . S
C3104 C3105 1.399 . S
C3105 H3091 0.929 . S
C3105 C3104 1.399 . S
C3105 C3106 1.385 . S
C3106 H3092 0.931 . S
C3106 C3105 1.385 . S
C3106 C3107 1.389 . S
C3107 C3106 1.389 . S
C3107 C3108 1.387 . S
C3108 H3093 0.930 . S
C3108 C3103 1.390 . S
C3108 C3107 1.387 . S
H3109 C3121 0.930 . S
H3110 C3123 0.930 . S
H3111 C3124 0.930 . S
H3112 C3128 0.959 . S
H3113 C3128 0.959 . S
H3114 C3128 0.961 . S
H3115 C3129 0.960 . S
H3116 C3129 0.961 . S
H3117 C3129 0.959 . S
H3118 C3132 0.929 . S
H3119 C3133 0.931 . S
H3120 C3135 0.930 . S
C3121 H3109 0.930 . S
C3121 C3122 1.399 . S
C3121 C3126 1.399 . S
C3122 C3121 1.399 . S
C3122 C3123 1.376 . S
C3123 H3110 0.930 . S
C3123 C3122 1.376 . S
C3123 C3124 1.388 . S
C3124 H3111 0.930 . S
C3124 C3123 1.388 . S
C3124 C3125 1.390 . S
C3125 C3124 1.390 . S
C3125 C3126 1.394 . S
C3125 C3131 1.465 . S
C3126 C3121 1.399 . S
C3126 C3125 1.394 . S
C3126 C3127 1.516 . S
C3127 C3126 1.516 . S
C3127 C3128 1.502 . S
C3127 C3129 1.561 . S
C3127 C3130 1.526 . S
C3128 H3112 0.959 . S
C3128 H3113 0.959 . S
C3128 H3114 0.961 . S
C3128 C3127 1.502 . S
C3129 H3115 0.960 . S
C3129 H3116 0.961 . S
C3129 H3117 0.959 . S
C3129 C3127 1.561 . S
C3130 C3127 1.526 . S
C3130 C3131 1.396 . S
C3130 C3135 1.390 . S
C3131 C3125 1.465 . S
C3131 C3130 1.396 . S
C3131 C3132 1.399 . S
C3132 H3118 0.929 . S
C3132 C3131 1.399 . S
C3132 C3133 1.385 . S
C3133 H3119 0.931 . S
C3133 C3132 1.385 . S
C3133 C3134 1.389 . S
C3134 C3133 1.389 . S
C3134 C3135 1.387 . S
C3135 H3120 0.930 . S
C3135 C3130 1.390 . S
C3135 C3134 1.387 . S
H3136 C3148 0.930 . S
H3137 C3150 0.930 . S
H3138 C3151 0.930 . S
H3139 C3155 0.959 . S
H3140 C3155 0.959 . S
H3141 C3155 0.961 . S
H3142 C3156 0.960 . S
H3143 C3156 0.961 . S
H3144 C3156 0.959 . S
H3145 C3159 0.929 . S
H3146 C3160 0.931 . S
H3147 C3162 0.930 . S
C3148 H3136 0.930 . S
C3148 C3149 1.399 . S
C3148 C3153 1.399 . S
C3149 C3148 1.399 . S
C3149 C3150 1.376 . S
C3150 H3137 0.930 . S
C3150 C3149 1.376 . S
C3150 C3151 1.388 . S
C3151 H3138 0.930 . S
C3151 C3150 1.388 . S
C3151 C3152 1.390 . S
C3152 C3151 1.390 . S
C3152 C3153 1.394 . S
C3152 C3158 1.465 . S
C3153 C3148 1.399 . S
C3153 C3152 1.394 . S
C3153 C3154 1.516 . S
C3154 C3153 1.516 . S
C3154 C3155 1.502 . S
C3154 C3156 1.561 . S
C3154 C3157 1.526 . S
C3155 H3139 0.959 . S
C3155 H3140 0.959 . S
C3155 H3141 0.961 . S
C3155 C3154 1.502 . S
C3156 H3142 0.960 . S
C3156 H3143 0.961 . S
C3156 H3144 0.959 . S
C3156 C3154 1.561 . S
C3157 C3154 1.526 . S
C3157 C3158 1.396 . S
C3157 C3162 1.390 . S
C3158 C3152 1.465 . S
C3158 C3157 1.396 . S
C3158 C3159 1.399 . S
C3159 H3145 0.929 . S
C3159 C3158 1.399 . S
C3159 C3160 1.385 . S
C3160 H3146 0.931 . S
C3160 C3159 1.385 . S
C3160 C3161 1.389 . S
C3161 C3160 1.389 . S
C3161 C3162 1.387 . S
C3162 H3147 0.930 . S
C3162 C3157 1.390 . S
C3162 C3161 1.387 . S
H3163 C3175 0.930 . S
H3164 C3177 0.930 . S
H3165 C3178 0.930 . S
H3166 C3182 0.959 . S
H3167 C3182 0.959 . S
H3168 C3182 0.961 . S
H3169 C3183 0.960 . S
H3170 C3183 0.961 . S
H3171 C3183 0.959 . S
H3172 C3186 0.929 . S
H3173 C3187 0.931 . S
H3174 C3189 0.930 . S
C3175 H3163 0.930 . S
C3175 C3176 1.399 . S
C3175 C3180 1.399 . S
C3176 C3175 1.399 . S
C3176 C3177 1.376 . S
C3177 H3164 0.930 . S
C3177 C3176 1.376 . S
C3177 C3178 1.388 . S
C3178 H3165 0.930 . S
C3178 C3177 1.388 . S
C3178 C3179 1.390 . S
C3179 C3178 1.390 . S
C3179 C3180 1.394 . S
C3179 C3185 1.465 . S
C3180 C3175 1.399 . S
C3180 C3179 1.394 . S
C3180 C3181 1.516 . S
C3181 C3180 1.516 . S
C3181 C3182 1.502 . S
C3181 C3183 1.561 . S
C3181 C3184 1.526 . S
C3182 H3166 0.959 . S
C3182 H3167 0.959 . S
C3182 H3168 0.961 . S
C3182 C3181 1.502 . S
C3183 H3169 0.960 . S
C3183 H3170 0.961 . S
C3183 H3171 0.959 . S
C3183 C3181 1.561 . S
C3184 C3181 1.526 . S
C3184 C3185 1.396 . S
C3184 C3189 1.390 . S
C3185 C3179 1.465 . S
C3185 C3184 1.396 . S
C3185 C3186 1.399 . S
C3186 H3172 0.929 . S
C3186 C3185 1.399 . S
C3186 C3187 1.385 . S
C3187 H3173 0.931 . S
C3187 C3186 1.385 . S
C3187 C3188 1.389 . S
C3188 C3187 1.389 . S
C3188 C3189 1.387 . S
C3189 H3174 0.930 . S
C3189 C3184 1.390 . S
C3189 C3188 1.387 . S
H3190 C3202 0.930 1_455 S
H3191 C3204 0.930 . S
H3192 C3205 0.930 . S
H3193 C3209 0.959 . S
H3194 C3209 0.959 . S
H3195 C3209 0.961 . S
H3196 C3210 0.960 . S
H3197 C3210 0.961 . S
H3198 C3210 0.959 . S
H3199 C3213 0.929 . S
H3200 C3214 0.931 . S
H3201 C3216 0.930 . S
C3202 H3190 0.930 1_655 S
C3202 C3203 1.399 . S
C3202 C3207 1.399 1_655 S
C3203 C3202 1.399 . S
C3203 C3204 1.376 . S
C3204 H3191 0.930 . S
C3204 C3203 1.376 . S
C3204 C3205 1.388 . S
C3205 H3192 0.930 . S
C3205 C3204 1.388 . S
C3205 C3206 1.390 . S
C3206 C3205 1.390 . S
C3206 C3207 1.394 1_655 S
C3206 C3212 1.465 . S
C3207 C3202 1.399 1_455 S
C3207 C3206 1.394 1_455 S
C3207 C3208 1.516 . S
C3208 C3207 1.516 . S
C3208 C3209 1.502 . S
C3208 C3210 1.561 . S
C3208 C3211 1.526 . S
C3209 H3193 0.959 . S
C3209 H3194 0.959 . S
C3209 H3195 0.961 . S
C3209 C3208 1.502 . S
C3210 H3196 0.960 . S
C3210 H3197 0.961 . S
C3210 H3198 0.959 . S
C3210 C3208 1.561 . S
C3211 C3208 1.526 . S
C3211 C3212 1.396 1_455 S
C3211 C3216 1.390 . S
C3212 C3206 1.465 . S
C3212 C3211 1.396 1_655 S
C3212 C3213 1.399 . S
C3213 H3199 0.929 . S
C3213 C3212 1.399 . S
C3213 C3214 1.385 . S
C3214 H3200 0.931 . S
C3214 C3213 1.385 . S
C3214 C3215 1.389 1_655 S
C3215 C3214 1.389 1_455 S
C3215 C3216 1.387 . S
C3216 H3201 0.930 . S
C3216 C3211 1.390 . S
C3216 C3215 1.387 . S
H3217 C3229 0.930 . S
H3218 C3231 0.930 . S
H3219 C3232 0.930 . S
H3220 C3236 0.959 . S
H3221 C3236 0.959 . S
H3222 C3236 0.961 . S
H3223 C3237 0.960 . S
H3224 C3237 0.961 . S
H3225 C3237 0.959 . S
H3226 C3240 0.929 . S
H3227 C3241 0.931 . S
H3228 C3243 0.930 . S
C3229 H3217 0.930 . S
C3229 C3230 1.399 . S
C3229 C3234 1.399 . S
C3230 C3229 1.399 . S
C3230 C3231 1.376 . S
C3231 H3218 0.930 . S
C3231 C3230 1.376 . S
C3231 C3232 1.388 . S
C3232 H3219 0.930 . S
C3232 C3231 1.388 . S
C3232 C3233 1.390 . S
C3233 C3232 1.390 . S
C3233 C3234 1.394 . S
C3233 C3239 1.465 . S
C3234 C3229 1.399 . S
C3234 C3233 1.394 . S
C3234 C3235 1.516 . S
C3235 C3234 1.516 . S
C3235 C3236 1.502 . S
C3235 C3237 1.561 . S
C3235 C3238 1.526 . S
C3236 H3220 0.959 . S
C3236 H3221 0.959 . S
C3236 H3222 0.961 . S
C3236 C3235 1.502 . S
C3237 H3223 0.960 . S
C3237 H3224 0.961 . S
C3237 H3225 0.959 . S
C3237 C3235 1.561 . S
C3238 C3235 1.526 . S
C3238 C3239 1.396 . S
C3238 C3243 1.390 . S
C3239 C3233 1.465 . S
C3239 C3238 1.396 . S
C3239 C3240 1.399 . S
C3240 H3226 0.929 . S
C3240 C3239 1.399 . S
C3240 C3241 1.385 . S
C3241 H3227 0.931 . S
C3241 C3240 1.385 . S
C3241 C3242 1.389 . S
C3242 C3241 1.389 . S
C3242 C3243 1.387 . S
C3243 H3228 0.930 . S
C3243 C3238 1.390 . S
C3243 C3242 1.387 . S
H3244 C3256 0.930 . S
H3245 C3258 0.930 . S
H3246 C3259 0.930 . S
H3247 C3263 0.959 . S
H3248 C3263 0.959 . S
H3249 C3263 0.961 . S
H3250 C3264 0.960 . S
H3251 C3264 0.961 . S
H3252 C3264 0.959 . S
H3253 C3267 0.929 . S
H3254 C3268 0.931 . S
H3255 C3270 0.930 . S
C3256 H3244 0.930 . S
C3256 C3257 1.399 . S
C3256 C3261 1.399 . S
C3257 C3256 1.399 . S
C3257 C3258 1.376 . S
C3258 H3245 0.930 . S
C3258 C3257 1.376 . S
C3258 C3259 1.388 . S
C3259 H3246 0.930 . S
C3259 C3258 1.388 . S
C3259 C3260 1.390 . S
C3260 C3259 1.390 . S
C3260 C3261 1.394 . S
C3260 C3266 1.465 . S
C3261 C3256 1.399 . S
C3261 C3260 1.394 . S
C3261 C3262 1.516 . S
C3262 C3261 1.516 . S
C3262 C3263 1.502 . S
C3262 C3264 1.561 . S
C3262 C3265 1.526 . S
C3263 H3247 0.959 . S
C3263 H3248 0.959 . S
C3263 H3249 0.961 . S
C3263 C3262 1.502 . S
C3264 H3250 0.960 . S
C3264 H3251 0.961 . S
C3264 H3252 0.959 . S
C3264 C3262 1.561 . S
C3265 C3262 1.526 . S
C3265 C3266 1.396 . S
C3265 C3270 1.390 . S
C3266 C3260 1.465 . S
C3266 C3265 1.396 . S
C3266 C3267 1.399 . S
C3267 H3253 0.929 . S
C3267 C3266 1.399 . S
C3267 C3268 1.385 . S
C3268 H3254 0.931 . S
C3268 C3267 1.385 . S
C3268 C3269 1.389 . S
C3269 C3268 1.389 . S
C3269 C3270 1.387 . S
C3270 H3255 0.930 . S
C3270 C3265 1.390 . S
C3270 C3269 1.387 . S
H3271 C3283 0.930 . S
H3272 C3285 0.962 . S
H3273 C3286 0.930 . S
H3274 C3290 0.959 . S
H3275 C3290 0.959 . S
H3276 C3290 0.961 . S
H3277 C3291 0.960 . S
H3278 C3291 0.961 . S
H3279 C3291 0.959 . S
H3280 C3294 0.929 . S
H3281 C3295 0.931 . S
H3282 C3297 0.930 . S
C3283 H3271 0.930 . S
C3283 C3284 1.399 . S
C3283 C3288 1.399 . S
C3284 C3283 1.399 . S
C3284 C3285 1.369 1_556 S
C3285 H3272 0.962 . S
C3285 C3284 1.369 1_554 S
C3285 C3286 1.365 1_554 S
C3286 H3273 0.930 . S
C3286 C3285 1.365 1_556 S
C3286 C3287 1.390 . S
C3287 C3286 1.390 . S
C3287 C3288 1.394 . S
C3287 C3293 1.465 . S
C3288 C3283 1.399 . S
C3288 C3287 1.394 . S
C3288 C3289 1.516 . S
C3289 C3288 1.516 . S
C3289 C3290 1.502 . S
C3289 C3291 1.561 . S
C3289 C3292 1.526 . S
C3290 H3274 0.959 . S
C3290 H3275 0.959 . S
C3290 H3276 0.961 . S
C3290 C3289 1.502 . S
C3291 H3277 0.960 . S
C3291 H3278 0.961 . S
C3291 H3279 0.959 . S
C3291 C3289 1.561 . S
C3292 C3289 1.526 . S
C3292 C3293 1.396 . S
C3292 C3297 1.390 . S
C3293 C3287 1.465 . S
C3293 C3292 1.396 . S
C3293 C3294 1.399 . S
C3294 H3280 0.929 . S
C3294 C3293 1.399 . S
C3294 C3295 1.385 . S
C3295 H3281 0.931 . S
C3295 C3294 1.385 . S
C3295 C3296 1.389 . S
C3296 C3295 1.389 . S
C3296 C3297 1.387 . S
C3297 H3282 0.930 . S
C3297 C3292 1.390 . S
C3297 C3296 1.387 . S
H3298 C3310 0.924 1_455 S
H3299 C3312 0.930 . S
H3300 C3313 0.930 . S
H3301 C3317 0.959 . S
H3302 C3317 0.959 . S
H3303 C3317 0.961 . S
H3304 C3318 0.960 . S
H3305 C3318 0.961 . S
H3306 C3318 0.959 . S
H3307 C3321 0.929 . S
H3308 C3322 0.931 . S
H3309 C3324 0.930 . S
C3310 H3298 0.924 1_655 S
C3310 C3311 1.399 . S
C3310 C3315 1.399 . S
C3311 C3310 1.399 . S
C3311 C3312 1.376 . S
C3312 H3299 0.930 . S
C3312 C3311 1.376 . S
C3312 C3313 1.388 . S
C3313 H3300 0.930 . S
C3313 C3312 1.388 . S
C3313 C3314 1.390 . S
C3314 C3313 1.390 . S
C3314 C3315 1.394 . S
C3314 C3320 1.465 . S
C3315 C3310 1.399 . S
C3315 C3314 1.394 . S
C3315 C3316 1.516 1_655 S
C3316 C3315 1.516 1_455 S
C3316 C3317 1.502 . S
C3316 C3318 1.561 . S
C3316 C3319 1.526 . S
C3317 H3301 0.959 . S
C3317 H3302 0.959 . S
C3317 H3303 0.961 . S
C3317 C3316 1.502 . S
C3318 H3304 0.960 . S
C3318 H3305 0.961 . S
C3318 H3306 0.959 . S
C3318 C3316 1.561 . S
C3319 C3316 1.526 . S
C3319 C3320 1.396 1_455 S
C3319 C3324 1.390 . S
C3320 C3314 1.465 . S
C3320 C3319 1.396 1_655 S
C3320 C3321 1.399 . S
C3321 H3307 0.929 . S
C3321 C3320 1.399 . S
C3321 C3322 1.385 . S
C3322 H3308 0.931 . S
C3322 C3321 1.385 . S
C3322 C3323 1.389 1_655 S
C3323 C3322 1.389 1_455 S
C3323 C3324 1.387 . S
C3324 H3309 0.930 . S
C3324 C3319 1.390 . S
C3324 C3323 1.387 . S
H3325 C3337 0.930 . S
H3326 C3339 0.930 . S
H3327 C3340 0.930 . S
H3328 C3344 0.959 . S
H3329 C3344 0.959 . S
H3330 C3344 0.961 . S
H3331 C3345 0.960 . S
H3332 C3345 0.961 . S
H3333 C3345 0.959 . S
H3334 C3348 0.929 . S
H3335 C3349 0.931 . S
H3336 C3351 0.930 . S
C3337 H3325 0.930 . S
C3337 C3338 1.399 . S
C3337 C3342 1.399 . S
C3338 C3337 1.399 . S
C3338 C3339 1.376 . S
C3339 H3326 0.930 . S
C3339 C3338 1.376 . S
C3339 C3340 1.388 . S
C3340 H3327 0.930 . S
C3340 C3339 1.388 . S
C3340 C3341 1.390 . S
C3341 C3340 1.390 . S
C3341 C3342 1.394 . S
C3341 C3347 1.465 . S
C3342 C3337 1.399 . S
C3342 C3341 1.394 . S
C3342 C3343 1.516 . S
C3343 C3342 1.516 . S
C3343 C3344 1.502 . S
C3343 C3345 1.561 . S
C3343 C3346 1.526 . S
C3344 H3328 0.959 . S
C3344 H3329 0.959 . S
C3344 H3330 0.961 . S
C3344 C3343 1.502 . S
C3345 H3331 0.960 . S
C3345 H3332 0.961 . S
C3345 H3333 0.959 . S
C3345 C3343 1.561 . S
C3346 C3343 1.526 . S
C3346 C3347 1.396 . S
C3346 C3351 1.390 . S
C3347 C3341 1.465 . S
C3347 C3346 1.396 . S
C3347 C3348 1.399 . S
C3348 H3334 0.929 . S
C3348 C3347 1.399 . S
C3348 C3349 1.385 . S
C3349 H3335 0.931 . S
C3349 C3348 1.385 . S
C3349 C3350 1.389 . S
C3350 C3349 1.389 . S
C3350 C3351 1.387 . S
C3351 H3336 0.930 . S
C3351 C3346 1.390 . S
C3351 C3350 1.387 . S
H3352 C3364 0.930 . S
H3353 C3366 0.930 . S
H3354 C3367 0.930 . S
H3355 C3371 0.959 . S
H3356 C3371 0.959 . S
H3357 C3371 0.961 . S
H3358 C3372 0.960 . S
H3359 C3372 0.961 . S
H3360 C3372 0.959 . S
H3361 C3375 0.929 . S
H3362 C3376 0.931 . S
H3363 C3378 0.930 . S
C3364 H3352 0.930 . S
C3364 C3365 1.399 . S
C3364 C3369 1.399 . S
C3365 C3364 1.399 . S
C3365 C3366 1.376 . S
C3366 H3353 0.930 . S
C3366 C3365 1.376 . S
C3366 C3367 1.388 . S
C3367 H3354 0.930 . S
C3367 C3366 1.388 . S
C3367 C3368 1.390 . S
C3368 C3367 1.390 . S
C3368 C3369 1.394 . S
C3368 C3374 1.465 . S
C3369 C3364 1.399 . S
C3369 C3368 1.394 . S
C3369 C3370 1.516 . S
C3370 C3369 1.516 . S
C3370 C3371 1.502 . S
C3370 C3372 1.561 . S
C3370 C3373 1.526 . S
C3371 H3355 0.959 . S
C3371 H3356 0.959 . S
C3371 H3357 0.961 . S
C3371 C3370 1.502 . S
C3372 H3358 0.960 . S
C3372 H3359 0.961 . S
C3372 H3360 0.959 . S
C3372 C3370 1.561 . S
C3373 C3370 1.526 . S
C3373 C3374 1.396 . S
C3373 C3378 1.390 . S
C3374 C3368 1.465 . S
C3374 C3373 1.396 . S
C3374 C3375 1.399 . S
C3375 H3361 0.929 . S
C3375 C3374 1.399 . S
C3375 C3376 1.385 . S
C3376 H3362 0.931 . S
C3376 C3375 1.385 . S
C3376 C3377 1.389 . S
C3377 C3376 1.389 . S
C3377 C3378 1.387 . S
C3378 H3363 0.930 . S
C3378 C3373 1.390 . S
C3378 C3377 1.387 . S
H3379 C3391 0.930 . S
H3380 C3393 0.930 . S
H3381 C3394 0.930 . S
H3382 C3398 0.959 . S
H3383 C3398 0.959 . S
H3384 C3398 0.961 . S
H3385 C3399 0.960 . S
H3386 C3399 0.961 . S
H3387 C3399 0.988 . S
H3388 C3402 0.929 . S
H3389 C3403 0.931 . S
H3390 C3405 0.930 . S
C3391 H3379 0.930 . S
C3391 C3392 1.399 . S
C3391 C3396 1.399 . S
C3392 C3391 1.399 . S
C3392 C3393 1.376 . S
C3393 H3380 0.930 . S
C3393 C3392 1.376 . S
C3393 C3394 1.388 . S
C3394 H3381 0.930 . S
C3394 C3393 1.388 . S
C3394 C3395 1.390 . S
C3395 C3394 1.390 . S
C3395 C3396 1.394 . S
C3395 C3401 1.465 . S
C3396 C3391 1.399 . S
C3396 C3395 1.394 . S
C3396 C3397 1.516 . S
C3397 C3396 1.516 . S
C3397 C3398 1.502 . S
C3397 C3399 1.561 . S
C3397 C3400 1.526 . S
C3398 H3382 0.959 . S
C3398 H3383 0.959 . S
C3398 H3384 0.961 . S
C3398 C3397 1.502 . S
C3399 H3385 0.960 . S
C3399 H3386 0.961 . S
C3399 H3387 0.988 . S
C3399 C3397 1.561 . S
C3400 C3397 1.526 . S
C3400 C3401 1.396 . S
C3400 C3405 1.390 . S
C3401 C3395 1.465 . S
C3401 C3400 1.396 . S
C3401 C3402 1.399 . S
C3402 H3388 0.929 . S
C3402 C3401 1.399 . S
C3402 C3403 1.385 . S
C3403 H3389 0.931 . S
C3403 C3402 1.385 . S
C3403 C3404 1.389 . S
C3404 C3403 1.389 . S
C3404 C3405 1.387 . S
C3405 H3390 0.930 . S
C3405 C3400 1.390 . S
C3405 C3404 1.387 . S
H3406 C3418 0.930 . S
H3407 C3420 0.930 . S
H3408 C3421 0.930 . S
H3409 C3425 0.959 . S
H3410 C3425 0.959 . S
H3411 C3425 0.961 . S
H3412 C3426 0.960 . S
H3413 C3426 0.961 . S
H3414 C3426 0.959 . S
H3415 C3429 0.929 . S
H3416 C3430 0.931 . S
H3417 C3432 0.930 . S
C3418 H3406 0.930 . S
C3418 C3419 1.399 . S
C3418 C3423 1.399 . S
C3419 C3418 1.399 . S
C3419 C3420 1.376 . S
C3420 H3407 0.930 . S
C3420 C3419 1.376 . S
C3420 C3421 1.388 . S
C3421 H3408 0.930 . S
C3421 C3420 1.388 . S
C3421 C3422 1.390 . S
C3422 C3421 1.390 . S
C3422 C3423 1.394 . S
C3422 C3428 1.465 . S
C3423 C3418 1.399 . S
C3423 C3422 1.394 . S
C3423 C3424 1.516 . S
C3424 C3423 1.516 . S
C3424 C3425 1.502 . S
C3424 C3426 1.561 . S
C3424 C3427 1.526 . S
C3425 H3409 0.959 . S
C3425 H3410 0.959 . S
C3425 H3411 0.961 . S
C3425 C3424 1.502 . S
C3426 H3412 0.960 . S
C3426 H3413 0.961 . S
C3426 H3414 0.959 . S
C3426 C3424 1.561 . S
C3427 C3424 1.526 . S
C3427 C3428 1.396 . S
C3427 C3432 1.390 . S
C3428 C3422 1.465 . S
C3428 C3427 1.396 . S
C3428 C3429 1.399 . S
C3429 H3415 0.929 . S
C3429 C3428 1.399 . S
C3429 C3430 1.385 . S
C3430 H3416 0.931 . S
C3430 C3429 1.385 . S
C3430 C3431 1.389 . S
C3431 C3430 1.389 . S
C3431 C3432 1.387 . S
C3432 H3417 0.930 . S
C3432 C3427 1.390 . S
C3432 C3431 1.387 . S
H3433 C3445 0.930 . S
H3434 C3447 0.930 . S
H3435 C3448 0.930 . S
H3436 C3452 0.959 . S
H3437 C3452 0.959 . S
H3438 C3452 0.961 . S
H3439 C3453 0.960 . S
H3440 C3453 0.961 . S
H3441 C3453 0.959 . S
H3442 C3456 0.929 . S
H3443 C3457 0.931 . S
H3444 C3459 0.930 . S
C3445 H3433 0.930 . S
C3445 C3446 1.399 . S
C3445 C3450 1.399 . S
C3446 C3445 1.399 . S
C3446 C3447 1.376 . S
C3447 H3434 0.930 . S
C3447 C3446 1.376 . S
C3447 C3448 1.388 . S
C3448 H3435 0.930 . S
C3448 C3447 1.388 . S
C3448 C3449 1.390 . S
C3449 C3448 1.390 . S
C3449 C3450 1.394 . S
C3449 C3455 1.465 . S
C3450 C3445 1.399 . S
C3450 C3449 1.394 . S
C3450 C3451 1.516 . S
C3451 C3450 1.516 . S
C3451 C3452 1.502 . S
C3451 C3453 1.561 . S
C3451 C3454 1.526 . S
C3452 H3436 0.959 . S
C3452 H3437 0.959 . S
C3452 H3438 0.961 . S
C3452 C3451 1.502 . S
C3453 H3439 0.960 . S
C3453 H3440 0.961 . S
C3453 H3441 0.959 . S
C3453 C3451 1.561 . S
C3454 C3451 1.526 . S
C3454 C3455 1.396 . S
C3454 C3459 1.390 . S
C3455 C3449 1.465 . S
C3455 C3454 1.396 . S
C3455 C3456 1.399 . S
C3456 H3442 0.929 . S
C3456 C3455 1.399 . S
C3456 C3457 1.385 . S
C3457 H3443 0.931 . S
C3457 C3456 1.385 . S
C3457 C3458 1.389 . S
C3458 C3457 1.389 . S
C3458 C3459 1.387 . S
C3459 H3444 0.930 . S
C3459 C3454 1.390 . S
C3459 C3458 1.387 . S
H3460 C3472 0.930 . S
H3461 C3474 0.930 . S
H3462 C3475 0.930 . S
H3463 C3479 0.959 . S
H3464 C3479 0.959 . S
H3465 C3479 0.961 . S
H3466 C3480 0.960 . S
H3467 C3480 0.961 . S
H3468 C3480 0.959 . S
H3469 C3483 0.929 . S
H3470 C3484 0.931 . S
H3471 C3486 0.930 . S
C3472 H3460 0.930 . S
C3472 C3473 1.399 . S
C3472 C3477 1.399 . S
C3473 C3472 1.399 . S
C3473 C3474 1.376 . S
C3474 H3461 0.930 . S
C3474 C3473 1.376 . S
C3474 C3475 1.388 . S
C3475 H3462 0.930 . S
C3475 C3474 1.388 . S
C3475 C3476 1.390 . S
C3476 C3475 1.390 . S
C3476 C3477 1.394 . S
C3476 C3482 1.465 . S
C3477 C3472 1.399 . S
C3477 C3476 1.394 . S
C3477 C3478 1.516 . S
C3478 C3477 1.516 . S
C3478 C3479 1.502 . S
C3478 C3480 1.561 . S
C3478 C3481 1.526 . S
C3479 H3463 0.959 . S
C3479 H3464 0.959 . S
C3479 H3465 0.961 . S
C3479 C3478 1.502 . S
C3480 H3466 0.960 . S
C3480 H3467 0.961 . S
C3480 H3468 0.959 . S
C3480 C3478 1.561 . S
C3481 C3478 1.526 . S
C3481 C3482 1.396 . S
C3481 C3486 1.390 . S
C3482 C3476 1.465 . S
C3482 C3481 1.396 . S
C3482 C3483 1.399 . S
C3483 H3469 0.929 . S
C3483 C3482 1.399 . S
C3483 C3484 1.385 . S
C3484 H3470 0.931 . S
C3484 C3483 1.385 . S
C3484 C3485 1.389 . S
C3485 C3484 1.389 . S
C3485 C3486 1.387 . S
C3486 H3471 0.930 . S
C3486 C3481 1.390 . S
C3486 C3485 1.387 . S
H3487 C3499 0.930 . S
H3488 C3501 0.930 . S
H3489 C3502 0.930 . S
H3490 C3506 0.959 . S
H3491 C3506 0.959 . S
H3492 C3506 0.961 . S
H3493 C3507 0.960 . S
H3494 C3507 0.961 . S
H3495 C3507 0.959 . S
H3496 C3510 0.929 . S
H3497 C3511 0.931 . S
H3498 C3513 0.930 . S
C3499 H3487 0.930 . S
C3499 C3500 1.399 . S
C3499 C3504 1.399 . S
C3500 C3499 1.399 . S
C3500 C3501 1.376 . S
C3501 H3488 0.930 . S
C3501 C3500 1.376 . S
C3501 C3502 1.388 . S
C3502 H3489 0.930 . S
C3502 C3501 1.388 . S
C3502 C3503 1.390 . S
C3503 C3502 1.390 . S
C3503 C3504 1.394 . S
C3503 C3509 1.465 . S
C3504 C3499 1.399 . S
C3504 C3503 1.394 . S
C3504 C3505 1.516 . S
C3505 C3504 1.516 . S
C3505 C3506 1.502 . S
C3505 C3507 1.561 . S
C3505 C3508 1.526 . S
C3506 H3490 0.959 . S
C3506 H3491 0.959 . S
C3506 H3492 0.961 . S
C3506 C3505 1.502 . S
C3507 H3493 0.960 . S
C3507 H3494 0.961 . S
C3507 H3495 0.959 . S
C3507 C3505 1.561 . S
C3508 C3505 1.526 . S
C3508 C3509 1.396 . S
C3508 C3513 1.390 . S
C3509 C3503 1.465 . S
C3509 C3508 1.396 . S
C3509 C3510 1.399 . S
C3510 H3496 0.929 . S
C3510 C3509 1.399 . S
C3510 C3511 1.385 . S
C3511 H3497 0.931 . S
C3511 C3510 1.385 . S
C3511 C3512 1.389 . S
C3512 C3511 1.389 . S
C3512 C3513 1.387 . S
C3513 H3498 0.930 . S
C3513 C3508 1.390 . S
C3513 C3512 1.387 . S
H3514 C3526 0.930 . S
H3515 C3528 0.930 1_545 S
H3516 C3529 0.930 . S
H3517 C3533 0.959 . S
H3518 C3533 0.959 . S
H3519 C3533 0.961 . S
H3520 C3534 0.960 . S
H3521 C3534 0.961 . S
H3522 C3534 0.959 . S
H3523 C3537 0.929 . S
H3524 C3538 0.931 . S
H3525 C3540 0.930 . S
C3526 H3514 0.930 . S
C3526 C3527 1.399 . S
C3526 C3531 1.399 . S
C3527 C3526 1.399 . S
C3527 C3528 1.376 . S
C3528 H3515 0.930 1_565 S
C3528 C3527 1.376 . S
C3528 C3529 1.388 . S
C3529 H3516 0.930 . S
C3529 C3528 1.388 . S
C3529 C3530 1.390 . S
C3530 C3529 1.390 . S
C3530 C3531 1.394 . S
C3530 C3536 1.465 . S
C3531 C3526 1.399 . S
C3531 C3530 1.394 . S
C3531 C3532 1.516 . S
C3532 C3531 1.516 . S
C3532 C3533 1.502 . S
C3532 C3534 1.561 . S
C3532 C3535 1.526 . S
C3533 H3517 0.959 . S
C3533 H3518 0.959 . S
C3533 H3519 0.961 . S
C3533 C3532 1.502 . S
C3534 H3520 0.960 . S
C3534 H3521 0.961 . S
C3534 H3522 0.959 . S
C3534 C3532 1.561 . S
C3535 C3532 1.526 . S
C3535 C3536 1.396 . S
C3535 C3540 1.390 . S
C3536 C3530 1.465 . S
C3536 C3535 1.396 . S
C3536 C3537 1.399 . S
C3537 H3523 0.929 . S
C3537 C3536 1.399 . S
C3537 C3538 1.385 . S
C3538 H3524 0.931 . S
C3538 C3537 1.385 . S
C3538 C3539 1.389 . S
C3539 C3538 1.389 . S
C3539 C3540 1.387 . S
C3540 H3525 0.930 . S
C3540 C3535 1.390 . S
C3540 C3539 1.387 . S
H3541 C3553 0.930 . S
H3542 C3555 0.930 . S
H3543 C3556 0.930 . S
H3544 C3560 0.959 . S
H3545 C3560 0.959 . S
H3546 C3560 0.961 . S
H3547 C3561 0.960 . S
H3548 C3561 0.961 . S
H3549 C3561 0.959 . S
H3550 C3564 0.929 . S
H3551 C3565 0.931 . S
H3552 C3567 0.930 . S
C3553 H3541 0.930 . S
C3553 C3554 1.399 . S
C3553 C3558 1.399 . S
C3554 C3553 1.399 . S
C3554 C3555 1.376 . S
C3555 H3542 0.930 . S
C3555 C3554 1.376 . S
C3555 C3556 1.388 . S
C3556 H3543 0.930 . S
C3556 C3555 1.388 . S
C3556 C3557 1.390 . S
C3557 C3556 1.390 . S
C3557 C3558 1.394 . S
C3557 C3563 1.465 . S
C3558 C3553 1.399 . S
C3558 C3557 1.394 . S
C3558 C3559 1.516 . S
C3559 C3558 1.516 . S
C3559 C3560 1.502 . S
C3559 C3561 1.561 . S
C3559 C3562 1.526 . S
C3560 H3544 0.959 . S
C3560 H3545 0.959 . S
C3560 H3546 0.961 . S
C3560 C3559 1.502 . S
C3561 H3547 0.960 . S
C3561 H3548 0.961 . S
C3561 H3549 0.959 . S
C3561 C3559 1.561 . S
C3562 C3559 1.526 . S
C3562 C3563 1.396 . S
C3562 C3567 1.390 . S
C3563 C3557 1.465 . S
C3563 C3562 1.396 . S
C3563 C3564 1.399 . S
C3564 H3550 0.929 . S
C3564 C3563 1.399 . S
C3564 C3565 1.385 . S
C3565 H3551 0.931 . S
C3565 C3564 1.385 . S
C3565 C3566 1.389 . S
C3566 C3565 1.389 . S
C3566 C3567 1.387 . S
C3567 H3552 0.930 . S
C3567 C3562 1.390 . S
C3567 C3566 1.387 . S
C989 C109 1.379 . S
C1001 C342 1.249 . S
C1016 C65 1.989 . S
C1028 C394 1.849 . S
C1043 C75 1.335 . S
C1055 C426 1.352 1_565 S
C1082 C475 2.538 . S
C1070 C84 2.545 . S
C1097 C25 1.055 . S
C1109 C511 0.979 . S
C1136 C542 0.586 . S
C1124 C28 0.339 . S
C1163 C594 0.521 . S
C1151 C47 0.512 . S
C1178 C9 1.727 . S
C1190 C622 1.577 . S
C1217 C354 2.011 . S
C1205 C233 2.173 . S
C1232 C249 1.660 . S
C1244 C395 1.691 . S
C1271 C425 1.874 . S
C1259 C275 1.992 1_545 S
C1298 C462 0.635 . S
C1286 C173 0.592 . S
C1313 C224 1.859 . S
C1325 C506 1.903 1_655 S
C1352 C554 1.963 . S
C1340 C243 1.978 . S
C1379 C595 1.637 1_556 S
C1367 C266 1.564 . S
C1406 C634 1.584 . S
C1394 C179 1.800 . S
C1433 C355 2.317 . S
C1421 C163 2.318 . S
C1448 C289 1.689 . S
C1460 C665 1.619 . S
C1487 C715 2.411 . S
C1475 C333 2.399 . S
C1514 C742 1.024 . S
C1502 C308 0.966 . S
C1529 C123 2.532 . S
C1541 C635 2.553 . S
C1556 C126 1.363 . S
C1568 C431 1.233 . S
C1583 C327 2.560 . S
C1595 C794 2.436 . S
C1622 C822 1.176 . S
C1610 C299 1.306 . S
C1649 C351 1.242 . S
C1637 C67 1.333 . S
C1676 C825 1.831 . S
C1664 C98 2.001 . S
C1691 C89 1.407 . S
C1703 C435 1.409 . S
C1718 C79 2.573 . S
C1730 C786 2.584 . S
C1757 C502 1.066 . S
C1745 C11 0.996 . S
C1772 C51 0.512 . S
C1784 C711 0.591 . S
C1811 C585 0.418 . S
C1799 C33 0.459 . S
C1838 C871 1.502 . S
C1826 C14 1.598 . S
C1865 C345 2.005 1_556 S
C1853 C140 2.095 . S
C1892 C826 1.712 . S
C1880 C319 1.714 . S
C1907 C112 1.998 . S
C1919 C434 1.912 . S
C1934 C285 0.483 . S
C1946 C791 0.688 . S
C1961 C149 1.926 . S
C1973 C515 1.921 . S
C2000 C705 1.942 . S
C1988 C313 1.971 . S
C2015 C121 1.707 . S
C2027 C586 1.715 . S
C2042 C291 1.725 . S
C2054 C865 1.659 . S
C2069 C182 2.284 . S
C2081 C346 2.310 1_655 S
C2096 C168 1.660 . S
C2108 C674 1.697 . S
C2123 C263 2.460 . S
C2135 C546 2.449 . S
C2150 C247 1.043 . S
C2162 C751 1.030 . S
C2189 C866 2.532 . S
C2177 C277 2.487 . S
C2204 C219 1.428 1_545 S
C2216 C422 1.324 . S
C2243 C465 2.512 . S
C2231 C257 2.601 . S
C2270 C391 1.187 . S
C2258 C201 1.305 . S
C2285 C81 1.353 . S
C2297 C902 1.270 . S
C2324 C834 1.901 . S
C2312 C93 1.979 . S
C2339 C103 1.387 . S
C2351 C946 1.401 . S
C2366 C56 2.553 . S
C2378 C795 2.533 . S
C2393 C53 1.082 . S
C2405 C671 0.938 . S
C2432 C702 0.627 . S
C2420 C0 0.471 . S
C2459 C754 0.503 . S
C2447 C19 0.514 . S
C2486 C862 1.471 . S
C2474 C37 1.518 . S
C2513 C914 1.952 . S
C2501 C261 2.150 . S
C2528 C193 1.688 1_556 S
C2540 C835 1.707 . S
C2567 C945 1.832 . S
C2555 C205 2.007 . S
C2594 C782 0.659 . S
C2582 C215 0.546 . S
C2621 C666 1.941 1_556 S
C2609 C252 1.922 . S
C2636 C187 2.013 . S
C2648 C714 1.991 . S
C2675 C755 1.643 . S
C2663 C196 1.571 . S
C2690 C221 1.780 . S
C2702 C874 1.586 . S
C2729 C915 2.315 . S
C2717 C317 2.316 . S
C2744 C135 1.651 . S
C2756 C505 1.584 . S
C2783 C555 2.400 . S
C2771 C151 2.383 . S
C2810 C582 0.963 . S
C2798 C154 0.995 . S
C2837 C875 2.536 . S
C2825 C305 2.549 . S
C2852 C280 1.261 . S
C2864 C951 1.250 . S
C2891 C474 2.485 . S
C2879 C145 2.572 . S
C2918 C382 1.202 . S
C2906 C117 1.281 . S
C2933 C95 1.284 . S
C2945 C911 1.314 . S
C2972 C385 1.839 . S
C2960 C70 2.012 . S
C2987 C61 1.418 . S
C2999 C955 1.422 . S
C3014 C107 2.581 . S
C3026 C466 2.581 . S
C3041 C39 0.995 . S
C3053 C662 1.050 . S
C3080 C551 0.547 . S
C3068 C23 0.538 . S
C3095 C5 0.406 . S
C3107 C745 0.451 . S
C3122 C42 1.564 . S
C3134 C631 1.445 . S
C3161 C905 1.994 . S
C3149 C322 2.087 . S
C3176 C165 1.702 . S
C3188 C386 1.730 . S
C3215 C954 1.868 1_556 S
C3203 C294 1.991 . S
C3230 C131 0.537 . S
C3242 C471 0.717 . S
C3257 C331 1.952 . S
C3269 C675 1.942 . S
C3296 C545 2.010 . S
C3284 C159 2.015 1_556 S
C3311 C303 1.683 . S
C3323 C746 1.711 . S
C3350 C625 1.621 . S
C3338 C137 1.693 . S
C3377 C906 2.310 . S
C3365 C238 2.302 . S
C3404 C514 1.679 . S
C3392 C210 1.657 . S
C3419 C235 2.457 . S
C3431 C706 2.445 . S
C3458 C591 1.045 . S
C3446 C191 1.058 . S
C3473 C207 2.521 . S
C3485 C626 2.492 . S
C3500 C177 1.343 . S
C3512 C942 1.357 . S
C3539 C785 2.492 . S
C3527 C229 2.592 1_565 S
C3566 C831 1.204 . S
C3554 C271 1.299 . S
