# Generated by pormake.
# Topology gar, (4,6)-cn, num edge types: 1
# Building blocks:
#     Node 0, Type 0, BuildingBlock: AZAVOO_clean_sbu_0, # of connection points: 4
#     Node 1, Type 0, BuildingBlock: AZAVOO_clean_sbu_0, # of connection points: 4
#     Node 2, Type 0, BuildingBlock: AZAVOO_clean_sbu_0, # of connection points: 4
#     Node 3, Type 0, BuildingBlock: AZAVOO_clean_sbu_0, # of connection points: 4
#     Node 4, Type 0, BuildingBlock: AZAVOO_clean_sbu_0, # of connection points: 4
#     Node 5, Type 0, BuildingBlock: AZAVOO_clean_sbu_0, # of connection points: 4
#     Node 6, Type 0, BuildingBlock: AZAVOO_clean_sbu_0, # of connection points: 4
#     Node 7, Type 0, BuildingBlock: AZAVOO_clean_sbu_0, # of connection points: 4
#     Node 8, Type 0, BuildingBlock: AZAVOO_clean_sbu_0, # of connection points: 4
#     Node 9, Type 0, BuildingBlock: AZAVOO_clean_sbu_0, # of connection points: 4
#     Node 10, Type 0, BuildingBlock: AZAVOO_clean_sbu_0, # of connection points: 4
#     Node 11, Type 0, BuildingBlock: AZAVOO_clean_sbu_0, # of connection points: 4
#     Node 12, Type 0, BuildingBlock: AZAVOO_clean_sbu_0, # of connection points: 4
#     Node 13, Type 0, BuildingBlock: AZAVOO_clean_sbu_0, # of connection points: 4
#     Node 14, Type 0, BuildingBlock: AZAVOO_clean_sbu_0, # of connection points: 4
#     Node 15, Type 0, BuildingBlock: AZAVOO_clean_sbu_0, # of connection points: 4
#     Node 16, Type 0, BuildingBlock: AZAVOO_clean_sbu_0, # of connection points: 4
#     Node 17, Type 0, BuildingBlock: AZAVOO_clean_sbu_0, # of connection points: 4
#     Node 18, Type 0, BuildingBlock: AZAVOO_clean_sbu_0, # of connection points: 4
#     Node 19, Type 0, BuildingBlock: AZAVOO_clean_sbu_0, # of connection points: 4
#     Node 20, Type 0, BuildingBlock: AZAVOO_clean_sbu_0, # of connection points: 4
#     Node 21, Type 0, BuildingBlock: AZAVOO_clean_sbu_0, # of connection points: 4
#     Node 22, Type 0, BuildingBlock: AZAVOO_clean_sbu_0, # of connection points: 4
#     Node 23, Type 0, BuildingBlock: AZAVOO_clean_sbu_0, # of connection points: 4
#     Node 24, Type 1, BuildingBlock: BETDEL_clean_sbu_0, # of connection points: 6
#     Node 25, Type 1, BuildingBlock: BETDEL_clean_sbu_0, # of connection points: 6
#     Node 26, Type 1, BuildingBlock: BETDEL_clean_sbu_0, # of connection points: 6
#     Node 27, Type 1, BuildingBlock: BETDEL_clean_sbu_0, # of connection points: 6
#     Node 28, Type 1, BuildingBlock: BETDEL_clean_sbu_0, # of connection points: 6
#     Node 29, Type 1, BuildingBlock: BETDEL_clean_sbu_0, # of connection points: 6
#     Node 30, Type 1, BuildingBlock: BETDEL_clean_sbu_0, # of connection points: 6
#     Node 31, Type 1, BuildingBlock: BETDEL_clean_sbu_0, # of connection points: 6
#     Node 32, Type 1, BuildingBlock: BETDEL_clean_sbu_0, # of connection points: 6
#     Node 33, Type 1, BuildingBlock: BETDEL_clean_sbu_0, # of connection points: 6
#     Node 34, Type 1, BuildingBlock: BETDEL_clean_sbu_0, # of connection points: 6
#     Node 35, Type 1, BuildingBlock: BETDEL_clean_sbu_0, # of connection points: 6
#     Node 36, Type 1, BuildingBlock: BETDEL_clean_sbu_0, # of connection points: 6
#     Node 37, Type 1, BuildingBlock: BETDEL_clean_sbu_0, # of connection points: 6
#     Node 38, Type 1, BuildingBlock: BETDEL_clean_sbu_0, # of connection points: 6
#     Node 39, Type 1, BuildingBlock: BETDEL_clean_sbu_0, # of connection points: 6
#     Edge 40, Type (0, 1), BuildingBlock: KIFKEQ_clean_linker_1, # of connection points: 2
#     Edge 41, Type (0, 1), BuildingBlock: KIFKEQ_clean_linker_1, # of connection points: 2
#     Edge 42, Type (0, 1), BuildingBlock: KIFKEQ_clean_linker_1, # of connection points: 2
#     Edge 43, Type (0, 1), BuildingBlock: KIFKEQ_clean_linker_1, # of connection points: 2
#     Edge 44, Type (0, 1), BuildingBlock: KIFKEQ_clean_linker_1, # of connection points: 2
#     Edge 45, Type (0, 1), BuildingBlock: KIFKEQ_clean_linker_1, # of connection points: 2
#     Edge 46, Type (0, 1), BuildingBlock: KIFKEQ_clean_linker_1, # of connection points: 2
#     Edge 47, Type (0, 1), BuildingBlock: KIFKEQ_clean_linker_1, # of connection points: 2
#     Edge 48, Type (0, 1), BuildingBlock: KIFKEQ_clean_linker_1, # of connection points: 2
#     Edge 49, Type (0, 1), BuildingBlock: KIFKEQ_clean_linker_1, # of connection points: 2
#     Edge 50, Type (0, 1), BuildingBlock: KIFKEQ_clean_linker_1, # of connection points: 2
#     Edge 51, Type (0, 1), BuildingBlock: KIFKEQ_clean_linker_1, # of connection points: 2
#     Edge 52, Type (0, 1), BuildingBlock: KIFKEQ_clean_linker_1, # of connection points: 2
#     Edge 53, Type (0, 1), BuildingBlock: KIFKEQ_clean_linker_1, # of connection points: 2
#     Edge 54, Type (0, 1), BuildingBlock: KIFKEQ_clean_linker_1, # of connection points: 2
#     Edge 55, Type (0, 1), BuildingBlock: KIFKEQ_clean_linker_1, # of connection points: 2
#     Edge 56, Type (0, 1), BuildingBlock: KIFKEQ_clean_linker_1, # of connection points: 2
#     Edge 57, Type (0, 1), BuildingBlock: KIFKEQ_clean_linker_1, # of connection points: 2
#     Edge 58, Type (0, 1), BuildingBlock: KIFKEQ_clean_linker_1, # of connection points: 2
#     Edge 59, Type (0, 1), BuildingBlock: KIFKEQ_clean_linker_1, # of connection points: 2
#     Edge 60, Type (0, 1), BuildingBlock: KIFKEQ_clean_linker_1, # of connection points: 2
#     Edge 61, Type (0, 1), BuildingBlock: KIFKEQ_clean_linker_1, # of connection points: 2
#     Edge 62, Type (0, 1), BuildingBlock: KIFKEQ_clean_linker_1, # of connection points: 2
#     Edge 63, Type (0, 1), BuildingBlock: KIFKEQ_clean_linker_1, # of connection points: 2
#     Edge 64, Type (0, 1), BuildingBlock: KIFKEQ_clean_linker_1, # of connection points: 2
#     Edge 65, Type (0, 1), BuildingBlock: KIFKEQ_clean_linker_1, # of connection points: 2
#     Edge 66, Type (0, 1), BuildingBlock: KIFKEQ_clean_linker_1, # of connection points: 2
#     Edge 67, Type (0, 1), BuildingBlock: KIFKEQ_clean_linker_1, # of connection points: 2
#     Edge 68, Type (0, 1), BuildingBlock: KIFKEQ_clean_linker_1, # of connection points: 2
#     Edge 69, Type (0, 1), BuildingBlock: KIFKEQ_clean_linker_1, # of connection points: 2
#     Edge 70, Type (0, 1), BuildingBlock: KIFKEQ_clean_linker_1, # of connection points: 2
#     Edge 71, Type (0, 1), BuildingBlock: KIFKEQ_clean_linker_1, # of connection points: 2
#     Edge 72, Type (0, 1), BuildingBlock: KIFKEQ_clean_linker_1, # of connection points: 2
#     Edge 73, Type (0, 1), BuildingBlock: KIFKEQ_clean_linker_1, # of connection points: 2
#     Edge 74, Type (0, 1), BuildingBlock: KIFKEQ_clean_linker_1, # of connection points: 2
#     Edge 75, Type (0, 1), BuildingBlock: KIFKEQ_clean_linker_1, # of connection points: 2
#     Edge 76, Type (0, 1), BuildingBlock: KIFKEQ_clean_linker_1, # of connection points: 2
#     Edge 77, Type (0, 1), BuildingBlock: KIFKEQ_clean_linker_1, # of connection points: 2
#     Edge 78, Type (0, 1), BuildingBlock: KIFKEQ_clean_linker_1, # of connection points: 2
#     Edge 79, Type (0, 1), BuildingBlock: KIFKEQ_clean_linker_1, # of connection points: 2
#     Edge 80, Type (0, 1), BuildingBlock: KIFKEQ_clean_linker_1, # of connection points: 2
#     Edge 81, Type (0, 1), BuildingBlock: KIFKEQ_clean_linker_1, # of connection points: 2
#     Edge 82, Type (0, 1), BuildingBlock: KIFKEQ_clean_linker_1, # of connection points: 2
#     Edge 83, Type (0, 1), BuildingBlock: KIFKEQ_clean_linker_1, # of connection points: 2
#     Edge 84, Type (0, 1), BuildingBlock: KIFKEQ_clean_linker_1, # of connection points: 2
#     Edge 85, Type (0, 1), BuildingBlock: KIFKEQ_clean_linker_1, # of connection points: 2
#     Edge 86, Type (0, 1), BuildingBlock: KIFKEQ_clean_linker_1, # of connection points: 2
#     Edge 87, Type (0, 1), BuildingBlock: KIFKEQ_clean_linker_1, # of connection points: 2
#     Edge 88, Type (0, 1), BuildingBlock: KIFKEQ_clean_linker_1, # of connection points: 2
#     Edge 89, Type (0, 1), BuildingBlock: KIFKEQ_clean_linker_1, # of connection points: 2
#     Edge 90, Type (0, 1), BuildingBlock: KIFKEQ_clean_linker_1, # of connection points: 2
#     Edge 91, Type (0, 1), BuildingBlock: KIFKEQ_clean_linker_1, # of connection points: 2
#     Edge 92, Type (0, 1), BuildingBlock: KIFKEQ_clean_linker_1, # of connection points: 2
#     Edge 93, Type (0, 1), BuildingBlock: KIFKEQ_clean_linker_1, # of connection points: 2
#     Edge 94, Type (0, 1), BuildingBlock: KIFKEQ_clean_linker_1, # of connection points: 2
#     Edge 95, Type (0, 1), BuildingBlock: KIFKEQ_clean_linker_1, # of connection points: 2
#     Edge 96, Type (0, 1), BuildingBlock: KIFKEQ_clean_linker_1, # of connection points: 2
#     Edge 97, Type (0, 1), BuildingBlock: KIFKEQ_clean_linker_1, # of connection points: 2
#     Edge 98, Type (0, 1), BuildingBlock: KIFKEQ_clean_linker_1, # of connection points: 2
#     Edge 99, Type (0, 1), BuildingBlock: KIFKEQ_clean_linker_1, # of connection points: 2
#     Edge 100, Type (0, 1), BuildingBlock: KIFKEQ_clean_linker_1, # of connection points: 2
#     Edge 101, Type (0, 1), BuildingBlock: KIFKEQ_clean_linker_1, # of connection points: 2
#     Edge 102, Type (0, 1), BuildingBlock: KIFKEQ_clean_linker_1, # of connection points: 2
#     Edge 103, Type (0, 1), BuildingBlock: KIFKEQ_clean_linker_1, # of connection points: 2
#     Edge 104, Type (0, 1), BuildingBlock: KIFKEQ_clean_linker_1, # of connection points: 2
#     Edge 105, Type (0, 1), BuildingBlock: KIFKEQ_clean_linker_1, # of connection points: 2
#     Edge 106, Type (0, 1), BuildingBlock: KIFKEQ_clean_linker_1, # of connection points: 2
#     Edge 107, Type (0, 1), BuildingBlock: KIFKEQ_clean_linker_1, # of connection points: 2
#     Edge 108, Type (0, 1), BuildingBlock: KIFKEQ_clean_linker_1, # of connection points: 2
#     Edge 109, Type (0, 1), BuildingBlock: KIFKEQ_clean_linker_1, # of connection points: 2
#     Edge 110, Type (0, 1), BuildingBlock: KIFKEQ_clean_linker_1, # of connection points: 2
#     Edge 111, Type (0, 1), BuildingBlock: KIFKEQ_clean_linker_1, # of connection points: 2
#     Edge 112, Type (0, 1), BuildingBlock: KIFKEQ_clean_linker_1, # of connection points: 2
#     Edge 113, Type (0, 1), BuildingBlock: KIFKEQ_clean_linker_1, # of connection points: 2
#     Edge 114, Type (0, 1), BuildingBlock: KIFKEQ_clean_linker_1, # of connection points: 2
#     Edge 115, Type (0, 1), BuildingBlock: KIFKEQ_clean_linker_1, # of connection points: 2
#     Edge 116, Type (0, 1), BuildingBlock: KIFKEQ_clean_linker_1, # of connection points: 2
#     Edge 117, Type (0, 1), BuildingBlock: KIFKEQ_clean_linker_1, # of connection points: 2
#     Edge 118, Type (0, 1), BuildingBlock: KIFKEQ_clean_linker_1, # of connection points: 2
#     Edge 119, Type (0, 1), BuildingBlock: KIFKEQ_clean_linker_1, # of connection points: 2
#     Edge 120, Type (0, 1), BuildingBlock: KIFKEQ_clean_linker_1, # of connection points: 2
#     Edge 121, Type (0, 1), BuildingBlock: KIFKEQ_clean_linker_1, # of connection points: 2
#     Edge 122, Type (0, 1), BuildingBlock: KIFKEQ_clean_linker_1, # of connection points: 2
#     Edge 123, Type (0, 1), BuildingBlock: KIFKEQ_clean_linker_1, # of connection points: 2
#     Edge 124, Type (0, 1), BuildingBlock: KIFKEQ_clean_linker_1, # of connection points: 2
#     Edge 125, Type (0, 1), BuildingBlock: KIFKEQ_clean_linker_1, # of connection points: 2
#     Edge 126, Type (0, 1), BuildingBlock: KIFKEQ_clean_linker_1, # of connection points: 2
#     Edge 127, Type (0, 1), BuildingBlock: KIFKEQ_clean_linker_1, # of connection points: 2
#     Edge 128, Type (0, 1), BuildingBlock: KIFKEQ_clean_linker_1, # of connection points: 2
#     Edge 129, Type (0, 1), BuildingBlock: KIFKEQ_clean_linker_1, # of connection points: 2
#     Edge 130, Type (0, 1), BuildingBlock: KIFKEQ_clean_linker_1, # of connection points: 2
#     Edge 131, Type (0, 1), BuildingBlock: KIFKEQ_clean_linker_1, # of connection points: 2
#     Edge 132, Type (0, 1), BuildingBlock: KIFKEQ_clean_linker_1, # of connection points: 2
#     Edge 133, Type (0, 1), BuildingBlock: KIFKEQ_clean_linker_1, # of connection points: 2
#     Edge 134, Type (0, 1), BuildingBlock: KIFKEQ_clean_linker_1, # of connection points: 2
#     Edge 135, Type (0, 1), BuildingBlock: KIFKEQ_clean_linker_1, # of connection points: 2
# Relax obj value: 0.168
# Max RMSD: 0.267
# Mean RMSD: 0.190
data_MOF--net-gar--node1-AZAVOO_clean_sbu_0--node2-BETDEL_clean_sbu_0--edge1-KIFKEQ_clean_linker_1
_symmetry_space_group_name_H-M    P1
_symmetry_Int_Tables_number       1
_symmetry_cell_setting            triclinic
loop_
_symmetry_equiv_pos_as_xyz
'x, y, z'
_cell_length_a     57.865653
_cell_length_b     52.886268
_cell_length_c     55.414582
_cell_angle_alpha  97.934746
_cell_angle_beta   92.096288
_cell_angle_gamma 101.88061
loop_
_atom_site_label
_atom_site_type_symbol
_atom_site_fract_x
_atom_site_fract_y
_atom_site_fract_z
_atom_type_partial_charge
Mg0 Mg 0.0125 0.2656 0.38677 0.0
O1 O 0.01958 0.30249 0.41641 0.0
O2 O 0.98696 0.2982 0.43731 0.0
Mg3 Mg 0.96017 0.26089 0.42251 0.0
C4 C 0.0074 0.31095 0.43338 0.0
C5 C 0.05274 0.27282 0.35349 0.0
O6 O 0.03341 0.27104 0.33961 0.0
O7 O 0.01873 0.23931 0.41475 0.0
O8 O 0.98546 0.23577 0.43442 0.0
O9 O 0.99608 0.28722 0.36176 0.0
O10 O 0.97611 0.26413 0.38746 0.0
C11 C 0.00552 0.22989 0.43074 0.0
C12 C 0.97635 0.27979 0.37152 0.0
O13 O 0.05096 0.27182 0.37619 0.0
Mg14 Mg -0.00349 0.79183 0.65397 0.0
O15 O 0.98587 0.75313 0.62867 0.0
O16 O 0.95039 0.74816 0.6095 0.0
Mg17 Mg 0.93888 0.78671 0.62196 0.0
C18 C 0.96902 0.73976 0.6139 0.0
C19 C 0.03741 0.76181 0.66079 0.0
O20 O 0.01915 0.74281 0.66234 0.0
O21 O 0.00553 0.81266 0.62105 0.0
O22 O 0.96964 0.80861 0.60241 0.0
O23 O 0.97626 0.77506 0.68414 0.0
O24 O 0.96139 0.7948 0.65653 0.0
C25 C 0.99214 0.81655 0.6037 0.0
C26 C 0.95848 0.78317 0.67543 0.0
O27 O 0.03389 0.78424 0.658 0.0
Mg28 Mg 0.51 0.76375 0.88159 0.0
O29 O 0.5163 0.80157 0.91032 0.0
O30 O 0.48168 0.79894 0.9279 0.0
Mg31 Mg 0.4554 0.76111 0.91391 0.0
C32 C 0.50271 0.81106 0.92521 0.0
C33 C 0.55058 0.76526 0.84927 0.0
O34 O 0.5311 0.76074 0.83499 0.0
O35 O 0.51451 0.73872 0.91143 0.0
O36 O 0.47998 0.73697 0.92848 0.0
O37 O 0.49503 0.78491 0.8546 0.0
O38 O 0.47371 0.76326 0.88034 0.0
C39 C 0.5 0.73049 0.9269 0.0
C40 C 0.47497 0.77864 0.86411 0.0
O41 O 0.54891 0.76841 0.87231 0.0
Mg42 Mg 0.49097 0.29029 0.14695 0.0
O43 O 0.48071 0.24961 0.12466 0.0
O44 O 0.44601 0.24498 0.10377 0.0
Mg45 Mg 0.43309 0.28287 0.11455 0.0
C46 C 0.46399 0.23613 0.10974 0.0
C47 C 0.53493 0.27828 0.17277 0.0
O48 O 0.52036 0.27826 0.1904 0.0
O49 O 0.49945 0.30912 0.11265 0.0
O50 O 0.46327 0.30523 0.09482 0.0
O51 O 0.47177 0.27546 0.1782 0.0
O52 O 0.45548 0.29209 0.14915 0.0
C53 C 0.48574 0.31308 0.09558 0.0
C54 C 0.45321 0.28142 0.16869 0.0
O55 O 0.52842 0.2835 0.1522 0.0
Mg56 Mg 0.02005 0.79281 0.15152 0.0
O57 O 0.02003 0.75361 0.127 0.0
O58 O 0.98569 0.74336 0.10435 0.0
Mg59 Mg 0.96245 0.77202 0.11703 0.0
C60 C 0.00594 0.73899 0.11001 0.0
C61 C 0.06541 0.78024 0.17023 0.0
O62 O 0.04928 0.75885 0.17067 0.0
O63 O 0.02476 0.81421 0.11824 0.0
O64 O 0.98805 0.8029 0.10029 0.0
O65 O 0.00416 0.77336 0.1821 0.0
O66 O 0.98344 0.78351 0.15205 0.0
C67 C 0.00943 0.8158 0.10159 0.0
C68 C 0.98373 0.77355 0.17195 0.0
O69 O 0.05952 0.79909 0.16137 0.0
Mg70 Mg 0.48081 0.73117 0.35597 0.0
O71 O 0.48059 0.77091 0.37937 0.0
O72 O 0.44642 0.76527 0.39765 0.0
Mg73 Mg 0.42484 0.72381 0.38583 0.0
C74 C 0.46614 0.77957 0.39366 0.0
C75 C 0.52671 0.75663 0.3334 0.0
O76 O 0.51082 0.76637 0.32239 0.0
O77 O 0.4883 0.71418 0.3904 0.0
O78 O 0.45278 0.70729 0.40581 0.0
O79 O 0.4632 0.74265 0.32406 0.0
O80 O 0.44374 0.7232 0.35223 0.0
C81 C 0.47449 0.70552 0.40624 0.0
C82 C 0.44319 0.73418 0.33292 0.0
O83 O 0.52033 0.7426 0.34988 0.0
Mg84 Mg 0.52323 0.29467 0.65155 0.0
O85 O 0.5227 0.25462 0.62811 0.0
O86 O 0.48733 0.24314 0.60746 0.0
Mg87 Mg 0.465 0.27327 0.6182 0.0
C88 C 0.50776 0.23885 0.61254 0.0
C89 C 0.5688 0.31376 0.68249 0.0
O90 O 0.55257 0.32294 0.69483 0.0
O91 O 0.52762 0.31485 0.61745 0.0
O92 O 0.4907 0.30291 0.6001 0.0
O93 O 0.5072 0.27665 0.68313 0.0
O94 O 0.48657 0.28603 0.65264 0.0
C95 C 0.51204 0.31581 0.60079 0.0
C96 C 0.48679 0.27689 0.67294 0.0
O97 O 0.56285 0.30104 0.6612 0.0
Mg98 Mg 0.97898 0.22595 0.85468 0.0
O99 O 0.98076 0.26508 0.87992 0.0
O100 O 0.9472 0.25983 0.89927 0.0
Mg101 Mg 0.92471 0.21881 0.88736 0.0
C102 C 0.96699 0.2738 0.89502 0.0
C103 C 0.02669 0.25341 0.83394 0.0
O104 O 0.01313 0.26832 0.82656 0.0
O105 O 0.98763 0.20705 0.88771 0.0
O106 O 0.95324 0.20144 0.90544 0.0
O107 O 0.96004 0.24061 0.82538 0.0
O108 O 0.94199 0.21862 0.85287 0.0
C109 C 0.97468 0.19881 0.90438 0.0
C110 C 0.94058 0.23154 0.83501 0.0
O111 O 0.01818 0.23608 0.84689 0.0
Mg112 Mg 0.40461 0.05716 0.26821 0.0
O113 O 0.3831 0.02088 0.27984 0.0
O114 O 0.37662 0.02543 0.3194 0.0
Mg115 Mg 0.39469 0.06825 0.3334 0.0
C116 C 0.37409 0.01179 0.29823 0.0
C117 C 0.40009 0.02848 0.2105 0.0
O118 O 0.38563 0.01499 0.19224 0.0
O119 O 0.37186 0.07429 0.27006 0.0
O120 O 0.36689 0.08157 0.31007 0.0
O121 O 0.43823 0.04528 0.27906 0.0
O122 O 0.41968 0.06962 0.30375 0.0
C123 C 0.36054 0.08225 0.28787 0.0
C124 C 0.4366 0.05732 0.30075 0.0
O125 O 0.39129 0.03695 0.22982 0.0
Mg126 Mg 0.27415 0.14282 0.47838 0.0
O127 O 0.27364 0.16795 0.516 0.0
O128 O 0.30868 0.19555 0.52296 0.0
Mg129 Mg 0.33141 0.18764 0.49056 0.0
C130 C 0.28807 0.18641 0.52955 0.0
C131 C 0.22514 0.1172 0.49484 0.0
O132 O 0.23904 0.11533 0.51351 0.0
O133 O 0.2709 0.17613 0.45698 0.0
O134 O 0.3073 0.20139 0.46277 0.0
O135 O 0.28902 0.11348 0.49577 0.0
O136 O 0.31102 0.14682 0.48173 0.0
C137 C 0.28631 0.19572 0.45254 0.0
C138 C 0.30989 0.12623 0.49206 0.0
O139 O 0.23415 0.12849 0.47752 0.0
Mg140 Mg 0.12962 -0.00156 0.78503 0.0
O141 O 0.15091 0.04048 0.79278 0.0
O142 O 0.17277 0.04537 0.82781 0.0
Mg143 Mg 0.16273 0.00735 0.84411 0.0
C144 C 0.1663 0.05427 0.80899 0.0
C145 C 0.13414 0.01179 0.72976 0.0
O146 O 0.15714 0.01426 0.73299 0.0
O147 O 0.16305 0.98349 0.77572 0.0
O148 O 0.18028 0.98631 0.81308 0.0
O149 O 0.09945 0.0094 0.8042 0.0
O150 O 0.12858 0.99628 0.82234 0.0
C151 C 0.17942 0.9795 0.78994 0.0
C152 C 0.10916 0.00457 0.82398 0.0
O153 O 0.12081 0.00494 0.74646 0.0
Mg154 Mg 0.25618 0.89585 0.0065 0.0
O155 O 0.24967 0.87167 0.96782 0.0
O156 O 0.27568 0.84552 0.96651 0.0
Mg157 Mg 0.29986 0.85426 0.00123 0.0
C158 C 0.25866 0.85346 0.9568 0.0
C159 C 0.22581 0.93563 0.00698 0.0
O160 O 0.24775 0.94893 0.01074 0.0
O161 O 0.23904 0.86037 0.02396 0.0
O162 O 0.26828 0.83848 0.02233 0.0
O163 O 0.28284 0.92684 0.99332 0.0
O164 O 0.29154 0.89296 0.00786 0.0
C165 C 0.24792 0.8413 0.02891 0.0
C166 C 0.29861 0.91411 -0.00118 0.0
O167 O 0.22192 0.91077 0.00372 0.0
Mg168 Mg 0.26652 0.39865 0.03298 0.0
O169 O 0.26436 0.37117 0.99586 0.0
O170 O 0.2935 0.3496 -0.0014 0.0
Mg171 Mg 0.31373 0.36213 0.03608 0.0
C172 C 0.27627 0.35478 0.98652 0.0
C173 C 0.23043 0.43267 0.02631 0.0
O174 O 0.25063 0.44933 0.03263 0.0
O175 O 0.25096 0.3652 0.05453 0.0
O176 O 0.28155 0.34554 0.05681 0.0
O177 O 0.29272 0.42925 0.01801 0.0
O178 O 0.30282 0.39975 0.03831 0.0
C179 C 0.26071 0.34785 0.06219 0.0
C180 C 0.30924 0.4191 0.02657 0.0
O181 O 0.23022 0.40831 0.0243 0.0
Mg182 Mg 0.78736 0.14326 0.00692 0.0
O183 O 0.79477 0.16987 0.04332 0.0
O184 O 0.83248 0.19139 0.04706 0.0
Mg185 Mg 0.84912 0.17745 0.01214 0.0
C186 C 0.81193 0.18648 0.05519 0.0
C187 C 0.73765 0.11341 0.00532 0.0
O188 O 0.74972 0.09646 0.99573 0.0
O189 O 0.78712 0.17858 0.98879 0.0
O190 O 0.82537 0.19837 0.99093 0.0
O191 O 0.7977 0.111 0.02275 0.0
O192 O 0.82231 0.14041 0.00581 0.0
C193 C 0.80366 0.19701 0.98439 0.0
C194 C 0.8189 0.12009 0.01679 0.0
O195 O 0.74837 0.13693 0.01203 0.0
Mg196 Mg 0.10305 0.48508 0.23994 0.0
O197 O 0.12226 0.52834 0.24721 0.0
O198 O 0.13577 0.53725 0.28647 0.0
Mg199 Mg 0.12714 0.50008 0.30363 0.0
C200 C 0.13318 0.5442 0.26554 0.0
C201 C 0.07833 0.47321 0.19067 0.0
O202 O 0.0644 0.46063 0.20532 0.0
O203 O 0.13904 0.47406 0.23794 0.0
O204 O 0.15202 0.48373 0.27742 0.0
O205 O 0.06962 0.49503 0.25364 0.0
O206 O 0.09753 0.48502 0.27649 0.0
C207 C 0.15483 0.47558 0.25514 0.0
C208 C 0.07766 0.49213 0.27495 0.0
O209 O 0.09865 0.48618 0.19926 0.0
Mg210 Mg 0.76789 0.89867 0.53489 0.0
O211 O 0.76621 0.87144 0.49765 0.0
O212 O 0.79629 0.85118 0.50022 0.0
Mg213 Mg 0.8172 0.86501 0.5372 0.0
C214 C 0.77855 0.8555 0.4883 0.0
C215 C 0.72933 0.92329 0.51273 0.0
O216 O 0.74838 0.93307 0.50214 0.0
O217 O 0.75419 0.86462 0.55639 0.0
O218 O 0.78601 0.84696 0.55869 0.0
O219 O 0.79209 0.93088 0.52024 0.0
O220 O 0.80487 0.90193 0.53913 0.0
C221 C 0.76494 0.84812 0.56415 0.0
C222 C 0.80971 0.92178 0.52767 0.0
O223 O 0.73062 0.90636 0.52676 0.0
Mg224 Mg 0.88947 0.04314 0.24705 0.0
O225 O 0.86253 0.0034 0.23931 0.0
O226 O 0.8409 0.00161 0.27205 0.0
Mg227 Mg 0.85442 0.03743 0.30056 0.0
C228 C 0.84585 0.99179 0.25101 0.0
C229 C 0.91129 0.061 0.20018 0.0
O230 O 0.9144 0.08355 0.21453 0.0
O231 O 0.86079 0.06629 0.24102 0.0
O232 O 0.84178 0.06345 0.27527 0.0
O233 O 0.91508 0.02349 0.26344 0.0
O234 O 0.88884 0.04076 0.28434 0.0
C235 C 0.84487 0.072 0.25492 0.0
C236 C 0.90502 0.02718 0.28372 0.0
O237 O 0.89962 0.04065 0.20749 0.0
Mg238 Mg 0.28382 0.63763 0.50179 0.0
O239 O 0.29309 0.66385 0.53843 0.0
O240 O 0.33149 0.68271 0.54058 0.0
Mg241 Mg 0.34702 0.66613 0.50596 0.0
C242 C 0.31125 0.67953 0.54955 0.0
C243 C 0.23046 0.63822 0.4912 0.0
O244 O 0.23749 0.64235 0.46953 0.0
O245 O 0.28689 0.67351 0.48351 0.0
O246 O 0.32589 0.68882 0.48379 0.0
O247 O 0.29074 0.60343 0.51719 0.0
O248 O 0.31782 0.63113 0.50108 0.0
C249 C 0.30456 0.68984 0.47787 0.0
C250 C 0.31251 0.61092 0.51208 0.0
O251 O 0.24541 0.63606 0.50766 0.0
Mg252 Mg 0.38802 0.54481 0.74008 0.0
O253 O 0.36153 0.50466 0.73194 0.0
O254 O 0.34023 0.50273 0.76496 0.0
Mg255 Mg 0.35359 0.53814 0.79393 0.0
C256 C 0.34497 0.49301 0.74379 0.0
C257 C 0.4198 0.55806 0.70084 0.0
O258 O 0.43017 0.57079 0.72178 0.0
O259 O 0.35866 0.56726 0.73421 0.0
O260 O 0.34076 0.56422 0.76903 0.0
O261 O 0.41439 0.52576 0.75641 0.0
O262 O 0.38759 0.54195 0.77724 0.0
C263 C 0.3431 0.57285 0.74865 0.0
C264 C 0.40429 0.52912 0.7767 0.0
O265 O 0.39899 0.54423 0.70082 0.0
Mg266 Mg 0.59914 0.99032 0.74397 0.0
O267 O 0.62165 0.03219 0.75385 0.0
O268 O 0.63521 0.03666 0.79293 0.0
Mg269 Mg 0.62135 -0.00089 0.80816 0.0
C270 C 0.63384 0.04562 0.77279 0.0
C271 C 0.58617 0.97499 0.68893 0.0
O272 O 0.57757 0.95306 0.69716 0.0
O273 O 0.6332 0.97494 0.74231 0.0
O274 O 0.64493 0.98066 0.78203 0.0
O275 O 0.5667 0.00346 0.75638 0.0
O276 O 0.59204 0.99034 0.78019 0.0
C277 C 0.64783 0.9734 0.75961 0.0
C278 C 0.57372 0.00032 0.77798 0.0
O279 O 0.59785 0.99424 0.70377 0.0
Mg280 Mg 0.77207 0.64097 0.97978 0.0
O281 O 0.77237 0.66549 0.01785 0.0
O282 O 0.80808 0.69175 0.02497 0.0
Mg283 Mg 0.83057 0.68326 0.99239 0.0
C284 C 0.78731 0.68332 0.03156 0.0
C285 C 0.72468 0.60257 0.97456 0.0
O286 O 0.74023 0.58807 0.9692 0.0
O287 O 0.76975 0.67558 0.95926 0.0
O288 O 0.80722 0.69799 0.96478 0.0
O289 O 0.78615 0.61033 0.99627 0.0
O290 O 0.8089 0.64332 0.9826 0.0
C291 C 0.78627 0.69415 0.95472 0.0
C292 C 0.80721 0.62233 0.99235 0.0
O293 O 0.73196 0.62721 0.97963 0.0
Mg294 Mg 0.91177 0.55078 0.76206 0.0
O295 O 0.88786 0.51959 0.77817 0.0
O296 O 0.88459 0.52794 0.81817 0.0
Mg297 Mg 0.90701 0.57002 0.82748 0.0
C298 C 0.87933 0.51306 0.7977 0.0
C299 C 0.90205 0.51689 0.70659 0.0
O300 O 0.88643 0.50177 0.69016 0.0
O301 O 0.88215 0.57291 0.76357 0.0
O302 O 0.8799 0.58389 0.80375 0.0
O303 O 0.9428 0.53452 0.77316 0.0
O304 O 0.92953 0.56535 0.79617 0.0
C305 C 0.87272 0.58362 0.7816 0.0
C306 C 0.94385 0.54969 0.79382 0.0
O307 O 0.89469 0.52702 0.72612 0.0
Mg308 Mg 0.75405 0.39739 0.51757 0.0
O309 O 0.75107 0.37137 0.48002 0.0
O310 O 0.77922 0.34816 0.48172 0.0
Mg311 Mg 0.80053 0.35984 0.51829 0.0
C312 C 0.76194 0.35411 0.47043 0.0
C313 C 0.72219 0.43345 0.52083 0.0
O314 O 0.74223 0.44437 0.53357 0.0
O315 O 0.73727 0.36253 0.53556 0.0
O316 O 0.76748 0.34208 0.53673 0.0
O317 O 0.77957 0.42869 0.50424 0.0
O318 O 0.78978 0.39744 0.52222 0.0
C319 C 0.74641 0.34403 0.54146 0.0
C320 C 0.79604 0.41785 0.51178 0.0
O321 O 0.71947 0.40989 0.51051 0.0
Mg322 Mg 0.62262 0.4956 0.27878 0.0
O323 O 0.64537 0.53651 0.28838 0.0
O324 O 0.66359 0.5419 0.3254 0.0
Mg325 Mg 0.65182 0.50272 0.33973 0.0
C326 C 0.65925 0.55055 0.3057 0.0
C327 C 0.60804 0.52141 0.23583 0.0
O328 O 0.59874 0.53334 0.25419 0.0
O329 O 0.6556 0.47918 0.27186 0.0
O330 O 0.67134 0.48226 0.30991 0.0
O331 O 0.59217 0.50822 0.29709 0.0
O332 O 0.61902 0.49195 0.31555 0.0
C333 C 0.67138 0.47531 0.28685 0.0
C334 C 0.60034 0.50156 0.31678 0.0
O335 O 0.61923 0.50388 0.23967 0.0
Dy336 Dy 0.99399 0.02035 0.01329 0.0
C337 C 0.0947 0.03294 0.02859 0.0
C338 C 0.94709 0.02069 0.01357 0.0
Dy339 Dy 0.04807 0.03555 0.02682 0.0
O340 O 0.95854 0.01762 0.99402 0.0
O341 O 0.96117 0.02285 0.03281 0.0
O342 O -0.00022 0.9969 0.97788 0.0
O343 O 0.02541 0.02991 0.9936 0.0
C344 C 0.021 0.01075 0.97667 0.0
C345 C 0.02021 0.04457 0.06306 0.0
O346 O 0.04408 0.07232 0.01303 0.0
O347 O 0.00308 0.06419 0.01481 0.0
O348 O 0.08133 0.03163 0.04689 0.0
O349 O 0.08286 0.03706 0.00973 0.0
O350 O 0.04101 0.05944 0.06186 0.0
O351 O 0.01665 0.02539 0.04623 0.0
O352 O -0.00175 0.98286 0.02462 0.0
O353 O 0.03912 0.99144 0.02242 0.0
C354 C 0.02357 0.07977 0.01165 0.0
C355 C 0.01871 0.97533 0.0248 0.0
Dy356 Dy 0.25511 0.77232 0.23114 0.0
C357 C 0.26853 0.76936 0.33421 0.0
C358 C 0.24173 0.77909 0.18536 0.0
Dy359 Dy 0.25593 0.77584 0.28815 0.0
O360 O 0.25258 0.761 0.19033 0.0
O361 O 0.23872 0.79374 0.2053 0.0
O362 O 0.28658 0.75355 0.22934 0.0
O363 O 0.28209 0.77886 0.26077 0.0
C364 C 0.29396 0.76273 0.25197 0.0
C365 C 0.21719 0.7845 0.26554 0.0
O366 O 0.27498 0.81628 0.28611 0.0
O367 O 0.26853 0.81571 0.24412 0.0
O368 O 0.25096 0.77983 0.32859 0.0
O369 O 0.27874 0.76223 0.31475 0.0
O370 O 0.22398 0.7949 0.28805 0.0
O371 O 0.22968 0.7687 0.25828 0.0
O372 O 0.23355 0.73272 0.23502 0.0
O373 O 0.24463 0.73254 0.27578 0.0
C374 C 0.27594 0.82817 0.26653 0.0
C375 C 0.23462 0.72032 0.2542 0.0
Dy376 Dy 0.54498 0.02109 0.49252 0.0
C377 C 0.44897 0.03798 0.49133 0.0
C378 C 0.58661 0.00538 0.49979 0.0
Dy379 Dy 0.49135 0.0228 0.49464 0.0
O380 O 0.58243 0.01948 0.48332 0.0
O381 O 0.56829 0.00046 0.51254 0.0
O382 O 0.5474 0.04168 0.4594 0.0
O383 O 0.51538 0.01749 0.46606 0.0
C384 C 0.52498 0.03351 0.45269 0.0
C385 C 0.51185 0.00967 0.53374 0.0
O386 O 0.48698 0.98238 0.47425 0.0
O387 O 0.52588 0.9788 0.48262 0.0
O388 O 0.45535 0.02518 0.50791 0.0
O389 O 0.46543 0.04169 0.47609 0.0
O390 O 0.48958 0.00085 0.5269 0.0
O391 O 0.52097 0.02635 0.52086 0.0
O392 O 0.54861 0.06148 0.51349 0.0
O393 O 0.51031 0.06505 0.50254 0.0
C394 C 0.50357 0.96832 0.47439 0.0
C395 C 0.53214 0.07553 0.51204 0.0
Dy396 Dy 0.23228 0.26672 0.75203 0.0
C397 C 0.33093 0.26684 0.74694 0.0
C398 C 0.18579 0.25658 0.76287 0.0
Dy399 Dy 0.28495 0.26764 0.7558 0.0
O400 O 0.19449 0.27141 0.74708 0.0
O401 O 0.20232 0.24677 0.772 0.0
O402 O 0.23724 0.30009 0.73058 0.0
O403 O 0.26427 0.29783 0.75614 0.0
C404 C 0.25897 0.30973 0.73916 0.0
C405 C 0.25683 0.22608 0.76964 0.0
O406 O 0.28374 0.28871 0.79339 0.0
O407 O 0.24265 0.28106 0.79227 0.0
O408 O 0.31329 0.24693 0.74295 0.0
O409 O 0.3236 0.28756 0.75621 0.0
O410 O 0.2775 0.23698 0.78031 0.0
O411 O 0.25285 0.23681 0.75144 0.0
O412 O 0.23593 0.2448 0.71496 0.0
O413 O 0.2757 0.26392 0.71555 0.0
C414 C 0.26379 0.28943 0.80429 0.0
C415 C 0.25568 0.25071 0.70353 0.0
Dy416 Dy 0.00761 0.00081 0.47444 0.0
C417 C 0.04963 0.03433 0.57521 0.0
C418 C 0.97455 0.98744 0.43638 0.0
Dy419 Dy 0.02695 0.02506 0.52989 0.0
O420 O 0.99385 0.97836 0.43745 0.0
O421 O 0.9733 0.00321 0.45624 0.0
O422 O 0.04319 0.00888 0.45746 0.0
O423 O 0.04006 0.01929 0.49437 0.0
C424 C 0.0546 0.02031 0.47812 0.0
C425 C 0.97982 0.01177 0.51988 0.0
O426 O 0.02905 0.06217 0.51434 0.0
O427 O 0.0065 0.0435 0.47781 0.0
O428 O 0.02805 0.0214 0.56965 0.0
O429 O 0.05878 0.04293 0.55604 0.0
O430 O 0.99001 0.03105 0.5366 0.0
O431 O 0.99511 0.0002 0.51089 0.0
O432 O 0.0094 0.96437 0.48979 0.0
O433 O 0.03399 0.98428 0.52466 0.0
C434 C 0.01792 0.06407 0.49347 0.0
C435 C 0.02297 0.96324 0.50933 0.0
Dy436 Dy 0.28989 0.7933 0.7613 0.0
C437 C 0.20365 0.7495 0.69906 0.0
C438 C 0.32621 0.81275 0.79599 0.0
Dy439 Dy 0.24292 0.77033 0.72986 0.0
O440 O 0.32534 0.81921 0.77424 0.0
O441 O 0.30686 0.79637 0.79894 0.0
O442 O 0.31136 0.7799 0.73169 0.0
O443 O 0.27872 0.78902 0.72241 0.0
C444 C 0.29559 0.77922 0.71424 0.0
C445 C 0.23909 0.78333 0.778 0.0
O446 O 0.25982 0.73546 0.72754 0.0
O447 O 0.28634 0.75043 0.7616 0.0
O448 O 0.20808 0.74218 0.71986 0.0
O449 O 0.2213 0.76746 0.69458 0.0
O450 O 0.22331 0.78512 0.76152 0.0
O451 O 0.2548 0.77315 0.76808 0.0
O452 O 0.27395 0.82859 0.76117 0.0
O453 O 0.24645 0.81279 0.72807 0.0
C454 C 0.2754 0.73161 0.7441 0.0
C455 C 0.25811 0.83208 0.74469 0.0
Dy456 Dy 0.51798 0.03322 0.04878 0.0
C457 C 0.51479 0.03193 0.94182 0.0
C458 C 0.51375 0.04882 0.09701 0.0
Dy459 Dy 0.51164 0.03318 0.99069 0.0
O460 O 0.50165 0.0545 0.07905 0.0
O461 O 0.52835 0.03451 0.08861 0.0
O462 O 0.5269 0.99283 0.04654 0.0
O463 O 0.52059 0.00879 0.01565 0.0
C464 C 0.52564 0.98896 0.02272 0.0
C465 C 0.49626 0.06986 0.02017 0.0
O466 O 0.48046 0.00301 0.99626 0.0
O467 O 0.47945 0.01494 0.03845 0.0
O468 O 0.52291 0.05227 0.95814 0.0
O469 O 0.50502 0.01216 0.9522 0.0
O470 O 0.48646 0.06004 -0.00147 0.0
O471 O 0.51448 0.06112 0.02399 0.0
O472 O 0.55374 0.05503 0.04147 0.0
O473 O 0.55079 0.04262 -0.00098 0.0
C474 C 0.46975 0.002 0.01692 0.0
C475 C 0.56319 0.05322 0.01994 0.0
Dy476 Dy 0.25695 0.30256 0.26302 0.0
C477 C 0.24854 0.19204 0.254 0.0
C478 C 0.25578 0.35271 0.25787 0.0
Dy479 Dy 0.24642 0.24282 0.25239 0.0
O480 O 0.26129 0.34518 0.27831 0.0
O481 O 0.25094 0.33291 0.24059 0.0
O482 O 0.27871 0.30199 0.29745 0.0
O483 O 0.2495 0.27142 0.28519 0.0
C484 C 0.26677 0.27915 0.30086 0.0
C485 C 0.23752 0.26664 0.21431 0.0
O486 O 0.21174 0.24709 0.26676 0.0
O487 O 0.21752 0.29196 0.26676 0.0
O488 O 0.24934 0.20293 0.23434 0.0
O489 O 0.24592 0.20875 0.2726 0.0
O490 O 0.2252 0.24395 0.21764 0.0
O491 O 0.25448 0.27401 0.23038 0.0
O492 O 0.29143 0.29776 0.24899 0.0
O493 O 0.28633 0.25386 0.25287 0.0
C494 C 0.20402 0.26917 0.26977 0.0
C495 C 0.29974 0.27621 0.24868 0.0
Dy496 Dy 0.50443 0.50504 0.973 0.0
C497 C 0.56033 0.54123 0.06621 0.0
C498 C 0.47422 0.49455 0.93233 0.0
Dy499 Dy 0.52821 0.52752 0.02716 0.0
O500 O 0.4933 0.48541 0.93439 0.0
O501 O 0.47161 0.50898 0.95253 0.0
O502 O 0.54023 0.50049 0.9604 0.0
O503 O 0.53787 0.529 0.98969 0.0
C504 C 0.552 0.5179 0.97784 0.0
C505 C 0.48111 0.50748 0.02706 0.0
O506 O 0.52642 0.56512 0.01324 0.0
O507 O 0.50313 0.54761 0.97687 0.0
O508 O 0.54244 0.55215 0.06302 0.0
O509 O 0.56098 0.52342 0.04768 0.0
O510 O 0.49413 0.51813 0.04694 0.0
O511 O 0.49433 0.50914 0.00976 0.0
O512 O 0.50102 0.4688 0.99025 0.0
O513 O 0.53191 0.48562 0.02005 0.0
C514 C 0.51381 0.56768 0.99346 0.0
C515 C 0.51656 0.46567 0.00724 0.0
Dy516 Dy 0.78765 0.29346 0.26546 0.0
C517 C 0.6959 0.25046 0.21657 0.0
C518 C 0.82591 0.30747 0.29819 0.0
Dy519 Dy 0.73772 0.26515 0.24431 0.0
O520 O 0.82513 0.31488 0.27678 0.0
O521 O 0.80571 0.29293 0.30172 0.0
O522 O 0.79887 0.30208 0.22854 0.0
O523 O 0.77311 0.2687 0.23158 0.0
C524 C 0.78332 0.28249 0.21672 0.0
C525 C 0.74301 0.27732 0.29312 0.0
O526 O 0.75415 0.23009 0.24216 0.0
O527 O 0.78782 0.25094 0.26697 0.0
O528 O 0.69985 0.24327 0.23756 0.0
O529 O 0.71507 0.26498 0.21042 0.0
O530 O 0.7282 0.25677 0.28206 0.0
O531 O 0.7523 0.29077 0.2777 0.0
O532 O 0.77194 0.32853 0.26499 0.0
O533 O 0.73881 0.30717 0.23963 0.0
C534 C 0.77382 0.22938 0.25496 0.0
C535 C 0.75297 0.32895 0.25099 0.0
Dy536 Dy 0.0175 0.53735 0.54127 0.0
C537 C 0.01146 0.52604 0.43639 0.0
C538 C 0.01435 0.5468 0.5906 0.0
Dy539 Dy 0.00984 0.53615 0.48567 0.0
O540 O 0.00506 0.5583 0.57471 0.0
O541 O 0.02544 0.53003 0.57952 0.0
O542 O 0.03859 0.50594 0.53466 0.0
O543 O 0.01101 0.50712 0.50959 0.0
C544 C 0.02771 0.49594 0.51347 0.0
C545 C -0.00164 0.57651 0.51345 0.0
O546 O 0.97453 0.51359 0.49165 0.0
O547 O 0.97808 0.52107 0.5342 0.0
O548 O 0.00935 0.50867 0.45102 0.0
O549 O 0.0127 0.54911 0.44868 0.0
O550 O 0.98767 0.56634 0.49219 0.0
O551 O 0.01569 0.56628 0.51747 0.0
O552 O 0.05169 0.56267 0.5341 0.0
O553 O 0.0492 0.54739 0.49255 0.0
C554 C 0.96544 0.51204 0.51307 0.0
C555 C 0.06135 0.56035 0.5128 0.0
Dy556 Dy 0.73258 0.76553 0.25442 0.0
C557 C 0.83008 0.76132 0.24961 0.0
C558 C 0.68569 0.76035 0.26306 0.0
Dy559 Dy 0.78442 0.76348 0.25839 0.0
O560 O 0.69895 0.78066 0.25618 0.0
O561 O 0.69787 0.7425 0.26446 0.0
O562 O 0.73978 0.79747 0.23148 0.0
O563 O 0.7656 0.79525 0.2585 0.0
C564 C 0.76122 0.80696 0.24099 0.0
C565 C 0.75502 0.72287 0.27234 0.0
O566 O 0.78365 0.78485 0.29588 0.0
O567 O 0.74262 0.77717 0.29501 0.0
O568 O 0.81201 0.74194 0.24504 0.0
O569 O 0.82336 0.78221 0.25947 0.0
O570 O 0.77614 0.73252 0.28246 0.0
O571 O 0.75139 0.73406 0.25431 0.0
O572 O 0.73524 0.74462 0.21662 0.0
O573 O 0.77581 0.75986 0.21801 0.0
C574 C 0.76379 0.78552 0.30694 0.0
C575 C 0.75543 0.74862 0.20563 0.0
Dy576 Dy 0.75119 0.27664 0.74346 0.0
C577 C 0.7643 0.28252 0.84713 0.0
C578 C 0.74018 0.27883 0.69577 0.0
Dy579 Dy 0.75181 0.28451 0.79989 0.0
O580 O 0.75831 0.27059 0.70369 0.0
O581 O 0.72835 0.28619 0.7139 0.0
O582 O 0.77873 0.25246 0.74466 0.0
O583 O 0.7783 0.2832 0.77312 0.0
C584 C 0.78783 0.26428 0.76612 0.0
C585 C 0.71494 0.29586 0.77652 0.0
O586 O 0.77117 0.32406 0.79595 0.0
O587 O 0.76599 0.32025 0.75353 0.0
O588 O 0.74342 0.28467 0.83929 0.0
O589 O 0.77802 0.28132 0.82923 0.0
O590 O 0.7235 0.30812 0.79805 0.0
O591 O 0.7251 0.27742 0.77017 0.0
O592 O 0.72951 0.23781 0.74854 0.0
O593 O 0.73905 0.24103 0.7902 0.0
C594 C 0.77318 0.33417 0.77543 0.0
C595 C 0.72938 0.22739 0.769 0.0
Dy596 Dy 0.75641 0.80044 0.76458 0.0
C597 C 0.75556 0.69114 0.75418 0.0
C598 C 0.75064 0.84901 0.75869 0.0
Dy599 Dy 0.74988 0.74106 0.75394 0.0
O600 O 0.76058 0.84347 0.77818 0.0
O601 O 0.74391 0.82814 0.74279 0.0
O602 O 0.77684 0.80196 0.80032 0.0
O603 O 0.75023 0.76908 0.78675 0.0
C604 C 0.76654 0.77834 0.80331 0.0
C605 C 0.74073 0.76426 0.71538 0.0
O606 O 0.71407 0.74218 0.76747 0.0
O607 O 0.71715 0.78675 0.76748 0.0
O608 O 0.75233 0.70694 0.7732 0.0
O609 O 0.75502 0.70242 0.73487 0.0
O610 O 0.72939 0.74101 0.71832 0.0
O611 O 0.75689 0.77258 0.73216 0.0
O612 O 0.79136 0.79802 0.74995 0.0
O613 O 0.78969 0.7553 0.75635 0.0
C614 C 0.7048 0.76328 0.77012 0.0
C615 C 0.80153 0.7779 0.75099 0.0
Dy616 Dy 0.49074 0.5183 0.51088 0.0
C617 C 0.59127 0.53024 0.5125 0.0
C618 C 0.4455 0.52121 0.52011 0.0
Dy619 Dy 0.54545 0.53355 0.51825 0.0
O620 O 0.45159 0.50884 0.50017 0.0
O621 O 0.464 0.53142 0.53478 0.0
O622 O 0.49313 0.4959 0.47364 0.0
O623 O 0.51946 0.52878 0.48794 0.0
C624 C 0.51382 0.51009 0.47073 0.0
C625 C 0.52159 0.5419 0.55793 0.0
O626 O 0.53987 0.57001 0.50499 0.0
O627 O 0.49927 0.56191 0.5097 0.0
O628 O 0.58362 0.54124 0.53222 0.0
O629 O 0.57405 0.52214 0.49577 0.0
O630 O 0.54179 0.55695 0.5548 0.0
O631 O 0.51665 0.52287 0.54101 0.0
O632 O 0.49654 0.48124 0.52237 0.0
O633 O 0.53718 0.48983 0.51835 0.0
C634 C 0.51937 0.57761 0.50549 0.0
C635 C 0.51706 0.47376 0.52178 0.0
Dy636 Dy 0.04072 0.51809 0.99373 0.0
C637 C 0.9432 0.52889 0.98846 0.0
C638 C 0.08289 0.50451 0.00381 0.0
Dy639 Dy 0.98647 0.51586 0.99284 0.0
O640 O 0.07981 0.5208 0.98898 0.0
O641 O 0.06314 0.49628 0.01343 0.0
O642 O 0.0438 0.53992 0.96145 0.0
O643 O 0.01235 0.51332 0.96557 0.0
C644 C 0.0219 0.53043 0.95324 0.0
C645 C 0.00611 0.50248 0.03222 0.0
O646 O 0.98446 0.47616 0.97219 0.0
O647 O 0.02396 0.47525 0.98127 0.0
O648 O 0.95052 0.51816 0.00617 0.0
O649 O 0.95916 0.53144 0.97253 0.0
O650 O 0.98455 0.49191 0.02363 0.0
O651 O 0.01495 0.52055 0.02067 0.0
O652 O 0.0414 0.55771 0.01517 0.0
O653 O 0.0031 0.55858 0.00186 0.0
C654 C 0.00204 0.4635 0.97244 0.0
C655 C 0.02404 0.57041 0.01286 0.0
H656 H 0.02126 0.19848 0.91603 0.0
H657 H 0.95002 0.16819 0.93454 0.0
H658 H 0.03663 0.17527 0.94604 0.0
H659 H 0.96506 0.14417 0.96342 0.0
H660 H 0.04962 0.10112 0.97671 0.0
H661 H 0.03986 0.13332 0.9528 0.0
H662 H 0.98466 0.14561 0.00085 0.0
H663 H 0.99361 0.11222 0.02367 0.0
C664 C 0.00888 0.18682 0.92645 0.0
C665 C 0.9844 0.18523 0.92286 0.0
C666 C 0.01768 0.17341 0.94363 0.0
C667 C 0.00219 0.15783 0.95741 0.0
C668 C 0.97772 0.15644 0.95378 0.0
C669 C 0.96899 0.17009 0.93694 0.0
C670 C 0.03586 0.1113 0.98253 0.0
C671 C 0.02227 0.1041 0.00194 0.0
C672 C 0.03019 0.12978 0.96878 0.0
C673 C 0.01104 0.14176 0.97443 0.0
C674 C -0.00103 0.13621 0.99534 0.0
C675 C 0.00429 0.11734 0.0087 0.0
H676 H 0.09845 0.82528 0.18643 0.0
H677 H 0.08558 0.74126 0.18193 0.0
H678 H 0.13631 0.82912 0.20965 0.0
H679 H 0.12308 0.74514 0.20487 0.0
H680 H 0.20125 0.75847 0.22082 0.0
H681 H 0.16607 0.76019 0.19668 0.0
H682 H 0.15007 0.81825 0.2526 0.0
H683 H 0.18609 0.8168 0.27709 0.0
C684 C 0.10382 0.80767 0.19015 0.0
C685 C 0.08914 0.78294 0.18229 0.0
C686 C 0.1253 0.80991 0.20362 0.0
C687 C 0.13254 0.78743 0.20902 0.0
C688 C 0.118 0.76278 0.20079 0.0
C689 C 0.09652 0.76056 0.18767 0.0
C690 C 0.19046 0.77184 0.22801 0.0
C691 C 0.19633 0.78739 0.25096 0.0
C692 C 0.17024 0.77273 0.21414 0.0
C693 C 0.15527 0.78913 0.22289 0.0
C694 C 0.16145 0.80549 0.24546 0.0
C695 C 0.18187 0.80456 0.2595 0.0
H696 H 0.43912 0.80474 0.42399 0.0
H697 H 0.50627 0.81709 0.39087 0.0
H698 H 0.44812 0.84992 0.44372 0.0
H699 H 0.51507 0.86261 0.41045 0.0
H700 H 0.46099 0.93939 0.45313 0.0
H701 H 0.45224 0.89396 0.43345 0.0
H702 H 0.5242 0.8885 0.45113 0.0
H703 H 0.53309 0.93388 0.47046 0.0
C704 C 0.45581 0.81707 0.42085 0.0
C705 C 0.47198 0.80717 0.4058 0.0
C706 C 0.46088 0.84308 0.43207 0.0
C707 C 0.48226 0.85992 0.42862 0.0
C708 C 0.49853 0.85006 0.41368 0.0
C709 C 0.49343 0.82399 0.40237 0.0
C710 C 0.47493 0.92849 0.45291 0.0
C711 C 0.49774 0.94037 0.46338 0.0
C712 C 0.46989 0.90241 0.44169 0.0
C713 C 0.48755 0.88762 0.44064 0.0
C714 C 0.51029 0.89944 0.45128 0.0
C715 C 0.51532 0.92546 0.46254 0.0
H716 H 0.44209 0.25769 0.65201 0.0
H717 H 0.48169 0.28137 0.72188 0.0
H718 H 0.40513 0.25325 0.67246 0.0
H719 H 0.44452 0.27735 0.74237 0.0
H720 H 0.37124 0.30535 0.75631 0.0
H721 H 0.41015 0.30431 0.74034 0.0
H722 H 0.38314 0.22559 0.70388 0.0
H723 H 0.3446 0.22639 0.72007 0.0
C724 C 0.44289 0.26161 0.67174 0.0
C725 C 0.46474 0.2699 0.68534 0.0
C726 C 0.42175 0.25902 0.68344 0.0
C727 C 0.42205 0.26517 0.70895 0.0
C728 C 0.44388 0.27267 0.72266 0.0
C729 C 0.46507 0.2747 0.71096 0.0
C730 C 0.37379 0.28775 0.74519 0.0
C731 C 0.35496 0.26601 0.73934 0.0
C732 C 0.396 0.2871 0.73616 0.0
C733 C 0.39953 0.26487 0.72085 0.0
C734 C 0.38082 0.24297 0.71555 0.0
C735 C 0.35882 0.24346 0.72486 0.0
H736 H 0.02766 0.85982 0.6121 0.0
H737 H 0.97926 0.81093 0.5552 0.0
H738 H 0.03867 0.89215 0.58515 0.0
H739 H 0.99157 0.84216 0.52727 0.0
H740 H 0.9876 0.91993 0.50125 0.0
H741 H 0.98403 0.88122 0.52074 0.0
H742 H 0.05571 0.90906 0.55283 0.0
H743 H 0.05837 0.94887 0.5346 0.0
C744 C 0.02003 0.85561 0.59346 0.0
C745 C 0.00242 0.8331 0.58579 0.0
C746 C 0.02643 0.87412 0.57783 0.0
C747 C 0.01577 0.8702 0.55392 0.0
C748 C -0.00039 0.84645 0.54572 0.0
C749 C 0.9927 0.82835 0.56161 0.0
C750 C 0.00277 0.91748 0.51204 0.0
C751 C 0.02317 0.93748 0.51659 0.0
C752 C 0.00082 0.89511 0.52322 0.0
C753 C 0.01947 0.89188 0.5388 0.0
C754 C 0.04065 0.91107 0.54165 0.0
C755 C 0.04233 0.9338 0.53097 0.0
H756 H 0.43979 0.79026 0.8926 0.0
H757 H 0.46476 0.79286 0.82039 0.0
H758 H 0.40513 0.80592 0.88036 0.0
H759 H 0.42969 0.80767 0.8077 0.0
H760 H 0.36949 0.8425 0.78999 0.0
H761 H 0.40721 0.84045 0.81005 0.0
H762 H 0.36984 0.78823 0.85612 0.0
H763 H 0.33239 0.79131 0.83683 0.0
C764 C 0.43776 0.79391 0.87403 0.0
C765 C 0.45468 0.78971 0.85728 0.0
C766 C 0.41791 0.80303 0.86701 0.0
C767 C 0.41439 0.80783 0.84295 0.0
C768 C 0.43188 0.80457 0.82648 0.0
C769 C 0.45191 0.79583 0.83365 0.0
C770 C 0.36941 0.83128 0.80494 0.0
C771 C 0.34811 0.81683 0.81171 0.0
C772 C 0.39101 0.82984 0.81624 0.0
C773 C 0.39167 0.81371 0.83435 0.0
C774 C 0.37013 0.80098 0.84238 0.0
C775 C 0.34859 0.80265 0.83126 0.0
H776 H 0.44489 0.20945 0.06543 0.0
H777 H 0.48776 0.2033 0.12888 0.0
H778 H 0.45127 0.16772 0.04553 0.0
H779 H 0.49301 0.16077 0.10975 0.0
H780 H 0.52333 0.10381 0.05675 0.0
H781 H 0.51382 0.14253 0.07971 0.0
H782 H 0.44378 0.12264 0.04288 0.0
H783 H 0.45408 0.08477 0.01891 0.0
C784 C 0.45529 0.19887 0.0753 0.0
C785 C 0.466 0.20971 0.09859 0.0
C786 C 0.45884 0.1748 0.06398 0.0
C787 C 0.4728 0.16073 0.07591 0.0
C788 C 0.48267 0.17122 0.09968 0.0
C789 C 0.47953 0.19555 0.11076 0.0
C790 C 0.50587 0.1077 0.05374 0.0
C791 C 0.48951 0.09155 0.03594 0.0
C792 C 0.50028 0.12982 0.06704 0.0
C793 C 0.47802 0.136 0.06313 0.0
C794 C 0.4613 0.11899 0.04601 0.0
C795 C 0.46709 0.09715 0.03239 0.0
H796 H 0.09375 0.26193 0.37182 0.0
H797 H 0.06322 0.2867 0.30913 0.0
H798 H 0.13022 0.26103 0.35083 0.0
H799 H 0.09948 0.28587 0.28836 0.0
H800 H 0.17845 0.30744 0.2715 0.0
H801 H 0.14238 0.30948 0.29256 0.0
H802 H 0.14137 0.23349 0.31316 0.0
H803 H 0.17738 0.23131 0.2921 0.0
C804 C 0.09491 0.26744 0.35372 0.0
C805 C 0.07561 0.27432 0.34211 0.0
C806 C 0.11567 0.26671 0.34164 0.0
C807 C 0.1176 0.27325 0.31791 0.0
C808 C 0.09855 0.28086 0.30666 0.0
C809 C 0.07775 0.28124 0.31855 0.0
C810 C 0.17041 0.29104 0.28029 0.0
C811 C 0.18076 0.26918 0.28003 0.0
C812 C 0.14977 0.29223 0.29236 0.0
C813 C 0.13922 0.27175 0.30469 0.0
C814 C 0.14932 0.24971 0.30409 0.0
C815 C 0.16978 0.24835 0.29176 0.0
H816 H 0.92113 0.01676 0.17508 0.0
H817 H 0.93228 0.10009 0.17546 0.0
H818 H 0.94733 0.01348 0.14216 0.0
H819 H 0.95763 0.09673 0.14145 0.0
H820 H 0.02279 0.086 0.09955 0.0
H821 H 0.99536 0.09022 0.1317 0.0
H822 H 0.95246 0.01464 0.10133 0.0
H823 H 0.9808 0.00975 0.07084 0.0
C824 C 0.92875 0.03433 0.16772 0.0
C825 C 0.92461 0.05868 0.17792 0.0
C826 C 0.94379 0.03247 0.14869 0.0
C827 C 0.95479 0.05486 0.139 0.0
C828 C 0.94994 0.07912 0.1487 0.0
C829 C 0.93517 0.08103 0.16804 0.0
C830 C 0.00753 0.07032 0.09994 0.0
C831 C 0.00377 0.04772 0.08251 0.0
C832 C 0.99162 0.0728 0.11819 0.0
C833 C 0.9715 0.0528 0.11923 0.0
C834 C 0.96784 0.03031 0.10154 0.0
C835 C 0.98393 0.02767 0.08372 0.0
H836 H 0.33719 0.72659 0.45974 0.0
H837 H 0.26182 0.69675 0.46057 0.0
H838 H 0.32983 0.75313 0.42884 0.0
H839 H 0.25462 0.72268 0.42935 0.0
H840 H 0.24612 0.77708 0.37638 0.0
H841 H 0.25636 0.76505 0.41596 0.0
H842 H 0.31698 0.7392 0.38605 0.0
H843 H 0.30703 0.75159 0.34705 0.0
C844 C 0.31905 0.72595 0.45362 0.0
C845 C 0.30013 0.70911 0.46225 0.0
C846 C 0.31485 0.74112 0.43588 0.0
C847 C 0.29167 0.73969 0.4264 0.0
C848 C 0.27268 0.72436 0.43636 0.0
C849 C 0.27685 0.70927 0.45413 0.0
C850 C 0.26182 0.76922 0.37853 0.0
C851 C 0.27563 0.76491 0.35871 0.0
C852 C 0.26765 0.7623 0.40109 0.0
C853 C 0.28743 0.7511 0.40411 0.0
C854 C 0.30184 0.7481 0.38449 0.0
C855 C 0.29598 0.75493 0.36204 0.0
H856 H 0.5936 0.02031 0.6692 0.0
H857 H 0.56223 0.93786 0.65228 0.0
H858 H 0.57688 0.02738 0.63048 0.0
H859 H 0.54612 0.94479 0.61304 0.0
H860 H 0.4948 0.9737 0.56304 0.0
H861 H 0.51507 0.96406 0.599 0.0
H862 H 0.57763 0.02054 0.58729 0.0
H863 H 0.5569 0.031 0.55219 0.0
C864 C 0.58355 0.00358 0.65698 0.0
C865 C 0.57907 0.97855 0.66392 0.0
C866 C 0.57401 0.00762 0.63468 0.0
C867 C 0.55995 0.98669 0.61869 0.0
C868 C 0.55645 0.96143 0.62514 0.0
C869 C 0.56586 0.95742 0.64754 0.0
C870 C 0.51289 0.98398 0.5682 0.0
C871 C 0.52431 0.00303 0.55487 0.0
C872 C 0.52461 0.9783 0.58864 0.0
C873 C 0.54803 0.99149 0.59605 0.0
C874 C 0.55952 0.01025 0.58234 0.0
C875 C 0.54772 0.01609 0.56208 0.0
H876 H 0.29768 0.31883 0.9611 0.0
H877 H 0.24513 0.36475 0.95188 0.0
H878 H 0.29392 0.30332 0.91749 0.0
H879 H 0.24158 0.3493 0.90793 0.0
H880 H 0.22695 0.29604 0.83272 0.0
H881 H 0.22854 0.3108 0.87657 0.0
H882 H 0.3046 0.32075 0.88016 0.0
H883 H 0.30304 0.30569 0.83641 0.0
C884 C 0.28518 0.32554 0.94984 0.0
C885 C 0.27178 0.34321 0.96018 0.0
C886 C 0.28319 0.31677 0.92469 0.0
C887 C 0.2677 0.3253 0.90904 0.0
C888 C 0.25364 0.34223 0.91942 0.0
C889 C 0.25569 0.35111 0.94466 0.0
C890 C 0.24406 0.30145 0.8428 0.0
C891 C 0.26488 0.29958 0.8309 0.0
C892 C 0.24495 0.31004 0.86799 0.0
C893 C 0.26667 0.31686 0.88203 0.0
C894 C 0.2875 0.31527 0.87006 0.0
C895 C 0.28663 0.3068 0.84487 0.0
H896 H 0.94559 0.01062 0.29195 0.0
H897 H 0.87955 0.01721 0.32343 0.0
H898 H 0.95852 0.99491 0.32819 0.0
H899 H 0.89186 0.00018 0.35924 0.0
H900 H 0.93811 0.01146 0.43113 0.0
H901 H 0.91826 0.01607 0.39328 0.0
H902 H 0.95553 0.96237 0.35347 0.0
H903 H 0.97641 0.95891 0.39164 0.0
C904 C 0.93363 0.00825 0.30646 0.0
C905 C 0.91171 0.01559 0.305 0.0
C906 C 0.94094 -0.00106 0.32719 0.0
C907 C 0.92631 0.99634 0.34682 0.0
C908 C 0.90384 0.00246 0.34475 0.0
C909 C 0.89672 0.01222 0.32417 0.0
C910 C 0.94173 0.00024 0.41434 0.0
C911 C 0.95903 0.98514 0.41421 0.0
C912 C 0.9302 0.00273 0.39256 0.0
C913 C 0.93549 0.98989 0.37014 0.0
C914 C 0.95146 0.97307 0.37031 0.0
C915 C 0.96325 0.97084 0.39217 0.0
H916 H 0.34501 0.71659 0.57793 0.0
H917 H 0.27102 0.67842 0.57434 0.0
H918 H 0.34031 0.7427 0.61643 0.0
H919 H 0.26653 0.7043 0.61317 0.0
H920 H 0.33061 0.75635 0.69797 0.0
H921 H 0.33368 0.73335 0.65769 0.0
H922 H 0.26728 0.7498 0.63326 0.0
H923 H 0.26406 0.77289 0.67427 0.0
C924 C 0.32777 0.71367 0.58536 0.0
C925 C 0.30846 0.69521 0.57312 0.0
C926 C 0.32508 0.72863 0.60745 0.0
C927 C 0.30306 0.72547 0.61786 0.0
C928 C 0.28364 0.70736 0.60546 0.0
C929 C 0.28631 0.69237 0.58333 0.0
C930 C 0.31669 0.75527 0.68401 0.0
C931 C 0.2971 0.76645 0.68919 0.0
C932 C 0.31854 0.74218 0.66086 0.0
C933 C 0.30084 0.73995 0.64224 0.0
C934 C 0.28114 0.75114 0.64734 0.0
C935 C 0.27931 0.76439 0.67069 0.0
H936 H 0.5953 0.02837 0.82027 0.0
H937 H 0.52652 0.99336 0.78428 0.0
H938 H 0.57707 0.03933 0.85805 0.0
H939 H 0.50797 0.00448 0.82242 0.0
H940 H 0.49919 0.99068 0.90583 0.0
H941 H 0.51014 0.98694 0.86348 0.0
H942 H 0.54954 0.06686 0.8767 0.0
H943 H 0.53865 0.07059 0.91901 0.0
C944 C 0.57625 0.02309 0.82049 0.0
C945 C 0.56229 0.00956 0.79966 0.0
C946 C 0.56577 0.02971 0.84199 0.0
C947 C 0.54113 0.02269 0.84311 0.0
C948 C 0.52703 0.01 0.82198 0.0
C949 C 0.53757 0.00374 0.80025 0.0
C950 C 0.5098 0.00757 0.8995 0.0
C951 C 0.51838 0.0308 0.91564 0.0
C952 C 0.5159 0.0055 0.87527 0.0
C953 C 0.53079 0.02657 0.86696 0.0
C954 C 0.53819 0.05028 0.88277 0.0
C955 C 0.53197 0.0524 0.90692 0.0
H956 H 0.2327 0.36277 0.09796 0.0
H957 H 0.26514 0.29913 0.0699 0.0
H958 H 0.22321 0.3423 0.13458 0.0
H959 H 0.255 0.27847 0.10616 0.0
H960 H 0.20663 0.24876 0.17377 0.0
H961 H 0.20714 0.26649 0.13492 0.0
H962 H 0.26638 0.32817 0.16429 0.0
H963 H 0.26676 0.30994 0.20244 0.0
C964 C 0.23698 0.34396 0.09913 0.0
C965 C 0.24965 0.33256 0.08097 0.0
C966 C 0.23166 0.33236 0.12015 0.0
C967 C 0.23835 0.30882 0.12306 0.0
C968 C 0.24951 0.29651 0.10421 0.0
C969 C 0.25528 0.30835 0.08348 0.0
C970 C 0.21962 0.26622 0.17199 0.0
C971 C 0.23643 0.27815 0.19138 0.0
C972 C 0.21986 0.27634 0.14981 0.0
C973 C 0.2366 0.29885 0.14683 0.0
C974 C 0.25307 0.31103 0.16631 0.0
C975 C 0.25317 0.30064 0.1882 0.0
H976 H 0.17977 0.91789 0.01711 0.0
H977 H 0.22831 0.98592 0.00025 0.0
H978 H 0.14915 0.94364 0.02319 0.0
H979 H 0.19775 0.0114 0.00607 0.0
H980 H 0.12473 0.03498 0.99192 0.0
H981 H 0.15678 0.01138 0.98583 0.0
H982 H 0.1451 0.98356 0.05498 0.0
H983 H 0.11332 0.00744 0.06125 0.0
C984 C 0.18378 0.93819 0.01441 0.0
C985 C 0.2064 0.94993 0.00828 0.0
C986 C 0.16639 0.95296 0.0181 0.0
C987 C 0.17124 0.97953 0.01528 0.0
C988 C 0.19358 0.99096 0.00833 0.0
C989 C 0.21104 0.97637 0.00505 0.0
C990 C 0.12942 0.02433 0.00606 0.0
C991 C 0.11669 0.02311 0.0271 0.0
C992 C 0.14763 0.01074 0.00252 0.0
C993 C 0.15312 0.99538 0.01979 0.0
C994 C 0.14095 0.99496 0.04124 0.0
C995 C 0.12301 0.00888 0.04496 0.0
H996 H 0.70489 0.55046 0.96689 0.0
H997 H 0.68728 0.62615 0.98428 0.0
H998 H 0.66368 0.52935 0.96897 0.0
H999 H 0.64577 0.60493 0.98579 0.0
H1000 H 0.57775 0.55802 0.0103 0.0
H1001 H 0.61964 0.57826 0.01012 0.0
H1002 H 0.62585 0.52292 0.94683 0.0
H1003 H 0.58408 0.50235 0.94745 0.0
C1004 C 0.6922 0.56264 0.97101 0.0
C1005 C 0.6994 0.59003 0.97538 0.0
C1006 C 0.66851 0.55049 0.97209 0.0
C1007 C 0.65137 0.5654 0.97751 0.0
C1008 C 0.65856 0.59283 0.98188 0.0
C1009 C 0.68232 0.60502 0.98085 0.0
C1010 C 0.58817 0.55005 0.99651 0.0
C1011 C 0.57771 0.52864 0.97886 0.0
C1012 C 0.6121 0.56178 0.99626 0.0
C1013 C 0.62609 0.55237 0.97834 0.0
C1014 C 0.61567 0.53053 0.96104 0.0
C1015 C 0.59173 0.51877 0.96132 0.0
H1016 H 0.70718 0.4629 0.31323 0.0
H1017 H 0.67475 0.45212 0.23995 0.0
H1018 H 0.73056 0.431 0.30032 0.0
H1019 H 0.69882 0.42055 0.22684 0.0
H1020 H 0.71256 0.33687 0.22893 0.0
H1021 H 0.69709 0.37643 0.23403 0.0
H1022 H 0.76104 0.41784 0.27672 0.0
H1023 H 0.7763 0.3779 0.27224 0.0
C1024 C 0.70541 0.45418 0.2942 0.0
C1025 C 0.68873 0.45977 0.27775 0.0
C1026 C 0.71903 0.43597 0.28673 0.0
C1027 C 0.71641 0.42295 0.26257 0.0
C1028 C 0.70095 0.42988 0.24568 0.0
C1029 C 0.68725 0.44811 0.25319 0.0
C1030 C 0.72354 0.35448 0.23909 0.0
C1031 C 0.74551 0.35405 0.25055 0.0
C1032 C 0.71472 0.3773 0.24185 0.0
C1033 C 0.7277 0.4003 0.25602 0.0
C1034 C 0.75039 0.40033 0.26608 0.0
C1035 C 0.75918 0.37744 0.26342 0.0
H1036 H 0.83462 0.40458 0.53232 0.0
H1037 H 0.814 0.45801 0.48746 0.0
H1038 H 0.87594 0.42732 0.53274 0.0
H1039 H 0.85515 0.48081 0.48816 0.0
H1040 H 0.93342 0.49692 0.47396 0.0
H1041 H 0.8929 0.47263 0.47283 0.0
H1042 H 0.90012 0.47182 0.55056 0.0
H1043 H 0.94114 0.496 0.55179 0.0
C1044 C 0.83894 0.42096 0.52232 0.0
C1045 C 0.82113 0.42952 0.50982 0.0
C1046 C 0.86252 0.43412 0.52281 0.0
C1047 C 0.86865 0.4559 0.51064 0.0
C1048 C 0.85091 0.46396 0.49757 0.0
C1049 C 0.82736 0.45092 0.49719 0.0
C1050 C 0.92647 0.49163 0.49089 0.0
C1051 C 0.94052 0.49838 0.513 0.0
C1052 C 0.9032 0.47779 0.4902 0.0
C1053 C 0.89344 0.47034 0.51158 0.0
C1054 C 0.90737 0.47712 0.53376 0.0
C1055 C 0.93073 0.49113 0.53449 0.0
H1056 H 0.34065 0.11519 0.31871 0.0
H1057 H 0.33283 0.07311 0.2453 0.0
H1058 H 0.30819 0.13557 0.30925 0.0
H1059 H 0.2994 0.09245 0.23607 0.0
H1060 H 0.27057 0.16472 0.22045 0.0
H1061 H 0.29383 0.13308 0.22831 0.0
H1062 H 0.26785 0.13272 0.30054 0.0
H1063 H 0.24565 0.16568 0.29295 0.0
C1064 C 0.33166 0.10991 0.30067 0.0
C1065 C 0.33951 0.09287 0.28265 0.0
C1066 C 0.31281 0.12139 0.29527 0.0
C1067 C 0.30108 0.11575 0.27182 0.0
C1068 C 0.30827 0.09768 0.25415 0.0
C1069 C 0.32741 0.08655 0.25945 0.0
C1070 C 0.26934 0.15732 0.23775 0.0
C1071 C 0.25665 0.16785 0.25623 0.0
C1072 C 0.28265 0.13907 0.24229 0.0
C1073 C 0.28319 0.13069 0.26531 0.0
C1074 C 0.26846 0.13933 0.28289 0.0
C1075 C 0.2555 0.15796 0.27847 0.0
H1076 H 0.35576 0.14654 0.48313 0.0
H1077 H 0.31208 0.08086 0.50954 0.0
H1078 H 0.38938 0.12534 0.48403 0.0
H1079 H 0.34545 0.05938 0.50983 0.0
H1080 H 0.41619 0.03673 0.52555 0.0
H1081 H 0.38354 0.05958 0.52837 0.0
H1082 H 0.40171 0.08901 0.461 0.0
H1083 H 0.4347 0.06666 0.45862 0.0
C1084 C 0.35339 0.12773 0.48942 0.0
C1085 C 0.33118 0.1154 0.49621 0.0
C1086 C 0.37261 0.11541 0.48967 0.0
C1087 C 0.3701 0.09043 0.49666 0.0
C1088 C 0.34814 0.07865 0.50448 0.0
C1089 C 0.32895 0.09099 0.50429 0.0
C1090 C 0.41306 0.04793 0.51127 0.0
C1091 C 0.42794 0.04986 0.49183 0.0
C1092 C 0.39433 0.06103 0.51286 0.0
C1093 C 0.39002 0.07635 0.49501 0.0
C1094 C 0.40475 0.07785 0.47534 0.0
C1095 C 0.4235 0.0648 0.4738 0.0
H1096 H 0.66261 0.57071 0.26296 0.0
H1097 H 0.68361 0.59059 0.34002 0.0
H1098 H 0.68449 0.61303 0.25599 0.0
H1099 H 0.70471 0.63369 0.33324 0.0
H1100 H 0.76346 0.69442 0.30764 0.0
H1101 H 0.73917 0.65391 0.31656 0.0
H1102 H 0.68642 0.65798 0.26067 0.0
H1103 H 0.7116 0.69768 0.2508 0.0
C1104 C 0.67161 0.5843 0.27853 0.0
C1105 C 0.67144 0.57717 0.30206 0.0
C1106 C 0.68406 0.60875 0.27454 0.0
C1107 C 0.69644 0.62696 0.29402 0.0
C1108 C 0.69577 0.62006 0.31769 0.0
C1109 C 0.68354 0.59538 0.32164 0.0
C1110 C 0.74664 0.68665 0.2973 0.0
C1111 C 0.7394 0.69918 0.27853 0.0
C1112 C 0.73256 0.66351 0.30258 0.0
C1113 C 0.71074 0.65251 0.28938 0.0
C1114 C 0.70327 0.66555 0.27097 0.0
C1115 C 0.71756 0.6885 0.26547 0.0
H1116 H 0.86753 0.48107 0.83259 0.0
H1117 H 0.85153 0.48874 0.75752 0.0
H1118 H 0.84034 0.43827 0.82671 0.0
H1119 H 0.8239 0.44697 0.75194 0.0
H1120 H 0.79899 0.35827 0.74148 0.0
H1121 H 0.82394 0.40213 0.74759 0.0
H1122 H 0.79998 0.41614 0.8203 0.0
H1123 H 0.77587 0.37203 0.81444 0.0
C1124 C 0.858 0.47376 0.81499 0.0
C1125 C 0.86188 0.48806 0.79547 0.0
C1126 C 0.84234 0.44933 0.81159 0.0
C1127 C 0.83007 0.43901 0.78872 0.0
C1128 C 0.83346 0.45389 0.76956 0.0
C1129 C 0.84925 0.47796 0.77284 0.0
C1130 C 0.79884 0.3709 0.75859 0.0
C1131 C 0.78561 0.36173 0.77749 0.0
C1132 C 0.81312 0.39605 0.76216 0.0
C1133 C 0.81414 0.41266 0.78457 0.0
C1134 C 0.80009 0.40373 0.80306 0.0
C1135 C 0.7861 0.37852 0.7996 0.0
H1136 H 0.04589 0.85884 0.10681 0.0
H1137 H 0.98639 0.81636 0.058 0.0
H1138 H 0.05022 0.89499 0.08318 0.0
H1139 H 0.99105 0.85218 0.03412 0.0
H1140 H 0.05751 0.95414 0.03133 0.0
H1141 H 0.05838 0.91235 0.04488 0.0
H1142 H 0.98202 0.89496 0.04407 0.0
H1143 H 0.98107 0.93631 0.03017 0.0
C1144 C 0.03419 0.85689 0.09064 0.0
C1145 C 0.01552 0.83498 0.08455 0.0
C1146 C 0.0367 0.87759 0.07704 0.0
C1147 C 0.02068 0.87664 0.05704 0.0
C1148 C 0.00331 0.85375 0.04978 0.0
C1149 C 0.00071 0.8332 0.06342 0.0
C1150 C 0.04087 0.9412 0.03363 0.0
C1151 C 0.0192 0.94869 0.02986 0.0
C1152 C 0.04142 0.91731 0.04152 0.0
C1153 C 0.02031 0.90039 0.04566 0.0
C1154 C -0.00138 0.90737 0.04076 0.0
C1155 C -0.00193 0.93122 0.03294 0.0
H1156 H 0.89615 0.20418 0.84053 0.0
H1157 H 0.93347 0.27099 0.81052 0.0
H1158 H 0.85837 0.21205 0.82519 0.0
H1159 H 0.89563 0.27921 0.79584 0.0
H1160 H 0.81938 0.29783 0.79968 0.0
H1161 H 0.85625 0.29027 0.81777 0.0
H1162 H 0.8411 0.21183 0.77833 0.0
H1163 H 0.80457 0.21959 0.75971 0.0
C1164 C 0.89626 0.22066 0.83086 0.0
C1165 C 0.91774 0.23691 0.82662 0.0
C1166 C 0.87468 0.22509 0.82206 0.0
C1167 C 0.87417 0.24624 0.80941 0.0
C1168 C 0.89559 0.26286 0.80568 0.0
C1169 C 0.9172 0.25807 0.81396 0.0
C1170 C 0.82389 0.27895 0.79501 0.0
C1171 C 0.80923 0.25929 0.77826 0.0
C1172 C 0.84497 0.27468 0.80527 0.0
C1173 C 0.85143 0.25049 0.79939 0.0
C1174 C 0.83641 0.2306 0.7832 0.0
C1175 C 0.81562 0.23506 0.77252 0.0
H1176 H 0.47906 0.19947 0.58161 0.0
H1177 H 0.5513 0.22496 0.61217 0.0
H1178 H 0.48952 0.16266 0.55683 0.0
H1179 H 0.5619 0.18775 0.58674 0.0
H1180 H 0.55767 0.09743 0.55528 0.0
H1181 H 0.55464 0.13861 0.58023 0.0
H1182 H 0.51217 0.15592 0.52143 0.0
H1183 H 0.51468 0.11476 0.49704 0.0
C1184 C 0.49725 0.19729 0.58306 0.0
C1185 C 0.51436 0.21542 0.59882 0.0
C1186 C 0.5033 0.1762 0.56863 0.0
C1187 C 0.52668 0.17253 0.56937 0.0
C1188 C 0.54376 0.19009 0.58567 0.0
C1189 C 0.53767 0.21139 0.60023 0.0
C1190 C 0.54836 0.1105 0.54749 0.0
C1191 C 0.53624 0.10286 0.52433 0.0
C1192 C 0.54652 0.13401 0.5618 0.0
C1193 C 0.53263 0.15021 0.55306 0.0
C1194 C 0.52242 0.14354 0.529 0.0
C1195 C 0.52405 0.12008 0.51491 0.0
H1196 H 0.54399 0.78112 0.29557 0.0
H1197 H 0.56373 0.73733 0.35038 0.0
H1198 H 0.58183 0.78153 0.27784 0.0
H1199 H 0.60202 0.73841 0.33301 0.0
H1200 H 0.65679 0.71981 0.27979 0.0
H1201 H 0.61861 0.71967 0.29728 0.0
H1202 H 0.62327 0.79935 0.28458 0.0
H1203 H 0.66101 0.79909 0.26649 0.0
C1204 C 0.55654 0.77189 0.30408 0.0
C1205 C 0.55077 0.75912 0.32438 0.0
C1206 C 0.57833 0.7722 0.29392 0.0
C1207 C 0.59498 0.75987 0.30387 0.0
C1208 C 0.58945 0.74768 0.32459 0.0
C1209 C 0.56759 0.74728 0.33471 0.0
C1210 C 0.64946 0.73715 0.2805 0.0
C1211 C 0.66176 0.75941 0.2717 0.0
C1212 C 0.62773 0.7372 0.29077 0.0
C1213 C 0.6179 0.75957 0.29253 0.0
C1214 C 0.63013 0.78168 0.2833 0.0
C1215 C 0.65179 0.78157 0.27296 0.0
H1216 H 0.98807 0.21317 0.47238 0.0
H1217 H 0.03778 0.19992 0.41814 0.0
H1218 H 0.99431 0.17489 0.48976 0.0
H1219 H 0.04378 0.16153 0.43548 0.0
H1220 H 0.01258 0.07562 0.44761 0.0
H1221 H 0.0136 0.11814 0.43516 0.0
H1222 H 0.02622 0.15458 0.51044 0.0
H1223 H 0.02554 0.11169 0.52308 0.0
C1224 C 0.00064 0.20238 0.46442 0.0
C1225 C 0.01226 0.20947 0.44371 0.0
C1226 C 0.00428 0.18054 0.47447 0.0
C1227 C 0.01936 0.16514 0.46382 0.0
C1228 C 0.0319 0.17297 0.44391 0.0
C1229 C 0.02854 0.19503 0.43407 0.0
C1230 C 0.01562 0.09264 0.46158 0.0
C1231 C 0.01883 0.09024 0.48638 0.0
C1232 C 0.01644 0.11704 0.45439 0.0
C1233 C 0.02014 0.13966 0.47181 0.0
C1234 C 0.02336 0.13741 0.49665 0.0
C1235 C 0.02299 0.11292 0.50385 0.0
H1236 H 0.56766 0.27132 0.13923 0.0
H1237 H 0.5548 0.26975 0.21539 0.0
H1238 H 0.60583 0.25966 0.14621 0.0
H1239 H 0.59297 0.25886 0.22247 0.0
H1240 H 0.65426 0.22164 0.22808 0.0
H1241 H 0.61449 0.22484 0.21457 0.0
H1242 H 0.6443 0.27887 0.16638 0.0
H1243 H 0.68395 0.2749 0.17933 0.0
C1244 C 0.57301 0.26858 0.15746 0.0
C1245 C 0.55822 0.27153 0.17677 0.0
C1246 C 0.59488 0.26192 0.16146 0.0
C1247 C 0.60244 0.25813 0.18486 0.0
C1248 C 0.58755 0.26103 0.20409 0.0
C1249 C 0.56571 0.26757 0.20008 0.0
C1250 C 0.65223 0.23367 0.21415 0.0
C1251 C 0.67213 0.24818 0.20488 0.0
C1252 C 0.62948 0.23573 0.20658 0.0
C1253 C 0.6262 0.25254 0.18976 0.0
C1254 C 0.64612 0.26567 0.17928 0.0
C1255 C 0.66887 0.26344 0.18673 0.0
H1256 H 0.4748 0.84587 0.9323 0.0
H1257 H 0.5465 0.83748 0.94658 0.0
H1258 H 0.48457 0.89014 0.95432 0.0
H1259 H 0.55623 0.88226 0.96947 0.0
H1260 H 0.53968 0.94653 0.03643 0.0
H1261 H 0.53843 0.90434 0.01099 0.0
H1262 H 0.51372 0.93425 0.9485 0.0
H1263 H 0.51531 0.97631 0.97378 0.0
C1264 C 0.49271 0.85355 0.94021 0.0
C1265 C 0.50988 0.83821 0.93789 0.0
C1266 C 0.49831 0.87896 0.95265 0.0
C1267 C 0.52113 0.88958 0.96349 0.0
C1268 C 0.53849 0.87441 0.96121 0.0
C1269 C 0.53298 0.84895 0.94812 0.0
C1270 C 0.53439 0.94417 0.01716 0.0
C1271 C 0.52735 0.96457 0.00704 0.0
C1272 C 0.53386 0.92015 0.00261 0.0
C1273 C 0.52597 0.91611 0.97784 0.0
C1274 C 0.51986 0.93689 0.96757 0.0
C1275 C 0.52072 0.96093 0.98201 0.0
H1276 H 0.93252 0.81994 0.68062 0.0
H1277 H 0.93463 0.74361 0.69847 0.0
H1278 H 0.89647 0.81969 0.7013 0.0
H1279 H 0.89689 0.74196 0.7175 0.0
H1280 H 0.83631 0.75382 0.76554 0.0
H1281 H 0.87506 0.75521 0.7489 0.0
H1282 H 0.85735 0.80393 0.69734 0.0
H1283 H 0.82004 0.8042 0.71538 0.0
C1284 C 0.92488 0.80279 0.68862 0.0
C1285 C 0.93616 0.78168 0.68773 0.0
C1286 C 0.90397 0.80248 0.70036 0.0
C1287 C 0.89313 0.78055 0.71078 0.0
C1288 C 0.90464 0.75937 0.71 0.0
C1289 C 0.92616 0.76012 0.69889 0.0
C1290 C 0.84108 0.76516 0.75093 0.0
C1291 C 0.82543 0.77933 0.74207 0.0
C1292 C 0.86318 0.76574 0.74114 0.0
C1293 C 0.86976 0.77989 0.72177 0.0
C1294 C 0.85364 0.79358 0.71276 0.0
C1295 C 0.83202 0.79365 0.72303 0.0
H1296 H 0.12814 0.00562 0.87031 0.0
H1297 H 0.06353 0.00824 0.82994 0.0
H1298 H 0.10746 0.0065 0.90808 0.0
H1299 H 0.04292 0.00851 0.86758 0.0
H1300 H 0.01098 0.9748 0.93538 0.0
H1301 H 0.03325 0.97363 0.89861 0.0
H1302 H 0.08518 0.0409 0.93299 0.0
H1303 H 0.0625 0.04279 0.96926 0.0
C1304 C 0.10963 0.00653 0.86949 0.0
C1305 C 0.09749 0.00697 0.84717 0.0
C1306 C 0.09783 0.00699 0.89108 0.0
C1307 C 0.07362 0.00731 0.89055 0.0
C1308 C 0.06154 0.00797 0.86833 0.0
C1309 C 0.07341 0.00804 0.84687 0.0
C1310 C 0.02722 0.98921 0.93511 0.0
C1311 C 0.03518 0.0087 0.95524 0.0
C1312 C 0.03988 0.98857 0.91412 0.0
C1313 C 0.06089 0.00715 0.91313 0.0
C1314 C 0.06916 0.02622 0.93348 0.0
C1315 C 0.05626 0.02718 0.95425 0.0
H1316 H 0.7483 0.29336 0.5431 0.0
H1317 H 0.71808 0.35625 0.57741 0.0
H1318 H 0.73932 0.27008 0.57776 0.0
H1319 H 0.71023 0.33383 0.61262 0.0
H1320 H 0.70102 0.29204 0.67669 0.0
H1321 H 0.69385 0.3002 0.635 0.0
H1322 H 0.76033 0.27986 0.61622 0.0
H1323 H 0.76683 0.27079 0.65738 0.0
C1324 C 0.73913 0.30183 0.55779 0.0
C1325 C 0.73426 0.32676 0.55785 0.0
C1326 C 0.73419 0.28865 0.57775 0.0
C1327 C 0.72483 0.30048 0.59837 0.0
C1328 C 0.71748 0.32408 0.59713 0.0
C1329 C 0.72199 0.33701 0.57691 0.0
C1330 C 0.71383 0.28891 0.66342 0.0
C1331 C 0.73462 0.28112 0.67019 0.0
C1332 C 0.70976 0.29362 0.63958 0.0
C1333 C 0.72653 0.29084 0.6222 0.0
C1334 C 0.74676 0.28178 0.62887 0.0
C1335 C 0.75069 0.27685 0.65258 0.0
H1336 H 0.43642 0.08069 0.34775 0.0
H1337 H 0.47203 0.02973 0.30211 0.0
H1338 H 0.45901 0.07469 0.38363 0.0
H1339 H 0.49551 0.02475 0.3384 0.0
H1340 H 0.47885 0.01588 0.43645 0.0
H1341 H 0.45934 0.02276 0.39878 0.0
H1342 H 0.5257 0.06565 0.37848 0.0
H1343 H 0.54526 0.05973 0.41687 0.0
C1344 C 0.44903 0.06819 0.34529 0.0
C1345 C 0.45197 0.05517 0.32205 0.0
C1346 C 0.46208 0.06498 0.36587 0.0
C1347 C 0.47881 0.04924 0.36364 0.0
C1348 C 0.48265 0.03703 0.34042 0.0
C1349 C 0.4692 0.03985 0.31975 0.0
C1350 C 0.48925 0.02706 0.42415 0.0
C1351 C 0.51348 0.03765 0.42977 0.0
C1352 C 0.47813 0.03078 0.40255 0.0
C1353 C 0.49113 0.0446 0.38587 0.0
C1354 C 0.51544 0.05479 0.39112 0.0
C1355 C 0.52653 0.05153 0.41305 0.0
H1356 H 0.74319 0.67723 0.05014 0.0
H1357 H 0.8168 0.71286 0.06937 0.0
H1358 H 0.73316 0.69406 0.09087 0.0
H1359 H 0.80709 0.72857 0.1101 0.0
H1360 H 0.7847 0.77351 0.17533 0.0
H1361 H 0.79036 0.75907 0.1329 0.0
H1362 H 0.73478 0.69051 0.13297 0.0
H1363 H 0.72838 0.70601 0.17551 0.0
C1364 C 0.75727 0.68859 0.06304 0.0
C1365 C 0.78082 0.69382 0.05627 0.0
C1366 C 0.75152 0.69812 0.08655 0.0
C1367 C 0.7692 0.71297 0.10403 0.0
C1368 C 0.79276 0.7179 0.09718 0.0
C1369 C 0.79843 0.70868 0.07369 0.0
C1370 C 0.77346 0.7555 0.16621 0.0
C1371 C 0.75618 0.74084 0.17886 0.0
C1372 C 0.77688 0.747 0.14183 0.0
C1373 C 0.76348 0.72318 0.12935 0.0
C1374 C 0.74544 0.70899 0.14176 0.0
C1375 C 0.74173 0.71783 0.16619 0.0
H1376 H 0.15237 0.01401 0.68477 0.0
H1377 H 0.09168 0.02518 0.72478 0.0
H1378 H 0.1327 0.02256 0.64775 0.0
H1379 H 0.07261 0.03472 0.68847 0.0
H1380 H 0.03242 0.01323 0.61428 0.0
H1381 H 0.05411 0.00995 0.65158 0.0
H1382 H 0.11799 0.05431 0.62698 0.0
H1383 H 0.09612 0.05676 0.58892 0.0
C1384 C 0.13499 0.01858 0.6857 0.0
C1385 C 0.12338 0.01844 0.70752 0.0
C1386 C 0.12378 0.02367 0.66458 0.0
C1387 C 0.10092 0.029 0.66505 0.0
C1388 C 0.08992 0.03 0.68724 0.0
C1389 C 0.1009 0.02458 0.70811 0.0
C1390 C 0.05103 0.02255 0.61694 0.0
C1391 C 0.06259 0.03531 0.59879 0.0
C1392 C 0.06349 0.02079 0.6384 0.0
C1393 C 0.08782 0.03196 0.64238 0.0
C1394 C 0.09932 0.04526 0.62438 0.0
C1395 C 0.08679 0.0469 0.60273 0.0
H1396 H 0.76874 0.30662 0.44991 0.0
H1397 H 0.74013 0.37214 0.43364 0.0
H1398 H 0.76161 0.28685 0.40711 0.0
H1399 H 0.73326 0.35235 0.39063 0.0
H1400 H 0.76262 0.3264 0.31543 0.0
H1401 H 0.76369 0.34384 0.35863 0.0
H1402 H 0.72712 0.26841 0.37354 0.0
H1403 H 0.72566 0.25091 0.32994 0.0
C1404 C 0.76071 0.31667 0.43722 0.0
C1405 C 0.75515 0.34103 0.44508 0.0
C1406 C 0.75651 0.30525 0.41278 0.0
C1407 C 0.74701 0.31815 0.39562 0.0
C1408 C 0.74074 0.34211 0.40355 0.0
C1409 C 0.74456 0.35335 0.42813 0.0
C1410 C 0.75474 0.31353 0.32789 0.0
C1411 C 0.74404 0.2873 0.3194 0.0
C1412 C 0.75519 0.32359 0.35256 0.0
C1413 C 0.74529 0.30752 0.36932 0.0
C1414 C 0.73482 0.28118 0.36092 0.0
C1415 C 0.734 0.2712 0.33607 0.0
H1416 H 0.43143 0.07538 0.22039 0.0
H1417 H 0.42554 0.99401 0.19209 0.0
H1418 H 0.46913 0.08626 0.2013 0.0
H1419 H 0.46302 0.00453 0.17353 0.0
H1420 H 0.52537 0.02439 0.13459 0.0
H1421 H 0.50635 0.02364 0.17332 0.0
H1422 H 0.46967 0.08267 0.15543 0.0
H1423 H 0.48855 0.08331 0.11695 0.0
C1424 C 0.43881 0.05974 0.21114 0.0
C1425 C 0.42564 0.03394 0.20737 0.0
C1426 C 0.46027 0.06594 0.20014 0.0
C1427 C 0.46888 0.04629 0.18566 0.0
C1428 C 0.45703 0.02012 0.18466 0.0
C1429 C 0.43547 0.01405 0.19519 0.0
C1430 C 0.51391 0.03786 0.13942 0.0
C1431 C 0.50798 0.05351 0.12267 0.0
C1432 C 0.50304 0.03744 0.16156 0.0
C1433 C 0.4863 0.05286 0.16729 0.0
C1434 C 0.48258 0.07068 0.15169 0.0
C1435 C 0.49322 0.07088 0.1295 0.0
H1436 H 0.81897 0.72925 0.93494 0.0
H1437 H 0.74438 0.69372 0.92902 0.0
H1438 H 0.81383 0.74977 0.89923 0.0
H1439 H 0.73896 0.71533 0.89369 0.0
H1440 H 0.7964 0.79933 0.84373 0.0
H1441 H 0.79971 0.78153 0.88171 0.0
H1442 H 0.74601 0.71342 0.85218 0.0
H1443 H 0.74186 0.73212 0.81488 0.0
C1444 C 0.8013 0.72622 0.92635 0.0
C1445 C 0.78211 0.70965 0.93499 0.0
C1446 C 0.79832 0.73817 0.90576 0.0
C1447 C 0.77597 0.73424 0.89321 0.0
C1448 C 0.75656 0.71847 0.90242 0.0
C1449 C 0.75961 0.70626 0.92294 0.0
C1450 C 0.7853 0.78057 0.8454 0.0
C1451 C 0.76907 0.76703 0.82615 0.0
C1452 C 0.78727 0.77021 0.86718 0.0
C1453 C 0.77321 0.74584 0.87025 0.0
C1454 C 0.75693 0.73237 0.85087 0.0
C1455 C 0.75478 0.7429 0.82921 0.0
H1456 H 0.81802 0.07905 0.04193 0.0
H1457 H 0.86214 0.12829 -0.00203 0.0
H1458 H 0.84678 0.05099 0.04136 0.0
H1459 H 0.8907 0.10023 0.99743 0.0
H1460 H 0.92064 0.02933 0.97531 0.0
H1461 H 0.88835 0.05271 0.97779 0.0
H1462 H 0.89032 0.054 0.05594 0.0
H1463 H 0.9227 0.03063 0.0535 0.0
C1464 C 0.834 0.08409 0.03247 0.0
C1465 C 0.83781 0.10577 0.01989 0.0
C1466 C 0.85036 0.068 0.03211 0.0
C1467 C 0.8706 0.07322 0.01893 0.0
C1468 C 0.87491 0.09552 0.00727 0.0
C1469 C 0.85872 0.11173 0.00783 0.0
C1470 C 0.91374 0.03398 0.9929 0.0
C1471 C 0.92419 0.02845 0.01424 0.0
C1472 C 0.89548 0.04756 0.99435 0.0
C1473 C 0.8873 0.05555 0.01712 0.0
C1474 C 0.89643 0.0481 0.03821 0.0
C1475 C 0.91485 0.0347 0.03679 0.0
H1476 H 0.34733 0.40872 0.05063 0.0
H1477 H 0.32851 0.45424 0.9969 0.0
H1478 H 0.38894 0.42958 0.04956 0.0
H1479 H 0.37037 0.47492 0.99568 0.0
H1480 H 0.4523 0.48476 0.98624 0.0
H1481 H 0.41057 0.46242 0.98434 0.0
H1482 H 0.41174 0.47704 0.063 0.0
H1483 H 0.45318 0.49988 0.06481 0.0
C1484 C 0.35209 0.42291 0.03833 0.0
C1485 C 0.3346 0.42989 0.0239 0.0
C1486 C 0.37591 0.43497 0.03786 0.0
C1487 C 0.38284 0.45399 0.02268 0.0
C1488 C 0.3655 0.46026 0.0075 0.0
C1489 C 0.34157 0.44847 0.00825 0.0
C1490 C 0.44352 0.4835 0.00304 0.0
C1491 C 0.45587 0.49431 0.02563 0.0
C1492 C 0.41969 0.47067 0.00197 0.0
C1493 C 0.40796 0.46795 0.02353 0.0
C1494 C 0.4204 0.47865 0.04611 0.0
C1495 C 0.44406 0.49183 0.04714 0.0
H1496 H 0.30573 0.58479 0.7729 0.0
H1497 H 0.34775 0.60421 0.71246 0.0
H1498 H 0.28649 0.62094 0.76938 0.0
H1499 H 0.32813 0.6406 0.70896 0.0
H1500 H 0.27349 0.69472 0.70368 0.0
H1501 H 0.28698 0.65337 0.70144 0.0
H1502 H 0.30546 0.66954 0.77904 0.0
H1503 H 0.29231 0.71061 0.78127 0.0
C1504 C 0.31065 0.5965 0.75859 0.0
C1505 C 0.32864 0.59182 0.74323 0.0
C1506 C 0.2996 0.61725 0.75663 0.0
C1507 C 0.30608 0.63379 0.73917 0.0
C1508 C 0.3228 0.6281 0.72259 0.0
C1509 C 0.33404 0.6073 0.72463 0.0
C1510 C 0.28016 0.6892 0.72027 0.0
C1511 C 0.28175 0.70579 0.74269 0.0
C1512 C 0.28804 0.6657 0.71893 0.0
C1513 C 0.29713 0.65822 0.74008 0.0
C1514 C 0.29827 0.67465 0.76249 0.0
C1515 C 0.29083 0.69823 0.76375 0.0
H1516 H 0.19276 0.63536 0.45892 0.0
H1517 H 0.21086 0.62814 0.53371 0.0
H1518 H 0.151 0.61984 0.46513 0.0
H1519 H 0.16938 0.61198 0.53963 0.0
H1520 H 0.08987 0.59744 0.54659 0.0
H1521 H 0.13004 0.62109 0.54191 0.0
H1522 H 0.12845 0.57698 0.46991 0.0
H1523 H 0.08842 0.55391 0.47429 0.0
C1524 C 0.18782 0.63076 0.47673 0.0
C1525 C 0.2051 0.63257 0.49569 0.0
C1526 C 0.16395 0.62172 0.48025 0.0
C1527 C 0.15698 0.61431 0.50276 0.0
C1528 C 0.17416 0.61765 0.52213 0.0
C1529 C 0.19797 0.62674 0.51865 0.0
C1530 C 0.09817 0.59279 0.52981 0.0
C1531 C 0.086 0.57383 0.51082 0.0
C1532 C 0.12111 0.60635 0.52712 0.0
C1533 C 0.13228 0.60109 0.50543 0.0
C1534 C 0.12013 0.58196 0.48659 0.0
C1535 C 0.09724 0.56853 0.48923 0.0
H1536 H 0.69138 0.98708 0.78332 0.0
H1537 H 0.65033 0.93322 0.72399 0.0
H1538 H 0.723 0.96297 0.77961 0.0
H1539 H 0.68121 0.9081 0.72106 0.0
H1540 H 0.73835 0.86535 0.71679 0.0
H1541 H 0.71917 0.90169 0.71298 0.0
H1542 H 0.7268 0.92334 0.79155 0.0
H1543 H 0.74706 0.88792 0.79498 0.0
C1544 C 0.6893 0.97019 0.76928 0.0
C1545 C 0.66835 0.9617 0.75415 0.0
C1546 C 0.70733 0.95628 0.76724 0.0
C1547 C 0.70452 0.93323 0.75042 0.0
C1548 C 0.68419 0.92587 0.73411 0.0
C1549 C 0.66636 0.94015 0.73582 0.0
C1550 C 0.73648 0.87843 0.73312 0.0
C1551 C 0.74387 0.87381 0.75621 0.0
C1552 C 0.72532 0.8991 0.73099 0.0
C1553 C 0.72094 0.91519 0.75196 0.0
C1554 C 0.73001 0.9116 0.77492 0.0
C1555 C 0.74156 0.8912 0.77698 0.0
H1556 H 0.68474 0.90547 0.52774 0.0
H1557 H 0.72524 0.96607 0.49212 0.0
H1558 H 0.6501 0.92488 0.52427 0.0
H1559 H 0.69135 0.98605 0.48971 0.0
H1560 H 0.62117 0.00398 0.46784 0.0
H1561 H 0.65453 0.98264 0.47006 0.0
H1562 H 0.63355 0.9605 0.53963 0.0
H1563 H 0.59951 0.98082 0.53662 0.0
C1564 C 0.68627 0.92292 0.51921 0.0
C1565 C 0.70775 0.93408 0.5101 0.0
C1566 C 0.66646 0.93424 0.5174 0.0
C1567 C 0.66776 0.95715 0.50669 0.0
C1568 C 0.68934 0.96817 0.49761 0.0
C1569 C 0.70894 0.95672 0.49913 0.0
C1570 C 0.62381 0.99466 0.48365 0.0
C1571 C 0.60783 0.99414 0.50209 0.0
C1572 C 0.64301 0.98245 0.48502 0.0
C1573 C 0.64694 0.96976 0.50508 0.0
C1574 C 0.63098 0.96959 0.52369 0.0
C1575 C 0.61158 0.9815 0.52212 0.0
H1576 H 0.29808 0.47342 0.74498 0.0
H1577 H 0.36309 0.45199 0.72311 0.0
H1578 H 0.27803 0.42745 0.73858 0.0
H1579 H 0.34306 0.40562 0.71717 0.0
H1580 H 0.30435 0.33353 0.75584 0.0
H1581 H 0.3258 0.37718 0.75031 0.0
H1582 H 0.26613 0.38653 0.70593 0.0
H1583 H 0.24485 0.34285 0.71114 0.0
C1584 C 0.30788 0.45884 0.73814 0.0
C1585 C 0.33205 0.46618 0.73439 0.0
C1586 C 0.29643 0.43255 0.73449 0.0
C1587 C 0.30904 0.41299 0.72752 0.0
C1588 C 0.33298 0.42035 0.72263 0.0
C1589 C 0.34435 0.44681 0.72577 0.0
C1590 C 0.29601 0.34477 0.7446 0.0
C1591 C 0.27287 0.33496 0.73414 0.0
C1592 C 0.30832 0.36964 0.74129 0.0
C1593 C 0.29758 0.38522 0.72772 0.0
C1594 C 0.27477 0.37497 0.71655 0.0
C1595 C 0.26261 0.35 0.71957 0.0
H1596 H 0.14909 0.58608 0.30083 0.0
H1597 H 0.14514 0.56241 0.2227 0.0
H1598 H 0.17359 0.62808 0.29618 0.0
H1599 H 0.17035 0.60437 0.21809 0.0
H1600 H 0.19936 0.6936 0.22025 0.0
H1601 H 0.17336 0.65125 0.22177 0.0
H1602 H 0.21362 0.6434 0.28655 0.0
H1603 H 0.23908 0.6859 0.28542 0.0
C1604 C 0.15337 0.5899 0.28262 0.0
C1605 C 0.14532 0.57083 0.26216 0.0
C1606 C 0.16761 0.6139 0.27997 0.0
C1607 C 0.17437 0.61937 0.25682 0.0
C1608 C 0.16545 0.60078 0.23618 0.0
C1609 C 0.15099 0.57675 0.23882 0.0
C1610 C 0.20284 0.68264 0.2346 0.0
C1611 C 0.22112 0.69318 0.25286 0.0
C1612 C 0.18792 0.65837 0.23548 0.0
C1613 C 0.19113 0.64417 0.25454 0.0
C1614 C 0.21022 0.65418 0.27201 0.0
C1615 C 0.22496 0.67845 0.27125 0.0
H1616 H 0.5206 0.70529 0.4199 0.0
H1617 H 0.44836 0.67381 0.43459 0.0
H1618 H 0.53457 0.67969 0.44856 0.0
H1619 H 0.46204 0.64741 0.46203 0.0
H1620 H 0.4885 0.60867 0.51879 0.0
H1621 H 0.48041 0.64458 0.499 0.0
H1622 H 0.53679 0.63656 0.45124 0.0
H1623 H 0.54567 0.60181 0.47215 0.0
C1624 C 0.5077 0.69296 0.42927 0.0
C1625 C 0.48335 0.69156 0.42487 0.0
C1626 C 0.5157 0.67814 0.44563 0.0
C1627 C 0.49951 0.6613 0.4577 0.0
C1628 C 0.47519 0.66048 0.45363 0.0
C1629 C 0.46726 0.67553 0.43762 0.0
C1630 C 0.49952 0.61512 0.50448 0.0
C1631 C 0.51762 0.6024 0.49692 0.0
C1632 C 0.49474 0.63551 0.4929 0.0
C1633 C 0.50752 0.64319 0.47303 0.0
C1634 C 0.52663 0.63146 0.46654 0.0
C1635 C 0.53174 0.61143 0.47851 0.0
H1636 H 0.60682 0.29665 0.66307 0.0
H1637 H 0.58422 0.33457 0.72948 0.0
H1638 H 0.64404 0.29548 0.68468 0.0
H1639 H 0.62082 0.33255 0.7512 0.0
H1640 H 0.69577 0.33934 0.78209 0.0
H1641 H 0.66265 0.34729 0.75753 0.0
H1642 H 0.65583 0.2712 0.71429 0.0
H1643 H 0.68904 0.26374 0.73837 0.0
C1644 C 0.60985 0.30489 0.68221 0.0
C1645 C 0.59246 0.31548 0.69458 0.0
C1646 C 0.63111 0.30406 0.69467 0.0
C1647 C 0.63536 0.31364 0.7198 0.0
C1648 C 0.61833 0.32523 0.73184 0.0
C1649 C 0.5972 0.32622 0.71937 0.0
C1650 C 0.68715 0.32444 0.76728 0.0
C1651 C 0.69495 0.30099 0.76207 0.0
C1652 C 0.66818 0.32892 0.75322 0.0
C1653 C 0.65657 0.30993 0.73381 0.0
C1654 C 0.66458 0.28652 0.72869 0.0
C1655 C 0.68353 0.28213 0.74264 0.0
H1656 H 0.00641 0.31151 0.89001 0.0
H1657 H 0.94212 0.29854 0.92816 0.0
H1658 H 0.01538 0.35732 0.90892 0.0
H1659 H 0.95127 0.34395 0.94712 0.0
H1660 H 0.95998 0.43227 0.95281 0.0
H1661 H 0.95254 0.38657 0.93441 0.0
H1662 H 0.02615 0.38552 0.9489 0.0
H1663 H 0.03377 0.43142 0.96706 0.0
C1664 C 0.99429 0.31831 0.90254 0.0
C1665 C 0.97348 0.30129 0.90742 0.0
C1666 C -0.00052 0.34455 0.91344 0.0
C1667 C 0.98393 0.35432 0.92937 0.0
C1668 C 0.9634 0.33717 0.9346 0.0
C1669 C 0.95825 0.31103 0.9238 0.0
C1670 C 0.97462 0.42236 0.95211 0.0
C1671 C -0.00253 0.43558 0.96147 0.0
C1672 C 0.97031 0.39609 0.94166 0.0
C1673 C 0.98874 0.38237 0.94026 0.0
C1674 C 0.01162 0.3956 0.94949 0.0
C1675 C 0.01593 0.42188 0.96003 0.0
H1676 H 0.9794 0.7731 0.22057 0.0
H1677 H 0.93855 0.75759 0.15131 0.0
H1678 H 0.94275 0.76794 0.24186 0.0
H1679 H 0.90203 0.75188 0.1726 0.0
H1680 H 0.84233 0.72149 0.22042 0.0
H1681 H 0.88031 0.72078 0.20285 0.0
H1682 H 0.90941 0.79748 0.2428 0.0
H1683 H 0.87107 0.79851 0.26009 0.0
C1684 C 0.96261 0.76795 0.20988 0.0
C1685 C 0.96179 0.76581 0.18428 0.0
C1686 C 0.94172 0.76524 0.22208 0.0
C1687 C 0.91971 0.75969 0.20882 0.0
C1688 C 0.91885 0.7561 0.18319 0.0
C1689 C 0.93972 0.7594 0.17102 0.0
C1690 C 0.85691 0.73808 0.2257 0.0
C1691 C 0.85382 0.76013 0.24151 0.0
C1692 C 0.87857 0.73765 0.2156 0.0
C1693 C 0.89764 0.75905 0.22149 0.0
C1694 C 0.89492 0.78066 0.23816 0.0
C1695 C 0.87306 0.7813 0.24795 0.0
H1696 H 0.52352 0.35426 0.10302 0.0
H1697 H 0.46937 0.31115 0.04848 0.0
H1698 H 0.5335 0.38837 0.07765 0.0
H1699 H 0.4803 0.34436 0.02215 0.0
H1700 H 0.47796 0.42567 0.00315 0.0
H1701 H 0.47387 0.38564 0.02081 0.0
H1702 H 0.54841 0.40594 0.0442 0.0
H1703 H 0.55196 0.44688 0.02773 0.0
C1704 C 0.51435 0.35163 0.08515 0.0
C1705 C 0.49549 0.33023 0.07784 0.0
C1706 C 0.5201 0.37121 0.07046 0.0
C1707 C 0.50744 0.36954 0.04787 0.0
C1708 C 0.48995 0.34687 0.03972 0.0
C1709 C 0.48383 0.32763 0.05468 0.0
C1710 C 0.49355 0.42134 0.01168 0.0
C1711 C 0.51522 0.43947 0.01423 0.0
C1712 C 0.49128 0.39821 0.02176 0.0
C1713 C 0.51077 0.3924 0.03423 0.0
C1714 C 0.53283 0.40992 0.03534 0.0
C1715 C 0.53496 0.43333 0.02572 0.0
H1716 H 0.937 0.28253 0.39715 0.0
H1717 H 0.96781 0.29806 0.32953 0.0
H1718 H 0.90131 0.29572 0.38369 0.0
H1719 H 0.93186 0.30974 0.31537 0.0
H1720 H 0.86908 0.3392 0.29536 0.0
H1721 H 0.90623 0.33819 0.3172 0.0
H1722 H 0.86857 0.27906 0.35665 0.0
H1723 H 0.83162 0.28147 0.336 0.0
C1724 C 0.93611 0.28866 0.37939 0.0
C1725 C 0.9551 0.28903 0.36432 0.0
C1726 C 0.91561 0.29617 0.37158 0.0
C1727 C 0.91348 0.30366 0.3483 0.0
C1728 C 0.93286 0.30464 0.33358 0.0
C1729 C 0.95347 0.29766 0.3416 0.0
C1730 C 0.86881 0.32652 0.30917 0.0
C1731 C 0.84761 0.31027 0.31388 0.0
C1732 C 0.89009 0.3257 0.32152 0.0
C1733 C 0.8906 0.30816 0.33842 0.0
C1734 C 0.86903 0.29303 0.34403 0.0
C1735 C 0.84776 0.29427 0.33205 0.0
H1736 H 0.93503 0.69944 0.58924 0.0
H1737 H 0.01024 0.72322 0.6081 0.0
H1738 H 0.94097 0.65857 0.56648 0.0
H1739 H 0.01636 0.6834 0.58454 0.0
H1740 H 0.02111 0.60156 0.55673 0.0
H1741 H 0.01217 0.63874 0.58278 0.0
H1742 H 0.95567 0.64125 0.5304 0.0
H1743 H 0.96359 0.6027 0.50537 0.0
C1744 C 0.95281 0.69598 0.58846 0.0
C1745 C 0.97212 0.71454 0.60055 0.0
C1746 C 0.95628 0.67263 0.57527 0.0
C1747 C 0.97918 0.66752 0.57359 0.0
C1748 C -0.0016 0.68619 0.58579 0.0
C1749 C 0.9949 0.70923 0.59924 0.0
C1750 C 0.00649 0.60976 0.55106 0.0
C1751 C 0.99289 0.5991 0.52918 0.0
C1752 C 0.00154 0.63136 0.56582 0.0
C1753 C 0.98326 0.64329 0.55871 0.0
C1754 C 0.96961 0.63244 0.53676 0.0
C1755 C 0.97429 0.61048 0.52224 0.0
H1756 H 0.59264 0.75936 0.87034 0.0
H1757 H 0.56025 0.7717 0.80268 0.0
H1758 H 0.62956 0.75761 0.85026 0.0
H1759 H 0.5969 0.77013 0.78289 0.0
H1760 H 0.67547 0.7971 0.76669 0.0
H1761 H 0.63849 0.79772 0.78632 0.0
H1762 H 0.64366 0.72738 0.81551 0.0
H1763 H 0.68072 0.72659 0.7957 0.0
C1764 C 0.59345 0.76189 0.8513 0.0
C1765 C 0.57354 0.76569 0.83812 0.0
C1766 C 0.61447 0.76066 0.83977 0.0
C1767 C 0.61606 0.76366 0.81499 0.0
C1768 C 0.59626 0.76789 0.80201 0.0
C1769 C 0.57524 0.76872 0.81338 0.0
C1770 C 0.66859 0.78156 0.77704 0.0
C1771 C 0.68097 0.76171 0.77951 0.0
C1772 C 0.64742 0.78194 0.78829 0.0
C1773 C 0.63828 0.7627 0.8026 0.0
C1774 C 0.65044 0.74261 0.80481 0.0
C1775 C 0.67147 0.74199 0.79321 0.0
H1776 H 0.40485 0.53382 0.65403 0.0
H1777 H 0.46547 0.58261 0.69733 0.0
H1778 H 0.42858 0.53197 0.61845 0.0
H1779 H 0.48923 0.58003 0.66231 0.0
H1780 H 0.52307 0.58636 0.5903 0.0
H1781 H 0.49684 0.59249 0.62329 0.0
H1782 H 0.45996 0.51183 0.60457 0.0
H1783 H 0.48569 0.5061 0.57142 0.0
C1784 C 0.42317 0.54422 0.65594 0.0
C1785 C 0.43326 0.55823 0.67856 0.0
C1786 C 0.43684 0.54303 0.63561 0.0
C1787 C 0.46093 0.55571 0.6375 0.0
C1788 C 0.47073 0.57031 0.65999 0.0
C1789 C 0.45707 0.57162 0.6802 0.0
C1790 C 0.50935 0.57002 0.59334 0.0
C1791 C 0.50639 0.5458 0.57836 0.0
C1792 C 0.49431 0.57347 0.61222 0.0
C1793 C 0.47616 0.55266 0.6166 0.0
C1794 C 0.47336 0.52844 0.6015 0.0
C1795 C 0.48828 0.52507 0.58263 0.0
H1796 H 0.83272 0.24128 0.97349 0.0
H1797 H 0.7605 0.19695 0.96284 0.0
H1798 H 0.82337 0.27002 0.94546 0.0
H1799 H 0.75148 0.22495 0.93438 0.0
H1800 H 0.73682 0.27992 0.88615 0.0
H1801 H 0.74669 0.26662 0.92517 0.0
H1802 H 0.81654 0.2623 0.90203 0.0
H1803 H 0.80691 0.27631 0.86376 0.0
C1804 C 0.81482 0.2378 0.96538 0.0
C1805 C 0.79749 0.21651 0.97002 0.0
C1806 C 0.80948 0.25426 0.94931 0.0
C1807 C 0.78677 0.2496 0.93746 0.0
C1808 C 0.76908 0.22933 0.94336 0.0
C1809 C 0.77436 0.21304 0.95953 0.0
C1810 C 0.75442 0.2767 0.88978 0.0
C1811 C 0.771 0.27871 0.87195 0.0
C1812 C 0.76006 0.269 0.91201 0.0
C1813 C 0.7823 0.26311 0.9166 0.0
C1814 C 0.79935 0.26694 0.89929 0.0
C1815 C 0.79376 0.27473 0.87721 0.0
H1816 H 0.10319 0.49154 0.15315 0.0
H1817 H 0.03288 0.45741 0.17172 0.0
H1818 H 0.08721 0.49551 0.11275 0.0
H1819 H 0.01681 0.46251 0.13219 0.0
H1820 H 0.99345 0.45906 0.05403 0.0
H1821 H 0.01286 0.44868 0.09014 0.0
H1822 H 0.0648 0.52118 0.0948 0.0
H1823 H 0.04605 0.53066 0.05807 0.0
C1824 C 0.08436 0.48487 0.14859 0.0
C1825 C 0.0693 0.47424 0.16562 0.0
C1826 C 0.07515 0.48728 0.12551 0.0
C1827 C 0.05065 0.47945 0.11915 0.0
C1828 C 0.03578 0.46831 0.13613 0.0
C1829 C 0.04501 0.46556 0.15897 0.0
C1830 C 0.00912 0.47259 0.06276 0.0
C1831 C 0.01816 0.49571 0.05348 0.0
C1832 C 0.02021 0.46676 0.0835 0.0
C1833 C 0.04033 0.4842 0.09561 0.0
C1834 C 0.0496 0.50707 0.08585 0.0
C1835 C 0.03872 0.51267 0.06491 0.0
H1836 H 0.74665 0.86407 0.45361 0.0
H1837 H 0.79996 0.81925 0.46344 0.0
H1838 H 0.74242 0.84718 0.40991 0.0
H1839 H 0.79552 0.8023 0.42014 0.0
H1840 H 0.72718 0.79205 0.33577 0.0
H1841 H 0.72926 0.80787 0.37948 0.0
H1842 H 0.80536 0.8184 0.38214 0.0
H1843 H 0.80331 0.80229 0.33859 0.0
C1844 C 0.75723 0.85038 0.44659 0.0
C1845 C 0.77375 0.84321 0.46218 0.0
C1846 C 0.75479 0.84066 0.42149 0.0
C1847 C 0.76886 0.82361 0.41136 0.0
C1848 C 0.78476 0.81582 0.42712 0.0
C1849 C 0.78716 0.82544 0.4521 0.0
C1850 C 0.74439 0.79775 0.34564 0.0
C1851 C 0.76508 0.79577 0.33354 0.0
C1852 C 0.74557 0.80697 0.37074 0.0
C1853 C 0.76746 0.81432 0.38447 0.0
C1854 C 0.78815 0.81253 0.3723 0.0
C1855 C 0.78698 0.80342 0.34721 0.0
H1856 H 0.37914 0.51852 0.8164 0.0
H1857 H 0.44605 0.5151 0.78554 0.0
H1858 H 0.39262 0.50378 0.853 0.0
H1859 H 0.46006 0.5015 0.82258 0.0
H1860 H 0.47825 0.46693 0.88778 0.0
H1861 H 0.45813 0.46962 0.84892 0.0
H1862 H 0.41904 0.52263 0.88682 0.0
H1863 H 0.43829 0.51891 0.92538 0.0
C1864 C 0.39675 0.51471 0.81744 0.0
C1865 C 0.41164 0.51835 0.79823 0.0
C1866 C 0.40453 0.50626 0.83847 0.0
C1867 C 0.42756 0.50173 0.84094 0.0
C1868 C 0.44211 0.50444 0.82127 0.0
C1869 C 0.43416 0.51247 0.80008 0.0
C1870 C 0.46495 0.47865 0.88772 0.0
C1871 C 0.45989 0.49284 0.90946 0.0
C1872 C 0.45357 0.4804 0.86549 0.0
C1873 C 0.43712 0.49658 0.86464 0.0
C1874 C 0.43132 0.5097 0.88669 0.0
C1875 C 0.44249 0.50772 0.90885 0.0
H1876 H 0.76896 0.18936 0.07257 0.0
H1877 H 0.84407 0.21847 0.08968 0.0
H1878 H 0.7607 0.21539 0.10953 0.0
H1879 H 0.83575 0.24391 0.1273 0.0
H1880 H 0.81345 0.3027 0.18393 0.0
H1881 H 0.81966 0.28095 0.14352 0.0
H1882 H 0.76376 0.21533 0.15227 0.0
H1883 H 0.75708 0.2374 0.19195 0.0
C1884 C 0.78376 0.2011 0.08436 0.0
C1885 C 0.80721 0.20166 0.07826 0.0
C1886 C 0.77899 0.21604 0.10559 0.0
C1887 C 0.79755 0.2317 0.12143 0.0
C1888 C 0.82103 0.23237 0.1153 0.0
C1889 C 0.82581 0.21758 0.09388 0.0
C1890 C 0.80224 0.28385 0.17692 0.0
C1891 C 0.78492 0.27162 0.19108 0.0
C1892 C 0.80595 0.27128 0.15393 0.0
C1893 C 0.7924 0.24627 0.14477 0.0
C1894 C 0.77437 0.23467 0.1586 0.0
C1895 C 0.77061 0.24726 0.18143 0.0
H1896 H 0.04159 0.51855 0.28119 0.0
H1897 H 0.0852 0.47692 0.31864 0.0
H1898 H 0.02102 0.52636 0.31865 0.0
H1899 H 0.06482 0.48462 0.35555 0.0
H1900 H 0.0209 0.56095 0.40421 0.0
H1901 H 0.03352 0.55221 0.36268 0.0
H1902 H 0.02308 0.47013 0.36865 0.0
H1903 H 0.01065 0.47881 0.40999 0.0
C1904 C 0.04671 0.51106 0.29734 0.0
C1905 C 0.06503 0.49723 0.29708 0.0
C1906 C 0.03501 0.51555 0.31868 0.0
C1907 C 0.04121 0.50583 0.3398 0.0
C1908 C 0.05944 0.49196 0.33939 0.0
C1909 C 0.07126 0.48778 0.31831 0.0
C1910 C 0.02086 0.54101 0.39638 0.0
C1911 C 0.01517 0.52058 0.41029 0.0
C1912 C 0.02795 0.53601 0.37265 0.0
C1913 C 0.02951 0.51057 0.3627 0.0
C1914 C 0.0223 0.48996 0.37609 0.0
C1915 C 0.01516 0.49493 0.39969 0.0
H1916 H 0.77092 0.79977 0.57167 0.0
H1917 H 0.73673 0.86179 0.60016 0.0
H1918 H 0.76075 0.77816 0.60744 0.0
H1919 H 0.72737 0.84053 0.63634 0.0
H1920 H 0.7659 0.81113 0.70626 0.0
H1921 H 0.76618 0.82977 0.66831 0.0
H1922 H 0.71615 0.76127 0.63348 0.0
H1923 H 0.71472 0.74304 0.67211 0.0
C1924 C 0.76075 0.80847 0.58527 0.0
C1925 C 0.75453 0.83244 0.58298 0.0
C1926 C 0.75495 0.79609 0.60573 0.0
C1927 C 0.74331 0.80771 0.6246 0.0
C1928 C 0.73625 0.83112 0.62194 0.0
C1929 C 0.74149 0.84318 0.60117 0.0
C1930 C 0.75439 0.80031 0.6908 0.0
C1931 C 0.73992 0.7758 0.69242 0.0
C1932 C 0.75468 0.81096 0.66902 0.0
C1933 C 0.74106 0.79704 0.64807 0.0
C1934 C 0.72667 0.77246 0.64948 0.0
C1935 C 0.72587 0.76207 0.67155 0.0
H1936 H 0.72546 0.48468 0.53857 0.0
H1937 H 0.67805 0.4177 0.49688 0.0
H1938 H 0.6962 0.51102 0.53438 0.0
H1939 H 0.64838 0.4441 0.49318 0.0
H1940 H 0.60714 0.50291 0.47372 0.0
H1941 H 0.64021 0.48077 0.47425 0.0
H1942 H 0.65832 0.51439 0.5499 0.0
H1943 H 0.62556 0.53687 0.54915 0.0
C1944 C 0.70872 0.47551 0.52857 0.0
C1945 C 0.70402 0.44902 0.51815 0.0
C1946 C 0.69193 0.49065 0.52624 0.0
C1947 C 0.66997 0.47968 0.5135 0.0
C1948 C 0.66529 0.45323 0.50284 0.0
C1949 C 0.68218 0.43803 0.50513 0.0
C1950 C 0.61856 0.50603 0.49027 0.0
C1951 C 0.61383 0.52153 0.51143 0.0
C1952 C 0.63731 0.49311 0.49066 0.0
C1953 C 0.65166 0.4955 0.51221 0.0
C1954 C 0.64768 0.51225 0.53295 0.0
C1955 C 0.62895 0.52517 0.53255 0.0
H1956 H 0.19255 0.11242 0.45653 0.0
H1957 H 0.20021 0.09289 0.52919 0.0
H1958 H 0.15126 0.08913 0.45286 0.0
H1959 H 0.15901 0.06937 0.52536 0.0
H1960 H 0.07748 0.05314 0.51785 0.0
H1961 H 0.11854 0.07726 0.52246 0.0
H1962 H 0.12898 0.04352 0.44916 0.0
H1963 H 0.08784 0.01935 0.44478 0.0
C1964 C 0.18542 0.10327 0.47176 0.0
C1965 C 0.1997 0.10447 0.49313 0.0
C1966 C 0.16181 0.08975 0.46957 0.0
C1967 C 0.15192 0.07726 0.48875 0.0
C1968 C 0.16606 0.07894 0.51032 0.0
C1969 C 0.1897 0.09235 0.51247 0.0
C1970 C 0.08869 0.05051 0.50299 0.0
C1971 C 0.07965 0.03407 0.48119 0.0
C1972 C 0.11217 0.06442 0.50553 0.0
C1973 C 0.12703 0.06229 0.48617 0.0
C1974 C 0.11791 0.0458 0.46431 0.0
C1975 C 0.09444 0.03183 0.46186 0.0
H1976 H 0.21408 0.96407 0.81526 0.0
H1977 H 0.18331 0.95942 0.74208 0.0
H1978 H 0.23684 0.93224 0.8007 0.0
H1979 H 0.20706 0.9281 0.72719 0.0
H1980 H 0.21968 0.84362 0.72212 0.0
H1981 H 0.20504 0.88352 0.72992 0.0
H1982 H 0.26704 0.91925 0.77815 0.0
H1983 H 0.28122 0.87869 0.77112 0.0
C1984 C 0.21258 0.95675 0.7959 0.0
C1985 C 0.19648 0.964 0.77994 0.0
C1986 C 0.22588 0.93856 0.78747 0.0
C1987 C 0.22366 0.92728 0.76276 0.0
C1988 C 0.20884 0.93595 0.74644 0.0
C1989 C 0.19533 0.95405 0.75495 0.0
C1990 C 0.23043 0.8601 0.73409 0.0
C1991 C 0.25146 0.8578 0.7463 0.0
C1992 C 0.22209 0.88316 0.73843 0.0
C1993 C 0.23469 0.90463 0.7549 0.0
C1994 C 0.25658 0.90292 0.76579 0.0
C1995 C 0.26479 0.8797 0.76167 0.0
H1996 H 0.31917 0.96423 0.99492 0.0
H1997 H 0.33538 0.88901 0.00087 0.0
H1998 H 0.36134 0.98427 -9e-05 0.0
H1999 H 0.37758 0.90912 0.00538 0.0
H2000 H 0.4508 0.95852 0.98473 0.0
H2001 H 0.40924 0.93574 0.97872 0.0
H2002 H 0.39218 0.98864 0.03863 0.0
H2003 H 0.43386 0.01125 0.04498 0.0
C2004 C 0.33173 0.95188 0.99678 0.0
C2005 C 0.32399 0.92506 0.99759 0.0
C2006 C 0.35578 0.9634 -0.00013 0.0
C2007 C 0.37247 0.9482 0.00335 0.0
C2008 C 0.36491 0.92117 0.00282 0.0
C2009 C 0.3408 0.9097 0.00019 0.0
C2010 C 0.43819 0.96507 0.99678 0.0
C2011 C 0.44539 0.98664 0.01527 0.0
C2012 C 0.41452 0.95204 0.99335 0.0
C2013 C 0.39769 0.96072 0.00806 0.0
C2014 C 0.40495 0.98185 0.02695 0.0
C2015 C 0.42872 0.99458 0.0307 0.0
H2016 H 0.84411 0.57557 0.73964 0.0
H2017 H 0.85517 0.61838 0.81285 0.0
H2018 H 0.81051 0.59525 0.73193 0.0
H2019 H 0.82238 0.63886 0.8049 0.0
H2020 H 0.75639 0.66462 0.79274 0.0
H2021 H 0.78108 0.63343 0.79856 0.0
H2022 H 0.80342 0.63609 0.72513 0.0
H2023 H 0.77782 0.66611 0.71907 0.0
C2024 C 0.83945 0.58931 0.75403 0.0
C2025 C 0.85239 0.59557 0.7768 0.0
C2026 C 0.82019 0.60059 0.74962 0.0
C2027 C 0.81363 0.61862 0.76779 0.0
C2028 C 0.8265 0.62462 0.79063 0.0
C2029 C 0.84552 0.61309 0.79514 0.0
C2030 C 0.76602 0.65782 0.77764 0.0
C2031 C 0.76544 0.66788 0.75556 0.0
C2032 C 0.78039 0.64022 0.78104 0.0
C2033 C 0.79474 0.63275 0.76255 0.0
C2034 C 0.79259 0.64127 0.73977 0.0
C2035 C 0.77793 0.65855 0.73627 0.0
H2036 H 0.85299 0.64044 0.98167 0.0
H2037 H 0.80825 0.57644 0.00946 0.0
H2038 H 0.88551 0.61746 0.98123 0.0
H2039 H 0.84055 0.55324 0.00853 0.0
H2040 H 0.91102 0.52885 0.0232 0.0
H2041 H 0.87895 0.55252 0.02631 0.0
H2042 H 0.89593 0.5798 0.95778 0.0
H2043 H 0.92832 0.55652 0.95502 0.0
C2044 C 0.85016 0.62162 0.98798 0.0
C2045 C 0.82797 0.61031 0.99559 0.0
C2046 C 0.86874 0.60828 0.98745 0.0
C2047 C 0.86561 0.58328 0.99451 0.0
C2048 C 0.8437 0.57248 0.00308 0.0
C2049 C 0.82513 0.58582 0.00361 0.0
C2050 C 0.90772 0.53968 0.00868 0.0
C2051 C 0.92213 0.54077 0.98882 0.0
C2052 C 0.88932 0.55327 0.01045 0.0
C2053 C 0.88491 0.56831 0.99241 0.0
C2054 C 0.89907 0.56886 0.97226 0.0
C2055 C 0.91746 0.55526 0.9705 0.0
H2056 H 0.20972 0.08239 0.82752 0.0
H2057 H 0.14913 0.08622 0.78141 0.0
H2058 H 0.23018 0.1246 0.81858 0.0
H2059 H 0.16895 0.12931 0.77355 0.0
H2060 H 0.22164 0.19099 0.74148 0.0
H2061 H 0.19871 0.15035 0.75197 0.0
H2062 H 0.23348 0.16917 0.82466 0.0
H2063 H 0.25737 0.20879 0.8134 0.0
C2064 C 0.20058 0.09254 0.81585 0.0
C2065 C 0.17785 0.08095 0.80513 0.0
C2066 C 0.21226 0.11692 0.8108 0.0
C2067 C 0.20131 0.13061 0.7953 0.0
C2068 C 0.17823 0.11924 0.78515 0.0
C2069 C 0.16674 0.09459 0.78981 0.0
C2070 C 0.22425 0.18635 0.75969 0.0
C2071 C 0.24142 0.20275 0.77655 0.0
C2072 C 0.21098 0.16315 0.76584 0.0
C2073 C 0.21429 0.15615 0.78917 0.0
C2074 C 0.23084 0.17337 0.80631 0.0
C2075 C 0.24443 0.19622 0.79996 0.0
H2076 H 0.36305 0.97732 0.331 0.0
H2077 H 0.35066 0.98652 0.25568 0.0
H2078 H 0.33851 0.93316 0.32278 0.0
H2079 H 0.32526 0.94335 0.24775 0.0
H2080 H 0.3019 0.85481 0.2343 0.0
H2081 H 0.32567 0.89919 0.24234 0.0
H2082 H 0.2998 0.90878 0.31461 0.0
H2083 H 0.27717 0.86397 0.30689 0.0
C2084 C 0.3549 0.96998 0.31279 0.0
C2085 C 0.35896 0.98524 0.29397 0.0
C2086 C 0.34069 0.94475 0.30805 0.0
C2087 C 0.32987 0.93453 0.28452 0.0
C2088 C 0.33368 0.95017 0.26591 0.0
C2089 C 0.34819 0.97506 0.27052 0.0
C2090 C 0.30113 0.86657 0.25176 0.0
C2091 C 0.28779 0.85599 0.26998 0.0
C2092 C 0.31473 0.89206 0.25643 0.0
C2093 C 0.31485 0.90766 0.27926 0.0
C2094 C 0.30068 0.89723 0.29708 0.0
C2095 C 0.28749 0.87163 0.29257 0.0
H2096 H 0.54834 0.35897 0.60472 0.0
H2097 H 0.48788 0.3157 0.55762 0.0
H2098 H 0.55148 0.39493 0.58093 0.0
H2099 H 0.49132 0.35135 0.53364 0.0
H2100 H 0.55636 0.45324 0.52787 0.0
H2101 H 0.5582 0.41201 0.54213 0.0
H2102 H 0.48206 0.39413 0.54402 0.0
H2103 H 0.48012 0.43495 0.5295 0.0
C2104 C 0.53618 0.35678 0.58887 0.0
C2105 C 0.5176 0.33469 0.58334 0.0
C2106 C 0.53799 0.3774 0.5752 0.0
C2107 C 0.52134 0.3762 0.55569 0.0
C2108 C 0.50406 0.35313 0.54893 0.0
C2109 C 0.50218 0.33265 0.56262 0.0
C2110 C 0.53996 0.44033 0.53098 0.0
C2111 C 0.51808 0.44752 0.52771 0.0
C2112 C 0.54107 0.41676 0.53926 0.0
C2113 C 0.52031 0.39981 0.54427 0.0
C2114 C 0.49839 0.40654 0.54002 0.0
C2115 C 0.49728 0.4301 0.53185 0.0
H2116 H 0.43568 0.7442 0.28686 0.0
H2117 H 0.40031 0.73276 0.35307 0.0
H2118 H 0.39913 0.75051 0.26749 0.0
H2119 H 0.36385 0.73952 0.33372 0.0
H2120 H 0.3158 0.78719 0.29599 0.0
H2121 H 0.35123 0.77912 0.31637 0.0
H2122 H 0.35701 0.72127 0.25511 0.0
H2123 H 0.32103 0.72857 0.23513 0.0
C2124 C 0.42013 0.7431 0.29731 0.0
C2125 C 0.42089 0.73797 0.32152 0.0
C2126 C 0.39922 0.74658 0.28617 0.0
C2127 C 0.37874 0.74545 0.29913 0.0
C2128 C 0.37948 0.74056 0.32339 0.0
C2129 C 0.40032 0.73659 0.33442 0.0
C2130 C 0.32437 0.77239 0.28711 0.0
C2131 C 0.31547 0.75817 0.26419 0.0
C2132 C 0.34466 0.76787 0.29872 0.0
C2133 C 0.35674 0.74954 0.2873 0.0
C2134 C 0.34802 0.73557 0.26424 0.0
C2135 C 0.32747 0.73973 0.25285 0.0
H2136 H -0.00106 0.72502 0.0612 0.0
H2137 H 0.03047 0.70405 0.12523 0.0
H2138 H 0.00859 0.68768 0.0362 0.0
H2139 H 0.03877 0.66516 0.10044 0.0
H2140 H 0.05901 0.60077 0.04639 0.0
H2141 H 0.05884 0.64404 0.06909 0.0
H2142 H 0.99265 0.64361 0.03002 0.0
H2143 H 0.9935 0.60197 0.00695 0.0
C2144 C 0.00783 0.7122 0.06993 0.0
C2145 C 0.01355 0.7171 0.09518 0.0
C2146 C 0.01328 0.69066 0.05564 0.0
C2147 C 0.02391 0.67282 0.0663 0.0
C2148 C 0.03066 0.67842 0.09151 0.0
C2149 C 0.02574 0.70056 0.10578 0.0
C2150 C 0.04477 0.61032 0.04235 0.0
C2151 C 0.02629 0.59781 0.02484 0.0
C2152 C 0.04451 0.63498 0.05555 0.0
C2153 C 0.02575 0.64754 0.05145 0.0
C2154 C 0.00772 0.63511 0.03346 0.0
C2155 C 0.00809 0.61085 0.02027 0.0
H2156 H 0.05306 0.29162 0.8116 0.0
H2157 H 0.05419 0.21725 0.83492 0.0
H2158 H 0.09122 0.29193 0.79426 0.0
H2159 H 0.09165 0.21685 0.81663 0.0
H2160 H 0.16966 0.23496 0.80233 0.0
H2161 H 0.13196 0.23503 0.82027 0.0
H2162 H 0.10989 0.27291 0.76172 0.0
H2163 H 0.14832 0.27393 0.74454 0.0
C2164 C 0.06145 0.27532 0.81301 0.0
C2165 C 0.0506 0.25448 0.82475 0.0
C2166 C 0.08325 0.27533 0.80282 0.0
C2167 C 0.09462 0.25433 0.80382 0.0
C2168 C 0.08376 0.2336 0.81578 0.0
C2169 C 0.06215 0.23377 0.82625 0.0
C2170 C 0.15666 0.24312 0.7932 0.0
C2171 C 0.16189 0.2544 0.77202 0.0
C2172 C 0.13493 0.24309 0.80344 0.0
C2173 C 0.11769 0.25402 0.79256 0.0
C2174 C 0.12282 0.26477 0.77095 0.0
C2175 C 0.14474 0.2651 0.7609 0.0
H2176 H 0.47204 0.70759 0.95987 0.0
H2177 H 0.5393 0.70856 0.92801 0.0
H2178 H 0.47688 0.67064 0.9797 0.0
H2179 H 0.54411 0.67144 0.94834 0.0
H2180 H 0.54731 0.6132 0.00533 0.0
H2181 H 0.54631 0.65582 0.99274 0.0
H2182 H 0.47674 0.62378 0.9573 0.0
H2183 H 0.47787 0.58143 0.96934 0.0
C2184 C 0.48808 0.70027 0.95738 0.0
C2185 C 0.50513 0.71088 0.94197 0.0
C2186 C 0.49079 0.67906 0.96879 0.0
C2187 C 0.51073 0.66809 0.96535 0.0
C2188 C 0.5286 0.67965 0.95133 0.0
C2189 C 0.52578 0.70082 0.93963 0.0
C2190 C 0.53172 0.61546 0.99513 0.0
C2191 C 0.51265 0.59407 0.98833 0.0
C2192 C 0.53124 0.63971 0.98781 0.0
C2193 C 0.51143 0.64302 0.97413 0.0
C2194 C 0.49214 0.62181 0.96801 0.0
C2195 C 0.49283 0.59756 0.97484 0.0
H2196 H 0.07912 0.79736 0.66117 0.0
H2197 H 0.05083 0.71555 0.66352 0.0
H2198 H 0.11912 0.79005 0.66546 0.0
H2199 H 0.09094 0.70809 0.66722 0.0
H2200 H 0.16365 0.71826 0.71122 0.0
H2201 H 0.12311 0.71856 0.69814 0.0
H2202 H 0.14895 0.76993 0.64625 0.0
H2203 H 0.18962 0.7701 0.6599 0.0
C2204 C 0.08143 0.77775 0.66234 0.0
C2205 C 0.06176 0.75711 0.66226 0.0
C2206 C 0.1044 0.77348 0.66455 0.0
C2207 C 0.10829 0.74844 0.66664 0.0
C2208 C 0.08859 0.72766 0.66593 0.0
C2209 C 0.06559 0.73195 0.66378 0.0
C2210 C 0.16066 0.72906 0.69657 0.0
C2211 C 0.17975 0.74437 0.68675 0.0
C2212 C 0.13738 0.72921 0.68902 0.0
C2213 C 0.13275 0.74465 0.67143 0.0
C2214 C 0.15192 0.7583 0.66023 0.0
C2215 C 0.17521 0.75818 0.66784 0.0
H2216 H 0.04706 0.34855 0.42785 0.0
H2217 H 0.98579 0.33417 0.47047 0.0
H2218 H 0.05597 0.39464 0.44695 0.0
H2219 H 0.99455 0.3798 0.48876 0.0
H2220 H -0.00292 0.46626 0.47721 0.0
H2221 H -0.00358 0.42158 0.4584 0.0
H2222 H 0.06079 0.42237 0.5005 0.0
H2223 H 0.06142 0.46737 0.5198 0.0
C2224 C 0.03577 0.35499 0.44152 0.0
C2225 C 0.01555 0.33762 0.44738 0.0
C2226 C 0.04089 0.38131 0.45238 0.0
C2227 C 0.02576 0.39058 0.46906 0.0
C2228 C 0.00635 0.37304 0.47581 0.0
C2229 C 0.00139 0.34687 0.46527 0.0
C2230 C 0.01135 0.45717 0.48219 0.0
C2231 C 0.02924 0.47023 0.50007 0.0
C2232 C 0.01093 0.43161 0.47143 0.0
C2233 C 0.02855 0.41872 0.47807 0.0
C2234 C 0.04713 0.43209 0.49504 0.0
C2235 C 0.04741 0.45769 0.50609 0.0
H2236 H 0.41328 0.29698 0.15525 0.0
H2237 H 0.44172 0.25719 0.20867 0.0
H2238 H 0.37711 0.29468 0.17655 0.0
H2239 H 0.40523 0.25503 0.23016 0.0
H2240 H 0.3312 0.31741 0.23605 0.0
H2241 H 0.36847 0.3167 0.21745 0.0
H2242 H 0.36048 0.235 0.22397 0.0
H2243 H 0.32292 0.23554 0.24277 0.0
C2244 C 0.41173 0.28746 0.17139 0.0
C2245 C 0.43042 0.27735 0.18032 0.0
C2246 C 0.39107 0.28636 0.18371 0.0
C2247 C 0.38854 0.27503 0.20519 0.0
C2248 C 0.40677 0.2639 0.21364 0.0
C2249 C 0.42762 0.26517 0.20136 0.0
C2250 C 0.33742 0.29931 0.23384 0.0
C2251 C 0.3239 0.27645 0.24068 0.0
C2252 C 0.35873 0.2989 0.22303 0.0
C2253 C 0.36712 0.27569 0.2189 0.0
C2254 C 0.35436 0.25314 0.22692 0.0
C2255 C 0.33286 0.25349 0.23765 0.0
H2256 H 0.56955 0.53308 0.33031 0.0
H2257 H 0.60369 0.47494 0.35489 0.0
H2258 H 0.54835 0.53509 0.36788 0.0
H2259 H 0.58194 0.47645 0.39192 0.0
H2260 H 0.51089 0.46785 0.4354 0.0
H2261 H 0.53236 0.46603 0.39789 0.0
H2262 H 0.56578 0.5475 0.41755 0.0
H2263 H 0.54507 0.54919 0.45521 0.0
C2264 C 0.57252 0.52079 0.34371 0.0
C2265 C 0.58832 0.50395 0.33976 0.0
C2266 C 0.56041 0.52192 0.3651 0.0
C2267 C 0.56348 0.50575 0.38252 0.0
C2268 C 0.57921 0.48892 0.37859 0.0
C2269 C 0.59174 0.48824 0.35752 0.0
C2270 C 0.52286 0.48529 0.43165 0.0
C2271 C 0.52638 0.50861 0.44812 0.0
C2272 C 0.53511 0.48424 0.41033 0.0
C2273 C 0.55054 0.50668 0.40497 0.0
C2274 C 0.55385 0.53004 0.4213 0.0
C2275 C 0.54208 0.53092 0.44284 0.0
H2276 H 0.2112 0.84758 0.05777 0.0
H2277 H 0.25929 0.79638 0.03922 0.0
H2278 H 0.2012 0.82654 0.09364 0.0
H2279 H 0.25054 0.77662 0.07536 0.0
H2280 H 0.23744 0.74481 0.14317 0.0
H2281 H 0.2288 0.75305 0.10188 0.0
H2282 H 0.22243 0.83137 0.13116 0.0
H2283 H 0.22949 0.8223 0.17223 0.0
C2284 C 0.2192 0.83145 0.06099 0.0
C2285 C 0.23656 0.82419 0.04605 0.0
C2286 C 0.2137 0.81957 0.08173 0.0
C2287 C 0.22562 0.80043 0.08797 0.0
C2288 C 0.24092 0.79125 0.07139 0.0
C2289 C 0.24617 0.80284 0.05062 0.0
C2290 C 0.2338 0.76359 0.14064 0.0
C2291 C 0.23456 0.78312 0.1607 0.0
C2292 C 0.22889 0.76839 0.11702 0.0
C2293 C 0.22527 0.79306 0.11298 0.0
C2294 C 0.22479 0.81202 0.13336 0.0
C2295 C 0.22917 0.80699 0.15697 0.0
H2296 H 0.96024 0.58702 0.83266 0.0
H2297 H 0.9603 0.50689 0.80379 0.0
H2298 H 0.98105 0.58246 0.87041 0.0
H2299 H 0.98086 0.50222 0.84197 0.0
H2300 H 0.98313 0.49967 0.927 0.0
H2301 H 0.96693 0.5041 0.88682 0.0
H2302 H 0.02148 0.57304 0.88531 0.0
H2303 H 0.03805 0.56834 0.92546 0.0
C2304 C 0.96494 0.5685 0.83431 0.0
C2305 C 0.95864 0.54728 0.81533 0.0
C2306 C 0.97692 0.56596 0.85587 0.0
C2307 C 0.98247 0.54199 0.85909 0.0
C2308 C 0.97666 0.52088 0.83993 0.0
C2309 C 0.96506 0.52359 0.81808 0.0
C2310 C 0.9917 0.51575 0.91808 0.0
C2311 C 0.01184 0.53371 0.9293 0.0
C2312 C 0.98254 0.51813 0.89502 0.0
C2313 C 0.99308 0.53878 0.88293 0.0
C2314 C 0.01307 0.55692 0.89427 0.0
C2315 C 0.02251 0.55426 0.91718 0.0
H2316 H 0.31676 0.21829 0.56669 0.0
H2317 H 0.2442 0.17751 0.54866 0.0
H2318 H 0.30681 0.2336 0.6074 0.0
H2319 H 0.23386 0.1939 0.58942 0.0
H2320 H 0.23061 0.20626 0.67432 0.0
H2321 H 0.23697 0.19097 0.63172 0.0
H2322 H 0.28825 0.26269 0.62992 0.0
H2323 H 0.28271 0.27702 0.6724 0.0
C2324 C 0.29854 0.21289 0.57126 0.0
C2325 C 0.28131 0.19672 0.55418 0.0
C2326 C 0.29272 0.22187 0.59474 0.0
C2327 C 0.26938 0.21536 0.60193 0.0
C2328 C 0.25207 0.19922 0.5848 0.0
C2329 C 0.25797 0.18995 0.56129 0.0
C2330 C 0.243 0.21879 0.66462 0.0
C2331 C 0.25634 0.2427 0.6768 0.0
C2332 C 0.24668 0.21008 0.64015 0.0
C2333 C 0.26354 0.22529 0.62725 0.0
C2334 C 0.27574 0.2499 0.63925 0.0
C2335 C 0.27238 0.25831 0.66366 0.0
H2336 H 0.63401 0.51192 0.19659 0.0
H2337 H 0.57501 0.54579 0.21914 0.0
H2338 H 0.62793 0.52185 0.15543 0.0
H2339 H 0.56799 0.55438 0.17794 0.0
H2340 H 0.56341 0.57909 0.10565 0.0
H2341 H 0.57958 0.57843 0.14679 0.0
H2342 H 0.60211 0.50689 0.121 0.0
H2343 H 0.58727 0.50865 0.07987 0.0
C2344 C 0.61968 0.52139 0.19269 0.0
C2345 C 0.60489 0.52793 0.21102 0.0
C2346 C 0.61611 0.52702 0.16907 0.0
C2347 C 0.59739 0.53888 0.16316 0.0
C2348 C 0.5829 0.54578 0.18175 0.0
C2349 C 0.58675 0.54059 0.20541 0.0
C2350 C 0.57242 0.56367 0.10877 0.0
C2351 C 0.57396 0.54383 0.08971 0.0
C2352 C 0.58145 0.56307 0.13239 0.0
C2353 C 0.59173 0.54227 0.13748 0.0
C2354 C 0.59455 0.52335 0.11793 0.0
C2355 C 0.58593 0.52427 0.09427 0.0
H2356 H 0.24175 0.8766 0.92055 0.0
H2357 H 0.25694 0.80365 0.93591 0.0
H2358 H 0.23455 0.85864 0.87717 0.0
H2359 H 0.2487 0.78528 0.89305 0.0
H2360 H 0.26718 0.77367 0.81433 0.0
H2361 H 0.269 0.79027 0.8576 0.0
H2362 H 0.21118 0.82826 0.84489 0.0
H2363 H 0.21048 0.81273 0.80109 0.0
C2364 C 0.24293 0.85652 0.91471 0.0
C2365 C 0.25022 0.84163 0.93148 0.0
C2366 C 0.23877 0.84618 0.88988 0.0
C2367 C 0.24151 0.82064 0.88147 0.0
C2368 C 0.24717 0.80527 0.89867 0.0
C2369 C 0.2517 0.81572 0.9233 0.0
C2370 C 0.25509 0.78584 0.82075 0.0
C2371 C 0.239 0.79229 0.80437 0.0
C2372 C 0.25581 0.79503 0.84565 0.0
C2373 C 0.24012 0.81053 0.85488 0.0
C2374 C 0.22369 0.81663 0.83843 0.0
C2375 C 0.22315 0.80758 0.81339 0.0
H2376 H 0.93467 0.56291 0.71812 0.0
H2377 H 0.92543 0.48343 0.68214 0.0
H2378 H 0.97179 0.57468 0.69825 0.0
H2379 H 0.96219 0.49486 0.66263 0.0
H2380 H 0.02393 0.51609 0.62376 0.0
H2381 H 0.00525 0.51176 0.66229 0.0
H2382 H 0.97286 0.57689 0.65352 0.0
H2383 H 0.99166 0.5813 0.61532 0.0
C2384 C 0.9411 0.54778 0.70679 0.0
C2385 C 0.92714 0.5224 0.70124 0.0
C2386 C 0.96224 0.5545 0.69536 0.0
C2387 C 0.96977 0.53578 0.67865 0.0
C2388 C 0.95705 0.50974 0.67549 0.0
C2389 C 0.93585 0.50319 0.68652 0.0
C2390 C 0.01349 0.53002 0.63056 0.0
C2391 C 0.00872 0.54862 0.61639 0.0
C2392 C 0.00281 0.52756 0.65259 0.0
C2393 C 0.98728 0.5437 0.66073 0.0
C2394 C 0.9848 0.56422 0.64786 0.0
C2395 C 0.99538 0.5666 0.62582 0.0
H2396 H 0.25409 0.17777 0.4136 0.0
H2397 H 0.30698 0.24543 0.44524 0.0
H2398 H 0.24949 0.19776 0.37741 0.0
H2399 H 0.30129 0.2665 0.4097 0.0
H2400 H 0.30565 0.28695 0.33265 0.0
H2401 H 0.30939 0.26769 0.36976 0.0
H2402 H 0.23592 0.22726 0.35789 0.0
H2403 H 0.23301 0.24509 0.32004 0.0
C2404 C 0.26427 0.19731 0.41313 0.0
C2405 C 0.2809 0.20998 0.43239 0.0
C2406 C 0.26159 0.20894 0.39226 0.0
C2407 C 0.27507 0.23391 0.39019 0.0
C2408 C 0.29098 0.24702 0.41006 0.0
C2409 C 0.29405 0.23509 0.43071 0.0
C2410 C 0.29041 0.2738 0.33801 0.0
C2411 C 0.26912 0.26743 0.3234 0.0
C2412 C 0.29241 0.2629 0.35949 0.0
C2413 C 0.27295 0.24579 0.36725 0.0
C2414 C 0.25155 0.23977 0.35255 0.0
C2415 C 0.24977 0.25017 0.33081 0.0
H2416 H 0.30485 0.55937 0.51632 0.0
H2417 H 0.36025 0.62873 0.52029 0.0
H2418 H 0.33469 0.53342 0.52174 0.0
H2419 H 0.38988 0.6029 0.52627 0.0
H2420 H 0.43392 0.55273 0.55836 0.0
H2421 H 0.3994 0.57261 0.56002 0.0
H2422 H 0.37056 0.52557 0.49147 0.0
H2423 H 0.40548 0.50598 0.4894 0.0
C2424 C 0.32335 0.56912 0.51878 0.0
C2425 C 0.33032 0.59603 0.51778 0.0
C2426 C 0.34032 0.55427 0.52178 0.0
C2427 C 0.3644 0.56629 0.52448 0.0
C2428 C 0.37132 0.59333 0.52441 0.0
C2429 C 0.35442 0.60805 0.52084 0.0
C2430 C 0.41997 0.54617 0.5439 0.0
C2431 C 0.42241 0.52811 0.52356 0.0
C2432 C 0.40031 0.55758 0.54488 0.0
C2433 C 0.38262 0.55071 0.52577 0.0
C2434 C 0.38405 0.53104 0.50643 0.0
C2435 C 0.40395 0.51988 0.50524 0.0
H2436 H 0.85029 0.90356 0.53437 0.0
H2437 H 0.82496 0.96881 0.51229 0.0
H2438 H 0.89096 0.92591 0.52994 0.0
H2439 H 0.86567 0.99125 0.50828 0.0
H2440 H 0.95825 0.96392 0.4957 0.0
H2441 H 0.91677 0.94192 0.49567 0.0
H2442 H 0.90203 0.0105 0.53884 0.0
H2443 H 0.94376 0.03249 0.5392 0.0
C2444 C 0.85334 0.92253 0.5284 0.0
C2445 C 0.83435 0.93434 0.52363 0.0
C2446 C 0.87664 0.93531 0.52581 0.0
C2447 C 0.88145 0.96034 0.51881 0.0
C2448 C 0.86247 0.97205 0.51385 0.0
C2449 C 0.83917 0.95911 0.51603 0.0
C2450 C 0.94612 0.97442 0.50499 0.0
C2451 C 0.95423 -0.00011 0.51758 0.0
C2452 C 0.92242 0.96175 0.50507 0.0
C2453 C 0.90624 0.97443 0.51739 0.0
C2454 C 0.91413 0.00031 0.52912 0.0
C2455 C 0.93797 0.01287 0.52936 0.0
H2456 H 0.80161 0.07742 0.27014 0.0
H2457 H 0.85753 0.11097 0.22714 0.0
H2458 H 0.78259 0.11416 0.26718 0.0
H2459 H 0.83857 0.14792 0.2245 0.0
H2460 H 0.81877 0.22371 0.26477 0.0
H2461 H 0.83372 0.18367 0.26013 0.0
H2462 H 0.76359 0.13882 0.23628 0.0
H2463 H 0.74845 0.1792 0.24053 0.0
C2464 C 0.80959 0.09238 0.25964 0.0
C2465 C 0.83117 0.09139 0.24901 0.0
C2466 C 0.79864 0.11335 0.25789 0.0
C2467 C 0.80925 0.13397 0.24584 0.0
C2468 C 0.83014 0.13233 0.23408 0.0
C2469 C 0.84089 0.11111 0.23545 0.0
C2470 C 0.80643 0.20536 0.25859 0.0
C2471 C 0.78235 0.20465 0.25315 0.0
C2472 C 0.8151 0.18245 0.25567 0.0
C2473 C 0.79986 0.1582 0.24761 0.0
C2474 C 0.77571 0.15731 0.24246 0.0
C2475 C 0.76707 0.18038 0.24494 0.0
H2476 H 0.70976 0.06527 0.99063 0.0
H2477 H 0.70823 0.14239 0.02767 0.0
H2478 H 0.66772 0.0511 0.9957 0.0
H2479 H 0.66592 0.1281 0.03252 0.0
H2480 H 0.58921 0.04712 0.98049 0.0
H2481 H 0.63142 0.06224 0.97818 0.0
H2482 H 0.63797 0.09608 0.05428 0.0
H2483 H 0.59529 0.08108 0.05674 0.0
C2484 C 0.70046 0.0792 -0.00016 0.0
C2485 C 0.71224 0.10499 0.0086 0.0
C2486 C 0.67639 0.07109 0.00268 0.0
C2487 C 0.66364 0.08857 0.01439 0.0
C2488 C 0.67544 0.11423 0.02357 0.0
C2489 C 0.69957 0.12242 0.02063 0.0
C2490 C 0.59952 0.05782 0.9968 0.0
C2491 C 0.58886 0.06284 0.01885 0.0
C2492 C 0.62375 0.06633 0.99546 0.0
C2493 C 0.6379 0.08013 0.01609 0.0
C2494 C 0.62734 0.08554 0.0381 0.0
C2495 C 0.60299 0.07685 0.03951 0.0
H2496 H 0.19788 0.49108 0.28013 0.0
H2497 H 0.16019 0.43734 0.21873 0.0
H2498 H 0.23049 0.46835 0.27746 0.0
H2499 H 0.19219 0.41388 0.21665 0.0
H2500 H 0.24894 0.37155 0.21571 0.0
H2501 H 0.23145 0.40892 0.21094 0.0
H2502 H 0.23252 0.4277 0.28954 0.0
H2503 H 0.25087 0.39109 0.2941 0.0
C2504 C 0.19678 0.47464 0.26579 0.0
C2505 C 0.17635 0.46559 0.24994 0.0
C2506 C 0.21541 0.46157 0.26432 0.0
C2507 C 0.21377 0.43892 0.24724 0.0
C2508 C 0.19421 0.43134 0.22997 0.0
C2509 C 0.17573 0.44469 0.2312 0.0
C2510 C 0.24608 0.38424 0.23191 0.0
C2511 C 0.25084 0.37834 0.25528 0.0
C2512 C 0.23594 0.40552 0.22919 0.0
C2513 C 0.23008 0.421 0.24981 0.0
C2514 C 0.2369 0.41638 0.27321 0.0
C2515 C 0.24732 0.39528 0.2759 0.0
H2516 H 0.2271 0.48314 0.02512 0.0
H2517 H 0.18425 0.40497 0.01829 0.0
H2518 H 0.19172 0.50038 0.01973 0.0
H2519 H 0.14863 0.42235 0.01263 0.0
H2520 H 0.08953 0.46751 0.03145 0.0
H2521 H 0.12486 0.44959 0.0362 0.0
H2522 H 0.16078 0.50088 0.9887 0.0
H2523 H 0.12544 0.51892 0.98414 0.0
C2524 C 0.21012 0.46956 0.02235 0.0
C2525 C 0.20857 0.44262 0.02217 0.0
C2526 C 0.1898 0.47948 0.01911 0.0
C2527 C 0.16729 0.4628 0.01572 0.0
C2528 C 0.16568 0.4358 0.01544 0.0
C2529 C 0.1861 0.4258 0.01853 0.0
C2530 C 0.10503 0.47502 0.02211 0.0
C2531 C 0.10477 0.49468 0.00749 0.0
C2532 C 0.1252 0.46459 0.02466 0.0
C2533 C 0.14567 0.47368 0.01276 0.0
C2534 C 0.14542 0.49356 -0.00169 0.0
C2535 C 0.12518 0.5039 0.99565 0.0
H2536 H 0.8644 0.95156 0.22929 0.0
H2537 H 0.79919 0.97111 0.25299 0.0
H2538 H 0.84495 0.90501 0.2223 0.0
H2539 H 0.77969 0.92492 0.24542 0.0
H2540 H 0.74774 0.84076 0.21336 0.0
H2541 H 0.76879 0.88508 0.21005 0.0
H2542 H 0.82749 0.87505 0.25541 0.0
H2543 H 0.80621 0.83073 0.25916 0.0
C2544 C 0.84574 0.94596 0.2322 0.0
C2545 C 0.83322 0.96484 0.24158 0.0
C2546 C 0.83471 0.91939 0.22843 0.0
C2547 C 0.81088 0.91144 0.23339 0.0
C2548 C 0.79803 0.93052 0.24128 0.0
C2549 C 0.80917 0.95693 0.2456 0.0
C2550 C 0.76526 0.84788 0.22238 0.0
C2551 C 0.77526 0.83244 0.23676 0.0
C2552 C 0.77728 0.87321 0.22046 0.0
C2553 C 0.79971 0.88344 0.23248 0.0
C2554 C 0.81028 0.86751 0.24579 0.0
C2555 C 0.79807 0.84227 0.24805 0.0
H2556 H 0.67109 0.07307 0.8033 0.0
H2557 H 0.62875 0.07764 0.7388 0.0
H2558 H 0.69491 0.11598 0.80118 0.0
H2559 H 0.65214 0.12144 0.73725 0.0
H2560 H 0.71301 0.18996 0.72935 0.0
H2561 H 0.69022 0.14564 0.72942 0.0
H2562 H 0.69221 0.16002 0.80828 0.0
H2563 H 0.71563 0.20361 0.80823 0.0
C2564 C 0.66667 0.0834 0.7888 0.0
C2565 C 0.64788 0.07202 0.77133 0.0
C2566 C 0.68031 0.10812 0.78764 0.0
C2567 C 0.67533 0.12235 0.7692 0.0
C2568 C 0.65663 0.11091 0.75155 0.0
C2569 C 0.64312 0.08591 0.75253 0.0
C2570 C 0.70869 0.18353 0.74668 0.0
C2571 C 0.71627 0.20024 0.76878 0.0
C2572 C 0.69547 0.15821 0.74672 0.0
C2573 C 0.6894 0.14919 0.76885 0.0
C2574 C 0.69696 0.16604 0.7909 0.0
C2575 C 0.71036 0.19115 0.79087 0.0
loop_
_geom_bond_atom_site_label_1
_geom_bond_atom_site_label_2
_geom_bond_distance
_geom_bond_site_symmetry_2
_ccdc_geom_bond_type
Mg0 O1 2.028 . S
Mg0 O7 1.986 . S
Mg0 O9 2.114 1_455 S
Mg0 O10 2.251 1_455 S
Mg0 O13 2.010 . S
O1 Mg0 2.028 . S
O1 C4 1.250 . S
O2 Mg3 2.052 . S
O2 C4 1.211 1_655 S
Mg3 O2 2.052 . S
Mg3 O8 2.032 . S
Mg3 O10 2.079 . S
C4 O1 1.250 . S
C4 O2 1.211 1_455 S
C5 O6 1.264 . S
C5 O13 1.249 . S
O6 C5 1.264 . S
O7 Mg0 1.986 . S
O7 C11 1.246 . S
O8 Mg3 2.032 . S
O8 C11 1.259 1_655 S
O9 Mg0 2.114 1_655 S
O9 C12 1.252 . S
O10 Mg0 2.251 1_655 S
O10 Mg3 2.079 . S
O10 C12 1.273 . S
C11 O7 1.246 . S
C11 O8 1.259 1_455 S
C12 O9 1.252 . S
C12 O10 1.273 . S
O13 Mg0 2.010 . S
O13 C5 1.249 . S
Mg14 O15 2.028 . S
Mg14 O21 1.986 . S
Mg14 O23 2.114 1_455 S
Mg14 O24 2.251 1_455 S
Mg14 O27 2.010 . S
O15 Mg14 2.028 . S
O15 C18 1.250 1_455 S
O16 Mg17 2.028 . S
O16 C18 1.248 . S
Mg17 O16 2.028 . S
Mg17 O22 2.032 . S
Mg17 O24 2.079 . S
C18 O15 1.250 1_655 S
C18 O16 1.248 . S
C19 O20 1.264 . S
C19 O27 1.249 . S
O20 C19 1.264 . S
O21 Mg14 1.986 . S
O21 C25 1.246 . S
O22 Mg17 2.032 . S
O22 C25 1.259 1_655 S
O23 Mg14 2.114 1_655 S
O23 C26 1.252 . S
O24 Mg14 2.251 1_655 S
O24 Mg17 2.079 . S
O24 C26 1.273 . S
C25 O21 1.246 . S
C25 O22 1.259 1_455 S
C26 O23 1.252 . S
C26 O24 1.273 . S
O27 Mg14 2.010 . S
O27 C19 1.249 . S
Mg28 O29 2.028 . S
Mg28 O35 1.986 . S
Mg28 O37 2.114 . S
Mg28 O38 2.251 . S
Mg28 O41 2.010 . S
O29 Mg28 2.028 . S
O29 C32 1.250 . S
O30 Mg31 2.028 . S
O30 C32 1.248 . S
Mg31 O30 2.028 . S
Mg31 O36 2.032 . S
Mg31 O38 2.079 . S
C32 O29 1.250 . S
C32 O30 1.248 . S
C33 O34 1.264 . S
C33 O41 1.249 . S
O34 C33 1.264 . S
O35 Mg28 1.986 . S
O35 C39 1.246 . S
O36 Mg31 2.032 . S
O36 C39 1.259 . S
O37 Mg28 2.114 . S
O37 C40 1.252 . S
O38 Mg28 2.251 . S
O38 Mg31 2.079 . S
O38 C40 1.273 . S
C39 O35 1.246 . S
C39 O36 1.259 . S
C40 O37 1.252 . S
C40 O38 1.273 . S
O41 Mg28 2.010 . S
O41 C33 1.249 . S
Mg42 O43 2.028 . S
Mg42 O49 1.986 . S
Mg42 O51 2.114 . S
Mg42 O52 2.251 . S
Mg42 O55 2.010 . S
O43 Mg42 2.028 . S
O43 C46 1.250 . S
O44 Mg45 2.028 . S
O44 C46 1.248 . S
Mg45 O44 2.028 . S
Mg45 O50 2.032 . S
Mg45 O52 2.079 . S
C46 O43 1.250 . S
C46 O44 1.248 . S
C47 O48 1.264 . S
C47 O55 1.249 . S
O48 C47 1.264 . S
O49 Mg42 1.986 . S
O49 C53 1.246 . S
O50 Mg45 2.032 . S
O50 C53 1.259 . S
O51 Mg42 2.114 . S
O51 C54 1.252 . S
O52 Mg42 2.251 . S
O52 Mg45 2.079 . S
O52 C54 1.273 . S
C53 O49 1.246 . S
C53 O50 1.259 . S
C54 O51 1.252 . S
C54 O52 1.273 . S
O55 Mg42 2.010 . S
O55 C47 1.249 . S
Mg56 O57 2.028 . S
Mg56 O63 1.986 . S
Mg56 O65 2.114 . S
Mg56 O66 2.251 1_455 S
Mg56 O69 2.010 . S
O57 Mg56 2.028 . S
O57 C60 1.250 . S
O58 Mg59 2.055 . S
O58 C60 1.213 1_655 S
Mg59 O58 2.055 . S
Mg59 O64 2.032 1_655 S
Mg59 O66 2.079 . S
C60 O57 1.250 . S
C60 O58 1.213 1_455 S
C61 O62 1.264 . S
C61 O69 1.249 . S
O62 C61 1.264 . S
O63 Mg56 1.986 . S
O63 C67 1.246 . S
O64 Mg59 2.032 1_455 S
O64 C67 1.259 . S
O65 Mg56 2.114 . S
O65 C68 1.252 1_455 S
O66 Mg56 2.251 1_655 S
O66 Mg59 2.079 . S
O66 C68 1.273 . S
C67 O63 1.246 . S
C67 O64 1.259 . S
C68 O65 1.252 1_655 S
C68 O66 1.273 . S
O69 Mg56 2.010 . S
O69 C61 1.249 . S
Mg70 O71 2.028 . S
Mg70 O77 1.986 . S
Mg70 O79 2.114 . S
Mg70 O80 2.251 . S
Mg70 O83 2.010 . S
O71 Mg70 2.028 . S
O71 C74 1.250 . S
O72 Mg73 2.028 . S
O72 C74 1.248 . S
Mg73 O72 2.028 . S
Mg73 O78 2.032 . S
Mg73 O80 2.079 . S
C74 O71 1.250 . S
C74 O72 1.248 . S
C75 O76 1.264 . S
C75 O83 1.249 . S
O76 C75 1.264 . S
O77 Mg70 1.986 . S
O77 C81 1.246 . S
O78 Mg73 2.032 . S
O78 C81 1.259 . S
O79 Mg70 2.114 . S
O79 C82 1.252 . S
O80 Mg70 2.251 . S
O80 Mg73 2.079 . S
O80 C82 1.273 . S
C81 O77 1.246 . S
C81 O78 1.259 . S
C82 O79 1.252 . S
C82 O80 1.273 . S
O83 Mg70 2.010 . S
O83 C75 1.249 . S
Mg84 O85 2.028 . S
Mg84 O91 1.986 . S
Mg84 O93 2.114 . S
Mg84 O94 2.251 . S
Mg84 O97 2.010 . S
O85 Mg84 2.028 . S
O85 C88 1.250 . S
O86 Mg87 2.028 . S
O86 C88 1.248 . S
Mg87 O86 2.028 . S
Mg87 O92 2.032 . S
Mg87 O94 2.079 . S
C88 O85 1.250 . S
C88 O86 1.248 . S
C89 O90 1.264 . S
C89 O97 1.249 . S
O90 C89 1.264 . S
O91 Mg84 1.986 . S
O91 C95 1.246 . S
O92 Mg87 2.032 . S
O92 C95 1.259 . S
O93 Mg84 2.114 . S
O93 C96 1.252 . S
O94 Mg84 2.251 . S
O94 Mg87 2.079 . S
O94 C96 1.273 . S
C95 O91 1.246 . S
C95 O92 1.259 . S
C96 O93 1.252 . S
C96 O94 1.273 . S
O97 Mg84 2.010 . S
O97 C89 1.249 . S
Mg98 O99 2.028 . S
Mg98 O105 1.986 . S
Mg98 O107 2.114 1_455 S
Mg98 O108 2.251 1_455 S
Mg98 O111 2.010 . S
O99 Mg98 2.028 . S
O99 C102 1.250 . S
O100 Mg101 2.028 . S
O100 C102 1.248 1_655 S
Mg101 O100 2.028 . S
Mg101 O106 2.032 . S
Mg101 O108 2.079 . S
C102 O99 1.250 . S
C102 O100 1.248 1_455 S
C103 O104 1.264 . S
C103 O111 1.249 . S
O104 C103 1.264 . S
O105 Mg98 1.986 . S
O105 C109 1.246 1_455 S
O106 Mg101 2.032 . S
O106 C109 1.259 . S
O107 Mg98 2.114 1_655 S
O107 C110 1.252 . S
O108 Mg98 2.251 1_655 S
O108 Mg101 2.079 . S
O108 C110 1.273 . S
C109 O105 1.246 1_655 S
C109 O106 1.259 . S
C110 O107 1.252 . S
C110 O108 1.273 . S
O111 Mg98 2.010 . S
O111 C103 1.249 . S
Mg112 O113 2.028 1_545 S
Mg112 O119 1.986 . S
Mg112 O121 2.114 . S
Mg112 O122 2.251 . S
Mg112 O125 2.010 . S
O113 Mg112 2.028 1_565 S
O113 C116 1.250 . S
O114 Mg115 2.028 1_565 S
O114 C116 1.248 . S
Mg115 O114 2.028 1_545 S
Mg115 O120 2.032 . S
Mg115 O122 2.079 . S
C116 O113 1.250 . S
C116 O114 1.248 . S
C117 O118 1.264 . S
C117 O125 1.249 . S
O118 C117 1.264 . S
O119 Mg112 1.986 . S
O119 C123 1.246 . S
O120 Mg115 2.032 . S
O120 C123 1.259 . S
O121 Mg112 2.114 . S
O121 C124 1.252 . S
O122 Mg112 2.251 . S
O122 Mg115 2.079 . S
O122 C124 1.273 . S
C123 O119 1.246 . S
C123 O120 1.259 . S
C124 O121 1.252 . S
C124 O122 1.273 . S
O125 Mg112 2.010 . S
O125 C117 1.249 . S
Mg126 O127 2.028 . S
Mg126 O133 1.986 . S
Mg126 O135 2.114 . S
Mg126 O136 2.251 . S
Mg126 O139 2.010 . S
O127 Mg126 2.028 . S
O127 C130 1.250 . S
O128 Mg129 2.028 . S
O128 C130 1.248 . S
Mg129 O128 2.028 . S
Mg129 O134 2.032 . S
Mg129 O136 2.079 . S
C130 O127 1.250 . S
C130 O128 1.248 . S
C131 O132 1.264 . S
C131 O139 1.249 . S
O132 C131 1.264 . S
O133 Mg126 1.986 . S
O133 C137 1.246 . S
O134 Mg129 2.032 . S
O134 C137 1.259 . S
O135 Mg126 2.114 . S
O135 C138 1.252 . S
O136 Mg126 2.251 . S
O136 Mg129 2.079 . S
O136 C138 1.273 . S
C137 O133 1.246 . S
C137 O134 1.259 . S
C138 O135 1.252 . S
C138 O136 1.273 . S
O139 Mg126 2.010 . S
O139 C131 1.249 . S
Mg140 O141 2.028 1_565 S
Mg140 O147 1.986 . S
Mg140 O149 2.114 1_565 S
Mg140 O150 2.251 . S
Mg140 O153 2.010 . S
O141 Mg140 2.028 1_545 S
O141 C144 1.250 . S
O142 Mg143 2.028 . S
O142 C144 1.248 . S
Mg143 O142 2.028 . S
Mg143 O148 2.032 1_545 S
Mg143 O150 2.079 1_545 S
C144 O141 1.250 . S
C144 O142 1.248 . S
C145 O146 1.264 . S
C145 O153 1.249 . S
O146 C145 1.264 . S
O147 Mg140 1.986 . S
O147 C151 1.246 . S
O148 Mg143 2.032 1_565 S
O148 C151 1.259 . S
O149 Mg140 2.114 1_545 S
O149 C152 1.252 . S
O150 Mg140 2.251 . S
O150 Mg143 2.079 1_565 S
O150 C152 1.273 1_565 S
C151 O147 1.246 . S
C151 O148 1.259 . S
C152 O149 1.252 . S
C152 O150 1.273 1_545 S
O153 Mg140 2.010 . S
O153 C145 1.249 . S
Mg154 O155 2.052 . S
Mg154 O161 1.986 . S
Mg154 O163 2.114 . S
Mg154 O164 2.251 . S
Mg154 O167 2.010 . S
O155 Mg154 2.052 . S
O155 C158 1.237 1_554 S
O156 Mg157 2.028 1_556 S
O156 C158 1.248 . S
Mg157 O156 2.028 1_554 S
Mg157 O162 2.032 . S
Mg157 O164 2.079 . S
C158 O155 1.237 1_556 S
C158 O156 1.248 . S
C159 O160 1.264 . S
C159 O167 1.249 . S
O160 C159 1.264 . S
O161 Mg154 1.986 . S
O161 C165 1.246 . S
O162 Mg157 2.032 . S
O162 C165 1.259 . S
O163 Mg154 2.114 . S
O163 C166 1.252 . S
O164 Mg154 2.251 . S
O164 Mg157 2.079 . S
O164 C166 1.273 . S
C165 O161 1.246 . S
C165 O162 1.259 . S
C166 O163 1.252 . S
C166 O164 1.273 . S
O167 Mg154 2.010 . S
O167 C159 1.249 . S
Mg168 O169 2.028 1_554 S
Mg168 O175 1.986 . S
Mg168 O177 2.114 . S
Mg168 O178 2.251 . S
Mg168 O181 2.010 . S
O169 Mg168 2.028 1_556 S
O169 C172 1.250 . S
O170 Mg171 2.028 1_556 S
O170 C172 1.248 . S
Mg171 O170 2.028 1_554 S
Mg171 O176 2.032 . S
Mg171 O178 2.079 . S
C172 O169 1.250 . S
C172 O170 1.248 . S
C173 O174 1.264 . S
C173 O181 1.249 . S
O174 C173 1.264 . S
O175 Mg168 1.986 . S
O175 C179 1.246 . S
O176 Mg171 2.032 . S
O176 C179 1.259 . S
O177 Mg168 2.114 . S
O177 C180 1.252 . S
O178 Mg168 2.251 . S
O178 Mg171 2.079 . S
O178 C180 1.273 . S
C179 O175 1.246 . S
C179 O176 1.259 . S
C180 O177 1.252 . S
C180 O178 1.273 . S
O181 Mg168 2.010 . S
O181 C173 1.249 . S
Mg182 O183 2.028 1_556 S
Mg182 O189 1.986 . S
Mg182 O191 2.114 1_556 S
Mg182 O192 2.251 . S
Mg182 O195 2.010 . S
O183 Mg182 2.028 1_554 S
O183 C186 1.250 . S
O184 Mg185 2.028 . S
O184 C186 1.248 . S
Mg185 O184 2.028 . S
Mg185 O190 2.032 1_554 S
Mg185 O192 2.079 1_554 S
C186 O183 1.250 . S
C186 O184 1.248 . S
C187 O188 1.264 . S
C187 O195 1.249 . S
O188 C187 1.264 . S
O189 Mg182 1.986 . S
O189 C193 1.246 . S
O190 Mg185 2.032 1_556 S
O190 C193 1.259 . S
O191 Mg182 2.114 1_554 S
O191 C194 1.265 . S
O192 Mg182 2.251 . S
O192 Mg185 2.079 1_556 S
O192 C194 1.256 1_556 S
C193 O189 1.246 . S
C193 O190 1.259 . S
C194 O191 1.265 . S
C194 O192 1.256 1_554 S
O195 Mg182 2.010 . S
O195 C187 1.249 . S
Mg196 O197 2.028 . S
Mg196 O203 1.986 . S
Mg196 O205 2.114 . S
Mg196 O206 2.251 . S
Mg196 O209 2.010 . S
O197 Mg196 2.028 . S
O197 C200 1.250 . S
O198 Mg199 2.028 . S
O198 C200 1.248 . S
Mg199 O198 2.028 . S
Mg199 O204 2.032 . S
Mg199 O206 2.079 . S
C200 O197 1.250 . S
C200 O198 1.248 . S
C201 O202 1.264 . S
C201 O209 1.249 . S
O202 C201 1.264 . S
O203 Mg196 1.986 . S
O203 C207 1.246 . S
O204 Mg199 2.032 . S
O204 C207 1.259 . S
O205 Mg196 2.114 . S
O205 C208 1.252 . S
O206 Mg196 2.251 . S
O206 Mg199 2.079 . S
O206 C208 1.273 . S
C207 O203 1.246 . S
C207 O204 1.259 . S
C208 O205 1.252 . S
C208 O206 1.273 . S
O209 Mg196 2.010 . S
O209 C201 1.249 . S
Mg210 O211 2.028 . S
Mg210 O217 1.986 . S
Mg210 O219 2.114 . S
Mg210 O220 2.251 . S
Mg210 O223 2.010 . S
O211 Mg210 2.028 . S
O211 C214 1.250 . S
O212 Mg213 2.028 . S
O212 C214 1.248 . S
Mg213 O212 2.028 . S
Mg213 O218 2.032 . S
Mg213 O220 2.079 . S
C214 O211 1.250 . S
C214 O212 1.248 . S
C215 O216 1.264 . S
C215 O223 1.249 . S
O216 C215 1.264 . S
O217 Mg210 1.986 . S
O217 C221 1.246 . S
O218 Mg213 2.032 . S
O218 C221 1.259 . S
O219 Mg210 2.114 . S
O219 C222 1.252 . S
O220 Mg210 2.251 . S
O220 Mg213 2.079 . S
O220 C222 1.273 . S
C221 O217 1.246 . S
C221 O218 1.259 . S
C222 O219 1.252 . S
C222 O220 1.273 . S
O223 Mg210 2.010 . S
O223 C215 1.249 . S
Mg224 O225 2.028 . S
Mg224 O231 1.986 . S
Mg224 O233 2.114 . S
Mg224 O234 2.251 . S
Mg224 O237 2.010 . S
O225 Mg224 2.028 . S
O225 C228 1.250 . S
O226 Mg227 2.028 . S
O226 C228 1.248 . S
Mg227 O226 2.028 . S
Mg227 O232 2.032 . S
Mg227 O234 2.079 . S
C228 O225 1.250 . S
C228 O226 1.248 . S
C229 O230 1.264 . S
C229 O237 1.249 . S
O230 C229 1.264 . S
O231 Mg224 1.986 . S
O231 C235 1.246 . S
O232 Mg227 2.032 . S
O232 C235 1.259 . S
O233 Mg224 2.114 . S
O233 C236 1.252 . S
O234 Mg224 2.251 . S
O234 Mg227 2.079 . S
O234 C236 1.273 . S
C235 O231 1.246 . S
C235 O232 1.259 . S
C236 O233 1.252 . S
C236 O234 1.273 . S
O237 Mg224 2.010 . S
O237 C229 1.249 . S
Mg238 O239 2.028 . S
Mg238 O245 1.986 . S
Mg238 O247 2.114 . S
Mg238 O248 2.251 . S
Mg238 O251 2.010 . S
O239 Mg238 2.028 . S
O239 C242 1.250 . S
O240 Mg241 2.028 . S
O240 C242 1.248 . S
Mg241 O240 2.028 . S
Mg241 O246 2.032 . S
Mg241 O248 2.079 . S
C242 O239 1.250 . S
C242 O240 1.248 . S
C243 O244 1.264 . S
C243 O251 1.249 . S
O244 C243 1.264 . S
O245 Mg238 1.986 . S
O245 C249 1.246 . S
O246 Mg241 2.032 . S
O246 C249 1.259 . S
O247 Mg238 2.114 . S
O247 C250 1.252 . S
O248 Mg238 2.251 . S
O248 Mg241 2.079 . S
O248 C250 1.273 . S
C249 O245 1.246 . S
C249 O246 1.259 . S
C250 O247 1.252 . S
C250 O248 1.273 . S
O251 Mg238 2.010 . S
O251 C243 1.249 . S
Mg252 O253 2.028 . S
Mg252 O259 1.986 . S
Mg252 O261 2.114 . S
Mg252 O262 2.251 . S
Mg252 O265 2.010 . S
O253 Mg252 2.028 . S
O253 C256 1.250 . S
O254 Mg255 2.028 . S
O254 C256 1.248 . S
Mg255 O254 2.028 . S
Mg255 O260 2.032 . S
Mg255 O262 2.079 . S
C256 O253 1.250 . S
C256 O254 1.248 . S
C257 O258 1.264 . S
C257 O265 1.249 . S
O258 C257 1.264 . S
O259 Mg252 1.986 . S
O259 C263 1.246 . S
O260 Mg255 2.032 . S
O260 C263 1.259 . S
O261 Mg252 2.114 . S
O261 C264 1.252 . S
O262 Mg252 2.251 . S
O262 Mg255 2.079 . S
O262 C264 1.273 . S
C263 O259 1.246 . S
C263 O260 1.259 . S
C264 O261 1.252 . S
C264 O262 1.273 . S
O265 Mg252 2.010 . S
O265 C257 1.249 . S
Mg266 O267 2.028 . S
Mg266 O273 1.986 1_545 S
Mg266 O275 2.114 . S
Mg266 O276 2.251 . S
Mg266 O279 2.010 . S
O267 Mg266 2.028 . S
O267 C270 1.250 . S
O268 Mg269 2.028 . S
O268 C270 1.248 . S
Mg269 O268 2.028 . S
Mg269 O274 2.032 . S
Mg269 O276 2.079 . S
C270 O267 1.250 . S
C270 O268 1.248 . S
C271 O272 1.264 1_545 S
C271 O279 1.249 . S
O272 C271 1.264 1_565 S
O273 Mg266 1.986 1_565 S
O273 C277 1.246 . S
O274 Mg269 2.032 . S
O274 C277 1.259 1_545 S
O275 Mg266 2.114 . S
O275 C278 1.252 . S
O276 Mg266 2.251 . S
O276 Mg269 2.079 . S
O276 C278 1.273 . S
C277 O273 1.246 . S
C277 O274 1.259 1_565 S
C278 O275 1.252 . S
C278 O276 1.273 . S
O279 Mg266 2.010 . S
O279 C271 1.249 . S
Mg280 O281 2.002 1_556 S
Mg280 O287 2.008 . S
Mg280 O289 2.098 1_556 S
Mg280 O290 2.251 1_556 S
Mg280 O293 2.011 . S
O281 Mg280 2.002 1_554 S
O281 C284 1.250 . S
O282 Mg283 2.028 . S
O282 C284 1.248 . S
Mg283 O282 2.028 . S
Mg283 O288 2.032 1_554 S
Mg283 O290 2.079 . S
C284 O281 1.250 . S
C284 O282 1.248 . S
C285 O286 1.264 . S
C285 O293 1.249 . S
O286 C285 1.264 . S
O287 Mg280 2.008 . S
O287 C291 1.246 . S
O288 Mg283 2.032 1_556 S
O288 C291 1.259 . S
O289 Mg280 2.098 1_554 S
O289 C292 1.252 . S
O290 Mg280 2.251 1_554 S
O290 Mg283 2.079 . S
O290 C292 1.273 . S
C291 O287 1.246 . S
C291 O288 1.259 . S
C292 O289 1.252 . S
C292 O290 1.273 . S
O293 Mg280 2.011 . S
O293 C285 1.249 . S
Mg294 O295 2.028 . S
Mg294 O301 1.986 . S
Mg294 O303 2.114 . S
Mg294 O304 2.251 . S
Mg294 O307 2.010 . S
O295 Mg294 2.028 . S
O295 C298 1.250 . S
O296 Mg297 2.028 . S
O296 C298 1.248 . S
Mg297 O296 2.028 . S
Mg297 O302 2.032 . S
Mg297 O304 2.079 . S
C298 O295 1.250 . S
C298 O296 1.248 . S
C299 O300 1.264 . S
C299 O307 1.249 . S
O300 C299 1.264 . S
O301 Mg294 1.986 . S
O301 C305 1.246 . S
O302 Mg297 2.032 . S
O302 C305 1.259 . S
O303 Mg294 2.114 . S
O303 C306 1.252 . S
O304 Mg294 2.251 . S
O304 Mg297 2.079 . S
O304 C306 1.273 . S
C305 O301 1.246 . S
C305 O302 1.259 . S
C306 O303 1.252 . S
C306 O304 1.273 . S
O307 Mg294 2.010 . S
O307 C299 1.249 . S
Mg308 O309 2.028 . S
Mg308 O315 1.986 . S
Mg308 O317 2.114 . S
Mg308 O318 2.251 . S
Mg308 O321 2.010 . S
O309 Mg308 2.028 . S
O309 C312 1.250 . S
O310 Mg311 2.028 . S
O310 C312 1.248 . S
Mg311 O310 2.028 . S
Mg311 O316 2.032 . S
Mg311 O318 2.079 . S
C312 O309 1.250 . S
C312 O310 1.248 . S
C313 O314 1.264 . S
C313 O321 1.249 . S
O314 C313 1.264 . S
O315 Mg308 1.986 . S
O315 C319 1.246 . S
O316 Mg311 2.032 . S
O316 C319 1.259 . S
O317 Mg308 2.114 . S
O317 C320 1.252 . S
O318 Mg308 2.251 . S
O318 Mg311 2.079 . S
O318 C320 1.273 . S
C319 O315 1.246 . S
C319 O316 1.259 . S
C320 O317 1.252 . S
C320 O318 1.273 . S
O321 Mg308 2.010 . S
O321 C313 1.249 . S
Mg322 O323 2.028 . S
Mg322 O329 1.986 . S
Mg322 O331 2.114 . S
Mg322 O332 2.251 . S
Mg322 O335 2.010 . S
O323 Mg322 2.028 . S
O323 C326 1.250 . S
O324 Mg325 2.028 . S
O324 C326 1.248 . S
Mg325 O324 2.028 . S
Mg325 O330 2.032 . S
Mg325 O332 2.079 . S
C326 O323 1.250 . S
C326 O324 1.248 . S
C327 O328 1.264 . S
C327 O335 1.249 . S
O328 C327 1.264 . S
O329 Mg322 1.986 . S
O329 C333 1.246 . S
O330 Mg325 2.032 . S
O330 C333 1.259 . S
O331 Mg322 2.114 . S
O331 C334 1.252 . S
O332 Mg322 2.251 . S
O332 Mg325 2.079 . S
O332 C334 1.273 . S
C333 O329 1.246 . S
C333 O330 1.259 . S
C334 O331 1.252 . S
C334 O332 1.273 . S
O335 Mg322 2.010 . S
O335 C327 1.249 . S
Dy336 O340 2.398 . S
Dy336 O341 2.491 1_556 S
Dy336 O342 2.403 . S
Dy336 O343 2.664 1_655 S
Dy336 O347 2.326 . S
Dy336 O351 2.322 1_556 S
Dy336 O352 2.351 1_546 S
C337 O348 1.185 . S
C337 O349 1.355 . S
C338 O340 1.185 . S
C338 O341 1.355 1_556 S
Dy339 O343 2.310 1_554 S
Dy339 O346 2.351 . S
Dy339 O348 2.398 . S
Dy339 O349 2.491 . S
Dy339 O350 2.403 . S
Dy339 O351 2.636 1_455 S
Dy339 O353 2.326 1_545 S
O340 Dy336 2.398 . S
O340 C338 1.185 . S
O341 Dy336 2.491 1_554 S
O341 C338 1.355 1_554 S
O342 Dy336 2.403 . S
O342 C344 1.254 1_655 S
O343 Dy336 2.664 1_455 S
O343 Dy339 2.310 1_556 S
O343 C344 1.268 . S
C344 O342 1.254 1_455 S
C344 O343 1.268 . S
C345 O350 1.254 . S
C345 O351 1.262 1_455 S
O346 Dy339 2.351 . S
O346 C354 1.249 1_554 S
O347 Dy336 2.326 . S
O347 C354 1.267 1_655 S
O348 C337 1.185 . S
O348 Dy339 2.398 . S
O349 C337 1.355 . S
O349 Dy339 2.491 . S
O350 Dy339 2.403 . S
O350 C345 1.254 . S
O351 Dy336 2.322 1_554 S
O351 Dy339 2.636 1_655 S
O351 C345 1.262 1_655 S
O352 Dy336 2.351 1_564 S
O352 C355 1.249 1_655 S
O353 Dy339 2.326 1_565 S
O353 C355 1.267 . S
C354 O346 1.249 1_556 S
C354 O347 1.267 1_455 S
C355 O352 1.249 1_455 S
C355 O353 1.267 . S
Dy356 O360 2.398 . S
Dy356 O361 2.491 . S
Dy356 O362 2.403 . S
Dy356 O363 2.664 . S
Dy356 O367 2.326 . S
Dy356 O371 2.310 . S
Dy356 O372 2.351 . S
C357 O368 1.185 . S
C357 O369 1.355 . S
C358 O360 1.185 . S
C358 O361 1.355 . S
Dy359 O363 2.310 . S
Dy359 O366 2.351 . S
Dy359 O368 2.398 . S
Dy359 O369 2.491 . S
Dy359 O370 2.403 . S
Dy359 O371 2.664 . S
Dy359 O373 2.326 . S
O360 Dy356 2.398 . S
O360 C358 1.185 . S
O361 Dy356 2.491 . S
O361 C358 1.355 . S
O362 Dy356 2.403 . S
O362 C364 1.254 . S
O363 Dy356 2.664 . S
O363 Dy359 2.310 . S
O363 C364 1.268 . S
C364 O362 1.254 . S
C364 O363 1.268 . S
C365 O370 1.254 . S
C365 O371 1.268 . S
O366 Dy359 2.351 . S
O366 C374 1.249 . S
O367 Dy356 2.326 . S
O367 C374 1.267 . S
O368 C357 1.185 . S
O368 Dy359 2.398 . S
O369 C357 1.355 . S
O369 Dy359 2.491 . S
O370 Dy359 2.403 . S
O370 C365 1.254 . S
O371 Dy356 2.310 . S
O371 Dy359 2.664 . S
O371 C365 1.268 . S
O372 Dy356 2.351 . S
O372 C375 1.249 . S
O373 Dy359 2.326 . S
O373 C375 1.267 . S
C374 O366 1.249 . S
C374 O367 1.267 . S
C375 O372 1.249 . S
C375 O373 1.267 . S
Dy376 O380 2.398 . S
Dy376 O381 2.491 1_545 S
Dy376 O382 2.403 . S
Dy376 O383 2.664 . S
Dy376 O387 2.326 1_545 S
Dy376 O391 2.310 . S
Dy376 O392 2.351 . S
C377 O388 1.185 . S
C377 O389 1.355 . S
C378 O380 1.185 1_565 S
C378 O381 1.355 . S
Dy379 O383 2.310 . S
Dy379 O386 2.351 1_545 S
Dy379 O388 2.398 . S
Dy379 O389 2.491 . S
Dy379 O390 2.403 . S
Dy379 O391 2.664 . S
Dy379 O393 2.326 . S
O380 Dy376 2.398 . S
O380 C378 1.185 1_545 S
O381 Dy376 2.491 1_565 S
O381 C378 1.355 . S
O382 Dy376 2.403 . S
O382 C384 1.254 . S
O383 Dy376 2.664 . S
O383 Dy379 2.310 . S
O383 C384 1.268 . S
C384 O382 1.254 . S
C384 O383 1.268 . S
C385 O390 1.254 . S
C385 O391 1.268 . S
O386 Dy379 2.351 1_565 S
O386 C394 1.249 . S
O387 Dy376 2.326 1_565 S
O387 C394 1.267 . S
O388 C377 1.185 . S
O388 Dy379 2.398 . S
O389 C377 1.355 . S
O389 Dy379 2.491 . S
O390 Dy379 2.403 . S
O390 C385 1.254 . S
O391 Dy376 2.310 . S
O391 Dy379 2.664 . S
O391 C385 1.268 . S
O392 Dy376 2.351 . S
O392 C395 1.249 . S
O393 Dy379 2.326 . S
O393 C395 1.267 . S
C394 O386 1.249 . S
C394 O387 1.267 . S
C395 O392 1.249 . S
C395 O393 1.267 . S
Dy396 O400 2.398 . S
Dy396 O401 2.491 . S
Dy396 O402 2.403 . S
Dy396 O403 2.664 . S
Dy396 O407 2.326 . S
Dy396 O411 2.310 . S
Dy396 O412 2.351 . S
C397 O408 1.185 . S
C397 O409 1.355 . S
C398 O400 1.185 . S
C398 O401 1.355 . S
Dy399 O403 2.310 . S
Dy399 O406 2.351 . S
Dy399 O408 2.398 . S
Dy399 O409 2.491 . S
Dy399 O410 2.403 . S
Dy399 O411 2.664 . S
Dy399 O413 2.326 . S
O400 Dy396 2.398 . S
O400 C398 1.185 . S
O401 Dy396 2.491 . S
O401 C398 1.355 . S
O402 Dy396 2.403 . S
O402 C404 1.254 . S
O403 Dy396 2.664 . S
O403 Dy399 2.310 . S
O403 C404 1.268 . S
C404 O402 1.254 . S
C404 O403 1.268 . S
C405 O410 1.254 . S
C405 O411 1.268 . S
O406 Dy399 2.351 . S
O406 C414 1.249 . S
O407 Dy396 2.326 . S
O407 C414 1.267 . S
O408 C397 1.185 . S
O408 Dy399 2.398 . S
O409 C397 1.355 . S
O409 Dy399 2.491 . S
O410 Dy399 2.403 . S
O410 C405 1.254 . S
O411 Dy396 2.310 . S
O411 Dy399 2.664 . S
O411 C405 1.268 . S
O412 Dy396 2.351 . S
O412 C415 1.249 . S
O413 Dy399 2.326 . S
O413 C415 1.267 . S
C414 O406 1.249 . S
C414 O407 1.267 . S
C415 O412 1.249 . S
C415 O413 1.267 . S
Dy416 O420 2.398 . S
Dy416 O421 2.491 1_455 S
Dy416 O422 2.403 . S
Dy416 O423 2.664 . S
Dy416 O427 2.326 . S
Dy416 O431 2.310 1_455 S
Dy416 O432 2.351 1_545 S
C417 O428 1.185 . S
C417 O429 1.355 . S
C418 O420 1.185 1_655 S
C418 O421 1.355 . S
Dy419 O423 2.310 . S
Dy419 O426 2.351 . S
Dy419 O428 2.398 . S
Dy419 O429 2.491 . S
Dy419 O430 2.403 1_455 S
Dy419 O431 2.664 1_455 S
Dy419 O433 2.326 1_545 S
O420 Dy416 2.398 . S
O420 C418 1.185 1_455 S
O421 Dy416 2.491 1_655 S
O421 C418 1.355 . S
O422 Dy416 2.403 . S
O422 C424 1.254 . S
O423 Dy416 2.664 . S
O423 Dy419 2.310 . S
O423 C424 1.268 . S
C424 O422 1.254 . S
C424 O423 1.268 . S
C425 O430 1.254 . S
C425 O431 1.268 . S
O426 Dy419 2.351 . S
O426 C434 1.249 . S
O427 Dy416 2.326 . S
O427 C434 1.267 . S
O428 C417 1.185 . S
O428 Dy419 2.398 . S
O429 C417 1.355 . S
O429 Dy419 2.491 . S
O430 Dy419 2.403 1_655 S
O430 C425 1.254 . S
O431 Dy416 2.310 1_655 S
O431 Dy419 2.664 1_655 S
O431 C425 1.268 . S
O432 Dy416 2.351 1_565 S
O432 C435 1.249 . S
O433 Dy419 2.326 1_565 S
O433 C435 1.267 . S
C434 O426 1.249 . S
C434 O427 1.267 . S
C435 O432 1.249 . S
C435 O433 1.267 . S
Dy436 O440 2.398 . S
Dy436 O441 2.491 . S
Dy436 O442 2.403 . S
Dy436 O443 2.664 . S
Dy436 O447 2.326 . S
Dy436 O451 2.310 . S
Dy436 O452 2.351 . S
C437 O448 1.185 . S
C437 O449 1.355 . S
C438 O440 1.185 . S
C438 O441 1.355 . S
Dy439 O443 2.310 . S
Dy439 O446 2.351 . S
Dy439 O448 2.398 . S
Dy439 O449 2.491 . S
Dy439 O450 2.403 . S
Dy439 O451 2.664 . S
Dy439 O453 2.326 . S
O440 Dy436 2.398 . S
O440 C438 1.185 . S
O441 Dy436 2.491 . S
O441 C438 1.355 . S
O442 Dy436 2.403 . S
O442 C444 1.254 . S
O443 Dy436 2.664 . S
O443 Dy439 2.310 . S
O443 C444 1.268 . S
C444 O442 1.254 . S
C444 O443 1.268 . S
C445 O450 1.254 . S
C445 O451 1.268 . S
O446 Dy439 2.351 . S
O446 C454 1.249 . S
O447 Dy436 2.326 . S
O447 C454 1.267 . S
O448 C437 1.185 . S
O448 Dy439 2.398 . S
O449 C437 1.355 . S
O449 Dy439 2.491 . S
O450 Dy439 2.403 . S
O450 C445 1.254 . S
O451 Dy436 2.310 . S
O451 Dy439 2.664 . S
O451 C445 1.268 . S
O452 Dy436 2.351 . S
O452 C455 1.249 . S
O453 Dy439 2.326 . S
O453 C455 1.267 . S
C454 O446 1.249 . S
C454 O447 1.267 . S
C455 O452 1.249 . S
C455 O453 1.267 . S
Dy456 O460 2.398 1_545 S
Dy456 O461 2.491 . S
Dy456 O462 2.403 1_545 S
Dy456 O463 2.664 1_544 S
Dy456 O467 2.326 1_545 S
Dy456 O471 2.310 . S
Dy456 O472 2.351 . S
C457 O468 1.185 . S
C457 O469 1.355 . S
C458 O460 1.185 1_545 S
C458 O461 1.355 . S
Dy459 O463 2.310 1_545 S
Dy459 O466 2.351 . S
Dy459 O468 2.398 . S
Dy459 O469 2.491 . S
Dy459 O470 2.403 . S
Dy459 O471 2.664 1_556 S
Dy459 O473 2.326 . S
O460 Dy456 2.398 1_565 S
O460 C458 1.185 1_565 S
O461 Dy456 2.491 . S
O461 C458 1.355 . S
O462 Dy456 2.403 1_565 S
O462 C464 1.283 . S
O463 Dy456 2.664 1_566 S
O463 Dy459 2.310 1_565 S
O463 C464 1.257 1_556 S
C464 O462 1.283 . S
C464 O463 1.257 1_554 S
C465 O470 1.254 1_554 S
C465 O471 1.268 . S
O466 Dy459 2.351 . S
O466 C474 1.249 1_556 S
O467 Dy456 2.326 1_565 S
O467 C474 1.267 1_565 S
O468 C457 1.185 . S
O468 Dy459 2.398 . S
O469 C457 1.355 . S
O469 Dy459 2.491 . S
O470 Dy459 2.403 . S
O470 C465 1.254 1_556 S
O471 Dy456 2.310 . S
O471 Dy459 2.664 1_554 S
O471 C465 1.268 . S
O472 Dy456 2.351 . S
O472 C475 1.249 . S
O473 Dy459 2.326 . S
O473 C475 1.267 1_556 S
C474 O466 1.249 1_554 S
C474 O467 1.267 1_545 S
C475 O472 1.249 . S
C475 O473 1.267 1_554 S
Dy476 O480 2.398 . S
Dy476 O481 2.491 . S
Dy476 O482 2.403 . S
Dy476 O483 2.664 . S
Dy476 O487 2.326 . S
Dy476 O491 2.310 . S
Dy476 O492 2.351 . S
C477 O488 1.185 . S
C477 O489 1.355 . S
C478 O480 1.185 . S
C478 O481 1.355 . S
Dy479 O483 2.310 . S
Dy479 O486 2.351 . S
Dy479 O488 2.398 . S
Dy479 O489 2.491 . S
Dy479 O490 2.403 . S
Dy479 O491 2.664 . S
Dy479 O493 2.326 . S
O480 Dy476 2.398 . S
O480 C478 1.185 . S
O481 Dy476 2.491 . S
O481 C478 1.355 . S
O482 Dy476 2.403 . S
O482 C484 1.254 . S
O483 Dy476 2.664 . S
O483 Dy479 2.310 . S
O483 C484 1.268 . S
C484 O482 1.254 . S
C484 O483 1.268 . S
C485 O490 1.254 . S
C485 O491 1.268 . S
O486 Dy479 2.351 . S
O486 C494 1.249 . S
O487 Dy476 2.326 . S
O487 C494 1.267 . S
O488 C477 1.185 . S
O488 Dy479 2.398 . S
O489 C477 1.355 . S
O489 Dy479 2.491 . S
O490 Dy479 2.403 . S
O490 C485 1.254 . S
O491 Dy476 2.310 . S
O491 Dy479 2.664 . S
O491 C485 1.268 . S
O492 Dy476 2.351 . S
O492 C495 1.249 . S
O493 Dy479 2.326 . S
O493 C495 1.267 . S
C494 O486 1.249 . S
C494 O487 1.267 . S
C495 O492 1.249 . S
C495 O493 1.267 . S
Dy496 O500 2.398 . S
Dy496 O501 2.491 . S
Dy496 O502 2.403 . S
Dy496 O503 2.664 1_556 S
Dy496 O507 2.326 . S
Dy496 O511 2.310 1_556 S
Dy496 O512 2.351 1_556 S
C497 O508 1.185 . S
C497 O509 1.355 . S
C498 O500 1.185 . S
C498 O501 1.355 . S
Dy499 O503 2.310 . S
Dy499 O506 2.351 . S
Dy499 O508 2.398 . S
Dy499 O509 2.491 . S
Dy499 O510 2.403 . S
Dy499 O511 2.664 . S
Dy499 O513 2.326 . S
O500 Dy496 2.398 . S
O500 C498 1.185 . S
O501 Dy496 2.491 . S
O501 C498 1.355 . S
O502 Dy496 2.403 . S
O502 C504 1.254 1_556 S
O503 Dy496 2.664 1_554 S
O503 Dy499 2.310 . S
O503 C504 1.268 . S
C504 O502 1.254 1_554 S
C504 O503 1.268 . S
C505 O510 1.254 . S
C505 O511 1.268 . S
O506 Dy499 2.351 . S
O506 C514 1.249 1_554 S
O507 Dy496 2.326 . S
O507 C514 1.267 . S
O508 C497 1.185 . S
O508 Dy499 2.398 . S
O509 C497 1.355 . S
O509 Dy499 2.491 . S
O510 Dy499 2.403 . S
O510 C505 1.254 . S
O511 Dy496 2.310 1_554 S
O511 Dy499 2.664 . S
O511 C505 1.268 . S
O512 Dy496 2.351 1_554 S
O512 C515 1.249 . S
O513 Dy499 2.326 . S
O513 C515 1.267 . S
C514 O506 1.249 1_556 S
C514 O507 1.267 . S
C515 O512 1.249 . S
C515 O513 1.267 . S
Dy516 O520 2.398 . S
Dy516 O521 2.491 . S
Dy516 O522 2.403 . S
Dy516 O523 2.664 . S
Dy516 O527 2.326 . S
Dy516 O531 2.310 . S
Dy516 O532 2.351 . S
C517 O528 1.185 . S
C517 O529 1.355 . S
C518 O520 1.185 . S
C518 O521 1.355 . S
Dy519 O523 2.310 . S
Dy519 O526 2.351 . S
Dy519 O528 2.398 . S
Dy519 O529 2.491 . S
Dy519 O530 2.403 . S
Dy519 O531 2.664 . S
Dy519 O533 2.326 . S
O520 Dy516 2.398 . S
O520 C518 1.185 . S
O521 Dy516 2.491 . S
O521 C518 1.355 . S
O522 Dy516 2.403 . S
O522 C524 1.254 . S
O523 Dy516 2.664 . S
O523 Dy519 2.310 . S
O523 C524 1.268 . S
C524 O522 1.254 . S
C524 O523 1.268 . S
C525 O530 1.254 . S
C525 O531 1.268 . S
O526 Dy519 2.351 . S
O526 C534 1.249 . S
O527 Dy516 2.326 . S
O527 C534 1.267 . S
O528 C517 1.185 . S
O528 Dy519 2.398 . S
O529 C517 1.355 . S
O529 Dy519 2.491 . S
O530 Dy519 2.403 . S
O530 C525 1.254 . S
O531 Dy516 2.310 . S
O531 Dy519 2.664 . S
O531 C525 1.268 . S
O532 Dy516 2.351 . S
O532 C535 1.249 . S
O533 Dy519 2.326 . S
O533 C535 1.267 . S
C534 O526 1.249 . S
C534 O527 1.267 . S
C535 O532 1.249 . S
C535 O533 1.267 . S
Dy536 O540 2.398 1_455 S
Dy536 O541 2.491 1_455 S
Dy536 O542 2.403 . S
Dy536 O543 2.664 . S
Dy536 O547 2.326 1_455 S
Dy536 O551 2.310 . S
Dy536 O552 2.351 . S
C537 O548 1.185 . S
C537 O549 1.355 . S
C538 O540 1.185 . S
C538 O541 1.355 . S
Dy539 O543 2.310 . S
Dy539 O546 2.351 1_455 S
Dy539 O548 2.398 . S
Dy539 O549 2.491 . S
Dy539 O550 2.403 . S
Dy539 O551 2.664 . S
Dy539 O553 2.326 . S
O540 Dy536 2.398 1_655 S
O540 C538 1.185 . S
O541 Dy536 2.491 1_655 S
O541 C538 1.355 . S
O542 Dy536 2.403 . S
O542 C544 1.254 . S
O543 Dy536 2.664 . S
O543 Dy539 2.310 . S
O543 C544 1.268 . S
C544 O542 1.254 . S
C544 O543 1.268 . S
C545 O550 1.254 . S
C545 O551 1.268 . S
O546 Dy539 2.351 1_655 S
O546 C554 1.249 . S
O547 Dy536 2.326 1_655 S
O547 C554 1.267 . S
O548 C537 1.185 . S
O548 Dy539 2.398 . S
O549 C537 1.355 . S
O549 Dy539 2.491 . S
O550 Dy539 2.403 . S
O550 C545 1.254 . S
O551 Dy536 2.310 . S
O551 Dy539 2.664 . S
O551 C545 1.268 . S
O552 Dy536 2.351 . S
O552 C555 1.249 . S
O553 Dy539 2.326 . S
O553 C555 1.267 . S
C554 O546 1.249 . S
C554 O547 1.267 . S
C555 O552 1.249 . S
C555 O553 1.267 . S
Dy556 O560 2.398 . S
Dy556 O561 2.491 . S
Dy556 O562 2.403 . S
Dy556 O563 2.664 . S
Dy556 O567 2.326 . S
Dy556 O571 2.310 . S
Dy556 O572 2.351 . S
C557 O568 1.185 . S
C557 O569 1.355 . S
C558 O560 1.185 . S
C558 O561 1.355 . S
Dy559 O563 2.310 . S
Dy559 O566 2.351 . S
Dy559 O568 2.398 . S
Dy559 O569 2.491 . S
Dy559 O570 2.403 . S
Dy559 O571 2.664 . S
Dy559 O573 2.326 . S
O560 Dy556 2.398 . S
O560 C558 1.185 . S
O561 Dy556 2.491 . S
O561 C558 1.355 . S
O562 Dy556 2.403 . S
O562 C564 1.254 . S
O563 Dy556 2.664 . S
O563 Dy559 2.310 . S
O563 C564 1.268 . S
C564 O562 1.254 . S
C564 O563 1.268 . S
C565 O570 1.254 . S
C565 O571 1.268 . S
O566 Dy559 2.351 . S
O566 C574 1.249 . S
O567 Dy556 2.326 . S
O567 C574 1.267 . S
O568 C557 1.185 . S
O568 Dy559 2.398 . S
O569 C557 1.355 . S
O569 Dy559 2.491 . S
O570 Dy559 2.403 . S
O570 C565 1.254 . S
O571 Dy556 2.310 . S
O571 Dy559 2.664 . S
O571 C565 1.268 . S
O572 Dy556 2.351 . S
O572 C575 1.249 . S
O573 Dy559 2.326 . S
O573 C575 1.267 . S
C574 O566 1.249 . S
C574 O567 1.267 . S
C575 O572 1.249 . S
C575 O573 1.267 . S
Dy576 O580 2.398 . S
Dy576 O581 2.491 . S
Dy576 O582 2.403 . S
Dy576 O583 2.664 . S
Dy576 O587 2.326 . S
Dy576 O591 2.310 . S
Dy576 O592 2.351 . S
C577 O588 1.185 . S
C577 O589 1.355 . S
C578 O580 1.185 . S
C578 O581 1.355 . S
Dy579 O583 2.310 . S
Dy579 O586 2.351 . S
Dy579 O588 2.398 . S
Dy579 O589 2.491 . S
Dy579 O590 2.403 . S
Dy579 O591 2.664 . S
Dy579 O593 2.326 . S
O580 Dy576 2.398 . S
O580 C578 1.185 . S
O581 Dy576 2.491 . S
O581 C578 1.355 . S
O582 Dy576 2.403 . S
O582 C584 1.254 . S
O583 Dy576 2.664 . S
O583 Dy579 2.310 . S
O583 C584 1.268 . S
C584 O582 1.254 . S
C584 O583 1.268 . S
C585 O590 1.254 . S
C585 O591 1.268 . S
O586 Dy579 2.351 . S
O586 C594 1.249 . S
O587 Dy576 2.326 . S
O587 C594 1.267 . S
O588 C577 1.185 . S
O588 Dy579 2.398 . S
O589 C577 1.355 . S
O589 Dy579 2.491 . S
O590 Dy579 2.403 . S
O590 C585 1.254 . S
O591 Dy576 2.310 . S
O591 Dy579 2.664 . S
O591 C585 1.268 . S
O592 Dy576 2.351 . S
O592 C595 1.249 . S
O593 Dy579 2.326 . S
O593 C595 1.267 . S
C594 O586 1.249 . S
C594 O587 1.267 . S
C595 O592 1.249 . S
C595 O593 1.267 . S
Dy596 O600 2.398 . S
Dy596 O601 2.491 . S
Dy596 O602 2.403 . S
Dy596 O603 2.664 . S
Dy596 O607 2.326 . S
Dy596 O611 2.310 . S
Dy596 O612 2.351 . S
C597 O608 1.185 . S
C597 O609 1.355 . S
C598 O600 1.185 . S
C598 O601 1.355 . S
Dy599 O603 2.310 . S
Dy599 O606 2.351 . S
Dy599 O608 2.398 . S
Dy599 O609 2.491 . S
Dy599 O610 2.403 . S
Dy599 O611 2.664 . S
Dy599 O613 2.326 . S
O600 Dy596 2.398 . S
O600 C598 1.185 . S
O601 Dy596 2.491 . S
O601 C598 1.355 . S
O602 Dy596 2.403 . S
O602 C604 1.254 . S
O603 Dy596 2.664 . S
O603 Dy599 2.310 . S
O603 C604 1.268 . S
C604 O602 1.254 . S
C604 O603 1.268 . S
C605 O610 1.254 . S
C605 O611 1.268 . S
O606 Dy599 2.351 . S
O606 C614 1.249 . S
O607 Dy596 2.326 . S
O607 C614 1.267 . S
O608 C597 1.185 . S
O608 Dy599 2.398 . S
O609 C597 1.355 . S
O609 Dy599 2.491 . S
O610 Dy599 2.403 . S
O610 C605 1.254 . S
O611 Dy596 2.310 . S
O611 Dy599 2.664 . S
O611 C605 1.268 . S
O612 Dy596 2.351 . S
O612 C615 1.249 . S
O613 Dy599 2.326 . S
O613 C615 1.267 . S
C614 O606 1.249 . S
C614 O607 1.267 . S
C615 O612 1.249 . S
C615 O613 1.267 . S
Dy616 O620 2.398 . S
Dy616 O621 2.491 . S
Dy616 O622 2.403 . S
Dy616 O623 2.664 . S
Dy616 O627 2.326 . S
Dy616 O631 2.310 . S
Dy616 O632 2.351 . S
C617 O628 1.185 . S
C617 O629 1.355 . S
C618 O620 1.185 . S
C618 O621 1.355 . S
Dy619 O623 2.310 . S
Dy619 O626 2.351 . S
Dy619 O628 2.398 . S
Dy619 O629 2.491 . S
Dy619 O630 2.403 . S
Dy619 O631 2.664 . S
Dy619 O633 2.326 . S
O620 Dy616 2.398 . S
O620 C618 1.185 . S
O621 Dy616 2.491 . S
O621 C618 1.355 . S
O622 Dy616 2.403 . S
O622 C624 1.254 . S
O623 Dy616 2.664 . S
O623 Dy619 2.310 . S
O623 C624 1.268 . S
C624 O622 1.254 . S
C624 O623 1.268 . S
C625 O630 1.254 . S
C625 O631 1.268 . S
O626 Dy619 2.351 . S
O626 C634 1.249 . S
O627 Dy616 2.326 . S
O627 C634 1.267 . S
O628 C617 1.185 . S
O628 Dy619 2.398 . S
O629 C617 1.355 . S
O629 Dy619 2.491 . S
O630 Dy619 2.403 . S
O630 C625 1.254 . S
O631 Dy616 2.310 . S
O631 Dy619 2.664 . S
O631 C625 1.268 . S
O632 Dy616 2.351 . S
O632 C635 1.249 . S
O633 Dy619 2.326 . S
O633 C635 1.267 . S
C634 O626 1.249 . S
C634 O627 1.267 . S
C635 O632 1.249 . S
C635 O633 1.267 . S
Dy636 O640 2.402 . S
Dy636 O641 2.489 1_556 S
Dy636 O642 2.410 . S
Dy636 O643 2.663 . S
Dy636 O647 2.327 . S
Dy636 O651 2.303 1_556 S
Dy636 O652 2.350 1_556 S
C637 O648 1.185 . S
C637 O649 1.355 . S
C638 O640 1.185 . S
C638 O641 1.355 1_556 S
Dy639 O643 2.311 1_654 S
Dy639 O646 2.351 . S
Dy639 O648 2.398 . S
Dy639 O649 2.491 . S
Dy639 O650 2.403 . S
Dy639 O651 2.664 1_655 S
Dy639 O653 2.339 . S
O640 Dy636 2.402 . S
O640 C638 1.185 . S
O641 Dy636 2.489 1_554 S
O641 C638 1.355 1_554 S
O642 Dy636 2.410 . S
O642 C644 1.254 . S
O643 Dy636 2.663 . S
O643 Dy639 2.311 1_456 S
O643 C644 1.267 . S
C644 O642 1.254 . S
C644 O643 1.267 . S
C645 O650 1.254 1_455 S
C645 O651 1.268 . S
O646 Dy639 2.351 . S
O646 C654 1.249 1_654 S
O647 Dy636 2.327 . S
O647 C654 1.267 . S
O648 C637 1.185 . S
O648 Dy639 2.398 . S
O649 C637 1.355 . S
O649 Dy639 2.491 . S
O650 Dy639 2.403 . S
O650 C645 1.254 1_655 S
O651 Dy636 2.303 1_554 S
O651 Dy639 2.664 1_455 S
O651 C645 1.268 . S
O652 Dy636 2.350 1_554 S
O652 C655 1.249 . S
O653 Dy639 2.339 . S
O653 C655 1.241 1_655 S
C654 O646 1.249 1_456 S
C654 O647 1.267 . S
C655 O652 1.249 . S
C655 O653 1.241 1_455 S
H656 C664 0.950 . S
H657 C669 0.950 . S
H658 C666 0.950 . S
H659 C668 0.950 . S
H660 C670 0.950 . S
H661 C672 0.950 . S
H662 C674 0.950 1_554 S
H663 C675 0.950 . S
C664 H656 0.950 . S
C664 C665 1.386 1_455 S
C664 C666 1.391 . S
C665 C664 1.386 1_655 S
C665 C669 1.393 . S
C666 H658 0.950 . S
C666 C664 1.391 . S
C666 C667 1.400 . S
C667 C666 1.400 . S
C667 C668 1.398 1_455 S
C667 C673 1.491 . S
C668 H659 0.950 . S
C668 C667 1.398 1_655 S
C668 C669 1.391 . S
C669 H657 0.950 . S
C669 C665 1.393 . S
C669 C668 1.391 . S
C670 H660 0.950 . S
C670 C671 1.386 1_655 S
C670 C672 1.391 . S
C671 C670 1.386 1_455 S
C671 C675 1.393 1_556 S
C672 H661 0.950 . S
C672 C670 1.391 . S
C672 C673 1.400 1_655 S
C673 C667 1.491 . S
C673 C672 1.400 1_455 S
C673 C674 1.398 . S
C674 H662 0.950 1_556 S
C674 C673 1.398 . S
C674 C675 1.391 1_556 S
C675 H663 0.950 . S
C675 C671 1.393 1_554 S
C675 C674 1.391 1_554 S
H676 C684 0.950 . S
H677 C689 0.950 . S
H678 C686 0.950 . S
H679 C688 0.950 . S
H680 C690 0.950 . S
H681 C692 0.950 . S
H682 C694 0.950 . S
H683 C695 0.950 . S
C684 H676 0.950 . S
C684 C685 1.386 . S
C684 C686 1.391 . S
C685 C684 1.386 . S
C685 C689 1.393 . S
C686 H678 0.950 . S
C686 C684 1.391 . S
C686 C687 1.400 . S
C687 C686 1.400 . S
C687 C688 1.398 . S
C687 C693 1.491 . S
C688 H679 0.950 . S
C688 C687 1.398 . S
C688 C689 1.391 . S
C689 H677 0.950 . S
C689 C685 1.393 . S
C689 C688 1.391 . S
C690 H680 0.950 . S
C690 C691 1.386 . S
C690 C692 1.391 . S
C691 C690 1.386 . S
C691 C695 1.393 . S
C692 H681 0.950 . S
C692 C690 1.391 . S
C692 C693 1.400 . S
C693 C687 1.491 . S
C693 C692 1.400 . S
C693 C694 1.398 . S
C694 H682 0.950 . S
C694 C693 1.398 . S
C694 C695 1.391 . S
C695 H683 0.950 . S
C695 C691 1.393 . S
C695 C694 1.391 . S
H696 C704 0.950 . S
H697 C709 0.950 . S
H698 C706 0.950 . S
H699 C708 0.950 . S
H700 C710 0.950 . S
H701 C712 0.950 . S
H702 C714 0.950 . S
H703 C715 0.950 . S
C704 H696 0.950 . S
C704 C705 1.386 . S
C704 C706 1.391 . S
C705 C704 1.386 . S
C705 C709 1.393 . S
C706 H698 0.950 . S
C706 C704 1.391 . S
C706 C707 1.400 . S
C707 C706 1.400 . S
C707 C708 1.398 . S
C707 C713 1.491 . S
C708 H699 0.950 . S
C708 C707 1.398 . S
C708 C709 1.391 . S
C709 H697 0.950 . S
C709 C705 1.393 . S
C709 C708 1.391 . S
C710 H700 0.950 . S
C710 C711 1.386 . S
C710 C712 1.391 . S
C711 C710 1.386 . S
C711 C715 1.393 . S
C712 H701 0.950 . S
C712 C710 1.391 . S
C712 C713 1.400 . S
C713 C707 1.491 . S
C713 C712 1.400 . S
C713 C714 1.398 . S
C714 H702 0.950 . S
C714 C713 1.398 . S
C714 C715 1.391 . S
C715 H703 0.950 . S
C715 C711 1.393 . S
C715 C714 1.391 . S
H716 C724 0.950 . S
H717 C729 0.950 . S
H718 C726 0.950 . S
H719 C728 0.950 . S
H720 C730 0.950 . S
H721 C732 0.950 . S
H722 C734 0.950 . S
H723 C735 0.950 . S
C724 H716 0.950 . S
C724 C725 1.386 . S
C724 C726 1.391 . S
C725 C724 1.386 . S
C725 C729 1.393 . S
C726 H718 0.950 . S
C726 C724 1.391 . S
C726 C727 1.400 . S
C727 C726 1.400 . S
C727 C728 1.398 . S
C727 C733 1.491 . S
C728 H719 0.950 . S
C728 C727 1.398 . S
C728 C729 1.391 . S
C729 H717 0.950 . S
C729 C725 1.393 . S
C729 C728 1.391 . S
C730 H720 0.950 . S
C730 C731 1.386 . S
C730 C732 1.391 . S
C731 C730 1.386 . S
C731 C735 1.393 . S
C732 H721 0.950 . S
C732 C730 1.391 . S
C732 C733 1.400 . S
C733 C727 1.491 . S
C733 C732 1.400 . S
C733 C734 1.398 . S
C734 H722 0.950 . S
C734 C733 1.398 . S
C734 C735 1.391 . S
C735 H723 0.950 . S
C735 C731 1.393 . S
C735 C734 1.391 . S
H736 C744 0.950 . S
H737 C749 0.950 . S
H738 C746 0.950 . S
H739 C748 0.950 . S
H740 C750 0.950 1_655 S
H741 C752 0.950 1_655 S
H742 C754 0.950 . S
H743 C755 0.950 . S
C744 H736 0.950 . S
C744 C745 1.386 . S
C744 C746 1.391 . S
C745 C744 1.386 . S
C745 C749 1.393 1_455 S
C746 H738 0.950 . S
C746 C744 1.391 . S
C746 C747 1.400 . S
C747 C746 1.400 . S
C747 C748 1.398 1_455 S
C747 C753 1.491 . S
C748 H739 0.950 . S
C748 C747 1.398 1_655 S
C748 C749 1.391 . S
C749 H737 0.950 . S
C749 C745 1.393 1_655 S
C749 C748 1.391 . S
C750 H740 0.950 1_455 S
C750 C751 1.386 . S
C750 C752 1.391 . S
C751 C750 1.386 . S
C751 C755 1.393 . S
C752 H741 0.950 1_455 S
C752 C750 1.391 . S
C752 C753 1.400 . S
C753 C747 1.491 . S
C753 C752 1.400 . S
C753 C754 1.398 . S
C754 H742 0.950 . S
C754 C753 1.398 . S
C754 C755 1.391 . S
C755 H743 0.950 . S
C755 C751 1.393 . S
C755 C754 1.391 . S
H756 C764 0.950 . S
H757 C769 0.950 . S
H758 C766 0.950 . S
H759 C768 0.950 . S
H760 C770 0.950 . S
H761 C772 0.950 . S
H762 C774 0.950 . S
H763 C775 0.950 . S
C764 H756 0.950 . S
C764 C765 1.386 . S
C764 C766 1.391 . S
C765 C764 1.386 . S
C765 C769 1.393 . S
C766 H758 0.950 . S
C766 C764 1.391 . S
C766 C767 1.400 . S
C767 C766 1.400 . S
C767 C768 1.398 . S
C767 C773 1.491 . S
C768 H759 0.950 . S
C768 C767 1.398 . S
C768 C769 1.391 . S
C769 H757 0.950 . S
C769 C765 1.393 . S
C769 C768 1.391 . S
C770 H760 0.950 . S
C770 C771 1.386 . S
C770 C772 1.391 . S
C771 C770 1.386 . S
C771 C775 1.393 . S
C772 H761 0.950 . S
C772 C770 1.391 . S
C772 C773 1.400 . S
C773 C767 1.491 . S
C773 C772 1.400 . S
C773 C774 1.398 . S
C774 H762 0.950 . S
C774 C773 1.398 . S
C774 C775 1.391 . S
C775 H763 0.950 . S
C775 C771 1.393 . S
C775 C774 1.391 . S
H776 C784 0.950 . S
H777 C789 0.950 . S
H778 C786 0.950 . S
H779 C788 0.950 . S
H780 C790 0.950 . S
H781 C792 0.950 . S
H782 C794 0.950 . S
H783 C795 0.950 . S
C784 H776 0.950 . S
C784 C785 1.386 . S
C784 C786 1.391 . S
C785 C784 1.386 . S
C785 C789 1.393 . S
C786 H778 0.950 . S
C786 C784 1.391 . S
C786 C787 1.400 . S
C787 C786 1.400 . S
C787 C788 1.398 . S
C787 C793 1.491 . S
C788 H779 0.950 . S
C788 C787 1.398 . S
C788 C789 1.391 . S
C789 H777 0.950 . S
C789 C785 1.393 . S
C789 C788 1.391 . S
C790 H780 0.950 . S
C790 C791 1.386 . S
C790 C792 1.391 . S
C791 C790 1.386 . S
C791 C795 1.393 . S
C792 H781 0.950 . S
C792 C790 1.391 . S
C792 C793 1.400 . S
C793 C787 1.491 . S
C793 C792 1.400 . S
C793 C794 1.398 . S
C794 H782 0.950 . S
C794 C793 1.398 . S
C794 C795 1.391 . S
C795 H783 0.950 . S
C795 C791 1.393 . S
C795 C794 1.391 . S
H796 C804 0.950 . S
H797 C809 0.950 . S
H798 C806 0.950 . S
H799 C808 0.950 . S
H800 C810 0.950 . S
H801 C812 0.950 . S
H802 C814 0.950 . S
H803 C815 0.950 . S
C804 H796 0.950 . S
C804 C805 1.386 . S
C804 C806 1.391 . S
C805 C804 1.386 . S
C805 C809 1.393 . S
C806 H798 0.950 . S
C806 C804 1.391 . S
C806 C807 1.400 . S
C807 C806 1.400 . S
C807 C808 1.398 . S
C807 C813 1.491 . S
C808 H799 0.950 . S
C808 C807 1.398 . S
C808 C809 1.391 . S
C809 H797 0.950 . S
C809 C805 1.393 . S
C809 C808 1.391 . S
C810 H800 0.950 . S
C810 C811 1.386 . S
C810 C812 1.391 . S
C811 C810 1.386 . S
C811 C815 1.393 . S
C812 H801 0.950 . S
C812 C810 1.391 . S
C812 C813 1.400 . S
C813 C807 1.491 . S
C813 C812 1.400 . S
C813 C814 1.398 . S
C814 H802 0.950 . S
C814 C813 1.398 . S
C814 C815 1.391 . S
C815 H803 0.950 . S
C815 C811 1.393 . S
C815 C814 1.391 . S
H816 C824 0.950 . S
H817 C829 0.950 . S
H818 C826 0.950 . S
H819 C828 0.950 . S
H820 C830 0.985 . S
H821 C832 0.950 . S
H822 C834 0.950 . S
H823 C835 0.950 . S
C824 H816 0.950 . S
C824 C825 1.386 . S
C824 C826 1.391 . S
C825 C824 1.386 . S
C825 C829 1.393 . S
C826 H818 0.950 . S
C826 C824 1.391 . S
C826 C827 1.400 . S
C827 C826 1.400 . S
C827 C828 1.398 . S
C827 C833 1.491 . S
C828 H819 0.950 . S
C828 C827 1.398 . S
C828 C829 1.391 . S
C829 H817 0.950 . S
C829 C825 1.393 . S
C829 C828 1.391 . S
C830 H820 0.985 . S
C830 C831 1.370 1_455 S
C830 C832 1.372 1_455 S
C831 C830 1.370 1_655 S
C831 C835 1.393 . S
C832 H821 0.950 . S
C832 C830 1.372 1_655 S
C832 C833 1.400 . S
C833 C827 1.491 . S
C833 C832 1.400 . S
C833 C834 1.398 . S
C834 H822 0.950 . S
C834 C833 1.398 . S
C834 C835 1.391 . S
C835 H823 0.950 . S
C835 C831 1.393 . S
C835 C834 1.391 . S
H836 C844 0.950 . S
H837 C849 0.950 . S
H838 C846 0.950 . S
H839 C848 0.950 . S
H840 C850 0.950 . S
H841 C852 0.950 . S
H842 C854 0.950 . S
H843 C855 0.950 . S
C844 H836 0.950 . S
C844 C845 1.386 . S
C844 C846 1.391 . S
C845 C844 1.386 . S
C845 C849 1.393 . S
C846 H838 0.950 . S
C846 C844 1.391 . S
C846 C847 1.400 . S
C847 C846 1.400 . S
C847 C848 1.398 . S
C847 C853 1.491 . S
C848 H839 0.950 . S
C848 C847 1.398 . S
C848 C849 1.391 . S
C849 H837 0.950 . S
C849 C845 1.393 . S
C849 C848 1.391 . S
C850 H840 0.950 . S
C850 C851 1.386 . S
C850 C852 1.391 . S
C851 C850 1.386 . S
C851 C855 1.393 . S
C852 H841 0.950 . S
C852 C850 1.391 . S
C852 C853 1.400 . S
C853 C847 1.491 . S
C853 C852 1.400 . S
C853 C854 1.398 . S
C854 H842 0.950 . S
C854 C853 1.398 . S
C854 C855 1.391 . S
C855 H843 0.950 . S
C855 C851 1.393 . S
C855 C854 1.391 . S
H856 C864 0.950 . S
H857 C869 0.950 . S
H858 C866 0.950 . S
H859 C868 0.950 . S
H860 C870 0.950 . S
H861 C872 0.950 . S
H862 C874 0.950 . S
H863 C875 0.950 . S
C864 H856 0.950 . S
C864 C865 1.386 . S
C864 C866 1.391 . S
C865 C864 1.386 . S
C865 C869 1.393 . S
C866 H858 0.950 . S
C866 C864 1.391 . S
C866 C867 1.400 . S
C867 C866 1.400 . S
C867 C868 1.398 . S
C867 C873 1.491 . S
C868 H859 0.950 . S
C868 C867 1.398 . S
C868 C869 1.391 . S
C869 H857 0.950 . S
C869 C865 1.393 . S
C869 C868 1.391 . S
C870 H860 0.950 . S
C870 C871 1.386 . S
C870 C872 1.391 . S
C871 C870 1.386 . S
C871 C875 1.393 . S
C872 H861 0.950 . S
C872 C870 1.391 . S
C872 C873 1.400 . S
C873 C867 1.491 . S
C873 C872 1.400 . S
C873 C874 1.398 . S
C874 H862 0.950 . S
C874 C873 1.398 . S
C874 C875 1.391 . S
C875 H863 0.950 . S
C875 C871 1.393 . S
C875 C874 1.391 . S
H876 C884 0.950 . S
H877 C889 0.950 . S
H878 C886 0.950 . S
H879 C888 0.950 . S
H880 C890 0.950 . S
H881 C892 0.950 . S
H882 C894 0.950 . S
H883 C895 0.950 . S
C884 H876 0.950 . S
C884 C885 1.386 . S
C884 C886 1.391 . S
C885 C884 1.386 . S
C885 C889 1.393 . S
C886 H878 0.950 . S
C886 C884 1.391 . S
C886 C887 1.400 . S
C887 C886 1.400 . S
C887 C888 1.398 . S
C887 C893 1.491 . S
C888 H879 0.950 . S
C888 C887 1.398 . S
C888 C889 1.391 . S
C889 H877 0.950 . S
C889 C885 1.393 . S
C889 C888 1.391 . S
C890 H880 0.950 . S
C890 C891 1.386 . S
C890 C892 1.391 . S
C891 C890 1.386 . S
C891 C895 1.393 . S
C892 H881 0.950 . S
C892 C890 1.391 . S
C892 C893 1.400 . S
C893 C887 1.491 . S
C893 C892 1.400 . S
C893 C894 1.398 . S
C894 H882 0.950 . S
C894 C893 1.398 . S
C894 C895 1.391 . S
C895 H883 0.950 . S
C895 C891 1.393 . S
C895 C894 1.391 . S
H896 C904 0.950 . S
H897 C909 0.950 . S
H898 C906 0.950 . S
H899 C908 0.950 . S
H900 C910 0.950 . S
H901 C912 0.950 . S
H902 C914 0.950 . S
H903 C915 0.950 1_455 S
C904 H896 0.950 . S
C904 C905 1.386 . S
C904 C906 1.391 . S
C905 C904 1.386 . S
C905 C909 1.393 . S
C906 H898 0.950 . S
C906 C904 1.391 . S
C906 C907 1.400 . S
C907 C906 1.400 . S
C907 C908 1.398 . S
C907 C913 1.491 . S
C908 H899 0.950 . S
C908 C907 1.398 . S
C908 C909 1.391 . S
C909 H897 0.950 . S
C909 C905 1.393 . S
C909 C908 1.391 . S
C910 H900 0.950 . S
C910 C911 1.386 . S
C910 C912 1.391 . S
C911 C910 1.386 . S
C911 C915 1.393 . S
C912 H901 0.950 . S
C912 C910 1.391 . S
C912 C913 1.400 . S
C913 C907 1.491 . S
C913 C912 1.400 . S
C913 C914 1.398 . S
C914 H902 0.950 . S
C914 C913 1.398 . S
C914 C915 1.391 . S
C915 H903 0.950 1_655 S
C915 C911 1.393 . S
C915 C914 1.391 . S
H916 C924 0.950 . S
H917 C929 0.950 . S
H918 C926 0.950 . S
H919 C928 0.950 . S
H920 C930 0.950 . S
H921 C932 0.950 . S
H922 C934 0.950 . S
H923 C935 0.950 . S
C924 H916 0.950 . S
C924 C925 1.386 . S
C924 C926 1.391 . S
C925 C924 1.386 . S
C925 C929 1.393 . S
C926 H918 0.950 . S
C926 C924 1.391 . S
C926 C927 1.400 . S
C927 C926 1.400 . S
C927 C928 1.398 . S
C927 C933 1.491 . S
C928 H919 0.950 . S
C928 C927 1.398 . S
C928 C929 1.391 . S
C929 H917 0.950 . S
C929 C925 1.393 . S
C929 C928 1.391 . S
C930 H920 0.950 . S
C930 C931 1.386 . S
C930 C932 1.391 . S
C931 C930 1.386 . S
C931 C935 1.393 . S
C932 H921 0.950 . S
C932 C930 1.391 . S
C932 C933 1.400 . S
C933 C927 1.491 . S
C933 C932 1.400 . S
C933 C934 1.398 . S
C934 H922 0.950 . S
C934 C933 1.398 . S
C934 C935 1.391 . S
C935 H923 0.950 . S
C935 C931 1.393 . S
C935 C934 1.391 . S
H936 C944 0.950 . S
H937 C949 0.950 . S
H938 C946 0.950 . S
H939 C948 0.950 . S
H940 C950 0.950 . S
H941 C952 0.950 . S
H942 C954 0.950 . S
H943 C955 0.950 . S
C944 H936 0.950 . S
C944 C945 1.386 . S
C944 C946 1.391 . S
C945 C944 1.386 . S
C945 C949 1.393 . S
C946 H938 0.950 . S
C946 C944 1.391 . S
C946 C947 1.400 . S
C947 C946 1.400 . S
C947 C948 1.398 . S
C947 C953 1.491 . S
C948 H939 0.950 . S
C948 C947 1.398 . S
C948 C949 1.391 . S
C949 H937 0.950 . S
C949 C945 1.393 . S
C949 C948 1.391 . S
C950 H940 0.950 . S
C950 C951 1.386 . S
C950 C952 1.391 . S
C951 C950 1.386 . S
C951 C955 1.393 . S
C952 H941 0.950 . S
C952 C950 1.391 . S
C952 C953 1.400 . S
C953 C947 1.491 . S
C953 C952 1.400 . S
C953 C954 1.398 . S
C954 H942 0.950 . S
C954 C953 1.398 . S
C954 C955 1.391 . S
C955 H943 0.950 . S
C955 C951 1.393 . S
C955 C954 1.391 . S
H956 C964 0.950 . S
H957 C969 0.950 . S
H958 C966 0.950 . S
H959 C968 0.950 . S
H960 C970 0.950 . S
H961 C972 0.950 . S
H962 C974 0.950 . S
H963 C975 0.950 . S
C964 H956 0.950 . S
C964 C965 1.386 . S
C964 C966 1.391 . S
C965 C964 1.386 . S
C965 C969 1.393 . S
C966 H958 0.950 . S
C966 C964 1.391 . S
C966 C967 1.400 . S
C967 C966 1.400 . S
C967 C968 1.398 . S
C967 C973 1.491 . S
C968 H959 0.950 . S
C968 C967 1.398 . S
C968 C969 1.391 . S
C969 H957 0.950 . S
C969 C965 1.393 . S
C969 C968 1.391 . S
C970 H960 0.950 . S
C970 C971 1.386 . S
C970 C972 1.391 . S
C971 C970 1.386 . S
C971 C975 1.393 . S
C972 H961 0.950 . S
C972 C970 1.391 . S
C972 C973 1.400 . S
C973 C967 1.491 . S
C973 C972 1.400 . S
C973 C974 1.398 . S
C974 H962 0.950 . S
C974 C973 1.398 . S
C974 C975 1.391 . S
C975 H963 0.950 . S
C975 C971 1.393 . S
C975 C974 1.391 . S
H976 C984 0.950 . S
H977 C989 0.950 . S
H978 C986 0.950 . S
H979 C988 0.950 . S
H980 C990 0.950 . S
H981 C992 0.950 1_545 S
H982 C994 0.950 . S
H983 C995 0.950 . S
C984 H976 0.950 . S
C984 C985 1.386 . S
C984 C986 1.391 . S
C985 C984 1.386 . S
C985 C989 1.393 . S
C986 H978 0.950 . S
C986 C984 1.391 . S
C986 C987 1.400 . S
C987 C986 1.400 . S
C987 C988 1.398 . S
C987 C993 1.491 . S
C988 H979 0.950 . S
C988 C987 1.398 . S
C988 C989 1.391 . S
C989 H977 0.950 . S
C989 C985 1.393 . S
C989 C988 1.391 . S
C990 H980 0.950 . S
C990 C991 1.386 1_545 S
C990 C992 1.391 1_545 S
C991 C990 1.386 1_565 S
C991 C995 1.393 . S
C992 H981 0.950 1_565 S
C992 C990 1.391 1_565 S
C992 C993 1.400 . S
C993 C987 1.491 . S
C993 C992 1.400 . S
C993 C994 1.398 . S
C994 H982 0.950 . S
C994 C993 1.398 . S
C994 C995 1.391 . S
C995 H983 0.950 . S
C995 C991 1.393 . S
C995 C994 1.391 . S
H996 C1004 0.950 . S
H997 C1009 0.950 . S
H998 C1006 0.950 . S
H999 C1008 0.950 . S
H1000 C1010 0.950 . S
H1001 C1012 0.950 . S
H1002 C1014 0.950 . S
H1003 C1015 0.950 . S
C1004 H996 0.950 . S
C1004 C1005 1.386 1_556 S
C1004 C1006 1.391 . S
C1005 C1004 1.386 1_554 S
C1005 C1009 1.393 . S
C1006 H998 0.950 . S
C1006 C1004 1.391 . S
C1006 C1007 1.400 1_556 S
C1007 C1006 1.400 1_554 S
C1007 C1008 1.398 . S
C1007 C1013 1.491 . S
C1008 H999 0.950 . S
C1008 C1007 1.398 . S
C1008 C1009 1.391 . S
C1009 H997 0.950 . S
C1009 C1005 1.393 . S
C1009 C1008 1.391 . S
C1010 H1000 0.950 . S
C1010 C1011 1.386 . S
C1010 C1012 1.391 . S
C1011 C1010 1.386 . S
C1011 C1015 1.393 1_554 S
C1012 H1001 0.950 . S
C1012 C1010 1.391 . S
C1012 C1013 1.400 . S
C1013 C1007 1.491 . S
C1013 C1012 1.400 . S
C1013 C1014 1.398 1_554 S
C1014 H1002 0.950 . S
C1014 C1013 1.398 1_556 S
C1014 C1015 1.391 . S
C1015 H1003 0.950 . S
C1015 C1011 1.393 1_556 S
C1015 C1014 1.391 . S
H1016 C1024 0.950 . S
H1017 C1029 0.950 . S
H1018 C1026 0.950 . S
H1019 C1028 0.950 . S
H1020 C1030 0.950 . S
H1021 C1032 0.950 . S
H1022 C1034 0.950 . S
H1023 C1035 0.950 . S
C1024 H1016 0.950 . S
C1024 C1025 1.386 . S
C1024 C1026 1.391 . S
C1025 C1024 1.386 . S
C1025 C1029 1.393 . S
C1026 H1018 0.950 . S
C1026 C1024 1.391 . S
C1026 C1027 1.400 . S
C1027 C1026 1.400 . S
C1027 C1028 1.398 . S
C1027 C1033 1.491 . S
C1028 H1019 0.950 . S
C1028 C1027 1.398 . S
C1028 C1029 1.391 . S
C1029 H1017 0.950 . S
C1029 C1025 1.393 . S
C1029 C1028 1.391 . S
C1030 H1020 0.950 . S
C1030 C1031 1.386 . S
C1030 C1032 1.391 . S
C1031 C1030 1.386 . S
C1031 C1035 1.393 . S
C1032 H1021 0.950 . S
C1032 C1030 1.391 . S
C1032 C1033 1.400 . S
C1033 C1027 1.491 . S
C1033 C1032 1.400 . S
C1033 C1034 1.398 . S
C1034 H1022 0.950 . S
C1034 C1033 1.398 . S
C1034 C1035 1.391 . S
C1035 H1023 0.950 . S
C1035 C1031 1.393 . S
C1035 C1034 1.391 . S
H1036 C1044 0.950 . S
H1037 C1049 0.950 . S
H1038 C1046 0.950 . S
H1039 C1048 0.950 . S
H1040 C1050 0.950 . S
H1041 C1052 0.950 . S
H1042 C1054 0.950 . S
H1043 C1055 0.950 . S
C1044 H1036 0.950 . S
C1044 C1045 1.386 . S
C1044 C1046 1.391 . S
C1045 C1044 1.386 . S
C1045 C1049 1.393 . S
C1046 H1038 0.950 . S
C1046 C1044 1.391 . S
C1046 C1047 1.400 . S
C1047 C1046 1.400 . S
C1047 C1048 1.398 . S
C1047 C1053 1.491 . S
C1048 H1039 0.950 . S
C1048 C1047 1.398 . S
C1048 C1049 1.391 . S
C1049 H1037 0.950 . S
C1049 C1045 1.393 . S
C1049 C1048 1.391 . S
C1050 H1040 0.950 . S
C1050 C1051 1.386 . S
C1050 C1052 1.391 . S
C1051 C1050 1.386 . S
C1051 C1055 1.393 . S
C1052 H1041 0.950 . S
C1052 C1050 1.391 . S
C1052 C1053 1.400 . S
C1053 C1047 1.491 . S
C1053 C1052 1.400 . S
C1053 C1054 1.398 . S
C1054 H1042 0.950 . S
C1054 C1053 1.398 . S
C1054 C1055 1.391 . S
C1055 H1043 0.950 . S
C1055 C1051 1.393 . S
C1055 C1054 1.391 . S
H1056 C1064 0.950 . S
H1057 C1069 0.950 . S
H1058 C1066 0.950 . S
H1059 C1068 0.950 . S
H1060 C1070 0.950 . S
H1061 C1072 0.950 . S
H1062 C1074 0.950 . S
H1063 C1075 0.950 . S
C1064 H1056 0.950 . S
C1064 C1065 1.386 . S
C1064 C1066 1.391 . S
C1065 C1064 1.386 . S
C1065 C1069 1.393 . S
C1066 H1058 0.950 . S
C1066 C1064 1.391 . S
C1066 C1067 1.400 . S
C1067 C1066 1.400 . S
C1067 C1068 1.398 . S
C1067 C1073 1.491 . S
C1068 H1059 0.950 . S
C1068 C1067 1.398 . S
C1068 C1069 1.391 . S
C1069 H1057 0.950 . S
C1069 C1065 1.393 . S
C1069 C1068 1.391 . S
C1070 H1060 0.950 . S
C1070 C1071 1.386 . S
C1070 C1072 1.391 . S
C1071 C1070 1.386 . S
C1071 C1075 1.393 . S
C1072 H1061 0.950 . S
C1072 C1070 1.391 . S
C1072 C1073 1.400 . S
C1073 C1067 1.491 . S
C1073 C1072 1.400 . S
C1073 C1074 1.398 . S
C1074 H1062 0.950 . S
C1074 C1073 1.398 . S
C1074 C1075 1.391 . S
C1075 H1063 0.950 . S
C1075 C1071 1.393 . S
C1075 C1074 1.391 . S
H1076 C1084 0.950 . S
H1077 C1089 0.950 . S
H1078 C1086 0.950 . S
H1079 C1088 0.950 . S
H1080 C1090 0.950 . S
H1081 C1092 0.950 . S
H1082 C1094 0.950 . S
H1083 C1095 0.950 . S
C1084 H1076 0.950 . S
C1084 C1085 1.386 . S
C1084 C1086 1.391 . S
C1085 C1084 1.386 . S
C1085 C1089 1.393 . S
C1086 H1078 0.950 . S
C1086 C1084 1.391 . S
C1086 C1087 1.400 . S
C1087 C1086 1.400 . S
C1087 C1088 1.398 . S
C1087 C1093 1.491 . S
C1088 H1079 0.950 . S
C1088 C1087 1.398 . S
C1088 C1089 1.391 . S
C1089 H1077 0.950 . S
C1089 C1085 1.393 . S
C1089 C1088 1.391 . S
C1090 H1080 0.950 . S
C1090 C1091 1.386 . S
C1090 C1092 1.391 . S
C1091 C1090 1.386 . S
C1091 C1095 1.393 . S
C1092 H1081 0.950 . S
C1092 C1090 1.391 . S
C1092 C1093 1.400 . S
C1093 C1087 1.491 . S
C1093 C1092 1.400 . S
C1093 C1094 1.398 . S
C1094 H1082 0.950 . S
C1094 C1093 1.398 . S
C1094 C1095 1.391 . S
C1095 H1083 0.950 . S
C1095 C1091 1.393 . S
C1095 C1094 1.391 . S
H1096 C1104 0.950 . S
H1097 C1109 0.950 . S
H1098 C1106 0.950 . S
H1099 C1108 0.950 . S
H1100 C1110 0.950 . S
H1101 C1112 0.950 . S
H1102 C1114 0.950 . S
H1103 C1115 0.950 . S
C1104 H1096 0.950 . S
C1104 C1105 1.386 . S
C1104 C1106 1.391 . S
C1105 C1104 1.386 . S
C1105 C1109 1.393 . S
C1106 H1098 0.950 . S
C1106 C1104 1.391 . S
C1106 C1107 1.400 . S
C1107 C1106 1.400 . S
C1107 C1108 1.398 . S
C1107 C1113 1.491 . S
C1108 H1099 0.950 . S
C1108 C1107 1.398 . S
C1108 C1109 1.391 . S
C1109 H1097 0.950 . S
C1109 C1105 1.393 . S
C1109 C1108 1.391 . S
C1110 H1100 0.950 . S
C1110 C1111 1.386 . S
C1110 C1112 1.391 . S
C1111 C1110 1.386 . S
C1111 C1115 1.393 . S
C1112 H1101 0.950 . S
C1112 C1110 1.391 . S
C1112 C1113 1.400 . S
C1113 C1107 1.491 . S
C1113 C1112 1.400 . S
C1113 C1114 1.398 . S
C1114 H1102 0.950 . S
C1114 C1113 1.398 . S
C1114 C1115 1.391 . S
C1115 H1103 0.950 . S
C1115 C1111 1.393 . S
C1115 C1114 1.391 . S
H1116 C1124 0.950 . S
H1117 C1129 0.950 . S
H1118 C1126 0.950 . S
H1119 C1128 0.950 . S
H1120 C1130 0.950 . S
H1121 C1132 0.950 . S
H1122 C1134 0.950 . S
H1123 C1135 0.950 . S
C1124 H1116 0.950 . S
C1124 C1125 1.386 . S
C1124 C1126 1.391 . S
C1125 C1124 1.386 . S
C1125 C1129 1.393 . S
C1126 H1118 0.950 . S
C1126 C1124 1.391 . S
C1126 C1127 1.400 . S
C1127 C1126 1.400 . S
C1127 C1128 1.398 . S
C1127 C1133 1.491 . S
C1128 H1119 0.950 . S
C1128 C1127 1.398 . S
C1128 C1129 1.391 . S
C1129 H1117 0.950 . S
C1129 C1125 1.393 . S
C1129 C1128 1.391 . S
C1130 H1120 0.950 . S
C1130 C1131 1.386 . S
C1130 C1132 1.391 . S
C1131 C1130 1.386 . S
C1131 C1135 1.393 . S
C1132 H1121 0.950 . S
C1132 C1130 1.391 . S
C1132 C1133 1.400 . S
C1133 C1127 1.491 . S
C1133 C1132 1.400 . S
C1133 C1134 1.398 . S
C1134 H1122 0.950 . S
C1134 C1133 1.398 . S
C1134 C1135 1.391 . S
C1135 H1123 0.950 . S
C1135 C1131 1.393 . S
C1135 C1134 1.391 . S
H1136 C1144 0.950 . S
H1137 C1149 0.950 . S
H1138 C1146 0.950 1_655 S
H1139 C1148 0.950 . S
H1140 C1150 0.950 . S
H1141 C1152 0.950 . S
H1142 C1154 0.950 1_655 S
H1143 C1155 0.950 . S
C1144 H1136 0.950 . S
C1144 C1145 1.386 . S
C1144 C1146 1.391 . S
C1145 C1144 1.386 . S
C1145 C1149 1.393 . S
C1146 H1138 0.950 1_455 S
C1146 C1144 1.391 . S
C1146 C1147 1.400 . S
C1147 C1146 1.400 . S
C1147 C1148 1.398 . S
C1147 C1153 1.491 . S
C1148 H1139 0.950 . S
C1148 C1147 1.398 . S
C1148 C1149 1.391 . S
C1149 H1137 0.950 . S
C1149 C1145 1.393 . S
C1149 C1148 1.391 . S
C1150 H1140 0.950 . S
C1150 C1151 1.386 . S
C1150 C1152 1.391 . S
C1151 C1150 1.386 . S
C1151 C1155 1.393 1_455 S
C1152 H1141 0.950 . S
C1152 C1150 1.391 . S
C1152 C1153 1.400 . S
C1153 C1147 1.491 . S
C1153 C1152 1.400 . S
C1153 C1154 1.398 . S
C1154 H1142 0.950 1_455 S
C1154 C1153 1.398 . S
C1154 C1155 1.391 1_455 S
C1155 H1143 0.950 . S
C1155 C1151 1.393 1_655 S
C1155 C1154 1.391 1_655 S
H1156 C1164 0.950 . S
H1157 C1169 0.950 . S
H1158 C1166 0.950 . S
H1159 C1168 0.950 . S
H1160 C1170 0.950 . S
H1161 C1172 0.950 . S
H1162 C1174 0.950 . S
H1163 C1175 0.950 . S
C1164 H1156 0.950 . S
C1164 C1165 1.386 . S
C1164 C1166 1.391 . S
C1165 C1164 1.386 . S
C1165 C1169 1.393 . S
C1166 H1158 0.950 . S
C1166 C1164 1.391 . S
C1166 C1167 1.400 . S
C1167 C1166 1.400 . S
C1167 C1168 1.398 . S
C1167 C1173 1.491 . S
C1168 H1159 0.950 . S
C1168 C1167 1.398 . S
C1168 C1169 1.391 . S
C1169 H1157 0.950 . S
C1169 C1165 1.393 . S
C1169 C1168 1.391 . S
C1170 H1160 0.950 . S
C1170 C1171 1.386 . S
C1170 C1172 1.391 . S
C1171 C1170 1.386 . S
C1171 C1175 1.393 . S
C1172 H1161 0.950 . S
C1172 C1170 1.391 . S
C1172 C1173 1.400 . S
C1173 C1167 1.491 . S
C1173 C1172 1.400 . S
C1173 C1174 1.398 . S
C1174 H1162 0.950 . S
C1174 C1173 1.398 . S
C1174 C1175 1.391 . S
C1175 H1163 0.950 . S
C1175 C1171 1.393 . S
C1175 C1174 1.391 . S
H1176 C1184 0.950 . S
H1177 C1189 0.950 . S
H1178 C1186 0.950 . S
H1179 C1188 0.950 . S
H1180 C1190 0.950 . S
H1181 C1192 0.950 . S
H1182 C1194 0.950 . S
H1183 C1195 0.950 . S
C1184 H1176 0.950 . S
C1184 C1185 1.386 . S
C1184 C1186 1.391 . S
C1185 C1184 1.386 . S
C1185 C1189 1.393 . S
C1186 H1178 0.950 . S
C1186 C1184 1.391 . S
C1186 C1187 1.400 . S
C1187 C1186 1.400 . S
C1187 C1188 1.398 . S
C1187 C1193 1.491 . S
C1188 H1179 0.950 . S
C1188 C1187 1.398 . S
C1188 C1189 1.391 . S
C1189 H1177 0.950 . S
C1189 C1185 1.393 . S
C1189 C1188 1.391 . S
C1190 H1180 0.950 . S
C1190 C1191 1.386 . S
C1190 C1192 1.391 . S
C1191 C1190 1.386 . S
C1191 C1195 1.393 . S
C1192 H1181 0.950 . S
C1192 C1190 1.391 . S
C1192 C1193 1.400 . S
C1193 C1187 1.491 . S
C1193 C1192 1.400 . S
C1193 C1194 1.398 . S
C1194 H1182 0.950 . S
C1194 C1193 1.398 . S
C1194 C1195 1.391 . S
C1195 H1183 0.950 . S
C1195 C1191 1.393 . S
C1195 C1194 1.391 . S
H1196 C1204 0.950 . S
H1197 C1209 0.950 . S
H1198 C1206 0.950 . S
H1199 C1208 0.950 . S
H1200 C1210 0.950 . S
H1201 C1212 0.950 . S
H1202 C1214 0.950 . S
H1203 C1215 0.950 . S
C1204 H1196 0.950 . S
C1204 C1205 1.386 . S
C1204 C1206 1.391 . S
C1205 C1204 1.386 . S
C1205 C1209 1.393 . S
C1206 H1198 0.950 . S
C1206 C1204 1.391 . S
C1206 C1207 1.400 . S
C1207 C1206 1.400 . S
C1207 C1208 1.398 . S
C1207 C1213 1.491 . S
C1208 H1199 0.950 . S
C1208 C1207 1.398 . S
C1208 C1209 1.391 . S
C1209 H1197 0.950 . S
C1209 C1205 1.393 . S
C1209 C1208 1.391 . S
C1210 H1200 0.950 . S
C1210 C1211 1.386 . S
C1210 C1212 1.391 . S
C1211 C1210 1.386 . S
C1211 C1215 1.393 . S
C1212 H1201 0.950 . S
C1212 C1210 1.391 . S
C1212 C1213 1.400 . S
C1213 C1207 1.491 . S
C1213 C1212 1.400 . S
C1213 C1214 1.398 . S
C1214 H1202 0.950 . S
C1214 C1213 1.398 . S
C1214 C1215 1.391 . S
C1215 H1203 0.950 . S
C1215 C1211 1.393 . S
C1215 C1214 1.391 . S
H1216 C1224 0.950 . S
H1217 C1229 0.950 . S
H1218 C1226 0.950 . S
H1219 C1228 0.950 . S
H1220 C1230 0.950 . S
H1221 C1232 0.950 . S
H1222 C1234 0.950 . S
H1223 C1235 0.950 . S
C1224 H1216 0.950 . S
C1224 C1225 1.386 . S
C1224 C1226 1.391 . S
C1225 C1224 1.386 . S
C1225 C1229 1.393 1_455 S
C1226 H1218 0.950 . S
C1226 C1224 1.391 . S
C1226 C1227 1.400 . S
C1227 C1226 1.400 . S
C1227 C1228 1.398 1_455 S
C1227 C1233 1.491 . S
C1228 H1219 0.950 . S
C1228 C1227 1.398 1_655 S
C1228 C1229 1.391 . S
C1229 H1217 0.950 . S
C1229 C1225 1.393 1_655 S
C1229 C1228 1.391 . S
C1230 H1220 0.950 . S
C1230 C1231 1.386 . S
C1230 C1232 1.391 . S
C1231 C1230 1.386 . S
C1231 C1235 1.393 1_655 S
C1232 H1221 0.950 . S
C1232 C1230 1.391 . S
C1232 C1233 1.400 1_655 S
C1233 C1227 1.491 . S
C1233 C1232 1.400 1_455 S
C1233 C1234 1.398 . S
C1234 H1222 0.950 . S
C1234 C1233 1.398 . S
C1234 C1235 1.391 . S
C1235 H1223 0.950 . S
C1235 C1231 1.393 1_455 S
C1235 C1234 1.391 . S
H1236 C1244 0.950 . S
H1237 C1249 0.950 . S
H1238 C1246 0.950 . S
H1239 C1248 0.950 . S
H1240 C1250 0.950 . S
H1241 C1252 0.950 . S
H1242 C1254 0.950 . S
H1243 C1255 0.950 . S
C1244 H1236 0.950 . S
C1244 C1245 1.386 . S
C1244 C1246 1.391 . S
C1245 C1244 1.386 . S
C1245 C1249 1.393 . S
C1246 H1238 0.950 . S
C1246 C1244 1.391 . S
C1246 C1247 1.400 . S
C1247 C1246 1.400 . S
C1247 C1248 1.398 . S
C1247 C1253 1.491 . S
C1248 H1239 0.950 . S
C1248 C1247 1.398 . S
C1248 C1249 1.391 . S
C1249 H1237 0.950 . S
C1249 C1245 1.393 . S
C1249 C1248 1.391 . S
C1250 H1240 0.950 . S
C1250 C1251 1.386 . S
C1250 C1252 1.391 . S
C1251 C1250 1.386 . S
C1251 C1255 1.393 . S
C1252 H1241 0.950 . S
C1252 C1250 1.391 . S
C1252 C1253 1.400 . S
C1253 C1247 1.491 . S
C1253 C1252 1.400 . S
C1253 C1254 1.398 . S
C1254 H1242 0.950 . S
C1254 C1253 1.398 . S
C1254 C1255 1.391 . S
C1255 H1243 0.950 . S
C1255 C1251 1.393 . S
C1255 C1254 1.391 . S
H1256 C1264 0.950 . S
H1257 C1269 0.950 . S
H1258 C1266 0.950 . S
H1259 C1268 0.950 . S
H1260 C1270 0.950 1_554 S
H1261 C1272 0.950 . S
H1262 C1274 0.950 . S
H1263 C1275 0.950 . S
C1264 H1256 0.950 . S
C1264 C1265 1.386 . S
C1264 C1266 1.391 . S
C1265 C1264 1.386 . S
C1265 C1269 1.393 . S
C1266 H1258 0.950 . S
C1266 C1264 1.391 . S
C1266 C1267 1.400 . S
C1267 C1266 1.400 . S
C1267 C1268 1.398 . S
C1267 C1273 1.491 . S
C1268 H1259 0.950 . S
C1268 C1267 1.398 . S
C1268 C1269 1.391 . S
C1269 H1257 0.950 . S
C1269 C1265 1.393 . S
C1269 C1268 1.391 . S
C1270 H1260 0.950 1_556 S
C1270 C1271 1.386 . S
C1270 C1272 1.391 . S
C1271 C1270 1.386 . S
C1271 C1275 1.393 . S
C1272 H1261 0.950 . S
C1272 C1270 1.391 . S
C1272 C1273 1.400 . S
C1273 C1267 1.491 . S
C1273 C1272 1.400 . S
C1273 C1274 1.398 . S
C1274 H1262 0.950 . S
C1274 C1273 1.398 . S
C1274 C1275 1.391 . S
C1275 H1263 0.950 . S
C1275 C1271 1.393 . S
C1275 C1274 1.391 . S
H1276 C1284 0.950 . S
H1277 C1289 0.950 . S
H1278 C1286 0.950 . S
H1279 C1288 0.950 . S
H1280 C1290 0.950 . S
H1281 C1292 0.950 . S
H1282 C1294 0.950 . S
H1283 C1295 0.950 . S
C1284 H1276 0.950 . S
C1284 C1285 1.386 . S
C1284 C1286 1.391 . S
C1285 C1284 1.386 . S
C1285 C1289 1.393 . S
C1286 H1278 0.950 . S
C1286 C1284 1.391 . S
C1286 C1287 1.400 . S
C1287 C1286 1.400 . S
C1287 C1288 1.398 . S
C1287 C1293 1.491 . S
C1288 H1279 0.950 . S
C1288 C1287 1.398 . S
C1288 C1289 1.391 . S
C1289 H1277 0.950 . S
C1289 C1285 1.393 . S
C1289 C1288 1.391 . S
C1290 H1280 0.950 . S
C1290 C1291 1.386 . S
C1290 C1292 1.391 . S
C1291 C1290 1.386 . S
C1291 C1295 1.393 . S
C1292 H1281 0.950 . S
C1292 C1290 1.391 . S
C1292 C1293 1.400 . S
C1293 C1287 1.491 . S
C1293 C1292 1.400 . S
C1293 C1294 1.398 . S
C1294 H1282 0.950 . S
C1294 C1293 1.398 . S
C1294 C1295 1.391 . S
C1295 H1283 0.950 . S
C1295 C1291 1.393 . S
C1295 C1294 1.391 . S
H1296 C1304 0.950 . S
H1297 C1309 0.949 . S
H1298 C1306 0.950 . S
H1299 C1308 0.950 . S
H1300 C1310 0.950 1_565 S
H1301 C1312 0.950 1_565 S
H1302 C1314 0.950 . S
H1303 C1315 0.950 . S
C1304 H1296 0.950 . S
C1304 C1305 1.386 . S
C1304 C1306 1.391 . S
C1305 C1304 1.386 . S
C1305 C1309 1.393 . S
C1306 H1298 0.950 . S
C1306 C1304 1.391 . S
C1306 C1307 1.400 . S
C1307 C1306 1.400 . S
C1307 C1308 1.398 . S
C1307 C1313 1.491 . S
C1308 H1299 0.950 . S
C1308 C1307 1.398 . S
C1308 C1309 1.391 . S
C1309 H1297 0.949 . S
C1309 C1305 1.393 . S
C1309 C1308 1.391 . S
C1310 H1300 0.950 1_545 S
C1310 C1311 1.386 . S
C1310 C1312 1.391 . S
C1311 C1310 1.386 . S
C1311 C1315 1.393 . S
C1312 H1301 0.950 1_545 S
C1312 C1310 1.391 . S
C1312 C1313 1.400 . S
C1313 C1307 1.491 . S
C1313 C1312 1.400 . S
C1313 C1314 1.398 . S
C1314 H1302 0.950 . S
C1314 C1313 1.398 . S
C1314 C1315 1.391 . S
C1315 H1303 0.950 . S
C1315 C1311 1.393 . S
C1315 C1314 1.391 . S
H1316 C1324 0.950 . S
H1317 C1329 0.950 . S
H1318 C1326 0.950 . S
H1319 C1328 0.950 . S
H1320 C1330 0.950 . S
H1321 C1332 0.950 . S
H1322 C1334 0.950 . S
H1323 C1335 0.950 . S
C1324 H1316 0.950 . S
C1324 C1325 1.386 . S
C1324 C1326 1.391 . S
C1325 C1324 1.386 . S
C1325 C1329 1.393 . S
C1326 H1318 0.950 . S
C1326 C1324 1.391 . S
C1326 C1327 1.400 . S
C1327 C1326 1.400 . S
C1327 C1328 1.398 . S
C1327 C1333 1.491 . S
C1328 H1319 0.950 . S
C1328 C1327 1.398 . S
C1328 C1329 1.391 . S
C1329 H1317 0.950 . S
C1329 C1325 1.393 . S
C1329 C1328 1.391 . S
C1330 H1320 0.950 . S
C1330 C1331 1.386 . S
C1330 C1332 1.391 . S
C1331 C1330 1.386 . S
C1331 C1335 1.393 . S
C1332 H1321 0.950 . S
C1332 C1330 1.391 . S
C1332 C1333 1.400 . S
C1333 C1327 1.491 . S
C1333 C1332 1.400 . S
C1333 C1334 1.398 . S
C1334 H1322 0.950 . S
C1334 C1333 1.398 . S
C1334 C1335 1.391 . S
C1335 H1323 0.950 . S
C1335 C1331 1.393 . S
C1335 C1334 1.391 . S
H1336 C1344 0.950 . S
H1337 C1349 0.950 1_565 S
H1338 C1346 0.950 . S
H1339 C1348 0.950 1_565 S
H1340 C1350 0.950 1_565 S
H1341 C1352 0.950 1_565 S
H1342 C1354 0.950 . S
H1343 C1355 0.950 . S
C1344 H1336 0.950 . S
C1344 C1345 1.386 . S
C1344 C1346 1.391 . S
C1345 C1344 1.386 . S
C1345 C1349 1.393 . S
C1346 H1338 0.950 . S
C1346 C1344 1.391 . S
C1346 C1347 1.400 . S
C1347 C1346 1.400 . S
C1347 C1348 1.398 . S
C1347 C1353 1.491 . S
C1348 H1339 0.950 1_545 S
C1348 C1347 1.398 . S
C1348 C1349 1.391 . S
C1349 H1337 0.950 1_545 S
C1349 C1345 1.393 . S
C1349 C1348 1.391 . S
C1350 H1340 0.950 1_545 S
C1350 C1351 1.386 . S
C1350 C1352 1.391 . S
C1351 C1350 1.386 . S
C1351 C1355 1.393 . S
C1352 H1341 0.950 1_545 S
C1352 C1350 1.391 . S
C1352 C1353 1.400 . S
C1353 C1347 1.491 . S
C1353 C1352 1.400 . S
C1353 C1354 1.398 . S
C1354 H1342 0.950 . S
C1354 C1353 1.398 . S
C1354 C1355 1.391 . S
C1355 H1343 0.950 . S
C1355 C1351 1.393 . S
C1355 C1354 1.391 . S
H1356 C1364 0.950 . S
H1357 C1369 0.950 . S
H1358 C1366 0.950 . S
H1359 C1368 0.950 . S
H1360 C1370 0.950 . S
H1361 C1372 0.950 . S
H1362 C1374 0.950 . S
H1363 C1375 0.950 . S
C1364 H1356 0.950 . S
C1364 C1365 1.386 . S
C1364 C1366 1.391 . S
C1365 C1364 1.386 . S
C1365 C1369 1.393 . S
C1366 H1358 0.950 . S
C1366 C1364 1.391 . S
C1366 C1367 1.400 . S
C1367 C1366 1.400 . S
C1367 C1368 1.398 . S
C1367 C1373 1.491 . S
C1368 H1359 0.950 . S
C1368 C1367 1.398 . S
C1368 C1369 1.391 . S
C1369 H1357 0.950 . S
C1369 C1365 1.393 . S
C1369 C1368 1.391 . S
C1370 H1360 0.950 . S
C1370 C1371 1.386 . S
C1370 C1372 1.391 . S
C1371 C1370 1.386 . S
C1371 C1375 1.393 . S
C1372 H1361 0.950 . S
C1372 C1370 1.391 . S
C1372 C1373 1.400 . S
C1373 C1367 1.491 . S
C1373 C1372 1.400 . S
C1373 C1374 1.398 . S
C1374 H1362 0.950 . S
C1374 C1373 1.398 . S
C1374 C1375 1.391 . S
C1375 H1363 0.950 . S
C1375 C1371 1.393 . S
C1375 C1374 1.391 . S
H1376 C1384 0.957 . S
H1377 C1389 0.950 . S
H1378 C1386 0.950 . S
H1379 C1388 0.948 . S
H1380 C1390 0.950 . S
H1381 C1392 0.950 . S
H1382 C1394 0.950 . S
H1383 C1395 0.950 . S
C1384 H1376 0.957 . S
C1384 C1385 1.386 1_545 S
C1384 C1386 1.391 . S
C1385 C1384 1.386 1_565 S
C1385 C1389 1.393 . S
C1386 H1378 0.950 . S
C1386 C1384 1.391 . S
C1386 C1387 1.400 . S
C1387 C1386 1.400 . S
C1387 C1388 1.398 . S
C1387 C1393 1.491 . S
C1388 H1379 0.948 . S
C1388 C1387 1.398 . S
C1388 C1389 1.391 1_545 S
C1389 H1377 0.950 . S
C1389 C1385 1.393 . S
C1389 C1388 1.391 1_565 S
C1390 H1380 0.950 . S
C1390 C1391 1.386 . S
C1390 C1392 1.391 . S
C1391 C1390 1.386 . S
C1391 C1395 1.393 . S
C1392 H1381 0.950 . S
C1392 C1390 1.391 . S
C1392 C1393 1.400 . S
C1393 C1387 1.491 . S
C1393 C1392 1.400 . S
C1393 C1394 1.398 . S
C1394 H1382 0.950 . S
C1394 C1393 1.398 . S
C1394 C1395 1.391 . S
C1395 H1383 0.950 . S
C1395 C1391 1.393 . S
C1395 C1394 1.391 . S
H1396 C1404 0.950 . S
H1397 C1409 0.950 . S
H1398 C1406 0.950 . S
H1399 C1408 0.950 . S
H1400 C1410 0.950 . S
H1401 C1412 0.950 . S
H1402 C1414 0.950 . S
H1403 C1415 0.950 . S
C1404 H1396 0.950 . S
C1404 C1405 1.386 . S
C1404 C1406 1.391 . S
C1405 C1404 1.386 . S
C1405 C1409 1.393 . S
C1406 H1398 0.950 . S
C1406 C1404 1.391 . S
C1406 C1407 1.400 . S
C1407 C1406 1.400 . S
C1407 C1408 1.398 . S
C1407 C1413 1.491 . S
C1408 H1399 0.950 . S
C1408 C1407 1.398 . S
C1408 C1409 1.391 . S
C1409 H1397 0.950 . S
C1409 C1405 1.393 . S
C1409 C1408 1.391 . S
C1410 H1400 0.950 . S
C1410 C1411 1.386 . S
C1410 C1412 1.391 . S
C1411 C1410 1.386 . S
C1411 C1415 1.393 . S
C1412 H1401 0.950 . S
C1412 C1410 1.391 . S
C1412 C1413 1.400 . S
C1413 C1407 1.491 . S
C1413 C1412 1.400 . S
C1413 C1414 1.398 . S
C1414 H1402 0.950 . S
C1414 C1413 1.398 . S
C1414 C1415 1.391 . S
C1415 H1403 0.950 . S
C1415 C1411 1.393 . S
C1415 C1414 1.391 . S
H1416 C1424 0.950 . S
H1417 C1429 0.950 . S
H1418 C1426 0.950 . S
H1419 C1428 0.950 . S
H1420 C1430 0.948 . S
H1421 C1432 0.950 . S
H1422 C1434 0.950 . S
H1423 C1435 0.950 . S
C1424 H1416 0.950 . S
C1424 C1425 1.386 . S
C1424 C1426 1.391 . S
C1425 C1424 1.386 . S
C1425 C1429 1.393 . S
C1426 H1418 0.950 . S
C1426 C1424 1.391 . S
C1426 C1427 1.400 . S
C1427 C1426 1.400 . S
C1427 C1428 1.398 . S
C1427 C1433 1.491 . S
C1428 H1419 0.950 . S
C1428 C1427 1.398 . S
C1428 C1429 1.391 . S
C1429 H1417 0.950 . S
C1429 C1425 1.393 . S
C1429 C1428 1.391 . S
C1430 H1420 0.948 . S
C1430 C1431 1.394 1_565 S
C1430 C1432 1.389 1_565 S
C1431 C1430 1.394 1_545 S
C1431 C1435 1.392 . S
C1432 H1421 0.950 . S
C1432 C1430 1.389 1_545 S
C1432 C1433 1.400 . S
C1433 C1427 1.491 . S
C1433 C1432 1.400 . S
C1433 C1434 1.398 . S
C1434 H1422 0.950 . S
C1434 C1433 1.398 . S
C1434 C1435 1.391 . S
C1435 H1423 0.950 . S
C1435 C1431 1.392 . S
C1435 C1434 1.391 . S
H1436 C1444 0.950 . S
H1437 C1449 0.950 . S
H1438 C1446 0.950 . S
H1439 C1448 0.950 . S
H1440 C1450 0.950 . S
H1441 C1452 0.950 . S
H1442 C1454 0.950 . S
H1443 C1455 0.950 . S
C1444 H1436 0.950 . S
C1444 C1445 1.386 . S
C1444 C1446 1.391 . S
C1445 C1444 1.386 . S
C1445 C1449 1.393 . S
C1446 H1438 0.950 . S
C1446 C1444 1.391 . S
C1446 C1447 1.400 . S
C1447 C1446 1.400 . S
C1447 C1448 1.398 . S
C1447 C1453 1.491 . S
C1448 H1439 0.950 . S
C1448 C1447 1.398 . S
C1448 C1449 1.391 . S
C1449 H1437 0.950 . S
C1449 C1445 1.393 . S
C1449 C1448 1.391 . S
C1450 H1440 0.950 . S
C1450 C1451 1.386 . S
C1450 C1452 1.391 . S
C1451 C1450 1.386 . S
C1451 C1455 1.393 . S
C1452 H1441 0.950 . S
C1452 C1450 1.391 . S
C1452 C1453 1.400 . S
C1453 C1447 1.491 . S
C1453 C1452 1.400 . S
C1453 C1454 1.398 . S
C1454 H1442 0.950 . S
C1454 C1453 1.398 . S
C1454 C1455 1.391 . S
C1455 H1443 0.950 . S
C1455 C1451 1.393 . S
C1455 C1454 1.391 . S
H1456 C1464 0.950 . S
H1457 C1469 0.950 . S
H1458 C1466 0.950 . S
H1459 C1468 0.950 . S
H1460 C1470 0.950 . S
H1461 C1472 0.950 . S
H1462 C1474 0.950 . S
H1463 C1475 0.950 . S
C1464 H1456 0.950 . S
C1464 C1465 1.386 1_554 S
C1464 C1466 1.391 . S
C1465 C1464 1.386 1_556 S
C1465 C1469 1.393 . S
C1466 H1458 0.950 . S
C1466 C1464 1.391 . S
C1466 C1467 1.400 1_554 S
C1467 C1466 1.400 1_556 S
C1467 C1468 1.398 . S
C1467 C1473 1.491 . S
C1468 H1459 0.950 . S
C1468 C1467 1.398 . S
C1468 C1469 1.391 . S
C1469 H1457 0.950 . S
C1469 C1465 1.393 . S
C1469 C1468 1.391 . S
C1470 H1460 0.950 . S
C1470 C1471 1.386 . S
C1470 C1472 1.391 . S
C1471 C1470 1.386 . S
C1471 C1475 1.393 1_556 S
C1472 H1461 0.950 . S
C1472 C1470 1.391 . S
C1472 C1473 1.400 . S
C1473 C1467 1.491 . S
C1473 C1472 1.400 . S
C1473 C1474 1.398 1_556 S
C1474 H1462 0.950 . S
C1474 C1473 1.398 1_554 S
C1474 C1475 1.391 . S
C1475 H1463 0.950 . S
C1475 C1471 1.393 1_554 S
C1475 C1474 1.391 . S
H1476 C1484 0.950 . S
H1477 C1489 0.950 . S
H1478 C1486 0.950 . S
H1479 C1488 0.950 . S
H1480 C1490 0.950 . S
H1481 C1492 0.950 . S
H1482 C1494 0.950 . S
H1483 C1495 0.950 . S
C1484 H1476 0.950 . S
C1484 C1485 1.386 . S
C1484 C1486 1.391 . S
C1485 C1484 1.386 . S
C1485 C1489 1.393 1_554 S
C1486 H1478 0.950 . S
C1486 C1484 1.391 . S
C1486 C1487 1.400 . S
C1487 C1486 1.400 . S
C1487 C1488 1.398 1_554 S
C1487 C1493 1.491 . S
C1488 H1479 0.950 . S
C1488 C1487 1.398 1_556 S
C1488 C1489 1.391 . S
C1489 H1477 0.950 . S
C1489 C1485 1.393 1_556 S
C1489 C1488 1.391 . S
C1490 H1480 0.950 . S
C1490 C1491 1.386 1_556 S
C1490 C1492 1.391 . S
C1491 C1490 1.386 1_554 S
C1491 C1495 1.393 . S
C1492 H1481 0.950 . S
C1492 C1490 1.391 . S
C1492 C1493 1.400 1_556 S
C1493 C1487 1.491 . S
C1493 C1492 1.400 1_554 S
C1493 C1494 1.398 . S
C1494 H1482 0.950 . S
C1494 C1493 1.398 . S
C1494 C1495 1.391 . S
C1495 H1483 0.950 . S
C1495 C1491 1.393 . S
C1495 C1494 1.391 . S
H1496 C1504 0.950 . S
H1497 C1509 0.950 . S
H1498 C1506 0.950 . S
H1499 C1508 0.950 . S
H1500 C1510 0.950 . S
H1501 C1512 0.950 . S
H1502 C1514 0.950 . S
H1503 C1515 0.950 . S
C1504 H1496 0.950 . S
C1504 C1505 1.386 . S
C1504 C1506 1.391 . S
C1505 C1504 1.386 . S
C1505 C1509 1.393 . S
C1506 H1498 0.950 . S
C1506 C1504 1.391 . S
C1506 C1507 1.400 . S
C1507 C1506 1.400 . S
C1507 C1508 1.398 . S
C1507 C1513 1.491 . S
C1508 H1499 0.950 . S
C1508 C1507 1.398 . S
C1508 C1509 1.391 . S
C1509 H1497 0.950 . S
C1509 C1505 1.393 . S
C1509 C1508 1.391 . S
C1510 H1500 0.950 . S
C1510 C1511 1.386 . S
C1510 C1512 1.391 . S
C1511 C1510 1.386 . S
C1511 C1515 1.393 . S
C1512 H1501 0.950 . S
C1512 C1510 1.391 . S
C1512 C1513 1.400 . S
C1513 C1507 1.491 . S
C1513 C1512 1.400 . S
C1513 C1514 1.398 . S
C1514 H1502 0.950 . S
C1514 C1513 1.398 . S
C1514 C1515 1.391 . S
C1515 H1503 0.950 . S
C1515 C1511 1.393 . S
C1515 C1514 1.391 . S
H1516 C1524 0.950 . S
H1517 C1529 0.950 . S
H1518 C1526 0.950 . S
H1519 C1528 0.950 . S
H1520 C1530 0.950 . S
H1521 C1532 0.950 . S
H1522 C1534 0.950 . S
H1523 C1535 0.950 . S
C1524 H1516 0.950 . S
C1524 C1525 1.386 . S
C1524 C1526 1.391 . S
C1525 C1524 1.386 . S
C1525 C1529 1.393 . S
C1526 H1518 0.950 . S
C1526 C1524 1.391 . S
C1526 C1527 1.400 . S
C1527 C1526 1.400 . S
C1527 C1528 1.398 . S
C1527 C1533 1.491 . S
C1528 H1519 0.950 . S
C1528 C1527 1.398 . S
C1528 C1529 1.391 . S
C1529 H1517 0.950 . S
C1529 C1525 1.393 . S
C1529 C1528 1.391 . S
C1530 H1520 0.950 . S
C1530 C1531 1.386 . S
C1530 C1532 1.391 . S
C1531 C1530 1.386 . S
C1531 C1535 1.393 . S
C1532 H1521 0.950 . S
C1532 C1530 1.391 . S
C1532 C1533 1.400 . S
C1533 C1527 1.491 . S
C1533 C1532 1.400 . S
C1533 C1534 1.398 . S
C1534 H1522 0.950 . S
C1534 C1533 1.398 . S
C1534 C1535 1.391 . S
C1535 H1523 0.950 . S
C1535 C1531 1.393 . S
C1535 C1534 1.391 . S
H1536 C1544 0.950 . S
H1537 C1549 0.950 . S
H1538 C1546 0.950 . S
H1539 C1548 0.950 . S
H1540 C1550 0.950 . S
H1541 C1552 0.950 . S
H1542 C1554 0.950 . S
H1543 C1555 0.950 . S
C1544 H1536 0.950 . S
C1544 C1545 1.386 . S
C1544 C1546 1.391 . S
C1545 C1544 1.386 . S
C1545 C1549 1.393 . S
C1546 H1538 0.950 . S
C1546 C1544 1.391 . S
C1546 C1547 1.400 . S
C1547 C1546 1.400 . S
C1547 C1548 1.398 . S
C1547 C1553 1.491 . S
C1548 H1539 0.950 . S
C1548 C1547 1.398 . S
C1548 C1549 1.391 . S
C1549 H1537 0.950 . S
C1549 C1545 1.393 . S
C1549 C1548 1.391 . S
C1550 H1540 0.950 . S
C1550 C1551 1.386 . S
C1550 C1552 1.391 . S
C1551 C1550 1.386 . S
C1551 C1555 1.393 . S
C1552 H1541 0.950 . S
C1552 C1550 1.391 . S
C1552 C1553 1.400 . S
C1553 C1547 1.491 . S
C1553 C1552 1.400 . S
C1553 C1554 1.398 . S
C1554 H1542 0.950 . S
C1554 C1553 1.398 . S
C1554 C1555 1.391 . S
C1555 H1543 0.950 . S
C1555 C1551 1.393 . S
C1555 C1554 1.391 . S
H1556 C1564 0.950 . S
H1557 C1569 0.950 . S
H1558 C1566 0.950 . S
H1559 C1568 0.950 . S
H1560 C1570 0.950 . S
H1561 C1572 0.950 . S
H1562 C1574 0.950 . S
H1563 C1575 0.950 . S
C1564 H1556 0.950 . S
C1564 C1565 1.386 . S
C1564 C1566 1.391 . S
C1565 C1564 1.386 . S
C1565 C1569 1.393 . S
C1566 H1558 0.950 . S
C1566 C1564 1.391 . S
C1566 C1567 1.400 . S
C1567 C1566 1.400 . S
C1567 C1568 1.398 . S
C1567 C1573 1.491 . S
C1568 H1559 0.950 . S
C1568 C1567 1.398 . S
C1568 C1569 1.391 . S
C1569 H1557 0.950 . S
C1569 C1565 1.393 . S
C1569 C1568 1.391 . S
C1570 H1560 0.950 . S
C1570 C1571 1.386 . S
C1570 C1572 1.391 . S
C1571 C1570 1.386 . S
C1571 C1575 1.393 . S
C1572 H1561 0.950 . S
C1572 C1570 1.391 . S
C1572 C1573 1.400 . S
C1573 C1567 1.491 . S
C1573 C1572 1.400 . S
C1573 C1574 1.398 . S
C1574 H1562 0.950 . S
C1574 C1573 1.398 . S
C1574 C1575 1.391 . S
C1575 H1563 0.950 . S
C1575 C1571 1.393 . S
C1575 C1574 1.391 . S
H1576 C1584 0.950 . S
H1577 C1589 0.950 . S
H1578 C1586 0.950 . S
H1579 C1588 0.950 . S
H1580 C1590 0.950 . S
H1581 C1592 0.950 . S
H1582 C1594 0.950 . S
H1583 C1595 0.950 . S
C1584 H1576 0.950 . S
C1584 C1585 1.386 . S
C1584 C1586 1.391 . S
C1585 C1584 1.386 . S
C1585 C1589 1.393 . S
C1586 H1578 0.950 . S
C1586 C1584 1.391 . S
C1586 C1587 1.400 . S
C1587 C1586 1.400 . S
C1587 C1588 1.398 . S
C1587 C1593 1.491 . S
C1588 H1579 0.950 . S
C1588 C1587 1.398 . S
C1588 C1589 1.391 . S
C1589 H1577 0.950 . S
C1589 C1585 1.393 . S
C1589 C1588 1.391 . S
C1590 H1580 0.950 . S
C1590 C1591 1.386 . S
C1590 C1592 1.391 . S
C1591 C1590 1.386 . S
C1591 C1595 1.393 . S
C1592 H1581 0.950 . S
C1592 C1590 1.391 . S
C1592 C1593 1.400 . S
C1593 C1587 1.491 . S
C1593 C1592 1.400 . S
C1593 C1594 1.398 . S
C1594 H1582 0.950 . S
C1594 C1593 1.398 . S
C1594 C1595 1.391 . S
C1595 H1583 0.950 . S
C1595 C1591 1.393 . S
C1595 C1594 1.391 . S
H1596 C1604 0.950 . S
H1597 C1609 0.950 . S
H1598 C1606 0.950 . S
H1599 C1608 0.950 . S
H1600 C1610 0.950 . S
H1601 C1612 0.950 . S
H1602 C1614 0.950 . S
H1603 C1615 0.950 . S
C1604 H1596 0.950 . S
C1604 C1605 1.386 . S
C1604 C1606 1.391 . S
C1605 C1604 1.386 . S
C1605 C1609 1.393 . S
C1606 H1598 0.950 . S
C1606 C1604 1.391 . S
C1606 C1607 1.400 . S
C1607 C1606 1.400 . S
C1607 C1608 1.398 . S
C1607 C1613 1.491 . S
C1608 H1599 0.950 . S
C1608 C1607 1.398 . S
C1608 C1609 1.391 . S
C1609 H1597 0.950 . S
C1609 C1605 1.393 . S
C1609 C1608 1.391 . S
C1610 H1600 0.950 . S
C1610 C1611 1.386 . S
C1610 C1612 1.391 . S
C1611 C1610 1.386 . S
C1611 C1615 1.393 . S
C1612 H1601 0.950 . S
C1612 C1610 1.391 . S
C1612 C1613 1.400 . S
C1613 C1607 1.491 . S
C1613 C1612 1.400 . S
C1613 C1614 1.398 . S
C1614 H1602 0.950 . S
C1614 C1613 1.398 . S
C1614 C1615 1.391 . S
C1615 H1603 0.950 . S
C1615 C1611 1.393 . S
C1615 C1614 1.391 . S
H1616 C1624 0.950 . S
H1617 C1629 0.950 . S
H1618 C1626 0.950 . S
H1619 C1628 0.950 . S
H1620 C1630 0.950 . S
H1621 C1632 0.950 . S
H1622 C1634 0.950 . S
H1623 C1635 0.950 . S
C1624 H1616 0.950 . S
C1624 C1625 1.386 . S
C1624 C1626 1.391 . S
C1625 C1624 1.386 . S
C1625 C1629 1.393 . S
C1626 H1618 0.950 . S
C1626 C1624 1.391 . S
C1626 C1627 1.400 . S
C1627 C1626 1.400 . S
C1627 C1628 1.398 . S
C1627 C1633 1.491 . S
C1628 H1619 0.950 . S
C1628 C1627 1.398 . S
C1628 C1629 1.391 . S
C1629 H1617 0.950 . S
C1629 C1625 1.393 . S
C1629 C1628 1.391 . S
C1630 H1620 0.950 . S
C1630 C1631 1.386 . S
C1630 C1632 1.391 . S
C1631 C1630 1.386 . S
C1631 C1635 1.393 . S
C1632 H1621 0.950 . S
C1632 C1630 1.391 . S
C1632 C1633 1.400 . S
C1633 C1627 1.491 . S
C1633 C1632 1.400 . S
C1633 C1634 1.398 . S
C1634 H1622 0.950 . S
C1634 C1633 1.398 . S
C1634 C1635 1.391 . S
C1635 H1623 0.950 . S
C1635 C1631 1.393 . S
C1635 C1634 1.391 . S
H1636 C1644 0.950 . S
H1637 C1649 0.950 . S
H1638 C1646 0.950 . S
H1639 C1648 0.950 . S
H1640 C1650 0.950 . S
H1641 C1652 0.950 . S
H1642 C1654 0.950 . S
H1643 C1655 0.950 . S
C1644 H1636 0.950 . S
C1644 C1645 1.386 . S
C1644 C1646 1.391 . S
C1645 C1644 1.386 . S
C1645 C1649 1.393 . S
C1646 H1638 0.950 . S
C1646 C1644 1.391 . S
C1646 C1647 1.400 . S
C1647 C1646 1.400 . S
C1647 C1648 1.398 . S
C1647 C1653 1.491 . S
C1648 H1639 0.950 . S
C1648 C1647 1.398 . S
C1648 C1649 1.391 . S
C1649 H1637 0.950 . S
C1649 C1645 1.393 . S
C1649 C1648 1.391 . S
C1650 H1640 0.950 . S
C1650 C1651 1.386 . S
C1650 C1652 1.391 . S
C1651 C1650 1.386 . S
C1651 C1655 1.393 . S
C1652 H1641 0.950 . S
C1652 C1650 1.391 . S
C1652 C1653 1.400 . S
C1653 C1647 1.491 . S
C1653 C1652 1.400 . S
C1653 C1654 1.398 . S
C1654 H1642 0.950 . S
C1654 C1653 1.398 . S
C1654 C1655 1.391 . S
C1655 H1643 0.950 . S
C1655 C1651 1.393 . S
C1655 C1654 1.391 . S
H1656 C1664 0.950 . S
H1657 C1669 0.950 . S
H1658 C1666 0.950 . S
H1659 C1668 0.950 . S
H1660 C1670 0.949 1_554 S
H1661 C1672 0.950 . S
H1662 C1674 0.950 . S
H1663 C1675 0.950 . S
C1664 H1656 0.950 . S
C1664 C1665 1.386 . S
C1664 C1666 1.391 . S
C1665 C1664 1.386 . S
C1665 C1669 1.393 1_455 S
C1666 H1658 0.950 . S
C1666 C1664 1.391 . S
C1666 C1667 1.400 . S
C1667 C1666 1.400 . S
C1667 C1668 1.398 1_455 S
C1667 C1673 1.491 . S
C1668 H1659 0.950 . S
C1668 C1667 1.398 1_655 S
C1668 C1669 1.391 . S
C1669 H1657 0.950 . S
C1669 C1665 1.393 1_655 S
C1669 C1668 1.391 . S
C1670 H1660 0.949 1_556 S
C1670 C1671 1.386 1_655 S
C1670 C1672 1.391 . S
C1671 C1670 1.386 1_455 S
C1671 C1675 1.393 . S
C1672 H1661 0.950 . S
C1672 C1670 1.391 . S
C1672 C1673 1.400 1_655 S
C1673 C1667 1.491 . S
C1673 C1672 1.400 1_455 S
C1673 C1674 1.398 . S
C1674 H1662 0.950 . S
C1674 C1673 1.398 . S
C1674 C1675 1.391 . S
C1675 H1663 0.950 . S
C1675 C1671 1.393 . S
C1675 C1674 1.391 . S
H1676 C1684 0.950 . S
H1677 C1689 0.950 . S
H1678 C1686 0.950 . S
H1679 C1688 0.950 . S
H1680 C1690 0.950 . S
H1681 C1692 0.950 . S
H1682 C1694 0.950 . S
H1683 C1695 0.950 . S
C1684 H1676 0.950 . S
C1684 C1685 1.386 . S
C1684 C1686 1.391 . S
C1685 C1684 1.386 . S
C1685 C1689 1.393 . S
C1686 H1678 0.950 . S
C1686 C1684 1.391 . S
C1686 C1687 1.400 . S
C1687 C1686 1.400 . S
C1687 C1688 1.398 . S
C1687 C1693 1.491 . S
C1688 H1679 0.950 . S
C1688 C1687 1.398 . S
C1688 C1689 1.391 . S
C1689 H1677 0.950 . S
C1689 C1685 1.393 . S
C1689 C1688 1.391 . S
C1690 H1680 0.950 . S
C1690 C1691 1.386 . S
C1690 C1692 1.391 . S
C1691 C1690 1.386 . S
C1691 C1695 1.393 . S
C1692 H1681 0.950 . S
C1692 C1690 1.391 . S
C1692 C1693 1.400 . S
C1693 C1687 1.491 . S
C1693 C1692 1.400 . S
C1693 C1694 1.398 . S
C1694 H1682 0.950 . S
C1694 C1693 1.398 . S
C1694 C1695 1.391 . S
C1695 H1683 0.950 . S
C1695 C1691 1.393 . S
C1695 C1694 1.391 . S
H1696 C1704 0.950 . S
H1697 C1709 0.950 . S
H1698 C1706 0.950 . S
H1699 C1708 0.950 . S
H1700 C1710 0.950 . S
H1701 C1712 0.950 . S
H1702 C1714 0.950 . S
H1703 C1715 0.950 . S
C1704 H1696 0.950 . S
C1704 C1705 1.386 . S
C1704 C1706 1.391 . S
C1705 C1704 1.386 . S
C1705 C1709 1.393 . S
C1706 H1698 0.950 . S
C1706 C1704 1.391 . S
C1706 C1707 1.400 . S
C1707 C1706 1.400 . S
C1707 C1708 1.398 . S
C1707 C1713 1.491 . S
C1708 H1699 0.950 . S
C1708 C1707 1.398 . S
C1708 C1709 1.391 . S
C1709 H1697 0.950 . S
C1709 C1705 1.393 . S
C1709 C1708 1.391 . S
C1710 H1700 0.950 . S
C1710 C1711 1.386 . S
C1710 C1712 1.391 . S
C1711 C1710 1.386 . S
C1711 C1715 1.393 . S
C1712 H1701 0.950 . S
C1712 C1710 1.391 . S
C1712 C1713 1.400 . S
C1713 C1707 1.491 . S
C1713 C1712 1.400 . S
C1713 C1714 1.398 . S
C1714 H1702 0.950 . S
C1714 C1713 1.398 . S
C1714 C1715 1.391 . S
C1715 H1703 0.950 . S
C1715 C1711 1.393 . S
C1715 C1714 1.391 . S
H1716 C1724 0.950 . S
H1717 C1729 0.950 . S
H1718 C1726 0.950 . S
H1719 C1728 0.950 . S
H1720 C1730 0.950 . S
H1721 C1732 0.950 . S
H1722 C1734 0.950 . S
H1723 C1735 0.950 . S
C1724 H1716 0.950 . S
C1724 C1725 1.386 . S
C1724 C1726 1.391 . S
C1725 C1724 1.386 . S
C1725 C1729 1.393 . S
C1726 H1718 0.950 . S
C1726 C1724 1.391 . S
C1726 C1727 1.400 . S
C1727 C1726 1.400 . S
C1727 C1728 1.398 . S
C1727 C1733 1.491 . S
C1728 H1719 0.950 . S
C1728 C1727 1.398 . S
C1728 C1729 1.391 . S
C1729 H1717 0.950 . S
C1729 C1725 1.393 . S
C1729 C1728 1.391 . S
C1730 H1720 0.950 . S
C1730 C1731 1.386 . S
C1730 C1732 1.391 . S
C1731 C1730 1.386 . S
C1731 C1735 1.393 . S
C1732 H1721 0.950 . S
C1732 C1730 1.391 . S
C1732 C1733 1.400 . S
C1733 C1727 1.491 . S
C1733 C1732 1.400 . S
C1733 C1734 1.398 . S
C1734 H1722 0.950 . S
C1734 C1733 1.398 . S
C1734 C1735 1.391 . S
C1735 H1723 0.950 . S
C1735 C1731 1.393 . S
C1735 C1734 1.391 . S
H1736 C1744 0.950 . S
H1737 C1749 0.950 . S
H1738 C1746 0.950 . S
H1739 C1748 0.950 . S
H1740 C1750 0.950 . S
H1741 C1752 0.950 . S
H1742 C1754 0.950 . S
H1743 C1755 0.950 . S
C1744 H1736 0.950 . S
C1744 C1745 1.386 . S
C1744 C1746 1.391 . S
C1745 C1744 1.386 . S
C1745 C1749 1.393 1_455 S
C1746 H1738 0.950 . S
C1746 C1744 1.391 . S
C1746 C1747 1.400 . S
C1747 C1746 1.400 . S
C1747 C1748 1.398 1_455 S
C1747 C1753 1.491 . S
C1748 H1739 0.950 . S
C1748 C1747 1.398 1_655 S
C1748 C1749 1.391 . S
C1749 H1737 0.950 . S
C1749 C1745 1.393 1_655 S
C1749 C1748 1.391 . S
C1750 H1740 0.950 . S
C1750 C1751 1.386 1_655 S
C1750 C1752 1.391 . S
C1751 C1750 1.386 1_455 S
C1751 C1755 1.393 . S
C1752 H1741 0.950 . S
C1752 C1750 1.391 . S
C1752 C1753 1.400 1_655 S
C1753 C1747 1.491 . S
C1753 C1752 1.400 1_455 S
C1753 C1754 1.398 . S
C1754 H1742 0.950 . S
C1754 C1753 1.398 . S
C1754 C1755 1.391 . S
C1755 H1743 0.950 . S
C1755 C1751 1.393 . S
C1755 C1754 1.391 . S
H1756 C1764 0.950 . S
H1757 C1769 0.950 . S
H1758 C1766 0.950 . S
H1759 C1768 0.950 . S
H1760 C1770 0.950 . S
H1761 C1772 0.950 . S
H1762 C1774 0.950 . S
H1763 C1775 0.950 . S
C1764 H1756 0.950 . S
C1764 C1765 1.386 . S
C1764 C1766 1.391 . S
C1765 C1764 1.386 . S
C1765 C1769 1.393 . S
C1766 H1758 0.950 . S
C1766 C1764 1.391 . S
C1766 C1767 1.400 . S
C1767 C1766 1.400 . S
C1767 C1768 1.398 . S
C1767 C1773 1.491 . S
C1768 H1759 0.950 . S
C1768 C1767 1.398 . S
C1768 C1769 1.391 . S
C1769 H1757 0.950 . S
C1769 C1765 1.393 . S
C1769 C1768 1.391 . S
C1770 H1760 0.950 . S
C1770 C1771 1.386 . S
C1770 C1772 1.391 . S
C1771 C1770 1.386 . S
C1771 C1775 1.393 . S
C1772 H1761 0.950 . S
C1772 C1770 1.391 . S
C1772 C1773 1.400 . S
C1773 C1767 1.491 . S
C1773 C1772 1.400 . S
C1773 C1774 1.398 . S
C1774 H1762 0.950 . S
C1774 C1773 1.398 . S
C1774 C1775 1.391 . S
C1775 H1763 0.950 . S
C1775 C1771 1.393 . S
C1775 C1774 1.391 . S
H1776 C1784 0.950 . S
H1777 C1789 0.950 . S
H1778 C1786 0.950 . S
H1779 C1788 0.950 . S
H1780 C1790 0.950 . S
H1781 C1792 0.950 . S
H1782 C1794 0.950 . S
H1783 C1795 0.950 . S
C1784 H1776 0.950 . S
C1784 C1785 1.386 . S
C1784 C1786 1.391 . S
C1785 C1784 1.386 . S
C1785 C1789 1.393 . S
C1786 H1778 0.950 . S
C1786 C1784 1.391 . S
C1786 C1787 1.400 . S
C1787 C1786 1.400 . S
C1787 C1788 1.398 . S
C1787 C1793 1.491 . S
C1788 H1779 0.950 . S
C1788 C1787 1.398 . S
C1788 C1789 1.391 . S
C1789 H1777 0.950 . S
C1789 C1785 1.393 . S
C1789 C1788 1.391 . S
C1790 H1780 0.950 . S
C1790 C1791 1.386 . S
C1790 C1792 1.391 . S
C1791 C1790 1.386 . S
C1791 C1795 1.393 . S
C1792 H1781 0.950 . S
C1792 C1790 1.391 . S
C1792 C1793 1.400 . S
C1793 C1787 1.491 . S
C1793 C1792 1.400 . S
C1793 C1794 1.398 . S
C1794 H1782 0.950 . S
C1794 C1793 1.398 . S
C1794 C1795 1.391 . S
C1795 H1783 0.950 . S
C1795 C1791 1.393 . S
C1795 C1794 1.391 . S
H1796 C1804 0.950 . S
H1797 C1809 0.950 . S
H1798 C1806 0.950 . S
H1799 C1808 0.950 . S
H1800 C1810 0.950 . S
H1801 C1812 0.950 . S
H1802 C1814 0.950 . S
H1803 C1815 0.950 . S
C1804 H1796 0.950 . S
C1804 C1805 1.386 . S
C1804 C1806 1.391 . S
C1805 C1804 1.386 . S
C1805 C1809 1.393 . S
C1806 H1798 0.950 . S
C1806 C1804 1.391 . S
C1806 C1807 1.400 . S
C1807 C1806 1.400 . S
C1807 C1808 1.398 . S
C1807 C1813 1.491 . S
C1808 H1799 0.950 . S
C1808 C1807 1.398 . S
C1808 C1809 1.391 . S
C1809 H1797 0.950 . S
C1809 C1805 1.393 . S
C1809 C1808 1.391 . S
C1810 H1800 0.950 . S
C1810 C1811 1.386 . S
C1810 C1812 1.391 . S
C1811 C1810 1.386 . S
C1811 C1815 1.393 . S
C1812 H1801 0.950 . S
C1812 C1810 1.391 . S
C1812 C1813 1.400 . S
C1813 C1807 1.491 . S
C1813 C1812 1.400 . S
C1813 C1814 1.398 . S
C1814 H1802 0.950 . S
C1814 C1813 1.398 . S
C1814 C1815 1.391 . S
C1815 H1803 0.950 . S
C1815 C1811 1.393 . S
C1815 C1814 1.391 . S
H1816 C1824 0.950 . S
H1817 C1829 0.950 . S
H1818 C1826 0.950 . S
H1819 C1828 0.950 . S
H1820 C1830 0.950 . S
H1821 C1832 0.950 . S
H1822 C1834 0.950 . S
H1823 C1835 0.950 . S
C1824 H1816 0.950 . S
C1824 C1825 1.386 . S
C1824 C1826 1.391 . S
C1825 C1824 1.386 . S
C1825 C1829 1.393 . S
C1826 H1818 0.950 . S
C1826 C1824 1.391 . S
C1826 C1827 1.400 . S
C1827 C1826 1.400 . S
C1827 C1828 1.398 . S
C1827 C1833 1.491 . S
C1828 H1819 0.950 . S
C1828 C1827 1.398 . S
C1828 C1829 1.391 . S
C1829 H1817 0.950 . S
C1829 C1825 1.393 . S
C1829 C1828 1.391 . S
C1830 H1820 0.950 . S
C1830 C1831 1.386 . S
C1830 C1832 1.391 . S
C1831 C1830 1.386 . S
C1831 C1835 1.393 . S
C1832 H1821 0.950 . S
C1832 C1830 1.391 . S
C1832 C1833 1.400 . S
C1833 C1827 1.491 . S
C1833 C1832 1.400 . S
C1833 C1834 1.398 . S
C1834 H1822 0.950 . S
C1834 C1833 1.398 . S
C1834 C1835 1.391 . S
C1835 H1823 0.950 . S
C1835 C1831 1.393 . S
C1835 C1834 1.391 . S
H1836 C1844 0.950 . S
H1837 C1849 0.950 . S
H1838 C1846 0.950 . S
H1839 C1848 0.950 . S
H1840 C1850 0.950 . S
H1841 C1852 0.950 . S
H1842 C1854 0.950 . S
H1843 C1855 0.950 . S
C1844 H1836 0.950 . S
C1844 C1845 1.386 . S
C1844 C1846 1.391 . S
C1845 C1844 1.386 . S
C1845 C1849 1.393 . S
C1846 H1838 0.950 . S
C1846 C1844 1.391 . S
C1846 C1847 1.400 . S
C1847 C1846 1.400 . S
C1847 C1848 1.398 . S
C1847 C1853 1.491 . S
C1848 H1839 0.950 . S
C1848 C1847 1.398 . S
C1848 C1849 1.391 . S
C1849 H1837 0.950 . S
C1849 C1845 1.393 . S
C1849 C1848 1.391 . S
C1850 H1840 0.950 . S
C1850 C1851 1.386 . S
C1850 C1852 1.391 . S
C1851 C1850 1.386 . S
C1851 C1855 1.393 . S
C1852 H1841 0.950 . S
C1852 C1850 1.391 . S
C1852 C1853 1.400 . S
C1853 C1847 1.491 . S
C1853 C1852 1.400 . S
C1853 C1854 1.398 . S
C1854 H1842 0.950 . S
C1854 C1853 1.398 . S
C1854 C1855 1.391 . S
C1855 H1843 0.950 . S
C1855 C1851 1.393 . S
C1855 C1854 1.391 . S
H1856 C1864 0.950 . S
H1857 C1869 0.950 . S
H1858 C1866 0.950 . S
H1859 C1868 0.950 . S
H1860 C1870 0.950 . S
H1861 C1872 0.950 . S
H1862 C1874 0.950 . S
H1863 C1875 0.950 . S
C1864 H1856 0.950 . S
C1864 C1865 1.386 . S
C1864 C1866 1.391 . S
C1865 C1864 1.386 . S
C1865 C1869 1.393 . S
C1866 H1858 0.950 . S
C1866 C1864 1.391 . S
C1866 C1867 1.400 . S
C1867 C1866 1.400 . S
C1867 C1868 1.398 . S
C1867 C1873 1.491 . S
C1868 H1859 0.950 . S
C1868 C1867 1.398 . S
C1868 C1869 1.391 . S
C1869 H1857 0.950 . S
C1869 C1865 1.393 . S
C1869 C1868 1.391 . S
C1870 H1860 0.950 . S
C1870 C1871 1.386 . S
C1870 C1872 1.391 . S
C1871 C1870 1.386 . S
C1871 C1875 1.393 . S
C1872 H1861 0.950 . S
C1872 C1870 1.391 . S
C1872 C1873 1.400 . S
C1873 C1867 1.491 . S
C1873 C1872 1.400 . S
C1873 C1874 1.398 . S
C1874 H1862 0.950 . S
C1874 C1873 1.398 . S
C1874 C1875 1.391 . S
C1875 H1863 0.950 . S
C1875 C1871 1.393 . S
C1875 C1874 1.391 . S
H1876 C1884 0.950 . S
H1877 C1889 0.950 . S
H1878 C1886 0.950 . S
H1879 C1888 0.950 . S
H1880 C1890 0.950 . S
H1881 C1892 0.950 . S
H1882 C1894 0.950 . S
H1883 C1895 0.950 . S
C1884 H1876 0.950 . S
C1884 C1885 1.386 . S
C1884 C1886 1.391 . S
C1885 C1884 1.386 . S
C1885 C1889 1.393 . S
C1886 H1878 0.950 . S
C1886 C1884 1.391 . S
C1886 C1887 1.400 . S
C1887 C1886 1.400 . S
C1887 C1888 1.398 . S
C1887 C1893 1.491 . S
C1888 H1879 0.950 . S
C1888 C1887 1.398 . S
C1888 C1889 1.391 . S
C1889 H1877 0.950 . S
C1889 C1885 1.393 . S
C1889 C1888 1.391 . S
C1890 H1880 0.950 . S
C1890 C1891 1.386 . S
C1890 C1892 1.391 . S
C1891 C1890 1.386 . S
C1891 C1895 1.393 . S
C1892 H1881 0.950 . S
C1892 C1890 1.391 . S
C1892 C1893 1.400 . S
C1893 C1887 1.491 . S
C1893 C1892 1.400 . S
C1893 C1894 1.398 . S
C1894 H1882 0.950 . S
C1894 C1893 1.398 . S
C1894 C1895 1.391 . S
C1895 H1883 0.950 . S
C1895 C1891 1.393 . S
C1895 C1894 1.391 . S
H1896 C1904 0.950 . S
H1897 C1909 0.950 . S
H1898 C1906 0.950 . S
H1899 C1908 0.950 . S
H1900 C1910 0.950 . S
H1901 C1912 0.950 . S
H1902 C1914 0.950 . S
H1903 C1915 0.950 . S
C1904 H1896 0.950 . S
C1904 C1905 1.386 . S
C1904 C1906 1.391 . S
C1905 C1904 1.386 . S
C1905 C1909 1.393 . S
C1906 H1898 0.950 . S
C1906 C1904 1.391 . S
C1906 C1907 1.400 . S
C1907 C1906 1.400 . S
C1907 C1908 1.398 . S
C1907 C1913 1.491 . S
C1908 H1899 0.950 . S
C1908 C1907 1.398 . S
C1908 C1909 1.391 . S
C1909 H1897 0.950 . S
C1909 C1905 1.393 . S
C1909 C1908 1.391 . S
C1910 H1900 0.950 . S
C1910 C1911 1.386 . S
C1910 C1912 1.391 . S
C1911 C1910 1.386 . S
C1911 C1915 1.393 . S
C1912 H1901 0.950 . S
C1912 C1910 1.391 . S
C1912 C1913 1.400 . S
C1913 C1907 1.491 . S
C1913 C1912 1.400 . S
C1913 C1914 1.398 . S
C1914 H1902 0.950 . S
C1914 C1913 1.398 . S
C1914 C1915 1.391 . S
C1915 H1903 0.950 . S
C1915 C1911 1.393 . S
C1915 C1914 1.391 . S
H1916 C1924 0.950 . S
H1917 C1929 0.950 . S
H1918 C1926 0.950 . S
H1919 C1928 0.950 . S
H1920 C1930 0.950 . S
H1921 C1932 0.950 . S
H1922 C1934 0.950 . S
H1923 C1935 0.950 . S
C1924 H1916 0.950 . S
C1924 C1925 1.386 . S
C1924 C1926 1.391 . S
C1925 C1924 1.386 . S
C1925 C1929 1.393 . S
C1926 H1918 0.950 . S
C1926 C1924 1.391 . S
C1926 C1927 1.400 . S
C1927 C1926 1.400 . S
C1927 C1928 1.398 . S
C1927 C1933 1.491 . S
C1928 H1919 0.950 . S
C1928 C1927 1.398 . S
C1928 C1929 1.391 . S
C1929 H1917 0.950 . S
C1929 C1925 1.393 . S
C1929 C1928 1.391 . S
C1930 H1920 0.950 . S
C1930 C1931 1.386 . S
C1930 C1932 1.391 . S
C1931 C1930 1.386 . S
C1931 C1935 1.393 . S
C1932 H1921 0.950 . S
C1932 C1930 1.391 . S
C1932 C1933 1.400 . S
C1933 C1927 1.491 . S
C1933 C1932 1.400 . S
C1933 C1934 1.398 . S
C1934 H1922 0.950 . S
C1934 C1933 1.398 . S
C1934 C1935 1.391 . S
C1935 H1923 0.950 . S
C1935 C1931 1.393 . S
C1935 C1934 1.391 . S
H1936 C1944 0.950 . S
H1937 C1949 0.950 . S
H1938 C1946 0.950 . S
H1939 C1948 0.950 . S
H1940 C1950 0.950 . S
H1941 C1952 0.950 . S
H1942 C1954 0.950 . S
H1943 C1955 0.950 . S
C1944 H1936 0.950 . S
C1944 C1945 1.386 . S
C1944 C1946 1.391 . S
C1945 C1944 1.386 . S
C1945 C1949 1.393 . S
C1946 H1938 0.950 . S
C1946 C1944 1.391 . S
C1946 C1947 1.400 . S
C1947 C1946 1.400 . S
C1947 C1948 1.398 . S
C1947 C1953 1.491 . S
C1948 H1939 0.950 . S
C1948 C1947 1.398 . S
C1948 C1949 1.391 . S
C1949 H1937 0.950 . S
C1949 C1945 1.393 . S
C1949 C1948 1.391 . S
C1950 H1940 0.950 . S
C1950 C1951 1.386 . S
C1950 C1952 1.391 . S
C1951 C1950 1.386 . S
C1951 C1955 1.393 . S
C1952 H1941 0.950 . S
C1952 C1950 1.391 . S
C1952 C1953 1.400 . S
C1953 C1947 1.491 . S
C1953 C1952 1.400 . S
C1953 C1954 1.398 . S
C1954 H1942 0.950 . S
C1954 C1953 1.398 . S
C1954 C1955 1.391 . S
C1955 H1943 0.950 . S
C1955 C1951 1.393 . S
C1955 C1954 1.391 . S
H1956 C1964 0.950 . S
H1957 C1969 0.950 . S
H1958 C1966 0.950 . S
H1959 C1968 0.950 . S
H1960 C1970 0.950 . S
H1961 C1972 0.950 . S
H1962 C1974 0.950 . S
H1963 C1975 0.950 . S
C1964 H1956 0.950 . S
C1964 C1965 1.386 . S
C1964 C1966 1.391 . S
C1965 C1964 1.386 . S
C1965 C1969 1.393 . S
C1966 H1958 0.950 . S
C1966 C1964 1.391 . S
C1966 C1967 1.400 . S
C1967 C1966 1.400 . S
C1967 C1968 1.398 . S
C1967 C1973 1.491 . S
C1968 H1959 0.950 . S
C1968 C1967 1.398 . S
C1968 C1969 1.391 . S
C1969 H1957 0.950 . S
C1969 C1965 1.393 . S
C1969 C1968 1.391 . S
C1970 H1960 0.950 . S
C1970 C1971 1.386 . S
C1970 C1972 1.391 . S
C1971 C1970 1.386 . S
C1971 C1975 1.393 . S
C1972 H1961 0.950 . S
C1972 C1970 1.391 . S
C1972 C1973 1.400 . S
C1973 C1967 1.491 . S
C1973 C1972 1.400 . S
C1973 C1974 1.398 . S
C1974 H1962 0.950 . S
C1974 C1973 1.398 . S
C1974 C1975 1.391 . S
C1975 H1963 0.950 . S
C1975 C1971 1.393 . S
C1975 C1974 1.391 . S
H1976 C1984 0.950 . S
H1977 C1989 0.950 . S
H1978 C1986 0.950 . S
H1979 C1988 0.950 . S
H1980 C1990 0.950 . S
H1981 C1992 0.950 . S
H1982 C1994 0.950 . S
H1983 C1995 0.950 . S
C1984 H1976 0.950 . S
C1984 C1985 1.386 . S
C1984 C1986 1.391 . S
C1985 C1984 1.386 . S
C1985 C1989 1.393 . S
C1986 H1978 0.950 . S
C1986 C1984 1.391 . S
C1986 C1987 1.400 . S
C1987 C1986 1.400 . S
C1987 C1988 1.398 . S
C1987 C1993 1.491 . S
C1988 H1979 0.950 . S
C1988 C1987 1.398 . S
C1988 C1989 1.391 . S
C1989 H1977 0.950 . S
C1989 C1985 1.393 . S
C1989 C1988 1.391 . S
C1990 H1980 0.950 . S
C1990 C1991 1.386 . S
C1990 C1992 1.391 . S
C1991 C1990 1.386 . S
C1991 C1995 1.393 . S
C1992 H1981 0.950 . S
C1992 C1990 1.391 . S
C1992 C1993 1.400 . S
C1993 C1987 1.491 . S
C1993 C1992 1.400 . S
C1993 C1994 1.398 . S
C1994 H1982 0.950 . S
C1994 C1993 1.398 . S
C1994 C1995 1.391 . S
C1995 H1983 0.950 . S
C1995 C1991 1.393 . S
C1995 C1994 1.391 . S
H1996 C2004 0.950 . S
H1997 C2009 0.950 . S
H1998 C2006 0.950 1_545 S
H1999 C2008 0.950 . S
H2000 C2010 0.950 . S
H2001 C2012 0.950 . S
H2002 C2014 0.950 . S
H2003 C2015 0.950 . S
C2004 H1996 0.950 . S
C2004 C2005 1.386 . S
C2004 C2006 1.391 . S
C2005 C2004 1.386 . S
C2005 C2009 1.393 . S
C2006 H1998 0.950 1_565 S
C2006 C2004 1.391 . S
C2006 C2007 1.400 . S
C2007 C2006 1.400 . S
C2007 C2008 1.398 . S
C2007 C2013 1.491 . S
C2008 H1999 0.950 . S
C2008 C2007 1.398 . S
C2008 C2009 1.391 . S
C2009 H1997 0.950 . S
C2009 C2005 1.393 . S
C2009 C2008 1.391 . S
C2010 H2000 0.950 . S
C2010 C2011 1.386 1_565 S
C2010 C2012 1.391 . S
C2011 C2010 1.386 1_545 S
C2011 C2015 1.393 . S
C2012 H2001 0.950 . S
C2012 C2010 1.391 . S
C2012 C2013 1.400 . S
C2013 C2007 1.491 . S
C2013 C2012 1.400 . S
C2013 C2014 1.398 1_565 S
C2014 H2002 0.950 . S
C2014 C2013 1.398 1_545 S
C2014 C2015 1.391 . S
C2015 H2003 0.950 . S
C2015 C2011 1.393 . S
C2015 C2014 1.391 . S
H2016 C2024 0.950 . S
H2017 C2029 0.950 . S
H2018 C2026 0.950 . S
H2019 C2028 0.950 . S
H2020 C2030 0.950 . S
H2021 C2032 0.950 . S
H2022 C2034 0.950 . S
H2023 C2035 0.950 . S
C2024 H2016 0.950 . S
C2024 C2025 1.386 . S
C2024 C2026 1.391 . S
C2025 C2024 1.386 . S
C2025 C2029 1.393 . S
C2026 H2018 0.950 . S
C2026 C2024 1.391 . S
C2026 C2027 1.400 . S
C2027 C2026 1.400 . S
C2027 C2028 1.398 . S
C2027 C2033 1.491 . S
C2028 H2019 0.950 . S
C2028 C2027 1.398 . S
C2028 C2029 1.391 . S
C2029 H2017 0.950 . S
C2029 C2025 1.393 . S
C2029 C2028 1.391 . S
C2030 H2020 0.950 . S
C2030 C2031 1.386 . S
C2030 C2032 1.391 . S
C2031 C2030 1.386 . S
C2031 C2035 1.393 . S
C2032 H2021 0.950 . S
C2032 C2030 1.391 . S
C2032 C2033 1.400 . S
C2033 C2027 1.491 . S
C2033 C2032 1.400 . S
C2033 C2034 1.398 . S
C2034 H2022 0.950 . S
C2034 C2033 1.398 . S
C2034 C2035 1.391 . S
C2035 H2023 0.950 . S
C2035 C2031 1.393 . S
C2035 C2034 1.391 . S
H2036 C2044 0.950 . S
H2037 C2049 0.950 . S
H2038 C2046 0.973 . S
H2039 C2048 0.950 . S
H2040 C2050 0.950 . S
H2041 C2052 0.950 . S
H2042 C2054 0.950 1_556 S
H2043 C2055 0.925 1_556 S
C2044 H2036 0.950 . S
C2044 C2045 1.386 1_556 S
C2044 C2046 1.399 . S
C2045 C2044 1.386 1_554 S
C2045 C2049 1.393 . S
C2046 H2038 0.973 . S
C2046 C2044 1.399 . S
C2046 C2047 1.372 1_556 S
C2047 C2046 1.372 1_554 S
C2047 C2048 1.398 . S
C2047 C2053 1.491 . S
C2048 H2039 0.950 . S
C2048 C2047 1.398 . S
C2048 C2049 1.391 . S
C2049 H2037 0.950 . S
C2049 C2045 1.393 . S
C2049 C2048 1.391 . S
C2050 H2040 0.950 . S
C2050 C2051 1.386 . S
C2050 C2052 1.391 . S
C2051 C2050 1.386 . S
C2051 C2055 1.393 . S
C2052 H2041 0.950 . S
C2052 C2050 1.391 . S
C2052 C2053 1.400 . S
C2053 C2047 1.491 . S
C2053 C2052 1.400 . S
C2053 C2054 1.398 . S
C2054 H2042 0.950 1_554 S
C2054 C2053 1.398 . S
C2054 C2055 1.391 . S
C2055 H2043 0.925 1_554 S
C2055 C2051 1.393 . S
C2055 C2054 1.391 . S
H2056 C2064 0.950 . S
H2057 C2069 0.950 . S
H2058 C2066 0.950 . S
H2059 C2068 0.950 . S
H2060 C2070 0.950 . S
H2061 C2072 0.950 . S
H2062 C2074 0.950 . S
H2063 C2075 0.950 . S
C2064 H2056 0.950 . S
C2064 C2065 1.386 . S
C2064 C2066 1.391 . S
C2065 C2064 1.386 . S
C2065 C2069 1.393 . S
C2066 H2058 0.950 . S
C2066 C2064 1.391 . S
C2066 C2067 1.400 . S
C2067 C2066 1.400 . S
C2067 C2068 1.398 . S
C2067 C2073 1.491 . S
C2068 H2059 0.950 . S
C2068 C2067 1.398 . S
C2068 C2069 1.391 . S
C2069 H2057 0.950 . S
C2069 C2065 1.393 . S
C2069 C2068 1.391 . S
C2070 H2060 0.950 . S
C2070 C2071 1.386 . S
C2070 C2072 1.391 . S
C2071 C2070 1.386 . S
C2071 C2075 1.393 . S
C2072 H2061 0.950 . S
C2072 C2070 1.391 . S
C2072 C2073 1.400 . S
C2073 C2067 1.491 . S
C2073 C2072 1.400 . S
C2073 C2074 1.398 . S
C2074 H2062 0.950 . S
C2074 C2073 1.398 . S
C2074 C2075 1.391 . S
C2075 H2063 0.950 . S
C2075 C2071 1.393 . S
C2075 C2074 1.391 . S
H2076 C2084 0.950 . S
H2077 C2089 0.950 . S
H2078 C2086 0.950 . S
H2079 C2088 0.950 . S
H2080 C2090 0.950 . S
H2081 C2092 0.950 . S
H2082 C2094 0.950 . S
H2083 C2095 0.950 . S
C2084 H2076 0.950 . S
C2084 C2085 1.386 . S
C2084 C2086 1.391 . S
C2085 C2084 1.386 . S
C2085 C2089 1.393 . S
C2086 H2078 0.950 . S
C2086 C2084 1.391 . S
C2086 C2087 1.400 . S
C2087 C2086 1.400 . S
C2087 C2088 1.398 . S
C2087 C2093 1.491 . S
C2088 H2079 0.950 . S
C2088 C2087 1.398 . S
C2088 C2089 1.391 . S
C2089 H2077 0.950 . S
C2089 C2085 1.393 . S
C2089 C2088 1.391 . S
C2090 H2080 0.950 . S
C2090 C2091 1.386 . S
C2090 C2092 1.391 . S
C2091 C2090 1.386 . S
C2091 C2095 1.393 . S
C2092 H2081 0.950 . S
C2092 C2090 1.391 . S
C2092 C2093 1.400 . S
C2093 C2087 1.491 . S
C2093 C2092 1.400 . S
C2093 C2094 1.398 . S
C2094 H2082 0.950 . S
C2094 C2093 1.398 . S
C2094 C2095 1.391 . S
C2095 H2083 0.950 . S
C2095 C2091 1.393 . S
C2095 C2094 1.391 . S
H2096 C2104 0.950 . S
H2097 C2109 0.950 . S
H2098 C2106 0.950 . S
H2099 C2108 0.950 . S
H2100 C2110 0.950 . S
H2101 C2112 0.950 . S
H2102 C2114 0.950 . S
H2103 C2115 0.950 . S
C2104 H2096 0.950 . S
C2104 C2105 1.386 . S
C2104 C2106 1.391 . S
C2105 C2104 1.386 . S
C2105 C2109 1.393 . S
C2106 H2098 0.950 . S
C2106 C2104 1.391 . S
C2106 C2107 1.400 . S
C2107 C2106 1.400 . S
C2107 C2108 1.398 . S
C2107 C2113 1.491 . S
C2108 H2099 0.950 . S
C2108 C2107 1.398 . S
C2108 C2109 1.391 . S
C2109 H2097 0.950 . S
C2109 C2105 1.393 . S
C2109 C2108 1.391 . S
C2110 H2100 0.950 . S
C2110 C2111 1.386 . S
C2110 C2112 1.391 . S
C2111 C2110 1.386 . S
C2111 C2115 1.393 . S
C2112 H2101 0.950 . S
C2112 C2110 1.391 . S
C2112 C2113 1.400 . S
C2113 C2107 1.491 . S
C2113 C2112 1.400 . S
C2113 C2114 1.398 . S
C2114 H2102 0.950 . S
C2114 C2113 1.398 . S
C2114 C2115 1.391 . S
C2115 H2103 0.950 . S
C2115 C2111 1.393 . S
C2115 C2114 1.391 . S
H2116 C2124 0.950 . S
H2117 C2129 0.950 . S
H2118 C2126 0.950 . S
H2119 C2128 0.950 . S
H2120 C2130 0.950 . S
H2121 C2132 0.950 . S
H2122 C2134 0.950 . S
H2123 C2135 0.950 . S
C2124 H2116 0.950 . S
C2124 C2125 1.386 . S
C2124 C2126 1.391 . S
C2125 C2124 1.386 . S
C2125 C2129 1.393 . S
C2126 H2118 0.950 . S
C2126 C2124 1.391 . S
C2126 C2127 1.400 . S
C2127 C2126 1.400 . S
C2127 C2128 1.398 . S
C2127 C2133 1.491 . S
C2128 H2119 0.950 . S
C2128 C2127 1.398 . S
C2128 C2129 1.391 . S
C2129 H2117 0.950 . S
C2129 C2125 1.393 . S
C2129 C2128 1.391 . S
C2130 H2120 0.950 . S
C2130 C2131 1.386 . S
C2130 C2132 1.391 . S
C2131 C2130 1.386 . S
C2131 C2135 1.393 . S
C2132 H2121 0.950 . S
C2132 C2130 1.391 . S
C2132 C2133 1.400 . S
C2133 C2127 1.491 . S
C2133 C2132 1.400 . S
C2133 C2134 1.398 . S
C2134 H2122 0.950 . S
C2134 C2133 1.398 . S
C2134 C2135 1.391 . S
C2135 H2123 0.950 . S
C2135 C2131 1.393 . S
C2135 C2134 1.391 . S
H2136 C2144 0.950 . S
H2137 C2149 0.950 . S
H2138 C2146 0.950 . S
H2139 C2148 0.950 . S
H2140 C2150 0.950 . S
H2141 C2152 0.950 . S
H2142 C2154 0.950 . S
H2143 C2155 0.950 1_556 S
C2144 H2136 0.950 . S
C2144 C2145 1.386 . S
C2144 C2146 1.391 . S
C2145 C2144 1.386 . S
C2145 C2149 1.393 . S
C2146 H2138 0.950 . S
C2146 C2144 1.391 . S
C2146 C2147 1.400 . S
C2147 C2146 1.400 . S
C2147 C2148 1.398 . S
C2147 C2153 1.491 . S
C2148 H2139 0.950 . S
C2148 C2147 1.398 . S
C2148 C2149 1.391 . S
C2149 H2137 0.950 . S
C2149 C2145 1.393 . S
C2149 C2148 1.391 . S
C2150 H2140 0.950 . S
C2150 C2151 1.386 . S
C2150 C2152 1.391 . S
C2151 C2150 1.386 . S
C2151 C2155 1.393 . S
C2152 H2141 0.950 . S
C2152 C2150 1.391 . S
C2152 C2153 1.400 . S
C2153 C2147 1.491 . S
C2153 C2152 1.400 . S
C2153 C2154 1.398 . S
C2154 H2142 0.950 . S
C2154 C2153 1.398 . S
C2154 C2155 1.391 . S
C2155 H2143 0.950 1_554 S
C2155 C2151 1.393 . S
C2155 C2154 1.391 . S
H2156 C2164 0.950 . S
H2157 C2169 0.950 . S
H2158 C2166 0.950 . S
H2159 C2168 0.950 . S
H2160 C2170 0.950 . S
H2161 C2172 0.950 . S
H2162 C2174 0.950 . S
H2163 C2175 0.950 . S
C2164 H2156 0.950 . S
C2164 C2165 1.386 . S
C2164 C2166 1.391 . S
C2165 C2164 1.386 . S
C2165 C2169 1.393 . S
C2166 H2158 0.950 . S
C2166 C2164 1.391 . S
C2166 C2167 1.400 . S
C2167 C2166 1.400 . S
C2167 C2168 1.398 . S
C2167 C2173 1.491 . S
C2168 H2159 0.950 . S
C2168 C2167 1.398 . S
C2168 C2169 1.391 . S
C2169 H2157 0.950 . S
C2169 C2165 1.393 . S
C2169 C2168 1.391 . S
C2170 H2160 0.950 . S
C2170 C2171 1.386 . S
C2170 C2172 1.391 . S
C2171 C2170 1.386 . S
C2171 C2175 1.393 . S
C2172 H2161 0.950 . S
C2172 C2170 1.391 . S
C2172 C2173 1.400 . S
C2173 C2167 1.491 . S
C2173 C2172 1.400 . S
C2173 C2174 1.398 . S
C2174 H2162 0.950 . S
C2174 C2173 1.398 . S
C2174 C2175 1.391 . S
C2175 H2163 0.950 . S
C2175 C2171 1.393 . S
C2175 C2174 1.391 . S
H2176 C2184 0.950 . S
H2177 C2189 0.950 . S
H2178 C2186 0.950 . S
H2179 C2188 0.950 . S
H2180 C2190 0.950 . S
H2181 C2192 0.950 . S
H2182 C2194 0.950 . S
H2183 C2195 0.950 . S
C2184 H2176 0.950 . S
C2184 C2185 1.386 . S
C2184 C2186 1.391 . S
C2185 C2184 1.386 . S
C2185 C2189 1.393 . S
C2186 H2178 0.950 . S
C2186 C2184 1.391 . S
C2186 C2187 1.400 . S
C2187 C2186 1.400 . S
C2187 C2188 1.398 . S
C2187 C2193 1.491 . S
C2188 H2179 0.950 . S
C2188 C2187 1.398 . S
C2188 C2189 1.391 . S
C2189 H2177 0.950 . S
C2189 C2185 1.393 . S
C2189 C2188 1.391 . S
C2190 H2180 0.950 . S
C2190 C2191 1.386 . S
C2190 C2192 1.391 . S
C2191 C2190 1.386 . S
C2191 C2195 1.393 . S
C2192 H2181 0.950 . S
C2192 C2190 1.391 . S
C2192 C2193 1.400 . S
C2193 C2187 1.491 . S
C2193 C2192 1.400 . S
C2193 C2194 1.398 . S
C2194 H2182 0.950 . S
C2194 C2193 1.398 . S
C2194 C2195 1.391 . S
C2195 H2183 0.950 . S
C2195 C2191 1.393 . S
C2195 C2194 1.391 . S
H2196 C2204 0.950 . S
H2197 C2209 0.950 . S
H2198 C2206 0.950 . S
H2199 C2208 0.950 . S
H2200 C2210 0.950 . S
H2201 C2212 0.950 . S
H2202 C2214 0.950 . S
H2203 C2215 0.950 . S
C2204 H2196 0.950 . S
C2204 C2205 1.386 . S
C2204 C2206 1.391 . S
C2205 C2204 1.386 . S
C2205 C2209 1.393 . S
C2206 H2198 0.950 . S
C2206 C2204 1.391 . S
C2206 C2207 1.400 . S
C2207 C2206 1.400 . S
C2207 C2208 1.398 . S
C2207 C2213 1.491 . S
C2208 H2199 0.950 . S
C2208 C2207 1.398 . S
C2208 C2209 1.391 . S
C2209 H2197 0.950 . S
C2209 C2205 1.393 . S
C2209 C2208 1.391 . S
C2210 H2200 0.950 . S
C2210 C2211 1.386 . S
C2210 C2212 1.391 . S
C2211 C2210 1.386 . S
C2211 C2215 1.393 . S
C2212 H2201 0.950 . S
C2212 C2210 1.391 . S
C2212 C2213 1.400 . S
C2213 C2207 1.491 . S
C2213 C2212 1.400 . S
C2213 C2214 1.398 . S
C2214 H2202 0.950 . S
C2214 C2213 1.398 . S
C2214 C2215 1.391 . S
C2215 H2203 0.950 . S
C2215 C2211 1.393 . S
C2215 C2214 1.391 . S
H2216 C2224 0.950 . S
H2217 C2229 0.950 1_655 S
H2218 C2226 0.950 . S
H2219 C2228 0.950 1_655 S
H2220 C2230 0.951 1_655 S
H2221 C2232 0.950 1_655 S
H2222 C2234 0.950 . S
H2223 C2235 0.950 . S
C2224 H2216 0.950 . S
C2224 C2225 1.386 . S
C2224 C2226 1.391 . S
C2225 C2224 1.386 . S
C2225 C2229 1.393 . S
C2226 H2218 0.950 . S
C2226 C2224 1.391 . S
C2226 C2227 1.400 . S
C2227 C2226 1.400 . S
C2227 C2228 1.398 . S
C2227 C2233 1.491 . S
C2228 H2219 0.950 1_455 S
C2228 C2227 1.398 . S
C2228 C2229 1.391 . S
C2229 H2217 0.950 1_455 S
C2229 C2225 1.393 . S
C2229 C2228 1.391 . S
C2230 H2220 0.951 1_455 S
C2230 C2231 1.385 . S
C2230 C2232 1.391 . S
C2231 C2230 1.385 . S
C2231 C2235 1.393 . S
C2232 H2221 0.950 1_455 S
C2232 C2230 1.391 . S
C2232 C2233 1.400 . S
C2233 C2227 1.491 . S
C2233 C2232 1.400 . S
C2233 C2234 1.398 . S
C2234 H2222 0.950 . S
C2234 C2233 1.398 . S
C2234 C2235 1.391 . S
C2235 H2223 0.950 . S
C2235 C2231 1.393 . S
C2235 C2234 1.391 . S
H2236 C2244 0.950 . S
H2237 C2249 0.950 . S
H2238 C2246 0.950 . S
H2239 C2248 0.950 . S
H2240 C2250 0.950 . S
H2241 C2252 0.950 . S
H2242 C2254 0.950 . S
H2243 C2255 0.950 . S
C2244 H2236 0.950 . S
C2244 C2245 1.386 . S
C2244 C2246 1.391 . S
C2245 C2244 1.386 . S
C2245 C2249 1.393 . S
C2246 H2238 0.950 . S
C2246 C2244 1.391 . S
C2246 C2247 1.400 . S
C2247 C2246 1.400 . S
C2247 C2248 1.398 . S
C2247 C2253 1.491 . S
C2248 H2239 0.950 . S
C2248 C2247 1.398 . S
C2248 C2249 1.391 . S
C2249 H2237 0.950 . S
C2249 C2245 1.393 . S
C2249 C2248 1.391 . S
C2250 H2240 0.950 . S
C2250 C2251 1.386 . S
C2250 C2252 1.391 . S
C2251 C2250 1.386 . S
C2251 C2255 1.393 . S
C2252 H2241 0.950 . S
C2252 C2250 1.391 . S
C2252 C2253 1.400 . S
C2253 C2247 1.491 . S
C2253 C2252 1.400 . S
C2253 C2254 1.398 . S
C2254 H2242 0.950 . S
C2254 C2253 1.398 . S
C2254 C2255 1.391 . S
C2255 H2243 0.950 . S
C2255 C2251 1.393 . S
C2255 C2254 1.391 . S
H2256 C2264 0.950 . S
H2257 C2269 0.950 . S
H2258 C2266 0.950 . S
H2259 C2268 0.950 . S
H2260 C2270 0.950 . S
H2261 C2272 0.950 . S
H2262 C2274 0.950 . S
H2263 C2275 0.950 . S
C2264 H2256 0.950 . S
C2264 C2265 1.386 . S
C2264 C2266 1.391 . S
C2265 C2264 1.386 . S
C2265 C2269 1.393 . S
C2266 H2258 0.950 . S
C2266 C2264 1.391 . S
C2266 C2267 1.400 . S
C2267 C2266 1.400 . S
C2267 C2268 1.398 . S
C2267 C2273 1.491 . S
C2268 H2259 0.950 . S
C2268 C2267 1.398 . S
C2268 C2269 1.391 . S
C2269 H2257 0.950 . S
C2269 C2265 1.393 . S
C2269 C2268 1.391 . S
C2270 H2260 0.950 . S
C2270 C2271 1.386 . S
C2270 C2272 1.391 . S
C2271 C2270 1.386 . S
C2271 C2275 1.393 . S
C2272 H2261 0.950 . S
C2272 C2270 1.391 . S
C2272 C2273 1.400 . S
C2273 C2267 1.491 . S
C2273 C2272 1.400 . S
C2273 C2274 1.398 . S
C2274 H2262 0.950 . S
C2274 C2273 1.398 . S
C2274 C2275 1.391 . S
C2275 H2263 0.950 . S
C2275 C2271 1.393 . S
C2275 C2274 1.391 . S
H2276 C2284 0.950 . S
H2277 C2289 0.950 . S
H2278 C2286 0.950 . S
H2279 C2288 0.950 . S
H2280 C2290 0.950 . S
H2281 C2292 0.950 . S
H2282 C2294 0.950 . S
H2283 C2295 0.950 . S
C2284 H2276 0.950 . S
C2284 C2285 1.386 . S
C2284 C2286 1.391 . S
C2285 C2284 1.386 . S
C2285 C2289 1.393 . S
C2286 H2278 0.950 . S
C2286 C2284 1.391 . S
C2286 C2287 1.400 . S
C2287 C2286 1.400 . S
C2287 C2288 1.398 . S
C2287 C2293 1.491 . S
C2288 H2279 0.950 . S
C2288 C2287 1.398 . S
C2288 C2289 1.391 . S
C2289 H2277 0.950 . S
C2289 C2285 1.393 . S
C2289 C2288 1.391 . S
C2290 H2280 0.950 . S
C2290 C2291 1.386 . S
C2290 C2292 1.391 . S
C2291 C2290 1.386 . S
C2291 C2295 1.393 . S
C2292 H2281 0.950 . S
C2292 C2290 1.391 . S
C2292 C2293 1.400 . S
C2293 C2287 1.491 . S
C2293 C2292 1.400 . S
C2293 C2294 1.398 . S
C2294 H2282 0.950 . S
C2294 C2293 1.398 . S
C2294 C2295 1.391 . S
C2295 H2283 0.950 . S
C2295 C2291 1.393 . S
C2295 C2294 1.391 . S
H2296 C2304 0.950 . S
H2297 C2309 0.950 . S
H2298 C2306 0.950 . S
H2299 C2308 0.950 . S
H2300 C2310 0.950 . S
H2301 C2312 0.950 . S
H2302 C2314 0.950 . S
H2303 C2315 0.950 1_455 S
C2304 H2296 0.950 . S
C2304 C2305 1.386 . S
C2304 C2306 1.391 . S
C2305 C2304 1.386 . S
C2305 C2309 1.393 . S
C2306 H2298 0.950 . S
C2306 C2304 1.391 . S
C2306 C2307 1.400 . S
C2307 C2306 1.400 . S
C2307 C2308 1.398 . S
C2307 C2313 1.491 . S
C2308 H2299 0.950 . S
C2308 C2307 1.398 . S
C2308 C2309 1.391 . S
C2309 H2297 0.950 . S
C2309 C2305 1.393 . S
C2309 C2308 1.391 . S
C2310 H2300 0.950 . S
C2310 C2311 1.386 . S
C2310 C2312 1.391 . S
C2311 C2310 1.386 . S
C2311 C2315 1.393 . S
C2312 H2301 0.950 . S
C2312 C2310 1.391 . S
C2312 C2313 1.400 . S
C2313 C2307 1.491 . S
C2313 C2312 1.400 . S
C2313 C2314 1.398 . S
C2314 H2302 0.950 . S
C2314 C2313 1.398 . S
C2314 C2315 1.391 . S
C2315 H2303 0.950 1_655 S
C2315 C2311 1.393 . S
C2315 C2314 1.391 . S
H2316 C2324 0.950 . S
H2317 C2329 0.950 . S
H2318 C2326 0.950 . S
H2319 C2328 0.950 . S
H2320 C2330 0.950 . S
H2321 C2332 0.950 . S
H2322 C2334 0.950 . S
H2323 C2335 0.950 . S
C2324 H2316 0.950 . S
C2324 C2325 1.386 . S
C2324 C2326 1.391 . S
C2325 C2324 1.386 . S
C2325 C2329 1.393 . S
C2326 H2318 0.950 . S
C2326 C2324 1.391 . S
C2326 C2327 1.400 . S
C2327 C2326 1.400 . S
C2327 C2328 1.398 . S
C2327 C2333 1.491 . S
C2328 H2319 0.950 . S
C2328 C2327 1.398 . S
C2328 C2329 1.391 . S
C2329 H2317 0.950 . S
C2329 C2325 1.393 . S
C2329 C2328 1.391 . S
C2330 H2320 0.950 . S
C2330 C2331 1.386 . S
C2330 C2332 1.391 . S
C2331 C2330 1.386 . S
C2331 C2335 1.393 . S
C2332 H2321 0.950 . S
C2332 C2330 1.391 . S
C2332 C2333 1.400 . S
C2333 C2327 1.491 . S
C2333 C2332 1.400 . S
C2333 C2334 1.398 . S
C2334 H2322 0.950 . S
C2334 C2333 1.398 . S
C2334 C2335 1.391 . S
C2335 H2323 0.950 . S
C2335 C2331 1.393 . S
C2335 C2334 1.391 . S
H2336 C2344 0.950 . S
H2337 C2349 0.950 . S
H2338 C2346 0.950 . S
H2339 C2348 0.950 . S
H2340 C2350 0.950 . S
H2341 C2352 0.950 . S
H2342 C2354 0.950 . S
H2343 C2355 0.950 . S
C2344 H2336 0.950 . S
C2344 C2345 1.386 . S
C2344 C2346 1.391 . S
C2345 C2344 1.386 . S
C2345 C2349 1.393 . S
C2346 H2338 0.950 . S
C2346 C2344 1.391 . S
C2346 C2347 1.400 . S
C2347 C2346 1.400 . S
C2347 C2348 1.398 . S
C2347 C2353 1.491 . S
C2348 H2339 0.950 . S
C2348 C2347 1.398 . S
C2348 C2349 1.391 . S
C2349 H2337 0.950 . S
C2349 C2345 1.393 . S
C2349 C2348 1.391 . S
C2350 H2340 0.950 . S
C2350 C2351 1.386 . S
C2350 C2352 1.391 . S
C2351 C2350 1.386 . S
C2351 C2355 1.393 . S
C2352 H2341 0.950 . S
C2352 C2350 1.391 . S
C2352 C2353 1.400 . S
C2353 C2347 1.491 . S
C2353 C2352 1.400 . S
C2353 C2354 1.398 . S
C2354 H2342 0.950 . S
C2354 C2353 1.398 . S
C2354 C2355 1.391 . S
C2355 H2343 0.950 . S
C2355 C2351 1.393 . S
C2355 C2354 1.391 . S
H2356 C2364 0.950 . S
H2357 C2369 0.950 . S
H2358 C2366 0.950 . S
H2359 C2368 0.950 . S
H2360 C2370 0.950 . S
H2361 C2372 0.950 . S
H2362 C2374 0.950 . S
H2363 C2375 0.950 . S
C2364 H2356 0.950 . S
C2364 C2365 1.386 . S
C2364 C2366 1.391 . S
C2365 C2364 1.386 . S
C2365 C2369 1.393 . S
C2366 H2358 0.950 . S
C2366 C2364 1.391 . S
C2366 C2367 1.400 . S
C2367 C2366 1.400 . S
C2367 C2368 1.398 . S
C2367 C2373 1.491 . S
C2368 H2359 0.950 . S
C2368 C2367 1.398 . S
C2368 C2369 1.391 . S
C2369 H2357 0.950 . S
C2369 C2365 1.393 . S
C2369 C2368 1.391 . S
C2370 H2360 0.950 . S
C2370 C2371 1.386 . S
C2370 C2372 1.391 . S
C2371 C2370 1.386 . S
C2371 C2375 1.393 . S
C2372 H2361 0.950 . S
C2372 C2370 1.391 . S
C2372 C2373 1.400 . S
C2373 C2367 1.491 . S
C2373 C2372 1.400 . S
C2373 C2374 1.398 . S
C2374 H2362 0.950 . S
C2374 C2373 1.398 . S
C2374 C2375 1.391 . S
C2375 H2363 0.950 . S
C2375 C2371 1.393 . S
C2375 C2374 1.391 . S
H2376 C2384 0.950 . S
H2377 C2389 0.950 . S
H2378 C2386 0.950 . S
H2379 C2388 0.950 . S
H2380 C2390 0.950 . S
H2381 C2392 0.950 . S
H2382 C2394 0.950 . S
H2383 C2395 0.950 1_455 S
C2384 H2376 0.950 . S
C2384 C2385 1.386 . S
C2384 C2386 1.391 . S
C2385 C2384 1.386 . S
C2385 C2389 1.393 . S
C2386 H2378 0.950 . S
C2386 C2384 1.391 . S
C2386 C2387 1.400 . S
C2387 C2386 1.400 . S
C2387 C2388 1.398 . S
C2387 C2393 1.491 . S
C2388 H2379 0.950 . S
C2388 C2387 1.398 . S
C2388 C2389 1.391 . S
C2389 H2377 0.950 . S
C2389 C2385 1.393 . S
C2389 C2388 1.391 . S
C2390 H2380 0.950 . S
C2390 C2391 1.386 . S
C2390 C2392 1.391 . S
C2391 C2390 1.386 . S
C2391 C2395 1.393 . S
C2392 H2381 0.950 . S
C2392 C2390 1.391 . S
C2392 C2393 1.400 . S
C2393 C2387 1.491 . S
C2393 C2392 1.400 . S
C2393 C2394 1.398 . S
C2394 H2382 0.950 . S
C2394 C2393 1.398 . S
C2394 C2395 1.391 . S
C2395 H2383 0.950 1_655 S
C2395 C2391 1.393 . S
C2395 C2394 1.391 . S
H2396 C2404 0.950 . S
H2397 C2409 0.950 . S
H2398 C2406 0.950 . S
H2399 C2408 0.950 . S
H2400 C2410 0.950 . S
H2401 C2412 0.950 . S
H2402 C2414 0.950 . S
H2403 C2415 0.950 . S
C2404 H2396 0.950 . S
C2404 C2405 1.386 . S
C2404 C2406 1.391 . S
C2405 C2404 1.386 . S
C2405 C2409 1.393 . S
C2406 H2398 0.950 . S
C2406 C2404 1.391 . S
C2406 C2407 1.400 . S
C2407 C2406 1.400 . S
C2407 C2408 1.398 . S
C2407 C2413 1.491 . S
C2408 H2399 0.950 . S
C2408 C2407 1.398 . S
C2408 C2409 1.391 . S
C2409 H2397 0.950 . S
C2409 C2405 1.393 . S
C2409 C2408 1.391 . S
C2410 H2400 0.950 . S
C2410 C2411 1.386 . S
C2410 C2412 1.391 . S
C2411 C2410 1.386 . S
C2411 C2415 1.393 . S
C2412 H2401 0.950 . S
C2412 C2410 1.391 . S
C2412 C2413 1.400 . S
C2413 C2407 1.491 . S
C2413 C2412 1.400 . S
C2413 C2414 1.398 . S
C2414 H2402 0.950 . S
C2414 C2413 1.398 . S
C2414 C2415 1.391 . S
C2415 H2403 0.950 . S
C2415 C2411 1.393 . S
C2415 C2414 1.391 . S
H2416 C2424 0.950 . S
H2417 C2429 0.950 . S
H2418 C2426 0.950 . S
H2419 C2428 0.950 . S
H2420 C2430 0.950 . S
H2421 C2432 0.950 . S
H2422 C2434 0.950 . S
H2423 C2435 0.950 . S
C2424 H2416 0.950 . S
C2424 C2425 1.386 . S
C2424 C2426 1.391 . S
C2425 C2424 1.386 . S
C2425 C2429 1.393 . S
C2426 H2418 0.950 . S
C2426 C2424 1.391 . S
C2426 C2427 1.400 . S
C2427 C2426 1.400 . S
C2427 C2428 1.398 . S
C2427 C2433 1.491 . S
C2428 H2419 0.950 . S
C2428 C2427 1.398 . S
C2428 C2429 1.391 . S
C2429 H2417 0.950 . S
C2429 C2425 1.393 . S
C2429 C2428 1.391 . S
C2430 H2420 0.950 . S
C2430 C2431 1.386 . S
C2430 C2432 1.391 . S
C2431 C2430 1.386 . S
C2431 C2435 1.393 . S
C2432 H2421 0.950 . S
C2432 C2430 1.391 . S
C2432 C2433 1.400 . S
C2433 C2427 1.491 . S
C2433 C2432 1.400 . S
C2433 C2434 1.398 . S
C2434 H2422 0.950 . S
C2434 C2433 1.398 . S
C2434 C2435 1.391 . S
C2435 H2423 0.950 . S
C2435 C2431 1.393 . S
C2435 C2434 1.391 . S
H2436 C2444 0.950 . S
H2437 C2449 0.950 . S
H2438 C2446 0.950 . S
H2439 C2448 0.950 . S
H2440 C2450 0.950 . S
H2441 C2452 0.950 . S
H2442 C2454 0.950 . S
H2443 C2455 0.940 1_545 S
C2444 H2436 0.950 . S
C2444 C2445 1.386 . S
C2444 C2446 1.391 . S
C2445 C2444 1.386 . S
C2445 C2449 1.393 . S
C2446 H2438 0.950 . S
C2446 C2444 1.391 . S
C2446 C2447 1.400 . S
C2447 C2446 1.400 . S
C2447 C2448 1.398 . S
C2447 C2453 1.491 . S
C2448 H2439 0.950 . S
C2448 C2447 1.398 . S
C2448 C2449 1.391 . S
C2449 H2437 0.950 . S
C2449 C2445 1.393 . S
C2449 C2448 1.391 . S
C2450 H2440 0.950 . S
C2450 C2451 1.386 . S
C2450 C2452 1.391 . S
C2451 C2450 1.386 . S
C2451 C2455 1.394 . S
C2452 H2441 0.950 . S
C2452 C2450 1.391 . S
C2452 C2453 1.400 . S
C2453 C2447 1.491 . S
C2453 C2452 1.400 . S
C2453 C2454 1.398 . S
C2454 H2442 0.950 . S
C2454 C2453 1.398 . S
C2454 C2455 1.400 . S
C2455 H2443 0.940 1_565 S
C2455 C2451 1.394 . S
C2455 C2454 1.400 . S
H2456 C2464 0.950 . S
H2457 C2469 0.950 . S
H2458 C2466 0.950 . S
H2459 C2468 0.950 . S
H2460 C2470 0.950 . S
H2461 C2472 0.950 . S
H2462 C2474 0.950 . S
H2463 C2475 0.950 . S
C2464 H2456 0.950 . S
C2464 C2465 1.386 . S
C2464 C2466 1.391 . S
C2465 C2464 1.386 . S
C2465 C2469 1.393 . S
C2466 H2458 0.950 . S
C2466 C2464 1.391 . S
C2466 C2467 1.400 . S
C2467 C2466 1.400 . S
C2467 C2468 1.398 . S
C2467 C2473 1.491 . S
C2468 H2459 0.950 . S
C2468 C2467 1.398 . S
C2468 C2469 1.391 . S
C2469 H2457 0.950 . S
C2469 C2465 1.393 . S
C2469 C2468 1.391 . S
C2470 H2460 0.950 . S
C2470 C2471 1.386 . S
C2470 C2472 1.391 . S
C2471 C2470 1.386 . S
C2471 C2475 1.393 . S
C2472 H2461 0.950 . S
C2472 C2470 1.391 . S
C2472 C2473 1.400 . S
C2473 C2467 1.491 . S
C2473 C2472 1.400 . S
C2473 C2474 1.398 . S
C2474 H2462 0.950 . S
C2474 C2473 1.398 . S
C2474 C2475 1.391 . S
C2475 H2463 0.950 . S
C2475 C2471 1.393 . S
C2475 C2474 1.391 . S
H2476 C2484 0.950 . S
H2477 C2489 0.950 . S
H2478 C2486 0.950 . S
H2479 C2488 0.950 . S
H2480 C2490 0.950 . S
H2481 C2492 0.950 . S
H2482 C2494 0.950 . S
H2483 C2495 0.950 . S
C2484 H2476 0.950 . S
C2484 C2485 1.374 1_554 S
C2484 C2486 1.391 . S
C2485 C2484 1.374 1_556 S
C2485 C2489 1.402 . S
C2486 H2478 0.950 . S
C2486 C2484 1.391 . S
C2486 C2487 1.400 . S
C2487 C2486 1.400 . S
C2487 C2488 1.398 1_554 S
C2487 C2493 1.491 . S
C2488 H2479 0.950 . S
C2488 C2487 1.398 1_556 S
C2488 C2489 1.391 . S
C2489 H2477 0.950 . S
C2489 C2485 1.402 . S
C2489 C2488 1.391 . S
C2490 H2480 0.950 . S
C2490 C2491 1.386 1_556 S
C2490 C2492 1.391 . S
C2491 C2490 1.386 1_554 S
C2491 C2495 1.393 . S
C2492 H2481 0.950 . S
C2492 C2490 1.391 . S
C2492 C2493 1.400 1_556 S
C2493 C2487 1.491 . S
C2493 C2492 1.400 1_554 S
C2493 C2494 1.398 . S
C2494 H2482 0.950 . S
C2494 C2493 1.398 . S
C2494 C2495 1.391 . S
C2495 H2483 0.950 . S
C2495 C2491 1.393 . S
C2495 C2494 1.391 . S
H2496 C2504 0.950 . S
H2497 C2509 0.950 . S
H2498 C2506 0.950 . S
H2499 C2508 0.950 . S
H2500 C2510 0.950 . S
H2501 C2512 0.950 . S
H2502 C2514 0.950 . S
H2503 C2515 0.950 . S
C2504 H2496 0.950 . S
C2504 C2505 1.386 . S
C2504 C2506 1.391 . S
C2505 C2504 1.386 . S
C2505 C2509 1.393 . S
C2506 H2498 0.950 . S
C2506 C2504 1.391 . S
C2506 C2507 1.400 . S
C2507 C2506 1.400 . S
C2507 C2508 1.398 . S
C2507 C2513 1.491 . S
C2508 H2499 0.950 . S
C2508 C2507 1.398 . S
C2508 C2509 1.391 . S
C2509 H2497 0.950 . S
C2509 C2505 1.393 . S
C2509 C2508 1.391 . S
C2510 H2500 0.950 . S
C2510 C2511 1.386 . S
C2510 C2512 1.391 . S
C2511 C2510 1.386 . S
C2511 C2515 1.393 . S
C2512 H2501 0.950 . S
C2512 C2510 1.391 . S
C2512 C2513 1.400 . S
C2513 C2507 1.491 . S
C2513 C2512 1.400 . S
C2513 C2514 1.398 . S
C2514 H2502 0.950 . S
C2514 C2513 1.398 . S
C2514 C2515 1.391 . S
C2515 H2503 0.950 . S
C2515 C2511 1.393 . S
C2515 C2514 1.391 . S
H2516 C2524 0.950 . S
H2517 C2529 0.950 . S
H2518 C2526 0.950 . S
H2519 C2528 0.950 . S
H2520 C2530 0.951 1_554 S
H2521 C2532 0.950 . S
H2522 C2534 0.950 . S
H2523 C2535 0.950 . S
C2524 H2516 0.950 . S
C2524 C2525 1.386 1_556 S
C2524 C2526 1.391 . S
C2525 C2524 1.386 1_554 S
C2525 C2529 1.393 . S
C2526 H2518 0.950 . S
C2526 C2524 1.391 . S
C2526 C2527 1.414 . S
C2527 C2526 1.414 . S
C2527 C2528 1.379 1_556 S
C2527 C2533 1.497 . S
C2528 H2519 0.950 . S
C2528 C2527 1.379 1_554 S
C2528 C2529 1.391 . S
C2529 H2517 0.950 . S
C2529 C2525 1.393 . S
C2529 C2528 1.391 . S
C2530 H2520 0.951 1_556 S
C2530 C2531 1.384 . S
C2530 C2532 1.392 1_556 S
C2531 C2530 1.384 . S
C2531 C2535 1.393 . S
C2532 H2521 0.950 . S
C2532 C2530 1.392 1_554 S
C2532 C2533 1.400 1_554 S
C2533 C2527 1.497 . S
C2533 C2532 1.400 1_556 S
C2533 C2534 1.398 . S
C2534 H2522 0.950 . S
C2534 C2533 1.398 . S
C2534 C2535 1.391 . S
C2535 H2523 0.950 . S
C2535 C2531 1.393 . S
C2535 C2534 1.391 . S
H2536 C2544 0.950 . S
H2537 C2549 0.950 . S
H2538 C2546 0.950 . S
H2539 C2548 0.950 . S
H2540 C2550 0.950 . S
H2541 C2552 0.950 . S
H2542 C2554 0.950 . S
H2543 C2555 0.950 . S
C2544 H2536 0.950 . S
C2544 C2545 1.386 . S
C2544 C2546 1.391 . S
C2545 C2544 1.386 . S
C2545 C2549 1.393 . S
C2546 H2538 0.950 . S
C2546 C2544 1.391 . S
C2546 C2547 1.400 . S
C2547 C2546 1.400 . S
C2547 C2548 1.398 . S
C2547 C2553 1.491 . S
C2548 H2539 0.950 . S
C2548 C2547 1.398 . S
C2548 C2549 1.391 . S
C2549 H2537 0.950 . S
C2549 C2545 1.393 . S
C2549 C2548 1.391 . S
C2550 H2540 0.950 . S
C2550 C2551 1.386 . S
C2550 C2552 1.391 . S
C2551 C2550 1.386 . S
C2551 C2555 1.393 . S
C2552 H2541 0.950 . S
C2552 C2550 1.391 . S
C2552 C2553 1.400 . S
C2553 C2547 1.491 . S
C2553 C2552 1.400 . S
C2553 C2554 1.398 . S
C2554 H2542 0.950 . S
C2554 C2553 1.398 . S
C2554 C2555 1.391 . S
C2555 H2543 0.950 . S
C2555 C2551 1.393 . S
C2555 C2554 1.391 . S
H2556 C2564 0.950 . S
H2557 C2569 0.950 . S
H2558 C2566 0.950 . S
H2559 C2568 0.950 . S
H2560 C2570 0.950 . S
H2561 C2572 0.950 . S
H2562 C2574 0.950 . S
H2563 C2575 0.950 . S
C2564 H2556 0.950 . S
C2564 C2565 1.386 . S
C2564 C2566 1.391 . S
C2565 C2564 1.386 . S
C2565 C2569 1.393 . S
C2566 H2558 0.950 . S
C2566 C2564 1.391 . S
C2566 C2567 1.400 . S
C2567 C2566 1.400 . S
C2567 C2568 1.398 . S
C2567 C2573 1.491 . S
C2568 H2559 0.950 . S
C2568 C2567 1.398 . S
C2568 C2569 1.391 . S
C2569 H2557 0.950 . S
C2569 C2565 1.393 . S
C2569 C2568 1.391 . S
C2570 H2560 0.950 . S
C2570 C2571 1.386 . S
C2570 C2572 1.391 . S
C2571 C2570 1.386 . S
C2571 C2575 1.393 . S
C2572 H2561 0.950 . S
C2572 C2570 1.391 . S
C2572 C2573 1.400 . S
C2573 C2567 1.491 . S
C2573 C2572 1.400 . S
C2573 C2574 1.398 . S
C2574 H2562 0.950 . S
C2574 C2573 1.398 . S
C2574 C2575 1.391 . S
C2575 H2563 0.950 . S
C2575 C2571 1.393 . S
C2575 C2574 1.391 . S
C665 C109 1.473 . S
C671 C354 1.435 . S
C685 C61 1.298 . S
C691 C365 1.529 . S
C705 C74 0.979 . S
C711 C394 0.988 . S
C731 C397 1.444 . S
C725 C96 1.461 . S
C745 C25 1.503 . S
C751 C435 1.456 . S
C771 C438 0.914 . S
C765 C40 0.901 . S
C791 C465 1.506 . S
C785 C46 1.501 . S
C805 C5 1.306 . S
C811 C494 1.555 . S
C831 C345 1.395 1_655 S
C825 C229 1.159 . S
C845 C249 0.826 . S
C851 C357 0.797 . S
C871 C385 1.441 . S
C865 C271 1.227 . S
C891 C414 1.201 . S
C885 C172 1.183 . S
C905 C236 0.956 . S
C911 C418 0.952 . S
C931 C444 1.746 . S
C925 C242 1.753 . S
C951 C457 0.665 . S
C945 C278 0.663 . S
C971 C485 1.619 . S
C965 C179 1.625 . S
C991 C337 1.460 1_565 S
C985 C159 1.202 . S
C1005 C285 1.419 1_554 S
C1011 C504 1.615 . S
C1031 C535 1.398 . S
C1025 C333 1.426 . S
C1051 C554 0.902 . S
C1045 C320 0.905 . S
C1065 C123 1.286 . S
C1071 C477 1.259 . S
C1085 C138 1.484 . S
C1091 C377 1.459 . S
C1105 C326 1.656 . S
C1111 C565 1.642 . S
C1131 C594 0.898 . S
C1125 C298 0.900 . S
C1151 C355 1.433 . S
C1145 C67 1.440 . S
C1171 C584 1.485 . S
C1165 C110 1.492 . S
C1185 C88 0.995 . S
C1191 C395 0.986 . S
C1205 C75 1.197 . S
C1211 C558 1.361 . S
C1231 C434 1.404 1_655 S
C1225 C11 1.446 . S
C1245 C47 0.868 . S
C1251 C517 0.913 . S
C1271 C464 1.390 1_556 S
C1265 C32 1.360 . S
C1291 C615 1.590 . S
C1285 C26 1.638 . S
C1311 C344 1.509 . S
C1305 C152 1.514 . S
C1331 C578 0.815 . S
C1325 C319 0.822 . S
C1345 C124 1.435 . S
C1351 C384 1.421 . S
C1365 C284 1.205 . S
C1371 C575 1.206 . S
C1385 C145 0.849 . S
C1391 C417 0.931 . S
C1411 C525 1.665 . S
C1405 C312 1.650 . S
C1425 C117 0.704 . S
C1431 C458 0.537 . S
C1445 C291 1.556 . S
C1451 C604 1.547 . S
C1465 C194 1.519 1_556 S
C1471 C338 1.495 . S
C1485 C180 1.625 . S
C1491 C505 1.606 . S
C1505 C263 1.332 . S
C1511 C454 1.306 . S
C1525 C243 0.806 . S
C1531 C555 0.822 . S
C1551 C598 1.290 . S
C1545 C277 1.282 . S
C1565 C215 1.238 . S
C1571 C378 1.444 . S
C1591 C404 1.556 . S
C1585 C256 1.539 . S
C1611 C375 0.950 . S
C1605 C200 0.971 . S
C1625 C81 1.475 . S
C1631 C634 1.431 . S
C1651 C585 1.525 . S
C1645 C89 1.300 . S
C1665 C102 0.954 . S
C1671 C654 0.985 . S
C1685 C68 1.458 . S
C1691 C557 1.441 . S
C1705 C53 1.502 . S
C1711 C515 1.458 . S
C1731 C518 0.914 . S
C1725 C12 0.900 . S
C1751 C545 1.497 . S
C1745 C18 1.508 1_455 S
C1771 C614 1.554 . S
C1765 C33 1.306 . S
C1791 C625 1.393 . S
C1785 C257 1.159 . S
C1805 C193 0.826 . S
C1811 C577 0.799 . S
C1831 C645 1.434 . S
C1825 C201 1.243 . S
C1851 C574 1.205 . S
C1845 C214 1.149 . S
C1871 C498 0.951 . S
C1865 C264 0.940 . S
C1885 C186 1.744 . S
C1891 C524 1.753 . S
C1911 C537 0.688 . S
C1905 C208 0.668 . S
C1925 C221 1.614 . S
C1931 C605 1.628 . S
C1951 C617 1.467 . S
C1945 C313 1.256 . S
C1965 C131 1.390 . S
C1971 C424 1.624 . S
C1991 C455 1.385 . S
C1985 C151 1.441 . S
C2011 C474 0.901 . S
C2005 C166 0.910 . S
C2031 C597 1.256 . S
C2025 C305 1.287 . S
C2045 C292 1.487 . S
C2051 C637 1.467 . S
C2071 C405 1.653 . S
C2065 C144 1.650 . S
C2091 C374 0.916 . S
C2085 C116 0.888 . S
C2105 C95 1.439 . S
C2111 C635 1.434 . S
C2131 C364 1.484 . S
C2125 C82 1.494 . S
C2145 C60 0.995 . S
C2151 C655 0.975 . S
C2165 C103 1.198 . S
C2171 C398 1.362 . S
C2185 C39 1.456 . S
C2191 C514 1.418 . S
C2211 C437 0.903 . S
C2205 C19 0.821 . S
C2225 C4 1.365 . S
C2231 C544 1.403 . S
C2245 C54 1.640 . S
C2251 C495 1.571 . S
C2271 C624 1.511 . S
C2265 C334 1.513 . S
C2285 C165 0.828 . S
C2291 C358 0.839 . S
C2311 C644 1.420 1_655 S
C2305 C306 1.435 . S
C2325 C130 1.218 . S
C2331 C415 1.212 . S
C2345 C327 0.897 . S
C2351 C497 0.941 . S
C2371 C445 1.651 . S
C2365 C158 1.633 . S
C2385 C299 0.695 . S
C2391 C538 0.541 . S
C2411 C484 1.552 . S
C2405 C137 1.553 . S
C2431 C618 1.489 . S
C2425 C250 1.517 . S
C2451 C425 1.606 1_565 S
C2445 C222 1.625 . S
C2465 C235 1.312 . S
C2471 C534 1.280 . S
C2491 C475 0.845 . S
C2485 C187 0.833 . S
C2505 C207 1.265 . S
C2511 C478 1.275 . S
C2525 C173 1.279 . S
C2531 C638 1.431 . S
C2551 C564 1.560 . S
C2545 C228 1.516 1_565 S
C2571 C595 0.953 . S
C2565 C270 0.970 . S
