# Generated by pormake.
# Topology tbo, (3,4)-cn, num edge types: 1
# Building blocks:
#     Node 0, Type 0, BuildingBlock: WUSLED_clean_sbu_0, # of connection points: 3
#     Node 1, Type 0, BuildingBlock: WUSLED_clean_sbu_0, # of connection points: 3
#     Node 2, Type 0, BuildingBlock: WUSLED_clean_sbu_0, # of connection points: 3
#     Node 3, Type 0, BuildingBlock: WUSLED_clean_sbu_0, # of connection points: 3
#     Node 4, Type 0, BuildingBlock: WUSLED_clean_sbu_0, # of connection points: 3
#     Node 5, Type 0, BuildingBlock: WUSLED_clean_sbu_0, # of connection points: 3
#     Node 6, Type 0, BuildingBlock: WUSLED_clean_sbu_0, # of connection points: 3
#     Node 7, Type 0, BuildingBlock: WUSLED_clean_sbu_0, # of connection points: 3
#     Node 8, Type 0, BuildingBlock: WUSLED_clean_sbu_0, # of connection points: 3
#     Node 9, Type 0, BuildingBlock: WUSLED_clean_sbu_0, # of connection points: 3
#     Node 10, Type 0, BuildingBlock: WUSLED_clean_sbu_0, # of connection points: 3
#     Node 11, Type 0, BuildingBlock: WUSLED_clean_sbu_0, # of connection points: 3
#     Node 12, Type 0, BuildingBlock: WUSLED_clean_sbu_0, # of connection points: 3
#     Node 13, Type 0, BuildingBlock: WUSLED_clean_sbu_0, # of connection points: 3
#     Node 14, Type 0, BuildingBlock: WUSLED_clean_sbu_0, # of connection points: 3
#     Node 15, Type 0, BuildingBlock: WUSLED_clean_sbu_0, # of connection points: 3
#     Node 16, Type 0, BuildingBlock: WUSLED_clean_sbu_0, # of connection points: 3
#     Node 17, Type 0, BuildingBlock: WUSLED_clean_sbu_0, # of connection points: 3
#     Node 18, Type 0, BuildingBlock: WUSLED_clean_sbu_0, # of connection points: 3
#     Node 19, Type 0, BuildingBlock: WUSLED_clean_sbu_0, # of connection points: 3
#     Node 20, Type 0, BuildingBlock: WUSLED_clean_sbu_0, # of connection points: 3
#     Node 21, Type 0, BuildingBlock: WUSLED_clean_sbu_0, # of connection points: 3
#     Node 22, Type 0, BuildingBlock: WUSLED_clean_sbu_0, # of connection points: 3
#     Node 23, Type 0, BuildingBlock: WUSLED_clean_sbu_0, # of connection points: 3
#     Node 24, Type 0, BuildingBlock: WUSLED_clean_sbu_0, # of connection points: 3
#     Node 25, Type 0, BuildingBlock: WUSLED_clean_sbu_0, # of connection points: 3
#     Node 26, Type 0, BuildingBlock: WUSLED_clean_sbu_0, # of connection points: 3
#     Node 27, Type 0, BuildingBlock: WUSLED_clean_sbu_0, # of connection points: 3
#     Node 28, Type 0, BuildingBlock: WUSLED_clean_sbu_0, # of connection points: 3
#     Node 29, Type 0, BuildingBlock: WUSLED_clean_sbu_0, # of connection points: 3
#     Node 30, Type 0, BuildingBlock: WUSLED_clean_sbu_0, # of connection points: 3
#     Node 31, Type 0, BuildingBlock: WUSLED_clean_sbu_0, # of connection points: 3
#     Node 32, Type 1, BuildingBlock: ESEHIV_clean_sbu_0, # of connection points: 4
#     Node 33, Type 1, BuildingBlock: ESEHIV_clean_sbu_0, # of connection points: 4
#     Node 34, Type 1, BuildingBlock: ESEHIV_clean_sbu_0, # of connection points: 4
#     Node 35, Type 1, BuildingBlock: ESEHIV_clean_sbu_0, # of connection points: 4
#     Node 36, Type 1, BuildingBlock: ESEHIV_clean_sbu_0, # of connection points: 4
#     Node 37, Type 1, BuildingBlock: ESEHIV_clean_sbu_0, # of connection points: 4
#     Node 38, Type 1, BuildingBlock: ESEHIV_clean_sbu_0, # of connection points: 4
#     Node 39, Type 1, BuildingBlock: ESEHIV_clean_sbu_0, # of connection points: 4
#     Node 40, Type 1, BuildingBlock: ESEHIV_clean_sbu_0, # of connection points: 4
#     Node 41, Type 1, BuildingBlock: ESEHIV_clean_sbu_0, # of connection points: 4
#     Node 42, Type 1, BuildingBlock: ESEHIV_clean_sbu_0, # of connection points: 4
#     Node 43, Type 1, BuildingBlock: ESEHIV_clean_sbu_0, # of connection points: 4
#     Node 44, Type 1, BuildingBlock: ESEHIV_clean_sbu_0, # of connection points: 4
#     Node 45, Type 1, BuildingBlock: ESEHIV_clean_sbu_0, # of connection points: 4
#     Node 46, Type 1, BuildingBlock: ESEHIV_clean_sbu_0, # of connection points: 4
#     Node 47, Type 1, BuildingBlock: ESEHIV_clean_sbu_0, # of connection points: 4
#     Node 48, Type 1, BuildingBlock: ESEHIV_clean_sbu_0, # of connection points: 4
#     Node 49, Type 1, BuildingBlock: ESEHIV_clean_sbu_0, # of connection points: 4
#     Node 50, Type 1, BuildingBlock: ESEHIV_clean_sbu_0, # of connection points: 4
#     Node 51, Type 1, BuildingBlock: ESEHIV_clean_sbu_0, # of connection points: 4
#     Node 52, Type 1, BuildingBlock: ESEHIV_clean_sbu_0, # of connection points: 4
#     Node 53, Type 1, BuildingBlock: ESEHIV_clean_sbu_0, # of connection points: 4
#     Node 54, Type 1, BuildingBlock: ESEHIV_clean_sbu_0, # of connection points: 4
#     Node 55, Type 1, BuildingBlock: ESEHIV_clean_sbu_0, # of connection points: 4
#     Edge 56, Type (0, 1), BuildingBlock: OJICUG_clean_linker_0, # of connection points: 2
#     Edge 57, Type (0, 1), BuildingBlock: OJICUG_clean_linker_0, # of connection points: 2
#     Edge 58, Type (0, 1), BuildingBlock: OJICUG_clean_linker_0, # of connection points: 2
#     Edge 59, Type (0, 1), BuildingBlock: OJICUG_clean_linker_0, # of connection points: 2
#     Edge 60, Type (0, 1), BuildingBlock: OJICUG_clean_linker_0, # of connection points: 2
#     Edge 61, Type (0, 1), BuildingBlock: OJICUG_clean_linker_0, # of connection points: 2
#     Edge 62, Type (0, 1), BuildingBlock: OJICUG_clean_linker_0, # of connection points: 2
#     Edge 63, Type (0, 1), BuildingBlock: OJICUG_clean_linker_0, # of connection points: 2
#     Edge 64, Type (0, 1), BuildingBlock: OJICUG_clean_linker_0, # of connection points: 2
#     Edge 65, Type (0, 1), BuildingBlock: OJICUG_clean_linker_0, # of connection points: 2
#     Edge 66, Type (0, 1), BuildingBlock: OJICUG_clean_linker_0, # of connection points: 2
#     Edge 67, Type (0, 1), BuildingBlock: OJICUG_clean_linker_0, # of connection points: 2
#     Edge 68, Type (0, 1), BuildingBlock: OJICUG_clean_linker_0, # of connection points: 2
#     Edge 69, Type (0, 1), BuildingBlock: OJICUG_clean_linker_0, # of connection points: 2
#     Edge 70, Type (0, 1), BuildingBlock: OJICUG_clean_linker_0, # of connection points: 2
#     Edge 71, Type (0, 1), BuildingBlock: OJICUG_clean_linker_0, # of connection points: 2
#     Edge 72, Type (0, 1), BuildingBlock: OJICUG_clean_linker_0, # of connection points: 2
#     Edge 73, Type (0, 1), BuildingBlock: OJICUG_clean_linker_0, # of connection points: 2
#     Edge 74, Type (0, 1), BuildingBlock: OJICUG_clean_linker_0, # of connection points: 2
#     Edge 75, Type (0, 1), BuildingBlock: OJICUG_clean_linker_0, # of connection points: 2
#     Edge 76, Type (0, 1), BuildingBlock: OJICUG_clean_linker_0, # of connection points: 2
#     Edge 77, Type (0, 1), BuildingBlock: OJICUG_clean_linker_0, # of connection points: 2
#     Edge 78, Type (0, 1), BuildingBlock: OJICUG_clean_linker_0, # of connection points: 2
#     Edge 79, Type (0, 1), BuildingBlock: OJICUG_clean_linker_0, # of connection points: 2
#     Edge 80, Type (0, 1), BuildingBlock: OJICUG_clean_linker_0, # of connection points: 2
#     Edge 81, Type (0, 1), BuildingBlock: OJICUG_clean_linker_0, # of connection points: 2
#     Edge 82, Type (0, 1), BuildingBlock: OJICUG_clean_linker_0, # of connection points: 2
#     Edge 83, Type (0, 1), BuildingBlock: OJICUG_clean_linker_0, # of connection points: 2
#     Edge 84, Type (0, 1), BuildingBlock: OJICUG_clean_linker_0, # of connection points: 2
#     Edge 85, Type (0, 1), BuildingBlock: OJICUG_clean_linker_0, # of connection points: 2
#     Edge 86, Type (0, 1), BuildingBlock: OJICUG_clean_linker_0, # of connection points: 2
#     Edge 87, Type (0, 1), BuildingBlock: OJICUG_clean_linker_0, # of connection points: 2
#     Edge 88, Type (0, 1), BuildingBlock: OJICUG_clean_linker_0, # of connection points: 2
#     Edge 89, Type (0, 1), BuildingBlock: OJICUG_clean_linker_0, # of connection points: 2
#     Edge 90, Type (0, 1), BuildingBlock: OJICUG_clean_linker_0, # of connection points: 2
#     Edge 91, Type (0, 1), BuildingBlock: OJICUG_clean_linker_0, # of connection points: 2
#     Edge 92, Type (0, 1), BuildingBlock: OJICUG_clean_linker_0, # of connection points: 2
#     Edge 93, Type (0, 1), BuildingBlock: OJICUG_clean_linker_0, # of connection points: 2
#     Edge 94, Type (0, 1), BuildingBlock: OJICUG_clean_linker_0, # of connection points: 2
#     Edge 95, Type (0, 1), BuildingBlock: OJICUG_clean_linker_0, # of connection points: 2
#     Edge 96, Type (0, 1), BuildingBlock: OJICUG_clean_linker_0, # of connection points: 2
#     Edge 97, Type (0, 1), BuildingBlock: OJICUG_clean_linker_0, # of connection points: 2
#     Edge 98, Type (0, 1), BuildingBlock: OJICUG_clean_linker_0, # of connection points: 2
#     Edge 99, Type (0, 1), BuildingBlock: OJICUG_clean_linker_0, # of connection points: 2
#     Edge 100, Type (0, 1), BuildingBlock: OJICUG_clean_linker_0, # of connection points: 2
#     Edge 101, Type (0, 1), BuildingBlock: OJICUG_clean_linker_0, # of connection points: 2
#     Edge 102, Type (0, 1), BuildingBlock: OJICUG_clean_linker_0, # of connection points: 2
#     Edge 103, Type (0, 1), BuildingBlock: OJICUG_clean_linker_0, # of connection points: 2
#     Edge 104, Type (0, 1), BuildingBlock: OJICUG_clean_linker_0, # of connection points: 2
#     Edge 105, Type (0, 1), BuildingBlock: OJICUG_clean_linker_0, # of connection points: 2
#     Edge 106, Type (0, 1), BuildingBlock: OJICUG_clean_linker_0, # of connection points: 2
#     Edge 107, Type (0, 1), BuildingBlock: OJICUG_clean_linker_0, # of connection points: 2
#     Edge 108, Type (0, 1), BuildingBlock: OJICUG_clean_linker_0, # of connection points: 2
#     Edge 109, Type (0, 1), BuildingBlock: OJICUG_clean_linker_0, # of connection points: 2
#     Edge 110, Type (0, 1), BuildingBlock: OJICUG_clean_linker_0, # of connection points: 2
#     Edge 111, Type (0, 1), BuildingBlock: OJICUG_clean_linker_0, # of connection points: 2
#     Edge 112, Type (0, 1), BuildingBlock: OJICUG_clean_linker_0, # of connection points: 2
#     Edge 113, Type (0, 1), BuildingBlock: OJICUG_clean_linker_0, # of connection points: 2
#     Edge 114, Type (0, 1), BuildingBlock: OJICUG_clean_linker_0, # of connection points: 2
#     Edge 115, Type (0, 1), BuildingBlock: OJICUG_clean_linker_0, # of connection points: 2
#     Edge 116, Type (0, 1), BuildingBlock: OJICUG_clean_linker_0, # of connection points: 2
#     Edge 117, Type (0, 1), BuildingBlock: OJICUG_clean_linker_0, # of connection points: 2
#     Edge 118, Type (0, 1), BuildingBlock: OJICUG_clean_linker_0, # of connection points: 2
#     Edge 119, Type (0, 1), BuildingBlock: OJICUG_clean_linker_0, # of connection points: 2
#     Edge 120, Type (0, 1), BuildingBlock: OJICUG_clean_linker_0, # of connection points: 2
#     Edge 121, Type (0, 1), BuildingBlock: OJICUG_clean_linker_0, # of connection points: 2
#     Edge 122, Type (0, 1), BuildingBlock: OJICUG_clean_linker_0, # of connection points: 2
#     Edge 123, Type (0, 1), BuildingBlock: OJICUG_clean_linker_0, # of connection points: 2
#     Edge 124, Type (0, 1), BuildingBlock: OJICUG_clean_linker_0, # of connection points: 2
#     Edge 125, Type (0, 1), BuildingBlock: OJICUG_clean_linker_0, # of connection points: 2
#     Edge 126, Type (0, 1), BuildingBlock: OJICUG_clean_linker_0, # of connection points: 2
#     Edge 127, Type (0, 1), BuildingBlock: OJICUG_clean_linker_0, # of connection points: 2
#     Edge 128, Type (0, 1), BuildingBlock: OJICUG_clean_linker_0, # of connection points: 2
#     Edge 129, Type (0, 1), BuildingBlock: OJICUG_clean_linker_0, # of connection points: 2
#     Edge 130, Type (0, 1), BuildingBlock: OJICUG_clean_linker_0, # of connection points: 2
#     Edge 131, Type (0, 1), BuildingBlock: OJICUG_clean_linker_0, # of connection points: 2
#     Edge 132, Type (0, 1), BuildingBlock: OJICUG_clean_linker_0, # of connection points: 2
#     Edge 133, Type (0, 1), BuildingBlock: OJICUG_clean_linker_0, # of connection points: 2
#     Edge 134, Type (0, 1), BuildingBlock: OJICUG_clean_linker_0, # of connection points: 2
#     Edge 135, Type (0, 1), BuildingBlock: OJICUG_clean_linker_0, # of connection points: 2
#     Edge 136, Type (0, 1), BuildingBlock: OJICUG_clean_linker_0, # of connection points: 2
#     Edge 137, Type (0, 1), BuildingBlock: OJICUG_clean_linker_0, # of connection points: 2
#     Edge 138, Type (0, 1), BuildingBlock: OJICUG_clean_linker_0, # of connection points: 2
#     Edge 139, Type (0, 1), BuildingBlock: OJICUG_clean_linker_0, # of connection points: 2
#     Edge 140, Type (0, 1), BuildingBlock: OJICUG_clean_linker_0, # of connection points: 2
#     Edge 141, Type (0, 1), BuildingBlock: OJICUG_clean_linker_0, # of connection points: 2
#     Edge 142, Type (0, 1), BuildingBlock: OJICUG_clean_linker_0, # of connection points: 2
#     Edge 143, Type (0, 1), BuildingBlock: OJICUG_clean_linker_0, # of connection points: 2
#     Edge 144, Type (0, 1), BuildingBlock: OJICUG_clean_linker_0, # of connection points: 2
#     Edge 145, Type (0, 1), BuildingBlock: OJICUG_clean_linker_0, # of connection points: 2
#     Edge 146, Type (0, 1), BuildingBlock: OJICUG_clean_linker_0, # of connection points: 2
#     Edge 147, Type (0, 1), BuildingBlock: OJICUG_clean_linker_0, # of connection points: 2
#     Edge 148, Type (0, 1), BuildingBlock: OJICUG_clean_linker_0, # of connection points: 2
#     Edge 149, Type (0, 1), BuildingBlock: OJICUG_clean_linker_0, # of connection points: 2
#     Edge 150, Type (0, 1), BuildingBlock: OJICUG_clean_linker_0, # of connection points: 2
#     Edge 151, Type (0, 1), BuildingBlock: OJICUG_clean_linker_0, # of connection points: 2
# Relax obj value: 0.002
# Max RMSD: 0.120
# Mean RMSD: 0.048
data_MOF--net-tbo--node1-WUSLED_clean_sbu_0--node2-ESEHIV_clean_sbu_0--edge1-OJICUG_clean_linker_0
_symmetry_space_group_name_H-M    P1
_symmetry_Int_Tables_number       1
_symmetry_cell_setting            triclinic
loop_
_symmetry_equiv_pos_as_xyz
'x, y, z'
_cell_length_a     75.889988
_cell_length_b     75.999963
_cell_length_c     75.930803
_cell_angle_alpha  89.73211
_cell_angle_beta   92.63532
_cell_angle_gamma 91.443755
loop_
_atom_site_label
_atom_site_type_symbol
_atom_site_fract_x
_atom_site_fract_y
_atom_site_fract_z
_atom_type_partial_charge
C0 C 0.21495 0.13928 0.21948 0.0
C1 C 0.23251 0.14091 0.22621 0.0
C2 C 0.23425 0.10897 0.22962 0.0
C3 C 0.24203 0.12595 0.23119 0.0
C4 C 0.21701 0.10734 0.22201 0.0
C5 C 0.20749 0.12229 0.21708 0.0
U6 U 0.19813 0.18312 0.19776 0.0
O7 O 0.17065 0.19159 0.19387 0.0
O8 O 0.18922 0.20672 0.21121 0.0
C9 C 0.17276 0.20454 0.20527 0.0
C10 C 0.20348 0.15484 0.2173 0.0
C11 C 0.15878 0.20677 0.21819 0.0
C12 C 0.12867 0.20139 0.22743 0.0
C13 C 0.14245 0.19757 0.21645 0.0
C14 C 0.14727 0.22346 0.24237 0.0
C15 C 0.13079 0.2146 0.24037 0.0
C16 C 0.16102 0.21965 0.2314 0.0
C17 C 0.2206 0.20381 0.157 0.0
C18 C 0.21403 0.21491 0.12721 0.0
C19 C 0.23847 0.22766 0.14473 0.0
C20 C 0.23468 0.21618 0.15863 0.0
C21 C 0.22837 0.22702 0.1287 0.0
C22 C 0.21024 0.20342 0.14114 0.0
C23 C 0.21815 0.19029 0.17105 0.0
O24 O 0.21054 0.17041 0.22112 0.0
O25 O 0.19236 0.1551 0.20349 0.0
O26 O 0.20387 0.18011 0.16976 0.0
O27 O 0.22233 0.19506 0.18738 0.0
H28 H 0.23871 0.15377 0.22832 0.0
H29 H 0.25533 0.12773 0.2368 0.0
H30 H 0.21044 0.09456 0.22081 0.0
H31 H 0.19393 0.12057 0.21217 0.0
H32 H 0.11614 0.19442 0.22532 0.0
H33 H 0.1401 0.18774 0.20627 0.0
H34 H 0.14953 0.23352 0.25233 0.0
H35 H 0.17332 0.22714 0.233 0.0
H36 H 0.20608 0.21384 0.11503 0.0
H37 H 0.24945 0.23695 0.14651 0.0
H38 H 0.24309 0.21673 0.17055 0.0
H39 H 0.19945 0.19391 0.13925 0.0
C40 C 0.84873 0.21972 0.14262 0.0
C41 C 0.84509 0.23771 0.144 0.0
C42 C 0.83612 0.23904 0.11265 0.0
C43 C 0.83887 0.24724 0.12921 0.0
C44 C 0.84009 0.22111 0.1113 0.0
C45 C 0.84624 0.21159 0.12609 0.0
U46 U 0.87874 0.20764 0.18364 0.0
O47 O 0.87128 0.19731 0.20948 0.0
O48 O 0.8873 0.18142 0.19261 0.0
C49 C 0.87873 0.18209 0.20726 0.0
C50 C 0.85395 0.20884 0.15825 0.0
C51 C 0.86887 0.16587 0.21263 0.0
C52 C 0.86819 0.13396 0.21666 0.0
C53 C 0.87578 0.14923 0.2095 0.0
C54 C 0.84631 0.15149 0.23004 0.0
C55 C 0.85353 0.13488 0.2273 0.0
C56 C 0.85391 0.16678 0.22287 0.0
C57 C 0.92008 0.23561 0.19729 0.0
C58 C 0.94624 0.22593 0.214 0.0
C59 C 0.93922 0.25681 0.2135 0.0
C60 C 0.92427 0.25298 0.20249 0.0
C61 C 0.95035 0.2433 0.21954 0.0
C62 C 0.93126 0.22211 0.20311 0.0
C63 C 0.90417 0.23186 0.18571 0.0
O64 O 0.86838 0.19976 0.15713 0.0
O65 O 0.85239 0.2158 0.17392 0.0
O66 O 0.88891 0.23362 0.19294 0.0
O67 O 0.90458 0.21783 0.17568 0.0
H68 H 0.84677 0.24439 0.15656 0.0
H69 H 0.8358 0.26095 0.13087 0.0
H70 H 0.83846 0.21436 0.09878 0.0
H71 H 0.84886 0.19774 0.12464 0.0
H72 H 0.87397 0.12141 0.21402 0.0
H73 H 0.88743 0.14804 0.2019 0.0
H74 H 0.83518 0.1528 0.23832 0.0
H75 H 0.84838 0.17936 0.22584 0.0
H76 H 0.95463 0.21519 0.21809 0.0
H77 H 0.94179 0.27028 0.21762 0.0
H78 H 0.91585 0.26362 0.19814 0.0
H79 H 0.92843 0.20859 0.19929 0.0
C80 C 0.83549 0.85892 0.14071 0.0
C81 C 0.82815 0.84197 0.14336 0.0
C82 C 0.82599 0.8367 0.11159 0.0
C83 C 0.82348 0.83102 0.129 0.0
C84 C 0.83416 0.85328 0.10901 0.0
C85 C 0.83876 0.86427 0.12338 0.0
U86 U 0.85772 0.87787 0.18418 0.0
O87 O 0.86278 0.90566 0.19173 0.0
O88 O 0.84519 0.8889 0.2071 0.0
C89 C 0.85174 0.90486 0.20459 0.0
C90 C 0.83778 0.87183 0.15542 0.0
C91 C 0.83974 0.91992 0.20657 0.0
C92 C 0.83625 0.9517 0.20903 0.0
C93 C 0.84611 0.93727 0.20415 0.0
C94 C 0.81303 0.93184 0.2182 0.0
C95 C 0.8198 0.94917 0.21663 0.0
C96 C 0.82286 0.91741 0.21327 0.0
C97 C 0.89754 0.85278 0.20649 0.0
C98 C 0.9284 0.85556 0.21707 0.0
C99 C 0.90899 0.83424 0.23054 0.0
C100 C 0.895 0.83955 0.21921 0.0
C101 C 0.92598 0.8419 0.2294 0.0
C102 C 0.91439 0.86086 0.20571 0.0
C103 C 0.88336 0.85621 0.19273 0.0
O104 O 0.83362 0.8664 0.1712 0.0
O105 O 0.85198 0.88213 0.15571 0.0
O106 O 0.88536 0.87001 0.18243 0.0
O107 O 0.86695 0.85358 0.19716 0.0
H108 H 0.82539 0.83735 0.15649 0.0
H109 H 0.81737 0.81827 0.1315 0.0
H110 H 0.8361 0.8582 0.09581 0.0
H111 H 0.84421 0.87731 0.12085 0.0
H112 H 0.84203 0.9648 0.20781 0.0
H113 H 0.85915 0.93969 0.19927 0.0
H114 H 0.80033 0.92937 0.22382 0.0
H115 H 0.81749 0.90428 0.21544 0.0
H116 H 0.94131 0.86165 0.21564 0.0
H117 H 0.90653 0.82388 0.24002 0.0
H118 H 0.8823 0.83285 0.22007 0.0
H119 H 0.91696 0.87088 0.1959 0.0
C120 C 0.135 0.82067 0.19581 0.0
C121 C 0.12645 0.83263 0.20632 0.0
C122 C 0.10525 0.80964 0.21492 0.0
C123 C 0.11174 0.82722 0.21568 0.0
C124 C 0.11371 0.79777 0.20412 0.0
C125 C 0.12843 0.80324 0.1947 0.0
U126 U 0.17504 0.8516 0.18844 0.0
O127 O 0.2019 0.84568 0.18063 0.0
O128 O 0.18522 0.86274 0.16388 0.0
C129 C 0.20055 0.85517 0.16613 0.0
C130 C 0.15071 0.82617 0.18599 0.0
C131 C 0.20883 0.84853 0.15025 0.0
C132 C 0.21375 0.82614 0.12819 0.0
C133 C 0.20497 0.83182 0.14303 0.0
C134 C 0.23027 0.85377 0.12778 0.0
C135 C 0.22655 0.83708 0.12033 0.0
C136 C 0.22151 0.85939 0.14246 0.0
C137 C 0.18368 0.89096 0.22089 0.0
C138 C 0.2056 0.90488 0.24132 0.0
C139 C 0.18525 0.92293 0.22432 0.0
C140 C 0.17755 0.9078 0.2164 0.0
C141 C 0.19923 0.9217 0.23709 0.0
C142 C 0.19789 0.88973 0.2334 0.0
C143 C 0.17403 0.87486 0.21402 0.0
O144 O 0.14959 0.84114 0.17729 0.0
O145 O 0.1661 0.82442 0.19442 0.0
O146 O 0.18204 0.85977 0.21576 0.0
O147 O 0.16511 0.87631 0.19885 0.0
H148 H 0.1312 0.84617 0.20736 0.0
H149 H 0.10545 0.83688 0.22354 0.0
H150 H 0.10928 0.78413 0.20329 0.0
H151 H 0.13479 0.79377 0.18665 0.0
H152 H 0.2104 0.81326 0.1228 0.0
H153 H 0.19524 0.82319 0.14885 0.0
H154 H 0.24024 0.86246 0.12247 0.0
H155 H 0.22483 0.87227 0.1479 0.0
H156 H 0.21617 0.90334 0.25123 0.0
H157 H 0.18011 0.93563 0.22051 0.0
H158 H 0.1665 0.90929 0.20702 0.0
H159 H 0.20279 0.87701 0.23745 0.0
C160 C 0.15282 0.84244 0.84549 0.0
C161 C 0.14907 0.82634 0.83696 0.0
C162 C 0.12175 0.83766 0.8235 0.0
C163 C 0.13378 0.82398 0.82608 0.0
C164 C 0.12583 0.854 0.83161 0.0
C165 C 0.14119 0.85638 0.84246 0.0
U166 U 0.19644 0.86333 0.86603 0.0
O167 O 0.20443 0.86692 0.89413 0.0
O168 O 0.2197 0.84995 0.87757 0.0
C169 C 0.21727 0.85567 0.89359 0.0
C170 C 0.16798 0.84372 0.85859 0.0
C171 C 0.21897 0.8428 0.90843 0.0
C172 C 0.22682 0.81384 0.92005 0.0
C173 C 0.22289 0.82503 0.9057 0.0
C174 C 0.22238 0.83771 0.94016 0.0
C175 C 0.22696 0.82011 0.93751 0.0
C176 C 0.2185 0.84888 0.92584 0.0
C177 C 0.21632 0.90512 0.84298 0.0
C178 C 0.24026 0.92506 0.85327 0.0
C179 C 0.22714 0.92839 0.82384 0.0
C180 C 0.21569 0.91408 0.8268 0.0
C181 C 0.23962 0.93414 0.837 0.0
C182 C 0.22873 0.91066 0.85623 0.0
C183 C 0.20346 0.89046 0.84553 0.0
O184 O 0.1836 0.84017 0.85292 0.0
O185 O 0.16838 0.857 0.86965 0.0
O186 O 0.1936 0.89137 0.85926 0.0
O187 O 0.20886 0.87449 0.84261 0.0
H188 H 0.15771 0.81533 0.83916 0.0
H189 H 0.13102 0.81114 0.82031 0.0
H190 H 0.11701 0.8649 0.82978 0.0
H191 H 0.14369 0.86898 0.8488 0.0
H192 H 0.23011 0.80034 0.91745 0.0
H193 H 0.22344 0.81987 0.89247 0.0
H194 H 0.22265 0.8432 0.95331 0.0
H195 H 0.21577 0.86253 0.9284 0.0
H196 H 0.24977 0.92897 0.86368 0.0
H197 H 0.22592 0.93518 0.81129 0.0
H198 H 0.20614 0.91012 0.81643 0.0
H199 H 0.22944 0.90392 0.86883 0.0
C200 C 0.16542 0.21312 0.84586 0.0
C201 C 0.15015 0.21174 0.85569 0.0
C202 C 0.13663 0.23582 0.83891 0.0
C203 C 0.13599 0.22297 0.8523 0.0
C204 C 0.15208 0.23744 0.82937 0.0
C205 C 0.16622 0.22621 0.83275 0.0
U206 U 0.2069 0.19238 0.86904 0.0
O207 O 0.21287 0.16426 0.87268 0.0
O208 O 0.23014 0.18134 0.85726 0.0
C209 C 0.22645 0.1652 0.86252 0.0
C210 C 0.17967 0.2 0.84782 0.0
C211 C 0.22829 0.15069 0.84964 0.0
C212 C 0.23951 0.13991 0.82215 0.0
C213 C 0.23487 0.1539 0.83285 0.0
C214 C 0.23024 0.11913 0.84429 0.0
C215 C 0.23774 0.12234 0.82794 0.0
C216 C 0.22566 0.13312 0.85502 0.0
C217 C 0.22707 0.2145 0.91232 0.0
C218 C 0.23595 0.20746 0.94281 0.0
C219 C 0.24787 0.23369 0.92916 0.0
C220 C 0.23827 0.22951 0.91344 0.0
C221 C 0.24639 0.22303 0.94424 0.0
C222 C 0.22638 0.20326 0.92707 0.0
C223 C 0.21446 0.21231 0.89681 0.0
O224 O 0.19587 0.20569 0.84526 0.0
O225 O 0.17882 0.18869 0.86094 0.0
O226 O 0.20323 0.19884 0.89684 0.0
O227 O 0.22049 0.21566 0.88115 0.0
H228 H 0.14891 0.20167 0.86574 0.0
H229 H 0.12427 0.22113 0.85978 0.0
H230 H 0.15322 0.24732 0.81914 0.0
H231 H 0.17766 0.22754 0.82479 0.0
H232 H 0.24506 0.14289 0.80956 0.0
H233 H 0.23714 0.16723 0.82823 0.0
H234 H 0.22888 0.10583 0.84932 0.0
H235 H 0.22083 0.13019 0.86794 0.0
H236 H 0.23464 0.19882 0.95408 0.0
H237 H 0.25557 0.24589 0.92977 0.0
H238 H 0.23894 0.23856 0.90241 0.0
H239 H 0.21787 0.1916 0.92676 0.0
C240 C 0.84387 0.15436 0.83935 0.0
C241 C 0.83296 0.15507 0.82387 0.0
C242 C 0.82601 0.12353 0.8259 0.0
C243 C 0.82422 0.13984 0.81718 0.0
C244 C 0.83739 0.12276 0.84104 0.0
C245 C 0.84613 0.13796 0.84769 0.0
U246 U 0.87529 0.19584 0.84886 0.0
O247 O 0.86716 0.22193 0.85777 0.0
O248 O 0.88442 0.20591 0.87491 0.0
C249 C 0.87486 0.22009 0.87352 0.0
C250 C 0.85065 0.17071 0.84841 0.0
C251 C 0.86439 0.22465 0.88893 0.0
C252 C 0.85677 0.22008 0.91955 0.0
C253 C 0.86504 0.21449 0.90449 0.0
C254 C 0.84643 0.2458 0.90376 0.0
C255 C 0.8476 0.23596 0.91951 0.0
C256 C 0.8548 0.24026 0.88872 0.0
C257 C 0.91597 0.20707 0.82122 0.0
C258 C 0.93562 0.23266 0.82564 0.0
C259 C 0.94252 0.21054 0.80439 0.0
C260 C 0.92716 0.20096 0.80847 0.0
C261 C 0.94708 0.22648 0.81302 0.0
C262 C 0.92027 0.22305 0.82971 0.0
C263 C 0.90009 0.19642 0.82554 0.0
O264 O 0.8656 0.16985 0.85781 0.0
O265 O 0.84885 0.1858 0.84004 0.0
O266 O 0.88477 0.20395 0.82293 0.0
O267 O 0.9012 0.18747 0.84039 0.0
H268 H 0.83063 0.16749 0.81723 0.0
H269 H 0.81545 0.14103 0.8056 0.0
H270 H 0.83934 0.11043 0.84797 0.0
H271 H 0.8542 0.13694 0.85978 0.0
H272 H 0.85777 0.21205 0.93136 0.0
H273 H 0.87231 0.20241 0.90523 0.0
H274 H 0.83966 0.25819 0.90327 0.0
H275 H 0.85419 0.24849 0.87702 0.0
H276 H 0.93845 0.24501 0.83238 0.0
H277 H 0.95101 0.20523 0.79477 0.0
H278 H 0.92411 0.18863 0.80176 0.0
H279 H 0.91181 0.22807 0.83955 0.0
C280 C 0.85412 0.91136 0.81735 0.0
C281 C 0.83697 0.91363 0.82292 0.0
C282 C 0.83407 0.94027 0.80486 0.0
C283 C 0.82704 0.92787 0.81671 0.0
C284 C 0.85122 0.93777 0.79915 0.0
C285 C 0.86113 0.92348 0.80535 0.0
U286 U 0.86371 0.87376 0.85024 0.0
O287 O 0.87299 0.84701 0.84566 0.0
O288 O 0.88904 0.8652 0.86244 0.0
C289 C 0.88804 0.84977 0.85463 0.0
C290 C 0.86486 0.89653 0.82398 0.0
C291 C 0.90441 0.84338 0.84686 0.0
C292 C 0.919 0.8248 0.82607 0.0
C293 C 0.90369 0.83248 0.83189 0.0
C294 C 0.93617 0.83891 0.84985 0.0
C295 C 0.93545 0.8277 0.8351 0.0
C296 C 0.92088 0.84657 0.85567 0.0
C297 C 0.83083 0.86667 0.88802 0.0
C298 C 0.83406 0.85659 0.91854 0.0
C299 C 0.80515 0.85655 0.90374 0.0
C300 C 0.81262 0.86311 0.88844 0.0
C301 C 0.8157 0.85343 0.91912 0.0
C302 C 0.84154 0.86316 0.90317 0.0
C303 C 0.83784 0.87532 0.87212 0.0
O304 O 0.8733 0.89901 0.8393 0.0
O305 O 0.85736 0.88079 0.82253 0.0
O306 O 0.83665 0.86626 0.85739 0.0
O307 O 0.85272 0.88448 0.87416 0.0
H308 H 0.83126 0.90442 0.83212 0.0
H309 H 0.81379 0.92911 0.82119 0.0
H310 H 0.85715 0.94708 0.7902 0.0
H311 H 0.87436 0.92197 0.80089 0.0
H312 H 0.91781 0.81609 0.8148 0.0
H313 H 0.89123 0.82947 0.8249 0.0
H314 H 0.94858 0.84172 0.85702 0.0
H315 H 0.9219 0.85469 0.86738 0.0
H316 H 0.84261 0.85448 0.93012 0.0
H317 H 0.79104 0.85398 0.90351 0.0
H318 H 0.80405 0.86573 0.87696 0.0
H319 H 0.85563 0.86584 0.90329 0.0
C320 C 0.21231 0.65621 0.70201 0.0
C321 C 0.23085 0.65764 0.70234 0.0
C322 C 0.23317 0.62655 0.71046 0.0
C323 C 0.24115 0.64295 0.70648 0.0
C324 C 0.21461 0.62512 0.70955 0.0
C325 C 0.20436 0.63976 0.70542 0.0
U326 U 0.19502 0.69911 0.67911 0.0
O327 O 0.16752 0.70758 0.67583 0.0
O328 O 0.1867 0.72336 0.69188 0.0
C329 C 0.17004 0.7209 0.68673 0.0
C330 C 0.20093 0.67176 0.6998 0.0
C331 C 0.15668 0.72333 0.70026 0.0
C332 C 0.12765 0.71694 0.71178 0.0
C333 C 0.14087 0.71322 0.70011 0.0
C334 C 0.14583 0.74074 0.72425 0.0
C335 C 0.12982 0.73093 0.72385 0.0
C336 C 0.15901 0.73704 0.71258 0.0
C337 C 0.21622 0.71672 0.63609 0.0
C338 C 0.22734 0.74451 0.6241 0.0
C339 C 0.21921 0.72047 0.60439 0.0
C340 C 0.21432 0.71015 0.61881 0.0
C341 C 0.22627 0.73763 0.60686 0.0
C342 C 0.22241 0.73419 0.63853 0.0
C343 C 0.21388 0.70444 0.6512 0.0
O344 O 0.20839 0.68738 0.7025 0.0
O345 O 0.18922 0.67148 0.68649 0.0
O346 O 0.19938 0.69457 0.65094 0.0
O347 O 0.21872 0.71016 0.66706 0.0
H348 H 0.23739 0.67016 0.69983 0.0
H349 H 0.25538 0.64462 0.70716 0.0
H350 H 0.20796 0.61268 0.71219 0.0
H351 H 0.19011 0.63829 0.70531 0.0
H352 H 0.11546 0.70921 0.71089 0.0
H353 H 0.13847 0.70268 0.69069 0.0
H354 H 0.14814 0.75144 0.73351 0.0
H355 H 0.17094 0.7452 0.71296 0.0
H356 H 0.23251 0.75773 0.62652 0.0
H357 H 0.21839 0.71458 0.59141 0.0
H358 H 0.20978 0.69669 0.6165 0.0
H359 H 0.22407 0.73971 0.65164 0.0
C360 C 0.84829 0.72518 0.63368 0.0
C361 C 0.85032 0.74362 0.63354 0.0
C362 C 0.83561 0.74512 0.6042 0.0
C363 C 0.84401 0.75348 0.61898 0.0
C364 C 0.83401 0.72661 0.60431 0.0
C365 C 0.84025 0.71681 0.61886 0.0
U366 U 0.87868 0.71405 0.67447 0.0
O367 O 0.87171 0.70389 0.70054 0.0
O368 O 0.88801 0.68819 0.68378 0.0
C369 C 0.87964 0.68889 0.69855 0.0
C370 C 0.85369 0.71438 0.64924 0.0
C371 C 0.87058 0.67245 0.70462 0.0
C372 C 0.84897 0.6577 0.72293 0.0
C373 C 0.85566 0.67302 0.71494 0.0
C374 C 0.8717 0.64079 0.7102 0.0
C375 C 0.8571 0.6414 0.72095 0.0
C376 C 0.87837 0.65608 0.70221 0.0
C377 C 0.91935 0.74361 0.68706 0.0
C378 C 0.94632 0.73539 0.7033 0.0
C379 C 0.93794 0.7659 0.70233 0.0
C380 C 0.92289 0.76123 0.6918 0.0
C381 C 0.94982 0.75302 0.70834 0.0
C382 C 0.93125 0.73073 0.69287 0.0
C383 C 0.9034 0.73902 0.67585 0.0
O384 O 0.86833 0.70567 0.6481 0.0
O385 O 0.85207 0.72146 0.66484 0.0
O386 O 0.88819 0.74042 0.68327 0.0
O387 O 0.90416 0.72482 0.66612 0.0
H388 H 0.85657 0.75042 0.64477 0.0
H389 H 0.84566 0.76767 0.61932 0.0
H390 H 0.8274 0.71967 0.59337 0.0
H391 H 0.83847 0.70261 0.61867 0.0
H392 H 0.83785 0.6588 0.73125 0.0
H393 H 0.84946 0.6854 0.71738 0.0
H394 H 0.87817 0.62848 0.7081 0.0
H395 H 0.89002 0.65516 0.69458 0.0
H396 H 0.95527 0.72512 0.70739 0.0
H397 H 0.94003 0.77955 0.7061 0.0
H398 H 0.91393 0.77141 0.68744 0.0
H399 H 0.92891 0.71704 0.68939 0.0
C400 C 0.84274 0.36075 0.64943 0.0
C401 C 0.85369 0.34622 0.6482 0.0
C402 C 0.83616 0.3355 0.62239 0.0
C403 C 0.85045 0.33371 0.63476 0.0
C404 C 0.82541 0.35024 0.62369 0.0
C405 C 0.82866 0.36267 0.63704 0.0
U406 U 0.86758 0.38165 0.69029 0.0
O407 O 0.87301 0.4098 0.69585 0.0
O408 O 0.85659 0.39409 0.71337 0.0
C409 C 0.86283 0.40985 0.70941 0.0
C410 C 0.84555 0.37414 0.6634 0.0
C411 C 0.85086 0.42498 0.71083 0.0
C412 C 0.82338 0.43739 0.72006 0.0
C413 C 0.83345 0.42275 0.71623 0.0
C414 C 0.84761 0.45681 0.71248 0.0
C415 C 0.83046 0.45464 0.71863 0.0
C416 C 0.85766 0.44219 0.70869 0.0
C417 C 0.9099 0.35919 0.71026 0.0
C418 C 0.92289 0.35158 0.73925 0.0
C419 C 0.9416 0.35514 0.71448 0.0
C420 C 0.92685 0.35914 0.70358 0.0
C421 C 0.93981 0.35095 0.7324 0.0
C422 C 0.9081 0.3556 0.7283 0.0
C423 C 0.89437 0.3611 0.69777 0.0
O424 O 0.84302 0.36884 0.67961 0.0
O425 O 0.8595 0.38461 0.66221 0.0
O426 O 0.89502 0.37417 0.68638 0.0
O427 O 0.87859 0.35847 0.70392 0.0
H428 H 0.86466 0.34451 0.65765 0.0
H429 H 0.85894 0.3225 0.63425 0.0
H430 H 0.81451 0.3523 0.61425 0.0
H431 H 0.82012 0.37384 0.63769 0.0
H432 H 0.81017 0.43517 0.72457 0.0
H433 H 0.82775 0.4097 0.71808 0.0
H434 H 0.85368 0.4698 0.71146 0.0
H435 H 0.87109 0.44437 0.70478 0.0
H436 H 0.92095 0.34829 0.75293 0.0
H437 H 0.95442 0.35511 0.70877 0.0
H438 H 0.92866 0.36173 0.68972 0.0
H439 H 0.89522 0.35538 0.73389 0.0
C440 C 0.15263 0.33949 0.7098 0.0
C441 C 0.14873 0.34661 0.72614 0.0
C442 C 0.12194 0.32795 0.7271 0.0
C443 C 0.13359 0.34089 0.7347 0.0
C444 C 0.12606 0.32075 0.71079 0.0
C445 C 0.14121 0.32648 0.70226 0.0
U446 U 0.19281 0.3708 0.70231 0.0
O447 O 0.21952 0.36435 0.69445 0.0
O448 O 0.2028 0.38096 0.67731 0.0
C449 C 0.21801 0.37318 0.67955 0.0
C450 C 0.16845 0.34538 0.70041 0.0
C451 C 0.22543 0.36532 0.6638 0.0
C452 C 0.22619 0.343 0.64087 0.0
C453 C 0.21863 0.34971 0.65598 0.0
C454 C 0.24733 0.36738 0.64138 0.0
C455 C 0.24058 0.35186 0.63328 0.0
C456 C 0.23985 0.37399 0.6564 0.0
C457 C 0.20324 0.41089 0.73209 0.0
C458 C 0.22883 0.43028 0.72835 0.0
C459 C 0.20746 0.43762 0.74966 0.0
C460 C 0.19762 0.42227 0.74511 0.0
C461 C 0.22313 0.44196 0.74121 0.0
C462 C 0.21899 0.41497 0.72382 0.0
C463 C 0.19246 0.39503 0.72707 0.0
O464 O 0.16716 0.36028 0.69164 0.0
O465 O 0.18375 0.34393 0.70909 0.0
O466 O 0.20024 0.37986 0.72925 0.0
O467 O 0.18334 0.39603 0.71198 0.0
H468 H 0.15737 0.35661 0.73226 0.0
H469 H 0.13111 0.34656 0.74737 0.0
H470 H 0.1174 0.31093 0.70442 0.0
H471 H 0.14397 0.32079 0.68965 0.0
H472 H 0.22057 0.33107 0.63495 0.0
H473 H 0.20749 0.3428 0.66148 0.0
H474 H 0.25856 0.37441 0.63619 0.0
H475 H 0.24538 0.386 0.66227 0.0
H476 H 0.24097 0.43294 0.72176 0.0
H477 H 0.20256 0.44629 0.75949 0.0
H478 H 0.18549 0.41937 0.75165 0.0
H479 H 0.22362 0.40636 0.71378 0.0
C480 C 0.15407 0.33415 0.35566 0.0
C481 C 0.15141 0.31809 0.34671 0.0
C482 C 0.12218 0.3268 0.33557 0.0
C483 C 0.13573 0.31447 0.33676 0.0
C484 C 0.12511 0.34315 0.34404 0.0
C485 C 0.14084 0.34678 0.35396 0.0
U486 U 0.19816 0.35702 0.37274 0.0
O487 O 0.20734 0.36293 0.40003 0.0
O488 O 0.2221 0.34468 0.38436 0.0
C489 C 0.22032 0.3518 0.39991 0.0
C490 C 0.16978 0.3366 0.36798 0.0
C491 C 0.22278 0.34013 0.41555 0.0
C492 C 0.21248 0.32709 0.4428 0.0
C493 C 0.20912 0.33642 0.42703 0.0
C494 C 0.24299 0.32441 0.43558 0.0
C495 C 0.22955 0.32123 0.44747 0.0
C496 C 0.23964 0.33376 0.41987 0.0
C497 C 0.21629 0.39718 0.34593 0.0
C498 C 0.24274 0.41534 0.35235 0.0
C499 C 0.22417 0.42129 0.32635 0.0
C500 C 0.21284 0.40731 0.33076 0.0
C501 C 0.23934 0.42551 0.33702 0.0
C502 C 0.23133 0.40127 0.35676 0.0
C503 C 0.20381 0.3826 0.34994 0.0
O504 O 0.18519 0.33281 0.36193 0.0
O505 O 0.17045 0.35066 0.37806 0.0
O506 O 0.19446 0.38441 0.36393 0.0
O507 O 0.20942 0.36652 0.34808 0.0
H508 H 0.16126 0.30802 0.34791 0.0
H509 H 0.13392 0.30166 0.33067 0.0
H510 H 0.1151 0.35306 0.34327 0.0
H511 H 0.14238 0.3593 0.36067 0.0
H512 H 0.20173 0.32472 0.45147 0.0
H513 H 0.19594 0.34109 0.42405 0.0
H514 H 0.25635 0.32037 0.43875 0.0
H515 H 0.25043 0.33652 0.41133 0.0
H516 H 0.25434 0.41809 0.36083 0.0
H517 H 0.22086 0.42895 0.31466 0.0
H518 H 0.20126 0.40445 0.32227 0.0
H519 H 0.23424 0.3936 0.36855 0.0
C520 C 0.15196 0.69648 0.33026 0.0
C521 C 0.13785 0.69569 0.34168 0.0
C522 C 0.12261 0.71882 0.32497 0.0
C523 C 0.1234 0.70673 0.33909 0.0
C524 C 0.13692 0.71982 0.3138 0.0
C525 C 0.15133 0.70876 0.31636 0.0
U526 U 0.19427 0.67735 0.35284 0.0
O527 O 0.20179 0.64979 0.35687 0.0
O528 O 0.21802 0.66732 0.34084 0.0
C529 C 0.21528 0.65118 0.34663 0.0
C530 C 0.16667 0.68383 0.33173 0.0
C531 C 0.21814 0.63637 0.33434 0.0
C532 C 0.23764 0.62218 0.31425 0.0
C533 C 0.23256 0.63715 0.32331 0.0
C534 C 0.21352 0.60544 0.32636 0.0
C535 C 0.22854 0.60595 0.31612 0.0
C536 C 0.20841 0.62041 0.33537 0.0
C537 C 0.21264 0.69984 0.39652 0.0
C538 C 0.24122 0.70872 0.41021 0.0
C539 C 0.21606 0.70428 0.42828 0.0
C540 C 0.20556 0.69971 0.41329 0.0
C541 C 0.23394 0.70923 0.42693 0.0
C542 C 0.23068 0.70414 0.39515 0.0
C543 C 0.20046 0.69737 0.38078 0.0
O544 O 0.1826 0.69024 0.32911 0.0
O545 O 0.1664 0.67226 0.34466 0.0
O546 O 0.18991 0.68337 0.38067 0.0
O547 O 0.20656 0.70106 0.36522 0.0
H548 H 0.13776 0.68629 0.35245 0.0
H549 H 0.11259 0.70538 0.34785 0.0
H550 H 0.137 0.72913 0.30295 0.0
H551 H 0.16189 0.70964 0.30725 0.0
H552 H 0.24938 0.62308 0.30668 0.0
H553 H 0.24051 0.64913 0.3224 0.0
H554 H 0.20606 0.59324 0.32795 0.0
H555 H 0.19729 0.61922 0.34378 0.0
H556 H 0.2549 0.71256 0.40863 0.0
H557 H 0.21004 0.70421 0.44095 0.0
H558 H 0.1917 0.69656 0.41475 0.0
H559 H 0.23654 0.70449 0.38242 0.0
C560 C 0.832 0.64178 0.34214 0.0
C561 C 0.83988 0.63697 0.3266 0.0
C562 C 0.82144 0.61004 0.32471 0.0
C563 C 0.83464 0.62129 0.31796 0.0
C564 C 0.81351 0.61508 0.34023 0.0
C565 C 0.81875 0.63076 0.34883 0.0
U566 U 0.8611 0.68401 0.35185 0.0
O567 O 0.85213 0.70988 0.36026 0.0
O568 O 0.86947 0.69459 0.37799 0.0
C569 C 0.85967 0.70855 0.37613 0.0
C570 C 0.83726 0.65812 0.3517 0.0
C571 C 0.84849 0.71249 0.39105 0.0
C572 C 0.82232 0.70713 0.40798 0.0
C573 C 0.83273 0.70299 0.3938 0.0
C574 C 0.84335 0.73021 0.41689 0.0
C575 C 0.82744 0.72086 0.41973 0.0
C576 C 0.8537 0.72607 0.40274 0.0
C577 C 0.90136 0.69556 0.32302 0.0
C578 C 0.91897 0.72283 0.32275 0.0
C579 C 0.92835 0.6976 0.30666 0.0
C580 C 0.91355 0.68794 0.31215 0.0
C581 C 0.93138 0.71519 0.31195 0.0
C582 C 0.90416 0.71314 0.32823 0.0
C583 C 0.88579 0.68492 0.32838 0.0
O584 O 0.85225 0.65783 0.36106 0.0
O585 O 0.83503 0.67299 0.34308 0.0
O586 O 0.87023 0.69196 0.32575 0.0
O587 O 0.8874 0.67652 0.34351 0.0
H588 H 0.85007 0.64533 0.32117 0.0
H589 H 0.84087 0.61804 0.30589 0.0
H590 H 0.80347 0.60675 0.34594 0.0
H591 H 0.8125 0.63424 0.36084 0.0
H592 H 0.81011 0.69973 0.40956 0.0
H593 H 0.82845 0.69244 0.38493 0.0
H594 H 0.84795 0.74064 0.42575 0.0
H595 H 0.86585 0.73352 0.40093 0.0
H596 H 0.92062 0.7364 0.32691 0.0
H597 H 0.93761 0.69114 0.29857 0.0
H598 H 0.91166 0.67439 0.30793 0.0
H599 H 0.89491 0.71937 0.33651 0.0
C600 C 0.85902 0.39551 0.33437 0.0
C601 C 0.84283 0.39448 0.32456 0.0
C602 C 0.84579 0.42542 0.31586 0.0
C603 C 0.83628 0.40924 0.31548 0.0
C604 C 0.86176 0.42651 0.32603 0.0
C605 C 0.8683 0.41176 0.33509 0.0
U606 U 0.86525 0.35698 0.36845 0.0
O607 O 0.87271 0.32963 0.3633 0.0
O608 O 0.89021 0.3468 0.3798 0.0
C609 C 0.88807 0.33147 0.37191 0.0
C610 C 0.86743 0.37956 0.34213 0.0
C611 C 0.90357 0.32428 0.36338 0.0
C612 C 0.93326 0.32737 0.35246 0.0
C613 C 0.91817 0.33492 0.35898 0.0
C614 C 0.91929 0.2985 0.35423 0.0
C615 C 0.93413 0.30901 0.35022 0.0
C616 C 0.90425 0.30604 0.36074 0.0
C617 C 0.83491 0.35054 0.40785 0.0
C618 C 0.84054 0.34086 0.43821 0.0
C619 C 0.81172 0.33563 0.42405 0.0
C620 C 0.8175 0.34388 0.40869 0.0
C621 C 0.8232 0.33387 0.43901 0.0
C622 C 0.84633 0.34902 0.42286 0.0
C623 C 0.84059 0.35966 0.39158 0.0
O624 O 0.87631 0.3815 0.35731 0.0
O625 O 0.8585 0.36452 0.34094 0.0
O626 O 0.83821 0.35092 0.37672 0.0
O627 O 0.85574 0.36848 0.39269 0.0
H628 H 0.83541 0.38214 0.32347 0.0
H629 H 0.82404 0.40779 0.30766 0.0
H630 H 0.86935 0.43876 0.32691 0.0
H631 H 0.88091 0.41299 0.34233 0.0
H632 H 0.94444 0.33589 0.34968 0.0
H633 H 0.91808 0.34903 0.36091 0.0
H634 H 0.91929 0.28438 0.3524 0.0
H635 H 0.89321 0.29753 0.36404 0.0
H636 H 0.84972 0.34008 0.44952 0.0
H637 H 0.79836 0.33028 0.42404 0.0
H638 H 0.80834 0.34502 0.39739 0.0
H639 H 0.85977 0.35415 0.42281 0.0
C640 C 0.71673 0.14502 0.7008 0.0
C641 C 0.73467 0.14632 0.70641 0.0
C642 C 0.73596 0.11433 0.70994 0.0
C643 C 0.74415 0.13117 0.71087 0.0
C644 C 0.71827 0.11304 0.70351 0.0
C645 C 0.7088 0.12816 0.69908 0.0
U646 U 0.69934 0.18907 0.67974 0.0
O647 O 0.6719 0.1979 0.67747 0.0
O648 O 0.69159 0.2129 0.69367 0.0
C649 C 0.67483 0.21091 0.68867 0.0
C650 C 0.70551 0.16083 0.69918 0.0
C651 C 0.66165 0.21346 0.70236 0.0
C652 C 0.63273 0.2073 0.71424 0.0
C653 C 0.64589 0.20331 0.70258 0.0
C654 C 0.65089 0.23147 0.72597 0.0
C655 C 0.63492 0.22161 0.72595 0.0
C656 C 0.66401 0.22749 0.71431 0.0
C657 C 0.71961 0.2084 0.63699 0.0
C658 C 0.72919 0.23724 0.62612 0.0
C659 C 0.72284 0.21352 0.60551 0.0
C660 C 0.71839 0.2024 0.61949 0.0
C661 C 0.72876 0.23099 0.60864 0.0
C662 C 0.72469 0.22609 0.64012 0.0
C663 C 0.71759 0.19546 0.6516 0.0
O664 O 0.71308 0.17632 0.70237 0.0
O665 O 0.69354 0.16118 0.6861 0.0
O666 O 0.70304 0.18568 0.65127 0.0
O667 O 0.72283 0.20047 0.66759 0.0
H668 H 0.74124 0.15906 0.708 0.0
H669 H 0.75779 0.13272 0.71556 0.0
H670 H 0.71137 0.1004 0.70283 0.0
H671 H 0.69496 0.12669 0.69506 0.0
H672 H 0.62058 0.19951 0.71363 0.0
H673 H 0.64346 0.19253 0.69343 0.0
H674 H 0.65324 0.2424 0.73494 0.0
H675 H 0.67589 0.2357 0.71437 0.0
H676 H 0.73346 0.25065 0.62906 0.0
H677 H 0.72257 0.20808 0.59234 0.0
H678 H 0.7147 0.1888 0.61667 0.0
H679 H 0.72577 0.2312 0.65343 0.0
C680 C 0.34446 0.2133 0.65315 0.0
C681 C 0.35597 0.22028 0.64079 0.0
C682 C 0.33103 0.23134 0.62273 0.0
C683 C 0.34933 0.22913 0.62575 0.0
C684 C 0.31957 0.22423 0.63512 0.0
C685 C 0.32622 0.21532 0.65013 0.0
U686 U 0.37767 0.2043 0.69246 0.0
O687 O 0.37234 0.19533 0.71937 0.0
O688 O 0.38759 0.17887 0.7023 0.0
C689 C 0.37999 0.18016 0.71745 0.0
C690 C 0.35103 0.20337 0.6689 0.0
C691 C 0.3709 0.16403 0.72415 0.0
C692 C 0.34769 0.14974 0.74077 0.0
C693 C 0.35482 0.16476 0.73261 0.0
C694 C 0.37234 0.13287 0.73189 0.0
C695 C 0.3565 0.13363 0.74077 0.0
C696 C 0.37945 0.14786 0.72376 0.0
C697 C 0.41886 0.23437 0.70114 0.0
C698 C 0.43995 0.23033 0.72585 0.0
C699 C 0.44545 0.25305 0.70421 0.0
C700 C 0.4296 0.24822 0.69504 0.0
C701 C 0.45095 0.24408 0.71969 0.0
C702 C 0.42412 0.22552 0.71667 0.0
C703 C 0.40236 0.22928 0.6911 0.0
O704 O 0.3656 0.19461 0.66732 0.0
O705 O 0.35047 0.21139 0.68416 0.0
O706 O 0.38767 0.23098 0.6994 0.0
O707 O 0.40268 0.2145 0.68223 0.0
H708 H 0.37009 0.21885 0.64271 0.0
H709 H 0.3586 0.23415 0.61642 0.0
H710 H 0.30545 0.22584 0.63343 0.0
H711 H 0.31707 0.21 0.65945 0.0
H712 H 0.33557 0.15094 0.74761 0.0
H713 H 0.34794 0.17703 0.73337 0.0
H714 H 0.37938 0.12068 0.73132 0.0
H715 H 0.39194 0.14688 0.71751 0.0
H716 H 0.44353 0.2233 0.73787 0.0
H717 H 0.45358 0.26356 0.69896 0.0
H718 H 0.42578 0.25522 0.68306 0.0
H719 H 0.41601 0.21485 0.72166 0.0
C720 C 0.33461 0.8605 0.6516 0.0
C721 C 0.34681 0.84723 0.64914 0.0
C722 C 0.32964 0.83673 0.62304 0.0
C723 C 0.34437 0.83547 0.63496 0.0
C724 C 0.31757 0.85015 0.62561 0.0
C725 C 0.32003 0.86186 0.63972 0.0
U726 U 0.35845 0.87859 0.69394 0.0
O727 O 0.36412 0.90602 0.70191 0.0
O728 O 0.34709 0.8892 0.71785 0.0
C729 C 0.35368 0.90513 0.71527 0.0
C730 C 0.33674 0.87306 0.66637 0.0
C731 C 0.3419 0.92021 0.71784 0.0
C732 C 0.3339 0.95061 0.71164 0.0
C733 C 0.34266 0.93535 0.70713 0.0
C734 C 0.32259 0.93569 0.7371 0.0
C735 C 0.32417 0.95115 0.72697 0.0
C736 C 0.33142 0.92045 0.73264 0.0
C737 C 0.40072 0.85486 0.71195 0.0
C738 C 0.41386 0.84707 0.7408 0.0
C739 C 0.43215 0.84925 0.71558 0.0
C740 C 0.41745 0.85382 0.70491 0.0
C741 C 0.43052 0.84546 0.7336 0.0
C742 C 0.3991 0.85168 0.73008 0.0
C743 C 0.38519 0.85761 0.69972 0.0
O744 O 0.33397 0.86661 0.68212 0.0
O745 O 0.35056 0.88381 0.66616 0.0
O746 O 0.38586 0.87151 0.68938 0.0
O747 O 0.36943 0.85448 0.70575 0.0
H748 H 0.35817 0.84595 0.6582 0.0
H749 H 0.35386 0.82524 0.6335 0.0
H750 H 0.30626 0.85176 0.61658 0.0
H751 H 0.31052 0.87206 0.64134 0.0
H752 H 0.33525 0.9622 0.70342 0.0
H753 H 0.35062 0.93572 0.69565 0.0
H754 H 0.31542 0.93565 0.74911 0.0
H755 H 0.33071 0.9091 0.74128 0.0
H756 H 0.41206 0.84414 0.75458 0.0
H757 H 0.4448 0.84846 0.70962 0.0
H758 H 0.41908 0.85613 0.69098 0.0
H759 H 0.38637 0.85229 0.73592 0.0
C760 C 0.63504 0.82064 0.69619 0.0
C761 C 0.63296 0.8291 0.71231 0.0
C762 C 0.60581 0.81188 0.71685 0.0
C763 C 0.61855 0.82474 0.72254 0.0
C764 C 0.60807 0.80338 0.70071 0.0
C765 C 0.62251 0.80774 0.6905 0.0
U766 U 0.67504 0.84965 0.683 0.0
O767 O 0.70095 0.84143 0.6743 0.0
O768 O 0.6835 0.85649 0.6564 0.0
C769 C 0.69833 0.84796 0.65837 0.0
C770 C 0.65015 0.82498 0.68516 0.0
C771 C 0.70314 0.83675 0.64349 0.0
C772 C 0.72571 0.82749 0.62394 0.0
C773 C 0.72069 0.83716 0.63845 0.0
C774 C 0.69569 0.81647 0.61928 0.0
C775 C 0.71328 0.81711 0.61399 0.0
C776 C 0.69066 0.82621 0.63386 0.0
C777 C 0.68679 0.89254 0.71041 0.0
C778 C 0.70988 0.90784 0.72845 0.0
C779 C 0.68807 0.92468 0.71202 0.0
C780 C 0.68011 0.90904 0.70545 0.0
C781 C 0.70289 0.92433 0.72387 0.0
C782 C 0.7019 0.89217 0.72189 0.0
C783 C 0.6766 0.87604 0.70555 0.0
O784 O 0.64857 0.83899 0.67506 0.0
O785 O 0.66593 0.82386 0.69293 0.0
O786 O 0.68428 0.86093 0.7086 0.0
O787 O 0.66693 0.8761 0.69073 0.0
H788 H 0.6425 0.83905 0.717 0.0
H789 H 0.61749 0.83138 0.73502 0.0
H790 H 0.5985 0.79357 0.69577 0.0
H791 H 0.62386 0.80105 0.67808 0.0
H792 H 0.73943 0.82808 0.62058 0.0
H793 H 0.73057 0.84514 0.64569 0.0
H794 H 0.68571 0.80874 0.61192 0.0
H795 H 0.67701 0.82567 0.63748 0.0
H796 H 0.72112 0.90695 0.73769 0.0
H797 H 0.68243 0.93708 0.70794 0.0
H798 H 0.66837 0.90988 0.69686 0.0
H799 H 0.70727 0.87975 0.72629 0.0
C800 C 0.64807 0.84639 0.34466 0.0
C801 C 0.63108 0.84758 0.35114 0.0
C802 C 0.61761 0.83559 0.32373 0.0
C803 C 0.61606 0.84233 0.34082 0.0
C804 C 0.63458 0.83508 0.31698 0.0
C805 C 0.6496 0.84038 0.32729 0.0
U806 U 0.69151 0.87091 0.36161 0.0
O807 O 0.70112 0.87642 0.38889 0.0
O808 O 0.71641 0.85964 0.37216 0.0
C809 C 0.71494 0.86643 0.3879 0.0
C810 C 0.66387 0.84944 0.35683 0.0
C811 C 0.71961 0.85505 0.40329 0.0
C812 C 0.7424 0.83967 0.4206 0.0
C813 C 0.73698 0.84916 0.40552 0.0
C814 C 0.71312 0.84166 0.4316 0.0
C815 C 0.73059 0.83583 0.43392 0.0
C816 C 0.7077 0.85116 0.41649 0.0
C817 C 0.7095 0.9121 0.33711 0.0
C818 C 0.7189 0.94284 0.34132 0.0
C819 C 0.73433 0.92455 0.32146 0.0
C820 C 0.72307 0.91028 0.32528 0.0
C821 C 0.73227 0.94111 0.32925 0.0
C822 C 0.70763 0.92856 0.34515 0.0
C823 C 0.6965 0.8974 0.33976 0.0
O824 O 0.67944 0.84641 0.35072 0.0
O825 O 0.66396 0.86338 0.36705 0.0
O826 O 0.68669 0.89833 0.35355 0.0
O827 O 0.70179 0.88136 0.33688 0.0
H828 H 0.62943 0.85193 0.36452 0.0
H829 H 0.6033 0.84272 0.34661 0.0
H830 H 0.63632 0.83015 0.30383 0.0
H831 H 0.66244 0.83922 0.32182 0.0
H832 H 0.75584 0.83519 0.42171 0.0
H833 H 0.74648 0.85211 0.39563 0.0
H834 H 0.70366 0.83915 0.44162 0.0
H835 H 0.69426 0.85566 0.41527 0.0
H836 H 0.71672 0.95542 0.3474 0.0
H837 H 0.7446 0.92262 0.31227 0.0
H838 H 0.72481 0.89789 0.31867 0.0
H839 H 0.69717 0.93058 0.35411 0.0
C840 C 0.64743 0.20773 0.32944 0.0
C841 C 0.64601 0.2201 0.31563 0.0
C842 C 0.61587 0.22664 0.32301 0.0
C843 C 0.63048 0.22949 0.31251 0.0
C844 C 0.61759 0.21484 0.33731 0.0
C845 C 0.63314 0.2055 0.34048 0.0
U846 U 0.69099 0.18998 0.35142 0.0
O847 O 0.69968 0.16254 0.3539 0.0
O848 O 0.71505 0.18175 0.3389 0.0
C849 C 0.71303 0.16518 0.34367 0.0
C850 C 0.66289 0.19599 0.33078 0.0
C851 C 0.71634 0.15138 0.33038 0.0
C852 C 0.73154 0.1422 0.3044 0.0
C853 C 0.72542 0.15553 0.31509 0.0
C854 C 0.71891 0.12016 0.32345 0.0
C855 C 0.72886 0.12432 0.30873 0.0
C856 C 0.71282 0.13351 0.33418 0.0
C857 C 0.70968 0.2123 0.39488 0.0
C858 C 0.73307 0.20268 0.41558 0.0
C859 C 0.72137 0.23184 0.41812 0.0
C860 C 0.70979 0.22851 0.4036 0.0
C861 C 0.73323 0.21903 0.42434 0.0
C862 C 0.72143 0.19936 0.40094 0.0
C863 C 0.6969 0.20945 0.3798 0.0
O864 O 0.6785 0.20325 0.3283 0.0
O865 O 0.66322 0.18408 0.34343 0.0
O866 O 0.68744 0.19472 0.37964 0.0
O867 O 0.70231 0.21396 0.36418 0.0
H868 H 0.65668 0.22201 0.30676 0.0
H869 H 0.62961 0.23827 0.30124 0.0
H870 H 0.60669 0.21242 0.34579 0.0
H871 H 0.63367 0.19608 0.35123 0.0
H872 H 0.73898 0.14591 0.29307 0.0
H873 H 0.72853 0.16909 0.31175 0.0
H874 H 0.71675 0.10658 0.32734 0.0
H875 H 0.70611 0.12979 0.34597 0.0
H876 H 0.74208 0.19255 0.4199 0.0
H877 H 0.72078 0.24443 0.42466 0.0
H878 H 0.70077 0.23865 0.39923 0.0
H879 H 0.72158 0.18674 0.39439 0.0
C880 C 0.32475 0.15161 0.36694 0.0
C881 C 0.3323 0.14336 0.3527 0.0
C882 C 0.30943 0.12002 0.35269 0.0
C883 C 0.32469 0.12772 0.34561 0.0
C884 C 0.30191 0.12853 0.36686 0.0
C885 C 0.30949 0.1441 0.37388 0.0
U886 U 0.35832 0.19105 0.37047 0.0
O887 O 0.35354 0.21855 0.37751 0.0
O888 O 0.37124 0.20275 0.39444 0.0
C889 C 0.36302 0.21771 0.39243 0.0
C890 C 0.33248 0.16788 0.37502 0.0
C891 C 0.35548 0.22531 0.40843 0.0
C892 C 0.33326 0.24249 0.42246 0.0
C893 C 0.33917 0.23378 0.40766 0.0
C894 C 0.35966 0.23429 0.43922 0.0
C895 C 0.34351 0.24306 0.43842 0.0
C896 C 0.36557 0.2256 0.42443 0.0
C897 C 0.39467 0.19626 0.33589 0.0
C898 C 0.42559 0.20605 0.33675 0.0
C899 C 0.40833 0.20664 0.30918 0.0
C900 C 0.39359 0.20009 0.31778 0.0
C901 C 0.42464 0.20946 0.31847 0.0
C902 C 0.41079 0.1995 0.34536 0.0
C903 C 0.37927 0.18758 0.34405 0.0
O904 O 0.34828 0.16666 0.38269 0.0
O905 O 0.33053 0.18246 0.36583 0.0
O906 O 0.36425 0.19583 0.34263 0.0
O907 O 0.382 0.18 0.35952 0.0
H908 H 0.3441 0.14894 0.34715 0.0
H909 H 0.33094 0.1215 0.3348 0.0
H910 H 0.29002 0.12325 0.37247 0.0
H911 H 0.30341 0.15029 0.38482 0.0
H912 H 0.32087 0.24925 0.4212 0.0
H913 H 0.33112 0.23404 0.39552 0.0
H914 H 0.36782 0.23416 0.45129 0.0
H915 H 0.37827 0.21938 0.42543 0.0
H916 H 0.43792 0.2079 0.34434 0.0
H917 H 0.40694 0.2094 0.29519 0.0
H918 H 0.38137 0.19766 0.31013 0.0
H919 H 0.41211 0.19663 0.35934 0.0
C920 C 0.34825 0.90305 0.33378 0.0
C921 C 0.33101 0.90499 0.33928 0.0
C922 C 0.32849 0.93276 0.32299 0.0
C923 C 0.32123 0.91962 0.3339 0.0
C924 C 0.34575 0.93065 0.31741 0.0
C925 C 0.3555 0.91595 0.32277 0.0
U926 U 0.35827 0.86375 0.36456 0.0
O927 O 0.36655 0.83695 0.35818 0.0
O928 O 0.38381 0.85408 0.37499 0.0
C929 C 0.38193 0.83893 0.36672 0.0
C930 C 0.35878 0.88768 0.33933 0.0
C931 C 0.39754 0.83218 0.35803 0.0
C932 C 0.42689 0.83608 0.34648 0.0
C933 C 0.4116 0.84324 0.35302 0.0
C934 C 0.41416 0.80679 0.34948 0.0
C935 C 0.4285 0.81771 0.34487 0.0
C936 C 0.39893 0.81393 0.35598 0.0
C937 C 0.32835 0.85459 0.40366 0.0
C938 C 0.33028 0.8289 0.42282 0.0
C939 C 0.31084 0.8524 0.42977 0.0
C940 C 0.31598 0.8616 0.41471 0.0
C941 C 0.31801 0.83596 0.43413 0.0
C942 C 0.33542 0.83813 0.40779 0.0
C943 C 0.33368 0.86465 0.38797 0.0
O944 O 0.36794 0.8893 0.35438 0.0
O945 O 0.35082 0.87218 0.33751 0.0
O946 O 0.33157 0.8565 0.37276 0.0
O947 O 0.34876 0.8735 0.38965 0.0
H948 H 0.32511 0.89518 0.34774 0.0
H949 H 0.3079 0.92056 0.33823 0.0
H950 H 0.35187 0.94051 0.30919 0.0
H951 H 0.3688 0.91472 0.31837 0.0
H952 H 0.43767 0.84492 0.34319 0.0
H953 H 0.41095 0.85737 0.35451 0.0
H954 H 0.4147 0.79263 0.34813 0.0
H955 H 0.38831 0.80511 0.35977 0.0
H956 H 0.33588 0.81616 0.42553 0.0
H957 H 0.30153 0.85835 0.43819 0.0
H958 H 0.31036 0.87431 0.41175 0.0
H959 H 0.34493 0.83244 0.39941 0.0
C960 C 0.70749 0.65052 0.20529 0.0
C961 C 0.72599 0.65254 0.20674 0.0
C962 C 0.72906 0.62082 0.2111 0.0
C963 C 0.73665 0.63785 0.20958 0.0
C964 C 0.71058 0.61885 0.20907 0.0
C965 C 0.69997 0.6335 0.20627 0.0
U966 U 0.68907 0.69407 0.18514 0.0
O967 O 0.66142 0.70216 0.18228 0.0
O968 O 0.68035 0.71751 0.19905 0.0
C969 C 0.66374 0.7151 0.19366 0.0
C970 C 0.69566 0.66582 0.20432 0.0
C971 C 0.65018 0.71707 0.20707 0.0
C972 C 0.62082 0.71048 0.21774 0.0
C973 C 0.63435 0.70696 0.20636 0.0
C974 C 0.63872 0.73405 0.23106 0.0
C975 C 0.62269 0.72428 0.23007 0.0
C976 C 0.65222 0.73054 0.21969 0.0
C977 C 0.70949 0.71439 0.14298 0.0
C978 C 0.70594 0.7218 0.11169 0.0
C979 C 0.72346 0.74099 0.13125 0.0
C980 C 0.71991 0.72983 0.14548 0.0
C981 C 0.71677 0.73699 0.11408 0.0
C982 C 0.70243 0.71062 0.12592 0.0
C983 C 0.70774 0.70119 0.15744 0.0
O984 O 0.70275 0.68145 0.20787 0.0
O985 O 0.68377 0.66604 0.19118 0.0
O986 O 0.69352 0.69091 0.15685 0.0
O987 O 0.71255 0.70621 0.17355 0.0
H988 H 0.73223 0.66548 0.20612 0.0
H989 H 0.75079 0.63993 0.2112 0.0
H990 H 0.70424 0.60596 0.20983 0.0
H991 H 0.68576 0.63155 0.20525 0.0
H992 H 0.60863 0.7028 0.21641 0.0
H993 H 0.63217 0.69662 0.19668 0.0
H994 H 0.64081 0.74459 0.24054 0.0
H995 H 0.66414 0.7387 0.22049 0.0
H996 H 0.70074 0.71812 0.09867 0.0
H997 H 0.73166 0.75268 0.13367 0.0
H998 H 0.72577 0.73311 0.15837 0.0
H999 H 0.69462 0.69869 0.12341 0.0
C1000 C 0.33813 0.70596 0.14576 0.0
C1001 C 0.34998 0.7131 0.1338 0.0
C1002 C 0.32546 0.7233 0.11459 0.0
C1003 C 0.34372 0.72159 0.1184 0.0
C1004 C 0.31366 0.71602 0.12657 0.0
C1005 C 0.31993 0.70746 0.14195 0.0
U1006 U 0.36968 0.69823 0.18677 0.0
O1007 O 0.36321 0.68886 0.21328 0.0
O1008 O 0.38018 0.67323 0.19713 0.0
C1009 C 0.37172 0.67411 0.21182 0.0
C1010 C 0.34432 0.69631 0.16184 0.0
C1011 C 0.36315 0.65756 0.21822 0.0
C1012 C 0.36569 0.62637 0.22556 0.0
C1013 C 0.37215 0.64166 0.21743 0.0
C1014 C 0.34075 0.64233 0.23521 0.0
C1015 C 0.35007 0.62654 0.23487 0.0
C1016 C 0.34723 0.65766 0.22706 0.0
C1017 C 0.40922 0.72998 0.19782 0.0
C1018 C 0.43523 0.72351 0.2165 0.0
C1019 C 0.42839 0.75379 0.20973 0.0
C1020 C 0.41347 0.74801 0.19953 0.0
C1021 C 0.43944 0.74162 0.2185 0.0
C1022 C 0.42029 0.71778 0.20637 0.0
C1023 C 0.39341 0.72421 0.18692 0.0
O1024 O 0.35937 0.68819 0.16107 0.0
O1025 O 0.34259 0.70423 0.177 0.0
O1026 O 0.37817 0.72528 0.19436 0.0
O1027 O 0.39475 0.70961 0.17791 0.0
H1028 H 0.36408 0.71205 0.13631 0.0
H1029 H 0.35327 0.72675 0.10942 0.0
H1030 H 0.29955 0.71724 0.12428 0.0
H1031 H 0.31052 0.70199 0.15092 0.0
H1032 H 0.3731 0.61444 0.22473 0.0
H1033 H 0.38454 0.64114 0.21092 0.0
H1034 H 0.32878 0.64307 0.24237 0.0
H1035 H 0.34004 0.66969 0.22818 0.0
H1036 H 0.44353 0.71369 0.22274 0.0
H1037 H 0.43102 0.76779 0.21108 0.0
H1038 H 0.40514 0.75768 0.19303 0.0
H1039 H 0.41739 0.70379 0.20523 0.0
C1040 C 0.34787 0.35005 0.14991 0.0
C1041 C 0.34252 0.33239 0.15247 0.0
C1042 C 0.33833 0.32803 0.12063 0.0
C1043 C 0.33782 0.32153 0.13801 0.0
C1044 C 0.34453 0.34543 0.1181 0.0
C1045 C 0.34916 0.3563 0.13255 0.0
U1046 U 0.37032 0.36871 0.19348 0.0
O1047 O 0.3753 0.39632 0.2013 0.0
O1048 O 0.35758 0.37955 0.2165 0.0
C1049 C 0.36417 0.39551 0.21408 0.0
C1050 C 0.35013 0.36265 0.16488 0.0
C1051 C 0.35213 0.41057 0.21596 0.0
C1052 C 0.3453 0.44143 0.21056 0.0
C1053 C 0.35452 0.42632 0.20644 0.0
C1054 C 0.33043 0.42525 0.23323 0.0
C1055 C 0.3335 0.44126 0.22435 0.0
C1056 C 0.33969 0.41015 0.22915 0.0
C1057 C 0.4115 0.34432 0.21433 0.0
C1058 C 0.42264 0.33014 0.2414 0.0
C1059 C 0.44312 0.34029 0.21989 0.0
C1060 C 0.42901 0.34656 0.20926 0.0
C1061 C 0.44009 0.33146 0.23584 0.0
C1062 C 0.40852 0.33644 0.23078 0.0
C1063 C 0.39669 0.34766 0.20125 0.0
O1064 O 0.34637 0.35679 0.18063 0.0
O1065 O 0.36409 0.37327 0.16513 0.0
O1066 O 0.39812 0.36158 0.19101 0.0
O1067 O 0.38048 0.34465 0.20616 0.0
H1068 H 0.34135 0.32708 0.16563 0.0
H1069 H 0.3333 0.30816 0.14048 0.0
H1070 H 0.3449 0.35101 0.10497 0.0
H1071 H 0.35306 0.36988 0.13013 0.0
H1072 H 0.34787 0.45345 0.20328 0.0
H1073 H 0.36404 0.42725 0.19626 0.0
H1074 H 0.32163 0.42463 0.24406 0.0
H1075 H 0.33769 0.39834 0.23692 0.0
H1076 H 0.41979 0.32362 0.25369 0.0
H1077 H 0.4563 0.34138 0.21502 0.0
H1078 H 0.43177 0.35233 0.19657 0.0
H1079 H 0.39524 0.33439 0.23513 0.0
C1080 C 0.6518 0.33199 0.19476 0.0
C1081 C 0.65328 0.3191 0.20808 0.0
C1082 C 0.62119 0.31563 0.20853 0.0
C1083 C 0.63819 0.31109 0.21492 0.0
C1084 C 0.61972 0.32881 0.19549 0.0
C1085 C 0.6348 0.33682 0.18866 0.0
U1086 U 0.69207 0.36403 0.18723 0.0
O1087 O 0.71855 0.35726 0.17898 0.0
O1088 O 0.70166 0.37375 0.16194 0.0
C1089 C 0.7165 0.36522 0.16364 0.0
C1090 C 0.6677 0.33867 0.18574 0.0
C1091 C 0.72145 0.35515 0.14806 0.0
C1092 C 0.71517 0.3329 0.12549 0.0
C1093 C 0.7103 0.34192 0.14055 0.0
C1094 C 0.74244 0.35009 0.1254 0.0
C1095 C 0.7313 0.3369 0.11765 0.0
C1096 C 0.73755 0.3591 0.14041 0.0
C1097 C 0.70217 0.40411 0.2177 0.0
C1098 C 0.72734 0.4243 0.21521 0.0
C1099 C 0.70543 0.43007 0.23648 0.0
C1100 C 0.69605 0.41472 0.2311 0.0
C1101 C 0.72115 0.43518 0.22852 0.0
C1102 C 0.71794 0.40897 0.20985 0.0
C1103 C 0.69186 0.38817 0.21207 0.0
O1104 O 0.66632 0.35353 0.1769 0.0
O1105 O 0.68312 0.33717 0.19419 0.0
O1106 O 0.69986 0.3731 0.21407 0.0
O1107 O 0.68284 0.38934 0.19694 0.0
H1108 H 0.66612 0.31477 0.21287 0.0
H1109 H 0.6399 0.30086 0.22478 0.0
H1110 H 0.60688 0.33285 0.1904 0.0
H1111 H 0.6331 0.3465 0.17825 0.0
H1112 H 0.70634 0.32268 0.12007 0.0
H1113 H 0.69783 0.33861 0.14628 0.0
H1114 H 0.75482 0.35374 0.11967 0.0
H1115 H 0.74632 0.3693 0.14597 0.0
H1116 H 0.73954 0.42758 0.20896 0.0
H1117 H 0.70014 0.43813 0.24661 0.0
H1118 H 0.68388 0.41121 0.23733 0.0
H1119 H 0.72296 0.40094 0.19954 0.0
C1120 C 0.66104 0.34797 0.84071 0.0
C1121 C 0.66055 0.3352 0.8273 0.0
C1122 C 0.62849 0.33714 0.82335 0.0
C1123 C 0.64452 0.32992 0.81868 0.0
C1124 C 0.6291 0.35049 0.83619 0.0
C1125 C 0.64511 0.35579 0.84477 0.0
U1126 U 0.7046 0.37353 0.85584 0.0
O1127 O 0.71537 0.37855 0.88281 0.0
O1128 O 0.73029 0.36279 0.86476 0.0
C1129 C 0.7294 0.36907 0.88079 0.0
C1130 C 0.67752 0.35123 0.85188 0.0
C1131 C 0.73532 0.35756 0.89567 0.0
C1132 C 0.73135 0.34412 0.92454 0.0
C1133 C 0.72443 0.35297 0.90956 0.0
C1134 C 0.75995 0.34389 0.91176 0.0
C1135 C 0.74932 0.33982 0.926 0.0
C1136 C 0.75304 0.35264 0.89683 0.0
C1137 C 0.71946 0.41582 0.8314 0.0
C1138 C 0.74455 0.435 0.84021 0.0
C1139 C 0.72854 0.43994 0.8124 0.0
C1140 C 0.71723 0.42564 0.81582 0.0
C1141 C 0.74242 0.44482 0.82448 0.0
C1142 C 0.7332 0.42059 0.84361 0.0
C1143 C 0.70726 0.40074 0.83441 0.0
O1144 O 0.69267 0.34905 0.84454 0.0
O1145 O 0.67789 0.36473 0.8627 0.0
O1146 O 0.69859 0.40101 0.849 0.0
O1147 O 0.71319 0.38511 0.83089 0.0
H1148 H 0.67248 0.32868 0.82398 0.0
H1149 H 0.6446 0.31947 0.80904 0.0
H1150 H 0.61707 0.35649 0.84003 0.0
H1151 H 0.64485 0.36556 0.85509 0.0
H1152 H 0.72279 0.34126 0.93527 0.0
H1153 H 0.71072 0.35665 0.90911 0.0
H1154 H 0.77375 0.34052 0.91224 0.0
H1155 H 0.76175 0.35608 0.88637 0.0
H1156 H 0.75515 0.43827 0.84976 0.0
H1157 H 0.72624 0.44733 0.80031 0.0
H1158 H 0.70667 0.42223 0.80625 0.0
H1159 H 0.73518 0.41315 0.85571 0.0
C1160 C 0.66075 0.71 0.83802 0.0
C1161 C 0.64624 0.70804 0.84884 0.0
C1162 C 0.63066 0.73128 0.83265 0.0
C1163 C 0.63142 0.71857 0.84622 0.0
C1164 C 0.64535 0.73345 0.82211 0.0
C1165 C 0.66012 0.72291 0.82471 0.0
U1166 U 0.70395 0.69181 0.85991 0.0
O1167 O 0.71249 0.6643 0.86232 0.0
O1168 O 0.72794 0.68351 0.8474 0.0
C1169 C 0.72574 0.66691 0.85195 0.0
C1170 C 0.67584 0.69782 0.83934 0.0
C1171 C 0.72844 0.65334 0.83828 0.0
C1172 C 0.74043 0.64495 0.81031 0.0
C1173 C 0.73506 0.65795 0.82182 0.0
C1174 C 0.73187 0.62236 0.83096 0.0
C1175 C 0.73938 0.627 0.81493 0.0
C1176 C 0.72656 0.63536 0.84251 0.0
C1177 C 0.72299 0.71483 0.90326 0.0
C1178 C 0.75006 0.72905 0.91541 0.0
C1179 C 0.72767 0.71899 0.93502 0.0
C1180 C 0.71732 0.71265 0.92053 0.0
C1181 C 0.74391 0.72782 0.93261 0.0
C1182 C 0.73973 0.72266 0.90092 0.0
C1183 C 0.71022 0.71149 0.88809 0.0
O1184 O 0.69154 0.70474 0.83662 0.0
O1185 O 0.67604 0.68615 0.8522 0.0
O1186 O 0.70064 0.69683 0.88822 0.0
O1187 O 0.71525 0.71589 0.87229 0.0
H1188 H 0.64613 0.6981 0.85911 0.0
H1189 H 0.62031 0.71634 0.85447 0.0
H1190 H 0.64541 0.74325 0.81171 0.0
H1191 H 0.67098 0.72467 0.81603 0.0
H1192 H 0.74599 0.64901 0.798 0.0
H1193 H 0.73678 0.67163 0.81807 0.0
H1194 H 0.73105 0.60872 0.83508 0.0
H1195 H 0.72172 0.63135 0.85516 0.0
H1196 H 0.76258 0.73558 0.91306 0.0
H1197 H 0.72238 0.71797 0.948 0.0
H1198 H 0.70441 0.70689 0.92277 0.0
H1199 H 0.74454 0.72461 0.88783 0.0
C1200 C 0.33823 0.64903 0.85023 0.0
C1201 C 0.3507 0.63722 0.84451 0.0
C1202 C 0.3272 0.61795 0.83162 0.0
C1203 C 0.34526 0.62187 0.8354 0.0
C1204 C 0.31476 0.62978 0.83748 0.0
C1205 C 0.32022 0.64511 0.84667 0.0
U1206 U 0.36825 0.69021 0.86036 0.0
O1207 O 0.36096 0.71666 0.86888 0.0
O1208 O 0.37819 0.70066 0.8861 0.0
C1209 C 0.36933 0.71527 0.88437 0.0
C1210 C 0.34359 0.66511 0.86038 0.0
C1211 C 0.36037 0.72156 0.90017 0.0
C1212 C 0.36239 0.72909 0.93147 0.0
C1213 C 0.36941 0.72123 0.91675 0.0
C1214 C 0.33687 0.73761 0.91352 0.0
C1215 C 0.34615 0.73766 0.93004 0.0
C1216 C 0.34391 0.72973 0.89877 0.0
C1217 C 0.40791 0.7004 0.83104 0.0
C1218 C 0.42677 0.72678 0.83275 0.0
C1219 C 0.43421 0.70285 0.81377 0.0
C1220 C 0.41921 0.69333 0.81891 0.0
C1221 C 0.4383 0.71969 0.82069 0.0
C1222 C 0.41178 0.71723 0.83789 0.0
C1223 C 0.39221 0.68999 0.83624 0.0
O1224 O 0.35849 0.66453 0.8699 0.0
O1225 O 0.3415 0.68025 0.8522 0.0
O1226 O 0.37689 0.69758 0.83394 0.0
O1227 O 0.39379 0.68143 0.85128 0.0
H1228 H 0.36468 0.63981 0.84713 0.0
H1229 H 0.35527 0.61301 0.8314 0.0
H1230 H 0.30079 0.62741 0.83466 0.0
H1231 H 0.31034 0.65396 0.85099 0.0
H1232 H 0.36983 0.72856 0.94397 0.0
H1233 H 0.3822 0.71524 0.91827 0.0
H1234 H 0.32443 0.74421 0.9118 0.0
H1235 H 0.33666 0.73048 0.88618 0.0
H1236 H 0.42926 0.73981 0.83817 0.0
H1237 H 0.4428 0.69684 0.80464 0.0
H1238 H 0.41647 0.68035 0.81346 0.0
H1239 H 0.40321 0.72299 0.8472 0.0
C1240 C 0.36909 0.40187 0.82944 0.0
C1241 C 0.35494 0.41019 0.83695 0.0
C1242 C 0.35452 0.43235 0.8134 0.0
C1243 C 0.34769 0.42528 0.82898 0.0
C1244 C 0.36859 0.42376 0.80593 0.0
C1245 C 0.37576 0.40874 0.81387 0.0
U1246 U 0.37392 0.36353 0.86356 0.0
O1247 O 0.3818 0.33635 0.85864 0.0
O1248 O 0.39856 0.35342 0.87594 0.0
C1249 C 0.39696 0.33827 0.86763 0.0
C1250 C 0.37741 0.3862 0.8375 0.0
C1251 C 0.41302 0.33179 0.85938 0.0
C1252 C 0.42717 0.31613 0.83601 0.0
C1253 C 0.41216 0.32361 0.84275 0.0
C1254 C 0.44433 0.32507 0.8622 0.0
C1255 C 0.44346 0.31657 0.84573 0.0
C1256 C 0.42933 0.33249 0.86894 0.0
C1257 C 0.34009 0.35753 0.90061 0.0
C1258 C 0.34252 0.34568 0.93054 0.0
C1259 C 0.31372 0.34897 0.91607 0.0
C1260 C 0.32168 0.3556 0.90104 0.0
C1261 C 0.32399 0.34412 0.93115 0.0
C1262 C 0.35048 0.35234 0.91545 0.0
C1263 C 0.34779 0.36614 0.88502 0.0
O1264 O 0.38517 0.38829 0.85321 0.0
O1265 O 0.36851 0.3712 0.83583 0.0
O1266 O 0.34637 0.35741 0.87009 0.0
O1267 O 0.36311 0.37446 0.88748 0.0
H1268 H 0.3496 0.4051 0.849 0.0
H1269 H 0.33696 0.4316 0.83519 0.0
H1270 H 0.37401 0.42854 0.79381 0.0
H1271 H 0.38663 0.40247 0.80781 0.0
H1272 H 0.42586 0.30954 0.82339 0.0
H1273 H 0.3998 0.32263 0.83505 0.0
H1274 H 0.45664 0.32596 0.86998 0.0
H1275 H 0.43043 0.33856 0.88184 0.0
H1276 H 0.35088 0.34223 0.94191 0.0
H1277 H 0.29947 0.34767 0.91584 0.0
H1278 H 0.31336 0.35952 0.88979 0.0
H1279 H 0.36473 0.35372 0.91554 0.0
Cu1280 Cu 0.28268 0.28307 0.03198 0.0
N1281 N 0.28236 0.30275 1.01691 0.0
N1282 N 0.29011 0.3198 0.99412 0.0
C1283 C 0.29187 0.30407 1.00234 0.0
C1284 C 0.27895 0.32871 1.00399 0.0
C1285 C 0.27425 0.31821 1.01803 0.0
O1286 O 0.28231 0.26285 1.01583 0.0
C1287 C 0.30073 0.29876 0.05983 0.0
O1288 O 0.28629 0.3079 0.05828 0.0
H1289 H 0.29994 0.29357 0.99792 0.0
H1290 H 0.26581 0.32176 0.02847 0.0
N1291 N 0.26322 0.28039 0.04646 0.0
N1292 N 0.24757 0.26965 0.06868 0.0
C1293 C 0.26274 0.26892 0.06005 0.0
C1294 C 0.2478 0.28877 0.04644 0.0
C1295 C 0.23811 0.28212 0.06008 0.0
C1296 C 0.26712 0.25878 1.00879 0.0
O1297 O 0.25337 0.26736 1.01365 0.0
H1298 H 0.27336 0.26011 0.06341 0.0
H1299 H 0.24386 0.29895 0.03719 0.0
O1300 O 0.30293 0.28641 0.04882 0.0
H1301 H 0.27478 0.34205 1.00155 0.0
H1302 H 0.22522 0.28638 0.06352 0.0
Cu1303 Cu 0.78636 0.28332 1.0187 0.0
N1304 N 0.76658 0.28976 0.03306 0.0
N1305 N 0.75084 0.30092 0.0545 0.0
C1306 C 0.76695 0.30001 0.04758 0.0
C1307 C 0.74004 0.29086 0.04381 0.0
C1308 C 0.74976 0.28401 0.03067 0.0
O1309 O 0.79758 0.27038 0.04006 0.0
C1310 C 0.78144 0.30895 0.98984 0.0
O1311 O 0.79652 0.31548 0.99642 0.0
H1312 H 0.77876 0.30667 0.05292 0.0
H1313 H 0.74497 0.27524 0.02024 0.0
N1314 N 0.80626 0.27687 1.00442 0.0
N1315 N 0.82259 0.26604 0.9833 0.0
C1316 C 0.80606 0.26817 0.98889 0.0
C1317 C 0.82337 0.28049 1.00862 0.0
C1318 C 0.83343 0.2738 0.99572 0.0
C1319 C 0.80774 0.27795 0.0517 0.0
O1320 O 0.8116 0.2948 0.04996 0.0
H1321 H 0.79412 0.26337 0.98197 0.0
H1322 H 0.82823 0.28758 0.02023 0.0
O1323 O 0.77456 0.2955 0.99719 0.0
H1324 H 0.72615 0.28823 0.04555 0.0
H1325 H 0.84766 0.27483 0.99537 0.0
Cu1326 Cu 0.77553 0.79163 0.01989 0.0
N1327 N 0.77568 0.81173 1.00535 0.0
N1328 N 0.78319 0.82917 0.9828 0.0
C1329 C 0.78596 0.81381 0.99142 0.0
C1330 C 0.77064 0.8371 0.99181 0.0
C1331 C 0.76606 0.82633 1.0057 0.0
O1332 O 0.77716 0.77163 1.0038 0.0
C1333 C 0.79018 0.80717 0.04961 0.0
O1334 O 0.77523 0.81536 0.04715 0.0
H1335 H 0.79497 0.80391 0.98745 0.0
H1336 H 0.75634 0.82892 1.01527 0.0
N1337 N 0.75469 0.78774 0.03198 0.0
N1338 N 0.73752 0.77701 0.05301 0.0
C1339 C 0.75394 0.77803 0.04685 0.0
C1340 C 0.73812 0.79307 0.02849 0.0
C1341 C 0.72748 0.78643 0.04142 0.0
C1342 C 0.76556 0.77194 0.99105 0.0
O1343 O 0.75421 0.78471 0.99034 0.0
H1344 H 0.7653 0.77164 0.05288 0.0
H1345 H 0.73404 0.80116 1.01735 0.0
O1346 O 0.7941 0.79546 0.03849 0.0
H1347 H 0.76517 0.84981 0.9887 0.0
H1348 H 0.71351 0.78856 0.04229 0.0
Cu1349 Cu 0.28273 0.78011 0.02634 0.0
N1350 N 0.27898 0.80002 0.04028 0.0
N1351 N 0.26703 0.81613 0.06121 0.0
C1352 C 0.26808 0.80003 0.05386 0.0
C1353 C 0.2778 0.82665 0.05184 0.0
C1354 C 0.28515 0.81671 0.03899 0.0
O1355 O 0.28711 0.76106 0.04357 0.0
C1356 C 0.26263 0.79187 0.9985 0.0
O1357 O 0.27495 0.8042 1.00071 0.0
H1358 H 0.26072 0.78846 0.05797 0.0
H1359 H 0.29414 0.82139 0.02927 0.0
N1360 N 0.30253 0.78132 1.01219 0.0
N1361 N 0.3198 0.77398 0.99022 0.0
C1362 C 0.30463 0.77051 0.99842 0.0
C1363 C 0.31687 0.79211 1.01278 0.0
C1364 C 0.32754 0.7876 0.9993 0.0
C1365 C 0.30065 0.76463 0.05373 0.0
O1366 O 0.30941 0.77945 0.051 0.0
H1367 H 0.2952 0.76014 0.99465 0.0
H1368 H 0.31942 0.80249 0.02231 0.0
O1369 O 0.26268 0.77867 1.00903 0.0
H1370 H 0.28028 0.84056 0.05411 0.0
H1371 H 0.33993 0.79404 0.99633 0.0
Cu1372 Cu 0.03534 0.27095 0.29171 0.0
N1373 N 0.04963 0.25121 0.29019 0.0
N1374 N 0.07146 0.2349 0.28053 0.0
C1375 C 0.06357 0.25066 0.27983 0.0
C1376 C 0.06201 0.22512 0.29184 0.0
C1377 C 0.04859 0.23521 0.29779 0.0
O1378 O 0.05257 0.2907 0.29399 0.0
C1379 C 1.0088 0.25673 0.27061 0.0
O1380 O 1.01084 0.24516 0.28341 0.0
H1381 H 0.06756 0.2616 0.27163 0.0
H1382 H 0.03869 0.23109 0.30685 0.0
N1383 N 0.0207 0.2705 0.31108 0.0
N1384 N 0.99786 0.27717 0.3274 0.0
C1385 C 1.00567 0.27955 0.31188 0.0
C1386 C 0.02251 0.26203 0.32663 0.0
C1387 C 1.00843 0.26608 0.33669 0.0
C1388 C 0.05411 0.30047 0.30765 0.0
O1389 O 0.04158 0.29994 0.319 0.0
H1390 H 1.00059 0.28769 0.30118 0.0
H1391 H 0.03339 0.25372 0.33048 0.0
O1392 O 1.01903 0.27036 0.27088 0.0
H1393 H 0.06462 0.21166 0.29564 0.0
H1394 H 1.00641 0.26149 0.34997 0.0
Cu1395 Cu 0.78573 0.0382 0.27157 0.0
N1396 N 0.80698 0.05137 0.27062 0.0
N1397 N 0.82566 0.07284 0.26218 0.0
C1398 C 0.80922 0.06562 0.26022 0.0
C1399 C 0.8341 0.06258 0.2743 0.0
C1400 C 0.82255 0.04939 0.2795 0.0
O1401 O 0.76693 0.05557 0.27203 0.0
C1402 C 0.79717 1.00913 0.25483 0.0
O1403 O 0.80742 1.00984 0.26923 0.0
H1404 H 0.79892 0.07049 0.2513 0.0
H1405 H 0.82529 0.03916 0.28911 0.0
N1406 N 0.78359 0.02444 0.29202 0.0
N1407 N 0.7735 1.00239 0.30885 0.0
C1408 C 0.773 1.00998 0.29271 0.0
C1409 C 0.79108 0.02622 0.30834 0.0
C1410 C 0.78485 1.01264 0.31877 0.0
C1411 C 0.76999 0.06753 0.28367 0.0
O1412 O 0.78452 0.06682 0.29369 0.0
H1413 H 0.76487 1.00529 0.28154 0.0
H1414 H 0.80034 0.03663 0.31239 0.0
O1415 O 0.78574 0.02107 0.25218 0.0
H1416 H 0.84757 0.0646 0.27934 0.0
H1417 H 0.78855 1.01042 0.33252 0.0
Cu1418 Cu 0.02037 0.77483 0.27746 0.0
N1419 N 1.0075 0.79569 0.2777 0.0
N1420 N 0.98619 0.81429 0.2692 0.0
C1421 C 0.99299 0.7982 0.26716 0.0
C1422 C 0.99694 0.82226 0.28159 0.0
C1423 C 1.01004 0.81074 0.28684 0.0
O1424 O 1.00205 0.75594 0.279 0.0
C1425 C 0.04711 0.7897 0.25956 0.0
O1426 O 0.04605 0.79934 0.27377 0.0
H1427 H 0.98777 0.78843 0.25787 0.0
H1428 H 0.02072 0.81327 0.29649 0.0
N1429 N 0.03655 0.77147 0.29668 0.0
N1430 N 0.06039 0.76039 0.31099 0.0
C1431 C 0.04989 0.76013 0.29611 0.0
C1432 C 0.03855 0.77924 0.31256 0.0
C1433 C 0.0532 0.7724 0.32143 0.0
C1434 C 0.99371 0.75696 0.29325 0.0
O1435 O 0.99865 0.76946 0.30445 0.0
H1436 H 0.05179 0.75185 0.28484 0.0
H1437 H 0.03013 0.78928 0.31729 0.0
O1438 O 0.0358 0.77701 0.25718 0.0
H1439 H 0.99542 0.83541 0.2866 0.0
H1440 H 0.05836 0.77629 0.33439 0.0
Cu1441 Cu 0.26683 1.01898 0.28711 0.0
N1442 N 0.26779 0.03323 0.3074 0.0
N1443 N 0.27603 0.05573 0.32528 0.0
C1444 C 0.27824 0.04777 0.30965 0.0
C1445 C 0.26367 0.04571 0.33314 0.0
C1446 C 0.2586 0.03191 0.3221 0.0
O1447 O 0.2673 0.03577 0.26738 0.0
C1448 C 0.28469 0.99236 0.30368 0.0
O1449 O 0.27138 0.9948 0.31379 0.0
H1450 H 0.28734 0.05235 0.29997 0.0
H1451 H 0.24885 0.0217 0.3246 0.0
N1452 N 0.24593 1.00522 0.28416 0.0
N1453 N 0.22738 0.98365 0.27406 0.0
C1454 C 0.24403 0.99052 0.27424 0.0
C1455 C 0.22995 1.00776 0.29053 0.0
C1456 C 0.21852 0.99452 0.28435 0.0
C1457 C 0.25541 0.04735 0.26797 0.0
O1458 O 0.24428 0.04648 0.2807 0.0
H1459 H 0.25463 0.98523 0.267 0.0
H1460 H 0.22676 1.01856 0.29893 0.0
O1461 O 0.28599 1.00211 0.29 0.0
H1462 H 0.25837 0.04829 0.34583 0.0
H1463 H 0.20476 0.99301 0.28734 0.0
Cu1464 Cu 0.03526 0.78565 0.77766 0.0
N1465 N 0.04994 0.76621 0.77643 0.0
N1466 N 0.07195 0.75035 0.76646 0.0
C1467 C 0.06331 0.76568 0.76537 0.0
C1468 C 0.06358 0.7408 0.77877 0.0
C1469 C 0.05004 0.75064 0.78493 0.0
O1470 O 0.0523 0.80555 0.77915 0.0
C1471 C 1.00889 0.77009 0.75755 0.0
O1472 O 1.01159 0.75905 0.77072 0.0
H1473 H 0.06636 0.77633 0.75642 0.0
H1474 H 0.04088 0.74664 0.79477 0.0
N1475 N 0.02094 0.78574 0.79724 0.0
N1476 N 0.99834 0.79324 0.81355 0.0
C1477 C 1.00582 0.79467 0.79776 0.0
C1478 C 0.02315 0.77826 0.81324 0.0
C1479 C 1.00926 0.78285 0.82332 0.0
C1480 C 0.0536 0.81608 0.79223 0.0
O1481 O 0.04055 0.81672 0.80295 0.0
H1482 H 1.00077 0.80252 0.78683 0.0
H1483 H 0.0342 0.77027 0.81738 0.0
O1484 O 1.01864 0.78404 0.75713 0.0
H1485 H 0.06703 0.72772 0.78315 0.0
H1486 H 1.00742 0.7788 0.8368 0.0
Cu1487 Cu 0.29177 0.03598 0.78759 0.0
N1488 N 0.3122 0.0506 0.78724 0.0
N1489 N 0.32993 0.07285 0.77872 0.0
C1490 C 0.31432 0.0641 0.77586 0.0
C1491 C 0.33793 0.06442 0.7925 0.0
C1492 C 0.32696 0.05077 0.79776 0.0
O1493 O 0.27234 0.05243 0.78944 0.0
C1494 C 0.30649 1.01389 0.76371 0.0
O1495 O 0.32049 1.01881 0.77342 0.0
H1496 H 0.30454 0.06733 0.76563 0.0
H1497 H 0.32953 0.04169 0.80853 0.0
N1498 N 0.29082 0.02037 0.80682 0.0
N1499 N 0.28149 0.99678 0.82206 0.0
C1500 C 0.28168 1.00491 0.80619 0.0
C1501 C 0.29672 0.02213 0.82372 0.0
C1502 C 0.29097 1.00762 0.83315 0.0
C1503 C 0.27501 0.06368 0.80181 0.0
O1504 O 0.2894 0.0627 0.812 0.0
H1505 H 0.27464 1.00011 0.79437 0.0
H1506 H 0.30423 0.03337 0.82894 0.0
O1507 O 0.29162 0.02045 0.7669 0.0
H1508 H 0.35066 0.06802 0.79862 0.0
H1509 H 0.29344 1.00535 0.84712 0.0
Cu1510 Cu 0.03591 0.28967 0.78545 0.0
N1511 N 0.02146 0.30944 0.78522 0.0
N1512 N 0.99945 0.32666 0.77542 0.0
C1513 C 1.00833 0.31174 0.77292 0.0
C1514 C 1.00735 0.33404 0.78999 0.0
C1515 C 0.02094 0.32342 0.79599 0.0
O1516 O 1.01888 0.26962 0.78582 0.0
C1517 C 0.06077 0.30721 0.76681 0.0
O1518 O 0.05792 0.31785 0.77991 0.0
H1519 H 1.00521 0.30238 0.76248 0.0
H1520 H 0.02981 0.32583 0.8073 0.0
N1521 N 0.05164 0.28733 0.80518 0.0
N1522 N 0.07506 0.27702 0.82082 0.0
C1523 C 0.06568 0.2768 0.80524 0.0
C1524 C 0.05208 0.29455 0.82135 0.0
C1525 C 0.06647 0.2882 0.83102 0.0
C1526 C 1.01018 0.26917 0.79988 0.0
O1527 O 1.01413 0.28106 0.81202 0.0
H1528 H 0.06873 0.26888 0.79402 0.0
H1529 H 0.04257 0.30364 0.8259 0.0
O1530 O 0.0517 0.29278 0.76568 0.0
H1531 H 1.00377 0.34635 0.79579 0.0
H1532 H 0.07034 0.29168 0.84448 0.0
Cu1533 Cu 0.77143 0.0246 0.76614 0.0
N1534 N 0.77378 0.03966 0.78581 0.0
N1535 N 0.78446 0.06223 0.80244 0.0
C1536 C 0.7853 0.05348 0.78704 0.0
C1537 C 0.77185 0.05348 0.81125 0.0
C1538 C 0.76527 0.03963 0.80097 0.0
O1539 O 0.77078 0.04087 0.74591 0.0
C1540 C 0.78985 0.99881 0.78312 0.0
O1541 O 0.77692 1.00189 0.79352 0.0
H1542 H 0.79429 0.05689 0.77683 0.0
H1543 H 0.75505 0.03021 0.80435 0.0
N1544 N 0.75052 1.01064 0.76476 0.0
N1545 N 0.73185 0.98841 0.7565 0.0
C1546 C 0.74832 0.99553 0.75551 0.0
C1547 C 0.73491 1.0132 0.77192 0.0
C1548 C 0.72341 0.99957 0.76686 0.0
C1549 C 0.75877 0.05231 0.74678 0.0
O1550 O 0.74822 0.05153 0.76 0.0
H1551 H 0.7586 0.99006 0.74794 0.0
H1552 H 0.73202 0.02425 0.78014 0.0
O1553 O 0.79068 1.0078 0.76888 0.0
H1554 H 0.76749 0.05693 0.82413 0.0
H1555 H 0.7099 0.99798 0.77069 0.0
Cu1556 Cu 0.28413 0.77638 0.52189 0.0
N1557 N 0.30313 0.77989 0.53843 0.0
N1558 N 0.31721 0.79148 0.56246 0.0
C1559 C 0.30216 0.79082 0.55225 0.0
C1560 C 0.3282 0.78053 0.55464 0.0
C1561 C 0.31945 0.77334 0.53985 0.0
O1562 O 0.26344 0.77492 0.53651 0.0
C1563 C 0.30026 0.79482 0.49607 0.0
O1564 O 0.31168 0.78278 0.50078 0.0
H1565 H 0.29058 0.79835 0.55459 0.0
H1566 H 0.3247 0.7641 0.53079 0.0
N1567 N 0.28398 0.75545 0.50885 0.0
N1568 N 0.2748 0.7367 0.48741 0.0
C1569 C 0.27207 0.75213 0.4955 0.0
C1570 C 0.29471 0.74162 0.50933 0.0
C1571 C 0.2891 0.73004 0.49607 0.0
C1572 C 0.2649 0.76286 0.54826 0.0
O1573 O 0.27883 0.75294 0.54854 0.0
H1574 H 0.26183 0.76118 0.49155 0.0
H1575 H 0.30585 0.74007 0.51855 0.0
O1576 O 0.28585 0.7952 0.50414 0.0
H1577 H 0.34153 0.77777 0.55933 0.0
H1578 H 0.29502 0.71764 0.49316 0.0
Cu1579 Cu 0.77318 0.77287 0.51721 0.0
N1580 N 0.7752 0.75406 0.50144 0.0
N1581 N 0.78548 0.73903 0.47878 0.0
C1582 C 0.78715 0.75371 0.48882 0.0
C1583 C 0.77186 0.72977 0.48544 0.0
C1584 C 0.76551 0.73908 0.49933 0.0
O1585 O 0.76798 0.7932 0.50197 0.0
C1586 C 0.79657 0.78022 0.54721 0.0
O1587 O 0.78469 0.79145 0.55165 0.0
H1588 H 0.79693 0.76411 0.4871 0.0
H1589 H 0.75442 0.73532 0.50707 0.0
N1590 N 0.75484 0.76995 0.53301 0.0
N1591 N 0.73804 0.77732 0.55538 0.0
C1592 C 0.74739 0.78317 0.54164 0.0
C1593 C 0.74984 0.75516 0.54141 0.0
C1594 C 0.73941 0.75962 0.55507 0.0
C1595 C 0.75309 0.79172 0.49343 0.0
O1596 O 0.74298 0.77788 0.49659 0.0
H1597 H 0.74987 0.7969 0.53858 0.0
H1598 H 0.7546 0.7422 0.53876 0.0
O1599 O 0.79509 0.77311 0.532 0.0
H1600 H 0.76653 0.71735 0.4804 0.0
H1601 H 0.73444 0.7506 0.56484 0.0
Cu1602 Cu 0.78557 0.2736 0.52467 0.0
N1603 N 0.78463 0.25332 0.51058 0.0
N1604 N 0.77539 0.23671 0.48743 0.0
C1605 C 0.77568 0.25284 0.49484 0.0
C1606 C 0.78456 0.22654 0.49906 0.0
C1607 C 0.79031 0.23685 0.51333 0.0
O1608 O 0.78798 0.29299 0.50759 0.0
C1609 C 0.76665 0.25997 0.55136 0.0
O1610 O 0.78068 0.25021 0.55167 0.0
H1611 H 0.76891 0.26407 0.48926 0.0
H1612 H 0.79773 0.23254 0.52499 0.0
N1613 N 0.80488 0.27616 0.54098 0.0
N1614 N 0.81995 0.28769 0.56448 0.0
C1615 C 0.80506 0.28809 0.55406 0.0
C1616 C 0.82026 0.26779 0.54312 0.0
C1617 C 0.82965 0.27496 0.55757 0.0
C1618 C 0.80237 0.292 0.49954 0.0
O1619 O 0.81305 0.27923 0.50403 0.0
H1620 H 0.7944 0.29703 0.55574 0.0
H1621 H 0.82433 0.25724 0.53483 0.0
O1622 O 0.76505 0.27202 0.5396 0.0
H1623 H 0.78686 0.21266 0.49746 0.0
H1624 H 0.84245 0.27092 0.56274 0.0
Cu1625 Cu 0.28571 0.2891 0.53634 0.0
N1626 N 0.28338 0.30965 0.54976 0.0
N1627 N 0.27422 0.3271 0.57119 0.0
C1628 C 0.27433 0.31056 0.56464 0.0
C1629 C 0.28375 0.3369 0.55994 0.0
C1630 C 0.28933 0.32615 0.54678 0.0
O1631 O 0.29072 0.27035 0.55369 0.0
C1632 C 0.25375 0.29811 0.51715 0.0
O1633 O 0.25221 0.30997 0.52945 0.0
H1634 H 0.26755 0.29929 0.5702 0.0
H1635 H 0.29696 0.33014 0.5357 0.0
N1636 N 0.30472 0.28987 0.5213 0.0
N1637 N 0.32084 0.2817 0.49877 0.0
C1638 C 0.30599 0.27876 0.50764 0.0
C1639 C 0.31929 0.30032 0.52114 0.0
C1640 C 0.32926 0.29529 0.5073 0.0
C1641 C 0.30472 0.27368 0.56324 0.0
O1642 O 0.31366 0.2883 0.5601 0.0
H1643 H 0.29624 0.26849 0.5045 0.0
H1644 H 0.32251 0.31076 0.53045 0.0
O1645 O 0.2654 0.28636 0.51939 0.0
H1646 H 0.2866 0.35087 0.56105 0.0
H1647 H 0.34166 0.30135 0.50373 0.0
Cu1648 Cu 0.79519 0.54373 0.77119 0.0
N1649 N 0.81586 0.5577 0.76912 0.0
N1650 N 0.83322 0.57966 0.75928 0.0
C1651 C 0.81716 0.57151 0.75797 0.0
C1652 C 0.84239 0.57048 0.77177 0.0
C1653 C 0.83165 0.55699 0.77784 0.0
O1654 O 0.77597 0.56039 0.77326 0.0
C1655 C 0.80712 0.51629 0.75269 0.0
O1656 O 0.8189 0.51805 0.76582 0.0
H1657 H 0.80644 0.57543 0.74904 0.0
H1658 H 0.83507 0.54747 0.78798 0.0
N1659 N 0.79446 0.52913 0.79119 0.0
N1660 N 0.78508 0.50617 0.80728 0.0
C1661 C 0.78449 0.51421 0.79137 0.0
C1662 C 0.80167 0.53074 0.80765 0.0
C1663 C 0.79587 0.51659 0.81763 0.0
C1664 C 0.77946 0.57225 0.78489 0.0
O1665 O 0.79466 0.57194 0.79387 0.0
H1666 H 0.77651 0.50964 0.78005 0.0
H1667 H 0.81027 0.54152 0.81215 0.0
O1668 O 0.7944 0.52703 0.75149 0.0
H1669 H 0.8558 0.57346 0.7765 0.0
H1670 H 0.79932 0.5142 0.8314 0.0
Cu1671 Cu 0.28871 0.53051 0.76998 0.0
N1672 N 0.30866 0.51628 0.77015 0.0
N1673 N 0.32656 0.49433 0.77844 0.0
C1674 C 0.3109 0.50199 0.78057 0.0
C1675 C 0.33444 0.50426 0.7661 0.0
C1676 C 0.32342 0.51774 0.76103 0.0
O1677 O 0.26858 0.51359 0.7697 0.0
C1678 C 0.30583 0.55755 0.78758 0.0
O1679 O 0.31514 0.55521 0.77365 0.0
H1680 H 0.30127 0.49754 0.7898 0.0
H1681 H 0.3261 0.52797 0.75152 0.0
N1682 N 0.28562 0.54493 0.74985 0.0
N1683 N 0.27475 0.5669 0.73304 0.0
C1684 C 0.27454 0.55854 0.74881 0.0
C1685 C 0.29317 0.54461 0.73416 0.0
C1686 C 0.28652 0.55813 0.72379 0.0
C1687 C 0.26751 0.50436 0.75561 0.0
O1688 O 0.27909 0.50758 0.74359 0.0
H1689 H 0.26664 0.56233 0.7596 0.0
H1690 H 0.30267 0.53512 0.7304 0.0
O1691 O 0.29243 0.5473 0.78963 0.0
H1692 H 0.34724 0.50194 0.76095 0.0
H1693 H 0.28989 0.56103 0.71038 0.0
Cu1694 Cu 0.29216 0.52457 0.28167 0.0
N1695 N 0.29166 0.50895 0.30105 0.0
N1696 N 0.28231 0.48584 0.31703 0.0
C1697 C 0.28094 0.49452 0.30144 0.0
C1698 C 0.29447 0.49524 0.32685 0.0
C1699 C 0.30023 0.50942 0.31698 0.0
O1700 O 0.29477 0.50889 0.26139 0.0
C1701 C 0.26793 0.54558 0.29697 0.0
O1702 O 0.27805 0.5412 0.31069 0.0
H1703 H 0.2719 0.4908 0.29058 0.0
H1704 H 0.30962 0.51957 0.32135 0.0
N1705 N 0.31096 0.54129 0.28219 0.0
N1706 N 0.32699 0.56487 0.27373 0.0
C1707 C 0.31192 0.55515 0.27104 0.0
C1708 C 0.32592 0.54229 0.29239 0.0
C1709 C 0.33581 0.55676 0.2872 0.0
C1710 C 0.31031 0.50317 0.25971 0.0
O1711 O 0.32312 0.50909 0.27047 0.0
H1712 H 0.30188 0.55776 0.26085 0.0
H1713 H 0.32963 0.53298 0.3026 0.0
O1714 O 0.27102 0.53909 0.28194 0.0
H1715 H 0.29888 0.49216 0.34024 0.0
H1716 H 0.34852 0.56094 0.29298 0.0
Cu1717 Cu 0.78487 0.52227 0.26412 0.0
N1718 N 0.80443 0.50748 0.26496 0.0
N1719 N 0.82125 0.48524 0.27475 0.0
C1720 C 0.80606 0.4939 0.27639 0.0
C1721 C 0.8295 0.49379 0.2617 0.0
C1722 C 0.81911 0.50746 0.25568 0.0
O1723 O 0.76453 0.50576 0.26199 0.0
C1724 C 0.80231 0.54694 0.28454 0.0
O1725 O 0.81333 0.54368 0.27218 0.0
H1726 H 0.79632 0.49069 0.28594 0.0
H1727 H 0.82218 0.51677 0.24541 0.0
N1728 N 0.78286 0.53794 0.24489 0.0
N1729 N 0.772 0.56085 0.22947 0.0
C1730 C 0.77118 0.55102 0.24431 0.0
C1731 C 0.7915 0.53948 0.22985 0.0
C1732 C 0.78485 0.55362 0.22033 0.0
C1733 C 0.76388 0.49753 0.2473 0.0
O1734 O 0.77581 0.50161 0.23586 0.0
H1735 H 0.7624 0.55338 0.25483 0.0
H1736 H 0.80176 0.53091 0.22594 0.0
O1737 O 0.78772 0.53812 0.28448 0.0
H1738 H 0.84209 0.49039 0.2567 0.0
H1739 H 0.78898 0.55801 0.20755 0.0
Cu1740 Cu 0.54104 0.27587 0.78303 0.0
N1741 N 0.52671 0.27499 0.8027 0.0
N1742 N 0.5046 0.28218 0.81983 0.0
C1743 C 0.51269 0.28532 0.80457 0.0
C1744 C 0.51398 0.26928 0.82785 0.0
C1745 C 0.52754 0.26488 0.8173 0.0
O1746 O 0.52388 0.27484 0.76279 0.0
C1747 C 0.56529 0.29768 0.80085 0.0
O1748 O 0.56154 0.28596 0.81295 0.0
H1749 H 0.50872 0.29514 0.79492 0.0
H1750 H 0.5374 0.25515 0.82022 0.0
N1751 N 0.55622 0.2568 0.78083 0.0
N1752 N 0.57797 0.2412 0.76985 0.0
C1753 C 0.56939 0.25661 0.76947 0.0
C1754 C 0.55645 0.24092 0.78875 0.0
C1755 C 0.5698 0.23131 0.78202 0.0
C1756 C 0.51514 0.26022 0.76201 0.0
O1757 O 0.5191 0.24805 0.77378 0.0
H1758 H 0.57227 0.26752 0.76076 0.0
H1759 H 0.54735 0.23645 0.79844 0.0
O1760 O 0.55716 0.29654 0.78573 0.0
H1761 H 0.51123 0.26328 0.84041 0.0
H1762 H 0.57319 0.21804 0.78587 0.0
Cu1763 Cu 0.52515 0.78109 0.78527 0.0
N1764 N 0.54227 0.77957 0.80389 0.0
N1765 N 0.56689 0.77018 0.81813 0.0
C1766 C 0.55654 0.76943 0.80316 0.0
C1767 C 0.5587 0.78127 0.82876 0.0
C1768 C 0.54355 0.78706 0.81994 0.0
O1769 O 0.53912 0.78236 0.76408 0.0
C1770 C 0.5 0.76209 0.80236 0.0
O1771 O 0.50465 0.77467 0.81357 0.0
H1772 H 0.55905 0.7614 0.79186 0.0
H1773 H 0.53412 0.79593 0.825 0.0
N1774 N 0.51145 0.80136 0.78503 0.0
N1775 N 0.48993 0.81928 0.77555 0.0
C1776 C 0.49797 0.80385 0.77319 0.0
C1777 C 0.51203 0.81573 0.79536 0.0
C1778 C 0.49874 0.82679 0.78956 0.0
C1779 C 0.54848 0.79656 0.76338 0.0
O1780 O 0.54709 0.80824 0.77592 0.0
H1781 H 0.49404 0.79431 0.76314 0.0
H1782 H 0.5215 0.81813 0.8062 0.0
O1783 O 0.50793 0.76153 0.78787 0.0
H1784 H 0.56334 0.78508 0.84191 0.0
H1785 H 0.49601 0.83949 0.79506 0.0
Cu1786 Cu 0.52718 0.77848 0.28345 0.0
N1787 N 0.51408 0.77909 0.30389 0.0
N1788 N 0.49232 0.78662 0.32127 0.0
C1789 C 0.49939 0.78853 0.30531 0.0
C1790 C 0.50313 0.7755 0.33024 0.0
C1791 C 0.51652 0.77091 0.31952 0.0
O1792 O 0.50927 0.77648 0.26385 0.0
C1793 C 0.55601 0.79693 0.29704 0.0
O1794 O 0.55551 0.78286 0.30712 0.0
H1795 H 0.49383 0.79641 0.29462 0.0
H1796 H 0.52726 0.76226 0.32292 0.0
N1797 N 0.54167 0.75888 0.28152 0.0
N1798 N 0.56371 0.74311 0.27146 0.0
C1799 C 0.5551 0.75847 0.27052 0.0
C1800 C 0.54168 0.74318 0.28979 0.0
C1801 C 0.55523 0.73341 0.28358 0.0
C1802 C 0.49927 0.76281 0.2655 0.0
O1803 O 0.50249 0.75242 0.27909 0.0
H1804 H 0.55833 0.76929 0.26183 0.0
H1805 H 0.53254 0.7391 0.29962 0.0
O1806 O 0.54396 0.79871 0.28483 0.0
H1807 H 0.50163 0.77109 0.34367 0.0
H1808 H 0.55869 0.7203 0.28787 0.0
Cu1809 Cu 0.52511 0.26828 0.27148 0.0
N1810 N 0.50935 0.24875 0.27259 0.0
N1811 N 0.48635 0.23228 0.28138 0.0
C1812 C 0.49618 0.24723 0.28391 0.0
C1813 C 0.49374 0.22407 0.26789 0.0
C1814 C 0.50785 0.23424 0.2625 0.0
O1815 O 0.50989 0.28889 0.27124 0.0
C1816 C 0.54997 0.25051 0.29181 0.0
O1817 O 0.54346 0.23802 0.28137 0.0
H1818 H 0.49363 0.25723 0.2935 0.0
H1819 H 0.51639 0.23125 0.25196 0.0
N1820 N 0.53785 0.26964 0.2509 0.0
N1821 N 0.55913 0.27886 0.23319 0.0
C1822 C 0.55314 0.27891 0.24969 0.0
C1823 C 0.53395 0.26342 0.23459 0.0
C1824 C 0.54705 0.26906 0.22365 0.0
C1825 C 0.49719 0.28775 0.25959 0.0
O1826 O 0.49613 0.27398 0.24918 0.0
H1827 H 0.55941 0.28606 0.26067 0.0
H1828 H 0.52226 0.25567 0.2308 0.0
O1829 O 0.5434 0.26583 0.29055 0.0
H1830 H 0.48938 0.21154 0.26233 0.0
H1831 H 0.54754 0.2662 0.20974 0.0
C1832 C 0.2202 0.24594 0.10214 0.0
C1833 C 0.23323 0.23843 0.11342 0.0
H1834 H 0.21445 0.26162 0.07915 0.0
C1835 C 0.25105 0.24162 0.10977 0.0
H1836 H 0.20634 0.24393 0.10458 0.0
C1837 C 0.2557 0.2519 0.09525 0.0
C1838 C 0.24269 0.25931 0.08389 0.0
H1839 H 0.26149 0.23592 0.11796 0.0
H1840 H 0.26957 0.25409 0.09303 0.0
C1841 C 0.22486 0.25626 0.08761 0.0
C1842 C 0.83388 0.26675 0.09415 0.0
C1843 C 0.82892 0.24901 0.09694 0.0
H1844 H 0.83122 0.28969 0.07782 0.0
C1845 C 0.81692 0.2409 0.08459 0.0
H1846 H 0.84325 0.27342 0.10317 0.0
C1847 C 0.81013 0.25021 0.06992 0.0
C1848 C 0.81508 0.26794 0.06718 0.0
H1849 H 0.81252 0.22737 0.08638 0.0
H1850 H 0.80088 0.24353 0.06078 0.0
C1851 C 0.82705 0.27607 0.0795 0.0
C1852 C 0.80099 0.81929 0.09688 0.0
C1853 C 0.81824 0.82639 0.09625 0.0
H1854 H 0.77881 0.8075 0.08256 0.0
C1855 C 0.82711 0.8249 0.08041 0.0
H1856 H 0.79364 0.82037 0.1087 0.0
C1857 C 0.81859 0.8172 0.06537 0.0
C1858 C 0.80099 0.81114 0.06588 0.0
H1859 H 0.84043 0.83016 0.0795 0.0
H1860 H 0.82535 0.81701 0.05312 0.0
C1861 C 0.79246 0.81192 0.08187 0.0
C1862 C 0.2408 0.84349 0.09143 0.0
C1863 C 0.23622 0.83129 0.1046 0.0
H1864 H 0.25393 0.84831 0.06746 0.0
C1865 C 0.24158 0.81379 0.10287 0.0
H1866 H 0.23662 0.85699 0.09199 0.0
C1867 C 0.2515 0.80878 0.08861 0.0
C1868 C 0.2564 0.82113 0.07571 0.0
H1869 H 0.23853 0.80404 0.11278 0.0
H1870 H 0.25569 0.79531 0.08795 0.0
C1871 C 0.25077 0.83851 0.07728 0.0
C1872 C 0.24829 0.79845 0.95124 0.0
C1873 C 0.23349 0.80907 0.95278 0.0
H1874 H 0.26891 0.78417 0.96477 0.0
C1875 C 0.22639 0.81059 0.96954 0.0
H1876 H 0.25433 0.79709 0.93868 0.0
C1877 C 0.23476 0.803 0.98451 0.0
C1878 C 0.25028 0.79357 0.98303 0.0
H1879 H 0.21488 0.81843 0.97126 0.0
H1880 H 0.22989 0.80569 0.99739 0.0
C1881 C 0.25663 0.7909 0.9662 0.0
C1882 C 0.27025 0.23828 0.96368 0.0
C1883 C 0.25376 0.22931 0.96181 0.0
H1884 H 0.28783 0.2543 0.98036 0.0
C1885 C 0.24329 0.22804 0.97659 0.0
H1886 H 0.27871 0.23941 0.95261 0.0
C1887 C 0.2485 0.23651 0.99233 0.0
C1888 C 0.26443 0.24633 0.99389 0.0
H1889 H 0.23044 0.22148 0.97568 0.0
H1890 H 0.23956 0.23617 1.00306 0.0
C1891 C 0.2756 0.24661 0.97963 0.0
C1892 C 0.85036 0.24175 0.95213 0.0
C1893 C 0.84037 0.2428 0.93611 0.0
H1894 H 0.85248 0.24812 0.97957 0.0
C1895 C 0.8239 0.25098 0.93608 0.0
H1896 H 0.86316 0.23574 0.95268 0.0
C1897 C 0.81774 0.25813 0.95164 0.0
C1898 C 0.82802 0.25748 0.96751 0.0
H1899 H 0.8158 0.25192 0.92401 0.0
H1900 H 0.80519 0.26462 0.95114 0.0
C1901 C 0.84431 0.24903 0.96755 0.0
C1902 C 0.81575 0.83484 0.94688 0.0
C1903 C 0.80747 0.84727 0.93571 0.0
H1904 H 0.81473 0.8195 0.97054 0.0
C1905 C 0.79117 0.85381 0.94051 0.0
H1906 H 0.82823 0.8294 0.9436 0.0
C1907 C 0.78331 0.84799 0.95591 0.0
C1908 C 0.7915 0.83544 0.96702 0.0
H1909 H 0.78448 0.86358 0.93242 0.0
H1910 H 0.77067 0.8532 0.95894 0.0
C1911 C 0.80787 0.829 0.96229 0.0
C1912 C 0.11295 0.23746 0.25506 0.0
C1913 C 0.1157 0.21967 0.25119 0.0
H1914 H 0.09708 0.2562 0.26748 0.0
C1915 C 0.10371 0.20692 0.25745 0.0
H1916 H 0.12172 0.24771 0.25031 0.0
C1917 C 0.08936 0.21184 0.2672 0.0
C1918 C 0.08654 0.22967 0.2709 0.0
H1919 H 0.10545 0.19308 0.25489 0.0
H1920 H 0.08032 0.20167 0.27158 0.0
C1921 C 0.09862 0.24238 0.26476 0.0
C1922 C 0.82797 0.11618 0.23777 0.0
C1923 C 0.84625 0.11871 0.23603 0.0
H1924 H 0.80714 0.09988 0.24749 0.0
C1925 C 0.85759 0.10579 0.24305 0.0
H1926 H 0.8188 0.12573 0.23244 0.0
C1927 C 0.85088 0.09083 0.25157 0.0
C1928 C 0.83261 0.0883 0.25332 0.0
H1929 H 0.87175 0.10735 0.24223 0.0
H1930 H 0.86005 0.08118 0.25666 0.0
C1931 C 0.82125 0.10119 0.24626 0.0
C1932 C 0.94288 0.81676 0.24308 0.0
C1933 C 0.94127 0.83498 0.24029 0.0
H1934 H 0.95812 0.79597 0.25451 0.0
C1935 C 0.9546 0.84634 0.24758 0.0
H1936 H 0.93304 0.80755 0.23751 0.0
C1937 C 0.96916 0.83963 0.25727 0.0
C1938 C 0.97086 0.82137 0.25981 0.0
H1939 H 0.95376 0.86045 0.24584 0.0
H1940 H 0.97926 0.84875 0.26245 0.0
C1941 C 0.95744 0.81007 0.25267 0.0
C1942 C 0.19548 0.95127 0.25134 0.0
C1943 C 0.20664 0.93781 0.24639 0.0
H1944 H 0.19319 0.97627 0.26374 0.0
C1945 C 0.22484 0.93979 0.25068 0.0
H1946 H 0.18138 0.95017 0.24852 0.0
C1947 C 0.23164 0.95478 0.25965 0.0
C1948 C 0.22043 0.9682 0.26465 0.0
H1949 H 0.23389 0.92981 0.24699 0.0
H1950 H 0.24567 0.9557 0.26284 0.0
C1951 C 0.20226 0.96621 0.26032 0.0
C1952 C 0.10321 0.8236 0.79851 0.0
C1953 C 0.10445 0.83436 0.81361 0.0
H1954 H 0.08627 0.80968 0.77963 0.0
C1955 C 0.08878 0.8408 0.82006 0.0
H1956 H 0.115 0.81861 0.793 0.0
C1957 C 0.07231 0.83577 0.81233 0.0
C1958 C 0.07102 0.82421 0.79789 0.0
H1959 H 0.08912 0.84898 0.83172 0.0
H1960 H 0.06054 0.84034 0.81823 0.0
C1961 C 0.08671 0.81863 0.79071 0.0
C1962 C 0.23741 0.09081 0.81686 0.0
C1963 C 0.24562 0.10767 0.81808 0.0
H1964 H 0.24012 0.06352 0.81012 0.0
C1965 C 0.26248 0.11002 0.81135 0.0
H1966 H 0.2244 0.08854 0.82183 0.0
C1967 C 0.27136 0.09578 0.80472 0.0
C1968 C 0.26355 0.07883 0.80433 0.0
H1969 H 0.26937 0.12267 0.81226 0.0
H1970 H 0.28479 0.09783 0.80072 0.0
C1971 C 0.24628 0.07652 0.80995 0.0
C1972 C 0.97372 0.24479 0.82318 0.0
C1973 C 0.96391 0.23641 0.80934 0.0
H1974 H 0.99588 0.2612 0.83105 0.0
C1975 C 0.97032 0.23777 0.79219 0.0
H1976 H 0.96961 0.24371 0.83662 0.0
C1977 C 0.98576 0.24778 0.78896 0.0
C1978 C 0.9951 0.25666 0.80281 0.0
H1979 H 0.96313 0.23155 0.78115 0.0
H1980 H 0.99002 0.24904 0.77559 0.0
C1981 C 0.98898 0.25475 0.81997 0.0
C1982 C 0.81323 0.96439 0.81109 0.0
C1983 C 0.82367 0.95595 0.79906 0.0
H1984 H 0.79478 0.98438 0.81556 0.0
C1985 C 0.82385 0.96257 0.78164 0.0
H1986 H 0.81307 0.96009 0.82471 0.0
C1987 C 0.81335 0.97687 0.77635 0.0
C1988 C 0.80246 0.9848 0.78836 0.0
H1989 H 0.8317 0.9564 0.77197 0.0
H1990 H 0.81338 0.98136 0.7628 0.0
C1991 C 0.80278 0.97849 0.80583 0.0
C1992 C 0.24136 0.0765 0.22983 0.0
C1993 C 0.24311 0.09328 0.23769 0.0
H1994 H 0.24447 0.04857 0.23315 0.0
C1995 C 0.25177 0.09465 0.25445 0.0
H1996 H 0.23489 0.07495 0.2169 0.0
C1997 C 0.25731 0.0796 0.2636 0.0
C1998 C 0.25461 0.06282 0.25616 0.0
H1999 H 0.25317 0.10722 0.26108 0.0
H2000 H 0.26272 0.08098 0.277 0.0
C2001 C 0.24707 0.06141 0.23899 0.0
C2002 C 0.2583 0.95256 0.81687 0.0
C2003 C 0.25156 0.94972 0.83365 0.0
H2004 H 0.27318 0.96944 0.80012 0.0
C2005 C 0.25573 0.96229 0.84687 0.0
H2006 H 0.25577 0.94303 0.80644 0.0
C2007 C 0.26586 0.97749 0.84323 0.0
C2008 C 0.27206 0.98057 0.82626 0.0
H2009 H 0.25067 0.9607 0.8599 0.0
H2010 H 0.26833 0.9871 0.85357 0.0
C2011 C 0.26834 0.96775 0.81322 0.0
C2012 C 0.11041 0.25333 0.84759 0.0
C2013 C 0.12102 0.24696 0.83439 0.0
H2014 H 0.08757 0.26772 0.85371 0.0
C2015 C 0.11635 0.25101 0.8167 0.0
H2016 H 0.11366 0.25066 0.86136 0.0
C2017 C 0.10147 0.26095 0.81232 0.0
C2018 C 0.09074 0.26716 0.82548 0.0
H2019 H 0.124 0.24619 0.80612 0.0
H2020 H 0.09846 0.2638 0.79856 0.0
C2021 C 0.09551 0.26331 0.8432 0.0
C2022 C 0.80795 0.09597 0.83197 0.0
C2023 C 0.81547 0.10759 0.81974 0.0
H2024 H 0.79241 0.07256 0.83617 0.0
C2025 C 0.81253 0.10397 0.80166 0.0
H2026 H 0.80967 0.0984 0.84599 0.0
C2027 C 0.80244 0.08915 0.796 0.0
C2028 C 0.79491 0.07755 0.80826 0.0
H2029 H 0.81816 0.11252 0.79183 0.0
H2030 H 0.80036 0.08693 0.78199 0.0
C2031 C 0.79782 0.0812 0.82632 0.0
C2032 C 0.9547 0.81624 0.81154 0.0
C2033 C 0.95166 0.81874 0.82949 0.0
H2034 H 0.97156 0.80607 0.79241 0.0
C2035 C 0.9642 0.81245 0.84209 0.0
H2036 H 0.94547 0.82099 0.80142 0.0
C2037 C 0.97936 0.80404 0.8369 0.0
C2038 C 0.98247 0.80163 0.81895 0.0
H2039 H 0.96225 0.81384 0.85604 0.0
H2040 H 0.98873 0.79964 0.84705 0.0
C2041 C 0.96985 0.80781 0.80635 0.0
C2042 C 0.81053 0.9811 0.21682 0.0
C2043 C 0.81085 0.96428 0.22478 0.0
H2044 H 0.8053 1.00865 0.21991 0.0
C2045 C 0.80405 0.96233 0.24163 0.0
H2046 H 0.81557 0.98309 0.20383 0.0
C2047 C 0.79823 0.97689 0.25072 0.0
C2048 C 0.79873 0.99377 0.24315 0.0
H2049 H 0.80427 0.94972 0.24833 0.0
H2050 H 0.79417 0.97509 0.26412 0.0
C2051 C 0.80443 0.99571 0.2259 0.0
C2052 C 0.07713 0.79139 0.22011 0.0
C2053 C 0.09031 0.80373 0.22608 0.0
H2054 H 0.05303 0.77716 0.22581 0.0
C2055 C 0.08924 0.81057 0.24313 0.0
H2056 H 0.07747 0.78582 0.20704 0.0
C2057 C 0.07534 0.80574 0.25368 0.0
C2058 C 0.06192 0.79375 0.24772 0.0
H2059 H 0.0993 0.81965 0.2485 0.0
H2060 H 0.07521 0.81151 0.26668 0.0
C2061 C 0.06307 0.78644 0.23083 0.0
C2062 C 0.97634 0.26245 0.23106 0.0
C2063 C 0.96568 0.24703 0.23222 0.0
H2064 H 0.99844 0.2777 0.24213 0.0
C2065 C 0.96957 0.23508 0.24593 0.0
H2066 H 0.97382 0.27192 0.2206 0.0
C2067 C 0.98364 0.23832 0.25804 0.0
C2068 C 0.9943 0.25368 0.25699 0.0
H2069 H 0.96152 0.22328 0.24758 0.0
H2070 H 0.986 0.22871 0.26841 0.0
C2071 C 0.99052 0.26574 0.24331 0.0
C2072 C 0.22675 0.74644 0.57456 0.0
C2073 C 0.23429 0.74739 0.59188 0.0
H2074 H 0.23037 0.75117 0.54693 0.0
C2075 C 0.25074 0.75619 0.59453 0.0
H2076 H 0.21405 0.7399 0.57201 0.0
C2077 C 0.25992 0.76268 0.58022 0.0
C2078 C 0.25285 0.7608 0.56291 0.0
H2079 H 0.25714 0.75701 0.60755 0.0
H2080 H 0.2731 0.76825 0.58262 0.0
C2081 C 0.23594 0.75312 0.5602 0.0
C2082 C 0.81846 0.77097 0.59223 0.0
C2083 C 0.82767 0.75552 0.58914 0.0
H2084 H 0.80169 0.79097 0.5815 0.0
C2085 C 0.82817 0.74949 0.57165 0.0
H2086 H 0.81764 0.77598 0.60549 0.0
C2087 C 0.81897 0.75811 0.55782 0.0
C2088 C 0.80897 0.773 0.5611 0.0
H2089 H 0.83538 0.73783 0.56868 0.0
H2090 H 0.81912 0.75266 0.54468 0.0
C2091 C 0.80924 0.77957 0.57842 0.0
C2092 C 0.84583 0.31462 0.59894 0.0
C2093 C 0.83225 0.32219 0.60817 0.0
H2094 H 0.85261 0.29783 0.57772 0.0
C2095 C 0.81468 0.31736 0.60333 0.0
H2096 H 0.85951 0.31809 0.60222 0.0
C2097 C 0.81075 0.30582 0.58931 0.0
C2098 C 0.82425 0.2987 0.57968 0.0
H2099 H 0.80386 0.32252 0.61038 0.0
H2100 H 0.79705 0.30248 0.58604 0.0
C2101 C 0.84188 0.303 0.58487 0.0
C2102 C 0.2515 0.32718 0.61459 0.0
C2103 C 0.2486 0.34521 0.61698 0.0
H2104 H 0.26217 0.30731 0.59857 0.0
C2105 C 0.25394 0.35705 0.60383 0.0
H2106 H 0.24775 0.31768 0.6245 0.0
C2107 C 0.26217 0.35112 0.5889 0.0
C2108 C 0.26541 0.33313 0.58659 0.0
H2109 H 0.25164 0.37099 0.605 0.0
H2110 H 0.26584 0.36074 0.57911 0.0
C2111 C 0.25983 0.32123 0.59965 0.0
C2112 C 0.24608 0.29961 0.46728 0.0
C2113 C 0.23375 0.31313 0.46518 0.0
H2114 H 0.26182 0.28394 0.48525 0.0
C2115 C 0.22648 0.31986 0.48041 0.0
H2116 H 0.25178 0.2939 0.45588 0.0
C2117 C 0.23214 0.31406 0.49722 0.0
C2118 C 0.2452 0.3013 0.49937 0.0
H2119 H 0.21709 0.33036 0.47943 0.0
H2120 H 0.22683 0.32021 0.50861 0.0
C2121 C 0.2517 0.29374 0.48415 0.0
C2122 C 0.23694 0.72701 0.45484 0.0
C2123 C 0.24456 0.71581 0.44276 0.0
H2124 H 0.24038 0.74215 0.47844 0.0
C2125 C 0.26233 0.71134 0.44583 0.0
H2126 H 0.22338 0.73097 0.45283 0.0
C2127 C 0.27219 0.71792 0.46058 0.0
C2128 C 0.26458 0.72928 0.47253 0.0
H2129 H 0.26861 0.70266 0.43689 0.0
H2130 H 0.28588 0.71438 0.46243 0.0
C2131 C 0.24679 0.73364 0.46947 0.0
C2132 C 0.81467 0.74317 0.43993 0.0
C2133 C 0.81633 0.72551 0.43483 0.0
H2134 H 0.80354 0.76131 0.45753 0.0
C2135 C 0.80742 0.71239 0.44442 0.0
H2136 H 0.82099 0.75371 0.43272 0.0
C2137 C 0.79731 0.71679 0.45872 0.0
C2138 C 0.7958 0.73445 0.4639 0.0
H2139 H 0.80853 0.69863 0.44111 0.0
H2140 H 0.79092 0.70629 0.46591 0.0
C2141 C 0.8046 0.74756 0.45424 0.0
C2142 C 0.80038 0.32504 0.46128 0.0
C2143 C 0.81758 0.324 0.45505 0.0
H2144 H 0.78197 0.316 0.48039 0.0
C2145 C 0.82954 0.31297 0.46408 0.0
H2146 H 0.79083 0.3335 0.45476 0.0
C2147 C 0.82453 0.30318 0.47869 0.0
C2148 C 0.80734 0.30394 0.48482 0.0
H2149 H 0.84277 0.31149 0.45961 0.0
H2150 H 0.83422 0.29472 0.48502 0.0
C2151 C 0.79533 0.31515 0.47607 0.0
C2152 C 0.11176 0.75358 0.73857 0.0
C2153 C 0.11521 0.73579 0.7354 0.0
H2154 H 0.09569 0.77211 0.751 0.0
C2155 C 0.10434 0.72282 0.74303 0.0
H2156 H 0.11964 0.76398 0.73278 0.0
C2157 C 0.09034 0.72754 0.75338 0.0
C2158 C 0.08677 0.74535 0.75633 0.0
H2159 H 0.10666 0.70899 0.74106 0.0
H2160 H 0.08213 0.7172 0.75879 0.0
C2161 C 0.09779 0.75828 0.74887 0.0
C2162 C 0.83276 0.62186 0.73273 0.0
C2163 C 0.85085 0.6253 0.7306 0.0
H2164 H 0.81299 0.60494 0.74354 0.0
C2165 C 0.863 0.61336 0.73808 0.0
H2166 H 0.82297 0.63063 0.72709 0.0
C2167 C 0.85725 0.59848 0.74742 0.0
C2168 C 0.83916 0.59504 0.74956 0.0
H2169 H 0.87705 0.61564 0.73697 0.0
H2170 H 0.86703 0.58961 0.75284 0.0
C2171 C 0.827 0.60695 0.74205 0.0
C2172 C 0.96779 0.33396 0.73653 0.0
C2173 C 0.95538 0.3451 0.74357 0.0
H2174 H 0.99147 0.31963 0.7409 0.0
C2175 C 0.95787 0.35026 0.76131 0.0
H2176 H 0.96624 0.32948 0.72302 0.0
C2177 C 0.97237 0.3444 0.77171 0.0
C2178 C 0.98469 0.33314 0.76467 0.0
H2179 H 0.94867 0.35892 0.76716 0.0
H2180 H 0.97375 0.34849 0.78535 0.0
C2181 C 0.98221 0.32808 0.74691 0.0
C2182 C 0.24102 0.46826 0.73157 0.0
C2183 C 0.2333 0.45876 0.74525 0.0
H2184 H 0.25741 0.49 0.72412 0.0
C2185 C 0.23568 0.46535 0.76259 0.0
H2186 H 0.23912 0.46399 0.71801 0.0
C2187 C 0.24615 0.48064 0.76614 0.0
C2188 C 0.25446 0.48959 0.75242 0.0
H2189 H 0.22995 0.45839 0.7735 0.0
H2190 H 0.24827 0.48503 0.77964 0.0
C2191 C 0.25144 0.48335 0.73509 0.0
C2192 C 0.08893 0.32668 0.33455 0.0
C2193 C 0.10463 0.32203 0.32678 0.0
H2194 H 0.06081 0.32379 0.3345 0.0
C2195 C 0.10332 0.31176 0.31134 0.0
H2196 H 0.08933 0.33439 0.34653 0.0
C2197 C 0.08683 0.30563 0.30439 0.0
C2198 C 0.07124 0.30953 0.31276 0.0
H2199 H 0.11509 0.30811 0.30484 0.0
H2200 H 0.08639 0.29716 0.29293 0.0
C2201 C 0.0725 0.32051 0.32766 0.0
C2202 C 0.2438 0.58866 0.29286 0.0
C2203 C 0.23597 0.58934 0.30934 0.0
H2204 H 0.25968 0.57392 0.27561 0.0
C2205 C 0.23681 0.57438 0.32028 0.0
H2206 H 0.24333 0.5999 0.28405 0.0
C2207 C 0.24614 0.55966 0.31547 0.0
C2208 C 0.25471 0.5593 0.29947 0.0
H2209 H 0.23119 0.57441 0.33314 0.0
H2210 H 0.24737 0.54881 0.32473 0.0
C2211 C 0.25297 0.57371 0.2879 0.0
C2212 C 0.95638 0.73681 0.31897 0.0
C2213 C 0.94765 0.72534 0.30682 0.0
H2214 H 0.97748 0.7553 0.32433 0.0
C2215 C 0.95473 0.7237 0.29001 0.0
H2216 H 0.95173 0.73819 0.33215 0.0
C2217 C 0.96988 0.73358 0.28545 0.0
C2218 C 0.9783 0.7453 0.29761 0.0
H2219 H 0.94836 0.71506 0.28023 0.0
H2220 H 0.97477 0.73227 0.27236 0.0
C2221 C 0.97137 0.74658 0.31445 0.0
C2222 C 0.85135 0.45201 0.29659 0.0
C2223 C 0.8394 0.44091 0.30531 0.0
H2224 H 0.85509 0.47471 0.28026 0.0
C2225 C 0.82133 0.44466 0.30367 0.0
H2226 H 0.86534 0.44945 0.29729 0.0
C2227 C 0.81541 0.45909 0.29368 0.0
C2228 C 0.82737 0.47022 0.28499 0.0
H2229 H 0.81172 0.43653 0.31027 0.0
H2230 H 0.80139 0.46139 0.29265 0.0
C2231 C 0.84543 0.46643 0.28659 0.0
C2232 C 0.23847 0.59991 0.72974 0.0
C2233 C 0.244 0.61115 0.71616 0.0
H2234 H 0.24363 0.57712 0.74556 0.0
C2235 C 0.25993 0.60755 0.70825 0.0
H2236 H 0.22643 0.60235 0.73635 0.0
C2237 C 0.26997 0.59308 0.71371 0.0
C2238 C 0.26441 0.58184 0.7273 0.0
H2239 H 0.26457 0.61582 0.69769 0.0
H2240 H 0.2822 0.59083 0.70739 0.0
C2241 C 0.2485 0.5855 0.73521 0.0
C2242 C 0.25893 0.45208 0.34492 0.0
C2243 C 0.25131 0.44056 0.33208 0.0
H2244 H 0.27451 0.47553 0.35028 0.0
C2245 C 0.25473 0.4439 0.31428 0.0
H2246 H 0.25647 0.45009 0.35873 0.0
C2247 C 0.26504 0.45853 0.30942 0.0
C2248 C 0.27231 0.47029 0.3222 0.0
H2249 H 0.24946 0.43515 0.30401 0.0
H2250 H 0.26735 0.46056 0.2956 0.0
C2251 C 0.26929 0.46673 0.34006 0.0
C2252 C 0.10039 0.73318 0.30411 0.0
C2253 C 0.10672 0.72988 0.32149 0.0
H2254 H 0.08114 0.74553 0.28713 0.0
C2255 C 0.09756 0.73702 0.33541 0.0
H2256 H 0.10687 0.72776 0.29301 0.0
C2257 C 0.0825 0.74708 0.33201 0.0
C2258 C 0.07612 0.75026 0.3146 0.0
H2259 H 0.10209 0.73494 0.34897 0.0
H2260 H 0.07573 0.75215 0.34307 0.0
C2261 C 0.08538 0.74322 0.30072 0.0
C2262 C 0.82921 0.58291 0.30821 0.0
C2263 C 0.8163 0.59303 0.31574 0.0
H2264 H 0.83492 0.56044 0.29292 0.0
C2265 C 0.79858 0.58682 0.31436 0.0
H2266 H 0.84301 0.58692 0.30938 0.0
C2267 C 0.7939 0.5713 0.30501 0.0
C2268 C 0.80684 0.56173 0.29684 0.0
H2269 H 0.78824 0.59427 0.31995 0.0
H2270 H 0.78013 0.56724 0.30356 0.0
C2271 C 0.82456 0.56757 0.29888 0.0
C2272 C 0.95637 0.28477 0.35155 0.0
C2273 C 0.95054 0.30076 0.34417 0.0
H2274 H 0.97572 0.26472 0.35199 0.0
C2275 C 0.9606 0.30879 0.3311 0.0
H2276 H 0.94915 0.27826 0.3618 0.0
C2277 C 0.97599 0.30106 0.32556 0.0
C2278 C 0.98184 0.28509 0.33299 0.0
H2279 H 0.95649 0.32101 0.32498 0.0
H2280 H 0.98343 0.30776 0.31561 0.0
C2281 C 0.97178 0.27707 0.34606 0.0
C2282 C 0.82219 0.48678 0.71698 0.0
C2283 C 0.82091 0.47015 0.72524 0.0
H2284 H 0.81825 0.51464 0.71904 0.0
C2285 C 0.81202 0.46888 0.74109 0.0
H2286 H 0.82877 0.48827 0.70469 0.0
C2287 C 0.80585 0.48394 0.74911 0.0
C2288 C 0.80815 0.50062 0.74141 0.0
H2289 H 0.81095 0.45644 0.74802 0.0
H2290 H 0.80034 0.4827 0.76199 0.0
C2291 C 0.81591 0.50187 0.72502 0.0
C2292 C 0.09912 0.30472 0.73598 0.0
C2293 C 0.10543 0.32238 0.73604 0.0
H2294 H 0.07997 0.28592 0.74549 0.0
C2295 C 0.09589 0.33487 0.74502 0.0
H2296 H 0.10611 0.29469 0.72927 0.0
C2297 C 0.08107 0.32984 0.75425 0.0
C2298 C 0.07512 0.31216 0.7548 0.0
H2299 H 0.09992 0.34864 0.74501 0.0
H2300 H 0.07439 0.3399 0.76127 0.0
C2301 C 0.0841 0.29966 0.74525 0.0
C2302 C 0.97008 0.74623 0.7344 0.0
C2303 C 0.9653 0.75767 0.72051 0.0
H2304 H 0.98734 0.7411 0.75659 0.0
C2305 C 0.97525 0.77347 0.71867 0.0
H2306 H 0.9626 0.73415 0.73654 0.0
C2307 C 0.98959 0.77764 0.73047 0.0
C2308 C 0.99424 0.76609 0.74435 0.0
H2309 H 0.97204 0.78256 0.70805 0.0
H2310 H 0.99694 0.78988 0.72879 0.0
C2311 C 0.9843 0.75034 0.74605 0.0
C2312 C 0.72904 0.24084 0.57661 0.0
C2313 C 0.73626 0.24182 0.59407 0.0
H2314 H 0.73282 0.24643 0.54918 0.0
C2315 C 0.752 0.25175 0.59718 0.0
H2316 H 0.71687 0.23347 0.57371 0.0
C2317 C 0.76095 0.25925 0.58317 0.0
C2318 C 0.75432 0.25729 0.5657 0.0
H2319 H 0.75815 0.25266 0.61031 0.0
H2320 H 0.77373 0.2656 0.58589 0.0
C2321 C 0.738 0.2485 0.56256 0.0
C2322 C 0.33341 0.25675 0.60158 0.0
C2323 C 0.3241 0.24167 0.60713 0.0
H2324 H 0.33474 0.27832 0.58366 0.0
C2325 C 0.30814 0.2369 0.59783 0.0
H2326 H 0.34551 0.26111 0.60852 0.0
C2327 C 0.30175 0.24701 0.58341 0.0
C2328 C 0.31115 0.26213 0.57802 0.0
H2329 H 0.30065 0.22529 0.60161 0.0
H2330 H 0.28945 0.24307 0.57659 0.0
C2331 C 0.32708 0.26675 0.5873 0.0
C2332 C 0.30961 0.81795 0.60306 0.0
C2333 C 0.32674 0.82421 0.60797 0.0
H2334 H 0.29322 0.80249 0.58512 0.0
C2335 C 0.34085 0.81876 0.59807 0.0
H2336 H 0.29845 0.82148 0.61059 0.0
C2337 C 0.33783 0.80777 0.58336 0.0
C2338 C 0.32061 0.80197 0.57818 0.0
H2339 H 0.3542 0.82341 0.60135 0.0
H2340 H 0.34892 0.80425 0.57576 0.0
C2341 C 0.3066 0.80702 0.5884 0.0
C2342 C 0.71212 0.79004 0.59453 0.0
C2343 C 0.7188 0.80714 0.59823 0.0
H2344 H 0.71277 0.76728 0.57801 0.0
C2345 C 0.73124 0.81454 0.58694 0.0
H2346 H 0.70261 0.78383 0.60293 0.0
C2347 C 0.73719 0.80498 0.57272 0.0
C2348 C 0.73088 0.7877 0.56928 0.0
H2349 H 0.73649 0.82777 0.58912 0.0
H2350 H 0.74712 0.81107 0.56476 0.0
C2351 C 0.7181 0.78045 0.58029 0.0
C2352 C 0.7248 0.81271 0.45696 0.0
C2353 C 0.73631 0.82538 0.44989 0.0
H2354 H 0.72098 0.7925 0.4761 0.0
C2355 C 0.75337 0.82756 0.45795 0.0
H2356 H 0.71169 0.81042 0.45106 0.0
C2357 C 0.75882 0.8171 0.47245 0.0
C2358 C 0.74736 0.80417 0.47917 0.0
H2359 H 0.76255 0.83735 0.45305 0.0
H2360 H 0.77209 0.81889 0.47813 0.0
C2361 C 0.73023 0.8023 0.47134 0.0
C2362 C 0.75322 0.2398 0.44223 0.0
C2363 C 0.74546 0.2229 0.43997 0.0
H2364 H 0.76896 0.2573 0.45879 0.0
C2365 C 0.74884 0.21016 0.45317 0.0
H2366 H 0.75134 0.24984 0.4322 0.0
C2367 C 0.7591 0.21447 0.4685 0.0
C2368 C 0.76619 0.23162 0.47103 0.0
H2369 H 0.74302 0.19704 0.45196 0.0
H2370 H 0.76093 0.20456 0.47865 0.0
C2371 C 0.76338 0.24409 0.45752 0.0
C2372 C 0.34986 0.2627 0.4649 0.0
C2373 C 0.33762 0.25306 0.454 0.0
H2374 H 0.35427 0.27916 0.48756 0.0
C2375 C 0.31972 0.25319 0.45808 0.0
H2376 H 0.36373 0.26318 0.46209 0.0
C2377 C 0.31424 0.26258 0.47263 0.0
C2378 C 0.3265 0.27216 0.48358 0.0
H2379 H 0.30989 0.24584 0.45014 0.0
H2380 H 0.30033 0.26243 0.47517 0.0
C2381 C 0.34439 0.2721 0.47944 0.0
C2382 C 0.29582 0.82598 0.45651 0.0
C2383 C 0.3132 0.82637 0.45059 0.0
H2384 H 0.27794 0.8158 0.47556 0.0
C2385 C 0.32617 0.81731 0.46054 0.0
H2386 H 0.28544 0.83275 0.44917 0.0
C2387 C 0.32186 0.80765 0.47548 0.0
C2388 C 0.30445 0.80675 0.48112 0.0
H2389 H 0.33977 0.81765 0.45677 0.0
H2390 H 0.33229 0.80069 0.48254 0.0
C2391 C 0.29148 0.81627 0.47163 0.0
C2392 C 0.61694 0.24441 0.74069 0.0
C2393 C 0.62044 0.2266 0.73763 0.0
H2394 H 0.60106 0.263 0.75334 0.0
C2395 C 0.60978 0.21368 0.74558 0.0
H2396 H 0.62465 0.25478 0.73465 0.0
C2397 C 0.596 0.21843 0.75619 0.0
C2398 C 0.59243 0.23625 0.75915 0.0
H2399 H 0.61212 0.19983 0.74372 0.0
H2400 H 0.588 0.20806 0.76184 0.0
C2401 C 0.60318 0.24915 0.75128 0.0
C2402 C 0.33134 0.11394 0.75055 0.0
C2403 C 0.34956 0.11787 0.75045 0.0
H2404 H 0.31082 0.09681 0.75964 0.0
C2405 C 0.36115 0.10667 0.75987 0.0
H2406 H 0.32198 0.12213 0.74337 0.0
C2407 C 0.35475 0.09201 0.76908 0.0
C2408 C 0.33654 0.08804 0.76917 0.0
H2409 H 0.37525 0.10936 0.76035 0.0
H2410 H 0.36414 0.08368 0.77601 0.0
C2411 C 0.32492 0.09924 0.75976 0.0
C2412 C 0.45756 0.82706 0.73741 0.0
C2413 C 0.44598 0.83903 0.74452 0.0
H2414 H 0.48056 0.81166 0.74146 0.0
C2415 C 0.44923 0.84453 0.76208 0.0
H2416 H 0.45539 0.82232 0.72404 0.0
C2417 C 0.4637 0.83822 0.77221 0.0
C2418 C 0.47519 0.82616 0.76508 0.0
H2419 H 0.44068 0.85382 0.76796 0.0
H2420 H 0.4657 0.8426 0.78571 0.0
C2421 C 0.47193 0.82074 0.74752 0.0
C2422 C 0.69942 0.9545 0.73701 0.0
C2423 C 0.71052 0.94101 0.73198 0.0
H2424 H 0.69735 0.97998 0.74849 0.0
C2425 C 0.72885 0.9435 0.73511 0.0
H2426 H 0.68523 0.95304 0.73509 0.0
C2427 C 0.73584 0.959 0.74302 0.0
C2428 C 0.7247 0.97244 0.74813 0.0
H2429 H 0.73786 0.93352 0.73132 0.0
H2430 H 0.74998 0.96029 0.74535 0.0
C2431 C 0.70639 0.96994 0.74496 0.0
C2432 C 0.58497 0.83479 0.31437 0.0
C2433 C 0.60187 0.82751 0.31381 0.0
H2434 H 0.55701 0.83103 0.30888 0.0
C2435 C 0.60337 0.81137 0.30504 0.0
H2436 H 0.58329 0.84724 0.32088 0.0
C2437 C 0.58838 0.80224 0.29814 0.0
C2438 C 0.57148 0.80907 0.29951 0.0
H2439 H 0.61603 0.80517 0.30452 0.0
H2440 H 0.5899 0.78927 0.2926 0.0
C2441 C 0.56992 0.82567 0.30725 0.0
C2442 C 0.73026 0.09363 0.29565 0.0
C2443 C 0.73824 0.11026 0.29938 0.0
H2444 H 0.73392 0.06699 0.28711 0.0
C2445 C 0.75607 0.11296 0.29557 0.0
H2446 H 0.71653 0.09112 0.29834 0.0
C2447 C 0.7659 0.09923 0.28928 0.0
C2448 C 0.7582 0.08245 0.28631 0.0
H2449 H 0.76278 0.12543 0.29846 0.0
H2450 H 0.77985 0.10155 0.28744 0.0
C2451 C 0.74012 0.07987 0.28902 0.0
C2452 C 0.45304 0.22748 0.31669 0.0
C2453 C 0.44063 0.21542 0.30897 0.0
H2454 H 0.47725 0.24216 0.31417 0.0
C2455 C 0.44365 0.20897 0.29205 0.0
H2456 H 0.45113 0.23286 0.32962 0.0
C2457 C 0.45857 0.21445 0.28308 0.0
C2458 C 0.47097 0.22655 0.29075 0.0
H2459 H 0.43458 0.19948 0.28574 0.0
H2460 H 0.46022 0.20929 0.27003 0.0
C2461 C 0.46798 0.23298 0.3077 0.0
C2462 C 0.31883 0.95642 0.30098 0.0
C2463 C 0.31817 0.94872 0.31791 0.0
H2464 H 0.30887 0.97631 0.28307 0.0
C2465 C 0.3073 0.95633 0.33013 0.0
H2466 H 0.32699 0.95091 0.29117 0.0
C2467 C 0.29694 0.97068 0.32546 0.0
C2468 C 0.29715 0.97808 0.30844 0.0
H2469 H 0.30676 0.95119 0.34343 0.0
H2470 H 0.2886 0.97591 0.33528 0.0
C2471 C 0.30844 0.97097 0.2963 0.0
C2472 C 0.75525 0.09967 0.7333 0.0
C2473 C 0.74506 0.09843 0.71736 0.0
H2474 H 0.76787 0.08583 0.7549 0.0
C2475 C 0.74218 0.08163 0.70976 0.0
H2476 H 0.75757 0.11224 0.73975 0.0
C2477 C 0.74828 0.06643 0.71848 0.0
C2478 C 0.75744 0.06774 0.73492 0.0
H2479 H 0.73455 0.08014 0.69743 0.0
H2480 H 0.7448 0.05363 0.71296 0.0
C2481 C 0.76123 0.08451 0.74201 0.0
C2482 C 0.74796 0.95924 0.30659 0.0
C2483 C 0.74351 0.95664 0.32422 0.0
H2484 H 0.76109 0.9755 0.28797 0.0
C2485 C 0.74952 0.96923 0.33681 0.0
H2486 H 0.74344 0.94999 0.29646 0.0
C2487 C 0.75955 0.98406 0.33187 0.0
C2488 C 0.76375 0.98677 0.31418 0.0
H2489 H 0.74652 0.9676 0.35054 0.0
H2490 H 0.7637 0.99358 0.34187 0.0
C2491 C 0.75793 0.97406 0.30166 0.0
C2492 C 0.58301 0.22357 0.31792 0.0
C2493 C 0.59838 0.2343 0.31782 0.0
H2494 H 0.55569 0.22051 0.30998 0.0
C2495 C 0.59696 0.25163 0.31122 0.0
H2496 H 0.58355 0.21012 0.32265 0.0
C2497 C 0.58075 0.2577 0.3041 0.0
C2498 C 0.56575 0.24645 0.30322 0.0
H2499 H 0.6085 0.26029 0.31104 0.0
H2500 H 0.58025 0.27071 0.29824 0.0
C2501 C 0.567 0.22952 0.31062 0.0
C2502 C 0.29432 0.09042 0.35692 0.0
C2503 C 0.30133 0.10319 0.34551 0.0
H2504 H 0.28112 0.06542 0.35957 0.0
C2505 C 0.30019 0.09983 0.32727 0.0
H2506 H 0.29525 0.09232 0.37106 0.0
C2507 C 0.29203 0.08429 0.32064 0.0
C2508 C 0.2848 0.07164 0.33207 0.0
H2509 H 0.30522 0.10941 0.31805 0.0
H2510 H 0.29105 0.08239 0.30652 0.0
C2511 C 0.28618 0.07492 0.35031 0.0
C2512 C 0.45457 0.81767 0.32519 0.0
C2513 C 0.44511 0.80986 0.33883 0.0
H2514 H 0.4769 0.8166 0.30902 0.0
C2515 C 0.45166 0.79437 0.34669 0.0
H2516 H 0.44992 0.82952 0.31873 0.0
C2517 C 0.46709 0.78685 0.34102 0.0
C2518 C 0.47648 0.79456 0.32728 0.0
H2519 H 0.44493 0.78808 0.3574 0.0
H2520 H 0.4715 0.77484 0.3473 0.0
C2521 C 0.47 0.81012 0.31948 0.0
C2522 C 0.3014 0.96923 0.74183 0.0
C2523 C 0.31763 0.96822 0.73358 0.0
H2524 H 0.28474 0.98484 0.75747 0.0
C2525 C 0.32863 0.98338 0.73327 0.0
H2526 H 0.29257 0.95784 0.74222 0.0
C2527 C 0.32416 0.99868 0.74196 0.0
C2528 C 0.30846 0.99941 0.751 0.0
H2529 H 0.3413 0.9831 0.72728 0.0
H2530 H 0.33348 1.00973 0.74238 0.0
C2531 C 0.29679 0.98475 0.75036 0.0
C2532 C 0.58199 0.8212 0.73654 0.0
C2533 C 0.59015 0.80769 0.72762 0.0
H2534 H 0.56247 0.82827 0.75438 0.0
C2535 C 0.58335 0.79032 0.72938 0.0
H2536 H 0.58643 0.83477 0.73519 0.0
C2537 C 0.56925 0.78656 0.74035 0.0
C2538 C 0.5617 0.80009 0.74981 0.0
H2539 H 0.58931 0.77953 0.72275 0.0
H2540 H 0.56474 0.77304 0.74194 0.0
C2541 C 0.56807 0.81745 0.74748 0.0
C2542 C 0.47856 0.23518 0.73664 0.0
C2543 C 0.4682 0.24862 0.72922 0.0
H2544 H 0.50141 0.22834 0.75235 0.0
C2545 C 0.47438 0.26621 0.73132 0.0
H2546 H 0.47459 0.22148 0.73493 0.0
C2547 C 0.4901 0.2702 0.74126 0.0
C2548 C 0.49993 0.25668 0.74931 0.0
H2549 H 0.46675 0.27694 0.72582 0.0
H2550 H 0.49416 0.28384 0.74323 0.0
C2551 C 0.49409 0.23914 0.74654 0.0
C2552 C 0.70953 0.75153 0.08465 0.0
C2553 C 0.7218 0.74805 0.09864 0.0
H2554 H 0.70485 0.7634 0.05923 0.0
C2555 C 0.73917 0.75475 0.09749 0.0
H2556 H 0.696 0.74675 0.08512 0.0
C2557 C 0.74421 0.76437 0.0827 0.0
C2558 C 0.73204 0.76763 0.06858 0.0
H2559 H 0.74906 0.75221 0.10787 0.0
H2560 H 0.7577 0.76928 0.08235 0.0
C2561 C 0.71457 0.76124 0.06985 0.0
C2562 C 0.30342 0.72814 0.08873 0.0
C2563 C 0.31891 0.73332 0.09861 0.0
H2564 H 0.28543 0.73375 0.0667 0.0
C2565 C 0.32814 0.74853 0.09329 0.0
H2566 H 0.296 0.71642 0.09232 0.0
C2567 C 0.32219 0.75827 0.07867 0.0
C2568 C 0.30671 0.75325 0.0688 0.0
H2569 H 0.33987 0.75323 0.10065 0.0
H2570 H 0.32977 0.76995 0.07525 0.0
C2571 C 0.2974 0.73799 0.07395 0.0
C2572 C 0.31456 0.30812 0.107 0.0
C2573 C 0.33063 0.3175 0.10538 0.0
H2574 H 0.2927 0.29461 0.0937 0.0
C2575 C 0.33812 0.31811 0.08871 0.0
H2576 H 0.30822 0.30753 0.11948 0.0
C2577 C 0.32922 0.31044 0.07388 0.0
C2578 C 0.31265 0.3021 0.07546 0.0
H2579 H 0.35053 0.32511 0.08699 0.0
H2580 H 0.33471 0.31206 0.06104 0.0
C2581 C 0.30564 0.30067 0.09221 0.0
C2582 C 0.72373 0.32339 0.08783 0.0
C2583 C 0.73641 0.32758 0.10136 0.0
H2584 H 0.71834 0.31209 0.06235 0.0
C2585 C 0.75402 0.32297 0.09906 0.0
H2586 H 0.71011 0.327 0.08892 0.0
C2587 C 0.75879 0.31439 0.08372 0.0
C2588 C 0.74608 0.31015 0.07022 0.0
H2589 H 0.76414 0.32574 0.10926 0.0
H2590 H 0.7724 0.31081 0.08262 0.0
C2591 C 0.72849 0.31483 0.07251 0.0
C2592 C 0.77394 0.33782 0.94927 0.0
C2593 C 0.75727 0.33188 0.94252 0.0
H2594 H 0.79449 0.33542 0.96932 0.0
C2595 C 0.74842 0.31843 0.95169 0.0
H2596 H 0.78104 0.34835 0.94277 0.0
C2597 C 0.75618 0.31097 0.96704 0.0
C2598 C 0.77292 0.31689 0.97369 0.0
H2599 H 0.73561 0.31347 0.94684 0.0
H2600 H 0.74908 0.30054 0.97368 0.0
C2601 C 0.78163 0.33047 0.96462 0.0
C2602 C 0.75925 0.75506 0.94483 0.0
C2603 C 0.75309 0.73769 0.94753 0.0
H2604 H 0.76826 0.77938 0.95667 0.0
C2605 C 0.75396 0.73083 0.96485 0.0
H2606 H 0.75857 0.76093 0.9318 0.0
C2607 C 0.75981 0.74147 0.97917 0.0
C2608 C 0.76472 0.75917 0.97642 0.0
H2609 H 0.74941 0.71748 0.9674 0.0
H2610 H 0.75925 0.73626 0.99244 0.0
C2611 C 0.76483 0.76568 0.9591 0.0
C2612 C 0.32111 0.74676 0.94876 0.0
C2613 C 0.33925 0.74703 0.94558 0.0
H2614 H 0.30071 0.75513 0.96516 0.0
C2615 C 0.35081 0.75649 0.95734 0.0
H2616 H 0.31179 0.73956 0.94011 0.0
C2617 C 0.34445 0.76532 0.97185 0.0
C2618 C 0.32634 0.76497 0.9751 0.0
H2619 H 0.36482 0.75727 0.95525 0.0
H2620 H 0.35384 0.77226 0.98063 0.0
C2621 C 0.31476 0.75557 0.9633 0.0
C2622 C 0.29973 0.34548 0.95282 0.0
C2623 C 0.31533 0.33782 0.94748 0.0
H2624 H 0.27948 0.34576 0.97151 0.0
C2625 C 0.3225 0.32415 0.95788 0.0
H2626 H 0.2939 0.3562 0.94534 0.0
C2627 C 0.31427 0.31825 0.97308 0.0
C2628 C 0.29864 0.32588 0.97839 0.0
H2629 H 0.33439 0.31781 0.95417 0.0
H2630 H 0.32033 0.30781 0.98075 0.0
C2631 C 0.29153 0.33961 0.96802 0.0
C2632 C 0.59664 0.71593 0.24839 0.0
C2633 C 0.60775 0.72899 0.24126 0.0
H2634 H 0.574 0.71009 0.26347 0.0
C2635 C 0.60422 0.74674 0.24459 0.0
H2636 H 0.599 0.70213 0.24629 0.0
C2637 C 0.58997 0.7513 0.25458 0.0
C2638 C 0.57874 0.73827 0.26156 0.0
H2639 H 0.61229 0.75721 0.23918 0.0
H2640 H 0.58784 0.76511 0.25687 0.0
C2641 C 0.58236 0.72051 0.25843 0.0
C2642 C 0.32595 0.60586 0.24533 0.0
C2643 C 0.34399 0.61053 0.24474 0.0
H2644 H 0.3064 0.58789 0.255 0.0
C2645 C 0.35626 0.59987 0.25393 0.0
H2646 H 0.3161 0.61365 0.23836 0.0
C2647 C 0.35071 0.58502 0.26338 0.0
C2648 C 0.33268 0.5803 0.26396 0.0
H2649 H 0.37024 0.60313 0.25404 0.0
H2650 H 0.36062 0.57714 0.2701 0.0
C2651 C 0.32038 0.59094 0.25476 0.0
C2652 C 0.45142 0.30445 0.25129 0.0
C2653 C 0.45463 0.32173 0.24532 0.0
H2654 H 0.4625 0.28035 0.26071 0.0
C2655 C 0.47208 0.32863 0.24678 0.0
H2656 H 0.43829 0.29854 0.25018 0.0
C2657 C 0.48605 0.31813 0.2531 0.0
C2658 C 0.48281 0.30052 0.25788 0.0
H2659 H 0.47503 0.34192 0.24241 0.0
H2660 H 0.49946 0.32338 0.25308 0.0
C2661 C 0.46532 0.29398 0.25734 0.0
C2662 C 0.73874 0.46234 0.22068 0.0
C2663 C 0.73089 0.45192 0.23364 0.0
H2664 H 0.75484 0.48483 0.21482 0.0
C2665 C 0.73271 0.45759 0.25134 0.0
H2666 H 0.73727 0.45877 0.20689 0.0
C2667 C 0.74273 0.47288 0.25595 0.0
C2668 C 0.75117 0.48277 0.24294 0.0
H2669 H 0.72688 0.4499 0.26172 0.0
H2670 H 0.74444 0.47655 0.2697 0.0
C2671 C 0.74873 0.47745 0.22525 0.0
C2672 C 0.59761 0.32601 0.82806 0.0
C2673 C 0.61117 0.32941 0.81642 0.0
H2674 H 0.57251 0.31357 0.83211 0.0
C2675 C 0.60843 0.32406 0.7987 0.0
H2676 H 0.59923 0.32967 0.84182 0.0
C2677 C 0.59282 0.3149 0.79303 0.0
C2678 C 0.57981 0.31069 0.80506 0.0
H2679 H 0.61855 0.32654 0.78933 0.0
H2680 H 0.59143 0.31022 0.77958 0.0
C2681 C 0.58225 0.31671 0.8225 0.0
C2682 C 0.765 0.61703 0.79814 0.0
C2683 C 0.74806 0.61347 0.80426 0.0
H2684 H 0.78799 0.60672 0.78703 0.0
C2685 C 0.74052 0.59647 0.80155 0.0
H2686 H 0.77137 0.62982 0.80017 0.0
C2687 C 0.75007 0.58319 0.79369 0.0
C2688 C 0.76741 0.58663 0.78868 0.0
H2689 H 0.72747 0.5933 0.80604 0.0
H2690 H 0.74437 0.57001 0.79263 0.0
C2691 C 0.77457 0.60377 0.7906 0.0
C2692 C 0.46075 0.7295 0.79846 0.0
C2693 C 0.45468 0.72969 0.81577 0.0
H2694 H 0.47985 0.73946 0.78051 0.0
C2695 C 0.4644 0.73967 0.82854 0.0
H2696 H 0.45359 0.72202 0.78822 0.0
C2697 C 0.4793 0.74961 0.82411 0.0
C2698 C 0.48511 0.7499 0.80676 0.0
H2699 H 0.46053 0.73984 0.84209 0.0
H2700 H 0.48619 0.75728 0.83438 0.0
C2701 C 0.47581 0.73949 0.794 0.0
C2702 C 0.32894 0.45149 0.80383 0.0
C2703 C 0.34721 0.44861 0.8049 0.0
H2704 H 0.30803 0.46799 0.79439 0.0
C2705 C 0.35851 0.46126 0.7974 0.0
H2706 H 0.3198 0.44197 0.80925 0.0
C2707 C 0.35177 0.47618 0.78886 0.0
C2708 C 0.3335 0.47898 0.78754 0.0
H2709 H 0.37267 0.45972 0.79825 0.0
H2710 H 0.36097 0.48563 0.78344 0.0
C2711 C 0.32218 0.46645 0.79526 0.0
C2712 C 0.75677 0.60327 0.20827 0.0
C2713 C 0.74019 0.60526 0.21553 0.0
H2714 H 0.77987 0.58772 0.20698 0.0
C2715 C 0.73431 0.59228 0.22732 0.0
H2716 H 0.7617 0.61291 0.19905 0.0
C2717 C 0.74465 0.57778 0.23175 0.0
C2718 C 0.76125 0.57577 0.22456 0.0
H2719 H 0.72176 0.59341 0.2334 0.0
H2720 H 0.7395 0.56807 0.24075 0.0
C2721 C 0.76714 0.5887 0.21269 0.0
C2722 C 0.75994 0.46293 0.80323 0.0
C2723 C 0.75449 0.46008 0.8205 0.0
H2724 H 0.77412 0.47943 0.78561 0.0
C2725 C 0.76019 0.47224 0.83363 0.0
H2726 H 0.7562 0.45367 0.79283 0.0
C2727 C 0.77057 0.48713 0.82945 0.0
C2728 C 0.77548 0.49024 0.81203 0.0
H2729 H 0.75618 0.47056 0.84705 0.0
H2730 H 0.77425 0.49647 0.83976 0.0
C2731 C 0.77025 0.47775 0.79907 0.0
C2732 C 0.60848 0.74538 0.8116 0.0
C2733 C 0.61441 0.74173 0.82904 0.0
H2734 H 0.58911 0.75738 0.79447 0.0
C2735 C 0.60451 0.74791 0.84288 0.0
H2736 H 0.61556 0.74068 0.80057 0.0
C2737 C 0.58908 0.75736 0.83935 0.0
C2738 C 0.58308 0.76084 0.82188 0.0
H2739 H 0.60872 0.74553 0.85648 0.0
H2740 H 0.58172 0.76166 0.85033 0.0
C2741 C 0.59309 0.7548 0.80808 0.0
C2742 C 0.30608 0.59207 0.82428 0.0
C2743 C 0.32155 0.60205 0.82092 0.0
H2744 H 0.28892 0.57009 0.81662 0.0
C2745 C 0.33162 0.59689 0.80686 0.0
H2746 H 0.29802 0.59553 0.83508 0.0
C2747 C 0.32651 0.58237 0.79649 0.0
C2748 C 0.31105 0.57243 0.79968 0.0
H2749 H 0.34338 0.60433 0.80353 0.0
H2750 H 0.33472 0.57909 0.78574 0.0
C2751 C 0.3009 0.5774 0.81379 0.0
C2752 C 0.46281 0.30815 0.82092 0.0
C2753 C 0.45931 0.30782 0.83897 0.0
H2754 H 0.47963 0.30024 0.80067 0.0
C2755 C 0.47105 0.29886 0.85056 0.0
H2756 H 0.45422 0.31502 0.81157 0.0
C2757 C 0.4858 0.29053 0.84432 0.0
C2758 C 0.48931 0.29085 0.82627 0.0
H2759 H 0.46874 0.29805 0.86451 0.0
H2760 H 0.49453 0.28397 0.85375 0.0
C2761 C 0.47757 0.2998 0.81466 0.0
C2762 C 0.30876 0.45878 0.23673 0.0
C2763 C 0.32608 0.45804 0.23079 0.0
H2764 H 0.28985 0.47392 0.25013 0.0
C2765 C 0.33703 0.4732 0.23251 0.0
H2766 H 0.29993 0.4474 0.23553 0.0
C2767 C 0.33128 0.48824 0.24084 0.0
C2768 C 0.31433 0.48872 0.24752 0.0
H2769 H 0.35049 0.47314 0.22834 0.0
H2770 H 0.34045 0.4993 0.24275 0.0
C2771 C 0.30289 0.47404 0.2449 0.0
C2772 C 0.59087 0.30165 0.20322 0.0
C2773 C 0.60511 0.30625 0.21498 0.0
H2774 H 0.5652 0.28952 0.19969 0.0
C2775 C 0.60395 0.30154 0.23284 0.0
H2776 H 0.59135 0.30481 0.18932 0.0
C2777 C 0.58896 0.29256 0.23877 0.0
C2778 C 0.57471 0.28797 0.22701 0.0
H2779 H 0.61456 0.30495 0.24233 0.0
H2780 H 0.58867 0.28906 0.25259 0.0
C2781 C 0.57591 0.29264 0.20914 0.0
C2782 C 0.46564 0.76234 0.22619 0.0
C2783 C 0.45481 0.74762 0.23031 0.0
H2784 H 0.48825 0.77879 0.23391 0.0
C2785 C 0.45868 0.73853 0.2461 0.0
H2786 H 0.46313 0.76965 0.2141 0.0
C2787 C 0.47299 0.74366 0.25724 0.0
C2788 C 0.484 0.75817 0.25314 0.0
H2789 H 0.45049 0.72746 0.25005 0.0
H2790 H 0.47535 0.73614 0.26923 0.0
C2791 C 0.48009 0.76756 0.23749 0.0
loop_
_geom_bond_atom_site_label_1
_geom_bond_atom_site_label_2
_geom_bond_distance
_geom_bond_site_symmetry_2
_ccdc_geom_bond_type
C0 C1 1.264 . S
C0 C5 1.479 . S
C0 C10 1.465 . S
C1 C0 1.264 . S
C1 C3 1.339 . S
C1 H28 0.931 . S
C2 C3 1.395 . S
C2 C4 1.320 . S
C3 C1 1.339 . S
C3 C2 1.395 . S
C3 H29 0.929 . S
C4 C2 1.320 . S
C4 C5 1.405 . S
C4 H30 0.930 . S
C5 C0 1.479 . S
C5 C4 1.405 . S
C5 H31 0.931 . S
U6 O7 2.454 . S
U6 O8 2.458 . S
U6 C9 2.984 . S
U6 C10 2.847 . S
U6 C23 2.882 . S
U6 O24 2.441 . S
U6 O25 2.420 . S
U6 O26 2.455 . S
U6 O27 2.449 . S
O7 U6 2.454 . S
O7 C9 1.353 . S
O8 U6 2.458 . S
O8 C9 1.286 . S
C9 U6 2.984 . S
C9 O7 1.353 . S
C9 O8 1.286 . S
C9 C11 1.363 . S
C10 C0 1.465 . S
C10 U6 2.847 . S
C10 O24 1.249 . S
C10 O25 1.202 . S
C11 C9 1.363 . S
C11 C13 1.408 . S
C11 C16 1.342 . S
C12 C13 1.310 . S
C12 C15 1.461 . S
C12 H32 0.932 . S
C13 C11 1.408 . S
C13 C12 1.310 . S
C13 H33 0.930 . S
C14 C15 1.474 . S
C14 C16 1.285 . S
C14 H34 0.929 . S
C15 C12 1.461 . S
C15 C14 1.474 . S
C16 C11 1.342 . S
C16 C14 1.285 . S
C16 H35 0.930 . S
C17 C20 1.424 . S
C17 C22 1.245 . S
C17 C23 1.428 . S
C18 C21 1.260 . S
C18 C22 1.477 . S
C18 H36 0.932 . S
C19 C20 1.384 . S
C19 C21 1.479 . S
C19 H37 0.929 . S
C20 C17 1.424 . S
C20 C19 1.384 . S
C20 H38 0.928 . S
C21 C18 1.260 . S
C21 C19 1.479 . S
C22 C17 1.245 . S
C22 C18 1.477 . S
C22 H39 0.932 . S
C23 U6 2.882 . S
C23 C17 1.428 . S
C23 O26 1.301 . S
C23 O27 1.282 . S
O24 U6 2.441 . S
O24 C10 1.249 . S
O25 U6 2.420 . S
O25 C10 1.202 . S
O26 U6 2.455 . S
O26 C23 1.301 . S
O27 U6 2.449 . S
O27 C23 1.282 . S
H28 C1 0.931 . S
H29 C3 0.929 . S
H30 C4 0.930 . S
H31 C5 0.931 . S
H32 C12 0.932 . S
H33 C13 0.930 . S
H34 C14 0.929 . S
H35 C16 0.930 . S
H36 C18 0.932 . S
H37 C19 0.929 . S
H38 C20 0.928 . S
H39 C22 0.932 . S
C40 C41 1.264 . S
C40 C45 1.479 . S
C40 C50 1.465 . S
C41 C40 1.264 . S
C41 C43 1.339 . S
C41 H68 0.931 . S
C42 C43 1.395 . S
C42 C44 1.320 . S
C43 C41 1.339 . S
C43 C42 1.395 . S
C43 H69 0.929 . S
C44 C42 1.320 . S
C44 C45 1.405 . S
C44 H70 0.930 . S
C45 C40 1.479 . S
C45 C44 1.405 . S
C45 H71 0.931 . S
U46 O47 2.454 . S
U46 O48 2.458 . S
U46 C49 2.984 . S
U46 C50 2.847 . S
U46 C63 2.882 . S
U46 O64 2.441 . S
U46 O65 2.420 . S
U46 O66 2.455 . S
U46 O67 2.449 . S
O47 U46 2.454 . S
O47 C49 1.353 . S
O48 U46 2.458 . S
O48 C49 1.286 . S
C49 U46 2.984 . S
C49 O47 1.353 . S
C49 O48 1.286 . S
C49 C51 1.363 . S
C50 C40 1.465 . S
C50 U46 2.847 . S
C50 O64 1.249 . S
C50 O65 1.202 . S
C51 C49 1.363 . S
C51 C53 1.408 . S
C51 C56 1.342 . S
C52 C53 1.310 . S
C52 C55 1.461 . S
C52 H72 0.932 . S
C53 C51 1.408 . S
C53 C52 1.310 . S
C53 H73 0.930 . S
C54 C55 1.474 . S
C54 C56 1.285 . S
C54 H74 0.929 . S
C55 C52 1.461 . S
C55 C54 1.474 . S
C56 C51 1.342 . S
C56 C54 1.285 . S
C56 H75 0.930 . S
C57 C60 1.424 . S
C57 C62 1.245 . S
C57 C63 1.428 . S
C58 C61 1.260 . S
C58 C62 1.477 . S
C58 H76 0.932 . S
C59 C60 1.384 . S
C59 C61 1.479 . S
C59 H77 0.929 . S
C60 C57 1.424 . S
C60 C59 1.384 . S
C60 H78 0.928 . S
C61 C58 1.260 . S
C61 C59 1.479 . S
C62 C57 1.245 . S
C62 C58 1.477 . S
C62 H79 0.932 . S
C63 U46 2.882 . S
C63 C57 1.428 . S
C63 O66 1.301 . S
C63 O67 1.282 . S
O64 U46 2.441 . S
O64 C50 1.249 . S
O65 U46 2.420 . S
O65 C50 1.202 . S
O66 U46 2.455 . S
O66 C63 1.301 . S
O67 U46 2.449 . S
O67 C63 1.282 . S
H68 C41 0.931 . S
H69 C43 0.929 . S
H70 C44 0.930 . S
H71 C45 0.931 . S
H72 C52 0.932 . S
H73 C53 0.930 . S
H74 C54 0.929 . S
H75 C56 0.930 . S
H76 C58 0.932 . S
H77 C59 0.929 . S
H78 C60 0.928 . S
H79 C62 0.932 . S
C80 C81 1.264 . S
C80 C85 1.479 . S
C80 C90 1.465 . S
C81 C80 1.264 . S
C81 C83 1.339 . S
C81 H108 0.931 . S
C82 C83 1.395 . S
C82 C84 1.320 . S
C83 C81 1.339 . S
C83 C82 1.395 . S
C83 H109 0.929 . S
C84 C82 1.320 . S
C84 C85 1.405 . S
C84 H110 0.930 . S
C85 C80 1.479 . S
C85 C84 1.405 . S
C85 H111 0.931 . S
U86 O87 2.454 . S
U86 O88 2.458 . S
U86 C89 2.984 . S
U86 C90 2.847 . S
U86 C103 2.882 . S
U86 O104 2.441 . S
U86 O105 2.420 . S
U86 O106 2.455 . S
U86 O107 2.449 . S
O87 U86 2.454 . S
O87 C89 1.353 . S
O88 U86 2.458 . S
O88 C89 1.286 . S
C89 U86 2.984 . S
C89 O87 1.353 . S
C89 O88 1.286 . S
C89 C91 1.363 . S
C90 C80 1.465 . S
C90 U86 2.847 . S
C90 O104 1.249 . S
C90 O105 1.202 . S
C91 C89 1.363 . S
C91 C93 1.408 . S
C91 C96 1.342 . S
C92 C93 1.310 . S
C92 C95 1.461 . S
C92 H112 0.932 . S
C93 C91 1.408 . S
C93 C92 1.310 . S
C93 H113 0.930 . S
C94 C95 1.474 . S
C94 C96 1.285 . S
C94 H114 0.929 . S
C95 C92 1.461 . S
C95 C94 1.474 . S
C96 C91 1.342 . S
C96 C94 1.285 . S
C96 H115 0.930 . S
C97 C100 1.424 . S
C97 C102 1.245 . S
C97 C103 1.428 . S
C98 C101 1.260 . S
C98 C102 1.477 . S
C98 H116 0.932 . S
C99 C100 1.384 . S
C99 C101 1.479 . S
C99 H117 0.929 . S
C100 C97 1.424 . S
C100 C99 1.384 . S
C100 H118 0.928 . S
C101 C98 1.260 . S
C101 C99 1.479 . S
C102 C97 1.245 . S
C102 C98 1.477 . S
C102 H119 0.932 . S
C103 U86 2.882 . S
C103 C97 1.428 . S
C103 O106 1.301 . S
C103 O107 1.282 . S
O104 U86 2.441 . S
O104 C90 1.249 . S
O105 U86 2.420 . S
O105 C90 1.202 . S
O106 U86 2.455 . S
O106 C103 1.301 . S
O107 U86 2.449 . S
O107 C103 1.282 . S
H108 C81 0.931 . S
H109 C83 0.929 . S
H110 C84 0.930 . S
H111 C85 0.931 . S
H112 C92 0.932 . S
H113 C93 0.930 . S
H114 C94 0.929 . S
H115 C96 0.930 . S
H116 C98 0.932 . S
H117 C99 0.929 . S
H118 C100 0.928 . S
H119 C102 0.932 . S
C120 C121 1.264 . S
C120 C125 1.479 . S
C120 C130 1.465 . S
C121 C120 1.264 . S
C121 C123 1.339 . S
C121 H148 0.931 . S
C122 C123 1.395 . S
C122 C124 1.320 . S
C123 C121 1.339 . S
C123 C122 1.395 . S
C123 H149 0.929 . S
C124 C122 1.320 . S
C124 C125 1.405 . S
C124 H150 0.930 . S
C125 C120 1.479 . S
C125 C124 1.405 . S
C125 H151 0.931 . S
U126 O127 2.454 . S
U126 O128 2.458 . S
U126 C129 2.984 . S
U126 C130 2.847 . S
U126 C143 2.882 . S
U126 O144 2.441 . S
U126 O145 2.420 . S
U126 O146 2.455 . S
U126 O147 2.449 . S
O127 U126 2.454 . S
O127 C129 1.353 . S
O128 U126 2.458 . S
O128 C129 1.286 . S
C129 U126 2.984 . S
C129 O127 1.353 . S
C129 O128 1.286 . S
C129 C131 1.363 . S
C130 C120 1.465 . S
C130 U126 2.847 . S
C130 O144 1.249 . S
C130 O145 1.202 . S
C131 C129 1.363 . S
C131 C133 1.408 . S
C131 C136 1.342 . S
C132 C133 1.310 . S
C132 C135 1.461 . S
C132 H152 0.932 . S
C133 C131 1.408 . S
C133 C132 1.310 . S
C133 H153 0.930 . S
C134 C135 1.474 . S
C134 C136 1.285 . S
C134 H154 0.929 . S
C135 C132 1.461 . S
C135 C134 1.474 . S
C136 C131 1.342 . S
C136 C134 1.285 . S
C136 H155 0.930 . S
C137 C140 1.424 . S
C137 C142 1.245 . S
C137 C143 1.428 . S
C138 C141 1.260 . S
C138 C142 1.477 . S
C138 H156 0.932 . S
C139 C140 1.384 . S
C139 C141 1.479 . S
C139 H157 0.929 . S
C140 C137 1.424 . S
C140 C139 1.384 . S
C140 H158 0.928 . S
C141 C138 1.260 . S
C141 C139 1.479 . S
C142 C137 1.245 . S
C142 C138 1.477 . S
C142 H159 0.932 . S
C143 U126 2.882 . S
C143 C137 1.428 . S
C143 O146 1.301 . S
C143 O147 1.282 . S
O144 U126 2.441 . S
O144 C130 1.249 . S
O145 U126 2.420 . S
O145 C130 1.202 . S
O146 U126 2.455 . S
O146 C143 1.301 . S
O147 U126 2.449 . S
O147 C143 1.282 . S
H148 C121 0.931 . S
H149 C123 0.929 . S
H150 C124 0.930 . S
H151 C125 0.931 . S
H152 C132 0.932 . S
H153 C133 0.930 . S
H154 C134 0.929 . S
H155 C136 0.930 . S
H156 C138 0.932 . S
H157 C139 0.929 . S
H158 C140 0.928 . S
H159 C142 0.932 . S
C160 C161 1.264 . S
C160 C165 1.479 . S
C160 C170 1.465 . S
C161 C160 1.264 . S
C161 C163 1.339 . S
C161 H188 0.931 . S
C162 C163 1.395 . S
C162 C164 1.320 . S
C163 C161 1.339 . S
C163 C162 1.395 . S
C163 H189 0.929 . S
C164 C162 1.320 . S
C164 C165 1.405 . S
C164 H190 0.930 . S
C165 C160 1.479 . S
C165 C164 1.405 . S
C165 H191 0.931 . S
U166 O167 2.454 . S
U166 O168 2.458 . S
U166 C169 2.984 . S
U166 C170 2.847 . S
U166 C183 2.882 . S
U166 O184 2.441 . S
U166 O185 2.420 . S
U166 O186 2.455 . S
U166 O187 2.449 . S
O167 U166 2.454 . S
O167 C169 1.353 . S
O168 U166 2.458 . S
O168 C169 1.286 . S
C169 U166 2.984 . S
C169 O167 1.353 . S
C169 O168 1.286 . S
C169 C171 1.363 . S
C170 C160 1.465 . S
C170 U166 2.847 . S
C170 O184 1.249 . S
C170 O185 1.202 . S
C171 C169 1.363 . S
C171 C173 1.408 . S
C171 C176 1.342 . S
C172 C173 1.310 . S
C172 C175 1.461 . S
C172 H192 0.932 . S
C173 C171 1.408 . S
C173 C172 1.310 . S
C173 H193 0.930 . S
C174 C175 1.474 . S
C174 C176 1.285 . S
C174 H194 0.929 . S
C175 C172 1.461 . S
C175 C174 1.474 . S
C176 C171 1.342 . S
C176 C174 1.285 . S
C176 H195 0.930 . S
C177 C180 1.424 . S
C177 C182 1.245 . S
C177 C183 1.428 . S
C178 C181 1.260 . S
C178 C182 1.477 . S
C178 H196 0.932 . S
C179 C180 1.384 . S
C179 C181 1.479 . S
C179 H197 0.929 . S
C180 C177 1.424 . S
C180 C179 1.384 . S
C180 H198 0.928 . S
C181 C178 1.260 . S
C181 C179 1.479 . S
C182 C177 1.245 . S
C182 C178 1.477 . S
C182 H199 0.932 . S
C183 U166 2.882 . S
C183 C177 1.428 . S
C183 O186 1.301 . S
C183 O187 1.282 . S
O184 U166 2.441 . S
O184 C170 1.249 . S
O185 U166 2.420 . S
O185 C170 1.202 . S
O186 U166 2.455 . S
O186 C183 1.301 . S
O187 U166 2.449 . S
O187 C183 1.282 . S
H188 C161 0.931 . S
H189 C163 0.929 . S
H190 C164 0.930 . S
H191 C165 0.931 . S
H192 C172 0.932 . S
H193 C173 0.930 . S
H194 C174 0.929 . S
H195 C176 0.930 . S
H196 C178 0.932 . S
H197 C179 0.929 . S
H198 C180 0.928 . S
H199 C182 0.932 . S
C200 C201 1.264 . S
C200 C205 1.479 . S
C200 C210 1.465 . S
C201 C200 1.264 . S
C201 C203 1.339 . S
C201 H228 0.931 . S
C202 C203 1.395 . S
C202 C204 1.320 . S
C203 C201 1.339 . S
C203 C202 1.395 . S
C203 H229 0.929 . S
C204 C202 1.320 . S
C204 C205 1.405 . S
C204 H230 0.930 . S
C205 C200 1.479 . S
C205 C204 1.405 . S
C205 H231 0.931 . S
U206 O207 2.454 . S
U206 O208 2.458 . S
U206 C209 2.984 . S
U206 C210 2.847 . S
U206 C223 2.882 . S
U206 O224 2.441 . S
U206 O225 2.420 . S
U206 O226 2.455 . S
U206 O227 2.449 . S
O207 U206 2.454 . S
O207 C209 1.353 . S
O208 U206 2.458 . S
O208 C209 1.286 . S
C209 U206 2.984 . S
C209 O207 1.353 . S
C209 O208 1.286 . S
C209 C211 1.363 . S
C210 C200 1.465 . S
C210 U206 2.847 . S
C210 O224 1.249 . S
C210 O225 1.202 . S
C211 C209 1.363 . S
C211 C213 1.408 . S
C211 C216 1.342 . S
C212 C213 1.310 . S
C212 C215 1.461 . S
C212 H232 0.932 . S
C213 C211 1.408 . S
C213 C212 1.310 . S
C213 H233 0.930 . S
C214 C215 1.474 . S
C214 C216 1.285 . S
C214 H234 0.929 . S
C215 C212 1.461 . S
C215 C214 1.474 . S
C216 C211 1.342 . S
C216 C214 1.285 . S
C216 H235 0.930 . S
C217 C220 1.424 . S
C217 C222 1.245 . S
C217 C223 1.428 . S
C218 C221 1.260 . S
C218 C222 1.477 . S
C218 H236 0.932 . S
C219 C220 1.384 . S
C219 C221 1.479 . S
C219 H237 0.929 . S
C220 C217 1.424 . S
C220 C219 1.384 . S
C220 H238 0.928 . S
C221 C218 1.260 . S
C221 C219 1.479 . S
C222 C217 1.245 . S
C222 C218 1.477 . S
C222 H239 0.932 . S
C223 U206 2.882 . S
C223 C217 1.428 . S
C223 O226 1.301 . S
C223 O227 1.282 . S
O224 U206 2.441 . S
O224 C210 1.249 . S
O225 U206 2.420 . S
O225 C210 1.202 . S
O226 U206 2.455 . S
O226 C223 1.301 . S
O227 U206 2.449 . S
O227 C223 1.282 . S
H228 C201 0.931 . S
H229 C203 0.929 . S
H230 C204 0.930 . S
H231 C205 0.931 . S
H232 C212 0.932 . S
H233 C213 0.930 . S
H234 C214 0.929 . S
H235 C216 0.930 . S
H236 C218 0.932 . S
H237 C219 0.929 . S
H238 C220 0.928 . S
H239 C222 0.932 . S
C240 C241 1.264 . S
C240 C245 1.479 . S
C240 C250 1.465 . S
C241 C240 1.264 . S
C241 C243 1.339 . S
C241 H268 0.931 . S
C242 C243 1.395 . S
C242 C244 1.320 . S
C243 C241 1.339 . S
C243 C242 1.395 . S
C243 H269 0.929 . S
C244 C242 1.320 . S
C244 C245 1.405 . S
C244 H270 0.930 . S
C245 C240 1.479 . S
C245 C244 1.405 . S
C245 H271 0.931 . S
U246 O247 2.454 . S
U246 O248 2.458 . S
U246 C249 2.984 . S
U246 C250 2.847 . S
U246 C263 2.882 . S
U246 O264 2.441 . S
U246 O265 2.420 . S
U246 O266 2.455 . S
U246 O267 2.449 . S
O247 U246 2.454 . S
O247 C249 1.353 . S
O248 U246 2.458 . S
O248 C249 1.286 . S
C249 U246 2.984 . S
C249 O247 1.353 . S
C249 O248 1.286 . S
C249 C251 1.363 . S
C250 C240 1.465 . S
C250 U246 2.847 . S
C250 O264 1.249 . S
C250 O265 1.202 . S
C251 C249 1.363 . S
C251 C253 1.408 . S
C251 C256 1.342 . S
C252 C253 1.310 . S
C252 C255 1.461 . S
C252 H272 0.932 . S
C253 C251 1.408 . S
C253 C252 1.310 . S
C253 H273 0.930 . S
C254 C255 1.474 . S
C254 C256 1.285 . S
C254 H274 0.929 . S
C255 C252 1.461 . S
C255 C254 1.474 . S
C256 C251 1.342 . S
C256 C254 1.285 . S
C256 H275 0.930 . S
C257 C260 1.424 . S
C257 C262 1.245 . S
C257 C263 1.428 . S
C258 C261 1.260 . S
C258 C262 1.477 . S
C258 H276 0.932 . S
C259 C260 1.384 . S
C259 C261 1.479 . S
C259 H277 0.929 . S
C260 C257 1.424 . S
C260 C259 1.384 . S
C260 H278 0.928 . S
C261 C258 1.260 . S
C261 C259 1.479 . S
C262 C257 1.245 . S
C262 C258 1.477 . S
C262 H279 0.932 . S
C263 U246 2.882 . S
C263 C257 1.428 . S
C263 O266 1.301 . S
C263 O267 1.282 . S
O264 U246 2.441 . S
O264 C250 1.249 . S
O265 U246 2.420 . S
O265 C250 1.202 . S
O266 U246 2.455 . S
O266 C263 1.301 . S
O267 U246 2.449 . S
O267 C263 1.282 . S
H268 C241 0.931 . S
H269 C243 0.929 . S
H270 C244 0.930 . S
H271 C245 0.931 . S
H272 C252 0.932 . S
H273 C253 0.930 . S
H274 C254 0.929 . S
H275 C256 0.930 . S
H276 C258 0.932 . S
H277 C259 0.929 . S
H278 C260 0.928 . S
H279 C262 0.932 . S
C280 C281 1.264 . S
C280 C285 1.479 . S
C280 C290 1.465 . S
C281 C280 1.264 . S
C281 C283 1.339 . S
C281 H308 0.931 . S
C282 C283 1.395 . S
C282 C284 1.320 . S
C283 C281 1.339 . S
C283 C282 1.395 . S
C283 H309 0.929 . S
C284 C282 1.320 . S
C284 C285 1.405 . S
C284 H310 0.930 . S
C285 C280 1.479 . S
C285 C284 1.405 . S
C285 H311 0.931 . S
U286 O287 2.454 . S
U286 O288 2.458 . S
U286 C289 2.984 . S
U286 C290 2.847 . S
U286 C303 2.882 . S
U286 O304 2.441 . S
U286 O305 2.420 . S
U286 O306 2.455 . S
U286 O307 2.449 . S
O287 U286 2.454 . S
O287 C289 1.353 . S
O288 U286 2.458 . S
O288 C289 1.286 . S
C289 U286 2.984 . S
C289 O287 1.353 . S
C289 O288 1.286 . S
C289 C291 1.363 . S
C290 C280 1.465 . S
C290 U286 2.847 . S
C290 O304 1.249 . S
C290 O305 1.202 . S
C291 C289 1.363 . S
C291 C293 1.408 . S
C291 C296 1.342 . S
C292 C293 1.310 . S
C292 C295 1.461 . S
C292 H312 0.932 . S
C293 C291 1.408 . S
C293 C292 1.310 . S
C293 H313 0.930 . S
C294 C295 1.474 . S
C294 C296 1.285 . S
C294 H314 0.929 . S
C295 C292 1.461 . S
C295 C294 1.474 . S
C296 C291 1.342 . S
C296 C294 1.285 . S
C296 H315 0.930 . S
C297 C300 1.424 . S
C297 C302 1.245 . S
C297 C303 1.428 . S
C298 C301 1.260 . S
C298 C302 1.477 . S
C298 H316 0.932 . S
C299 C300 1.384 . S
C299 C301 1.479 . S
C299 H317 0.929 . S
C300 C297 1.424 . S
C300 C299 1.384 . S
C300 H318 0.928 . S
C301 C298 1.260 . S
C301 C299 1.479 . S
C302 C297 1.245 . S
C302 C298 1.477 . S
C302 H319 0.932 . S
C303 U286 2.882 . S
C303 C297 1.428 . S
C303 O306 1.301 . S
C303 O307 1.282 . S
O304 U286 2.441 . S
O304 C290 1.249 . S
O305 U286 2.420 . S
O305 C290 1.202 . S
O306 U286 2.455 . S
O306 C303 1.301 . S
O307 U286 2.449 . S
O307 C303 1.282 . S
H308 C281 0.931 . S
H309 C283 0.929 . S
H310 C284 0.930 . S
H311 C285 0.931 . S
H312 C292 0.932 . S
H313 C293 0.930 . S
H314 C294 0.929 . S
H315 C296 0.930 . S
H316 C298 0.932 . S
H317 C299 0.929 . S
H318 C300 0.928 . S
H319 C302 0.932 . S
C320 C321 1.264 . S
C320 C325 1.479 . S
C320 C330 1.465 . S
C321 C320 1.264 . S
C321 C323 1.339 . S
C321 H348 0.931 . S
C322 C323 1.395 . S
C322 C324 1.320 . S
C323 C321 1.339 . S
C323 C322 1.395 . S
C323 H349 0.929 . S
C324 C322 1.320 . S
C324 C325 1.405 . S
C324 H350 0.930 . S
C325 C320 1.479 . S
C325 C324 1.405 . S
C325 H351 0.931 . S
U326 O327 2.454 . S
U326 O328 2.458 . S
U326 C329 2.984 . S
U326 C330 2.847 . S
U326 C343 2.882 . S
U326 O344 2.441 . S
U326 O345 2.420 . S
U326 O346 2.455 . S
U326 O347 2.449 . S
O327 U326 2.454 . S
O327 C329 1.353 . S
O328 U326 2.458 . S
O328 C329 1.286 . S
C329 U326 2.984 . S
C329 O327 1.353 . S
C329 O328 1.286 . S
C329 C331 1.363 . S
C330 C320 1.465 . S
C330 U326 2.847 . S
C330 O344 1.249 . S
C330 O345 1.202 . S
C331 C329 1.363 . S
C331 C333 1.408 . S
C331 C336 1.342 . S
C332 C333 1.310 . S
C332 C335 1.461 . S
C332 H352 0.932 . S
C333 C331 1.408 . S
C333 C332 1.310 . S
C333 H353 0.930 . S
C334 C335 1.474 . S
C334 C336 1.285 . S
C334 H354 0.929 . S
C335 C332 1.461 . S
C335 C334 1.474 . S
C336 C331 1.342 . S
C336 C334 1.285 . S
C336 H355 0.930 . S
C337 C340 1.424 . S
C337 C342 1.245 . S
C337 C343 1.428 . S
C338 C341 1.260 . S
C338 C342 1.477 . S
C338 H356 0.932 . S
C339 C340 1.384 . S
C339 C341 1.479 . S
C339 H357 0.929 . S
C340 C337 1.424 . S
C340 C339 1.384 . S
C340 H358 0.928 . S
C341 C338 1.260 . S
C341 C339 1.479 . S
C342 C337 1.245 . S
C342 C338 1.477 . S
C342 H359 0.932 . S
C343 U326 2.882 . S
C343 C337 1.428 . S
C343 O346 1.301 . S
C343 O347 1.282 . S
O344 U326 2.441 . S
O344 C330 1.249 . S
O345 U326 2.420 . S
O345 C330 1.202 . S
O346 U326 2.455 . S
O346 C343 1.301 . S
O347 U326 2.449 . S
O347 C343 1.282 . S
H348 C321 0.931 . S
H349 C323 0.929 . S
H350 C324 0.930 . S
H351 C325 0.931 . S
H352 C332 0.932 . S
H353 C333 0.930 . S
H354 C334 0.929 . S
H355 C336 0.930 . S
H356 C338 0.932 . S
H357 C339 0.929 . S
H358 C340 0.928 . S
H359 C342 0.932 . S
C360 C361 1.264 . S
C360 C365 1.479 . S
C360 C370 1.465 . S
C361 C360 1.264 . S
C361 C363 1.339 . S
C361 H388 0.931 . S
C362 C363 1.395 . S
C362 C364 1.320 . S
C363 C361 1.339 . S
C363 C362 1.395 . S
C363 H389 0.929 . S
C364 C362 1.320 . S
C364 C365 1.405 . S
C364 H390 0.930 . S
C365 C360 1.479 . S
C365 C364 1.405 . S
C365 H391 0.931 . S
U366 O367 2.454 . S
U366 O368 2.458 . S
U366 C369 2.984 . S
U366 C370 2.847 . S
U366 C383 2.882 . S
U366 O384 2.441 . S
U366 O385 2.420 . S
U366 O386 2.455 . S
U366 O387 2.449 . S
O367 U366 2.454 . S
O367 C369 1.353 . S
O368 U366 2.458 . S
O368 C369 1.286 . S
C369 U366 2.984 . S
C369 O367 1.353 . S
C369 O368 1.286 . S
C369 C371 1.363 . S
C370 C360 1.465 . S
C370 U366 2.847 . S
C370 O384 1.249 . S
C370 O385 1.202 . S
C371 C369 1.363 . S
C371 C373 1.408 . S
C371 C376 1.342 . S
C372 C373 1.310 . S
C372 C375 1.461 . S
C372 H392 0.932 . S
C373 C371 1.408 . S
C373 C372 1.310 . S
C373 H393 0.930 . S
C374 C375 1.474 . S
C374 C376 1.285 . S
C374 H394 0.929 . S
C375 C372 1.461 . S
C375 C374 1.474 . S
C376 C371 1.342 . S
C376 C374 1.285 . S
C376 H395 0.930 . S
C377 C380 1.424 . S
C377 C382 1.245 . S
C377 C383 1.428 . S
C378 C381 1.260 . S
C378 C382 1.477 . S
C378 H396 0.932 . S
C379 C380 1.384 . S
C379 C381 1.479 . S
C379 H397 0.929 . S
C380 C377 1.424 . S
C380 C379 1.384 . S
C380 H398 0.928 . S
C381 C378 1.260 . S
C381 C379 1.479 . S
C382 C377 1.245 . S
C382 C378 1.477 . S
C382 H399 0.932 . S
C383 U366 2.882 . S
C383 C377 1.428 . S
C383 O386 1.301 . S
C383 O387 1.282 . S
O384 U366 2.441 . S
O384 C370 1.249 . S
O385 U366 2.420 . S
O385 C370 1.202 . S
O386 U366 2.455 . S
O386 C383 1.301 . S
O387 U366 2.449 . S
O387 C383 1.282 . S
H388 C361 0.931 . S
H389 C363 0.929 . S
H390 C364 0.930 . S
H391 C365 0.931 . S
H392 C372 0.932 . S
H393 C373 0.930 . S
H394 C374 0.929 . S
H395 C376 0.930 . S
H396 C378 0.932 . S
H397 C379 0.929 . S
H398 C380 0.928 . S
H399 C382 0.932 . S
C400 C401 1.264 . S
C400 C405 1.479 . S
C400 C410 1.465 . S
C401 C400 1.264 . S
C401 C403 1.339 . S
C401 H428 0.931 . S
C402 C403 1.395 . S
C402 C404 1.320 . S
C403 C401 1.339 . S
C403 C402 1.395 . S
C403 H429 0.929 . S
C404 C402 1.320 . S
C404 C405 1.405 . S
C404 H430 0.930 . S
C405 C400 1.479 . S
C405 C404 1.405 . S
C405 H431 0.931 . S
U406 O407 2.454 . S
U406 O408 2.458 . S
U406 C409 2.984 . S
U406 C410 2.847 . S
U406 C423 2.882 . S
U406 O424 2.441 . S
U406 O425 2.420 . S
U406 O426 2.455 . S
U406 O427 2.449 . S
O407 U406 2.454 . S
O407 C409 1.353 . S
O408 U406 2.458 . S
O408 C409 1.286 . S
C409 U406 2.984 . S
C409 O407 1.353 . S
C409 O408 1.286 . S
C409 C411 1.363 . S
C410 C400 1.465 . S
C410 U406 2.847 . S
C410 O424 1.249 . S
C410 O425 1.202 . S
C411 C409 1.363 . S
C411 C413 1.408 . S
C411 C416 1.342 . S
C412 C413 1.310 . S
C412 C415 1.461 . S
C412 H432 0.932 . S
C413 C411 1.408 . S
C413 C412 1.310 . S
C413 H433 0.930 . S
C414 C415 1.474 . S
C414 C416 1.285 . S
C414 H434 0.929 . S
C415 C412 1.461 . S
C415 C414 1.474 . S
C416 C411 1.342 . S
C416 C414 1.285 . S
C416 H435 0.930 . S
C417 C420 1.424 . S
C417 C422 1.245 . S
C417 C423 1.428 . S
C418 C421 1.260 . S
C418 C422 1.477 . S
C418 H436 0.932 . S
C419 C420 1.384 . S
C419 C421 1.479 . S
C419 H437 0.929 . S
C420 C417 1.424 . S
C420 C419 1.384 . S
C420 H438 0.928 . S
C421 C418 1.260 . S
C421 C419 1.479 . S
C422 C417 1.245 . S
C422 C418 1.477 . S
C422 H439 0.932 . S
C423 U406 2.882 . S
C423 C417 1.428 . S
C423 O426 1.301 . S
C423 O427 1.282 . S
O424 U406 2.441 . S
O424 C410 1.249 . S
O425 U406 2.420 . S
O425 C410 1.202 . S
O426 U406 2.455 . S
O426 C423 1.301 . S
O427 U406 2.449 . S
O427 C423 1.282 . S
H428 C401 0.931 . S
H429 C403 0.929 . S
H430 C404 0.930 . S
H431 C405 0.931 . S
H432 C412 0.932 . S
H433 C413 0.930 . S
H434 C414 0.929 . S
H435 C416 0.930 . S
H436 C418 0.932 . S
H437 C419 0.929 . S
H438 C420 0.928 . S
H439 C422 0.932 . S
C440 C441 1.264 . S
C440 C445 1.479 . S
C440 C450 1.465 . S
C441 C440 1.264 . S
C441 C443 1.339 . S
C441 H468 0.931 . S
C442 C443 1.395 . S
C442 C444 1.320 . S
C443 C441 1.339 . S
C443 C442 1.395 . S
C443 H469 0.929 . S
C444 C442 1.320 . S
C444 C445 1.405 . S
C444 H470 0.930 . S
C445 C440 1.479 . S
C445 C444 1.405 . S
C445 H471 0.931 . S
U446 O447 2.454 . S
U446 O448 2.458 . S
U446 C449 2.984 . S
U446 C450 2.847 . S
U446 C463 2.882 . S
U446 O464 2.441 . S
U446 O465 2.420 . S
U446 O466 2.455 . S
U446 O467 2.449 . S
O447 U446 2.454 . S
O447 C449 1.353 . S
O448 U446 2.458 . S
O448 C449 1.286 . S
C449 U446 2.984 . S
C449 O447 1.353 . S
C449 O448 1.286 . S
C449 C451 1.363 . S
C450 C440 1.465 . S
C450 U446 2.847 . S
C450 O464 1.249 . S
C450 O465 1.202 . S
C451 C449 1.363 . S
C451 C453 1.408 . S
C451 C456 1.342 . S
C452 C453 1.310 . S
C452 C455 1.461 . S
C452 H472 0.932 . S
C453 C451 1.408 . S
C453 C452 1.310 . S
C453 H473 0.930 . S
C454 C455 1.474 . S
C454 C456 1.285 . S
C454 H474 0.929 . S
C455 C452 1.461 . S
C455 C454 1.474 . S
C456 C451 1.342 . S
C456 C454 1.285 . S
C456 H475 0.930 . S
C457 C460 1.424 . S
C457 C462 1.245 . S
C457 C463 1.428 . S
C458 C461 1.260 . S
C458 C462 1.477 . S
C458 H476 0.932 . S
C459 C460 1.384 . S
C459 C461 1.479 . S
C459 H477 0.929 . S
C460 C457 1.424 . S
C460 C459 1.384 . S
C460 H478 0.928 . S
C461 C458 1.260 . S
C461 C459 1.479 . S
C462 C457 1.245 . S
C462 C458 1.477 . S
C462 H479 0.932 . S
C463 U446 2.882 . S
C463 C457 1.428 . S
C463 O466 1.301 . S
C463 O467 1.282 . S
O464 U446 2.441 . S
O464 C450 1.249 . S
O465 U446 2.420 . S
O465 C450 1.202 . S
O466 U446 2.455 . S
O466 C463 1.301 . S
O467 U446 2.449 . S
O467 C463 1.282 . S
H468 C441 0.931 . S
H469 C443 0.929 . S
H470 C444 0.930 . S
H471 C445 0.931 . S
H472 C452 0.932 . S
H473 C453 0.930 . S
H474 C454 0.929 . S
H475 C456 0.930 . S
H476 C458 0.932 . S
H477 C459 0.929 . S
H478 C460 0.928 . S
H479 C462 0.932 . S
C480 C481 1.264 . S
C480 C485 1.479 . S
C480 C490 1.465 . S
C481 C480 1.264 . S
C481 C483 1.339 . S
C481 H508 0.931 . S
C482 C483 1.395 . S
C482 C484 1.320 . S
C483 C481 1.339 . S
C483 C482 1.395 . S
C483 H509 0.929 . S
C484 C482 1.320 . S
C484 C485 1.405 . S
C484 H510 0.930 . S
C485 C480 1.479 . S
C485 C484 1.405 . S
C485 H511 0.931 . S
U486 O487 2.454 . S
U486 O488 2.458 . S
U486 C489 2.984 . S
U486 C490 2.847 . S
U486 C503 2.882 . S
U486 O504 2.441 . S
U486 O505 2.420 . S
U486 O506 2.455 . S
U486 O507 2.449 . S
O487 U486 2.454 . S
O487 C489 1.353 . S
O488 U486 2.458 . S
O488 C489 1.286 . S
C489 U486 2.984 . S
C489 O487 1.353 . S
C489 O488 1.286 . S
C489 C491 1.363 . S
C490 C480 1.465 . S
C490 U486 2.847 . S
C490 O504 1.249 . S
C490 O505 1.202 . S
C491 C489 1.363 . S
C491 C493 1.408 . S
C491 C496 1.342 . S
C492 C493 1.310 . S
C492 C495 1.461 . S
C492 H512 0.932 . S
C493 C491 1.408 . S
C493 C492 1.310 . S
C493 H513 0.930 . S
C494 C495 1.474 . S
C494 C496 1.285 . S
C494 H514 0.929 . S
C495 C492 1.461 . S
C495 C494 1.474 . S
C496 C491 1.342 . S
C496 C494 1.285 . S
C496 H515 0.930 . S
C497 C500 1.424 . S
C497 C502 1.245 . S
C497 C503 1.428 . S
C498 C501 1.260 . S
C498 C502 1.477 . S
C498 H516 0.932 . S
C499 C500 1.384 . S
C499 C501 1.479 . S
C499 H517 0.929 . S
C500 C497 1.424 . S
C500 C499 1.384 . S
C500 H518 0.928 . S
C501 C498 1.260 . S
C501 C499 1.479 . S
C502 C497 1.245 . S
C502 C498 1.477 . S
C502 H519 0.932 . S
C503 U486 2.882 . S
C503 C497 1.428 . S
C503 O506 1.301 . S
C503 O507 1.282 . S
O504 U486 2.441 . S
O504 C490 1.249 . S
O505 U486 2.420 . S
O505 C490 1.202 . S
O506 U486 2.455 . S
O506 C503 1.301 . S
O507 U486 2.449 . S
O507 C503 1.282 . S
H508 C481 0.931 . S
H509 C483 0.929 . S
H510 C484 0.930 . S
H511 C485 0.931 . S
H512 C492 0.932 . S
H513 C493 0.930 . S
H514 C494 0.929 . S
H515 C496 0.930 . S
H516 C498 0.932 . S
H517 C499 0.929 . S
H518 C500 0.928 . S
H519 C502 0.932 . S
C520 C521 1.264 . S
C520 C525 1.479 . S
C520 C530 1.465 . S
C521 C520 1.264 . S
C521 C523 1.339 . S
C521 H548 0.931 . S
C522 C523 1.395 . S
C522 C524 1.320 . S
C523 C521 1.339 . S
C523 C522 1.395 . S
C523 H549 0.929 . S
C524 C522 1.320 . S
C524 C525 1.405 . S
C524 H550 0.930 . S
C525 C520 1.479 . S
C525 C524 1.405 . S
C525 H551 0.931 . S
U526 O527 2.454 . S
U526 O528 2.458 . S
U526 C529 2.984 . S
U526 C530 2.847 . S
U526 C543 2.882 . S
U526 O544 2.441 . S
U526 O545 2.420 . S
U526 O546 2.455 . S
U526 O547 2.449 . S
O527 U526 2.454 . S
O527 C529 1.353 . S
O528 U526 2.458 . S
O528 C529 1.286 . S
C529 U526 2.984 . S
C529 O527 1.353 . S
C529 O528 1.286 . S
C529 C531 1.363 . S
C530 C520 1.465 . S
C530 U526 2.847 . S
C530 O544 1.249 . S
C530 O545 1.202 . S
C531 C529 1.363 . S
C531 C533 1.408 . S
C531 C536 1.342 . S
C532 C533 1.310 . S
C532 C535 1.461 . S
C532 H552 0.932 . S
C533 C531 1.408 . S
C533 C532 1.310 . S
C533 H553 0.930 . S
C534 C535 1.474 . S
C534 C536 1.285 . S
C534 H554 0.929 . S
C535 C532 1.461 . S
C535 C534 1.474 . S
C536 C531 1.342 . S
C536 C534 1.285 . S
C536 H555 0.930 . S
C537 C540 1.424 . S
C537 C542 1.245 . S
C537 C543 1.428 . S
C538 C541 1.260 . S
C538 C542 1.477 . S
C538 H556 0.932 . S
C539 C540 1.384 . S
C539 C541 1.479 . S
C539 H557 0.929 . S
C540 C537 1.424 . S
C540 C539 1.384 . S
C540 H558 0.928 . S
C541 C538 1.260 . S
C541 C539 1.479 . S
C542 C537 1.245 . S
C542 C538 1.477 . S
C542 H559 0.932 . S
C543 U526 2.882 . S
C543 C537 1.428 . S
C543 O546 1.301 . S
C543 O547 1.282 . S
O544 U526 2.441 . S
O544 C530 1.249 . S
O545 U526 2.420 . S
O545 C530 1.202 . S
O546 U526 2.455 . S
O546 C543 1.301 . S
O547 U526 2.449 . S
O547 C543 1.282 . S
H548 C521 0.931 . S
H549 C523 0.929 . S
H550 C524 0.930 . S
H551 C525 0.931 . S
H552 C532 0.932 . S
H553 C533 0.930 . S
H554 C534 0.929 . S
H555 C536 0.930 . S
H556 C538 0.932 . S
H557 C539 0.929 . S
H558 C540 0.928 . S
H559 C542 0.932 . S
C560 C561 1.264 . S
C560 C565 1.479 . S
C560 C570 1.465 . S
C561 C560 1.264 . S
C561 C563 1.339 . S
C561 H588 0.931 . S
C562 C563 1.395 . S
C562 C564 1.320 . S
C563 C561 1.339 . S
C563 C562 1.395 . S
C563 H589 0.929 . S
C564 C562 1.320 . S
C564 C565 1.405 . S
C564 H590 0.930 . S
C565 C560 1.479 . S
C565 C564 1.405 . S
C565 H591 0.931 . S
U566 O567 2.454 . S
U566 O568 2.458 . S
U566 C569 2.984 . S
U566 C570 2.847 . S
U566 C583 2.882 . S
U566 O584 2.441 . S
U566 O585 2.420 . S
U566 O586 2.455 . S
U566 O587 2.449 . S
O567 U566 2.454 . S
O567 C569 1.353 . S
O568 U566 2.458 . S
O568 C569 1.286 . S
C569 U566 2.984 . S
C569 O567 1.353 . S
C569 O568 1.286 . S
C569 C571 1.363 . S
C570 C560 1.465 . S
C570 U566 2.847 . S
C570 O584 1.249 . S
C570 O585 1.202 . S
C571 C569 1.363 . S
C571 C573 1.408 . S
C571 C576 1.342 . S
C572 C573 1.310 . S
C572 C575 1.461 . S
C572 H592 0.932 . S
C573 C571 1.408 . S
C573 C572 1.310 . S
C573 H593 0.930 . S
C574 C575 1.474 . S
C574 C576 1.285 . S
C574 H594 0.929 . S
C575 C572 1.461 . S
C575 C574 1.474 . S
C576 C571 1.342 . S
C576 C574 1.285 . S
C576 H595 0.930 . S
C577 C580 1.424 . S
C577 C582 1.245 . S
C577 C583 1.428 . S
C578 C581 1.260 . S
C578 C582 1.477 . S
C578 H596 0.932 . S
C579 C580 1.384 . S
C579 C581 1.479 . S
C579 H597 0.929 . S
C580 C577 1.424 . S
C580 C579 1.384 . S
C580 H598 0.928 . S
C581 C578 1.260 . S
C581 C579 1.479 . S
C582 C577 1.245 . S
C582 C578 1.477 . S
C582 H599 0.932 . S
C583 U566 2.882 . S
C583 C577 1.428 . S
C583 O586 1.301 . S
C583 O587 1.282 . S
O584 U566 2.441 . S
O584 C570 1.249 . S
O585 U566 2.420 . S
O585 C570 1.202 . S
O586 U566 2.455 . S
O586 C583 1.301 . S
O587 U566 2.449 . S
O587 C583 1.282 . S
H588 C561 0.931 . S
H589 C563 0.929 . S
H590 C564 0.930 . S
H591 C565 0.931 . S
H592 C572 0.932 . S
H593 C573 0.930 . S
H594 C574 0.929 . S
H595 C576 0.930 . S
H596 C578 0.932 . S
H597 C579 0.929 . S
H598 C580 0.928 . S
H599 C582 0.932 . S
C600 C601 1.264 . S
C600 C605 1.479 . S
C600 C610 1.465 . S
C601 C600 1.264 . S
C601 C603 1.339 . S
C601 H628 0.931 . S
C602 C603 1.395 . S
C602 C604 1.320 . S
C603 C601 1.339 . S
C603 C602 1.395 . S
C603 H629 0.929 . S
C604 C602 1.320 . S
C604 C605 1.405 . S
C604 H630 0.930 . S
C605 C600 1.479 . S
C605 C604 1.405 . S
C605 H631 0.931 . S
U606 O607 2.454 . S
U606 O608 2.458 . S
U606 C609 2.984 . S
U606 C610 2.847 . S
U606 C623 2.882 . S
U606 O624 2.441 . S
U606 O625 2.420 . S
U606 O626 2.455 . S
U606 O627 2.449 . S
O607 U606 2.454 . S
O607 C609 1.353 . S
O608 U606 2.458 . S
O608 C609 1.286 . S
C609 U606 2.984 . S
C609 O607 1.353 . S
C609 O608 1.286 . S
C609 C611 1.363 . S
C610 C600 1.465 . S
C610 U606 2.847 . S
C610 O624 1.249 . S
C610 O625 1.202 . S
C611 C609 1.363 . S
C611 C613 1.408 . S
C611 C616 1.342 . S
C612 C613 1.310 . S
C612 C615 1.461 . S
C612 H632 0.932 . S
C613 C611 1.408 . S
C613 C612 1.310 . S
C613 H633 0.930 . S
C614 C615 1.474 . S
C614 C616 1.285 . S
C614 H634 0.929 . S
C615 C612 1.461 . S
C615 C614 1.474 . S
C616 C611 1.342 . S
C616 C614 1.285 . S
C616 H635 0.930 . S
C617 C620 1.424 . S
C617 C622 1.245 . S
C617 C623 1.428 . S
C618 C621 1.260 . S
C618 C622 1.477 . S
C618 H636 0.932 . S
C619 C620 1.384 . S
C619 C621 1.479 . S
C619 H637 0.929 . S
C620 C617 1.424 . S
C620 C619 1.384 . S
C620 H638 0.928 . S
C621 C618 1.260 . S
C621 C619 1.479 . S
C622 C617 1.245 . S
C622 C618 1.477 . S
C622 H639 0.932 . S
C623 U606 2.882 . S
C623 C617 1.428 . S
C623 O626 1.301 . S
C623 O627 1.282 . S
O624 U606 2.441 . S
O624 C610 1.249 . S
O625 U606 2.420 . S
O625 C610 1.202 . S
O626 U606 2.455 . S
O626 C623 1.301 . S
O627 U606 2.449 . S
O627 C623 1.282 . S
H628 C601 0.931 . S
H629 C603 0.929 . S
H630 C604 0.930 . S
H631 C605 0.931 . S
H632 C612 0.932 . S
H633 C613 0.930 . S
H634 C614 0.929 . S
H635 C616 0.930 . S
H636 C618 0.932 . S
H637 C619 0.929 . S
H638 C620 0.928 . S
H639 C622 0.932 . S
C640 C641 1.264 . S
C640 C645 1.479 . S
C640 C650 1.465 . S
C641 C640 1.264 . S
C641 C643 1.339 . S
C641 H668 0.931 . S
C642 C643 1.395 . S
C642 C644 1.320 . S
C643 C641 1.339 . S
C643 C642 1.395 . S
C643 H669 0.929 . S
C644 C642 1.320 . S
C644 C645 1.405 . S
C644 H670 0.930 . S
C645 C640 1.479 . S
C645 C644 1.405 . S
C645 H671 0.931 . S
U646 O647 2.454 . S
U646 O648 2.458 . S
U646 C649 2.984 . S
U646 C650 2.847 . S
U646 C663 2.882 . S
U646 O664 2.441 . S
U646 O665 2.420 . S
U646 O666 2.455 . S
U646 O667 2.449 . S
O647 U646 2.454 . S
O647 C649 1.353 . S
O648 U646 2.458 . S
O648 C649 1.286 . S
C649 U646 2.984 . S
C649 O647 1.353 . S
C649 O648 1.286 . S
C649 C651 1.363 . S
C650 C640 1.465 . S
C650 U646 2.847 . S
C650 O664 1.249 . S
C650 O665 1.202 . S
C651 C649 1.363 . S
C651 C653 1.408 . S
C651 C656 1.342 . S
C652 C653 1.310 . S
C652 C655 1.461 . S
C652 H672 0.932 . S
C653 C651 1.408 . S
C653 C652 1.310 . S
C653 H673 0.930 . S
C654 C655 1.474 . S
C654 C656 1.285 . S
C654 H674 0.929 . S
C655 C652 1.461 . S
C655 C654 1.474 . S
C656 C651 1.342 . S
C656 C654 1.285 . S
C656 H675 0.930 . S
C657 C660 1.424 . S
C657 C662 1.245 . S
C657 C663 1.428 . S
C658 C661 1.260 . S
C658 C662 1.477 . S
C658 H676 0.932 . S
C659 C660 1.384 . S
C659 C661 1.479 . S
C659 H677 0.929 . S
C660 C657 1.424 . S
C660 C659 1.384 . S
C660 H678 0.928 . S
C661 C658 1.260 . S
C661 C659 1.479 . S
C662 C657 1.245 . S
C662 C658 1.477 . S
C662 H679 0.932 . S
C663 U646 2.882 . S
C663 C657 1.428 . S
C663 O666 1.301 . S
C663 O667 1.282 . S
O664 U646 2.441 . S
O664 C650 1.249 . S
O665 U646 2.420 . S
O665 C650 1.202 . S
O666 U646 2.455 . S
O666 C663 1.301 . S
O667 U646 2.449 . S
O667 C663 1.282 . S
H668 C641 0.931 . S
H669 C643 0.929 . S
H670 C644 0.930 . S
H671 C645 0.931 . S
H672 C652 0.932 . S
H673 C653 0.930 . S
H674 C654 0.929 . S
H675 C656 0.930 . S
H676 C658 0.932 . S
H677 C659 0.929 . S
H678 C660 0.928 . S
H679 C662 0.932 . S
C680 C681 1.264 . S
C680 C685 1.479 . S
C680 C690 1.465 . S
C681 C680 1.264 . S
C681 C683 1.339 . S
C681 H708 0.931 . S
C682 C683 1.395 . S
C682 C684 1.320 . S
C683 C681 1.339 . S
C683 C682 1.395 . S
C683 H709 0.929 . S
C684 C682 1.320 . S
C684 C685 1.405 . S
C684 H710 0.930 . S
C685 C680 1.479 . S
C685 C684 1.405 . S
C685 H711 0.931 . S
U686 O687 2.454 . S
U686 O688 2.458 . S
U686 C689 2.984 . S
U686 C690 2.847 . S
U686 C703 2.882 . S
U686 O704 2.441 . S
U686 O705 2.420 . S
U686 O706 2.455 . S
U686 O707 2.449 . S
O687 U686 2.454 . S
O687 C689 1.353 . S
O688 U686 2.458 . S
O688 C689 1.286 . S
C689 U686 2.984 . S
C689 O687 1.353 . S
C689 O688 1.286 . S
C689 C691 1.363 . S
C690 C680 1.465 . S
C690 U686 2.847 . S
C690 O704 1.249 . S
C690 O705 1.202 . S
C691 C689 1.363 . S
C691 C693 1.408 . S
C691 C696 1.342 . S
C692 C693 1.310 . S
C692 C695 1.461 . S
C692 H712 0.932 . S
C693 C691 1.408 . S
C693 C692 1.310 . S
C693 H713 0.930 . S
C694 C695 1.474 . S
C694 C696 1.285 . S
C694 H714 0.929 . S
C695 C692 1.461 . S
C695 C694 1.474 . S
C696 C691 1.342 . S
C696 C694 1.285 . S
C696 H715 0.930 . S
C697 C700 1.424 . S
C697 C702 1.245 . S
C697 C703 1.428 . S
C698 C701 1.260 . S
C698 C702 1.477 . S
C698 H716 0.932 . S
C699 C700 1.384 . S
C699 C701 1.479 . S
C699 H717 0.929 . S
C700 C697 1.424 . S
C700 C699 1.384 . S
C700 H718 0.928 . S
C701 C698 1.260 . S
C701 C699 1.479 . S
C702 C697 1.245 . S
C702 C698 1.477 . S
C702 H719 0.932 . S
C703 U686 2.882 . S
C703 C697 1.428 . S
C703 O706 1.301 . S
C703 O707 1.282 . S
O704 U686 2.441 . S
O704 C690 1.249 . S
O705 U686 2.420 . S
O705 C690 1.202 . S
O706 U686 2.455 . S
O706 C703 1.301 . S
O707 U686 2.449 . S
O707 C703 1.282 . S
H708 C681 0.931 . S
H709 C683 0.929 . S
H710 C684 0.930 . S
H711 C685 0.931 . S
H712 C692 0.932 . S
H713 C693 0.930 . S
H714 C694 0.929 . S
H715 C696 0.930 . S
H716 C698 0.932 . S
H717 C699 0.929 . S
H718 C700 0.928 . S
H719 C702 0.932 . S
C720 C721 1.264 . S
C720 C725 1.479 . S
C720 C730 1.465 . S
C721 C720 1.264 . S
C721 C723 1.339 . S
C721 H748 0.931 . S
C722 C723 1.395 . S
C722 C724 1.320 . S
C723 C721 1.339 . S
C723 C722 1.395 . S
C723 H749 0.929 . S
C724 C722 1.320 . S
C724 C725 1.405 . S
C724 H750 0.930 . S
C725 C720 1.479 . S
C725 C724 1.405 . S
C725 H751 0.931 . S
U726 O727 2.454 . S
U726 O728 2.458 . S
U726 C729 2.984 . S
U726 C730 2.847 . S
U726 C743 2.882 . S
U726 O744 2.441 . S
U726 O745 2.420 . S
U726 O746 2.455 . S
U726 O747 2.449 . S
O727 U726 2.454 . S
O727 C729 1.353 . S
O728 U726 2.458 . S
O728 C729 1.286 . S
C729 U726 2.984 . S
C729 O727 1.353 . S
C729 O728 1.286 . S
C729 C731 1.363 . S
C730 C720 1.465 . S
C730 U726 2.847 . S
C730 O744 1.249 . S
C730 O745 1.202 . S
C731 C729 1.363 . S
C731 C733 1.408 . S
C731 C736 1.342 . S
C732 C733 1.310 . S
C732 C735 1.461 . S
C732 H752 0.932 . S
C733 C731 1.408 . S
C733 C732 1.310 . S
C733 H753 0.930 . S
C734 C735 1.474 . S
C734 C736 1.285 . S
C734 H754 0.929 . S
C735 C732 1.461 . S
C735 C734 1.474 . S
C736 C731 1.342 . S
C736 C734 1.285 . S
C736 H755 0.930 . S
C737 C740 1.424 . S
C737 C742 1.245 . S
C737 C743 1.428 . S
C738 C741 1.260 . S
C738 C742 1.477 . S
C738 H756 0.932 . S
C739 C740 1.384 . S
C739 C741 1.479 . S
C739 H757 0.929 . S
C740 C737 1.424 . S
C740 C739 1.384 . S
C740 H758 0.928 . S
C741 C738 1.260 . S
C741 C739 1.479 . S
C742 C737 1.245 . S
C742 C738 1.477 . S
C742 H759 0.932 . S
C743 U726 2.882 . S
C743 C737 1.428 . S
C743 O746 1.301 . S
C743 O747 1.282 . S
O744 U726 2.441 . S
O744 C730 1.249 . S
O745 U726 2.420 . S
O745 C730 1.202 . S
O746 U726 2.455 . S
O746 C743 1.301 . S
O747 U726 2.449 . S
O747 C743 1.282 . S
H748 C721 0.931 . S
H749 C723 0.929 . S
H750 C724 0.930 . S
H751 C725 0.931 . S
H752 C732 0.932 . S
H753 C733 0.930 . S
H754 C734 0.929 . S
H755 C736 0.930 . S
H756 C738 0.932 . S
H757 C739 0.929 . S
H758 C740 0.928 . S
H759 C742 0.932 . S
C760 C761 1.264 . S
C760 C765 1.479 . S
C760 C770 1.465 . S
C761 C760 1.264 . S
C761 C763 1.339 . S
C761 H788 0.931 . S
C762 C763 1.395 . S
C762 C764 1.320 . S
C763 C761 1.339 . S
C763 C762 1.395 . S
C763 H789 0.929 . S
C764 C762 1.320 . S
C764 C765 1.405 . S
C764 H790 0.930 . S
C765 C760 1.479 . S
C765 C764 1.405 . S
C765 H791 0.931 . S
U766 O767 2.454 . S
U766 O768 2.458 . S
U766 C769 2.984 . S
U766 C770 2.847 . S
U766 C783 2.882 . S
U766 O784 2.441 . S
U766 O785 2.420 . S
U766 O786 2.455 . S
U766 O787 2.449 . S
O767 U766 2.454 . S
O767 C769 1.353 . S
O768 U766 2.458 . S
O768 C769 1.286 . S
C769 U766 2.984 . S
C769 O767 1.353 . S
C769 O768 1.286 . S
C769 C771 1.363 . S
C770 C760 1.465 . S
C770 U766 2.847 . S
C770 O784 1.249 . S
C770 O785 1.202 . S
C771 C769 1.363 . S
C771 C773 1.408 . S
C771 C776 1.342 . S
C772 C773 1.310 . S
C772 C775 1.461 . S
C772 H792 0.932 . S
C773 C771 1.408 . S
C773 C772 1.310 . S
C773 H793 0.930 . S
C774 C775 1.474 . S
C774 C776 1.285 . S
C774 H794 0.929 . S
C775 C772 1.461 . S
C775 C774 1.474 . S
C776 C771 1.342 . S
C776 C774 1.285 . S
C776 H795 0.930 . S
C777 C780 1.424 . S
C777 C782 1.245 . S
C777 C783 1.428 . S
C778 C781 1.260 . S
C778 C782 1.477 . S
C778 H796 0.932 . S
C779 C780 1.384 . S
C779 C781 1.479 . S
C779 H797 0.929 . S
C780 C777 1.424 . S
C780 C779 1.384 . S
C780 H798 0.928 . S
C781 C778 1.260 . S
C781 C779 1.479 . S
C782 C777 1.245 . S
C782 C778 1.477 . S
C782 H799 0.932 . S
C783 U766 2.882 . S
C783 C777 1.428 . S
C783 O786 1.301 . S
C783 O787 1.282 . S
O784 U766 2.441 . S
O784 C770 1.249 . S
O785 U766 2.420 . S
O785 C770 1.202 . S
O786 U766 2.455 . S
O786 C783 1.301 . S
O787 U766 2.449 . S
O787 C783 1.282 . S
H788 C761 0.931 . S
H789 C763 0.929 . S
H790 C764 0.930 . S
H791 C765 0.931 . S
H792 C772 0.932 . S
H793 C773 0.930 . S
H794 C774 0.929 . S
H795 C776 0.930 . S
H796 C778 0.932 . S
H797 C779 0.929 . S
H798 C780 0.928 . S
H799 C782 0.932 . S
C800 C801 1.264 . S
C800 C805 1.479 . S
C800 C810 1.465 . S
C801 C800 1.264 . S
C801 C803 1.339 . S
C801 H828 0.931 . S
C802 C803 1.395 . S
C802 C804 1.320 . S
C803 C801 1.339 . S
C803 C802 1.395 . S
C803 H829 0.929 . S
C804 C802 1.320 . S
C804 C805 1.405 . S
C804 H830 0.930 . S
C805 C800 1.479 . S
C805 C804 1.405 . S
C805 H831 0.931 . S
U806 O807 2.454 . S
U806 O808 2.458 . S
U806 C809 2.984 . S
U806 C810 2.847 . S
U806 C823 2.882 . S
U806 O824 2.441 . S
U806 O825 2.420 . S
U806 O826 2.455 . S
U806 O827 2.449 . S
O807 U806 2.454 . S
O807 C809 1.353 . S
O808 U806 2.458 . S
O808 C809 1.286 . S
C809 U806 2.984 . S
C809 O807 1.353 . S
C809 O808 1.286 . S
C809 C811 1.363 . S
C810 C800 1.465 . S
C810 U806 2.847 . S
C810 O824 1.249 . S
C810 O825 1.202 . S
C811 C809 1.363 . S
C811 C813 1.408 . S
C811 C816 1.342 . S
C812 C813 1.310 . S
C812 C815 1.461 . S
C812 H832 0.932 . S
C813 C811 1.408 . S
C813 C812 1.310 . S
C813 H833 0.930 . S
C814 C815 1.474 . S
C814 C816 1.285 . S
C814 H834 0.929 . S
C815 C812 1.461 . S
C815 C814 1.474 . S
C816 C811 1.342 . S
C816 C814 1.285 . S
C816 H835 0.930 . S
C817 C820 1.424 . S
C817 C822 1.245 . S
C817 C823 1.428 . S
C818 C821 1.260 . S
C818 C822 1.477 . S
C818 H836 0.932 . S
C819 C820 1.384 . S
C819 C821 1.479 . S
C819 H837 0.929 . S
C820 C817 1.424 . S
C820 C819 1.384 . S
C820 H838 0.928 . S
C821 C818 1.260 . S
C821 C819 1.479 . S
C822 C817 1.245 . S
C822 C818 1.477 . S
C822 H839 0.932 . S
C823 U806 2.882 . S
C823 C817 1.428 . S
C823 O826 1.301 . S
C823 O827 1.282 . S
O824 U806 2.441 . S
O824 C810 1.249 . S
O825 U806 2.420 . S
O825 C810 1.202 . S
O826 U806 2.455 . S
O826 C823 1.301 . S
O827 U806 2.449 . S
O827 C823 1.282 . S
H828 C801 0.931 . S
H829 C803 0.929 . S
H830 C804 0.930 . S
H831 C805 0.931 . S
H832 C812 0.932 . S
H833 C813 0.930 . S
H834 C814 0.929 . S
H835 C816 0.930 . S
H836 C818 0.932 . S
H837 C819 0.929 . S
H838 C820 0.928 . S
H839 C822 0.932 . S
C840 C841 1.264 . S
C840 C845 1.479 . S
C840 C850 1.465 . S
C841 C840 1.264 . S
C841 C843 1.339 . S
C841 H868 0.931 . S
C842 C843 1.395 . S
C842 C844 1.320 . S
C843 C841 1.339 . S
C843 C842 1.395 . S
C843 H869 0.929 . S
C844 C842 1.320 . S
C844 C845 1.405 . S
C844 H870 0.930 . S
C845 C840 1.479 . S
C845 C844 1.405 . S
C845 H871 0.931 . S
U846 O847 2.454 . S
U846 O848 2.458 . S
U846 C849 2.984 . S
U846 C850 2.847 . S
U846 C863 2.882 . S
U846 O864 2.441 . S
U846 O865 2.420 . S
U846 O866 2.455 . S
U846 O867 2.449 . S
O847 U846 2.454 . S
O847 C849 1.353 . S
O848 U846 2.458 . S
O848 C849 1.286 . S
C849 U846 2.984 . S
C849 O847 1.353 . S
C849 O848 1.286 . S
C849 C851 1.363 . S
C850 C840 1.465 . S
C850 U846 2.847 . S
C850 O864 1.249 . S
C850 O865 1.202 . S
C851 C849 1.363 . S
C851 C853 1.408 . S
C851 C856 1.342 . S
C852 C853 1.310 . S
C852 C855 1.461 . S
C852 H872 0.932 . S
C853 C851 1.408 . S
C853 C852 1.310 . S
C853 H873 0.930 . S
C854 C855 1.474 . S
C854 C856 1.285 . S
C854 H874 0.929 . S
C855 C852 1.461 . S
C855 C854 1.474 . S
C856 C851 1.342 . S
C856 C854 1.285 . S
C856 H875 0.930 . S
C857 C860 1.424 . S
C857 C862 1.245 . S
C857 C863 1.428 . S
C858 C861 1.260 . S
C858 C862 1.477 . S
C858 H876 0.932 . S
C859 C860 1.384 . S
C859 C861 1.479 . S
C859 H877 0.929 . S
C860 C857 1.424 . S
C860 C859 1.384 . S
C860 H878 0.928 . S
C861 C858 1.260 . S
C861 C859 1.479 . S
C862 C857 1.245 . S
C862 C858 1.477 . S
C862 H879 0.932 . S
C863 U846 2.882 . S
C863 C857 1.428 . S
C863 O866 1.301 . S
C863 O867 1.282 . S
O864 U846 2.441 . S
O864 C850 1.249 . S
O865 U846 2.420 . S
O865 C850 1.202 . S
O866 U846 2.455 . S
O866 C863 1.301 . S
O867 U846 2.449 . S
O867 C863 1.282 . S
H868 C841 0.931 . S
H869 C843 0.929 . S
H870 C844 0.930 . S
H871 C845 0.931 . S
H872 C852 0.932 . S
H873 C853 0.930 . S
H874 C854 0.929 . S
H875 C856 0.930 . S
H876 C858 0.932 . S
H877 C859 0.929 . S
H878 C860 0.928 . S
H879 C862 0.932 . S
C880 C881 1.264 . S
C880 C885 1.479 . S
C880 C890 1.465 . S
C881 C880 1.264 . S
C881 C883 1.339 . S
C881 H908 0.931 . S
C882 C883 1.395 . S
C882 C884 1.320 . S
C883 C881 1.339 . S
C883 C882 1.395 . S
C883 H909 0.929 . S
C884 C882 1.320 . S
C884 C885 1.405 . S
C884 H910 0.930 . S
C885 C880 1.479 . S
C885 C884 1.405 . S
C885 H911 0.931 . S
U886 O887 2.454 . S
U886 O888 2.458 . S
U886 C889 2.984 . S
U886 C890 2.847 . S
U886 C903 2.882 . S
U886 O904 2.441 . S
U886 O905 2.420 . S
U886 O906 2.455 . S
U886 O907 2.449 . S
O887 U886 2.454 . S
O887 C889 1.353 . S
O888 U886 2.458 . S
O888 C889 1.286 . S
C889 U886 2.984 . S
C889 O887 1.353 . S
C889 O888 1.286 . S
C889 C891 1.363 . S
C890 C880 1.465 . S
C890 U886 2.847 . S
C890 O904 1.249 . S
C890 O905 1.202 . S
C891 C889 1.363 . S
C891 C893 1.408 . S
C891 C896 1.342 . S
C892 C893 1.310 . S
C892 C895 1.461 . S
C892 H912 0.932 . S
C893 C891 1.408 . S
C893 C892 1.310 . S
C893 H913 0.930 . S
C894 C895 1.474 . S
C894 C896 1.285 . S
C894 H914 0.929 . S
C895 C892 1.461 . S
C895 C894 1.474 . S
C896 C891 1.342 . S
C896 C894 1.285 . S
C896 H915 0.930 . S
C897 C900 1.424 . S
C897 C902 1.245 . S
C897 C903 1.428 . S
C898 C901 1.260 . S
C898 C902 1.477 . S
C898 H916 0.932 . S
C899 C900 1.384 . S
C899 C901 1.479 . S
C899 H917 0.929 . S
C900 C897 1.424 . S
C900 C899 1.384 . S
C900 H918 0.928 . S
C901 C898 1.260 . S
C901 C899 1.479 . S
C902 C897 1.245 . S
C902 C898 1.477 . S
C902 H919 0.932 . S
C903 U886 2.882 . S
C903 C897 1.428 . S
C903 O906 1.301 . S
C903 O907 1.282 . S
O904 U886 2.441 . S
O904 C890 1.249 . S
O905 U886 2.420 . S
O905 C890 1.202 . S
O906 U886 2.455 . S
O906 C903 1.301 . S
O907 U886 2.449 . S
O907 C903 1.282 . S
H908 C881 0.931 . S
H909 C883 0.929 . S
H910 C884 0.930 . S
H911 C885 0.931 . S
H912 C892 0.932 . S
H913 C893 0.930 . S
H914 C894 0.929 . S
H915 C896 0.930 . S
H916 C898 0.932 . S
H917 C899 0.929 . S
H918 C900 0.928 . S
H919 C902 0.932 . S
C920 C921 1.264 . S
C920 C925 1.479 . S
C920 C930 1.465 . S
C921 C920 1.264 . S
C921 C923 1.339 . S
C921 H948 0.931 . S
C922 C923 1.395 . S
C922 C924 1.320 . S
C923 C921 1.339 . S
C923 C922 1.395 . S
C923 H949 0.929 . S
C924 C922 1.320 . S
C924 C925 1.405 . S
C924 H950 0.930 . S
C925 C920 1.479 . S
C925 C924 1.405 . S
C925 H951 0.931 . S
U926 O927 2.454 . S
U926 O928 2.458 . S
U926 C929 2.984 . S
U926 C930 2.847 . S
U926 C943 2.882 . S
U926 O944 2.441 . S
U926 O945 2.420 . S
U926 O946 2.455 . S
U926 O947 2.449 . S
O927 U926 2.454 . S
O927 C929 1.353 . S
O928 U926 2.458 . S
O928 C929 1.286 . S
C929 U926 2.984 . S
C929 O927 1.353 . S
C929 O928 1.286 . S
C929 C931 1.363 . S
C930 C920 1.465 . S
C930 U926 2.847 . S
C930 O944 1.249 . S
C930 O945 1.202 . S
C931 C929 1.363 . S
C931 C933 1.408 . S
C931 C936 1.342 . S
C932 C933 1.310 . S
C932 C935 1.461 . S
C932 H952 0.932 . S
C933 C931 1.408 . S
C933 C932 1.310 . S
C933 H953 0.930 . S
C934 C935 1.474 . S
C934 C936 1.285 . S
C934 H954 0.929 . S
C935 C932 1.461 . S
C935 C934 1.474 . S
C936 C931 1.342 . S
C936 C934 1.285 . S
C936 H955 0.930 . S
C937 C940 1.424 . S
C937 C942 1.245 . S
C937 C943 1.428 . S
C938 C941 1.260 . S
C938 C942 1.477 . S
C938 H956 0.932 . S
C939 C940 1.384 . S
C939 C941 1.479 . S
C939 H957 0.929 . S
C940 C937 1.424 . S
C940 C939 1.384 . S
C940 H958 0.928 . S
C941 C938 1.260 . S
C941 C939 1.479 . S
C942 C937 1.245 . S
C942 C938 1.477 . S
C942 H959 0.932 . S
C943 U926 2.882 . S
C943 C937 1.428 . S
C943 O946 1.301 . S
C943 O947 1.282 . S
O944 U926 2.441 . S
O944 C930 1.249 . S
O945 U926 2.420 . S
O945 C930 1.202 . S
O946 U926 2.455 . S
O946 C943 1.301 . S
O947 U926 2.449 . S
O947 C943 1.282 . S
H948 C921 0.931 . S
H949 C923 0.929 . S
H950 C924 0.930 . S
H951 C925 0.931 . S
H952 C932 0.932 . S
H953 C933 0.930 . S
H954 C934 0.929 . S
H955 C936 0.930 . S
H956 C938 0.932 . S
H957 C939 0.929 . S
H958 C940 0.928 . S
H959 C942 0.932 . S
C960 C961 1.264 . S
C960 C965 1.479 . S
C960 C970 1.465 . S
C961 C960 1.264 . S
C961 C963 1.339 . S
C961 H988 0.931 . S
C962 C963 1.395 . S
C962 C964 1.320 . S
C963 C961 1.339 . S
C963 C962 1.395 . S
C963 H989 0.929 . S
C964 C962 1.320 . S
C964 C965 1.405 . S
C964 H990 0.930 . S
C965 C960 1.479 . S
C965 C964 1.405 . S
C965 H991 0.931 . S
U966 O967 2.454 . S
U966 O968 2.458 . S
U966 C969 2.984 . S
U966 C970 2.847 . S
U966 C983 2.882 . S
U966 O984 2.441 . S
U966 O985 2.420 . S
U966 O986 2.455 . S
U966 O987 2.449 . S
O967 U966 2.454 . S
O967 C969 1.353 . S
O968 U966 2.458 . S
O968 C969 1.286 . S
C969 U966 2.984 . S
C969 O967 1.353 . S
C969 O968 1.286 . S
C969 C971 1.363 . S
C970 C960 1.465 . S
C970 U966 2.847 . S
C970 O984 1.249 . S
C970 O985 1.202 . S
C971 C969 1.363 . S
C971 C973 1.408 . S
C971 C976 1.342 . S
C972 C973 1.310 . S
C972 C975 1.461 . S
C972 H992 0.932 . S
C973 C971 1.408 . S
C973 C972 1.310 . S
C973 H993 0.930 . S
C974 C975 1.474 . S
C974 C976 1.285 . S
C974 H994 0.929 . S
C975 C972 1.461 . S
C975 C974 1.474 . S
C976 C971 1.342 . S
C976 C974 1.285 . S
C976 H995 0.930 . S
C977 C980 1.424 . S
C977 C982 1.245 . S
C977 C983 1.428 . S
C978 C981 1.260 . S
C978 C982 1.477 . S
C978 H996 0.932 . S
C979 C980 1.384 . S
C979 C981 1.479 . S
C979 H997 0.929 . S
C980 C977 1.424 . S
C980 C979 1.384 . S
C980 H998 0.928 . S
C981 C978 1.260 . S
C981 C979 1.479 . S
C982 C977 1.245 . S
C982 C978 1.477 . S
C982 H999 0.932 . S
C983 U966 2.882 . S
C983 C977 1.428 . S
C983 O986 1.301 . S
C983 O987 1.282 . S
O984 U966 2.441 . S
O984 C970 1.249 . S
O985 U966 2.420 . S
O985 C970 1.202 . S
O986 U966 2.455 . S
O986 C983 1.301 . S
O987 U966 2.449 . S
O987 C983 1.282 . S
H988 C961 0.931 . S
H989 C963 0.929 . S
H990 C964 0.930 . S
H991 C965 0.931 . S
H992 C972 0.932 . S
H993 C973 0.930 . S
H994 C974 0.929 . S
H995 C976 0.930 . S
H996 C978 0.932 . S
H997 C979 0.929 . S
H998 C980 0.928 . S
H999 C982 0.932 . S
C1000 C1001 1.264 . S
C1000 C1005 1.479 . S
C1000 C1010 1.465 . S
C1001 C1000 1.264 . S
C1001 C1003 1.339 . S
C1001 H1028 0.931 . S
C1002 C1003 1.395 . S
C1002 C1004 1.320 . S
C1003 C1001 1.339 . S
C1003 C1002 1.395 . S
C1003 H1029 0.929 . S
C1004 C1002 1.320 . S
C1004 C1005 1.405 . S
C1004 H1030 0.930 . S
C1005 C1000 1.479 . S
C1005 C1004 1.405 . S
C1005 H1031 0.931 . S
U1006 O1007 2.454 . S
U1006 O1008 2.458 . S
U1006 C1009 2.984 . S
U1006 C1010 2.847 . S
U1006 C1023 2.882 . S
U1006 O1024 2.441 . S
U1006 O1025 2.420 . S
U1006 O1026 2.455 . S
U1006 O1027 2.449 . S
O1007 U1006 2.454 . S
O1007 C1009 1.353 . S
O1008 U1006 2.458 . S
O1008 C1009 1.286 . S
C1009 U1006 2.984 . S
C1009 O1007 1.353 . S
C1009 O1008 1.286 . S
C1009 C1011 1.363 . S
C1010 C1000 1.465 . S
C1010 U1006 2.847 . S
C1010 O1024 1.249 . S
C1010 O1025 1.202 . S
C1011 C1009 1.363 . S
C1011 C1013 1.408 . S
C1011 C1016 1.342 . S
C1012 C1013 1.310 . S
C1012 C1015 1.461 . S
C1012 H1032 0.932 . S
C1013 C1011 1.408 . S
C1013 C1012 1.310 . S
C1013 H1033 0.930 . S
C1014 C1015 1.474 . S
C1014 C1016 1.285 . S
C1014 H1034 0.929 . S
C1015 C1012 1.461 . S
C1015 C1014 1.474 . S
C1016 C1011 1.342 . S
C1016 C1014 1.285 . S
C1016 H1035 0.930 . S
C1017 C1020 1.424 . S
C1017 C1022 1.245 . S
C1017 C1023 1.428 . S
C1018 C1021 1.260 . S
C1018 C1022 1.477 . S
C1018 H1036 0.932 . S
C1019 C1020 1.384 . S
C1019 C1021 1.479 . S
C1019 H1037 0.929 . S
C1020 C1017 1.424 . S
C1020 C1019 1.384 . S
C1020 H1038 0.928 . S
C1021 C1018 1.260 . S
C1021 C1019 1.479 . S
C1022 C1017 1.245 . S
C1022 C1018 1.477 . S
C1022 H1039 0.932 . S
C1023 U1006 2.882 . S
C1023 C1017 1.428 . S
C1023 O1026 1.301 . S
C1023 O1027 1.282 . S
O1024 U1006 2.441 . S
O1024 C1010 1.249 . S
O1025 U1006 2.420 . S
O1025 C1010 1.202 . S
O1026 U1006 2.455 . S
O1026 C1023 1.301 . S
O1027 U1006 2.449 . S
O1027 C1023 1.282 . S
H1028 C1001 0.931 . S
H1029 C1003 0.929 . S
H1030 C1004 0.930 . S
H1031 C1005 0.931 . S
H1032 C1012 0.932 . S
H1033 C1013 0.930 . S
H1034 C1014 0.929 . S
H1035 C1016 0.930 . S
H1036 C1018 0.932 . S
H1037 C1019 0.929 . S
H1038 C1020 0.928 . S
H1039 C1022 0.932 . S
C1040 C1041 1.264 . S
C1040 C1045 1.479 . S
C1040 C1050 1.465 . S
C1041 C1040 1.264 . S
C1041 C1043 1.339 . S
C1041 H1068 0.931 . S
C1042 C1043 1.395 . S
C1042 C1044 1.320 . S
C1043 C1041 1.339 . S
C1043 C1042 1.395 . S
C1043 H1069 0.929 . S
C1044 C1042 1.320 . S
C1044 C1045 1.405 . S
C1044 H1070 0.930 . S
C1045 C1040 1.479 . S
C1045 C1044 1.405 . S
C1045 H1071 0.931 . S
U1046 O1047 2.454 . S
U1046 O1048 2.458 . S
U1046 C1049 2.984 . S
U1046 C1050 2.847 . S
U1046 C1063 2.882 . S
U1046 O1064 2.441 . S
U1046 O1065 2.420 . S
U1046 O1066 2.455 . S
U1046 O1067 2.449 . S
O1047 U1046 2.454 . S
O1047 C1049 1.353 . S
O1048 U1046 2.458 . S
O1048 C1049 1.286 . S
C1049 U1046 2.984 . S
C1049 O1047 1.353 . S
C1049 O1048 1.286 . S
C1049 C1051 1.363 . S
C1050 C1040 1.465 . S
C1050 U1046 2.847 . S
C1050 O1064 1.249 . S
C1050 O1065 1.202 . S
C1051 C1049 1.363 . S
C1051 C1053 1.408 . S
C1051 C1056 1.342 . S
C1052 C1053 1.310 . S
C1052 C1055 1.461 . S
C1052 H1072 0.932 . S
C1053 C1051 1.408 . S
C1053 C1052 1.310 . S
C1053 H1073 0.930 . S
C1054 C1055 1.474 . S
C1054 C1056 1.285 . S
C1054 H1074 0.929 . S
C1055 C1052 1.461 . S
C1055 C1054 1.474 . S
C1056 C1051 1.342 . S
C1056 C1054 1.285 . S
C1056 H1075 0.930 . S
C1057 C1060 1.424 . S
C1057 C1062 1.245 . S
C1057 C1063 1.428 . S
C1058 C1061 1.260 . S
C1058 C1062 1.477 . S
C1058 H1076 0.932 . S
C1059 C1060 1.384 . S
C1059 C1061 1.479 . S
C1059 H1077 0.929 . S
C1060 C1057 1.424 . S
C1060 C1059 1.384 . S
C1060 H1078 0.928 . S
C1061 C1058 1.260 . S
C1061 C1059 1.479 . S
C1062 C1057 1.245 . S
C1062 C1058 1.477 . S
C1062 H1079 0.932 . S
C1063 U1046 2.882 . S
C1063 C1057 1.428 . S
C1063 O1066 1.301 . S
C1063 O1067 1.282 . S
O1064 U1046 2.441 . S
O1064 C1050 1.249 . S
O1065 U1046 2.420 . S
O1065 C1050 1.202 . S
O1066 U1046 2.455 . S
O1066 C1063 1.301 . S
O1067 U1046 2.449 . S
O1067 C1063 1.282 . S
H1068 C1041 0.931 . S
H1069 C1043 0.929 . S
H1070 C1044 0.930 . S
H1071 C1045 0.931 . S
H1072 C1052 0.932 . S
H1073 C1053 0.930 . S
H1074 C1054 0.929 . S
H1075 C1056 0.930 . S
H1076 C1058 0.932 . S
H1077 C1059 0.929 . S
H1078 C1060 0.928 . S
H1079 C1062 0.932 . S
C1080 C1081 1.264 . S
C1080 C1085 1.479 . S
C1080 C1090 1.465 . S
C1081 C1080 1.264 . S
C1081 C1083 1.339 . S
C1081 H1108 0.931 . S
C1082 C1083 1.395 . S
C1082 C1084 1.320 . S
C1083 C1081 1.339 . S
C1083 C1082 1.395 . S
C1083 H1109 0.929 . S
C1084 C1082 1.320 . S
C1084 C1085 1.405 . S
C1084 H1110 0.930 . S
C1085 C1080 1.479 . S
C1085 C1084 1.405 . S
C1085 H1111 0.931 . S
U1086 O1087 2.454 . S
U1086 O1088 2.458 . S
U1086 C1089 2.984 . S
U1086 C1090 2.847 . S
U1086 C1103 2.882 . S
U1086 O1104 2.441 . S
U1086 O1105 2.420 . S
U1086 O1106 2.455 . S
U1086 O1107 2.449 . S
O1087 U1086 2.454 . S
O1087 C1089 1.353 . S
O1088 U1086 2.458 . S
O1088 C1089 1.286 . S
C1089 U1086 2.984 . S
C1089 O1087 1.353 . S
C1089 O1088 1.286 . S
C1089 C1091 1.363 . S
C1090 C1080 1.465 . S
C1090 U1086 2.847 . S
C1090 O1104 1.249 . S
C1090 O1105 1.202 . S
C1091 C1089 1.363 . S
C1091 C1093 1.408 . S
C1091 C1096 1.342 . S
C1092 C1093 1.310 . S
C1092 C1095 1.461 . S
C1092 H1112 0.932 . S
C1093 C1091 1.408 . S
C1093 C1092 1.310 . S
C1093 H1113 0.930 . S
C1094 C1095 1.474 . S
C1094 C1096 1.285 . S
C1094 H1114 0.929 . S
C1095 C1092 1.461 . S
C1095 C1094 1.474 . S
C1096 C1091 1.342 . S
C1096 C1094 1.285 . S
C1096 H1115 0.930 . S
C1097 C1100 1.424 . S
C1097 C1102 1.245 . S
C1097 C1103 1.428 . S
C1098 C1101 1.260 . S
C1098 C1102 1.477 . S
C1098 H1116 0.932 . S
C1099 C1100 1.384 . S
C1099 C1101 1.479 . S
C1099 H1117 0.929 . S
C1100 C1097 1.424 . S
C1100 C1099 1.384 . S
C1100 H1118 0.928 . S
C1101 C1098 1.260 . S
C1101 C1099 1.479 . S
C1102 C1097 1.245 . S
C1102 C1098 1.477 . S
C1102 H1119 0.932 . S
C1103 U1086 2.882 . S
C1103 C1097 1.428 . S
C1103 O1106 1.301 . S
C1103 O1107 1.282 . S
O1104 U1086 2.441 . S
O1104 C1090 1.249 . S
O1105 U1086 2.420 . S
O1105 C1090 1.202 . S
O1106 U1086 2.455 . S
O1106 C1103 1.301 . S
O1107 U1086 2.449 . S
O1107 C1103 1.282 . S
H1108 C1081 0.931 . S
H1109 C1083 0.929 . S
H1110 C1084 0.930 . S
H1111 C1085 0.931 . S
H1112 C1092 0.932 . S
H1113 C1093 0.930 . S
H1114 C1094 0.929 . S
H1115 C1096 0.930 . S
H1116 C1098 0.932 . S
H1117 C1099 0.929 . S
H1118 C1100 0.928 . S
H1119 C1102 0.932 . S
C1120 C1121 1.264 . S
C1120 C1125 1.479 . S
C1120 C1130 1.465 . S
C1121 C1120 1.264 . S
C1121 C1123 1.339 . S
C1121 H1148 0.931 . S
C1122 C1123 1.395 . S
C1122 C1124 1.320 . S
C1123 C1121 1.339 . S
C1123 C1122 1.395 . S
C1123 H1149 0.929 . S
C1124 C1122 1.320 . S
C1124 C1125 1.405 . S
C1124 H1150 0.930 . S
C1125 C1120 1.479 . S
C1125 C1124 1.405 . S
C1125 H1151 0.931 . S
U1126 O1127 2.454 . S
U1126 O1128 2.458 . S
U1126 C1129 2.984 . S
U1126 C1130 2.847 . S
U1126 C1143 2.882 . S
U1126 O1144 2.441 . S
U1126 O1145 2.420 . S
U1126 O1146 2.455 . S
U1126 O1147 2.449 . S
O1127 U1126 2.454 . S
O1127 C1129 1.353 . S
O1128 U1126 2.458 . S
O1128 C1129 1.286 . S
C1129 U1126 2.984 . S
C1129 O1127 1.353 . S
C1129 O1128 1.286 . S
C1129 C1131 1.363 . S
C1130 C1120 1.465 . S
C1130 U1126 2.847 . S
C1130 O1144 1.249 . S
C1130 O1145 1.202 . S
C1131 C1129 1.363 . S
C1131 C1133 1.408 . S
C1131 C1136 1.342 . S
C1132 C1133 1.310 . S
C1132 C1135 1.461 . S
C1132 H1152 0.932 . S
C1133 C1131 1.408 . S
C1133 C1132 1.310 . S
C1133 H1153 0.930 . S
C1134 C1135 1.474 . S
C1134 C1136 1.285 . S
C1134 H1154 0.929 . S
C1135 C1132 1.461 . S
C1135 C1134 1.474 . S
C1136 C1131 1.342 . S
C1136 C1134 1.285 . S
C1136 H1155 0.930 . S
C1137 C1140 1.424 . S
C1137 C1142 1.245 . S
C1137 C1143 1.428 . S
C1138 C1141 1.260 . S
C1138 C1142 1.477 . S
C1138 H1156 0.932 . S
C1139 C1140 1.384 . S
C1139 C1141 1.479 . S
C1139 H1157 0.929 . S
C1140 C1137 1.424 . S
C1140 C1139 1.384 . S
C1140 H1158 0.928 . S
C1141 C1138 1.260 . S
C1141 C1139 1.479 . S
C1142 C1137 1.245 . S
C1142 C1138 1.477 . S
C1142 H1159 0.932 . S
C1143 U1126 2.882 . S
C1143 C1137 1.428 . S
C1143 O1146 1.301 . S
C1143 O1147 1.282 . S
O1144 U1126 2.441 . S
O1144 C1130 1.249 . S
O1145 U1126 2.420 . S
O1145 C1130 1.202 . S
O1146 U1126 2.455 . S
O1146 C1143 1.301 . S
O1147 U1126 2.449 . S
O1147 C1143 1.282 . S
H1148 C1121 0.931 . S
H1149 C1123 0.929 . S
H1150 C1124 0.930 . S
H1151 C1125 0.931 . S
H1152 C1132 0.932 . S
H1153 C1133 0.930 . S
H1154 C1134 0.929 . S
H1155 C1136 0.930 . S
H1156 C1138 0.932 . S
H1157 C1139 0.929 . S
H1158 C1140 0.928 . S
H1159 C1142 0.932 . S
C1160 C1161 1.264 . S
C1160 C1165 1.479 . S
C1160 C1170 1.465 . S
C1161 C1160 1.264 . S
C1161 C1163 1.339 . S
C1161 H1188 0.931 . S
C1162 C1163 1.395 . S
C1162 C1164 1.320 . S
C1163 C1161 1.339 . S
C1163 C1162 1.395 . S
C1163 H1189 0.929 . S
C1164 C1162 1.320 . S
C1164 C1165 1.405 . S
C1164 H1190 0.930 . S
C1165 C1160 1.479 . S
C1165 C1164 1.405 . S
C1165 H1191 0.931 . S
U1166 O1167 2.454 . S
U1166 O1168 2.458 . S
U1166 C1169 2.984 . S
U1166 C1170 2.847 . S
U1166 C1183 2.882 . S
U1166 O1184 2.441 . S
U1166 O1185 2.420 . S
U1166 O1186 2.455 . S
U1166 O1187 2.449 . S
O1167 U1166 2.454 . S
O1167 C1169 1.353 . S
O1168 U1166 2.458 . S
O1168 C1169 1.286 . S
C1169 U1166 2.984 . S
C1169 O1167 1.353 . S
C1169 O1168 1.286 . S
C1169 C1171 1.363 . S
C1170 C1160 1.465 . S
C1170 U1166 2.847 . S
C1170 O1184 1.249 . S
C1170 O1185 1.202 . S
C1171 C1169 1.363 . S
C1171 C1173 1.408 . S
C1171 C1176 1.342 . S
C1172 C1173 1.310 . S
C1172 C1175 1.461 . S
C1172 H1192 0.932 . S
C1173 C1171 1.408 . S
C1173 C1172 1.310 . S
C1173 H1193 0.930 . S
C1174 C1175 1.474 . S
C1174 C1176 1.285 . S
C1174 H1194 0.929 . S
C1175 C1172 1.461 . S
C1175 C1174 1.474 . S
C1176 C1171 1.342 . S
C1176 C1174 1.285 . S
C1176 H1195 0.930 . S
C1177 C1180 1.424 . S
C1177 C1182 1.245 . S
C1177 C1183 1.428 . S
C1178 C1181 1.260 . S
C1178 C1182 1.477 . S
C1178 H1196 0.932 . S
C1179 C1180 1.384 . S
C1179 C1181 1.479 . S
C1179 H1197 0.929 . S
C1180 C1177 1.424 . S
C1180 C1179 1.384 . S
C1180 H1198 0.928 . S
C1181 C1178 1.260 . S
C1181 C1179 1.479 . S
C1182 C1177 1.245 . S
C1182 C1178 1.477 . S
C1182 H1199 0.932 . S
C1183 U1166 2.882 . S
C1183 C1177 1.428 . S
C1183 O1186 1.301 . S
C1183 O1187 1.282 . S
O1184 U1166 2.441 . S
O1184 C1170 1.249 . S
O1185 U1166 2.420 . S
O1185 C1170 1.202 . S
O1186 U1166 2.455 . S
O1186 C1183 1.301 . S
O1187 U1166 2.449 . S
O1187 C1183 1.282 . S
H1188 C1161 0.931 . S
H1189 C1163 0.929 . S
H1190 C1164 0.930 . S
H1191 C1165 0.931 . S
H1192 C1172 0.932 . S
H1193 C1173 0.930 . S
H1194 C1174 0.929 . S
H1195 C1176 0.930 . S
H1196 C1178 0.932 . S
H1197 C1179 0.929 . S
H1198 C1180 0.928 . S
H1199 C1182 0.932 . S
C1200 C1201 1.264 . S
C1200 C1205 1.479 . S
C1200 C1210 1.465 . S
C1201 C1200 1.264 . S
C1201 C1203 1.339 . S
C1201 H1228 0.931 . S
C1202 C1203 1.395 . S
C1202 C1204 1.320 . S
C1203 C1201 1.339 . S
C1203 C1202 1.395 . S
C1203 H1229 0.929 . S
C1204 C1202 1.320 . S
C1204 C1205 1.405 . S
C1204 H1230 0.930 . S
C1205 C1200 1.479 . S
C1205 C1204 1.405 . S
C1205 H1231 0.931 . S
U1206 O1207 2.454 . S
U1206 O1208 2.458 . S
U1206 C1209 2.984 . S
U1206 C1210 2.847 . S
U1206 C1223 2.882 . S
U1206 O1224 2.441 . S
U1206 O1225 2.420 . S
U1206 O1226 2.455 . S
U1206 O1227 2.449 . S
O1207 U1206 2.454 . S
O1207 C1209 1.353 . S
O1208 U1206 2.458 . S
O1208 C1209 1.286 . S
C1209 U1206 2.984 . S
C1209 O1207 1.353 . S
C1209 O1208 1.286 . S
C1209 C1211 1.363 . S
C1210 C1200 1.465 . S
C1210 U1206 2.847 . S
C1210 O1224 1.249 . S
C1210 O1225 1.202 . S
C1211 C1209 1.363 . S
C1211 C1213 1.408 . S
C1211 C1216 1.342 . S
C1212 C1213 1.310 . S
C1212 C1215 1.461 . S
C1212 H1232 0.932 . S
C1213 C1211 1.408 . S
C1213 C1212 1.310 . S
C1213 H1233 0.930 . S
C1214 C1215 1.474 . S
C1214 C1216 1.285 . S
C1214 H1234 0.929 . S
C1215 C1212 1.461 . S
C1215 C1214 1.474 . S
C1216 C1211 1.342 . S
C1216 C1214 1.285 . S
C1216 H1235 0.930 . S
C1217 C1220 1.424 . S
C1217 C1222 1.245 . S
C1217 C1223 1.428 . S
C1218 C1221 1.260 . S
C1218 C1222 1.477 . S
C1218 H1236 0.932 . S
C1219 C1220 1.384 . S
C1219 C1221 1.479 . S
C1219 H1237 0.929 . S
C1220 C1217 1.424 . S
C1220 C1219 1.384 . S
C1220 H1238 0.928 . S
C1221 C1218 1.260 . S
C1221 C1219 1.479 . S
C1222 C1217 1.245 . S
C1222 C1218 1.477 . S
C1222 H1239 0.932 . S
C1223 U1206 2.882 . S
C1223 C1217 1.428 . S
C1223 O1226 1.301 . S
C1223 O1227 1.282 . S
O1224 U1206 2.441 . S
O1224 C1210 1.249 . S
O1225 U1206 2.420 . S
O1225 C1210 1.202 . S
O1226 U1206 2.455 . S
O1226 C1223 1.301 . S
O1227 U1206 2.449 . S
O1227 C1223 1.282 . S
H1228 C1201 0.931 . S
H1229 C1203 0.929 . S
H1230 C1204 0.930 . S
H1231 C1205 0.931 . S
H1232 C1212 0.932 . S
H1233 C1213 0.930 . S
H1234 C1214 0.929 . S
H1235 C1216 0.930 . S
H1236 C1218 0.932 . S
H1237 C1219 0.929 . S
H1238 C1220 0.928 . S
H1239 C1222 0.932 . S
C1240 C1241 1.264 . S
C1240 C1245 1.479 . S
C1240 C1250 1.465 . S
C1241 C1240 1.264 . S
C1241 C1243 1.339 . S
C1241 H1268 0.931 . S
C1242 C1243 1.395 . S
C1242 C1244 1.320 . S
C1243 C1241 1.339 . S
C1243 C1242 1.395 . S
C1243 H1269 0.929 . S
C1244 C1242 1.320 . S
C1244 C1245 1.405 . S
C1244 H1270 0.930 . S
C1245 C1240 1.479 . S
C1245 C1244 1.405 . S
C1245 H1271 0.931 . S
U1246 O1247 2.454 . S
U1246 O1248 2.458 . S
U1246 C1249 2.984 . S
U1246 C1250 2.847 . S
U1246 C1263 2.882 . S
U1246 O1264 2.441 . S
U1246 O1265 2.420 . S
U1246 O1266 2.455 . S
U1246 O1267 2.449 . S
O1247 U1246 2.454 . S
O1247 C1249 1.353 . S
O1248 U1246 2.458 . S
O1248 C1249 1.286 . S
C1249 U1246 2.984 . S
C1249 O1247 1.353 . S
C1249 O1248 1.286 . S
C1249 C1251 1.363 . S
C1250 C1240 1.465 . S
C1250 U1246 2.847 . S
C1250 O1264 1.249 . S
C1250 O1265 1.202 . S
C1251 C1249 1.363 . S
C1251 C1253 1.408 . S
C1251 C1256 1.342 . S
C1252 C1253 1.310 . S
C1252 C1255 1.461 . S
C1252 H1272 0.932 . S
C1253 C1251 1.408 . S
C1253 C1252 1.310 . S
C1253 H1273 0.930 . S
C1254 C1255 1.474 . S
C1254 C1256 1.285 . S
C1254 H1274 0.929 . S
C1255 C1252 1.461 . S
C1255 C1254 1.474 . S
C1256 C1251 1.342 . S
C1256 C1254 1.285 . S
C1256 H1275 0.930 . S
C1257 C1260 1.424 . S
C1257 C1262 1.245 . S
C1257 C1263 1.428 . S
C1258 C1261 1.260 . S
C1258 C1262 1.477 . S
C1258 H1276 0.932 . S
C1259 C1260 1.384 . S
C1259 C1261 1.479 . S
C1259 H1277 0.929 . S
C1260 C1257 1.424 . S
C1260 C1259 1.384 . S
C1260 H1278 0.928 . S
C1261 C1258 1.260 . S
C1261 C1259 1.479 . S
C1262 C1257 1.245 . S
C1262 C1258 1.477 . S
C1262 H1279 0.932 . S
C1263 U1246 2.882 . S
C1263 C1257 1.428 . S
C1263 O1266 1.301 . S
C1263 O1267 1.282 . S
O1264 U1246 2.441 . S
O1264 C1250 1.249 . S
O1265 U1246 2.420 . S
O1265 C1250 1.202 . S
O1266 U1246 2.455 . S
O1266 C1263 1.301 . S
O1267 U1246 2.449 . S
O1267 C1263 1.282 . S
H1268 C1241 0.931 . S
H1269 C1243 0.929 . S
H1270 C1244 0.930 . S
H1271 C1245 0.931 . S
H1272 C1252 0.932 . S
H1273 C1253 0.930 . S
H1274 C1254 0.929 . S
H1275 C1256 0.930 . S
H1276 C1258 0.932 . S
H1277 C1259 0.929 . S
H1278 C1260 0.928 . S
H1279 C1262 0.932 . S
Cu1280 N1281 1.999 . S
Cu1280 O1286 1.974 1_554 S
Cu1280 N1291 1.985 . S
Cu1280 O1300 1.959 . S
N1281 Cu1280 1.999 . S
N1281 C1283 1.263 1_554 S
N1281 C1285 1.389 . S
N1282 C1283 1.358 . S
N1282 C1284 1.400 . S
C1283 N1281 1.263 1_556 S
C1283 N1282 1.358 . S
C1283 H1289 0.930 . S
C1284 N1282 1.400 . S
C1284 C1285 1.351 1_556 S
C1284 H1301 0.930 . S
C1285 N1281 1.389 . S
C1285 C1284 1.351 1_554 S
C1285 H1290 0.930 . S
O1286 Cu1280 1.974 1_556 S
O1286 C1296 1.282 . S
C1287 O1288 1.261 . S
C1287 O1300 1.251 . S
O1288 C1287 1.261 . S
H1289 C1283 0.930 . S
H1290 C1285 0.930 . S
N1291 Cu1280 1.985 . S
N1291 C1293 1.335 . S
N1291 C1294 1.390 . S
N1292 C1293 1.345 . S
N1292 C1295 1.336 . S
C1293 N1291 1.335 . S
C1293 N1292 1.345 . S
C1293 H1298 0.930 . S
C1294 N1291 1.390 . S
C1294 C1295 1.346 . S
C1294 H1299 0.930 . S
C1295 N1292 1.336 . S
C1295 C1294 1.346 . S
C1295 H1302 0.929 . S
C1296 O1286 1.282 . S
C1296 O1297 1.216 . S
O1297 C1296 1.216 . S
H1298 C1293 0.930 . S
H1299 C1294 0.930 . S
O1300 Cu1280 1.959 . S
O1300 C1287 1.251 . S
H1301 C1284 0.930 . S
H1302 C1295 0.929 . S
Cu1303 N1304 1.999 . S
Cu1303 O1309 1.974 . S
Cu1303 N1314 1.985 1_554 S
Cu1303 O1323 1.959 1_554 S
N1304 Cu1303 1.999 . S
N1304 C1306 1.263 . S
N1304 C1308 1.389 . S
N1305 C1306 1.358 . S
N1305 C1307 1.400 . S
C1306 N1304 1.263 . S
C1306 N1305 1.358 . S
C1306 H1312 0.930 . S
C1307 N1305 1.400 . S
C1307 C1308 1.351 . S
C1307 H1324 0.930 . S
C1308 N1304 1.389 . S
C1308 C1307 1.351 . S
C1308 H1313 0.930 . S
O1309 Cu1303 1.974 . S
O1309 C1319 1.282 . S
C1310 O1311 1.261 . S
C1310 O1323 1.251 . S
O1311 C1310 1.261 . S
H1312 C1306 0.930 . S
H1313 C1308 0.930 . S
N1314 Cu1303 1.985 1_556 S
N1314 C1316 1.335 . S
N1314 C1317 1.388 1_556 S
N1315 C1316 1.345 . S
N1315 C1318 1.336 . S
C1316 N1314 1.335 . S
C1316 N1315 1.345 . S
C1316 H1321 0.930 . S
C1317 N1314 1.388 1_554 S
C1317 C1318 1.337 1_554 S
C1317 H1322 0.940 . S
C1318 N1315 1.336 . S
C1318 C1317 1.337 1_556 S
C1318 H1325 0.929 . S
C1319 O1309 1.282 . S
C1319 O1320 1.216 . S
O1320 C1319 1.216 . S
H1321 C1316 0.930 . S
H1322 C1317 0.940 . S
O1323 Cu1303 1.959 1_556 S
O1323 C1310 1.251 . S
H1324 C1307 0.930 . S
H1325 C1318 0.929 . S
Cu1326 N1327 1.999 1_554 S
Cu1326 O1332 1.974 1_554 S
Cu1326 N1337 1.985 . S
Cu1326 O1346 1.959 . S
N1327 Cu1326 1.999 1_556 S
N1327 C1329 1.263 . S
N1327 C1331 1.389 . S
N1328 C1329 1.358 . S
N1328 C1330 1.400 . S
C1329 N1327 1.263 . S
C1329 N1328 1.358 . S
C1329 H1335 0.930 . S
C1330 N1328 1.400 . S
C1330 C1331 1.351 . S
C1330 H1347 0.930 . S
C1331 N1327 1.389 . S
C1331 C1330 1.351 . S
C1331 H1336 0.969 . S
O1332 Cu1326 1.974 1_556 S
O1332 C1342 1.282 . S
C1333 O1334 1.261 . S
C1333 O1346 1.251 . S
O1334 C1333 1.261 . S
H1335 C1329 0.930 . S
H1336 C1331 0.969 . S
N1337 Cu1326 1.985 . S
N1337 C1339 1.335 . S
N1337 C1340 1.390 . S
N1338 C1339 1.345 . S
N1338 C1341 1.336 . S
C1339 N1337 1.335 . S
C1339 N1338 1.345 . S
C1339 H1344 0.930 . S
C1340 N1337 1.390 . S
C1340 C1341 1.346 . S
C1340 H1345 0.950 . S
C1341 N1338 1.336 . S
C1341 C1340 1.346 . S
C1341 H1348 0.929 . S
C1342 O1332 1.282 . S
C1342 O1343 1.216 . S
O1343 C1342 1.216 . S
H1344 C1339 0.930 . S
H1345 C1340 0.950 . S
O1346 Cu1326 1.959 . S
O1346 C1333 1.251 . S
H1347 C1330 0.930 . S
H1348 C1341 0.929 . S
Cu1349 N1350 1.999 . S
Cu1349 O1355 1.974 . S
Cu1349 N1360 1.985 1_554 S
Cu1349 O1369 1.959 1_554 S
N1350 Cu1349 1.999 . S
N1350 C1352 1.263 . S
N1350 C1354 1.389 . S
N1351 C1352 1.358 . S
N1351 C1353 1.400 . S
C1352 N1350 1.263 . S
C1352 N1351 1.358 . S
C1352 H1358 0.930 . S
C1353 N1351 1.400 . S
C1353 C1354 1.351 . S
C1353 H1370 0.930 . S
C1354 N1350 1.389 . S
C1354 C1353 1.351 . S
C1354 H1359 0.930 . S
O1355 Cu1349 1.974 . S
O1355 C1365 1.282 . S
C1356 O1357 1.261 . S
C1356 O1369 1.251 . S
O1357 C1356 1.261 . S
H1358 C1352 0.930 . S
H1359 C1354 0.930 . S
N1360 Cu1349 1.985 1_556 S
N1360 C1362 1.335 . S
N1360 C1363 1.390 . S
N1361 C1362 1.345 . S
N1361 C1364 1.336 . S
C1362 N1360 1.335 . S
C1362 N1361 1.345 . S
C1362 H1367 0.930 . S
C1363 N1360 1.390 . S
C1363 C1364 1.346 . S
C1363 H1368 0.930 1_556 S
C1364 N1361 1.336 . S
C1364 C1363 1.346 . S
C1364 H1371 0.929 . S
C1365 O1355 1.282 . S
C1365 O1366 1.216 . S
O1366 C1365 1.216 . S
H1367 C1362 0.930 . S
H1368 C1363 0.930 1_554 S
O1369 Cu1349 1.959 1_556 S
O1369 C1356 1.251 . S
H1370 C1353 0.930 . S
H1371 C1364 0.929 . S
Cu1372 N1373 1.999 . S
Cu1372 O1378 1.974 . S
Cu1372 N1383 1.985 1_455 S
Cu1372 O1392 1.959 1_455 S
N1373 Cu1372 1.999 . S
N1373 C1375 1.263 . S
N1373 C1377 1.389 . S
N1374 C1375 1.358 . S
N1374 C1376 1.400 . S
C1375 N1373 1.263 . S
C1375 N1374 1.358 . S
C1375 H1381 0.930 . S
C1376 N1374 1.400 . S
C1376 C1377 1.351 . S
C1376 H1393 0.930 . S
C1377 N1373 1.389 . S
C1377 C1376 1.351 . S
C1377 H1382 0.930 . S
O1378 Cu1372 1.974 . S
O1378 C1388 1.282 . S
C1379 O1380 1.261 . S
C1379 O1392 1.251 . S
O1380 C1379 1.261 . S
H1381 C1375 0.930 . S
H1382 C1377 0.930 . S
N1383 Cu1372 1.985 1_655 S
N1383 C1385 1.335 . S
N1383 C1386 1.390 1_655 S
N1384 C1385 1.345 . S
N1384 C1387 1.336 . S
C1385 N1383 1.335 . S
C1385 N1384 1.345 . S
C1385 H1390 0.930 . S
C1386 N1383 1.390 1_455 S
C1386 C1387 1.346 1_455 S
C1386 H1391 0.930 . S
C1387 N1384 1.336 . S
C1387 C1386 1.346 1_655 S
C1387 H1394 0.929 . S
C1388 O1378 1.282 . S
C1388 O1389 1.216 . S
O1389 C1388 1.216 . S
H1390 C1385 0.930 . S
H1391 C1386 0.930 . S
O1392 Cu1372 1.959 1_655 S
O1392 C1379 1.251 . S
H1393 C1376 0.930 . S
H1394 C1387 0.929 . S
Cu1395 N1396 1.999 . S
Cu1395 O1401 1.974 . S
Cu1395 N1406 1.985 1_545 S
Cu1395 O1415 1.959 1_545 S
N1396 Cu1395 1.999 . S
N1396 C1398 1.263 . S
N1396 C1400 1.389 . S
N1397 C1398 1.358 . S
N1397 C1399 1.400 . S
C1398 N1396 1.263 . S
C1398 N1397 1.358 . S
C1398 H1404 0.930 . S
C1399 N1397 1.400 . S
C1399 C1400 1.351 . S
C1399 H1416 0.930 . S
C1400 N1396 1.389 . S
C1400 C1399 1.351 . S
C1400 H1405 0.930 . S
O1401 Cu1395 1.974 . S
O1401 C1411 1.282 . S
C1402 O1403 1.261 . S
C1402 O1415 1.251 . S
O1403 C1402 1.261 . S
H1404 C1398 0.930 . S
H1405 C1400 0.930 . S
N1406 Cu1395 1.985 1_565 S
N1406 C1408 1.335 . S
N1406 C1409 1.390 . S
N1407 C1408 1.345 . S
N1407 C1410 1.336 . S
C1408 N1406 1.335 . S
C1408 N1407 1.345 . S
C1408 H1413 0.930 . S
C1409 N1406 1.390 . S
C1409 C1410 1.346 . S
C1409 H1414 0.930 1_565 S
C1410 N1407 1.336 . S
C1410 C1409 1.346 . S
C1410 H1417 0.929 . S
C1411 O1401 1.282 . S
C1411 O1412 1.216 . S
O1412 C1411 1.216 . S
H1413 C1408 0.930 . S
H1414 C1409 0.930 1_545 S
O1415 Cu1395 1.959 1_565 S
O1415 C1402 1.251 . S
H1416 C1399 0.930 . S
H1417 C1410 0.929 . S
Cu1418 N1419 2.004 . S
Cu1418 O1424 1.980 . S
Cu1418 N1429 1.980 1_655 S
Cu1418 O1438 1.953 1_655 S
N1419 Cu1418 2.004 . S
N1419 C1421 1.263 . S
N1419 C1423 1.389 . S
N1420 C1421 1.358 . S
N1420 C1422 1.400 . S
C1421 N1419 1.263 . S
C1421 N1420 1.358 . S
C1421 H1427 0.930 . S
C1422 N1420 1.400 . S
C1422 C1423 1.351 . S
C1422 H1439 0.930 . S
C1423 N1419 1.389 . S
C1423 C1422 1.351 . S
C1423 H1428 0.930 . S
O1424 Cu1418 1.980 . S
O1424 C1434 1.282 . S
C1425 O1426 1.261 . S
C1425 O1438 1.251 . S
O1426 C1425 1.261 . S
H1427 C1421 0.930 . S
H1428 C1423 0.930 . S
N1429 Cu1418 1.980 1_455 S
N1429 C1431 1.335 . S
N1429 C1432 1.390 . S
N1430 C1431 1.345 . S
N1430 C1433 1.336 . S
C1431 N1429 1.335 . S
C1431 N1430 1.345 . S
C1431 H1436 0.930 . S
C1432 N1429 1.390 . S
C1432 C1433 1.346 . S
C1432 H1437 0.930 . S
C1433 N1430 1.336 . S
C1433 C1432 1.346 . S
C1433 H1440 0.929 . S
C1434 O1424 1.282 . S
C1434 O1435 1.216 . S
O1435 C1434 1.216 . S
H1436 C1431 0.930 . S
H1437 C1432 0.930 . S
O1438 Cu1418 1.953 1_455 S
O1438 C1425 1.251 . S
H1439 C1422 0.930 . S
H1440 C1433 0.929 . S
Cu1441 N1442 1.993 1_565 S
Cu1441 O1447 1.965 1_565 S
Cu1441 N1452 1.991 . S
Cu1441 O1461 1.967 . S
N1442 Cu1441 1.993 1_545 S
N1442 C1444 1.263 . S
N1442 C1446 1.389 . S
N1443 C1444 1.358 . S
N1443 C1445 1.400 . S
C1444 N1442 1.263 . S
C1444 N1443 1.358 . S
C1444 H1450 0.930 . S
C1445 N1443 1.400 . S
C1445 C1446 1.351 . S
C1445 H1462 0.930 . S
C1446 N1442 1.389 . S
C1446 C1445 1.351 . S
C1446 H1451 0.930 . S
O1447 Cu1441 1.965 1_545 S
O1447 C1457 1.282 . S
C1448 O1449 1.261 . S
C1448 O1461 1.251 . S
O1449 C1448 1.261 . S
H1450 C1444 0.930 . S
H1451 C1446 0.930 . S
N1452 Cu1441 1.991 . S
N1452 C1454 1.335 . S
N1452 C1455 1.390 . S
N1453 C1454 1.345 . S
N1453 C1456 1.336 . S
C1454 N1452 1.335 . S
C1454 N1453 1.345 . S
C1454 H1459 0.930 . S
C1455 N1452 1.390 . S
C1455 C1456 1.346 . S
C1455 H1460 0.930 . S
C1456 N1453 1.336 . S
C1456 C1455 1.346 . S
C1456 H1463 0.929 . S
C1457 O1447 1.282 . S
C1457 O1458 1.216 . S
O1458 C1457 1.216 . S
H1459 C1454 0.930 . S
H1460 C1455 0.930 . S
O1461 Cu1441 1.967 . S
O1461 C1448 1.251 . S
H1462 C1445 0.930 . S
H1463 C1456 0.929 . S
Cu1464 N1465 1.999 . S
Cu1464 O1470 1.974 . S
Cu1464 N1475 1.985 1_455 S
Cu1464 O1484 1.959 1_455 S
N1465 Cu1464 1.999 . S
N1465 C1467 1.263 . S
N1465 C1469 1.389 . S
N1466 C1467 1.358 . S
N1466 C1468 1.400 . S
C1467 N1465 1.263 . S
C1467 N1466 1.358 . S
C1467 H1473 0.930 . S
C1468 N1466 1.400 . S
C1468 C1469 1.351 . S
C1468 H1485 0.930 . S
C1469 N1465 1.389 . S
C1469 C1468 1.351 . S
C1469 H1474 0.930 . S
O1470 Cu1464 1.974 . S
O1470 C1480 1.282 . S
C1471 O1472 1.261 . S
C1471 O1484 1.251 . S
O1472 C1471 1.261 . S
H1473 C1467 0.930 . S
H1474 C1469 0.930 . S
N1475 Cu1464 1.985 1_655 S
N1475 C1477 1.335 . S
N1475 C1478 1.390 1_655 S
N1476 C1477 1.345 . S
N1476 C1479 1.336 . S
C1477 N1475 1.335 . S
C1477 N1476 1.345 . S
C1477 H1482 0.930 . S
C1478 N1475 1.390 1_455 S
C1478 C1479 1.346 1_455 S
C1478 H1483 0.930 . S
C1479 N1476 1.336 . S
C1479 C1478 1.346 1_655 S
C1479 H1486 0.929 . S
C1480 O1470 1.282 . S
C1480 O1481 1.216 . S
O1481 C1480 1.216 . S
H1482 C1477 0.930 . S
H1483 C1478 0.930 . S
O1484 Cu1464 1.959 1_655 S
O1484 C1471 1.251 . S
H1485 C1468 0.930 . S
H1486 C1479 0.929 . S
Cu1487 N1488 1.999 . S
Cu1487 O1493 1.974 . S
Cu1487 N1498 1.985 1_545 S
Cu1487 O1507 1.959 1_545 S
N1488 Cu1487 1.999 . S
N1488 C1490 1.263 . S
N1488 C1492 1.389 . S
N1489 C1490 1.358 . S
N1489 C1491 1.400 . S
C1490 N1488 1.263 . S
C1490 N1489 1.358 . S
C1490 H1496 0.930 . S
C1491 N1489 1.400 . S
C1491 C1492 1.351 . S
C1491 H1508 0.930 . S
C1492 N1488 1.389 . S
C1492 C1491 1.351 . S
C1492 H1497 0.930 . S
O1493 Cu1487 1.974 . S
O1493 C1503 1.282 . S
C1494 O1495 1.261 . S
C1494 O1507 1.251 . S
O1495 C1494 1.261 . S
H1496 C1490 0.930 . S
H1497 C1492 0.930 . S
N1498 Cu1487 1.985 1_565 S
N1498 C1500 1.335 . S
N1498 C1501 1.395 . S
N1499 C1500 1.345 . S
N1499 C1502 1.336 . S
C1500 N1498 1.335 . S
C1500 N1499 1.345 . S
C1500 H1505 0.930 . S
C1501 N1498 1.395 . S
C1501 C1502 1.370 . S
C1501 H1506 0.906 1_565 S
C1502 N1499 1.336 . S
C1502 C1501 1.370 . S
C1502 H1509 0.929 . S
C1503 O1493 1.282 . S
C1503 O1504 1.216 . S
O1504 C1503 1.216 . S
H1505 C1500 0.930 . S
H1506 C1501 0.906 1_545 S
O1507 Cu1487 1.959 1_565 S
O1507 C1494 1.251 . S
H1508 C1491 0.930 . S
H1509 C1502 0.929 . S
Cu1510 N1511 1.999 . S
Cu1510 O1516 1.974 . S
Cu1510 N1521 1.985 . S
Cu1510 O1530 1.959 . S
N1511 Cu1510 1.999 . S
N1511 C1513 1.263 1_455 S
N1511 C1515 1.389 . S
N1512 C1513 1.358 . S
N1512 C1514 1.400 . S
C1513 N1511 1.263 1_655 S
C1513 N1512 1.358 . S
C1513 H1519 0.930 . S
C1514 N1512 1.400 . S
C1514 C1515 1.351 1_655 S
C1514 H1531 0.930 . S
C1515 N1511 1.389 . S
C1515 C1514 1.351 1_455 S
C1515 H1520 0.930 . S
O1516 Cu1510 1.974 . S
O1516 C1526 1.282 1_455 S
C1517 O1518 1.261 . S
C1517 O1530 1.251 . S
O1518 C1517 1.261 . S
H1519 C1513 0.930 . S
H1520 C1515 0.930 . S
N1521 Cu1510 1.985 . S
N1521 C1523 1.335 . S
N1521 C1524 1.390 . S
N1522 C1523 1.345 . S
N1522 C1525 1.336 . S
C1523 N1521 1.335 . S
C1523 N1522 1.345 . S
C1523 H1528 0.930 . S
C1524 N1521 1.390 . S
C1524 C1525 1.346 . S
C1524 H1529 0.930 . S
C1525 N1522 1.336 . S
C1525 C1524 1.346 . S
C1525 H1532 0.929 . S
C1526 O1516 1.282 1_655 S
C1526 O1527 1.216 1_655 S
O1527 C1526 1.216 1_455 S
H1528 C1523 0.930 . S
H1529 C1524 0.930 . S
O1530 Cu1510 1.959 . S
O1530 C1517 1.251 . S
H1531 C1514 0.930 . S
H1532 C1525 0.929 . S
Cu1533 N1534 1.999 . S
Cu1533 O1539 1.974 . S
Cu1533 N1544 1.985 . S
Cu1533 O1553 1.959 1_545 S
N1534 Cu1533 1.999 . S
N1534 C1536 1.263 . S
N1534 C1538 1.389 . S
N1535 C1536 1.358 . S
N1535 C1537 1.400 . S
C1536 N1534 1.263 . S
C1536 N1535 1.358 . S
C1536 H1542 0.930 . S
C1537 N1535 1.400 . S
C1537 C1538 1.351 . S
C1537 H1554 0.930 . S
C1538 N1534 1.389 . S
C1538 C1537 1.351 . S
C1538 H1543 0.930 . S
O1539 Cu1533 1.974 . S
O1539 C1549 1.282 . S
C1540 O1541 1.255 1_565 S
C1540 O1553 1.251 . S
O1541 C1540 1.255 1_545 S
H1542 C1536 0.930 . S
H1543 C1538 0.930 . S
N1544 Cu1533 1.985 . S
N1544 C1546 1.335 1_545 S
N1544 C1547 1.390 . S
N1545 C1546 1.345 . S
N1545 C1548 1.336 . S
C1546 N1544 1.335 1_565 S
C1546 N1545 1.345 . S
C1546 H1551 0.930 . S
C1547 N1544 1.390 . S
C1547 C1548 1.346 1_545 S
C1547 H1552 0.930 . S
C1548 N1545 1.336 . S
C1548 C1547 1.346 1_565 S
C1548 H1555 0.929 . S
C1549 O1539 1.282 . S
C1549 O1550 1.216 . S
O1550 C1549 1.216 . S
H1551 C1546 0.930 . S
H1552 C1547 0.930 . S
O1553 Cu1533 1.959 1_565 S
O1553 C1540 1.251 . S
H1554 C1537 0.930 . S
H1555 C1548 0.929 . S
Cu1556 N1557 1.999 . S
Cu1556 O1562 1.974 . S
Cu1556 N1567 1.985 . S
Cu1556 O1576 1.959 . S
N1557 Cu1556 1.999 . S
N1557 C1559 1.263 . S
N1557 C1561 1.389 . S
N1558 C1559 1.358 . S
N1558 C1560 1.400 . S
C1559 N1557 1.263 . S
C1559 N1558 1.358 . S
C1559 H1565 0.930 . S
C1560 N1558 1.400 . S
C1560 C1561 1.351 . S
C1560 H1577 0.930 . S
C1561 N1557 1.389 . S
C1561 C1560 1.351 . S
C1561 H1566 0.930 . S
O1562 Cu1556 1.974 . S
O1562 C1572 1.282 . S
C1563 O1564 1.261 . S
C1563 O1576 1.251 . S
O1564 C1563 1.261 . S
H1565 C1559 0.930 . S
H1566 C1561 0.930 . S
N1567 Cu1556 1.985 . S
N1567 C1569 1.335 . S
N1567 C1570 1.390 . S
N1568 C1569 1.345 . S
N1568 C1571 1.336 . S
C1569 N1567 1.335 . S
C1569 N1568 1.345 . S
C1569 H1574 0.930 . S
C1570 N1567 1.390 . S
C1570 C1571 1.346 . S
C1570 H1575 0.930 . S
C1571 N1568 1.336 . S
C1571 C1570 1.346 . S
C1571 H1578 0.929 . S
C1572 O1562 1.282 . S
C1572 O1573 1.216 . S
O1573 C1572 1.216 . S
H1574 C1569 0.930 . S
H1575 C1570 0.930 . S
O1576 Cu1556 1.959 . S
O1576 C1563 1.251 . S
H1577 C1560 0.930 . S
H1578 C1571 0.929 . S
Cu1579 N1580 1.999 . S
Cu1579 O1585 1.974 . S
Cu1579 N1590 1.985 . S
Cu1579 O1599 1.959 . S
N1580 Cu1579 1.999 . S
N1580 C1582 1.263 . S
N1580 C1584 1.389 . S
N1581 C1582 1.358 . S
N1581 C1583 1.400 . S
C1582 N1580 1.263 . S
C1582 N1581 1.358 . S
C1582 H1588 0.930 . S
C1583 N1581 1.400 . S
C1583 C1584 1.351 . S
C1583 H1600 0.930 . S
C1584 N1580 1.389 . S
C1584 C1583 1.351 . S
C1584 H1589 0.930 . S
O1585 Cu1579 1.974 . S
O1585 C1595 1.282 . S
C1586 O1587 1.261 . S
C1586 O1599 1.251 . S
O1587 C1586 1.261 . S
H1588 C1582 0.930 . S
H1589 C1584 0.930 . S
N1590 Cu1579 1.985 . S
N1590 C1592 1.335 . S
N1590 C1593 1.390 . S
N1591 C1592 1.345 . S
N1591 C1594 1.336 . S
C1592 N1590 1.335 . S
C1592 N1591 1.345 . S
C1592 H1597 0.930 . S
C1593 N1590 1.390 . S
C1593 C1594 1.346 . S
C1593 H1598 0.930 . S
C1594 N1591 1.336 . S
C1594 C1593 1.346 . S
C1594 H1601 0.929 . S
C1595 O1585 1.282 . S
C1595 O1596 1.216 . S
O1596 C1595 1.216 . S
H1597 C1592 0.930 . S
H1598 C1593 0.930 . S
O1599 Cu1579 1.959 . S
O1599 C1586 1.251 . S
H1600 C1583 0.930 . S
H1601 C1594 0.929 . S
Cu1602 N1603 1.999 . S
Cu1602 O1608 1.974 . S
Cu1602 N1613 1.985 . S
Cu1602 O1622 1.959 . S
N1603 Cu1602 1.999 . S
N1603 C1605 1.263 . S
N1603 C1607 1.389 . S
N1604 C1605 1.358 . S
N1604 C1606 1.400 . S
C1605 N1603 1.263 . S
C1605 N1604 1.358 . S
C1605 H1611 0.930 . S
C1606 N1604 1.400 . S
C1606 C1607 1.351 . S
C1606 H1623 0.930 . S
C1607 N1603 1.389 . S
C1607 C1606 1.351 . S
C1607 H1612 0.930 . S
O1608 Cu1602 1.974 . S
O1608 C1618 1.282 . S
C1609 O1610 1.261 . S
C1609 O1622 1.251 . S
O1610 C1609 1.261 . S
H1611 C1605 0.930 . S
H1612 C1607 0.930 . S
N1613 Cu1602 1.985 . S
N1613 C1615 1.335 . S
N1613 C1616 1.390 . S
N1614 C1615 1.345 . S
N1614 C1617 1.336 . S
C1615 N1613 1.335 . S
C1615 N1614 1.345 . S
C1615 H1620 0.930 . S
C1616 N1613 1.390 . S
C1616 C1617 1.346 . S
C1616 H1621 0.930 . S
C1617 N1614 1.336 . S
C1617 C1616 1.346 . S
C1617 H1624 0.929 . S
C1618 O1608 1.282 . S
C1618 O1619 1.216 . S
O1619 C1618 1.216 . S
H1620 C1615 0.930 . S
H1621 C1616 0.930 . S
O1622 Cu1602 1.959 . S
O1622 C1609 1.251 . S
H1623 C1606 0.930 . S
H1624 C1617 0.929 . S
Cu1625 N1626 1.999 . S
Cu1625 O1631 1.974 . S
Cu1625 N1636 1.985 . S
Cu1625 O1645 1.959 . S
N1626 Cu1625 1.999 . S
N1626 C1628 1.263 . S
N1626 C1630 1.389 . S
N1627 C1628 1.358 . S
N1627 C1629 1.400 . S
C1628 N1626 1.263 . S
C1628 N1627 1.358 . S
C1628 H1634 0.930 . S
C1629 N1627 1.400 . S
C1629 C1630 1.351 . S
C1629 H1646 0.930 . S
C1630 N1626 1.389 . S
C1630 C1629 1.351 . S
C1630 H1635 0.930 . S
O1631 Cu1625 1.974 . S
O1631 C1641 1.282 . S
C1632 O1633 1.261 . S
C1632 O1645 1.251 . S
O1633 C1632 1.261 . S
H1634 C1628 0.930 . S
H1635 C1630 0.930 . S
N1636 Cu1625 1.985 . S
N1636 C1638 1.335 . S
N1636 C1639 1.390 . S
N1637 C1638 1.345 . S
N1637 C1640 1.336 . S
C1638 N1636 1.335 . S
C1638 N1637 1.345 . S
C1638 H1643 0.930 . S
C1639 N1636 1.390 . S
C1639 C1640 1.346 . S
C1639 H1644 0.930 . S
C1640 N1637 1.336 . S
C1640 C1639 1.346 . S
C1640 H1647 0.929 . S
C1641 O1631 1.282 . S
C1641 O1642 1.216 . S
O1642 C1641 1.216 . S
H1643 C1638 0.930 . S
H1644 C1639 0.930 . S
O1645 Cu1625 1.959 . S
O1645 C1632 1.251 . S
H1646 C1629 0.930 . S
H1647 C1640 0.929 . S
Cu1648 N1649 1.999 . S
Cu1648 O1654 1.974 . S
Cu1648 N1659 1.985 . S
Cu1648 O1668 1.959 . S
N1649 Cu1648 1.999 . S
N1649 C1651 1.263 . S
N1649 C1653 1.389 . S
N1650 C1651 1.358 . S
N1650 C1652 1.400 . S
C1651 N1649 1.263 . S
C1651 N1650 1.358 . S
C1651 H1657 0.930 . S
C1652 N1650 1.400 . S
C1652 C1653 1.351 . S
C1652 H1669 0.930 . S
C1653 N1649 1.389 . S
C1653 C1652 1.351 . S
C1653 H1658 0.930 . S
O1654 Cu1648 1.974 . S
O1654 C1664 1.282 . S
C1655 O1656 1.261 . S
C1655 O1668 1.251 . S
O1656 C1655 1.261 . S
H1657 C1651 0.930 . S
H1658 C1653 0.930 . S
N1659 Cu1648 1.985 . S
N1659 C1661 1.335 . S
N1659 C1662 1.390 . S
N1660 C1661 1.345 . S
N1660 C1663 1.336 . S
C1661 N1659 1.335 . S
C1661 N1660 1.345 . S
C1661 H1666 0.930 . S
C1662 N1659 1.390 . S
C1662 C1663 1.346 . S
C1662 H1667 0.930 . S
C1663 N1660 1.336 . S
C1663 C1662 1.346 . S
C1663 H1670 0.929 . S
C1664 O1654 1.282 . S
C1664 O1665 1.216 . S
O1665 C1664 1.216 . S
H1666 C1661 0.930 . S
H1667 C1662 0.930 . S
O1668 Cu1648 1.959 . S
O1668 C1655 1.251 . S
H1669 C1652 0.930 . S
H1670 C1663 0.929 . S
Cu1671 N1672 1.999 . S
Cu1671 O1677 1.974 . S
Cu1671 N1682 1.985 . S
Cu1671 O1691 1.959 . S
N1672 Cu1671 1.999 . S
N1672 C1674 1.263 . S
N1672 C1676 1.389 . S
N1673 C1674 1.358 . S
N1673 C1675 1.400 . S
C1674 N1672 1.263 . S
C1674 N1673 1.358 . S
C1674 H1680 0.930 . S
C1675 N1673 1.400 . S
C1675 C1676 1.351 . S
C1675 H1692 0.930 . S
C1676 N1672 1.389 . S
C1676 C1675 1.351 . S
C1676 H1681 0.930 . S
O1677 Cu1671 1.974 . S
O1677 C1687 1.282 . S
C1678 O1679 1.261 . S
C1678 O1691 1.251 . S
O1679 C1678 1.261 . S
H1680 C1674 0.930 . S
H1681 C1676 0.930 . S
N1682 Cu1671 1.985 . S
N1682 C1684 1.335 . S
N1682 C1685 1.390 . S
N1683 C1684 1.345 . S
N1683 C1686 1.336 . S
C1684 N1682 1.335 . S
C1684 N1683 1.345 . S
C1684 H1689 0.930 . S
C1685 N1682 1.390 . S
C1685 C1686 1.346 . S
C1685 H1690 0.930 . S
C1686 N1683 1.336 . S
C1686 C1685 1.346 . S
C1686 H1693 0.929 . S
C1687 O1677 1.282 . S
C1687 O1688 1.216 . S
O1688 C1687 1.216 . S
H1689 C1684 0.930 . S
H1690 C1685 0.930 . S
O1691 Cu1671 1.959 . S
O1691 C1678 1.251 . S
H1692 C1675 0.930 . S
H1693 C1686 0.929 . S
Cu1694 N1695 1.999 . S
Cu1694 O1700 1.974 . S
Cu1694 N1705 1.985 . S
Cu1694 O1714 1.959 . S
N1695 Cu1694 1.999 . S
N1695 C1697 1.263 . S
N1695 C1699 1.389 . S
N1696 C1697 1.358 . S
N1696 C1698 1.400 . S
C1697 N1695 1.263 . S
C1697 N1696 1.358 . S
C1697 H1703 0.930 . S
C1698 N1696 1.400 . S
C1698 C1699 1.351 . S
C1698 H1715 0.930 . S
C1699 N1695 1.389 . S
C1699 C1698 1.351 . S
C1699 H1704 0.930 . S
O1700 Cu1694 1.974 . S
O1700 C1710 1.282 . S
C1701 O1702 1.261 . S
C1701 O1714 1.251 . S
O1702 C1701 1.261 . S
H1703 C1697 0.930 . S
H1704 C1699 0.930 . S
N1705 Cu1694 1.985 . S
N1705 C1707 1.335 . S
N1705 C1708 1.390 . S
N1706 C1707 1.345 . S
N1706 C1709 1.336 . S
C1707 N1705 1.335 . S
C1707 N1706 1.345 . S
C1707 H1712 0.930 . S
C1708 N1705 1.390 . S
C1708 C1709 1.346 . S
C1708 H1713 0.930 . S
C1709 N1706 1.336 . S
C1709 C1708 1.346 . S
C1709 H1716 0.929 . S
C1710 O1700 1.282 . S
C1710 O1711 1.216 . S
O1711 C1710 1.216 . S
H1712 C1707 0.930 . S
H1713 C1708 0.930 . S
O1714 Cu1694 1.959 . S
O1714 C1701 1.251 . S
H1715 C1698 0.930 . S
H1716 C1709 0.929 . S
Cu1717 N1718 1.999 . S
Cu1717 O1723 1.974 . S
Cu1717 N1728 1.985 . S
Cu1717 O1737 1.959 . S
N1718 Cu1717 1.999 . S
N1718 C1720 1.263 . S
N1718 C1722 1.389 . S
N1719 C1720 1.358 . S
N1719 C1721 1.400 . S
C1720 N1718 1.263 . S
C1720 N1719 1.358 . S
C1720 H1726 0.930 . S
C1721 N1719 1.400 . S
C1721 C1722 1.351 . S
C1721 H1738 0.930 . S
C1722 N1718 1.389 . S
C1722 C1721 1.351 . S
C1722 H1727 0.930 . S
O1723 Cu1717 1.974 . S
O1723 C1733 1.282 . S
C1724 O1725 1.261 . S
C1724 O1737 1.251 . S
O1725 C1724 1.261 . S
H1726 C1720 0.930 . S
H1727 C1722 0.930 . S
N1728 Cu1717 1.985 . S
N1728 C1730 1.335 . S
N1728 C1731 1.390 . S
N1729 C1730 1.345 . S
N1729 C1732 1.336 . S
C1730 N1728 1.335 . S
C1730 N1729 1.345 . S
C1730 H1735 0.930 . S
C1731 N1728 1.390 . S
C1731 C1732 1.346 . S
C1731 H1736 0.930 . S
C1732 N1729 1.336 . S
C1732 C1731 1.346 . S
C1732 H1739 0.929 . S
C1733 O1723 1.282 . S
C1733 O1734 1.216 . S
O1734 C1733 1.216 . S
H1735 C1730 0.930 . S
H1736 C1731 0.930 . S
O1737 Cu1717 1.959 . S
O1737 C1724 1.251 . S
H1738 C1721 0.930 . S
H1739 C1732 0.929 . S
Cu1740 N1741 1.999 . S
Cu1740 O1746 1.974 . S
Cu1740 N1751 1.985 . S
Cu1740 O1760 1.959 . S
N1741 Cu1740 1.999 . S
N1741 C1743 1.263 . S
N1741 C1745 1.389 . S
N1742 C1743 1.358 . S
N1742 C1744 1.400 . S
C1743 N1741 1.263 . S
C1743 N1742 1.358 . S
C1743 H1749 0.930 . S
C1744 N1742 1.400 . S
C1744 C1745 1.351 . S
C1744 H1761 0.930 . S
C1745 N1741 1.389 . S
C1745 C1744 1.351 . S
C1745 H1750 0.930 . S
O1746 Cu1740 1.974 . S
O1746 C1756 1.282 . S
C1747 O1748 1.261 . S
C1747 O1760 1.251 . S
O1748 C1747 1.261 . S
H1749 C1743 0.930 . S
H1750 C1745 0.930 . S
N1751 Cu1740 1.985 . S
N1751 C1753 1.335 . S
N1751 C1754 1.390 . S
N1752 C1753 1.345 . S
N1752 C1755 1.336 . S
C1753 N1751 1.335 . S
C1753 N1752 1.345 . S
C1753 H1758 0.930 . S
C1754 N1751 1.390 . S
C1754 C1755 1.346 . S
C1754 H1759 0.930 . S
C1755 N1752 1.336 . S
C1755 C1754 1.346 . S
C1755 H1762 0.929 . S
C1756 O1746 1.282 . S
C1756 O1757 1.216 . S
O1757 C1756 1.216 . S
H1758 C1753 0.930 . S
H1759 C1754 0.930 . S
O1760 Cu1740 1.959 . S
O1760 C1747 1.251 . S
H1761 C1744 0.930 . S
H1762 C1755 0.929 . S
Cu1763 N1764 1.999 . S
Cu1763 O1769 1.974 . S
Cu1763 N1774 1.985 . S
Cu1763 O1783 1.959 . S
N1764 Cu1763 1.999 . S
N1764 C1766 1.263 . S
N1764 C1768 1.389 . S
N1765 C1766 1.358 . S
N1765 C1767 1.400 . S
C1766 N1764 1.263 . S
C1766 N1765 1.358 . S
C1766 H1772 0.930 . S
C1767 N1765 1.400 . S
C1767 C1768 1.351 . S
C1767 H1784 0.930 . S
C1768 N1764 1.389 . S
C1768 C1767 1.351 . S
C1768 H1773 0.930 . S
O1769 Cu1763 1.974 . S
O1769 C1779 1.282 . S
C1770 O1771 1.261 . S
C1770 O1783 1.251 . S
O1771 C1770 1.261 . S
H1772 C1766 0.930 . S
H1773 C1768 0.930 . S
N1774 Cu1763 1.985 . S
N1774 C1776 1.335 . S
N1774 C1777 1.390 . S
N1775 C1776 1.345 . S
N1775 C1778 1.336 . S
C1776 N1774 1.335 . S
C1776 N1775 1.345 . S
C1776 H1781 0.930 . S
C1777 N1774 1.390 . S
C1777 C1778 1.346 . S
C1777 H1782 0.930 . S
C1778 N1775 1.336 . S
C1778 C1777 1.346 . S
C1778 H1785 0.929 . S
C1779 O1769 1.282 . S
C1779 O1780 1.216 . S
O1780 C1779 1.216 . S
H1781 C1776 0.930 . S
H1782 C1777 0.930 . S
O1783 Cu1763 1.959 . S
O1783 C1770 1.251 . S
H1784 C1767 0.930 . S
H1785 C1778 0.929 . S
Cu1786 N1787 1.999 . S
Cu1786 O1792 1.974 . S
Cu1786 N1797 1.985 . S
Cu1786 O1806 1.959 . S
N1787 Cu1786 1.999 . S
N1787 C1789 1.263 . S
N1787 C1791 1.389 . S
N1788 C1789 1.358 . S
N1788 C1790 1.400 . S
C1789 N1787 1.263 . S
C1789 N1788 1.358 . S
C1789 H1795 0.930 . S
C1790 N1788 1.400 . S
C1790 C1791 1.351 . S
C1790 H1807 0.930 . S
C1791 N1787 1.389 . S
C1791 C1790 1.351 . S
C1791 H1796 0.930 . S
O1792 Cu1786 1.974 . S
O1792 C1802 1.282 . S
C1793 O1794 1.261 . S
C1793 O1806 1.251 . S
O1794 C1793 1.261 . S
H1795 C1789 0.930 . S
H1796 C1791 0.930 . S
N1797 Cu1786 1.985 . S
N1797 C1799 1.335 . S
N1797 C1800 1.390 . S
N1798 C1799 1.345 . S
N1798 C1801 1.336 . S
C1799 N1797 1.335 . S
C1799 N1798 1.345 . S
C1799 H1804 0.930 . S
C1800 N1797 1.390 . S
C1800 C1801 1.346 . S
C1800 H1805 0.930 . S
C1801 N1798 1.336 . S
C1801 C1800 1.346 . S
C1801 H1808 0.929 . S
C1802 O1792 1.282 . S
C1802 O1803 1.216 . S
O1803 C1802 1.216 . S
H1804 C1799 0.930 . S
H1805 C1800 0.930 . S
O1806 Cu1786 1.959 . S
O1806 C1793 1.251 . S
H1807 C1790 0.930 . S
H1808 C1801 0.929 . S
Cu1809 N1810 1.999 . S
Cu1809 O1815 1.974 . S
Cu1809 N1820 1.985 . S
Cu1809 O1829 1.959 . S
N1810 Cu1809 1.999 . S
N1810 C1812 1.263 . S
N1810 C1814 1.389 . S
N1811 C1812 1.358 . S
N1811 C1813 1.400 . S
C1812 N1810 1.263 . S
C1812 N1811 1.358 . S
C1812 H1818 0.930 . S
C1813 N1811 1.400 . S
C1813 C1814 1.351 . S
C1813 H1830 0.930 . S
C1814 N1810 1.389 . S
C1814 C1813 1.351 . S
C1814 H1819 0.930 . S
O1815 Cu1809 1.974 . S
O1815 C1825 1.282 . S
C1816 O1817 1.261 . S
C1816 O1829 1.251 . S
O1817 C1816 1.261 . S
H1818 C1812 0.930 . S
H1819 C1814 0.930 . S
N1820 Cu1809 1.985 . S
N1820 C1822 1.335 . S
N1820 C1823 1.390 . S
N1821 C1822 1.345 . S
N1821 C1824 1.336 . S
C1822 N1820 1.335 . S
C1822 N1821 1.345 . S
C1822 H1827 0.930 . S
C1823 N1820 1.390 . S
C1823 C1824 1.346 . S
C1823 H1828 0.930 . S
C1824 N1821 1.336 . S
C1824 C1823 1.346 . S
C1824 H1831 0.929 . S
C1825 O1815 1.282 . S
C1825 O1826 1.216 . S
O1826 C1825 1.216 . S
H1827 C1822 0.930 . S
H1828 C1823 0.930 . S
O1829 Cu1809 1.959 . S
O1829 C1816 1.251 . S
H1830 C1813 0.930 . S
H1831 C1824 0.929 . S
C1832 C1833 1.387 . S
C1832 H1836 0.950 . S
C1832 C1841 1.390 . S
C1833 C1832 1.387 . S
C1833 C1835 1.387 . S
H1834 C1841 0.950 . S
C1835 C1833 1.387 . S
C1835 C1837 1.390 . S
C1835 H1839 0.950 . S
H1836 C1832 0.950 . S
C1837 C1835 1.390 . S
C1837 C1838 1.387 . S
C1837 H1840 0.950 . S
C1838 C1837 1.387 . S
C1838 C1841 1.387 . S
H1839 C1835 0.950 . S
H1840 C1837 0.950 . S
C1841 C1832 1.390 . S
C1841 H1834 0.950 . S
C1841 C1838 1.387 . S
C1842 C1843 1.387 . S
C1842 H1846 0.950 . S
C1842 C1851 1.390 . S
C1843 C1842 1.387 . S
C1843 C1845 1.387 . S
H1844 C1851 0.950 . S
C1845 C1843 1.387 . S
C1845 C1847 1.390 . S
C1845 H1849 0.950 . S
H1846 C1842 0.950 . S
C1847 C1845 1.390 . S
C1847 C1848 1.387 . S
C1847 H1850 0.950 . S
C1848 C1847 1.387 . S
C1848 C1851 1.387 . S
H1849 C1845 0.950 . S
H1850 C1847 0.950 . S
C1851 C1842 1.390 . S
C1851 H1844 0.950 . S
C1851 C1848 1.387 . S
C1852 C1853 1.387 . S
C1852 H1856 0.950 . S
C1852 C1861 1.390 . S
C1853 C1852 1.387 . S
C1853 C1855 1.387 . S
H1854 C1861 0.950 . S
C1855 C1853 1.387 . S
C1855 C1857 1.390 . S
C1855 H1859 0.950 . S
H1856 C1852 0.950 . S
C1857 C1855 1.390 . S
C1857 C1858 1.387 . S
C1857 H1860 0.950 . S
C1858 C1857 1.387 . S
C1858 C1861 1.387 . S
H1859 C1855 0.950 . S
H1860 C1857 0.950 . S
C1861 C1852 1.390 . S
C1861 H1854 0.950 . S
C1861 C1858 1.387 . S
C1862 C1863 1.387 . S
C1862 H1866 0.950 . S
C1862 C1871 1.390 . S
C1863 C1862 1.387 . S
C1863 C1865 1.387 . S
H1864 C1871 0.950 . S
C1865 C1863 1.387 . S
C1865 C1867 1.390 . S
C1865 H1869 0.950 . S
H1866 C1862 0.950 . S
C1867 C1865 1.390 . S
C1867 C1868 1.387 . S
C1867 H1870 0.950 . S
C1868 C1867 1.387 . S
C1868 C1871 1.387 . S
H1869 C1865 0.950 . S
H1870 C1867 0.950 . S
C1871 C1862 1.390 . S
C1871 H1864 0.950 . S
C1871 C1868 1.387 . S
C1872 C1873 1.387 . S
C1872 H1876 0.950 . S
C1872 C1881 1.390 . S
C1873 C1872 1.387 . S
C1873 C1875 1.387 . S
H1874 C1881 0.950 . S
C1875 C1873 1.387 . S
C1875 C1877 1.390 . S
C1875 H1879 0.950 . S
H1876 C1872 0.950 . S
C1877 C1875 1.390 . S
C1877 C1878 1.387 . S
C1877 H1880 0.950 . S
C1878 C1877 1.387 . S
C1878 C1881 1.387 . S
H1879 C1875 0.950 . S
H1880 C1877 0.950 . S
C1881 C1872 1.390 . S
C1881 H1874 0.950 . S
C1881 C1878 1.387 . S
C1882 C1883 1.387 . S
C1882 H1886 0.950 . S
C1882 C1891 1.390 . S
C1883 C1882 1.387 . S
C1883 C1885 1.387 . S
H1884 C1891 0.950 . S
C1885 C1883 1.387 . S
C1885 C1887 1.390 . S
C1885 H1889 0.950 . S
H1886 C1882 0.950 . S
C1887 C1885 1.390 . S
C1887 C1888 1.387 . S
C1887 H1890 0.950 . S
C1888 C1887 1.387 . S
C1888 C1891 1.387 . S
H1889 C1885 0.950 . S
H1890 C1887 0.950 . S
C1891 C1882 1.390 . S
C1891 H1884 0.950 . S
C1891 C1888 1.387 . S
C1892 C1893 1.387 . S
C1892 H1896 0.950 . S
C1892 C1901 1.390 . S
C1893 C1892 1.387 . S
C1893 C1895 1.387 . S
H1894 C1901 0.950 . S
C1895 C1893 1.387 . S
C1895 C1897 1.390 . S
C1895 H1899 0.950 . S
H1896 C1892 0.950 . S
C1897 C1895 1.390 . S
C1897 C1898 1.387 . S
C1897 H1900 0.950 . S
C1898 C1897 1.387 . S
C1898 C1901 1.387 . S
H1899 C1895 0.950 . S
H1900 C1897 0.950 . S
C1901 C1892 1.390 . S
C1901 H1894 0.950 . S
C1901 C1898 1.387 . S
C1902 C1903 1.387 . S
C1902 H1906 0.950 . S
C1902 C1911 1.390 . S
C1903 C1902 1.387 . S
C1903 C1905 1.387 . S
H1904 C1911 0.950 . S
C1905 C1903 1.387 . S
C1905 C1907 1.390 . S
C1905 H1909 0.950 . S
H1906 C1902 0.950 . S
C1907 C1905 1.390 . S
C1907 C1908 1.387 . S
C1907 H1910 0.950 . S
C1908 C1907 1.387 . S
C1908 C1911 1.387 . S
H1909 C1905 0.950 . S
H1910 C1907 0.950 . S
C1911 C1902 1.390 . S
C1911 H1904 0.950 . S
C1911 C1908 1.387 . S
C1912 C1913 1.387 . S
C1912 H1916 0.950 . S
C1912 C1921 1.390 . S
C1913 C1912 1.387 . S
C1913 C1915 1.387 . S
H1914 C1921 0.950 . S
C1915 C1913 1.387 . S
C1915 C1917 1.390 . S
C1915 H1919 0.950 . S
H1916 C1912 0.950 . S
C1917 C1915 1.390 . S
C1917 C1918 1.387 . S
C1917 H1920 0.950 . S
C1918 C1917 1.387 . S
C1918 C1921 1.387 . S
H1919 C1915 0.950 . S
H1920 C1917 0.950 . S
C1921 C1912 1.390 . S
C1921 H1914 0.950 . S
C1921 C1918 1.387 . S
C1922 C1923 1.387 . S
C1922 H1926 0.950 . S
C1922 C1931 1.390 . S
C1923 C1922 1.387 . S
C1923 C1925 1.387 . S
H1924 C1931 0.950 . S
C1925 C1923 1.387 . S
C1925 C1927 1.390 . S
C1925 H1929 0.950 . S
H1926 C1922 0.950 . S
C1927 C1925 1.390 . S
C1927 C1928 1.387 . S
C1927 H1930 0.950 . S
C1928 C1927 1.387 . S
C1928 C1931 1.387 . S
H1929 C1925 0.950 . S
H1930 C1927 0.950 . S
C1931 C1922 1.390 . S
C1931 H1924 0.950 . S
C1931 C1928 1.387 . S
C1932 C1933 1.387 . S
C1932 H1936 0.950 . S
C1932 C1941 1.390 . S
C1933 C1932 1.387 . S
C1933 C1935 1.387 . S
H1934 C1941 0.950 . S
C1935 C1933 1.387 . S
C1935 C1937 1.390 . S
C1935 H1939 0.950 . S
H1936 C1932 0.950 . S
C1937 C1935 1.390 . S
C1937 C1938 1.387 . S
C1937 H1940 0.950 . S
C1938 C1937 1.387 . S
C1938 C1941 1.387 . S
H1939 C1935 0.950 . S
H1940 C1937 0.950 . S
C1941 C1932 1.390 . S
C1941 H1934 0.950 . S
C1941 C1938 1.387 . S
C1942 C1943 1.387 . S
C1942 H1946 0.950 . S
C1942 C1951 1.390 . S
C1943 C1942 1.387 . S
C1943 C1945 1.387 . S
H1944 C1951 0.950 . S
C1945 C1943 1.387 . S
C1945 C1947 1.390 . S
C1945 H1949 0.950 . S
H1946 C1942 0.950 . S
C1947 C1945 1.390 . S
C1947 C1948 1.387 . S
C1947 H1950 0.950 . S
C1948 C1947 1.387 . S
C1948 C1951 1.387 . S
H1949 C1945 0.950 . S
H1950 C1947 0.950 . S
C1951 C1942 1.390 . S
C1951 H1944 0.950 . S
C1951 C1948 1.387 . S
C1952 C1953 1.387 . S
C1952 H1956 0.950 . S
C1952 C1961 1.390 . S
C1953 C1952 1.387 . S
C1953 C1955 1.387 . S
H1954 C1961 0.950 . S
C1955 C1953 1.387 . S
C1955 C1957 1.390 . S
C1955 H1959 0.950 . S
H1956 C1952 0.950 . S
C1957 C1955 1.390 . S
C1957 C1958 1.387 . S
C1957 H1960 0.950 . S
C1958 C1957 1.387 . S
C1958 C1961 1.387 . S
H1959 C1955 0.950 . S
H1960 C1957 0.950 . S
C1961 C1952 1.390 . S
C1961 H1954 0.950 . S
C1961 C1958 1.387 . S
C1962 C1963 1.387 . S
C1962 H1966 0.950 . S
C1962 C1971 1.390 . S
C1963 C1962 1.387 . S
C1963 C1965 1.387 . S
H1964 C1971 0.950 . S
C1965 C1963 1.387 . S
C1965 C1967 1.390 . S
C1965 H1969 0.950 . S
H1966 C1962 0.950 . S
C1967 C1965 1.390 . S
C1967 C1968 1.387 . S
C1967 H1970 0.950 . S
C1968 C1967 1.387 . S
C1968 C1971 1.387 . S
H1969 C1965 0.950 . S
H1970 C1967 0.950 . S
C1971 C1962 1.390 . S
C1971 H1964 0.950 . S
C1971 C1968 1.387 . S
C1972 C1973 1.387 . S
C1972 H1976 0.950 . S
C1972 C1981 1.390 . S
C1973 C1972 1.387 . S
C1973 C1975 1.387 . S
H1974 C1981 0.950 . S
C1975 C1973 1.387 . S
C1975 C1977 1.390 . S
C1975 H1979 0.950 . S
H1976 C1972 0.950 . S
C1977 C1975 1.390 . S
C1977 C1978 1.387 . S
C1977 H1980 0.950 . S
C1978 C1977 1.387 . S
C1978 C1981 1.387 . S
H1979 C1975 0.950 . S
H1980 C1977 0.950 . S
C1981 C1972 1.390 . S
C1981 H1974 0.950 . S
C1981 C1978 1.387 . S
C1982 C1983 1.387 . S
C1982 H1986 0.950 . S
C1982 C1991 1.390 . S
C1983 C1982 1.387 . S
C1983 C1985 1.387 . S
H1984 C1991 0.950 . S
C1985 C1983 1.387 . S
C1985 C1987 1.390 . S
C1985 H1989 0.950 . S
H1986 C1982 0.950 . S
C1987 C1985 1.390 . S
C1987 C1988 1.387 . S
C1987 H1990 0.950 . S
C1988 C1987 1.387 . S
C1988 C1991 1.387 . S
H1989 C1985 0.950 . S
H1990 C1987 0.950 . S
C1991 C1982 1.390 . S
C1991 H1984 0.950 . S
C1991 C1988 1.387 . S
C1992 C1993 1.387 . S
C1992 H1996 0.950 . S
C1992 C2001 1.390 . S
C1993 C1992 1.387 . S
C1993 C1995 1.387 . S
H1994 C2001 0.950 . S
C1995 C1993 1.387 . S
C1995 C1997 1.390 . S
C1995 H1999 0.950 . S
H1996 C1992 0.950 . S
C1997 C1995 1.390 . S
C1997 C1998 1.387 . S
C1997 H2000 0.950 . S
C1998 C1997 1.387 . S
C1998 C2001 1.387 . S
H1999 C1995 0.950 . S
H2000 C1997 0.950 . S
C2001 C1992 1.390 . S
C2001 H1994 0.950 . S
C2001 C1998 1.387 . S
C2002 C2003 1.387 . S
C2002 H2006 0.950 . S
C2002 C2011 1.390 . S
C2003 C2002 1.387 . S
C2003 C2005 1.387 . S
H2004 C2011 0.950 . S
C2005 C2003 1.387 . S
C2005 C2007 1.390 . S
C2005 H2009 0.950 . S
H2006 C2002 0.950 . S
C2007 C2005 1.390 . S
C2007 C2008 1.387 . S
C2007 H2010 0.950 . S
C2008 C2007 1.387 . S
C2008 C2011 1.387 . S
H2009 C2005 0.950 . S
H2010 C2007 0.950 . S
C2011 C2002 1.390 . S
C2011 H2004 0.950 . S
C2011 C2008 1.387 . S
C2012 C2013 1.387 . S
C2012 H2016 0.950 . S
C2012 C2021 1.390 . S
C2013 C2012 1.387 . S
C2013 C2015 1.387 . S
H2014 C2021 0.950 . S
C2015 C2013 1.387 . S
C2015 C2017 1.390 . S
C2015 H2019 0.950 . S
H2016 C2012 0.950 . S
C2017 C2015 1.390 . S
C2017 C2018 1.387 . S
C2017 H2020 0.950 . S
C2018 C2017 1.387 . S
C2018 C2021 1.387 . S
H2019 C2015 0.950 . S
H2020 C2017 0.950 . S
C2021 C2012 1.390 . S
C2021 H2014 0.950 . S
C2021 C2018 1.387 . S
C2022 C2023 1.387 . S
C2022 H2026 0.950 . S
C2022 C2031 1.390 . S
C2023 C2022 1.387 . S
C2023 C2025 1.387 . S
H2024 C2031 0.950 . S
C2025 C2023 1.387 . S
C2025 C2027 1.390 . S
C2025 H2029 0.950 . S
H2026 C2022 0.950 . S
C2027 C2025 1.390 . S
C2027 C2028 1.387 . S
C2027 H2030 0.950 . S
C2028 C2027 1.387 . S
C2028 C2031 1.387 . S
H2029 C2025 0.950 . S
H2030 C2027 0.950 . S
C2031 C2022 1.390 . S
C2031 H2024 0.950 . S
C2031 C2028 1.387 . S
C2032 C2033 1.387 . S
C2032 H2036 0.950 . S
C2032 C2041 1.390 . S
C2033 C2032 1.387 . S
C2033 C2035 1.387 . S
H2034 C2041 0.950 . S
C2035 C2033 1.387 . S
C2035 C2037 1.390 . S
C2035 H2039 0.950 . S
H2036 C2032 0.950 . S
C2037 C2035 1.390 . S
C2037 C2038 1.387 . S
C2037 H2040 0.950 . S
C2038 C2037 1.387 . S
C2038 C2041 1.387 . S
H2039 C2035 0.950 . S
H2040 C2037 0.950 . S
C2041 C2032 1.390 . S
C2041 H2034 0.950 . S
C2041 C2038 1.387 . S
C2042 C2043 1.387 . S
C2042 H2046 0.950 . S
C2042 C2051 1.390 . S
C2043 C2042 1.387 . S
C2043 C2045 1.387 . S
H2044 C2051 0.950 . S
C2045 C2043 1.387 . S
C2045 C2047 1.390 . S
C2045 H2049 0.950 . S
H2046 C2042 0.950 . S
C2047 C2045 1.390 . S
C2047 C2048 1.387 . S
C2047 H2050 0.950 . S
C2048 C2047 1.387 . S
C2048 C2051 1.387 . S
H2049 C2045 0.950 . S
H2050 C2047 0.950 . S
C2051 C2042 1.390 . S
C2051 H2044 0.950 . S
C2051 C2048 1.387 . S
C2052 C2053 1.387 . S
C2052 H2056 0.950 . S
C2052 C2061 1.390 . S
C2053 C2052 1.387 . S
C2053 C2055 1.387 . S
H2054 C2061 0.950 . S
C2055 C2053 1.387 . S
C2055 C2057 1.390 . S
C2055 H2059 0.950 . S
H2056 C2052 0.950 . S
C2057 C2055 1.390 . S
C2057 C2058 1.387 . S
C2057 H2060 0.950 . S
C2058 C2057 1.387 . S
C2058 C2061 1.387 . S
H2059 C2055 0.950 . S
H2060 C2057 0.950 . S
C2061 C2052 1.390 . S
C2061 H2054 0.950 . S
C2061 C2058 1.387 . S
C2062 C2063 1.387 . S
C2062 H2066 0.950 . S
C2062 C2071 1.390 . S
C2063 C2062 1.387 . S
C2063 C2065 1.387 . S
H2064 C2071 0.950 . S
C2065 C2063 1.387 . S
C2065 C2067 1.390 . S
C2065 H2069 0.950 . S
H2066 C2062 0.950 . S
C2067 C2065 1.390 . S
C2067 C2068 1.387 . S
C2067 H2070 0.950 . S
C2068 C2067 1.387 . S
C2068 C2071 1.387 . S
H2069 C2065 0.950 . S
H2070 C2067 0.950 . S
C2071 C2062 1.390 . S
C2071 H2064 0.950 . S
C2071 C2068 1.387 . S
C2072 C2073 1.387 . S
C2072 H2076 0.950 . S
C2072 C2081 1.390 . S
C2073 C2072 1.387 . S
C2073 C2075 1.387 . S
H2074 C2081 0.950 . S
C2075 C2073 1.387 . S
C2075 C2077 1.390 . S
C2075 H2079 0.950 . S
H2076 C2072 0.950 . S
C2077 C2075 1.390 . S
C2077 C2078 1.387 . S
C2077 H2080 0.950 . S
C2078 C2077 1.387 . S
C2078 C2081 1.387 . S
H2079 C2075 0.950 . S
H2080 C2077 0.950 . S
C2081 C2072 1.390 . S
C2081 H2074 0.950 . S
C2081 C2078 1.387 . S
C2082 C2083 1.387 . S
C2082 H2086 0.950 . S
C2082 C2091 1.390 . S
C2083 C2082 1.387 . S
C2083 C2085 1.387 . S
H2084 C2091 0.950 . S
C2085 C2083 1.387 . S
C2085 C2087 1.390 . S
C2085 H2089 0.950 . S
H2086 C2082 0.950 . S
C2087 C2085 1.390 . S
C2087 C2088 1.387 . S
C2087 H2090 0.950 . S
C2088 C2087 1.387 . S
C2088 C2091 1.387 . S
H2089 C2085 0.950 . S
H2090 C2087 0.950 . S
C2091 C2082 1.390 . S
C2091 H2084 0.950 . S
C2091 C2088 1.387 . S
C2092 C2093 1.387 . S
C2092 H2096 0.950 . S
C2092 C2101 1.390 . S
C2093 C2092 1.387 . S
C2093 C2095 1.387 . S
H2094 C2101 0.950 . S
C2095 C2093 1.387 . S
C2095 C2097 1.390 . S
C2095 H2099 0.950 . S
H2096 C2092 0.950 . S
C2097 C2095 1.390 . S
C2097 C2098 1.387 . S
C2097 H2100 0.950 . S
C2098 C2097 1.387 . S
C2098 C2101 1.387 . S
H2099 C2095 0.950 . S
H2100 C2097 0.950 . S
C2101 C2092 1.390 . S
C2101 H2094 0.950 . S
C2101 C2098 1.387 . S
C2102 C2103 1.387 . S
C2102 H2106 0.950 . S
C2102 C2111 1.390 . S
C2103 C2102 1.387 . S
C2103 C2105 1.387 . S
H2104 C2111 0.950 . S
C2105 C2103 1.387 . S
C2105 C2107 1.390 . S
C2105 H2109 0.950 . S
H2106 C2102 0.950 . S
C2107 C2105 1.390 . S
C2107 C2108 1.387 . S
C2107 H2110 0.950 . S
C2108 C2107 1.387 . S
C2108 C2111 1.387 . S
H2109 C2105 0.950 . S
H2110 C2107 0.950 . S
C2111 C2102 1.390 . S
C2111 H2104 0.950 . S
C2111 C2108 1.387 . S
C2112 C2113 1.387 . S
C2112 H2116 0.950 . S
C2112 C2121 1.390 . S
C2113 C2112 1.387 . S
C2113 C2115 1.387 . S
H2114 C2121 0.950 . S
C2115 C2113 1.387 . S
C2115 C2117 1.390 . S
C2115 H2119 0.950 . S
H2116 C2112 0.950 . S
C2117 C2115 1.390 . S
C2117 C2118 1.387 . S
C2117 H2120 0.950 . S
C2118 C2117 1.387 . S
C2118 C2121 1.387 . S
H2119 C2115 0.950 . S
H2120 C2117 0.950 . S
C2121 C2112 1.390 . S
C2121 H2114 0.950 . S
C2121 C2118 1.387 . S
C2122 C2123 1.387 . S
C2122 H2126 0.950 . S
C2122 C2131 1.390 . S
C2123 C2122 1.387 . S
C2123 C2125 1.387 . S
H2124 C2131 0.950 . S
C2125 C2123 1.387 . S
C2125 C2127 1.390 . S
C2125 H2129 0.950 . S
H2126 C2122 0.950 . S
C2127 C2125 1.390 . S
C2127 C2128 1.387 . S
C2127 H2130 0.950 . S
C2128 C2127 1.387 . S
C2128 C2131 1.387 . S
H2129 C2125 0.950 . S
H2130 C2127 0.950 . S
C2131 C2122 1.390 . S
C2131 H2124 0.950 . S
C2131 C2128 1.387 . S
C2132 C2133 1.387 . S
C2132 H2136 0.950 . S
C2132 C2141 1.390 . S
C2133 C2132 1.387 . S
C2133 C2135 1.387 . S
H2134 C2141 0.950 . S
C2135 C2133 1.387 . S
C2135 C2137 1.390 . S
C2135 H2139 0.950 . S
H2136 C2132 0.950 . S
C2137 C2135 1.390 . S
C2137 C2138 1.387 . S
C2137 H2140 0.950 . S
C2138 C2137 1.387 . S
C2138 C2141 1.387 . S
H2139 C2135 0.950 . S
H2140 C2137 0.950 . S
C2141 C2132 1.390 . S
C2141 H2134 0.950 . S
C2141 C2138 1.387 . S
C2142 C2143 1.387 . S
C2142 H2146 0.950 . S
C2142 C2151 1.390 . S
C2143 C2142 1.387 . S
C2143 C2145 1.387 . S
H2144 C2151 0.950 . S
C2145 C2143 1.387 . S
C2145 C2147 1.390 . S
C2145 H2149 0.950 . S
H2146 C2142 0.950 . S
C2147 C2145 1.390 . S
C2147 C2148 1.387 . S
C2147 H2150 0.950 . S
C2148 C2147 1.387 . S
C2148 C2151 1.387 . S
H2149 C2145 0.950 . S
H2150 C2147 0.950 . S
C2151 C2142 1.390 . S
C2151 H2144 0.950 . S
C2151 C2148 1.387 . S
C2152 C2153 1.387 . S
C2152 H2156 0.950 . S
C2152 C2161 1.390 . S
C2153 C2152 1.387 . S
C2153 C2155 1.387 . S
H2154 C2161 0.950 . S
C2155 C2153 1.387 . S
C2155 C2157 1.390 . S
C2155 H2159 0.950 . S
H2156 C2152 0.950 . S
C2157 C2155 1.390 . S
C2157 C2158 1.387 . S
C2157 H2160 0.950 . S
C2158 C2157 1.387 . S
C2158 C2161 1.387 . S
H2159 C2155 0.950 . S
H2160 C2157 0.950 . S
C2161 C2152 1.390 . S
C2161 H2154 0.950 . S
C2161 C2158 1.387 . S
C2162 C2163 1.387 . S
C2162 H2166 0.950 . S
C2162 C2171 1.390 . S
C2163 C2162 1.387 . S
C2163 C2165 1.387 . S
H2164 C2171 0.950 . S
C2165 C2163 1.387 . S
C2165 C2167 1.390 . S
C2165 H2169 0.950 . S
H2166 C2162 0.950 . S
C2167 C2165 1.390 . S
C2167 C2168 1.387 . S
C2167 H2170 0.950 . S
C2168 C2167 1.387 . S
C2168 C2171 1.387 . S
H2169 C2165 0.950 . S
H2170 C2167 0.950 . S
C2171 C2162 1.390 . S
C2171 H2164 0.950 . S
C2171 C2168 1.387 . S
C2172 C2173 1.387 . S
C2172 H2176 0.950 . S
C2172 C2181 1.390 . S
C2173 C2172 1.387 . S
C2173 C2175 1.387 . S
H2174 C2181 0.950 . S
C2175 C2173 1.387 . S
C2175 C2177 1.390 . S
C2175 H2179 0.950 . S
H2176 C2172 0.950 . S
C2177 C2175 1.390 . S
C2177 C2178 1.387 . S
C2177 H2180 0.950 . S
C2178 C2177 1.387 . S
C2178 C2181 1.387 . S
H2179 C2175 0.950 . S
H2180 C2177 0.950 . S
C2181 C2172 1.390 . S
C2181 H2174 0.950 . S
C2181 C2178 1.387 . S
C2182 C2183 1.387 . S
C2182 H2186 0.950 . S
C2182 C2191 1.390 . S
C2183 C2182 1.387 . S
C2183 C2185 1.387 . S
H2184 C2191 0.950 . S
C2185 C2183 1.387 . S
C2185 C2187 1.390 . S
C2185 H2189 0.950 . S
H2186 C2182 0.950 . S
C2187 C2185 1.390 . S
C2187 C2188 1.387 . S
C2187 H2190 0.950 . S
C2188 C2187 1.387 . S
C2188 C2191 1.387 . S
H2189 C2185 0.950 . S
H2190 C2187 0.950 . S
C2191 C2182 1.390 . S
C2191 H2184 0.950 . S
C2191 C2188 1.387 . S
C2192 C2193 1.387 . S
C2192 H2196 0.950 . S
C2192 C2201 1.390 . S
C2193 C2192 1.387 . S
C2193 C2195 1.387 . S
H2194 C2201 0.950 . S
C2195 C2193 1.387 . S
C2195 C2197 1.390 . S
C2195 H2199 0.950 . S
H2196 C2192 0.950 . S
C2197 C2195 1.390 . S
C2197 C2198 1.387 . S
C2197 H2200 0.950 . S
C2198 C2197 1.387 . S
C2198 C2201 1.387 . S
H2199 C2195 0.950 . S
H2200 C2197 0.950 . S
C2201 C2192 1.390 . S
C2201 H2194 0.950 . S
C2201 C2198 1.387 . S
C2202 C2203 1.387 . S
C2202 H2206 0.950 . S
C2202 C2211 1.390 . S
C2203 C2202 1.387 . S
C2203 C2205 1.387 . S
H2204 C2211 0.950 . S
C2205 C2203 1.387 . S
C2205 C2207 1.390 . S
C2205 H2209 0.950 . S
H2206 C2202 0.950 . S
C2207 C2205 1.390 . S
C2207 C2208 1.387 . S
C2207 H2210 0.950 . S
C2208 C2207 1.387 . S
C2208 C2211 1.387 . S
H2209 C2205 0.950 . S
H2210 C2207 0.950 . S
C2211 C2202 1.390 . S
C2211 H2204 0.950 . S
C2211 C2208 1.387 . S
C2212 C2213 1.387 . S
C2212 H2216 0.950 . S
C2212 C2221 1.390 . S
C2213 C2212 1.387 . S
C2213 C2215 1.387 . S
H2214 C2221 0.950 . S
C2215 C2213 1.387 . S
C2215 C2217 1.390 . S
C2215 H2219 0.950 . S
H2216 C2212 0.950 . S
C2217 C2215 1.390 . S
C2217 C2218 1.387 . S
C2217 H2220 0.950 . S
C2218 C2217 1.387 . S
C2218 C2221 1.387 . S
H2219 C2215 0.950 . S
H2220 C2217 0.950 . S
C2221 C2212 1.390 . S
C2221 H2214 0.950 . S
C2221 C2218 1.387 . S
C2222 C2223 1.387 . S
C2222 H2226 0.950 . S
C2222 C2231 1.390 . S
C2223 C2222 1.387 . S
C2223 C2225 1.387 . S
H2224 C2231 0.950 . S
C2225 C2223 1.387 . S
C2225 C2227 1.390 . S
C2225 H2229 0.950 . S
H2226 C2222 0.950 . S
C2227 C2225 1.390 . S
C2227 C2228 1.387 . S
C2227 H2230 0.950 . S
C2228 C2227 1.387 . S
C2228 C2231 1.387 . S
H2229 C2225 0.950 . S
H2230 C2227 0.950 . S
C2231 C2222 1.390 . S
C2231 H2224 0.950 . S
C2231 C2228 1.387 . S
C2232 C2233 1.387 . S
C2232 H2236 0.950 . S
C2232 C2241 1.390 . S
C2233 C2232 1.387 . S
C2233 C2235 1.387 . S
H2234 C2241 0.950 . S
C2235 C2233 1.387 . S
C2235 C2237 1.390 . S
C2235 H2239 0.950 . S
H2236 C2232 0.950 . S
C2237 C2235 1.390 . S
C2237 C2238 1.387 . S
C2237 H2240 0.950 . S
C2238 C2237 1.387 . S
C2238 C2241 1.387 . S
H2239 C2235 0.950 . S
H2240 C2237 0.950 . S
C2241 C2232 1.390 . S
C2241 H2234 0.950 . S
C2241 C2238 1.387 . S
C2242 C2243 1.387 . S
C2242 H2246 0.950 . S
C2242 C2251 1.390 . S
C2243 C2242 1.387 . S
C2243 C2245 1.387 . S
H2244 C2251 0.950 . S
C2245 C2243 1.387 . S
C2245 C2247 1.390 . S
C2245 H2249 0.950 . S
H2246 C2242 0.950 . S
C2247 C2245 1.390 . S
C2247 C2248 1.387 . S
C2247 H2250 0.950 . S
C2248 C2247 1.387 . S
C2248 C2251 1.387 . S
H2249 C2245 0.950 . S
H2250 C2247 0.950 . S
C2251 C2242 1.390 . S
C2251 H2244 0.950 . S
C2251 C2248 1.387 . S
C2252 C2253 1.387 . S
C2252 H2256 0.950 . S
C2252 C2261 1.390 . S
C2253 C2252 1.387 . S
C2253 C2255 1.387 . S
H2254 C2261 0.950 . S
C2255 C2253 1.387 . S
C2255 C2257 1.390 . S
C2255 H2259 0.950 . S
H2256 C2252 0.950 . S
C2257 C2255 1.390 . S
C2257 C2258 1.387 . S
C2257 H2260 0.950 . S
C2258 C2257 1.387 . S
C2258 C2261 1.387 . S
H2259 C2255 0.950 . S
H2260 C2257 0.950 . S
C2261 C2252 1.390 . S
C2261 H2254 0.950 . S
C2261 C2258 1.387 . S
C2262 C2263 1.387 . S
C2262 H2266 0.950 . S
C2262 C2271 1.390 . S
C2263 C2262 1.387 . S
C2263 C2265 1.387 . S
H2264 C2271 0.950 . S
C2265 C2263 1.387 . S
C2265 C2267 1.390 . S
C2265 H2269 0.950 . S
H2266 C2262 0.950 . S
C2267 C2265 1.390 . S
C2267 C2268 1.387 . S
C2267 H2270 0.950 . S
C2268 C2267 1.387 . S
C2268 C2271 1.387 . S
H2269 C2265 0.950 . S
H2270 C2267 0.950 . S
C2271 C2262 1.390 . S
C2271 H2264 0.950 . S
C2271 C2268 1.387 . S
C2272 C2273 1.387 . S
C2272 H2276 0.950 . S
C2272 C2281 1.390 . S
C2273 C2272 1.387 . S
C2273 C2275 1.387 . S
H2274 C2281 0.950 . S
C2275 C2273 1.387 . S
C2275 C2277 1.390 . S
C2275 H2279 0.950 . S
H2276 C2272 0.950 . S
C2277 C2275 1.390 . S
C2277 C2278 1.387 . S
C2277 H2280 0.950 . S
C2278 C2277 1.387 . S
C2278 C2281 1.387 . S
H2279 C2275 0.950 . S
H2280 C2277 0.950 . S
C2281 C2272 1.390 . S
C2281 H2274 0.950 . S
C2281 C2278 1.387 . S
C2282 C2283 1.387 . S
C2282 H2286 0.950 . S
C2282 C2291 1.390 . S
C2283 C2282 1.387 . S
C2283 C2285 1.387 . S
H2284 C2291 0.950 . S
C2285 C2283 1.387 . S
C2285 C2287 1.390 . S
C2285 H2289 0.950 . S
H2286 C2282 0.950 . S
C2287 C2285 1.390 . S
C2287 C2288 1.387 . S
C2287 H2290 0.950 . S
C2288 C2287 1.387 . S
C2288 C2291 1.387 . S
H2289 C2285 0.950 . S
H2290 C2287 0.950 . S
C2291 C2282 1.390 . S
C2291 H2284 0.950 . S
C2291 C2288 1.387 . S
C2292 C2293 1.387 . S
C2292 H2296 0.950 . S
C2292 C2301 1.390 . S
C2293 C2292 1.387 . S
C2293 C2295 1.387 . S
H2294 C2301 0.950 . S
C2295 C2293 1.387 . S
C2295 C2297 1.390 . S
C2295 H2299 0.950 . S
H2296 C2292 0.950 . S
C2297 C2295 1.390 . S
C2297 C2298 1.387 . S
C2297 H2300 0.950 . S
C2298 C2297 1.387 . S
C2298 C2301 1.387 . S
H2299 C2295 0.950 . S
H2300 C2297 0.950 . S
C2301 C2292 1.390 . S
C2301 H2294 0.950 . S
C2301 C2298 1.387 . S
C2302 C2303 1.387 . S
C2302 H2306 0.950 . S
C2302 C2311 1.390 . S
C2303 C2302 1.387 . S
C2303 C2305 1.387 . S
H2304 C2311 0.950 . S
C2305 C2303 1.387 . S
C2305 C2307 1.390 . S
C2305 H2309 0.950 . S
H2306 C2302 0.950 . S
C2307 C2305 1.390 . S
C2307 C2308 1.387 . S
C2307 H2310 0.950 . S
C2308 C2307 1.387 . S
C2308 C2311 1.387 . S
H2309 C2305 0.950 . S
H2310 C2307 0.950 . S
C2311 C2302 1.390 . S
C2311 H2304 0.950 . S
C2311 C2308 1.387 . S
C2312 C2313 1.387 . S
C2312 H2316 0.950 . S
C2312 C2321 1.390 . S
C2313 C2312 1.387 . S
C2313 C2315 1.387 . S
H2314 C2321 0.950 . S
C2315 C2313 1.387 . S
C2315 C2317 1.390 . S
C2315 H2319 0.950 . S
H2316 C2312 0.950 . S
C2317 C2315 1.390 . S
C2317 C2318 1.387 . S
C2317 H2320 0.950 . S
C2318 C2317 1.387 . S
C2318 C2321 1.387 . S
H2319 C2315 0.950 . S
H2320 C2317 0.950 . S
C2321 C2312 1.390 . S
C2321 H2314 0.950 . S
C2321 C2318 1.387 . S
C2322 C2323 1.387 . S
C2322 H2326 0.950 . S
C2322 C2331 1.390 . S
C2323 C2322 1.387 . S
C2323 C2325 1.387 . S
H2324 C2331 0.950 . S
C2325 C2323 1.387 . S
C2325 C2327 1.390 . S
C2325 H2329 0.950 . S
H2326 C2322 0.950 . S
C2327 C2325 1.390 . S
C2327 C2328 1.387 . S
C2327 H2330 0.950 . S
C2328 C2327 1.387 . S
C2328 C2331 1.387 . S
H2329 C2325 0.950 . S
H2330 C2327 0.950 . S
C2331 C2322 1.390 . S
C2331 H2324 0.950 . S
C2331 C2328 1.387 . S
C2332 C2333 1.387 . S
C2332 H2336 0.950 . S
C2332 C2341 1.390 . S
C2333 C2332 1.387 . S
C2333 C2335 1.387 . S
H2334 C2341 0.950 . S
C2335 C2333 1.387 . S
C2335 C2337 1.390 . S
C2335 H2339 0.950 . S
H2336 C2332 0.950 . S
C2337 C2335 1.390 . S
C2337 C2338 1.387 . S
C2337 H2340 0.950 . S
C2338 C2337 1.387 . S
C2338 C2341 1.387 . S
H2339 C2335 0.950 . S
H2340 C2337 0.950 . S
C2341 C2332 1.390 . S
C2341 H2334 0.950 . S
C2341 C2338 1.387 . S
C2342 C2343 1.387 . S
C2342 H2346 0.950 . S
C2342 C2351 1.390 . S
C2343 C2342 1.387 . S
C2343 C2345 1.387 . S
H2344 C2351 0.950 . S
C2345 C2343 1.387 . S
C2345 C2347 1.390 . S
C2345 H2349 0.950 . S
H2346 C2342 0.950 . S
C2347 C2345 1.390 . S
C2347 C2348 1.387 . S
C2347 H2350 0.950 . S
C2348 C2347 1.387 . S
C2348 C2351 1.387 . S
H2349 C2345 0.950 . S
H2350 C2347 0.950 . S
C2351 C2342 1.390 . S
C2351 H2344 0.950 . S
C2351 C2348 1.387 . S
C2352 C2353 1.387 . S
C2352 H2356 0.950 . S
C2352 C2361 1.390 . S
C2353 C2352 1.387 . S
C2353 C2355 1.387 . S
H2354 C2361 0.950 . S
C2355 C2353 1.387 . S
C2355 C2357 1.390 . S
C2355 H2359 0.950 . S
H2356 C2352 0.950 . S
C2357 C2355 1.390 . S
C2357 C2358 1.387 . S
C2357 H2360 0.950 . S
C2358 C2357 1.387 . S
C2358 C2361 1.387 . S
H2359 C2355 0.950 . S
H2360 C2357 0.950 . S
C2361 C2352 1.390 . S
C2361 H2354 0.950 . S
C2361 C2358 1.387 . S
C2362 C2363 1.387 . S
C2362 H2366 0.950 . S
C2362 C2371 1.390 . S
C2363 C2362 1.387 . S
C2363 C2365 1.387 . S
H2364 C2371 0.950 . S
C2365 C2363 1.387 . S
C2365 C2367 1.390 . S
C2365 H2369 0.950 . S
H2366 C2362 0.950 . S
C2367 C2365 1.390 . S
C2367 C2368 1.387 . S
C2367 H2370 0.950 . S
C2368 C2367 1.387 . S
C2368 C2371 1.387 . S
H2369 C2365 0.950 . S
H2370 C2367 0.950 . S
C2371 C2362 1.390 . S
C2371 H2364 0.950 . S
C2371 C2368 1.387 . S
C2372 C2373 1.387 . S
C2372 H2376 0.950 . S
C2372 C2381 1.390 . S
C2373 C2372 1.387 . S
C2373 C2375 1.387 . S
H2374 C2381 0.950 . S
C2375 C2373 1.387 . S
C2375 C2377 1.390 . S
C2375 H2379 0.950 . S
H2376 C2372 0.950 . S
C2377 C2375 1.390 . S
C2377 C2378 1.387 . S
C2377 H2380 0.950 . S
C2378 C2377 1.387 . S
C2378 C2381 1.387 . S
H2379 C2375 0.950 . S
H2380 C2377 0.950 . S
C2381 C2372 1.390 . S
C2381 H2374 0.950 . S
C2381 C2378 1.387 . S
C2382 C2383 1.387 . S
C2382 H2386 0.950 . S
C2382 C2391 1.390 . S
C2383 C2382 1.387 . S
C2383 C2385 1.387 . S
H2384 C2391 0.950 . S
C2385 C2383 1.387 . S
C2385 C2387 1.390 . S
C2385 H2389 0.950 . S
H2386 C2382 0.950 . S
C2387 C2385 1.390 . S
C2387 C2388 1.387 . S
C2387 H2390 0.950 . S
C2388 C2387 1.387 . S
C2388 C2391 1.387 . S
H2389 C2385 0.950 . S
H2390 C2387 0.950 . S
C2391 C2382 1.390 . S
C2391 H2384 0.950 . S
C2391 C2388 1.387 . S
C2392 C2393 1.387 . S
C2392 H2396 0.950 . S
C2392 C2401 1.390 . S
C2393 C2392 1.387 . S
C2393 C2395 1.387 . S
H2394 C2401 0.950 . S
C2395 C2393 1.387 . S
C2395 C2397 1.390 . S
C2395 H2399 0.950 . S
H2396 C2392 0.950 . S
C2397 C2395 1.390 . S
C2397 C2398 1.387 . S
C2397 H2400 0.950 . S
C2398 C2397 1.387 . S
C2398 C2401 1.387 . S
H2399 C2395 0.950 . S
H2400 C2397 0.950 . S
C2401 C2392 1.390 . S
C2401 H2394 0.950 . S
C2401 C2398 1.387 . S
C2402 C2403 1.387 . S
C2402 H2406 0.950 . S
C2402 C2411 1.390 . S
C2403 C2402 1.387 . S
C2403 C2405 1.387 . S
H2404 C2411 0.950 . S
C2405 C2403 1.387 . S
C2405 C2407 1.390 . S
C2405 H2409 0.950 . S
H2406 C2402 0.950 . S
C2407 C2405 1.390 . S
C2407 C2408 1.387 . S
C2407 H2410 0.950 . S
C2408 C2407 1.387 . S
C2408 C2411 1.387 . S
H2409 C2405 0.950 . S
H2410 C2407 0.950 . S
C2411 C2402 1.390 . S
C2411 H2404 0.950 . S
C2411 C2408 1.387 . S
C2412 C2413 1.387 . S
C2412 H2416 0.950 . S
C2412 C2421 1.390 . S
C2413 C2412 1.387 . S
C2413 C2415 1.387 . S
H2414 C2421 0.950 . S
C2415 C2413 1.387 . S
C2415 C2417 1.390 . S
C2415 H2419 0.950 . S
H2416 C2412 0.950 . S
C2417 C2415 1.390 . S
C2417 C2418 1.387 . S
C2417 H2420 0.950 . S
C2418 C2417 1.387 . S
C2418 C2421 1.387 . S
H2419 C2415 0.950 . S
H2420 C2417 0.950 . S
C2421 C2412 1.390 . S
C2421 H2414 0.950 . S
C2421 C2418 1.387 . S
C2422 C2423 1.387 . S
C2422 H2426 0.950 . S
C2422 C2431 1.390 . S
C2423 C2422 1.387 . S
C2423 C2425 1.387 . S
H2424 C2431 0.950 . S
C2425 C2423 1.387 . S
C2425 C2427 1.390 . S
C2425 H2429 0.950 . S
H2426 C2422 0.950 . S
C2427 C2425 1.390 . S
C2427 C2428 1.387 . S
C2427 H2430 0.950 . S
C2428 C2427 1.387 . S
C2428 C2431 1.387 . S
H2429 C2425 0.950 . S
H2430 C2427 0.950 . S
C2431 C2422 1.390 . S
C2431 H2424 0.950 . S
C2431 C2428 1.387 . S
C2432 C2433 1.387 . S
C2432 H2436 0.950 . S
C2432 C2441 1.390 . S
C2433 C2432 1.387 . S
C2433 C2435 1.387 . S
H2434 C2441 0.950 . S
C2435 C2433 1.387 . S
C2435 C2437 1.390 . S
C2435 H2439 0.950 . S
H2436 C2432 0.950 . S
C2437 C2435 1.390 . S
C2437 C2438 1.387 . S
C2437 H2440 0.950 . S
C2438 C2437 1.387 . S
C2438 C2441 1.387 . S
H2439 C2435 0.950 . S
H2440 C2437 0.950 . S
C2441 C2432 1.390 . S
C2441 H2434 0.950 . S
C2441 C2438 1.387 . S
C2442 C2443 1.387 . S
C2442 H2446 0.950 . S
C2442 C2451 1.390 . S
C2443 C2442 1.387 . S
C2443 C2445 1.387 . S
H2444 C2451 0.950 . S
C2445 C2443 1.387 . S
C2445 C2447 1.390 . S
C2445 H2449 0.950 . S
H2446 C2442 0.950 . S
C2447 C2445 1.390 . S
C2447 C2448 1.387 . S
C2447 H2450 0.950 . S
C2448 C2447 1.387 . S
C2448 C2451 1.387 . S
H2449 C2445 0.950 . S
H2450 C2447 0.950 . S
C2451 C2442 1.390 . S
C2451 H2444 0.950 . S
C2451 C2448 1.387 . S
C2452 C2453 1.387 . S
C2452 H2456 0.950 . S
C2452 C2461 1.390 . S
C2453 C2452 1.387 . S
C2453 C2455 1.387 . S
H2454 C2461 0.950 . S
C2455 C2453 1.387 . S
C2455 C2457 1.390 . S
C2455 H2459 0.950 . S
H2456 C2452 0.950 . S
C2457 C2455 1.390 . S
C2457 C2458 1.387 . S
C2457 H2460 0.950 . S
C2458 C2457 1.387 . S
C2458 C2461 1.387 . S
H2459 C2455 0.950 . S
H2460 C2457 0.950 . S
C2461 C2452 1.390 . S
C2461 H2454 0.950 . S
C2461 C2458 1.387 . S
C2462 C2463 1.387 . S
C2462 H2466 0.950 . S
C2462 C2471 1.390 . S
C2463 C2462 1.387 . S
C2463 C2465 1.387 . S
H2464 C2471 0.950 . S
C2465 C2463 1.387 . S
C2465 C2467 1.390 . S
C2465 H2469 0.950 . S
H2466 C2462 0.950 . S
C2467 C2465 1.390 . S
C2467 C2468 1.387 . S
C2467 H2470 0.950 . S
C2468 C2467 1.387 . S
C2468 C2471 1.387 . S
H2469 C2465 0.950 . S
H2470 C2467 0.950 . S
C2471 C2462 1.390 . S
C2471 H2464 0.950 . S
C2471 C2468 1.387 . S
C2472 C2473 1.387 . S
C2472 H2476 0.950 . S
C2472 C2481 1.390 . S
C2473 C2472 1.387 . S
C2473 C2475 1.387 . S
H2474 C2481 0.950 . S
C2475 C2473 1.387 . S
C2475 C2477 1.390 . S
C2475 H2479 0.950 . S
H2476 C2472 0.950 . S
C2477 C2475 1.390 . S
C2477 C2478 1.387 . S
C2477 H2480 0.950 . S
C2478 C2477 1.387 . S
C2478 C2481 1.387 . S
H2479 C2475 0.950 . S
H2480 C2477 0.950 . S
C2481 C2472 1.390 . S
C2481 H2474 0.950 . S
C2481 C2478 1.387 . S
C2482 C2483 1.387 . S
C2482 H2486 0.950 . S
C2482 C2491 1.390 . S
C2483 C2482 1.387 . S
C2483 C2485 1.387 . S
H2484 C2491 0.950 . S
C2485 C2483 1.387 . S
C2485 C2487 1.390 . S
C2485 H2489 0.950 . S
H2486 C2482 0.950 . S
C2487 C2485 1.390 . S
C2487 C2488 1.387 . S
C2487 H2490 0.950 . S
C2488 C2487 1.387 . S
C2488 C2491 1.387 . S
H2489 C2485 0.950 . S
H2490 C2487 0.950 . S
C2491 C2482 1.390 . S
C2491 H2484 0.950 . S
C2491 C2488 1.387 . S
C2492 C2493 1.387 . S
C2492 H2496 0.950 . S
C2492 C2501 1.390 . S
C2493 C2492 1.387 . S
C2493 C2495 1.387 . S
H2494 C2501 0.950 . S
C2495 C2493 1.387 . S
C2495 C2497 1.390 . S
C2495 H2499 0.950 . S
H2496 C2492 0.950 . S
C2497 C2495 1.390 . S
C2497 C2498 1.387 . S
C2497 H2500 0.950 . S
C2498 C2497 1.387 . S
C2498 C2501 1.387 . S
H2499 C2495 0.950 . S
H2500 C2497 0.950 . S
C2501 C2492 1.390 . S
C2501 H2494 0.950 . S
C2501 C2498 1.387 . S
C2502 C2503 1.387 . S
C2502 H2506 0.950 . S
C2502 C2511 1.390 . S
C2503 C2502 1.387 . S
C2503 C2505 1.387 . S
H2504 C2511 0.950 . S
C2505 C2503 1.387 . S
C2505 C2507 1.390 . S
C2505 H2509 0.950 . S
H2506 C2502 0.950 . S
C2507 C2505 1.390 . S
C2507 C2508 1.387 . S
C2507 H2510 0.950 . S
C2508 C2507 1.387 . S
C2508 C2511 1.387 . S
H2509 C2505 0.950 . S
H2510 C2507 0.950 . S
C2511 C2502 1.390 . S
C2511 H2504 0.950 . S
C2511 C2508 1.387 . S
C2512 C2513 1.387 . S
C2512 H2516 0.950 . S
C2512 C2521 1.390 . S
C2513 C2512 1.387 . S
C2513 C2515 1.387 . S
H2514 C2521 0.950 . S
C2515 C2513 1.387 . S
C2515 C2517 1.390 . S
C2515 H2519 0.950 . S
H2516 C2512 0.950 . S
C2517 C2515 1.390 . S
C2517 C2518 1.387 . S
C2517 H2520 0.950 . S
C2518 C2517 1.387 . S
C2518 C2521 1.387 . S
H2519 C2515 0.950 . S
H2520 C2517 0.950 . S
C2521 C2512 1.390 . S
C2521 H2514 0.950 . S
C2521 C2518 1.387 . S
C2522 C2523 1.387 . S
C2522 H2526 0.950 . S
C2522 C2531 1.390 . S
C2523 C2522 1.387 . S
C2523 C2525 1.387 . S
H2524 C2531 0.950 . S
C2525 C2523 1.387 . S
C2525 C2527 1.390 . S
C2525 H2529 0.950 . S
H2526 C2522 0.950 . S
C2527 C2525 1.390 . S
C2527 C2528 1.387 . S
C2527 H2530 0.950 . S
C2528 C2527 1.387 . S
C2528 C2531 1.387 . S
H2529 C2525 0.950 . S
H2530 C2527 0.950 . S
C2531 C2522 1.390 . S
C2531 H2524 0.950 . S
C2531 C2528 1.387 . S
C2532 C2533 1.387 . S
C2532 H2536 0.950 . S
C2532 C2541 1.390 . S
C2533 C2532 1.387 . S
C2533 C2535 1.387 . S
H2534 C2541 0.950 . S
C2535 C2533 1.387 . S
C2535 C2537 1.390 . S
C2535 H2539 0.950 . S
H2536 C2532 0.950 . S
C2537 C2535 1.390 . S
C2537 C2538 1.387 . S
C2537 H2540 0.950 . S
C2538 C2537 1.387 . S
C2538 C2541 1.387 . S
H2539 C2535 0.950 . S
H2540 C2537 0.950 . S
C2541 C2532 1.390 . S
C2541 H2534 0.950 . S
C2541 C2538 1.387 . S
C2542 C2543 1.387 . S
C2542 H2546 0.950 . S
C2542 C2551 1.390 . S
C2543 C2542 1.387 . S
C2543 C2545 1.387 . S
H2544 C2551 0.950 . S
C2545 C2543 1.387 . S
C2545 C2547 1.390 . S
C2545 H2549 0.950 . S
H2546 C2542 0.950 . S
C2547 C2545 1.390 . S
C2547 C2548 1.387 . S
C2547 H2550 0.950 . S
C2548 C2547 1.387 . S
C2548 C2551 1.387 . S
H2549 C2545 0.950 . S
H2550 C2547 0.950 . S
C2551 C2542 1.390 . S
C2551 H2544 0.950 . S
C2551 C2548 1.387 . S
C2552 C2553 1.387 . S
C2552 H2556 0.950 . S
C2552 C2561 1.390 . S
C2553 C2552 1.387 . S
C2553 C2555 1.387 . S
H2554 C2561 0.950 . S
C2555 C2553 1.387 . S
C2555 C2557 1.390 . S
C2555 H2559 0.950 . S
H2556 C2552 0.950 . S
C2557 C2555 1.390 . S
C2557 C2558 1.387 . S
C2557 H2560 0.950 . S
C2558 C2557 1.387 . S
C2558 C2561 1.387 . S
H2559 C2555 0.950 . S
H2560 C2557 0.950 . S
C2561 C2552 1.390 . S
C2561 H2554 0.950 . S
C2561 C2558 1.387 . S
C2562 C2563 1.387 . S
C2562 H2566 0.950 . S
C2562 C2571 1.390 . S
C2563 C2562 1.387 . S
C2563 C2565 1.387 . S
H2564 C2571 0.950 . S
C2565 C2563 1.387 . S
C2565 C2567 1.390 . S
C2565 H2569 0.950 . S
H2566 C2562 0.950 . S
C2567 C2565 1.390 . S
C2567 C2568 1.387 . S
C2567 H2570 0.950 . S
C2568 C2567 1.387 . S
C2568 C2571 1.387 . S
H2569 C2565 0.950 . S
H2570 C2567 0.950 . S
C2571 C2562 1.390 . S
C2571 H2564 0.950 . S
C2571 C2568 1.387 . S
C2572 C2573 1.387 . S
C2572 H2576 0.950 . S
C2572 C2581 1.390 . S
C2573 C2572 1.387 . S
C2573 C2575 1.387 . S
H2574 C2581 0.950 . S
C2575 C2573 1.387 . S
C2575 C2577 1.390 . S
C2575 H2579 0.950 . S
H2576 C2572 0.950 . S
C2577 C2575 1.390 . S
C2577 C2578 1.387 . S
C2577 H2580 0.950 . S
C2578 C2577 1.387 . S
C2578 C2581 1.387 . S
H2579 C2575 0.950 . S
H2580 C2577 0.950 . S
C2581 C2572 1.390 . S
C2581 H2574 0.950 . S
C2581 C2578 1.387 . S
C2582 C2583 1.387 . S
C2582 H2586 0.950 . S
C2582 C2591 1.390 . S
C2583 C2582 1.387 . S
C2583 C2585 1.387 . S
H2584 C2591 0.950 . S
C2585 C2583 1.387 . S
C2585 C2587 1.390 . S
C2585 H2589 0.950 . S
H2586 C2582 0.950 . S
C2587 C2585 1.390 . S
C2587 C2588 1.387 . S
C2587 H2590 0.950 . S
C2588 C2587 1.387 . S
C2588 C2591 1.387 . S
H2589 C2585 0.950 . S
H2590 C2587 0.950 . S
C2591 C2582 1.390 . S
C2591 H2584 0.950 . S
C2591 C2588 1.387 . S
C2592 C2593 1.387 . S
C2592 H2596 0.950 . S
C2592 C2601 1.390 . S
C2593 C2592 1.387 . S
C2593 C2595 1.387 . S
H2594 C2601 0.950 . S
C2595 C2593 1.387 . S
C2595 C2597 1.390 . S
C2595 H2599 0.950 . S
H2596 C2592 0.950 . S
C2597 C2595 1.390 . S
C2597 C2598 1.387 . S
C2597 H2600 0.950 . S
C2598 C2597 1.387 . S
C2598 C2601 1.387 . S
H2599 C2595 0.950 . S
H2600 C2597 0.950 . S
C2601 C2592 1.390 . S
C2601 H2594 0.950 . S
C2601 C2598 1.387 . S
C2602 C2603 1.387 . S
C2602 H2606 0.950 . S
C2602 C2611 1.390 . S
C2603 C2602 1.387 . S
C2603 C2605 1.387 . S
H2604 C2611 0.950 . S
C2605 C2603 1.387 . S
C2605 C2607 1.390 . S
C2605 H2609 0.950 . S
H2606 C2602 0.950 . S
C2607 C2605 1.390 . S
C2607 C2608 1.387 . S
C2607 H2610 0.950 . S
C2608 C2607 1.387 . S
C2608 C2611 1.387 . S
H2609 C2605 0.950 . S
H2610 C2607 0.950 . S
C2611 C2602 1.390 . S
C2611 H2604 0.950 . S
C2611 C2608 1.387 . S
C2612 C2613 1.387 . S
C2612 H2616 0.950 . S
C2612 C2621 1.390 . S
C2613 C2612 1.387 . S
C2613 C2615 1.387 . S
H2614 C2621 0.950 . S
C2615 C2613 1.387 . S
C2615 C2617 1.390 . S
C2615 H2619 0.950 . S
H2616 C2612 0.950 . S
C2617 C2615 1.390 . S
C2617 C2618 1.387 . S
C2617 H2620 0.950 . S
C2618 C2617 1.387 . S
C2618 C2621 1.387 . S
H2619 C2615 0.950 . S
H2620 C2617 0.950 . S
C2621 C2612 1.390 . S
C2621 H2614 0.950 . S
C2621 C2618 1.387 . S
C2622 C2623 1.387 . S
C2622 H2626 0.950 . S
C2622 C2631 1.390 . S
C2623 C2622 1.387 . S
C2623 C2625 1.387 . S
H2624 C2631 0.950 . S
C2625 C2623 1.387 . S
C2625 C2627 1.390 . S
C2625 H2629 0.950 . S
H2626 C2622 0.950 . S
C2627 C2625 1.390 . S
C2627 C2628 1.387 . S
C2627 H2630 0.950 . S
C2628 C2627 1.387 . S
C2628 C2631 1.387 . S
H2629 C2625 0.950 . S
H2630 C2627 0.950 . S
C2631 C2622 1.390 . S
C2631 H2624 0.950 . S
C2631 C2628 1.387 . S
C2632 C2633 1.387 . S
C2632 H2636 0.950 . S
C2632 C2641 1.390 . S
C2633 C2632 1.387 . S
C2633 C2635 1.387 . S
H2634 C2641 0.950 . S
C2635 C2633 1.387 . S
C2635 C2637 1.390 . S
C2635 H2639 0.950 . S
H2636 C2632 0.950 . S
C2637 C2635 1.390 . S
C2637 C2638 1.387 . S
C2637 H2640 0.950 . S
C2638 C2637 1.387 . S
C2638 C2641 1.387 . S
H2639 C2635 0.950 . S
H2640 C2637 0.950 . S
C2641 C2632 1.390 . S
C2641 H2634 0.950 . S
C2641 C2638 1.387 . S
C2642 C2643 1.387 . S
C2642 H2646 0.950 . S
C2642 C2651 1.390 . S
C2643 C2642 1.387 . S
C2643 C2645 1.387 . S
H2644 C2651 0.950 . S
C2645 C2643 1.387 . S
C2645 C2647 1.390 . S
C2645 H2649 0.950 . S
H2646 C2642 0.950 . S
C2647 C2645 1.390 . S
C2647 C2648 1.387 . S
C2647 H2650 0.950 . S
C2648 C2647 1.387 . S
C2648 C2651 1.387 . S
H2649 C2645 0.950 . S
H2650 C2647 0.950 . S
C2651 C2642 1.390 . S
C2651 H2644 0.950 . S
C2651 C2648 1.387 . S
C2652 C2653 1.387 . S
C2652 H2656 0.950 . S
C2652 C2661 1.390 . S
C2653 C2652 1.387 . S
C2653 C2655 1.387 . S
H2654 C2661 0.950 . S
C2655 C2653 1.387 . S
C2655 C2657 1.390 . S
C2655 H2659 0.950 . S
H2656 C2652 0.950 . S
C2657 C2655 1.390 . S
C2657 C2658 1.387 . S
C2657 H2660 0.950 . S
C2658 C2657 1.387 . S
C2658 C2661 1.387 . S
H2659 C2655 0.950 . S
H2660 C2657 0.950 . S
C2661 C2652 1.390 . S
C2661 H2654 0.950 . S
C2661 C2658 1.387 . S
C2662 C2663 1.387 . S
C2662 H2666 0.950 . S
C2662 C2671 1.390 . S
C2663 C2662 1.387 . S
C2663 C2665 1.387 . S
H2664 C2671 0.950 . S
C2665 C2663 1.387 . S
C2665 C2667 1.390 . S
C2665 H2669 0.950 . S
H2666 C2662 0.950 . S
C2667 C2665 1.390 . S
C2667 C2668 1.387 . S
C2667 H2670 0.950 . S
C2668 C2667 1.387 . S
C2668 C2671 1.387 . S
H2669 C2665 0.950 . S
H2670 C2667 0.950 . S
C2671 C2662 1.390 . S
C2671 H2664 0.950 . S
C2671 C2668 1.387 . S
C2672 C2673 1.387 . S
C2672 H2676 0.950 . S
C2672 C2681 1.390 . S
C2673 C2672 1.387 . S
C2673 C2675 1.387 . S
H2674 C2681 0.950 . S
C2675 C2673 1.387 . S
C2675 C2677 1.390 . S
C2675 H2679 0.950 . S
H2676 C2672 0.950 . S
C2677 C2675 1.390 . S
C2677 C2678 1.387 . S
C2677 H2680 0.950 . S
C2678 C2677 1.387 . S
C2678 C2681 1.387 . S
H2679 C2675 0.950 . S
H2680 C2677 0.950 . S
C2681 C2672 1.390 . S
C2681 H2674 0.950 . S
C2681 C2678 1.387 . S
C2682 C2683 1.387 . S
C2682 H2686 0.950 . S
C2682 C2691 1.390 . S
C2683 C2682 1.387 . S
C2683 C2685 1.387 . S
H2684 C2691 0.950 . S
C2685 C2683 1.387 . S
C2685 C2687 1.390 . S
C2685 H2689 0.950 . S
H2686 C2682 0.950 . S
C2687 C2685 1.390 . S
C2687 C2688 1.387 . S
C2687 H2690 0.950 . S
C2688 C2687 1.387 . S
C2688 C2691 1.387 . S
H2689 C2685 0.950 . S
H2690 C2687 0.950 . S
C2691 C2682 1.390 . S
C2691 H2684 0.950 . S
C2691 C2688 1.387 . S
C2692 C2693 1.387 . S
C2692 H2696 0.950 . S
C2692 C2701 1.390 . S
C2693 C2692 1.387 . S
C2693 C2695 1.387 . S
H2694 C2701 0.950 . S
C2695 C2693 1.387 . S
C2695 C2697 1.390 . S
C2695 H2699 0.950 . S
H2696 C2692 0.950 . S
C2697 C2695 1.390 . S
C2697 C2698 1.387 . S
C2697 H2700 0.950 . S
C2698 C2697 1.387 . S
C2698 C2701 1.387 . S
H2699 C2695 0.950 . S
H2700 C2697 0.950 . S
C2701 C2692 1.390 . S
C2701 H2694 0.950 . S
C2701 C2698 1.387 . S
C2702 C2703 1.387 . S
C2702 H2706 0.950 . S
C2702 C2711 1.390 . S
C2703 C2702 1.387 . S
C2703 C2705 1.387 . S
H2704 C2711 0.950 . S
C2705 C2703 1.387 . S
C2705 C2707 1.390 . S
C2705 H2709 0.950 . S
H2706 C2702 0.950 . S
C2707 C2705 1.390 . S
C2707 C2708 1.387 . S
C2707 H2710 0.950 . S
C2708 C2707 1.387 . S
C2708 C2711 1.387 . S
H2709 C2705 0.950 . S
H2710 C2707 0.950 . S
C2711 C2702 1.390 . S
C2711 H2704 0.950 . S
C2711 C2708 1.387 . S
C2712 C2713 1.387 . S
C2712 H2716 0.950 . S
C2712 C2721 1.390 . S
C2713 C2712 1.387 . S
C2713 C2715 1.387 . S
H2714 C2721 0.950 . S
C2715 C2713 1.387 . S
C2715 C2717 1.390 . S
C2715 H2719 0.950 . S
H2716 C2712 0.950 . S
C2717 C2715 1.390 . S
C2717 C2718 1.387 . S
C2717 H2720 0.950 . S
C2718 C2717 1.387 . S
C2718 C2721 1.387 . S
H2719 C2715 0.950 . S
H2720 C2717 0.950 . S
C2721 C2712 1.390 . S
C2721 H2714 0.950 . S
C2721 C2718 1.387 . S
C2722 C2723 1.387 . S
C2722 H2726 0.950 . S
C2722 C2731 1.390 . S
C2723 C2722 1.387 . S
C2723 C2725 1.387 . S
H2724 C2731 0.950 . S
C2725 C2723 1.387 . S
C2725 C2727 1.390 . S
C2725 H2729 0.950 . S
H2726 C2722 0.950 . S
C2727 C2725 1.390 . S
C2727 C2728 1.387 . S
C2727 H2730 0.950 . S
C2728 C2727 1.387 . S
C2728 C2731 1.387 . S
H2729 C2725 0.950 . S
H2730 C2727 0.950 . S
C2731 C2722 1.390 . S
C2731 H2724 0.950 . S
C2731 C2728 1.387 . S
C2732 C2733 1.387 . S
C2732 H2736 0.950 . S
C2732 C2741 1.390 . S
C2733 C2732 1.387 . S
C2733 C2735 1.387 . S
H2734 C2741 0.950 . S
C2735 C2733 1.387 . S
C2735 C2737 1.390 . S
C2735 H2739 0.950 . S
H2736 C2732 0.950 . S
C2737 C2735 1.390 . S
C2737 C2738 1.387 . S
C2737 H2740 0.950 . S
C2738 C2737 1.387 . S
C2738 C2741 1.387 . S
H2739 C2735 0.950 . S
H2740 C2737 0.950 . S
C2741 C2732 1.390 . S
C2741 H2734 0.950 . S
C2741 C2738 1.387 . S
C2742 C2743 1.387 . S
C2742 H2746 0.950 . S
C2742 C2751 1.390 . S
C2743 C2742 1.387 . S
C2743 C2745 1.387 . S
H2744 C2751 0.950 . S
C2745 C2743 1.387 . S
C2745 C2747 1.390 . S
C2745 H2749 0.950 . S
H2746 C2742 0.950 . S
C2747 C2745 1.390 . S
C2747 C2748 1.387 . S
C2747 H2750 0.950 . S
C2748 C2747 1.387 . S
C2748 C2751 1.387 . S
H2749 C2745 0.950 . S
H2750 C2747 0.950 . S
C2751 C2742 1.390 . S
C2751 H2744 0.950 . S
C2751 C2748 1.387 . S
C2752 C2753 1.387 . S
C2752 H2756 0.950 . S
C2752 C2761 1.390 . S
C2753 C2752 1.387 . S
C2753 C2755 1.387 . S
H2754 C2761 0.950 . S
C2755 C2753 1.387 . S
C2755 C2757 1.390 . S
C2755 H2759 0.950 . S
H2756 C2752 0.950 . S
C2757 C2755 1.390 . S
C2757 C2758 1.387 . S
C2757 H2760 0.950 . S
C2758 C2757 1.387 . S
C2758 C2761 1.387 . S
H2759 C2755 0.950 . S
H2760 C2757 0.950 . S
C2761 C2752 1.390 . S
C2761 H2754 0.950 . S
C2761 C2758 1.387 . S
C2762 C2763 1.387 . S
C2762 H2766 0.950 . S
C2762 C2771 1.390 . S
C2763 C2762 1.387 . S
C2763 C2765 1.387 . S
H2764 C2771 0.950 . S
C2765 C2763 1.387 . S
C2765 C2767 1.390 . S
C2765 H2769 0.950 . S
H2766 C2762 0.950 . S
C2767 C2765 1.390 . S
C2767 C2768 1.387 . S
C2767 H2770 0.950 . S
C2768 C2767 1.387 . S
C2768 C2771 1.387 . S
H2769 C2765 0.950 . S
H2770 C2767 0.950 . S
C2771 C2762 1.390 . S
C2771 H2764 0.950 . S
C2771 C2768 1.387 . S
C2772 C2773 1.387 . S
C2772 H2776 0.950 . S
C2772 C2781 1.390 . S
C2773 C2772 1.387 . S
C2773 C2775 1.387 . S
H2774 C2781 0.950 . S
C2775 C2773 1.387 . S
C2775 C2777 1.390 . S
C2775 H2779 0.950 . S
H2776 C2772 0.950 . S
C2777 C2775 1.390 . S
C2777 C2778 1.387 . S
C2777 H2780 0.950 . S
C2778 C2777 1.387 . S
C2778 C2781 1.387 . S
H2779 C2775 0.950 . S
H2780 C2777 0.950 . S
C2781 C2772 1.390 . S
C2781 H2774 0.950 . S
C2781 C2778 1.387 . S
C2782 C2783 1.387 . S
C2782 H2786 0.950 . S
C2782 C2791 1.390 . S
C2783 C2782 1.387 . S
C2783 C2785 1.387 . S
H2784 C2791 0.950 . S
C2785 C2783 1.387 . S
C2785 C2787 1.390 . S
C2785 H2789 0.950 . S
H2786 C2782 0.950 . S
C2787 C2785 1.390 . S
C2787 C2788 1.387 . S
C2787 H2790 0.950 . S
C2788 C2787 1.387 . S
C2788 C2791 1.387 . S
H2789 C2785 0.950 . S
H2790 C2787 0.950 . S
C2791 C2782 1.390 . S
C2791 H2784 0.950 . S
C2791 C2788 1.387 . S
C1838 N1292 1.493 . S
C1833 C21 1.551 . S
C1848 C1319 1.556 . S
C1843 C42 1.541 . S
C1853 C82 1.539 . S
C1858 C1333 1.534 . S
C1868 N1351 1.439 . S
C1863 C135 1.484 . S
C1873 C175 1.528 . S
C1878 C1356 1.527 . S
C1883 C221 1.545 . S
C1888 C1296 1.550 . S
C1893 C255 1.417 . S
C1898 N1315 1.376 . S
C1908 N1328 1.509 . S
C1903 C301 1.527 . S
C1918 N1374 1.419 . S
C1913 C15 1.464 . S
C1923 C55 1.501 . S
C1928 N1397 1.478 . S
C1933 C101 1.616 . S
C1938 N1420 1.601 . S
C1948 N1453 1.424 . S
C1943 C141 1.456 . S
C1953 C162 1.513 . S
C1958 C1480 1.502 . S
C1968 C1503 1.588 . S
C1963 C215 1.591 . S
C1973 C261 1.497 . S
C1978 C1526 1.522 . S
C1988 C1540 1.466 . S
C1983 C282 1.438 . S
C1993 C2 1.484 . S
C1998 C1457 1.494 . S
C2003 C181 1.444 . S
C2008 N1499 1.413 . S
C2018 N1522 1.470 . S
C2013 C202 1.510 . S
C2023 C242 1.466 . S
C2028 N1535 1.449 . S
C2038 N1476 1.426 . S
C2033 C295 1.484 . S
C2048 C1402 1.688 . S
C2043 C95 1.693 . S
C2053 C122 1.505 . S
C2058 C1425 1.520 . S
C2068 C1379 1.559 . S
C2063 C61 1.546 . S
C2078 C1572 1.509 . S
C2073 C341 1.515 . S
C2083 C362 1.531 . S
C2088 C1586 1.553 . S
C2093 C402 1.532 . S
C2098 N1614 1.478 . S
C2108 N1627 1.420 . S
C2103 C455 1.466 . S
C2113 C495 1.545 . S
C2118 C1632 1.543 . S
C2123 C541 1.537 . S
C2128 N1568 1.479 . S
C2133 C575 1.508 . S
C2138 N1581 1.479 . S
C2143 C621 1.488 . S
C2148 C1618 1.507 . S
C2158 N1466 1.437 . S
C2153 C335 1.471 . S
C2163 C375 1.476 . S
C2168 N1650 1.433 . S
C2178 N1512 1.494 . S
C2173 C421 1.525 . S
C2183 C461 1.511 . S
C2188 C1687 1.537 . S
C2193 C482 1.538 . S
C2198 C1388 1.539 . S
C2208 C1701 1.622 . S
C2203 C535 1.625 . S
C2213 C581 1.532 . S
C2218 C1434 1.551 . S
C2228 N1719 1.419 . S
C2223 C602 1.437 . S
C2233 C322 1.500 . S
C2238 N1683 1.453 . S
C2248 N1696 1.449 . S
C2243 C501 1.482 . S
C2253 C522 1.515 . S
C2258 N1430 1.464 . S
C2268 C1724 1.452 . S
C2263 C562 1.431 . S
C2273 C615 1.456 . S
C2278 N1384 1.409 . S
C2283 C415 1.599 . S
C2288 C1655 1.595 . S
C2293 C442 1.542 . S
C2298 C1517 1.559 . S
C2303 C381 1.544 . S
C2308 C1471 1.565 . S
C2313 C661 1.570 . S
C2318 C1609 1.568 . S
C2328 C1641 1.500 . S
C2323 C682 1.489 . S
C2333 C722 1.503 . S
C2338 N1558 1.457 . S
C2343 C775 1.457 . S
C2348 N1591 1.414 . S
C2353 C815 1.544 . S
C2358 C1595 1.542 . S
C2363 C861 1.583 . S
C2368 N1604 1.552 . S
C2378 N1637 1.358 . S
C2373 C895 1.404 . S
C2383 C941 1.537 . S
C2388 C1563 1.556 . S
C2398 N1752 1.438 . S
C2393 C655 1.492 . S
C2403 C695 1.436 . S
C2408 N1489 1.406 . S
C2418 N1775 1.423 . S
C2413 C741 1.488 . S
C2423 C781 1.493 . S
C2428 N1545 1.462 . S
C2433 C802 1.507 . S
C2438 C1793 1.515 . S
C2443 C855 1.682 . S
C2448 C1411 1.679 . S
C2458 N1811 1.400 . S
C2453 C901 1.417 . S
C2463 C922 1.489 . S
C2468 C1448 1.513 . S
C2478 C1549 1.544 . S
C2473 C642 1.528 . S
C2488 N1407 1.447 . S
C2483 C821 1.499 . S
C2493 C842 1.613 . S
C2498 C1816 1.611 . S
C2503 C882 1.395 . S
C2508 N1443 1.371 . S
C2518 N1788 1.496 . S
C2513 C935 1.521 . S
C2528 C1494 1.605 . S
C2523 C735 1.608 . S
C2538 C1779 1.566 . S
C2533 C762 1.548 . S
C2548 C1756 1.529 . S
C2543 C701 1.516 . S
C2553 C981 1.464 . S
C2558 N1338 1.405 . S
C2563 C1002 1.500 . S
C2568 C1365 1.510 . S
C2578 C1287 1.569 . S
C2573 C1042 1.563 . S
C2588 N1305 1.375 . S
C2583 C1095 1.419 . S
C2598 C1310 1.556 . S
C2593 C1135 1.562 . S
C2608 C1342 1.566 . S
C2603 C1181 1.560 . S
C2618 N1361 1.478 . S
C2613 C1215 1.523 . S
C2623 C1261 1.550 . S
C2628 N1282 1.550 . S
C2633 C975 1.416 . S
C2638 N1798 1.365 . S
C2648 N1706 1.422 . S
C2643 C1015 1.456 . S
C2658 C1825 1.648 . S
C2653 C1061 1.635 . S
C2668 C1733 1.400 . S
C2663 C1101 1.380 . S
C2673 C1122 1.540 . S
C2678 C1747 1.543 . S
C2688 C1664 1.603 . S
C2683 C1175 1.609 . S
C2698 C1770 1.652 . S
C2693 C1221 1.635 . S
C2703 C1242 1.480 . S
C2708 N1673 1.465 . S
C2718 N1729 1.380 . S
C2713 C962 1.422 . S
C2728 N1660 1.417 . S
C2723 C1141 1.444 . S
C2738 N1765 1.431 . S
C2733 C1162 1.459 . S
C2743 C1202 1.496 . S
C2748 C1678 1.521 . S
C2753 C1255 1.473 . S
C2758 N1742 1.442 . S
C2763 C1055 1.690 . S
C2768 C1710 1.682 . S
C2773 C1082 1.425 . S
C2778 N1821 1.404 . S
C2788 C1802 1.508 . S
C2783 C1021 1.494 . S
