# Generated by pormake.
# Topology apo, (3,6)-cn, num edge types: 1
# Building blocks:
#     Node 0, Type 0, BuildingBlock: OLANEW_clean_sbu_2, # of connection points: 3
#     Node 1, Type 0, BuildingBlock: OLANEW_clean_sbu_2, # of connection points: 3
#     Node 2, Type 0, BuildingBlock: OLANEW_clean_sbu_2, # of connection points: 3
#     Node 3, Type 0, BuildingBlock: OLANEW_clean_sbu_2, # of connection points: 3
#     Node 4, Type 0, BuildingBlock: OLANEW_clean_sbu_2, # of connection points: 3
#     Node 5, Type 0, BuildingBlock: OLANEW_clean_sbu_2, # of connection points: 3
#     Node 6, Type 0, BuildingBlock: OLANEW_clean_sbu_2, # of connection points: 3
#     Node 7, Type 0, BuildingBlock: OLANEW_clean_sbu_2, # of connection points: 3
#     Node 8, Type 1, BuildingBlock: KUMBOL_clean_sbu_1, # of connection points: 6
#     Node 9, Type 1, BuildingBlock: KUMBOL_clean_sbu_1, # of connection points: 6
#     Node 10, Type 1, BuildingBlock: KUMBOL_clean_sbu_1, # of connection points: 6
#     Node 11, Type 1, BuildingBlock: KUMBOL_clean_sbu_1, # of connection points: 6
#     Edge 12, Type (0, 1), BuildingBlock: TEMPAE_clean_linker_10, # of connection points: 2
#     Edge 13, Type (0, 1), BuildingBlock: TEMPAE_clean_linker_10, # of connection points: 2
#     Edge 14, Type (0, 1), BuildingBlock: TEMPAE_clean_linker_10, # of connection points: 2
#     Edge 15, Type (0, 1), BuildingBlock: TEMPAE_clean_linker_10, # of connection points: 2
#     Edge 16, Type (0, 1), BuildingBlock: TEMPAE_clean_linker_10, # of connection points: 2
#     Edge 17, Type (0, 1), BuildingBlock: TEMPAE_clean_linker_10, # of connection points: 2
#     Edge 18, Type (0, 1), BuildingBlock: TEMPAE_clean_linker_10, # of connection points: 2
#     Edge 19, Type (0, 1), BuildingBlock: TEMPAE_clean_linker_10, # of connection points: 2
#     Edge 20, Type (0, 1), BuildingBlock: TEMPAE_clean_linker_10, # of connection points: 2
#     Edge 21, Type (0, 1), BuildingBlock: TEMPAE_clean_linker_10, # of connection points: 2
#     Edge 22, Type (0, 1), BuildingBlock: TEMPAE_clean_linker_10, # of connection points: 2
#     Edge 23, Type (0, 1), BuildingBlock: TEMPAE_clean_linker_10, # of connection points: 2
#     Edge 24, Type (0, 1), BuildingBlock: TEMPAE_clean_linker_10, # of connection points: 2
#     Edge 25, Type (0, 1), BuildingBlock: TEMPAE_clean_linker_10, # of connection points: 2
#     Edge 26, Type (0, 1), BuildingBlock: TEMPAE_clean_linker_10, # of connection points: 2
#     Edge 27, Type (0, 1), BuildingBlock: TEMPAE_clean_linker_10, # of connection points: 2
#     Edge 28, Type (0, 1), BuildingBlock: TEMPAE_clean_linker_10, # of connection points: 2
#     Edge 29, Type (0, 1), BuildingBlock: TEMPAE_clean_linker_10, # of connection points: 2
#     Edge 30, Type (0, 1), BuildingBlock: TEMPAE_clean_linker_10, # of connection points: 2
#     Edge 31, Type (0, 1), BuildingBlock: TEMPAE_clean_linker_10, # of connection points: 2
#     Edge 32, Type (0, 1), BuildingBlock: TEMPAE_clean_linker_10, # of connection points: 2
#     Edge 33, Type (0, 1), BuildingBlock: TEMPAE_clean_linker_10, # of connection points: 2
#     Edge 34, Type (0, 1), BuildingBlock: TEMPAE_clean_linker_10, # of connection points: 2
#     Edge 35, Type (0, 1), BuildingBlock: TEMPAE_clean_linker_10, # of connection points: 2
# Relax obj value: 0.030
# Max RMSD: 0.224
# Mean RMSD: 0.134
data_MOF--net-apo--node1-OLANEW_clean_sbu_2--node2-KUMBOL_clean_sbu_1--edge1-TEMPAE_clean_linker_10
_symmetry_space_group_name_H-M    P1
_symmetry_Int_Tables_number       1
_symmetry_cell_setting            triclinic
loop_
_symmetry_equiv_pos_as_xyz
'x, y, z'
_cell_length_a     29.02606
_cell_length_b     45.134425
_cell_length_c     56.424921
_cell_angle_alpha  88.742144
_cell_angle_beta   89.936263
_cell_angle_gamma 90.180159
loop_
_atom_site_label
_atom_site_type_symbol
_atom_site_fract_x
_atom_site_fract_y
_atom_site_fract_z
_atom_type_partial_charge
O0 O 0.34481 0.38327 0.35805 0.0
Cd1 Cd 0.32191 0.33954 0.38182 0.0
O2 O 0.39021 0.40037 0.38589 0.0
Cd3 Cd 0.37611 0.36704 0.41367 0.0
O4 O 0.37408 0.3556 0.45155 0.0
C5 C 0.41121 0.35776 0.46335 0.0
O6 O 0.44948 0.36464 0.45202 0.0
C7 C 0.37306 0.40274 0.3652 0.0
C8 C 0.26625 0.30049 0.35659 0.0
O9 O 0.2485 0.321 0.369 0.0
O10 O 0.31028 0.2985 0.35607 0.0
O11 O 0.32615 0.13084 0.96142 0.0
Cd12 Cd 0.37546 0.12818 0.92627 0.0
O13 O 0.29471 0.09274 0.94462 0.0
Cd14 Cd 0.24538 0.05717 0.93826 0.0
O15 O 0.20621 0.02745 0.91583 0.0
C16 C 0.16694 0.03528 0.90803 0.0
O17 O 0.14946 0.06054 0.91484 0.0
C18 C 0.29636 0.11016 0.96201 0.0
C19 C 0.39096 0.18023 0.89991 0.0
O20 O 0.35469 0.16458 0.8966 0.0
O21 O 0.41898 0.1718 0.91624 0.0
O22 O 0.8021 0.10645 0.62928 0.0
Cd23 Cd 0.76623 0.1458 0.60499 0.0
O24 O 0.86661 0.10478 0.60863 0.0
Cd25 Cd 0.84439 0.13322 0.57887 0.0
O26 O 0.84076 0.1463 0.54122 0.0
C27 C 0.87563 0.1405 0.52847 0.0
O28 O 0.91159 0.12795 0.5386 0.0
C29 C 0.84243 0.09617 0.62631 0.0
C30 C 0.72078 0.18794 0.63235 0.0
O31 O 0.70032 0.16422 0.62595 0.0
O32 O 0.7628 0.19173 0.62592 0.0
O33 O 0.75817 0.35531 0.0473 0.0
Cd34 Cd 0.76672 0.36784 0.0891 0.0
O35 O 0.6936 0.3805 0.04422 0.0
Cd36 Cd 0.69245 0.39728 0.08012 0.0
O37 O 0.6674 0.42488 0.10856 0.0
C38 C 0.69204 0.44514 0.11741 0.0
O39 O 0.73479 0.44854 0.11013 0.0
C40 C 0.72402 0.36417 0.03497 0.0
C41 C 0.81336 0.32443 0.11566 0.0
O42 O 0.76968 0.32291 0.11256 0.0
O43 O 0.83504 0.3464 0.10607 0.0
O44 O 0.74331 0.59117 0.63836 0.0
Cd45 Cd 0.77069 0.63059 0.6114 0.0
O46 O 0.72098 0.56452 0.60829 0.0
Cd47 Cd 0.74861 0.59233 0.5797 0.0
O48 O 0.74693 0.5967 0.5413 0.0
C49 C 0.7135 0.61062 0.53182 0.0
O50 O 0.68411 0.62422 0.54554 0.0
C51 C 0.72355 0.56823 0.6305 0.0
C52 C 0.81392 0.67597 0.63559 0.0
O53 O 0.76993 0.67372 0.63518 0.0
O54 O 0.83775 0.65683 0.62451 0.0
O55 O 0.78877 0.90955 0.13749 0.0
Cd56 Cd 0.75384 0.87357 0.11083 0.0
O57 O 0.84379 0.91786 0.11131 0.0
Cd58 Cd 0.818 0.89053 0.08284 0.0
O59 O 0.81435 0.88834 0.04435 0.0
C60 C 0.83839 0.87034 0.03259 0.0
O61 O 0.86348 0.8505 0.044 0.0
C62 C 0.8258 0.92284 0.13138 0.0
C63 C 0.70239 0.82893 0.13355 0.0
O64 O 0.74614 0.82664 0.13111 0.0
O65 O 0.68296 0.85255 0.12551 0.0
O66 O 0.22708 0.912 0.36331 0.0
Cd67 Cd 0.26158 0.87567 0.39072 0.0
O68 O 0.15755 0.90685 0.37841 0.0
Cd69 Cd 0.18039 0.88052 0.40906 0.0
O70 O 0.18854 0.87406 0.4473 0.0
C71 C 0.15307 0.87874 0.45989 0.0
O72 O 0.11417 0.88547 0.44919 0.0
C73 C 0.1844 0.91829 0.36289 0.0
C74 C 0.29983 0.8285 0.36631 0.0
O75 O 0.25817 0.82735 0.37385 0.0
O76 O 0.32338 0.85189 0.37044 0.0
O77 O 0.29384 0.59678 0.86252 0.0
Cd78 Cd 0.25087 0.63186 0.88688 0.0
O79 O 0.35631 0.60027 0.88444 0.0
Cd80 Cd 0.32627 0.62738 0.91205 0.0
O81 O 0.31555 0.64092 0.94863 0.0
C82 C 0.31452 0.62044 0.96447 0.0
O83 O 0.31817 0.59279 0.9579 0.0
C84 C 0.33564 0.58983 0.86658 0.0
C85 C 0.19817 0.67372 0.86144 0.0
O86 O 0.24068 0.67853 0.86622 0.0
O87 O 0.18067 0.64887 0.86832 0.0
C88 C 0.88428 0.08536 0.2516 0.0
C89 C 0.89678 0.03905 0.27308 0.0
C90 C 0.9107 0.06818 0.26695 0.0
C91 C 0.85707 0.02712 0.26265 0.0
C92 C 0.84325 0.07406 0.24196 0.0
C93 C 0.83025 0.04464 0.24721 0.0
N94 N 0.8984 0.11345 0.24644 0.0
C95 C 0.87132 0.13235 0.23341 0.0
C96 C 0.81637 0.09281 0.22753 0.0
C97 C 0.83018 0.12221 0.2235 0.0
Gd98 Gd 0.073 0.12762 0.21444 0.0
Gd99 Gd 0.96872 0.12839 0.26276 0.0
N100 N 0.94852 0.08057 0.27692 0.0
C101 C 0.9223 0.02318 0.2901 0.0
C102 C 0.97092 0.06616 0.29502 0.0
C103 C 0.95898 0.03703 0.30146 0.0
H104 H 0.9978 0.07714 0.30472 0.0
H105 H 0.97767 0.02545 0.3154 0.0
H106 H 0.06621 0.19568 0.19158 0.0
H107 H 0.88217 0.15503 0.23028 0.0
H108 H 0.11213 0.24212 0.1908 0.0
H109 H 0.91283 0.00071 0.29527 0.0
H110 H 0.84609 0.00467 0.26694 0.0
H111 H 0.14442 0.07442 0.23691 0.0
H112 H 0.78464 0.08494 0.21973 0.0
H113 H 0.80925 0.137 0.21271 0.0
H114 H 0.24645 0.21777 0.2368 0.0
H115 H 0.79906 0.03544 0.23978 0.0
H116 H 0.26332 0.11737 0.26468 0.0
H117 H 0.21763 0.07182 0.25862 0.0
N118 N 0.1448 0.12157 0.23351 0.0
C119 C 0.17081 0.14654 0.2353 0.0
C120 C 0.1623 0.09476 0.24066 0.0
C121 C 0.23027 0.11881 0.25582 0.0
C122 C 0.20454 0.09307 0.25249 0.0
C123 C 0.21416 0.14586 0.24658 0.0
H124 H 0.274 0.1718 0.25622 0.0
N125 N 0.11361 0.17244 0.21371 0.0
C126 C 0.15525 0.17257 0.2246 0.0
C127 C 0.16651 0.2238 0.21255 0.0
C128 C 0.18257 0.19844 0.22464 0.0
C129 C 0.09855 0.19661 0.20102 0.0
C130 C 0.1245 0.22278 0.20049 0.0
O131 O 0.95869 0.11066 0.22585 0.0
O132 O 0.02611 0.08761 0.21653 0.0
O133 O 0.06353 0.13323 0.17654 0.0
O134 O 0.12303 0.10969 0.18984 0.0
O135 O 0.03571 0.1058 0.27333 0.0
O136 O 0.06496 0.08707 0.23858 0.0
O137 O 0.06315 0.16535 0.23996 0.0
O138 O 0.03962 0.14237 0.27429 0.0
O139 O 0.93452 0.13093 0.29736 0.0
O140 O 0.94144 0.17032 0.27424 0.0
O141 O 0.00729 0.15021 0.20275 0.0
O142 O 0.97308 0.16756 0.237 0.0
C143 C 0.98091 0.08794 0.2175 0.0
C144 C 0.05879 0.08561 0.26172 0.0
C145 C 0.09412 0.09642 0.15242 0.0
C146 C 0.11168 0.08084 0.1123 0.0
C147 C 0.05533 0.05374 0.13626 0.0
C148 C 0.06241 0.07306 0.15493 0.0
C149 C 0.0795 0.05768 0.11498 0.0
C150 C 0.11899 0.10007 0.13121 0.0
C151 C 0.10001 0.11815 0.17115 0.0
C152 C 0.2251 0.19806 0.23644 0.0
C153 C 0.24074 0.17188 0.24752 0.0
H154 H 0.18649 0.24412 0.21218 0.0
C155 C 0.06467 0.16248 0.26313 0.0
C156 C 0.98029 0.1688 0.21388 0.0
C157 C 0.90197 0.17729 0.31159 0.0
C158 C 0.87896 0.18735 0.35234 0.0
C159 C 0.85843 0.22164 0.32023 0.0
C160 C 0.88064 0.20371 0.30399 0.0
C161 C 0.85768 0.21362 0.34424 0.0
C162 C 0.90064 0.16901 0.33579 0.0
C163 C 0.92648 0.15909 0.29424 0.0
H164 H 0.03087 0.03578 0.13822 0.0
H165 H 0.04285 0.06997 0.17115 0.0
H166 H 0.07341 0.0425 0.10071 0.0
H167 H 0.14317 0.11832 0.1292 0.0
H168 H 0.84193 0.2419 0.3142 0.0
H169 H 0.88106 0.21052 0.28545 0.0
H170 H 0.8402 0.22793 0.3565 0.0
H171 H 0.91768 0.14889 0.34182 0.0
C172 C 0.65748 0.42496 0.77112 0.0
C173 C 0.64393 0.46829 0.79459 0.0
C174 C 0.6312 0.43966 0.78748 0.0
C175 C 0.68196 0.48249 0.78379 0.0
C176 C 0.69756 0.43814 0.76147 0.0
C177 C 0.70884 0.46739 0.7673 0.0
N178 N 0.6455 0.39683 0.76593 0.0
C179 C 0.67411 0.3795 0.75298 0.0
C180 C 0.72586 0.42112 0.747 0.0
C181 C 0.71454 0.39147 0.74311 0.0
Gd182 Gd 0.46376 0.37874 0.73829 0.0
Gd183 Gd 0.57568 0.37896 0.78154 0.0
N184 N 0.59558 0.42488 0.79792 0.0
C185 C 0.61929 0.48118 0.81302 0.0
C186 C 0.57429 0.43621 0.81731 0.0
C187 C 0.5849 0.4648 0.82475 0.0
H188 H 0.54868 0.42333 0.82693 0.0
H189 H 0.56683 0.47408 0.83964 0.0
H190 H 0.46568 0.31114 0.71604 0.0
H191 H 0.66491 0.3567 0.74977 0.0
H192 H 0.42661 0.26273 0.72265 0.0
H193 H 0.62783 0.50318 0.81898 0.0
H194 H 0.69193 0.50466 0.78875 0.0
H195 H 0.39819 0.42902 0.76715 0.0
H196 H 0.75704 0.4304 0.73926 0.0
H197 H 0.73665 0.37794 0.73235 0.0
H198 H 0.31619 0.28148 0.78402 0.0
H199 H 0.73909 0.47814 0.75978 0.0
H200 H 0.30137 0.3812 0.81042 0.0
H201 H 0.33743 0.42862 0.79752 0.0
N202 N 0.40174 0.382 0.76526 0.0
C203 C 0.37942 0.35608 0.77044 0.0
C204 C 0.38509 0.40802 0.77368 0.0
C205 C 0.32913 0.38117 0.79757 0.0
C206 C 0.34956 0.40796 0.79044 0.0
C207 C 0.34309 0.35487 0.78707 0.0
H208 H 0.29352 0.32628 0.80513 0.0
N209 N 0.42702 0.33266 0.74257 0.0
C210 C 0.3918 0.3308 0.75842 0.0
C211 C 0.38201 0.2789 0.75004 0.0
C212 C 0.36891 0.30368 0.76294 0.0
C213 C 0.43871 0.30899 0.7292 0.0
C214 C 0.41668 0.28167 0.7329 0.0
O215 O 0.58346 0.39493 0.7436 0.0
O216 O 0.51439 0.41667 0.73347 0.0
O217 O 0.45615 0.37563 0.69954 0.0
O218 O 0.40346 0.3967 0.72112 0.0
O219 O 0.51047 0.40319 0.792 0.0
O220 O 0.47837 0.42137 0.75749 0.0
O221 O 0.48425 0.34146 0.76379 0.0
O222 O 0.50555 0.3678 0.79541 0.0
O223 O 0.61766 0.3707 0.8133 0.0
O224 O 0.59119 0.33387 0.79254 0.0
O225 O 0.52437 0.35535 0.72217 0.0
O226 O 0.57436 0.34334 0.75351 0.0
C227 C 0.55973 0.41592 0.7329 0.0
C228 C 0.49034 0.42465 0.77977 0.0
C229 C 0.38776 0.39589 0.67911 0.0
C230 C 0.37376 0.39519 0.63642 0.0
C231 C 0.31892 0.41877 0.66249 0.0
C232 C 0.34629 0.41146 0.682 0.0
C233 C 0.33252 0.41079 0.63985 0.0
C234 C 0.40123 0.38755 0.65621 0.0
C235 C 0.41656 0.38913 0.70011 0.0
C236 C 0.33393 0.30218 0.78013 0.0
C237 C 0.32111 0.32769 0.7922 0.0
H238 H 0.36532 0.25764 0.75304 0.0
C239 C 0.48474 0.34485 0.78676 0.0
C240 C 0.55822 0.33967 0.73177 0.0
C241 C 0.63719 0.32031 0.82684 0.0
C242 C 0.66977 0.30678 0.86546 0.0
C243 C 0.66335 0.27 0.8348 0.0
C244 C 0.64377 0.2911 0.81947 0.0
C245 C 0.67616 0.2777 0.85768 0.0
C246 C 0.65059 0.32811 0.8498 0.0
C247 C 0.61493 0.34213 0.81079 0.0
H248 H 0.28706 0.43074 0.66493 0.0
H249 H 0.33495 0.41815 0.69937 0.0
H250 H 0.31051 0.41659 0.62497 0.0
H251 H 0.43322 0.37569 0.65371 0.0
H252 H 0.66838 0.24755 0.82896 0.0
H253 H 0.63377 0.28452 0.80185 0.0
H254 H 0.69124 0.26094 0.86928 0.0
H255 H 0.6447 0.35046 0.85574 0.0
C256 C 0.85096 0.84321 0.74614 0.0
C257 C 0.84759 0.79527 0.76621 0.0
C258 C 0.86878 0.82317 0.76263 0.0
C259 C 0.80891 0.78773 0.75265 0.0
C260 C 0.81166 0.836 0.73277 0.0
C261 C 0.791 0.80805 0.73596 0.0
N262 N 0.87138 0.87015 0.74363 0.0
C263 C 0.85271 0.89166 0.72924 0.0
C264 C 0.79375 0.85736 0.71697 0.0
C265 C 0.81413 0.88542 0.71536 0.0
Gd266 Gd 0.05536 0.88233 0.73065 0.0
Gd267 Gd 0.93547 0.87914 0.7676 0.0
N268 N 0.90525 0.83157 0.77603 0.0
C269 C 0.86496 0.77615 0.78387 0.0
C270 C 0.92023 0.81378 0.79432 0.0
C271 C 0.90111 0.7856 0.79816 0.0
H272 H 0.94627 0.82136 0.80641 0.0
H273 H 0.91369 0.77143 0.81244 0.0
H274 H 0.05371 0.95134 0.70897 0.0
H275 H 0.86805 0.91348 0.72827 0.0
H276 H 0.09573 0.99857 0.71429 0.0
H277 H 0.84974 0.75449 0.78711 0.0
H278 H 0.7921 0.76643 0.75522 0.0
H279 H 0.12049 0.82955 0.75821 0.0
H280 H 0.76371 0.85261 0.7063 0.0
H281 H 0.79999 0.9023 0.70358 0.0
H282 H 0.21023 0.97466 0.77309 0.0
H283 H 0.76071 0.80211 0.72589 0.0
H284 H 0.22328 0.87319 0.79889 0.0
H285 H 0.18419 0.8272 0.78682 0.0
N286 N 0.11908 0.87668 0.75625 0.0
C287 C 0.14239 0.90199 0.76126 0.0
C288 C 0.13515 0.84992 0.76435 0.0
C289 C 0.19431 0.87445 0.78682 0.0
C290 C 0.17217 0.84844 0.78016 0.0
C291 C 0.18032 0.90161 0.77687 0.0
H292 H 0.23281 0.92827 0.7936 0.0
N293 N 0.09307 0.92783 0.73485 0.0
C294 C 0.12974 0.92821 0.74979 0.0
C295 C 0.14178 0.98021 0.74069 0.0
C296 C 0.15455 0.95459 0.75349 0.0
C297 C 0.08149 0.95236 0.72164 0.0
C298 C 0.10539 0.979 0.72452 0.0
O299 O 0.93864 0.86532 0.72944 0.0
O300 O 0.00851 0.84279 0.72597 0.0
O301 O 0.05946 0.88789 0.69231 0.0
O302 O 0.11397 0.86533 0.71144 0.0
O303 O 0.99571 0.85264 0.78301 0.0
O304 O 0.04054 0.83928 0.75094 0.0
O305 O 0.03864 0.91727 0.75788 0.0
O306 O 0.00209 0.88876 0.78571 0.0
O307 O 0.89333 0.87999 0.79953 0.0
O308 O 0.90327 0.91984 0.77824 0.0
O309 O 0.99484 0.90683 0.71445 0.0
O310 O 0.95178 0.92135 0.74679 0.0
C311 C 0.96392 0.84341 0.72215 0.0
C312 C 0.02459 0.83442 0.77261 0.0
C313 C 0.13446 0.89169 0.67636 0.0
C314 C 0.16746 0.90188 0.63719 0.0
C315 C 0.19963 0.92515 0.67201 0.0
C316 C 0.16721 0.91058 0.68641 0.0
C317 C 0.19987 0.92087 0.64756 0.0
C318 C 0.13467 0.88747 0.65182 0.0
C319 C 0.10006 0.87588 0.69105 0.0
C320 C 0.19119 0.95451 0.76972 0.0
C321 C 0.20394 0.9281 0.78145 0.0
H322 H 0.16004 0.00092 0.743 0.0
C323 C 0.02666 0.91209 0.78003 0.0
C324 C 0.966 0.92503 0.72474 0.0
C325 C 0.90012 0.92545 0.81976 0.0
C326 C 0.90313 0.92872 0.86295 0.0
C327 C 0.92773 0.97044 0.83796 0.0
C328 C 0.91762 0.9545 0.81775 0.0
C329 C 0.92053 0.95775 0.86041 0.0
C330 C 0.89306 0.9127 0.84244 0.0
C331 C 0.88859 0.90867 0.79832 0.0
H332 H 0.22487 0.93966 0.67985 0.0
H333 H 0.16799 0.91391 0.70531 0.0
H334 H 0.22582 0.93207 0.63682 0.0
H335 H 0.10897 0.8731 0.64411 0.0
H336 H 0.94064 0.99288 0.83617 0.0
H337 H 0.92334 0.96507 0.80057 0.0
H338 H 0.92769 0.97095 0.87578 0.0
H339 H 0.87992 0.89025 0.8441 0.0
C340 C 0.63675 0.66273 0.24838 0.0
C341 C 0.63691 0.714 0.2606 0.0
C342 C 0.61564 0.68591 0.25988 0.0
C343 C 0.67894 0.71875 0.24879 0.0
C344 C 0.67972 0.66721 0.23713 0.0
C345 C 0.70025 0.69543 0.23705 0.0
N346 N 0.61687 0.63541 0.24959 0.0
C347 C 0.64027 0.61128 0.24177 0.0
C348 C 0.70174 0.64292 0.22717 0.0
C349 C 0.68224 0.61475 0.22984 0.0
Gd350 Gd 0.43679 0.62483 0.22494 0.0
Gd351 Gd 0.54538 0.63262 0.26938 0.0
N352 N 0.57496 0.68071 0.27111 0.0
C353 C 0.61572 0.73627 0.2736 0.0
C354 C 0.55515 0.70182 0.28471 0.0
C355 C 0.57485 0.73007 0.28588 0.0
H356 H 0.52402 0.69685 0.29451 0.0
H357 H 0.55865 0.74696 0.29633 0.0
H358 H 0.47347 0.5776 0.18303 0.0
H359 H 0.62743 0.58916 0.24516 0.0
H360 H 0.46637 0.52452 0.17444 0.0
H361 H 0.63099 0.75814 0.27457 0.0
H362 H 0.69566 0.74024 0.24899 0.0
H363 H 0.34958 0.64113 0.26048 0.0
H364 H 0.73469 0.64547 0.2183 0.0
H365 H 0.70003 0.59558 0.22319 0.0
H366 H 0.34929 0.48932 0.2283 0.0
H367 H 0.73322 0.69926 0.22847 0.0
H368 H 0.27347 0.56135 0.27585 0.0
H369 H 0.28492 0.61523 0.28101 0.0
N370 N 0.37423 0.60213 0.24441 0.0
C371 C 0.36704 0.57297 0.24027 0.0
C372 C 0.34446 0.61764 0.25814 0.0
C373 C 0.30154 0.57264 0.26672 0.0
C374 C 0.30795 0.60306 0.26972 0.0
C375 C 0.33103 0.55725 0.25169 0.0
H376 H 0.2984 0.51429 0.25647 0.0
N377 N 0.42831 0.57544 0.21275 0.0
C378 C 0.39566 0.55904 0.22436 0.0
C379 C 0.41607 0.51607 0.20189 0.0
C380 C 0.38898 0.52883 0.21945 0.0
C381 C 0.45164 0.56378 0.19413 0.0
C382 C 0.44686 0.5338 0.18883 0.0
O383 O 0.52374 0.67086 0.24529 0.0
O384 O 0.50019 0.64887 0.21124 0.0
O385 O 0.39866 0.62358 0.19153 0.0
O386 O 0.39389 0.66211 0.21433 0.0
O387 O 0.47677 0.64885 0.28301 0.0
O388 O 0.43427 0.66329 0.24987 0.0
O389 O 0.43736 0.60438 0.26209 0.0
O390 O 0.51105 0.58822 0.26635 0.0
O391 O 0.53447 0.62865 0.30738 0.0
O392 O 0.60223 0.62137 0.29273 0.0
O393 O 0.5069 0.61165 0.21067 0.0
O394 O 0.5458 0.59447 0.24393 0.0
C395 C 0.52233 0.67006 0.22209 0.0
C396 C 0.44462 0.66508 0.27256 0.0
C397 C 0.34886 0.66415 0.17809 0.0
C398 C 0.31629 0.66962 0.1383 0.0
C399 C 0.2899 0.70105 0.17001 0.0
C400 C 0.32032 0.6871 0.18576 0.0
C401 C 0.28785 0.69244 0.14643 0.0
C402 C 0.34662 0.65542 0.15434 0.0
C403 C 0.38101 0.64962 0.19485 0.0
C404 C 0.35455 0.51264 0.23162 0.0
C405 C 0.3255 0.52686 0.24763 0.0
H406 H 0.41209 0.49292 0.19759 0.0
C407 C 0.46674 0.58409 0.2692 0.0
C408 C 0.53827 0.59464 0.22091 0.0
C409 C 0.58244 0.59439 0.32725 0.0
C410 C 0.60797 0.57377 0.36525 0.0
C411 C 0.57761 0.54144 0.33498 0.0
C412 C 0.57097 0.56589 0.31977 0.0
C413 C 0.59602 0.54527 0.35761 0.0
C414 C 0.6006 0.59824 0.34991 0.0
C415 C 0.57663 0.62044 0.31164 0.0
H416 H 0.26803 0.71873 0.17607 0.0
H417 H 0.32136 0.6942 0.20398 0.0
H418 H 0.26457 0.704 0.13446 0.0
H419 H 0.36848 0.63765 0.14835 0.0
H420 H 0.56885 0.51945 0.32913 0.0
H421 H 0.55726 0.56256 0.30221 0.0
H422 H 0.60155 0.52595 0.36895 0.0
H423 H 0.60873 0.62045 0.35561 0.0
C424 C 0.19662 0.95731 0.33119 0.0
C425 C 0.16635 0.94036 0.34543 0.0
C426 C 0.18019 0.98023 0.31627 0.0
C427 C 0.13236 0.98617 0.31546 0.0
C428 C 0.10147 0.96842 0.32907 0.0
C429 C 0.11885 0.94581 0.34397 0.0
C430 C 0.21414 0.99875 0.30201 0.0
C431 C 0.05019 0.97396 0.32857 0.0
C432 C 0.09238 0.0638 0.29879 0.0
C433 C 0.07896 0.06045 0.27518 0.0
C434 C 0.11037 0.03986 0.312 0.0
C435 C 0.11477 0.0119 0.30133 0.0
C436 C 0.10165 0.00849 0.27739 0.0
C437 C 0.08417 0.03291 0.26453 0.0
C438 C 0.12431 0.04444 0.33744 0.0
C439 C 0.10535 0.97896 0.26548 0.0
H440 H 0.23336 0.95328 0.3322 0.0
H441 H 0.09516 0.93276 0.35481 0.0
H442 H 0.20434 0.99923 0.28301 0.0
H443 H 0.21343 0.02196 0.3081 0.0
H444 H 0.24992 0.99031 0.30364 0.0
H445 H 0.0305 0.95629 0.33817 0.0
H446 H 0.04271 0.99544 0.33694 0.0
H447 H 0.0376 0.97552 0.31002 0.0
H448 H 0.08883 0.08521 0.30695 0.0
H449 H 0.07378 0.03031 0.24625 0.0
H450 H 0.16088 0.03807 0.34003 0.0
H451 H 0.10326 0.02998 0.34938 0.0
H452 H 0.11997 0.06779 0.34284 0.0
H453 H 0.14149 0.97105 0.2661 0.0
H454 H 0.09397 0.9801 0.24669 0.0
H455 H 0.08397 0.96222 0.27514 0.0
C456 C 0.335 0.54938 0.83675 0.0
C457 C 0.35983 0.5682 0.85156 0.0
C458 C 0.35726 0.52686 0.82433 0.0
C459 C 0.40557 0.52336 0.82651 0.0
C460 C 0.43104 0.54298 0.84072 0.0
C461 C 0.40785 0.56502 0.85318 0.0
C462 C 0.32887 0.50614 0.80954 0.0
C463 C 0.48267 0.54023 0.84321 0.0
C464 C 0.45601 0.44725 0.81566 0.0
C465 C 0.47165 0.45039 0.79225 0.0
C466 C 0.43458 0.47087 0.82704 0.0
C467 C 0.42921 0.49837 0.81477 0.0
C468 C 0.44596 0.50182 0.79129 0.0
C469 C 0.46663 0.47767 0.78023 0.0
C470 C 0.41675 0.46617 0.85199 0.0
C471 C 0.44154 0.5309 0.77776 0.0
H472 H 0.2979 0.55158 0.83549 0.0
H473 H 0.42739 0.57958 0.86446 0.0
H474 H 0.3427 0.50553 0.79123 0.0
H475 H 0.33103 0.4833 0.81713 0.0
H476 H 0.29205 0.51271 0.80872 0.0
H477 H 0.49776 0.55837 0.85373 0.0
H478 H 0.49131 0.51875 0.85202 0.0
H479 H 0.49921 0.54045 0.82547 0.0
H480 H 0.45918 0.426 0.82484 0.0
H481 H 0.47879 0.48006 0.76211 0.0
H482 H 0.37896 0.46977 0.85237 0.0
H483 H 0.43262 0.48253 0.86392 0.0
H484 H 0.42406 0.44353 0.85911 0.0
H485 H 0.40462 0.53646 0.77536 0.0
H486 H 0.45816 0.5303 0.76002 0.0
H487 H 0.45745 0.549 0.78796 0.0
C488 C 0.67148 0.52496 0.63763 0.0
C489 C 0.70143 0.54631 0.6468 0.0
C490 C 0.6488 0.50446 0.65252 0.0
C491 C 0.65663 0.505 0.67724 0.0
C492 C 0.6871 0.52625 0.6867 0.0
C493 C 0.70898 0.54684 0.67135 0.0
C494 C 0.61634 0.48222 0.64178 0.0
C495 C 0.69672 0.52708 0.71297 0.0
C496 C 0.56531 0.46706 0.7154 0.0
C497 C 0.58472 0.43897 0.7191 0.0
C498 C 0.58898 0.48916 0.70238 0.0
C499 C 0.63306 0.48293 0.69296 0.0
C500 C 0.65301 0.45471 0.69696 0.0
C501 C 0.62833 0.43298 0.70976 0.0
C502 C 0.56639 0.51891 0.69825 0.0
C503 C 0.70006 0.44728 0.68733 0.0
H504 H 0.66517 0.52447 0.61871 0.0
H505 H 0.73216 0.56322 0.67855 0.0
H506 H 0.62845 0.45937 0.64581 0.0
H507 H 0.58151 0.48435 0.64966 0.0
H508 H 0.61344 0.48512 0.62223 0.0
H509 H 0.72056 0.54536 0.71757 0.0
H510 H 0.66408 0.52977 0.72293 0.0
H511 H 0.71211 0.50575 0.71902 0.0
H512 H 0.53162 0.47178 0.7227 0.0
H513 H 0.64283 0.41105 0.71204 0.0
H514 H 0.55998 0.52251 0.67902 0.0
H515 H 0.58961 0.53692 0.70403 0.0
H516 H 0.53312 0.52072 0.70785 0.0
H517 H 0.7003 0.44989 0.66774 0.0
H518 H 0.71069 0.42429 0.69209 0.0
H519 H 0.72607 0.46286 0.69434 0.0
C520 C 0.83091 0.95041 0.16969 0.0
C521 C 0.8474 0.94525 0.14676 0.0
C522 C 0.85074 0.97251 0.18371 0.0
C523 C 0.88723 0.99014 0.17437 0.0
C524 C 0.90416 0.98479 0.15134 0.0
C525 C 0.88432 0.96237 0.13794 0.0
C526 C 0.83194 0.97734 0.20826 0.0
C527 C 0.94321 0.00289 0.14074 0.0
C528 C 0.91402 0.06751 0.19548 0.0
C529 C 0.95501 0.06275 0.20798 0.0
C530 C 0.89009 0.04378 0.1855 0.0
C531 C 0.9077 0.01465 0.18815 0.0
C532 C 0.94812 0.00967 0.20168 0.0
C533 C 0.97159 0.03386 0.21123 0.0
C534 C 0.84711 0.05006 0.17126 0.0
C535 C 0.96733 0.9789 0.20548 0.0
H536 H 0.80243 0.9373 0.17667 0.0
H537 H 0.89744 0.95863 0.12027 0.0
H538 H 0.86022 0.98099 0.2211 0.0
H539 H 0.81005 0.99743 0.20795 0.0
H540 H 0.81061 0.95831 0.21467 0.0
H541 H 0.95107 0.99678 0.12221 0.0
H542 H 0.93472 0.02684 0.14097 0.0
H543 H 0.97467 0.99952 0.15158 0.0
H544 H 0.90138 0.08992 0.19292 0.0
H545 H 0.00299 0.0302 0.22122 0.0
H546 H 0.81833 0.03589 0.17782 0.0
H547 H 0.85319 0.04459 0.15243 0.0
H548 H 0.83644 0.07363 0.17212 0.0
H549 H 0.93979 0.9635 0.21173 0.0
H550 H 0.9959 0.97842 0.21858 0.0
H551 H 0.9805 0.9705 0.18844 0.0
C552 C 0.90836 0.06914 0.64527 0.0
C553 C 0.86067 0.07295 0.64268 0.0
C554 C 0.92624 0.04608 0.65958 0.0
C555 C 0.89572 0.02584 0.67105 0.0
C556 C 0.84752 0.02975 0.66868 0.0
C557 C 0.83057 0.05351 0.65478 0.0
C558 C 0.97781 0.04313 0.66218 0.0
C559 C 0.81388 0.00829 0.68021 0.0
C560 C 0.94257 0.94922 0.68643 0.0
C561 C 0.94871 0.95088 0.71098 0.0
C562 C 0.92482 0.97335 0.67327 0.0
C563 C 0.91423 1.00003 0.68487 0.0
C564 C 0.92125 0.00195 0.70962 0.0
C565 C 0.93781 0.97719 0.72244 0.0
C566 C 0.91684 0.97017 0.64701 0.0
C567 C 0.9116 0.03022 0.72253 0.0
H568 H 0.93176 0.08423 0.63608 0.0
H569 H 0.7937 0.05622 0.65267 0.0
H570 H 0.98734 0.04204 0.68122 0.0
H571 H 0.98947 0.02221 0.65418 0.0
H572 H 0.99669 0.06189 0.65351 0.0
H573 H 0.77747 0.01461 0.67685 0.0
H574 H 0.81959 0.98573 0.67336 0.0
H575 H 0.81961 0.00709 0.69964 0.0
H576 H 0.95064 0.92879 0.67759 0.0
H577 H 0.94296 0.97858 0.74142 0.0
H578 H 0.93788 0.98668 0.63692 0.0
H579 H 0.88017 0.97467 0.64275 0.0
H580 H 0.92567 0.94769 0.64082 0.0
H581 H 0.93184 0.04875 0.71446 0.0
H582 H 0.92023 0.02835 0.74168 0.0
H583 H 0.87467 0.0361 0.72078 0.0
C584 C 0.69863 0.48793 0.14478 0.0
C585 C 0.67145 0.46614 0.13419 0.0
C586 C 0.67885 0.50901 0.15961 0.0
C587 C 0.63076 0.50836 0.16379 0.0
C588 C 0.60328 0.48614 0.15349 0.0
C589 C 0.62396 0.46525 0.13889 0.0
C590 C 0.70926 0.53222 0.17055 0.0
C591 C 0.5518 0.48487 0.15742 0.0
C592 C 0.58031 0.54695 0.21684 0.0
C593 C 0.5635 0.57323 0.2064 0.0
C594 C 0.60308 0.52588 0.20327 0.0
C595 C 0.6089 0.53117 0.17863 0.0
C596 C 0.59245 0.55784 0.16804 0.0
C597 C 0.57006 0.57863 0.1821 0.0
C598 C 0.62017 0.49773 0.2152 0.0
C599 C 0.59785 0.56418 0.1418 0.0
H600 H 0.73535 0.48872 0.14131 0.0
H601 H 0.60264 0.44855 0.13075 0.0
H602 H 0.69871 0.5546 0.16414 0.0
H603 H 0.70515 0.53164 0.1901 0.0
H604 H 0.74624 0.52904 0.16623 0.0
H605 H 0.53573 0.46521 0.14923 0.0
H606 H 0.54385 0.48432 0.17666 0.0
H607 H 0.53565 0.50512 0.14969 0.0
H608 H 0.57501 0.5426 0.23563 0.0
H609 H 0.55737 0.59904 0.17404 0.0
H610 H 0.65748 0.49488 0.21167 0.0
H611 H 0.60207 0.47834 0.20778 0.0
H612 H 0.6146 0.4976 0.23469 0.0
H613 H 0.63474 0.56314 0.13673 0.0
H614 H 0.5842 0.5863 0.13645 0.0
H615 H 0.57939 0.54705 0.13164 0.0
C616 C 0.36876 0.43155 0.32658 0.0
C617 C 0.3857 0.42863 0.34981 0.0
C618 C 0.38037 0.45626 0.31213 0.0
C619 C 0.40925 0.47866 0.32121 0.0
C620 C 0.42645 0.47583 0.3446 0.0
C621 C 0.41459 0.45087 0.35856 0.0
C622 C 0.36137 0.45855 0.28726 0.0
C623 C 0.45738 0.49923 0.35494 0.0
C624 C 0.47665 0.53084 0.28039 0.0
C625 C 0.45057 0.55683 0.28151 0.0
C626 C 0.46284 0.50494 0.29265 0.0
C627 C 0.42197 0.5051 0.30636 0.0
C628 C 0.39498 0.53116 0.30712 0.0
C629 C 0.40982 0.5568 0.29479 0.0
C630 C 0.49252 0.47762 0.29132 0.0
C631 C 0.35107 0.53218 0.32143 0.0
H632 H 0.34638 0.41455 0.31965 0.0
H633 H 0.42785 0.44893 0.37647 0.0
H634 H 0.3365 0.47711 0.28607 0.0
H635 H 0.38936 0.46348 0.27435 0.0
H636 H 0.34347 0.43792 0.28201 0.0
H637 H 0.46754 0.49384 0.37351 0.0
H638 H 0.48906 0.50171 0.34407 0.0
H639 H 0.43965 0.52098 0.35455 0.0
H640 H 0.50808 0.53079 0.26998 0.0
H641 H 0.39 0.57701 0.29594 0.0
H642 H 0.47147 0.45839 0.28583 0.0
H643 H 0.50683 0.47215 0.3091 0.0
H644 H 0.5216 0.4806 0.27866 0.0
H645 H 0.327 0.51465 0.31561 0.0
H646 H 0.33351 0.55395 0.31968 0.0
H647 H 0.35875 0.52773 0.34043 0.0
C648 C 0.16531 0.99357 0.8795 0.0
C649 C 0.14286 0.01735 0.89015 0.0
C650 C 0.14381 0.9774 0.86164 0.0
C651 C 0.09861 0.98499 0.85438 0.0
C652 C 0.07561 0.00879 0.86519 0.0
C653 C 0.09799 0.02464 0.88297 0.0
C654 C 0.16969 0.95238 0.85031 0.0
C655 C 0.02713 0.01732 0.85835 0.0
C656 C 0.06353 0.95908 0.79342 0.0
C657 C 0.04157 0.93215 0.79897 0.0
C658 C 0.08141 0.97689 0.8113 0.0
C659 C 0.07587 0.96797 0.83536 0.0
C660 C 0.05083 0.94185 0.84113 0.0
C661 C 0.03436 0.9241 0.82287 0.0
C662 C 0.10736 0.00482 0.80442 0.0
C663 C 0.04271 0.93213 0.86656 0.0
H664 H 0.20008 0.98786 0.88485 0.0
H665 H 0.08026 0.04285 0.89121 0.0
H666 H 0.15017 0.93134 0.85268 0.0
H667 H 0.17307 0.95679 0.83096 0.0
H668 H 0.20467 0.94931 0.85792 0.0
H669 H 0.01806 0.0398 0.86447 0.0
H670 H 0.02216 0.01668 0.83888 0.0
H671 H 0.00281 0.00124 0.86672 0.0
H672 H 0.06721 0.96613 0.77508 0.0
H673 H 0.01647 0.90363 0.8274 0.0
H674 H 0.14424 0.0022 0.80917 0.0
H675 H 0.09388 0.02391 0.81434 0.0
H676 H 0.105 0.01005 0.78513 0.0
H677 H 0.07591 0.92552 0.87481 0.0
H678 H 0.01837 0.91312 0.86806 0.0
H679 H 0.02872 0.95073 0.87686 0.0
C680 C 0.25276 0.0776 0.99053 0.0
C681 C 0.26545 0.10614 0.98267 0.0
C682 C 0.22648 0.07325 0.01123 0.0
C683 C 0.21196 0.09809 0.02417 0.0
C684 C 0.22368 0.12702 0.01594 0.0
C685 C 0.25084 0.13068 0.99545 0.0
C686 C 0.21556 0.04203 0.01968 0.0
C687 C 0.20806 0.15409 0.02895 0.0
C688 C 0.11359 0.08675 0.06809 0.0
C689 C 0.13725 0.08516 0.08972 0.0
C690 C 0.13737 0.09131 0.04662 0.0
C691 C 0.18603 0.09374 0.04678 0.0
C692 C 0.21009 0.09185 0.0686 0.0
C693 C 0.18534 0.08788 0.08983 0.0
C694 C 0.11045 0.09378 0.02379 0.0
C695 C 0.262 0.09375 0.0695 0.0
H696 H 0.265 0.05855 0.98105 0.0
H697 H 0.26065 0.15278 0.98939 0.0
H698 H 0.23149 0.03782 0.0373 0.0
H699 H 0.17782 0.03913 0.02185 0.0
H700 H 0.22831 0.02514 0.00725 0.0
H701 H 0.21753 0.17503 0.01941 0.0
H702 H 0.17013 0.1535 0.03142 0.0
H703 H 0.22383 0.15424 0.04685 0.0
H704 H 0.07633 0.08492 0.06804 0.0
H705 H 0.20365 0.08643 0.10656 0.0
H706 H 0.12111 0.07609 0.01162 0.0
H707 H 0.118 0.11533 0.01473 0.0
H708 H 0.07268 0.092 0.02675 0.0
H709 H 0.2773 0.07623 0.05849 0.0
H710 H 0.27551 0.09121 0.08785 0.0
H711 H 0.27378 0.1154 0.06202 0.0
C712 C 0.36862 0.35249 0.50188 0.0
C713 C 0.41031 0.35667 0.48965 0.0
C714 C 0.36625 0.35551 0.52657 0.0
C715 C 0.40653 0.36288 0.53933 0.0
C716 C 0.44921 0.36536 0.52729 0.0
C717 C 0.4506 0.36222 0.50259 0.0
C718 C 0.3201 0.35249 0.53878 0.0
C719 C 0.49296 0.37304 0.54027 0.0
C720 C 0.38509 0.40863 0.59372 0.0
C721 C 0.3874 0.38723 0.61205 0.0
C722 C 0.39277 0.40109 0.5701 0.0
C723 C 0.40285 0.37134 0.56461 0.0
C724 C 0.40705 0.34981 0.58314 0.0
C725 C 0.3994 0.35806 0.60672 0.0
C726 C 0.38855 0.42483 0.55093 0.0
C727 C 0.4178 0.31791 0.57798 0.0
H728 H 0.33737 0.34798 0.49208 0.0
H729 H 0.48307 0.36525 0.49335 0.0
H730 H 0.32282 0.33759 0.55461 0.0
H731 H 0.30888 0.37449 0.54498 0.0
H732 H 0.29312 0.34369 0.52686 0.0
H733 H 0.52404 0.37041 0.52901 0.0
H734 H 0.49135 0.39638 0.54597 0.0
H735 H 0.49677 0.3589 0.55648 0.0
H736 H 0.37646 0.43129 0.59786 0.0
H737 H 0.40096 0.34145 0.62087 0.0
H738 H 0.35928 0.41956 0.53909 0.0
H739 H 0.42018 0.42556 0.53987 0.0
H740 H 0.38286 0.44715 0.55828 0.0
H741 H 0.38846 0.30789 0.5684 0.0
H742 H 0.42422 0.30456 0.59441 0.0
H743 H 0.44846 0.31652 0.56631 0.0
C744 C 0.75313 0.33901 0.99859 0.0
C745 C 0.71903 0.35561 0.00987 0.0
C746 C 0.74813 0.33079 0.97484 0.0
C747 C 0.70802 0.33926 0.96216 0.0
C748 C 0.67365 0.35611 0.9734 0.0
C749 C 0.67961 0.36411 0.99706 0.0
C750 C 0.78556 0.31291 0.96336 0.0
C751 C 0.63029 0.36547 0.96051 0.0
C752 C 0.70519 0.34095 0.89484 0.0
C753 C 0.68163 0.31455 0.89014 0.0
C754 C 0.71529 0.34887 0.91819 0.0
C755 C 0.70118 0.33004 0.93727 0.0
C756 C 0.678 0.30315 0.9326 0.0
C757 C 0.66857 0.29572 0.90909 0.0
C758 C 0.74029 0.37764 0.92248 0.0
C759 C 0.662 0.28262 0.95246 0.0
H760 H 0.78374 0.33242 0.00831 0.0
H761 H 0.65302 0.37693 0.00556 0.0
H762 H 0.77146 0.29128 0.9578 0.0
H763 H 0.79829 0.32466 0.94715 0.0
H764 H 0.81516 0.30876 0.97543 0.0
H765 H 0.60711 0.37881 0.97173 0.0
H766 H 0.63923 0.37875 0.94437 0.0
H767 H 0.61114 0.34561 0.95467 0.0
H768 H 0.7158 0.35539 0.88021 0.0
H769 H 0.64985 0.27547 0.90556 0.0
H770 H 0.77121 0.37353 0.9336 0.0
H771 H 0.71757 0.39281 0.93233 0.0
H772 H 0.7512 0.38895 0.9057 0.0
H773 H 0.69131 0.27673 0.96423 0.0
H774 H 0.64646 0.26188 0.9458 0.0
H775 H 0.63601 0.29401 0.96342 0.0
C776 C 0.91594 0.14279 0.48923 0.0
C777 C 0.87576 0.14708 0.50258 0.0
C778 C 0.91682 0.14865 0.46469 0.0
C779 C 0.87647 0.1589 0.45313 0.0
C780 C 0.83569 0.16311 0.46645 0.0
C781 C 0.83586 0.15725 0.49102 0.0
C782 C 0.96108 0.14411 0.45117 0.0
C783 C 0.79192 0.17389 0.45473 0.0
C784 C 0.88953 0.20144 0.39465 0.0
C785 C 0.87919 0.17966 0.37809 0.0
C786 C 0.88886 0.19495 0.41907 0.0
C787 C 0.87735 0.16597 0.42721 0.0
C788 C 0.8671 0.14381 0.41059 0.0
C789 C 0.86835 0.15089 0.38621 0.0
C790 C 0.90056 0.21912 0.43618 0.0
C791 C 0.85443 0.1127 0.41859 0.0
H792 H 0.94697 0.13496 0.49797 0.0
H793 H 0.80461 0.16051 0.50116 0.0
H794 H 0.95544 0.12811 0.4368 0.0
H795 H 0.9723 0.16533 0.44267 0.0
H796 H 0.98934 0.13573 0.46274 0.0
H797 H 0.76282 0.1753 0.46745 0.0
H798 H 0.79768 0.19612 0.44647 0.0
H799 H 0.78196 0.15876 0.44035 0.0
H800 H 0.89857 0.22361 0.38845 0.0
H801 H 0.85997 0.13405 0.37349 0.0
H802 H 0.93045 0.21234 0.44725 0.0
H803 H 0.87115 0.22272 0.44834 0.0
H804 H 0.90899 0.24046 0.42697 0.0
H805 H 0.88279 0.10289 0.42931 0.0
H806 H 0.84732 0.09805 0.40345 0.0
H807 H 0.82344 0.11318 0.4301 0.0
C808 C 0.86801 0.85438 0.99311 0.0
C809 C 0.84309 0.87461 0.00659 0.0
C810 C 0.87681 0.86 0.96893 0.0
C811 C 0.86083 0.88664 0.95813 0.0
C812 C 0.83434 0.90663 0.97145 0.0
C813 C 0.8255 0.90026 0.99545 0.0
C814 C 0.9044 0.83791 0.95514 0.0
C815 C 0.81696 0.93539 0.96062 0.0
C816 C 0.92457 0.92116 0.9057 0.0
C817 C 0.89421 0.91565 0.88696 0.0
C818 C 0.91475 0.91108 0.92884 0.0
C819 C 0.8739 0.89467 0.93333 0.0
C820 C 0.84412 0.88786 0.91436 0.0
C821 C 0.85443 0.89863 0.89144 0.0
C822 C 0.9473 0.91893 0.94862 0.0
C823 C 0.80055 0.87009 0.91842 0.0
H824 H 0.88147 0.83442 0.00155 0.0
H825 H 0.80621 0.91604 0.00569 0.0
H826 H 0.88629 0.83243 0.93848 0.0
H827 H 0.93819 0.84774 0.95011 0.0
H828 H 0.9106 0.81708 0.96549 0.0
H829 H 0.79524 0.94794 0.97312 0.0
H830 H 0.84662 0.94955 0.95515 0.0
H831 H 0.7965 0.93104 0.94448 0.0
H832 H 0.95584 0.93374 0.90234 0.0
H833 H 0.83045 0.8945 0.87717 0.0
H834 H 0.95813 0.89861 0.9585 0.0
H835 H 0.92941 0.93332 0.96137 0.0
H836 H 0.97859 0.93071 0.942 0.0
H837 H 0.80809 0.84952 0.9288 0.0
H838 H 0.78375 0.864 0.90152 0.0
H839 H 0.7758 0.88317 0.92889 0.0
C840 C 0.66811 0.62401 0.49557 0.0
C841 C 0.70386 0.60773 0.50623 0.0
C842 C 0.65502 0.61903 0.47207 0.0
C843 C 0.678 0.59708 0.45902 0.0
C844 C 0.71515 0.58128 0.46939 0.0
C845 C 0.72781 0.58691 0.49285 0.0
C846 C 0.61568 0.63663 0.46144 0.0
C847 C 0.74034 0.55763 0.45603 0.0
C848 C 0.61001 0.563 0.40903 0.0
C849 C 0.62783 0.57831 0.38915 0.0
C850 C 0.62675 0.56846 0.43184 0.0
C851 C 0.6619 0.58989 0.43484 0.0
C852 C 0.68069 0.60498 0.41482 0.0
C853 C 0.66362 0.59887 0.39221 0.0
C854 C 0.60613 0.55177 0.4528 0.0
C855 C 0.71817 0.62798 0.41733 0.0
H856 H 0.64963 0.64024 0.50575 0.0
H857 H 0.75544 0.57419 0.50097 0.0
H858 H 0.62649 0.64726 0.4444 0.0
H859 H 0.58649 0.62158 0.45755 0.0
H860 H 0.60326 0.6541 0.47343 0.0
H861 H 0.77012 0.54854 0.46615 0.0
H862 H 0.71634 0.53918 0.45217 0.0
H863 H 0.75295 0.56668 0.43877 0.0
H864 H 0.58208 0.54731 0.40683 0.0
H865 H 0.6782 0.61037 0.37688 0.0
H866 H 0.58881 0.5675 0.4647 0.0
H867 H 0.63369 0.54058 0.46322 0.0
H868 H 0.5806 0.53484 0.44735 0.0
H869 H 0.70546 0.64645 0.4282 0.0
H870 H 0.72987 0.63721 0.39992 0.0
H871 H 0.74826 0.61821 0.42671 0.0
C872 C 0.31213 0.65701 0.99729 0.0
C873 C 0.31185 0.6275 0.98998 0.0
C874 C 0.31186 0.66382 0.02147 0.0
C875 C 0.31116 0.64057 0.03873 0.0
C876 C 0.31009 0.61076 0.03147 0.0
C877 C 0.31049 0.60459 0.0072 0.0
C878 C 0.31299 0.69588 0.02854 0.0
C879 C 0.30914 0.58537 0.04936 0.0
C880 C 0.35591 0.65679 0.10039 0.0
C881 C 0.31491 0.66121 0.11299 0.0
C882 C 0.35517 0.64996 0.07624 0.0
C883 C 0.31239 0.64741 0.06441 0.0
C884 C 0.27086 0.65151 0.07708 0.0
C885 C 0.27262 0.65838 0.10121 0.0
C886 C 0.40021 0.64581 0.06332 0.0
C887 C 0.22457 0.64875 0.06513 0.0
H888 H 0.31318 0.67485 0.98412 0.0
H889 H 0.31017 0.58172 0.00175 0.0
H890 H 0.28299 0.70076 0.03999 0.0
H891 H 0.34451 0.70024 0.03903 0.0
H892 H 0.31252 0.71136 0.01296 0.0
H893 H 0.30707 0.56346 0.04081 0.0
H894 H 0.34064 0.58591 0.06046 0.0
H895 H 0.27919 0.58762 0.06141 0.0
H896 H 0.3887 0.65932 0.10931 0.0
H897 H 0.24081 0.66141 0.11092 0.0
H898 H 0.40321 0.66236 0.04857 0.0
H899 H 0.40121 0.62354 0.05541 0.0
H900 H 0.43049 0.64817 0.07516 0.0
H901 H 0.22198 0.66517 0.05027 0.0
H902 H 0.19548 0.6523 0.07755 0.0
H903 H 0.22091 0.62643 0.05747 0.0
C904 C 0.11648 0.88428 0.49966 0.0
C905 C 0.15606 0.87904 0.4861 0.0
C906 C 0.11899 0.88673 0.52436 0.0
C907 C 0.16215 0.88392 0.53582 0.0
C908 C 0.20209 0.87792 0.52234 0.0
C909 C 0.19857 0.87551 0.49763 0.0
C910 C 0.07557 0.89298 0.53814 0.0
C911 C 0.24869 0.87474 0.53397 0.0
C912 C 0.17394 0.92105 0.59527 0.0
C913 C 0.16768 0.8971 0.61121 0.0
C914 C 0.17301 0.91697 0.57069 0.0
C915 C 0.16553 0.88824 0.56182 0.0
C916 C 0.1598 0.8639 0.5778 0.0
C917 C 0.16098 0.86862 0.6023 0.0
C918 C 0.17919 0.9435 0.5542 0.0
C919 C 0.15186 0.83294 0.56902 0.0
H920 H 0.08345 0.88692 0.49094 0.0
H921 H 0.22933 0.87146 0.4873 0.0
H922 H 0.07054 0.87587 0.55234 0.0
H923 H 0.07872 0.91468 0.54687 0.0
H924 H 0.04447 0.89343 0.52668 0.0
H925 H 0.27603 0.86879 0.52114 0.0
H926 H 0.25845 0.89588 0.54233 0.0
H927 H 0.24732 0.85748 0.54826 0.0
H928 H 0.17861 0.94316 0.60201 0.0
H929 H 0.15684 0.84993 0.61452 0.0
H930 H 0.14761 0.94682 0.54341 0.0
H931 H 0.20801 0.93961 0.54173 0.0
H932 H 0.18634 0.96416 0.56391 0.0
H933 H 0.11958 0.83225 0.55853 0.0
H934 H 0.14929 0.81628 0.58376 0.0
H935 H 0.18038 0.82651 0.5571 0.0
C936 C 0.18867 0.28062 0.34539 0.0
C937 C 0.23681 0.27972 0.34325 0.0
C938 C 0.16044 0.26122 0.33272 0.0
C939 C 0.18078 0.24049 0.31743 0.0
C940 C 0.22937 0.23927 0.31538 0.0
C941 C 0.25675 0.25893 0.32826 0.0
C942 C 0.1088 0.263 0.33558 0.0
C943 C 0.25264 0.21791 0.29905 0.0
C944 C 0.11002 0.17354 0.29949 0.0
C945 C 0.09399 0.18252 0.27705 0.0
C946 C 0.13838 0.19215 0.31281 0.0
C947 C 0.15108 0.22037 0.30342 0.0
C948 C 0.13494 0.22951 0.28075 0.0
C949 C 0.10617 0.21059 0.26797 0.0
C950 C 0.15509 0.18153 0.33685 0.0
C951 C 0.14838 0.25915 0.26989 0.0
H952 H 0.17294 0.29653 0.357 0.0
H953 H 0.2939 0.25813 0.32639 0.0
H954 H 0.09261 0.26858 0.31826 0.0
H955 H 0.0949 0.24115 0.34155 0.0
H956 H 0.09841 0.27989 0.34857 0.0
H957 H 0.28967 0.21499 0.30344 0.0
H958 H 0.2356 0.19587 0.29965 0.0
H959 H 0.25029 0.22682 0.28063 0.0
H960 H 0.10079 0.15179 0.30657 0.0
H961 H 0.09302 0.21785 0.25087 0.0
H962 H 0.14433 0.1973 0.3506 0.0
H963 H 0.1933 0.18079 0.33697 0.0
H964 H 0.14162 0.15916 0.34175 0.0
H965 H 0.13996 0.27723 0.28216 0.0
H966 H 0.13082 0.26363 0.2527 0.0
H967 H 0.18616 0.25975 0.26687 0.0
C968 C 0.36777 0.21843 0.86935 0.0
C969 C 0.40153 0.20628 0.88442 0.0
C970 C 0.37833 0.24193 0.85351 0.0
C971 C 0.42393 0.25309 0.85242 0.0
C972 C 0.458 0.24118 0.8678 0.0
C973 C 0.44628 0.2181 0.88375 0.0
C974 C 0.34096 0.2544 0.83762 0.0
C975 C 0.50715 0.25233 0.86698 0.0
C976 C 0.4668 0.29188 0.79622 0.0
C977 C 0.46715 0.32151 0.803 0.0
C978 C 0.45182 0.26938 0.81196 0.0
C979 C 0.43652 0.27685 0.83492 0.0
C980 C 0.43544 0.30691 0.84153 0.0
C981 C 0.45119 0.32889 0.82553 0.0
C982 C 0.45368 0.23759 0.80427 0.0
C983 C 0.41825 0.31581 0.86561 0.0
H984 H 0.33309 0.20946 0.86982 0.0
H985 H 0.47261 0.20872 0.89525 0.0
H986 H 0.34029 0.27894 0.83841 0.0
H987 H 0.34821 0.24863 0.81898 0.0
H988 H 0.30634 0.24564 0.8425 0.0
H989 H 0.52947 0.24081 0.88022 0.0
H990 H 0.52184 0.24909 0.84906 0.0
H991 H 0.50814 0.27645 0.87035 0.0
H992 H 0.47931 0.28622 0.77879 0.0
H993 H 0.45088 0.35192 0.83062 0.0
H994 H 0.41933 0.22702 0.80633 0.0
H995 H 0.47802 0.22496 0.81576 0.0
H996 H 0.46485 0.23567 0.78553 0.0
H997 H 0.38332 0.30651 0.86886 0.0
H998 H 0.41682 0.34025 0.86739 0.0
H999 H 0.44123 0.30657 0.8796 0.0
C1000 C 0.71699 0.23793 0.65083 0.0
C1001 C 0.69657 0.21029 0.6467 0.0
C1002 C 0.69437 0.25931 0.66431 0.0
C1003 C 0.65045 0.25283 0.67411 0.0
C1004 C 0.62968 0.22496 0.67004 0.0
C1005 C 0.65287 0.20411 0.6563 0.0
C1006 C 0.71747 0.28887 0.66806 0.0
C1007 C 0.58309 0.2171 0.68037 0.0
C1008 C 0.6119 0.29674 0.72733 0.0
C1009 C 0.58133 0.3173 0.71698 0.0
C1010 C 0.63435 0.27557 0.71362 0.0
C1011 C 0.62647 0.27504 0.68888 0.0
C1012 C 0.59574 0.29572 0.67829 0.0
C1013 C 0.57336 0.31648 0.69246 0.0
C1014 C 0.66648 0.25373 0.72566 0.0
C1015 C 0.58674 0.29606 0.65193 0.0
H1016 H 0.75064 0.24296 0.64341 0.0
H1017 H 0.63686 0.1828 0.65326 0.0
H1018 H 0.69491 0.30706 0.66149 0.0
H1019 H 0.72298 0.29222 0.68727 0.0
H1020 H 0.75125 0.29069 0.65885 0.0
H1021 H 0.57164 0.1945 0.67557 0.0
H1022 H 0.58428 0.21834 0.69998 0.0
H1023 H 0.55694 0.23329 0.67404 0.0
H1024 H 0.61817 0.29701 0.74626 0.0
H1025 H 0.54998 0.3323 0.68424 0.0
H1026 H 0.70165 0.25613 0.71813 0.0
H1027 H 0.65484 0.23075 0.72235 0.0
H1028 H 0.66839 0.25682 0.74511 0.0
H1029 H 0.61952 0.29965 0.64213 0.0
H1030 H 0.56203 0.31365 0.64641 0.0
H1031 H 0.57275 0.27431 0.64658 0.0
C1032 C 0.88437 0.30566 0.13613 0.0
C1033 C 0.83796 0.30162 0.13004 0.0
C1034 C 0.90793 0.28439 0.14999 0.0
C1035 C 0.88464 0.25833 0.15775 0.0
C1036 C 0.83787 0.25403 0.15156 0.0
C1037 C 0.81503 0.27579 0.13788 0.0
C1038 C 0.9577 0.28984 0.15638 0.0
C1039 C 0.81203 0.22638 0.15932 0.0
C1040 C 0.95675 0.19108 0.17472 0.0
C1041 C 0.95602 0.19184 0.19958 0.0
C1042 C 0.93354 0.21251 0.16092 0.0
C1043 C 0.90931 0.23543 0.1722 0.0
C1044 C 0.9086 0.23644 0.19726 0.0
C1045 C 0.9318 0.21457 0.21065 0.0
C1046 C 0.93476 0.21053 0.13424 0.0
C1047 C 0.88342 0.26067 0.20994 0.0
H1048 H 0.9023 0.32559 0.13023 0.0
H1049 H 0.77922 0.27245 0.1332 0.0
H1050 H 0.96173 0.2895 0.17594 0.0
H1051 H 0.9796 0.2719 0.14943 0.0
H1052 H 0.97068 0.31142 0.1492 0.0
H1053 H 0.77583 0.22635 0.15294 0.0
H1054 H 0.82965 0.2065 0.15251 0.0
H1055 H 0.81184 0.22431 0.17894 0.0
H1056 H 0.97517 0.17356 0.16596 0.0
H1057 H 0.9311 0.21543 0.22983 0.0
H1058 H 0.95019 0.23099 0.12636 0.0
H1059 H 0.89918 0.20875 0.12723 0.0
H1060 H 0.95489 0.19119 0.12822 0.0
H1061 H 0.89731 0.28264 0.20426 0.0
H1062 H 0.88645 0.25842 0.22952 0.0
H1063 H 0.84637 0.26032 0.20515 0.0
C1064 C 0.8761 0.71379 0.63968 0.0
C1065 C 0.83639 0.6999 0.64868 0.0
C1066 C 0.89668 0.73735 0.65166 0.0
C1067 C 0.87808 0.74633 0.67359 0.0
C1068 C 0.83881 0.73158 0.68306 0.0
C1069 C 0.81777 0.70904 0.67019 0.0
C1070 C 0.93777 0.75299 0.64067 0.0
C1071 C 0.81837 0.73973 0.70659 0.0
C1072 C 0.95804 0.78975 0.71335 0.0
C1073 C 0.94189 0.8187 0.70983 0.0
C1074 C 0.93691 0.76588 0.70207 0.0
C1075 C 0.89956 0.77128 0.68644 0.0
C1076 C 0.88308 0.80055 0.68292 0.0
C1077 C 0.90429 0.82391 0.69481 0.0
C1078 C 0.95409 0.73485 0.70713 0.0
C1079 C 0.84324 0.80725 0.66652 0.0
H1080 H 0.89027 0.70679 0.62293 0.0
H1081 H 0.78715 0.69813 0.6772 0.0
H1082 H 0.93014 0.77694 0.63813 0.0
H1083 H 0.96787 0.75118 0.6527 0.0
H1084 H 0.94738 0.74375 0.62326 0.0
H1085 H 0.7966 0.7216 0.7142 0.0
H1086 H 0.84562 0.74514 0.71958 0.0
H1087 H 0.79629 0.75949 0.70395 0.0
H1088 H 0.98666 0.7857 0.72531 0.0
H1089 H 0.89192 0.84636 0.69209 0.0
H1090 H 0.96656 0.72485 0.69054 0.0
H1091 H 0.92538 0.72077 0.71397 0.0
H1092 H 0.98251 0.73434 0.72031 0.0
H1093 H 0.85016 0.79824 0.64872 0.0
H1094 H 0.83656 0.83141 0.6646 0.0
H1095 H 0.81158 0.79632 0.67346 0.0
C1096 C 0.62696 0.80462 0.1437 0.0
C1097 C 0.67518 0.80497 0.1453 0.0
C1098 C 0.60089 0.78211 0.15496 0.0
C1099 C 0.62352 0.75968 0.16843 0.0
C1100 C 0.67225 0.75971 0.16978 0.0
C1101 C 0.69743 0.78231 0.15819 0.0
C1102 C 0.54907 0.78249 0.15264 0.0
C1103 C 0.69828 0.73685 0.1843 0.0
C1104 C 0.55561 0.72098 0.21772 0.0
C1105 C 0.54624 0.69337 0.2079 0.0
C1106 C 0.58084 0.7427 0.20511 0.0
C1107 C 0.59607 0.73695 0.18183 0.0
C1108 C 0.58557 0.70939 0.17154 0.0
C1109 C 0.56086 0.68788 0.18473 0.0
C1110 C 0.5922 0.77149 0.21694 0.0
C1111 C 0.60146 0.70241 0.14681 0.0
H1112 H 0.60953 0.82191 0.13358 0.0
H1113 H 0.73468 0.78249 0.15963 0.0
H1114 H 0.53667 0.76096 0.14591 0.0
H1115 H 0.53312 0.78546 0.1703 0.0
H1116 H 0.5369 0.80052 0.1405 0.0
H1117 H 0.73336 0.73333 0.17701 0.0
H1118 H 0.70225 0.74519 0.20251 0.0
H1119 H 0.68018 0.71519 0.18536 0.0
H1120 H 0.54341 0.72559 0.2354 0.0
H1121 H 0.55378 0.66653 0.17705 0.0
H1122 H 0.58203 0.79063 0.20547 0.0
H1123 H 0.62999 0.77296 0.2197 0.0
H1124 H 0.57478 0.77345 0.23437 0.0
H1125 H 0.58952 0.71982 0.13408 0.0
H1126 H 0.5886 0.68056 0.14093 0.0
H1127 H 0.63968 0.7023 0.14621 0.0
C1128 C 0.29536 0.7772 0.35031 0.0
C1129 C 0.32007 0.80368 0.35308 0.0
C1130 C 0.31405 0.75364 0.33763 0.0
C1131 C 0.35836 0.75672 0.32735 0.0
C1132 C 0.3835 0.78334 0.33011 0.0
C1133 C 0.36412 0.80646 0.343 0.0
C1134 C 0.28636 0.72549 0.33519 0.0
C1135 C 0.43079 0.78749 0.3193 0.0
C1136 C 0.42721 0.68854 0.3114 0.0
C1137 C 0.42047 0.68748 0.2868 0.0
C1138 C 0.40648 0.71061 0.32489 0.0
C1139 C 0.37843 0.7322 0.31352 0.0
C1140 C 0.37071 0.73092 0.2888 0.0
C1141 C 0.3917 0.70854 0.27575 0.0
C1142 C 0.41527 0.71112 0.35125 0.0
C1143 C 0.3411 0.7536 0.27602 0.0
H1144 H 0.26136 0.77483 0.3581 0.0
H1145 H 0.38343 0.82684 0.345 0.0
H1146 H 0.27993 0.72126 0.31618 0.0
H1147 H 0.3061 0.70635 0.34246 0.0
H1148 H 0.2527 0.72647 0.34453 0.0
H1149 H 0.44591 0.8095 0.32315 0.0
H1150 H 0.45443 0.77004 0.32615 0.0
H1151 H 0.42884 0.78517 0.29979 0.0
H1152 H 0.44912 0.67228 0.32016 0.0
H1153 H 0.3862 0.70795 0.25677 0.0
H1154 H 0.38212 0.71092 0.36106 0.0
H1155 H 0.43359 0.73186 0.35576 0.0
H1156 H 0.43625 0.69198 0.35755 0.0
H1157 H 0.30637 0.75425 0.28421 0.0
H1158 H 0.33722 0.7489 0.25688 0.0
H1159 H 0.35657 0.77597 0.27772 0.0
C1160 C 0.1906 0.72258 0.83986 0.0
C1161 C 0.17004 0.69641 0.84869 0.0
C1162 C 0.16449 0.74441 0.82797 0.0
C1163 C 0.11654 0.7401 0.82486 0.0
C1164 C 0.09547 0.71382 0.83382 0.0
C1165 C 0.12248 0.69225 0.84556 0.0
C1166 C 0.18839 0.77196 0.81846 0.0
C1167 C 0.04443 0.70848 0.83095 0.0
C1168 C 0.04664 0.80961 0.81111 0.0
C1169 C 0.04361 0.80892 0.78633 0.0
C1170 C 0.06903 0.78687 0.82399 0.0
C1171 C 0.08884 0.76292 0.81178 0.0
C1172 C 0.08426 0.7616 0.78685 0.0
C1173 C 0.0616 0.78455 0.77446 0.0
C1174 C 0.073 0.78905 0.85056 0.0
C1175 C 0.1047 0.73646 0.77314 0.0
H1176 H 0.22729 0.726 0.84214 0.0
H1177 H 0.10623 0.67217 0.8524 0.0
H1178 H 0.18564 0.77291 0.79885 0.0
H1179 H 0.17139 0.79205 0.82527 0.0
H1180 H 0.22544 0.77265 0.82334 0.0
H1181 H 0.03313 0.68716 0.83932 0.0
H1182 H 0.02474 0.72676 0.83898 0.0
H1183 H 0.03544 0.70831 0.81185 0.0
H1184 H 0.03294 0.82844 0.82038 0.0
H1185 H 0.05895 0.78378 0.75532 0.0
H1186 H 0.10966 0.79214 0.85551 0.0
H1187 H 0.06093 0.7682 0.85934 0.0
H1188 H 0.05279 0.80781 0.85755 0.0
H1189 H 0.14279 0.73697 0.7747 0.0
H1190 H 0.09548 0.7377 0.75403 0.0
H1191 H 0.09275 0.71485 0.78063 0.0
loop_
_geom_bond_atom_site_label_1
_geom_bond_atom_site_label_2
_geom_bond_distance
_geom_bond_site_symmetry_2
_ccdc_geom_bond_type
O0 Cd1 2.300 . S
O0 C7 1.275 . S
Cd1 O0 2.300 . S
Cd1 O9 2.381 . S
Cd1 O10 2.378 . S
O2 Cd3 2.385 . S
O2 C7 1.255 . S
Cd3 O2 2.385 . S
Cd3 O4 2.317 . S
O4 Cd3 2.317 . S
O4 C5 1.232 . S
C5 O4 1.232 . S
C5 O6 1.218 . S
O6 C5 1.218 . S
C7 O0 1.275 . S
C7 O2 1.255 . S
C8 O9 1.258 . S
C8 O10 1.256 . S
O9 Cd1 2.381 . S
O9 C8 1.258 . S
O10 Cd1 2.378 . S
O10 C8 1.256 . S
O11 Cd12 2.300 . S
O11 C18 1.275 . S
Cd12 O11 2.300 . S
Cd12 O20 2.381 . S
Cd12 O21 2.378 . S
O13 Cd14 2.385 . S
O13 C18 1.255 . S
Cd14 O13 2.385 . S
Cd14 O15 2.317 . S
O15 Cd14 2.317 . S
O15 C16 1.232 . S
C16 O15 1.232 . S
C16 O17 1.218 . S
O17 C16 1.218 . S
C18 O11 1.275 . S
C18 O13 1.255 . S
C19 O20 1.258 . S
C19 O21 1.256 . S
O20 Cd12 2.381 . S
O20 C19 1.258 . S
O21 Cd12 2.378 . S
O21 C19 1.256 . S
O22 Cd23 2.300 . S
O22 C29 1.275 . S
Cd23 O22 2.300 . S
Cd23 O31 2.381 . S
Cd23 O32 2.378 . S
O24 Cd25 2.385 . S
O24 C29 1.255 . S
Cd25 O24 2.385 . S
Cd25 O26 2.317 . S
O26 Cd25 2.317 . S
O26 C27 1.232 . S
C27 O26 1.232 . S
C27 O28 1.218 . S
O28 C27 1.218 . S
C29 O22 1.275 . S
C29 O24 1.255 . S
C30 O31 1.258 . S
C30 O32 1.256 . S
O31 Cd23 2.381 . S
O31 C30 1.258 . S
O32 Cd23 2.378 . S
O32 C30 1.256 . S
O33 Cd34 2.300 . S
O33 C40 1.275 . S
Cd34 O33 2.300 . S
Cd34 O42 2.381 . S
Cd34 O43 2.378 . S
O35 Cd36 2.385 . S
O35 C40 1.255 . S
Cd36 O35 2.385 . S
Cd36 O37 2.317 . S
O37 Cd36 2.317 . S
O37 C38 1.232 . S
C38 O37 1.232 . S
C38 O39 1.218 . S
O39 C38 1.218 . S
C40 O33 1.275 . S
C40 O35 1.255 . S
C41 O42 1.258 . S
C41 O43 1.256 . S
O42 Cd34 2.381 . S
O42 C41 1.258 . S
O43 Cd34 2.378 . S
O43 C41 1.256 . S
O44 Cd45 2.300 . S
O44 C51 1.275 . S
Cd45 O44 2.300 . S
Cd45 O53 2.381 . S
Cd45 O54 2.378 . S
O46 Cd47 2.385 . S
O46 C51 1.255 . S
Cd47 O46 2.385 . S
Cd47 O48 2.317 . S
O48 Cd47 2.317 . S
O48 C49 1.232 . S
C49 O48 1.232 . S
C49 O50 1.218 . S
O50 C49 1.218 . S
C51 O44 1.275 . S
C51 O46 1.255 . S
C52 O53 1.258 . S
C52 O54 1.256 . S
O53 Cd45 2.381 . S
O53 C52 1.258 . S
O54 Cd45 2.378 . S
O54 C52 1.256 . S
O55 Cd56 2.300 . S
O55 C62 1.275 . S
Cd56 O55 2.300 . S
Cd56 O64 2.381 . S
Cd56 O65 2.378 . S
O57 Cd58 2.385 . S
O57 C62 1.255 . S
Cd58 O57 2.385 . S
Cd58 O59 2.317 . S
O59 Cd58 2.317 . S
O59 C60 1.232 . S
C60 O59 1.232 . S
C60 O61 1.218 . S
O61 C60 1.218 . S
C62 O55 1.275 . S
C62 O57 1.255 . S
C63 O64 1.258 . S
C63 O65 1.256 . S
O64 Cd56 2.381 . S
O64 C63 1.258 . S
O65 Cd56 2.378 . S
O65 C63 1.256 . S
O66 Cd67 2.300 . S
O66 C73 1.275 . S
Cd67 O66 2.300 . S
Cd67 O75 2.381 . S
Cd67 O76 2.378 . S
O68 Cd69 2.385 . S
O68 C73 1.255 . S
Cd69 O68 2.385 . S
Cd69 O70 2.317 . S
O70 Cd69 2.317 . S
O70 C71 1.232 . S
C71 O70 1.232 . S
C71 O72 1.218 . S
O72 C71 1.218 . S
C73 O66 1.275 . S
C73 O68 1.255 . S
C74 O75 1.258 . S
C74 O76 1.256 . S
O75 Cd67 2.381 . S
O75 C74 1.258 . S
O76 Cd67 2.378 . S
O76 C74 1.256 . S
O77 Cd78 2.300 . S
O77 C84 1.275 . S
Cd78 O77 2.300 . S
Cd78 O86 2.381 . S
Cd78 O87 2.378 . S
O79 Cd80 2.385 . S
O79 C84 1.255 . S
Cd80 O79 2.385 . S
Cd80 O81 2.317 . S
O81 Cd80 2.317 . S
O81 C82 1.232 . S
C82 O81 1.232 . S
C82 O83 1.218 . S
O83 C82 1.218 . S
C84 O77 1.275 . S
C84 O79 1.255 . S
C85 O86 1.258 . S
C85 O87 1.256 . S
O86 Cd78 2.381 . S
O86 C85 1.258 . S
O87 Cd78 2.378 . S
O87 C85 1.256 . S
C88 C90 1.422 . S
C88 C92 1.415 . S
C88 N94 1.369 . S
C89 C90 1.421 . S
C89 C91 1.417 . S
C89 C101 1.422 . S
C90 C88 1.422 . S
C90 C89 1.421 . S
C90 N100 1.359 . S
C91 C89 1.417 . S
C91 C93 1.329 . S
C91 H110 0.930 . S
C92 C88 1.415 . S
C92 C93 1.437 . S
C92 C96 1.413 . S
C93 C91 1.329 . S
C93 C92 1.437 . S
C93 H115 0.929 . S
N94 C88 1.369 . S
N94 C95 1.338 . S
N94 Gd99 2.622 . S
C95 N94 1.338 . S
C95 C97 1.378 . S
C95 H107 0.929 . S
C96 C92 1.413 . S
C96 C97 1.348 . S
C96 H112 0.931 . S
C97 C95 1.378 . S
C97 C96 1.348 . S
C97 H113 0.930 . S
Gd98 N118 2.622 . S
Gd98 N125 2.570 . S
Gd98 O132 2.353 . S
Gd98 O133 2.468 . S
Gd98 O134 2.427 . S
Gd98 O136 2.388 . S
Gd98 O137 2.386 . S
Gd98 O141 2.307 . S
Gd98 C151 2.805 . S
Gd99 N94 2.622 . S
Gd99 N100 2.570 . S
Gd99 O131 2.386 . S
Gd99 O135 2.307 1_655 S
Gd99 O138 2.353 1_655 S
Gd99 O139 2.468 . S
Gd99 O140 2.427 . S
Gd99 O142 2.388 . S
Gd99 C163 2.805 . S
N100 C90 1.359 . S
N100 Gd99 2.570 . S
N100 C102 1.343 . S
C101 C89 1.422 . S
C101 C103 1.321 . S
C101 H109 0.931 1_545 S
C102 N100 1.343 . S
C102 C103 1.390 . S
C102 H104 0.931 . S
C103 C101 1.321 . S
C103 C102 1.390 . S
C103 H105 0.930 1_545 S
H104 C102 0.931 . S
H105 C103 0.930 1_565 S
H106 C129 0.931 . S
H107 C95 0.929 . S
H108 C130 0.930 . S
H109 C101 0.931 1_565 S
H110 C91 0.930 . S
H111 C120 0.929 . S
H112 C96 0.931 . S
H113 C97 0.930 . S
H114 C152 0.930 . S
H115 C93 0.929 . S
H116 C121 0.931 . S
H117 C122 0.930 . S
N118 Gd98 2.622 . S
N118 C119 1.369 . S
N118 C120 1.338 . S
C119 N118 1.369 . S
C119 C123 1.415 . S
C119 C126 1.422 . S
C120 H111 0.929 . S
C120 N118 1.338 . S
C120 C122 1.378 . S
C121 H116 0.931 . S
C121 C122 1.348 . S
C121 C123 1.413 . S
C122 H117 0.930 . S
C122 C120 1.378 . S
C122 C121 1.348 . S
C123 C119 1.415 . S
C123 C121 1.413 . S
C123 C153 1.437 . S
H124 C153 0.929 . S
N125 Gd98 2.570 . S
N125 C126 1.359 . S
N125 C129 1.343 . S
C126 C119 1.422 . S
C126 N125 1.359 . S
C126 C128 1.421 . S
C127 C128 1.422 . S
C127 C130 1.321 . S
C127 H154 0.931 . S
C128 C126 1.421 . S
C128 C127 1.422 . S
C128 C152 1.417 . S
C129 H106 0.931 . S
C129 N125 1.343 . S
C129 C130 1.390 . S
C130 H108 0.930 . S
C130 C127 1.321 . S
C130 C129 1.390 . S
O131 Gd99 2.386 . S
O131 C143 1.265 . S
O132 Gd98 2.353 . S
O132 C143 1.242 1_455 S
O133 Gd98 2.468 . S
O133 C151 1.263 . S
O134 Gd98 2.427 . S
O134 C151 1.252 . S
O135 Gd99 2.307 1_455 S
O135 C144 1.261 . S
O136 Gd98 2.388 . S
O136 C144 1.252 . S
O137 Gd98 2.386 . S
O137 C155 1.265 . S
O138 Gd99 2.353 1_455 S
O138 C155 1.242 . S
O139 Gd99 2.468 . S
O139 C163 1.263 . S
O140 Gd99 2.427 . S
O140 C163 1.252 . S
O141 Gd98 2.307 . S
O141 C156 1.261 1_455 S
O142 Gd99 2.388 . S
O142 C156 1.252 . S
C143 O131 1.265 . S
C143 O132 1.242 1_655 S
C144 O135 1.261 . S
C144 O136 1.252 . S
C145 C148 1.394 . S
C145 C150 1.370 . S
C145 C151 1.500 . S
C146 C149 1.383 . S
C146 C150 1.395 . S
C147 C148 1.396 . S
C147 C149 1.365 . S
C147 H164 0.929 . S
C148 C145 1.394 . S
C148 C147 1.396 . S
C148 H165 0.930 . S
C149 C146 1.383 . S
C149 C147 1.365 . S
C149 H166 0.931 . S
C150 C145 1.370 . S
C150 C146 1.395 . S
C150 H167 0.930 . S
C151 Gd98 2.805 . S
C151 O133 1.263 . S
C151 O134 1.252 . S
C151 C145 1.500 . S
C152 H114 0.930 . S
C152 C128 1.417 . S
C152 C153 1.329 . S
C153 C123 1.437 . S
C153 H124 0.929 . S
C153 C152 1.329 . S
H154 C127 0.931 . S
C155 O137 1.265 . S
C155 O138 1.242 . S
C156 O141 1.261 1_655 S
C156 O142 1.252 . S
C157 C160 1.394 . S
C157 C162 1.370 . S
C157 C163 1.500 . S
C158 C161 1.383 . S
C158 C162 1.395 . S
C159 C160 1.396 . S
C159 C161 1.365 . S
C159 H168 0.929 . S
C160 C157 1.394 . S
C160 C159 1.396 . S
C160 H169 0.930 . S
C161 C158 1.383 . S
C161 C159 1.365 . S
C161 H170 0.931 . S
C162 C157 1.370 . S
C162 C158 1.395 . S
C162 H171 0.930 . S
C163 Gd99 2.805 . S
C163 O139 1.263 . S
C163 O140 1.252 . S
C163 C157 1.500 . S
H164 C147 0.929 . S
H165 C148 0.930 . S
H166 C149 0.931 . S
H167 C150 0.930 . S
H168 C159 0.929 . S
H169 C160 0.930 . S
H170 C161 0.931 . S
H171 C162 0.930 . S
C172 C174 1.422 . S
C172 C176 1.415 . S
C172 N178 1.369 . S
C173 C174 1.421 . S
C173 C175 1.417 . S
C173 C185 1.422 . S
C174 C172 1.422 . S
C174 C173 1.421 . S
C174 N184 1.359 . S
C175 C173 1.417 . S
C175 C177 1.329 . S
C175 H194 0.930 . S
C176 C172 1.415 . S
C176 C177 1.437 . S
C176 C180 1.413 . S
C177 C175 1.329 . S
C177 C176 1.437 . S
C177 H199 0.929 . S
N178 C172 1.369 . S
N178 C179 1.338 . S
N178 Gd183 2.622 . S
C179 N178 1.338 . S
C179 C181 1.378 . S
C179 H191 0.929 . S
C180 C176 1.413 . S
C180 C181 1.348 . S
C180 H196 0.931 . S
C181 C179 1.378 . S
C181 C180 1.348 . S
C181 H197 0.930 . S
Gd182 N202 2.622 . S
Gd182 N209 2.570 . S
Gd182 O216 2.353 . S
Gd182 O217 2.468 . S
Gd182 O218 2.427 . S
Gd182 O220 2.388 . S
Gd182 O221 2.386 . S
Gd182 O225 2.307 . S
Gd182 C235 2.805 . S
Gd183 N178 2.622 . S
Gd183 N184 2.570 . S
Gd183 O215 2.386 . S
Gd183 O219 2.307 . S
Gd183 O222 2.353 . S
Gd183 O223 2.468 . S
Gd183 O224 2.427 . S
Gd183 O226 2.388 . S
Gd183 C247 2.805 . S
N184 C174 1.359 . S
N184 Gd183 2.570 . S
N184 C186 1.343 . S
C185 C173 1.422 . S
C185 C187 1.321 . S
C185 H193 0.931 . S
C186 N184 1.343 . S
C186 C187 1.390 . S
C186 H188 0.931 . S
C187 C185 1.321 . S
C187 C186 1.390 . S
C187 H189 0.930 . S
H188 C186 0.931 . S
H189 C187 0.930 . S
H190 C213 0.931 . S
H191 C179 0.929 . S
H192 C214 0.930 . S
H193 C185 0.931 . S
H194 C175 0.930 . S
H195 C204 0.929 . S
H196 C180 0.931 . S
H197 C181 0.930 . S
H198 C236 0.930 . S
H199 C177 0.929 . S
H200 C205 0.931 . S
H201 C206 0.930 . S
N202 Gd182 2.622 . S
N202 C203 1.369 . S
N202 C204 1.338 . S
C203 N202 1.369 . S
C203 C207 1.415 . S
C203 C210 1.422 . S
C204 H195 0.929 . S
C204 N202 1.338 . S
C204 C206 1.378 . S
C205 H200 0.931 . S
C205 C206 1.348 . S
C205 C207 1.413 . S
C206 H201 0.930 . S
C206 C204 1.378 . S
C206 C205 1.348 . S
C207 C203 1.415 . S
C207 C205 1.413 . S
C207 C237 1.437 . S
H208 C237 0.929 . S
N209 Gd182 2.570 . S
N209 C210 1.359 . S
N209 C213 1.343 . S
C210 C203 1.422 . S
C210 N209 1.359 . S
C210 C212 1.421 . S
C211 C212 1.422 . S
C211 C214 1.321 . S
C211 H238 0.931 . S
C212 C210 1.421 . S
C212 C211 1.422 . S
C212 C236 1.417 . S
C213 H190 0.931 . S
C213 N209 1.343 . S
C213 C214 1.390 . S
C214 H192 0.930 . S
C214 C211 1.321 . S
C214 C213 1.390 . S
O215 Gd183 2.386 . S
O215 C227 1.265 . S
O216 Gd182 2.353 . S
O216 C227 1.242 . S
O217 Gd182 2.468 . S
O217 C235 1.263 . S
O218 Gd182 2.427 . S
O218 C235 1.252 . S
O219 Gd183 2.307 . S
O219 C228 1.261 . S
O220 Gd182 2.388 . S
O220 C228 1.252 . S
O221 Gd182 2.386 . S
O221 C239 1.265 . S
O222 Gd183 2.353 . S
O222 C239 1.242 . S
O223 Gd183 2.468 . S
O223 C247 1.263 . S
O224 Gd183 2.427 . S
O224 C247 1.252 . S
O225 Gd182 2.307 . S
O225 C240 1.261 . S
O226 Gd183 2.388 . S
O226 C240 1.252 . S
C227 O215 1.265 . S
C227 O216 1.242 . S
C228 O219 1.261 . S
C228 O220 1.252 . S
C229 C232 1.394 . S
C229 C234 1.370 . S
C229 C235 1.500 . S
C230 C233 1.383 . S
C230 C234 1.395 . S
C231 C232 1.396 . S
C231 C233 1.365 . S
C231 H248 0.929 . S
C232 C229 1.394 . S
C232 C231 1.396 . S
C232 H249 0.930 . S
C233 C230 1.383 . S
C233 C231 1.365 . S
C233 H250 0.931 . S
C234 C229 1.370 . S
C234 C230 1.395 . S
C234 H251 0.930 . S
C235 Gd182 2.805 . S
C235 O217 1.263 . S
C235 O218 1.252 . S
C235 C229 1.500 . S
C236 H198 0.930 . S
C236 C212 1.417 . S
C236 C237 1.329 . S
C237 C207 1.437 . S
C237 H208 0.929 . S
C237 C236 1.329 . S
H238 C211 0.931 . S
C239 O221 1.265 . S
C239 O222 1.242 . S
C240 O225 1.261 . S
C240 O226 1.252 . S
C241 C244 1.394 . S
C241 C246 1.370 . S
C241 C247 1.500 . S
C242 C245 1.383 . S
C242 C246 1.395 . S
C243 C244 1.396 . S
C243 C245 1.365 . S
C243 H252 0.929 . S
C244 C241 1.394 . S
C244 C243 1.396 . S
C244 H253 0.930 . S
C245 C242 1.383 . S
C245 C243 1.365 . S
C245 H254 0.931 . S
C246 C241 1.370 . S
C246 C242 1.395 . S
C246 H255 0.930 . S
C247 Gd183 2.805 . S
C247 O223 1.263 . S
C247 O224 1.252 . S
C247 C241 1.500 . S
H248 C231 0.929 . S
H249 C232 0.930 . S
H250 C233 0.931 . S
H251 C234 0.930 . S
H252 C243 0.929 . S
H253 C244 0.930 . S
H254 C245 0.931 . S
H255 C246 0.930 . S
C256 C258 1.422 . S
C256 C260 1.415 . S
C256 N262 1.369 . S
C257 C258 1.421 . S
C257 C259 1.417 . S
C257 C269 1.422 . S
C258 C256 1.422 . S
C258 C257 1.421 . S
C258 N268 1.359 . S
C259 C257 1.417 . S
C259 C261 1.329 . S
C259 H278 0.930 . S
C260 C256 1.415 . S
C260 C261 1.437 . S
C260 C264 1.413 . S
C261 C259 1.329 . S
C261 C260 1.437 . S
C261 H283 0.929 . S
N262 C256 1.369 . S
N262 C263 1.338 . S
N262 Gd267 2.622 . S
C263 N262 1.338 . S
C263 C265 1.378 . S
C263 H275 0.929 . S
C264 C260 1.413 . S
C264 C265 1.348 . S
C264 H280 0.931 . S
C265 C263 1.378 . S
C265 C264 1.348 . S
C265 H281 0.930 . S
Gd266 N286 2.622 . S
Gd266 N293 2.570 . S
Gd266 O300 2.366 . S
Gd266 O301 2.468 . S
Gd266 O302 2.427 . S
Gd266 O304 2.388 . S
Gd266 O305 2.386 . S
Gd266 O309 2.307 . S
Gd266 C319 2.805 . S
Gd267 N262 2.622 . S
Gd267 N268 2.570 . S
Gd267 O299 2.386 . S
Gd267 O303 2.307 1_655 S
Gd267 O306 2.353 1_655 S
Gd267 O307 2.468 . S
Gd267 O308 2.427 . S
Gd267 O310 2.388 . S
Gd267 C331 2.805 . S
N268 C258 1.359 . S
N268 Gd267 2.570 . S
N268 C270 1.343 . S
C269 C257 1.422 . S
C269 C271 1.321 . S
C269 H277 0.931 . S
C270 N268 1.343 . S
C270 C271 1.390 . S
C270 H272 0.931 . S
C271 C269 1.321 . S
C271 C270 1.390 . S
C271 H273 0.930 . S
H272 C270 0.931 . S
H273 C271 0.930 . S
H274 C297 0.931 . S
H275 C263 0.929 . S
H276 C298 0.930 1_545 S
H277 C269 0.931 . S
H278 C259 0.930 . S
H279 C288 0.929 . S
H280 C264 0.931 . S
H281 C265 0.930 . S
H282 C320 0.930 . S
H283 C261 0.929 . S
H284 C289 0.931 . S
H285 C290 0.930 . S
N286 Gd266 2.622 . S
N286 C287 1.369 . S
N286 C288 1.338 . S
C287 N286 1.369 . S
C287 C291 1.415 . S
C287 C294 1.422 . S
C288 H279 0.929 . S
C288 N286 1.338 . S
C288 C290 1.378 . S
C289 H284 0.931 . S
C289 C290 1.348 . S
C289 C291 1.413 . S
C290 H285 0.930 . S
C290 C288 1.378 . S
C290 C289 1.348 . S
C291 C287 1.415 . S
C291 C289 1.413 . S
C291 C321 1.437 . S
H292 C321 0.929 . S
N293 Gd266 2.570 . S
N293 C294 1.359 . S
N293 C297 1.343 . S
C294 C287 1.422 . S
C294 N293 1.359 . S
C294 C296 1.421 . S
C295 C296 1.422 . S
C295 C298 1.321 . S
C295 H322 0.931 1_565 S
C296 C294 1.421 . S
C296 C295 1.422 . S
C296 C320 1.417 . S
C297 H274 0.931 . S
C297 N293 1.343 . S
C297 C298 1.390 . S
C298 H276 0.930 1_565 S
C298 C295 1.321 . S
C298 C297 1.390 . S
O299 Gd267 2.386 . S
O299 C311 1.265 . S
O300 Gd266 2.366 . S
O300 C311 1.226 1_455 S
O301 Gd266 2.468 . S
O301 C319 1.263 . S
O302 Gd266 2.427 . S
O302 C319 1.252 . S
O303 Gd267 2.307 1_455 S
O303 C312 1.261 . S
O304 Gd266 2.388 . S
O304 C312 1.252 . S
O305 Gd266 2.386 . S
O305 C323 1.265 . S
O306 Gd267 2.353 1_455 S
O306 C323 1.242 . S
O307 Gd267 2.468 . S
O307 C331 1.263 . S
O308 Gd267 2.427 . S
O308 C331 1.252 . S
O309 Gd266 2.307 . S
O309 C324 1.261 1_455 S
O310 Gd267 2.388 . S
O310 C324 1.252 . S
C311 O299 1.265 . S
C311 O300 1.226 1_655 S
C312 O303 1.261 . S
C312 O304 1.252 . S
C313 C316 1.394 . S
C313 C318 1.370 . S
C313 C319 1.500 . S
C314 C317 1.383 . S
C314 C318 1.395 . S
C315 C316 1.396 . S
C315 C317 1.365 . S
C315 H332 0.929 . S
C316 C313 1.394 . S
C316 C315 1.396 . S
C316 H333 0.930 . S
C317 C314 1.383 . S
C317 C315 1.365 . S
C317 H334 0.931 . S
C318 C313 1.370 . S
C318 C314 1.395 . S
C318 H335 0.930 . S
C319 Gd266 2.805 . S
C319 O301 1.263 . S
C319 O302 1.252 . S
C319 C313 1.500 . S
C320 H282 0.930 . S
C320 C296 1.417 . S
C320 C321 1.329 . S
C321 C291 1.437 . S
C321 H292 0.929 . S
C321 C320 1.329 . S
H322 C295 0.931 1_545 S
C323 O305 1.265 . S
C323 O306 1.242 . S
C324 O309 1.261 1_655 S
C324 O310 1.252 . S
C325 C328 1.394 . S
C325 C330 1.370 . S
C325 C331 1.500 . S
C326 C329 1.383 . S
C326 C330 1.395 . S
C327 C328 1.396 . S
C327 C329 1.365 . S
C327 H336 0.929 . S
C328 C325 1.394 . S
C328 C327 1.396 . S
C328 H337 0.930 . S
C329 C326 1.383 . S
C329 C327 1.365 . S
C329 H338 0.931 . S
C330 C325 1.370 . S
C330 C326 1.395 . S
C330 H339 0.930 . S
C331 Gd267 2.805 . S
C331 O307 1.263 . S
C331 O308 1.252 . S
C331 C325 1.500 . S
H332 C315 0.929 . S
H333 C316 0.930 . S
H334 C317 0.931 . S
H335 C318 0.930 . S
H336 C327 0.929 . S
H337 C328 0.930 . S
H338 C329 0.931 . S
H339 C330 0.930 . S
C340 C342 1.422 . S
C340 C344 1.415 . S
C340 N346 1.369 . S
C341 C342 1.421 . S
C341 C343 1.417 . S
C341 C353 1.422 . S
C342 C340 1.422 . S
C342 C341 1.421 . S
C342 N352 1.359 . S
C343 C341 1.417 . S
C343 C345 1.329 . S
C343 H362 0.930 . S
C344 C340 1.415 . S
C344 C345 1.437 . S
C344 C348 1.413 . S
C345 C343 1.329 . S
C345 C344 1.437 . S
C345 H367 0.929 . S
N346 C340 1.369 . S
N346 C347 1.338 . S
N346 Gd351 2.622 . S
C347 N346 1.338 . S
C347 C349 1.378 . S
C347 H359 0.929 . S
C348 C344 1.413 . S
C348 C349 1.348 . S
C348 H364 0.931 . S
C349 C347 1.378 . S
C349 C348 1.348 . S
C349 H365 0.930 . S
Gd350 N370 2.622 . S
Gd350 N377 2.570 . S
Gd350 O384 2.353 . S
Gd350 O385 2.468 . S
Gd350 O386 2.427 . S
Gd350 O388 2.388 . S
Gd350 O389 2.386 . S
Gd350 O393 2.307 . S
Gd350 C403 2.805 . S
Gd351 N346 2.622 . S
Gd351 N352 2.570 . S
Gd351 O383 2.386 . S
Gd351 O387 2.307 . S
Gd351 O390 2.353 . S
Gd351 O391 2.468 . S
Gd351 O392 2.427 . S
Gd351 O394 2.388 . S
Gd351 C415 2.805 . S
N352 C342 1.359 . S
N352 Gd351 2.570 . S
N352 C354 1.343 . S
C353 C341 1.422 . S
C353 C355 1.321 . S
C353 H361 0.931 . S
C354 N352 1.343 . S
C354 C355 1.390 . S
C354 H356 0.931 . S
C355 C353 1.321 . S
C355 C354 1.390 . S
C355 H357 0.930 . S
H356 C354 0.931 . S
H357 C355 0.930 . S
H358 C381 0.931 . S
H359 C347 0.929 . S
H360 C382 0.930 . S
H361 C353 0.931 . S
H362 C343 0.930 . S
H363 C372 0.929 . S
H364 C348 0.931 . S
H365 C349 0.930 . S
H366 C404 0.930 . S
H367 C345 0.929 . S
H368 C373 0.931 . S
H369 C374 0.930 . S
N370 Gd350 2.622 . S
N370 C371 1.369 . S
N370 C372 1.338 . S
C371 N370 1.369 . S
C371 C375 1.415 . S
C371 C378 1.422 . S
C372 H363 0.929 . S
C372 N370 1.338 . S
C372 C374 1.378 . S
C373 H368 0.931 . S
C373 C374 1.348 . S
C373 C375 1.413 . S
C374 H369 0.930 . S
C374 C372 1.378 . S
C374 C373 1.348 . S
C375 C371 1.415 . S
C375 C373 1.413 . S
C375 C405 1.437 . S
H376 C405 0.929 . S
N377 Gd350 2.570 . S
N377 C378 1.359 . S
N377 C381 1.343 . S
C378 C371 1.422 . S
C378 N377 1.359 . S
C378 C380 1.421 . S
C379 C380 1.422 . S
C379 C382 1.321 . S
C379 H406 0.931 . S
C380 C378 1.421 . S
C380 C379 1.422 . S
C380 C404 1.417 . S
C381 H358 0.931 . S
C381 N377 1.343 . S
C381 C382 1.390 . S
C382 H360 0.930 . S
C382 C379 1.321 . S
C382 C381 1.390 . S
O383 Gd351 2.386 . S
O383 C395 1.265 . S
O384 Gd350 2.353 . S
O384 C395 1.242 . S
O385 Gd350 2.468 . S
O385 C403 1.263 . S
O386 Gd350 2.427 . S
O386 C403 1.252 . S
O387 Gd351 2.307 . S
O387 C396 1.261 . S
O388 Gd350 2.388 . S
O388 C396 1.252 . S
O389 Gd350 2.386 . S
O389 C407 1.265 . S
O390 Gd351 2.353 . S
O390 C407 1.242 . S
O391 Gd351 2.468 . S
O391 C415 1.263 . S
O392 Gd351 2.427 . S
O392 C415 1.252 . S
O393 Gd350 2.307 . S
O393 C408 1.261 . S
O394 Gd351 2.388 . S
O394 C408 1.252 . S
C395 O383 1.265 . S
C395 O384 1.242 . S
C396 O387 1.261 . S
C396 O388 1.252 . S
C397 C400 1.394 . S
C397 C402 1.370 . S
C397 C403 1.500 . S
C398 C401 1.383 . S
C398 C402 1.395 . S
C399 C400 1.396 . S
C399 C401 1.365 . S
C399 H416 0.929 . S
C400 C397 1.394 . S
C400 C399 1.396 . S
C400 H417 0.930 . S
C401 C398 1.383 . S
C401 C399 1.365 . S
C401 H418 0.931 . S
C402 C397 1.370 . S
C402 C398 1.395 . S
C402 H419 0.930 . S
C403 Gd350 2.805 . S
C403 O385 1.263 . S
C403 O386 1.252 . S
C403 C397 1.500 . S
C404 H366 0.930 . S
C404 C380 1.417 . S
C404 C405 1.329 . S
C405 C375 1.437 . S
C405 H376 0.929 . S
C405 C404 1.329 . S
H406 C379 0.931 . S
C407 O389 1.265 . S
C407 O390 1.242 . S
C408 O393 1.261 . S
C408 O394 1.252 . S
C409 C412 1.394 . S
C409 C414 1.370 . S
C409 C415 1.500 . S
C410 C413 1.383 . S
C410 C414 1.395 . S
C411 C412 1.396 . S
C411 C413 1.365 . S
C411 H420 0.929 . S
C412 C409 1.394 . S
C412 C411 1.396 . S
C412 H421 0.930 . S
C413 C410 1.383 . S
C413 C411 1.365 . S
C413 H422 0.931 . S
C414 C409 1.370 . S
C414 C410 1.395 . S
C414 H423 0.930 . S
C415 Gd351 2.805 . S
C415 O391 1.263 . S
C415 O392 1.252 . S
C415 C409 1.500 . S
H416 C399 0.929 . S
H417 C400 0.930 . S
H418 C401 0.931 . S
H419 C402 0.930 . S
H420 C411 0.929 . S
H421 C412 0.930 . S
H422 C413 0.931 . S
H423 C414 0.930 . S
C424 C425 1.391 . S
C424 C426 1.394 . S
C424 H440 0.931 . S
C425 C424 1.391 . S
C425 C429 1.376 . S
C426 C424 1.394 . S
C426 C427 1.369 . S
C426 C430 1.531 . S
C427 C426 1.369 . S
C427 C428 1.410 . S
C427 C435 1.503 . S
C428 C427 1.410 . S
C428 C429 1.392 . S
C428 C431 1.511 . S
C429 C425 1.376 . S
C429 C428 1.392 . S
C429 H441 0.929 . S
C430 C426 1.531 . S
C430 H442 0.960 . S
C430 H443 0.962 . S
C430 H444 0.960 . S
C431 C428 1.511 . S
C431 H445 0.961 . S
C431 H446 0.961 . S
C431 H447 0.961 . S
C432 C433 1.370 . S
C432 C434 1.363 . S
C432 H448 0.931 . S
C433 C432 1.370 . S
C433 C437 1.408 . S
C434 C432 1.363 . S
C434 C435 1.370 1_545 S
C434 C438 1.524 . S
C435 C427 1.503 . S
C435 C434 1.370 1_565 S
C435 C436 1.403 . S
C436 C435 1.403 . S
C436 C437 1.404 1_565 S
C436 C439 1.539 . S
C437 C433 1.408 . S
C437 C436 1.404 1_545 S
C437 H449 0.930 . S
C438 C434 1.524 . S
C438 H450 0.956 . S
C438 H451 0.961 . S
C438 H452 0.961 . S
C439 C436 1.539 . S
C439 H453 0.958 . S
C439 H454 0.961 . S
C439 H455 0.960 . S
H440 C424 0.931 . S
H441 C429 0.929 . S
H442 C430 0.960 . S
H443 C430 0.962 . S
H444 C430 0.960 . S
H445 C431 0.961 . S
H446 C431 0.961 . S
H447 C431 0.961 . S
H448 C432 0.931 . S
H449 C437 0.930 . S
H450 C438 0.956 . S
H451 C438 0.961 . S
H452 C438 0.961 . S
H453 C439 0.958 . S
H454 C439 0.961 . S
H455 C439 0.960 . S
C456 C457 1.391 . S
C456 C458 1.394 . S
C456 H472 0.931 . S
C457 C456 1.391 . S
C457 C461 1.376 . S
C458 C456 1.394 . S
C458 C459 1.369 . S
C458 C462 1.531 . S
C459 C458 1.369 . S
C459 C460 1.410 . S
C459 C467 1.503 . S
C460 C459 1.410 . S
C460 C461 1.392 . S
C460 C463 1.511 . S
C461 C457 1.376 . S
C461 C460 1.392 . S
C461 H473 0.929 . S
C462 C458 1.531 . S
C462 H474 0.960 . S
C462 H475 0.962 . S
C462 H476 0.960 . S
C463 C460 1.511 . S
C463 H477 0.961 . S
C463 H478 0.961 . S
C463 H479 0.961 . S
C464 C465 1.370 . S
C464 C466 1.363 . S
C464 H480 0.931 . S
C465 C464 1.370 . S
C465 C469 1.408 . S
C466 C464 1.363 . S
C466 C467 1.370 . S
C466 C470 1.524 . S
C467 C459 1.503 . S
C467 C466 1.370 . S
C467 C468 1.403 . S
C468 C467 1.403 . S
C468 C469 1.404 . S
C468 C471 1.539 . S
C469 C465 1.408 . S
C469 C468 1.404 . S
C469 H481 0.930 . S
C470 C466 1.524 . S
C470 H482 0.956 . S
C470 H483 0.961 . S
C470 H484 0.961 . S
C471 C468 1.539 . S
C471 H485 0.958 . S
C471 H486 0.961 . S
C471 H487 0.960 . S
H472 C456 0.931 . S
H473 C461 0.929 . S
H474 C462 0.960 . S
H475 C462 0.962 . S
H476 C462 0.960 . S
H477 C463 0.961 . S
H478 C463 0.961 . S
H479 C463 0.961 . S
H480 C464 0.931 . S
H481 C469 0.930 . S
H482 C470 0.956 . S
H483 C470 0.961 . S
H484 C470 0.961 . S
H485 C471 0.958 . S
H486 C471 0.961 . S
H487 C471 0.960 . S
C488 C489 1.391 . S
C488 C490 1.394 . S
C488 H504 0.931 . S
C489 C488 1.391 . S
C489 C493 1.376 . S
C490 C488 1.394 . S
C490 C491 1.369 . S
C490 C494 1.531 . S
C491 C490 1.369 . S
C491 C492 1.410 . S
C491 C499 1.503 . S
C492 C491 1.410 . S
C492 C493 1.392 . S
C492 C495 1.511 . S
C493 C489 1.376 . S
C493 C492 1.392 . S
C493 H505 0.929 . S
C494 C490 1.531 . S
C494 H506 0.960 . S
C494 H507 0.962 . S
C494 H508 0.960 . S
C495 C492 1.511 . S
C495 H509 0.961 . S
C495 H510 0.961 . S
C495 H511 0.961 . S
C496 C497 1.370 . S
C496 C498 1.363 . S
C496 H512 0.931 . S
C497 C496 1.370 . S
C497 C501 1.408 . S
C498 C496 1.363 . S
C498 C499 1.370 . S
C498 C502 1.524 . S
C499 C491 1.503 . S
C499 C498 1.370 . S
C499 C500 1.403 . S
C500 C499 1.403 . S
C500 C501 1.404 . S
C500 C503 1.539 . S
C501 C497 1.408 . S
C501 C500 1.404 . S
C501 H513 0.930 . S
C502 C498 1.524 . S
C502 H514 0.956 . S
C502 H515 0.961 . S
C502 H516 0.961 . S
C503 C500 1.539 . S
C503 H517 0.958 . S
C503 H518 0.961 . S
C503 H519 0.960 . S
H504 C488 0.931 . S
H505 C493 0.929 . S
H506 C494 0.960 . S
H507 C494 0.962 . S
H508 C494 0.960 . S
H509 C495 0.961 . S
H510 C495 0.961 . S
H511 C495 0.961 . S
H512 C496 0.931 . S
H513 C501 0.930 . S
H514 C502 0.956 . S
H515 C502 0.961 . S
H516 C502 0.961 . S
H517 C503 0.958 . S
H518 C503 0.961 . S
H519 C503 0.960 . S
C520 C521 1.391 . S
C520 C522 1.394 . S
C520 H536 0.931 . S
C521 C520 1.391 . S
C521 C525 1.376 . S
C522 C520 1.394 . S
C522 C523 1.369 . S
C522 C526 1.531 . S
C523 C522 1.369 . S
C523 C524 1.410 . S
C523 C531 1.503 . S
C524 C523 1.410 . S
C524 C525 1.392 . S
C524 C527 1.511 . S
C525 C521 1.376 . S
C525 C524 1.392 . S
C525 H537 0.929 . S
C526 C522 1.531 . S
C526 H538 0.960 . S
C526 H539 0.962 . S
C526 H540 0.960 . S
C527 C524 1.511 . S
C527 H541 0.961 . S
C527 H542 0.961 . S
C527 H543 0.961 . S
C528 C529 1.370 . S
C528 C530 1.363 . S
C528 H544 0.931 . S
C529 C528 1.370 . S
C529 C533 1.408 . S
C530 C528 1.363 . S
C530 C531 1.370 1_545 S
C530 C534 1.524 . S
C531 C523 1.503 . S
C531 C530 1.370 1_565 S
C531 C532 1.403 . S
C532 C531 1.403 . S
C532 C533 1.404 1_565 S
C532 C535 1.539 . S
C533 C529 1.408 . S
C533 C532 1.404 1_545 S
C533 H545 0.925 1_545 S
C534 C530 1.524 . S
C534 H546 0.956 . S
C534 H547 0.961 . S
C534 H548 0.961 . S
C535 C532 1.539 . S
C535 H549 0.958 . S
C535 H550 0.961 . S
C535 H551 0.960 . S
H536 C520 0.931 . S
H537 C525 0.929 . S
H538 C526 0.960 . S
H539 C526 0.962 . S
H540 C526 0.960 . S
H541 C527 0.961 . S
H542 C527 0.961 . S
H543 C527 0.961 . S
H544 C528 0.931 . S
H545 C533 0.925 1_565 S
H546 C534 0.956 . S
H547 C534 0.961 . S
H548 C534 0.961 . S
H549 C535 0.958 . S
H550 C535 0.961 . S
H551 C535 0.960 . S
C552 C553 1.391 . S
C552 C554 1.394 . S
C552 H568 0.931 . S
C553 C552 1.391 . S
C553 C557 1.376 . S
C554 C552 1.394 . S
C554 C555 1.369 . S
C554 C558 1.531 . S
C555 C554 1.369 . S
C555 C556 1.410 . S
C555 C563 1.503 . S
C556 C555 1.410 . S
C556 C557 1.392 . S
C556 C559 1.511 . S
C557 C553 1.376 . S
C557 C556 1.392 . S
C557 H569 0.929 . S
C558 C554 1.531 . S
C558 H570 0.960 . S
C558 H571 0.962 . S
C558 H572 0.960 . S
C559 C556 1.511 . S
C559 H573 0.961 . S
C559 H574 0.961 . S
C559 H575 0.961 . S
C560 C561 1.370 . S
C560 C562 1.363 . S
C560 H576 0.931 . S
C561 C560 1.370 . S
C561 C565 1.408 . S
C562 C560 1.363 . S
C562 C563 1.370 1_565 S
C562 C566 1.524 . S
C563 C555 1.503 . S
C563 C562 1.370 1_545 S
C563 C564 1.403 . S
C564 C563 1.403 . S
C564 C565 1.404 1_545 S
C564 C567 1.539 . S
C565 C561 1.408 . S
C565 C564 1.404 1_565 S
C565 H577 0.930 . S
C566 C562 1.524 . S
C566 H578 0.956 . S
C566 H579 0.961 . S
C566 H580 0.961 . S
C567 C564 1.539 . S
C567 H581 0.958 . S
C567 H582 0.961 . S
C567 H583 0.960 . S
H568 C552 0.931 . S
H569 C557 0.929 . S
H570 C558 0.960 . S
H571 C558 0.962 . S
H572 C558 0.960 . S
H573 C559 0.961 . S
H574 C559 0.961 . S
H575 C559 0.961 . S
H576 C560 0.931 . S
H577 C565 0.930 . S
H578 C566 0.956 . S
H579 C566 0.961 . S
H580 C566 0.961 . S
H581 C567 0.958 . S
H582 C567 0.961 . S
H583 C567 0.960 . S
C584 C585 1.391 . S
C584 C586 1.394 . S
C584 H600 0.931 . S
C585 C584 1.391 . S
C585 C589 1.376 . S
C586 C584 1.394 . S
C586 C587 1.369 . S
C586 C590 1.531 . S
C587 C586 1.369 . S
C587 C588 1.410 . S
C587 C595 1.503 . S
C588 C587 1.410 . S
C588 C589 1.392 . S
C588 C591 1.511 . S
C589 C585 1.376 . S
C589 C588 1.392 . S
C589 H601 0.929 . S
C590 C586 1.531 . S
C590 H602 0.960 . S
C590 H603 0.962 . S
C590 H604 0.960 . S
C591 C588 1.511 . S
C591 H605 0.961 . S
C591 H606 0.961 . S
C591 H607 0.961 . S
C592 C593 1.370 . S
C592 C594 1.363 . S
C592 H608 0.931 . S
C593 C592 1.370 . S
C593 C597 1.408 . S
C594 C592 1.363 . S
C594 C595 1.370 . S
C594 C598 1.524 . S
C595 C587 1.503 . S
C595 C594 1.370 . S
C595 C596 1.403 . S
C596 C595 1.403 . S
C596 C597 1.404 . S
C596 C599 1.539 . S
C597 C593 1.408 . S
C597 C596 1.404 . S
C597 H609 0.930 . S
C598 C594 1.524 . S
C598 H610 0.956 . S
C598 H611 0.961 . S
C598 H612 0.961 . S
C599 C596 1.539 . S
C599 H613 0.958 . S
C599 H614 0.961 . S
C599 H615 0.960 . S
H600 C584 0.931 . S
H601 C589 0.929 . S
H602 C590 0.960 . S
H603 C590 0.962 . S
H604 C590 0.960 . S
H605 C591 0.961 . S
H606 C591 0.961 . S
H607 C591 0.961 . S
H608 C592 0.931 . S
H609 C597 0.930 . S
H610 C598 0.956 . S
H611 C598 0.961 . S
H612 C598 0.961 . S
H613 C599 0.958 . S
H614 C599 0.961 . S
H615 C599 0.960 . S
C616 C617 1.391 . S
C616 C618 1.394 . S
C616 H632 0.931 . S
C617 C616 1.391 . S
C617 C621 1.376 . S
C618 C616 1.394 . S
C618 C619 1.369 . S
C618 C622 1.531 . S
C619 C618 1.369 . S
C619 C620 1.410 . S
C619 C627 1.503 . S
C620 C619 1.410 . S
C620 C621 1.392 . S
C620 C623 1.511 . S
C621 C617 1.376 . S
C621 C620 1.392 . S
C621 H633 0.929 . S
C622 C618 1.531 . S
C622 H634 0.960 . S
C622 H635 0.962 . S
C622 H636 0.960 . S
C623 C620 1.511 . S
C623 H637 0.961 . S
C623 H638 0.961 . S
C623 H639 0.961 . S
C624 C625 1.370 . S
C624 C626 1.363 . S
C624 H640 0.931 . S
C625 C624 1.370 . S
C625 C629 1.408 . S
C626 C624 1.363 . S
C626 C627 1.370 . S
C626 C630 1.524 . S
C627 C619 1.503 . S
C627 C626 1.370 . S
C627 C628 1.403 . S
C628 C627 1.403 . S
C628 C629 1.404 . S
C628 C631 1.539 . S
C629 C625 1.408 . S
C629 C628 1.404 . S
C629 H641 0.930 . S
C630 C626 1.524 . S
C630 H642 0.956 . S
C630 H643 0.961 . S
C630 H644 0.961 . S
C631 C628 1.539 . S
C631 H645 0.958 . S
C631 H646 0.961 . S
C631 H647 0.960 . S
H632 C616 0.931 . S
H633 C621 0.929 . S
H634 C622 0.960 . S
H635 C622 0.962 . S
H636 C622 0.960 . S
H637 C623 0.961 . S
H638 C623 0.961 . S
H639 C623 0.961 . S
H640 C624 0.931 . S
H641 C629 0.930 . S
H642 C630 0.956 . S
H643 C630 0.961 . S
H644 C630 0.961 . S
H645 C631 0.958 . S
H646 C631 0.961 . S
H647 C631 0.960 . S
C648 C649 1.391 . S
C648 C650 1.394 . S
C648 H664 0.931 . S
C649 C648 1.391 . S
C649 C653 1.376 . S
C650 C648 1.394 . S
C650 C651 1.369 . S
C650 C654 1.531 1_545 S
C651 C650 1.369 . S
C651 C652 1.410 . S
C651 C659 1.503 1_545 S
C652 C651 1.410 . S
C652 C653 1.392 . S
C652 C655 1.511 . S
C653 C649 1.376 . S
C653 C652 1.392 . S
C653 H665 0.929 . S
C654 C650 1.531 1_565 S
C654 H666 0.960 . S
C654 H667 0.962 . S
C654 H668 0.960 . S
C655 C652 1.511 . S
C655 H669 0.961 . S
C655 H670 0.961 . S
C655 H671 0.961 . S
C656 C657 1.370 . S
C656 C658 1.383 . S
C656 H672 0.931 . S
C657 C656 1.370 . S
C657 C661 1.408 . S
C658 C656 1.383 . S
C658 C659 1.379 . S
C658 C662 1.497 1_565 S
C659 C651 1.503 1_565 S
C659 C658 1.379 . S
C659 C660 1.403 . S
C660 C659 1.403 . S
C660 C661 1.404 . S
C660 C663 1.539 . S
C661 C657 1.408 . S
C661 C660 1.404 . S
C661 H673 0.930 . S
C662 C658 1.497 1_545 S
C662 H674 0.956 . S
C662 H675 0.961 . S
C662 H676 0.961 . S
C663 C660 1.539 . S
C663 H677 0.958 . S
C663 H678 0.961 . S
C663 H679 0.960 . S
H664 C648 0.931 . S
H665 C653 0.929 . S
H666 C654 0.960 . S
H667 C654 0.962 . S
H668 C654 0.960 . S
H669 C655 0.961 . S
H670 C655 0.961 . S
H671 C655 0.961 . S
H672 C656 0.931 . S
H673 C661 0.930 . S
H674 C662 0.956 . S
H675 C662 0.961 . S
H676 C662 0.961 . S
H677 C663 0.958 . S
H678 C663 0.961 . S
H679 C663 0.960 . S
C680 C681 1.391 . S
C680 C682 1.394 1_556 S
C680 H696 0.931 . S
C681 C680 1.391 . S
C681 C685 1.376 . S
C682 C680 1.394 1_554 S
C682 C683 1.369 . S
C682 C686 1.531 . S
C683 C682 1.369 . S
C683 C684 1.410 . S
C683 C691 1.503 . S
C684 C683 1.410 . S
C684 C685 1.392 1_554 S
C684 C687 1.511 . S
C685 C681 1.376 . S
C685 C684 1.392 1_556 S
C685 H697 0.929 . S
C686 C682 1.531 . S
C686 H698 0.960 . S
C686 H699 0.962 . S
C686 H700 0.960 . S
C687 C684 1.511 . S
C687 H701 0.961 . S
C687 H702 0.961 . S
C687 H703 0.961 . S
C688 C689 1.370 . S
C688 C690 1.363 . S
C688 H704 0.931 . S
C689 C688 1.370 . S
C689 C693 1.408 . S
C690 C688 1.363 . S
C690 C691 1.370 . S
C690 C694 1.524 . S
C691 C683 1.503 . S
C691 C690 1.370 . S
C691 C692 1.403 . S
C692 C691 1.403 . S
C692 C693 1.404 . S
C692 C695 1.539 . S
C693 C689 1.408 . S
C693 C692 1.404 . S
C693 H705 0.930 . S
C694 C690 1.524 . S
C694 H706 0.956 . S
C694 H707 0.961 . S
C694 H708 0.961 . S
C695 C692 1.539 . S
C695 H709 0.958 . S
C695 H710 0.961 . S
C695 H711 0.960 . S
H696 C680 0.931 . S
H697 C685 0.929 . S
H698 C686 0.960 . S
H699 C686 0.962 . S
H700 C686 0.960 . S
H701 C687 0.961 . S
H702 C687 0.961 . S
H703 C687 0.961 . S
H704 C688 0.931 . S
H705 C693 0.930 . S
H706 C694 0.956 . S
H707 C694 0.961 . S
H708 C694 0.961 . S
H709 C695 0.958 . S
H710 C695 0.961 . S
H711 C695 0.960 . S
C712 C713 1.391 . S
C712 C714 1.394 . S
C712 H728 0.931 . S
C713 C712 1.391 . S
C713 C717 1.376 . S
C714 C712 1.394 . S
C714 C715 1.369 . S
C714 C718 1.531 . S
C715 C714 1.369 . S
C715 C716 1.410 . S
C715 C723 1.503 . S
C716 C715 1.410 . S
C716 C717 1.392 . S
C716 C719 1.511 . S
C717 C713 1.376 . S
C717 C716 1.392 . S
C717 H729 0.929 . S
C718 C714 1.531 . S
C718 H730 0.960 . S
C718 H731 0.962 . S
C718 H732 0.960 . S
C719 C716 1.511 . S
C719 H733 0.961 . S
C719 H734 0.961 . S
C719 H735 0.961 . S
C720 C721 1.370 . S
C720 C722 1.363 . S
C720 H736 0.931 . S
C721 C720 1.370 . S
C721 C725 1.408 . S
C722 C720 1.363 . S
C722 C723 1.370 . S
C722 C726 1.524 . S
C723 C715 1.503 . S
C723 C722 1.370 . S
C723 C724 1.403 . S
C724 C723 1.403 . S
C724 C725 1.404 . S
C724 C727 1.539 . S
C725 C721 1.408 . S
C725 C724 1.404 . S
C725 H737 0.930 . S
C726 C722 1.524 . S
C726 H738 0.956 . S
C726 H739 0.961 . S
C726 H740 0.961 . S
C727 C724 1.539 . S
C727 H741 0.958 . S
C727 H742 0.961 . S
C727 H743 0.960 . S
H728 C712 0.931 . S
H729 C717 0.929 . S
H730 C718 0.960 . S
H731 C718 0.962 . S
H732 C718 0.960 . S
H733 C719 0.961 . S
H734 C719 0.961 . S
H735 C719 0.961 . S
H736 C720 0.931 . S
H737 C725 0.930 . S
H738 C726 0.956 . S
H739 C726 0.961 . S
H740 C726 0.961 . S
H741 C727 0.958 . S
H742 C727 0.961 . S
H743 C727 0.960 . S
C744 C745 1.391 . S
C744 C746 1.394 1_554 S
C744 H760 0.931 . S
C745 C744 1.391 . S
C745 C749 1.376 . S
C746 C744 1.394 1_556 S
C746 C747 1.369 . S
C746 C750 1.531 . S
C747 C746 1.369 . S
C747 C748 1.410 1_556 S
C747 C755 1.503 . S
C748 C747 1.410 1_554 S
C748 C749 1.392 . S
C748 C751 1.511 . S
C749 C745 1.376 . S
C749 C748 1.392 . S
C749 H761 0.929 . S
C750 C746 1.531 . S
C750 H762 0.960 . S
C750 H763 0.962 . S
C750 H764 0.960 . S
C751 C748 1.511 . S
C751 H765 0.961 . S
C751 H766 0.961 1_554 S
C751 H767 0.961 . S
C752 C753 1.370 . S
C752 C754 1.363 . S
C752 H768 0.931 . S
C753 C752 1.370 . S
C753 C757 1.408 . S
C754 C752 1.363 . S
C754 C755 1.370 . S
C754 C758 1.524 . S
C755 C747 1.503 . S
C755 C754 1.370 . S
C755 C756 1.403 . S
C756 C755 1.403 . S
C756 C757 1.404 . S
C756 C759 1.539 . S
C757 C753 1.408 . S
C757 C756 1.404 . S
C757 H769 0.930 . S
C758 C754 1.524 . S
C758 H770 0.956 . S
C758 H771 0.961 . S
C758 H772 0.961 . S
C759 C756 1.539 . S
C759 H773 0.958 . S
C759 H774 0.961 . S
C759 H775 0.960 . S
H760 C744 0.931 . S
H761 C749 0.929 . S
H762 C750 0.960 . S
H763 C750 0.962 . S
H764 C750 0.960 . S
H765 C751 0.961 . S
H766 C751 0.961 1_556 S
H767 C751 0.961 . S
H768 C752 0.931 . S
H769 C757 0.930 . S
H770 C758 0.956 . S
H771 C758 0.961 . S
H772 C758 0.961 . S
H773 C759 0.958 . S
H774 C759 0.961 . S
H775 C759 0.960 . S
C776 C777 1.391 . S
C776 C778 1.394 . S
C776 H792 0.931 . S
C777 C776 1.391 . S
C777 C781 1.376 . S
C778 C776 1.394 . S
C778 C779 1.369 . S
C778 C782 1.531 . S
C779 C778 1.369 . S
C779 C780 1.410 . S
C779 C787 1.503 . S
C780 C779 1.410 . S
C780 C781 1.392 . S
C780 C783 1.511 . S
C781 C777 1.376 . S
C781 C780 1.392 . S
C781 H793 0.929 . S
C782 C778 1.531 . S
C782 H794 0.960 . S
C782 H795 0.962 . S
C782 H796 0.960 . S
C783 C780 1.511 . S
C783 H797 0.961 . S
C783 H798 0.961 . S
C783 H799 0.961 . S
C784 C785 1.370 . S
C784 C786 1.363 . S
C784 H800 0.931 . S
C785 C784 1.370 . S
C785 C789 1.408 . S
C786 C784 1.363 . S
C786 C787 1.370 . S
C786 C790 1.524 . S
C787 C779 1.503 . S
C787 C786 1.370 . S
C787 C788 1.403 . S
C788 C787 1.403 . S
C788 C789 1.404 . S
C788 C791 1.539 . S
C789 C785 1.408 . S
C789 C788 1.404 . S
C789 H801 0.930 . S
C790 C786 1.524 . S
C790 H802 0.956 . S
C790 H803 0.961 . S
C790 H804 0.961 . S
C791 C788 1.539 . S
C791 H805 0.958 . S
C791 H806 0.961 . S
C791 H807 0.960 . S
H792 C776 0.931 . S
H793 C781 0.929 . S
H794 C782 0.960 . S
H795 C782 0.962 . S
H796 C782 0.960 . S
H797 C783 0.961 . S
H798 C783 0.961 . S
H799 C783 0.961 . S
H800 C784 0.931 . S
H801 C789 0.930 . S
H802 C790 0.956 . S
H803 C790 0.961 . S
H804 C790 0.961 . S
H805 C791 0.958 . S
H806 C791 0.961 . S
H807 C791 0.960 . S
C808 C809 1.391 . S
C808 C810 1.394 1_554 S
C808 H824 0.931 . S
C809 C808 1.391 . S
C809 C813 1.376 . S
C810 C808 1.394 1_556 S
C810 C811 1.369 . S
C810 C814 1.531 . S
C811 C810 1.369 . S
C811 C812 1.410 . S
C811 C819 1.503 . S
C812 C811 1.410 . S
C812 C813 1.392 1_556 S
C812 C815 1.511 . S
C813 C809 1.376 . S
C813 C812 1.392 1_554 S
C813 H825 0.929 . S
C814 C810 1.531 . S
C814 H826 0.960 . S
C814 H827 0.962 . S
C814 H828 0.960 . S
C815 C812 1.511 . S
C815 H829 0.961 . S
C815 H830 0.961 . S
C815 H831 0.961 . S
C816 C817 1.370 . S
C816 C818 1.363 . S
C816 H832 0.931 . S
C817 C816 1.370 . S
C817 C821 1.408 . S
C818 C816 1.363 . S
C818 C819 1.370 . S
C818 C822 1.524 . S
C819 C811 1.503 . S
C819 C818 1.370 . S
C819 C820 1.403 . S
C820 C819 1.403 . S
C820 C821 1.404 . S
C820 C823 1.539 . S
C821 C817 1.408 . S
C821 C820 1.404 . S
C821 H833 0.930 . S
C822 C818 1.524 . S
C822 H834 0.956 . S
C822 H835 0.961 . S
C822 H836 0.961 . S
C823 C820 1.539 . S
C823 H837 0.958 . S
C823 H838 0.961 . S
C823 H839 0.960 . S
H824 C808 0.931 . S
H825 C813 0.929 . S
H826 C814 0.960 . S
H827 C814 0.962 . S
H828 C814 0.960 . S
H829 C815 0.961 . S
H830 C815 0.961 . S
H831 C815 0.961 . S
H832 C816 0.931 . S
H833 C821 0.930 . S
H834 C822 0.956 . S
H835 C822 0.961 . S
H836 C822 0.961 . S
H837 C823 0.958 . S
H838 C823 0.961 . S
H839 C823 0.960 . S
C840 C841 1.391 . S
C840 C842 1.394 . S
C840 H856 0.931 . S
C841 C840 1.391 . S
C841 C845 1.376 . S
C842 C840 1.394 . S
C842 C843 1.369 . S
C842 C846 1.531 . S
C843 C842 1.369 . S
C843 C844 1.410 . S
C843 C851 1.503 . S
C844 C843 1.410 . S
C844 C845 1.392 . S
C844 C847 1.511 . S
C845 C841 1.376 . S
C845 C844 1.392 . S
C845 H857 0.929 . S
C846 C842 1.531 . S
C846 H858 0.960 . S
C846 H859 0.962 . S
C846 H860 0.960 . S
C847 C844 1.511 . S
C847 H861 0.961 . S
C847 H862 0.961 . S
C847 H863 0.961 . S
C848 C849 1.370 . S
C848 C850 1.363 . S
C848 H864 0.931 . S
C849 C848 1.370 . S
C849 C853 1.408 . S
C850 C848 1.363 . S
C850 C851 1.370 . S
C850 C854 1.524 . S
C851 C843 1.503 . S
C851 C850 1.370 . S
C851 C852 1.403 . S
C852 C851 1.403 . S
C852 C853 1.404 . S
C852 C855 1.539 . S
C853 C849 1.408 . S
C853 C852 1.404 . S
C853 H865 0.930 . S
C854 C850 1.524 . S
C854 H866 0.956 . S
C854 H867 0.961 . S
C854 H868 0.961 . S
C855 C852 1.539 . S
C855 H869 0.958 . S
C855 H870 0.961 . S
C855 H871 0.960 . S
H856 C840 0.931 . S
H857 C845 0.929 . S
H858 C846 0.960 . S
H859 C846 0.962 . S
H860 C846 0.960 . S
H861 C847 0.961 . S
H862 C847 0.961 . S
H863 C847 0.961 . S
H864 C848 0.931 . S
H865 C853 0.930 . S
H866 C854 0.956 . S
H867 C854 0.961 . S
H868 C854 0.961 . S
H869 C855 0.958 . S
H870 C855 0.961 . S
H871 C855 0.960 . S
C872 C873 1.391 . S
C872 C874 1.394 1_556 S
C872 H888 0.931 . S
C873 C872 1.391 . S
C873 C877 1.376 . S
C874 C872 1.394 1_554 S
C874 C875 1.369 . S
C874 C878 1.531 . S
C875 C874 1.369 . S
C875 C876 1.410 . S
C875 C883 1.503 . S
C876 C875 1.410 . S
C876 C877 1.392 1_554 S
C876 C879 1.511 . S
C877 C873 1.376 . S
C877 C876 1.392 1_556 S
C877 H889 0.929 . S
C878 C874 1.531 . S
C878 H890 0.960 . S
C878 H891 0.962 . S
C878 H892 0.960 . S
C879 C876 1.511 . S
C879 H893 0.961 . S
C879 H894 0.961 . S
C879 H895 0.961 . S
C880 C881 1.370 . S
C880 C882 1.363 . S
C880 H896 0.931 . S
C881 C880 1.370 . S
C881 C885 1.408 . S
C882 C880 1.363 . S
C882 C883 1.370 . S
C882 C886 1.524 . S
C883 C875 1.503 . S
C883 C882 1.370 . S
C883 C884 1.403 . S
C884 C883 1.403 . S
C884 C885 1.404 . S
C884 C887 1.539 . S
C885 C881 1.408 . S
C885 C884 1.404 . S
C885 H897 0.930 . S
C886 C882 1.524 . S
C886 H898 0.956 . S
C886 H899 0.961 . S
C886 H900 0.961 . S
C887 C884 1.539 . S
C887 H901 0.958 . S
C887 H902 0.961 . S
C887 H903 0.960 . S
H888 C872 0.931 . S
H889 C877 0.929 . S
H890 C878 0.960 . S
H891 C878 0.962 . S
H892 C878 0.960 . S
H893 C879 0.961 . S
H894 C879 0.961 . S
H895 C879 0.961 . S
H896 C880 0.931 . S
H897 C885 0.930 . S
H898 C886 0.956 . S
H899 C886 0.961 . S
H900 C886 0.961 . S
H901 C887 0.958 . S
H902 C887 0.961 . S
H903 C887 0.960 . S
C904 C905 1.391 . S
C904 C906 1.394 . S
C904 H920 0.931 . S
C905 C904 1.391 . S
C905 C909 1.376 . S
C906 C904 1.394 . S
C906 C907 1.369 . S
C906 C910 1.531 . S
C907 C906 1.369 . S
C907 C908 1.410 . S
C907 C915 1.503 . S
C908 C907 1.410 . S
C908 C909 1.392 . S
C908 C911 1.511 . S
C909 C905 1.376 . S
C909 C908 1.392 . S
C909 H921 0.929 . S
C910 C906 1.531 . S
C910 H922 0.960 . S
C910 H923 0.962 . S
C910 H924 0.960 . S
C911 C908 1.511 . S
C911 H925 0.961 . S
C911 H926 0.961 . S
C911 H927 0.961 . S
C912 C913 1.370 . S
C912 C914 1.363 . S
C912 H928 0.931 . S
C913 C912 1.370 . S
C913 C917 1.408 . S
C914 C912 1.363 . S
C914 C915 1.370 . S
C914 C918 1.524 . S
C915 C907 1.503 . S
C915 C914 1.370 . S
C915 C916 1.403 . S
C916 C915 1.403 . S
C916 C917 1.404 . S
C916 C919 1.539 . S
C917 C913 1.408 . S
C917 C916 1.404 . S
C917 H929 0.930 . S
C918 C914 1.524 . S
C918 H930 0.956 . S
C918 H931 0.961 . S
C918 H932 0.961 . S
C919 C916 1.539 . S
C919 H933 0.958 . S
C919 H934 0.961 . S
C919 H935 0.960 . S
H920 C904 0.931 . S
H921 C909 0.929 . S
H922 C910 0.960 . S
H923 C910 0.962 . S
H924 C910 0.960 . S
H925 C911 0.961 . S
H926 C911 0.961 . S
H927 C911 0.961 . S
H928 C912 0.931 . S
H929 C917 0.930 . S
H930 C918 0.956 . S
H931 C918 0.961 . S
H932 C918 0.961 . S
H933 C919 0.958 . S
H934 C919 0.961 . S
H935 C919 0.960 . S
C936 C937 1.391 . S
C936 C938 1.394 . S
C936 H952 0.931 . S
C937 C936 1.391 . S
C937 C941 1.376 . S
C938 C936 1.394 . S
C938 C939 1.369 . S
C938 C942 1.531 . S
C939 C938 1.369 . S
C939 C940 1.410 . S
C939 C947 1.503 . S
C940 C939 1.410 . S
C940 C941 1.392 . S
C940 C943 1.511 . S
C941 C937 1.376 . S
C941 C940 1.392 . S
C941 H953 0.929 . S
C942 C938 1.531 . S
C942 H954 0.960 . S
C942 H955 0.962 . S
C942 H956 0.960 . S
C943 C940 1.511 . S
C943 H957 0.961 . S
C943 H958 0.961 . S
C943 H959 0.961 . S
C944 C945 1.370 . S
C944 C946 1.363 . S
C944 H960 0.931 . S
C945 C944 1.370 . S
C945 C949 1.408 . S
C946 C944 1.363 . S
C946 C947 1.370 . S
C946 C950 1.524 . S
C947 C939 1.503 . S
C947 C946 1.370 . S
C947 C948 1.403 . S
C948 C947 1.403 . S
C948 C949 1.404 . S
C948 C951 1.539 . S
C949 C945 1.408 . S
C949 C948 1.404 . S
C949 H961 0.930 . S
C950 C946 1.524 . S
C950 H962 0.956 . S
C950 H963 0.961 . S
C950 H964 0.961 . S
C951 C948 1.539 . S
C951 H965 0.958 . S
C951 H966 0.961 . S
C951 H967 0.960 . S
H952 C936 0.931 . S
H953 C941 0.929 . S
H954 C942 0.960 . S
H955 C942 0.962 . S
H956 C942 0.960 . S
H957 C943 0.961 . S
H958 C943 0.961 . S
H959 C943 0.961 . S
H960 C944 0.931 . S
H961 C949 0.930 . S
H962 C950 0.956 . S
H963 C950 0.961 . S
H964 C950 0.961 . S
H965 C951 0.958 . S
H966 C951 0.961 . S
H967 C951 0.960 . S
C968 C969 1.391 . S
C968 C970 1.394 . S
C968 H984 0.931 . S
C969 C968 1.391 . S
C969 C973 1.376 . S
C970 C968 1.394 . S
C970 C971 1.369 . S
C970 C974 1.531 . S
C971 C970 1.369 . S
C971 C972 1.410 . S
C971 C979 1.503 . S
C972 C971 1.410 . S
C972 C973 1.392 . S
C972 C975 1.511 . S
C973 C969 1.376 . S
C973 C972 1.392 . S
C973 H985 0.929 . S
C974 C970 1.531 . S
C974 H986 0.960 . S
C974 H987 0.962 . S
C974 H988 0.960 . S
C975 C972 1.511 . S
C975 H989 0.961 . S
C975 H990 0.961 . S
C975 H991 0.961 . S
C976 C977 1.370 . S
C976 C978 1.363 . S
C976 H992 0.931 . S
C977 C976 1.370 . S
C977 C981 1.408 . S
C978 C976 1.363 . S
C978 C979 1.370 . S
C978 C982 1.524 . S
C979 C971 1.503 . S
C979 C978 1.370 . S
C979 C980 1.403 . S
C980 C979 1.403 . S
C980 C981 1.404 . S
C980 C983 1.539 . S
C981 C977 1.408 . S
C981 C980 1.404 . S
C981 H993 0.930 . S
C982 C978 1.524 . S
C982 H994 0.956 . S
C982 H995 0.961 . S
C982 H996 0.961 . S
C983 C980 1.539 . S
C983 H997 0.958 . S
C983 H998 0.961 . S
C983 H999 0.960 . S
H984 C968 0.931 . S
H985 C973 0.929 . S
H986 C974 0.960 . S
H987 C974 0.962 . S
H988 C974 0.960 . S
H989 C975 0.961 . S
H990 C975 0.961 . S
H991 C975 0.961 . S
H992 C976 0.931 . S
H993 C981 0.930 . S
H994 C982 0.956 . S
H995 C982 0.961 . S
H996 C982 0.961 . S
H997 C983 0.958 . S
H998 C983 0.961 . S
H999 C983 0.960 . S
C1000 C1001 1.391 . S
C1000 C1002 1.394 . S
C1000 H1016 0.931 . S
C1001 C1000 1.391 . S
C1001 C1005 1.376 . S
C1002 C1000 1.394 . S
C1002 C1003 1.369 . S
C1002 C1006 1.531 . S
C1003 C1002 1.369 . S
C1003 C1004 1.410 . S
C1003 C1011 1.503 . S
C1004 C1003 1.410 . S
C1004 C1005 1.392 . S
C1004 C1007 1.511 . S
C1005 C1001 1.376 . S
C1005 C1004 1.392 . S
C1005 H1017 0.929 . S
C1006 C1002 1.531 . S
C1006 H1018 0.960 . S
C1006 H1019 0.962 . S
C1006 H1020 0.960 . S
C1007 C1004 1.511 . S
C1007 H1021 0.961 . S
C1007 H1022 0.961 . S
C1007 H1023 0.961 . S
C1008 C1009 1.370 . S
C1008 C1010 1.363 . S
C1008 H1024 0.931 . S
C1009 C1008 1.370 . S
C1009 C1013 1.408 . S
C1010 C1008 1.363 . S
C1010 C1011 1.370 . S
C1010 C1014 1.524 . S
C1011 C1003 1.503 . S
C1011 C1010 1.370 . S
C1011 C1012 1.403 . S
C1012 C1011 1.403 . S
C1012 C1013 1.404 . S
C1012 C1015 1.539 . S
C1013 C1009 1.408 . S
C1013 C1012 1.404 . S
C1013 H1025 0.930 . S
C1014 C1010 1.524 . S
C1014 H1026 0.956 . S
C1014 H1027 0.961 . S
C1014 H1028 0.961 . S
C1015 C1012 1.539 . S
C1015 H1029 0.958 . S
C1015 H1030 0.961 . S
C1015 H1031 0.960 . S
H1016 C1000 0.931 . S
H1017 C1005 0.929 . S
H1018 C1006 0.960 . S
H1019 C1006 0.962 . S
H1020 C1006 0.960 . S
H1021 C1007 0.961 . S
H1022 C1007 0.961 . S
H1023 C1007 0.961 . S
H1024 C1008 0.931 . S
H1025 C1013 0.930 . S
H1026 C1014 0.956 . S
H1027 C1014 0.961 . S
H1028 C1014 0.961 . S
H1029 C1015 0.958 . S
H1030 C1015 0.961 . S
H1031 C1015 0.960 . S
C1032 C1033 1.391 . S
C1032 C1034 1.394 . S
C1032 H1048 0.931 . S
C1033 C1032 1.391 . S
C1033 C1037 1.376 . S
C1034 C1032 1.394 . S
C1034 C1035 1.369 . S
C1034 C1038 1.531 . S
C1035 C1034 1.369 . S
C1035 C1036 1.410 . S
C1035 C1043 1.503 . S
C1036 C1035 1.410 . S
C1036 C1037 1.392 . S
C1036 C1039 1.511 . S
C1037 C1033 1.376 . S
C1037 C1036 1.392 . S
C1037 H1049 0.929 . S
C1038 C1034 1.531 . S
C1038 H1050 0.960 . S
C1038 H1051 0.962 . S
C1038 H1052 0.960 . S
C1039 C1036 1.511 . S
C1039 H1053 0.961 . S
C1039 H1054 0.961 . S
C1039 H1055 0.961 . S
C1040 C1041 1.370 . S
C1040 C1042 1.363 . S
C1040 H1056 0.931 . S
C1041 C1040 1.370 . S
C1041 C1045 1.408 . S
C1042 C1040 1.363 . S
C1042 C1043 1.370 . S
C1042 C1046 1.524 . S
C1043 C1035 1.503 . S
C1043 C1042 1.370 . S
C1043 C1044 1.403 . S
C1044 C1043 1.403 . S
C1044 C1045 1.404 . S
C1044 C1047 1.539 . S
C1045 C1041 1.408 . S
C1045 C1044 1.404 . S
C1045 H1057 0.930 . S
C1046 C1042 1.524 . S
C1046 H1058 0.956 . S
C1046 H1059 0.961 . S
C1046 H1060 0.961 . S
C1047 C1044 1.539 . S
C1047 H1061 0.958 . S
C1047 H1062 0.961 . S
C1047 H1063 0.960 . S
H1048 C1032 0.931 . S
H1049 C1037 0.929 . S
H1050 C1038 0.960 . S
H1051 C1038 0.962 . S
H1052 C1038 0.960 . S
H1053 C1039 0.961 . S
H1054 C1039 0.961 . S
H1055 C1039 0.961 . S
H1056 C1040 0.931 . S
H1057 C1045 0.930 . S
H1058 C1046 0.956 . S
H1059 C1046 0.961 . S
H1060 C1046 0.961 . S
H1061 C1047 0.958 . S
H1062 C1047 0.961 . S
H1063 C1047 0.960 . S
C1064 C1065 1.391 . S
C1064 C1066 1.394 . S
C1064 H1080 0.931 . S
C1065 C1064 1.391 . S
C1065 C1069 1.376 . S
C1066 C1064 1.394 . S
C1066 C1067 1.369 . S
C1066 C1070 1.531 . S
C1067 C1066 1.369 . S
C1067 C1068 1.410 . S
C1067 C1075 1.503 . S
C1068 C1067 1.410 . S
C1068 C1069 1.392 . S
C1068 C1071 1.511 . S
C1069 C1065 1.376 . S
C1069 C1068 1.392 . S
C1069 H1081 0.929 . S
C1070 C1066 1.531 . S
C1070 H1082 0.960 . S
C1070 H1083 0.962 . S
C1070 H1084 0.960 . S
C1071 C1068 1.511 . S
C1071 H1085 0.961 . S
C1071 H1086 0.961 . S
C1071 H1087 0.961 . S
C1072 C1073 1.370 . S
C1072 C1074 1.363 . S
C1072 H1088 0.931 . S
C1073 C1072 1.370 . S
C1073 C1077 1.408 . S
C1074 C1072 1.363 . S
C1074 C1075 1.370 . S
C1074 C1078 1.524 . S
C1075 C1067 1.503 . S
C1075 C1074 1.370 . S
C1075 C1076 1.403 . S
C1076 C1075 1.403 . S
C1076 C1077 1.404 . S
C1076 C1079 1.539 . S
C1077 C1073 1.408 . S
C1077 C1076 1.404 . S
C1077 H1089 0.930 . S
C1078 C1074 1.524 . S
C1078 H1090 0.956 . S
C1078 H1091 0.961 . S
C1078 H1092 0.961 . S
C1079 C1076 1.539 . S
C1079 H1093 0.958 . S
C1079 H1094 0.961 . S
C1079 H1095 0.960 . S
H1080 C1064 0.931 . S
H1081 C1069 0.929 . S
H1082 C1070 0.960 . S
H1083 C1070 0.962 . S
H1084 C1070 0.960 . S
H1085 C1071 0.961 . S
H1086 C1071 0.961 . S
H1087 C1071 0.961 . S
H1088 C1072 0.931 . S
H1089 C1077 0.930 . S
H1090 C1078 0.956 . S
H1091 C1078 0.961 . S
H1092 C1078 0.961 . S
H1093 C1079 0.958 . S
H1094 C1079 0.961 . S
H1095 C1079 0.960 . S
C1096 C1097 1.391 . S
C1096 C1098 1.394 . S
C1096 H1112 0.931 . S
C1097 C1096 1.391 . S
C1097 C1101 1.376 . S
C1098 C1096 1.394 . S
C1098 C1099 1.369 . S
C1098 C1102 1.531 . S
C1099 C1098 1.369 . S
C1099 C1100 1.410 . S
C1099 C1107 1.503 . S
C1100 C1099 1.410 . S
C1100 C1101 1.392 . S
C1100 C1103 1.511 . S
C1101 C1097 1.376 . S
C1101 C1100 1.392 . S
C1101 H1113 0.929 . S
C1102 C1098 1.531 . S
C1102 H1114 0.960 . S
C1102 H1115 0.962 . S
C1102 H1116 0.960 . S
C1103 C1100 1.511 . S
C1103 H1117 0.961 . S
C1103 H1118 0.961 . S
C1103 H1119 0.961 . S
C1104 C1105 1.370 . S
C1104 C1106 1.363 . S
C1104 H1120 0.931 . S
C1105 C1104 1.370 . S
C1105 C1109 1.408 . S
C1106 C1104 1.363 . S
C1106 C1107 1.370 . S
C1106 C1110 1.524 . S
C1107 C1099 1.503 . S
C1107 C1106 1.370 . S
C1107 C1108 1.403 . S
C1108 C1107 1.403 . S
C1108 C1109 1.404 . S
C1108 C1111 1.539 . S
C1109 C1105 1.408 . S
C1109 C1108 1.404 . S
C1109 H1121 0.930 . S
C1110 C1106 1.524 . S
C1110 H1122 0.956 . S
C1110 H1123 0.961 . S
C1110 H1124 0.961 . S
C1111 C1108 1.539 . S
C1111 H1125 0.958 . S
C1111 H1126 0.961 . S
C1111 H1127 0.960 . S
H1112 C1096 0.931 . S
H1113 C1101 0.929 . S
H1114 C1102 0.960 . S
H1115 C1102 0.962 . S
H1116 C1102 0.960 . S
H1117 C1103 0.961 . S
H1118 C1103 0.961 . S
H1119 C1103 0.961 . S
H1120 C1104 0.931 . S
H1121 C1109 0.930 . S
H1122 C1110 0.956 . S
H1123 C1110 0.961 . S
H1124 C1110 0.961 . S
H1125 C1111 0.958 . S
H1126 C1111 0.961 . S
H1127 C1111 0.960 . S
C1128 C1129 1.391 . S
C1128 C1130 1.394 . S
C1128 H1144 0.931 . S
C1129 C1128 1.391 . S
C1129 C1133 1.376 . S
C1130 C1128 1.394 . S
C1130 C1131 1.369 . S
C1130 C1134 1.531 . S
C1131 C1130 1.369 . S
C1131 C1132 1.410 . S
C1131 C1139 1.503 . S
C1132 C1131 1.410 . S
C1132 C1133 1.392 . S
C1132 C1135 1.511 . S
C1133 C1129 1.376 . S
C1133 C1132 1.392 . S
C1133 H1145 0.929 . S
C1134 C1130 1.531 . S
C1134 H1146 0.960 . S
C1134 H1147 0.962 . S
C1134 H1148 0.960 . S
C1135 C1132 1.511 . S
C1135 H1149 0.961 . S
C1135 H1150 0.961 . S
C1135 H1151 0.961 . S
C1136 C1137 1.370 . S
C1136 C1138 1.363 . S
C1136 H1152 0.931 . S
C1137 C1136 1.370 . S
C1137 C1141 1.408 . S
C1138 C1136 1.363 . S
C1138 C1139 1.370 . S
C1138 C1142 1.524 . S
C1139 C1131 1.503 . S
C1139 C1138 1.370 . S
C1139 C1140 1.403 . S
C1140 C1139 1.403 . S
C1140 C1141 1.404 . S
C1140 C1143 1.539 . S
C1141 C1137 1.408 . S
C1141 C1140 1.404 . S
C1141 H1153 0.930 . S
C1142 C1138 1.524 . S
C1142 H1154 0.956 . S
C1142 H1155 0.961 . S
C1142 H1156 0.961 . S
C1143 C1140 1.539 . S
C1143 H1157 0.958 . S
C1143 H1158 0.961 . S
C1143 H1159 0.960 . S
H1144 C1128 0.931 . S
H1145 C1133 0.929 . S
H1146 C1134 0.960 . S
H1147 C1134 0.962 . S
H1148 C1134 0.960 . S
H1149 C1135 0.961 . S
H1150 C1135 0.961 . S
H1151 C1135 0.961 . S
H1152 C1136 0.931 . S
H1153 C1141 0.930 . S
H1154 C1142 0.956 . S
H1155 C1142 0.961 . S
H1156 C1142 0.961 . S
H1157 C1143 0.958 . S
H1158 C1143 0.961 . S
H1159 C1143 0.960 . S
C1160 C1161 1.391 . S
C1160 C1162 1.394 . S
C1160 H1176 0.931 . S
C1161 C1160 1.391 . S
C1161 C1165 1.376 . S
C1162 C1160 1.394 . S
C1162 C1163 1.369 . S
C1162 C1166 1.531 . S
C1163 C1162 1.369 . S
C1163 C1164 1.410 . S
C1163 C1171 1.503 . S
C1164 C1163 1.410 . S
C1164 C1165 1.392 . S
C1164 C1167 1.511 . S
C1165 C1161 1.376 . S
C1165 C1164 1.392 . S
C1165 H1177 0.929 . S
C1166 C1162 1.531 . S
C1166 H1178 0.960 . S
C1166 H1179 0.962 . S
C1166 H1180 0.960 . S
C1167 C1164 1.511 . S
C1167 H1181 0.961 . S
C1167 H1182 0.961 . S
C1167 H1183 0.961 . S
C1168 C1169 1.370 . S
C1168 C1170 1.363 . S
C1168 H1184 0.931 . S
C1169 C1168 1.370 . S
C1169 C1173 1.408 . S
C1170 C1168 1.363 . S
C1170 C1171 1.370 . S
C1170 C1174 1.524 . S
C1171 C1163 1.503 . S
C1171 C1170 1.370 . S
C1171 C1172 1.403 . S
C1172 C1171 1.403 . S
C1172 C1173 1.404 . S
C1172 C1175 1.539 . S
C1173 C1169 1.408 . S
C1173 C1172 1.404 . S
C1173 H1185 0.930 . S
C1174 C1170 1.524 . S
C1174 H1186 0.956 . S
C1174 H1187 0.961 . S
C1174 H1188 0.961 . S
C1175 C1172 1.539 . S
C1175 H1189 0.958 . S
C1175 H1190 0.961 . S
C1175 H1191 0.960 . S
H1176 C1160 0.931 . S
H1177 C1165 0.929 . S
H1178 C1166 0.960 . S
H1179 C1166 0.962 . S
H1180 C1166 0.960 . S
H1181 C1167 0.961 . S
H1182 C1167 0.961 . S
H1183 C1167 0.961 . S
H1184 C1168 0.931 . S
H1185 C1173 0.930 . S
H1186 C1174 0.956 . S
H1187 C1174 0.961 . S
H1188 C1174 0.961 . S
H1189 C1175 0.958 . S
H1190 C1175 0.961 . S
H1191 C1175 0.960 . S
C425 C73 1.614 . S
C433 C144 1.644 . S
C465 C228 1.751 . S
C457 C84 1.739 . S
C497 C227 1.644 . S
C489 C51 1.577 . S
C521 C62 1.722 . S
C529 C143 1.768 . S
C561 C324 1.640 . S
C553 C29 1.557 . S
C593 C408 1.595 . S
C585 C38 1.487 . S
C617 C7 1.588 . S
C625 C407 1.648 . S
C649 C16 1.466 . S
C657 C323 1.586 . S
C689 C146 1.481 . S
C681 C18 1.637 . S
C721 C230 1.528 . S
C713 C5 1.377 . S
C753 C242 1.453 . S
C745 C40 1.660 . S
C785 C158 1.482 . S
C777 C27 1.467 . S
C817 C326 1.319 . S
C809 C60 1.353 . S
C841 C49 1.392 . S
C849 C410 1.365 . S
C881 C398 1.311 . S
C873 C82 1.325 . S
C905 C71 1.394 . S
C913 C314 1.322 . S
C945 C155 1.661 . S
C937 C8 1.619 . S
C977 C239 1.562 . S
C969 C19 1.562 . S
C1001 C30 1.624 . S
C1009 C240 1.643 . S
C1041 C156 1.529 . S
C1033 C41 1.530 . S
C1073 C311 1.423 . S
C1065 C52 1.427 . S
C1097 C63 1.552 . S
C1105 C395 1.550 . S
C1129 C74 1.415 . S
C1137 C396 1.382 . S
C1161 C85 1.533 . S
C1169 C312 1.506 . S
