# Generated by pormake.
# Topology apo, (3,6)-cn, num edge types: 1
# Building blocks:
#     Node 0, Type 0, BuildingBlock: WUSLED_clean_sbu_0, # of connection points: 3
#     Node 1, Type 0, BuildingBlock: WUSLED_clean_sbu_0, # of connection points: 3
#     Node 2, Type 0, BuildingBlock: WUSLED_clean_sbu_0, # of connection points: 3
#     Node 3, Type 0, BuildingBlock: WUSLED_clean_sbu_0, # of connection points: 3
#     Node 4, Type 0, BuildingBlock: WUSLED_clean_sbu_0, # of connection points: 3
#     Node 5, Type 0, BuildingBlock: WUSLED_clean_sbu_0, # of connection points: 3
#     Node 6, Type 0, BuildingBlock: WUSLED_clean_sbu_0, # of connection points: 3
#     Node 7, Type 0, BuildingBlock: WUSLED_clean_sbu_0, # of connection points: 3
#     Node 8, Type 1, BuildingBlock: KUMBOL_clean_sbu_1, # of connection points: 6
#     Node 9, Type 1, BuildingBlock: KUMBOL_clean_sbu_1, # of connection points: 6
#     Node 10, Type 1, BuildingBlock: KUMBOL_clean_sbu_1, # of connection points: 6
#     Node 11, Type 1, BuildingBlock: KUMBOL_clean_sbu_1, # of connection points: 6
#     Edge 12, Type (0, 1), BuildingBlock: MIFKUJ_clean_linker_0, # of connection points: 2
#     Edge 13, Type (0, 1), BuildingBlock: MIFKUJ_clean_linker_0, # of connection points: 2
#     Edge 14, Type (0, 1), BuildingBlock: MIFKUJ_clean_linker_0, # of connection points: 2
#     Edge 15, Type (0, 1), BuildingBlock: MIFKUJ_clean_linker_0, # of connection points: 2
#     Edge 16, Type (0, 1), BuildingBlock: MIFKUJ_clean_linker_0, # of connection points: 2
#     Edge 17, Type (0, 1), BuildingBlock: MIFKUJ_clean_linker_0, # of connection points: 2
#     Edge 18, Type (0, 1), BuildingBlock: MIFKUJ_clean_linker_0, # of connection points: 2
#     Edge 19, Type (0, 1), BuildingBlock: MIFKUJ_clean_linker_0, # of connection points: 2
#     Edge 20, Type (0, 1), BuildingBlock: MIFKUJ_clean_linker_0, # of connection points: 2
#     Edge 21, Type (0, 1), BuildingBlock: MIFKUJ_clean_linker_0, # of connection points: 2
#     Edge 22, Type (0, 1), BuildingBlock: MIFKUJ_clean_linker_0, # of connection points: 2
#     Edge 23, Type (0, 1), BuildingBlock: MIFKUJ_clean_linker_0, # of connection points: 2
#     Edge 24, Type (0, 1), BuildingBlock: MIFKUJ_clean_linker_0, # of connection points: 2
#     Edge 25, Type (0, 1), BuildingBlock: MIFKUJ_clean_linker_0, # of connection points: 2
#     Edge 26, Type (0, 1), BuildingBlock: MIFKUJ_clean_linker_0, # of connection points: 2
#     Edge 27, Type (0, 1), BuildingBlock: MIFKUJ_clean_linker_0, # of connection points: 2
#     Edge 28, Type (0, 1), BuildingBlock: MIFKUJ_clean_linker_0, # of connection points: 2
#     Edge 29, Type (0, 1), BuildingBlock: MIFKUJ_clean_linker_0, # of connection points: 2
#     Edge 30, Type (0, 1), BuildingBlock: MIFKUJ_clean_linker_0, # of connection points: 2
#     Edge 31, Type (0, 1), BuildingBlock: MIFKUJ_clean_linker_0, # of connection points: 2
#     Edge 32, Type (0, 1), BuildingBlock: MIFKUJ_clean_linker_0, # of connection points: 2
#     Edge 33, Type (0, 1), BuildingBlock: MIFKUJ_clean_linker_0, # of connection points: 2
#     Edge 34, Type (0, 1), BuildingBlock: MIFKUJ_clean_linker_0, # of connection points: 2
#     Edge 35, Type (0, 1), BuildingBlock: MIFKUJ_clean_linker_0, # of connection points: 2
# Relax obj value: 0.011
# Max RMSD: 0.090
# Mean RMSD: 0.069
data_MOF--net-apo--node1-WUSLED_clean_sbu_0--node2-KUMBOL_clean_sbu_1--edge1-MIFKUJ_clean_linker_0
_symmetry_space_group_name_H-M    P1
_symmetry_Int_Tables_number       1
_symmetry_cell_setting            triclinic
loop_
_symmetry_equiv_pos_as_xyz
'x, y, z'
_cell_length_a     38.689137
_cell_length_b     68.467852
_cell_length_c     79.635956
_cell_angle_alpha  90.301136
_cell_angle_beta   89.946922
_cell_angle_gamma 90.197396
loop_
_atom_site_label
_atom_site_type_symbol
_atom_site_fract_x
_atom_site_fract_y
_atom_site_fract_z
_atom_type_partial_charge
C0 C 0.32021 0.41868 0.38823 0.0
C1 C 0.31339 0.4367 0.39611 0.0
C2 C 0.34756 0.45374 0.37497 0.0
C3 C 0.32682 0.45406 0.38949 0.0
C4 C 0.35477 0.43565 0.36731 0.0
C5 C 0.34114 0.41834 0.37384 0.0
U6 U 0.30063 0.38141 0.42301 0.0
O7 O 0.25373 0.36402 0.42765 0.0
O8 O 0.30256 0.34923 0.42185 0.0
C9 C 0.26899 0.34742 0.42391 0.0
C10 C 0.30518 0.40015 0.3944 0.0
C11 C 0.25105 0.33484 0.41152 0.0
C12 C 0.21562 0.33066 0.38647 0.0
C13 C 0.23313 0.34284 0.39785 0.0
C14 C 0.23443 0.30231 0.402 0.0
C15 C 0.21597 0.31024 0.38843 0.0
C16 C 0.2517 0.3145 0.41343 0.0
C17 C 0.33434 0.39435 0.46792 0.0
C18 C 0.33765 0.37359 0.4926 0.0
C19 C 0.35331 0.4078 0.49467 0.0
C20 C 0.34566 0.4102 0.47767 0.0
C21 C 0.34984 0.38944 0.50233 0.0
C22 C 0.33006 0.37602 0.47548 0.0
C23 C 0.32863 0.39748 0.44984 0.0
O24 O 0.32745 0.38679 0.39904 0.0
O25 O 0.27839 0.40151 0.40451 0.0
O26 O 0.29667 0.40082 0.44509 0.0
O27 O 0.34559 0.38598 0.43947 0.0
H28 H 0.2975 0.43741 0.4073 0.0
H29 H 0.32107 0.46774 0.39577 0.0
H30 H 0.37028 0.43491 0.356 0.0
H31 H 0.34664 0.40465 0.36751 0.0
H32 H 0.20201 0.33723 0.37606 0.0
H33 H 0.23254 0.3585 0.39601 0.0
H34 H 0.23494 0.28668 0.40399 0.0
H35 H 0.26539 0.30802 0.42387 0.0
H36 H 0.33482 0.35924 0.49809 0.0
H37 H 0.36194 0.42039 0.50182 0.0
H38 H 0.349 0.42448 0.47207 0.0
H39 H 0.32135 0.36359 0.46813 0.0
C40 C 0.19384 0.15106 0.97213 0.0
C41 C 0.17455 0.13463 0.97699 0.0
C42 C 0.17236 0.14673 1.00588 0.0
C43 C 0.16388 0.13249 0.99371 0.0
C44 C 0.19175 0.16314 1.00087 0.0
C45 C 0.20235 0.16526 0.98417 0.0
U46 U 0.20043 0.13355 0.92647 0.0
O47 O 0.19548 0.14994 0.90292 0.0
O48 O 0.24419 0.13508 0.90877 0.0
C49 C 0.22768 0.14668 0.89844 0.0
C50 C 0.20525 0.15362 0.95461 0.0
C51 C 0.24748 0.16346 0.89186 0.0
C52 C 0.25982 0.19831 0.89015 0.0
C53 C 0.24206 0.18266 0.89758 0.0
C54 C 0.28909 0.17567 0.87155 0.0
C55 C 0.28322 0.19501 0.87686 0.0
C56 C 0.27137 0.16012 0.87894 0.0
C57 C 0.16059 0.0842 0.91352 0.0
C58 C 0.13801 0.07364 0.88639 0.0
C59 C 0.1583 0.04965 0.90626 0.0
C60 C 0.16656 0.06461 0.91762 0.0
C61 C 0.1436 0.05393 0.89054 0.0
C62 C 0.14651 0.08862 0.89773 0.0
C63 C 0.16857 0.0996 0.92604 0.0
O64 O 0.2292 0.14146 0.94937 0.0
O65 O 0.1805 0.15624 0.94356 0.0
O66 O 0.1525 0.11637 0.9243 0.0
O67 O 0.20135 0.10164 0.93002 0.0
H68 H 0.16782 0.12347 0.96785 0.0
H69 H 0.14936 0.11956 0.99713 0.0
H70 H 0.19833 0.17453 1.00981 0.0
H71 H 0.21714 0.17807 0.98064 0.0
H72 H 0.25454 0.213 0.89451 0.0
H73 H 0.22375 0.18559 0.90757 0.0
H74 H 0.30742 0.17252 0.86162 0.0
H75 H 0.27603 0.14542 0.87438 0.0
H76 H 0.12642 0.07753 0.8745 0.0
H77 H 0.16364 0.03471 0.90981 0.0
H78 H 0.17753 0.06084 0.92969 0.0
H79 H 0.14171 0.10362 0.89418 0.0
C80 C 0.82056 0.10178 0.64678 0.0
C81 C 0.82101 0.08409 0.63778 0.0
C82 C 0.84683 0.06755 0.66177 0.0
C83 C 0.83393 0.0671 0.64523 0.0
C84 C 0.8467 0.08539 0.6706 0.0
C85 C 0.83367 0.10229 0.66318 0.0
U86 U 0.79953 0.13755 0.6107 0.0
O87 O 0.75234 0.15478 0.60685 0.0
O88 O 0.80174 0.16971 0.61128 0.0
C89 C 0.76807 0.17149 0.60981 0.0
C90 C 0.80574 0.11978 0.63972 0.0
C91 C 0.75134 0.18433 0.6223 0.0
C92 C 0.72614 0.18981 0.64993 0.0
C93 C 0.74243 0.17745 0.63831 0.0
C94 C 0.72793 0.21612 0.62975 0.0
C95 C 0.71854 0.20931 0.64578 0.0
C96 C 0.74411 0.20375 0.61814 0.0
C97 C 0.82779 0.12614 0.56505 0.0
C98 C 0.84039 0.14845 0.54209 0.0
C99 C 0.82958 0.11425 0.53619 0.0
C100 C 0.82468 0.11085 0.55334 0.0
C101 C 0.83792 0.13305 0.53034 0.0
C102 C 0.83528 0.14505 0.55927 0.0
C103 C 0.82482 0.12172 0.58316 0.0
O104 O 0.82804 0.1328 0.63427 0.0
O105 O 0.77872 0.11769 0.62986 0.0
O106 O 0.79357 0.11794 0.5888 0.0
O107 O 0.84311 0.1327 0.59347 0.0
H108 H 0.81118 0.08337 0.62505 0.0
H109 H 0.83403 0.05365 0.63802 0.0
H110 H 0.85598 0.08623 0.68341 0.0
H111 H 0.83344 0.11578 0.67037 0.0
H112 H 0.71898 0.18397 0.66206 0.0
H113 H 0.74788 0.16249 0.64177 0.0
H114 H 0.72308 0.2311 0.62618 0.0
H115 H 0.75099 0.20936 0.60588 0.0
H116 H 0.8463 0.16315 0.53801 0.0
H117 H 0.82782 0.10202 0.52755 0.0
H118 H 0.81905 0.09614 0.55752 0.0
H119 H 0.83764 0.15714 0.56802 0.0
C120 C 0.70448 0.35966 0.06133 0.0
C121 C 0.69169 0.37717 0.0547 0.0
C122 C 0.68607 0.36196 0.02698 0.0
C123 C 0.68264 0.37832 0.03767 0.0
C124 C 0.69876 0.34446 0.0338 0.0
C125 C 0.70785 0.34335 0.05077 0.0
U126 U 0.70936 0.37905 0.10676 0.0
O127 O 0.70335 0.36329 0.13059 0.0
O128 O 0.75248 0.37793 0.12483 0.0
C129 C 0.73532 0.36678 0.13534 0.0
C130 C 0.71483 0.35807 0.07911 0.0
C131 C 0.75443 0.35029 0.14271 0.0
C132 C 0.77036 0.31592 0.14382 0.0
C133 C 0.75346 0.33139 0.13575 0.0
C134 C 0.78976 0.33818 0.1656 0.0
C135 C 0.78834 0.31909 0.15898 0.0
C136 C 0.77299 0.35355 0.15756 0.0
C137 C 0.66949 0.42849 0.11852 0.0
C138 C 0.68043 0.44575 0.1448 0.0
C139 C 0.63467 0.45659 0.12638 0.0
C140 C 0.6426 0.44153 0.11509 0.0
C141 C 0.65359 0.45901 0.14135 0.0
C142 C 0.68825 0.43061 0.13351 0.0
C143 C 0.67761 0.41293 0.10627 0.0
O144 O 0.73869 0.37045 0.08423 0.0
O145 O 0.68954 0.3559 0.08998 0.0
O146 O 0.66141 0.39624 0.10849 0.0
O147 O 0.71048 0.41076 0.10253 0.0
H148 H 0.68879 0.38992 0.06268 0.0
H149 H 0.67265 0.39197 0.03291 0.0
H150 H 0.70229 0.33166 0.02594 0.0
H151 H 0.71778 0.32972 0.05563 0.0
H152 H 0.76862 0.30141 0.1384 0.0
H153 H 0.73925 0.32856 0.12428 0.0
H154 H 0.80391 0.34127 0.17705 0.0
H155 H 0.77416 0.36803 0.1631 0.0
H156 H 0.69578 0.44723 0.1561 0.0
H157 H 0.61343 0.46623 0.12342 0.0
H158 H 0.62767 0.44006 0.10364 0.0
H159 H 0.70908 0.42065 0.13642 0.0
C160 C 0.6918 0.59287 0.64511 0.0
C161 C 0.69518 0.57479 0.6368 0.0
C162 C 0.6636 0.55848 0.65932 0.0
C163 C 0.68132 0.55775 0.64387 0.0
C164 C 0.65998 0.57665 0.66745 0.0
C165 C 0.67398 0.5936 0.66044 0.0
U166 U 0.7118 0.63036 0.61018 0.0
O167 O 0.71141 0.66243 0.61164 0.0
O168 O 0.75973 0.64716 0.60574 0.0
C169 C 0.74505 0.6639 0.60957 0.0
C170 C 0.70756 0.61103 0.63855 0.0
C171 C 0.76392 0.67653 0.6217 0.0
C172 C 0.76701 0.69476 0.64805 0.0
C173 C 0.74935 0.68199 0.63721 0.0
C174 C 0.81448 0.69645 0.62829 0.0
C175 C 0.79973 0.70223 0.64368 0.0
C176 C 0.7967 0.68381 0.61741 0.0
C177 C 0.67503 0.62066 0.56536 0.0
C178 C 0.69256 0.63361 0.53818 0.0
C179 C 0.63709 0.61752 0.54116 0.0
C180 C 0.64389 0.61435 0.55815 0.0
C181 C 0.66133 0.62714 0.53089 0.0
C182 C 0.69933 0.63045 0.55528 0.0
C183 C 0.68155 0.61607 0.58319 0.0
O184 O 0.73339 0.60911 0.62793 0.0
O185 O 0.68593 0.62494 0.63439 0.0
O186 O 0.6655 0.62701 0.59431 0.0
O187 O 0.71352 0.61192 0.58746 0.0
H188 H 0.70872 0.57379 0.62492 0.0
H189 H 0.6843 0.54403 0.63721 0.0
H190 H 0.64697 0.57772 0.67947 0.0
H191 H 0.67123 0.60733 0.66714 0.0
H192 H 0.7551 0.69873 0.65989 0.0
H193 H 0.72419 0.67654 0.64095 0.0
H194 H 0.83945 0.70207 0.62446 0.0
H195 H 0.80843 0.67989 0.6055 0.0
H196 H 0.71168 0.6412 0.53069 0.0
H197 H 0.61307 0.612 0.53598 0.0
H198 H 0.62489 0.60666 0.56566 0.0
H199 H 0.72356 0.6355 0.56058 0.0
C200 C 0.80202 0.8687 0.05773 0.0
C201 C 0.82682 0.8829 0.05361 0.0
C202 C 0.82344 0.87355 0.024 0.0
C203 C 0.8375 0.88527 0.03691 0.0
C204 C 0.79838 0.85946 0.02824 0.0
C205 C 0.78784 0.85706 0.04493 0.0
U206 U 0.79482 0.88481 0.1039 0.0
O207 O 0.75098 0.88215 0.12147 0.0
O208 O 0.80014 0.86762 0.12702 0.0
C209 C 0.76774 0.87028 0.13148 0.0
C210 C 0.79078 0.86566 0.07524 0.0
C211 C 0.74835 0.85302 0.13753 0.0
C212 C 0.74035 0.81785 0.14035 0.0
C213 C 0.75783 0.83381 0.13326 0.0
C214 C 0.7033 0.84005 0.15573 0.0
C215 C 0.71299 0.82078 0.15177 0.0
C216 C 0.72079 0.85594 0.1487 0.0
C217 C 0.83314 0.93437 0.11784 0.0
C218 C 0.85397 0.94454 0.1454 0.0
C219 C 0.83735 0.9689 0.12504 0.0
C220 C 0.82901 0.95407 0.11356 0.0
C221 C 0.85023 0.96433 0.14106 0.0
C222 C 0.84538 0.9297 0.13394 0.0
C223 C 0.82548 0.91911 0.10513 0.0
O224 O 0.81557 0.86295 0.08626 0.0
O225 O 0.76644 0.87742 0.08073 0.0
O226 O 0.79275 0.91683 0.10117 0.0
O227 O 0.84209 0.90248 0.10661 0.0
H228 H 0.83796 0.89212 0.06331 0.0
H229 H 0.85652 0.89643 0.03408 0.0
H230 H 0.7873 0.85001 0.0187 0.0
H231 H 0.7687 0.846 0.04786 0.0
H232 H 0.74827 0.80322 0.13688 0.0
H233 H 0.77898 0.83113 0.12465 0.0
H234 H 0.68278 0.84292 0.16466 0.0
H235 H 0.71319 0.8706 0.15229 0.0
H236 H 0.86341 0.94052 0.1577 0.0
H237 H 0.83449 0.98396 0.12122 0.0
H238 H 0.8197 0.95802 0.10121 0.0
H239 H 0.84858 0.91461 0.13763 0.0
C240 C 0.19723 0.91632 0.38679 0.0
C241 C 0.16712 0.92509 0.39313 0.0
C242 C 0.171 0.95065 0.37192 0.0
C243 C 0.15411 0.9421 0.38575 0.0
C244 C 0.20158 0.94199 0.36591 0.0
C245 C 0.21447 0.92501 0.37325 0.0
U246 U 0.21263 0.87866 0.42206 0.0
O247 O 0.21089 0.84659 0.42051 0.0
O248 O 0.25954 0.86139 0.42687 0.0
C249 C 0.24434 0.8448 0.42294 0.0
C250 C 0.21072 0.89785 0.39356 0.0
C251 C 0.26297 0.8324 0.41073 0.0
C252 C 0.27394 0.82142 0.38209 0.0
C253 C 0.25624 0.83351 0.39343 0.0
C254 C 0.30578 0.80725 0.40516 0.0
C255 C 0.29894 0.80812 0.38782 0.0
C256 C 0.28794 0.81925 0.41648 0.0
C257 C 0.17843 0.88858 0.46703 0.0
C258 C 0.16729 0.86521 0.48937 0.0
C259 C 0.16949 0.89981 0.49574 0.0
C260 C 0.17632 0.90377 0.47884 0.0
C261 C 0.16447 0.88049 0.50123 0.0
C262 C 0.17423 0.86921 0.47243 0.0
C263 C 0.18372 0.89349 0.44916 0.0
O264 O 0.2363 0.89941 0.40433 0.0
O265 O 0.18767 0.8846 0.39783 0.0
O266 O 0.1669 0.88275 0.4381 0.0
O267 O 0.21564 0.89744 0.44461 0.0
H268 H 0.15342 0.91864 0.40361 0.0
H269 H 0.13039 0.94828 0.39063 0.0
H270 H 0.21567 0.94834 0.35552 0.0
H271 H 0.23783 0.91853 0.36823 0.0
H272 H 0.26832 0.82262 0.36882 0.0
H273 H 0.23726 0.84369 0.3887 0.0
H274 H 0.32454 0.79704 0.41003 0.0
H275 H 0.29352 0.81819 0.42977 0.0
H276 H 0.16331 0.85018 0.49308 0.0
H277 H 0.1682 0.91192 0.50451 0.0
H278 H 0.17961 0.91881 0.47495 0.0
H279 H 0.1758 0.85722 0.46354 0.0
C280 C 0.31231 0.65418 0.96786 0.0
C281 C 0.34125 0.6428 0.97192 0.0
C282 C 0.33427 0.65089 1.0016 0.0
C283 C 0.35222 0.64125 0.98862 0.0
C284 C 0.30492 0.66196 0.99749 0.0
C285 C 0.29413 0.66362 0.98078 0.0
U286 U 0.30425 0.63555 0.92266 0.0
O287 O 0.26158 0.63785 0.90456 0.0
O288 O 0.31209 0.65084 0.89866 0.0
C289 C 0.27977 0.64844 0.894 0.0
C290 C 0.30102 0.6566 0.95029 0.0
C291 C 0.26255 0.66569 0.88687 0.0
C292 C 0.22351 0.6934 0.88901 0.0
C293 C 0.24089 0.67776 0.89652 0.0
C294 C 0.24984 0.68528 0.86228 0.0
C295 C 0.22762 0.69728 0.87175 0.0
C296 C 0.26706 0.66968 0.86977 0.0
C297 C 0.33984 0.58516 0.91127 0.0
C298 C 0.33535 0.57146 0.88312 0.0
C299 C 0.36531 0.55362 0.90487 0.0
C300 C 0.35826 0.56864 0.91633 0.0
C301 C 0.35403 0.55485 0.88811 0.0
C302 C 0.32836 0.58651 0.89461 0.0
C303 C 0.33299 0.60085 0.9235 0.0
O304 O 0.32584 0.65839 0.9391 0.0
O305 O 0.27584 0.64502 0.94529 0.0
O306 O 0.30025 0.60392 0.92702 0.0
O307 O 0.35061 0.61707 0.92125 0.0
H308 H 0.35551 0.63523 0.96216 0.0
H309 H 0.37466 0.63242 0.99138 0.0
H310 H 0.29072 0.66973 1.00715 0.0
H311 H 0.27173 0.67245 0.97792 0.0
H312 H 0.20691 0.70247 0.89672 0.0
H313 H 0.23715 0.67498 0.90978 0.0
H314 H 0.25327 0.68763 0.84894 0.0
H315 H 0.28356 0.66049 0.8621 0.0
H316 H 0.32662 0.57298 0.87028 0.0
H317 H 0.37931 0.54094 0.9092 0.0
H318 H 0.36721 0.56735 0.92916 0.0
H319 H 0.31416 0.59922 0.89049 0.0
C320 C 0.89229 0.12277 0.26801 0.0
C321 C 0.89693 0.08768 0.27153 0.0
C322 C 0.91053 0.10666 0.27379 0.0
C323 C 0.86536 0.08511 0.2631 0.0
C324 C 0.86046 0.12024 0.25964 0.0
C325 C 0.84719 0.10133 0.25717 0.0
N326 N 0.90632 0.14087 0.27005 0.0
C327 C 0.88925 0.15708 0.26471 0.0
C328 C 0.84317 0.1368 0.25379 0.0
C329 C 0.85753 0.15531 0.25644 0.0
Gd330 Gd 0.04329 0.14554 0.25287 0.0
Gd331 Gd 0.96024 0.1423 0.28338 0.0
N332 N 0.94165 0.10954 0.28146 0.0
C333 C 0.91534 0.07184 0.27795 0.0
C334 C 0.95816 0.09429 0.28887 0.0
C335 C 0.94577 0.07521 0.28692 0.0
H336 H 0.98019 0.0967 0.29679 0.0
H337 H 0.95941 0.06314 0.29257 0.0
H338 H 0.02703 0.19369 0.24762 0.0
H339 H 0.89982 0.17141 0.26707 0.0
H340 H 0.05559 0.2251 0.25344 0.0
H341 H 0.90579 0.05704 0.27647 0.0
H342 H 0.85469 0.07062 0.26115 0.0
H343 H 0.10115 0.11103 0.26197 0.0
H344 H 0.81869 0.13547 0.24727 0.0
H345 H 0.84416 0.16821 0.25215 0.0
H346 H 0.16676 0.20733 0.27506 0.0
H347 H 0.82288 0.0991 0.25068 0.0
H348 H 0.19339 0.1392 0.27943 0.0
H349 H 0.16069 0.10898 0.27287 0.0
N350 N 0.10003 0.14202 0.26254 0.0
C351 C 0.11779 0.15883 0.26556 0.0
C352 C 0.11502 0.12427 0.26502 0.0
C353 C 0.16725 0.14019 0.27465 0.0
C354 C 0.14883 0.12309 0.27107 0.0
C355 C 0.15182 0.15836 0.27187 0.0
H356 H 0.19536 0.1759 0.2802 0.0
N357 N 0.06841 0.17655 0.25695 0.0
C358 C 0.10165 0.1766 0.26258 0.0
C359 C 0.10213 0.2119 0.26281 0.0
C360 C 0.11919 0.1943 0.26591 0.0
C361 C 0.05231 0.19366 0.25315 0.0
C362 C 0.0687 0.21156 0.25623 0.0
O363 O 0.95719 0.13147 0.25629 0.0
O364 O 0.01047 0.1184 0.25139 0.0
O365 O 0.03862 0.15284 0.2264 0.0
O366 O 0.08034 0.13445 0.2347 0.0
O367 O 0.01042 0.12801 0.29178 0.0
O368 O 0.03782 0.11758 0.26754 0.0
O369 O 0.04817 0.15812 0.27921 0.0
O370 O 0.99411 0.16904 0.28698 0.0
O371 O 0.95672 0.13614 0.31015 0.0
O372 O 0.91867 0.15448 0.29838 0.0
O373 O 0.99441 0.16167 0.24545 0.0
O374 O 0.96521 0.1709 0.26964 0.0
C375 C 0.97695 0.11833 0.24909 0.0
C376 C 0.03243 0.11648 0.28385 0.0
C377 C 0.05795 0.1284 0.20765 0.0
C378 C 0.06071 0.12095 0.17757 0.0
C379 C 0.0366 0.09731 0.19714 0.0
C380 C 0.04295 0.11004 0.2105 0.0
C381 C 0.04531 0.10269 0.18078 0.0
C382 C 0.06691 0.1338 0.19118 0.0
C383 C 0.06443 0.14183 0.22184 0.0
C384 C 0.15299 0.19388 0.27233 0.0
C385 C 0.16927 0.17597 0.27527 0.0
H386 H 0.11468 0.2258 0.26525 0.0
C387 C 0.02802 0.16964 0.28811 0.0
C388 C 0.97209 0.17285 0.25351 0.0
C389 C 0.93222 0.1613 0.32668 0.0
C390 C 0.9245 0.16846 0.3566 0.0
C391 C 0.94329 0.19396 0.33737 0.0
C392 C 0.94253 0.18071 0.32403 0.0
C393 C 0.93395 0.18797 0.35347 0.0
C394 C 0.92337 0.15518 0.343 0.0
C395 C 0.93018 0.14749 0.31245 0.0
H396 H 0.02519 0.08313 0.19949 0.0
H397 H 0.03653 0.1055 0.22309 0.0
H398 H 0.04062 0.09236 0.17069 0.0
H399 H 0.07851 0.14799 0.18897 0.0
H400 H 0.95081 0.20898 0.3352 0.0
H401 H 0.94949 0.18569 0.31159 0.0
H402 H 0.93359 0.1987 0.36348 0.0
H403 H 0.91592 0.14011 0.3451 0.0
C404 C 0.59782 0.40004 0.77476 0.0
C405 C 0.58506 0.43253 0.78517 0.0
C406 C 0.57621 0.41262 0.78347 0.0
C407 C 0.61515 0.43967 0.7774 0.0
C408 C 0.62855 0.40698 0.76734 0.0
C409 C 0.63688 0.42692 0.76853 0.0
N410 N 0.58841 0.38098 0.77332 0.0
C411 C 0.60952 0.3678 0.76554 0.0
C412 C 0.64985 0.39367 0.75887 0.0
C413 C 0.64041 0.37396 0.75809 0.0
Gd414 Gd 0.45934 0.36715 0.75077 0.0
Gd415 Gd 0.53595 0.37181 0.78587 0.0
N416 N 0.54723 0.40524 0.79078 0.0
C417 C 0.56388 0.44455 0.79499 0.0
C418 C 0.52841 0.41652 0.80158 0.0
C419 C 0.53579 0.43641 0.8035 0.0
H420 H 0.50827 0.41014 0.80913 0.0
H421 H 0.52019 0.44536 0.81178 0.0
H422 H 0.46681 0.32241 0.73534 0.0
H423 H 0.60244 0.35256 0.76507 0.0
H424 H 0.43439 0.29106 0.73562 0.0
H425 H 0.56975 0.45993 0.79661 0.0
H426 H 0.62218 0.45497 0.77844 0.0
H427 H 0.4011 0.4016 0.76288 0.0
H428 H 0.67368 0.39843 0.753 0.0
H429 H 0.6569 0.36352 0.75175 0.0
H430 H 0.33282 0.30541 0.76821 0.0
H431 H 0.66019 0.43259 0.76277 0.0
H432 H 0.31354 0.37223 0.78369 0.0
H433 H 0.34514 0.40282 0.77746 0.0
N434 N 0.40388 0.37051 0.76287 0.0
C435 C 0.38575 0.35366 0.76503 0.0
C436 C 0.38873 0.38807 0.76637 0.0
C437 C 0.33874 0.37156 0.77777 0.0
C438 C 0.35651 0.38886 0.77432 0.0
C439 C 0.35279 0.3537 0.77262 0.0
H440 H 0.3091 0.3358 0.78007 0.0
N441 N 0.43026 0.33715 0.75068 0.0
C442 C 0.39902 0.33652 0.7584 0.0
C443 C 0.39301 0.30242 0.75094 0.0
C444 C 0.3798 0.31902 0.75904 0.0
C445 C 0.44257 0.32136 0.74205 0.0
C446 C 0.42429 0.30369 0.74218 0.0
O447 O 0.54292 0.38259 0.75904 0.0
O448 O 0.49006 0.39505 0.75249 0.0
O449 O 0.4728 0.36486 0.72434 0.0
O450 O 0.42252 0.37544 0.73148 0.0
O451 O 0.48279 0.38363 0.7925 0.0
O452 O 0.46064 0.3943 0.76728 0.0
O453 O 0.4681 0.34243 0.76917 0.0
O454 O 0.48452 0.35856 0.79308 0.0
O455 O 0.55098 0.37582 0.81187 0.0
O456 O 0.56698 0.34983 0.79867 0.0
O457 O 0.5108 0.35298 0.74497 0.0
O458 O 0.53747 0.3441 0.77004 0.0
C459 C 0.52386 0.39586 0.75171 0.0
C460 C 0.46296 0.39541 0.78376 0.0
C461 C 0.44675 0.38778 0.70651 0.0
C462 C 0.44162 0.39841 0.67732 0.0
C463 C 0.4611 0.42111 0.69904 0.0
C464 C 0.45794 0.40654 0.71112 0.0
C465 C 0.45302 0.41713 0.68227 0.0
C466 C 0.43861 0.38375 0.68963 0.0
C467 C 0.44385 0.37227 0.71915 0.0
C468 C 0.34778 0.31878 0.76735 0.0
C469 C 0.33432 0.33608 0.77415 0.0
H470 H 0.37897 0.28871 0.7511 0.0
C471 C 0.46905 0.34385 0.7856 0.0
C472 C 0.53203 0.34188 0.75371 0.0
C473 C 0.60255 0.36166 0.82111 0.0
C474 C 0.63509 0.36478 0.84738 0.0
C475 C 0.66415 0.36833 0.82043 0.0
C476 C 0.63298 0.36512 0.81201 0.0
C477 C 0.66524 0.36828 0.83797 0.0
C478 C 0.60379 0.36133 0.83879 0.0
C479 C 0.56882 0.35986 0.81261 0.0
H480 H 0.46971 0.43558 0.70269 0.0
H481 H 0.46406 0.40991 0.72407 0.0
H482 H 0.45523 0.42882 0.67321 0.0
H483 H 0.43033 0.36916 0.68609 0.0
H484 H 0.68753 0.37103 0.81332 0.0
H485 H 0.63264 0.36557 0.79846 0.0
H486 H 0.68974 0.37083 0.84419 0.0
H487 H 0.5802 0.35897 0.84587 0.0
C488 C 0.9041 0.84107 0.77253 0.0
C489 C 0.91546 0.8095 0.78492 0.0
C490 C 0.92527 0.82903 0.78191 0.0
C491 C 0.88503 0.80207 0.77764 0.0
C492 C 0.87277 0.83397 0.76582 0.0
C493 C 0.86373 0.81428 0.76811 0.0
N494 N 0.91392 0.85993 0.77023 0.0
C495 C 0.89259 0.87289 0.76247 0.0
C496 C 0.85131 0.84696 0.75721 0.0
C497 C 0.86109 0.86657 0.7557 0.0
Gd498 Gd 0.0442 0.87127 0.7475 0.0
Gd499 Gd 0.96671 0.86945 0.78208 0.0
N500 N 0.95422 0.83679 0.789 0.0
C501 C 0.93575 0.79831 0.79575 0.0
C502 C 0.97209 0.82649 0.80074 0.0
C503 C 0.96372 0.80702 0.80398 0.0
H504 H 0.99224 0.83338 0.80802 0.0
H505 H 0.97843 0.79895 0.81314 0.0
H506 H 0.03883 0.9158 0.73159 0.0
H507 H 0.9002 0.88803 0.76134 0.0
H508 H 0.07184 0.94693 0.73225 0.0
H509 H 0.92909 0.78326 0.79845 0.0
H510 H 0.87721 0.78706 0.7797 0.0
H511 H 0.10077 0.83671 0.76054 0.0
H512 H 0.82699 0.84208 0.75189 0.0
H513 H 0.84445 0.87678 0.7493 0.0
H514 H 0.17074 0.93252 0.76649 0.0
H515 H 0.83998 0.80845 0.76287 0.0
H516 H 0.18762 0.86587 0.78248 0.0
H517 H 0.15582 0.83536 0.77594 0.0
N518 N 0.09865 0.86779 0.76046 0.0
C519 C 0.11701 0.88456 0.76275 0.0
C520 C 0.1132 0.85019 0.76421 0.0
C521 C 0.16282 0.86659 0.77621 0.0
C522 C 0.14491 0.84934 0.77258 0.0
C523 C 0.14946 0.88445 0.77081 0.0
H524 H 0.19295 0.9022 0.77889 0.0
N525 N 0.0738 0.90114 0.74767 0.0
C526 C 0.10458 0.90168 0.75583 0.0
C527 C 0.1118 0.9356 0.74832 0.0
C528 C 0.1241 0.91907 0.75669 0.0
C529 C 0.06253 0.91682 0.73871 0.0
C530 C 0.08117 0.93437 0.73905 0.0
O531 O 0.95872 0.85824 0.75535 0.0
O532 O 0.01065 0.84433 0.74876 0.0
O533 O 0.03371 0.87331 0.72072 0.0
O534 O 0.08256 0.86207 0.72916 0.0
O535 O 0.01871 0.85646 0.78903 0.0
O536 O 0.04073 0.84432 0.76413 0.0
O537 O 0.03631 0.89651 0.76578 0.0
O538 O 0.01926 0.8808 0.78959 0.0
O539 O 0.9432 0.86744 0.80692 0.0
O540 O 0.94147 0.89457 0.79338 0.0
O541 O 0.99397 0.88615 0.74065 0.0
O542 O 0.96717 0.89625 0.76541 0.0
C543 C 0.97681 0.84459 0.74772 0.0
C544 C 0.03749 0.84369 0.78062 0.0
C545 C 0.06177 0.85058 0.70308 0.0
C546 C 0.0713 0.84081 0.67383 0.0
C547 C 0.05044 0.81721 0.69432 0.0
C548 C 0.05123 0.83151 0.70688 0.0
C549 C 0.06048 0.82177 0.67793 0.0
C550 C 0.07162 0.85522 0.68656 0.0
C551 C 0.06308 0.86568 0.71627 0.0
C552 C 0.15555 0.91924 0.76548 0.0
C553 C 0.16816 0.90198 0.77257 0.0
H554 H 0.12611 0.94923 0.74863 0.0
C555 C 0.03462 0.89553 0.78222 0.0
C556 C 0.97402 0.89825 0.74923 0.0
C557 C 0.94608 0.89643 0.82315 0.0
C558 C 0.94391 0.90011 0.85382 0.0
C559 C 0.9795 0.92191 0.83701 0.0
C560 C 0.96904 0.91236 0.82237 0.0
C561 C 0.96714 0.91588 0.85258 0.0
C562 C 0.93333 0.89046 0.83895 0.0
C563 C 0.93567 0.8859 0.80764 0.0
H564 H 0.04212 0.80253 0.69731 0.0
H565 H 0.04388 0.82771 0.71956 0.0
H566 H 0.05946 0.81042 0.66841 0.0
H567 H 0.08015 0.86993 0.68371 0.0
H568 H 0.99734 0.93405 0.83635 0.0
H569 H 0.97903 0.91742 0.81045 0.0
H570 H 0.97542 0.92381 0.86369 0.0
H571 H 0.91565 0.87818 0.83967 0.0
C572 C 0.62366 0.65901 0.27153 0.0
C573 C 0.62406 0.69439 0.27412 0.0
C574 C 0.60667 0.67633 0.27551 0.0
C575 C 0.65859 0.69481 0.26868 0.0
C576 C 0.65829 0.65941 0.266 0.0
C577 C 0.67564 0.67739 0.26463 0.0
N578 N 0.60598 0.64185 0.27254 0.0
C579 C 0.62157 0.62455 0.26872 0.0
C580 C 0.67432 0.64174 0.26181 0.0
C581 C 0.6559 0.62424 0.26322 0.0
Gd582 Gd 0.47068 0.64477 0.24766 0.0
Gd583 Gd 0.54841 0.64409 0.28136 0.0
N584 N 0.57276 0.67554 0.28011 0.0
C585 C 0.60609 0.71151 0.27809 0.0
C586 C 0.55568 0.6921 0.28476 0.0
C587 C 0.57187 0.71033 0.28357 0.0
H588 H 0.52981 0.69137 0.28959 0.0
H589 H 0.55799 0.72346 0.28697 0.0
H590 H 0.48248 0.59718 0.23973 0.0
H591 H 0.60772 0.61094 0.27008 0.0
H592 H 0.44799 0.56683 0.23952 0.0
H593 H 0.6185 0.72567 0.27713 0.0
H594 H 0.6723 0.70856 0.26747 0.0
H595 H 0.41559 0.68102 0.25714 0.0
H596 H 0.70088 0.64144 0.25749 0.0
H597 H 0.66816 0.6105 0.26011 0.0
H598 H 0.33493 0.58735 0.25701 0.0
H599 H 0.70223 0.67798 0.26036 0.0
H600 H 0.31711 0.65543 0.26807 0.0
H601 H 0.35474 0.68461 0.26594 0.0
N602 N 0.41317 0.65006 0.25568 0.0
C603 C 0.39276 0.63388 0.25636 0.0
C604 C 0.3998 0.66815 0.25873 0.0
C605 C 0.344 0.65374 0.26457 0.0
C606 C 0.36518 0.67025 0.26342 0.0
C607 C 0.35758 0.63529 0.26082 0.0
H608 H 0.30992 0.61915 0.26459 0.0
N609 N 0.44128 0.61485 0.24856 0.0
C610 C 0.40703 0.61582 0.25239 0.0
C611 C 0.40137 0.58109 0.24776 0.0
C612 C 0.38631 0.59886 0.25243 0.0
C613 C 0.45592 0.59765 0.24369 0.0
C614 C 0.43631 0.58047 0.24338 0.0
O615 O 0.55752 0.65797 0.25579 0.0
O616 O 0.50536 0.67133 0.24847 0.0
O617 O 0.4768 0.63679 0.22139 0.0
O618 O 0.43897 0.65842 0.22851 0.0
O619 O 0.49656 0.65728 0.28849 0.0
O620 O 0.47549 0.67128 0.26438 0.0
O621 O 0.46148 0.62791 0.27193 0.0
O622 O 0.51486 0.61715 0.28092 0.0
O623 O 0.54678 0.65255 0.30767 0.0
O624 O 0.58061 0.62929 0.29974 0.0
O625 O 0.52094 0.6295 0.24092 0.0
O626 O 0.54522 0.61698 0.26513 0.0
C627 C 0.53926 0.67103 0.24766 0.0
C628 C 0.47737 0.67035 0.28085 0.0
C629 C 0.46363 0.66092 0.20146 0.0
C630 C 0.46067 0.66699 0.17124 0.0
C631 C 0.4957 0.68787 0.18937 0.0
C632 C 0.486 0.67688 0.20331 0.0
C633 C 0.48328 0.68296 0.17343 0.0
C634 C 0.45092 0.65601 0.18544 0.0
C635 C 0.45378 0.64918 0.21614 0.0
C636 C 0.35128 0.60021 0.25691 0.0
C637 C 0.33701 0.61835 0.2612 0.0
H638 H 0.38609 0.56788 0.24709 0.0
C639 C 0.48099 0.61574 0.28044 0.0
C640 C 0.53957 0.61633 0.2488 0.0
C641 C 0.55674 0.62744 0.32705 0.0
C642 C 0.55804 0.62083 0.35723 0.0
C643 C 0.5183 0.60308 0.33897 0.0
C644 C 0.53054 0.61343 0.32515 0.0
C645 C 0.53181 0.60678 0.35492 0.0
C646 C 0.57069 0.63103 0.34313 0.0
C647 C 0.56809 0.63899 0.31246 0.0
H648 H 0.51269 0.70032 0.19095 0.0
H649 H 0.49574 0.68082 0.21555 0.0
H650 H 0.49088 0.6919 0.16287 0.0
H651 H 0.43381 0.64354 0.18402 0.0
H652 H 0.49807 0.59228 0.33734 0.0
H653 H 0.51935 0.61067 0.31297 0.0
H654 H 0.52184 0.59857 0.36547 0.0
H655 H 0.5906 0.64207 0.34471 0.0
H656 H 0.141 0.98295 0.3865 0.0
H657 H 0.11819 0.01192 0.37248 0.0
H658 H 0.14597 0.98738 0.32437 0.0
H659 H 0.1684 0.95835 0.33822 0.0
H660 H 0.16523 0.02512 0.32651 0.0
H661 H 0.0623 0.98771 0.33792 0.0
H662 H 0.02063 0.9699 0.35566 0.0
H663 H 0.00277 0.02184 0.3848 0.0
H664 H 0.04472 0.0399 0.36738 0.0
H665 H 0.06532 0.08394 0.27164 0.0
H666 H 0.09083 0.05729 0.28766 0.0
H667 H 0.06217 0.08599 0.33392 0.0
H668 H 0.03705 0.1129 0.318 0.0
H669 H 0.04432 0.04746 0.33399 0.0
H670 H 0.14547 0.08518 0.32259 0.0
H671 H 0.18777 0.10331 0.30546 0.0
H672 H 0.20913 0.05143 0.27682 0.0
H673 H 0.16671 0.03301 0.29369 0.0
C674 C 0.14193 0.98362 0.37293 0.0
C675 C 0.15665 0.96829 0.36352 0.0
C676 C 0.12895 1.00023 0.36493 0.0
C677 C 0.13019 1.00181 0.34735 0.0
C678 C 0.14488 0.98656 0.33794 0.0
C679 C 0.15782 0.96998 0.34591 0.0
C680 C 0.11652 0.01937 0.33867 0.0
C681 C 0.13866 0.02986 0.328 0.0
C682 C 0.08215 0.02594 0.34097 0.0
C683 C 0.05695 0.0151 0.35147 0.0
C684 C 0.04972 0.99529 0.34821 0.0
C685 C 0.026 0.98516 0.35819 0.0
C686 C 0.00914 0.99472 0.37138 0.0
C687 C 0.0159 0.01445 0.3746 0.0
C688 C 0.03963 0.02464 0.36467 0.0
C689 C 0.06502 0.08481 0.28522 0.0
C690 C 0.04946 0.1007 0.29352 0.0
C691 C 0.07952 0.0695 0.29437 0.0
C692 C 0.07866 0.0697 0.312 0.0
C693 C 0.06317 0.08553 0.32033 0.0
C694 C 0.04888 0.10092 0.31119 0.0
C695 C 0.09294 0.05306 0.3217 0.0
C696 C 0.07092 0.04276 0.33256 0.0
C697 C 0.12745 0.0467 0.31962 0.0
C698 C 0.15269 0.05776 0.30931 0.0
C699 C 0.15898 0.07767 0.31255 0.0
C700 C 0.18308 0.08798 0.30293 0.0
C701 C 0.20113 0.07852 0.29006 0.0
C702 C 0.19514 0.05873 0.28679 0.0
C703 C 0.17112 0.04834 0.2964 0.0
H704 H 0.21972 0.08655 0.28261 0.0
H705 H 0.99078 0.98685 0.37909 0.0
H706 H 0.41464 0.53472 0.88462 0.0
H707 H 0.42772 0.5083 0.86495 0.0
H708 H 0.32535 0.51274 0.84394 0.0
H709 H 0.31167 0.53888 0.86398 0.0
H710 H 0.34268 0.47515 0.84821 0.0
H711 H 0.39394 0.53103 0.8229 0.0
H712 H 0.42979 0.5608 0.82132 0.0
H713 H 0.52049 0.5273 0.83239 0.0
H714 H 0.4851 0.49735 0.83429 0.0
H715 H 0.44512 0.43104 0.7713 0.0
H716 H 0.4204 0.4587 0.78674 0.0
H717 H 0.41766 0.4241 0.83186 0.0
H718 H 0.44162 0.3963 0.81639 0.0
H719 H 0.44721 0.47855 0.81217 0.0
H720 H 0.35154 0.43833 0.85664 0.0
H721 H 0.31331 0.40942 0.85593 0.0
H722 H 0.30588 0.4136 0.80229 0.0
H723 H 0.34375 0.44264 0.80267 0.0
C724 C 0.39476 0.52999 0.87592 0.0
C725 C 0.36208 0.53894 0.8759 0.0
C726 C 0.4024 0.51499 0.86456 0.0
C727 C 0.37765 0.50866 0.85283 0.0
C728 C 0.34489 0.51742 0.85284 0.0
C729 C 0.33722 0.53248 0.86421 0.0
C730 C 0.38611 0.49283 0.84066 0.0
C731 C 0.36546 0.47592 0.84029 0.0
C732 C 0.41538 0.49399 0.83 0.0
C733 C 0.4368 0.51196 0.82888 0.0
C734 C 0.42148 0.53003 0.82514 0.0
C735 C 0.44173 0.54693 0.82416 0.0
C736 C 0.47738 0.54595 0.82679 0.0
C737 C 0.49287 0.52804 0.83038 0.0
C738 C 0.47273 0.51109 0.83139 0.0
C739 C 0.43863 0.42924 0.78444 0.0
C740 C 0.44527 0.41154 0.79267 0.0
C741 C 0.42475 0.44509 0.79327 0.0
C742 C 0.41701 0.44347 0.81044 0.0
C743 C 0.42296 0.42563 0.81857 0.0
C744 C 0.4368 0.40979 0.80975 0.0
C745 C 0.40435 0.46066 0.82009 0.0
C746 C 0.42427 0.47783 0.82 0.0
C747 C 0.37402 0.45988 0.83002 0.0
C748 C 0.35068 0.44261 0.8297 0.0
C749 C 0.3416 0.43315 0.84471 0.0
C750 C 0.32005 0.41671 0.84435 0.0
C751 C 0.30725 0.40966 0.82907 0.0
C752 C 0.31594 0.41904 0.81411 0.0
C753 C 0.33747 0.43547 0.81439 0.0
H754 H 0.2905 0.39697 0.82882 0.0
H755 H 0.49302 0.55905 0.82602 0.0
H756 H 0.60107 0.55365 0.67488 0.0
H757 H 0.57967 0.52493 0.68974 0.0
H758 H 0.67243 0.49361 0.67657 0.0
H759 H 0.69404 0.52238 0.66161 0.0
H760 H 0.61581 0.47003 0.67416 0.0
H761 H 0.66373 0.5135 0.71533 0.0
H762 H 0.67201 0.54492 0.73008 0.0
H763 H 0.56485 0.54528 0.74417 0.0
H764 H 0.55581 0.51399 0.72928 0.0
H765 H 0.58645 0.39572 0.73564 0.0
H766 H 0.61292 0.42242 0.71968 0.0
H767 H 0.52386 0.45843 0.72968 0.0
H768 H 0.49798 0.43208 0.74608 0.0
H769 H 0.58295 0.47871 0.73398 0.0
H770 H 0.53463 0.43593 0.69161 0.0
H771 H 0.5268 0.404 0.67756 0.0
H772 H 0.63529 0.40194 0.66637 0.0
H773 H 0.64384 0.43373 0.68056 0.0
C774 C 0.61697 0.54067 0.67515 0.0
C775 C 0.64947 0.54042 0.66721 0.0
C776 C 0.60467 0.52423 0.68363 0.0
C777 C 0.62469 0.50719 0.68455 0.0
C778 C 0.65654 0.50659 0.67608 0.0
C779 C 0.66884 0.52305 0.66751 0.0
C780 C 0.6128 0.49036 0.69486 0.0
C781 C 0.60908 0.47188 0.68729 0.0
C782 C 0.60363 0.49273 0.71199 0.0
C783 C 0.60904 0.51148 0.72106 0.0
C784 C 0.64188 0.52035 0.72148 0.0
C785 C 0.64672 0.53813 0.72987 0.0
C786 C 0.61896 0.54711 0.73802 0.0
C787 C 0.58632 0.53831 0.73783 0.0
C788 C 0.58133 0.52054 0.72943 0.0
C789 C 0.57278 0.40943 0.73458 0.0
C790 C 0.54025 0.41186 0.74215 0.0
C791 C 0.58775 0.4246 0.72533 0.0
C792 C 0.57023 0.4424 0.72333 0.0
C793 C 0.53787 0.44486 0.73103 0.0
C794 C 0.52301 0.42975 0.74031 0.0
C795 C 0.58532 0.45852 0.71321 0.0
C796 C 0.58978 0.47686 0.72085 0.0
C797 C 0.59516 0.45597 0.6962 0.0
C798 C 0.58991 0.43712 0.68727 0.0
C799 C 0.55683 0.42861 0.68622 0.0
C800 C 0.55225 0.41055 0.67823 0.0
C801 C 0.58054 0.40093 0.67112 0.0
C802 C 0.61342 0.40941 0.6719 0.0
C803 C 0.61814 0.42745 0.6799 0.0
H804 H 0.57698 0.38693 0.66498 0.0
H805 H 0.62275 0.56088 0.74452 0.0
H806 H 0.90811 0.96629 0.16075 0.0
H807 H 0.92578 0.9926 0.17975 0.0
H808 H 0.83348 0.02462 0.1674 0.0
H809 H 0.81586 0.99839 0.14819 0.0
H810 H 0.8868 0.04861 0.16778 0.0
H811 H 0.84279 1.00049 0.20554 0.0
H812 H 0.83684 0.96782 0.21813 0.0
H813 H 0.94394 0.96888 0.23221 0.0
H814 H 0.95066 1.00145 0.2195 0.0
H815 H 0.9148 0.11891 0.23269 0.0
H816 H 0.88883 0.09282 0.21572 0.0
H817 H 0.97823 0.05674 0.2244 0.0
H818 H 0.00328 0.08231 0.24215 0.0
H819 H 0.92149 0.03545 0.22659 0.0
H820 H 0.96604 0.08228 0.1863 0.0
H821 H 0.97136 0.11556 0.17475 0.0
H822 H 0.86181 0.11716 0.1663 0.0
H823 H 0.85589 0.08395 0.17794 0.0
C824 C 0.89135 0.97882 0.16222 0.0
C825 C 0.86047 0.98017 0.153 0.0
C826 C 0.9015 0.99389 0.1731 0.0
C827 C 0.88076 0.01054 0.17524 0.0
C828 C 0.84995 0.01196 0.166 0.0
C829 C 0.83992 0.99695 0.155 0.0
C830 C 0.89157 0.02657 0.18688 0.0
C831 C 0.89388 0.04574 0.1807 0.0
C832 C 0.90127 0.02292 0.20373 0.0
C833 C 0.89729 1.00335 0.21144 0.0
C834 C 0.86514 0.9937 0.21121 0.0
C835 C 0.86162 0.9752 0.21839 0.0
C836 C 0.89001 0.96626 0.22593 0.0
C837 C 0.92197 0.97581 0.22635 0.0
C838 C 0.92564 0.9943 0.21918 0.0
C839 C 0.92869 0.10532 0.23113 0.0
C840 C 0.96114 0.10269 0.2387 0.0
C841 C 0.914 0.09048 0.22128 0.0
C842 C 0.93181 0.07289 0.21851 0.0
C843 C 0.96399 0.07017 0.22628 0.0
C844 C 0.97845 0.08489 0.2363 0.0
C845 C 0.91734 0.05733 0.20739 0.0
C846 C 0.91426 0.03828 0.21367 0.0
C847 C 0.90686 0.06109 0.19068 0.0
C848 C 0.91053 0.08073 0.18311 0.0
C849 C 0.94313 0.08977 0.18201 0.0
C850 C 0.94624 0.1086 0.17545 0.0
C851 C 0.91693 0.11848 0.16984 0.0
C852 C 0.88449 0.10949 0.17066 0.0
C853 C 0.88125 0.09065 0.17721 0.0
H854 H 0.91934 0.13308 0.16483 0.0
H855 H 0.88723 0.95194 0.23148 0.0
H856 H 0.90419 0.06356 0.6816 0.0
H857 H 0.92429 0.03428 0.69599 0.0
H858 H 0.83964 1.00129 0.67478 0.0
H859 H 0.81884 0.03069 0.66067 0.0
H860 H 0.84751 0.99304 0.70761 0.0
H861 H 0.92035 0.99627 0.65916 0.0
H862 H 0.96082 0.01143 0.63911 0.0
H863 H 0.03516 0.01971 0.67854 0.0
H864 H 0.9949 1.00484 0.69888 0.0
H865 H 0.97289 0.90421 0.71531 0.0
H866 H 0.94991 0.93217 0.70022 0.0
H867 H 0.91914 0.95869 0.74714 0.0
H868 H 0.9415 0.93049 0.76239 0.0
H869 H 0.9675 0.9691 0.70028 0.0
H870 H 0.84718 0.98655 0.74081 0.0
H871 H 0.80577 0.96929 0.75911 0.0
H872 H 0.82376 0.91592 0.73198 0.0
H873 H 0.86481 0.93293 0.71334 0.0
C874 C 0.88972 0.05011 0.68005 0.0
C875 C 0.85989 0.04949 0.66996 0.0
C876 C 0.9014 0.03333 0.6882 0.0
C877 C 0.88362 0.01553 0.68639 0.0
C878 C 0.8538 0.01485 0.67636 0.0
C879 C 0.84213 0.03163 0.66816 0.0
C880 C 0.89614 0.99766 0.69501 0.0
C881 C 0.87375 0.9878 0.70601 0.0
C882 C 0.93021 0.99063 0.69276 0.0
C883 C 0.95446 0.99961 0.68057 0.0
C884 C 0.94521 1.00147 0.66358 0.0
C885 C 0.96813 0.00999 0.65216 0.0
C886 C 1.00051 0.01658 0.65756 0.0
C887 C 0.01005 0.01463 0.67438 0.0
C888 C 0.9872 1.00614 0.68586 0.0
C889 C 0.96107 0.91591 0.72247 0.0
C890 C 0.95892 0.91502 0.74009 0.0
C891 C 0.94805 0.93196 0.71379 0.0
C892 C 0.93256 0.94751 0.72249 0.0
C893 C 0.93045 0.94673 0.7401 0.0
C894 C 0.9433 0.93059 0.74881 0.0
C895 C 0.91905 0.96459 0.71306 0.0
C896 C 0.94128 0.97433 0.70192 0.0
C897 C 0.88464 0.97126 0.71494 0.0
C898 C 0.85932 0.96099 0.72579 0.0
C899 C 0.84214 0.97116 0.73869 0.0
C900 C 0.81875 0.96142 0.74913 0.0
C901 C 0.81221 0.94151 0.74674 0.0
C902 C 0.82892 0.93132 0.73385 0.0
C903 C 0.85226 0.94101 0.72335 0.0
H904 H 0.79416 0.93399 0.75486 0.0
H905 H 0.01823 0.02316 0.6487 0.0
H906 H 0.65352 0.45846 0.17591 0.0
H907 H 0.63874 0.48501 0.19522 0.0
H908 H 0.6187 0.52278 0.15319 0.0
H909 H 0.63499 0.49663 0.13383 0.0
H910 H 0.65152 0.54259 0.17676 0.0
H911 H 0.55271 0.49988 0.17537 0.0
H912 H 0.52139 0.46861 0.17793 0.0
H913 H 0.55169 0.46461 0.22966 0.0
H914 H 0.58359 0.49576 0.22734 0.0
H915 H 0.54429 0.61367 0.21463 0.0
H916 H 0.5672 0.58676 0.19788 0.0
H917 H 0.59211 0.55542 0.24309 0.0
H918 H 0.56866 0.58227 0.26005 0.0
H919 H 0.56014 0.53205 0.21956 0.0
H920 H 0.65534 0.57696 0.22091 0.0
H921 H 0.68223 0.60947 0.21801 0.0
H922 H 0.65549 0.61022 0.1657 0.0
H923 H 0.62793 0.57782 0.16835 0.0
C924 C 0.64644 0.47248 0.17075 0.0
C925 C 0.64525 0.47529 0.15325 0.0
C926 C 0.63763 0.48762 0.18183 0.0
C927 C 0.62706 0.50587 0.17569 0.0
C928 C 0.6266 0.50885 0.15827 0.0
C929 C 0.63557 0.49376 0.14718 0.0
C930 C 0.61586 0.52176 0.18736 0.0
C931 C 0.63135 0.54029 0.18602 0.0
C932 C 0.58999 0.51876 0.19971 0.0
C933 C 0.57088 0.50003 0.20113 0.0
C934 C 0.55294 0.49225 0.18725 0.0
C935 C 0.53504 0.47456 0.18867 0.0
C936 C 0.53464 0.4646 0.20393 0.0
C937 C 0.55208 0.47233 0.21783 0.0
C938 C 0.57006 0.49 0.21648 0.0
C939 C 0.55474 0.60111 0.22107 0.0
C940 C 0.55486 0.60022 0.23872 0.0
C941 C 0.56797 0.58575 0.21144 0.0
C942 C 0.58176 0.56916 0.21922 0.0
C943 C 0.58175 0.56813 0.23683 0.0
C944 C 0.56855 0.58355 0.2465 0.0
C945 C 0.59562 0.55282 0.20886 0.0
C946 C 0.58059 0.53424 0.21042 0.0
C947 C 0.6217 0.55582 0.19664 0.0
C948 C 0.63938 0.57499 0.19485 0.0
C949 C 0.65509 0.58408 0.2088 0.0
C950 C 0.67044 0.60249 0.2072 0.0
C951 C 0.67052 0.61192 0.19168 0.0
C952 C 0.6554 0.6029 0.17771 0.0
C953 C 0.63996 0.58449 0.17925 0.0
H954 H 0.68232 0.6262 0.19047 0.0
H955 H 0.52075 0.45091 0.205 0.0
H956 H 0.4124 0.46114 0.36269 0.0
H957 H 0.43278 0.49056 0.3484 0.0
H958 H 0.33329 0.51746 0.35597 0.0
H959 H 0.31258 0.48793 0.37008 0.0
H960 H 0.35495 0.5201 0.32355 0.0
H961 H 0.40252 0.53348 0.37774 0.0
H962 H 0.4357 0.52689 0.4035 0.0
H963 H 0.52833 0.52012 0.37434 0.0
H964 H 0.49561 0.52637 0.34836 0.0
H965 H 0.41346 0.61215 0.29074 0.0
H966 H 0.38805 0.58579 0.30743 0.0
H967 H 0.48572 0.55557 0.30696 0.0
H968 H 0.51117 0.58178 0.29038 0.0
H969 H 0.46166 0.55693 0.33776 0.0
H970 H 0.41265 0.53277 0.28483 0.0
H971 H 0.37987 0.53412 0.2583 0.0
H972 H 0.29369 0.55969 0.28426 0.0
H973 H 0.32563 0.55778 0.31107 0.0
C974 C 0.39491 0.47335 0.36138 0.0
C975 C 0.36083 0.47218 0.36748 0.0
C976 C 0.40669 0.49023 0.35334 0.0
C977 C 0.38465 0.50629 0.35122 0.0
C978 C 0.35079 0.50528 0.35753 0.0
C979 C 0.33906 0.48844 0.36568 0.0
C980 C 0.39628 0.52354 0.34143 0.0
C981 C 0.3779 0.52842 0.32688 0.0
C982 C 0.42675 0.53406 0.34547 0.0
C983 C 0.44651 0.53023 0.36108 0.0
C984 C 0.4299 0.53041 0.3768 0.0
C985 C 0.44864 0.52677 0.39144 0.0
C986 C 0.48408 0.52304 0.39055 0.0
C987 C 0.50086 0.52299 0.37501 0.0
C988 C 0.48223 0.5266 0.36032 0.0
C989 C 0.42937 0.59976 0.29401 0.0
C990 C 0.46446 0.59919 0.28939 0.0
C991 C 0.41479 0.58465 0.30352 0.0
C992 C 0.43494 0.56863 0.30849 0.0
C993 C 0.46967 0.5678 0.30342 0.0
C994 C 0.4842 0.58284 0.29392 0.0
C995 C 0.42067 0.55322 0.3197 0.0
C996 C 0.4385 0.54875 0.33456 0.0
C997 C 0.38993 0.5429 0.3159 0.0
C998 C 0.37159 0.54538 0.29981 0.0
C999 C 0.38681 0.53882 0.28481 0.0
C1000 C 0.36826 0.53949 0.26979 0.0
C1001 C 0.33477 0.54707 0.26958 0.0
C1002 C 0.31964 0.55385 0.28444 0.0
C1003 C 0.33784 0.55284 0.29957 0.0
H1004 H 0.32054 0.54769 0.2579 0.0
H1005 H 0.49855 0.52024 0.40191 0.0
H1006 H 0.11543 0.01816 0.89804 0.0
H1007 H 0.10003 0.99175 0.87873 0.0
H1008 H 0.13266 0.02685 0.83679 0.0
H1009 H 0.14906 0.05325 0.85606 0.0
H1010 H 0.06948 0.00865 0.83129 0.0
H1011 H 0.18312 0.99077 0.84947 0.0
H1012 H 0.2288 0.98394 0.87017 0.0
H1013 H 0.16764 0.93738 0.89074 0.0
H1014 H 0.12136 0.94412 0.8703 0.0
H1015 H 0.05362 0.93213 0.77208 0.0
H1016 H 0.07676 0.95873 0.78909 0.0
H1017 H 0.06637 0.92316 0.83342 0.0
H1018 H 0.04656 0.89583 0.81608 0.0
H1019 H 0.1209 0.94271 0.83673 0.0
H1020 H 0.00557 0.9617 0.82001 0.0
H1021 H 0.95939 0.9682 0.7995 0.0
H1022 H 0.02193 0.01279 0.77679 0.0
H1023 H 0.0687 1.00625 0.79703 0.0
C1024 C 0.11984 0.02023 0.88474 0.0
C1025 C 0.13377 0.03787 0.87867 0.0
C1026 C 0.11083 1.00511 0.8737 0.0
C1027 C 0.11546 1.00725 0.85632 0.0
C1028 C 0.12883 0.0249 0.85015 0.0
C1029 C 0.13806 0.04001 0.86121 0.0
C1030 C 0.10622 0.99104 0.84464 0.0
C1031 C 0.08101 0.99428 0.83232 0.0
C1032 C 0.12078 0.97221 0.84619 0.0
C1033 C 0.14864 0.96807 0.85845 0.0
C1034 C 0.17929 0.97918 0.85849 0.0
C1035 C 0.20531 0.9753 0.87017 0.0
C1036 C 0.20109 0.96027 0.88179 0.0
C1037 C 0.17086 0.94904 0.88174 0.0
C1038 C 0.14474 0.95287 0.8701 0.0
C1039 C 0.05718 0.92977 0.78535 0.0
C1040 C 0.04859 0.91176 0.79263 0.0
C1041 C 0.06973 0.9452 0.79519 0.0
C1042 C 0.07248 0.94328 0.8127 0.0
C1043 C 0.06443 0.92515 0.81997 0.0
C1044 C 0.05283 0.90953 0.81005 0.0
C1045 C 0.0835 0.9601 0.82349 0.0
C1046 C 0.10921 0.95702 0.83565 0.0
C1047 C 0.06914 0.97906 0.82187 0.0
C1048 C 0.04075 0.98331 0.80993 0.0
C1049 C 0.00952 0.97278 0.81059 0.0
C1050 C 0.98325 0.97649 0.79901 0.0
C1051 C 0.98776 0.99087 0.78681 0.0
C1052 C 0.0185 1.00163 0.78623 0.0
C1053 C 0.04489 0.99793 0.79776 0.0
H1054 H 0.96741 0.9937 0.77784 0.0
H1055 H 0.22127 0.95729 0.89082 0.0
H1056 H 0.10992 0.13338 0.0177 0.0
H1057 H 0.09127 0.13021 0.0469 0.0
H1058 H 0.18981 0.15251 0.06368 0.0
H1059 H 0.20906 0.15513 0.03453 0.0
H1060 H 0.17056 0.12199 0.08223 0.0
H1061 H 0.11735 0.18126 0.06404 0.0
H1062 H 0.08214 0.20204 0.04559 0.0
H1063 H 0.99302 0.1663 0.05536 0.0
H1064 H 0.02783 0.14513 0.0737 0.0
H1065 H 0.12089 0.13831 0.16702 0.0
H1066 H 0.13959 0.14432 0.13811 0.0
H1067 H 0.04322 0.12076 0.11968 0.0
H1068 H 0.02405 0.11515 0.14855 0.0
H1069 H 0.0621 0.15286 0.1022 0.0
H1070 H 0.11591 0.09315 0.11976 0.0
H1071 H 0.15121 0.07239 0.13819 0.0
H1072 H 0.23946 0.10921 0.12956 0.0
H1073 H 0.20452 0.13036 0.11125 0.0
C1074 C 0.12778 0.13744 0.02759 0.0
C1075 C 0.16099 0.14458 0.02371 0.0
C1076 C 0.11693 0.13581 0.0443 0.0
C1077 C 0.13893 0.14138 0.05754 0.0
C1078 C 0.17227 0.14822 0.05372 0.0
C1079 C 0.18314 0.14986 0.03701 0.0
C1080 C 0.1273 0.13996 0.07534 0.0
C1081 C 0.14711 0.12899 0.08664 0.0
C1082 C 0.09633 0.14875 0.08109 0.0
C1083 C 0.07529 0.1615 0.07012 0.0
C1084 C 0.09031 0.17774 0.06216 0.0
C1085 C 0.07041 0.1896 0.05173 0.0
C1086 C 0.03539 0.18546 0.04927 0.0
C1087 C 0.02017 0.16947 0.05726 0.0
C1088 C 0.03996 0.15755 0.06769 0.0
C1089 C 0.10345 0.1347 0.15683 0.0
C1090 C 0.07107 0.12612 0.1601 0.0
C1091 C 0.11431 0.13798 0.14029 0.0
C1092 C 0.09304 0.13271 0.12668 0.0
C1093 C 0.06018 0.12484 0.12995 0.0
C1094 C 0.04935 0.12152 0.14646 0.0
C1095 C 0.10533 0.13487 0.10904 0.0
C1096 C 0.08562 0.14594 0.09779 0.0
C1097 C 0.13642 0.12619 0.10333 0.0
C1098 C 0.1575 0.11345 0.11428 0.0
C1099 C 0.14277 0.09691 0.1219 0.0
C1100 C 0.16273 0.08506 0.1323 0.0
C1101 C 0.19753 0.08951 0.13508 0.0
C1102 C 0.21248 0.1058 0.12742 0.0
C1103 C 0.19262 0.11772 0.11702 0.0
H1104 H 0.21294 0.08031 0.14314 0.0
H1105 H 0.02002 0.19467 0.0412 0.0
H1106 H 0.31568 0.36877 0.52688 0.0
H1107 H 0.33072 0.36642 0.55672 0.0
H1108 H 0.42052 0.40258 0.54831 0.0
H1109 H 0.4062 0.40455 0.51854 0.0
H1110 H 0.43583 0.37283 0.56879 0.0
H1111 H 0.34563 0.42135 0.56488 0.0
H1112 H 0.28773 0.43345 0.55736 0.0
H1113 H 0.24089 0.38989 0.5887 0.0
H1114 H 0.29855 0.37737 0.59623 0.0
H1115 H 0.47575 0.41073 0.6491 0.0
H1116 H 0.4593 0.40567 0.61981 0.0
H1117 H 0.37134 0.37144 0.63551 0.0
H1118 H 0.38696 0.37707 0.66494 0.0
H1119 H 0.35283 0.39644 0.6118 0.0
H1120 H 0.44303 0.3498 0.61788 0.0
H1121 H 0.50085 0.33787 0.62569 0.0
H1122 H 0.5476 0.3773 0.59053 0.0
H1123 H 0.49008 0.38968 0.58267 0.0
C1124 C 0.33885 0.37601 0.53136 0.0
C1125 C 0.35953 0.38702 0.52033 0.0
C1126 C 0.34728 0.37479 0.54845 0.0
C1127 C 0.37655 0.38454 0.55484 0.0
C1128 C 0.39776 0.39499 0.54373 0.0
C1129 C 0.38934 0.39625 0.52671 0.0
C1130 C 0.38487 0.38437 0.57311 0.0
C1131 C 0.41777 0.37812 0.57819 0.0
C1132 C 0.36101 0.39075 0.58546 0.0
C1133 C 0.32637 0.39828 0.58096 0.0
C1134 C 0.32297 0.41425 0.57006 0.0
C1135 C 0.2902 0.4212 0.56581 0.0
C1136 C 0.26065 0.4124 0.57251 0.0
C1137 C 0.26381 0.39666 0.5835 0.0
C1138 C 0.29652 0.38964 0.58776 0.0
C1139 C 0.4528 0.40219 0.64635 0.0
C1140 C 0.43264 0.39435 0.65942 0.0
C1141 C 0.44362 0.39912 0.62956 0.0
C1142 C 0.41426 0.38798 0.62539 0.0
C1143 C 0.39417 0.38003 0.63839 0.0
C1144 C 0.40332 0.38312 0.65522 0.0
C1145 C 0.40404 0.38521 0.60748 0.0
C1146 C 0.37079 0.39092 0.60246 0.0
C1147 C 0.42756 0.37829 0.59519 0.0
C1148 C 0.46222 0.37078 0.59978 0.0
C1149 C 0.46565 0.35603 0.61189 0.0
C1150 C 0.49837 0.34917 0.61632 0.0
C1151 C 0.52788 0.35685 0.60864 0.0
C1152 C 0.52472 0.37137 0.59648 0.0
C1153 C 0.49205 0.3783 0.59202 0.0
H1154 H 0.5532 0.35152 0.61209 0.0
H1155 H 0.2353 0.4178 0.56921 0.0
H1156 H 0.65262 0.3345 1.00768 0.0
H1157 H 0.64073 0.33546 0.97758 0.0
H1158 H 0.68673 0.39281 0.97479 0.0
H1159 H 0.6988 0.39194 1.00495 0.0
H1160 H 0.62942 0.39107 0.95588 0.0
H1161 H 0.73119 0.35224 0.96209 0.0
H1162 H 0.76687 0.32558 0.97336 0.0
H1163 H 0.69569 0.28322 0.95335 0.0
H1164 H 0.65929 0.30966 0.94217 0.0
H1165 H 0.66543 0.39213 0.86774 0.0
H1166 H 0.66972 0.39201 0.89843 0.0
H1167 H 0.6126 0.33786 0.90002 0.0
H1168 H 0.60801 0.33799 0.86925 0.0
H1169 H 0.67367 0.33769 0.91946 0.0
H1170 H 0.57328 0.37738 0.91212 0.0
H1171 H 0.53919 0.40454 0.9006 0.0
H1172 H 0.60999 0.44593 0.92234 0.0
H1173 H 0.64484 0.41899 0.93378 0.0
C1174 C 0.66038 0.3473 1.00068 0.0
C1175 C 0.677 0.36307 1.00877 0.0
C1176 C 0.65349 0.34785 0.98343 0.0
C1177 C 0.6633 0.36408 0.9738 0.0
C1178 C 0.67893 0.3801 0.98191 0.0
C1179 C 0.68575 0.3796 0.9992 0.0
C1180 C 0.65799 0.36413 0.95523 0.0
C1181 C 0.63946 0.37951 0.94791 0.0
C1182 C 0.67047 0.34888 0.94478 0.0
C1183 C 0.69233 0.33294 0.95145 0.0
C1184 C 0.723 0.33724 0.96021 0.0
C1185 C 0.74337 0.32217 0.96656 0.0
C1186 C 0.7335 0.30272 0.96411 0.0
C1187 C 0.70327 0.2983 0.95526 0.0
C1188 C 0.68277 0.31332 0.94891 0.0
C1189 C 0.65372 0.38021 0.87463 0.0
C1190 C 0.63643 0.36504 0.86608 0.0
C1191 C 0.65603 0.38022 0.89218 0.0
C1192 C 0.64138 0.36497 0.90154 0.0
C1193 C 0.62405 0.3498 0.89305 0.0
C1194 C 0.62129 0.34993 0.87549 0.0
C1195 C 0.64515 0.3646 0.92015 0.0
C1196 C 0.66349 0.34919 0.92746 0.0
C1197 C 0.63275 0.3799 0.93054 0.0
C1198 C 0.61189 0.39615 0.92366 0.0
C1199 C 0.58179 0.39226 0.91431 0.0
C1200 C 0.56228 0.40762 0.90782 0.0
C1201 C 0.57247 0.42695 0.91069 0.0
C1202 C 0.60216 0.43095 0.9201 0.0
C1203 C 0.62179 0.41564 0.9266 0.0
H1204 H 0.55732 0.43882 0.90567 0.0
H1205 H 0.74931 0.29107 0.96904 0.0
H1206 H 0.8895 0.15512 0.51635 0.0
H1207 H 0.90212 0.15998 0.48661 0.0
H1208 H 0.81536 0.12335 0.47328 0.0
H1209 H 0.80276 0.11829 0.50309 0.0
H1210 H 0.86891 0.11457 0.45404 0.0
H1211 H 0.81207 0.17377 0.46965 0.0
H1212 H 0.80107 0.20338 0.48655 0.0
H1213 H 0.90257 0.22497 0.47488 0.0
H1214 H 0.91436 0.19535 0.45809 0.0
H1215 H 0.87049 0.14538 0.36736 0.0
H1216 H 0.8543 0.13786 0.39644 0.0
H1217 H 0.94265 0.17042 0.41431 0.0
H1218 H 0.95915 0.17764 0.38541 0.0
H1219 H 0.8843 0.18105 0.43069 0.0
H1220 H 0.94107 0.12091 0.4156 0.0
H1221 H 0.95095 0.09132 0.3985 0.0
H1222 H 0.84755 0.07173 0.40875 0.0
H1223 H 0.8369 0.10134 0.42574 0.0
C1224 C 0.87283 0.14828 0.50711 0.0
C1225 C 0.84497 0.13641 0.51215 0.0
C1226 C 0.88011 0.15105 0.49007 0.0
C1227 C 0.85944 0.14225 0.47762 0.0
C1228 C 0.83173 0.1303 0.48261 0.0
C1229 C 0.82456 0.12741 0.49967 0.0
C1230 C 0.86702 0.14542 0.45945 0.0
C1231 C 0.87173 0.12912 0.44889 0.0
C1232 C 0.87123 0.16438 0.45268 0.0
C1233 C 0.8642 0.18225 0.46274 0.0
C1234 C 0.83214 0.18476 0.47079 0.0
C1235 C 0.82575 0.20156 0.48033 0.0
C1236 C 0.85114 0.21603 0.48182 0.0
C1237 C 0.88295 0.21375 0.47373 0.0
C1238 C 0.88948 0.19696 0.46419 0.0
C1239 C 0.88672 0.15067 0.37749 0.0
C1240 C 0.91587 0.16235 0.37406 0.0
C1241 C 0.87741 0.14641 0.39411 0.0
C1242 C 0.89719 0.15364 0.40761 0.0
C1243 C 0.92676 0.16484 0.40415 0.0
C1244 C 0.93608 0.16905 0.38761 0.0
C1245 C 0.88668 0.15022 0.42536 0.0
C1246 C 0.88132 0.1665 0.43584 0.0
C1247 C 0.88168 0.13126 0.43198 0.0
C1248 C 0.88807 0.11345 0.42179 0.0
C1249 C 0.92034 0.11038 0.41409 0.0
C1250 C 0.9261 0.09358 0.40444 0.0
C1251 C 0.89986 0.07968 0.40249 0.0
C1252 C 0.86783 0.08252 0.41024 0.0
C1253 C 0.86193 0.0993 0.41989 0.0
H1254 H 0.90438 0.06669 0.39502 0.0
H1255 H 0.84614 0.22903 0.48922 0.0
H1256 H 0.88935 0.87932 1.01224 0.0
H1257 H 0.90832 0.88272 0.98312 0.0
H1258 H 0.80297 0.87622 0.96627 0.0
H1259 H 0.78382 0.87275 0.9954 0.0
H1260 H 0.84492 0.85534 0.94674 0.0
H1261 H 0.84343 0.92121 0.96726 0.0
H1262 H 0.85737 0.94834 0.98661 0.0
H1263 H 0.96561 0.94059 0.97675 0.0
H1264 H 0.95233 0.91323 0.95751 0.0
H1265 H 0.87738 0.89087 0.86314 0.0
H1266 H 0.85565 0.88484 0.8916 0.0
H1267 H 0.95926 0.89024 0.91107 0.0
H1268 H 0.981 0.89624 0.88278 0.0
H1269 H 0.916 0.91202 0.92898 0.0
H1270 H 0.91714 0.8458 0.90856 0.0
H1271 H 0.90274 0.81887 0.88908 0.0
H1272 H 0.79458 0.82765 0.89847 0.0
H1273 H 0.80833 0.85482 0.91785 0.0
C1274 C 0.87014 0.87881 1.00237 0.0
C1275 C 0.83501 0.87585 1.00622 0.0
C1276 C 0.88104 0.88073 0.98568 0.0
C1277 C 0.85706 0.87996 0.97244 0.0
C1278 C 0.82201 0.87683 0.97623 0.0
C1279 C 0.8111 0.87483 0.99291 0.0
C1280 C 0.86855 0.88239 0.95467 0.0
C1281 C 0.86006 0.86788 0.94281 0.0
C1282 C 0.88882 0.89856 0.94953 0.0
C1283 C 0.89689 0.91505 0.96106 0.0
C1284 C 0.87022 0.9252 0.96932 0.0
C1285 C 0.878 0.94063 0.98025 0.0
C1286 C 0.91236 0.94615 0.98294 0.0
C1287 C 0.93901 0.93628 0.97467 0.0
C1288 C 0.93137 0.92082 0.96374 0.0
C1289 C 0.89558 0.89041 0.87345 0.0
C1290 C 0.93089 0.89419 0.87069 0.0
C1291 C 0.88312 0.887 0.88974 0.0
C1292 C 0.90579 0.8871 0.90355 0.0
C1293 C 0.94118 0.89025 0.90069 0.0
C1294 C 0.95358 0.89369 0.88448 0.0
C1295 C 0.89274 0.88487 0.92107 0.0
C1296 C 0.90085 0.89948 0.9329 0.0
C1297 C 0.87207 0.86883 0.92613 0.0
C1298 C 0.86376 0.85248 0.91452 0.0
C1299 C 0.89027 0.8421 0.90636 0.0
C1300 C 0.88223 0.82677 0.89536 0.0
C1301 C 0.84776 0.82159 0.8925 0.0
C1302 C 0.82127 0.8317 0.90068 0.0
C1303 C 0.82917 0.84705 0.91168 0.0
H1304 H 0.84159 0.80972 0.88398 0.0
H1305 H 0.91833 0.95811 0.99141 0.0
H1306 H 0.60002 0.63731 0.51618 0.0
H1307 H 0.58628 0.63837 0.48628 0.0
H1308 H 0.692 0.62445 0.47414 0.0
H1309 H 0.70595 0.6231 0.50415 0.0
H1310 H 0.66382 0.65269 0.45266 0.0
H1311 H 0.6341 0.58899 0.47329 0.0
H1312 H 0.60622 0.56569 0.49259 0.0
H1313 H 0.50649 0.58845 0.47969 0.0
H1314 H 0.53383 0.6121 0.46049 0.0
H1315 H 0.62552 0.62279 0.3678 0.0
H1316 H 0.64658 0.62606 0.39674 0.0
H1317 H 0.54146 0.63136 0.41434 0.0
H1318 H 0.5205 0.62755 0.3856 0.0
H1319 H 0.57299 0.6067 0.43295 0.0
H1320 H 0.6016 0.67089 0.41287 0.0
H1321 H 0.62872 0.69491 0.39397 0.0
H1322 H 0.72905 0.67221 0.40582 0.0
H1323 H 0.70248 0.64788 0.42464 0.0
C1324 C 0.62042 0.63445 0.50719 0.0
C1325 C 0.65401 0.62983 0.51263 0.0
C1326 C 0.61253 0.63515 0.49007 0.0
C1327 C 0.63798 0.6312 0.47795 0.0
C1328 C 0.67193 0.62753 0.48326 0.0
C1329 C 0.67988 0.6268 0.50044 0.0
C1330 C 0.62847 0.62988 0.45985 0.0
C1331 C 0.64428 0.64248 0.44827 0.0
C1332 C 0.60258 0.61677 0.45416 0.0
C1333 C 0.58604 0.60242 0.46556 0.0
C1334 C 0.60624 0.58911 0.47465 0.0
C1335 C 0.59054 0.57584 0.48556 0.0
C1336 C 0.55461 0.57562 0.48739 0.0
C1337 C 0.53432 0.58865 0.47827 0.0
C1338 C 0.5499 0.60198 0.46736 0.0
C1339 C 0.60702 0.62493 0.37785 0.0
C1340 C 0.57136 0.62481 0.37445 0.0
C1341 C 0.61905 0.62683 0.3944 0.0
C1342 C 0.59567 0.62905 0.40783 0.0
C1343 C 0.5601 0.62954 0.4043 0.0
C1344 C 0.54811 0.62738 0.38785 0.0
C1345 C 0.60773 0.62984 0.42565 0.0
C1346 C 0.59252 0.61699 0.43723 0.0
C1347 C 0.634 0.6428 0.4313 0.0
C1348 C 0.65002 0.65743 0.42002 0.0
C1349 C 0.62943 0.67092 0.41135 0.0
C1350 C 0.6447 0.68461 0.40067 0.0
C1351 C 0.68058 0.68505 0.39866 0.0
C1352 C 0.70126 0.67184 0.40737 0.0
C1353 C 0.68611 0.6581 0.41805 0.0
H1354 H 0.69235 0.69566 0.39038 0.0
H1355 H 0.5425 0.56533 0.49585 0.0
H1356 H 0.29555 0.64564 0.0301 0.0
H1357 H 0.31551 0.64539 0.05924 0.0
H1358 H 0.42051 0.65371 0.04238 0.0
H1359 H 0.40073 0.65373 1.01322 0.0
H1360 H 0.41905 0.62817 0.06724 0.0
H1361 H 0.3705 0.69196 0.05804 0.0
H1362 H 0.32505 0.71523 0.0499 0.0
H1363 H 0.25818 0.69241 0.08819 0.0
H1364 H 0.3031 0.66882 0.09641 0.0
H1365 H 0.49598 0.66642 0.14141 0.0
H1366 H 0.47288 0.66072 0.11326 0.0
H1367 H 0.37159 0.65063 0.13423 0.0
H1368 H 0.39442 0.65679 0.16246 0.0
H1369 H 0.36858 0.67515 0.10799 0.0
H1370 H 0.41912 0.61289 0.11854 0.0
H1371 H 0.46498 0.58992 0.12673 0.0
H1372 H 0.52858 0.61004 0.08609 0.0
H1373 H 0.48328 0.63335 0.07779 0.0
C1374 C 0.32289 0.64745 0.0326 0.0
C1375 C 0.34651 0.64983 0.01932 0.0
C1376 C 0.33428 0.6473 0.04928 0.0
C1377 C 0.3695 0.64985 0.05308 0.0
C1378 C 0.39322 0.65172 0.03981 0.0
C1379 C 0.38188 0.65171 0.02313 0.0
C1380 C 0.38159 0.65101 0.07084 0.0
C1381 C 0.40825 0.63859 0.0761 0.0
C1382 C 0.36695 0.66424 0.08258 0.0
C1383 C 0.34002 0.6785 0.07772 0.0
C1384 C 0.34601 0.69182 0.06465 0.0
C1385 C 0.32036 0.70507 0.06003 0.0
C1386 C 0.28871 0.70526 0.0685 0.0
C1387 C 0.28268 0.69222 0.08163 0.0
C1388 C 0.30824 0.67892 0.08628 0.0
C1389 C 0.46877 0.66299 0.14005 0.0
C1390 C 0.44703 0.66213 0.15421 0.0
C1391 C 0.45565 0.65955 0.12394 0.0
C1392 C 0.42052 0.65508 0.1216 0.0
C1393 C 0.3988 0.65399 0.13571 0.0
C1394 C 0.41195 0.65737 0.15186 0.0
C1395 C 0.40626 0.65244 0.10436 0.0
C1396 C 0.37922 0.66463 0.09918 0.0
C1397 C 0.42062 0.63903 0.0927 0.0
C1398 C 0.4479 0.62499 0.09763 0.0
C1399 C 0.44299 0.61253 0.11142 0.0
C1400 C 0.46887 0.59943 0.11607 0.0
C1401 C 0.49971 0.59856 0.10696 0.0
C1402 C 0.50469 0.61075 0.09315 0.0
C1403 C 0.47891 0.6239 0.08845 0.0
H1404 H 0.51971 0.5884 0.11058 0.0
H1405 H 0.26888 0.71553 0.0649 0.0
H1406 H 0.18724 0.85039 0.52111 0.0
H1407 H 0.17236 0.84385 0.55042 0.0
H1408 H 0.1074 0.89489 0.55142 0.0
H1409 H 0.12175 0.9014 0.52211 0.0
H1410 H 0.14666 0.89291 0.57944 0.0
H1411 H 0.07251 0.8493 0.54836 0.0
H1412 H 0.05917 0.82337 0.52773 0.0
H1413 H 0.12239 0.78312 0.55508 0.0
H1414 H 0.13649 0.8089 0.57575 0.0
H1415 H 0.05471 0.87289 0.65499 0.0
H1416 H 0.07164 0.87989 0.62601 0.0
H1417 H 0.13016 0.82639 0.62423 0.0
H1418 H 0.11285 0.8192 0.65308 0.0
H1419 H 0.095 0.82966 0.59656 0.0
H1420 H 0.16907 0.87275 0.6278 0.0
H1421 H 0.18339 0.89854 0.6484 0.0
H1422 H 0.12199 0.93956 0.62093 0.0
H1423 H 0.10691 0.91393 0.60028 0.0
C1424 C 0.16952 0.86014 0.52749 0.0
C1425 C 0.15571 0.87643 0.51917 0.0
C1426 C 0.16111 0.8564 0.5443 0.0
C1427 C 0.13853 0.8688 0.55313 0.0
C1428 C 0.12498 0.88516 0.54492 0.0
C1429 C 0.13334 0.88889 0.52814 0.0
C1430 C 0.12889 0.86472 0.57091 0.0
C1431 C 0.13498 0.87916 0.58316 0.0
C1432 C 0.11441 0.84663 0.57588 0.0
C1433 C 0.10582 0.83109 0.56351 0.0
C1434 C 0.08377 0.83496 0.5499 0.0
C1435 C 0.07604 0.82029 0.53821 0.0
C1436 C 0.08999 0.80163 0.54007 0.0
C1437 C 0.11164 0.79759 0.55364 0.0
C1438 C 0.11948 0.81222 0.56536 0.0
C1439 C 0.07145 0.86271 0.64847 0.0
C1440 C 0.08241 0.84548 0.65636 0.0
C1441 C 0.08117 0.86674 0.63189 0.0
C1442 C 0.10256 0.85378 0.62291 0.0
C1443 C 0.1136 0.83661 0.63082 0.0
C1444 C 0.10364 0.83249 0.64733 0.0
C1445 C 0.1128 0.85784 0.60518 0.0
C1446 C 0.10677 0.8434 0.5929 0.0
C1447 C 0.1275 0.87591 0.60021 0.0
C1448 C 0.1366 0.89136 0.61259 0.0
C1449 C 0.15841 0.88723 0.62622 0.0
C1450 C 0.1667 0.90183 0.6379 0.0
C1451 C 0.15353 0.92066 0.636 0.0
C1452 C 0.13212 0.92496 0.6224 0.0
C1453 C 0.12373 0.9104 0.61069 0.0
H1454 H 0.15998 0.93195 0.64505 0.0
H1455 H 0.08398 0.79028 0.53101 0.0
H1456 H 0.23711 0.27556 0.37445 0.0
H1457 H 0.204 0.25345 0.35629 0.0
H1458 H 0.118 0.29334 0.35744 0.0
H1459 H 0.15078 0.31538 0.37581 0.0
H1460 H 0.09788 0.2563 0.36387 0.0
H1461 H 0.16631 0.2883 0.32233 0.0
H1462 H 0.21971 0.30032 0.30895 0.0
H1463 H 0.25694 0.24153 0.30431 0.0
H1464 H 0.20397 0.22916 0.31791 0.0
H1465 H 0.00082 0.20371 0.30094 0.0
H1466 H 0.03076 0.22869 0.31771 0.0
H1467 H 0.12363 0.19401 0.31665 0.0
H1468 H 0.09384 0.169 0.30026 0.0
H1469 H 0.13856 0.23046 0.30907 0.0
H1470 H 0.07297 0.19859 0.35228 0.0
H1471 H 0.02395 0.1868 0.36933 0.0
H1472 H 0.98335 0.245 0.37216 0.0
H1473 H 0.03174 0.2571 0.3549 0.0
C1474 C 0.21116 0.27964 0.37083 0.0
C1475 C 0.19659 0.29724 0.37662 0.0
C1476 C 0.19236 0.26707 0.3603 0.0
C1477 C 0.15857 0.27178 0.35536 0.0
C1478 C 0.14407 0.28941 0.36102 0.0
C1479 C 0.16293 0.30206 0.37144 0.0
C1480 C 0.13771 0.25784 0.34508 0.0
C1481 C 0.1064 0.25093 0.35171 0.0
C1482 C 0.14933 0.25042 0.32945 0.0
C1483 C 0.18129 0.25782 0.32132 0.0
C1484 C 0.18602 0.27794 0.31861 0.0
C1485 C 0.21619 0.28482 0.31095 0.0
C1486 C 0.24174 0.2717 0.30583 0.0
C1487 C 0.23714 0.25168 0.30831 0.0
C1488 C 0.20704 0.24472 0.31599 0.0
C1489 C 0.02743 0.20128 0.30453 0.0
C1490 C 0.04493 0.18437 0.29918 0.0
C1491 C 0.04458 0.2156 0.31409 0.0
C1492 C 0.07952 0.21327 0.3185 0.0
C1493 C 0.09677 0.19625 0.31337 0.0
C1494 C 0.07965 0.18194 0.30394 0.0
C1495 C 0.09872 0.22873 0.32795 0.0
C1496 C 0.12977 0.23596 0.32114 0.0
C1497 C 0.08691 0.23639 0.34347 0.0
C1498 C 0.05585 0.22872 0.35218 0.0
C1499 C 0.05322 0.20881 0.35624 0.0
C1500 C 0.02566 0.20209 0.36603 0.0
C1501 C 0.00079 0.2152 0.37193 0.0
C1502 C 0.00277 0.23491 0.36765 0.0
C1503 C 0.03019 0.24168 0.35783 0.0
H1504 H 0.98011 0.21015 0.37996 0.0
H1505 H 0.26507 0.27706 0.29989 0.0
H1506 H 0.29536 0.19936 0.84323 0.0
H1507 H 0.32716 0.22541 0.82918 0.0
H1508 H 0.3429 0.25452 0.87671 0.0
H1509 H 0.31131 0.22828 0.89098 0.0
H1510 H 0.32556 0.28032 0.8514 0.0
H1511 H 0.40752 0.22878 0.85977 0.0
H1512 H 0.42886 0.19492 0.85822 0.0
H1513 H 0.42171 0.19609 0.80443 0.0
H1514 H 0.39984 0.22988 0.80567 0.0
H1515 H 0.45168 0.34608 0.81894 0.0
H1516 H 0.4214 0.32162 0.83574 0.0
H1517 H 0.41473 0.28376 0.79234 0.0
H1518 H 0.44784 0.30736 0.77606 0.0
H1519 H 0.42856 0.26283 0.81743 0.0
H1520 H 0.34451 0.31394 0.80877 0.0
H1521 H 0.32297 0.34782 0.81022 0.0
H1522 H 0.33318 0.34757 0.86386 0.0
H1523 H 0.35517 0.31381 0.86277 0.0
C1524 C 0.30578 0.2112 0.85076 0.0
C1525 C 0.30113 0.21155 0.8683 0.0
C1526 C 0.32386 0.22615 0.84268 0.0
C1527 C 0.33787 0.24179 0.85191 0.0
C1528 C 0.33236 0.24257 0.86934 0.0
C1529 C 0.31424 0.22757 0.87747 0.0
C1530 C 0.35893 0.257 0.84332 0.0
C1531 C 0.34835 0.27657 0.84413 0.0
C1532 C 0.38832 0.25207 0.83361 0.0
C1533 C 0.40177 0.23181 0.83283 0.0
C1534 C 0.41027 0.22177 0.84762 0.0
C1535 C 0.4225 0.2026 0.8468 0.0
C1536 C 0.42657 0.19335 0.83124 0.0
C1537 C 0.41852 0.20327 0.81647 0.0
C1538 C 0.40624 0.22244 0.81723 0.0
C1539 C 0.44394 0.33248 0.81301 0.0
C1540 C 0.45128 0.32891 0.79596 0.0
C1541 C 0.42622 0.31857 0.82259 0.0
C1542 C 0.41473 0.30099 0.81525 0.0
C1543 C 0.42285 0.29725 0.79833 0.0
C1544 C 0.4413 0.31093 0.7889 0.0
C1545 C 0.39488 0.28625 0.82514 0.0
C1546 C 0.40577 0.2667 0.82464 0.0
C1547 C 0.36564 0.29123 0.83502 0.0
C1548 C 0.35177 0.3114 0.83567 0.0
C1549 C 0.34231 0.32114 0.82087 0.0
C1550 C 0.33004 0.34031 0.82162 0.0
C1551 C 0.32683 0.34984 0.8371 0.0
C1552 C 0.33573 0.34018 0.85188 0.0
C1553 C 0.34806 0.32102 0.8512 0.0
H1554 H 0.31739 0.36468 0.83765 0.0
H1555 H 0.43603 0.1785 0.83063 0.0
H1556 H 0.72806 0.21201 0.67996 0.0
H1557 H 0.69865 0.23369 0.69984 0.0
H1558 H 0.63958 0.2583 0.65928 0.0
H1559 H 0.66842 0.23653 0.63938 0.0
H1560 H 0.66438 0.2866 0.67973 0.0
H1561 H 0.60363 0.22558 0.68621 0.0
H1562 H 0.59804 0.19031 0.69178 0.0
H1563 H 0.64125 0.19869 0.74095 0.0
H1564 H 0.64753 0.23399 0.73558 0.0
H1565 H 0.52786 0.33344 0.72023 0.0
H1566 H 0.56175 0.31021 0.7041 0.0
H1567 H 0.6154 0.29282 0.74901 0.0
H1568 H 0.5809 0.31605 0.76554 0.0
H1569 H 0.59822 0.26124 0.72844 0.0
H1570 H 0.65458 0.32299 0.72258 0.0
H1571 H 0.65656 0.35842 0.71727 0.0
H1572 H 0.62022 0.34883 0.66696 0.0
H1573 H 0.61746 0.31334 0.67206 0.0
C1574 C 0.70856 0.22188 0.67527 0.0
C1575 C 0.70068 0.22248 0.65802 0.0
C1576 C 0.69183 0.23433 0.68667 0.0
C1577 C 0.66675 0.24759 0.68109 0.0
C1578 C 0.65897 0.24828 0.66389 0.0
C1579 C 0.67561 0.23584 0.6525 0.0
C1580 C 0.64854 0.26078 0.69309 0.0
C1581 C 0.64972 0.28102 0.6903 0.0
C1582 C 0.63014 0.2536 0.70718 0.0
C1583 C 0.62644 0.23238 0.71042 0.0
C1584 C 0.61224 0.21987 0.69815 0.0
C1585 C 0.60888 0.19988 0.70129 0.0
C1586 C 0.61939 0.19225 0.71669 0.0
C1587 C 0.63319 0.20461 0.72901 0.0
C1588 C 0.63664 0.22461 0.72593 0.0
C1589 C 0.54672 0.3247 0.72682 0.0
C1590 C 0.55186 0.32686 0.74424 0.0
C1591 C 0.56619 0.31141 0.7175 0.0
C1592 C 0.59156 0.30002 0.72527 0.0
C1593 C 0.59608 0.30157 0.74273 0.0
C1594 C 0.57642 0.3149 0.75215 0.0
C1595 C 0.61369 0.28695 0.7149 0.0
C1596 C 0.61326 0.2668 0.71799 0.0
C1597 C 0.63281 0.29419 0.70108 0.0
C1598 C 0.63564 0.31548 0.69774 0.0
C1599 C 0.6469 0.32843 0.7104 0.0
C1600 C 0.64815 0.34853 0.70743 0.0
C1601 C 0.63849 0.35587 0.6918 0.0
C1602 C 0.62771 0.34311 0.67907 0.0
C1603 C 0.62634 0.32299 0.68198 0.0
H1604 H 0.6394 0.37143 0.68954 0.0
H1605 H 0.61675 0.17678 0.7191 0.0
H1606 H 0.7885 0.31239 0.19282 0.0
H1607 H 0.81899 0.28695 0.20813 0.0
H1608 H 0.85666 0.26297 0.16144 0.0
H1609 H 0.82616 0.28854 0.14594 0.0
H1610 H 0.83732 0.23409 0.18306 0.0
H1611 H 0.90883 0.29116 0.18541 0.0
H1612 H 0.92243 0.32588 0.19059 0.0
H1613 H 0.89577 0.3193 0.24261 0.0
H1614 H 0.88152 0.28458 0.23768 0.0
H1615 H 0.96987 0.17686 0.21938 0.0
H1616 H 0.93859 0.20113 0.20312 0.0
H1617 H 0.90069 0.22734 0.2489 0.0
H1618 H 0.93292 0.20341 0.26535 0.0
H1619 H 0.92069 0.25475 0.22708 0.0
H1620 H 0.84926 0.19704 0.22433 0.0
H1621 H 0.83858 0.16204 0.21885 0.0
H1622 H 0.86764 0.16951 0.16725 0.0
H1623 H 0.87881 0.20455 0.17243 0.0
C1624 C 0.80339 0.30178 0.18576 0.0
C1625 C 0.80525 0.30272 0.16813 0.0
C1626 C 0.82075 0.28718 0.19456 0.0
C1627 C 0.84064 0.27321 0.18598 0.0
C1628 C 0.84156 0.27361 0.16834 0.0
C1629 C 0.82407 0.28823 0.1595 0.0
C1630 C 0.86123 0.25863 0.19554 0.0
C1631 C 0.85584 0.23861 0.19254 0.0
C1632 C 0.88509 0.26447 0.20811 0.0
C1633 C 0.89379 0.28532 0.21114 0.0
C1634 C 0.90561 0.29715 0.19793 0.0
C1635 C 0.91347 0.31683 0.20082 0.0
C1636 C 0.90988 0.3248 0.21691 0.0
C1637 C 0.8985 0.3131 0.23015 0.0
C1638 C 0.89055 0.29342 0.22732 0.0
C1639 C 0.95502 0.18781 0.22605 0.0
C1640 C 0.95362 0.18801 0.24372 0.0
C1641 C 0.93691 0.20163 0.21669 0.0
C1642 C 0.91668 0.21586 0.22474 0.0
C1643 C 0.9159 0.21642 0.24238 0.0
C1644 C 0.9342 0.20265 0.25178 0.0
C1645 C 0.89653 0.23022 0.21476 0.0
C1646 C 0.90207 0.25022 0.21765 0.0
C1647 C 0.87296 0.22433 0.20206 0.0
C1648 C 0.8651 0.20341 0.19879 0.0
C1649 C 0.85346 0.19122 0.21182 0.0
C1650 C 0.84733 0.17137 0.20877 0.0
C1651 C 0.85253 0.16355 0.19273 0.0
C1652 C 0.86364 0.17559 0.17967 0.0
C1653 C 0.8698 0.19546 0.18264 0.0
H1654 H 0.84789 0.14817 0.19042 0.0
H1655 H 0.91599 0.34004 0.21913 0.0
H1656 H 0.77266 0.73358 0.66065 0.0
H1657 H 0.80309 0.75719 0.67852 0.0
H1658 H 0.89882 0.72664 0.66995 0.0
H1659 H 0.86844 0.70281 0.6522 0.0
H1660 H 0.89016 0.7371 0.70328 0.0
H1661 H 0.88334 0.76785 0.64928 0.0
H1662 H 0.85387 0.77999 0.62398 0.0
H1663 H 0.79255 0.81858 0.65439 0.0
H1664 H 0.82133 0.80646 0.67992 0.0
H1665 H 0.00237 0.80976 0.73621 0.0
H1666 H 0.97367 0.78577 0.71822 0.0
H1667 H 0.88143 0.82109 0.71825 0.0
H1668 H 0.91157 0.8461 0.73458 0.0
H1669 H 0.88851 0.80754 0.6891 0.0
H1670 H 0.89537 0.77679 0.74347 0.0
H1671 H 0.92532 0.76453 0.76866 0.0
H1672 H 0.98582 0.72591 0.73796 0.0
H1673 H 0.95665 0.73806 0.71258 0.0
C1674 C 0.80013 0.73176 0.66269 0.0
C1675 C 0.81811 0.71631 0.65495 0.0
C1676 C 0.81754 0.74536 0.67282 0.0
C1677 C 0.85333 0.74381 0.67547 0.0
C1678 C 0.87124 0.72818 0.66806 0.0
C1679 C 0.85388 0.71465 0.65782 0.0
C1680 C 0.8721 0.75862 0.6858 0.0
C1681 C 0.89011 0.7525 0.70012 0.0
C1682 C 0.87149 0.77875 0.68186 0.0
C1683 C 0.85424 0.7861 0.66652 0.0
C1684 C 0.86337 0.77881 0.65059 0.0
C1685 C 0.84683 0.78571 0.6362 0.0
C1686 C 0.82129 0.80001 0.63758 0.0
C1687 C 0.8123 0.80748 0.65335 0.0
C1688 C 0.82874 0.80061 0.66778 0.0
C1689 C 0.97613 0.81255 0.7322 0.0
C1690 C 0.95907 0.82977 0.73708 0.0
C1691 C 0.95946 0.79861 0.72211 0.0
C1692 C 0.92486 0.8012 0.71719 0.0
C1693 C 0.90797 0.81852 0.72194 0.0
C1694 C 0.92504 0.83273 0.73156 0.0
C1695 C 0.90642 0.78615 0.70683 0.0
C1696 C 0.88847 0.7922 0.69242 0.0
C1697 C 0.90692 0.76595 0.71077 0.0
C1698 C 0.92399 0.75844 0.72611 0.0
C1699 C 0.91516 0.76575 0.74209 0.0
C1700 C 0.932 0.75883 0.75639 0.0
C1701 C 0.95748 0.74451 0.75489 0.0
C1702 C 0.9661 0.73701 0.73909 0.0
C1703 C 0.94941 0.74389 0.72475 0.0
H1704 H 0.9705 0.73917 0.76594 0.0
H1705 H 0.80852 0.80533 0.62643 0.0
H1706 H 0.64378 0.8163 0.15826 0.0
H1707 H 0.61537 0.7902 0.17395 0.0
H1708 H 0.71313 0.76096 0.1797 0.0
H1709 H 0.74187 0.78714 0.16409 0.0
H1710 H 0.66048 0.73501 0.17274 0.0
H1711 H 0.68082 0.78803 0.21151 0.0
H1712 H 0.67788 0.8222 0.22137 0.0
H1713 H 0.56699 0.81974 0.22019 0.0
H1714 H 0.56928 0.78564 0.21009 0.0
H1715 H 0.60643 0.67064 0.2369 0.0
H1716 H 0.63703 0.69565 0.221 0.0
H1717 H 0.54431 0.73047 0.21959 0.0
H1718 H 0.51435 0.70614 0.23666 0.0
H1719 H 0.596 0.75336 0.22433 0.0
H1720 H 0.57416 0.70169 0.18456 0.0
H1721 H 0.57499 0.66741 0.17486 0.0
H1722 H 0.68588 0.66728 0.17736 0.0
H1723 H 0.68557 0.70152 0.18728 0.0
C1724 C 0.65931 0.80435 0.16287 0.0
C1725 C 0.69523 0.80397 0.16004 0.0
C1726 C 0.64299 0.78939 0.17182 0.0
C1727 C 0.66218 0.77375 0.17825 0.0
C1728 C 0.69778 0.77289 0.17489 0.0
C1729 C 0.71417 0.78786 0.16591 0.0
C1730 C 0.64524 0.75872 0.18898 0.0
C1731 C 0.64673 0.73899 0.18413 0.0
C1732 C 0.62666 0.7639 0.20367 0.0
C1733 C 0.62524 0.78434 0.20991 0.0
C1734 C 0.65582 0.79482 0.21325 0.0
C1735 C 0.65427 0.81417 0.21889 0.0
C1736 C 0.62227 0.82315 0.22136 0.0
C1737 C 0.59176 0.81278 0.21825 0.0
C1738 C 0.59317 0.79344 0.21258 0.0
C1739 C 0.59263 0.68372 0.23339 0.0
C1740 C 0.55779 0.68628 0.23794 0.0
C1741 C 0.61007 0.69794 0.22407 0.0
C1742 C 0.59283 0.71481 0.21865 0.0
C1743 C 0.55822 0.71756 0.22348 0.0
C1744 C 0.54099 0.70354 0.23313 0.0
C1745 C 0.61079 0.72961 0.20802 0.0
C1746 C 0.60965 0.74933 0.21293 0.0
C1747 C 0.62937 0.72443 0.1933 0.0
C1748 C 0.62978 0.70408 0.1868 0.0
C1749 C 0.59867 0.6943 0.1831 0.0
C1750 C 0.59906 0.6749 0.17756 0.0
C1751 C 0.63048 0.66515 0.17554 0.0
C1752 C 0.66157 0.67485 0.17895 0.0
C1753 C 0.66129 0.69427 0.1845 0.0
H1754 H 0.63076 0.6501 0.1713 0.0
H1755 H 0.62112 0.83813 0.22573 0.0
H1756 H 0.27224 0.78775 0.36103 0.0
H1757 H 0.30247 0.76526 0.34211 0.0
H1758 H 0.39769 0.77599 0.36876 0.0
H1759 H 0.36779 0.79878 0.38751 0.0
H1760 H 0.40864 0.77491 0.33514 0.0
H1761 H 0.35191 0.73527 0.37635 0.0
H1762 H 0.30258 0.72322 0.39301 0.0
H1763 H 0.25133 0.70454 0.34786 0.0
H1764 H 0.30019 0.71674 0.33091 0.0
H1765 H 0.46124 0.66779 0.31415 0.0
H1766 H 0.43112 0.69176 0.33161 0.0
H1767 H 0.41991 0.72944 0.28873 0.0
H1768 H 0.45097 0.70575 0.27129 0.0
H1769 H 0.36758 0.70633 0.33077 0.0
H1770 H 0.42381 0.77659 0.30161 0.0
H1771 H 0.47672 0.78748 0.28699 0.0
H1772 H 0.53534 0.74318 0.31204 0.0
H1773 H 0.48287 0.73211 0.32683 0.0
C1774 C 0.2997 0.78552 0.36274 0.0
C1775 C 0.31754 0.79501 0.37586 0.0
C1776 C 0.31691 0.77254 0.35198 0.0
C1777 C 0.35231 0.76877 0.3541 0.0
C1778 C 0.37038 0.77862 0.36689 0.0
C1779 C 0.35317 0.79152 0.3777 0.0
C1780 C 0.37031 0.75414 0.34333 0.0
C1781 C 0.39955 0.75995 0.33413 0.0
C1782 C 0.35891 0.7345 0.3422 0.0
C1783 C 0.32953 0.72711 0.35236 0.0
C1784 C 0.32999 0.72874 0.36997 0.0
C1785 C 0.30214 0.72186 0.37946 0.0
C1786 C 0.27379 0.71317 0.3715 0.0
C1787 C 0.27328 0.7113 0.35402 0.0
C1788 C 0.30105 0.71819 0.34446 0.0
C1789 C 0.45242 0.68119 0.30842 0.0
C1790 C 0.4583 0.68478 0.29128 0.0
C1791 C 0.43502 0.69485 0.31841 0.0
C1792 C 0.42335 0.71248 0.31154 0.0
C1793 C 0.42894 0.71604 0.29438 0.0
C1794 C 0.44641 0.70239 0.28438 0.0
C1795 C 0.40567 0.72714 0.32241 0.0
C1796 C 0.37649 0.72134 0.33165 0.0
C1797 C 0.41755 0.74668 0.32383 0.0
C1798 C 0.44935 0.75343 0.3152 0.0
C1799 C 0.44803 0.76922 0.30402 0.0
C1800 C 0.47792 0.77539 0.29568 0.0
C1801 C 0.50934 0.76596 0.29851 0.0
C1802 C 0.51096 0.75039 0.30976 0.0
C1803 C 0.48114 0.74414 0.3181 0.0
H1804 H 0.53245 0.77075 0.29204 0.0
H1805 H 0.25225 0.70784 0.37887 0.0
H1806 H 0.25099 0.72286 0.84785 0.0
H1807 H 0.21808 0.74778 0.83299 0.0
H1808 H 0.12759 0.73335 0.86213 0.0
H1809 H 0.16007 0.70795 0.87667 0.0
H1810 H 0.11093 0.73682 0.82998 0.0
H1811 H 0.1742 0.77504 0.86997 0.0
H1812 H 0.22582 0.78707 0.88499 0.0
H1813 H 0.26808 0.80853 0.83871 0.0
H1814 H 0.21689 0.79637 0.82337 0.0
H1815 H 0.05838 0.84545 0.81326 0.0
H1816 H 0.08867 0.82051 0.82934 0.0
H1817 H 0.09037 0.78293 0.78569 0.0
H1818 H 0.05913 0.80772 0.76965 0.0
H1819 H 0.15016 0.80569 0.82604 0.0
H1820 H 0.0898 0.73742 0.79594 0.0
H1821 H 0.03402 0.72498 0.78516 0.0
H1822 H 0.97958 0.76434 0.81779 0.0
H1823 H 0.03505 0.77748 0.82838 0.0
C1824 C 0.22405 0.72493 0.85107 0.0
C1825 C 0.20819 0.71335 0.86346 0.0
C1826 C 0.20532 0.73932 0.84265 0.0
C1827 C 0.17037 0.74257 0.84649 0.0
C1828 C 0.15452 0.73114 0.85894 0.0
C1829 C 0.17324 0.71674 0.86737 0.0
C1830 C 0.15015 0.75758 0.8373 0.0
C1831 C 0.11958 0.75187 0.82912 0.0
C1832 C 0.16103 0.77732 0.83633 0.0
C1833 C 0.19187 0.78462 0.8455 0.0
C1834 C 0.19464 0.78217 0.86297 0.0
C1835 C 0.22379 0.78904 0.87155 0.0
C1836 C 0.25026 0.79851 0.8628 0.0
C1837 C 0.24758 0.80116 0.84547 0.0
C1838 C 0.21849 0.7943 0.83683 0.0
C1839 C 0.06498 0.83181 0.80711 0.0
C1840 C 0.05633 0.82854 0.79018 0.0
C1841 C 0.08242 0.81758 0.81631 0.0
C1842 C 0.09159 0.79972 0.80882 0.0
C1843 C 0.0831 0.79644 0.79186 0.0
C1844 C 0.06556 0.81069 0.78265 0.0
C1845 C 0.11102 0.7849 0.81864 0.0
C1846 C 0.14157 0.79062 0.82687 0.0
C1847 C 0.09975 0.76528 0.81998 0.0
C1848 C 0.06649 0.75851 0.81282 0.0
C1849 C 0.0659 0.74357 0.80066 0.0
C1850 C 0.03438 0.73646 0.79455 0.0
C1851 C 0.00331 0.74399 0.80072 0.0
C1852 C 0.0037 0.75877 0.81287 0.0
C1853 C 0.03515 0.76615 0.81883 0.0
H1854 H 0.9789 0.73827 0.79622 0.0
H1855 H 0.2728 0.80382 0.86946 0.0
loop_
_geom_bond_atom_site_label_1
_geom_bond_atom_site_label_2
_geom_bond_distance
_geom_bond_site_symmetry_2
_ccdc_geom_bond_type
C0 C1 1.264 . S
C0 C5 1.479 . S
C0 C10 1.465 . S
C1 C0 1.264 . S
C1 C3 1.339 . S
C1 H28 0.931 . S
C2 C3 1.395 . S
C2 C4 1.320 . S
C3 C1 1.339 . S
C3 C2 1.395 . S
C3 H29 0.929 . S
C4 C2 1.320 . S
C4 C5 1.405 . S
C4 H30 0.930 . S
C5 C0 1.479 . S
C5 C4 1.405 . S
C5 H31 0.931 . S
U6 O7 2.454 . S
U6 O8 2.458 . S
U6 C9 2.984 . S
U6 C10 2.847 . S
U6 C23 2.882 . S
U6 O24 2.441 . S
U6 O25 2.420 . S
U6 O26 2.455 . S
U6 O27 2.449 . S
O7 U6 2.454 . S
O7 C9 1.353 . S
O8 U6 2.458 . S
O8 C9 1.286 . S
C9 U6 2.984 . S
C9 O7 1.353 . S
C9 O8 1.286 . S
C9 C11 1.363 . S
C10 C0 1.465 . S
C10 U6 2.847 . S
C10 O24 1.249 . S
C10 O25 1.202 . S
C11 C9 1.363 . S
C11 C13 1.408 . S
C11 C16 1.342 . S
C12 C13 1.310 . S
C12 C15 1.461 . S
C12 H32 0.932 . S
C13 C11 1.408 . S
C13 C12 1.310 . S
C13 H33 0.930 . S
C14 C15 1.474 . S
C14 C16 1.285 . S
C14 H34 0.929 . S
C15 C12 1.461 . S
C15 C14 1.474 . S
C16 C11 1.342 . S
C16 C14 1.285 . S
C16 H35 0.930 . S
C17 C20 1.424 . S
C17 C22 1.245 . S
C17 C23 1.428 . S
C18 C21 1.260 . S
C18 C22 1.477 . S
C18 H36 0.932 . S
C19 C20 1.384 . S
C19 C21 1.479 . S
C19 H37 0.929 . S
C20 C17 1.424 . S
C20 C19 1.384 . S
C20 H38 0.928 . S
C21 C18 1.260 . S
C21 C19 1.479 . S
C22 C17 1.245 . S
C22 C18 1.477 . S
C22 H39 0.932 . S
C23 U6 2.882 . S
C23 C17 1.428 . S
C23 O26 1.301 . S
C23 O27 1.282 . S
O24 U6 2.441 . S
O24 C10 1.249 . S
O25 U6 2.420 . S
O25 C10 1.202 . S
O26 U6 2.455 . S
O26 C23 1.301 . S
O27 U6 2.449 . S
O27 C23 1.282 . S
H28 C1 0.931 . S
H29 C3 0.929 . S
H30 C4 0.930 . S
H31 C5 0.931 . S
H32 C12 0.932 . S
H33 C13 0.930 . S
H34 C14 0.929 . S
H35 C16 0.930 . S
H36 C18 0.932 . S
H37 C19 0.929 . S
H38 C20 0.928 . S
H39 C22 0.932 . S
C40 C41 1.264 . S
C40 C45 1.479 . S
C40 C50 1.465 . S
C41 C40 1.264 . S
C41 C43 1.339 . S
C41 H68 0.931 . S
C42 C43 1.395 . S
C42 C44 1.320 . S
C43 C41 1.339 . S
C43 C42 1.395 . S
C43 H69 0.929 . S
C44 C42 1.320 . S
C44 C45 1.405 . S
C44 H70 0.930 . S
C45 C40 1.479 . S
C45 C44 1.405 . S
C45 H71 0.931 . S
U46 O47 2.454 . S
U46 O48 2.458 . S
U46 C49 2.984 . S
U46 C50 2.847 . S
U46 C63 2.882 . S
U46 O64 2.441 . S
U46 O65 2.420 . S
U46 O66 2.455 . S
U46 O67 2.449 . S
O47 U46 2.454 . S
O47 C49 1.353 . S
O48 U46 2.458 . S
O48 C49 1.286 . S
C49 U46 2.984 . S
C49 O47 1.353 . S
C49 O48 1.286 . S
C49 C51 1.363 . S
C50 C40 1.465 . S
C50 U46 2.847 . S
C50 O64 1.249 . S
C50 O65 1.202 . S
C51 C49 1.363 . S
C51 C53 1.408 . S
C51 C56 1.342 . S
C52 C53 1.310 . S
C52 C55 1.461 . S
C52 H72 0.932 . S
C53 C51 1.408 . S
C53 C52 1.310 . S
C53 H73 0.930 . S
C54 C55 1.474 . S
C54 C56 1.285 . S
C54 H74 0.929 . S
C55 C52 1.461 . S
C55 C54 1.474 . S
C56 C51 1.342 . S
C56 C54 1.285 . S
C56 H75 0.930 . S
C57 C60 1.424 . S
C57 C62 1.245 . S
C57 C63 1.428 . S
C58 C61 1.260 . S
C58 C62 1.477 . S
C58 H76 0.932 . S
C59 C60 1.384 . S
C59 C61 1.479 . S
C59 H77 0.929 . S
C60 C57 1.424 . S
C60 C59 1.384 . S
C60 H78 0.928 . S
C61 C58 1.260 . S
C61 C59 1.479 . S
C62 C57 1.245 . S
C62 C58 1.477 . S
C62 H79 0.932 . S
C63 U46 2.882 . S
C63 C57 1.428 . S
C63 O66 1.301 . S
C63 O67 1.282 . S
O64 U46 2.441 . S
O64 C50 1.249 . S
O65 U46 2.420 . S
O65 C50 1.202 . S
O66 U46 2.455 . S
O66 C63 1.301 . S
O67 U46 2.449 . S
O67 C63 1.282 . S
H68 C41 0.931 . S
H69 C43 0.929 . S
H70 C44 0.930 . S
H71 C45 0.931 . S
H72 C52 0.932 . S
H73 C53 0.930 . S
H74 C54 0.929 . S
H75 C56 0.930 . S
H76 C58 0.932 . S
H77 C59 0.929 . S
H78 C60 0.928 . S
H79 C62 0.932 . S
C80 C81 1.264 . S
C80 C85 1.479 . S
C80 C90 1.465 . S
C81 C80 1.264 . S
C81 C83 1.339 . S
C81 H108 0.931 . S
C82 C83 1.395 . S
C82 C84 1.320 . S
C83 C81 1.339 . S
C83 C82 1.395 . S
C83 H109 0.929 . S
C84 C82 1.320 . S
C84 C85 1.405 . S
C84 H110 0.930 . S
C85 C80 1.479 . S
C85 C84 1.405 . S
C85 H111 0.931 . S
U86 O87 2.454 . S
U86 O88 2.458 . S
U86 C89 2.984 . S
U86 C90 2.847 . S
U86 C103 2.882 . S
U86 O104 2.441 . S
U86 O105 2.420 . S
U86 O106 2.455 . S
U86 O107 2.449 . S
O87 U86 2.454 . S
O87 C89 1.353 . S
O88 U86 2.458 . S
O88 C89 1.286 . S
C89 U86 2.984 . S
C89 O87 1.353 . S
C89 O88 1.286 . S
C89 C91 1.363 . S
C90 C80 1.465 . S
C90 U86 2.847 . S
C90 O104 1.249 . S
C90 O105 1.202 . S
C91 C89 1.363 . S
C91 C93 1.408 . S
C91 C96 1.342 . S
C92 C93 1.310 . S
C92 C95 1.461 . S
C92 H112 0.932 . S
C93 C91 1.408 . S
C93 C92 1.310 . S
C93 H113 0.930 . S
C94 C95 1.474 . S
C94 C96 1.285 . S
C94 H114 0.929 . S
C95 C92 1.461 . S
C95 C94 1.474 . S
C96 C91 1.342 . S
C96 C94 1.285 . S
C96 H115 0.930 . S
C97 C100 1.424 . S
C97 C102 1.245 . S
C97 C103 1.428 . S
C98 C101 1.260 . S
C98 C102 1.477 . S
C98 H116 0.932 . S
C99 C100 1.384 . S
C99 C101 1.479 . S
C99 H117 0.929 . S
C100 C97 1.424 . S
C100 C99 1.384 . S
C100 H118 0.928 . S
C101 C98 1.260 . S
C101 C99 1.479 . S
C102 C97 1.245 . S
C102 C98 1.477 . S
C102 H119 0.932 . S
C103 U86 2.882 . S
C103 C97 1.428 . S
C103 O106 1.301 . S
C103 O107 1.282 . S
O104 U86 2.441 . S
O104 C90 1.249 . S
O105 U86 2.420 . S
O105 C90 1.202 . S
O106 U86 2.455 . S
O106 C103 1.301 . S
O107 U86 2.449 . S
O107 C103 1.282 . S
H108 C81 0.931 . S
H109 C83 0.929 . S
H110 C84 0.930 . S
H111 C85 0.931 . S
H112 C92 0.932 . S
H113 C93 0.930 . S
H114 C94 0.929 . S
H115 C96 0.930 . S
H116 C98 0.932 . S
H117 C99 0.929 . S
H118 C100 0.928 . S
H119 C102 0.932 . S
C120 C121 1.264 . S
C120 C125 1.479 . S
C120 C130 1.465 . S
C121 C120 1.264 . S
C121 C123 1.339 . S
C121 H148 0.931 . S
C122 C123 1.395 . S
C122 C124 1.320 . S
C123 C121 1.339 . S
C123 C122 1.395 . S
C123 H149 0.929 . S
C124 C122 1.320 . S
C124 C125 1.405 . S
C124 H150 0.930 . S
C125 C120 1.479 . S
C125 C124 1.405 . S
C125 H151 0.931 . S
U126 O127 2.454 . S
U126 O128 2.458 . S
U126 C129 2.984 . S
U126 C130 2.847 . S
U126 C143 2.882 . S
U126 O144 2.441 . S
U126 O145 2.420 . S
U126 O146 2.455 . S
U126 O147 2.449 . S
O127 U126 2.454 . S
O127 C129 1.353 . S
O128 U126 2.458 . S
O128 C129 1.286 . S
C129 U126 2.984 . S
C129 O127 1.353 . S
C129 O128 1.286 . S
C129 C131 1.363 . S
C130 C120 1.465 . S
C130 U126 2.847 . S
C130 O144 1.249 . S
C130 O145 1.202 . S
C131 C129 1.363 . S
C131 C133 1.408 . S
C131 C136 1.342 . S
C132 C133 1.310 . S
C132 C135 1.461 . S
C132 H152 0.932 . S
C133 C131 1.408 . S
C133 C132 1.310 . S
C133 H153 0.930 . S
C134 C135 1.474 . S
C134 C136 1.285 . S
C134 H154 0.929 . S
C135 C132 1.461 . S
C135 C134 1.474 . S
C136 C131 1.342 . S
C136 C134 1.285 . S
C136 H155 0.930 . S
C137 C140 1.424 . S
C137 C142 1.245 . S
C137 C143 1.428 . S
C138 C141 1.260 . S
C138 C142 1.477 . S
C138 H156 0.932 . S
C139 C140 1.384 . S
C139 C141 1.479 . S
C139 H157 0.929 . S
C140 C137 1.424 . S
C140 C139 1.384 . S
C140 H158 0.928 . S
C141 C138 1.260 . S
C141 C139 1.479 . S
C142 C137 1.245 . S
C142 C138 1.477 . S
C142 H159 0.932 . S
C143 U126 2.882 . S
C143 C137 1.428 . S
C143 O146 1.301 . S
C143 O147 1.282 . S
O144 U126 2.441 . S
O144 C130 1.249 . S
O145 U126 2.420 . S
O145 C130 1.202 . S
O146 U126 2.455 . S
O146 C143 1.301 . S
O147 U126 2.449 . S
O147 C143 1.282 . S
H148 C121 0.931 . S
H149 C123 0.929 . S
H150 C124 0.930 . S
H151 C125 0.931 . S
H152 C132 0.932 . S
H153 C133 0.930 . S
H154 C134 0.929 . S
H155 C136 0.930 . S
H156 C138 0.932 . S
H157 C139 0.929 . S
H158 C140 0.928 . S
H159 C142 0.932 . S
C160 C161 1.264 . S
C160 C165 1.479 . S
C160 C170 1.465 . S
C161 C160 1.264 . S
C161 C163 1.339 . S
C161 H188 0.931 . S
C162 C163 1.395 . S
C162 C164 1.320 . S
C163 C161 1.339 . S
C163 C162 1.395 . S
C163 H189 0.929 . S
C164 C162 1.320 . S
C164 C165 1.405 . S
C164 H190 0.930 . S
C165 C160 1.479 . S
C165 C164 1.405 . S
C165 H191 0.931 . S
U166 O167 2.454 . S
U166 O168 2.458 . S
U166 C169 2.984 . S
U166 C170 2.847 . S
U166 C183 2.882 . S
U166 O184 2.441 . S
U166 O185 2.420 . S
U166 O186 2.455 . S
U166 O187 2.449 . S
O167 U166 2.454 . S
O167 C169 1.353 . S
O168 U166 2.458 . S
O168 C169 1.286 . S
C169 U166 2.984 . S
C169 O167 1.353 . S
C169 O168 1.286 . S
C169 C171 1.363 . S
C170 C160 1.465 . S
C170 U166 2.847 . S
C170 O184 1.249 . S
C170 O185 1.202 . S
C171 C169 1.363 . S
C171 C173 1.408 . S
C171 C176 1.342 . S
C172 C173 1.310 . S
C172 C175 1.461 . S
C172 H192 0.932 . S
C173 C171 1.408 . S
C173 C172 1.310 . S
C173 H193 0.930 . S
C174 C175 1.474 . S
C174 C176 1.285 . S
C174 H194 0.929 . S
C175 C172 1.461 . S
C175 C174 1.474 . S
C176 C171 1.342 . S
C176 C174 1.285 . S
C176 H195 0.930 . S
C177 C180 1.424 . S
C177 C182 1.245 . S
C177 C183 1.428 . S
C178 C181 1.260 . S
C178 C182 1.477 . S
C178 H196 0.932 . S
C179 C180 1.384 . S
C179 C181 1.479 . S
C179 H197 0.929 . S
C180 C177 1.424 . S
C180 C179 1.384 . S
C180 H198 0.928 . S
C181 C178 1.260 . S
C181 C179 1.479 . S
C182 C177 1.245 . S
C182 C178 1.477 . S
C182 H199 0.932 . S
C183 U166 2.882 . S
C183 C177 1.428 . S
C183 O186 1.301 . S
C183 O187 1.282 . S
O184 U166 2.441 . S
O184 C170 1.249 . S
O185 U166 2.420 . S
O185 C170 1.202 . S
O186 U166 2.455 . S
O186 C183 1.301 . S
O187 U166 2.449 . S
O187 C183 1.282 . S
H188 C161 0.931 . S
H189 C163 0.929 . S
H190 C164 0.930 . S
H191 C165 0.931 . S
H192 C172 0.932 . S
H193 C173 0.930 . S
H194 C174 0.929 . S
H195 C176 0.930 . S
H196 C178 0.932 . S
H197 C179 0.929 . S
H198 C180 0.928 . S
H199 C182 0.932 . S
C200 C201 1.264 . S
C200 C205 1.479 . S
C200 C210 1.465 . S
C201 C200 1.264 . S
C201 C203 1.339 . S
C201 H228 0.931 . S
C202 C203 1.392 . S
C202 C204 1.319 . S
C203 C201 1.339 . S
C203 C202 1.392 . S
C203 H229 0.929 . S
C204 C202 1.319 . S
C204 C205 1.405 . S
C204 H230 0.935 . S
C205 C200 1.479 . S
C205 C204 1.405 . S
C205 H231 0.931 . S
U206 O207 2.454 . S
U206 O208 2.458 . S
U206 C209 2.984 . S
U206 C210 2.847 . S
U206 C223 2.882 . S
U206 O224 2.441 . S
U206 O225 2.420 . S
U206 O226 2.455 . S
U206 O227 2.449 . S
O207 U206 2.454 . S
O207 C209 1.353 . S
O208 U206 2.458 . S
O208 C209 1.286 . S
C209 U206 2.984 . S
C209 O207 1.353 . S
C209 O208 1.286 . S
C209 C211 1.363 . S
C210 C200 1.465 . S
C210 U206 2.847 . S
C210 O224 1.249 . S
C210 O225 1.202 . S
C211 C209 1.363 . S
C211 C213 1.408 . S
C211 C216 1.342 . S
C212 C213 1.310 . S
C212 C215 1.461 . S
C212 H232 0.932 . S
C213 C211 1.408 . S
C213 C212 1.310 . S
C213 H233 0.930 . S
C214 C215 1.474 . S
C214 C216 1.285 . S
C214 H234 0.929 . S
C215 C212 1.461 . S
C215 C214 1.474 . S
C216 C211 1.342 . S
C216 C214 1.285 . S
C216 H235 0.930 . S
C217 C220 1.424 . S
C217 C222 1.245 . S
C217 C223 1.428 . S
C218 C221 1.260 . S
C218 C222 1.477 . S
C218 H236 0.932 . S
C219 C220 1.384 . S
C219 C221 1.479 . S
C219 H237 0.929 . S
C220 C217 1.424 . S
C220 C219 1.384 . S
C220 H238 0.928 . S
C221 C218 1.260 . S
C221 C219 1.479 . S
C222 C217 1.245 . S
C222 C218 1.477 . S
C222 H239 0.932 . S
C223 U206 2.882 . S
C223 C217 1.428 . S
C223 O226 1.301 . S
C223 O227 1.282 . S
O224 U206 2.441 . S
O224 C210 1.249 . S
O225 U206 2.420 . S
O225 C210 1.202 . S
O226 U206 2.455 . S
O226 C223 1.301 . S
O227 U206 2.449 . S
O227 C223 1.282 . S
H228 C201 0.931 . S
H229 C203 0.929 . S
H230 C204 0.935 . S
H231 C205 0.931 . S
H232 C212 0.932 . S
H233 C213 0.930 . S
H234 C214 0.929 . S
H235 C216 0.930 . S
H236 C218 0.932 . S
H237 C219 0.929 . S
H238 C220 0.928 . S
H239 C222 0.932 . S
C240 C241 1.264 . S
C240 C245 1.479 . S
C240 C250 1.465 . S
C241 C240 1.264 . S
C241 C243 1.339 . S
C241 H268 0.931 . S
C242 C243 1.395 . S
C242 C244 1.320 . S
C243 C241 1.339 . S
C243 C242 1.395 . S
C243 H269 0.929 . S
C244 C242 1.320 . S
C244 C245 1.405 . S
C244 H270 0.930 . S
C245 C240 1.479 . S
C245 C244 1.405 . S
C245 H271 0.931 . S
U246 O247 2.454 . S
U246 O248 2.458 . S
U246 C249 2.984 . S
U246 C250 2.847 . S
U246 C263 2.882 . S
U246 O264 2.441 . S
U246 O265 2.420 . S
U246 O266 2.455 . S
U246 O267 2.449 . S
O247 U246 2.454 . S
O247 C249 1.353 . S
O248 U246 2.458 . S
O248 C249 1.286 . S
C249 U246 2.984 . S
C249 O247 1.353 . S
C249 O248 1.286 . S
C249 C251 1.363 . S
C250 C240 1.465 . S
C250 U246 2.847 . S
C250 O264 1.249 . S
C250 O265 1.202 . S
C251 C249 1.363 . S
C251 C253 1.408 . S
C251 C256 1.342 . S
C252 C253 1.310 . S
C252 C255 1.461 . S
C252 H272 0.932 . S
C253 C251 1.408 . S
C253 C252 1.310 . S
C253 H273 0.930 . S
C254 C255 1.474 . S
C254 C256 1.285 . S
C254 H274 0.929 . S
C255 C252 1.461 . S
C255 C254 1.474 . S
C256 C251 1.342 . S
C256 C254 1.285 . S
C256 H275 0.930 . S
C257 C260 1.424 . S
C257 C262 1.245 . S
C257 C263 1.428 . S
C258 C261 1.260 . S
C258 C262 1.477 . S
C258 H276 0.932 . S
C259 C260 1.384 . S
C259 C261 1.479 . S
C259 H277 0.929 . S
C260 C257 1.424 . S
C260 C259 1.384 . S
C260 H278 0.928 . S
C261 C258 1.260 . S
C261 C259 1.479 . S
C262 C257 1.245 . S
C262 C258 1.477 . S
C262 H279 0.932 . S
C263 U246 2.882 . S
C263 C257 1.428 . S
C263 O266 1.301 . S
C263 O267 1.282 . S
O264 U246 2.441 . S
O264 C250 1.249 . S
O265 U246 2.420 . S
O265 C250 1.202 . S
O266 U246 2.455 . S
O266 C263 1.301 . S
O267 U246 2.449 . S
O267 C263 1.282 . S
H268 C241 0.931 . S
H269 C243 0.929 . S
H270 C244 0.930 . S
H271 C245 0.931 . S
H272 C252 0.932 . S
H273 C253 0.930 . S
H274 C254 0.929 . S
H275 C256 0.930 . S
H276 C258 0.932 . S
H277 C259 0.929 . S
H278 C260 0.928 . S
H279 C262 0.932 . S
C280 C281 1.264 . S
C280 C285 1.479 . S
C280 C290 1.465 . S
C281 C280 1.264 . S
C281 C283 1.339 . S
C281 H308 0.931 . S
C282 C283 1.395 . S
C282 C284 1.320 . S
C283 C281 1.339 . S
C283 C282 1.395 . S
C283 H309 0.929 . S
C284 C282 1.320 . S
C284 C285 1.405 . S
C284 H310 0.930 . S
C285 C280 1.479 . S
C285 C284 1.405 . S
C285 H311 0.931 . S
U286 O287 2.454 . S
U286 O288 2.458 . S
U286 C289 2.984 . S
U286 C290 2.847 . S
U286 C303 2.882 . S
U286 O304 2.441 . S
U286 O305 2.420 . S
U286 O306 2.455 . S
U286 O307 2.449 . S
O287 U286 2.454 . S
O287 C289 1.353 . S
O288 U286 2.458 . S
O288 C289 1.286 . S
C289 U286 2.984 . S
C289 O287 1.353 . S
C289 O288 1.286 . S
C289 C291 1.363 . S
C290 C280 1.465 . S
C290 U286 2.847 . S
C290 O304 1.249 . S
C290 O305 1.202 . S
C291 C289 1.363 . S
C291 C293 1.408 . S
C291 C296 1.342 . S
C292 C293 1.310 . S
C292 C295 1.461 . S
C292 H312 0.932 . S
C293 C291 1.408 . S
C293 C292 1.310 . S
C293 H313 0.930 . S
C294 C295 1.474 . S
C294 C296 1.285 . S
C294 H314 0.929 . S
C295 C292 1.461 . S
C295 C294 1.474 . S
C296 C291 1.342 . S
C296 C294 1.285 . S
C296 H315 0.930 . S
C297 C300 1.424 . S
C297 C302 1.245 . S
C297 C303 1.428 . S
C298 C301 1.260 . S
C298 C302 1.477 . S
C298 H316 0.932 . S
C299 C300 1.384 . S
C299 C301 1.479 . S
C299 H317 0.929 . S
C300 C297 1.424 . S
C300 C299 1.384 . S
C300 H318 0.928 . S
C301 C298 1.260 . S
C301 C299 1.479 . S
C302 C297 1.245 . S
C302 C298 1.477 . S
C302 H319 0.932 . S
C303 U286 2.882 . S
C303 C297 1.428 . S
C303 O306 1.301 . S
C303 O307 1.282 . S
O304 U286 2.441 . S
O304 C290 1.249 . S
O305 U286 2.420 . S
O305 C290 1.202 . S
O306 U286 2.455 . S
O306 C303 1.301 . S
O307 U286 2.449 . S
O307 C303 1.282 . S
H308 C281 0.931 . S
H309 C283 0.929 . S
H310 C284 0.930 . S
H311 C285 0.931 . S
H312 C292 0.932 . S
H313 C293 0.930 . S
H314 C294 0.929 . S
H315 C296 0.930 . S
H316 C298 0.932 . S
H317 C299 0.929 . S
H318 C300 0.928 . S
H319 C302 0.932 . S
C320 C322 1.422 . S
C320 C324 1.415 . S
C320 N326 1.369 . S
C321 C322 1.421 . S
C321 C323 1.417 . S
C321 C333 1.422 . S
C322 C320 1.422 . S
C322 C321 1.421 . S
C322 N332 1.359 . S
C323 C321 1.417 . S
C323 C325 1.329 . S
C323 H342 0.930 . S
C324 C320 1.415 . S
C324 C325 1.437 . S
C324 C328 1.413 . S
C325 C323 1.329 . S
C325 C324 1.437 . S
C325 H347 0.929 . S
N326 C320 1.369 . S
N326 C327 1.338 . S
N326 Gd331 2.622 . S
C327 N326 1.338 . S
C327 C329 1.378 . S
C327 H339 0.929 . S
C328 C324 1.413 . S
C328 C329 1.348 . S
C328 H344 0.931 . S
C329 C327 1.378 . S
C329 C328 1.348 . S
C329 H345 0.930 . S
Gd330 N350 2.622 . S
Gd330 N357 2.570 . S
Gd330 O364 2.353 . S
Gd330 O365 2.468 . S
Gd330 O366 2.427 . S
Gd330 O368 2.388 . S
Gd330 O369 2.386 . S
Gd330 O373 2.304 . S
Gd330 C383 2.805 . S
Gd331 N326 2.622 . S
Gd331 N332 2.570 . S
Gd331 O363 2.386 . S
Gd331 O367 2.307 1_655 S
Gd331 O370 2.365 . S
Gd331 O371 2.468 . S
Gd331 O372 2.427 . S
Gd331 O374 2.388 . S
Gd331 C395 2.805 . S
N332 C322 1.359 . S
N332 Gd331 2.570 . S
N332 C334 1.343 . S
C333 C321 1.422 . S
C333 C335 1.321 . S
C333 H341 0.931 . S
C334 N332 1.343 . S
C334 C335 1.390 . S
C334 H336 0.931 . S
C335 C333 1.321 . S
C335 C334 1.390 . S
C335 H337 0.930 . S
H336 C334 0.931 . S
H337 C335 0.930 . S
H338 C361 0.931 . S
H339 C327 0.929 . S
H340 C362 0.930 . S
H341 C333 0.931 . S
H342 C323 0.930 . S
H343 C352 0.929 . S
H344 C328 0.931 . S
H345 C329 0.930 . S
H346 C384 0.930 . S
H347 C325 0.929 . S
H348 C353 0.931 . S
H349 C354 0.930 . S
N350 Gd330 2.622 . S
N350 C351 1.369 . S
N350 C352 1.338 . S
C351 N350 1.369 . S
C351 C355 1.415 . S
C351 C358 1.422 . S
C352 H343 0.929 . S
C352 N350 1.338 . S
C352 C354 1.378 . S
C353 H348 0.931 . S
C353 C354 1.348 . S
C353 C355 1.413 . S
C354 H349 0.930 . S
C354 C352 1.378 . S
C354 C353 1.348 . S
C355 C351 1.415 . S
C355 C353 1.413 . S
C355 C385 1.437 . S
H356 C385 0.929 . S
N357 Gd330 2.570 . S
N357 C358 1.359 . S
N357 C361 1.343 . S
C358 C351 1.422 . S
C358 N357 1.359 . S
C358 C360 1.421 . S
C359 C360 1.422 . S
C359 C362 1.321 . S
C359 H386 0.931 . S
C360 C358 1.421 . S
C360 C359 1.422 . S
C360 C384 1.417 . S
C361 H338 0.931 . S
C361 N357 1.343 . S
C361 C362 1.390 . S
C362 H340 0.930 . S
C362 C359 1.321 . S
C362 C361 1.390 . S
O363 Gd331 2.386 . S
O363 C375 1.265 . S
O364 Gd330 2.353 . S
O364 C375 1.242 1_455 S
O365 Gd330 2.468 . S
O365 C383 1.263 . S
O366 Gd330 2.427 . S
O366 C383 1.252 . S
O367 Gd331 2.307 1_455 S
O367 C376 1.261 . S
O368 Gd330 2.388 . S
O368 C376 1.252 . S
O369 Gd330 2.386 . S
O369 C387 1.265 . S
O370 Gd331 2.365 . S
O370 C387 1.227 1_655 S
O371 Gd331 2.468 . S
O371 C395 1.263 . S
O372 Gd331 2.427 . S
O372 C395 1.252 . S
O373 Gd330 2.304 . S
O373 C388 1.264 1_455 S
O374 Gd331 2.388 . S
O374 C388 1.252 . S
C375 O363 1.265 . S
C375 O364 1.242 1_655 S
C376 O367 1.261 . S
C376 O368 1.252 . S
C377 C380 1.394 . S
C377 C382 1.370 . S
C377 C383 1.500 . S
C378 C381 1.383 . S
C378 C382 1.395 . S
C379 C380 1.396 . S
C379 C381 1.365 . S
C379 H396 0.929 . S
C380 C377 1.394 . S
C380 C379 1.396 . S
C380 H397 0.930 . S
C381 C378 1.383 . S
C381 C379 1.365 . S
C381 H398 0.931 . S
C382 C377 1.370 . S
C382 C378 1.395 . S
C382 H399 0.930 . S
C383 Gd330 2.805 . S
C383 O365 1.263 . S
C383 O366 1.252 . S
C383 C377 1.500 . S
C384 H346 0.930 . S
C384 C360 1.417 . S
C384 C385 1.329 . S
C385 C355 1.437 . S
C385 H356 0.929 . S
C385 C384 1.329 . S
H386 C359 0.931 . S
C387 O369 1.265 . S
C387 O370 1.227 1_455 S
C388 O373 1.264 1_655 S
C388 O374 1.252 . S
C389 C392 1.394 . S
C389 C394 1.370 . S
C389 C395 1.500 . S
C390 C393 1.383 . S
C390 C394 1.395 . S
C391 C392 1.396 . S
C391 C393 1.365 . S
C391 H400 0.929 . S
C392 C389 1.394 . S
C392 C391 1.396 . S
C392 H401 0.930 . S
C393 C390 1.383 . S
C393 C391 1.365 . S
C393 H402 0.931 . S
C394 C389 1.370 . S
C394 C390 1.395 . S
C394 H403 0.930 . S
C395 Gd331 2.805 . S
C395 O371 1.263 . S
C395 O372 1.252 . S
C395 C389 1.500 . S
H396 C379 0.929 . S
H397 C380 0.930 . S
H398 C381 0.931 . S
H399 C382 0.930 . S
H400 C391 0.929 . S
H401 C392 0.930 . S
H402 C393 0.931 . S
H403 C394 0.930 . S
C404 C406 1.422 . S
C404 C408 1.415 . S
C404 N410 1.369 . S
C405 C406 1.421 . S
C405 C407 1.417 . S
C405 C417 1.422 . S
C406 C404 1.422 . S
C406 C405 1.421 . S
C406 N416 1.359 . S
C407 C405 1.417 . S
C407 C409 1.329 . S
C407 H426 0.930 . S
C408 C404 1.415 . S
C408 C409 1.437 . S
C408 C412 1.413 . S
C409 C407 1.329 . S
C409 C408 1.437 . S
C409 H431 0.929 . S
N410 C404 1.369 . S
N410 C411 1.338 . S
N410 Gd415 2.622 . S
C411 N410 1.338 . S
C411 C413 1.378 . S
C411 H423 0.929 . S
C412 C408 1.413 . S
C412 C413 1.348 . S
C412 H428 0.931 . S
C413 C411 1.378 . S
C413 C412 1.348 . S
C413 H429 0.930 . S
Gd414 N434 2.622 . S
Gd414 N441 2.570 . S
Gd414 O448 2.353 . S
Gd414 O449 2.468 . S
Gd414 O450 2.427 . S
Gd414 O452 2.388 . S
Gd414 O453 2.386 . S
Gd414 O457 2.307 . S
Gd414 C467 2.805 . S
Gd415 N410 2.622 . S
Gd415 N416 2.570 . S
Gd415 O447 2.386 . S
Gd415 O451 2.307 . S
Gd415 O454 2.353 . S
Gd415 O455 2.468 . S
Gd415 O456 2.427 . S
Gd415 O458 2.388 . S
Gd415 C479 2.805 . S
N416 C406 1.359 . S
N416 Gd415 2.570 . S
N416 C418 1.343 . S
C417 C405 1.422 . S
C417 C419 1.321 . S
C417 H425 0.931 . S
C418 N416 1.343 . S
C418 C419 1.390 . S
C418 H420 0.931 . S
C419 C417 1.321 . S
C419 C418 1.390 . S
C419 H421 0.930 . S
H420 C418 0.931 . S
H421 C419 0.930 . S
H422 C445 0.931 . S
H423 C411 0.929 . S
H424 C446 0.930 . S
H425 C417 0.931 . S
H426 C407 0.930 . S
H427 C436 0.929 . S
H428 C412 0.931 . S
H429 C413 0.930 . S
H430 C468 0.930 . S
H431 C409 0.929 . S
H432 C437 0.931 . S
H433 C438 0.930 . S
N434 Gd414 2.622 . S
N434 C435 1.369 . S
N434 C436 1.338 . S
C435 N434 1.369 . S
C435 C439 1.415 . S
C435 C442 1.422 . S
C436 H427 0.929 . S
C436 N434 1.338 . S
C436 C438 1.378 . S
C437 H432 0.931 . S
C437 C438 1.348 . S
C437 C439 1.413 . S
C438 H433 0.930 . S
C438 C436 1.378 . S
C438 C437 1.348 . S
C439 C435 1.415 . S
C439 C437 1.413 . S
C439 C469 1.437 . S
H440 C469 0.929 . S
N441 Gd414 2.570 . S
N441 C442 1.359 . S
N441 C445 1.343 . S
C442 C435 1.422 . S
C442 N441 1.359 . S
C442 C444 1.421 . S
C443 C444 1.422 . S
C443 C446 1.321 . S
C443 H470 0.931 . S
C444 C442 1.421 . S
C444 C443 1.422 . S
C444 C468 1.417 . S
C445 H422 0.931 . S
C445 N441 1.343 . S
C445 C446 1.390 . S
C446 H424 0.930 . S
C446 C443 1.321 . S
C446 C445 1.390 . S
O447 Gd415 2.386 . S
O447 C459 1.265 . S
O448 Gd414 2.353 . S
O448 C459 1.242 . S
O449 Gd414 2.468 . S
O449 C467 1.263 . S
O450 Gd414 2.427 . S
O450 C467 1.252 . S
O451 Gd415 2.307 . S
O451 C460 1.261 . S
O452 Gd414 2.388 . S
O452 C460 1.252 . S
O453 Gd414 2.386 . S
O453 C471 1.265 . S
O454 Gd415 2.353 . S
O454 C471 1.242 . S
O455 Gd415 2.468 . S
O455 C479 1.263 . S
O456 Gd415 2.427 . S
O456 C479 1.252 . S
O457 Gd414 2.307 . S
O457 C472 1.261 . S
O458 Gd415 2.388 . S
O458 C472 1.252 . S
C459 O447 1.265 . S
C459 O448 1.242 . S
C460 O451 1.261 . S
C460 O452 1.252 . S
C461 C464 1.394 . S
C461 C466 1.370 . S
C461 C467 1.500 . S
C462 C465 1.383 . S
C462 C466 1.395 . S
C463 C464 1.396 . S
C463 C465 1.365 . S
C463 H480 0.929 . S
C464 C461 1.394 . S
C464 C463 1.396 . S
C464 H481 0.930 . S
C465 C462 1.383 . S
C465 C463 1.365 . S
C465 H482 0.931 . S
C466 C461 1.370 . S
C466 C462 1.395 . S
C466 H483 0.930 . S
C467 Gd414 2.805 . S
C467 O449 1.263 . S
C467 O450 1.252 . S
C467 C461 1.500 . S
C468 H430 0.930 . S
C468 C444 1.417 . S
C468 C469 1.329 . S
C469 C439 1.437 . S
C469 H440 0.929 . S
C469 C468 1.329 . S
H470 C443 0.931 . S
C471 O453 1.265 . S
C471 O454 1.242 . S
C472 O457 1.261 . S
C472 O458 1.252 . S
C473 C476 1.394 . S
C473 C478 1.370 . S
C473 C479 1.500 . S
C474 C477 1.383 . S
C474 C478 1.395 . S
C475 C476 1.396 . S
C475 C477 1.365 . S
C475 H484 0.929 . S
C476 C473 1.394 . S
C476 C475 1.396 . S
C476 H485 0.930 . S
C477 C474 1.383 . S
C477 C475 1.365 . S
C477 H486 0.931 . S
C478 C473 1.370 . S
C478 C474 1.395 . S
C478 H487 0.930 . S
C479 Gd415 2.805 . S
C479 O455 1.263 . S
C479 O456 1.252 . S
C479 C473 1.500 . S
H480 C463 0.929 . S
H481 C464 0.930 . S
H482 C465 0.931 . S
H483 C466 0.930 . S
H484 C475 0.929 . S
H485 C476 0.930 . S
H486 C477 0.931 . S
H487 C478 0.930 . S
C488 C490 1.422 . S
C488 C492 1.415 . S
C488 N494 1.369 . S
C489 C490 1.421 . S
C489 C491 1.417 . S
C489 C501 1.422 . S
C490 C488 1.422 . S
C490 C489 1.421 . S
C490 N500 1.359 . S
C491 C489 1.417 . S
C491 C493 1.329 . S
C491 H510 0.930 . S
C492 C488 1.415 . S
C492 C493 1.437 . S
C492 C496 1.413 . S
C493 C491 1.329 . S
C493 C492 1.437 . S
C493 H515 0.929 . S
N494 C488 1.369 . S
N494 C495 1.338 . S
N494 Gd499 2.622 . S
C495 N494 1.338 . S
C495 C497 1.378 . S
C495 H507 0.929 . S
C496 C492 1.413 . S
C496 C497 1.348 . S
C496 H512 0.931 . S
C497 C495 1.378 . S
C497 C496 1.348 . S
C497 H513 0.930 . S
Gd498 N518 2.622 . S
Gd498 N525 2.570 . S
Gd498 O532 2.353 . S
Gd498 O533 2.468 . S
Gd498 O534 2.427 . S
Gd498 O536 2.388 . S
Gd498 O537 2.386 . S
Gd498 O541 2.307 . S
Gd498 C551 2.805 . S
Gd499 N494 2.622 . S
Gd499 N500 2.570 . S
Gd499 O531 2.386 . S
Gd499 O535 2.307 1_655 S
Gd499 O538 2.353 1_655 S
Gd499 O539 2.468 . S
Gd499 O540 2.427 . S
Gd499 O542 2.388 . S
Gd499 C563 2.805 . S
N500 C490 1.359 . S
N500 Gd499 2.570 . S
N500 C502 1.343 . S
C501 C489 1.422 . S
C501 C503 1.321 . S
C501 H509 0.931 . S
C502 N500 1.343 . S
C502 C503 1.390 . S
C502 H504 0.931 . S
C503 C501 1.321 . S
C503 C502 1.390 . S
C503 H505 0.930 . S
H504 C502 0.931 . S
H505 C503 0.930 . S
H506 C529 0.931 . S
H507 C495 0.929 . S
H508 C530 0.930 . S
H509 C501 0.931 . S
H510 C491 0.930 . S
H511 C520 0.929 . S
H512 C496 0.931 . S
H513 C497 0.930 . S
H514 C552 0.930 . S
H515 C493 0.929 . S
H516 C521 0.931 . S
H517 C522 0.930 . S
N518 Gd498 2.622 . S
N518 C519 1.369 . S
N518 C520 1.338 . S
C519 N518 1.369 . S
C519 C523 1.415 . S
C519 C526 1.422 . S
C520 H511 0.929 . S
C520 N518 1.338 . S
C520 C522 1.378 . S
C521 H516 0.931 . S
C521 C522 1.348 . S
C521 C523 1.413 . S
C522 H517 0.930 . S
C522 C520 1.378 . S
C522 C521 1.348 . S
C523 C519 1.415 . S
C523 C521 1.413 . S
C523 C553 1.437 . S
H524 C553 0.929 . S
N525 Gd498 2.570 . S
N525 C526 1.359 . S
N525 C529 1.343 . S
C526 C519 1.422 . S
C526 N525 1.359 . S
C526 C528 1.421 . S
C527 C528 1.422 . S
C527 C530 1.321 . S
C527 H554 0.931 . S
C528 C526 1.421 . S
C528 C527 1.422 . S
C528 C552 1.417 . S
C529 H506 0.931 . S
C529 N525 1.343 . S
C529 C530 1.390 . S
C530 H508 0.930 . S
C530 C527 1.321 . S
C530 C529 1.390 . S
O531 Gd499 2.386 . S
O531 C543 1.265 . S
O532 Gd498 2.353 . S
O532 C543 1.242 1_455 S
O533 Gd498 2.468 . S
O533 C551 1.263 . S
O534 Gd498 2.427 . S
O534 C551 1.252 . S
O535 Gd499 2.307 1_455 S
O535 C544 1.261 . S
O536 Gd498 2.388 . S
O536 C544 1.252 . S
O537 Gd498 2.386 . S
O537 C555 1.265 . S
O538 Gd499 2.353 1_455 S
O538 C555 1.242 . S
O539 Gd499 2.468 . S
O539 C563 1.263 . S
O540 Gd499 2.427 . S
O540 C563 1.252 . S
O541 Gd498 2.307 . S
O541 C556 1.261 1_455 S
O542 Gd499 2.388 . S
O542 C556 1.252 . S
C543 O531 1.265 . S
C543 O532 1.242 1_655 S
C544 O535 1.261 . S
C544 O536 1.252 . S
C545 C548 1.394 . S
C545 C550 1.370 . S
C545 C551 1.500 . S
C546 C549 1.383 . S
C546 C550 1.395 . S
C547 C548 1.396 . S
C547 C549 1.365 . S
C547 H564 0.929 . S
C548 C545 1.394 . S
C548 C547 1.396 . S
C548 H565 0.930 . S
C549 C546 1.383 . S
C549 C547 1.365 . S
C549 H566 0.931 . S
C550 C545 1.370 . S
C550 C546 1.395 . S
C550 H567 0.930 . S
C551 Gd498 2.805 . S
C551 O533 1.263 . S
C551 O534 1.252 . S
C551 C545 1.500 . S
C552 H514 0.930 . S
C552 C528 1.417 . S
C552 C553 1.329 . S
C553 C523 1.437 . S
C553 H524 0.929 . S
C553 C552 1.329 . S
H554 C527 0.931 . S
C555 O537 1.265 . S
C555 O538 1.242 . S
C556 O541 1.261 1_655 S
C556 O542 1.252 . S
C557 C560 1.394 . S
C557 C562 1.370 . S
C557 C563 1.500 . S
C558 C561 1.383 . S
C558 C562 1.395 . S
C559 C560 1.396 . S
C559 C561 1.365 . S
C559 H568 0.929 . S
C560 C557 1.394 . S
C560 C559 1.396 . S
C560 H569 0.930 . S
C561 C558 1.383 . S
C561 C559 1.365 . S
C561 H570 0.931 . S
C562 C557 1.370 . S
C562 C558 1.395 . S
C562 H571 0.930 . S
C563 Gd499 2.805 . S
C563 O539 1.263 . S
C563 O540 1.252 . S
C563 C557 1.500 . S
H564 C547 0.929 . S
H565 C548 0.930 . S
H566 C549 0.931 . S
H567 C550 0.930 . S
H568 C559 0.929 . S
H569 C560 0.930 . S
H570 C561 0.931 . S
H571 C562 0.930 . S
C572 C574 1.422 . S
C572 C576 1.415 . S
C572 N578 1.369 . S
C573 C574 1.421 . S
C573 C575 1.417 . S
C573 C585 1.422 . S
C574 C572 1.422 . S
C574 C573 1.421 . S
C574 N584 1.359 . S
C575 C573 1.417 . S
C575 C577 1.329 . S
C575 H594 0.930 . S
C576 C572 1.415 . S
C576 C577 1.437 . S
C576 C580 1.413 . S
C577 C575 1.329 . S
C577 C576 1.437 . S
C577 H599 0.929 . S
N578 C572 1.369 . S
N578 C579 1.338 . S
N578 Gd583 2.622 . S
C579 N578 1.338 . S
C579 C581 1.378 . S
C579 H591 0.929 . S
C580 C576 1.413 . S
C580 C581 1.348 . S
C580 H596 0.931 . S
C581 C579 1.378 . S
C581 C580 1.348 . S
C581 H597 0.930 . S
Gd582 N602 2.622 . S
Gd582 N609 2.570 . S
Gd582 O616 2.353 . S
Gd582 O617 2.468 . S
Gd582 O618 2.427 . S
Gd582 O620 2.388 . S
Gd582 O621 2.386 . S
Gd582 O625 2.307 . S
Gd582 C635 2.805 . S
Gd583 N578 2.622 . S
Gd583 N584 2.570 . S
Gd583 O615 2.386 . S
Gd583 O619 2.307 . S
Gd583 O622 2.353 . S
Gd583 O623 2.468 . S
Gd583 O624 2.427 . S
Gd583 O626 2.388 . S
Gd583 C647 2.805 . S
N584 C574 1.359 . S
N584 Gd583 2.570 . S
N584 C586 1.343 . S
C585 C573 1.422 . S
C585 C587 1.321 . S
C585 H593 0.931 . S
C586 N584 1.343 . S
C586 C587 1.390 . S
C586 H588 0.931 . S
C587 C585 1.321 . S
C587 C586 1.390 . S
C587 H589 0.930 . S
H588 C586 0.931 . S
H589 C587 0.930 . S
H590 C613 0.931 . S
H591 C579 0.929 . S
H592 C614 0.930 . S
H593 C585 0.931 . S
H594 C575 0.930 . S
H595 C604 0.929 . S
H596 C580 0.931 . S
H597 C581 0.930 . S
H598 C636 0.930 . S
H599 C577 0.929 . S
H600 C605 0.931 . S
H601 C606 0.930 . S
N602 Gd582 2.622 . S
N602 C603 1.369 . S
N602 C604 1.338 . S
C603 N602 1.369 . S
C603 C607 1.415 . S
C603 C610 1.422 . S
C604 H595 0.929 . S
C604 N602 1.338 . S
C604 C606 1.378 . S
C605 H600 0.931 . S
C605 C606 1.348 . S
C605 C607 1.413 . S
C606 H601 0.930 . S
C606 C604 1.378 . S
C606 C605 1.348 . S
C607 C603 1.415 . S
C607 C605 1.413 . S
C607 C637 1.437 . S
H608 C637 0.929 . S
N609 Gd582 2.570 . S
N609 C610 1.359 . S
N609 C613 1.343 . S
C610 C603 1.422 . S
C610 N609 1.359 . S
C610 C612 1.421 . S
C611 C612 1.422 . S
C611 C614 1.321 . S
C611 H638 0.931 . S
C612 C610 1.421 . S
C612 C611 1.422 . S
C612 C636 1.417 . S
C613 H590 0.931 . S
C613 N609 1.343 . S
C613 C614 1.390 . S
C614 H592 0.930 . S
C614 C611 1.321 . S
C614 C613 1.390 . S
O615 Gd583 2.386 . S
O615 C627 1.265 . S
O616 Gd582 2.353 . S
O616 C627 1.242 . S
O617 Gd582 2.468 . S
O617 C635 1.263 . S
O618 Gd582 2.427 . S
O618 C635 1.252 . S
O619 Gd583 2.307 . S
O619 C628 1.261 . S
O620 Gd582 2.388 . S
O620 C628 1.252 . S
O621 Gd582 2.386 . S
O621 C639 1.265 . S
O622 Gd583 2.353 . S
O622 C639 1.242 . S
O623 Gd583 2.468 . S
O623 C647 1.263 . S
O624 Gd583 2.427 . S
O624 C647 1.252 . S
O625 Gd582 2.307 . S
O625 C640 1.261 . S
O626 Gd583 2.388 . S
O626 C640 1.252 . S
C627 O615 1.265 . S
C627 O616 1.242 . S
C628 O619 1.261 . S
C628 O620 1.252 . S
C629 C632 1.394 . S
C629 C634 1.370 . S
C629 C635 1.500 . S
C630 C633 1.383 . S
C630 C634 1.395 . S
C631 C632 1.396 . S
C631 C633 1.365 . S
C631 H648 0.929 . S
C632 C629 1.394 . S
C632 C631 1.396 . S
C632 H649 0.930 . S
C633 C630 1.383 . S
C633 C631 1.365 . S
C633 H650 0.931 . S
C634 C629 1.370 . S
C634 C630 1.395 . S
C634 H651 0.930 . S
C635 Gd582 2.805 . S
C635 O617 1.263 . S
C635 O618 1.252 . S
C635 C629 1.500 . S
C636 H598 0.930 . S
C636 C612 1.417 . S
C636 C637 1.329 . S
C637 C607 1.437 . S
C637 H608 0.929 . S
C637 C636 1.329 . S
H638 C611 0.931 . S
C639 O621 1.265 . S
C639 O622 1.242 . S
C640 O625 1.261 . S
C640 O626 1.252 . S
C641 C644 1.394 . S
C641 C646 1.370 . S
C641 C647 1.500 . S
C642 C645 1.383 . S
C642 C646 1.395 . S
C643 C644 1.396 . S
C643 C645 1.365 . S
C643 H652 0.929 . S
C644 C641 1.394 . S
C644 C643 1.396 . S
C644 H653 0.930 . S
C645 C642 1.383 . S
C645 C643 1.365 . S
C645 H654 0.931 . S
C646 C641 1.370 . S
C646 C642 1.395 . S
C646 H655 0.930 . S
C647 Gd583 2.805 . S
C647 O623 1.263 . S
C647 O624 1.252 . S
C647 C641 1.500 . S
H648 C631 0.929 . S
H649 C632 0.930 . S
H650 C633 0.931 . S
H651 C634 0.930 . S
H652 C643 0.929 . S
H653 C644 0.930 . S
H654 C645 0.931 . S
H655 C646 0.930 . S
H656 C674 0.951 . S
H657 C676 0.951 . S
H658 C678 0.950 . S
H659 C679 0.950 . S
H660 C681 0.950 . S
H661 C684 0.950 1_565 S
H662 C685 0.950 . S
H663 C687 0.950 . S
H664 C688 0.950 . S
H665 C689 0.951 . S
H666 C691 0.951 . S
H667 C693 0.950 . S
H668 C694 0.950 . S
H669 C696 0.950 . S
H670 C699 0.950 . S
H671 C700 0.950 . S
H672 C702 0.950 . S
H673 C703 0.950 . S
C674 H656 0.951 . S
C674 C675 1.366 . S
C674 C676 1.388 1_565 S
C675 C674 1.366 . S
C675 C679 1.385 . S
C676 H657 0.951 . S
C676 C674 1.388 1_545 S
C676 C677 1.366 . S
C677 C676 1.366 . S
C677 C678 1.414 1_545 S
C677 C680 1.499 . S
C678 H658 0.950 . S
C678 C677 1.414 1_565 S
C678 C679 1.374 . S
C679 H659 0.950 . S
C679 C675 1.385 . S
C679 C678 1.374 . S
C680 C677 1.499 . S
C680 C681 1.373 . S
C680 C682 1.389 . S
C681 H660 0.950 . S
C681 C680 1.373 . S
C681 C697 1.377 . S
C682 C680 1.389 . S
C682 C683 1.524 . S
C682 C696 1.377 . S
C683 C682 1.524 . S
C683 C684 1.397 . S
C683 C688 1.363 . S
C684 H661 0.950 1_545 S
C684 C683 1.397 . S
C684 C685 1.334 1_545 S
C685 H662 0.950 . S
C685 C684 1.334 1_565 S
C685 C686 1.287 1_565 S
C686 C685 1.287 1_545 S
C686 C687 1.524 . S
C686 H705 0.913 1_545 S
C687 H663 0.950 . S
C687 C686 1.524 . S
C687 C688 1.415 . S
C688 H664 0.950 . S
C688 C683 1.363 . S
C688 C687 1.415 . S
C689 H665 0.951 . S
C689 C690 1.366 . S
C689 C691 1.388 . S
C690 C689 1.366 . S
C690 C694 1.385 . S
C691 H666 0.951 . S
C691 C689 1.388 . S
C691 C692 1.366 . S
C692 C691 1.366 . S
C692 C693 1.414 . S
C692 C695 1.499 . S
C693 H667 0.950 . S
C693 C692 1.414 . S
C693 C694 1.374 . S
C694 H668 0.950 . S
C694 C690 1.385 . S
C694 C693 1.374 . S
C695 C692 1.499 . S
C695 C696 1.373 . S
C695 C697 1.389 . S
C696 H669 0.950 . S
C696 C682 1.377 . S
C696 C695 1.373 . S
C697 C681 1.377 . S
C697 C695 1.389 . S
C697 C698 1.524 . S
C698 C697 1.524 . S
C698 C699 1.397 . S
C698 C703 1.363 . S
C699 H670 0.950 . S
C699 C698 1.397 . S
C699 C700 1.334 . S
C700 H671 0.950 . S
C700 C699 1.334 . S
C700 C701 1.287 . S
C701 C700 1.287 . S
C701 C702 1.524 . S
C701 H704 0.999 . S
C702 H672 0.950 . S
C702 C701 1.524 . S
C702 C703 1.415 . S
C703 H673 0.950 . S
C703 C698 1.363 . S
C703 C702 1.415 . S
H704 C701 0.999 . S
H705 C686 0.913 1_565 S
H706 C724 0.951 . S
H707 C726 0.951 . S
H708 C728 0.950 . S
H709 C729 0.950 . S
H710 C731 0.950 . S
H711 C734 0.950 . S
H712 C735 0.950 . S
H713 C737 0.950 . S
H714 C738 0.950 . S
H715 C739 0.951 . S
H716 C741 0.951 . S
H717 C743 0.950 . S
H718 C744 0.950 . S
H719 C746 0.950 . S
H720 C749 0.950 . S
H721 C750 0.950 . S
H722 C752 0.950 . S
H723 C753 0.950 . S
C724 H706 0.951 . S
C724 C725 1.366 . S
C724 C726 1.388 . S
C725 C724 1.366 . S
C725 C729 1.385 . S
C726 H707 0.951 . S
C726 C724 1.388 . S
C726 C727 1.366 . S
C727 C726 1.366 . S
C727 C728 1.414 . S
C727 C730 1.499 . S
C728 H708 0.950 . S
C728 C727 1.414 . S
C728 C729 1.374 . S
C729 H709 0.950 . S
C729 C725 1.385 . S
C729 C728 1.374 . S
C730 C727 1.499 . S
C730 C731 1.373 . S
C730 C732 1.389 . S
C731 H710 0.950 . S
C731 C730 1.373 . S
C731 C747 1.377 . S
C732 C730 1.389 . S
C732 C733 1.524 . S
C732 C746 1.377 . S
C733 C732 1.524 . S
C733 C734 1.397 . S
C733 C738 1.363 . S
C734 H711 0.950 . S
C734 C733 1.397 . S
C734 C735 1.334 . S
C735 H712 0.950 . S
C735 C734 1.334 . S
C735 C736 1.287 . S
C736 C735 1.287 . S
C736 C737 1.524 . S
C736 H755 0.913 . S
C737 H713 0.950 . S
C737 C736 1.524 . S
C737 C738 1.415 . S
C738 H714 0.950 . S
C738 C733 1.363 . S
C738 C737 1.415 . S
C739 H715 0.951 . S
C739 C740 1.366 . S
C739 C741 1.388 . S
C740 C739 1.366 . S
C740 C744 1.385 . S
C741 H716 0.951 . S
C741 C739 1.388 . S
C741 C742 1.366 . S
C742 C741 1.366 . S
C742 C743 1.414 . S
C742 C745 1.499 . S
C743 H717 0.950 . S
C743 C742 1.414 . S
C743 C744 1.374 . S
C744 H718 0.950 . S
C744 C740 1.385 . S
C744 C743 1.374 . S
C745 C742 1.499 . S
C745 C746 1.373 . S
C745 C747 1.389 . S
C746 H719 0.950 . S
C746 C732 1.377 . S
C746 C745 1.373 . S
C747 C731 1.377 . S
C747 C745 1.389 . S
C747 C748 1.524 . S
C748 C747 1.524 . S
C748 C749 1.397 . S
C748 C753 1.363 . S
C749 H720 0.950 . S
C749 C748 1.397 . S
C749 C750 1.334 . S
C750 H721 0.950 . S
C750 C749 1.334 . S
C750 C751 1.287 . S
C751 C750 1.287 . S
C751 C752 1.524 . S
C751 H754 0.999 . S
C752 H722 0.950 . S
C752 C751 1.524 . S
C752 C753 1.415 . S
C753 H723 0.950 . S
C753 C748 1.363 . S
C753 C752 1.415 . S
H754 C751 0.999 . S
H755 C736 0.913 . S
H756 C774 0.951 . S
H757 C776 0.951 . S
H758 C778 0.950 . S
H759 C779 0.950 . S
H760 C781 0.950 . S
H761 C784 0.950 . S
H762 C785 0.950 . S
H763 C787 0.950 . S
H764 C788 0.950 . S
H765 C789 0.951 . S
H766 C791 0.951 . S
H767 C793 0.950 . S
H768 C794 0.950 . S
H769 C796 0.950 . S
H770 C799 0.950 . S
H771 C800 0.950 . S
H772 C802 0.950 . S
H773 C803 0.950 . S
C774 H756 0.951 . S
C774 C775 1.366 . S
C774 C776 1.388 . S
C775 C774 1.366 . S
C775 C779 1.385 . S
C776 H757 0.951 . S
C776 C774 1.388 . S
C776 C777 1.366 . S
C777 C776 1.366 . S
C777 C778 1.414 . S
C777 C780 1.499 . S
C778 H758 0.950 . S
C778 C777 1.414 . S
C778 C779 1.374 . S
C779 H759 0.950 . S
C779 C775 1.385 . S
C779 C778 1.374 . S
C780 C777 1.499 . S
C780 C781 1.373 . S
C780 C782 1.389 . S
C781 H760 0.950 . S
C781 C780 1.373 . S
C781 C797 1.377 . S
C782 C780 1.389 . S
C782 C783 1.524 . S
C782 C796 1.377 . S
C783 C782 1.524 . S
C783 C784 1.397 . S
C783 C788 1.363 . S
C784 H761 0.950 . S
C784 C783 1.397 . S
C784 C785 1.334 . S
C785 H762 0.950 . S
C785 C784 1.334 . S
C785 C786 1.287 . S
C786 C785 1.287 . S
C786 C787 1.524 . S
C786 H805 0.913 . S
C787 H763 0.950 . S
C787 C786 1.524 . S
C787 C788 1.415 . S
C788 H764 0.950 . S
C788 C783 1.363 . S
C788 C787 1.415 . S
C789 H765 0.951 . S
C789 C790 1.366 . S
C789 C791 1.388 . S
C790 C789 1.366 . S
C790 C794 1.385 . S
C791 H766 0.951 . S
C791 C789 1.388 . S
C791 C792 1.366 . S
C792 C791 1.366 . S
C792 C793 1.414 . S
C792 C795 1.499 . S
C793 H767 0.950 . S
C793 C792 1.414 . S
C793 C794 1.374 . S
C794 H768 0.950 . S
C794 C790 1.385 . S
C794 C793 1.374 . S
C795 C792 1.499 . S
C795 C796 1.373 . S
C795 C797 1.389 . S
C796 H769 0.950 . S
C796 C782 1.377 . S
C796 C795 1.373 . S
C797 C781 1.377 . S
C797 C795 1.389 . S
C797 C798 1.524 . S
C798 C797 1.524 . S
C798 C799 1.397 . S
C798 C803 1.363 . S
C799 H770 0.950 . S
C799 C798 1.397 . S
C799 C800 1.334 . S
C800 H771 0.950 . S
C800 C799 1.334 . S
C800 C801 1.287 . S
C801 C800 1.287 . S
C801 C802 1.524 . S
C801 H804 0.999 . S
C802 H772 0.950 . S
C802 C801 1.524 . S
C802 C803 1.415 . S
C803 H773 0.950 . S
C803 C798 1.363 . S
C803 C802 1.415 . S
H804 C801 0.999 . S
H805 C786 0.913 . S
H806 C824 0.951 . S
H807 C826 0.951 . S
H808 C828 0.950 . S
H809 C829 0.950 . S
H810 C831 0.950 . S
H811 C834 0.950 . S
H812 C835 0.950 . S
H813 C837 0.950 . S
H814 C838 0.950 . S
H815 C839 0.951 . S
H816 C841 0.951 . S
H817 C843 0.950 . S
H818 C844 0.950 . S
H819 C846 0.950 . S
H820 C849 0.950 . S
H821 C850 0.950 . S
H822 C852 0.950 . S
H823 C853 0.950 . S
C824 H806 0.951 . S
C824 C825 1.366 . S
C824 C826 1.388 . S
C825 C824 1.366 . S
C825 C829 1.385 . S
C826 H807 0.951 . S
C826 C824 1.388 . S
C826 C827 1.366 1_565 S
C827 C826 1.366 1_545 S
C827 C828 1.414 . S
C827 C830 1.499 . S
C828 H808 0.950 . S
C828 C827 1.414 . S
C828 C829 1.374 1_545 S
C829 H809 0.950 . S
C829 C825 1.385 . S
C829 C828 1.374 1_565 S
C830 C827 1.499 . S
C830 C831 1.373 . S
C830 C832 1.389 . S
C831 H810 0.950 . S
C831 C830 1.373 . S
C831 C847 1.377 . S
C832 C830 1.389 . S
C832 C833 1.524 1_545 S
C832 C846 1.377 . S
C833 C832 1.524 1_565 S
C833 C834 1.397 . S
C833 C838 1.363 . S
C834 H811 0.950 . S
C834 C833 1.397 . S
C834 C835 1.334 . S
C835 H812 0.950 . S
C835 C834 1.334 . S
C835 C836 1.287 . S
C836 C835 1.287 . S
C836 C837 1.524 . S
C836 H855 0.913 . S
C837 H813 0.950 . S
C837 C836 1.524 . S
C837 C838 1.415 . S
C838 H814 0.950 . S
C838 C833 1.363 . S
C838 C837 1.415 . S
C839 H815 0.951 . S
C839 C840 1.366 . S
C839 C841 1.388 . S
C840 C839 1.366 . S
C840 C844 1.385 . S
C841 H816 0.951 . S
C841 C839 1.388 . S
C841 C842 1.366 . S
C842 C841 1.366 . S
C842 C843 1.414 . S
C842 C845 1.499 . S
C843 H817 0.950 . S
C843 C842 1.414 . S
C843 C844 1.374 . S
C844 H818 0.950 . S
C844 C840 1.385 . S
C844 C843 1.374 . S
C845 C842 1.499 . S
C845 C846 1.373 . S
C845 C847 1.389 . S
C846 H819 0.950 . S
C846 C832 1.377 . S
C846 C845 1.373 . S
C847 C831 1.377 . S
C847 C845 1.389 . S
C847 C848 1.524 . S
C848 C847 1.524 . S
C848 C849 1.397 . S
C848 C853 1.363 . S
C849 H820 0.950 . S
C849 C848 1.397 . S
C849 C850 1.334 . S
C850 H821 0.950 . S
C850 C849 1.334 . S
C850 C851 1.287 . S
C851 C850 1.287 . S
C851 C852 1.524 . S
C851 H854 0.999 . S
C852 H822 0.950 . S
C852 C851 1.524 . S
C852 C853 1.415 . S
C853 H823 0.950 . S
C853 C848 1.363 . S
C853 C852 1.415 . S
H854 C851 0.999 . S
H855 C836 0.913 . S
H856 C874 0.951 . S
H857 C876 0.951 . S
H858 C878 0.950 . S
H859 C879 0.950 1_565 S
H860 C881 0.950 . S
H861 C884 0.950 . S
H862 C885 0.950 . S
H863 C887 0.927 1_545 S
H864 C888 0.950 . S
H865 C889 0.951 . S
H866 C891 0.951 . S
H867 C893 0.950 . S
H868 C894 0.950 1_455 S
H869 C896 0.950 . S
H870 C899 0.950 . S
H871 C900 0.950 . S
H872 C902 0.950 . S
H873 C903 0.950 . S
C874 H856 0.951 . S
C874 C875 1.366 . S
C874 C876 1.388 . S
C875 C874 1.366 . S
C875 C879 1.385 . S
C876 H857 0.951 . S
C876 C874 1.388 . S
C876 C877 1.366 1_545 S
C877 C876 1.366 1_565 S
C877 C878 1.414 . S
C877 C880 1.499 . S
C878 H858 0.950 . S
C878 C877 1.414 . S
C878 C879 1.374 1_565 S
C879 H859 0.950 1_545 S
C879 C875 1.385 . S
C879 C878 1.374 1_545 S
C880 C877 1.499 . S
C880 C881 1.373 . S
C880 C882 1.389 . S
C881 H860 0.950 . S
C881 C880 1.373 . S
C881 C897 1.377 . S
C882 C880 1.389 . S
C882 C883 1.524 . S
C882 C896 1.377 . S
C883 C882 1.524 . S
C883 C884 1.397 . S
C883 C888 1.363 . S
C884 H861 0.950 . S
C884 C883 1.397 . S
C884 C885 1.334 . S
C885 H862 0.950 . S
C885 C884 1.334 . S
C885 C886 1.287 . S
C886 C885 1.287 . S
C886 C887 1.524 1_655 S
C886 H905 0.913 1_655 S
C887 H863 0.927 1_565 S
C887 C886 1.524 1_455 S
C887 C888 1.415 1_455 S
C888 H864 0.950 . S
C888 C883 1.363 . S
C888 C887 1.415 1_655 S
C889 H865 0.951 . S
C889 C890 1.366 . S
C889 C891 1.388 . S
C890 C889 1.366 . S
C890 C894 1.385 . S
C891 H866 0.951 . S
C891 C889 1.388 . S
C891 C892 1.366 . S
C892 C891 1.366 . S
C892 C893 1.414 . S
C892 C895 1.499 . S
C893 H867 0.950 . S
C893 C892 1.414 . S
C893 C894 1.374 . S
C894 H868 0.950 1_655 S
C894 C890 1.385 . S
C894 C893 1.374 . S
C895 C892 1.499 . S
C895 C896 1.373 . S
C895 C897 1.389 . S
C896 H869 0.950 . S
C896 C882 1.377 . S
C896 C895 1.373 . S
C897 C881 1.377 . S
C897 C895 1.389 . S
C897 C898 1.524 . S
C898 C897 1.524 . S
C898 C899 1.397 . S
C898 C903 1.363 . S
C899 H870 0.950 . S
C899 C898 1.397 . S
C899 C900 1.334 . S
C900 H871 0.950 . S
C900 C899 1.334 . S
C900 C901 1.287 . S
C901 C900 1.287 . S
C901 C902 1.524 . S
C901 H904 0.999 . S
C902 H872 0.950 . S
C902 C901 1.524 . S
C902 C903 1.415 . S
C903 H873 0.950 . S
C903 C898 1.363 . S
C903 C902 1.415 . S
H904 C901 0.999 . S
H905 C886 0.913 1_455 S
H906 C924 0.951 . S
H907 C926 0.951 . S
H908 C928 0.950 . S
H909 C929 0.950 . S
H910 C931 0.950 . S
H911 C934 0.950 . S
H912 C935 0.950 . S
H913 C937 0.950 . S
H914 C938 0.950 . S
H915 C939 0.951 . S
H916 C941 0.951 . S
H917 C943 0.950 . S
H918 C944 0.950 . S
H919 C946 0.950 . S
H920 C949 0.950 . S
H921 C950 0.950 . S
H922 C952 0.950 . S
H923 C953 0.950 . S
C924 H906 0.951 . S
C924 C925 1.366 . S
C924 C926 1.388 . S
C925 C924 1.366 . S
C925 C929 1.385 . S
C926 H907 0.951 . S
C926 C924 1.388 . S
C926 C927 1.366 . S
C927 C926 1.366 . S
C927 C928 1.414 . S
C927 C930 1.499 . S
C928 H908 0.950 . S
C928 C927 1.414 . S
C928 C929 1.374 . S
C929 H909 0.950 . S
C929 C925 1.385 . S
C929 C928 1.374 . S
C930 C927 1.499 . S
C930 C931 1.373 . S
C930 C932 1.389 . S
C931 H910 0.950 . S
C931 C930 1.373 . S
C931 C947 1.377 . S
C932 C930 1.389 . S
C932 C933 1.524 . S
C932 C946 1.377 . S
C933 C932 1.524 . S
C933 C934 1.397 . S
C933 C938 1.363 . S
C934 H911 0.950 . S
C934 C933 1.397 . S
C934 C935 1.334 . S
C935 H912 0.950 . S
C935 C934 1.334 . S
C935 C936 1.287 . S
C936 C935 1.287 . S
C936 C937 1.524 . S
C936 H955 0.913 . S
C937 H913 0.950 . S
C937 C936 1.524 . S
C937 C938 1.415 . S
C938 H914 0.950 . S
C938 C933 1.363 . S
C938 C937 1.415 . S
C939 H915 0.951 . S
C939 C940 1.366 . S
C939 C941 1.388 . S
C940 C939 1.366 . S
C940 C944 1.385 . S
C941 H916 0.951 . S
C941 C939 1.388 . S
C941 C942 1.366 . S
C942 C941 1.366 . S
C942 C943 1.414 . S
C942 C945 1.499 . S
C943 H917 0.950 . S
C943 C942 1.414 . S
C943 C944 1.374 . S
C944 H918 0.950 . S
C944 C940 1.385 . S
C944 C943 1.374 . S
C945 C942 1.499 . S
C945 C946 1.373 . S
C945 C947 1.389 . S
C946 H919 0.950 . S
C946 C932 1.377 . S
C946 C945 1.373 . S
C947 C931 1.377 . S
C947 C945 1.389 . S
C947 C948 1.524 . S
C948 C947 1.524 . S
C948 C949 1.397 . S
C948 C953 1.363 . S
C949 H920 0.950 . S
C949 C948 1.397 . S
C949 C950 1.334 . S
C950 H921 0.950 . S
C950 C949 1.334 . S
C950 C951 1.287 . S
C951 C950 1.287 . S
C951 C952 1.524 . S
C951 H954 0.999 . S
C952 H922 0.950 . S
C952 C951 1.524 . S
C952 C953 1.415 . S
C953 H923 0.950 . S
C953 C948 1.363 . S
C953 C952 1.415 . S
H954 C951 0.999 . S
H955 C936 0.913 . S
H956 C974 0.951 . S
H957 C976 0.951 . S
H958 C978 0.950 . S
H959 C979 0.950 . S
H960 C981 0.950 . S
H961 C984 0.950 . S
H962 C985 0.950 . S
H963 C987 0.950 . S
H964 C988 0.950 . S
H965 C989 0.951 . S
H966 C991 0.951 . S
H967 C993 0.950 . S
H968 C994 0.950 . S
H969 C996 0.950 . S
H970 C999 0.950 . S
H971 C1000 0.950 . S
H972 C1002 0.950 . S
H973 C1003 0.950 . S
C974 H956 0.951 . S
C974 C975 1.366 . S
C974 C976 1.388 . S
C975 C974 1.366 . S
C975 C979 1.385 . S
C976 H957 0.951 . S
C976 C974 1.388 . S
C976 C977 1.366 . S
C977 C976 1.366 . S
C977 C978 1.414 . S
C977 C980 1.499 . S
C978 H958 0.950 . S
C978 C977 1.414 . S
C978 C979 1.374 . S
C979 H959 0.950 . S
C979 C975 1.385 . S
C979 C978 1.374 . S
C980 C977 1.499 . S
C980 C981 1.373 . S
C980 C982 1.389 . S
C981 H960 0.950 . S
C981 C980 1.373 . S
C981 C997 1.377 . S
C982 C980 1.389 . S
C982 C983 1.524 . S
C982 C996 1.377 . S
C983 C982 1.524 . S
C983 C984 1.397 . S
C983 C988 1.363 . S
C984 H961 0.950 . S
C984 C983 1.397 . S
C984 C985 1.334 . S
C985 H962 0.950 . S
C985 C984 1.334 . S
C985 C986 1.287 . S
C986 C985 1.287 . S
C986 C987 1.524 . S
C986 H1005 0.913 . S
C987 H963 0.950 . S
C987 C986 1.524 . S
C987 C988 1.415 . S
C988 H964 0.950 . S
C988 C983 1.363 . S
C988 C987 1.415 . S
C989 H965 0.951 . S
C989 C990 1.366 . S
C989 C991 1.388 . S
C990 C989 1.366 . S
C990 C994 1.385 . S
C991 H966 0.951 . S
C991 C989 1.388 . S
C991 C992 1.366 . S
C992 C991 1.366 . S
C992 C993 1.414 . S
C992 C995 1.499 . S
C993 H967 0.950 . S
C993 C992 1.414 . S
C993 C994 1.374 . S
C994 H968 0.950 . S
C994 C990 1.385 . S
C994 C993 1.374 . S
C995 C992 1.499 . S
C995 C996 1.373 . S
C995 C997 1.389 . S
C996 H969 0.950 . S
C996 C982 1.377 . S
C996 C995 1.373 . S
C997 C981 1.377 . S
C997 C995 1.389 . S
C997 C998 1.524 . S
C998 C997 1.524 . S
C998 C999 1.397 . S
C998 C1003 1.363 . S
C999 H970 0.950 . S
C999 C998 1.397 . S
C999 C1000 1.334 . S
C1000 H971 0.950 . S
C1000 C999 1.334 . S
C1000 C1001 1.287 . S
C1001 C1000 1.287 . S
C1001 C1002 1.524 . S
C1001 H1004 0.999 . S
C1002 H972 0.950 . S
C1002 C1001 1.524 . S
C1002 C1003 1.415 . S
C1003 H973 0.950 . S
C1003 C998 1.363 . S
C1003 C1002 1.415 . S
H1004 C1001 0.999 . S
H1005 C986 0.913 . S
H1006 C1024 0.951 . S
H1007 C1026 0.951 . S
H1008 C1028 0.956 . S
H1009 C1029 0.950 . S
H1010 C1031 0.950 . S
H1011 C1034 0.950 . S
H1012 C1035 0.950 . S
H1013 C1037 0.950 . S
H1014 C1038 0.950 . S
H1015 C1039 0.951 . S
H1016 C1041 0.951 . S
H1017 C1043 0.950 . S
H1018 C1044 0.950 . S
H1019 C1046 0.950 . S
H1020 C1049 0.950 . S
H1021 C1050 0.950 . S
H1022 C1052 0.950 . S
H1023 C1053 0.950 . S
C1024 H1006 0.951 . S
C1024 C1025 1.366 . S
C1024 C1026 1.388 1_545 S
C1025 C1024 1.366 . S
C1025 C1029 1.385 . S
C1026 H1007 0.951 . S
C1026 C1024 1.388 1_565 S
C1026 C1027 1.366 . S
C1027 C1026 1.366 . S
C1027 C1028 1.414 1_565 S
C1027 C1030 1.499 . S
C1028 H1008 0.956 . S
C1028 C1027 1.414 1_545 S
C1028 C1029 1.374 . S
C1029 H1009 0.950 . S
C1029 C1025 1.385 . S
C1029 C1028 1.374 . S
C1030 C1027 1.499 . S
C1030 C1031 1.373 . S
C1030 C1032 1.389 . S
C1031 H1010 0.950 . S
C1031 C1030 1.373 . S
C1031 C1047 1.377 . S
C1032 C1030 1.389 . S
C1032 C1033 1.524 . S
C1032 C1046 1.377 . S
C1033 C1032 1.524 . S
C1033 C1034 1.397 . S
C1033 C1038 1.363 . S
C1034 H1011 0.950 . S
C1034 C1033 1.397 . S
C1034 C1035 1.334 . S
C1035 H1012 0.950 . S
C1035 C1034 1.334 . S
C1035 C1036 1.287 . S
C1036 C1035 1.287 . S
C1036 C1037 1.524 . S
C1036 H1055 0.913 . S
C1037 H1013 0.950 . S
C1037 C1036 1.524 . S
C1037 C1038 1.415 . S
C1038 H1014 0.950 . S
C1038 C1033 1.363 . S
C1038 C1037 1.415 . S
C1039 H1015 0.951 . S
C1039 C1040 1.366 . S
C1039 C1041 1.388 . S
C1040 C1039 1.366 . S
C1040 C1044 1.385 . S
C1041 H1016 0.951 . S
C1041 C1039 1.388 . S
C1041 C1042 1.366 . S
C1042 C1041 1.366 . S
C1042 C1043 1.414 . S
C1042 C1045 1.499 . S
C1043 H1017 0.950 . S
C1043 C1042 1.414 . S
C1043 C1044 1.374 . S
C1044 H1018 0.950 . S
C1044 C1040 1.385 . S
C1044 C1043 1.374 . S
C1045 C1042 1.499 . S
C1045 C1046 1.373 . S
C1045 C1047 1.389 . S
C1046 H1019 0.950 . S
C1046 C1032 1.377 . S
C1046 C1045 1.373 . S
C1047 C1031 1.377 . S
C1047 C1045 1.389 . S
C1047 C1048 1.524 . S
C1048 C1047 1.524 . S
C1048 C1049 1.397 . S
C1048 C1053 1.363 . S
C1049 H1020 0.950 . S
C1049 C1048 1.397 . S
C1049 C1050 1.334 . S
C1050 H1021 0.950 . S
C1050 C1049 1.334 . S
C1050 C1051 1.287 . S
C1051 C1050 1.287 . S
C1051 C1052 1.524 . S
C1051 H1054 0.999 . S
C1052 H1022 0.950 . S
C1052 C1051 1.524 . S
C1052 C1053 1.415 . S
C1053 H1023 0.950 . S
C1053 C1048 1.363 . S
C1053 C1052 1.415 . S
H1054 C1051 0.999 . S
H1055 C1036 0.913 . S
H1056 C1074 0.951 . S
H1057 C1076 0.951 . S
H1058 C1078 0.950 . S
H1059 C1079 0.950 . S
H1060 C1081 0.950 . S
H1061 C1084 0.950 . S
H1062 C1085 0.950 . S
H1063 C1087 0.950 . S
H1064 C1088 0.950 . S
H1065 C1089 0.951 . S
H1066 C1091 0.951 . S
H1067 C1093 0.950 . S
H1068 C1094 0.950 . S
H1069 C1096 0.950 . S
H1070 C1099 0.950 . S
H1071 C1100 0.950 . S
H1072 C1102 0.950 . S
H1073 C1103 0.950 . S
C1074 H1056 0.951 . S
C1074 C1075 1.366 . S
C1074 C1076 1.388 . S
C1075 C1074 1.366 . S
C1075 C1079 1.385 . S
C1076 H1057 0.951 . S
C1076 C1074 1.388 . S
C1076 C1077 1.366 . S
C1077 C1076 1.366 . S
C1077 C1078 1.414 . S
C1077 C1080 1.499 . S
C1078 H1058 0.950 . S
C1078 C1077 1.414 . S
C1078 C1079 1.374 . S
C1079 H1059 0.950 . S
C1079 C1075 1.385 . S
C1079 C1078 1.374 . S
C1080 C1077 1.499 . S
C1080 C1081 1.373 . S
C1080 C1082 1.389 . S
C1081 H1060 0.950 . S
C1081 C1080 1.373 . S
C1081 C1097 1.377 . S
C1082 C1080 1.389 . S
C1082 C1083 1.524 . S
C1082 C1096 1.377 . S
C1083 C1082 1.524 . S
C1083 C1084 1.397 . S
C1083 C1088 1.363 . S
C1084 H1061 0.950 . S
C1084 C1083 1.397 . S
C1084 C1085 1.334 . S
C1085 H1062 0.950 . S
C1085 C1084 1.334 . S
C1085 C1086 1.287 . S
C1086 C1085 1.287 . S
C1086 C1087 1.524 . S
C1086 H1105 0.913 . S
C1087 H1063 0.950 . S
C1087 C1086 1.524 . S
C1087 C1088 1.415 . S
C1088 H1064 0.950 . S
C1088 C1083 1.363 . S
C1088 C1087 1.415 . S
C1089 H1065 0.951 . S
C1089 C1090 1.366 . S
C1089 C1091 1.388 . S
C1090 C1089 1.366 . S
C1090 C1094 1.385 . S
C1091 H1066 0.951 . S
C1091 C1089 1.388 . S
C1091 C1092 1.366 . S
C1092 C1091 1.366 . S
C1092 C1093 1.414 . S
C1092 C1095 1.499 . S
C1093 H1067 0.950 . S
C1093 C1092 1.414 . S
C1093 C1094 1.374 . S
C1094 H1068 0.950 . S
C1094 C1090 1.385 . S
C1094 C1093 1.374 . S
C1095 C1092 1.499 . S
C1095 C1096 1.373 . S
C1095 C1097 1.389 . S
C1096 H1069 0.950 . S
C1096 C1082 1.377 . S
C1096 C1095 1.373 . S
C1097 C1081 1.377 . S
C1097 C1095 1.389 . S
C1097 C1098 1.524 . S
C1098 C1097 1.524 . S
C1098 C1099 1.397 . S
C1098 C1103 1.363 . S
C1099 H1070 0.950 . S
C1099 C1098 1.397 . S
C1099 C1100 1.334 . S
C1100 H1071 0.950 . S
C1100 C1099 1.334 . S
C1100 C1101 1.287 . S
C1101 C1100 1.287 . S
C1101 C1102 1.524 . S
C1101 H1104 0.999 . S
C1102 H1072 0.950 . S
C1102 C1101 1.524 . S
C1102 C1103 1.415 . S
C1103 H1073 0.950 . S
C1103 C1098 1.363 . S
C1103 C1102 1.415 . S
H1104 C1101 0.999 . S
H1105 C1086 0.913 . S
H1106 C1124 0.951 . S
H1107 C1126 0.951 . S
H1108 C1128 0.950 . S
H1109 C1129 0.950 . S
H1110 C1131 0.950 . S
H1111 C1134 0.950 . S
H1112 C1135 0.950 . S
H1113 C1137 0.950 . S
H1114 C1138 0.950 . S
H1115 C1139 0.951 . S
H1116 C1141 0.951 . S
H1117 C1143 0.950 . S
H1118 C1144 0.950 . S
H1119 C1146 0.950 . S
H1120 C1149 0.950 . S
H1121 C1150 0.950 . S
H1122 C1152 0.950 . S
H1123 C1153 0.950 . S
C1124 H1106 0.951 . S
C1124 C1125 1.366 . S
C1124 C1126 1.388 . S
C1125 C1124 1.366 . S
C1125 C1129 1.385 . S
C1126 H1107 0.951 . S
C1126 C1124 1.388 . S
C1126 C1127 1.366 . S
C1127 C1126 1.366 . S
C1127 C1128 1.414 . S
C1127 C1130 1.499 . S
C1128 H1108 0.950 . S
C1128 C1127 1.414 . S
C1128 C1129 1.374 . S
C1129 H1109 0.950 . S
C1129 C1125 1.385 . S
C1129 C1128 1.374 . S
C1130 C1127 1.499 . S
C1130 C1131 1.373 . S
C1130 C1132 1.389 . S
C1131 H1110 0.950 . S
C1131 C1130 1.373 . S
C1131 C1147 1.377 . S
C1132 C1130 1.389 . S
C1132 C1133 1.524 . S
C1132 C1146 1.377 . S
C1133 C1132 1.524 . S
C1133 C1134 1.397 . S
C1133 C1138 1.363 . S
C1134 H1111 0.950 . S
C1134 C1133 1.397 . S
C1134 C1135 1.334 . S
C1135 H1112 0.950 . S
C1135 C1134 1.334 . S
C1135 C1136 1.287 . S
C1136 C1135 1.287 . S
C1136 C1137 1.524 . S
C1136 H1155 0.913 . S
C1137 H1113 0.950 . S
C1137 C1136 1.524 . S
C1137 C1138 1.415 . S
C1138 H1114 0.950 . S
C1138 C1133 1.363 . S
C1138 C1137 1.415 . S
C1139 H1115 0.951 . S
C1139 C1140 1.366 . S
C1139 C1141 1.388 . S
C1140 C1139 1.366 . S
C1140 C1144 1.385 . S
C1141 H1116 0.951 . S
C1141 C1139 1.388 . S
C1141 C1142 1.366 . S
C1142 C1141 1.366 . S
C1142 C1143 1.414 . S
C1142 C1145 1.499 . S
C1143 H1117 0.950 . S
C1143 C1142 1.414 . S
C1143 C1144 1.374 . S
C1144 H1118 0.950 . S
C1144 C1140 1.385 . S
C1144 C1143 1.374 . S
C1145 C1142 1.499 . S
C1145 C1146 1.373 . S
C1145 C1147 1.389 . S
C1146 H1119 0.950 . S
C1146 C1132 1.377 . S
C1146 C1145 1.373 . S
C1147 C1131 1.377 . S
C1147 C1145 1.389 . S
C1147 C1148 1.524 . S
C1148 C1147 1.524 . S
C1148 C1149 1.397 . S
C1148 C1153 1.363 . S
C1149 H1120 0.950 . S
C1149 C1148 1.397 . S
C1149 C1150 1.334 . S
C1150 H1121 0.950 . S
C1150 C1149 1.334 . S
C1150 C1151 1.287 . S
C1151 C1150 1.287 . S
C1151 C1152 1.524 . S
C1151 H1154 0.999 . S
C1152 H1122 0.950 . S
C1152 C1151 1.524 . S
C1152 C1153 1.415 . S
C1153 H1123 0.950 . S
C1153 C1148 1.363 . S
C1153 C1152 1.415 . S
H1154 C1151 0.999 . S
H1155 C1136 0.913 . S
H1156 C1174 0.951 . S
H1157 C1176 0.951 . S
H1158 C1178 0.950 . S
H1159 C1179 0.950 . S
H1160 C1181 0.950 . S
H1161 C1184 0.950 . S
H1162 C1185 0.950 . S
H1163 C1187 0.950 . S
H1164 C1188 0.950 . S
H1165 C1189 0.951 . S
H1166 C1191 0.951 . S
H1167 C1193 0.950 . S
H1168 C1194 0.950 . S
H1169 C1196 0.950 . S
H1170 C1199 0.950 . S
H1171 C1200 0.950 . S
H1172 C1202 0.950 . S
H1173 C1203 0.950 . S
C1174 H1156 0.951 . S
C1174 C1175 1.366 . S
C1174 C1176 1.388 . S
C1175 C1174 1.366 . S
C1175 C1179 1.385 . S
C1176 H1157 0.951 . S
C1176 C1174 1.388 . S
C1176 C1177 1.366 . S
C1177 C1176 1.366 . S
C1177 C1178 1.414 . S
C1177 C1180 1.499 . S
C1178 H1158 0.950 . S
C1178 C1177 1.414 . S
C1178 C1179 1.374 . S
C1179 H1159 0.950 . S
C1179 C1175 1.385 . S
C1179 C1178 1.374 . S
C1180 C1177 1.499 . S
C1180 C1181 1.373 . S
C1180 C1182 1.389 . S
C1181 H1160 0.950 . S
C1181 C1180 1.373 . S
C1181 C1197 1.377 . S
C1182 C1180 1.389 . S
C1182 C1183 1.524 . S
C1182 C1196 1.377 . S
C1183 C1182 1.524 . S
C1183 C1184 1.397 . S
C1183 C1188 1.363 . S
C1184 H1161 0.950 . S
C1184 C1183 1.397 . S
C1184 C1185 1.334 . S
C1185 H1162 0.950 . S
C1185 C1184 1.334 . S
C1185 C1186 1.287 . S
C1186 C1185 1.287 . S
C1186 C1187 1.524 . S
C1186 H1205 0.913 . S
C1187 H1163 0.950 . S
C1187 C1186 1.524 . S
C1187 C1188 1.415 . S
C1188 H1164 0.950 . S
C1188 C1183 1.363 . S
C1188 C1187 1.415 . S
C1189 H1165 0.951 . S
C1189 C1190 1.366 . S
C1189 C1191 1.388 . S
C1190 C1189 1.366 . S
C1190 C1194 1.385 . S
C1191 H1166 0.951 . S
C1191 C1189 1.388 . S
C1191 C1192 1.366 . S
C1192 C1191 1.366 . S
C1192 C1193 1.414 . S
C1192 C1195 1.499 . S
C1193 H1167 0.950 . S
C1193 C1192 1.414 . S
C1193 C1194 1.374 . S
C1194 H1168 0.950 . S
C1194 C1190 1.385 . S
C1194 C1193 1.374 . S
C1195 C1192 1.499 . S
C1195 C1196 1.373 . S
C1195 C1197 1.389 . S
C1196 H1169 0.950 . S
C1196 C1182 1.377 . S
C1196 C1195 1.373 . S
C1197 C1181 1.377 . S
C1197 C1195 1.389 . S
C1197 C1198 1.524 . S
C1198 C1197 1.524 . S
C1198 C1199 1.397 . S
C1198 C1203 1.363 . S
C1199 H1170 0.950 . S
C1199 C1198 1.397 . S
C1199 C1200 1.334 . S
C1200 H1171 0.950 . S
C1200 C1199 1.334 . S
C1200 C1201 1.287 . S
C1201 C1200 1.287 . S
C1201 C1202 1.524 . S
C1201 H1204 0.999 . S
C1202 H1172 0.950 . S
C1202 C1201 1.524 . S
C1202 C1203 1.415 . S
C1203 H1173 0.950 . S
C1203 C1198 1.363 . S
C1203 C1202 1.415 . S
H1204 C1201 0.999 . S
H1205 C1186 0.913 . S
H1206 C1224 0.951 . S
H1207 C1226 0.951 . S
H1208 C1228 0.950 . S
H1209 C1229 0.950 . S
H1210 C1231 0.950 . S
H1211 C1234 0.950 . S
H1212 C1235 0.950 . S
H1213 C1237 0.950 . S
H1214 C1238 0.950 . S
H1215 C1239 0.951 . S
H1216 C1241 0.951 . S
H1217 C1243 0.950 . S
H1218 C1244 0.950 . S
H1219 C1246 0.950 . S
H1220 C1249 0.950 . S
H1221 C1250 0.950 . S
H1222 C1252 0.950 . S
H1223 C1253 0.950 . S
C1224 H1206 0.951 . S
C1224 C1225 1.366 . S
C1224 C1226 1.388 . S
C1225 C1224 1.366 . S
C1225 C1229 1.385 . S
C1226 H1207 0.951 . S
C1226 C1224 1.388 . S
C1226 C1227 1.366 . S
C1227 C1226 1.366 . S
C1227 C1228 1.414 . S
C1227 C1230 1.499 . S
C1228 H1208 0.950 . S
C1228 C1227 1.414 . S
C1228 C1229 1.374 . S
C1229 H1209 0.950 . S
C1229 C1225 1.385 . S
C1229 C1228 1.374 . S
C1230 C1227 1.499 . S
C1230 C1231 1.373 . S
C1230 C1232 1.389 . S
C1231 H1210 0.950 . S
C1231 C1230 1.373 . S
C1231 C1247 1.377 . S
C1232 C1230 1.389 . S
C1232 C1233 1.524 . S
C1232 C1246 1.377 . S
C1233 C1232 1.524 . S
C1233 C1234 1.397 . S
C1233 C1238 1.363 . S
C1234 H1211 0.950 . S
C1234 C1233 1.397 . S
C1234 C1235 1.334 . S
C1235 H1212 0.950 . S
C1235 C1234 1.334 . S
C1235 C1236 1.287 . S
C1236 C1235 1.287 . S
C1236 C1237 1.524 . S
C1236 H1255 0.913 . S
C1237 H1213 0.950 . S
C1237 C1236 1.524 . S
C1237 C1238 1.415 . S
C1238 H1214 0.950 . S
C1238 C1233 1.363 . S
C1238 C1237 1.415 . S
C1239 H1215 0.951 . S
C1239 C1240 1.366 . S
C1239 C1241 1.388 . S
C1240 C1239 1.366 . S
C1240 C1244 1.385 . S
C1241 H1216 0.951 . S
C1241 C1239 1.388 . S
C1241 C1242 1.366 . S
C1242 C1241 1.366 . S
C1242 C1243 1.414 . S
C1242 C1245 1.499 . S
C1243 H1217 0.950 . S
C1243 C1242 1.414 . S
C1243 C1244 1.374 . S
C1244 H1218 0.950 . S
C1244 C1240 1.385 . S
C1244 C1243 1.374 . S
C1245 C1242 1.499 . S
C1245 C1246 1.373 . S
C1245 C1247 1.389 . S
C1246 H1219 0.950 . S
C1246 C1232 1.377 . S
C1246 C1245 1.373 . S
C1247 C1231 1.377 . S
C1247 C1245 1.389 . S
C1247 C1248 1.524 . S
C1248 C1247 1.524 . S
C1248 C1249 1.397 . S
C1248 C1253 1.363 . S
C1249 H1220 0.950 . S
C1249 C1248 1.397 . S
C1249 C1250 1.334 . S
C1250 H1221 0.950 . S
C1250 C1249 1.334 . S
C1250 C1251 1.287 . S
C1251 C1250 1.287 . S
C1251 C1252 1.524 . S
C1251 H1254 0.999 . S
C1252 H1222 0.950 . S
C1252 C1251 1.524 . S
C1252 C1253 1.415 . S
C1253 H1223 0.950 . S
C1253 C1248 1.363 . S
C1253 C1252 1.415 . S
H1254 C1251 0.999 . S
H1255 C1236 0.913 . S
H1256 C1274 0.951 . S
H1257 C1276 0.951 . S
H1258 C1278 0.950 . S
H1259 C1279 0.950 . S
H1260 C1281 0.950 . S
H1261 C1284 0.950 . S
H1262 C1285 0.950 . S
H1263 C1287 0.950 . S
H1264 C1288 0.950 . S
H1265 C1289 0.951 . S
H1266 C1291 0.951 . S
H1267 C1293 0.950 . S
H1268 C1294 0.950 . S
H1269 C1296 0.950 . S
H1270 C1299 0.950 . S
H1271 C1300 0.950 . S
H1272 C1302 0.950 . S
H1273 C1303 0.950 . S
C1274 H1256 0.951 . S
C1274 C1275 1.366 . S
C1274 C1276 1.388 . S
C1275 C1274 1.366 . S
C1275 C1279 1.385 . S
C1276 H1257 0.951 . S
C1276 C1274 1.388 . S
C1276 C1277 1.366 . S
C1277 C1276 1.366 . S
C1277 C1278 1.414 . S
C1277 C1280 1.499 . S
C1278 H1258 0.950 . S
C1278 C1277 1.414 . S
C1278 C1279 1.374 . S
C1279 H1259 0.950 . S
C1279 C1275 1.385 . S
C1279 C1278 1.374 . S
C1280 C1277 1.499 . S
C1280 C1281 1.373 . S
C1280 C1282 1.389 . S
C1281 H1260 0.950 . S
C1281 C1280 1.373 . S
C1281 C1297 1.377 . S
C1282 C1280 1.389 . S
C1282 C1283 1.524 . S
C1282 C1296 1.377 . S
C1283 C1282 1.524 . S
C1283 C1284 1.397 . S
C1283 C1288 1.363 . S
C1284 H1261 0.950 . S
C1284 C1283 1.397 . S
C1284 C1285 1.334 . S
C1285 H1262 0.950 . S
C1285 C1284 1.334 . S
C1285 C1286 1.287 . S
C1286 C1285 1.287 . S
C1286 C1287 1.524 . S
C1286 H1305 0.913 . S
C1287 H1263 0.950 . S
C1287 C1286 1.524 . S
C1287 C1288 1.415 . S
C1288 H1264 0.950 . S
C1288 C1283 1.363 . S
C1288 C1287 1.415 . S
C1289 H1265 0.951 . S
C1289 C1290 1.366 . S
C1289 C1291 1.388 . S
C1290 C1289 1.366 . S
C1290 C1294 1.385 . S
C1291 H1266 0.951 . S
C1291 C1289 1.388 . S
C1291 C1292 1.366 . S
C1292 C1291 1.366 . S
C1292 C1293 1.414 . S
C1292 C1295 1.499 . S
C1293 H1267 0.950 . S
C1293 C1292 1.414 . S
C1293 C1294 1.374 . S
C1294 H1268 0.950 . S
C1294 C1290 1.385 . S
C1294 C1293 1.374 . S
C1295 C1292 1.499 . S
C1295 C1296 1.373 . S
C1295 C1297 1.389 . S
C1296 H1269 0.950 . S
C1296 C1282 1.377 . S
C1296 C1295 1.373 . S
C1297 C1281 1.377 . S
C1297 C1295 1.389 . S
C1297 C1298 1.524 . S
C1298 C1297 1.524 . S
C1298 C1299 1.397 . S
C1298 C1303 1.363 . S
C1299 H1270 0.950 . S
C1299 C1298 1.397 . S
C1299 C1300 1.334 . S
C1300 H1271 0.950 . S
C1300 C1299 1.334 . S
C1300 C1301 1.287 . S
C1301 C1300 1.287 . S
C1301 C1302 1.524 . S
C1301 H1304 0.999 . S
C1302 H1272 0.950 . S
C1302 C1301 1.524 . S
C1302 C1303 1.415 . S
C1303 H1273 0.950 . S
C1303 C1298 1.363 . S
C1303 C1302 1.415 . S
H1304 C1301 0.999 . S
H1305 C1286 0.913 . S
H1306 C1324 0.951 . S
H1307 C1326 0.951 . S
H1308 C1328 0.950 . S
H1309 C1329 0.950 . S
H1310 C1331 0.950 . S
H1311 C1334 0.950 . S
H1312 C1335 0.950 . S
H1313 C1337 0.950 . S
H1314 C1338 0.950 . S
H1315 C1339 0.951 . S
H1316 C1341 0.951 . S
H1317 C1343 0.950 . S
H1318 C1344 0.950 . S
H1319 C1346 0.950 . S
H1320 C1349 0.950 . S
H1321 C1350 0.950 . S
H1322 C1352 0.950 . S
H1323 C1353 0.950 . S
C1324 H1306 0.951 . S
C1324 C1325 1.366 . S
C1324 C1326 1.388 . S
C1325 C1324 1.366 . S
C1325 C1329 1.385 . S
C1326 H1307 0.951 . S
C1326 C1324 1.388 . S
C1326 C1327 1.366 . S
C1327 C1326 1.366 . S
C1327 C1328 1.414 . S
C1327 C1330 1.499 . S
C1328 H1308 0.950 . S
C1328 C1327 1.414 . S
C1328 C1329 1.374 . S
C1329 H1309 0.950 . S
C1329 C1325 1.385 . S
C1329 C1328 1.374 . S
C1330 C1327 1.499 . S
C1330 C1331 1.373 . S
C1330 C1332 1.389 . S
C1331 H1310 0.950 . S
C1331 C1330 1.373 . S
C1331 C1347 1.377 . S
C1332 C1330 1.389 . S
C1332 C1333 1.524 . S
C1332 C1346 1.377 . S
C1333 C1332 1.524 . S
C1333 C1334 1.397 . S
C1333 C1338 1.363 . S
C1334 H1311 0.950 . S
C1334 C1333 1.397 . S
C1334 C1335 1.334 . S
C1335 H1312 0.950 . S
C1335 C1334 1.334 . S
C1335 C1336 1.287 . S
C1336 C1335 1.287 . S
C1336 C1337 1.524 . S
C1336 H1355 0.913 . S
C1337 H1313 0.950 . S
C1337 C1336 1.524 . S
C1337 C1338 1.415 . S
C1338 H1314 0.950 . S
C1338 C1333 1.363 . S
C1338 C1337 1.415 . S
C1339 H1315 0.951 . S
C1339 C1340 1.366 . S
C1339 C1341 1.388 . S
C1340 C1339 1.366 . S
C1340 C1344 1.385 . S
C1341 H1316 0.951 . S
C1341 C1339 1.388 . S
C1341 C1342 1.366 . S
C1342 C1341 1.366 . S
C1342 C1343 1.414 . S
C1342 C1345 1.499 . S
C1343 H1317 0.950 . S
C1343 C1342 1.414 . S
C1343 C1344 1.374 . S
C1344 H1318 0.950 . S
C1344 C1340 1.385 . S
C1344 C1343 1.374 . S
C1345 C1342 1.499 . S
C1345 C1346 1.373 . S
C1345 C1347 1.389 . S
C1346 H1319 0.950 . S
C1346 C1332 1.377 . S
C1346 C1345 1.373 . S
C1347 C1331 1.377 . S
C1347 C1345 1.389 . S
C1347 C1348 1.524 . S
C1348 C1347 1.524 . S
C1348 C1349 1.397 . S
C1348 C1353 1.363 . S
C1349 H1320 0.950 . S
C1349 C1348 1.397 . S
C1349 C1350 1.334 . S
C1350 H1321 0.950 . S
C1350 C1349 1.334 . S
C1350 C1351 1.287 . S
C1351 C1350 1.287 . S
C1351 C1352 1.524 . S
C1351 H1354 0.999 . S
C1352 H1322 0.950 . S
C1352 C1351 1.524 . S
C1352 C1353 1.415 . S
C1353 H1323 0.950 . S
C1353 C1348 1.363 . S
C1353 C1352 1.415 . S
H1354 C1351 0.999 . S
H1355 C1336 0.913 . S
H1356 C1374 0.951 . S
H1357 C1376 0.951 . S
H1358 C1378 0.950 . S
H1359 C1379 0.950 . S
H1360 C1381 0.950 . S
H1361 C1384 0.950 . S
H1362 C1385 0.950 . S
H1363 C1387 0.950 . S
H1364 C1388 0.950 . S
H1365 C1389 0.951 . S
H1366 C1391 0.951 . S
H1367 C1393 0.950 . S
H1368 C1394 0.950 . S
H1369 C1396 0.950 . S
H1370 C1399 0.950 . S
H1371 C1400 0.950 . S
H1372 C1402 0.950 . S
H1373 C1403 0.950 . S
C1374 H1356 0.951 . S
C1374 C1375 1.366 . S
C1374 C1376 1.388 . S
C1375 C1374 1.366 . S
C1375 C1379 1.385 . S
C1376 H1357 0.951 . S
C1376 C1374 1.388 . S
C1376 C1377 1.366 . S
C1377 C1376 1.366 . S
C1377 C1378 1.414 . S
C1377 C1380 1.499 . S
C1378 H1358 0.950 . S
C1378 C1377 1.414 . S
C1378 C1379 1.374 . S
C1379 H1359 0.950 . S
C1379 C1375 1.385 . S
C1379 C1378 1.374 . S
C1380 C1377 1.499 . S
C1380 C1381 1.373 . S
C1380 C1382 1.389 . S
C1381 H1360 0.950 . S
C1381 C1380 1.373 . S
C1381 C1397 1.377 . S
C1382 C1380 1.389 . S
C1382 C1383 1.524 . S
C1382 C1396 1.377 . S
C1383 C1382 1.524 . S
C1383 C1384 1.397 . S
C1383 C1388 1.363 . S
C1384 H1361 0.950 . S
C1384 C1383 1.397 . S
C1384 C1385 1.334 . S
C1385 H1362 0.950 . S
C1385 C1384 1.334 . S
C1385 C1386 1.287 . S
C1386 C1385 1.287 . S
C1386 C1387 1.524 . S
C1386 H1405 0.913 . S
C1387 H1363 0.950 . S
C1387 C1386 1.524 . S
C1387 C1388 1.415 . S
C1388 H1364 0.950 . S
C1388 C1383 1.363 . S
C1388 C1387 1.415 . S
C1389 H1365 0.951 . S
C1389 C1390 1.366 . S
C1389 C1391 1.388 . S
C1390 C1389 1.366 . S
C1390 C1394 1.385 . S
C1391 H1366 0.951 . S
C1391 C1389 1.388 . S
C1391 C1392 1.366 . S
C1392 C1391 1.366 . S
C1392 C1393 1.414 . S
C1392 C1395 1.499 . S
C1393 H1367 0.950 . S
C1393 C1392 1.414 . S
C1393 C1394 1.374 . S
C1394 H1368 0.950 . S
C1394 C1390 1.385 . S
C1394 C1393 1.374 . S
C1395 C1392 1.499 . S
C1395 C1396 1.373 . S
C1395 C1397 1.389 . S
C1396 H1369 0.950 . S
C1396 C1382 1.377 . S
C1396 C1395 1.373 . S
C1397 C1381 1.377 . S
C1397 C1395 1.389 . S
C1397 C1398 1.524 . S
C1398 C1397 1.524 . S
C1398 C1399 1.397 . S
C1398 C1403 1.363 . S
C1399 H1370 0.950 . S
C1399 C1398 1.397 . S
C1399 C1400 1.334 . S
C1400 H1371 0.950 . S
C1400 C1399 1.334 . S
C1400 C1401 1.287 . S
C1401 C1400 1.287 . S
C1401 C1402 1.524 . S
C1401 H1404 0.999 . S
C1402 H1372 0.950 . S
C1402 C1401 1.524 . S
C1402 C1403 1.415 . S
C1403 H1373 0.950 . S
C1403 C1398 1.363 . S
C1403 C1402 1.415 . S
H1404 C1401 0.999 . S
H1405 C1386 0.913 . S
H1406 C1424 0.951 . S
H1407 C1426 0.951 . S
H1408 C1428 0.950 . S
H1409 C1429 0.950 . S
H1410 C1431 0.950 . S
H1411 C1434 0.950 . S
H1412 C1435 0.950 . S
H1413 C1437 0.950 . S
H1414 C1438 0.950 . S
H1415 C1439 0.951 . S
H1416 C1441 0.951 . S
H1417 C1443 0.950 . S
H1418 C1444 0.950 . S
H1419 C1446 0.950 . S
H1420 C1449 0.950 . S
H1421 C1450 0.950 . S
H1422 C1452 0.950 . S
H1423 C1453 0.950 . S
C1424 H1406 0.951 . S
C1424 C1425 1.366 . S
C1424 C1426 1.388 . S
C1425 C1424 1.366 . S
C1425 C1429 1.385 . S
C1426 H1407 0.951 . S
C1426 C1424 1.388 . S
C1426 C1427 1.366 . S
C1427 C1426 1.366 . S
C1427 C1428 1.414 . S
C1427 C1430 1.499 . S
C1428 H1408 0.950 . S
C1428 C1427 1.414 . S
C1428 C1429 1.374 . S
C1429 H1409 0.950 . S
C1429 C1425 1.385 . S
C1429 C1428 1.374 . S
C1430 C1427 1.499 . S
C1430 C1431 1.373 . S
C1430 C1432 1.389 . S
C1431 H1410 0.950 . S
C1431 C1430 1.373 . S
C1431 C1447 1.377 . S
C1432 C1430 1.389 . S
C1432 C1433 1.524 . S
C1432 C1446 1.377 . S
C1433 C1432 1.524 . S
C1433 C1434 1.397 . S
C1433 C1438 1.363 . S
C1434 H1411 0.950 . S
C1434 C1433 1.397 . S
C1434 C1435 1.334 . S
C1435 H1412 0.950 . S
C1435 C1434 1.334 . S
C1435 C1436 1.287 . S
C1436 C1435 1.287 . S
C1436 C1437 1.524 . S
C1436 H1455 0.913 . S
C1437 H1413 0.950 . S
C1437 C1436 1.524 . S
C1437 C1438 1.415 . S
C1438 H1414 0.950 . S
C1438 C1433 1.363 . S
C1438 C1437 1.415 . S
C1439 H1415 0.951 . S
C1439 C1440 1.366 . S
C1439 C1441 1.388 . S
C1440 C1439 1.366 . S
C1440 C1444 1.385 . S
C1441 H1416 0.951 . S
C1441 C1439 1.388 . S
C1441 C1442 1.366 . S
C1442 C1441 1.366 . S
C1442 C1443 1.414 . S
C1442 C1445 1.499 . S
C1443 H1417 0.950 . S
C1443 C1442 1.414 . S
C1443 C1444 1.374 . S
C1444 H1418 0.950 . S
C1444 C1440 1.385 . S
C1444 C1443 1.374 . S
C1445 C1442 1.499 . S
C1445 C1446 1.373 . S
C1445 C1447 1.389 . S
C1446 H1419 0.950 . S
C1446 C1432 1.377 . S
C1446 C1445 1.373 . S
C1447 C1431 1.377 . S
C1447 C1445 1.389 . S
C1447 C1448 1.524 . S
C1448 C1447 1.524 . S
C1448 C1449 1.397 . S
C1448 C1453 1.363 . S
C1449 H1420 0.950 . S
C1449 C1448 1.397 . S
C1449 C1450 1.334 . S
C1450 H1421 0.950 . S
C1450 C1449 1.334 . S
C1450 C1451 1.287 . S
C1451 C1450 1.287 . S
C1451 C1452 1.524 . S
C1451 H1454 0.999 . S
C1452 H1422 0.950 . S
C1452 C1451 1.524 . S
C1452 C1453 1.415 . S
C1453 H1423 0.950 . S
C1453 C1448 1.363 . S
C1453 C1452 1.415 . S
H1454 C1451 0.999 . S
H1455 C1436 0.913 . S
H1456 C1474 0.951 . S
H1457 C1476 0.951 . S
H1458 C1478 0.950 . S
H1459 C1479 0.950 . S
H1460 C1481 0.950 . S
H1461 C1484 0.950 . S
H1462 C1485 0.950 . S
H1463 C1487 0.950 . S
H1464 C1488 0.950 . S
H1465 C1489 0.951 . S
H1466 C1491 0.951 . S
H1467 C1493 0.950 . S
H1468 C1494 0.950 . S
H1469 C1496 0.950 . S
H1470 C1499 0.950 . S
H1471 C1500 0.950 . S
H1472 C1502 0.950 . S
H1473 C1503 0.960 . S
C1474 H1456 0.951 . S
C1474 C1475 1.366 . S
C1474 C1476 1.388 . S
C1475 C1474 1.366 . S
C1475 C1479 1.385 . S
C1476 H1457 0.951 . S
C1476 C1474 1.388 . S
C1476 C1477 1.366 . S
C1477 C1476 1.366 . S
C1477 C1478 1.414 . S
C1477 C1480 1.499 . S
C1478 H1458 0.950 . S
C1478 C1477 1.414 . S
C1478 C1479 1.374 . S
C1479 H1459 0.950 . S
C1479 C1475 1.385 . S
C1479 C1478 1.374 . S
C1480 C1477 1.499 . S
C1480 C1481 1.373 . S
C1480 C1482 1.389 . S
C1481 H1460 0.950 . S
C1481 C1480 1.373 . S
C1481 C1497 1.377 . S
C1482 C1480 1.389 . S
C1482 C1483 1.524 . S
C1482 C1496 1.377 . S
C1483 C1482 1.524 . S
C1483 C1484 1.397 . S
C1483 C1488 1.363 . S
C1484 H1461 0.950 . S
C1484 C1483 1.397 . S
C1484 C1485 1.334 . S
C1485 H1462 0.950 . S
C1485 C1484 1.334 . S
C1485 C1486 1.287 . S
C1486 C1485 1.287 . S
C1486 C1487 1.524 . S
C1486 H1505 0.913 . S
C1487 H1463 0.950 . S
C1487 C1486 1.524 . S
C1487 C1488 1.415 . S
C1488 H1464 0.950 . S
C1488 C1483 1.363 . S
C1488 C1487 1.415 . S
C1489 H1465 0.951 . S
C1489 C1490 1.366 . S
C1489 C1491 1.388 . S
C1490 C1489 1.366 . S
C1490 C1494 1.385 . S
C1491 H1466 0.951 . S
C1491 C1489 1.388 . S
C1491 C1492 1.366 . S
C1492 C1491 1.366 . S
C1492 C1493 1.414 . S
C1492 C1495 1.499 . S
C1493 H1467 0.950 . S
C1493 C1492 1.414 . S
C1493 C1494 1.374 . S
C1494 H1468 0.950 . S
C1494 C1490 1.385 . S
C1494 C1493 1.374 . S
C1495 C1492 1.499 . S
C1495 C1496 1.373 . S
C1495 C1497 1.389 . S
C1496 H1469 0.950 . S
C1496 C1482 1.377 . S
C1496 C1495 1.373 . S
C1497 C1481 1.377 . S
C1497 C1495 1.389 . S
C1497 C1498 1.524 . S
C1498 C1497 1.524 . S
C1498 C1499 1.397 . S
C1498 C1503 1.386 . S
C1499 H1470 0.950 . S
C1499 C1498 1.397 . S
C1499 C1500 1.334 1_455 S
C1500 H1471 0.950 . S
C1500 C1499 1.334 1_655 S
C1500 C1501 1.287 . S
C1501 C1500 1.287 . S
C1501 C1502 1.524 . S
C1501 H1504 0.999 . S
C1502 H1472 0.950 . S
C1502 C1501 1.524 . S
C1502 C1503 1.383 1_655 S
C1503 H1473 0.960 . S
C1503 C1498 1.386 . S
C1503 C1502 1.383 1_455 S
H1504 C1501 0.999 . S
H1505 C1486 0.913 . S
H1506 C1524 0.951 . S
H1507 C1526 0.951 . S
H1508 C1528 0.950 . S
H1509 C1529 0.950 . S
H1510 C1531 0.950 . S
H1511 C1534 0.950 . S
H1512 C1535 0.950 . S
H1513 C1537 0.950 . S
H1514 C1538 0.950 . S
H1515 C1539 0.951 . S
H1516 C1541 0.951 . S
H1517 C1543 0.950 . S
H1518 C1544 0.950 . S
H1519 C1546 0.950 . S
H1520 C1549 0.950 . S
H1521 C1550 0.950 . S
H1522 C1552 0.950 . S
H1523 C1553 0.950 . S
C1524 H1506 0.951 . S
C1524 C1525 1.366 . S
C1524 C1526 1.388 . S
C1525 C1524 1.366 . S
C1525 C1529 1.385 . S
C1526 H1507 0.951 . S
C1526 C1524 1.388 . S
C1526 C1527 1.366 . S
C1527 C1526 1.366 . S
C1527 C1528 1.414 . S
C1527 C1530 1.499 . S
C1528 H1508 0.950 . S
C1528 C1527 1.414 . S
C1528 C1529 1.374 . S
C1529 H1509 0.950 . S
C1529 C1525 1.385 . S
C1529 C1528 1.374 . S
C1530 C1527 1.499 . S
C1530 C1531 1.373 . S
C1530 C1532 1.389 . S
C1531 H1510 0.950 . S
C1531 C1530 1.373 . S
C1531 C1547 1.377 . S
C1532 C1530 1.389 . S
C1532 C1533 1.524 . S
C1532 C1546 1.377 . S
C1533 C1532 1.524 . S
C1533 C1534 1.397 . S
C1533 C1538 1.363 . S
C1534 H1511 0.950 . S
C1534 C1533 1.397 . S
C1534 C1535 1.334 . S
C1535 H1512 0.950 . S
C1535 C1534 1.334 . S
C1535 C1536 1.287 . S
C1536 C1535 1.287 . S
C1536 C1537 1.524 . S
C1536 H1555 0.913 . S
C1537 H1513 0.950 . S
C1537 C1536 1.524 . S
C1537 C1538 1.415 . S
C1538 H1514 0.950 . S
C1538 C1533 1.363 . S
C1538 C1537 1.415 . S
C1539 H1515 0.951 . S
C1539 C1540 1.366 . S
C1539 C1541 1.388 . S
C1540 C1539 1.366 . S
C1540 C1544 1.385 . S
C1541 H1516 0.951 . S
C1541 C1539 1.388 . S
C1541 C1542 1.366 . S
C1542 C1541 1.366 . S
C1542 C1543 1.414 . S
C1542 C1545 1.499 . S
C1543 H1517 0.950 . S
C1543 C1542 1.414 . S
C1543 C1544 1.374 . S
C1544 H1518 0.950 . S
C1544 C1540 1.385 . S
C1544 C1543 1.374 . S
C1545 C1542 1.499 . S
C1545 C1546 1.373 . S
C1545 C1547 1.389 . S
C1546 H1519 0.950 . S
C1546 C1532 1.377 . S
C1546 C1545 1.373 . S
C1547 C1531 1.377 . S
C1547 C1545 1.389 . S
C1547 C1548 1.524 . S
C1548 C1547 1.524 . S
C1548 C1549 1.397 . S
C1548 C1553 1.363 . S
C1549 H1520 0.950 . S
C1549 C1548 1.397 . S
C1549 C1550 1.334 . S
C1550 H1521 0.950 . S
C1550 C1549 1.334 . S
C1550 C1551 1.287 . S
C1551 C1550 1.287 . S
C1551 C1552 1.524 . S
C1551 H1554 0.999 . S
C1552 H1522 0.950 . S
C1552 C1551 1.524 . S
C1552 C1553 1.415 . S
C1553 H1523 0.950 . S
C1553 C1548 1.363 . S
C1553 C1552 1.415 . S
H1554 C1551 0.999 . S
H1555 C1536 0.913 . S
H1556 C1574 0.951 . S
H1557 C1576 0.951 . S
H1558 C1578 0.950 . S
H1559 C1579 0.950 . S
H1560 C1581 0.950 . S
H1561 C1584 0.950 . S
H1562 C1585 0.950 . S
H1563 C1587 0.950 . S
H1564 C1588 0.950 . S
H1565 C1589 0.951 . S
H1566 C1591 0.951 . S
H1567 C1593 0.950 . S
H1568 C1594 0.950 . S
H1569 C1596 0.950 . S
H1570 C1599 0.950 . S
H1571 C1600 0.950 . S
H1572 C1602 0.950 . S
H1573 C1603 0.950 . S
C1574 H1556 0.951 . S
C1574 C1575 1.366 . S
C1574 C1576 1.388 . S
C1575 C1574 1.366 . S
C1575 C1579 1.385 . S
C1576 H1557 0.951 . S
C1576 C1574 1.388 . S
C1576 C1577 1.366 . S
C1577 C1576 1.366 . S
C1577 C1578 1.414 . S
C1577 C1580 1.499 . S
C1578 H1558 0.950 . S
C1578 C1577 1.414 . S
C1578 C1579 1.374 . S
C1579 H1559 0.950 . S
C1579 C1575 1.385 . S
C1579 C1578 1.374 . S
C1580 C1577 1.499 . S
C1580 C1581 1.373 . S
C1580 C1582 1.389 . S
C1581 H1560 0.950 . S
C1581 C1580 1.373 . S
C1581 C1597 1.377 . S
C1582 C1580 1.389 . S
C1582 C1583 1.524 . S
C1582 C1596 1.377 . S
C1583 C1582 1.524 . S
C1583 C1584 1.397 . S
C1583 C1588 1.363 . S
C1584 H1561 0.950 . S
C1584 C1583 1.397 . S
C1584 C1585 1.334 . S
C1585 H1562 0.950 . S
C1585 C1584 1.334 . S
C1585 C1586 1.287 . S
C1586 C1585 1.287 . S
C1586 C1587 1.524 . S
C1586 H1605 0.913 . S
C1587 H1563 0.950 . S
C1587 C1586 1.524 . S
C1587 C1588 1.415 . S
C1588 H1564 0.950 . S
C1588 C1583 1.363 . S
C1588 C1587 1.415 . S
C1589 H1565 0.951 . S
C1589 C1590 1.366 . S
C1589 C1591 1.388 . S
C1590 C1589 1.366 . S
C1590 C1594 1.385 . S
C1591 H1566 0.951 . S
C1591 C1589 1.388 . S
C1591 C1592 1.366 . S
C1592 C1591 1.366 . S
C1592 C1593 1.414 . S
C1592 C1595 1.499 . S
C1593 H1567 0.950 . S
C1593 C1592 1.414 . S
C1593 C1594 1.374 . S
C1594 H1568 0.950 . S
C1594 C1590 1.385 . S
C1594 C1593 1.374 . S
C1595 C1592 1.499 . S
C1595 C1596 1.373 . S
C1595 C1597 1.389 . S
C1596 H1569 0.950 . S
C1596 C1582 1.377 . S
C1596 C1595 1.373 . S
C1597 C1581 1.377 . S
C1597 C1595 1.389 . S
C1597 C1598 1.524 . S
C1598 C1597 1.524 . S
C1598 C1599 1.397 . S
C1598 C1603 1.363 . S
C1599 H1570 0.950 . S
C1599 C1598 1.397 . S
C1599 C1600 1.334 . S
C1600 H1571 0.950 . S
C1600 C1599 1.334 . S
C1600 C1601 1.287 . S
C1601 C1600 1.287 . S
C1601 C1602 1.524 . S
C1601 H1604 0.999 . S
C1602 H1572 0.950 . S
C1602 C1601 1.524 . S
C1602 C1603 1.415 . S
C1603 H1573 0.950 . S
C1603 C1598 1.363 . S
C1603 C1602 1.415 . S
H1604 C1601 0.999 . S
H1605 C1586 0.913 . S
H1606 C1624 0.951 . S
H1607 C1626 0.951 . S
H1608 C1628 0.950 . S
H1609 C1629 0.950 . S
H1610 C1631 0.950 . S
H1611 C1634 0.950 . S
H1612 C1635 0.950 . S
H1613 C1637 0.950 . S
H1614 C1638 0.950 . S
H1615 C1639 0.951 . S
H1616 C1641 0.951 . S
H1617 C1643 0.950 . S
H1618 C1644 0.950 . S
H1619 C1646 0.950 . S
H1620 C1649 0.950 . S
H1621 C1650 0.950 . S
H1622 C1652 0.950 . S
H1623 C1653 0.950 . S
C1624 H1606 0.951 . S
C1624 C1625 1.366 . S
C1624 C1626 1.388 . S
C1625 C1624 1.366 . S
C1625 C1629 1.385 . S
C1626 H1607 0.951 . S
C1626 C1624 1.388 . S
C1626 C1627 1.366 . S
C1627 C1626 1.366 . S
C1627 C1628 1.414 . S
C1627 C1630 1.499 . S
C1628 H1608 0.950 . S
C1628 C1627 1.414 . S
C1628 C1629 1.374 . S
C1629 H1609 0.950 . S
C1629 C1625 1.385 . S
C1629 C1628 1.374 . S
C1630 C1627 1.499 . S
C1630 C1631 1.373 . S
C1630 C1632 1.389 . S
C1631 H1610 0.950 . S
C1631 C1630 1.373 . S
C1631 C1647 1.377 . S
C1632 C1630 1.389 . S
C1632 C1633 1.524 . S
C1632 C1646 1.377 . S
C1633 C1632 1.524 . S
C1633 C1634 1.397 . S
C1633 C1638 1.363 . S
C1634 H1611 0.950 . S
C1634 C1633 1.397 . S
C1634 C1635 1.334 . S
C1635 H1612 0.950 . S
C1635 C1634 1.334 . S
C1635 C1636 1.287 . S
C1636 C1635 1.287 . S
C1636 C1637 1.524 . S
C1636 H1655 0.913 . S
C1637 H1613 0.950 . S
C1637 C1636 1.524 . S
C1637 C1638 1.415 . S
C1638 H1614 0.950 . S
C1638 C1633 1.363 . S
C1638 C1637 1.415 . S
C1639 H1615 0.951 . S
C1639 C1640 1.366 . S
C1639 C1641 1.388 . S
C1640 C1639 1.366 . S
C1640 C1644 1.385 . S
C1641 H1616 0.951 . S
C1641 C1639 1.388 . S
C1641 C1642 1.366 . S
C1642 C1641 1.366 . S
C1642 C1643 1.414 . S
C1642 C1645 1.499 . S
C1643 H1617 0.950 . S
C1643 C1642 1.414 . S
C1643 C1644 1.374 . S
C1644 H1618 0.950 . S
C1644 C1640 1.385 . S
C1644 C1643 1.374 . S
C1645 C1642 1.499 . S
C1645 C1646 1.373 . S
C1645 C1647 1.389 . S
C1646 H1619 0.950 . S
C1646 C1632 1.377 . S
C1646 C1645 1.373 . S
C1647 C1631 1.377 . S
C1647 C1645 1.389 . S
C1647 C1648 1.524 . S
C1648 C1647 1.524 . S
C1648 C1649 1.397 . S
C1648 C1653 1.363 . S
C1649 H1620 0.950 . S
C1649 C1648 1.397 . S
C1649 C1650 1.334 . S
C1650 H1621 0.950 . S
C1650 C1649 1.334 . S
C1650 C1651 1.287 . S
C1651 C1650 1.287 . S
C1651 C1652 1.524 . S
C1651 H1654 0.999 . S
C1652 H1622 0.950 . S
C1652 C1651 1.524 . S
C1652 C1653 1.415 . S
C1653 H1623 0.950 . S
C1653 C1648 1.363 . S
C1653 C1652 1.415 . S
H1654 C1651 0.999 . S
H1655 C1636 0.913 . S
H1656 C1674 0.951 . S
H1657 C1676 0.951 . S
H1658 C1678 0.950 . S
H1659 C1679 0.950 . S
H1660 C1681 0.950 . S
H1661 C1684 0.950 . S
H1662 C1685 0.950 . S
H1663 C1687 0.950 . S
H1664 C1688 0.950 . S
H1665 C1689 0.951 1_455 S
H1666 C1691 0.951 . S
H1667 C1693 0.950 . S
H1668 C1694 0.950 . S
H1669 C1696 0.950 . S
H1670 C1699 0.950 . S
H1671 C1700 0.950 . S
H1672 C1702 0.950 . S
H1673 C1703 0.950 . S
C1674 H1656 0.951 . S
C1674 C1675 1.366 . S
C1674 C1676 1.388 . S
C1675 C1674 1.366 . S
C1675 C1679 1.385 . S
C1676 H1657 0.951 . S
C1676 C1674 1.388 . S
C1676 C1677 1.366 . S
C1677 C1676 1.366 . S
C1677 C1678 1.414 . S
C1677 C1680 1.499 . S
C1678 H1658 0.950 . S
C1678 C1677 1.414 . S
C1678 C1679 1.374 . S
C1679 H1659 0.950 . S
C1679 C1675 1.385 . S
C1679 C1678 1.374 . S
C1680 C1677 1.499 . S
C1680 C1681 1.373 . S
C1680 C1682 1.389 . S
C1681 H1660 0.950 . S
C1681 C1680 1.373 . S
C1681 C1697 1.377 . S
C1682 C1680 1.389 . S
C1682 C1683 1.524 . S
C1682 C1696 1.377 . S
C1683 C1682 1.524 . S
C1683 C1684 1.397 . S
C1683 C1688 1.363 . S
C1684 H1661 0.950 . S
C1684 C1683 1.397 . S
C1684 C1685 1.334 . S
C1685 H1662 0.950 . S
C1685 C1684 1.334 . S
C1685 C1686 1.287 . S
C1686 C1685 1.287 . S
C1686 C1687 1.524 . S
C1686 H1705 0.913 . S
C1687 H1663 0.950 . S
C1687 C1686 1.524 . S
C1687 C1688 1.415 . S
C1688 H1664 0.950 . S
C1688 C1683 1.363 . S
C1688 C1687 1.415 . S
C1689 H1665 0.951 1_655 S
C1689 C1690 1.366 . S
C1689 C1691 1.388 . S
C1690 C1689 1.366 . S
C1690 C1694 1.385 . S
C1691 H1666 0.951 . S
C1691 C1689 1.388 . S
C1691 C1692 1.366 . S
C1692 C1691 1.366 . S
C1692 C1693 1.414 . S
C1692 C1695 1.499 . S
C1693 H1667 0.950 . S
C1693 C1692 1.414 . S
C1693 C1694 1.374 . S
C1694 H1668 0.950 . S
C1694 C1690 1.385 . S
C1694 C1693 1.374 . S
C1695 C1692 1.499 . S
C1695 C1696 1.373 . S
C1695 C1697 1.389 . S
C1696 H1669 0.950 . S
C1696 C1682 1.377 . S
C1696 C1695 1.373 . S
C1697 C1681 1.377 . S
C1697 C1695 1.389 . S
C1697 C1698 1.524 . S
C1698 C1697 1.524 . S
C1698 C1699 1.397 . S
C1698 C1703 1.363 . S
C1699 H1670 0.950 . S
C1699 C1698 1.397 . S
C1699 C1700 1.334 . S
C1700 H1671 0.950 . S
C1700 C1699 1.334 . S
C1700 C1701 1.287 . S
C1701 C1700 1.287 . S
C1701 C1702 1.524 1_655 S
C1701 H1704 0.999 1_655 S
C1702 H1672 0.950 . S
C1702 C1701 1.524 1_455 S
C1702 C1703 1.415 1_455 S
C1703 H1673 0.950 . S
C1703 C1698 1.363 . S
C1703 C1702 1.415 1_655 S
H1704 C1701 0.999 1_455 S
H1705 C1686 0.913 . S
H1706 C1724 0.951 . S
H1707 C1726 0.951 . S
H1708 C1728 0.950 . S
H1709 C1729 0.950 . S
H1710 C1731 0.950 . S
H1711 C1734 0.950 . S
H1712 C1735 0.950 . S
H1713 C1737 0.950 . S
H1714 C1738 0.950 . S
H1715 C1739 0.951 . S
H1716 C1741 0.951 . S
H1717 C1743 0.950 . S
H1718 C1744 0.950 . S
H1719 C1746 0.950 . S
H1720 C1749 0.950 . S
H1721 C1750 0.950 . S
H1722 C1752 0.950 . S
H1723 C1753 0.950 . S
C1724 H1706 0.951 . S
C1724 C1725 1.366 . S
C1724 C1726 1.388 . S
C1725 C1724 1.366 . S
C1725 C1729 1.385 . S
C1726 H1707 0.951 . S
C1726 C1724 1.388 . S
C1726 C1727 1.366 . S
C1727 C1726 1.366 . S
C1727 C1728 1.414 . S
C1727 C1730 1.499 . S
C1728 H1708 0.950 . S
C1728 C1727 1.414 . S
C1728 C1729 1.374 . S
C1729 H1709 0.950 . S
C1729 C1725 1.385 . S
C1729 C1728 1.374 . S
C1730 C1727 1.499 . S
C1730 C1731 1.373 . S
C1730 C1732 1.389 . S
C1731 H1710 0.950 . S
C1731 C1730 1.373 . S
C1731 C1747 1.377 . S
C1732 C1730 1.389 . S
C1732 C1733 1.524 . S
C1732 C1746 1.377 . S
C1733 C1732 1.524 . S
C1733 C1734 1.397 . S
C1733 C1738 1.363 . S
C1734 H1711 0.950 . S
C1734 C1733 1.397 . S
C1734 C1735 1.334 . S
C1735 H1712 0.950 . S
C1735 C1734 1.334 . S
C1735 C1736 1.287 . S
C1736 C1735 1.287 . S
C1736 C1737 1.524 . S
C1736 H1755 0.913 . S
C1737 H1713 0.950 . S
C1737 C1736 1.524 . S
C1737 C1738 1.415 . S
C1738 H1714 0.950 . S
C1738 C1733 1.363 . S
C1738 C1737 1.415 . S
C1739 H1715 0.951 . S
C1739 C1740 1.366 . S
C1739 C1741 1.388 . S
C1740 C1739 1.366 . S
C1740 C1744 1.385 . S
C1741 H1716 0.951 . S
C1741 C1739 1.388 . S
C1741 C1742 1.366 . S
C1742 C1741 1.366 . S
C1742 C1743 1.414 . S
C1742 C1745 1.499 . S
C1743 H1717 0.950 . S
C1743 C1742 1.414 . S
C1743 C1744 1.374 . S
C1744 H1718 0.950 . S
C1744 C1740 1.385 . S
C1744 C1743 1.374 . S
C1745 C1742 1.499 . S
C1745 C1746 1.373 . S
C1745 C1747 1.389 . S
C1746 H1719 0.950 . S
C1746 C1732 1.377 . S
C1746 C1745 1.373 . S
C1747 C1731 1.377 . S
C1747 C1745 1.389 . S
C1747 C1748 1.524 . S
C1748 C1747 1.524 . S
C1748 C1749 1.397 . S
C1748 C1753 1.363 . S
C1749 H1720 0.950 . S
C1749 C1748 1.397 . S
C1749 C1750 1.334 . S
C1750 H1721 0.950 . S
C1750 C1749 1.334 . S
C1750 C1751 1.287 . S
C1751 C1750 1.287 . S
C1751 C1752 1.524 . S
C1751 H1754 0.999 . S
C1752 H1722 0.950 . S
C1752 C1751 1.524 . S
C1752 C1753 1.415 . S
C1753 H1723 0.950 . S
C1753 C1748 1.363 . S
C1753 C1752 1.415 . S
H1754 C1751 0.999 . S
H1755 C1736 0.913 . S
H1756 C1774 0.951 . S
H1757 C1776 0.951 . S
H1758 C1778 0.950 . S
H1759 C1779 0.950 . S
H1760 C1781 0.950 . S
H1761 C1784 0.950 . S
H1762 C1785 0.950 . S
H1763 C1787 0.950 . S
H1764 C1788 0.950 . S
H1765 C1789 0.951 . S
H1766 C1791 0.951 . S
H1767 C1793 0.950 . S
H1768 C1794 0.950 . S
H1769 C1796 0.950 . S
H1770 C1799 0.950 . S
H1771 C1800 0.950 . S
H1772 C1802 0.950 . S
H1773 C1803 0.950 . S
C1774 H1756 0.951 . S
C1774 C1775 1.366 . S
C1774 C1776 1.388 . S
C1775 C1774 1.366 . S
C1775 C1779 1.385 . S
C1776 H1757 0.951 . S
C1776 C1774 1.388 . S
C1776 C1777 1.366 . S
C1777 C1776 1.366 . S
C1777 C1778 1.414 . S
C1777 C1780 1.499 . S
C1778 H1758 0.950 . S
C1778 C1777 1.414 . S
C1778 C1779 1.374 . S
C1779 H1759 0.950 . S
C1779 C1775 1.385 . S
C1779 C1778 1.374 . S
C1780 C1777 1.499 . S
C1780 C1781 1.373 . S
C1780 C1782 1.389 . S
C1781 H1760 0.950 . S
C1781 C1780 1.373 . S
C1781 C1797 1.377 . S
C1782 C1780 1.389 . S
C1782 C1783 1.524 . S
C1782 C1796 1.377 . S
C1783 C1782 1.524 . S
C1783 C1784 1.397 . S
C1783 C1788 1.363 . S
C1784 H1761 0.950 . S
C1784 C1783 1.397 . S
C1784 C1785 1.334 . S
C1785 H1762 0.950 . S
C1785 C1784 1.334 . S
C1785 C1786 1.287 . S
C1786 C1785 1.287 . S
C1786 C1787 1.524 . S
C1786 H1805 0.913 . S
C1787 H1763 0.950 . S
C1787 C1786 1.524 . S
C1787 C1788 1.415 . S
C1788 H1764 0.950 . S
C1788 C1783 1.363 . S
C1788 C1787 1.415 . S
C1789 H1765 0.951 . S
C1789 C1790 1.366 . S
C1789 C1791 1.388 . S
C1790 C1789 1.366 . S
C1790 C1794 1.385 . S
C1791 H1766 0.951 . S
C1791 C1789 1.388 . S
C1791 C1792 1.366 . S
C1792 C1791 1.366 . S
C1792 C1793 1.414 . S
C1792 C1795 1.499 . S
C1793 H1767 0.950 . S
C1793 C1792 1.414 . S
C1793 C1794 1.374 . S
C1794 H1768 0.950 . S
C1794 C1790 1.385 . S
C1794 C1793 1.374 . S
C1795 C1792 1.499 . S
C1795 C1796 1.373 . S
C1795 C1797 1.389 . S
C1796 H1769 0.950 . S
C1796 C1782 1.377 . S
C1796 C1795 1.373 . S
C1797 C1781 1.377 . S
C1797 C1795 1.389 . S
C1797 C1798 1.524 . S
C1798 C1797 1.524 . S
C1798 C1799 1.397 . S
C1798 C1803 1.363 . S
C1799 H1770 0.950 . S
C1799 C1798 1.397 . S
C1799 C1800 1.334 . S
C1800 H1771 0.950 . S
C1800 C1799 1.334 . S
C1800 C1801 1.287 . S
C1801 C1800 1.287 . S
C1801 C1802 1.524 . S
C1801 H1804 0.999 . S
C1802 H1772 0.950 . S
C1802 C1801 1.524 . S
C1802 C1803 1.415 . S
C1803 H1773 0.950 . S
C1803 C1798 1.363 . S
C1803 C1802 1.415 . S
H1804 C1801 0.999 . S
H1805 C1786 0.913 . S
H1806 C1824 0.951 . S
H1807 C1826 0.951 . S
H1808 C1828 0.950 . S
H1809 C1829 0.950 . S
H1810 C1831 0.950 . S
H1811 C1834 0.950 . S
H1812 C1835 0.950 . S
H1813 C1837 0.950 . S
H1814 C1838 0.950 . S
H1815 C1839 0.951 . S
H1816 C1841 0.951 . S
H1817 C1843 0.950 . S
H1818 C1844 0.950 . S
H1819 C1846 0.950 . S
H1820 C1849 0.950 . S
H1821 C1850 0.950 . S
H1822 C1852 0.950 1_655 S
H1823 C1853 0.950 . S
C1824 H1806 0.951 . S
C1824 C1825 1.366 . S
C1824 C1826 1.388 . S
C1825 C1824 1.366 . S
C1825 C1829 1.385 . S
C1826 H1807 0.951 . S
C1826 C1824 1.388 . S
C1826 C1827 1.366 . S
C1827 C1826 1.366 . S
C1827 C1828 1.414 . S
C1827 C1830 1.499 . S
C1828 H1808 0.950 . S
C1828 C1827 1.414 . S
C1828 C1829 1.374 . S
C1829 H1809 0.950 . S
C1829 C1825 1.385 . S
C1829 C1828 1.374 . S
C1830 C1827 1.499 . S
C1830 C1831 1.373 . S
C1830 C1832 1.389 . S
C1831 H1810 0.950 . S
C1831 C1830 1.373 . S
C1831 C1847 1.377 . S
C1832 C1830 1.389 . S
C1832 C1833 1.524 . S
C1832 C1846 1.377 . S
C1833 C1832 1.524 . S
C1833 C1834 1.397 . S
C1833 C1838 1.363 . S
C1834 H1811 0.950 . S
C1834 C1833 1.397 . S
C1834 C1835 1.334 . S
C1835 H1812 0.950 . S
C1835 C1834 1.334 . S
C1835 C1836 1.287 . S
C1836 C1835 1.287 . S
C1836 C1837 1.524 . S
C1836 H1855 0.913 . S
C1837 H1813 0.950 . S
C1837 C1836 1.524 . S
C1837 C1838 1.415 . S
C1838 H1814 0.950 . S
C1838 C1833 1.363 . S
C1838 C1837 1.415 . S
C1839 H1815 0.951 . S
C1839 C1840 1.366 . S
C1839 C1841 1.388 . S
C1840 C1839 1.366 . S
C1840 C1844 1.385 . S
C1841 H1816 0.951 . S
C1841 C1839 1.388 . S
C1841 C1842 1.366 . S
C1842 C1841 1.366 . S
C1842 C1843 1.414 . S
C1842 C1845 1.499 . S
C1843 H1817 0.950 . S
C1843 C1842 1.414 . S
C1843 C1844 1.374 . S
C1844 H1818 0.950 . S
C1844 C1840 1.385 . S
C1844 C1843 1.374 . S
C1845 C1842 1.499 . S
C1845 C1846 1.373 . S
C1845 C1847 1.389 . S
C1846 H1819 0.950 . S
C1846 C1832 1.377 . S
C1846 C1845 1.373 . S
C1847 C1831 1.377 . S
C1847 C1845 1.389 . S
C1847 C1848 1.524 . S
C1848 C1847 1.524 . S
C1848 C1849 1.397 . S
C1848 C1853 1.363 . S
C1849 H1820 0.950 . S
C1849 C1848 1.397 . S
C1849 C1850 1.334 . S
C1850 H1821 0.950 . S
C1850 C1849 1.334 . S
C1850 C1851 1.287 . S
C1851 C1850 1.287 . S
C1851 C1852 1.524 . S
C1851 H1854 0.999 1_455 S
C1852 H1822 0.950 1_455 S
C1852 C1851 1.524 . S
C1852 C1853 1.415 . S
C1853 H1823 0.950 . S
C1853 C1848 1.363 . S
C1853 C1852 1.415 . S
H1854 C1851 0.999 1_655 S
H1855 C1836 0.913 . S
C675 C242 1.460 . S
C690 C376 1.472 . S
C740 C460 1.470 . S
C725 C301 1.487 . S
C790 C459 1.479 . S
C775 C162 1.448 . S
C825 C221 1.478 . S
C840 C375 1.476 . S
C890 C556 1.473 . S
C875 C82 1.483 . S
C940 C640 1.470 . S
C925 C141 1.465 . S
C975 C2 1.475 . S
C990 C639 1.479 . S
C1025 C61 1.451 . S
C1040 C555 1.475 . S
C1090 C378 1.350 . S
C1075 C42 1.503 1_554 S
C1140 C462 1.345 . S
C1125 C21 1.529 . S
C1190 C474 1.409 . S
C1175 C122 1.530 1_556 S
C1240 C390 1.409 . S
C1225 C101 1.554 . S
C1290 C558 1.349 . S
C1275 C202 1.533 1_556 S
C1325 C181 1.498 . S
C1340 C642 1.346 . S
C1390 C630 1.409 . S
C1375 C282 1.553 1_554 S
C1425 C261 1.527 . S
C1440 C546 1.410 . S
C1490 C387 1.624 . S
C1475 C15 1.618 . S
C1540 C471 1.610 . S
C1525 C55 1.604 . S
C1575 C95 1.601 . S
C1590 C472 1.592 . S
C1640 C388 1.580 . S
C1625 C135 1.589 . S
C1690 C543 1.624 . S
C1675 C175 1.615 . S
C1725 C215 1.606 . S
C1740 C627 1.610 . S
C1775 C255 1.598 . S
C1790 C628 1.593 . S
C1825 C295 1.591 . S
C1840 C544 1.581 . S
