# Generated by pormake.
# Topology nia, (6,6)-cn, num edge types: 1
# Building blocks:
#     Node 0, Type 0, BuildingBlock: INOVEN_clean_sbu_0, # of connection points: 6
#     Node 1, Type 0, BuildingBlock: INOVEN_clean_sbu_0, # of connection points: 6
#     Node 2, Type 1, BuildingBlock: MIDCAF_clean_sbu_0, # of connection points: 6
#     Node 3, Type 1, BuildingBlock: MIDCAF_clean_sbu_0, # of connection points: 6
#     Edge 4, Type (0, 1), BuildingBlock: EZIPEK_clean_linker_0, # of connection points: 2
#     Edge 5, Type (0, 1), BuildingBlock: EZIPEK_clean_linker_0, # of connection points: 2
#     Edge 6, Type (0, 1), BuildingBlock: EZIPEK_clean_linker_0, # of connection points: 2
#     Edge 7, Type (0, 1), BuildingBlock: EZIPEK_clean_linker_0, # of connection points: 2
#     Edge 8, Type (0, 1), BuildingBlock: EZIPEK_clean_linker_0, # of connection points: 2
#     Edge 9, Type (0, 1), BuildingBlock: EZIPEK_clean_linker_0, # of connection points: 2
#     Edge 10, Type (0, 1), BuildingBlock: EZIPEK_clean_linker_0, # of connection points: 2
#     Edge 11, Type (0, 1), BuildingBlock: EZIPEK_clean_linker_0, # of connection points: 2
#     Edge 12, Type (0, 1), BuildingBlock: EZIPEK_clean_linker_0, # of connection points: 2
#     Edge 13, Type (0, 1), BuildingBlock: EZIPEK_clean_linker_0, # of connection points: 2
#     Edge 14, Type (0, 1), BuildingBlock: EZIPEK_clean_linker_0, # of connection points: 2
#     Edge 15, Type (0, 1), BuildingBlock: EZIPEK_clean_linker_0, # of connection points: 2
# Relax obj value: 0.381
# Max RMSD: 0.284
# Mean RMSD: 0.269
data_MOF--net-nia--node1-INOVEN_clean_sbu_0--node2-MIDCAF_clean_sbu_0--edge1-EZIPEK_clean_linker_0
_symmetry_space_group_name_H-M    P1
_symmetry_Int_Tables_number       1
_symmetry_cell_setting            triclinic
loop_
_symmetry_equiv_pos_as_xyz
'x, y, z'
_cell_length_a     18.8049
_cell_length_b     22.865136
_cell_length_c     26.126251
_cell_angle_alpha  62.11068
_cell_angle_beta   106.60188
_cell_angle_gamma 129.26149
loop_
_atom_site_label
_atom_site_type_symbol
_atom_site_fract_x
_atom_site_fract_y
_atom_site_fract_z
_atom_type_partial_charge
Gd0 Gd 0.08858 0.00812 0.08805 0.0
Gd1 Gd 0.98114 0.93364 1.0058 0.0
C2 C 0.96705 0.06807 0.99543 0.0
C3 C 0.19882 0.10036 0.14556 0.0
C4 C 0.19567 0.14244 0.17259 0.0
C5 C 0.21749 0.12807 0.23141 0.0
C6 C 0.17289 0.1977 0.14053 0.0
C7 C 0.20639 0.23193 0.22339 0.0
C8 C 0.17863 0.2424 0.16581 0.0
C9 C 0.22234 0.1723 0.25687 0.0
C10 C 0.9151 0.88061 0.12957 0.0
C11 C 0.08815 0.86371 0.10018 0.0
C12 C 0.87164 0.84372 0.9466 0.0
C13 C 0.8759 0.80688 0.9153 0.0
C14 C 0.94588 0.85311 0.87421 0.0
C15 C 0.80862 0.72332 0.92732 0.0
C16 C 0.88287 0.73105 0.86005 0.0
C17 C 0.81226 0.68563 0.90005 0.0
C18 C 0.94888 0.81534 0.84628 0.0
C19 C 0.16086 0.06324 0.96916 0.0
O20 O 0.03993 0.08874 1.02921 0.0
O21 O 0.92442 0.00216 0.98517 0.0
O22 O 0.14563 0.02063 0.16965 0.0
O23 O 0.19979 0.12856 0.08883 0.0
O24 O 0.98857 0.89576 0.15923 0.0
O25 O 0.93723 0.93208 0.07777 0.0
O26 O 0.01478 0.84443 0.06752 0.0
O27 O 0.13825 0.93309 0.10738 0.0
O28 O 0.91898 0.92341 0.92439 0.0
O29 O 0.87649 0.81319 1.00309 0.0
O30 O 0.08989 0.04582 0.93633 0.0
O31 O 0.1322 0.00784 1.01879 0.0
H32 H 0.234 0.08477 0.25706 0.0
H33 H 0.15398 0.20864 0.09546 0.0
H34 H 0.16641 0.28849 0.1395 0.0
H35 H 0.24436 0.16402 0.3013 0.0
H36 H 0.99862 0.91794 0.86413 0.0
H37 H 0.75399 0.6869 0.95854 0.0
H38 H 0.76077 0.62041 0.91096 0.0
H39 H 1.00353 0.85102 0.81528 0.0
Gd40 Gd 0.97996 -0.02036 0.57938 0.0
Gd41 Gd 0.08563 -0.02754 0.52406 0.0
C42 C 0.88406 0.93027 0.47193 0.0
C43 C 0.9108 -0.0011 0.6382 0.0
C44 C 0.92675 0.04616 0.6694 0.0
C45 C 0.93305 0.01729 0.73025 0.0
C46 C 0.91941 0.11163 0.64004 0.0
C47 C 0.91237 0.11114 0.73169 0.0
C48 C 0.91246 0.14384 0.67095 0.0
C49 C 0.92637 0.04986 0.7612 0.0
C50 C 0.93522 0.82681 0.61604 0.0
C51 C 0.17862 0.03346 0.62499 0.0
C52 C 0.15197 0.93177 0.48326 0.0
C53 C 0.1658 0.92521 0.43363 0.0
C54 C 0.2538 -0.02042 0.40815 0.0
C55 C 0.09879 0.85551 0.42013 0.0
C56 C 0.21332 0.88566 0.3678 0.0
C57 C 0.12238 0.83607 0.38719 0.0
C58 C 0.27738 0.95993 0.37547 0.0
C59 C 0.13129 0.12613 0.48088 0.0
O60 O 0.88455 0.9597 0.50502 0.0
O61 O 0.95255 0.92707 0.47309 0.0
O62 O 0.91756 0.03212 0.58172 0.0
O63 O 0.93911 0.95252 0.66176 0.0
O64 O 0.87664 0.84298 0.60406 0.0
O65 O 0.0154 0.89206 0.60818 0.0
O66 O 0.15936 -0.02137 0.60836 0.0
O67 O 0.12561 0.0582 0.60701 0.0
O68 O 0.07001 0.88095 0.50689 0.0
O69 O 0.19842 0.00431 0.48425 0.0
O70 O 0.18909 0.10865 0.49311 0.0
O71 O 0.05053 0.06056 0.4928 0.0
H72 H 0.9377 0.96633 0.75417 0.0
H73 H 0.91353 0.13486 0.59335 0.0
H74 H 0.90173 0.19121 0.64752 0.0
H75 H 0.92637 0.02392 0.80808 0.0
H76 H 0.30703 0.03355 0.41787 0.0
H77 H 0.03043 0.8122 0.43913 0.0
H78 H 0.0723 0.77813 0.3821 0.0
H79 H 0.34802 -0.00138 0.36118 0.0
Zn80 Zn 0.39064 0.67719 0.17619 0.0
Zn81 Zn 0.35058 0.61161 0.38157 0.0
Zn82 Zn 0.39527 0.65882 0.28327 0.0
C83 C 0.54984 0.73407 0.36316 0.0
C84 C 0.28825 0.47001 0.38797 0.0
O85 O 0.32229 0.71436 0.23198 0.0
O86 O 0.3056 0.7085 0.14702 0.0
C87 C 0.57605 0.76032 0.20974 0.0
O88 O 0.53555 0.72528 0.3153 0.0
O89 O 0.48179 0.69546 0.39504 0.0
O90 O 0.29854 0.49421 0.42575 0.0
O91 O 0.31673 0.52199 0.33539 0.0
O92 O 0.52722 0.75505 0.16506 0.0
O93 O 0.53941 0.72845 0.25907 0.0
O94 O 0.32364 0.53845 0.27855 0.0
O95 O 0.33706 0.56564 0.18724 0.0
C96 C 0.3104 0.51471 0.23847 0.0
O97 O 0.34837 0.72647 0.28975 0.0
O98 O 0.2699 0.64279 0.37159 0.0
C99 C 0.28881 0.72401 0.18067 0.0
C100 C 0.30348 0.71086 0.32919 0.0
Zn101 Zn 0.71101 0.29426 0.9167 0.0
Zn102 Zn 0.71669 0.33977 0.7004 0.0
Zn103 Zn 0.68809 0.30356 0.80822 0.0
C104 C 0.796 0.48701 0.70118 0.0
C105 C 0.52131 0.22375 0.72968 0.0
O106 O 0.76157 0.24851 0.86255 0.0
O107 O 0.77478 0.24115 0.95207 0.0
C108 C 0.78795 0.45509 0.84865 0.0
O109 O 0.76358 0.43726 0.75325 0.0
O110 O 0.78482 0.46007 0.66492 0.0
O111 O 0.58146 0.26716 0.69051 0.0
O112 O 0.54492 0.22863 0.77982 0.0
O113 O 0.78073 0.41056 0.90172 0.0
O114 O 0.75846 0.42476 0.80991 0.0
O115 O 0.54376 0.23007 0.83742 0.0
O116 O 0.57701 0.23161 0.92554 0.0
C117 C 0.51839 0.21203 0.88686 0.0
O118 O 0.75616 0.25227 0.80682 0.0
O119 O 0.7834 0.29304 0.7149 0.0
C120 C 0.79031 0.22996 0.91481 0.0
C121 C 0.78768 0.25404 0.76785 0.0
C122 C 0.18708 0.83948 0.07989 0.0
C123 C 0.12673 0.81731 0.11844 0.0
C124 C 0.15822 0.72114 0.19376 0.0
C125 C 0.23132 0.75474 0.15909 0.0
N126 N 0.3227 0.85436 0.0707 0.0
N127 N 0.05972 0.74246 0.2138 0.0
C128 C 0.24723 0.81572 0.1022 0.0
C129 C 0.11344 0.75949 0.17591 0.0
N130 N 0.18796 0.88444 1.02223 0.0
N131 N 0.1291 0.65099 0.24238 0.0
H132 H 0.023 0.76701 0.20144 0.0
H133 H 0.0567 0.70849 0.25808 0.0
H134 H 0.15664 0.61852 0.25514 0.0
H135 H 0.07133 0.62044 0.26654 0.0
H136 H 0.22402 0.89615 0.99091 0.0
H137 H 0.14537 0.90349 1.00462 0.0
H138 H 0.33797 0.89887 1.02893 0.0
H139 H 0.37568 0.84788 0.08795 0.0
C140 C 0.34299 0.08104 0.65552 0.0
C141 C 0.26199 0.07109 0.66039 0.0
C142 C 0.34944 0.15791 0.71697 0.0
C143 C 0.42657 0.16063 0.71658 0.0
N144 N 0.48254 0.09879 0.70273 0.0
N145 N 0.18372 0.07727 0.71518 0.0
C146 C 0.41783 0.11249 0.69223 0.0
C147 C 0.2635 0.10208 0.69742 0.0
N148 N 0.3536 0.06862 0.61272 0.0
N149 N 0.35899 0.21212 0.73188 0.0
H150 H 0.11925 0.03102 0.70638 0.0
H151 H 0.18229 0.09493 0.74495 0.0
H152 H 0.42288 0.25806 0.74126 0.0
H153 H 0.30595 0.21678 0.72838 0.0
H154 H 0.41491 0.08143 0.60593 0.0
H155 H 0.30804 0.05773 0.57889 0.0
H156 H 0.47537 0.05904 0.68918 0.0
H157 H 0.53747 0.11985 0.73039 0.0
C158 C 0.32849 0.36168 0.23876 0.0
C159 C 0.23464 0.29392 0.24406 0.0
C160 C 0.19128 0.36364 0.26221 0.0
C161 C 0.28431 0.43273 0.25334 0.0
N162 N 0.44367 0.48815 0.25366 0.0
N163 N 0.08076 0.21994 0.27575 0.0
C164 C 0.35363 0.42821 0.24869 0.0
C165 C 0.16717 0.29133 0.26107 0.0
N166 N 0.3928 0.36501 0.22057 0.0
N167 N 0.12633 0.3687 0.26919 0.0
H168 H 0.06243 0.16659 0.27513 0.0
H169 H 0.02995 0.21157 0.29289 0.0
H170 H 0.14349 0.42021 0.27224 0.0
H171 H 0.05598 0.32351 0.27024 0.0
H172 H 0.45983 0.41741 0.20881 0.0
H173 H 0.37821 0.31727 0.21338 0.0
H174 H 0.49736 0.48471 0.25641 0.0
H175 H 0.46327 0.53737 0.26132 0.0
C176 C 0.95153 0.21144 0.76879 0.0
C177 C 0.88601 0.13513 0.76298 0.0
C178 C 0.7629 0.12379 0.79125 0.0
C179 C 0.82511 0.20727 0.78335 0.0
N180 N 0.97965 0.32867 0.773 0.0
N181 N 0.72976 0.01444 0.77252 0.0
C182 C 0.92033 0.25004 0.77587 0.0
C183 C 0.792 0.08894 0.77698 0.0
N184 N 0.04292 0.24671 0.76667 0.0
N185 N 0.67559 0.07899 0.81078 0.0
H186 H 0.74876 -0.01403 0.76369 0.0
H187 H 0.65895 -0.01769 0.77489 0.0
H188 H 0.65286 0.10393 0.82078 0.0
H189 H 0.62868 0.01597 0.82218 0.0
H190 H 0.09497 0.29963 0.77451 0.0
H191 H 0.06622 0.21857 0.76169 0.0
H192 H 0.0489 0.36701 0.76185 0.0
H193 H 0.95808 0.3561 0.78087 0.0
C194 C 0.7728 0.76694 0.19277 0.0
C195 C 0.83482 0.85117 0.15892 0.0
C196 C 0.73645 0.87945 0.17148 0.0
C197 C 0.67334 0.79509 0.20431 0.0
N198 N 0.64677 0.66425 0.26274 0.0
N199 N 0.89403 -0.01037 0.13853 0.0
C200 C 0.69676 0.74064 0.22056 0.0
C201 C 0.82267 0.9083 0.15545 0.0
N202 N 0.78491 0.7119 0.19698 0.0
N203 N 0.71327 0.93171 0.15431 0.0
H204 H 0.95978 0.01219 0.13006 0.0
H205 H 0.89059 0.03289 0.1394 0.0
H206 H 0.6519 0.91298 0.16714 0.0
H207 H 0.75258 -0.00786 0.1248 0.0
H208 H 0.73643 0.64871 0.21574 0.0
H209 H 0.84103 0.72951 0.17821 0.0
H210 H 0.66439 0.62376 0.27957 0.0
H211 H 0.5936 0.64505 0.28548 0.0
C212 C 0.95056 0.71096 0.68448 0.0
C213 C 0.90865 0.74229 0.63624 0.0
C214 C 0.789 0.60438 0.63711 0.0
C215 C 0.83511 0.57439 0.68099 0.0
N216 N 0.97042 0.60215 0.73865 0.0
N217 N 0.80971 0.72107 0.5546 0.0
C218 C 0.91947 0.62864 0.70233 0.0
C219 C 0.83377 0.68956 0.60928 0.0
N220 N 0.01635 0.75757 0.71499 0.0
N221 N 0.70159 0.55179 0.62224 0.0
H222 H 0.84777 0.78346 0.53065 0.0
H223 H 0.76225 0.68543 0.53072 0.0
H224 H 0.66466 0.4882 0.64263 0.0
H225 H 0.66276 0.57167 0.59377 0.0
H226 H 0.04297 0.73487 0.7535 0.0
H227 H 0.03868 0.8167 0.70482 0.0
H228 H 0.03671 0.64116 0.75098 0.0
H229 H 0.94875 0.54211 0.753 0.0
C230 C 0.26096 0.86832 0.29712 0.0
C231 C 0.24706 0.85014 0.35486 0.0
C232 C 0.3079 0.77001 0.39064 0.0
C233 C 0.30324 0.77384 0.33399 0.0
N234 N 0.31911 0.85951 0.2322 0.0
N235 N 0.25854 0.78329 0.45782 0.0
C236 C 0.29267 0.83253 0.28669 0.0
C237 C 0.27149 0.80129 0.40196 0.0
N238 N 0.24488 0.91994 0.25097 0.0
N239 N 0.35458 0.74256 0.43263 0.0
H240 H 0.23726 0.80844 0.46885 0.0
H241 H 0.26327 0.73896 0.49343 0.0
H242 H 0.39047 0.72721 0.42412 0.0
H243 H 0.36847 0.74568 0.47318 0.0
H244 H 0.22178 0.94896 0.25476 0.0
H245 H 0.22178 0.94896 0.25476 0.0
H246 H 0.31105 0.90183 0.19645 0.0
H247 H 0.35737 0.84621 0.2241 0.0
C248 C 0.28641 0.17063 0.88934 0.0
C249 C 0.25681 0.11179 0.94719 0.0
C250 C 0.38868 0.10963 0.95814 0.0
C251 C 0.42173 0.17099 0.90171 0.0
N252 N 0.41908 0.28247 0.82529 0.0
N253 N 0.31516 0.06917 0.04198 0.0
C254 C 0.37506 0.20765 0.86988 0.0
C255 C 0.31803 0.09366 0.9835 0.0
N256 N 0.23348 0.19529 0.85391 0.0
N257 N 0.42754 0.0691 0.98877 0.0
H258 H 0.2778 0.07397 0.06061 0.0
H259 H 0.36179 0.05921 0.07001 0.0
H260 H 0.4766 0.07617 0.97067 0.0
H261 H 0.40486 0.02357 1.03019 0.0
H262 H 0.24679 0.22965 0.80955 0.0
H263 H 0.17652 0.1813 0.86865 0.0
H264 H 0.39208 0.31601 0.80477 0.0
H265 H 0.4861 0.31429 0.81219 0.0
C266 C 0.10825 0.23843 0.44711 0.0
C267 C 0.15796 0.21173 0.44495 0.0
C268 C 0.28984 0.35492 0.40062 0.0
C269 C 0.24164 0.38163 0.40403 0.0
N270 N 0.09711 0.35081 0.41487 0.0
N271 N 0.27545 0.24682 0.39279 0.0
C272 C 0.1484 0.3239 0.42269 0.0
C273 C 0.24267 0.27071 0.41351 0.0
N274 N 0.02345 0.18321 0.47275 0.0
N275 N 0.38142 0.40922 0.38685 0.0
H276 H 0.23664 0.18739 0.39446 0.0
H277 H 0.33424 0.288 0.36671 0.0
H278 H 0.41883 0.47163 0.37709 0.0
H279 H 0.42154 0.39097 0.38969 0.0
H280 H 0.99182 0.19924 0.485 0.0
H281 H 0.98388 0.12132 0.4813 0.0
H282 H 0.0263 0.31209 0.42159 0.0
H283 H 0.12396 0.41276 0.39638 0.0
C284 C 0.97595 0.19767 0.94453 0.0
C285 C 0.92343 0.1113 0.97486 0.0
C286 C 0.78254 0.1038 0.95567 0.0
C287 C 0.83637 0.19008 0.93247 0.0
N288 N 0.98451 0.32099 0.90869 0.0
N289 N 0.77661 -0.01683 1.0176 0.0
C290 C 0.93327 0.23767 0.92807 0.0
C291 C 0.82659 0.06454 0.98246 0.0
N292 N 0.06487 0.24093 0.92855 0.0
N293 N 0.68893 0.05907 0.95146 0.0
H294 H 0.80441 0.95068 0.03961 0.0
H295 H 0.70864 0.94921 1.02989 0.0
H296 H 0.6538 0.08561 0.93323 0.0
H297 H 0.64671 -0.00361 0.96096 0.0
H298 H 0.10325 0.3025 0.90096 0.0
H299 H 0.09774 0.21363 0.93822 0.0
H300 H 0.05591 0.35844 0.91051 0.0
H301 H 0.95515 0.35234 0.89416 0.0
C302 C 0.71861 0.81288 0.4727 0.0
C303 C 0.79864 0.88702 0.44024 0.0
C304 C 0.7165 0.86467 0.35154 0.0
C305 C 0.64331 0.78447 0.38594 0.0
N306 N 0.59782 0.67439 0.48056 0.0
N307 N 0.87765 -0.02105 0.34764 0.0
C308 C 0.6522 0.75609 0.44692 0.0
C309 C 0.79934 0.91103 0.37925 0.0
N310 N 0.70409 0.7958 0.52778 0.0
N311 N 0.70559 0.89912 0.29372 0.0
H312 H 0.93706 0.01701 0.366 0.0
H313 H 0.88467 -0.00555 0.3041 0.0
H314 H 0.64457 0.86987 0.27262 0.0
H315 H 0.75398 0.95988 0.26799 0.0
H316 H 0.6433 0.74371 0.55087 0.0
H317 H 0.74551 0.83789 0.54729 0.0
H318 H 0.60497 0.65093 0.52529 0.0
H319 H 0.55389 0.62984 0.46288 0.0
C320 C 0.94033 0.65618 0.86422 0.0
C321 C 0.88721 0.68652 0.83591 0.0
C322 C 0.78289 0.57715 0.79985 0.0
C323 C 0.83132 0.54246 0.83238 0.0
N324 N 0.97317 0.56367 0.87622 0.0
N325 N 0.78442 0.69766 0.75937 0.0
C326 C 0.91633 0.58745 0.85786 0.0
C327 C 0.8181 0.6547 0.79706 0.0
N328 N 1.00925 0.68936 0.9002 0.0
N329 N 0.69996 0.53382 0.77603 0.0
H330 H 0.80995 0.75452 0.7577 0.0
H331 H 0.7393 0.68136 0.72634 0.0
H332 H 0.6697 0.4758 0.77808 0.0
H333 H 0.65783 0.55324 0.75738 0.0
H334 H 0.04262 0.66319 0.92778 0.0
H335 H 0.03052 0.74162 0.90421 0.0
H336 H 0.03944 0.5978 0.89087 0.0
H337 H 0.95723 0.51401 0.87093 0.0
loop_
_geom_bond_atom_site_label_1
_geom_bond_atom_site_label_2
_geom_bond_distance
_geom_bond_site_symmetry_2
_ccdc_geom_bond_type
Gd0 C3 2.818 . S
Gd0 O20 2.377 . S
Gd0 O22 2.448 . S
Gd0 O23 2.506 . S
Gd0 O24 2.435 1_445 S
Gd0 O25 2.717 1_445 S
Gd0 O27 2.395 1_545 S
Gd0 O31 2.327 1_554 S
Gd1 C12 2.818 . S
Gd1 O21 2.395 1_565 S
Gd1 O25 2.327 1_556 S
Gd1 O26 2.377 1_656 S
Gd1 O28 2.448 . S
Gd1 O29 2.506 . S
Gd1 O30 2.435 1_665 S
Gd1 O31 2.717 1_665 S
C2 O20 1.240 1_656 S
C2 O21 1.240 . S
C3 Gd0 2.818 . S
C3 C4 1.510 . S
C3 O22 1.249 . S
C3 O23 1.252 . S
C4 C3 1.510 . S
C4 C5 1.404 . S
C4 C6 1.352 . S
C5 C4 1.404 . S
C5 C9 1.389 . S
C5 H32 0.930 . S
C6 C4 1.352 . S
C6 C8 1.374 . S
C6 H33 0.931 . S
C7 C8 1.359 . S
C7 C9 1.364 . S
C8 C6 1.374 . S
C8 C7 1.359 . S
C8 H34 0.931 . S
C9 C5 1.389 . S
C9 C7 1.364 . S
C9 H35 0.931 . S
C10 O24 1.256 . S
C10 O25 1.257 . S
C11 O26 1.240 . S
C11 O27 1.240 . S
C12 Gd1 2.818 . S
C12 C13 1.510 . S
C12 O28 1.249 . S
C12 O29 1.252 . S
C13 C12 1.510 . S
C13 C14 1.404 . S
C13 C15 1.352 . S
C14 C13 1.404 . S
C14 C18 1.389 . S
C14 H36 0.930 . S
C15 C13 1.352 . S
C15 C17 1.374 . S
C15 H37 0.931 1_556 S
C16 C17 1.359 . S
C16 C18 1.364 . S
C17 C15 1.374 . S
C17 C16 1.359 . S
C17 H38 0.931 1_556 S
C18 C14 1.389 . S
C18 C16 1.364 . S
C18 H39 0.931 . S
C19 O30 1.256 . S
C19 O31 1.257 . S
O20 Gd0 2.377 . S
O20 C2 1.240 1_454 S
O21 Gd1 2.395 1_545 S
O21 C2 1.240 . S
O22 Gd0 2.448 . S
O22 C3 1.249 . S
O23 Gd0 2.506 . S
O23 C3 1.252 . S
O24 Gd0 2.435 1_665 S
O24 C10 1.256 . S
O25 Gd0 2.717 1_665 S
O25 Gd1 2.327 1_554 S
O25 C10 1.257 . S
O26 Gd1 2.377 1_454 S
O26 C11 1.240 . S
O27 Gd0 2.395 1_565 S
O27 C11 1.240 . S
O28 Gd1 2.448 . S
O28 C12 1.249 . S
O29 Gd1 2.506 . S
O29 C12 1.252 . S
O30 Gd1 2.435 1_445 S
O30 C19 1.256 . S
O31 Gd0 2.327 1_556 S
O31 Gd1 2.717 1_445 S
O31 C19 1.257 . S
H32 C5 0.930 . S
H33 C6 0.931 . S
H34 C8 0.931 . S
H35 C9 0.931 . S
H36 C14 0.930 . S
H37 C15 0.931 1_554 S
H38 C17 0.931 1_554 S
H39 C18 0.931 . S
Gd40 C43 2.818 1_455 S
Gd40 O60 2.377 1_445 S
Gd40 O62 2.448 1_455 S
Gd40 O63 2.506 1_455 S
Gd40 O64 2.435 1_445 S
Gd40 O65 2.717 1_545 S
Gd40 O67 2.395 . S
Gd40 O71 2.327 . S
Gd41 C52 2.818 . S
Gd41 O61 2.395 1_455 S
Gd41 O65 2.327 . S
Gd41 O66 2.377 1_565 S
Gd41 O68 2.448 1_565 S
Gd41 O69 2.506 . S
Gd41 O70 2.435 1_565 S
Gd41 O71 2.717 1_565 S
C42 O60 1.240 . S
C42 O61 1.240 . S
C43 Gd40 2.818 1_655 S
C43 C44 1.510 . S
C43 O62 1.249 . S
C43 O63 1.252 . S
C44 C43 1.510 . S
C44 C45 1.404 . S
C44 C46 1.352 . S
C45 C44 1.404 . S
C45 C49 1.389 . S
C45 H72 0.930 1_545 S
C46 C44 1.352 . S
C46 C48 1.374 . S
C46 H73 0.931 . S
C47 C48 1.359 . S
C47 C49 1.364 . S
C48 C46 1.374 . S
C48 C47 1.359 . S
C48 H74 0.931 . S
C49 C45 1.389 . S
C49 C47 1.364 . S
C49 H75 0.931 . S
C50 O64 1.256 . S
C50 O65 1.257 1_655 S
C51 O66 1.240 . S
C51 O67 1.240 . S
C52 Gd41 2.818 . S
C52 C53 1.510 . S
C52 O68 1.249 1_565 S
C52 O69 1.252 . S
C53 C52 1.510 . S
C53 C54 1.404 1_565 S
C53 C55 1.352 . S
C54 C53 1.404 1_545 S
C54 C58 1.389 1_545 S
C54 H76 0.930 . S
C55 C53 1.352 . S
C55 C57 1.374 . S
C55 H77 0.931 . S
C56 C57 1.359 . S
C56 C58 1.364 . S
C57 C55 1.374 . S
C57 C56 1.359 . S
C57 H78 0.931 . S
C58 C54 1.389 1_565 S
C58 C56 1.364 . S
C58 H79 0.931 1_565 S
C59 O70 1.256 . S
C59 O71 1.257 . S
O60 Gd40 2.377 1_665 S
O60 C42 1.240 . S
O61 Gd41 2.395 1_655 S
O61 C42 1.240 . S
O62 Gd40 2.448 1_655 S
O62 C43 1.249 . S
O63 Gd40 2.506 1_655 S
O63 C43 1.252 . S
O64 Gd40 2.435 1_665 S
O64 C50 1.256 . S
O65 Gd40 2.717 1_565 S
O65 Gd41 2.327 . S
O65 C50 1.257 1_455 S
O66 Gd41 2.377 1_545 S
O66 C51 1.240 . S
O67 Gd40 2.395 . S
O67 C51 1.240 . S
O68 Gd41 2.448 1_545 S
O68 C52 1.249 1_545 S
O69 Gd41 2.506 . S
O69 C52 1.252 . S
O70 Gd41 2.435 1_545 S
O70 C59 1.256 . S
O71 Gd40 2.327 . S
O71 Gd41 2.717 1_545 S
O71 C59 1.257 . S
H72 C45 0.930 1_565 S
H73 C46 0.931 . S
H74 C48 0.931 . S
H75 C49 0.931 . S
H76 C54 0.930 . S
H77 C55 0.931 . S
H78 C57 0.931 . S
H79 C58 0.931 1_545 S
Zn80 O86 1.920 . S
Zn80 O92 1.898 . S
Zn80 O95 1.905 . S
Zn81 O89 1.905 . S
Zn81 O90 1.898 . S
Zn81 O98 1.920 . S
Zn82 O85 2.080 . S
Zn82 O88 2.114 . S
Zn82 O91 2.120 . S
Zn82 O93 2.120 . S
Zn82 O94 2.114 . S
Zn82 O97 2.080 . S
C83 O88 1.166 . S
C83 O89 1.182 . S
C84 O90 1.167 . S
C84 O91 1.299 . S
O85 Zn82 2.080 . S
O85 C99 1.305 . S
O86 Zn80 1.920 . S
O86 C99 1.234 . S
C87 O92 1.167 . S
C87 O93 1.299 . S
O88 Zn82 2.114 . S
O88 C83 1.166 . S
O89 Zn81 1.905 . S
O89 C83 1.182 . S
O90 Zn81 1.898 . S
O90 C84 1.167 . S
O91 Zn82 2.120 . S
O91 C84 1.299 . S
O92 Zn80 1.898 . S
O92 C87 1.167 . S
O93 Zn82 2.120 . S
O93 C87 1.299 . S
O94 Zn82 2.114 . S
O94 C96 1.166 . S
O95 Zn80 1.905 . S
O95 C96 1.182 . S
C96 O94 1.166 . S
C96 O95 1.182 . S
O97 Zn82 2.080 . S
O97 C100 1.305 . S
O98 Zn81 1.920 . S
O98 C100 1.234 . S
C99 O85 1.305 . S
C99 O86 1.234 . S
C100 O97 1.305 . S
C100 O98 1.234 . S
Zn101 O107 1.920 . S
Zn101 O113 1.898 . S
Zn101 O116 1.905 . S
Zn102 O110 1.905 . S
Zn102 O111 1.898 . S
Zn102 O119 1.920 . S
Zn103 O106 2.080 . S
Zn103 O109 2.114 . S
Zn103 O112 2.120 . S
Zn103 O114 2.120 . S
Zn103 O115 2.114 . S
Zn103 O118 2.080 . S
C104 O109 1.166 . S
C104 O110 1.182 . S
C105 O111 1.167 . S
C105 O112 1.299 . S
O106 Zn103 2.080 . S
O106 C120 1.305 . S
O107 Zn101 1.920 . S
O107 C120 1.234 . S
C108 O113 1.167 . S
C108 O114 1.299 . S
O109 Zn103 2.114 . S
O109 C104 1.166 . S
O110 Zn102 1.905 . S
O110 C104 1.182 . S
O111 Zn102 1.898 . S
O111 C105 1.167 . S
O112 Zn103 2.120 . S
O112 C105 1.299 . S
O113 Zn101 1.898 . S
O113 C108 1.167 . S
O114 Zn103 2.120 . S
O114 C108 1.299 . S
O115 Zn103 2.114 . S
O115 C117 1.166 . S
O116 Zn101 1.905 . S
O116 C117 1.182 . S
C117 O115 1.166 . S
C117 O116 1.182 . S
O118 Zn103 2.080 . S
O118 C121 1.305 . S
O119 Zn102 1.920 . S
O119 C121 1.234 . S
C120 O106 1.305 . S
C120 O107 1.234 . S
C121 O118 1.305 . S
C121 O119 1.234 . S
C122 C123 1.363 . S
C122 C128 1.379 . S
C122 N130 1.356 . S
C123 C122 1.363 . S
C123 C129 1.363 . S
C124 C125 1.363 . S
C124 C129 1.379 . S
C124 N131 1.356 . S
C125 C124 1.363 . S
C125 C128 1.363 . S
N126 C128 1.356 . S
N126 H138 0.984 . S
N126 H139 0.985 . S
N127 C129 1.356 . S
N127 H132 0.984 . S
N127 H133 0.985 1_455 S
C128 C122 1.379 . S
C128 C125 1.363 . S
C128 N126 1.356 . S
C129 C123 1.363 . S
C129 C124 1.379 . S
C129 N127 1.356 . S
N130 C122 1.356 . S
N130 H136 0.984 . S
N130 H137 0.984 . S
N131 C124 1.356 . S
N131 H134 0.984 . S
N131 H135 0.985 . S
H132 N127 0.984 . S
H133 N127 0.985 1_655 S
H134 N131 0.984 . S
H135 N131 0.985 . S
H136 N130 0.984 . S
H137 N130 0.984 . S
H138 N126 0.984 . S
H139 N126 0.985 . S
C140 C141 1.363 . S
C140 C146 1.379 . S
C140 N148 1.356 . S
C141 C140 1.363 . S
C141 C147 1.363 . S
C142 C143 1.363 . S
C142 C147 1.379 . S
C142 N149 1.356 . S
C143 C142 1.363 . S
C143 C146 1.363 . S
N144 C146 1.356 . S
N144 H156 0.984 . S
N144 H157 0.985 . S
N145 C147 1.356 1_565 S
N145 H150 0.984 . S
N145 H151 0.985 . S
C146 C140 1.379 . S
C146 C143 1.363 . S
C146 N144 1.356 . S
C147 C141 1.363 . S
C147 C142 1.379 . S
C147 N145 1.356 1_545 S
N148 C140 1.356 . S
N148 H154 0.984 . S
N148 H155 0.984 . S
N149 C142 1.356 . S
N149 H152 0.984 . S
N149 H153 0.985 . S
H150 N145 0.984 . S
H151 N145 0.985 . S
H152 N149 0.984 . S
H153 N149 0.985 . S
H154 N148 0.984 . S
H155 N148 0.984 . S
H156 N144 0.984 . S
H157 N144 0.985 . S
C158 C159 1.363 . S
C158 C164 1.379 . S
C158 N166 1.356 . S
C159 C158 1.363 . S
C159 C165 1.363 . S
C160 C161 1.363 . S
C160 C165 1.379 . S
C160 N167 1.356 . S
C161 C160 1.363 . S
C161 C164 1.363 . S
N162 C164 1.356 . S
N162 H174 0.984 . S
N162 H175 0.985 . S
N163 C165 1.356 . S
N163 H168 0.984 . S
N163 H169 0.985 . S
C164 C158 1.379 . S
C164 C161 1.363 . S
C164 N162 1.356 . S
C165 C159 1.363 . S
C165 C160 1.379 . S
C165 N163 1.356 . S
N166 C158 1.356 . S
N166 H172 0.984 . S
N166 H173 0.984 . S
N167 C160 1.356 . S
N167 H170 0.984 . S
N167 H171 0.985 . S
H168 N163 0.984 . S
H169 N163 0.985 . S
H170 N167 0.984 . S
H171 N167 0.985 . S
H172 N166 0.984 . S
H173 N166 0.984 . S
H174 N162 0.984 . S
H175 N162 0.985 . S
C176 C177 1.363 . S
C176 C182 1.379 . S
C176 N184 1.356 . S
C177 C176 1.363 . S
C177 C183 1.363 . S
C178 C179 1.363 . S
C178 C183 1.379 . S
C178 N185 1.356 . S
C179 C178 1.363 . S
C179 C182 1.363 . S
N180 C182 1.356 . S
N180 H192 0.984 . S
N180 H193 0.985 . S
N181 C183 1.356 . S
N181 H186 0.984 . S
N181 H187 0.985 . S
C182 C176 1.379 . S
C182 C179 1.363 . S
C182 N180 1.356 . S
C183 C177 1.363 . S
C183 C178 1.379 . S
C183 N181 1.356 . S
N184 C176 1.356 . S
N184 H190 0.984 . S
N184 H191 0.984 . S
N185 C178 1.356 . S
N185 H188 0.984 . S
N185 H189 0.985 . S
H186 N181 0.984 . S
H187 N181 0.985 . S
H188 N185 0.984 . S
H189 N185 0.985 . S
H190 N184 0.984 . S
H191 N184 0.984 . S
H192 N180 0.984 . S
H193 N180 0.985 . S
C194 C195 1.363 . S
C194 C200 1.379 . S
C194 N202 1.356 . S
C195 C194 1.363 . S
C195 C201 1.363 . S
C196 C197 1.363 . S
C196 C201 1.379 . S
C196 N203 1.356 . S
C197 C196 1.363 . S
C197 C200 1.363 . S
N198 C200 1.356 . S
N198 H210 0.984 . S
N198 H211 0.985 . S
N199 C201 1.356 . S
N199 H204 0.984 . S
N199 H205 0.985 1_565 S
C200 C194 1.379 . S
C200 C197 1.363 . S
C200 N198 1.356 . S
C201 C195 1.363 . S
C201 C196 1.379 . S
C201 N199 1.356 . S
N202 C194 1.356 . S
N202 H208 0.984 . S
N202 H209 0.984 . S
N203 C196 1.356 . S
N203 H206 0.984 . S
N203 H207 0.985 1_565 S
H204 N199 0.984 . S
H205 N199 0.985 1_545 S
H206 N203 0.984 . S
H207 N203 0.985 1_545 S
H208 N202 0.984 . S
H209 N202 0.984 . S
H210 N198 0.984 . S
H211 N198 0.985 . S
C212 C213 1.363 . S
C212 C218 1.379 . S
C212 N220 1.356 . S
C213 C212 1.363 . S
C213 C219 1.363 . S
C214 C215 1.363 . S
C214 C219 1.379 . S
C214 N221 1.356 . S
C215 C214 1.363 . S
C215 C218 1.363 . S
N216 C218 1.356 . S
N216 H228 0.984 . S
N216 H229 0.985 . S
N217 C219 1.356 . S
N217 H222 0.984 . S
N217 H223 0.985 . S
C218 C212 1.379 . S
C218 C215 1.363 . S
C218 N216 1.356 . S
C219 C213 1.363 . S
C219 C214 1.379 . S
C219 N217 1.356 . S
N220 C212 1.356 . S
N220 H226 0.984 . S
N220 H227 0.984 . S
N221 C214 1.356 . S
N221 H224 0.984 . S
N221 H225 0.985 . S
H222 N217 0.984 . S
H223 N217 0.985 . S
H224 N221 0.984 . S
H225 N221 0.985 . S
H226 N220 0.984 . S
H227 N220 0.984 . S
H228 N216 0.984 . S
H229 N216 0.985 . S
C230 C231 1.363 . S
C230 C236 1.379 . S
C230 N238 1.356 . S
C231 C230 1.363 . S
C231 C237 1.363 . S
C232 C233 1.363 . S
C232 C237 1.379 . S
C232 N239 1.356 . S
C233 C232 1.363 . S
C233 C236 1.363 . S
N234 C236 1.356 . S
N234 H246 0.984 . S
N234 H247 0.985 . S
N235 C237 1.356 . S
N235 H240 0.984 . S
N235 H241 0.985 . S
C236 C230 1.379 . S
C236 C233 1.363 . S
C236 N234 1.356 . S
C237 C231 1.363 . S
C237 C232 1.379 . S
C237 N235 1.356 . S
N238 C230 1.356 . S
N238 H244 0.991 . S
N238 H245 0.984 . S
N239 C232 1.356 . S
N239 H242 0.984 . S
N239 H243 0.985 . S
H240 N235 0.984 . S
H241 N235 0.985 . S
H242 N239 0.984 . S
H243 N239 0.985 . S
H244 N238 0.991 . S
H245 N238 0.984 . S
H246 N234 0.984 . S
H247 N234 0.985 . S
C248 C249 1.363 . S
C248 C254 1.379 . S
C248 N256 1.356 . S
C249 C248 1.363 . S
C249 C255 1.363 . S
C250 C251 1.363 . S
C250 C255 1.379 . S
C250 N257 1.356 . S
C251 C250 1.363 . S
C251 C254 1.363 . S
N252 C254 1.356 . S
N252 H264 0.984 . S
N252 H265 0.985 . S
N253 C255 1.356 . S
N253 H258 0.984 . S
N253 H259 0.985 1_556 S
C254 C248 1.379 . S
C254 C251 1.363 . S
C254 N252 1.356 . S
C255 C249 1.363 . S
C255 C250 1.379 . S
C255 N253 1.356 . S
N256 C248 1.356 . S
N256 H262 0.984 . S
N256 H263 0.984 . S
N257 C250 1.356 . S
N257 H260 0.984 . S
N257 H261 0.985 . S
H258 N253 0.984 . S
H259 N253 0.985 1_554 S
H260 N257 0.984 . S
H261 N257 0.985 . S
H262 N256 0.984 . S
H263 N256 0.984 . S
H264 N252 0.984 . S
H265 N252 0.985 . S
C266 C267 1.363 . S
C266 C272 1.379 . S
C266 N274 1.356 . S
C267 C266 1.363 . S
C267 C273 1.363 . S
C268 C269 1.363 . S
C268 C273 1.379 . S
C268 N275 1.356 . S
C269 C268 1.363 . S
C269 C272 1.363 . S
N270 C272 1.356 . S
N270 H282 0.984 . S
N270 H283 0.985 . S
N271 C273 1.356 . S
N271 H276 0.984 . S
N271 H277 0.985 . S
C272 C266 1.379 . S
C272 C269 1.363 . S
C272 N270 1.356 . S
C273 C267 1.363 . S
C273 C268 1.379 . S
C273 N271 1.356 . S
N274 C266 1.356 . S
N274 H280 0.984 . S
N274 H281 0.984 . S
N275 C268 1.356 . S
N275 H278 0.984 . S
N275 H279 0.985 . S
H276 N271 0.984 . S
H277 N271 0.985 . S
H278 N275 0.984 . S
H279 N275 0.985 . S
H280 N274 0.984 . S
H281 N274 0.984 . S
H282 N270 0.984 . S
H283 N270 0.985 . S
C284 C285 1.363 . S
C284 C290 1.379 . S
C284 N292 1.363 . S
C285 C284 1.363 . S
C285 C291 1.363 . S
C286 C287 1.363 . S
C286 C291 1.379 . S
C286 N293 1.356 . S
C287 C286 1.363 . S
C287 C290 1.363 . S
N288 C290 1.356 . S
N288 H300 0.984 . S
N288 H301 0.985 . S
N289 C291 1.356 . S
N289 H294 0.984 . S
N289 H295 0.985 1_545 S
C290 C284 1.379 . S
C290 C287 1.363 . S
C290 N288 1.356 . S
C291 C285 1.363 . S
C291 C286 1.379 . S
C291 N289 1.356 . S
N292 C284 1.363 . S
N292 H298 0.986 1_655 S
N292 H299 0.977 1_655 S
N293 C286 1.356 . S
N293 H296 0.984 . S
N293 H297 0.985 1_545 S
H294 N289 0.984 . S
H295 N289 0.985 1_565 S
H296 N293 0.984 . S
H297 N293 0.985 1_565 S
H298 N292 0.986 1_455 S
H299 N292 0.977 1_455 S
H300 N288 0.984 . S
H301 N288 0.985 . S
C302 C303 1.363 . S
C302 C308 1.379 . S
C302 N310 1.356 . S
C303 C302 1.363 . S
C303 C309 1.363 . S
C304 C305 1.363 . S
C304 C309 1.379 . S
C304 N311 1.356 . S
C305 C304 1.363 . S
C305 C308 1.363 . S
N306 C308 1.356 . S
N306 H318 0.984 . S
N306 H319 0.985 . S
N307 C309 1.356 1_545 S
N307 H312 0.984 . S
N307 H313 0.985 . S
C308 C302 1.379 . S
C308 C305 1.363 . S
C308 N306 1.356 . S
C309 C303 1.363 . S
C309 C304 1.379 . S
C309 N307 1.356 1_565 S
N310 C302 1.356 . S
N310 H316 0.984 . S
N310 H317 0.984 . S
N311 C304 1.356 . S
N311 H314 0.984 . S
N311 H315 0.985 . S
H312 N307 0.984 . S
H313 N307 0.985 . S
H314 N311 0.984 . S
H315 N311 0.985 . S
H316 N310 0.984 . S
H317 N310 0.984 . S
H318 N306 0.984 . S
H319 N306 0.985 . S
C320 C321 1.363 . S
C320 C326 1.379 . S
C320 N328 1.356 . S
C321 C320 1.363 . S
C321 C327 1.363 . S
C322 C323 1.363 . S
C322 C327 1.379 . S
C322 N329 1.356 . S
C323 C322 1.363 . S
C323 C326 1.363 . S
N324 C326 1.356 . S
N324 H336 0.984 . S
N324 H337 0.985 . S
N325 C327 1.356 . S
N325 H330 0.984 . S
N325 H331 0.985 . S
C326 C320 1.379 . S
C326 C323 1.363 . S
C326 N324 1.356 . S
C327 C321 1.363 . S
C327 C322 1.379 . S
C327 N325 1.356 . S
N328 C320 1.356 . S
N328 H334 0.984 1_556 S
N328 H335 0.984 1_556 S
N329 C322 1.356 . S
N329 H332 0.984 . S
N329 H333 0.985 . S
H330 N325 0.984 . S
H331 N325 0.985 . S
H332 N329 0.984 . S
H333 N329 0.985 . S
H334 N328 0.984 1_554 S
H335 N328 0.984 1_554 S
H336 N324 0.984 . S
H337 N324 0.985 . S
C123 C11 1.941 . S
C125 C99 1.927 . S
C141 C51 1.328 . S
C143 C105 1.240 . S
C159 C7 1.099 . S
C161 C96 0.964 . S
C177 C47 1.614 . S
C179 C121 1.457 . S
C195 C10 2.140 . S
C197 C87 2.051 . S
C215 C104 2.323 . S
C213 C50 2.362 . S
C231 C56 1.392 . S
C233 C100 1.305 . S
C251 C117 1.735 . S
C249 C19 1.770 . S
C269 C84 2.115 . S
C267 C59 2.185 . S
C287 C120 2.201 . S
C285 C2 2.213 . S
C305 C83 1.583 . S
C303 C42 1.676 . S
C323 C108 0.937 . S
C321 C16 1.082 . S
