# Generated by pormake.
# Topology cml, (3,6)-cn, num edge types: 1
# Building blocks:
#     Node 0, Type 0, BuildingBlock: WUSLED_clean_sbu_0, # of connection points: 3
#     Node 1, Type 0, BuildingBlock: WUSLED_clean_sbu_0, # of connection points: 3
#     Node 2, Type 0, BuildingBlock: WUSLED_clean_sbu_0, # of connection points: 3
#     Node 3, Type 0, BuildingBlock: WUSLED_clean_sbu_0, # of connection points: 3
#     Node 4, Type 0, BuildingBlock: WUSLED_clean_sbu_0, # of connection points: 3
#     Node 5, Type 0, BuildingBlock: WUSLED_clean_sbu_0, # of connection points: 3
#     Node 6, Type 0, BuildingBlock: WUSLED_clean_sbu_0, # of connection points: 3
#     Node 7, Type 0, BuildingBlock: WUSLED_clean_sbu_0, # of connection points: 3
#     Node 8, Type 1, BuildingBlock: IZENUY_clean_sbu_0, # of connection points: 6
#     Node 9, Type 1, BuildingBlock: IZENUY_clean_sbu_0, # of connection points: 6
#     Node 10, Type 1, BuildingBlock: IZENUY_clean_sbu_0, # of connection points: 6
#     Node 11, Type 1, BuildingBlock: IZENUY_clean_sbu_0, # of connection points: 6
#     Edge 12, Type (0, 1), BuildingBlock: AJUNOK_clean_linker_0, # of connection points: 2
#     Edge 13, Type (0, 1), BuildingBlock: AJUNOK_clean_linker_0, # of connection points: 2
#     Edge 14, Type (0, 1), BuildingBlock: AJUNOK_clean_linker_0, # of connection points: 2
#     Edge 15, Type (0, 1), BuildingBlock: AJUNOK_clean_linker_0, # of connection points: 2
#     Edge 16, Type (0, 1), BuildingBlock: AJUNOK_clean_linker_0, # of connection points: 2
#     Edge 17, Type (0, 1), BuildingBlock: AJUNOK_clean_linker_0, # of connection points: 2
#     Edge 18, Type (0, 1), BuildingBlock: AJUNOK_clean_linker_0, # of connection points: 2
#     Edge 19, Type (0, 1), BuildingBlock: AJUNOK_clean_linker_0, # of connection points: 2
#     Edge 20, Type (0, 1), BuildingBlock: AJUNOK_clean_linker_0, # of connection points: 2
#     Edge 21, Type (0, 1), BuildingBlock: AJUNOK_clean_linker_0, # of connection points: 2
#     Edge 22, Type (0, 1), BuildingBlock: AJUNOK_clean_linker_0, # of connection points: 2
#     Edge 23, Type (0, 1), BuildingBlock: AJUNOK_clean_linker_0, # of connection points: 2
#     Edge 24, Type (0, 1), BuildingBlock: AJUNOK_clean_linker_0, # of connection points: 2
#     Edge 25, Type (0, 1), BuildingBlock: AJUNOK_clean_linker_0, # of connection points: 2
#     Edge 26, Type (0, 1), BuildingBlock: AJUNOK_clean_linker_0, # of connection points: 2
#     Edge 27, Type (0, 1), BuildingBlock: AJUNOK_clean_linker_0, # of connection points: 2
#     Edge 28, Type (0, 1), BuildingBlock: AJUNOK_clean_linker_0, # of connection points: 2
#     Edge 29, Type (0, 1), BuildingBlock: AJUNOK_clean_linker_0, # of connection points: 2
#     Edge 30, Type (0, 1), BuildingBlock: AJUNOK_clean_linker_0, # of connection points: 2
#     Edge 31, Type (0, 1), BuildingBlock: AJUNOK_clean_linker_0, # of connection points: 2
#     Edge 32, Type (0, 1), BuildingBlock: AJUNOK_clean_linker_0, # of connection points: 2
#     Edge 33, Type (0, 1), BuildingBlock: AJUNOK_clean_linker_0, # of connection points: 2
#     Edge 34, Type (0, 1), BuildingBlock: AJUNOK_clean_linker_0, # of connection points: 2
#     Edge 35, Type (0, 1), BuildingBlock: AJUNOK_clean_linker_0, # of connection points: 2
# Relax obj value: 0.051
# Max RMSD: 0.068
# Mean RMSD: 0.065
data_MOF--net-cml--node1-WUSLED_clean_sbu_0--node2-IZENUY_clean_sbu_0--edge1-AJUNOK_clean_linker_0
_symmetry_space_group_name_H-M    P1
_symmetry_Int_Tables_number       1
_symmetry_cell_setting            triclinic
loop_
_symmetry_equiv_pos_as_xyz
'x, y, z'
_cell_length_a     37.151758
_cell_length_b     41.899723
_cell_length_c     38.678003
_cell_angle_alpha  90.598068
_cell_angle_beta   90.028598
_cell_angle_gamma 90.364602
loop_
_atom_site_label
_atom_site_type_symbol
_atom_site_fract_x
_atom_site_fract_y
_atom_site_fract_z
_atom_type_partial_charge
C0 C 0.31075 0.48076 0.97022 0.0
C1 C 0.33159 0.49618 0.99593 0.0
C2 C 0.35855 0.53053 0.95234 0.0
C3 C 0.3553 0.52111 0.98701 0.0
C4 C 0.33715 0.51541 0.92708 0.0
C5 C 0.31354 0.49083 0.93594 0.0
U6 U 0.27782 0.4102 0.02562 0.0
O7 O 0.22281 0.39139 0.03379 0.0
O8 O 0.26364 0.36148 1.00844 0.0
C9 C 0.22999 0.36395 1.01858 0.0
C10 C 0.28686 0.45335 0.97753 0.0
C11 C 0.20192 0.34959 0.99594 0.0
C12 C 0.17692 0.33485 0.93948 0.0
C13 C 0.20171 0.35258 0.95971 0.0
C14 C 0.15172 0.31229 0.99153 0.0
C15 C 0.15218 0.31385 0.95524 0.0
C16 C 0.17625 0.32983 1.01151 0.0
C17 C 0.33554 0.40608 0.11329 0.0
C18 C 0.33746 0.3759 0.16677 0.0
C19 C 0.38383 0.4151 0.15453 0.0
C20 C 0.36704 0.4221 0.1234 0.0
C21 C 0.36954 0.3918 0.17646 0.0
C22 C 0.32049 0.38298 0.13519 0.0
C23 C 0.32009 0.41507 0.07975 0.0
O24 O 0.30225 0.42523 0.97659 0.0
O25 O 0.26387 0.45664 1.00313 0.0
O26 O 0.28787 0.4278 0.07874 0.0
O27 O 0.32857 0.39836 0.05203 0.0
H28 H 0.33001 0.4886 0.02258 0.0
H29 H 0.37186 0.53227 1.00684 0.0
H30 H 0.33928 0.52223 0.90021 0.0
H31 H 0.29784 0.47921 0.91577 0.0
H32 H 0.17818 0.33653 0.91159 0.0
H33 H 0.22132 0.36771 0.94707 0.0
H34 H 0.13275 0.29683 1.00462 0.0
H35 H 0.17588 0.32712 0.03934 0.0
H36 H 0.3261 0.35761 0.18316 0.0
H37 H 0.40829 0.42789 0.16142 0.0
H38 H 0.3789 0.44014 0.10696 0.0
H39 H 0.29609 0.37037 0.12781 0.0
C40 C 0.69001 0.67123 0.6159 0.0
C41 C 0.67525 0.64194 0.62667 0.0
C42 C 0.64376 0.66886 0.67423 0.0
C43 C 0.6525 0.64075 0.65571 0.0
C44 C 0.65829 0.69799 0.66284 0.0
C45 C 0.68112 0.69911 0.63416 0.0
U46 U 0.72491 0.64297 0.52728 0.0
O47 O 0.73947 0.67038 0.48108 0.0
O48 O 0.78006 0.64045 0.50616 0.0
C49 C 0.77286 0.66022 0.48092 0.0
C50 C 0.71472 0.67374 0.58597 0.0
C51 C 0.80106 0.68326 0.47073 0.0
C52 C 0.83482 0.73304 0.47717 0.0
C53 C 0.80933 0.71106 0.48985 0.0
C54 C 0.84436 0.69915 0.42698 0.0
C55 C 0.85203 0.72758 0.44515 0.0
C56 C 0.81909 0.67742 0.43954 0.0
C57 C 0.67076 0.56684 0.49392 0.0
C58 C 0.66561 0.53766 0.43937 0.0
C59 C 0.63208 0.52033 0.48958 0.0
C60 C 0.64688 0.5452 0.50895 0.0
C61 C 0.64157 0.51582 0.45474 0.0
C62 C 0.68017 0.56318 0.45891 0.0
C63 C 0.68286 0.59351 0.51596 0.0
O64 O 0.73862 0.65094 0.58212 0.0
O65 O 0.69985 0.68228 0.55668 0.0
O66 O 0.67464 0.62256 0.50643 0.0
O67 O 0.7144 0.59131 0.53112 0.0
H68 H 0.68155 0.62004 0.61289 0.0
H69 H 0.64236 0.61777 0.66398 0.0
H70 H 0.65183 0.72014 0.67603 0.0
H71 H 0.69197 0.72194 0.62621 0.0
H72 H 0.84042 0.75461 0.49194 0.0
H73 H 0.79578 0.71598 0.5141 0.0
H74 H 0.85793 0.69363 0.40289 0.0
H75 H 0.81325 0.65604 0.4245 0.0
H76 H 0.67306 0.53499 0.41243 0.0
H77 H 0.61245 0.50499 0.5019 0.0
H78 H 0.63889 0.54798 0.53577 0.0
H79 H 0.69833 0.57999 0.44678 0.0
C80 C 0.69409 0.47597 0.96253 0.0
C81 C 0.66384 0.48351 0.98279 0.0
C82 C 0.64976 0.52799 0.94474 0.0
C83 C 0.64184 0.50933 0.97395 0.0
C84 C 0.68017 0.52018 0.9248 0.0
C85 C 0.70219 0.49469 0.9338 0.0
U86 U 0.72664 0.40803 1.02062 0.0
O87 O 0.74083 0.35849 1.00721 0.0
O88 O 0.7817 0.39061 0.02989 0.0
C89 C 0.77443 0.36202 1.01731 0.0
C90 C 0.71712 0.44828 0.96987 0.0
C91 C 0.80244 0.34625 0.99623 0.0
C92 C 0.83298 0.33417 0.94185 0.0
C93 C 0.80765 0.35209 0.96083 0.0
C94 C 0.84849 0.3054 0.99367 0.0
C95 C 0.85325 0.31018 0.95806 0.0
C96 C 0.82342 0.32314 1.01241 0.0
C97 C 0.67705 0.40464 0.111 0.0
C98 C 0.65316 0.36457 0.15024 0.0
C99 C 0.65317 0.42044 0.16693 0.0
C100 C 0.66972 0.42828 0.13583 0.0
C101 C 0.64326 0.38875 0.17379 0.0
C102 C 0.66986 0.37248 0.11883 0.0
C103 C 0.68659 0.41547 0.07598 0.0
O104 O 0.7415 0.4525 0.99414 0.0
O105 O 0.70069 0.42046 0.97149 0.0
O106 O 0.67709 0.39739 0.04949 0.0
O107 O 0.71775 0.42997 0.07197 0.0
H108 H 0.65709 0.4693 1.00514 0.0
H109 H 0.61862 0.51464 0.98988 0.0
H110 H 0.6865 0.53314 0.9015 0.0
H111 H 0.72527 0.48915 0.91776 0.0
H112 H 0.8358 0.3383 0.91439 0.0
H113 H 0.79168 0.36987 0.94782 0.0
H114 H 0.86394 0.28752 1.0071 0.0
H115 H 0.8199 0.3183 0.03968 0.0
H116 H 0.64591 0.33994 0.15509 0.0
H117 H 0.64627 0.43947 0.18488 0.0
H118 H 0.67489 0.45321 0.13033 0.0
H119 H 0.67535 0.35378 0.10006 0.0
C120 C 0.32536 0.65029 0.61798 0.0
C121 C 0.34925 0.6254 0.62477 0.0
C122 C 0.36732 0.65234 0.67827 0.0
C123 C 0.37028 0.62646 0.65488 0.0
C124 C 0.34294 0.67685 0.67123 0.0
C125 C 0.32224 0.67582 0.64134 0.0
U126 U 0.27839 0.6343 0.52641 0.0
O127 O 0.22084 0.64617 0.52009 0.0
O128 O 0.26362 0.67501 0.49428 0.0
C129 C 0.22924 0.67058 0.50058 0.0
C130 C 0.30316 0.65143 0.58694 0.0
C131 C 0.20226 0.68977 0.48345 0.0
C132 C 0.15753 0.73129 0.48701 0.0
C133 C 0.1819 0.71121 0.50315 0.0
C134 C 0.17336 0.70808 0.43133 0.0
C135 C 0.15312 0.72998 0.45096 0.0
C136 C 0.19788 0.68807 0.44755 0.0
C137 C 0.32127 0.5571 0.48261 0.0
C138 C 0.3321 0.51244 0.44389 0.0
C139 C 0.37508 0.52537 0.48922 0.0
C140 C 0.35352 0.55092 0.50003 0.0
C141 C 0.3646 0.50605 0.46086 0.0
C142 C 0.31055 0.53755 0.45489 0.0
C143 C 0.29938 0.58524 0.48965 0.0
O144 O 0.31802 0.66082 0.5579 0.0
O145 O 0.27672 0.63068 0.58311 0.0
O146 O 0.27347 0.58325 0.5127 0.0
O147 O 0.31515 0.61337 0.48819 0.0
H148 H 0.35188 0.60556 0.60679 0.0
H149 H 0.38931 0.6075 0.6595 0.0
H150 H 0.33989 0.69689 0.68888 0.0
H151 H 0.30378 0.69518 0.63635 0.0
H152 H 0.14216 0.74789 0.50268 0.0
H153 H 0.18536 0.71282 0.53095 0.0
H154 H 0.17088 0.70699 0.40344 0.0
H155 H 0.21371 0.67162 0.43211 0.0
H156 H 0.3239 0.49884 0.42123 0.0
H157 H 0.40018 0.52103 0.50258 0.0
H158 H 0.36231 0.56613 0.52126 0.0
H159 H 0.28598 0.54246 0.44082 0.0
C160 C 0.81223 0.97831 0.96718 0.0
C161 C 0.8361 0.99174 0.99168 0.0
C162 C 0.85967 0.02776 0.94803 0.0
C163 C 0.85963 1.01654 0.98215 0.0
C164 C 0.83542 1.0146 0.92396 0.0
C165 C 0.81187 0.99019 0.9335 0.0
U166 U 0.77994 0.91027 0.02571 0.0
O167 O 0.72527 0.89057 0.03312 0.0
O168 O 0.76826 0.8601 1.01228 0.0
C169 C 0.73412 0.86233 1.02073 0.0
C170 C 0.78865 0.95094 0.97516 0.0
C171 C 0.70811 0.84529 0.99809 0.0
C172 C 0.66324 0.84207 0.95196 0.0
C173 C 0.68879 0.85985 0.97126 0.0
C174 C 0.67714 0.7953 0.98553 0.0
C175 C 0.65688 0.80954 0.9592 0.0
C176 C 0.70214 0.81294 1.00472 0.0
C177 C 0.83617 0.90901 0.1137 0.0
C178 C 0.83862 0.8763 0.16535 0.0
C179 C 0.88276 0.91825 0.15661 0.0
C180 C 0.86635 0.926 0.12552 0.0
C181 C 0.86943 0.89319 0.17677 0.0
C182 C 0.82204 0.88413 0.1338 0.0
C183 C 0.82173 0.91828 0.07985 0.0
O184 O 0.80465 0.92312 0.97611 0.0
O185 O 0.76511 0.95508 1.00016 0.0
O186 O 0.78913 0.93019 0.07809 0.0
O187 O 0.83093 0.90112 0.05269 0.0
H188 H 0.83694 0.98271 1.01782 0.0
H189 H 0.87839 0.0263 1.001 0.0
H190 H 0.83511 0.02295 0.89754 0.0
H191 H 0.79376 0.98009 0.91427 0.0
H192 H 0.64785 0.85398 0.93218 0.0
H193 H 0.69301 0.88486 0.96562 0.0
H194 H 0.67357 0.7703 0.99154 0.0
H195 H 0.71676 0.80121 0.02519 0.0
H196 H 0.82802 0.85664 0.18029 0.0
H197 H 0.90622 0.93184 0.16482 0.0
H198 H 0.87761 0.94526 0.11038 0.0
H199 H 0.79875 0.87066 0.12498 0.0
C200 C 0.17593 0.14929 0.61386 0.0
C201 C 0.15365 0.12439 0.6249 0.0
C202 C 0.13887 0.15472 0.67682 0.0
C203 C 0.13497 0.12717 0.65606 0.0
C204 C 0.1614 0.17963 0.6656 0.0
C205 C 0.17978 0.17694 0.63423 0.0
U206 U 0.22984 0.14064 0.52317 0.0
O207 O 0.24781 0.1865 0.50225 0.0
O208 O 0.28714 0.15452 0.52649 0.0
C209 C 0.2815 0.18186 0.5111 0.0
C210 C 0.19533 0.14619 0.58123 0.0
C211 C 0.3096 0.19423 0.48806 0.0
C212 C 0.36275 0.2277 0.48404 0.0
C213 C 0.33836 0.21043 0.50378 0.0
C214 C 0.33112 0.21159 0.43184 0.0
C215 C 0.35891 0.22927 0.448 0.0
C216 C 0.30642 0.19418 0.45183 0.0
C217 C 0.18913 0.06938 0.46862 0.0
C218 C 0.16452 0.03627 0.42255 0.0
C219 C 0.14609 0.0271 0.48173 0.0
C220 C 0.16888 0.05212 0.49292 0.0
C221 C 0.14333 1.01939 0.44625 0.0
C222 C 0.18684 0.06108 0.43359 0.0
C223 C 0.21345 0.096 0.4777 0.0
O224 O 0.22358 0.12771 0.57799 0.0
O225 O 0.18473 0.16087 0.55316 0.0
O226 O 0.19961 0.12478 0.47719 0.0
O227 O 0.23682 0.09178 0.50275 0.0
H228 H 0.1504 0.10297 0.60923 0.0
H229 H 0.11708 0.10798 0.66364 0.0
H230 H 0.1649 0.20107 0.68116 0.0
H231 H 0.19711 0.19631 0.62598 0.0
H232 H 0.38413 0.2407 0.49718 0.0
H233 H 0.34109 0.21091 0.53169 0.0
H234 H 0.32743 0.2125 0.40409 0.0
H235 H 0.2842 0.18189 0.43923 0.0
H236 H 0.16382 0.03031 0.39524 0.0
H237 H 0.13017 1.01426 0.50056 0.0
H238 H 0.17049 0.05809 0.5202 0.0
H239 H 0.20252 0.0739 0.41455 0.0
C240 C 0.19562 0.97821 0.96714 0.0
C241 C 0.17131 0.99052 0.99173 0.0
C242 C 0.15096 0.03025 0.95034 0.0
C243 C 0.14911 1.01645 0.98337 0.0
C244 C 0.17594 1.01813 0.92636 0.0
C245 C 0.19792 0.99245 0.93467 0.0
U246 U 0.22777 0.90737 0.02212 0.0
O247 O 0.24248 0.8588 1.00533 0.0
O248 O 0.28298 0.88968 0.03045 0.0
C249 C 0.27621 0.86212 1.01516 0.0
C250 C 0.21847 0.95024 0.97385 0.0
C251 C 0.30448 0.84874 0.99217 0.0
C252 C 0.32574 0.82867 0.93625 0.0
C253 C 0.3006 0.84609 0.95602 0.0
C254 C 0.3596 0.81785 0.98821 0.0
C255 C 0.35503 0.81355 0.95236 0.0
C256 C 0.33468 0.83512 1.00778 0.0
C257 C 0.17499 0.90275 0.11202 0.0
C258 C 0.15546 0.86317 0.15395 0.0
C259 C 0.14463 0.91933 0.1647 0.0
C260 C 0.16159 0.92683 0.13372 0.0
C261 C 0.14046 0.88743 0.17486 0.0
C262 C 0.17256 0.87078 0.12257 0.0
C263 C 0.18716 0.91254 0.0774 0.0
O264 O 0.24237 0.95336 0.99872 0.0
O265 O 0.20206 0.92236 0.97369 0.0
O266 O 0.1783 0.8948 0.05043 0.0
O267 O 0.21859 0.92683 0.07458 0.0
H268 H 0.16909 0.97978 1.017 0.0
H269 H 0.12977 0.02496 1.00221 0.0
H270 H 0.17814 0.0283 0.90081 0.0
H271 H 0.21649 0.98337 0.91541 0.0
H272 H 0.32125 0.82572 0.90874 0.0
H273 H 0.27752 0.85639 0.94328 0.0
H274 H 0.38206 0.807 1.00143 0.0
H275 H 0.33831 0.83678 0.03554 0.0
H276 H 0.1524 0.83834 0.16095 0.0
H277 H 0.13371 0.93859 0.18029 0.0
H278 H 0.16297 0.95161 0.126 0.0
H279 H 0.1826 0.85177 0.1061 0.0
C280 C 0.81734 0.16373 0.61851 0.0
C281 C 0.82959 0.13438 0.6313 0.0
C282 C 0.86397 0.16228 0.67659 0.0
C283 C 0.85262 0.13366 0.66021 0.0
C284 C 0.85208 0.19137 0.66308 0.0
C285 C 0.82909 0.19204 0.63453 0.0
U286 U 0.77789 0.13683 0.53019 0.0
O287 O 0.72197 0.13807 0.51074 0.0
O288 O 0.76446 0.16574 0.48486 0.0
C289 C 0.73027 0.15758 0.48549 0.0
C290 C 0.79197 0.16623 0.58907 0.0
C291 C 0.70397 0.1821 0.4754 0.0
C292 C 0.66669 0.22893 0.48573 0.0
C293 C 0.69121 0.20607 0.49786 0.0
C294 C 0.66792 0.20401 0.42901 0.0
C295 C 0.65494 0.22823 0.45096 0.0
C296 C 0.69194 0.18129 0.44111 0.0
C297 C 0.83081 0.05892 0.49728 0.0
C298 C 0.83707 0.02494 0.44632 0.0
C299 C 0.87423 1.01606 0.4968 0.0
C300 C 0.85755 0.04133 0.51372 0.0
C301 C 0.8641 1.0073 0.46306 0.0
C302 C 0.82043 0.05074 0.46339 0.0
C303 C 0.81669 0.08639 0.51664 0.0
O304 O 0.80623 0.17469 0.55946 0.0
O305 O 0.76709 0.14391 0.58578 0.0
O306 O 0.78495 0.08455 0.53152 0.0
O307 O 0.82636 0.11527 0.50743 0.0
H308 H 0.82106 0.11211 0.61928 0.0
H309 H 0.86088 0.11077 0.67012 0.0
H310 H 0.86066 0.21384 0.67457 0.0
H311 H 0.82023 0.21492 0.62501 0.0
H312 H 0.65671 0.24687 0.50359 0.0
H313 H 0.70013 0.2071 0.52452 0.0
H314 H 0.65993 0.20284 0.40209 0.0
H315 H 0.7015 0.16306 0.42334 0.0
H316 H 0.82904 1.01887 0.42013 0.0
H317 H 0.89586 1.00392 0.50994 0.0
H318 H 0.86623 0.04767 0.53968 0.0
H319 H 0.80001 0.06433 0.45016 0.0
Fe320 Fe 1.00447 0.83214 0.33484 0.0
Fe321 Fe 0.00651 0.8661 0.40569 0.0
O322 O 1.00446 0.86779 0.35995 0.0
Fe323 Fe 1.00204 0.90509 0.33916 0.0
O324 O 0.95909 0.89473 0.31935 0.0
O325 O 0.9765 0.84794 0.29995 0.0
O326 O 0.9633 0.81827 0.35555 0.0
C327 C 0.95925 0.81517 0.38783 0.0
C328 C 0.04844 0.86935 0.29533 0.0
O329 O 0.98065 0.82881 0.40884 0.0
C330 C 0.051 0.91928 0.38976 0.0
O331 O 0.03235 0.80979 0.36498 0.0
O332 O 0.04886 0.84503 0.4043 0.0
O333 O 0.02701 0.89221 0.3008 0.0
O334 O 0.04573 0.84383 0.31235 0.0
C335 C 0.9578 0.91418 0.39778 0.0
O336 O 0.03272 0.90305 0.41092 0.0
O337 O 0.04455 0.91802 0.35771 0.0
C338 C 0.05328 0.81864 0.38903 0.0
O339 O 0.96419 0.88715 0.41039 0.0
O340 O 0.97682 0.92497 0.37349 0.0
C341 C 0.95467 0.87095 0.29955 0.0
Fe342 Fe 1.00381 0.17543 0.90827 0.0
Fe343 Fe 1.00473 0.13518 0.84152 0.0
O344 O 1.00387 0.17312 0.86234 0.0
Fe345 Fe 1.00301 0.20836 0.83693 0.0
O346 O 0.04414 0.22394 0.85663 0.0
O347 O 0.03133 0.21178 0.91063 0.0
O348 O 0.04565 0.15291 0.91187 0.0
C349 C 0.05031 0.12543 0.89904 0.0
C350 C 0.9563 0.22359 0.89298 0.0
O351 O 0.03006 0.11525 0.87518 0.0
C352 C 0.95889 0.17013 0.79741 0.0
O353 O 0.97614 0.13939 0.91397 0.0
O354 O 0.96247 0.12346 0.86101 0.0
O355 O 0.97513 0.23144 0.86716 0.0
O356 O 0.9622 0.19795 0.9088 0.0
C357 C 0.0516 0.16763 0.8007 0.0
O358 O 0.97957 0.14713 0.80338 0.0
O359 O 0.96159 0.19579 0.81477 0.0
C360 C 0.95675 0.12327 0.89318 0.0
O361 O 0.0471 0.14442 0.82079 0.0
O362 O 0.03107 0.19166 0.80222 0.0
C363 C 0.05018 0.22659 0.88868 0.0
Fe364 Fe 0.5085 0.3327 0.33291 0.0
Fe365 Fe 0.50731 0.36647 0.40405 0.0
O366 O 0.50672 0.36817 0.3584 0.0
Fe367 Fe 0.50384 0.40571 0.33796 0.0
O368 O 0.46096 0.39473 0.31831 0.0
O369 O 0.47983 0.34841 0.2982 0.0
O370 O 0.46776 0.31702 0.35242 0.0
C371 C 0.46211 0.31466 0.38444 0.0
C372 C 0.5505 0.37121 0.29346 0.0
O373 O 0.48159 0.32921 0.40641 0.0
C374 C 0.55288 0.41916 0.38846 0.0
O375 O 0.53704 0.31071 0.36346 0.0
O376 O 0.54987 0.34574 0.40439 0.0
O377 O 0.52848 0.3934 0.29948 0.0
O378 O 0.54945 0.3459 0.31093 0.0
C379 C 0.4592 0.41441 0.39592 0.0
O380 O 0.53337 0.40359 0.40938 0.0
O381 O 0.54637 0.41877 0.35642 0.0
C382 C 0.55603 0.31967 0.38911 0.0
O383 O 0.46453 0.38695 0.40757 0.0
O384 O 0.47899 0.42562 0.37256 0.0
C385 C 0.45722 0.37099 0.29819 0.0
Fe386 Fe 0.50407 0.67515 0.90741 0.0
Fe387 Fe 0.50619 0.63563 0.84054 0.0
O388 O 0.5053 0.67347 0.8615 0.0
Fe389 Fe 0.50572 0.70889 0.83646 0.0
O390 O 0.53364 0.73204 0.86709 0.0
O391 O 0.54514 0.69859 0.90934 0.0
O392 O 0.53197 0.63939 0.91318 0.0
C393 C 0.55334 0.62516 0.89276 0.0
C394 C 0.45783 0.72602 0.88807 0.0
O395 O 0.54892 0.626 0.86043 0.0
C396 C 0.45827 0.66643 0.79983 0.0
O397 O 0.46246 0.65179 0.90939 0.0
O398 O 0.48133 0.61459 0.87404 0.0
O399 O 0.46428 0.72365 0.85609 0.0
O400 O 0.47631 0.71099 0.90995 0.0
C401 C 0.55061 0.67237 0.79641 0.0
O402 O 0.46373 0.64318 0.81958 0.0
O403 O 0.47767 0.69149 0.80173 0.0
C404 C 0.45982 0.62384 0.8972 0.0
O405 O 0.53088 0.64853 0.80239 0.0
O406 O 0.54732 0.69766 0.81416 0.0
C407 C 0.5516 0.72422 0.89352 0.0
C408 C 0.12524 0.25959 0.94494 0.0
C409 C 0.12833 0.29172 0.93479 0.0
C410 C 0.10067 0.23859 0.92908 0.0
C411 C 0.07858 0.24852 0.90182 0.0
H412 H 0.14157 0.25063 0.96587 0.0
H413 H 0.09863 0.21439 0.93856 0.0
S414 S 0.07586 0.32965 0.86475 0.0
N415 N 0.10687 0.33228 0.89533 0.0
N416 N 0.0614 0.29228 0.86478 0.0
C417 C 0.08211 0.28011 0.89036 0.0
C418 C 0.10685 0.30181 0.90694 0.0
C419 C 0.90574 0.76417 0.451 0.0
C420 C 0.87802 0.75113 0.43041 0.0
C421 C 0.93169 0.78484 0.437 0.0
C422 C 0.93105 0.79339 0.40178 0.0
H423 H 0.90791 0.75779 0.47798 0.0
H424 H 0.9527 0.79385 0.45397 0.0
S425 S 0.86213 0.76795 0.33754 0.0
N426 N 0.85003 0.75 0.37354 0.0
N427 N 0.89902 0.78833 0.34716 0.0
C428 C 0.90301 0.78102 0.38109 0.0
C429 C 0.8765 0.76009 0.3954 0.0
C430 C 0.87708 0.25564 0.94453 0.0
C431 C 0.87815 0.28875 0.93846 0.0
C432 C 0.90193 0.23483 0.92922 0.0
C433 C 0.92887 0.24608 0.90684 0.0
H434 H 0.85699 0.24567 0.96167 0.0
H435 H 0.90012 0.20968 0.93525 0.0
S436 S 0.94352 0.33063 0.88204 0.0
N437 N 0.9085 0.33182 0.9083 0.0
N438 N 0.95493 0.29268 0.87898 0.0
C439 C 0.92977 0.27905 0.89973 0.0
C440 C 0.90449 0.30035 0.91558 0.0
C441 C 0.12917 0.7848 0.44252 0.0
C442 C 0.1281 0.75212 0.43396 0.0
C443 C 0.10538 0.80624 0.42732 0.0
C444 C 0.07968 0.7958 0.40292 0.0
H445 H 0.14863 0.7939 0.46108 0.0
H446 H 0.10709 0.83116 0.43495 0.0
S447 S 0.06526 0.71215 0.37269 0.0
N448 N 0.09884 0.71002 0.40049 0.0
N449 N 0.05443 0.75025 0.37124 0.0
C450 C 0.07856 0.76309 0.39395 0.0
C451 C 0.10269 0.74127 0.40964 0.0
C452 C 0.60696 0.7691 0.96066 0.0
C453 C 0.62851 0.79005 0.94112 0.0
C454 C 0.58256 0.74794 0.94493 0.0
C455 C 0.57784 0.74715 0.9089 0.0
H456 H 0.60915 0.76879 0.98858 0.0
H457 H 0.56698 0.73222 0.96131 0.0
S458 S 0.62637 0.79739 0.84552 0.0
N459 N 0.64304 0.80871 0.88336 0.0
N460 N 0.59592 0.76962 0.85387 0.0
C461 C 0.59815 0.76859 0.8889 0.0
C462 C 0.62364 0.78992 0.90496 0.0
C463 C 0.38848 0.28243 0.44154 0.0
C464 C 0.38264 0.25132 0.42848 0.0
C465 C 0.41359 0.30294 0.42644 0.0
C466 C 0.43344 0.29341 0.39729 0.0
H467 H 0.37399 0.29081 0.46415 0.0
H468 H 0.41779 0.32637 0.43794 0.0
S469 S 0.42768 0.21507 0.35224 0.0
N470 N 0.3984 0.21223 0.38423 0.0
N471 N 0.44507 0.25139 0.35509 0.0
C472 C 0.42691 0.26297 0.38294 0.0
C473 C 0.40158 0.24179 0.39869 0.0
C474 C 0.38747 0.76142 0.94802 0.0
C475 C 0.37931 0.79108 0.9332 0.0
C476 C 0.41202 0.74041 0.93261 0.0
C477 C 0.42936 0.74778 0.90135 0.0
H478 H 0.37499 0.75441 0.97211 0.0
H479 H 0.41771 0.7182 0.94557 0.0
S480 S 0.4174 0.82203 0.85131 0.0
N481 N 0.39051 0.82661 0.88501 0.0
N482 N 0.43624 0.78668 0.85561 0.0
C483 C 0.42072 0.77686 0.88549 0.0
C484 C 0.3958 0.79855 0.90146 0.0
C485 C 0.60159 0.24226 0.4142 0.0
C486 C 0.62937 0.25226 0.43679 0.0
C487 C 0.57869 0.26421 0.39834 0.0
C488 C 0.58221 0.29721 0.40463 0.0
H489 H 0.59736 0.21711 0.40872 0.0
H490 H 0.55763 0.2551 0.38148 0.0
S491 S 0.65137 0.33618 0.46037 0.0
N492 N 0.65978 0.2977 0.46355 0.0
N493 N 0.61625 0.33892 0.43443 0.0
C494 C 0.60976 0.30762 0.4272 0.0
C495 C 0.63333 0.28521 0.44316 0.0
C496 C 0.38422 0.5864 0.95077 0.0
C497 C 0.38618 0.55397 0.94121 0.0
C498 C 0.40819 0.60905 0.93672 0.0
C499 C 0.43488 0.59993 0.91269 0.0
H500 H 0.36342 0.59441 0.96838 0.0
H501 H 0.40538 0.63387 0.94428 0.0
S502 S 0.45248 0.51698 0.88187 0.0
N503 N 0.41786 0.5135 0.90826 0.0
N504 N 0.46265 0.55534 0.88177 0.0
C505 C 0.4375 0.56721 0.9039 0.0
C506 C 0.41326 0.54444 0.9182 0.0
C507 C 0.60863 0.49447 0.40247 0.0
C508 C 0.62462 0.48908 0.43488 0.0
C509 C 0.58685 0.47104 0.38651 0.0
C510 C 0.57994 0.4417 0.40273 0.0
H511 H 0.61136 0.51748 0.39021 0.0
H512 H 0.57381 0.47664 0.36228 0.0
S513 S 0.61937 0.4143 0.48525 0.0
N514 N 0.63591 0.45057 0.48018 0.0
N515 N 0.59331 0.40754 0.45136 0.0
C516 C 0.5973 0.43546 0.43415 0.0
C517 C 0.6201 0.45886 0.44989 0.0
C518 C 0.58783 0.54983 0.93393 0.0
C519 C 0.62548 0.55432 0.93374 0.0
C520 C 0.56461 0.57316 0.92097 0.0
C521 C 0.57822 0.60159 0.90701 0.0
H522 H 0.57619 0.52778 0.94325 0.0
H523 H 0.53585 0.56865 0.92119 0.0
S524 S 0.67361 0.62682 0.90326 0.0
N525 N 0.67466 0.59118 0.92108 0.0
N526 N 0.63079 0.63407 0.89524 0.0
C527 C 0.6154 0.60685 0.90722 0.0
C528 C 0.63909 0.58346 0.92098 0.0
C529 C 0.42516 0.4883 0.44107 0.0
C530 C 0.3887 0.481 0.44695 0.0
C531 C 0.44782 0.46632 0.42477 0.0
C532 C 0.43493 0.43617 0.41423 0.0
H533 H 0.436 0.51155 0.44805 0.0
H534 H 0.47563 0.47302 0.4202 0.0
S535 S 0.3421 0.40511 0.42358 0.0
N536 N 0.34091 0.44119 0.44117 0.0
N537 N 0.38398 0.39987 0.41048 0.0
C538 C 0.3989 0.42821 0.4204 0.0
C539 C 0.37563 0.45069 0.43672 0.0
C540 C 0.8831 0.08404 0.94613 0.0
C541 C 0.88616 0.05177 0.93626 0.0
C542 C 0.90607 0.10734 0.93206 0.0
C543 C 0.93226 0.099 0.90738 0.0
H544 H 0.8624 0.09133 0.96422 0.0
H545 H 0.90295 0.13205 0.94001 0.0
S546 S 0.95358 1.01739 0.87623 0.0
N547 N 0.91918 1.01242 0.90273 0.0
N548 N 0.96192 0.05615 0.87596 0.0
C549 C 0.93613 0.06675 0.89812 0.0
C550 C 0.91315 0.04313 0.91266 0.0
C551 C 0.11818 0.96343 0.44716 0.0
C552 C 0.11829 0.99427 0.43308 0.0
C553 C 0.09665 0.93898 0.43274 0.0
C554 C 0.07506 0.9445 0.40351 0.0
H555 H 0.13529 0.95804 0.46899 0.0
H556 H 0.09719 0.91552 0.44427 0.0
S557 S 0.06252 0.02186 0.35969 0.0
N558 N 0.09218 0.02959 0.39047 0.0
N559 N 0.05299 0.98348 0.36276 0.0
C560 C 0.07441 0.97532 0.38973 0.0
C561 C 0.09566 1.00024 0.40471 0.0
C562 C 0.10713 0.05106 0.90748 0.0
C563 C 0.12526 0.0553 0.93909 0.0
C564 C 0.08376 0.07417 0.89488 0.0
C565 C 0.07714 0.10277 0.91327 0.0
H566 H 0.11089 0.02947 0.89228 0.0
H567 H 0.07066 0.06932 0.87033 0.0
S568 S 0.11844 0.12597 0.99728 0.0
N569 N 0.13557 0.09048 0.98853 0.0
N570 N 0.09122 0.13418 0.96481 0.0
C571 C 0.09521 0.10753 0.94494 0.0
C572 C 0.11915 0.0837 0.95793 0.0
C573 C 0.89817 0.98625 0.41206 0.0
C574 C 0.88382 0.98121 0.44515 0.0
C575 C 0.92115 0.9639 0.39666 0.0
C576 C 0.9307 0.93557 0.41369 0.0
H577 H 0.89287 1.00824 0.39855 0.0
H578 H 0.93217 0.96934 0.37146 0.0
S579 S 0.89812 0.91006 0.49981 0.0
N580 N 0.87873 0.94486 0.49357 0.0
N581 N 0.92254 0.90314 0.46492 0.0
C582 C 0.91545 0.92968 0.44627 0.0
C583 C 0.89193 0.95243 0.46191 0.0
C584 C 0.4268 0.37671 0.20545 0.0
C585 C 0.38987 0.38359 0.20822 0.0
C586 C 0.44793 0.37167 0.2348 0.0
C587 C 0.43316 0.37399 0.26813 0.0
H588 H 0.4396 0.37554 0.18031 0.0
H589 H 0.47632 0.36682 0.2314 0.0
S590 S 0.33794 0.39032 0.28982 0.0
N591 N 0.33916 0.39127 0.2471 0.0
N592 N 0.37945 0.38264 0.30255 0.0
C593 C 0.3963 0.38044 0.27148 0.0
C594 C 0.37448 0.38493 0.24143 0.0
C595 C 0.62885 0.68742 0.7348 0.0
C596 C 0.62002 0.66843 0.70556 0.0
C597 C 0.60626 0.689 0.76393 0.0
C598 C 0.57413 0.67124 0.7653 0.0
H599 H 0.65359 0.70121 0.73526 0.0
H600 H 0.61427 0.70389 0.78571 0.0
S601 S 0.53716 0.61914 0.69524 0.0
N602 N 0.57565 0.63258 0.67957 0.0
N603 N 0.53377 0.63489 0.73436 0.0
C604 C 0.56488 0.65212 0.73632 0.0
C605 C 0.58767 0.65077 0.70655 0.0
C606 C 0.62745 0.36008 0.22898 0.0
C607 C 0.61873 0.3822 0.20318 0.0
C608 C 0.60504 0.35595 0.25803 0.0
C609 C 0.57332 0.37386 0.26209 0.0
H610 H 0.65214 0.34658 0.22714 0.0
H611 H 0.61303 0.33927 0.27778 0.0
S612 S 0.53632 0.43152 0.19891 0.0
N613 N 0.57457 0.41957 0.18166 0.0
N614 N 0.53293 0.4124 0.2358 0.0
C615 C 0.56376 0.39503 0.2355 0.0
C616 C 0.58631 0.39901 0.20617 0.0
C617 C 0.4079 0.6839 0.7171 0.0
C618 C 0.39018 0.65491 0.70953 0.0
C619 C 0.42893 0.68759 0.74683 0.0
C620 C 0.43321 0.66241 0.77024 0.0
H621 H 0.40581 0.70387 0.69966 0.0
H622 H 0.4423 0.71034 0.75113 0.0
S623 S 0.391 0.58193 0.76281 0.0
N624 N 0.37702 0.60094 0.72818 0.0
N625 N 0.41699 0.60751 0.78406 0.0
C626 C 0.4152 0.63332 0.76315 0.0
C627 C 0.39372 0.62962 0.73275 0.0
C628 C 0.92701 0.88057 0.20664 0.0
C629 C 0.88943 0.88444 0.20855 0.0
C630 C 0.94761 0.87546 0.2363 0.0
C631 C 0.93151 0.87444 0.26906 0.0
H632 H 0.94072 0.8819 0.18197 0.0
H633 H 0.97651 0.87308 0.23367 0.0
S634 S 0.8344 0.88165 0.28846 0.0
N635 N 0.83688 0.88557 0.24603 0.0
N636 N 0.8761 0.87642 0.30208 0.0
C637 C 0.89408 0.87765 0.27156 0.0
C638 C 0.87287 0.8824 0.24118 0.0
C639 C 0.09912 0.18593 0.71644 0.0
C640 C 0.1186 0.15796 0.70959 0.0
C641 C 0.07854 0.18915 0.74651 0.0
C642 C 0.07658 0.16451 0.77098 0.0
H643 H 0.09906 0.20522 0.698 0.0
H644 H 0.06344 0.21097 0.75012 0.0
S645 S 0.12468 0.08712 0.76592 0.0
N646 N 0.13634 0.1058 0.73024 0.0
N647 N 0.09736 0.11155 0.78674 0.0
C648 C 0.09671 0.13665 0.76477 0.0
C649 C 0.11769 0.13342 0.73406 0.0
C650 C 0.08405 0.89576 0.20851 0.0
C651 C 0.11735 0.88023 0.20534 0.0
C652 C 0.06223 0.89166 0.2375 0.0
C653 C 0.07234 0.87149 0.26467 0.0
H654 H 0.07473 0.91148 0.18837 0.0
H655 H 0.03704 0.90454 0.2385 0.0
S656 S 0.1569 0.82524 0.26938 0.0
N657 N 0.15962 0.84389 0.23202 0.0
N658 N 0.11792 0.8356 0.28658 0.0
C659 C 0.10518 0.85517 0.26169 0.0
C660 C 0.12778 0.85962 0.23202 0.0
C661 C 0.88036 0.18351 0.73578 0.0
C662 C 0.88776 0.16256 0.70786 0.0
C663 C 0.90342 0.18611 0.76453 0.0
C664 C 0.93467 0.16757 0.76679 0.0
H665 H 0.85645 0.19815 0.73543 0.0
H666 H 0.89653 0.20255 0.78524 0.0
S667 S 0.96751 0.11001 0.70019 0.0
N668 N 0.92953 0.1237 0.68405 0.0
N669 N 0.97246 0.12805 0.73802 0.0
C670 C 0.94238 0.14638 0.73913 0.0
C671 C 0.91903 0.14391 0.70979 0.0
loop_
_geom_bond_atom_site_label_1
_geom_bond_atom_site_label_2
_geom_bond_distance
_geom_bond_site_symmetry_2
_ccdc_geom_bond_type
C0 C1 1.264 . S
C0 C5 1.479 . S
C0 C10 1.465 . S
C1 C0 1.264 . S
C1 C3 1.339 . S
C1 H28 0.931 . S
C2 C3 1.395 . S
C2 C4 1.320 . S
C3 C1 1.339 . S
C3 C2 1.395 . S
C3 H29 0.929 . S
C4 C2 1.320 . S
C4 C5 1.405 . S
C4 H30 0.930 . S
C5 C0 1.479 . S
C5 C4 1.405 . S
C5 H31 0.931 . S
U6 O7 2.454 1_554 S
U6 O8 2.458 . S
U6 C9 2.984 1_554 S
U6 C10 2.847 1_554 S
U6 C23 2.882 . S
U6 O24 2.441 1_554 S
U6 O25 2.420 . S
U6 O26 2.455 . S
U6 O27 2.449 . S
O7 U6 2.454 1_556 S
O7 C9 1.353 . S
O8 U6 2.458 . S
O8 C9 1.286 1_554 S
C9 U6 2.984 1_556 S
C9 O7 1.353 . S
C9 O8 1.286 1_556 S
C9 C11 1.363 . S
C10 C0 1.465 . S
C10 U6 2.847 1_556 S
C10 O24 1.249 . S
C10 O25 1.202 1_556 S
C11 C9 1.363 . S
C11 C13 1.408 . S
C11 C16 1.342 . S
C12 C13 1.310 . S
C12 C15 1.461 . S
C12 H32 0.932 . S
C13 C11 1.408 . S
C13 C12 1.310 . S
C13 H33 0.930 . S
C14 C15 1.474 . S
C14 C16 1.285 . S
C14 H34 0.929 . S
C15 C12 1.461 . S
C15 C14 1.474 . S
C16 C11 1.342 . S
C16 C14 1.285 . S
C16 H35 0.930 1_556 S
C17 C20 1.424 . S
C17 C22 1.245 . S
C17 C23 1.428 . S
C18 C21 1.260 . S
C18 C22 1.477 . S
C18 H36 0.932 . S
C19 C20 1.384 . S
C19 C21 1.479 . S
C19 H37 0.929 . S
C20 C17 1.424 . S
C20 C19 1.384 . S
C20 H38 0.928 . S
C21 C18 1.260 . S
C21 C19 1.479 . S
C22 C17 1.245 . S
C22 C18 1.477 . S
C22 H39 0.932 . S
C23 U6 2.882 . S
C23 C17 1.428 . S
C23 O26 1.301 . S
C23 O27 1.282 . S
O24 U6 2.441 1_556 S
O24 C10 1.249 . S
O25 U6 2.420 . S
O25 C10 1.202 1_554 S
O26 U6 2.455 . S
O26 C23 1.301 . S
O27 U6 2.449 . S
O27 C23 1.282 . S
H28 C1 0.931 . S
H29 C3 0.929 . S
H30 C4 0.930 . S
H31 C5 0.931 . S
H32 C12 0.932 . S
H33 C13 0.930 . S
H34 C14 0.929 . S
H35 C16 0.930 1_554 S
H36 C18 0.932 . S
H37 C19 0.929 . S
H38 C20 0.928 . S
H39 C22 0.932 . S
C40 C41 1.264 . S
C40 C45 1.479 . S
C40 C50 1.465 . S
C41 C40 1.264 . S
C41 C43 1.339 . S
C41 H68 0.931 . S
C42 C43 1.395 . S
C42 C44 1.320 . S
C43 C41 1.339 . S
C43 C42 1.395 . S
C43 H69 0.929 . S
C44 C42 1.320 . S
C44 C45 1.405 . S
C44 H70 0.930 . S
C45 C40 1.479 . S
C45 C44 1.405 . S
C45 H71 0.931 . S
U46 O47 2.454 . S
U46 O48 2.458 . S
U46 C49 2.984 . S
U46 C50 2.847 . S
U46 C63 2.882 . S
U46 O64 2.441 . S
U46 O65 2.420 . S
U46 O66 2.455 . S
U46 O67 2.449 . S
O47 U46 2.454 . S
O47 C49 1.353 . S
O48 U46 2.458 . S
O48 C49 1.286 . S
C49 U46 2.984 . S
C49 O47 1.353 . S
C49 O48 1.286 . S
C49 C51 1.363 . S
C50 C40 1.465 . S
C50 U46 2.847 . S
C50 O64 1.249 . S
C50 O65 1.202 . S
C51 C49 1.363 . S
C51 C53 1.408 . S
C51 C56 1.342 . S
C52 C53 1.310 . S
C52 C55 1.461 . S
C52 H72 0.932 . S
C53 C51 1.408 . S
C53 C52 1.310 . S
C53 H73 0.930 . S
C54 C55 1.474 . S
C54 C56 1.285 . S
C54 H74 0.929 . S
C55 C52 1.461 . S
C55 C54 1.474 . S
C56 C51 1.342 . S
C56 C54 1.285 . S
C56 H75 0.930 . S
C57 C60 1.424 . S
C57 C62 1.245 . S
C57 C63 1.428 . S
C58 C61 1.260 . S
C58 C62 1.477 . S
C58 H76 0.932 . S
C59 C60 1.384 . S
C59 C61 1.479 . S
C59 H77 0.929 . S
C60 C57 1.424 . S
C60 C59 1.384 . S
C60 H78 0.928 . S
C61 C58 1.260 . S
C61 C59 1.479 . S
C62 C57 1.245 . S
C62 C58 1.477 . S
C62 H79 0.932 . S
C63 U46 2.882 . S
C63 C57 1.428 . S
C63 O66 1.301 . S
C63 O67 1.282 . S
O64 U46 2.441 . S
O64 C50 1.249 . S
O65 U46 2.420 . S
O65 C50 1.202 . S
O66 U46 2.455 . S
O66 C63 1.301 . S
O67 U46 2.449 . S
O67 C63 1.282 . S
H68 C41 0.931 . S
H69 C43 0.929 . S
H70 C44 0.930 . S
H71 C45 0.931 . S
H72 C52 0.932 . S
H73 C53 0.930 . S
H74 C54 0.929 . S
H75 C56 0.930 . S
H76 C58 0.932 . S
H77 C59 0.929 . S
H78 C60 0.928 . S
H79 C62 0.932 . S
C80 C81 1.264 . S
C80 C85 1.479 . S
C80 C90 1.465 . S
C81 C80 1.264 . S
C81 C83 1.339 . S
C81 H108 0.931 . S
C82 C83 1.395 . S
C82 C84 1.320 . S
C83 C81 1.339 . S
C83 C82 1.395 . S
C83 H109 0.929 . S
C84 C82 1.320 . S
C84 C85 1.405 . S
C84 H110 0.930 . S
C85 C80 1.479 . S
C85 C84 1.405 . S
C85 H111 0.931 . S
U86 O87 2.454 . S
U86 O88 2.458 1_556 S
U86 C89 2.984 . S
U86 C90 2.847 . S
U86 C103 2.882 1_556 S
U86 O104 2.441 . S
U86 O105 2.420 . S
U86 O106 2.455 1_556 S
U86 O107 2.449 1_556 S
O87 U86 2.454 . S
O87 C89 1.353 . S
O88 U86 2.458 1_554 S
O88 C89 1.286 1_554 S
C89 U86 2.984 . S
C89 O87 1.353 . S
C89 O88 1.286 1_556 S
C89 C91 1.363 . S
C90 C80 1.465 . S
C90 U86 2.847 . S
C90 O104 1.249 . S
C90 O105 1.202 . S
C91 C89 1.363 . S
C91 C93 1.408 . S
C91 C96 1.342 . S
C92 C93 1.310 . S
C92 C95 1.461 . S
C92 H112 0.932 . S
C93 C91 1.408 . S
C93 C92 1.310 . S
C93 H113 0.930 . S
C94 C95 1.474 . S
C94 C96 1.285 . S
C94 H114 0.929 . S
C95 C92 1.461 . S
C95 C94 1.474 . S
C96 C91 1.342 . S
C96 C94 1.285 . S
C96 H115 0.930 1_556 S
C97 C100 1.424 . S
C97 C102 1.245 . S
C97 C103 1.428 . S
C98 C101 1.260 . S
C98 C102 1.477 . S
C98 H116 0.932 . S
C99 C100 1.384 . S
C99 C101 1.479 . S
C99 H117 0.929 . S
C100 C97 1.424 . S
C100 C99 1.384 . S
C100 H118 0.928 . S
C101 C98 1.260 . S
C101 C99 1.479 . S
C102 C97 1.245 . S
C102 C98 1.477 . S
C102 H119 0.932 . S
C103 U86 2.882 1_554 S
C103 C97 1.428 . S
C103 O106 1.301 . S
C103 O107 1.282 . S
O104 U86 2.441 . S
O104 C90 1.249 . S
O105 U86 2.420 . S
O105 C90 1.202 . S
O106 U86 2.455 1_554 S
O106 C103 1.301 . S
O107 U86 2.449 1_554 S
O107 C103 1.282 . S
H108 C81 0.931 . S
H109 C83 0.929 . S
H110 C84 0.930 . S
H111 C85 0.931 . S
H112 C92 0.932 . S
H113 C93 0.930 . S
H114 C94 0.929 . S
H115 C96 0.930 1_554 S
H116 C98 0.932 . S
H117 C99 0.929 . S
H118 C100 0.928 . S
H119 C102 0.932 . S
C120 C121 1.264 . S
C120 C125 1.479 . S
C120 C130 1.465 . S
C121 C120 1.264 . S
C121 C123 1.339 . S
C121 H148 0.931 . S
C122 C123 1.395 . S
C122 C124 1.320 . S
C123 C121 1.339 . S
C123 C122 1.395 . S
C123 H149 0.929 . S
C124 C122 1.320 . S
C124 C125 1.405 . S
C124 H150 0.930 . S
C125 C120 1.479 . S
C125 C124 1.405 . S
C125 H151 0.931 . S
U126 O127 2.454 . S
U126 O128 2.458 . S
U126 C129 2.984 . S
U126 C130 2.847 . S
U126 C143 2.882 . S
U126 O144 2.441 . S
U126 O145 2.420 . S
U126 O146 2.455 . S
U126 O147 2.449 . S
O127 U126 2.454 . S
O127 C129 1.353 . S
O128 U126 2.458 . S
O128 C129 1.286 . S
C129 U126 2.984 . S
C129 O127 1.353 . S
C129 O128 1.286 . S
C129 C131 1.363 . S
C130 C120 1.465 . S
C130 U126 2.847 . S
C130 O144 1.249 . S
C130 O145 1.202 . S
C131 C129 1.363 . S
C131 C133 1.408 . S
C131 C136 1.342 . S
C132 C133 1.310 . S
C132 C135 1.461 . S
C132 H152 0.932 . S
C133 C131 1.408 . S
C133 C132 1.310 . S
C133 H153 0.930 . S
C134 C135 1.474 . S
C134 C136 1.285 . S
C134 H154 0.929 . S
C135 C132 1.461 . S
C135 C134 1.474 . S
C136 C131 1.342 . S
C136 C134 1.285 . S
C136 H155 0.930 . S
C137 C140 1.424 . S
C137 C142 1.245 . S
C137 C143 1.428 . S
C138 C141 1.260 . S
C138 C142 1.477 . S
C138 H156 0.932 . S
C139 C140 1.384 . S
C139 C141 1.479 . S
C139 H157 0.929 . S
C140 C137 1.424 . S
C140 C139 1.384 . S
C140 H158 0.928 . S
C141 C138 1.260 . S
C141 C139 1.479 . S
C142 C137 1.245 . S
C142 C138 1.477 . S
C142 H159 0.932 . S
C143 U126 2.882 . S
C143 C137 1.428 . S
C143 O146 1.301 . S
C143 O147 1.282 . S
O144 U126 2.441 . S
O144 C130 1.249 . S
O145 U126 2.420 . S
O145 C130 1.202 . S
O146 U126 2.455 . S
O146 C143 1.301 . S
O147 U126 2.449 . S
O147 C143 1.282 . S
H148 C121 0.931 . S
H149 C123 0.929 . S
H150 C124 0.930 . S
H151 C125 0.931 . S
H152 C132 0.932 . S
H153 C133 0.930 . S
H154 C134 0.929 . S
H155 C136 0.930 . S
H156 C138 0.932 . S
H157 C139 0.929 . S
H158 C140 0.928 . S
H159 C142 0.932 . S
C160 C161 1.273 . S
C160 C165 1.479 . S
C160 C170 1.465 . S
C161 C160 1.273 . S
C161 C163 1.327 1_565 S
C161 H188 0.933 . S
C162 C163 1.395 . S
C162 C164 1.320 . S
C163 C161 1.327 1_545 S
C163 C162 1.395 . S
C163 H189 0.929 . S
C164 C162 1.320 . S
C164 C165 1.405 1_545 S
C164 H190 0.930 . S
C165 C160 1.479 . S
C165 C164 1.405 1_565 S
C165 H191 0.931 . S
U166 O167 2.454 1_554 S
U166 O168 2.458 . S
U166 C169 2.984 1_554 S
U166 C170 2.847 1_554 S
U166 C183 2.882 . S
U166 O184 2.441 1_554 S
U166 O185 2.420 . S
U166 O186 2.455 . S
U166 O187 2.449 . S
O167 U166 2.454 1_556 S
O167 C169 1.353 . S
O168 U166 2.458 . S
O168 C169 1.286 1_554 S
C169 U166 2.984 1_556 S
C169 O167 1.353 . S
C169 O168 1.286 1_556 S
C169 C171 1.363 . S
C170 C160 1.465 . S
C170 U166 2.847 1_556 S
C170 O184 1.249 . S
C170 O185 1.202 1_556 S
C171 C169 1.363 . S
C171 C173 1.408 . S
C171 C176 1.342 . S
C172 C173 1.310 . S
C172 C175 1.461 . S
C172 H192 0.932 . S
C173 C171 1.408 . S
C173 C172 1.310 . S
C173 H193 0.930 . S
C174 C175 1.474 . S
C174 C176 1.285 . S
C174 H194 0.929 . S
C175 C172 1.461 . S
C175 C174 1.474 . S
C176 C171 1.342 . S
C176 C174 1.285 . S
C176 H195 0.930 1_556 S
C177 C180 1.424 . S
C177 C182 1.245 . S
C177 C183 1.428 . S
C178 C181 1.260 . S
C178 C182 1.477 . S
C178 H196 0.932 . S
C179 C180 1.384 . S
C179 C181 1.479 . S
C179 H197 0.929 . S
C180 C177 1.424 . S
C180 C179 1.384 . S
C180 H198 0.928 . S
C181 C178 1.260 . S
C181 C179 1.479 . S
C182 C177 1.245 . S
C182 C178 1.477 . S
C182 H199 0.932 . S
C183 U166 2.882 . S
C183 C177 1.428 . S
C183 O186 1.301 . S
C183 O187 1.282 . S
O184 U166 2.441 1_556 S
O184 C170 1.249 . S
O185 U166 2.420 . S
O185 C170 1.202 1_554 S
O186 U166 2.455 . S
O186 C183 1.301 . S
O187 U166 2.449 . S
O187 C183 1.282 . S
H188 C161 0.933 . S
H189 C163 0.929 . S
H190 C164 0.930 . S
H191 C165 0.931 . S
H192 C172 0.932 . S
H193 C173 0.930 . S
H194 C174 0.929 . S
H195 C176 0.930 1_554 S
H196 C178 0.932 . S
H197 C179 0.929 . S
H198 C180 0.928 . S
H199 C182 0.932 . S
C200 C201 1.264 . S
C200 C205 1.479 . S
C200 C210 1.465 . S
C201 C200 1.264 . S
C201 C203 1.339 . S
C201 H228 0.931 . S
C202 C203 1.395 . S
C202 C204 1.320 . S
C203 C201 1.339 . S
C203 C202 1.395 . S
C203 H229 0.929 . S
C204 C202 1.320 . S
C204 C205 1.405 . S
C204 H230 0.930 . S
C205 C200 1.479 . S
C205 C204 1.405 . S
C205 H231 0.931 . S
U206 O207 2.454 . S
U206 O208 2.458 . S
U206 C209 2.984 . S
U206 C210 2.847 . S
U206 C223 2.882 . S
U206 O224 2.441 . S
U206 O225 2.420 . S
U206 O226 2.455 . S
U206 O227 2.449 . S
O207 U206 2.454 . S
O207 C209 1.353 . S
O208 U206 2.458 . S
O208 C209 1.286 . S
C209 U206 2.984 . S
C209 O207 1.353 . S
C209 O208 1.286 . S
C209 C211 1.363 . S
C210 C200 1.465 . S
C210 U206 2.847 . S
C210 O224 1.249 . S
C210 O225 1.202 . S
C211 C209 1.363 . S
C211 C213 1.408 . S
C211 C216 1.342 . S
C212 C213 1.310 . S
C212 C215 1.461 . S
C212 H232 0.932 . S
C213 C211 1.408 . S
C213 C212 1.310 . S
C213 H233 0.930 . S
C214 C215 1.474 . S
C214 C216 1.285 . S
C214 H234 0.929 . S
C215 C212 1.461 . S
C215 C214 1.474 . S
C216 C211 1.342 . S
C216 C214 1.285 . S
C216 H235 0.930 . S
C217 C220 1.424 . S
C217 C222 1.245 . S
C217 C223 1.428 . S
C218 C221 1.260 1_545 S
C218 C222 1.477 . S
C218 H236 0.927 1_545 S
C219 C220 1.384 1_565 S
C219 C221 1.479 . S
C219 H237 0.929 . S
C220 C217 1.424 . S
C220 C219 1.384 1_545 S
C220 H238 0.928 . S
C221 C218 1.260 1_565 S
C221 C219 1.479 . S
C222 C217 1.245 . S
C222 C218 1.477 . S
C222 H239 0.932 . S
C223 U206 2.882 . S
C223 C217 1.428 . S
C223 O226 1.301 . S
C223 O227 1.282 . S
O224 U206 2.441 . S
O224 C210 1.249 . S
O225 U206 2.420 . S
O225 C210 1.202 . S
O226 U206 2.455 . S
O226 C223 1.301 . S
O227 U206 2.449 . S
O227 C223 1.282 . S
H228 C201 0.931 . S
H229 C203 0.929 . S
H230 C204 0.930 . S
H231 C205 0.931 . S
H232 C212 0.932 . S
H233 C213 0.930 . S
H234 C214 0.929 . S
H235 C216 0.930 . S
H236 C218 0.927 1_565 S
H237 C219 0.929 . S
H238 C220 0.928 . S
H239 C222 0.932 . S
C240 C241 1.264 . S
C240 C245 1.479 . S
C240 C250 1.465 . S
C241 C240 1.264 . S
C241 C243 1.339 1_565 S
C241 H268 0.931 . S
C242 C243 1.395 . S
C242 C244 1.320 . S
C243 C241 1.339 1_545 S
C243 C242 1.395 . S
C243 H269 0.929 . S
C244 C242 1.320 . S
C244 C245 1.405 1_545 S
C244 H270 0.930 . S
C245 C240 1.479 . S
C245 C244 1.405 1_565 S
C245 H271 0.931 . S
U246 O247 2.454 . S
U246 O248 2.458 1_556 S
U246 C249 2.984 . S
U246 C250 2.847 . S
U246 C263 2.882 1_556 S
U246 O264 2.441 . S
U246 O265 2.420 . S
U246 O266 2.455 1_556 S
U246 O267 2.449 1_556 S
O247 U246 2.454 . S
O247 C249 1.353 . S
O248 U246 2.458 1_554 S
O248 C249 1.286 1_554 S
C249 U246 2.984 . S
C249 O247 1.353 . S
C249 O248 1.286 1_556 S
C249 C251 1.363 . S
C250 C240 1.465 . S
C250 U246 2.847 . S
C250 O264 1.249 . S
C250 O265 1.202 . S
C251 C249 1.363 . S
C251 C253 1.408 . S
C251 C256 1.342 . S
C252 C253 1.310 . S
C252 C255 1.461 . S
C252 H272 0.932 . S
C253 C251 1.408 . S
C253 C252 1.310 . S
C253 H273 0.930 . S
C254 C255 1.474 . S
C254 C256 1.285 . S
C254 H274 0.929 . S
C255 C252 1.461 . S
C255 C254 1.474 . S
C256 C251 1.342 . S
C256 C254 1.285 . S
C256 H275 0.930 1_556 S
C257 C260 1.424 . S
C257 C262 1.245 . S
C257 C263 1.428 . S
C258 C261 1.260 . S
C258 C262 1.477 . S
C258 H276 0.932 . S
C259 C260 1.384 . S
C259 C261 1.479 . S
C259 H277 0.929 . S
C260 C257 1.424 . S
C260 C259 1.384 . S
C260 H278 0.928 . S
C261 C258 1.260 . S
C261 C259 1.479 . S
C262 C257 1.245 . S
C262 C258 1.477 . S
C262 H279 0.932 . S
C263 U246 2.882 1_554 S
C263 C257 1.428 . S
C263 O266 1.301 . S
C263 O267 1.282 . S
O264 U246 2.441 . S
O264 C250 1.249 . S
O265 U246 2.420 . S
O265 C250 1.202 . S
O266 U246 2.455 1_554 S
O266 C263 1.301 . S
O267 U246 2.449 1_554 S
O267 C263 1.282 . S
H268 C241 0.931 . S
H269 C243 0.929 . S
H270 C244 0.930 . S
H271 C245 0.931 . S
H272 C252 0.932 . S
H273 C253 0.930 . S
H274 C254 0.929 . S
H275 C256 0.930 1_554 S
H276 C258 0.932 . S
H277 C259 0.929 . S
H278 C260 0.928 . S
H279 C262 0.932 . S
C280 C281 1.264 . S
C280 C285 1.479 . S
C280 C290 1.465 . S
C281 C280 1.264 . S
C281 C283 1.339 . S
C281 H308 0.931 . S
C282 C283 1.395 . S
C282 C284 1.320 . S
C283 C281 1.339 . S
C283 C282 1.395 . S
C283 H309 0.929 . S
C284 C282 1.320 . S
C284 C285 1.405 . S
C284 H310 0.930 . S
C285 C280 1.479 . S
C285 C284 1.405 . S
C285 H311 0.931 . S
U286 O287 2.454 . S
U286 O288 2.458 . S
U286 C289 2.984 . S
U286 C290 2.847 . S
U286 C303 2.882 . S
U286 O304 2.441 . S
U286 O305 2.420 . S
U286 O306 2.455 . S
U286 O307 2.449 . S
O287 U286 2.454 . S
O287 C289 1.353 . S
O288 U286 2.458 . S
O288 C289 1.286 . S
C289 U286 2.984 . S
C289 O287 1.353 . S
C289 O288 1.286 . S
C289 C291 1.363 . S
C290 C280 1.465 . S
C290 U286 2.847 . S
C290 O304 1.249 . S
C290 O305 1.202 . S
C291 C289 1.363 . S
C291 C293 1.408 . S
C291 C296 1.342 . S
C292 C293 1.310 . S
C292 C295 1.461 . S
C292 H312 0.932 . S
C293 C291 1.408 . S
C293 C292 1.310 . S
C293 H313 0.930 . S
C294 C295 1.474 . S
C294 C296 1.285 . S
C294 H314 0.929 . S
C295 C292 1.461 . S
C295 C294 1.474 . S
C296 C291 1.342 . S
C296 C294 1.285 . S
C296 H315 0.930 . S
C297 C300 1.424 . S
C297 C302 1.245 . S
C297 C303 1.428 . S
C298 C301 1.260 . S
C298 C302 1.477 1_565 S
C298 H316 0.932 . S
C299 C300 1.384 1_565 S
C299 C301 1.479 . S
C299 H317 0.929 . S
C300 C297 1.424 . S
C300 C299 1.384 1_545 S
C300 H318 0.928 . S
C301 C298 1.260 . S
C301 C299 1.479 . S
C302 C297 1.245 . S
C302 C298 1.477 1_545 S
C302 H319 0.932 . S
C303 U286 2.882 . S
C303 C297 1.428 . S
C303 O306 1.301 . S
C303 O307 1.282 . S
O304 U286 2.441 . S
O304 C290 1.249 . S
O305 U286 2.420 . S
O305 C290 1.202 . S
O306 U286 2.455 . S
O306 C303 1.301 . S
O307 U286 2.449 . S
O307 C303 1.282 . S
H308 C281 0.931 . S
H309 C283 0.929 . S
H310 C284 0.930 . S
H311 C285 0.931 . S
H312 C292 0.932 . S
H313 C293 0.930 . S
H314 C294 0.929 . S
H315 C296 0.930 . S
H316 C298 0.932 . S
H317 C299 0.929 . S
H318 C300 0.928 . S
H319 C302 0.932 . S
Fe320 O322 1.918 . S
Fe320 O325 1.997 1_455 S
Fe320 O326 2.002 1_455 S
Fe320 O331 1.976 . S
Fe320 O334 1.996 . S
Fe321 O322 1.918 . S
Fe321 O329 1.997 1_455 S
Fe321 O332 1.996 . S
Fe321 O336 1.976 . S
Fe321 O339 2.002 1_455 S
O322 Fe320 1.918 . S
O322 Fe321 1.918 . S
O322 Fe323 1.918 . S
Fe323 O322 1.918 . S
Fe323 O324 2.002 1_455 S
Fe323 O333 1.976 . S
Fe323 O337 1.996 . S
Fe323 O340 1.997 1_455 S
O324 Fe323 2.002 1_655 S
O324 C341 1.295 . S
O325 Fe320 1.997 1_655 S
O325 C341 1.235 . S
O326 Fe320 2.002 1_655 S
O326 C327 1.295 . S
C327 O326 1.295 . S
C327 O329 1.235 . S
C328 O333 1.287 . S
C328 O334 1.255 . S
O329 Fe321 1.997 1_655 S
O329 C327 1.235 . S
C330 O336 1.287 . S
C330 O337 1.255 . S
O331 Fe320 1.976 . S
O331 C338 1.287 . S
O332 Fe321 1.996 . S
O332 C338 1.255 . S
O333 Fe323 1.976 . S
O333 C328 1.287 . S
O334 Fe320 1.996 . S
O334 C328 1.255 . S
C335 O339 1.295 . S
C335 O340 1.235 . S
O336 Fe321 1.976 . S
O336 C330 1.287 . S
O337 Fe323 1.996 . S
O337 C330 1.255 . S
C338 O331 1.287 . S
C338 O332 1.255 . S
O339 Fe321 2.002 1_655 S
O339 C335 1.295 . S
O340 Fe323 1.997 1_655 S
O340 C335 1.235 . S
C341 O324 1.295 . S
C341 O325 1.235 . S
Fe342 O344 1.919 . S
Fe342 O347 1.977 1_655 S
Fe342 O348 1.982 1_655 S
Fe342 O353 1.996 . S
Fe342 O356 2.016 . S
Fe343 O344 1.919 . S
Fe343 O351 1.977 1_655 S
Fe343 O354 2.015 . S
Fe343 O358 1.996 . S
Fe343 O361 1.982 1_655 S
O344 Fe342 1.919 . S
O344 Fe343 1.919 . S
O344 Fe345 1.919 . S
Fe345 O344 1.919 . S
Fe345 O346 1.983 1_655 S
Fe345 O355 1.995 . S
Fe345 O359 2.015 . S
Fe345 O362 1.977 1_655 S
O346 Fe345 1.983 1_455 S
O346 C363 1.295 . S
O347 Fe342 1.977 1_455 S
O347 C363 1.235 . S
O348 Fe342 1.982 1_455 S
O348 C349 1.295 . S
C349 O348 1.295 . S
C349 O351 1.235 . S
C350 O355 1.287 . S
C350 O356 1.255 . S
O351 Fe343 1.977 1_455 S
O351 C349 1.235 . S
C352 O358 1.287 . S
C352 O359 1.255 . S
O353 Fe342 1.996 . S
O353 C360 1.287 . S
O354 Fe343 2.015 . S
O354 C360 1.255 . S
O355 Fe345 1.995 . S
O355 C350 1.287 . S
O356 Fe342 2.016 . S
O356 C350 1.255 . S
C357 O361 1.295 . S
C357 O362 1.235 . S
O358 Fe343 1.996 . S
O358 C352 1.287 . S
O359 Fe345 2.015 . S
O359 C352 1.255 . S
C360 O353 1.287 . S
C360 O354 1.255 . S
O361 Fe343 1.982 1_455 S
O361 C357 1.295 . S
O362 Fe345 1.977 1_455 S
O362 C357 1.235 . S
C363 O346 1.295 . S
C363 O347 1.235 . S
Fe364 O366 1.918 . S
Fe364 O369 1.997 . S
Fe364 O370 2.002 . S
Fe364 O375 1.976 . S
Fe364 O378 1.996 . S
Fe365 O366 1.918 . S
Fe365 O373 1.997 . S
Fe365 O376 1.996 . S
Fe365 O380 1.976 . S
Fe365 O383 2.002 . S
O366 Fe364 1.918 . S
O366 Fe365 1.918 . S
O366 Fe367 1.918 . S
Fe367 O366 1.918 . S
Fe367 O368 2.002 . S
Fe367 O377 1.976 . S
Fe367 O381 1.996 . S
Fe367 O384 1.997 . S
O368 Fe367 2.002 . S
O368 C385 1.295 . S
O369 Fe364 1.997 . S
O369 C385 1.235 . S
O370 Fe364 2.002 . S
O370 C371 1.295 . S
C371 O370 1.295 . S
C371 O373 1.235 . S
C372 O377 1.287 . S
C372 O378 1.255 . S
O373 Fe365 1.997 . S
O373 C371 1.235 . S
C374 O380 1.287 . S
C374 O381 1.255 . S
O375 Fe364 1.976 . S
O375 C382 1.287 . S
O376 Fe365 1.996 . S
O376 C382 1.255 . S
O377 Fe367 1.976 . S
O377 C372 1.287 . S
O378 Fe364 1.996 . S
O378 C372 1.255 . S
C379 O383 1.295 . S
C379 O384 1.235 . S
O380 Fe365 1.976 . S
O380 C374 1.287 . S
O381 Fe367 1.996 . S
O381 C374 1.255 . S
C382 O375 1.287 . S
C382 O376 1.255 . S
O383 Fe365 2.002 . S
O383 C379 1.295 . S
O384 Fe367 1.997 . S
O384 C379 1.235 . S
C385 O368 1.295 . S
C385 O369 1.235 . S
Fe386 O388 1.918 . S
Fe386 O391 1.997 . S
Fe386 O392 2.002 . S
Fe386 O397 1.976 . S
Fe386 O400 1.996 . S
Fe387 O388 1.918 . S
Fe387 O395 1.997 . S
Fe387 O398 1.996 . S
Fe387 O402 1.976 . S
Fe387 O405 2.002 . S
O388 Fe386 1.918 . S
O388 Fe387 1.918 . S
O388 Fe389 1.918 . S
Fe389 O388 1.918 . S
Fe389 O390 2.002 . S
Fe389 O399 1.976 . S
Fe389 O403 1.996 . S
Fe389 O406 1.997 . S
O390 Fe389 2.002 . S
O390 C407 1.295 . S
O391 Fe386 1.997 . S
O391 C407 1.235 . S
O392 Fe386 2.002 . S
O392 C393 1.295 . S
C393 O392 1.295 . S
C393 O395 1.235 . S
C394 O399 1.287 . S
C394 O400 1.255 . S
O395 Fe387 1.997 . S
O395 C393 1.235 . S
C396 O402 1.287 . S
C396 O403 1.255 . S
O397 Fe386 1.976 . S
O397 C404 1.287 . S
O398 Fe387 1.996 . S
O398 C404 1.255 . S
O399 Fe389 1.976 . S
O399 C394 1.287 . S
O400 Fe386 1.996 . S
O400 C394 1.255 . S
C401 O405 1.295 . S
C401 O406 1.235 . S
O402 Fe387 1.976 . S
O402 C396 1.287 . S
O403 Fe389 1.996 . S
O403 C396 1.255 . S
C404 O397 1.287 . S
C404 O398 1.255 . S
O405 Fe387 2.002 . S
O405 C401 1.295 . S
O406 Fe389 1.997 . S
O406 C401 1.235 . S
C407 O390 1.295 . S
C407 O391 1.235 . S
C408 C409 1.369 . S
C408 C410 1.419 . S
C408 H412 0.930 . S
C409 C408 1.369 . S
C409 C418 1.429 . S
C410 C408 1.419 . S
C410 C411 1.363 . S
C410 H413 0.929 . S
C411 C410 1.363 . S
C411 C417 1.428 . S
H412 C408 0.930 . S
H413 C410 0.929 . S
S414 N415 1.613 . S
S414 N416 1.610 . S
N415 S414 1.613 . S
N415 C418 1.350 . S
N416 S414 1.610 . S
N416 C417 1.351 . S
C417 C411 1.428 . S
C417 N416 1.351 . S
C417 C418 1.434 . S
C418 C409 1.429 . S
C418 N415 1.350 . S
C418 C417 1.434 . S
C419 C420 1.369 . S
C419 C421 1.419 . S
C419 H423 0.930 . S
C420 C419 1.369 . S
C420 C429 1.429 . S
C421 C419 1.419 . S
C421 C422 1.363 . S
C421 H424 0.929 . S
C422 C421 1.363 . S
C422 C428 1.428 . S
H423 C419 0.930 . S
H424 C421 0.929 . S
S425 N426 1.613 . S
S425 N427 1.610 . S
N426 S425 1.613 . S
N426 C429 1.350 . S
N427 S425 1.610 . S
N427 C428 1.351 . S
C428 C422 1.428 . S
C428 N427 1.351 . S
C428 C429 1.434 . S
C429 C420 1.429 . S
C429 N426 1.350 . S
C429 C428 1.434 . S
C430 C431 1.369 . S
C430 C432 1.419 . S
C430 H434 0.930 . S
C431 C430 1.369 . S
C431 C440 1.429 . S
C432 C430 1.419 . S
C432 C433 1.363 . S
C432 H435 0.929 . S
C433 C432 1.363 . S
C433 C439 1.428 . S
H434 C430 0.930 . S
H435 C432 0.929 . S
S436 N437 1.613 . S
S436 N438 1.610 . S
N437 S436 1.613 . S
N437 C440 1.350 . S
N438 S436 1.610 . S
N438 C439 1.351 . S
C439 C433 1.428 . S
C439 N438 1.351 . S
C439 C440 1.434 . S
C440 C431 1.429 . S
C440 N437 1.350 . S
C440 C439 1.434 . S
C441 C442 1.369 . S
C441 C443 1.419 . S
C441 H445 0.930 . S
C442 C441 1.369 . S
C442 C451 1.429 . S
C443 C441 1.419 . S
C443 C444 1.363 . S
C443 H446 0.929 . S
C444 C443 1.363 . S
C444 C450 1.428 . S
H445 C441 0.930 . S
H446 C443 0.929 . S
S447 N448 1.613 . S
S447 N449 1.610 . S
N448 S447 1.613 . S
N448 C451 1.350 . S
N449 S447 1.610 . S
N449 C450 1.351 . S
C450 C444 1.428 . S
C450 N449 1.351 . S
C450 C451 1.434 . S
C451 C442 1.429 . S
C451 N448 1.350 . S
C451 C450 1.434 . S
C452 C453 1.369 . S
C452 C454 1.419 . S
C452 H456 0.930 . S
C453 C452 1.369 . S
C453 C462 1.429 . S
C454 C452 1.419 . S
C454 C455 1.363 . S
C454 H457 0.929 . S
C455 C454 1.363 . S
C455 C461 1.428 . S
H456 C452 0.930 . S
H457 C454 0.929 . S
S458 N459 1.613 . S
S458 N460 1.610 . S
N459 S458 1.613 . S
N459 C462 1.350 . S
N460 S458 1.610 . S
N460 C461 1.351 . S
C461 C455 1.428 . S
C461 N460 1.351 . S
C461 C462 1.434 . S
C462 C453 1.429 . S
C462 N459 1.350 . S
C462 C461 1.434 . S
C463 C464 1.369 . S
C463 C465 1.419 . S
C463 H467 0.930 . S
C464 C463 1.369 . S
C464 C473 1.429 . S
C465 C463 1.419 . S
C465 C466 1.363 . S
C465 H468 0.929 . S
C466 C465 1.363 . S
C466 C472 1.428 . S
H467 C463 0.930 . S
H468 C465 0.929 . S
S469 N470 1.613 . S
S469 N471 1.610 . S
N470 S469 1.613 . S
N470 C473 1.350 . S
N471 S469 1.610 . S
N471 C472 1.351 . S
C472 C466 1.428 . S
C472 N471 1.351 . S
C472 C473 1.434 . S
C473 C464 1.429 . S
C473 N470 1.350 . S
C473 C472 1.434 . S
C474 C475 1.369 . S
C474 C476 1.419 . S
C474 H478 0.930 . S
C475 C474 1.369 . S
C475 C484 1.429 . S
C476 C474 1.419 . S
C476 C477 1.363 . S
C476 H479 0.929 . S
C477 C476 1.363 . S
C477 C483 1.428 . S
H478 C474 0.930 . S
H479 C476 0.929 . S
S480 N481 1.613 . S
S480 N482 1.610 . S
N481 S480 1.613 . S
N481 C484 1.350 . S
N482 S480 1.610 . S
N482 C483 1.351 . S
C483 C477 1.428 . S
C483 N482 1.351 . S
C483 C484 1.434 . S
C484 C475 1.429 . S
C484 N481 1.350 . S
C484 C483 1.434 . S
C485 C486 1.369 . S
C485 C487 1.419 . S
C485 H489 0.930 . S
C486 C485 1.369 . S
C486 C495 1.429 . S
C487 C485 1.419 . S
C487 C488 1.363 . S
C487 H490 0.929 . S
C488 C487 1.363 . S
C488 C494 1.428 . S
H489 C485 0.930 . S
H490 C487 0.929 . S
S491 N492 1.613 . S
S491 N493 1.610 . S
N492 S491 1.613 . S
N492 C495 1.350 . S
N493 S491 1.610 . S
N493 C494 1.351 . S
C494 C488 1.428 . S
C494 N493 1.351 . S
C494 C495 1.434 . S
C495 C486 1.429 . S
C495 N492 1.350 . S
C495 C494 1.434 . S
C496 C497 1.369 . S
C496 C498 1.419 . S
C496 H500 0.930 . S
C497 C496 1.369 . S
C497 C506 1.429 . S
C498 C496 1.419 . S
C498 C499 1.363 . S
C498 H501 0.929 . S
C499 C498 1.363 . S
C499 C505 1.428 . S
H500 C496 0.930 . S
H501 C498 0.929 . S
S502 N503 1.613 . S
S502 N504 1.610 . S
N503 S502 1.613 . S
N503 C506 1.350 . S
N504 S502 1.610 . S
N504 C505 1.351 . S
C505 C499 1.428 . S
C505 N504 1.351 . S
C505 C506 1.434 . S
C506 C497 1.429 . S
C506 N503 1.350 . S
C506 C505 1.434 . S
C507 C508 1.369 . S
C507 C509 1.419 . S
C507 H511 0.930 . S
C508 C507 1.369 . S
C508 C517 1.429 . S
C509 C507 1.419 . S
C509 C510 1.363 . S
C509 H512 0.929 . S
C510 C509 1.363 . S
C510 C516 1.428 . S
H511 C507 0.930 . S
H512 C509 0.929 . S
S513 N514 1.613 . S
S513 N515 1.610 . S
N514 S513 1.613 . S
N514 C517 1.350 . S
N515 S513 1.610 . S
N515 C516 1.351 . S
C516 C510 1.428 . S
C516 N515 1.351 . S
C516 C517 1.434 . S
C517 C508 1.429 . S
C517 N514 1.350 . S
C517 C516 1.434 . S
C518 C519 1.369 . S
C518 C520 1.419 . S
C518 H522 0.930 . S
C519 C518 1.369 . S
C519 C528 1.429 . S
C520 C518 1.419 . S
C520 C521 1.363 . S
C520 H523 0.929 . S
C521 C520 1.363 . S
C521 C527 1.428 . S
H522 C518 0.930 . S
H523 C520 0.929 . S
S524 N525 1.613 . S
S524 N526 1.610 . S
N525 S524 1.613 . S
N525 C528 1.350 . S
N526 S524 1.610 . S
N526 C527 1.351 . S
C527 C521 1.428 . S
C527 N526 1.351 . S
C527 C528 1.434 . S
C528 C519 1.429 . S
C528 N525 1.350 . S
C528 C527 1.434 . S
C529 C530 1.369 . S
C529 C531 1.419 . S
C529 H533 0.930 . S
C530 C529 1.369 . S
C530 C539 1.429 . S
C531 C529 1.419 . S
C531 C532 1.363 . S
C531 H534 0.929 . S
C532 C531 1.363 . S
C532 C538 1.428 . S
H533 C529 0.930 . S
H534 C531 0.929 . S
S535 N536 1.613 . S
S535 N537 1.610 . S
N536 S535 1.613 . S
N536 C539 1.350 . S
N537 S535 1.610 . S
N537 C538 1.351 . S
C538 C532 1.428 . S
C538 N537 1.351 . S
C538 C539 1.434 . S
C539 C530 1.429 . S
C539 N536 1.350 . S
C539 C538 1.434 . S
C540 C541 1.369 . S
C540 C542 1.419 . S
C540 H544 0.930 . S
C541 C540 1.369 . S
C541 C550 1.429 . S
C542 C540 1.419 . S
C542 C543 1.363 . S
C542 H545 0.929 . S
C543 C542 1.363 . S
C543 C549 1.428 . S
H544 C540 0.930 . S
H545 C542 0.929 . S
S546 N547 1.613 1_565 S
S546 N548 1.610 1_565 S
N547 S546 1.613 1_545 S
N547 C550 1.350 . S
N548 S546 1.610 1_545 S
N548 C549 1.351 . S
C549 C543 1.428 . S
C549 N548 1.351 . S
C549 C550 1.434 . S
C550 C541 1.429 . S
C550 N547 1.350 . S
C550 C549 1.434 . S
C551 C552 1.369 . S
C551 C553 1.419 . S
C551 H555 0.930 . S
C552 C551 1.369 . S
C552 C561 1.429 . S
C553 C551 1.419 . S
C553 C554 1.363 . S
C553 H556 0.929 . S
C554 C553 1.363 . S
C554 C560 1.428 . S
H555 C551 0.930 . S
H556 C553 0.929 . S
S557 N558 1.613 . S
S557 N559 1.610 1_545 S
N558 S557 1.613 . S
N558 C561 1.353 1_545 S
N559 S557 1.610 1_565 S
N559 C560 1.351 . S
C560 C554 1.428 . S
C560 N559 1.351 . S
C560 C561 1.434 . S
C561 C552 1.429 . S
C561 N558 1.353 1_565 S
C561 C560 1.434 . S
C562 C563 1.369 . S
C562 C564 1.419 . S
C562 H566 0.930 . S
C563 C562 1.369 . S
C563 C572 1.429 . S
C564 C562 1.419 . S
C564 C565 1.363 . S
C564 H567 0.929 . S
C565 C564 1.363 . S
C565 C571 1.428 . S
H566 C562 0.930 . S
H567 C564 0.929 . S
S568 N569 1.613 . S
S568 N570 1.610 . S
N569 S568 1.613 . S
N569 C572 1.350 . S
N570 S568 1.610 . S
N570 C571 1.351 . S
C571 C565 1.428 . S
C571 N570 1.351 . S
C571 C572 1.434 . S
C572 C563 1.429 . S
C572 N569 1.350 . S
C572 C571 1.434 . S
C573 C574 1.369 . S
C573 C575 1.419 . S
C573 H577 0.930 . S
C574 C573 1.369 . S
C574 C583 1.429 . S
C575 C573 1.419 . S
C575 C576 1.363 . S
C575 H578 0.929 . S
C576 C575 1.363 . S
C576 C582 1.428 . S
H577 C573 0.930 . S
H578 C575 0.929 . S
S579 N580 1.613 . S
S579 N581 1.610 . S
N580 S579 1.613 . S
N580 C583 1.350 . S
N581 S579 1.610 . S
N581 C582 1.351 . S
C582 C576 1.428 . S
C582 N581 1.351 . S
C582 C583 1.434 . S
C583 C574 1.429 . S
C583 N580 1.350 . S
C583 C582 1.434 . S
C584 C585 1.369 . S
C584 C586 1.419 . S
C584 H588 0.930 . S
C585 C584 1.369 . S
C585 C594 1.429 . S
C586 C584 1.419 . S
C586 C587 1.363 . S
C586 H589 0.929 . S
C587 C586 1.363 . S
C587 C593 1.428 . S
H588 C584 0.930 . S
H589 C586 0.929 . S
S590 N591 1.613 . S
S590 N592 1.610 . S
N591 S590 1.613 . S
N591 C594 1.350 . S
N592 S590 1.610 . S
N592 C593 1.351 . S
C593 C587 1.428 . S
C593 N592 1.351 . S
C593 C594 1.434 . S
C594 C585 1.429 . S
C594 N591 1.350 . S
C594 C593 1.434 . S
C595 C596 1.369 . S
C595 C597 1.419 . S
C595 H599 0.930 . S
C596 C595 1.369 . S
C596 C605 1.429 . S
C597 C595 1.419 . S
C597 C598 1.363 . S
C597 H600 0.929 . S
C598 C597 1.363 . S
C598 C604 1.428 . S
H599 C595 0.930 . S
H600 C597 0.929 . S
S601 N602 1.613 . S
S601 N603 1.610 . S
N602 S601 1.613 . S
N602 C605 1.350 . S
N603 S601 1.610 . S
N603 C604 1.351 . S
C604 C598 1.428 . S
C604 N603 1.351 . S
C604 C605 1.434 . S
C605 C596 1.429 . S
C605 N602 1.350 . S
C605 C604 1.434 . S
C606 C607 1.369 . S
C606 C608 1.419 . S
C606 H610 0.930 . S
C607 C606 1.369 . S
C607 C616 1.429 . S
C608 C606 1.419 . S
C608 C609 1.363 . S
C608 H611 0.929 . S
C609 C608 1.363 . S
C609 C615 1.428 . S
H610 C606 0.930 . S
H611 C608 0.929 . S
S612 N613 1.613 . S
S612 N614 1.610 . S
N613 S612 1.613 . S
N613 C616 1.350 . S
N614 S612 1.610 . S
N614 C615 1.351 . S
C615 C609 1.428 . S
C615 N614 1.351 . S
C615 C616 1.434 . S
C616 C607 1.429 . S
C616 N613 1.350 . S
C616 C615 1.434 . S
C617 C618 1.369 . S
C617 C619 1.419 . S
C617 H621 0.930 . S
C618 C617 1.369 . S
C618 C627 1.429 . S
C619 C617 1.419 . S
C619 C620 1.363 . S
C619 H622 0.929 . S
C620 C619 1.363 . S
C620 C626 1.428 . S
H621 C617 0.930 . S
H622 C619 0.929 . S
S623 N624 1.613 . S
S623 N625 1.610 . S
N624 S623 1.613 . S
N624 C627 1.350 . S
N625 S623 1.610 . S
N625 C626 1.351 . S
C626 C620 1.428 . S
C626 N625 1.351 . S
C626 C627 1.434 . S
C627 C618 1.429 . S
C627 N624 1.350 . S
C627 C626 1.434 . S
C628 C629 1.369 . S
C628 C630 1.419 . S
C628 H632 0.930 . S
C629 C628 1.369 . S
C629 C638 1.429 . S
C630 C628 1.419 . S
C630 C631 1.363 . S
C630 H633 0.929 . S
C631 C630 1.363 . S
C631 C637 1.428 . S
H632 C628 0.930 . S
H633 C630 0.929 . S
S634 N635 1.613 . S
S634 N636 1.610 . S
N635 S634 1.613 . S
N635 C638 1.350 . S
N636 S634 1.610 . S
N636 C637 1.351 . S
C637 C631 1.428 . S
C637 N636 1.351 . S
C637 C638 1.434 . S
C638 C629 1.429 . S
C638 N635 1.350 . S
C638 C637 1.434 . S
C639 C640 1.369 . S
C639 C641 1.419 . S
C639 H643 0.930 . S
C640 C639 1.369 . S
C640 C649 1.429 . S
C641 C639 1.419 . S
C641 C642 1.363 . S
C641 H644 0.929 . S
C642 C641 1.363 . S
C642 C648 1.428 . S
H643 C639 0.930 . S
H644 C641 0.929 . S
S645 N646 1.613 . S
S645 N647 1.610 . S
N646 S645 1.613 . S
N646 C649 1.350 . S
N647 S645 1.610 . S
N647 C648 1.351 . S
C648 C642 1.428 . S
C648 N647 1.351 . S
C648 C649 1.434 . S
C649 C640 1.429 . S
C649 N646 1.350 . S
C649 C648 1.434 . S
C650 C651 1.369 . S
C650 C652 1.419 . S
C650 H654 0.930 . S
C651 C650 1.369 . S
C651 C660 1.429 . S
C652 C650 1.419 . S
C652 C653 1.363 . S
C652 H655 0.929 . S
C653 C652 1.363 . S
C653 C659 1.428 . S
H654 C650 0.930 . S
H655 C652 0.929 . S
S656 N657 1.613 . S
S656 N658 1.610 . S
N657 S656 1.613 . S
N657 C660 1.350 . S
N658 S656 1.610 . S
N658 C659 1.351 . S
C659 C653 1.428 . S
C659 N658 1.351 . S
C659 C660 1.434 . S
C660 C651 1.429 . S
C660 N657 1.350 . S
C660 C659 1.434 . S
C661 C662 1.369 . S
C661 C663 1.419 . S
C661 H665 0.930 . S
C662 C661 1.369 . S
C662 C671 1.429 . S
C663 C661 1.419 . S
C663 C664 1.363 . S
C663 H666 0.929 . S
C664 C663 1.363 . S
C664 C670 1.428 . S
H665 C661 0.930 . S
H666 C663 0.929 . S
S667 N668 1.613 . S
S667 N669 1.610 . S
N668 S667 1.613 . S
N668 C671 1.350 . S
N669 S667 1.610 . S
N669 C670 1.351 . S
C670 C664 1.428 . S
C670 N669 1.351 . S
C670 C671 1.434 . S
C671 C662 1.429 . S
C671 N668 1.350 . S
C671 C670 1.434 . S
C409 C15 1.583 . S
C411 C363 1.555 . S
C422 C327 1.596 . S
C420 C55 1.610 . S
C433 C350 1.557 . S
C431 C95 1.555 . S
C444 C338 1.597 . S
C442 C135 1.600 . S
C455 C407 1.559 . S
C453 C175 1.579 . S
C466 C371 1.593 . S
C464 C215 1.614 . S
C475 C255 1.552 . S
C477 C394 1.560 . S
C488 C382 1.597 . S
C486 C295 1.599 . S
C497 C2 1.571 . S
C499 C404 1.582 . S
C510 C374 1.651 . S
C508 C61 1.555 . S
C519 C82 1.546 . S
C521 C393 1.620 . S
C530 C141 1.653 . S
C532 C379 1.688 . S
C543 C360 1.582 . S
C541 C162 1.571 . S
C552 C221 1.546 . S
C554 C330 1.651 . S
C565 C349 1.620 . S
C563 C242 1.543 . S
C576 C335 1.688 . S
C574 C301 1.649 . S
C587 C385 1.636 . S
C585 C21 1.613 . S
C598 C401 1.625 . S
C596 C42 1.545 . S
C607 C101 1.501 . S
C609 C372 1.610 . S
C620 C396 1.599 . S
C618 C122 1.596 . S
C631 C341 1.636 . S
C629 C181 1.613 . S
C640 C202 1.551 . S
C642 C357 1.625 . S
C651 C261 1.507 . S
C653 C328 1.610 . S
C662 C282 1.595 . S
C664 C352 1.600 . S
