# Generated by pormake.
# Topology wbl, (4,4)-cn, num edge types: 1
# Building blocks:
#     Node 0, Type 0, BuildingBlock: MUDLON_clean_sbu_0, # of connection points: 4
#     Node 1, Type 0, BuildingBlock: MUDLON_clean_sbu_0, # of connection points: 4
#     Node 2, Type 0, BuildingBlock: MUDLON_clean_sbu_0, # of connection points: 4
#     Node 3, Type 0, BuildingBlock: MUDLON_clean_sbu_0, # of connection points: 4
#     Node 4, Type 0, BuildingBlock: MUDLON_clean_sbu_0, # of connection points: 4
#     Node 5, Type 0, BuildingBlock: MUDLON_clean_sbu_0, # of connection points: 4
#     Node 6, Type 0, BuildingBlock: MUDLON_clean_sbu_0, # of connection points: 4
#     Node 7, Type 0, BuildingBlock: MUDLON_clean_sbu_0, # of connection points: 4
#     Node 8, Type 1, BuildingBlock: CEKHIL_clean_sbu_0, # of connection points: 4
#     Node 9, Type 1, BuildingBlock: CEKHIL_clean_sbu_0, # of connection points: 4
#     Node 10, Type 1, BuildingBlock: CEKHIL_clean_sbu_0, # of connection points: 4
#     Node 11, Type 1, BuildingBlock: CEKHIL_clean_sbu_0, # of connection points: 4
#     Node 12, Type 1, BuildingBlock: CEKHIL_clean_sbu_0, # of connection points: 4
#     Node 13, Type 1, BuildingBlock: CEKHIL_clean_sbu_0, # of connection points: 4
#     Node 14, Type 1, BuildingBlock: CEKHIL_clean_sbu_0, # of connection points: 4
#     Node 15, Type 1, BuildingBlock: CEKHIL_clean_sbu_0, # of connection points: 4
#     Edge 16, Type (0, 1), BuildingBlock: CIFDUS_clean_linker_0, # of connection points: 2
#     Edge 17, Type (0, 1), BuildingBlock: CIFDUS_clean_linker_0, # of connection points: 2
#     Edge 18, Type (0, 1), BuildingBlock: CIFDUS_clean_linker_0, # of connection points: 2
#     Edge 19, Type (0, 1), BuildingBlock: CIFDUS_clean_linker_0, # of connection points: 2
#     Edge 20, Type (0, 1), BuildingBlock: CIFDUS_clean_linker_0, # of connection points: 2
#     Edge 21, Type (0, 1), BuildingBlock: CIFDUS_clean_linker_0, # of connection points: 2
#     Edge 22, Type (0, 1), BuildingBlock: CIFDUS_clean_linker_0, # of connection points: 2
#     Edge 23, Type (0, 1), BuildingBlock: CIFDUS_clean_linker_0, # of connection points: 2
#     Edge 24, Type (0, 1), BuildingBlock: CIFDUS_clean_linker_0, # of connection points: 2
#     Edge 25, Type (0, 1), BuildingBlock: CIFDUS_clean_linker_0, # of connection points: 2
#     Edge 26, Type (0, 1), BuildingBlock: CIFDUS_clean_linker_0, # of connection points: 2
#     Edge 27, Type (0, 1), BuildingBlock: CIFDUS_clean_linker_0, # of connection points: 2
#     Edge 28, Type (0, 1), BuildingBlock: CIFDUS_clean_linker_0, # of connection points: 2
#     Edge 29, Type (0, 1), BuildingBlock: CIFDUS_clean_linker_0, # of connection points: 2
#     Edge 30, Type (0, 1), BuildingBlock: CIFDUS_clean_linker_0, # of connection points: 2
#     Edge 31, Type (0, 1), BuildingBlock: CIFDUS_clean_linker_0, # of connection points: 2
#     Edge 32, Type (0, 1), BuildingBlock: CIFDUS_clean_linker_0, # of connection points: 2
#     Edge 33, Type (0, 1), BuildingBlock: CIFDUS_clean_linker_0, # of connection points: 2
#     Edge 34, Type (0, 1), BuildingBlock: CIFDUS_clean_linker_0, # of connection points: 2
#     Edge 35, Type (0, 1), BuildingBlock: CIFDUS_clean_linker_0, # of connection points: 2
#     Edge 36, Type (0, 1), BuildingBlock: CIFDUS_clean_linker_0, # of connection points: 2
#     Edge 37, Type (0, 1), BuildingBlock: CIFDUS_clean_linker_0, # of connection points: 2
#     Edge 38, Type (0, 1), BuildingBlock: CIFDUS_clean_linker_0, # of connection points: 2
#     Edge 39, Type (0, 1), BuildingBlock: CIFDUS_clean_linker_0, # of connection points: 2
#     Edge 40, Type (0, 1), BuildingBlock: CIFDUS_clean_linker_0, # of connection points: 2
#     Edge 41, Type (0, 1), BuildingBlock: CIFDUS_clean_linker_0, # of connection points: 2
#     Edge 42, Type (0, 1), BuildingBlock: CIFDUS_clean_linker_0, # of connection points: 2
#     Edge 43, Type (0, 1), BuildingBlock: CIFDUS_clean_linker_0, # of connection points: 2
#     Edge 44, Type (0, 1), BuildingBlock: CIFDUS_clean_linker_0, # of connection points: 2
#     Edge 45, Type (0, 1), BuildingBlock: CIFDUS_clean_linker_0, # of connection points: 2
#     Edge 46, Type (0, 1), BuildingBlock: CIFDUS_clean_linker_0, # of connection points: 2
#     Edge 47, Type (0, 1), BuildingBlock: CIFDUS_clean_linker_0, # of connection points: 2
# Relax obj value: 0.231
# Max RMSD: 0.219
# Mean RMSD: 0.173
data_MOF--net-wbl--node1-MUDLON_clean_sbu_0--node2-CEKHIL_clean_sbu_0--edge1-CIFDUS_clean_linker_0
_symmetry_space_group_name_H-M    P1
_symmetry_Int_Tables_number       1
_symmetry_cell_setting            triclinic
loop_
_symmetry_equiv_pos_as_xyz
'x, y, z'
_cell_length_a     30.356194
_cell_length_b     30.504219
_cell_length_c     66.39502
_cell_angle_alpha  90.2875
_cell_angle_beta   90.122203
_cell_angle_gamma 90.020716
loop_
_atom_site_label
_atom_site_type_symbol
_atom_site_fract_x
_atom_site_fract_y
_atom_site_fract_z
_atom_type_partial_charge
Mg0 Mg 0.03523 0.06972 0.34678 0.0
C1 C 0.07746 0.99108 0.36611 0.0
O2 O 0.11288 0.01467 0.36278 0.0
C3 C 0.96986 0.11616 0.32214 0.0
O4 O 0.99626 0.14799 0.32794 0.0
C5 C 0.1118 0.05735 0.32052 0.0
O6 O 0.08992 0.02048 0.31823 0.0
O7 O 0.09587 0.08707 0.3318 0.0
O8 O 0.04061 0.00432 0.35932 0.0
O9 O 0.02041 0.10943 0.37301 0.0
C10 C 0.99109 0.09124 0.38377 0.0
O11 O 0.9739 0.05399 0.37758 0.0
O12 O 0.97916 0.07709 0.32713 0.0
Mg13 Mg 0.09139 0.50922 0.59593 0.0
C14 C 0.14544 0.47693 0.63023 0.0
O15 O 0.11458 0.44672 0.62988 0.0
C16 C 0.03659 0.44705 0.57095 0.0
O17 O 0.01055 0.48144 0.57153 0.0
C18 C 0.13927 0.58183 0.575 0.0
O19 O 0.17237 0.5591 0.58227 0.0
O20 O 0.1002 0.56796 0.5778 0.0
O21 O 0.14827 0.50315 0.61547 0.0
O22 O 0.04369 0.51893 0.61979 0.0
C23 C 0.01888 0.48769 0.62534 0.0
O24 O 0.01514 0.45279 0.61385 0.0
O25 O 0.07454 0.4498 0.57908 0.0
Mg26 Mg 0.6437 0.5956 0.84025 0.0
C27 C 0.60107 0.66644 0.86271 0.0
O28 O 0.56796 0.64039 0.85823 0.0
C29 C 0.71953 0.54451 0.82586 0.0
O30 O 0.69541 0.51533 0.83528 0.0
C31 C 0.56613 0.60597 0.81233 0.0
O32 O 0.5861 0.64353 0.80915 0.0
O33 O 0.58407 0.5783 0.824 0.0
O34 O 0.63762 0.66011 0.85385 0.0
O35 O 0.64861 0.55726 0.86744 0.0
C36 C 0.67451 0.57441 0.88032 0.0
O37 O 0.69631 0.61005 0.87552 0.0
O38 O 0.70498 0.58348 0.82435 0.0
Mg39 Mg 0.55636 0.13837 0.08741 0.0
C40 C 0.62121 0.16603 0.11666 0.0
O41 O 0.60534 0.20257 0.10919 0.0
C42 C 0.57477 0.05165 0.06742 0.0
O43 O 0.61368 0.06013 0.07522 0.0
C44 C 0.61364 0.19412 0.06258 0.0
O45 O 0.63583 0.15726 0.06391 0.0
O46 O 0.575 0.19566 0.06996 0.0
O47 O 0.60966 0.12989 0.10861 0.0
O48 O 0.50533 0.14703 0.10995 0.0
C49 C 0.4941 0.1112 0.11824 0.0
O50 O 0.50697 0.0742 0.10993 0.0
O51 O 0.54416 0.07964 0.06958 0.0
Mg52 Mg 0.14453 0.54297 0.9404 0.0
C53 C 0.17303 0.59389 0.90497 0.0
O54 O 0.21097 0.58294 0.91304 0.0
C55 C 0.07085 0.57371 0.96788 0.0
O56 O 0.09413 0.61 0.96736 0.0
C57 C 0.21081 0.60361 0.95987 0.0
O58 O 0.18355 0.63262 0.95227 0.0
O59 O 0.20231 0.563 0.95761 0.0
O60 O 0.13764 0.58475 0.91427 0.0
O61 O 0.1531 0.48221 0.92408 0.0
C62 C 0.11835 0.46077 0.91989 0.0
O63 O 0.08266 0.46845 0.93048 0.0
O64 O 0.08449 0.54037 0.95823 0.0
Mg65 Mg 0.6416 0.67905 0.19428 0.0
C66 C 0.59544 0.65426 0.15613 0.0
O67 O 0.62638 0.62425 0.15668 0.0
C68 C 0.60802 0.59317 0.21209 0.0
O69 O 0.57265 0.60327 0.20166 0.0
C70 C 0.6028 0.75151 0.2199 0.0
O71 O 0.5714 0.72207 0.22147 0.0
O72 O 0.63759 0.74156 0.21027 0.0
O73 O 0.59052 0.67957 0.17125 0.0
O74 O 0.69984 0.67599 0.17548 0.0
C75 C 0.71727 0.63885 0.17193 0.0
O76 O 0.70636 0.60553 0.18334 0.0
O77 O 0.64007 0.62001 0.21264 0.0
Mg78 Mg 0.50753 0.10988 0.42217 0.0
C79 C 0.56954 0.14072 0.39275 0.0
O80 O 0.5745 0.16596 0.40868 0.0
C81 C 0.44826 0.04179 0.4423 0.0
O82 O 0.47209 0.05175 0.45822 0.0
C83 C 0.56801 0.14531 0.45537 0.0
O84 O 0.54733 0.18197 0.45115 0.0
O85 O 0.55656 0.11015 0.44633 0.0
O86 O 0.54333 0.10833 0.39394 0.0
O87 O 0.47336 0.1726 0.42086 0.0
C88 C 0.45895 0.18962 0.40461 0.0
O89 O 0.44319 0.2297 0.40511 0.0
O90 O 0.45781 0.05899 0.42545 0.0
Mg91 Mg 0.06821 0.02733 0.67944 0.0
C92 C 0.09514 0.03157 0.63592 0.0
O93 O 0.06746 0.06463 0.63658 0.0
C94 C 0.07221 0.0988 0.71027 0.0
O95 O 0.03968 0.0748 0.71719 0.0
C96 C 0.11404 0.95412 0.69817 0.0
O97 O 0.14487 0.97613 0.68872 0.0
O98 O 0.07491 0.96903 0.6979 0.0
O99 O 0.10468 0.01189 0.65217 0.0
O100 O 0.00223 0.04057 0.668 0.0
C101 C 0.99007 0.08019 0.66563 0.0
O102 O 0.01426 0.11159 0.67351 0.0
O103 O 0.09267 0.08567 0.69467 0.0
Co104 Co 0.49735 0.73486 0.01409 0.0
O105 O 0.45844 0.6872 0.00758 0.0
O106 O 0.44105 0.75739 0.00495 0.0
C107 C 0.52116 0.7076 0.04365 0.0
O108 O 0.52863 0.79279 0.02043 0.0
Co109 Co 0.59763 0.71796 0.01675 0.0
O110 O 0.59875 0.77739 0.02879 0.0
C111 C 0.55597 0.72354 0.97691 0.0
C112 C 0.42934 0.71652 0.00288 0.0
C113 C 0.5668 0.80426 0.02723 0.0
O114 O 0.51971 0.73473 0.9855 0.0
O115 O 0.5906 0.71282 0.98675 0.0
O116 O 0.48408 0.72874 0.04261 0.0
O117 O 0.54027 0.69994 0.02659 0.0
Co118 Co 0.42368 0.03801 0.26425 0.0
O119 O 0.37014 0.07106 0.26841 0.0
O120 O 0.38314 0.00409 0.27985 0.0
C121 C 0.42986 0.05092 0.23099 0.0
O122 O 0.47144 0.99153 0.26244 0.0
Co123 Co 0.5114 0.07806 0.25138 0.0
O124 O 0.53045 0.01654 0.24598 0.0
C125 C 0.47756 0.09585 0.29214 0.0
C126 C 0.35618 0.03689 0.27816 0.0
C127 C 0.50848 0.98513 0.25357 0.0
O128 O 0.44947 0.06476 0.28953 0.0
O129 O 0.50311 0.109 0.27808 0.0
O130 O 0.40389 0.0204 0.23763 0.0
O131 O 0.44881 0.07506 0.24461 0.0
Co132 Co 0.15757 0.87111 0.49788 0.0
O133 O 0.11412 0.8306 0.50767 0.0
O134 O 0.18495 0.82866 0.51557 0.0
C135 C 0.13594 0.86837 0.46544 0.0
O136 O 0.21234 0.90606 0.49 0.0
Co137 Co 0.13029 0.9589 0.47786 0.0
O138 O 0.1919 0.95787 0.4679 0.0
C139 C 0.12647 0.9501 0.52224 0.0
C140 C 0.14591 0.81138 0.51726 0.0
C141 C 0.2215 0.93549 0.47678 0.0
O142 O 0.14532 0.91225 0.52125 0.0
O143 O 0.11512 0.97194 0.50663 0.0
O144 O 0.16222 0.83849 0.47246 0.0
O145 O 0.12123 0.89629 0.4784 0.0
Co146 Co 0.23712 0.67261 0.75944 0.0
O147 O 0.18674 0.70751 0.75157 0.0
O148 O 0.25582 0.72026 0.74268 0.0
C149 C 0.22027 0.66747 0.79231 0.0
O150 O 0.29795 0.64771 0.76512 0.0
Co151 Co 0.23049 0.57888 0.77617 0.0
O152 O 0.29348 0.5866 0.78358 0.0
C153 C 0.21891 0.59296 0.73258 0.0
C154 C 0.21477 0.73217 0.74209 0.0
C155 C 0.31588 0.61731 0.77567 0.0
O156 O 0.2294 0.63355 0.73504 0.0
O157 O 0.21462 0.56633 0.74729 0.0
O158 O 0.23941 0.70235 0.78537 0.0
O159 O 0.20842 0.63851 0.77905 0.0
Co160 Co 0.88005 0.167 0.52463 0.0
O161 O 0.93182 0.19886 0.53309 0.0
O162 O 0.86349 0.22309 0.53613 0.0
C163 C 0.90642 0.14724 0.49426 0.0
O164 O 0.81859 0.14469 0.51647 0.0
Co165 Co 0.88428 0.06687 0.51562 0.0
O166 O 0.82505 0.07616 0.50411 0.0
C167 C 0.88625 0.0983 0.55771 0.0
C168 C 0.90547 0.23029 0.53843 0.0
C169 C 0.80241 0.11052 0.50755 0.0
O170 O 0.87712 0.1376 0.55194 0.0
O171 O 0.89341 0.06665 0.54543 0.0
O172 O 0.88962 0.18599 0.4969 0.0
O173 O 0.91009 0.12355 0.51022 0.0
Co174 Co 0.00864 0.41833 0.77444 0.0
O175 O 0.97574 0.46804 0.78427 0.0
O176 O 0.95884 0.39855 0.78993 0.0
C177 C 0.01512 0.44307 0.74274 0.0
O178 O 0.03193 0.35842 0.76602 0.0
Co179 Co 0.10355 0.42586 0.7586 0.0
O180 O 0.09456 0.36517 0.74846 0.0
C181 C 0.08763 0.42914 0.80235 0.0
C182 C 0.94875 0.43975 0.79201 0.0
C183 C 0.06281 0.34207 0.75507 0.0
O184 O 0.04702 0.41908 0.79922 0.0
O185 O 0.11487 0.43672 0.78808 0.0
O186 O 0.97952 0.42325 0.74854 0.0
O187 O 0.04448 0.45014 0.75655 0.0
Co188 Co 0.74356 0.49137 0.02493 0.0
O189 O 0.68849 0.46614 0.03321 0.0
O190 O 0.75317 0.43297 0.03542 0.0
C191 C 0.71973 0.51541 0.99489 0.0
O192 O 0.80685 0.50689 0.01694 0.0
Co193 Co 0.74968 0.59206 0.01812 0.0
O194 O 0.8085 0.57761 0.00728 0.0
C195 C 0.74868 0.55771 0.05949 0.0
C196 C 0.71066 0.43133 0.03789 0.0
C197 C 0.82699 0.54046 0.00957 0.0
O198 O 0.75156 0.51829 0.05257 0.0
O199 O 0.74421 0.59127 0.04817 0.0
O200 O 0.73149 0.47482 0.99714 0.0
O201 O 0.7185 0.53876 0.01118 0.0
Co202 Co 0.68177 0.28762 0.26609 0.0
O203 O 0.63979 0.33215 0.25835 0.0
O204 O 0.71226 0.33919 0.25677 0.0
C205 C 0.65099 0.26898 0.2956 0.0
O206 O 0.73536 0.2508 0.27347 0.0
Co207 Co 0.65431 0.18977 0.27085 0.0
O208 O 0.71391 0.18314 0.28256 0.0
C209 C 0.66731 0.22612 0.23027 0.0
C210 C 0.6736 0.35653 0.25408 0.0
C211 C 0.7435 0.21243 0.28058 0.0
O212 O 0.68095 0.26248 0.23797 0.0
O213 O 0.65254 0.19433 0.2408 0.0
O214 O 0.67544 0.30384 0.29432 0.0
O215 O 0.64182 0.24972 0.27873 0.0
H216 H 0.16749 0.99186 0.31102 0.0
H217 H 0.15623 0.13278 0.31151 0.0
H218 H 0.23105 0.13921 0.298 0.0
H219 H 0.2999 0.10424 0.28626 0.0
H220 H 0.31153 0.96329 0.28815 0.0
H221 H 0.23632 0.95737 0.3006 0.0
C222 C 0.18129 0.02399 0.30802 0.0
C223 C 0.15637 0.06178 0.31201 0.0
C224 C 0.22444 0.02738 0.3008 0.0
C225 C 0.17489 0.10322 0.30847 0.0
C226 C 0.21759 0.10688 0.30077 0.0
C227 C 0.28585 0.0723 0.28941 0.0
C228 C 0.31109 0.03427 0.28624 0.0
C229 C 0.24272 0.06914 0.29691 0.0
C230 C 0.29279 0.99307 0.29055 0.0
C231 C 0.24974 0.98961 0.2976 0.0
H232 H 0.07889 0.63944 0.56002 0.0
H233 H 0.21889 0.61906 0.56661 0.0
H234 H 0.23344 0.68883 0.55012 0.0
H235 H 0.20655 0.75561 0.53343 0.0
H236 H 0.06657 0.77536 0.52656 0.0
H237 H 0.05204 0.70631 0.54365 0.0
C238 C 0.11259 0.65018 0.55782 0.0
C239 C 0.14767 0.62388 0.56453 0.0
C240 C 0.12082 0.69047 0.54834 0.0
C241 C 0.19116 0.6385 0.56158 0.0
C242 C 0.19958 0.67851 0.55217 0.0
C243 C 0.17289 0.74493 0.53581 0.0
C244 C 0.13775 0.77066 0.52873 0.0
C245 C 0.16469 0.70481 0.54548 0.0
C246 C 0.09429 0.7562 0.53182 0.0
C247 C 0.0859 0.71662 0.54158 0.0
H248 H 0.51748 0.65984 0.78855 0.0
H249 H 0.51253 0.53553 0.81926 0.0
H250 H 0.4352 0.52707 0.80987 0.0
H251 H 0.36773 0.55712 0.79478 0.0
H252 H 0.37302 0.68179 0.76428 0.0
H253 H 0.45135 0.6877 0.77173 0.0
C254 C 0.49966 0.63067 0.79304 0.0
C255 C 0.52078 0.59856 0.80472 0.0
C256 C 0.45506 0.62616 0.78775 0.0
C257 C 0.49713 0.56088 0.81031 0.0
C258 C 0.45281 0.55605 0.805 0.0
C259 C 0.386 0.58549 0.78965 0.0
C260 C 0.3642 0.61906 0.77911 0.0
C261 C 0.43122 0.58885 0.79403 0.0
C262 C 0.38869 0.65542 0.77247 0.0
C263 C 0.4336 0.65892 0.77675 0.0
H264 H 0.6337 0.98723 0.05959 0.0
H265 H 0.49585 0.0192 0.05362 0.0
H266 H 0.48105 0.94603 0.03994 0.0
H267 H 0.50705 0.87151 0.03108 0.0
H268 H 0.64538 0.84104 0.03766 0.0
H269 H 0.65989 0.91491 0.04961 0.0
C270 C 0.60041 0.97838 0.05521 0.0
C271 C 0.56597 0.00863 0.05774 0.0
C272 C 0.59208 0.93628 0.04751 0.0
C273 C 0.52306 0.99655 0.05186 0.0
C274 C 0.51452 0.95464 0.04407 0.0
C275 C 0.54038 0.8811 0.03502 0.0
C276 C 0.57489 0.85037 0.03357 0.0
C277 C 0.54873 0.92398 0.04205 0.0
C278 C 0.61793 0.86361 0.03874 0.0
C279 C 0.62643 0.90601 0.04558 0.0
H280 H 0.23989 0.68736 0.96547 0.0
H281 H 0.27534 0.55232 0.97614 0.0
H282 H 0.34538 0.57573 0.99071 0.0
H283 H 0.39734 0.63402 -0.00045 0.0
H284 H 0.36285 0.76918 0.98891 0.0
H285 H 0.29148 0.74615 0.97521 0.0
C286 C 0.26282 0.66302 0.97107 0.0
C287 C 0.25232 0.61809 0.96965 0.0
C288 C 0.30323 0.67669 0.97937 0.0
C289 C 0.28249 0.58708 0.97701 0.0
C290 C 0.32262 0.60042 0.98533 0.0
C291 C 0.37422 0.65854 0.99429 0.0
C292 C 0.38547 0.70327 0.9952 0.0
C293 C 0.33345 0.64508 0.98643 0.0
C294 C 0.35501 0.73455 0.98838 0.0
C295 C 0.31423 0.72138 0.98053 0.0
H296 H 0.5362 0.78113 0.24362 0.0
H297 H 0.65225 0.8247 0.21209 0.0
H298 H 0.635 0.90079 0.22069 0.0
H299 H 0.58388 0.95547 0.23514 0.0
H300 H 0.4681 0.91067 0.26672 0.0
H301 H 0.48857 0.83494 0.2602 0.0
C302 C 0.558 0.80719 0.23877 0.0
C303 C 0.59527 0.79711 0.22707 0.0
C304 C 0.5478 0.85089 0.24369 0.0
C305 C 0.62329 0.8314 0.22109 0.0
C306 C 0.61335 0.87502 0.22594 0.0
C307 C 0.56336 0.92918 0.24079 0.0
C308 C 0.52426 0.93915 0.25128 0.0
C309 C 0.57522 0.88526 0.23693 0.0
C310 C 0.49827 0.90437 0.25853 0.0
C311 C 0.50988 0.86083 0.25478 0.0
H312 H 0.42048 0.99488 0.47485 0.0
H313 H 0.38223 0.03253 0.41468 0.0
H314 H 0.30964 1.00033 0.41968 0.0
H315 H 0.25485 0.96732 0.44204 0.0
H316 H 0.29265 0.92784 0.50191 0.0
H317 H 0.36764 0.95446 0.49604 0.0
C318 C 0.39645 0.99557 0.46274 0.0
C319 C 0.40673 0.01662 0.44451 0.0
C320 C 0.35455 0.97692 0.4657 0.0
C321 C 0.3753 0.01675 0.42891 0.0
C322 C 0.33362 0.99847 0.43176 0.0
C323 C 0.27961 0.96425 0.45375 0.0
C324 C 0.26809 0.94626 0.47248 0.0
C325 C 0.32256 0.97945 0.45025 0.0
C326 C 0.30069 0.94167 0.48738 0.0
C327 C 0.34351 0.95707 0.48406 0.0
H328 H 0.19262 0.91252 0.6976 0.0
H329 H 0.05997 0.90008 0.72013 0.0
H330 H 0.07889 0.82937 0.73521 0.0
H331 H 0.13376 0.77137 0.74222 0.0
H332 H 0.26604 0.78533 0.71931 0.0
H333 H 0.24638 0.85503 0.70402 0.0
C334 C 0.16773 0.89451 0.70584 0.0
C335 C 0.12497 0.91172 0.70779 0.0
C336 C 0.17874 0.85398 0.71433 0.0
C337 C 0.09319 0.88767 0.71844 0.0
C338 C 0.10398 0.84719 0.72704 0.0
C339 C 0.15816 0.78956 0.73376 0.0
C340 C 0.20133 0.77312 0.73193 0.0
C341 C 0.1467 0.83001 0.72507 0.0
C342 C 0.23261 0.79717 0.72099 0.0
C343 C 0.22144 0.83713 0.71226 0.0
H344 H 0.75961 0.46544 0.82897 0.0
H345 H 0.77947 0.5964 0.80634 0.0
H346 H 0.85334 0.57612 0.79496 0.0
H347 H 0.91161 0.52072 0.7909 0.0
H348 H 0.89066 0.38957 0.81304 0.0
H349 H 0.81795 0.41068 0.82542 0.0
C350 C 0.77998 0.48963 0.82152 0.0
C351 C 0.76389 0.53235 0.81844 0.0
C352 C 0.82233 0.47779 0.81507 0.0
C353 C 0.79092 0.56323 0.80883 0.0
C354 C 0.83322 0.5517 0.80237 0.0
C355 C 0.89132 0.49688 0.79862 0.0
C356 C 0.90655 0.45364 0.80109 0.0
C357 C 0.84922 0.50904 0.80539 0.0
C358 C 0.87972 0.42305 0.81096 0.0
C359 C 0.83808 0.43505 0.81798 0.0
H360 H 0.5832 0.2783 0.06387 0.0
H361 H 0.69583 0.20065 0.04642 0.0
H362 H 0.73665 0.26705 0.03829 0.0
H363 H 0.741 0.34747 0.03649 0.0
H364 H 0.62786 0.42502 0.05311 0.0
H365 H 0.587 0.35858 0.06143 0.0
C366 C 0.61651 0.27586 0.05811 0.0
C367 C 0.63631 0.23446 0.05577 0.0
C368 C 0.64003 0.31427 0.05355 0.0
C369 C 0.67965 0.23202 0.04837 0.0
C370 C 0.70319 0.27003 0.04379 0.0
C371 C 0.70757 0.34978 0.04213 0.0
C372 C 0.68762 0.39107 0.04433 0.0
C373 C 0.68389 0.31136 0.0465 0.0
C374 C 0.64402 0.39357 0.05134 0.0
C375 C 0.62054 0.35559 0.05604 0.0
H376 H 0.94039 0.19602 0.3102 0.0
H377 H 0.90396 0.05921 0.31188 0.0
H378 H 0.83118 0.07705 0.2986 0.0
H379 H 0.7768 0.13163 0.28827 0.0
H380 H 0.81282 0.26855 0.28654 0.0
H381 H 0.88703 0.25036 0.29808 0.0
C382 C 0.91668 0.17003 0.30751 0.0
C383 C 0.92753 0.12638 0.31216 0.0
C384 C 0.87476 0.18053 0.30001 0.0
C385 C 0.89648 0.0931 0.30848 0.0
C386 C 0.85477 0.10327 0.30095 0.0
C387 C 0.80083 0.15758 0.29038 0.0
C388 C 0.78907 0.20146 0.28672 0.0
C389 C 0.84336 0.14693 0.29698 0.0
C390 C 0.8209 0.23451 0.28929 0.0
C391 C 0.86334 0.22416 0.29591 0.0
H392 H 0.9511 0.42475 0.56423 0.0
H393 H 0.08311 0.37241 0.56247 0.0
H394 H 0.05405 0.30055 0.55273 0.0
H395 H 0.99113 0.25256 0.54489 0.0
H396 H 0.85904 0.30456 0.54751 0.0
H397 H 0.88818 0.3765 0.55698 0.0
C398 C 0.97361 0.39775 0.56156 0.0
C399 C 0.01931 0.4041 0.56392 0.0
C400 C 0.95661 0.35635 0.55632 0.0
C401 C 0.04785 0.36851 0.56068 0.0
C402 C 0.03123 0.32737 0.55517 0.0
C403 C 0.96866 0.27956 0.54762 0.0
C404 C 0.92292 0.27312 0.54548 0.0
C405 C 0.98566 0.32087 0.55303 0.0
C406 C 0.89434 0.30851 0.5491 0.0
C407 C 0.91101 0.34973 0.55443 0.0
H408 H 0.61711 0.07581 0.46761 0.0
H409 H 0.60918 0.21674 0.4721 0.0
H410 H 0.67955 0.21866 0.49004 0.0
H411 H 0.74654 0.18052 0.50211 0.0
H412 H 0.7534 0.03946 0.49691 0.0
H413 H 0.68054 0.03763 0.4818 0.0
C414 C 0.63049 0.10696 0.47267 0.0
C415 C 0.60797 0.14604 0.46832 0.0
C416 C 0.67116 0.10791 0.4828 0.0
C417 C 0.62579 0.18607 0.47516 0.0
C418 C 0.66619 0.18724 0.48539 0.0
C419 C 0.73185 0.14938 0.49791 0.0
C420 C 0.7559 0.11031 0.50047 0.0
C421 C 0.68966 0.14841 0.48895 0.0
C422 C 0.73614 0.07021 0.49492 0.0
C423 C 0.6943 0.06902 0.48625 0.0
H424 H 0.02401 0.14171 0.73858 0.0
H425 H 0.13756 0.15649 0.70017 0.0
H426 H 0.14578 0.23256 0.71128 0.0
H427 H 0.11825 0.29597 0.73045 0.0
H428 H 0.0033 0.2812 0.76808 0.0
H429 H 0.99823 0.20409 0.75866 0.0
C430 C 0.05088 0.16136 0.73277 0.0
C431 C 0.08005 0.14337 0.71851 0.0
C432 C 0.05497 0.20526 0.73895 0.0
C433 C 0.11457 0.16947 0.71113 0.0
C434 C 0.11923 0.21304 0.71744 0.0
C435 C 0.0922 0.2759 0.7367 0.0
C436 C 0.0611 0.29466 0.7499 0.0
C437 C 0.08919 0.23149 0.7311 0.0
C438 C 0.02762 0.26792 0.75782 0.0
C439 C 0.02467 0.2237 0.75246 0.0
H440 H 0.01586 0.50354 0.9733 0.0
H441 H 0.0289 0.64195 0.98612 0.0
H442 H 0.95579 0.64278 0.00109 0.0
H443 H 0.88672 0.6058 0.00874 0.0
H444 H 0.87228 0.46747 0.99669 0.0
H445 H 0.94766 0.46491 0.98341 0.0
C446 C 0.00281 0.53382 0.97948 0.0
C447 C 0.02776 0.57276 0.97836 0.0
C448 C 0.96051 0.53412 0.98815 0.0
C449 C 0.01046 0.61157 0.98664 0.0
C450 C 0.96857 0.61213 0.9952 0.0
C451 C 0.90005 0.57497 0.00328 0.0
C452 C 0.87376 0.53698 0.00345 0.0
C453 C 0.94309 0.57383 0.99573 0.0
C454 C 0.89185 0.49717 0.9967 0.0
C455 C 0.93484 0.49578 0.98902 0.0
H456 H 0.68327 0.5529 0.22449 0.0
H457 H 0.54281 0.5337 0.21951 0.0
H458 H 0.55054 0.45907 0.23228 0.0
H459 H 0.59745 0.39853 0.24408 0.0
H460 H 0.73818 0.41713 0.24784 0.0
H461 H 0.73006 0.49255 0.23626 0.0
C462 C 0.65426 0.53257 0.22638 0.0
C463 C 0.61247 0.54902 0.22114 0.0
C464 C 0.65904 0.48939 0.23337 0.0
C465 C 0.57535 0.52194 0.22345 0.0
C466 C 0.57976 0.4792 0.23072 0.0
C467 C 0.62635 0.41909 0.24238 0.0
C468 C 0.66837 0.40213 0.24682 0.0
C469 C 0.62148 0.46244 0.23557 0.0
C470 C 0.70546 0.42924 0.24448 0.0
C471 C 0.70084 0.47245 0.2379 0.0
H472 H 0.14852 0.9443 0.37869 0.0
H473 H 0.00922 0.9618 0.38896 0.0
H474 H 0.01432 0.91951 0.4199 0.0
H475 H 0.06048 0.88823 0.44662 0.0
H476 H 0.19919 0.86881 0.43646 0.0
H477 H 0.19232 0.90075 0.40277 0.0
C478 C 0.11913 0.93791 0.38747 0.0
C479 C 0.07874 0.95676 0.38172 0.0
C480 C 0.12231 0.91364 0.40534 0.0
C481 C 0.04076 0.94779 0.39306 0.0
C482 C 0.04368 0.92386 0.41086 0.0
C483 C 0.08885 0.88988 0.43673 0.0
C484 C 0.13023 0.87654 0.44384 0.0
C485 C 0.08456 0.90821 0.41752 0.0
C486 C 0.16695 0.8786 0.43109 0.0
C487 C 0.16307 0.89723 0.41196 0.0
H488 H 0.18576 0.55366 0.6403 0.0
H489 H 0.15039 0.42715 0.66422 0.0
H490 H 0.17198 0.45132 0.69795 0.0
H491 H 0.19465 0.51029 0.72101 0.0
H492 H 0.22677 0.63788 0.69715 0.0
H493 H 0.21232 0.6113 0.66309 0.0
C494 C 0.18364 0.53099 0.6528 0.0
C495 C 0.16654 0.48857 0.64969 0.0
C496 C 0.19476 0.54555 0.67226 0.0
C497 C 0.1636 0.4599 0.66615 0.0
C498 C 0.17568 0.4738 0.68548 0.0
C499 C 0.19879 0.53232 0.70839 0.0
C500 C 0.21152 0.57621 0.71178 0.0
C501 C 0.19019 0.51693 0.68879 0.0
C502 C 0.21676 0.60405 0.69512 0.0
C503 C 0.20861 0.58886 0.67558 0.0
H504 H 0.52888 0.68948 0.8842 0.0
H505 H 0.67086 0.69652 0.88515 0.0
H506 H 0.66933 0.71735 0.92067 0.0
H507 H 0.62803 0.7244 0.95241 0.0
H508 H 0.48594 0.71774 0.95123 0.0
H509 H 0.48726 0.70613 0.91488 0.0
C510 C 0.55946 0.69657 0.89204 0.0
C511 C 0.5999 0.6907 0.88209 0.0
C512 C 0.55839 0.70793 0.91255 0.0
C513 C 0.63922 0.70054 0.89242 0.0
C514 C 0.63841 0.7121 0.91282 0.0
C515 C 0.59733 0.72079 0.94418 0.0
C516 C 0.557 0.72121 0.95461 0.0
C517 C 0.59826 0.71427 0.92321 0.0
C518 C 0.51749 0.7173 0.94364 0.0
C519 C 0.51818 0.7106 0.92282 0.0
H520 H 0.454 0.04348 0.1368 0.0
H521 H 0.49715 0.1766 0.1467 0.0
H522 H 0.48132 0.16983 0.18269 0.0
H523 H 0.45988 0.124 0.21178 0.0
H524 H 0.41533 0.9915 0.20123 0.0
H525 H 0.42746 0.99995 0.16516 0.0
C526 C 0.4593 0.07126 0.14678 0.0
C527 C 0.47676 0.11043 0.13908 0.0
C528 C 0.45055 0.06699 0.16743 0.0
C529 C 0.48331 0.14619 0.15219 0.0
C530 C 0.47472 0.14218 0.17283 0.0
C531 C 0.45288 0.09706 0.20154 0.0
C532 C 0.43718 0.05703 0.20917 0.0
C533 C 0.45922 0.10239 0.18068 0.0
C534 C 0.42757 0.02259 0.19574 0.0
C535 C 0.43444 0.02739 0.1751 0.0
H536 H 0.23122 0.64733 0.88662 0.0
H537 H 0.11336 0.57174 0.87601 0.0
H538 H 0.11785 0.58711 0.83992 0.0
H539 H 0.15752 0.6195 0.81116 0.0
H540 H 0.27264 0.69898 0.82221 0.0
H541 H 0.26712 0.68478 0.85833 0.0
C542 C 0.20619 0.63487 0.8764 0.0
C543 C 0.17193 0.60871 0.88388 0.0
C544 C 0.20874 0.64426 0.85576 0.0
C545 C 0.13964 0.59259 0.87059 0.0
C546 C 0.14244 0.60101 0.84994 0.0
C547 C 0.18124 0.63374 0.82153 0.0
C548 C 0.21562 0.65992 0.81411 0.0
C549 C 0.17719 0.62634 0.84233 0.0
C550 C 0.24588 0.67874 0.82764 0.0
C551 C 0.24278 0.67061 0.84827 0.0
H552 H 0.62229 0.6311 0.11872 0.0
H553 H 0.51959 0.70089 0.15027 0.0
H554 H 0.48707 0.7229 0.1181 0.0
H555 H 0.48955 0.72452 0.0811 0.0
H556 H 0.5944 0.65752 0.04975 0.0
H557 H 0.62464 0.63245 0.08184 0.0
C558 C 0.5924 0.65058 0.11859 0.0
C559 C 0.5731 0.66404 0.13686 0.0
C560 C 0.57464 0.66403 0.10009 0.0
C561 C 0.53491 0.68999 0.13641 0.0
C562 C 0.51643 0.70269 0.11803 0.0
C563 C 0.51898 0.70436 0.08129 0.0
C564 C 0.5397 0.69286 0.06307 0.0
C565 C 0.53633 0.69034 0.09979 0.0
C566 C 0.57787 0.66687 0.06356 0.0
C567 C 0.5951 0.65243 0.0819 0.0
H568 H 0.48862 0.2199 0.36882 0.0
H569 H 0.43113 0.10664 0.39684 0.0
H570 H 0.43293 0.06684 0.36473 0.0
H571 H 0.44967 0.06493 0.32845 0.0
H572 H 0.50835 0.17818 0.30049 0.0
H573 H 0.50685 0.21746 0.33262 0.0
C574 C 0.47653 0.18649 0.36782 0.0
C575 C 0.4607 0.16569 0.38522 0.0
C576 C 0.47757 0.16401 0.34926 0.0
C577 C 0.44491 0.12257 0.38379 0.0
C578 C 0.4455 0.10007 0.36538 0.0
C579 C 0.46229 0.09815 0.3294 0.0
C580 C 0.47905 0.1185 0.31202 0.0
C581 C 0.46181 0.12044 0.34801 0.0
C582 C 0.4954 0.16156 0.31358 0.0
C583 C 0.4943 0.18421 0.33195 0.0
H584 H 0.07153 0.05996 0.59886 0.0
H585 H 0.14959 0.96143 0.62874 0.0
H586 H 0.16622 0.92716 0.59625 0.0
H587 H 0.15631 0.9238 0.55932 0.0
H588 H 0.07715 0.02276 0.53013 0.0
H589 H 0.06313 0.05778 0.56239 0.0
C590 C 0.09257 0.03124 0.59831 0.0
C591 C 0.10925 0.01336 0.61624 0.0
C592 C 0.10149 0.0114 0.57967 0.0
C593 C 0.13633 0.97599 0.61517 0.0
C594 C 0.1457 0.95623 0.5966 0.0
C595 C 0.13593 0.95296 0.56002 0.0
C596 C 0.11781 0.97039 0.54222 0.0
C597 C 0.12798 0.97333 0.57874 0.0
C598 C 0.09168 0.00845 0.54348 0.0
C599 C 0.0836 0.02867 0.56197 0.0
H600 H 0.69233 0.61951 0.91428 0.0
H601 H 0.66635 0.48908 0.89185 0.0
H602 H 0.67806 0.45919 0.92564 0.0
H603 H 0.69793 0.4703 0.96123 0.0
H604 H 0.71968 0.60137 0.98388 0.0
H605 H 0.70712 0.63115 0.95023 0.0
C606 C 0.68927 0.58452 0.91682 0.0
C607 C 0.67911 0.55632 0.90068 0.0
C608 C 0.69529 0.56787 0.93624 0.0
C609 C 0.67427 0.51125 0.90413 0.0
C610 C 0.68107 0.49423 0.92339 0.0
C611 C 0.69989 0.50538 0.95877 0.0
C612 C 0.71017 0.53364 0.97488 0.0
C613 C 0.69198 0.52222 0.93949 0.0
C614 C 0.71193 0.57904 0.97165 0.0
C615 C 0.70486 0.59603 0.95243 0.0
H616 H 0.65389 0.23697 0.13601 0.0
H617 H 0.63237 0.09797 0.14292 0.0
H618 H 0.64837 0.10408 0.17891 0.0
H619 H 0.65891 0.15042 0.20882 0.0
H620 H 0.67784 0.28993 0.20191 0.0
H621 H 0.67228 0.28201 0.16541 0.0
C622 C 0.65351 0.20784 0.14531 0.0
C623 C 0.64139 0.16721 0.13688 0.0
C624 C 0.66148 0.21181 0.16602 0.0
C625 C 0.64159 0.12965 0.14905 0.0
C626 C 0.65029 0.13321 0.16966 0.0
C627 C 0.66207 0.17911 0.19935 0.0
C628 C 0.66795 0.22083 0.20812 0.0
C629 C 0.6586 0.17439 0.1784 0.0
C630 C 0.67291 0.25748 0.19558 0.0
C631 C 0.66973 0.253 0.17471 0.0
H632 H 0.95953 0.04634 0.41526 0.0
H633 H 0.99266 0.17713 0.39614 0.0
H634 H 0.96715 0.20665 0.42854 0.0
H635 H 0.93527 0.19463 0.46238 0.0
H636 H 0.90802 0.0626 0.48175 0.0
H637 H 0.93104 0.03408 0.44907 0.0
C638 C 0.96104 0.08136 0.41815 0.0
C639 C 0.97752 0.10965 0.40335 0.0
C640 C 0.94724 0.09776 0.43681 0.0
C641 C 0.98009 0.1548 0.40738 0.0
C642 C 0.96539 0.17162 0.42584 0.0
C643 C 0.93421 0.15968 0.45933 0.0
C644 C 0.91966 0.13072 0.47432 0.0
C645 C 0.94879 0.14337 0.44066 0.0
C646 C 0.91906 0.08547 0.47042 0.0
C647 C 0.93222 0.06915 0.45174 0.0
H648 H 0.06474 0.51808 0.65745 0.0
H649 H 0.94766 0.44615 0.64091 0.0
H650 H 0.93528 0.42732 0.67623 0.0
H651 H 0.96107 0.42642 0.7112 0.0
H652 H 0.0812 0.4938 0.72739 0.0
H653 H 0.0892 0.51928 0.69272 0.0
C654 C 0.03588 0.49926 0.66167 0.0
C655 C 0.00671 0.48397 0.64671 0.0
C656 C 0.03015 0.48698 0.68182 0.0
C657 C 0.97019 0.45859 0.65225 0.0
C658 C 0.96337 0.44753 0.67238 0.0
C659 C 0.989 0.44673 0.70716 0.0
C660 C 0.02057 0.45808 0.7218 0.0
C661 C 0.99374 0.46062 0.68719 0.0
C662 C 0.05659 0.48438 0.71635 0.0
C663 C 0.06114 0.49903 0.69655 0.0
H664 H 0.61017 0.21738 0.38509 0.0
H665 H 0.56838 0.09702 0.35642 0.0
H666 H 0.59074 0.12591 0.32361 0.0
H667 H 0.61746 0.18763 0.30299 0.0
H668 H 0.65861 0.30753 0.33233 0.0
H669 H 0.64002 0.27676 0.36504 0.0
C670 C 0.60629 0.19713 0.37173 0.0
C671 C 0.58752 0.15513 0.3732 0.0
C672 C 0.61819 0.21425 0.35301 0.0
C673 C 0.58285 0.12943 0.3557 0.0
C674 C 0.59541 0.14603 0.33694 0.0
C675 C 0.62241 0.20696 0.31654 0.0
C676 C 0.63915 0.24992 0.31524 0.0
C677 C 0.61216 0.18883 0.33538 0.0
C678 C 0.64565 0.27446 0.33294 0.0
C679 C 0.63513 0.25687 0.35165 0.0
H680 H 0.94559 0.02376 0.64106 0.0
H681 H 0.9634 0.16161 0.65362 0.0
H682 H 0.92672 0.18008 0.62206 0.0
H683 H 0.9007 0.15669 0.58848 0.0
H684 H 0.88554 0.01848 0.57585 0.0
H685 H 0.90961 1.00084 0.6098 0.0
C686 C 0.94054 0.05789 0.63717 0.0
C687 C 0.95805 0.09115 0.64953 0.0
C688 C 0.92045 0.06832 0.61874 0.0
C689 C 0.95076 0.13522 0.64429 0.0
C690 C 0.92997 0.14588 0.62615 0.0
C691 C 0.90168 0.12279 0.5933 0.0
C692 C 0.89217 0.089 0.57946 0.0
C693 C 0.91641 0.11265 0.61285 0.0
C694 C 0.89346 0.04521 0.58603 0.0
C695 C 0.90723 0.03498 0.60549 0.0
H696 H 0.17003 0.47424 0.88711 0.0
H697 H 0.05441 0.40451 0.90702 0.0
H698 H 0.03606 0.3861 0.87213 0.0
H699 H 0.04829 0.39705 0.83599 0.0
H700 H 0.16257 0.46917 0.81615 0.0
H701 H 0.18576 0.47967 0.85105 0.0
C702 C 0.14146 0.45398 0.8839 0.0
C703 C 0.11354 0.44081 0.89966 0.0
C704 C 0.13032 0.44479 0.86378 0.0
C705 C 0.07639 0.41505 0.89515 0.0
C706 C 0.0657 0.40482 0.8752 0.0
C707 C 0.07844 0.41483 0.83927 0.0
C708 C 0.10334 0.43271 0.82345 0.0
C709 C 0.09159 0.42082 0.85938 0.0
C710 C 0.14265 0.45514 0.828 0.0
C711 C 0.15599 0.46117 0.84797 0.0
H712 H 0.73226 0.55982 0.15408 0.0
H713 H 0.74254 0.69917 0.14393 0.0
H714 H 0.7561 0.68582 0.10822 0.0
H715 H 0.75657 0.63539 0.07947 0.0
H716 H 0.7436 0.49611 0.08933 0.0
H717 H 0.73953 0.50881 0.12562 0.0
C718 C 0.73847 0.58729 0.14418 0.0
C719 C 0.73598 0.63049 0.15169 0.0
C720 C 0.74494 0.57946 0.12354 0.0
C721 C 0.74409 0.66561 0.13857 0.0
C722 C 0.75151 0.65803 0.1181 0.0
C723 C 0.75312 0.60769 0.08952 0.0
C724 C 0.74979 0.56489 0.0816 0.0
C725 C 0.75049 0.6152 0.11034 0.0
C726 C 0.74598 0.52944 0.09495 0.0
C727 C 0.74364 0.53665 0.11572 0.0
loop_
_geom_bond_atom_site_label_1
_geom_bond_atom_site_label_2
_geom_bond_distance
_geom_bond_site_symmetry_2
_ccdc_geom_bond_type
Mg0 O7 2.141 . S
Mg0 O8 2.048 1_545 S
Mg0 O9 2.048 1_455 S
Mg0 O12 2.141 1_455 S
C1 O2 1.313 . S
C1 O8 1.195 . S
O2 C1 1.313 . S
C3 O4 1.245 . S
C3 O12 1.289 . S
O4 C3 1.245 . S
C5 O6 1.245 . S
C5 O7 1.289 1_565 S
O6 C5 1.245 . S
O7 Mg0 2.141 . S
O7 C5 1.289 1_545 S
O8 Mg0 2.048 1_565 S
O8 C1 1.195 . S
O9 Mg0 2.048 1_655 S
O9 C10 1.195 . S
C10 O9 1.195 . S
C10 O11 1.313 1_545 S
O11 C10 1.313 1_565 S
O12 Mg0 2.141 1_655 S
O12 C3 1.289 . S
Mg13 O20 2.141 . S
Mg13 O21 2.048 . S
Mg13 O22 2.048 . S
Mg13 O25 2.141 . S
C14 O15 1.313 . S
C14 O21 1.195 . S
O15 C14 1.313 . S
C16 O17 1.245 . S
C16 O25 1.289 . S
O17 C16 1.245 . S
C18 O19 1.245 . S
C18 O20 1.289 . S
O19 C18 1.245 . S
O20 Mg13 2.141 . S
O20 C18 1.289 . S
O21 Mg13 2.048 . S
O21 C14 1.195 . S
O22 Mg13 2.048 . S
O22 C23 1.195 . S
C23 O22 1.195 . S
C23 O24 1.313 . S
O24 C23 1.313 . S
O25 Mg13 2.141 . S
O25 C16 1.289 . S
Mg26 O33 2.141 . S
Mg26 O34 2.048 . S
Mg26 O35 2.048 . S
Mg26 O38 2.141 . S
C27 O28 1.313 . S
C27 O34 1.195 . S
O28 C27 1.313 . S
C29 O30 1.245 . S
C29 O38 1.289 . S
O30 C29 1.245 . S
C31 O32 1.245 . S
C31 O33 1.289 . S
O32 C31 1.245 . S
O33 Mg26 2.141 . S
O33 C31 1.289 . S
O34 Mg26 2.048 . S
O34 C27 1.195 . S
O35 Mg26 2.048 . S
O35 C36 1.195 . S
C36 O35 1.195 . S
C36 O37 1.313 . S
O37 C36 1.313 . S
O38 Mg26 2.141 . S
O38 C29 1.289 . S
Mg39 O46 2.141 . S
Mg39 O47 2.048 . S
Mg39 O48 2.048 . S
Mg39 O51 2.141 . S
C40 O41 1.313 . S
C40 O47 1.195 . S
O41 C40 1.313 . S
C42 O43 1.245 . S
C42 O51 1.289 . S
O43 C42 1.245 . S
C44 O45 1.245 . S
C44 O46 1.289 . S
O45 C44 1.245 . S
O46 Mg39 2.141 . S
O46 C44 1.289 . S
O47 Mg39 2.048 . S
O47 C40 1.195 . S
O48 Mg39 2.048 . S
O48 C49 1.195 . S
C49 O48 1.195 . S
C49 O50 1.313 . S
O50 C49 1.313 . S
O51 Mg39 2.141 . S
O51 C42 1.289 . S
Mg52 O59 2.141 . S
Mg52 O60 2.048 . S
Mg52 O61 2.048 . S
Mg52 O64 2.141 . S
C53 O54 1.313 . S
C53 O60 1.195 . S
O54 C53 1.313 . S
C55 O56 1.245 . S
C55 O64 1.289 . S
O56 C55 1.245 . S
C57 O58 1.245 . S
C57 O59 1.289 . S
O58 C57 1.245 . S
O59 Mg52 2.141 . S
O59 C57 1.289 . S
O60 Mg52 2.048 . S
O60 C53 1.195 . S
O61 Mg52 2.048 . S
O61 C62 1.195 . S
C62 O61 1.195 . S
C62 O63 1.313 . S
O63 C62 1.313 . S
O64 Mg52 2.141 . S
O64 C55 1.289 . S
Mg65 O72 2.141 . S
Mg65 O73 2.048 . S
Mg65 O74 2.048 . S
Mg65 O77 2.141 . S
C66 O67 1.313 . S
C66 O73 1.195 . S
O67 C66 1.313 . S
C68 O69 1.245 . S
C68 O77 1.289 . S
O69 C68 1.245 . S
C70 O71 1.245 . S
C70 O72 1.289 . S
O71 C70 1.245 . S
O72 Mg65 2.141 . S
O72 C70 1.289 . S
O73 Mg65 2.048 . S
O73 C66 1.195 . S
O74 Mg65 2.048 . S
O74 C75 1.195 . S
C75 O74 1.195 . S
C75 O76 1.313 . S
O76 C75 1.313 . S
O77 Mg65 2.141 . S
O77 C68 1.289 . S
Mg78 O85 2.141 . S
Mg78 O86 2.048 . S
Mg78 O87 2.048 . S
Mg78 O90 2.141 . S
C79 O80 1.313 . S
C79 O86 1.195 . S
O80 C79 1.313 . S
C81 O82 1.245 . S
C81 O90 1.289 . S
O82 C81 1.245 . S
C83 O84 1.245 . S
C83 O85 1.289 . S
O84 C83 1.245 . S
O85 Mg78 2.141 . S
O85 C83 1.289 . S
O86 Mg78 2.048 . S
O86 C79 1.195 . S
O87 Mg78 2.048 . S
O87 C88 1.195 . S
C88 O87 1.195 . S
C88 O89 1.313 . S
O89 C88 1.313 . S
O90 Mg78 2.141 . S
O90 C81 1.289 . S
Mg91 O98 2.140 . S
Mg91 O99 2.047 . S
Mg91 O100 2.049 1_465 S
Mg91 O103 2.142 1_465 S
C92 O93 1.313 . S
C92 O99 1.195 . S
O93 C92 1.313 . S
C94 O95 1.245 1_655 S
C94 O103 1.289 . S
O95 C94 1.245 1_455 S
C96 O97 1.245 . S
C96 O98 1.289 . S
O97 C96 1.245 . S
O98 Mg91 2.140 . S
O98 C96 1.289 . S
O99 Mg91 2.047 . S
O99 C92 1.195 . S
O100 Mg91 2.049 1_645 S
O100 C101 1.195 . S
C101 O100 1.195 . S
C101 O102 1.313 1_655 S
O102 C101 1.313 1_455 S
O103 Mg91 2.142 1_645 S
O103 C94 1.289 . S
Co104 O105 2.216 . S
Co104 O106 2.091 . S
Co104 O108 2.004 . S
Co104 O114 2.021 1_554 S
Co104 O116 2.137 . S
Co104 O117 2.244 . S
O105 Co104 2.216 . S
O105 C112 1.247 1_554 S
O106 Co104 2.091 . S
O106 C112 1.261 1_554 S
C107 O116 1.247 . S
C107 O117 1.272 . S
O108 Co104 2.004 . S
O108 C113 1.259 . S
Co109 O110 2.061 . S
Co109 O115 2.052 1_554 S
Co109 O117 2.135 . S
O110 Co109 2.061 . S
O110 C113 1.235 . S
C111 O114 1.238 . S
C111 O115 1.241 . S
C112 O105 1.247 1_556 S
C112 O106 1.261 1_556 S
C113 O108 1.259 . S
C113 O110 1.235 . S
O114 Co104 2.021 1_556 S
O114 C111 1.238 . S
O115 Co109 2.052 1_556 S
O115 C111 1.241 . S
O116 Co104 2.137 . S
O116 C107 1.247 . S
O117 Co104 2.244 . S
O117 C107 1.272 . S
O117 Co109 2.135 . S
Co118 O119 2.216 . S
Co118 O120 2.091 . S
Co118 O122 2.004 . S
Co118 O128 2.021 . S
Co118 O130 2.137 . S
Co118 O131 2.244 . S
O119 Co118 2.216 . S
O119 C126 1.247 . S
O120 Co118 2.091 . S
O120 C126 1.261 . S
C121 O130 1.247 . S
C121 O131 1.272 . S
O122 Co118 2.004 . S
O122 C127 1.259 . S
Co123 O124 2.061 . S
Co123 O129 2.052 . S
Co123 O131 2.135 . S
O124 Co123 2.061 . S
O124 C127 1.235 . S
C125 O128 1.238 . S
C125 O129 1.241 . S
C126 O119 1.247 . S
C126 O120 1.261 . S
C127 O122 1.259 . S
C127 O124 1.235 . S
O128 Co118 2.021 . S
O128 C125 1.238 . S
O129 Co123 2.052 . S
O129 C125 1.241 . S
O130 Co118 2.137 . S
O130 C121 1.247 . S
O131 Co118 2.244 . S
O131 C121 1.272 . S
O131 Co123 2.135 . S
Co132 O133 2.216 . S
Co132 O134 2.091 . S
Co132 O136 2.004 . S
Co132 O142 2.021 . S
Co132 O144 2.137 . S
Co132 O145 2.244 . S
O133 Co132 2.216 . S
O133 C140 1.247 . S
O134 Co132 2.091 . S
O134 C140 1.261 . S
C135 O144 1.247 . S
C135 O145 1.272 . S
O136 Co132 2.004 . S
O136 C141 1.259 . S
Co137 O138 2.061 . S
Co137 O143 2.052 . S
Co137 O145 2.135 . S
O138 Co137 2.061 . S
O138 C141 1.235 . S
C139 O142 1.238 . S
C139 O143 1.241 . S
C140 O133 1.247 . S
C140 O134 1.261 . S
C141 O136 1.259 . S
C141 O138 1.235 . S
O142 Co132 2.021 . S
O142 C139 1.238 . S
O143 Co137 2.052 . S
O143 C139 1.241 . S
O144 Co132 2.137 . S
O144 C135 1.247 . S
O145 Co132 2.244 . S
O145 C135 1.272 . S
O145 Co137 2.135 . S
Co146 O147 2.216 . S
Co146 O148 2.091 . S
Co146 O150 2.004 . S
Co146 O156 2.021 . S
Co146 O158 2.137 . S
Co146 O159 2.244 . S
O147 Co146 2.216 . S
O147 C154 1.247 . S
O148 Co146 2.091 . S
O148 C154 1.261 . S
C149 O158 1.247 . S
C149 O159 1.272 . S
O150 Co146 2.004 . S
O150 C155 1.259 . S
Co151 O152 2.061 . S
Co151 O157 2.052 . S
Co151 O159 2.135 . S
O152 Co151 2.061 . S
O152 C155 1.235 . S
C153 O156 1.238 . S
C153 O157 1.241 . S
C154 O147 1.247 . S
C154 O148 1.261 . S
C155 O150 1.259 . S
C155 O152 1.235 . S
O156 Co146 2.021 . S
O156 C153 1.238 . S
O157 Co151 2.052 . S
O157 C153 1.241 . S
O158 Co146 2.137 . S
O158 C149 1.247 . S
O159 Co146 2.244 . S
O159 C149 1.272 . S
O159 Co151 2.135 . S
Co160 O161 2.216 . S
Co160 O162 2.091 . S
Co160 O164 2.004 . S
Co160 O170 2.021 . S
Co160 O172 2.137 . S
Co160 O173 2.244 . S
O161 Co160 2.216 . S
O161 C168 1.247 . S
O162 Co160 2.091 . S
O162 C168 1.261 . S
C163 O172 1.247 . S
C163 O173 1.272 . S
O164 Co160 2.004 . S
O164 C169 1.259 . S
Co165 O166 2.061 . S
Co165 O171 2.052 . S
Co165 O173 2.135 . S
O166 Co165 2.061 . S
O166 C169 1.235 . S
C167 O170 1.238 . S
C167 O171 1.241 . S
C168 O161 1.247 . S
C168 O162 1.261 . S
C169 O164 1.259 . S
C169 O166 1.235 . S
O170 Co160 2.021 . S
O170 C167 1.238 . S
O171 Co165 2.052 . S
O171 C167 1.241 . S
O172 Co160 2.137 . S
O172 C163 1.247 . S
O173 Co160 2.244 . S
O173 C163 1.272 . S
O173 Co165 2.135 . S
Co174 O175 2.216 . S
Co174 O176 2.091 . S
Co174 O178 2.004 . S
Co174 O184 2.021 . S
Co174 O186 2.137 . S
Co174 O187 2.244 . S
O175 Co174 2.216 . S
O175 C182 1.247 . S
O176 Co174 2.091 . S
O176 C182 1.261 . S
C177 O186 1.247 . S
C177 O187 1.272 . S
O178 Co174 2.004 . S
O178 C183 1.259 . S
Co179 O180 2.061 . S
Co179 O185 2.052 . S
Co179 O187 2.135 1_455 S
O180 Co179 2.061 . S
O180 C183 1.235 1_455 S
C181 O184 1.238 . S
C181 O185 1.241 1_655 S
C182 O175 1.247 . S
C182 O176 1.261 . S
C183 O178 1.259 . S
C183 O180 1.235 1_655 S
O184 Co174 2.021 . S
O184 C181 1.238 . S
O185 Co179 2.052 . S
O185 C181 1.241 1_455 S
O186 Co174 2.137 . S
O186 C177 1.247 . S
O187 Co174 2.244 . S
O187 C177 1.272 . S
O187 Co179 2.135 1_655 S
Co188 O189 2.216 . S
Co188 O190 2.091 . S
Co188 O192 2.004 . S
Co188 O198 2.021 . S
Co188 O200 2.137 1_554 S
Co188 O201 2.244 . S
O189 Co188 2.216 . S
O189 C196 1.247 . S
O190 Co188 2.091 . S
O190 C196 1.261 . S
C191 O200 1.247 . S
C191 O201 1.272 1_556 S
O192 Co188 2.004 . S
O192 C197 1.259 . S
Co193 O194 2.061 . S
Co193 O199 2.052 . S
Co193 O201 2.135 . S
O194 Co193 2.061 . S
O194 C197 1.235 . S
C195 O198 1.238 . S
C195 O199 1.241 . S
C196 O189 1.247 . S
C196 O190 1.261 . S
C197 O192 1.259 . S
C197 O194 1.235 . S
O198 Co188 2.021 . S
O198 C195 1.238 . S
O199 Co193 2.052 . S
O199 C195 1.241 . S
O200 Co188 2.137 1_556 S
O200 C191 1.247 . S
O201 Co188 2.244 . S
O201 C191 1.272 1_554 S
O201 Co193 2.135 . S
Co202 O203 2.216 . S
Co202 O204 2.091 . S
Co202 O206 2.004 . S
Co202 O212 2.021 . S
Co202 O214 2.137 . S
Co202 O215 2.244 . S
O203 Co202 2.216 . S
O203 C210 1.247 . S
O204 Co202 2.091 . S
O204 C210 1.261 . S
C205 O214 1.247 . S
C205 O215 1.272 . S
O206 Co202 2.004 . S
O206 C211 1.259 . S
Co207 O208 2.061 . S
Co207 O213 2.052 . S
Co207 O215 2.135 . S
O208 Co207 2.061 . S
O208 C211 1.235 . S
C209 O212 1.238 . S
C209 O213 1.241 . S
C210 O203 1.247 . S
C210 O204 1.261 . S
C211 O206 1.259 . S
C211 O208 1.235 . S
O212 Co202 2.021 . S
O212 C209 1.238 . S
O213 Co207 2.052 . S
O213 C209 1.241 . S
O214 Co202 2.137 . S
O214 C205 1.247 . S
O215 Co202 2.244 . S
O215 C205 1.272 . S
O215 Co207 2.135 . S
H216 C222 0.930 . S
H217 C225 0.930 1_545 S
H218 C226 0.930 1_545 S
H219 C227 0.930 . S
H220 C230 0.930 . S
H221 C231 0.930 . S
C222 H216 0.930 . S
C222 C223 1.355 . S
C222 C224 1.415 . S
C223 C222 1.355 . S
C223 C225 1.419 . S
C224 C222 1.415 . S
C224 C229 1.425 . S
C224 C231 1.409 . S
C225 H217 0.930 1_565 S
C225 C223 1.419 . S
C225 C226 1.362 . S
C226 H218 0.930 1_565 S
C226 C225 1.362 . S
C226 C229 1.409 . S
C227 H219 0.930 . S
C227 C228 1.355 . S
C227 C229 1.415 . S
C228 C227 1.355 . S
C228 C230 1.419 . S
C229 C224 1.425 . S
C229 C226 1.409 . S
C229 C227 1.415 . S
C230 H220 0.930 . S
C230 C228 1.419 . S
C230 C231 1.362 . S
C231 H221 0.930 . S
C231 C224 1.409 . S
C231 C230 1.362 . S
H232 C238 0.930 . S
H233 C241 0.930 . S
H234 C242 0.930 . S
H235 C243 0.930 . S
H236 C246 0.930 . S
H237 C247 0.930 . S
C238 H232 0.930 . S
C238 C239 1.355 . S
C238 C240 1.415 . S
C239 C238 1.355 . S
C239 C241 1.419 . S
C240 C238 1.415 . S
C240 C245 1.425 . S
C240 C247 1.409 . S
C241 H233 0.930 . S
C241 C239 1.419 . S
C241 C242 1.362 . S
C242 H234 0.930 . S
C242 C241 1.362 . S
C242 C245 1.409 . S
C243 H235 0.930 . S
C243 C244 1.355 . S
C243 C245 1.415 . S
C244 C243 1.355 . S
C244 C246 1.419 . S
C245 C240 1.425 . S
C245 C242 1.409 . S
C245 C243 1.415 . S
C246 H236 0.930 . S
C246 C244 1.419 . S
C246 C247 1.362 . S
C247 H237 0.930 . S
C247 C240 1.409 . S
C247 C246 1.362 . S
H248 C254 0.930 . S
H249 C257 0.930 . S
H250 C258 0.930 . S
H251 C259 0.930 . S
H252 C262 0.930 . S
H253 C263 0.930 . S
C254 H248 0.930 . S
C254 C255 1.355 . S
C254 C256 1.415 . S
C255 C254 1.355 . S
C255 C257 1.419 . S
C256 C254 1.415 . S
C256 C261 1.425 . S
C256 C263 1.409 . S
C257 H249 0.930 . S
C257 C255 1.419 . S
C257 C258 1.362 . S
C258 H250 0.930 . S
C258 C257 1.362 . S
C258 C261 1.409 . S
C259 H251 0.930 . S
C259 C260 1.355 . S
C259 C261 1.415 . S
C260 C259 1.355 . S
C260 C262 1.419 . S
C261 C256 1.425 . S
C261 C258 1.409 . S
C261 C259 1.415 . S
C262 H252 0.930 . S
C262 C260 1.419 . S
C262 C263 1.362 . S
C263 H253 0.930 . S
C263 C256 1.409 . S
C263 C262 1.362 . S
H264 C270 0.930 . S
H265 C273 0.930 . S
H266 C274 0.930 1_565 S
H267 C275 0.930 . S
H268 C278 0.930 . S
H269 C279 0.930 1_545 S
C270 H264 0.930 . S
C270 C271 1.355 . S
C270 C272 1.415 . S
C271 C270 1.355 . S
C271 C273 1.419 . S
C272 C270 1.415 . S
C272 C277 1.425 1_545 S
C272 C279 1.409 1_545 S
C273 H265 0.930 . S
C273 C271 1.419 . S
C273 C274 1.362 . S
C274 H266 0.930 1_545 S
C274 C273 1.362 . S
C274 C277 1.409 1_545 S
C275 H267 0.930 . S
C275 C276 1.355 . S
C275 C277 1.415 . S
C276 C275 1.355 . S
C276 C278 1.419 . S
C277 C272 1.425 1_565 S
C277 C274 1.409 1_565 S
C277 C275 1.415 . S
C278 H268 0.930 . S
C278 C276 1.419 . S
C278 C279 1.362 . S
C279 H269 0.930 1_565 S
C279 C272 1.409 1_565 S
C279 C278 1.362 . S
H280 C286 0.930 . S
H281 C289 0.930 . S
H282 C290 0.930 . S
H283 C291 0.930 . S
H284 C294 0.930 . S
H285 C295 0.930 . S
C286 H280 0.930 . S
C286 C287 1.355 . S
C286 C288 1.415 . S
C287 C286 1.355 . S
C287 C289 1.419 . S
C288 C286 1.415 . S
C288 C293 1.425 . S
C288 C295 1.409 . S
C289 H281 0.930 . S
C289 C287 1.419 . S
C289 C290 1.362 . S
C290 H282 0.930 . S
C290 C289 1.362 . S
C290 C293 1.409 . S
C291 H283 0.930 . S
C291 C292 1.355 . S
C291 C293 1.415 . S
C292 C291 1.355 . S
C292 C294 1.419 . S
C293 C288 1.425 . S
C293 C290 1.409 . S
C293 C291 1.415 . S
C294 H284 0.930 . S
C294 C292 1.419 . S
C294 C295 1.362 . S
C295 H285 0.930 . S
C295 C288 1.409 . S
C295 C294 1.362 . S
H296 C302 0.930 . S
H297 C305 0.930 . S
H298 C306 0.930 . S
H299 C307 0.930 . S
H300 C310 0.930 . S
H301 C311 0.930 . S
C302 H296 0.930 . S
C302 C303 1.355 . S
C302 C304 1.415 . S
C303 C302 1.355 . S
C303 C305 1.419 . S
C304 C302 1.415 . S
C304 C309 1.425 . S
C304 C311 1.409 . S
C305 H297 0.930 . S
C305 C303 1.419 . S
C305 C306 1.362 . S
C306 H298 0.930 . S
C306 C305 1.362 . S
C306 C309 1.409 . S
C307 H299 0.930 . S
C307 C308 1.355 . S
C307 C309 1.415 . S
C308 C307 1.355 . S
C308 C310 1.419 . S
C309 C304 1.425 . S
C309 C306 1.409 . S
C309 C307 1.415 . S
C310 H300 0.930 . S
C310 C308 1.419 . S
C310 C311 1.362 . S
C311 H301 0.930 . S
C311 C304 1.409 . S
C311 C310 1.362 . S
H312 C318 0.930 . S
H313 C321 0.930 . S
H314 C322 0.930 . S
H315 C323 0.930 . S
H316 C326 0.930 . S
H317 C327 0.930 . S
C318 H312 0.930 . S
C318 C319 1.355 . S
C318 C320 1.415 . S
C319 C318 1.355 . S
C319 C321 1.419 . S
C320 C318 1.415 . S
C320 C325 1.425 1_545 S
C320 C327 1.409 . S
C321 H313 0.930 . S
C321 C319 1.419 . S
C321 C322 1.362 1_545 S
C322 H314 0.930 . S
C322 C321 1.362 1_565 S
C322 C325 1.409 . S
C323 H315 0.930 . S
C323 C324 1.355 . S
C323 C325 1.415 . S
C324 C323 1.355 . S
C324 C326 1.419 . S
C325 C320 1.425 1_565 S
C325 C322 1.409 . S
C325 C323 1.415 . S
C326 H316 0.930 . S
C326 C324 1.419 . S
C326 C327 1.362 1_565 S
C327 H317 0.930 . S
C327 C320 1.409 . S
C327 C326 1.362 1_545 S
H328 C334 0.930 . S
H329 C337 0.930 . S
H330 C338 0.930 . S
H331 C339 0.930 . S
H332 C342 0.930 . S
H333 C343 0.930 . S
C334 H328 0.930 . S
C334 C335 1.355 . S
C334 C336 1.415 . S
C335 C334 1.355 . S
C335 C337 1.419 . S
C336 C334 1.415 . S
C336 C341 1.425 . S
C336 C343 1.409 . S
C337 H329 0.930 . S
C337 C335 1.419 . S
C337 C338 1.362 . S
C338 H330 0.930 . S
C338 C337 1.362 . S
C338 C341 1.409 . S
C339 H331 0.930 . S
C339 C340 1.355 . S
C339 C341 1.415 . S
C340 C339 1.355 . S
C340 C342 1.419 . S
C341 C336 1.425 . S
C341 C338 1.409 . S
C341 C339 1.415 . S
C342 H332 0.930 . S
C342 C340 1.419 . S
C342 C343 1.362 . S
C343 H333 0.930 . S
C343 C336 1.409 . S
C343 C342 1.362 . S
H344 C350 0.930 . S
H345 C353 0.930 . S
H346 C354 0.930 . S
H347 C355 0.930 . S
H348 C358 0.930 . S
H349 C359 0.930 . S
C350 H344 0.930 . S
C350 C351 1.355 . S
C350 C352 1.415 . S
C351 C350 1.355 . S
C351 C353 1.419 . S
C352 C350 1.415 . S
C352 C357 1.425 . S
C352 C359 1.409 . S
C353 H345 0.930 . S
C353 C351 1.419 . S
C353 C354 1.362 . S
C354 H346 0.930 . S
C354 C353 1.362 . S
C354 C357 1.409 . S
C355 H347 0.930 . S
C355 C356 1.355 . S
C355 C357 1.415 . S
C356 C355 1.355 . S
C356 C358 1.419 . S
C357 C352 1.425 . S
C357 C354 1.409 . S
C357 C355 1.415 . S
C358 H348 0.930 . S
C358 C356 1.419 . S
C358 C359 1.362 . S
C359 H349 0.930 . S
C359 C352 1.409 . S
C359 C358 1.362 . S
H360 C366 0.930 . S
H361 C369 0.930 . S
H362 C370 0.930 . S
H363 C371 0.930 . S
H364 C374 0.930 . S
H365 C375 0.930 . S
C366 H360 0.930 . S
C366 C367 1.355 . S
C366 C368 1.415 . S
C367 C366 1.355 . S
C367 C369 1.419 . S
C368 C366 1.415 . S
C368 C373 1.425 . S
C368 C375 1.409 . S
C369 H361 0.930 . S
C369 C367 1.419 . S
C369 C370 1.362 . S
C370 H362 0.930 . S
C370 C369 1.362 . S
C370 C373 1.409 . S
C371 H363 0.930 . S
C371 C372 1.355 . S
C371 C373 1.415 . S
C372 C371 1.355 . S
C372 C374 1.419 . S
C373 C368 1.425 . S
C373 C370 1.409 . S
C373 C371 1.415 . S
C374 H364 0.930 . S
C374 C372 1.419 . S
C374 C375 1.362 . S
C375 H365 0.930 . S
C375 C368 1.409 . S
C375 C374 1.362 . S
H376 C382 0.930 . S
H377 C385 0.930 . S
H378 C386 0.930 . S
H379 C387 0.930 . S
H380 C390 0.930 . S
H381 C391 0.930 . S
C382 H376 0.930 . S
C382 C383 1.355 . S
C382 C384 1.415 . S
C383 C382 1.355 . S
C383 C385 1.419 . S
C384 C382 1.415 . S
C384 C389 1.425 . S
C384 C391 1.409 . S
C385 H377 0.930 . S
C385 C383 1.419 . S
C385 C386 1.362 . S
C386 H378 0.930 . S
C386 C385 1.362 . S
C386 C389 1.409 . S
C387 H379 0.930 . S
C387 C388 1.355 . S
C387 C389 1.415 . S
C388 C387 1.355 . S
C388 C390 1.419 . S
C389 C384 1.425 . S
C389 C386 1.409 . S
C389 C387 1.415 . S
C390 H380 0.930 . S
C390 C388 1.419 . S
C390 C391 1.362 . S
C391 H381 0.930 . S
C391 C384 1.409 . S
C391 C390 1.362 . S
H392 C398 0.930 . S
H393 C401 0.930 . S
H394 C402 0.930 . S
H395 C403 0.930 . S
H396 C406 0.930 . S
H397 C407 0.930 . S
C398 H392 0.930 . S
C398 C399 1.355 . S
C398 C400 1.415 . S
C399 C398 1.355 . S
C399 C401 1.419 . S
C400 C398 1.415 . S
C400 C405 1.425 . S
C400 C407 1.409 1_455 S
C401 H393 0.930 . S
C401 C399 1.419 . S
C401 C402 1.362 . S
C402 H394 0.930 . S
C402 C401 1.362 . S
C402 C405 1.409 . S
C403 H395 0.930 . S
C403 C404 1.355 . S
C403 C405 1.415 1_655 S
C404 C403 1.355 . S
C404 C406 1.419 . S
C405 C400 1.425 . S
C405 C402 1.409 . S
C405 C403 1.415 1_455 S
C406 H396 0.930 . S
C406 C404 1.419 . S
C406 C407 1.362 . S
C407 H397 0.930 . S
C407 C400 1.409 1_655 S
C407 C406 1.362 . S
H408 C414 0.930 . S
H409 C417 0.930 . S
H410 C418 0.930 . S
H411 C419 0.930 . S
H412 C422 0.930 . S
H413 C423 0.930 . S
C414 H408 0.930 . S
C414 C415 1.355 . S
C414 C416 1.415 . S
C415 C414 1.355 . S
C415 C417 1.419 . S
C416 C414 1.415 . S
C416 C421 1.425 . S
C416 C423 1.409 . S
C417 H409 0.930 . S
C417 C415 1.419 . S
C417 C418 1.362 . S
C418 H410 0.930 . S
C418 C417 1.362 . S
C418 C421 1.409 . S
C419 H411 0.930 . S
C419 C420 1.355 . S
C419 C421 1.415 . S
C420 C419 1.355 . S
C420 C422 1.419 . S
C421 C416 1.425 . S
C421 C418 1.409 . S
C421 C419 1.415 . S
C422 H412 0.930 . S
C422 C420 1.419 . S
C422 C423 1.362 . S
C423 H413 0.930 . S
C423 C416 1.409 . S
C423 C422 1.362 . S
H424 C430 0.930 . S
H425 C433 0.930 . S
H426 C434 0.930 . S
H427 C435 0.930 . S
H428 C438 0.930 . S
H429 C439 0.930 . S
C430 H424 0.930 . S
C430 C431 1.355 . S
C430 C432 1.415 . S
C431 C430 1.355 . S
C431 C433 1.419 . S
C432 C430 1.415 . S
C432 C437 1.425 . S
C432 C439 1.409 . S
C433 H425 0.930 . S
C433 C431 1.419 . S
C433 C434 1.362 . S
C434 H426 0.930 . S
C434 C433 1.362 . S
C434 C437 1.409 . S
C435 H427 0.930 . S
C435 C436 1.355 . S
C435 C437 1.415 . S
C436 C435 1.355 . S
C436 C438 1.419 . S
C437 C432 1.425 . S
C437 C434 1.409 . S
C437 C435 1.415 . S
C438 H428 0.930 . S
C438 C436 1.419 . S
C438 C439 1.362 . S
C439 H429 0.930 . S
C439 C432 1.409 . S
C439 C438 1.362 . S
H440 C446 0.930 . S
H441 C449 0.930 . S
H442 C450 0.930 . S
H443 C451 0.930 . S
H444 C454 0.932 . S
H445 C455 0.930 . S
C446 H440 0.930 . S
C446 C447 1.355 . S
C446 C448 1.415 . S
C447 C446 1.355 . S
C447 C449 1.419 . S
C448 C446 1.415 . S
C448 C453 1.425 . S
C448 C455 1.409 1_455 S
C449 H441 0.930 . S
C449 C447 1.419 . S
C449 C450 1.362 . S
C450 H442 0.930 . S
C450 C449 1.362 . S
C450 C453 1.409 . S
C451 H443 0.930 . S
C451 C452 1.355 . S
C451 C453 1.415 1_654 S
C452 C451 1.355 . S
C452 C454 1.419 1_554 S
C453 C448 1.425 . S
C453 C450 1.409 . S
C453 C451 1.415 1_456 S
C454 H444 0.932 . S
C454 C452 1.419 1_556 S
C454 C455 1.362 . S
C455 H445 0.930 . S
C455 C448 1.409 1_655 S
C455 C454 1.362 . S
H456 C462 0.930 . S
H457 C465 0.930 . S
H458 C466 0.930 . S
H459 C467 0.930 . S
H460 C470 0.930 . S
H461 C471 0.930 . S
C462 H456 0.930 . S
C462 C463 1.355 . S
C462 C464 1.415 . S
C463 C462 1.355 . S
C463 C465 1.419 . S
C464 C462 1.415 . S
C464 C469 1.425 . S
C464 C471 1.409 . S
C465 H457 0.930 . S
C465 C463 1.419 . S
C465 C466 1.362 . S
C466 H458 0.930 . S
C466 C465 1.362 . S
C466 C469 1.409 . S
C467 H459 0.930 . S
C467 C468 1.355 . S
C467 C469 1.415 . S
C468 C467 1.355 . S
C468 C470 1.419 . S
C469 C464 1.425 . S
C469 C466 1.409 . S
C469 C467 1.415 . S
C470 H460 0.930 . S
C470 C468 1.419 . S
C470 C471 1.362 . S
C471 H461 0.930 . S
C471 C464 1.409 . S
C471 C470 1.362 . S
H472 C478 0.930 . S
H473 C481 0.930 . S
H474 C482 0.930 . S
H475 C483 0.930 . S
H476 C486 0.930 . S
H477 C487 0.930 . S
C478 H472 0.930 . S
C478 C479 1.355 . S
C478 C480 1.415 . S
C479 C478 1.355 . S
C479 C481 1.419 . S
C480 C478 1.415 . S
C480 C485 1.425 . S
C480 C487 1.409 . S
C481 H473 0.930 . S
C481 C479 1.419 . S
C481 C482 1.362 . S
C482 H474 0.930 . S
C482 C481 1.362 . S
C482 C485 1.409 . S
C483 H475 0.930 . S
C483 C484 1.355 . S
C483 C485 1.415 . S
C484 C483 1.355 . S
C484 C486 1.419 . S
C485 C480 1.425 . S
C485 C482 1.409 . S
C485 C483 1.415 . S
C486 H476 0.930 . S
C486 C484 1.419 . S
C486 C487 1.362 . S
C487 H477 0.930 . S
C487 C480 1.409 . S
C487 C486 1.362 . S
H488 C494 0.930 . S
H489 C497 0.930 . S
H490 C498 0.930 . S
H491 C499 0.930 . S
H492 C502 0.930 . S
H493 C503 0.930 . S
C494 H488 0.930 . S
C494 C495 1.355 . S
C494 C496 1.415 . S
C495 C494 1.355 . S
C495 C497 1.419 . S
C496 C494 1.415 . S
C496 C501 1.425 . S
C496 C503 1.409 . S
C497 H489 0.930 . S
C497 C495 1.419 . S
C497 C498 1.362 . S
C498 H490 0.930 . S
C498 C497 1.362 . S
C498 C501 1.409 . S
C499 H491 0.930 . S
C499 C500 1.355 . S
C499 C501 1.415 . S
C500 C499 1.355 . S
C500 C502 1.419 . S
C501 C496 1.425 . S
C501 C498 1.409 . S
C501 C499 1.415 . S
C502 H492 0.930 . S
C502 C500 1.419 . S
C502 C503 1.362 . S
C503 H493 0.930 . S
C503 C496 1.409 . S
C503 C502 1.362 . S
H504 C510 0.930 . S
H505 C513 0.930 . S
H506 C514 0.930 . S
H507 C515 0.930 . S
H508 C518 0.930 . S
H509 C519 0.930 . S
C510 H504 0.930 . S
C510 C511 1.355 . S
C510 C512 1.415 . S
C511 C510 1.355 . S
C511 C513 1.419 . S
C512 C510 1.415 . S
C512 C517 1.425 . S
C512 C519 1.409 . S
C513 H505 0.930 . S
C513 C511 1.419 . S
C513 C514 1.362 . S
C514 H506 0.930 . S
C514 C513 1.362 . S
C514 C517 1.409 . S
C515 H507 0.930 . S
C515 C516 1.355 . S
C515 C517 1.415 . S
C516 C515 1.355 . S
C516 C518 1.419 . S
C517 C512 1.425 . S
C517 C514 1.409 . S
C517 C515 1.415 . S
C518 H508 0.930 . S
C518 C516 1.419 . S
C518 C519 1.362 . S
C519 H509 0.930 . S
C519 C512 1.409 . S
C519 C518 1.362 . S
H520 C526 0.930 . S
H521 C529 0.930 . S
H522 C530 0.930 . S
H523 C531 0.930 . S
H524 C534 0.932 . S
H525 C535 0.930 . S
C526 H520 0.930 . S
C526 C527 1.355 . S
C526 C528 1.415 . S
C527 C526 1.355 . S
C527 C529 1.419 . S
C528 C526 1.415 . S
C528 C533 1.425 . S
C528 C535 1.409 . S
C529 H521 0.930 . S
C529 C527 1.419 . S
C529 C530 1.362 . S
C530 H522 0.930 . S
C530 C529 1.362 . S
C530 C533 1.409 . S
C531 H523 0.930 . S
C531 C532 1.355 . S
C531 C533 1.415 . S
C532 C531 1.355 . S
C532 C534 1.419 1_545 S
C533 C528 1.425 . S
C533 C530 1.409 . S
C533 C531 1.415 . S
C534 H524 0.932 . S
C534 C532 1.419 1_565 S
C534 C535 1.360 1_565 S
C535 H525 0.930 . S
C535 C528 1.409 . S
C535 C534 1.360 1_545 S
H536 C542 0.930 . S
H537 C545 0.930 . S
H538 C546 0.930 . S
H539 C547 0.930 . S
H540 C550 0.930 . S
H541 C551 0.930 . S
C542 H536 0.930 . S
C542 C543 1.355 . S
C542 C544 1.415 . S
C543 C542 1.355 . S
C543 C545 1.419 . S
C544 C542 1.415 . S
C544 C549 1.425 . S
C544 C551 1.409 . S
C545 H537 0.930 . S
C545 C543 1.419 . S
C545 C546 1.362 . S
C546 H538 0.930 . S
C546 C545 1.362 . S
C546 C549 1.409 . S
C547 H539 0.930 . S
C547 C548 1.355 . S
C547 C549 1.415 . S
C548 C547 1.355 . S
C548 C550 1.419 . S
C549 C544 1.425 . S
C549 C546 1.409 . S
C549 C547 1.415 . S
C550 H540 0.930 . S
C550 C548 1.419 . S
C550 C551 1.362 . S
C551 H541 0.930 . S
C551 C544 1.409 . S
C551 C550 1.362 . S
H552 C558 0.930 . S
H553 C561 0.930 . S
H554 C562 0.930 . S
H555 C563 0.930 . S
H556 C566 0.930 . S
H557 C567 0.930 . S
C558 H552 0.930 . S
C558 C559 1.355 . S
C558 C560 1.415 . S
C559 C558 1.355 . S
C559 C561 1.419 . S
C560 C558 1.415 . S
C560 C565 1.425 . S
C560 C567 1.409 . S
C561 H553 0.930 . S
C561 C559 1.419 . S
C561 C562 1.362 . S
C562 H554 0.930 . S
C562 C561 1.362 . S
C562 C565 1.409 . S
C563 H555 0.930 . S
C563 C564 1.355 . S
C563 C565 1.415 . S
C564 C563 1.355 . S
C564 C566 1.419 . S
C565 C560 1.425 . S
C565 C562 1.409 . S
C565 C563 1.415 . S
C566 H556 0.930 . S
C566 C564 1.419 . S
C566 C567 1.362 . S
C567 H557 0.930 . S
C567 C560 1.409 . S
C567 C566 1.362 . S
H568 C574 0.930 . S
H569 C577 0.930 . S
H570 C578 0.930 . S
H571 C579 0.930 . S
H572 C582 0.930 . S
H573 C583 0.930 1_565 S
C574 H568 0.930 . S
C574 C575 1.355 . S
C574 C576 1.415 . S
C575 C574 1.355 . S
C575 C577 1.419 . S
C576 C574 1.415 . S
C576 C581 1.425 . S
C576 C583 1.409 . S
C577 H569 0.930 . S
C577 C575 1.419 . S
C577 C578 1.362 . S
C578 H570 0.930 . S
C578 C577 1.362 . S
C578 C581 1.409 . S
C579 H571 0.930 . S
C579 C580 1.355 1_545 S
C579 C581 1.415 . S
C580 C579 1.355 1_565 S
C580 C582 1.419 . S
C581 C576 1.425 . S
C581 C578 1.409 . S
C581 C579 1.415 . S
C582 H572 0.930 . S
C582 C580 1.419 . S
C582 C583 1.362 1_565 S
C583 H573 0.930 1_545 S
C583 C576 1.409 . S
C583 C582 1.362 1_545 S
H584 C590 0.930 . S
H585 C593 0.930 . S
H586 C594 0.930 . S
H587 C595 0.930 . S
H588 C598 0.930 . S
H589 C599 0.930 . S
C590 H584 0.930 . S
C590 C591 1.355 . S
C590 C592 1.415 . S
C591 C590 1.355 . S
C591 C593 1.419 . S
C592 C590 1.415 . S
C592 C597 1.425 . S
C592 C599 1.409 . S
C593 H585 0.930 . S
C593 C591 1.419 . S
C593 C594 1.362 . S
C594 H586 0.930 . S
C594 C593 1.362 . S
C594 C597 1.409 . S
C595 H587 0.930 . S
C595 C596 1.355 . S
C595 C597 1.415 . S
C596 C595 1.355 . S
C596 C598 1.419 . S
C597 C592 1.425 . S
C597 C594 1.409 . S
C597 C595 1.415 . S
C598 H588 0.930 . S
C598 C596 1.419 . S
C598 C599 1.362 . S
C599 H589 0.930 . S
C599 C592 1.409 . S
C599 C598 1.362 . S
H600 C606 0.930 . S
H601 C609 0.930 . S
H602 C610 0.930 . S
H603 C611 0.930 . S
H604 C614 0.930 . S
H605 C615 0.930 . S
C606 H600 0.930 . S
C606 C607 1.355 . S
C606 C608 1.415 . S
C607 C606 1.355 . S
C607 C609 1.419 . S
C608 C606 1.415 . S
C608 C613 1.425 . S
C608 C615 1.409 . S
C609 H601 0.930 . S
C609 C607 1.419 . S
C609 C610 1.362 . S
C610 H602 0.930 . S
C610 C609 1.362 . S
C610 C613 1.409 . S
C611 H603 0.930 . S
C611 C612 1.355 . S
C611 C613 1.415 . S
C612 C611 1.355 . S
C612 C614 1.419 . S
C613 C608 1.425 . S
C613 C610 1.409 . S
C613 C611 1.415 . S
C614 H604 0.930 . S
C614 C612 1.419 . S
C614 C615 1.362 . S
C615 H605 0.930 . S
C615 C608 1.409 . S
C615 C614 1.362 . S
H616 C622 0.930 . S
H617 C625 0.930 . S
H618 C626 0.930 . S
H619 C627 0.930 . S
H620 C630 0.930 . S
H621 C631 0.930 . S
C622 H616 0.930 . S
C622 C623 1.355 . S
C622 C624 1.415 . S
C623 C622 1.355 . S
C623 C625 1.419 . S
C624 C622 1.415 . S
C624 C629 1.425 . S
C624 C631 1.409 . S
C625 H617 0.930 . S
C625 C623 1.419 . S
C625 C626 1.362 . S
C626 H618 0.930 . S
C626 C625 1.362 . S
C626 C629 1.409 . S
C627 H619 0.930 . S
C627 C628 1.355 . S
C627 C629 1.415 . S
C628 C627 1.355 . S
C628 C630 1.419 . S
C629 C624 1.425 . S
C629 C626 1.409 . S
C629 C627 1.415 . S
C630 H620 0.930 . S
C630 C628 1.419 . S
C630 C631 1.362 . S
C631 H621 0.930 . S
C631 C624 1.409 . S
C631 C630 1.362 . S
H632 C638 0.930 . S
H633 C641 0.930 . S
H634 C642 0.930 . S
H635 C643 0.930 . S
H636 C646 0.930 . S
H637 C647 0.930 . S
C638 H632 0.930 . S
C638 C639 1.355 . S
C638 C640 1.415 . S
C639 C638 1.355 . S
C639 C641 1.419 . S
C640 C638 1.415 . S
C640 C645 1.425 . S
C640 C647 1.409 . S
C641 H633 0.930 . S
C641 C639 1.419 . S
C641 C642 1.362 . S
C642 H634 0.930 . S
C642 C641 1.362 . S
C642 C645 1.409 . S
C643 H635 0.930 . S
C643 C644 1.355 . S
C643 C645 1.415 . S
C644 C643 1.355 . S
C644 C646 1.419 . S
C645 C640 1.425 . S
C645 C642 1.409 . S
C645 C643 1.415 . S
C646 H636 0.930 . S
C646 C644 1.419 . S
C646 C647 1.362 . S
C647 H637 0.930 . S
C647 C640 1.409 . S
C647 C646 1.362 . S
H648 C654 0.930 . S
H649 C657 0.930 . S
H650 C658 0.930 . S
H651 C659 0.930 . S
H652 C662 0.930 . S
H653 C663 0.930 . S
C654 H648 0.930 . S
C654 C655 1.355 . S
C654 C656 1.415 . S
C655 C654 1.355 . S
C655 C657 1.419 . S
C656 C654 1.415 . S
C656 C661 1.425 . S
C656 C663 1.409 . S
C657 H649 0.930 . S
C657 C655 1.419 . S
C657 C658 1.362 . S
C658 H650 0.930 . S
C658 C657 1.362 . S
C658 C661 1.409 . S
C659 H651 0.930 . S
C659 C660 1.355 . S
C659 C661 1.415 1_655 S
C660 C659 1.355 . S
C660 C662 1.419 1_655 S
C661 C656 1.425 . S
C661 C658 1.409 . S
C661 C659 1.415 1_455 S
C662 H652 0.930 . S
C662 C660 1.419 1_455 S
C662 C663 1.362 . S
C663 H653 0.930 . S
C663 C656 1.409 . S
C663 C662 1.362 . S
H664 C670 0.930 . S
H665 C673 0.930 . S
H666 C674 0.930 . S
H667 C675 0.930 . S
H668 C678 0.930 . S
H669 C679 0.930 . S
C670 H664 0.930 . S
C670 C671 1.355 . S
C670 C672 1.415 . S
C671 C670 1.355 . S
C671 C673 1.419 . S
C672 C670 1.415 . S
C672 C677 1.425 . S
C672 C679 1.409 . S
C673 H665 0.930 . S
C673 C671 1.419 . S
C673 C674 1.362 . S
C674 H666 0.930 . S
C674 C673 1.362 . S
C674 C677 1.409 . S
C675 H667 0.930 . S
C675 C676 1.355 . S
C675 C677 1.415 . S
C676 C675 1.355 . S
C676 C678 1.419 . S
C677 C672 1.425 . S
C677 C674 1.409 . S
C677 C675 1.415 . S
C678 H668 0.930 . S
C678 C676 1.419 . S
C678 C679 1.362 . S
C679 H669 0.930 . S
C679 C672 1.409 . S
C679 C678 1.362 . S
H680 C686 0.930 . S
H681 C689 0.930 1_455 S
H682 C690 0.930 . S
H683 C691 0.930 . S
H684 C694 0.930 . S
H685 C695 0.930 . S
C686 H680 0.930 . S
C686 C687 1.355 . S
C686 C688 1.415 . S
C687 C686 1.355 . S
C687 C689 1.419 . S
C688 C686 1.415 . S
C688 C693 1.425 . S
C688 C695 1.409 . S
C689 H681 0.930 1_655 S
C689 C687 1.419 . S
C689 C690 1.362 . S
C690 H682 0.930 . S
C690 C689 1.362 . S
C690 C693 1.409 . S
C691 H683 0.930 . S
C691 C692 1.355 . S
C691 C693 1.415 . S
C692 C691 1.355 . S
C692 C694 1.419 . S
C693 C688 1.425 . S
C693 C690 1.409 . S
C693 C691 1.415 . S
C694 H684 0.930 . S
C694 C692 1.419 . S
C694 C695 1.362 . S
C695 H685 0.930 . S
C695 C688 1.409 . S
C695 C694 1.362 . S
H696 C702 0.930 . S
H697 C705 0.930 . S
H698 C706 0.930 1_655 S
H699 C707 0.927 . S
H700 C710 0.930 . S
H701 C711 0.930 . S
C702 H696 0.930 . S
C702 C703 1.355 . S
C702 C704 1.415 . S
C703 C702 1.355 . S
C703 C705 1.419 . S
C704 C702 1.415 . S
C704 C709 1.425 . S
C704 C711 1.409 . S
C705 H697 0.930 . S
C705 C703 1.419 . S
C705 C706 1.362 . S
C706 H698 0.930 1_455 S
C706 C705 1.362 . S
C706 C709 1.409 . S
C707 H699 0.927 . S
C707 C708 1.356 1_655 S
C707 C709 1.416 1_655 S
C708 C707 1.356 1_455 S
C708 C710 1.419 . S
C709 C704 1.425 . S
C709 C706 1.409 . S
C709 C707 1.416 1_455 S
C710 H700 0.930 . S
C710 C708 1.419 . S
C710 C711 1.362 . S
C711 H701 0.930 . S
C711 C704 1.409 . S
C711 C710 1.362 . S
H712 C718 0.930 . S
H713 C721 0.930 . S
H714 C722 0.930 . S
H715 C723 0.930 . S
H716 C726 0.930 . S
H717 C727 0.930 . S
C718 H712 0.930 . S
C718 C719 1.355 . S
C718 C720 1.415 . S
C719 C718 1.355 . S
C719 C721 1.419 . S
C720 C718 1.415 . S
C720 C725 1.425 . S
C720 C727 1.409 . S
C721 H713 0.930 . S
C721 C719 1.419 . S
C721 C722 1.362 . S
C722 H714 0.930 . S
C722 C721 1.362 . S
C722 C725 1.409 . S
C723 H715 0.930 . S
C723 C724 1.355 . S
C723 C725 1.415 . S
C724 C723 1.355 . S
C724 C726 1.419 . S
C725 C720 1.425 . S
C725 C722 1.409 . S
C725 C723 1.415 . S
C726 H716 0.930 . S
C726 C724 1.419 . S
C726 C727 1.362 . S
C727 H717 0.930 . S
C727 C720 1.409 . S
C727 C726 1.362 . S
C228 C126 1.334 . S
C223 C5 1.301 . S
C244 C140 1.330 . S
C239 C18 1.349 . S
C260 C155 1.304 . S
C255 C31 1.339 . S
C271 C42 1.264 . S
C276 C113 1.269 . S
C287 C57 1.451 . S
C292 C112 1.488 . S
C303 C70 1.485 . S
C308 C127 1.474 . S
C324 C141 1.416 . S
C319 C81 1.508 . S
C340 C154 1.498 . S
C335 C96 1.457 . S
C351 C29 1.486 . S
C356 C182 1.461 . S
C372 C196 1.469 . S
C367 C44 1.427 . S
C383 C3 1.498 . S
C388 C211 1.400 . S
C404 C168 1.490 . S
C399 C16 1.487 . S
C415 C83 1.327 . S
C420 C169 1.254 . S
C431 C94 1.239 . S
C436 C183 1.320 . S
C452 C197 1.332 . S
C447 C55 1.238 . S
C463 C68 1.255 . S
C468 C210 1.349 . S
C484 C135 1.397 . S
C479 C1 1.387 . S
C500 C153 1.357 . S
C495 C14 1.403 . S
C511 C27 1.404 . S
C516 C111 1.331 . S
C527 C49 1.412 . S
C532 C121 1.367 1_545 S
C543 C53 1.675 . S
C548 C149 1.737 . S
C564 C107 1.721 . S
C559 C66 1.644 . S
C580 C125 1.706 . S
C575 C88 1.729 . S
C596 C139 1.690 . S
C591 C92 1.673 . S
C612 C191 1.706 . S
C607 C36 1.714 . S
C628 C209 1.701 . S
C623 C40 1.601 . S
C639 C10 1.723 . S
C644 C163 1.717 . S
C660 C177 1.722 . S
C655 C23 1.728 . S
C676 C205 1.412 . S
C671 C79 1.392 . S
C687 C101 1.373 . S
C692 C167 1.400 . S
C708 C181 1.359 1_455 S
C703 C62 1.385 . S
C724 C195 1.415 . S
C719 C75 1.386 . S
