# Generated by pormake.
# Topology pth, (4,4)-cn, num edge types: 1
# Building blocks:
#     Node 0, Type 0, BuildingBlock: TATPOV_clean_sbu_0, # of connection points: 4
#     Node 1, Type 0, BuildingBlock: TATPOV_clean_sbu_0, # of connection points: 4
#     Node 2, Type 0, BuildingBlock: TATPOV_clean_sbu_0, # of connection points: 4
#     Node 3, Type 1, BuildingBlock: KOZSID_clean_sbu_0, # of connection points: 4
#     Node 4, Type 1, BuildingBlock: KOZSID_clean_sbu_0, # of connection points: 4
#     Node 5, Type 1, BuildingBlock: KOZSID_clean_sbu_0, # of connection points: 4
#     Edge 6, Type (0, 1), BuildingBlock: CIFDUS_clean_linker_0, # of connection points: 2
#     Edge 7, Type (0, 1), BuildingBlock: CIFDUS_clean_linker_0, # of connection points: 2
#     Edge 8, Type (0, 1), BuildingBlock: CIFDUS_clean_linker_0, # of connection points: 2
#     Edge 9, Type (0, 1), BuildingBlock: CIFDUS_clean_linker_0, # of connection points: 2
#     Edge 10, Type (0, 1), BuildingBlock: CIFDUS_clean_linker_0, # of connection points: 2
#     Edge 11, Type (0, 1), BuildingBlock: CIFDUS_clean_linker_0, # of connection points: 2
#     Edge 12, Type (0, 1), BuildingBlock: CIFDUS_clean_linker_0, # of connection points: 2
#     Edge 13, Type (0, 1), BuildingBlock: CIFDUS_clean_linker_0, # of connection points: 2
#     Edge 14, Type (0, 1), BuildingBlock: CIFDUS_clean_linker_0, # of connection points: 2
#     Edge 15, Type (0, 1), BuildingBlock: CIFDUS_clean_linker_0, # of connection points: 2
#     Edge 16, Type (0, 1), BuildingBlock: CIFDUS_clean_linker_0, # of connection points: 2
#     Edge 17, Type (0, 1), BuildingBlock: CIFDUS_clean_linker_0, # of connection points: 2
# Relax obj value: 0.036
# Max RMSD: 0.167
# Mean RMSD: 0.080
data_MOF--net-pth--node1-TATPOV_clean_sbu_0--node2-KOZSID_clean_sbu_0--edge1-CIFDUS_clean_linker_0
_symmetry_space_group_name_H-M    P1
_symmetry_Int_Tables_number       1
_symmetry_cell_setting            triclinic
loop_
_symmetry_equiv_pos_as_xyz
'x, y, z'
_cell_length_a     23.878822
_cell_length_b     23.653246
_cell_length_c     52.547228
_cell_angle_alpha  89.530722
_cell_angle_beta   89.312952
_cell_angle_gamma 121.21492
loop_
_atom_site_label
_atom_site_type_symbol
_atom_site_fract_x
_atom_site_fract_y
_atom_site_fract_z
_atom_type_partial_charge
Zn0 Zn 0.20506 0.06214 0.01336 0.0
Zn1 Zn 0.12509 0.0939 0.03466 0.0
O2 O 0.13529 0.03546 0.06169 0.0
O3 O 0.19921 0.00607 0.04315 0.0
O4 O 0.08123 0.13446 0.05394 0.0
O5 O 0.2797 0.15602 0.00826 0.0
O6 O 0.20341 0.1777 0.01855 0.0
C7 C 0.16404 0.00263 0.06198 0.0
C8 C 0.07878 0.01244 0.98809 0.0
O9 O 0.06415 0.03681 0.00675 0.0
O10 O 0.13514 0.01948 0.98644 0.0
C11 C 0.11043 0.16419 0.07404 0.0
O12 O 0.16175 0.16174 0.0811 0.0
C13 C 0.26074 0.19677 0.01008 0.0
Zn14 Zn 0.18605 0.16594 0.34186 0.0
Zn15 Zn 0.08581 0.13934 0.37053 0.0
O16 O 0.16164 0.16107 0.39532 0.0
O17 O 0.24916 0.20611 0.37023 0.0
O18 O 0.01207 0.12975 0.39305 0.0
O19 O 0.17199 0.22197 0.3173 0.0
O20 O 0.09627 0.21052 0.34461 0.0
C21 C 0.22372 0.19019 0.39233 0.0
C22 C 0.08229 0.02857 0.34199 0.0
O23 O 0.04961 0.0486 0.35418 0.0
O24 O 0.14202 0.06802 0.33619 0.0
C25 C 0.96172 0.12332 0.38225 0.0
O26 O 0.95886 0.12013 0.3573 0.0
C27 C 0.1293 0.23545 0.32405 0.0
Zn28 Zn 0.11938 0.94871 0.72501 0.0
Zn29 Zn 0.08887 0.01614 0.69392 0.0
O30 O 0.14745 0.99401 0.67145 0.0
O31 O 0.17097 0.93666 0.69776 0.0
O32 O 0.05051 0.0538 0.66996 0.0
O33 O 0.0266 0.8782 0.73326 0.0
O34 O 0.00352 0.94337 0.71168 0.0
C35 C 0.17708 0.96307 0.67607 0.0
C36 C 0.17114 0.08647 0.73897 0.0
O37 O 0.14505 0.08994 0.71847 0.0
O38 O 0.16514 0.03209 0.74597 0.0
C39 C 0.01209 0.01591 0.65302 0.0
O40 O 0.00486 0.95732 0.65026 0.0
C41 C 0.98524 0.89219 0.72558 0.0
C42 C 0.15544 0.71149 0.16751 0.0
C43 C 0.21953 0.75988 0.16108 0.0
C44 C 0.25887 0.75246 0.1776 0.0
C45 C 0.21689 0.70033 0.19313 0.0
N46 N 0.15288 0.67365 0.18749 0.0
Co47 Co 0.07536 0.59724 0.20535 0.0
N48 N 0.13335 0.59008 0.23075 0.0
C49 C 0.19889 0.63052 0.23289 0.0
C50 C 0.22451 0.61499 0.25307 0.0
C51 C 0.17235 0.5609 0.26434 0.0
C52 C 0.11787 0.54622 0.25013 0.0
N53 N 0.99827 0.51942 0.2228 0.0
C54 C 0.99652 0.47936 0.2418 0.0
C55 C 0.93313 0.42794 0.24715 0.0
C56 C 0.89332 0.43569 0.23091 0.0
C57 C 0.93457 0.49086 0.21652 0.0
N58 N 0.01743 0.60631 0.18043 0.0
C59 C 0.95133 0.56925 0.17965 0.0
C60 C 0.92498 0.58895 0.16105 0.0
C61 C 0.9773 0.64233 0.14943 0.0
C62 C 0.03274 0.65208 0.16167 0.0
N63 N 0.08364 0.53511 0.18272 0.0
C64 C 0.0925 0.43598 0.15686 0.0
C65 C 0.03349 0.43501 0.1581 0.0
C66 C 0.03029 0.48497 0.1709 0.0
C67 C 0.1477 0.4896 0.16747 0.0
C68 C 0.14225 0.5381 0.18015 0.0
N69 N 0.06685 0.6584 0.22847 0.0
C70 C 0.0008 0.68342 0.25607 0.0
C71 C 0.05705 0.73539 0.26674 0.0
C72 C 0.11785 0.7508 0.25678 0.0
C73 C 0.12158 0.71233 0.23778 0.0
C74 C 0.00681 0.64589 0.23695 0.0
H75 H 0.16951 0.72682 0.23129 0.0
H76 H 0.9623 0.60644 0.22967 0.0
H77 H 0.98376 0.48104 0.17159 0.0
H78 H 0.18587 0.57669 0.18827 0.0
C79 C 0.23563 0.67971 0.21466 0.0
C80 C 0.09875 0.70553 0.15481 0.0
C81 C 0.05384 0.48693 0.25449 0.0
C82 C 0.91541 0.5162 0.19659 0.0
H83 H 0.23619 0.7978 0.14638 0.0
H84 H 0.31164 0.78289 0.17872 0.0
H85 H 0.27529 0.63899 0.25851 0.0
H86 H 0.17441 0.53396 0.2807 0.0
H87 H 0.91731 0.38836 0.26107 0.0
H88 H 0.84075 0.4041 0.22941 0.0
H89 H 0.87378 0.56734 0.15659 0.0
H90 H 0.97498 0.67108 0.13379 0.0
H91 H 0.98938 0.3948 0.15004 0.0
H92 H 0.19509 0.4939 0.1663 0.0
H93 H 0.95256 0.67068 0.26285 0.0
H94 H 0.1628 0.79247 0.2637 0.0
C95 C 0.46291 0.98797 0.56372 0.0
C96 C 0.41025 0.92337 0.56617 0.0
C97 C 0.42002 0.88717 0.54861 0.0
C98 C 0.47729 0.93146 0.53626 0.0
N99 N 0.50583 0.99364 0.54527 0.0
Co100 Co 0.58445 0.07509 0.5304 0.0
N101 N 0.59239 0.02358 0.50189 0.0
C102 C 0.55421 0.9578 0.49814 0.0
C103 C 0.57422 0.9356 0.47807 0.0
C104 C 0.62945 0.99014 0.46872 0.0
C105 C 0.63974 0.04283 0.48364 0.0
N106 N 0.66182 0.15679 0.51516 0.0
C107 C 0.70192 0.16341 0.4954 0.0
C108 C 0.75124 0.22879 0.49138 0.0
C109 C 0.74304 0.26464 0.50969 0.0
C110 C 0.68919 0.21932 0.5237 0.0
N111 N 0.57725 0.12621 0.55915 0.0
C112 C 0.61848 0.1909 0.56412 0.0
C113 C 0.59936 0.21237 0.58476 0.0
C114 C 0.54176 0.15861 0.5931 0.0
C115 C 0.5288 0.10739 0.57687 0.0
N116 N 0.64463 0.05857 0.55071 0.0
C117 C 0.73763 0.0372 0.57479 0.0
C118 C 0.74798 0.10076 0.57197 0.0
C119 C 0.70103 0.11007 0.56033 0.0
C120 C 0.67849 0.98428 0.56614 0.0
C121 C 0.63331 0.99597 0.55418 0.0
N122 N 0.52462 0.09184 0.51023 0.0
C123 C 0.484 0.16331 0.49886 0.0
C124 C 0.4316 0.11213 0.48605 0.0
C125 C 0.42763 0.05114 0.4849 0.0
C126 C 0.47454 0.04229 0.49688 0.0
C127 C 0.52959 0.15223 0.51067 0.0
H128 H 0.46885 0.9947 0.49534 0.0
H129 H 0.56774 0.19298 0.52044 0.0
H130 H 0.71237 0.15976 0.55893 0.0
H131 H 0.59005 0.95357 0.54763 0.0
C132 C 0.50181 0.91758 0.51454 0.0
C133 C 0.46789 0.0432 0.57794 0.0
C134 C 0.69772 0.10893 0.48105 0.0
C135 C 0.66848 0.2322 0.5468 0.0
H136 H 0.36752 0.90437 0.57851 0.0
H137 H 0.38738 0.83548 0.5444 0.0
H138 H 0.55256 0.88531 0.47158 0.0
H139 H 0.65974 0.99034 0.45322 0.0
H140 H 0.79044 0.24806 0.47723 0.0
H141 H 0.77449 0.31695 0.51314 0.0
H142 H 0.62248 0.26212 0.59197 0.0
H143 H 0.51129 0.15786 0.60868 0.0
H144 H 0.79288 0.1438 0.57809 0.0
H145 H 0.66682 0.93375 0.56845 0.0
H146 H 0.48921 0.21148 0.50023 0.0
H147 H 0.38876 0.01044 0.47464 0.0
C148 C 0.69878 0.59787 0.82228 0.0
C149 C 0.74902 0.58791 0.81463 0.0
C150 C 0.75142 0.54678 0.83223 0.0
C151 C 0.70365 0.53473 0.84978 0.0
N152 N 0.67042 0.56544 0.84451 0.0
Co153 Co 0.60206 0.56695 0.86667 0.0
N154 N 0.60722 0.50751 0.89287 0.0
C155 C 0.64445 0.47972 0.89142 0.0
C156 C 0.63374 0.43656 0.91095 0.0
C157 C 0.58665 0.43633 0.92583 0.0
C158 C 0.57193 0.48062 0.91471 0.0
N159 N 0.53528 0.57006 0.8892 0.0
C160 C 0.51065 0.5416 0.91236 0.0
C161 C 0.4685 0.56029 0.92222 0.0
C162 C 0.46506 0.60057 0.9044 0.0
C163 C 0.50572 0.60488 0.88489 0.0
N164 N 0.59558 0.62472 0.84012 0.0
C165 C 0.55476 0.64842 0.84058 0.0
C166 C 0.55934 0.68431 0.81922 0.0
C167 C 0.60608 0.6838 0.80423 0.0
C168 C 0.62786 0.64801 0.81748 0.0
N169 N 0.53187 0.48786 0.84956 0.0
C170 C 0.43149 0.37407 0.82635 0.0
C171 C 0.42301 0.42656 0.83231 0.0
C172 C 0.47339 0.4825 0.84392 0.0
C173 C 0.49114 0.3797 0.83193 0.0
C174 C 0.54027 0.43659 0.84334 0.0
N175 N 0.67198 0.64598 0.88386 0.0
C176 C 0.71581 0.75655 0.89977 0.0
C177 C 0.76928 0.75602 0.90985 0.0
C178 C 0.77368 0.69999 0.90651 0.0
C179 C 0.72489 0.64599 0.89362 0.0
C180 C 0.66831 0.70156 0.88674 0.0
H181 H 0.73085 0.60464 0.89203 0.0
H182 H 0.62905 0.70517 0.87926 0.0
H183 H 0.4637 0.52052 0.84826 0.0
H184 H 0.58458 0.43779 0.84692 0.0
C185 C 0.68897 0.49481 0.87141 0.0
C186 C 0.68066 0.63932 0.80805 0.0
C187 C 0.52341 0.49458 0.9253 0.0
C188 C 0.51522 0.63904 0.86191 0.0
H189 H 0.78163 0.60864 0.79828 0.0
H190 H 0.78466 0.52853 0.83239 0.0
H191 H 0.65676 0.40787 0.91381 0.0
H192 H 0.56533 0.40581 0.94272 0.0
H193 H 0.44218 0.54552 0.94029 0.0
H194 H 0.43584 0.62341 0.90543 0.0
H195 H 0.53255 0.70873 0.8152 0.0
H196 H 0.62288 0.70781 0.78575 0.0
H197 H 0.37735 0.42411 0.82842 0.0
H198 H 0.50028 0.34063 0.82724 0.0
H199 H 0.71089 0.79935 0.90174 0.0
H200 H 0.81401 0.69715 0.91428 0.0
H201 H 0.15435 0.22087 0.11971 0.0
H202 H 0.02671 0.20464 0.0591 0.0
H203 H 0.00765 0.28566 0.07984 0.0
H204 H 0.0337 0.36693 0.11378 0.0
H205 H 0.16016 0.3803 0.17449 0.0
H206 H 0.17376 0.2952 0.15489 0.0
C207 C 0.12192 0.2346 0.11108 0.0
C208 C 0.09246 0.20713 0.08778 0.0
C209 C 0.11163 0.28141 0.12297 0.0
C210 C 0.05007 0.22504 0.07704 0.0
C211 C 0.0394 0.27163 0.08883 0.0
C212 C 0.06355 0.35064 0.12289 0.0
C213 C 0.0968 0.38101 0.14536 0.0
C214 C 0.07086 0.30101 0.11159 0.0
C215 C 0.13542 0.35924 0.15684 0.0
C216 C 0.14286 0.31012 0.14576 0.0
H217 H 0.95336 0.13282 0.43375 0.0
H218 H 0.84914 0.11074 0.36439 0.0
H219 H 0.76031 0.10844 0.38864 0.0
H220 H 0.71039 0.10988 0.42973 0.0
H221 H 0.8125 0.12924 0.4991 0.0
H222 H 0.90447 0.13657 0.47476 0.0
C223 C 0.91123 0.12749 0.42393 0.0
C224 C 0.90792 0.12163 0.39728 0.0
C225 C 0.86009 0.12614 0.43801 0.0
C226 C 0.853 0.11507 0.38489 0.0
C227 C 0.80212 0.11388 0.39872 0.0
C228 C 0.75316 0.11616 0.43935 0.0
C229 C 0.75518 0.11882 0.466 0.0
C230 C 0.80498 0.1191 0.42528 0.0
C231 C 0.81045 0.12714 0.47851 0.0
C232 C 0.86266 0.13097 0.46464 0.0
H233 H 0.88937 0.76421 0.71944 0.0
H234 H 0.93666 0.94239 0.75867 0.0
H235 H 0.84046 0.8802 0.78666 0.0
H236 H 0.75368 0.77251 0.80394 0.0
H237 H 0.69958 0.59527 0.7627 0.0
H238 H 0.78699 0.65952 0.7311 0.0
C239 C 0.87716 0.78936 0.73364 0.0
C240 C 0.91956 0.85726 0.73727 0.0
C241 C 0.82132 0.7534 0.7494 0.0
C242 C 0.90401 0.88998 0.75561 0.0
C243 C 0.84943 0.85444 0.77169 0.0
C244 C 0.75994 0.74842 0.7876 0.0
C245 C 0.72209 0.67936 0.78591 0.0
C246 C 0.80924 0.78577 0.76937 0.0
C247 C 0.72949 0.64845 0.76452 0.0
C248 C 0.77945 0.68506 0.74656 0.0
H249 H 0.17938 0.89748 0.06004 0.0
H250 H 0.11587 0.99789 0.11017 0.0
H251 H 0.0876 0.91305 0.14325 0.0
H252 H 0.08137 0.80981 0.1578 0.0
H253 H 0.14135 0.70886 0.10662 0.0
H254 H 0.16993 0.79407 0.07375 0.0
C255 C 0.15996 0.90132 0.07828 0.0
C256 C 0.1505 0.95437 0.08277 0.0
C257 C 0.14246 0.85178 0.09683 0.0
C258 C 0.12402 0.95776 0.10633 0.0
C259 C 0.10763 0.90916 0.12519 0.0
C260 C 0.10002 0.80654 0.1393 0.0
C261 C 0.1093 0.75367 0.13435 0.0
C262 C 0.11639 0.85579 0.12059 0.0
C263 C 0.13372 0.74931 0.11054 0.0
C264 C 0.15034 0.79807 0.09191 0.0
H265 H 0.19337 0.1022 0.43102 0.0
H266 H 0.34981 0.28715 0.39977 0.0
H267 H 0.42768 0.28213 0.42806 0.0
H268 H 0.45358 0.21802 0.45734 0.0
H269 H 0.29861 0.0294 0.48664 0.0
H270 H 0.21798 0.04244 0.46325 0.0
C271 C 0.24412 0.14232 0.43101 0.0
C272 C 0.26592 0.19513 0.41349 0.0
C273 C 0.28914 0.13753 0.44649 0.0
C274 C 0.33203 0.24616 0.41322 0.0
C275 C 0.37661 0.24302 0.42922 0.0
C276 C 0.40202 0.18034 0.45899 0.0
C277 C 0.38219 0.12255 0.4735 0.0
C278 C 0.35613 0.18778 0.44525 0.0
C279 C 0.31525 0.07381 0.47521 0.0
C280 C 0.26908 0.08142 0.46198 0.0
H281 H 0.23342 0.09421 0.7827 0.0
H282 H 0.20093 0.21336 0.72916 0.0
H283 H 0.27592 0.31291 0.75249 0.0
H284 H 0.35625 0.36658 0.78652 0.0
H285 H 0.38929 0.24633 0.83919 0.0
H286 H 0.30856 0.14654 0.81761 0.0
C287 C 0.24224 0.14182 0.77616 0.0
C288 C 0.21189 0.14629 0.7541 0.0
C289 C 0.2859 0.19869 0.7894 0.0
C290 C 0.22378 0.20847 0.74604 0.0
C291 C 0.26677 0.26545 0.75933 0.0
C292 C 0.34501 0.31841 0.79344 0.0
C293 C 0.37896 0.31375 0.81427 0.0
C294 C 0.29888 0.26122 0.78081 0.0
C295 C 0.36446 0.25115 0.82295 0.0
C296 C 0.31818 0.19412 0.8107 0.0
H297 H 0.93439 0.95208 0.61299 0.0
H298 H 0.99242 0.1181 0.66217 0.0
H299 H 0.91265 0.13905 0.64246 0.0
H300 H 0.82229 0.10639 0.61305 0.0
H301 H 0.76853 0.94401 0.56221 0.0
H302 H 0.84953 0.92457 0.58135 0.0
C303 C 0.93002 0.99321 0.61927 0.0
C304 C 0.96917 0.0332 0.63913 0.0
C305 C 0.88399 0.005 0.60787 0.0
C306 C 0.96307 0.08656 0.64689 0.0
C307 C 0.91715 0.09837 0.63573 0.0
C308 C 0.82877 0.06736 0.60578 0.0
C309 C 0.78837 0.02639 0.58629 0.0
C310 C 0.87674 0.05736 0.61643 0.0
C311 C 0.79736 0.97542 0.57758 0.0
C312 C 0.84431 0.96461 0.58834 0.0
H313 H 0.94926 0.97346 0.98804 0.0
H314 H 0.09758 0.96055 0.94508 0.0
H315 H 0.01526 0.8841 0.91595 0.0
H316 H 0.90048 0.81425 0.90453 0.0
H317 H 0.75095 0.82414 0.94751 0.0
H318 H 0.83452 0.90931 0.97448 0.0
C319 C 0.96366 0.95451 0.97214 0.0
C320 C 0.02939 0.97213 0.96899 0.0
C321 C 0.91588 0.90987 0.95549 0.0
C322 C 0.04726 0.94738 0.94817 0.0
C323 C 0.00023 0.90356 0.93146 0.0
C324 C 0.88631 0.83531 0.91975 0.0
C325 C 0.81985 0.81259 0.92427 0.0
C326 C 0.93431 0.88335 0.93528 0.0
C327 C 0.80199 0.84108 0.94368 0.0
C328 C 0.84966 0.88941 0.95918 0.0
H329 H 0.12525 0.94611 0.35006 0.0
H330 H 0.97357 0.96135 0.31312 0.0
H331 H 0.94467 0.86284 0.28814 0.0
H332 H 0.97737 0.78601 0.27169 0.0
H333 H 0.13001 0.77283 0.30931 0.0
H334 H 0.14336 0.85643 0.33944 0.0
C335 C 0.08448 0.92637 0.33711 0.0
C336 C 0.05175 0.96047 0.33314 0.0
C337 C 0.06927 0.87098 0.32267 0.0
C338 C 0.99898 0.93514 0.31646 0.0
C339 C 0.98307 0.87942 0.30202 0.0
C340 C 0.01219 0.80019 0.28692 0.0
C341 C 0.05403 0.77488 0.28785 0.0
C342 C 0.02 0.84884 0.30415 0.0
C343 C 0.09866 0.79322 0.30778 0.0
C344 C 0.10621 0.84081 0.32506 0.0
H345 H 0.22599 0.03648 0.63191 0.0
H346 H 0.23854 0.89361 0.67941 0.0
H347 H 0.33049 0.90757 0.65387 0.0
H348 H 0.41192 0.96476 0.61964 0.0
H349 H 0.39787 0.10305 0.57041 0.0
H350 H 0.30328 0.08802 0.59535 0.0
C351 C 0.24812 0.0076 0.6364 0.0
C352 C 0.22542 0.96439 0.6577 0.0
C353 C 0.30162 0.01602 0.62162 0.0
C354 C 0.25499 0.92751 0.66324 0.0
C355 C 0.30795 0.93565 0.64872 0.0
C356 C 0.38753 0.99096 0.6143 0.0
C357 C 0.41103 0.03443 0.59325 0.0
C358 C 0.33242 0.98059 0.62821 0.0
C359 C 0.38013 0.06918 0.58661 0.0
C360 C 0.32601 0.06031 0.60075 0.0
H361 H 0.38647 0.2963 0.01746 0.0
H362 H 0.21752 0.23679 0.97119 0.0
H363 H 0.2833 0.32798 0.94127 0.0
H364 H 0.39188 0.41439 0.92542 0.0
H365 H 0.55876 0.48416 0.97375 0.0
H366 H 0.49093 0.39958 0.006 0.0
C367 C 0.36406 0.3047 0.00117 0.0
C368 C 0.29778 0.26015 0.99626 0.0
C369 C 0.40186 0.35819 0.98434 0.0
C370 C 0.2686 0.27105 0.97527 0.0
C371 C 0.3062 0.32276 0.95808 0.0
C372 C 0.41289 0.41215 0.94332 0.0
C373 C 0.48037 0.4535 0.94697 0.0
C374 C 0.37329 0.36519 0.962 0.0
C375 C 0.50704 0.45126 0.97038 0.0
C376 C 0.46837 0.40304 0.98875 0.0
H377 H 0.05401 0.28843 0.33484 0.0
H378 H 0.175 0.27715 0.27571 0.0
H379 H 0.15502 0.34746 0.24796 0.0
H380 H 0.10858 0.41719 0.24119 0.0
H381 H 0.99461 0.4364 0.30082 0.0
H382 H 0.00485 0.3566 0.32753 0.0
C383 C 0.07584 0.30126 0.31587 0.0
C384 C 0.11639 0.27802 0.30747 0.0
C385 C 0.06485 0.34255 0.30004 0.0
C386 C 0.14418 0.29492 0.28279 0.0
C387 C 0.13258 0.33489 0.26682 0.0
C388 C 0.08519 0.40282 0.25991 0.0
C389 C 0.05043 0.43149 0.26911 0.0
C390 C 0.09365 0.35948 0.27535 0.0
C391 C 0.02077 0.41377 0.29339 0.0
C392 C 0.02724 0.36886 0.30867 0.0
loop_
_geom_bond_atom_site_label_1
_geom_bond_atom_site_label_2
_geom_bond_distance
_geom_bond_site_symmetry_2
_ccdc_geom_bond_type
Zn0 O3 2.031 1_545 S
Zn0 O5 2.049 1_554 S
Zn0 O10 2.067 1_554 S
Zn1 O2 1.962 . S
Zn1 O4 1.986 . S
Zn1 O6 1.996 . S
Zn1 O9 1.943 . S
O2 Zn1 1.962 . S
O2 C7 1.257 . S
O3 Zn0 2.031 1_565 S
O3 C7 1.268 1_565 S
O4 Zn1 1.986 . S
O4 C11 1.262 . S
O5 Zn0 2.049 1_556 S
O5 C13 1.261 1_556 S
O6 Zn1 1.996 . S
O6 C13 1.255 . S
C7 O2 1.257 . S
C7 O3 1.268 1_545 S
C8 O9 1.249 . S
C8 O10 1.270 1_554 S
O9 Zn1 1.943 . S
O9 C8 1.249 . S
O10 Zn0 2.067 1_556 S
O10 C8 1.270 1_556 S
C11 O4 1.262 . S
C11 O12 1.232 . S
O12 C11 1.232 . S
C13 O5 1.261 1_554 S
C13 O6 1.255 . S
Zn14 O17 2.031 . S
Zn14 O19 2.049 . S
Zn14 O24 2.067 . S
Zn15 O16 1.962 . S
Zn15 O18 1.986 1_455 S
Zn15 O20 1.996 . S
Zn15 O23 1.943 . S
O16 Zn15 1.962 . S
O16 C21 1.254 . S
O17 Zn14 2.031 . S
O17 C21 1.269 . S
O18 Zn15 1.986 1_655 S
O18 C25 1.262 . S
O19 Zn14 2.049 . S
O19 C27 1.260 . S
O20 Zn15 1.996 . S
O20 C27 1.257 . S
C21 O16 1.254 . S
C21 O17 1.269 . S
C22 O23 1.249 . S
C22 O24 1.270 . S
O23 Zn15 1.943 . S
O23 C22 1.249 . S
O24 Zn14 2.067 . S
O24 C22 1.270 . S
C25 O18 1.262 . S
C25 O26 1.232 . S
O26 C25 1.232 . S
C27 O19 1.260 . S
C27 O20 1.257 . S
Zn28 O31 2.031 1_565 S
Zn28 O33 2.049 . S
Zn28 O38 2.067 1_565 S
Zn29 O30 1.962 . S
Zn29 O32 1.986 1_455 S
Zn29 O34 1.996 1_545 S
Zn29 O37 1.943 . S
O30 Zn29 1.962 . S
O30 C35 1.254 . S
O31 Zn28 2.031 1_545 S
O31 C35 1.269 . S
O32 Zn29 1.986 1_655 S
O32 C39 1.262 1_655 S
O33 Zn28 2.049 . S
O33 C41 1.260 . S
O34 Zn29 1.996 1_565 S
O34 C41 1.257 . S
C35 O30 1.254 . S
C35 O31 1.269 . S
C36 O37 1.249 . S
C36 O38 1.270 . S
O37 Zn29 1.943 . S
O37 C36 1.249 . S
O38 Zn28 2.067 1_545 S
O38 C36 1.270 . S
C39 O32 1.262 1_455 S
C39 O40 1.232 . S
O40 C39 1.232 . S
C41 O33 1.260 . S
C41 O34 1.257 . S
C42 C43 1.443 . S
C42 N46 1.376 . S
C42 C80 1.389 . S
C43 C42 1.443 . S
C43 C44 1.340 . S
C43 H83 0.951 . S
C44 C43 1.340 . S
C44 C45 1.439 . S
C44 H84 0.950 . S
C45 C44 1.439 . S
C45 N46 1.374 . S
C45 C79 1.395 . S
N46 C42 1.376 . S
N46 C45 1.374 . S
N46 Co47 2.008 . S
Co47 N46 2.008 . S
Co47 N48 1.995 . S
Co47 N53 2.008 1_455 S
Co47 N58 1.995 . S
Co47 N63 2.282 . S
Co47 N69 2.282 . S
N48 Co47 1.995 . S
N48 C49 1.376 . S
N48 C52 1.383 . S
C49 N48 1.376 . S
C49 C50 1.446 . S
C49 C79 1.391 . S
C50 C49 1.446 . S
C50 C51 1.339 . S
C50 H85 0.949 . S
C51 C50 1.339 . S
C51 C52 1.439 . S
C51 H86 0.950 . S
C52 N48 1.383 . S
C52 C51 1.439 . S
C52 C81 1.392 . S
N53 Co47 2.008 1_655 S
N53 C54 1.376 1_655 S
N53 C57 1.374 . S
C54 N53 1.376 1_455 S
C54 C55 1.443 1_455 S
C54 C81 1.389 . S
C55 C54 1.443 1_655 S
C55 C56 1.340 . S
C55 H87 0.951 . S
C56 C55 1.340 . S
C56 C57 1.439 . S
C56 H88 0.950 . S
C57 N53 1.374 . S
C57 C56 1.439 . S
C57 C82 1.395 . S
N58 Co47 1.995 . S
N58 C59 1.376 1_455 S
N58 C62 1.383 . S
C59 N58 1.376 1_655 S
C59 C60 1.446 . S
C59 C82 1.391 . S
C60 C59 1.446 . S
C60 C61 1.339 . S
C60 H89 0.949 . S
C61 C60 1.339 . S
C61 C62 1.439 1_655 S
C61 H90 0.950 . S
C62 N58 1.383 . S
C62 C61 1.439 1_455 S
C62 C80 1.392 . S
N63 Co47 2.282 . S
N63 C66 1.332 . S
N63 C68 1.332 . S
C64 C65 1.386 . S
C64 C67 1.388 . S
C65 C64 1.386 . S
C65 C66 1.382 . S
C65 H91 0.950 1_455 S
C66 N63 1.332 . S
C66 C65 1.382 . S
C66 H77 0.952 1_455 S
C67 C64 1.388 . S
C67 C68 1.382 . S
C67 H92 0.950 . S
C68 N63 1.332 . S
C68 C67 1.382 . S
C68 H78 0.948 . S
N69 Co47 2.282 . S
N69 C73 1.332 . S
N69 C74 1.332 . S
C70 C71 1.388 . S
C70 C74 1.382 . S
C70 H93 0.950 1_455 S
C71 C70 1.388 . S
C71 C72 1.386 . S
C72 C71 1.386 . S
C72 C73 1.382 . S
C72 H94 0.950 . S
C73 N69 1.332 . S
C73 C72 1.382 . S
C73 H75 0.952 . S
C74 N69 1.332 . S
C74 C70 1.382 . S
C74 H76 0.948 1_455 S
H75 C73 0.952 . S
H76 C74 0.948 1_655 S
H77 C66 0.952 1_655 S
H78 C68 0.948 . S
C79 C45 1.395 . S
C79 C49 1.391 . S
C80 C42 1.389 . S
C80 C62 1.392 . S
C81 C52 1.392 . S
C81 C54 1.389 . S
C82 C57 1.395 . S
C82 C59 1.391 . S
H83 C43 0.951 . S
H84 C44 0.950 . S
H85 C50 0.949 . S
H86 C51 0.950 . S
H87 C55 0.951 . S
H88 C56 0.950 . S
H89 C60 0.949 . S
H90 C61 0.950 . S
H91 C65 0.950 1_655 S
H92 C67 0.950 . S
H93 C70 0.950 1_655 S
H94 C72 0.950 . S
C95 C96 1.443 1_545 S
C95 N99 1.376 . S
C95 C133 1.389 . S
C96 C95 1.443 1_565 S
C96 C97 1.340 . S
C96 H136 0.951 . S
C97 C96 1.340 . S
C97 C98 1.439 . S
C97 H137 0.950 . S
C98 C97 1.439 . S
C98 N99 1.374 1_565 S
C98 C132 1.395 . S
N99 C95 1.376 . S
N99 C98 1.374 1_545 S
N99 Co100 2.008 . S
Co100 N99 2.008 . S
Co100 N101 1.995 . S
Co100 N106 2.008 . S
Co100 N111 1.995 . S
Co100 N116 2.282 . S
Co100 N122 2.282 . S
N101 Co100 1.995 . S
N101 C102 1.376 1_545 S
N101 C105 1.383 . S
C102 N101 1.376 1_565 S
C102 C103 1.446 . S
C102 C132 1.391 . S
C103 C102 1.446 . S
C103 C104 1.339 . S
C103 H138 0.949 . S
C104 C103 1.339 . S
C104 C105 1.439 1_565 S
C104 H139 0.950 . S
C105 N101 1.383 . S
C105 C104 1.439 1_545 S
C105 C134 1.392 . S
N106 Co100 2.008 . S
N106 C107 1.376 . S
N106 C110 1.374 . S
C107 N106 1.376 . S
C107 C108 1.443 . S
C107 C134 1.389 . S
C108 C107 1.443 . S
C108 C109 1.340 . S
C108 H140 0.951 . S
C109 C108 1.340 . S
C109 C110 1.439 . S
C109 H141 0.950 . S
C110 N106 1.374 . S
C110 C109 1.439 . S
C110 C135 1.395 . S
N111 Co100 1.995 . S
N111 C112 1.376 . S
N111 C115 1.383 . S
C112 N111 1.376 . S
C112 C113 1.446 . S
C112 C135 1.391 . S
C113 C112 1.446 . S
C113 C114 1.339 . S
C113 H142 0.949 . S
C114 C113 1.339 . S
C114 C115 1.439 . S
C114 H143 0.950 . S
C115 N111 1.383 . S
C115 C114 1.439 . S
C115 C133 1.392 . S
N116 Co100 2.282 . S
N116 C119 1.332 . S
N116 C121 1.332 . S
C117 C118 1.386 . S
C117 C120 1.388 . S
C118 C117 1.386 . S
C118 C119 1.382 . S
C118 H144 0.950 . S
C119 N116 1.332 . S
C119 C118 1.382 . S
C119 H130 0.952 . S
C120 C117 1.388 . S
C120 C121 1.382 . S
C120 H145 0.950 1_545 S
C121 N116 1.332 . S
C121 C120 1.382 . S
C121 H131 0.948 1_545 S
N122 Co100 2.282 . S
N122 C126 1.332 . S
N122 C127 1.332 . S
C123 C124 1.388 . S
C123 C127 1.382 . S
C123 H146 0.950 . S
C124 C123 1.388 . S
C124 C125 1.386 . S
C125 C124 1.386 . S
C125 C126 1.382 . S
C125 H147 0.950 . S
C126 N122 1.332 . S
C126 C125 1.382 . S
C126 H128 0.952 . S
C127 N122 1.332 . S
C127 C123 1.382 . S
C127 H129 0.948 . S
H128 C126 0.952 . S
H129 C127 0.948 . S
H130 C119 0.952 . S
H131 C121 0.948 1_565 S
C132 C98 1.395 . S
C132 C102 1.391 . S
C133 C95 1.389 . S
C133 C115 1.392 . S
C134 C105 1.392 . S
C134 C107 1.389 . S
C135 C110 1.395 . S
C135 C112 1.391 . S
H136 C96 0.951 . S
H137 C97 0.950 . S
H138 C103 0.949 . S
H139 C104 0.950 . S
H140 C108 0.951 . S
H141 C109 0.950 . S
H142 C113 0.949 . S
H143 C114 0.950 . S
H144 C118 0.950 . S
H145 C120 0.950 1_565 S
H146 C123 0.950 . S
H147 C125 0.950 . S
C148 C149 1.443 . S
C148 N152 1.376 . S
C148 C186 1.389 . S
C149 C148 1.443 . S
C149 C150 1.340 . S
C149 H189 0.951 . S
C150 C149 1.340 . S
C150 C151 1.439 . S
C150 H190 0.950 . S
C151 C150 1.439 . S
C151 N152 1.374 . S
C151 C185 1.395 . S
N152 C148 1.376 . S
N152 C151 1.374 . S
N152 Co153 2.008 . S
Co153 N152 2.008 . S
Co153 N154 1.995 . S
Co153 N159 2.008 . S
Co153 N164 1.995 . S
Co153 N169 2.282 . S
Co153 N175 2.282 . S
N154 Co153 1.995 . S
N154 C155 1.376 . S
N154 C158 1.383 . S
C155 N154 1.376 . S
C155 C156 1.446 . S
C155 C185 1.391 . S
C156 C155 1.446 . S
C156 C157 1.339 . S
C156 H191 0.949 . S
C157 C156 1.339 . S
C157 C158 1.439 . S
C157 H192 0.950 . S
C158 N154 1.383 . S
C158 C157 1.439 . S
C158 C187 1.392 . S
N159 Co153 2.008 . S
N159 C160 1.376 . S
N159 C163 1.374 . S
C160 N159 1.376 . S
C160 C161 1.443 . S
C160 C187 1.389 . S
C161 C160 1.443 . S
C161 C162 1.340 . S
C161 H193 0.951 . S
C162 C161 1.340 . S
C162 C163 1.439 . S
C162 H194 0.950 . S
C163 N159 1.374 . S
C163 C162 1.439 . S
C163 C188 1.395 . S
N164 Co153 1.995 . S
N164 C165 1.376 . S
N164 C168 1.383 . S
C165 N164 1.376 . S
C165 C166 1.446 . S
C165 C188 1.391 . S
C166 C165 1.446 . S
C166 C167 1.339 . S
C166 H195 0.949 . S
C167 C166 1.339 . S
C167 C168 1.439 . S
C167 H196 0.950 . S
C168 N164 1.383 . S
C168 C167 1.439 . S
C168 C186 1.392 . S
N169 Co153 2.282 . S
N169 C172 1.332 . S
N169 C174 1.332 . S
C170 C171 1.386 . S
C170 C173 1.388 . S
C171 C170 1.386 . S
C171 C172 1.382 . S
C171 H197 0.950 . S
C172 N169 1.332 . S
C172 C171 1.382 . S
C172 H183 0.952 . S
C173 C170 1.388 . S
C173 C174 1.382 . S
C173 H198 0.950 . S
C174 N169 1.332 . S
C174 C173 1.382 . S
C174 H184 0.948 . S
N175 Co153 2.282 . S
N175 C179 1.332 . S
N175 C180 1.332 . S
C176 C177 1.388 . S
C176 C180 1.382 . S
C176 H199 0.950 . S
C177 C176 1.388 . S
C177 C178 1.386 . S
C178 C177 1.386 . S
C178 C179 1.382 . S
C178 H200 0.950 . S
C179 N175 1.332 . S
C179 C178 1.382 . S
C179 H181 0.952 . S
C180 N175 1.332 . S
C180 C176 1.382 . S
C180 H182 0.948 . S
H181 C179 0.952 . S
H182 C180 0.948 . S
H183 C172 0.952 . S
H184 C174 0.948 . S
C185 C151 1.395 . S
C185 C155 1.391 . S
C186 C148 1.389 . S
C186 C168 1.392 . S
C187 C158 1.392 . S
C187 C160 1.389 . S
C188 C163 1.395 . S
C188 C165 1.391 . S
H189 C149 0.951 . S
H190 C150 0.950 . S
H191 C156 0.949 . S
H192 C157 0.950 . S
H193 C161 0.951 . S
H194 C162 0.950 . S
H195 C166 0.949 . S
H196 C167 0.950 . S
H197 C171 0.950 . S
H198 C173 0.950 . S
H199 C176 0.950 . S
H200 C178 0.950 . S
H201 C207 0.930 . S
H202 C210 0.930 . S
H203 C211 0.930 . S
H204 C212 0.930 . S
H205 C215 0.930 . S
H206 C216 0.930 . S
C207 H201 0.930 . S
C207 C208 1.355 . S
C207 C209 1.415 . S
C208 C207 1.355 . S
C208 C210 1.419 . S
C209 C207 1.415 . S
C209 C214 1.425 . S
C209 C216 1.409 . S
C210 H202 0.930 . S
C210 C208 1.419 . S
C210 C211 1.362 . S
C211 H203 0.930 . S
C211 C210 1.362 . S
C211 C214 1.409 . S
C212 H204 0.930 . S
C212 C213 1.355 . S
C212 C214 1.415 . S
C213 C212 1.355 . S
C213 C215 1.419 . S
C214 C209 1.425 . S
C214 C211 1.409 . S
C214 C212 1.415 . S
C215 H205 0.930 . S
C215 C213 1.419 . S
C215 C216 1.362 . S
C216 H206 0.930 . S
C216 C209 1.409 . S
C216 C215 1.362 . S
H217 C223 0.930 . S
H218 C226 0.930 1_565 S
H219 C227 0.930 1_565 S
H220 C228 0.930 . S
H221 C231 0.930 . S
H222 C232 0.930 . S
C223 H217 0.930 . S
C223 C224 1.355 . S
C223 C225 1.415 . S
C224 C223 1.355 . S
C224 C226 1.419 . S
C225 C223 1.415 . S
C225 C230 1.425 . S
C225 C232 1.409 . S
C226 H218 0.930 1_545 S
C226 C224 1.419 . S
C226 C227 1.362 . S
C227 H219 0.930 1_545 S
C227 C226 1.362 . S
C227 C230 1.409 . S
C228 H220 0.930 . S
C228 C229 1.355 . S
C228 C230 1.415 . S
C229 C228 1.355 . S
C229 C231 1.419 . S
C230 C225 1.425 . S
C230 C227 1.409 . S
C230 C228 1.415 . S
C231 H221 0.930 . S
C231 C229 1.419 . S
C231 C232 1.362 . S
C232 H222 0.930 . S
C232 C225 1.409 . S
C232 C231 1.362 . S
H233 C239 0.930 . S
H234 C242 0.930 . S
H235 C243 0.930 . S
H236 C244 0.930 . S
H237 C247 0.930 . S
H238 C248 0.930 . S
C239 H233 0.930 . S
C239 C240 1.355 . S
C239 C241 1.415 . S
C240 C239 1.355 . S
C240 C242 1.419 . S
C241 C239 1.415 . S
C241 C246 1.425 . S
C241 C248 1.409 . S
C242 H234 0.930 . S
C242 C240 1.419 . S
C242 C243 1.362 . S
C243 H235 0.930 . S
C243 C242 1.362 . S
C243 C246 1.409 . S
C244 H236 0.930 . S
C244 C245 1.355 . S
C244 C246 1.415 . S
C245 C244 1.355 . S
C245 C247 1.419 . S
C246 C241 1.425 . S
C246 C243 1.409 . S
C246 C244 1.415 . S
C247 H237 0.930 . S
C247 C245 1.419 . S
C247 C248 1.362 . S
C248 H238 0.930 . S
C248 C241 1.409 . S
C248 C247 1.362 . S
H249 C255 0.930 . S
H250 C258 0.930 . S
H251 C259 0.930 1_655 S
H252 C260 0.930 . S
H253 C263 0.930 . S
H254 C264 0.930 . S
C255 H249 0.930 . S
C255 C256 1.355 . S
C255 C257 1.415 . S
C256 C255 1.355 . S
C256 C258 1.419 . S
C257 C255 1.415 . S
C257 C262 1.425 . S
C257 C264 1.409 . S
C258 H250 0.930 . S
C258 C256 1.419 . S
C258 C259 1.362 . S
C259 H251 0.930 1_455 S
C259 C258 1.362 . S
C259 C262 1.409 . S
C260 H252 0.930 . S
C260 C261 1.355 . S
C260 C262 1.415 . S
C261 C260 1.355 . S
C261 C263 1.419 . S
C262 C257 1.425 . S
C262 C259 1.409 . S
C262 C260 1.415 . S
C263 H253 0.930 . S
C263 C261 1.419 . S
C263 C264 1.362 . S
C264 H254 0.930 . S
C264 C257 1.409 . S
C264 C263 1.362 . S
H265 C271 0.930 . S
H266 C274 0.930 . S
H267 C275 0.930 . S
H268 C276 0.930 . S
H269 C279 0.930 . S
H270 C280 0.930 . S
C271 H265 0.930 . S
C271 C272 1.355 . S
C271 C273 1.415 . S
C272 C271 1.355 . S
C272 C274 1.419 . S
C273 C271 1.415 . S
C273 C278 1.425 . S
C273 C280 1.409 . S
C274 H266 0.930 . S
C274 C272 1.419 . S
C274 C275 1.362 . S
C275 H267 0.930 . S
C275 C274 1.362 . S
C275 C278 1.409 . S
C276 H268 0.930 . S
C276 C277 1.355 . S
C276 C278 1.415 . S
C277 C276 1.355 . S
C277 C279 1.419 . S
C278 C273 1.425 . S
C278 C275 1.409 . S
C278 C276 1.415 . S
C279 H269 0.930 . S
C279 C277 1.419 . S
C279 C280 1.362 . S
C280 H270 0.930 . S
C280 C273 1.409 . S
C280 C279 1.362 . S
H281 C287 0.930 . S
H282 C290 0.930 . S
H283 C291 0.930 . S
H284 C292 0.930 . S
H285 C295 0.930 . S
H286 C296 0.930 . S
C287 H281 0.930 . S
C287 C288 1.355 . S
C287 C289 1.415 . S
C288 C287 1.355 . S
C288 C290 1.419 . S
C289 C287 1.415 . S
C289 C294 1.425 . S
C289 C296 1.409 . S
C290 H282 0.930 . S
C290 C288 1.419 . S
C290 C291 1.362 . S
C291 H283 0.930 . S
C291 C290 1.362 . S
C291 C294 1.409 . S
C292 H284 0.930 . S
C292 C293 1.355 . S
C292 C294 1.415 . S
C293 C292 1.355 . S
C293 C295 1.419 . S
C294 C289 1.425 . S
C294 C291 1.409 . S
C294 C292 1.415 . S
C295 H285 0.930 . S
C295 C293 1.419 . S
C295 C296 1.362 . S
C296 H286 0.930 . S
C296 C289 1.409 . S
C296 C295 1.362 . S
H297 C303 0.930 . S
H298 C306 0.930 . S
H299 C307 0.929 1_565 S
H300 C308 0.930 . S
H301 C311 0.930 . S
H302 C312 0.930 . S
C303 H297 0.930 . S
C303 C304 1.355 . S
C303 C305 1.415 . S
C304 C303 1.355 . S
C304 C306 1.419 . S
C305 C303 1.415 . S
C305 C310 1.425 . S
C305 C312 1.409 . S
C306 H298 0.930 . S
C306 C304 1.419 . S
C306 C307 1.362 . S
C307 H299 0.929 1_545 S
C307 C306 1.362 . S
C307 C310 1.409 . S
C308 H300 0.930 . S
C308 C309 1.355 . S
C308 C310 1.415 . S
C309 C308 1.355 . S
C309 C311 1.419 . S
C310 C305 1.425 . S
C310 C307 1.409 . S
C310 C308 1.415 . S
C311 H301 0.930 . S
C311 C309 1.419 . S
C311 C312 1.362 . S
C312 H302 0.930 . S
C312 C305 1.409 . S
C312 C311 1.362 . S
H313 C319 0.930 . S
H314 C322 0.925 1_554 S
H315 C323 0.930 . S
H316 C324 0.930 . S
H317 C327 0.930 . S
H318 C328 0.930 . S
C319 H313 0.930 . S
C319 C320 1.355 1_655 S
C319 C321 1.415 . S
C320 C319 1.355 1_455 S
C320 C322 1.419 . S
C321 C319 1.415 . S
C321 C326 1.425 . S
C321 C328 1.409 . S
C322 H314 0.925 1_556 S
C322 C320 1.419 . S
C322 C323 1.362 . S
C323 H315 0.930 . S
C323 C322 1.362 . S
C323 C326 1.409 1_455 S
C324 H316 0.930 . S
C324 C325 1.355 . S
C324 C326 1.415 . S
C325 C324 1.355 . S
C325 C327 1.419 . S
C326 C321 1.425 . S
C326 C323 1.409 1_655 S
C326 C324 1.415 . S
C327 H317 0.930 . S
C327 C325 1.419 . S
C327 C328 1.362 . S
C328 H318 0.930 . S
C328 C321 1.409 . S
C328 C327 1.362 . S
H329 C335 0.930 . S
H330 C338 0.930 . S
H331 C339 0.930 . S
H332 C340 0.930 1_655 S
H333 C343 0.930 . S
H334 C344 0.930 . S
C335 H329 0.930 . S
C335 C336 1.355 . S
C335 C337 1.415 . S
C336 C335 1.355 . S
C336 C338 1.419 1_455 S
C337 C335 1.415 . S
C337 C342 1.425 . S
C337 C344 1.409 . S
C338 H330 0.930 . S
C338 C336 1.419 1_655 S
C338 C339 1.362 . S
C339 H331 0.930 . S
C339 C338 1.362 . S
C339 C342 1.409 1_655 S
C340 H332 0.930 1_455 S
C340 C341 1.355 . S
C340 C342 1.415 . S
C341 C340 1.355 . S
C341 C343 1.419 . S
C342 C337 1.425 . S
C342 C339 1.409 1_455 S
C342 C340 1.415 . S
C343 H333 0.930 . S
C343 C341 1.419 . S
C343 C344 1.362 . S
C344 H334 0.930 . S
C344 C337 1.409 . S
C344 C343 1.362 . S
H345 C351 0.930 . S
H346 C354 0.930 . S
H347 C355 0.930 . S
H348 C356 0.930 1_565 S
H349 C359 0.930 . S
H350 C360 0.930 . S
C351 H345 0.930 . S
C351 C352 1.355 . S
C351 C353 1.415 . S
C352 C351 1.355 . S
C352 C354 1.419 1_545 S
C353 C351 1.415 . S
C353 C358 1.425 . S
C353 C360 1.409 . S
C354 H346 0.930 . S
C354 C352 1.419 1_565 S
C354 C355 1.362 . S
C355 H347 0.930 . S
C355 C354 1.362 . S
C355 C358 1.409 1_565 S
C356 H348 0.930 1_545 S
C356 C357 1.355 . S
C356 C358 1.415 . S
C357 C356 1.355 . S
C357 C359 1.419 . S
C358 C353 1.425 . S
C358 C355 1.409 1_545 S
C358 C356 1.415 . S
C359 H349 0.930 . S
C359 C357 1.419 . S
C359 C360 1.362 . S
C360 H350 0.930 . S
C360 C353 1.409 . S
C360 C359 1.362 . S
H361 C367 0.930 . S
H362 C370 0.930 . S
H363 C371 0.930 . S
H364 C372 0.930 . S
H365 C375 0.930 . S
H366 C376 0.930 . S
C367 H361 0.930 . S
C367 C368 1.355 . S
C367 C369 1.415 . S
C368 C367 1.355 . S
C368 C370 1.419 . S
C369 C367 1.415 . S
C369 C374 1.425 . S
C369 C376 1.409 . S
C370 H362 0.930 . S
C370 C368 1.419 . S
C370 C371 1.362 . S
C371 H363 0.930 . S
C371 C370 1.362 . S
C371 C374 1.409 . S
C372 H364 0.930 . S
C372 C373 1.355 . S
C372 C374 1.415 . S
C373 C372 1.355 . S
C373 C375 1.419 . S
C374 C369 1.425 . S
C374 C371 1.409 . S
C374 C372 1.415 . S
C375 H365 0.930 . S
C375 C373 1.419 . S
C375 C376 1.362 . S
C376 H366 0.930 . S
C376 C369 1.409 . S
C376 C375 1.362 . S
H377 C383 0.930 . S
H378 C386 0.930 . S
H379 C387 0.930 . S
H380 C388 0.930 . S
H381 C391 0.930 1_655 S
H382 C392 0.930 1_655 S
C383 H377 0.930 . S
C383 C384 1.355 . S
C383 C385 1.415 . S
C384 C383 1.355 . S
C384 C386 1.419 . S
C385 C383 1.415 . S
C385 C390 1.425 . S
C385 C392 1.409 . S
C386 H378 0.930 . S
C386 C384 1.419 . S
C386 C387 1.362 . S
C387 H379 0.930 . S
C387 C386 1.362 . S
C387 C390 1.409 . S
C388 H380 0.930 . S
C388 C389 1.355 . S
C388 C390 1.415 . S
C389 C388 1.355 . S
C389 C391 1.419 . S
C390 C385 1.425 . S
C390 C387 1.409 . S
C390 C388 1.415 . S
C391 H381 0.930 1_455 S
C391 C389 1.419 . S
C391 C392 1.362 . S
C392 H382 0.930 1_455 S
C392 C385 1.409 . S
C392 C391 1.362 . S
C213 C64 1.364 . S
C208 C11 1.363 . S
C224 C25 1.428 . S
C229 C134 1.433 . S
C240 C41 1.408 1_655 S
C245 C186 1.443 . S
C256 C7 1.372 1_565 S
C261 C80 1.379 . S
C277 C124 1.438 . S
C272 C21 1.446 . S
C288 C36 1.446 . S
C293 C170 1.478 . S
C309 C117 1.415 . S
C304 C39 1.410 1_655 S
C320 C8 1.382 1_566 S
C325 C177 1.448 . S
C341 C71 1.507 . S
C336 C22 1.447 1_565 S
C357 C133 1.451 . S
C352 C35 1.455 . S
C373 C187 1.442 . S
C368 C13 1.411 1_556 S
C384 C27 1.426 . S
C389 C81 1.494 . S
