# Generated by pormake.
# Topology anh, (6,3)-cn, num edge types: 1
# Building blocks:
#     Node 0, Type 0, BuildingBlock: VOLQOD_clean_sbu_1, # of connection points: 6
#     Node 1, Type 0, BuildingBlock: VOLQOD_clean_sbu_1, # of connection points: 6
#     Node 2, Type 0, BuildingBlock: VOLQOD_clean_sbu_1, # of connection points: 6
#     Node 3, Type 1, BuildingBlock: OLANEW_clean_sbu_2, # of connection points: 3
#     Node 4, Type 1, BuildingBlock: OLANEW_clean_sbu_2, # of connection points: 3
#     Node 5, Type 1, BuildingBlock: OLANEW_clean_sbu_2, # of connection points: 3
#     Node 6, Type 1, BuildingBlock: OLANEW_clean_sbu_2, # of connection points: 3
#     Node 7, Type 1, BuildingBlock: OLANEW_clean_sbu_2, # of connection points: 3
#     Node 8, Type 1, BuildingBlock: OLANEW_clean_sbu_2, # of connection points: 3
#     Edge 9, Type (0, 1), BuildingBlock: XUDNAN_clean_linker_2, # of connection points: 2
#     Edge 10, Type (0, 1), BuildingBlock: XUDNAN_clean_linker_2, # of connection points: 2
#     Edge 11, Type (0, 1), BuildingBlock: XUDNAN_clean_linker_2, # of connection points: 2
#     Edge 12, Type (0, 1), BuildingBlock: XUDNAN_clean_linker_2, # of connection points: 2
#     Edge 13, Type (0, 1), BuildingBlock: XUDNAN_clean_linker_2, # of connection points: 2
#     Edge 14, Type (0, 1), BuildingBlock: XUDNAN_clean_linker_2, # of connection points: 2
#     Edge 15, Type (0, 1), BuildingBlock: XUDNAN_clean_linker_2, # of connection points: 2
#     Edge 16, Type (0, 1), BuildingBlock: XUDNAN_clean_linker_2, # of connection points: 2
#     Edge 17, Type (0, 1), BuildingBlock: XUDNAN_clean_linker_2, # of connection points: 2
#     Edge 18, Type (0, 1), BuildingBlock: XUDNAN_clean_linker_2, # of connection points: 2
#     Edge 19, Type (0, 1), BuildingBlock: XUDNAN_clean_linker_2, # of connection points: 2
#     Edge 20, Type (0, 1), BuildingBlock: XUDNAN_clean_linker_2, # of connection points: 2
#     Edge 21, Type (0, 1), BuildingBlock: XUDNAN_clean_linker_2, # of connection points: 2
#     Edge 22, Type (0, 1), BuildingBlock: XUDNAN_clean_linker_2, # of connection points: 2
#     Edge 23, Type (0, 1), BuildingBlock: XUDNAN_clean_linker_2, # of connection points: 2
#     Edge 24, Type (0, 1), BuildingBlock: XUDNAN_clean_linker_2, # of connection points: 2
#     Edge 25, Type (0, 1), BuildingBlock: XUDNAN_clean_linker_2, # of connection points: 2
#     Edge 26, Type (0, 1), BuildingBlock: XUDNAN_clean_linker_2, # of connection points: 2
# Relax obj value: 0.157
# Max RMSD: 0.206
# Mean RMSD: 0.141
data_MOF--net-anh--node1-VOLQOD_clean_sbu_1--node2-OLANEW_clean_sbu_2--edge1-XUDNAN_clean_linker_2
_symmetry_space_group_name_H-M    P1
_symmetry_Int_Tables_number       1
_symmetry_cell_setting            triclinic
loop_
_symmetry_equiv_pos_as_xyz
'x, y, z'
_cell_length_a     31.519827
_cell_length_b     31.466501
_cell_length_c     58.85347
_cell_angle_alpha  90.044906
_cell_angle_beta   89.951238
_cell_angle_gamma 120.22849
loop_
_atom_site_label
_atom_site_type_symbol
_atom_site_fract_x
_atom_site_fract_y
_atom_site_fract_z
_atom_type_partial_charge
O0 O 0.00073 0.5374 0.19949 0.0
Zn1 Zn 0.00482 0.53114 0.16562 0.0
O2 O 0.01669 0.47694 0.15866 0.0
Zn3 Zn 0.96377 0.42656 0.14074 0.0
Zn4 Zn 0.02304 0.44752 0.18688 0.0
Zn5 Zn 0.07524 0.50125 0.14035 0.0
O6 O 0.98354 0.42045 0.10897 0.0
O7 O 0.06107 0.48049 0.10762 0.0
O8 O 0.94029 0.5192 0.15178 0.0
O9 O 0.91226 0.44464 0.13718 0.0
O10 O 0.9309 0.36115 0.1563 0.0
O11 O 0.96332 0.37923 0.19099 0.0
O12 O 0.08552 0.44337 0.18663 0.0
O13 O 0.06353 0.59682 0.1564 0.0
O14 O 0.11676 0.47566 0.15278 0.0
O15 O 0.11441 0.5748 0.14146 0.0
C16 C 0.01241 0.52029 0.21645 0.0
C17 C 0.0231 0.44635 0.09793 0.0
C18 C 0.93211 0.34906 0.1768 0.0
C19 C 0.90687 0.48122 0.14158 0.0
C20 C 0.11787 0.45497 0.17115 0.0
C21 C 0.10506 0.60789 0.14784 0.0
O22 O 0.02466 0.48765 0.21396 0.0
O23 O 0.47197 0.02796 0.45565 0.0
Zn24 Zn 0.46624 0.02452 0.48967 0.0
O25 O 0.52389 0.02525 0.50253 0.0
Zn26 Zn 0.56389 0.08682 0.51787 0.0
Zn27 Zn 0.56256 0.01685 0.47838 0.0
Zn28 Zn 0.50281 0.97377 0.52532 0.0
O29 O 0.57075 0.07836 0.55084 0.0
O30 O 0.52069 0.99919 0.55772 0.0
O31 O 0.46123 0.08383 0.49964 0.0
O32 O 0.53455 0.12974 0.51536 0.0
O33 O 0.631 0.12285 0.50506 0.0
O34 O 0.63205 0.07652 0.4768 0.0
O35 O 0.56608 0.95467 0.4839 0.0
O36 O 0.40426 0.96023 0.49705 0.0
O37 O 0.53409 0.93361 0.51863 0.0
O38 O 0.43037 0.92645 0.52247 0.0
C39 C 0.49818 0.02106 0.4413 0.0
C40 C 0.55073 0.04255 0.56464 0.0
C41 C 0.65325 0.11532 0.48897 0.0
C42 C 0.49361 0.12402 0.50873 0.0
C43 C 0.55527 0.92755 0.50154 0.0
C44 C 0.39618 0.92489 0.51032 0.0
O45 O 0.53235 0.01325 0.4476 0.0
O46 O 0.43251 0.45522 0.78971 0.0
Zn47 Zn 0.42466 0.45281 0.82367 0.0
O48 O 0.48396 0.50726 0.83732 0.0
Zn49 Zn 0.46681 0.55157 0.8518 0.0
Zn50 Zn 0.53533 0.54302 0.8141 0.0
Zn51 Zn 0.50825 0.48167 0.86083 0.0
O52 O 0.47934 0.55773 0.88542 0.0
O53 O 0.50391 0.50429 0.89245 0.0
O54 O 0.36383 0.45772 0.82968 0.0
O55 O 0.39681 0.53102 0.8462 0.0
O56 O 0.50481 0.61784 0.8385 0.0
O57 O 0.55549 0.61587 0.81288 0.0
O58 O 0.5954 0.53654 0.8203 0.0
O59 O 0.41484 0.38706 0.83376 0.0
O60 O 0.57843 0.50328 0.85483 0.0
O61 O 0.47384 0.40799 0.85936 0.0
C62 C 0.46731 0.48086 0.7759 0.0
C63 C 0.49322 0.53617 0.89929 0.0
C64 C 0.53814 0.63903 0.8236 0.0
C65 C 0.36005 0.49322 0.83779 0.0
C66 C 0.60749 0.52183 0.83803 0.0
C67 C 0.4381 0.37542 0.84779 0.0
O68 O 0.50893 0.51503 0.78291 0.0
O69 O 0.48108 0.05164 0.26123 0.0
Cd70 Cd 0.49521 0.05496 0.22033 0.0
O71 O 0.48884 0.98668 0.26634 0.0
Cd72 Cd 0.47464 0.9672 0.2304 0.0
O73 O 0.42511 0.92277 0.20304 0.0
C74 C 0.37956 0.90644 0.20627 0.0
O75 O 0.36574 0.91889 0.22498 0.0
C76 C 0.48478 0.02186 0.27453 0.0
C77 C 0.5962 0.10385 0.21191 0.0
O78 O 0.57379 0.12765 0.21567 0.0
O79 O 0.57087 0.05675 0.21182 0.0
O80 O 0.50826 0.5143 0.60154 0.0
Cd81 Cd 0.52741 0.52605 0.56094 0.0
O82 O 0.42858 0.47699 0.59565 0.0
Cd83 Cd 0.44085 0.50573 0.56105 0.0
O84 O 0.47055 0.56794 0.53758 0.0
C85 C 0.49776 0.60912 0.54718 0.0
O86 O 0.50589 0.60973 0.56911 0.0
C87 C 0.4646 0.49026 0.60916 0.0
C88 C 0.50721 0.43597 0.54257 0.0
O89 O 0.54958 0.46624 0.55076 0.0
O90 O 0.47457 0.4488 0.54248 0.0
O91 O 0.97071 0.42333 0.91993 0.0
Cd92 Cd 0.94592 0.4155 0.88015 0.0
O93 O 0.90515 0.35663 0.93213 0.0
Cd94 Cd 0.87009 0.35212 0.8996 0.0
O95 O 0.83902 0.38293 0.87618 0.0
C96 C 0.83269 0.41605 0.88516 0.0
O97 O 0.84516 0.42775 0.90654 0.0
C98 C 0.9477 0.39314 0.93587 0.0
C99 C 0.03072 0.44054 0.85582 0.0
O100 O 0.01859 0.47278 0.86055 0.0
O101 O 0.00122 0.3958 0.86156 0.0
O102 O 0.03053 0.5645 0.39094 0.0
Cd103 Cd 0.02304 0.55625 0.43243 0.0
O104 O 0.96466 0.57159 0.38882 0.0
Cd105 Cd 0.94144 0.53974 0.42249 0.0
O106 O 0.9115 0.47266 0.4427 0.0
C107 C 0.89115 0.43256 0.43157 0.0
O108 O 0.88925 0.4343 0.4093 0.0
C109 C 0.00164 0.57312 0.37932 0.0
C110 C 0.10264 0.63057 0.45609 0.0
O111 O 0.09864 0.58838 0.45299 0.0
O112 O 0.06937 0.638 0.44778 0.0
O113 O 0.53371 0.03228 0.74004 0.0
Cd114 Cd 0.52979 0.02365 0.78121 0.0
O115 O 0.59579 0.10779 0.74321 0.0
Cd116 Cd 0.57906 0.11397 0.77864 0.0
O117 O 0.54363 0.13752 0.80351 0.0
C118 C 0.49732 0.11881 0.80239 0.0
O119 O 0.47253 0.08348 0.78762 0.0
C120 C 0.56821 0.07079 0.73088 0.0
C121 C 0.5514 0.95058 0.79195 0.0
O122 O 0.50694 0.94139 0.79097 0.0
O123 O 0.58599 0.99479 0.78839 0.0
O124 O 0.52635 0.53333 0.07325 0.0
Cd125 Cd 0.53085 0.51779 0.11356 0.0
O126 O 0.54195 0.60912 0.07814 0.0
Cd127 Cd 0.53245 0.5975 0.11478 0.0
O128 O 0.47641 0.56185 0.141 0.0
C129 C 0.43764 0.5244 0.13374 0.0
O130 O 0.43692 0.5102 0.11266 0.0
C131 C 0.53427 0.57395 0.06492 0.0
C132 C 0.60627 0.49761 0.11972 0.0
O133 O 0.56264 0.46353 0.11474 0.0
O134 O 0.61412 0.54143 0.12237 0.0
H135 H 0.15554 0.41923 0.1406 0.0
H136 H 0.17692 0.47903 0.20858 0.0
H137 H 0.26027 0.48946 0.2094 0.0
H138 H 0.23437 0.35824 0.14798 0.0
H139 H 0.25566 0.37372 0.11909 0.0
H140 H 0.19427 0.35931 0.12645 0.0
H141 H 0.21201 0.44256 0.10939 0.0
H142 H 0.27336 0.45764 0.10234 0.0
H143 H 0.26342 0.49881 0.1199 0.0
H144 H 0.34678 0.51288 0.19864 0.0
H145 H 0.42554 0.54009 0.17874 0.0
H146 H 0.34568 0.4606 0.11855 0.0
C147 C 0.17702 0.43227 0.15605 0.0
C148 C 0.1601 0.44794 0.17459 0.0
C149 C 0.18916 0.46596 0.1944 0.0
C150 C 0.23653 0.47212 0.19494 0.0
C151 C 0.25338 0.4588 0.17578 0.0
C152 C 0.22381 0.43788 0.15692 0.0
C153 C 0.25193 0.43223 0.13747 0.0
C154 C 0.23293 0.37762 0.13246 0.0
C155 C 0.25008 0.45946 0.11604 0.0
C156 C 0.30283 0.45664 0.14763 0.0
C157 C 0.30301 0.47106 0.16985 0.0
C158 C 0.34687 0.50031 0.18152 0.0
C159 C 0.39145 0.51583 0.17006 0.0
C160 C 0.39172 0.50212 0.14716 0.0
C161 C 0.34676 0.47087 0.13619 0.0
H162 H 0.69083 0.15148 0.44696 0.0
H163 H 0.72498 0.17217 0.51881 0.0
H164 H 0.79874 0.2523 0.51085 0.0
H165 H 0.82341 0.22227 0.42517 0.0
H166 H 0.80571 0.24776 0.40211 0.0
H167 H 0.76326 0.18704 0.41266 0.0
H168 H 0.69869 0.2136 0.41931 0.0
H169 H 0.741 0.27447 0.40925 0.0
H170 H 0.71409 0.2661 0.43711 0.0
H171 H 0.85747 0.33562 0.49654 0.0
H172 H 0.90056 0.4151 0.47634 0.0
H173 H 0.82854 0.34179 0.41359 0.0
C174 C 0.71539 0.17183 0.46079 0.0
C175 C 0.70299 0.15549 0.48343 0.0
C176 C 0.73447 0.18395 0.50133 0.0
C177 C 0.7764 0.22947 0.49696 0.0
C178 C 0.78632 0.24599 0.47459 0.0
C179 C 0.75717 0.2178 0.45671 0.0
C180 C 0.77197 0.24691 0.43475 0.0
C181 C 0.79231 0.22467 0.41766 0.0
C182 C 0.72888 0.25047 0.42453 0.0
C183 C 0.81211 0.2964 0.44332 0.0
C184 C 0.82037 0.29485 0.46627 0.0
C185 C 0.85227 0.33708 0.47844 0.0
C186 C 0.87631 0.38212 0.46687 0.0
C187 C 0.86814 0.38459 0.44339 0.0
C188 C 0.83617 0.34096 0.43147 0.0
H189 H 0.48571 0.6841 0.83142 0.0
H190 H 0.62278 0.70932 0.80199 0.0
H191 H 0.64413 0.79473 0.79225 0.0
H192 H 0.45981 0.74742 0.78939 0.0
H193 H 0.43226 0.7705 0.80903 0.0
H194 H 0.43039 0.71346 0.81485 0.0
H195 H 0.47183 0.74736 0.8539 0.0
H196 H 0.47391 0.8046 0.84821 0.0
H197 H 0.52953 0.80445 0.85514 0.0
H198 H 0.64922 0.87815 0.78606 0.0
H199 H 0.63472 0.94803 0.78093 0.0
H200 H 0.49189 0.86318 0.8128 0.0
C201 C 0.52065 0.7076 0.82319 0.0
C202 C 0.55298 0.69034 0.81773 0.0
C203 C 0.59765 0.722 0.80643 0.0
C204 C 0.61006 0.77049 0.80093 0.0
C205 C 0.57708 0.78619 0.80665 0.0
C206 C 0.53309 0.7553 0.81735 0.0
C207 C 0.50232 0.77923 0.82058 0.0
C208 C 0.45332 0.75098 0.80769 0.0
C209 C 0.49393 0.78421 0.84597 0.0
C210 C 0.53567 0.8287 0.80995 0.0
C211 C 0.57897 0.83253 0.80227 0.0
C212 C 0.6154 0.87538 0.79197 0.0
C213 C 0.60693 0.91488 0.78921 0.0
C214 C 0.56209 0.91078 0.7964 0.0
C215 C 0.52637 0.86723 0.80702 0.0
H216 H 0.87625 0.54873 0.14892 0.0
H217 H 0.82958 0.40424 0.12037 0.0
H218 H 0.74865 0.39357 0.11197 0.0
H219 H 0.76192 0.51735 0.17523 0.0
H220 H 0.76513 0.57488 0.16876 0.0
H221 H 0.82076 0.57266 0.1722 0.0
H222 H 0.85004 0.61094 0.13224 0.0
H223 H 0.79464 0.61359 0.12874 0.0
H224 H 0.811 0.58211 0.108 0.0
H225 H 0.67185 0.3957 0.10818 0.0
H226 H 0.60422 0.41348 0.10678 0.0
H227 H 0.69946 0.55728 0.13655 0.0
C228 C 0.84916 0.51507 0.14073 0.0
C229 C 0.8595 0.47736 0.13539 0.0
C230 C 0.82283 0.43378 0.12471 0.0
C231 C 0.77655 0.4272 0.11986 0.0
C232 C 0.76732 0.46459 0.12562 0.0
C233 C 0.80252 0.50788 0.13561 0.0
C234 C 0.78248 0.542 0.14002 0.0
C235 C 0.78258 0.55231 0.16557 0.0
C236 C 0.81125 0.59 0.12643 0.0
C237 C 0.73057 0.51083 0.13105 0.0
C238 C 0.7227 0.46624 0.12296 0.0
C239 C 0.67752 0.43061 0.11431 0.0
C240 C 0.63929 0.44099 0.11368 0.0
C241 C 0.64659 0.48677 0.1215 0.0
C242 C 0.69288 0.52205 0.13034 0.0
H243 H 0.3151 0.90361 0.48427 0.0
H244 H 0.36964 0.83963 0.53342 0.0
H245 H 0.29708 0.7582 0.52677 0.0
H246 H 0.18187 0.82164 0.49808 0.0
H247 H 0.16412 0.81869 0.46876 0.0
H248 H 0.2173 0.87312 0.47947 0.0
H249 H 0.27031 0.86577 0.44776 0.0
H250 H 0.2176 0.81103 0.43715 0.0
H251 H 0.27211 0.80962 0.44505 0.0
H252 H 0.22622 0.68235 0.51063 0.0
H253 H 0.15578 0.61794 0.48915 0.0
H254 H 0.14395 0.73051 0.45196 0.0
C255 C 0.31115 0.87278 0.49413 0.0
C256 C 0.34829 0.87825 0.50937 0.0
C257 C 0.34182 0.83666 0.52169 0.0
C258 C 0.30068 0.79009 0.51802 0.0
C259 C 0.26582 0.78567 0.50224 0.0
C260 C 0.27 0.82598 0.49082 0.0
C261 C 0.22849 0.81064 0.47391 0.0
C262 C 0.19602 0.8323 0.48045 0.0
C263 C 0.24834 0.82512 0.44953 0.0
C264 C 0.2014 0.75531 0.47707 0.0
C265 C 0.2236 0.74173 0.49349 0.0
C266 C 0.20781 0.69253 0.4981 0.0
C267 C 0.16805 0.65624 0.48572 0.0
C268 C 0.14422 0.66931 0.4691 0.0
C269 C 0.16095 0.71952 0.46488 0.0
H270 H 0.50208 0.34575 0.86053 0.0
H271 H 0.35607 0.2914 0.83304 0.0
H272 H 0.34969 0.21124 0.82518 0.0
H273 H 0.54081 0.30148 0.81896 0.0
H274 H 0.5785 0.28584 0.83599 0.0
H275 H 0.56676 0.33326 0.84532 0.0
H276 H 0.53194 0.28754 0.8834 0.0
H277 H 0.5441 0.23996 0.8743 0.0
H278 H 0.48316 0.22421 0.88319 0.0
H279 H 0.36498 0.14351 0.81401 0.0
H280 H 0.40128 0.09557 0.79921 0.0
H281 H 0.53903 0.19588 0.8324 0.0
C282 C 0.46783 0.31628 0.85383 0.0
C283 C 0.42925 0.32457 0.8477 0.0
C284 C 0.38584 0.28566 0.83811 0.0
C285 C 0.38186 0.23995 0.83365 0.0
C286 C 0.42161 0.2338 0.83889 0.0
C287 C 0.46372 0.2709 0.8489 0.0
C288 C 0.50417 0.25828 0.84947 0.0
C289 C 0.55022 0.29699 0.83667 0.0
C290 C 0.51655 0.25212 0.87405 0.0
C291 C 0.47922 0.2095 0.83709 0.0
C292 C 0.43117 0.1953 0.83171 0.0
C293 C 0.40221 0.15375 0.81853 0.0
C294 C 0.42325 0.12679 0.81014 0.0
C295 C 0.47305 0.14196 0.81464 0.0
C296 C 0.50074 0.18301 0.82886 0.0
H297 H 0.57381 0.88825 0.53848 0.0
H298 H 0.54983 0.86886 0.46581 0.0
H299 H 0.5427 0.78691 0.46864 0.0
H300 H 0.64229 0.81891 0.54417 0.0
H301 H 0.61379 0.79441 0.57127 0.0
H302 H 0.62628 0.85454 0.56255 0.0
H303 H 0.53467 0.8274 0.5688 0.0
H304 H 0.52168 0.76716 0.57716 0.0
H305 H 0.48801 0.77395 0.55408 0.0
H306 H 0.52208 0.70115 0.48094 0.0
H307 H 0.49749 0.62288 0.50096 0.0
H308 H 0.53825 0.70101 0.56524 0.0
C309 C 0.56879 0.86746 0.52304 0.0
C310 C 0.56254 0.88475 0.50193 0.0
C311 C 0.55542 0.85645 0.4821 0.0
C312 C 0.55112 0.80982 0.48359 0.0
C313 C 0.55516 0.7928 0.50493 0.0
C314 C 0.56501 0.8214 0.52422 0.0
C315 C 0.56351 0.79355 0.54541 0.0
C316 C 0.61451 0.81673 0.5565 0.0
C317 C 0.52465 0.79033 0.56233 0.0
C318 C 0.54878 0.74393 0.53524 0.0
C319 C 0.54452 0.74411 0.51187 0.0
C320 C 0.52655 0.70095 0.49916 0.0
C321 C 0.51242 0.65664 0.51068 0.0
C322 C 0.51635 0.65592 0.53464 0.0
C323 C 0.53562 0.7004 0.54688 0.0
H324 H 0.66186 0.53133 0.87532 0.0
H325 H 0.65482 0.50637 0.80265 0.0
H326 H 0.72005 0.48469 0.80595 0.0
H327 H 0.79765 0.58015 0.88173 0.0
H328 H 0.78818 0.55009 0.90886 0.0
H329 H 0.74791 0.57198 0.89983 0.0
H330 H 0.67305 0.48464 0.90584 0.0
H331 H 0.71288 0.46221 0.91445 0.0
H332 H 0.67082 0.4332 0.89118 0.0
H333 H 0.77406 0.45053 0.81867 0.0
H334 H 0.8185 0.41574 0.83901 0.0
H335 H 0.79163 0.46674 0.90296 0.0
C336 C 0.67532 0.523 0.85998 0.0
C337 C 0.65366 0.5207 0.83873 0.0
C338 C 0.67159 0.50905 0.81905 0.0
C339 C 0.7084 0.49645 0.8208 0.0
C340 C 0.7274 0.49682 0.84227 0.0
C341 C 0.71221 0.51099 0.86143 0.0
C342 C 0.73513 0.50469 0.88276 0.0
C343 C 0.76926 0.55471 0.89395 0.0
C344 C 0.69561 0.46906 0.89952 0.0
C345 C 0.76393 0.48265 0.87281 0.0
C346 C 0.75935 0.47853 0.84944 0.0
C347 C 0.77893 0.45476 0.8369 0.0
C348 C 0.80381 0.43484 0.84858 0.0
C349 C 0.80891 0.439 0.87252 0.0
C350 C 0.7892 0.46381 0.88462 0.0
H351 H 0.11708 0.68155 0.17655 0.0
H352 H 0.18651 0.64946 0.12074 0.0
H353 H 0.26187 0.72977 0.12627 0.0
H354 H 0.18119 0.8195 0.16812 0.0
H355 H 0.18639 0.82993 0.19837 0.0
H356 H 0.13472 0.77521 0.18688 0.0
H357 H 0.15525 0.72172 0.21297 0.0
H358 H 0.20716 0.77601 0.22432 0.0
H359 H 0.21556 0.7286 0.21163 0.0
H360 H 0.33341 0.80634 0.14171 0.0
H361 H 0.39512 0.8737 0.16558 0.0
H362 H 0.27972 0.8555 0.21179 0.0
C363 C 0.1474 0.69236 0.16487 0.0
C364 C 0.14574 0.65958 0.14802 0.0
C365 C 0.18686 0.67423 0.13363 0.0
C366 C 0.2298 0.71983 0.13662 0.0
C367 C 0.23106 0.75044 0.15405 0.0
C368 C 0.19076 0.73754 0.16782 0.0
C369 C 0.20355 0.77399 0.18708 0.0
C370 C 0.17475 0.80128 0.18498 0.0
C371 C 0.19488 0.74855 0.21036 0.0
C372 C 0.25774 0.80813 0.18255 0.0
C373 C 0.27273 0.79445 0.1632 0.0
C374 C 0.32193 0.81802 0.15664 0.0
C375 C 0.35677 0.85613 0.17036 0.0
C376 C 0.3423 0.87006 0.19051 0.0
C377 C 0.29195 0.84623 0.19634 0.0
H378 H 0.55794 0.21546 0.52502 0.0
H379 H 0.40986 0.12759 0.49857 0.0
H380 H 0.39737 0.19884 0.50324 0.0
H381 H 0.53106 0.27935 0.5672 0.0
H382 H 0.58812 0.33622 0.56331 0.0
H383 H 0.58489 0.2785 0.55749 0.0
H384 H 0.61728 0.30811 0.51667 0.0
H385 H 0.62046 0.36589 0.52233 0.0
H386 H 0.58548 0.32898 0.49845 0.0
H387 H 0.40149 0.28046 0.51171 0.0
H388 H 0.42135 0.36406 0.5234 0.0
H389 H 0.56711 0.39657 0.54359 0.0
C390 C 0.52274 0.21087 0.52017 0.0
C391 C 0.48481 0.16578 0.51145 0.0
C392 C 0.43946 0.16174 0.5053 0.0
C393 C 0.43208 0.20202 0.50786 0.0
C394 C 0.47046 0.24595 0.5165 0.0
C395 C 0.51488 0.25044 0.52252 0.0
C396 C 0.55032 0.30116 0.53157 0.0
C397 C 0.56439 0.29863 0.55636 0.0
C398 C 0.59608 0.32758 0.51634 0.0
C399 C 0.51889 0.3247 0.52989 0.0
C400 C 0.47297 0.29246 0.52113 0.0
C401 C 0.43741 0.30601 0.51849 0.0
C402 C 0.44905 0.35356 0.52516 0.0
C403 C 0.49585 0.38691 0.53434 0.0
C404 C 0.53113 0.37214 0.53651 0.0
H405 H 0.26612 0.41365 0.8394 0.0
H406 H 0.34882 0.57258 0.83271 0.0
H407 H 0.27168 0.57436 0.83098 0.0
H408 H 0.15975 0.39121 0.80356 0.0
H409 H 0.11605 0.34385 0.82215 0.0
H410 H 0.17741 0.3538 0.81961 0.0
H411 H 0.1889 0.3656 0.86322 0.0
H412 H 0.12761 0.35538 0.86588 0.0
H413 H 0.17882 0.411 0.87697 0.0
H414 H 0.18728 0.56049 0.83302 0.0
H415 H 0.10092 0.53254 0.84228 0.0
H416 H 0.07193 0.38279 0.84898 0.0
C417 C 0.26777 0.44861 0.83713 0.0
C418 C 0.31327 0.49293 0.83608 0.0
C419 C 0.31424 0.53819 0.83363 0.0
C420 C 0.27066 0.53957 0.83241 0.0
C421 C 0.22635 0.49539 0.83377 0.0
C422 C 0.22445 0.45075 0.83626 0.0
C423 C 0.17213 0.4094 0.83982 0.0
C424 C 0.15535 0.37238 0.8201 0.0
C425 C 0.16656 0.38387 0.86284 0.0
C426 C 0.14529 0.43807 0.8396 0.0
C427 C 0.1772 0.48744 0.83558 0.0
C428 C 0.16174 0.52183 0.83593 0.0
C429 C 0.11259 0.50559 0.84121 0.0
C430 C 0.07965 0.45549 0.8463 0.0
C431 C 0.09606 0.42121 0.84487 0.0
H432 H 0.86453 0.33815 0.20789 0.0
H433 H 0.90382 0.25671 0.16154 0.0
H434 H 0.82439 0.18098 0.16935 0.0
H435 H 0.78757 0.23625 0.24861 0.0
H436 H 0.74351 0.25651 0.25116 0.0
H437 H 0.80724 0.30065 0.24594 0.0
H438 H 0.78237 0.33141 0.21034 0.0
H439 H 0.71878 0.28702 0.21519 0.0
H440 H 0.7468 0.2882 0.18831 0.0
H441 H 0.73748 0.11655 0.17943 0.0
H442 H 0.64884 0.07027 0.18872 0.0
H443 H 0.66405 0.19697 0.22526 0.0
C444 C 0.85716 0.30374 0.20026 0.0
C445 C 0.89065 0.30238 0.18482 0.0
C446 C 0.87896 0.25772 0.17396 0.0
C447 C 0.83399 0.21473 0.17827 0.0
C448 C 0.8009 0.21751 0.19311 0.0
C449 C 0.81191 0.261 0.20387 0.0
C450 C 0.76765 0.25631 0.2163 0.0
C451 C 0.77706 0.2628 0.24203 0.0
C452 C 0.75306 0.29289 0.20697 0.0
C453 C 0.7297 0.2038 0.21044 0.0
C454 C 0.74981 0.18162 0.19753 0.0
C455 C 0.72145 0.13347 0.18966 0.0
C456 C 0.67118 0.10749 0.19499 0.0
C457 C 0.64966 0.13017 0.20759 0.0
C458 C 0.67951 0.1788 0.21551 0.0
H459 H 0.94667 0.38191 0.07087 0.0
H460 H 0.10089 0.49476 0.06872 0.0
H461 H 0.09985 0.48808 0.02694 0.0
H462 H 0.9501 0.30789 0.02278 0.0
H463 H 0.89031 0.2937 0.01283 0.0
H464 H 0.90458 0.30351 0.0427 0.0
H465 H 0.88074 0.37122 0.04317 0.0
H466 H 0.86667 0.36186 0.01334 0.0
H467 H 0.91045 0.42225 0.02374 0.0
H468 H 0.08007 0.47545 0.98549 0.0
H469 H 0.04349 0.4562 0.94717 0.0
H470 H 0.90237 0.35081 0.97624 0.0
C471 C 0.98054 0.40456 0.06169 0.0
C472 C 0.0239 0.4388 0.07313 0.0
C473 C 0.06722 0.46815 0.06039 0.0
C474 C 0.06704 0.46458 0.03664 0.0
C475 C 0.02339 0.43124 0.0259 0.0
C476 C 0.98102 0.40145 0.038 0.0
C477 C 0.93823 0.37084 0.02229 0.0
C478 C 0.91973 0.31571 0.02533 0.0
C479 C 0.89659 0.38226 0.02585 0.0
C480 C 0.96284 0.38908 -0.00056 0.0
C481 C 0.01204 0.42364 0.00191 0.0
C482 C 0.04177 0.44792 0.98331 0.0
C483 C 0.02057 0.43686 0.96163 0.0
C484 C 0.97012 0.4018 0.9587 0.0
C485 C 0.94117 0.37723 0.97789 0.0
H486 H 0.52696 0.98553 0.40533 0.0
H487 H 0.4512 0.0648 0.42188 0.0
H488 H 0.4404 0.07417 0.38107 0.0
H489 H 0.59085 0.05567 0.3562 0.0
H490 H 0.5835 0.00344 0.34026 0.0
H491 H 0.58557 0.0029 0.37084 0.0
H492 H 0.50165 0.92178 0.37167 0.0
H493 H 0.49942 0.92193 0.34109 0.0
H494 H 0.44964 0.91898 0.35746 0.0
H495 H 0.44116 0.07847 0.33867 0.0
H496 H 0.447 0.07107 0.29718 0.0
H497 H 0.51814 0.98514 0.30797 0.0
C498 C 0.50805 0.0048 0.40035 0.0
C499 C 0.49006 0.02457 0.41679 0.0
C500 C 0.46513 0.04917 0.40961 0.0
C501 C 0.45898 0.05488 0.38646 0.0
C502 C 0.47742 0.03527 0.37071 0.0
C503 C 0.50091 0.0102 0.3773 0.0
C504 C 0.51625 0.99176 0.35687 0.0
C505 C 0.57237 0.01483 0.356 0.0
C506 C 0.49017 0.93526 0.35677 0.0
C507 C 0.49801 0.01072 0.33779 0.0
C508 C 0.47616 0.03612 0.34617 0.0
C509 C 0.45782 0.05833 0.33188 0.0
C510 C 0.46149 0.05409 0.30835 0.0
C511 C 0.48277 0.02732 0.29937 0.0
C512 C 0.50125 0.00543 0.31435 0.0
H513 H 0.53332 0.52455 0.74089 0.0
H514 H 0.38059 0.41726 0.75483 0.0
H515 H 0.3641 0.40554 0.71371 0.0
H516 H 0.51176 0.58071 0.69378 0.0
H517 H 0.56457 0.5897 0.67789 0.0
H518 H 0.56516 0.58784 0.70845 0.0
H519 H 0.58521 0.51748 0.70686 0.0
H520 H 0.58482 0.51922 0.67627 0.0
H521 H 0.54573 0.46241 0.69101 0.0
H522 H 0.36279 0.4093 0.67114 0.0
H523 H 0.37776 0.42618 0.63004 0.0
H524 H 0.53158 0.52932 0.64383 0.0
C525 C 0.49649 0.49824 0.73534 0.0
C526 C 0.45829 0.47187 0.75117 0.0
C527 C 0.41058 0.43787 0.7431 0.0
C528 C 0.40077 0.43092 0.71974 0.0
C529 C 0.4391 0.45792 0.70464 0.0
C530 C 0.48609 0.49062 0.71208 0.0
C531 C 0.52046 0.51583 0.69229 0.0
C532 C 0.54172 0.57183 0.69316 0.0
C533 C 0.56148 0.50295 0.69157 0.0
C534 C 0.48526 0.49278 0.67258 0.0
C535 C 0.43852 0.45944 0.68006 0.0
C536 C 0.39935 0.43496 0.66505 0.0
C537 C 0.40819 0.4449 0.64175 0.0
C538 C 0.45586 0.47886 0.6337 0.0
C539 C 0.49483 0.50275 0.6494 0.0
H540 H 0.50209 0.9837 0.60155 0.0
H541 H 0.6277 0.12469 0.58286 0.0
H542 H 0.64774 0.14476 0.62321 0.0
H543 H 0.46618 0.02769 0.64902 0.0
H544 H 0.4479 0.97404 0.66639 0.0
H545 H 0.44496 0.96855 0.63591 0.0
H546 H 0.5001 0.92929 0.6371 0.0
H547 H 0.50312 0.93456 0.66762 0.0
H548 H 0.55888 0.96142 0.65112 0.0
H549 H 0.65247 0.15205 0.66508 0.0
H550 H 0.6411 0.14616 0.70659 0.0
H551 H 0.51227 0.001 0.69885 0.0
C552 C 0.53414 0.01848 0.60596 0.0
C553 C 0.56329 0.05257 0.58901 0.0
C554 C 0.60464 0.09799 0.5955 0.0
C555 C 0.61651 0.10974 0.61839 0.0
C556 C 0.58675 0.07574 0.63467 0.0
C557 C 0.54646 0.03103 0.62885 0.0
C558 C 0.51944 0.00226 0.64987 0.0
C559 C 0.46649 0.99259 0.65032 0.0
C560 C 0.52047 0.95403 0.65152 0.0
C561 C 0.55053 0.0382 0.6683 0.0
C562 C 0.58934 0.08015 0.6591 0.0
C563 C 0.62243 0.11927 0.67256 0.0
C564 C 0.61558 0.11559 0.69612 0.0
C565 C 0.57584 0.07313 0.70601 0.0
C566 C 0.54315 0.03384 0.69184 0.0
H567 H 0.50507 0.48775 0.93544 0.0
H568 H 0.49465 0.61636 0.91815 0.0
H569 H 0.50713 0.64159 0.9584 0.0
H570 H 0.43944 0.46249 0.98832 0.0
H571 H 0.47699 0.4425 0.00254 0.0
H572 H 0.46841 0.43522 0.97225 0.0
H573 H 0.56275 0.48405 0.96647 0.0
H574 H 0.57161 0.49174 0.99675 0.0
H575 H 0.59823 0.54485 0.97843 0.0
H576 H 0.52201 0.65366 0.00042 0.0
H577 H 0.53206 0.64834 0.04175 0.0
H578 H 0.53028 0.51068 0.03178 0.0
C579 C 0.50546 0.52125 0.9401 0.0
C580 C 0.499 0.55013 0.9236 0.0
C581 C 0.49936 0.59351 0.93047 0.0
C582 C 0.50665 0.60831 0.95328 0.0
C583 C 0.51319 0.57918 0.96907 0.0
C584 C 0.5122 0.53633 0.96284 0.0
C585 C 0.51867 0.51092 0.98327 0.0
C586 C 0.47316 0.45976 0.9868 0.0
C587 C 0.56561 0.50772 0.98109 0.0
C588 C 0.52345 0.5462 0.00195 0.0
C589 C 0.52063 0.58555 0.99338 0.0
C590 C 0.52417 0.62297 0.00736 0.0
C591 C 0.53005 0.6197 0.0308 0.0
C592 C 0.53188 0.57908 0.04002 0.0
C593 C 0.52893 0.54217 0.02529 0.0
H594 H 0.04898 0.50449 0.25587 0.0
H595 H 0.97385 0.57766 0.22926 0.0
H596 H 0.96997 0.60603 0.26788 0.0
H597 H 0.98115 0.46122 0.30631 0.0
H598 H 0.03246 0.47105 0.32363 0.0
H599 H 0.03246 0.45963 0.29368 0.0
H600 H 0.11569 0.54076 0.28936 0.0
H601 H 0.11583 0.55255 0.31935 0.0
H602 H 0.12126 0.59777 0.29897 0.0
H603 H 0.96718 0.61964 0.30969 0.0
H604 H 0.96696 0.61854 0.35167 0.0
H605 H 0.0473 0.54 0.35084 0.0
C606 C 0.03206 0.52682 0.2581 0.0
C607 C 0.01162 0.53873 0.23951 0.0
C608 C 0.98986 0.56811 0.2432 0.0
C609 C 0.98757 0.58452 0.26508 0.0
C610 C 0.00777 0.57181 0.28303 0.0
C611 C 0.02991 0.54393 0.27977 0.0
C612 C 0.04711 0.53376 0.30205 0.0
C613 C 0.02177 0.47812 0.30668 0.0
C614 C 0.10332 0.55765 0.30245 0.0
C615 C 0.02991 0.55907 0.31844 0.0
C616 C 0.00751 0.58101 0.30712 0.0
C617 C 0.98538 0.60337 0.31873 0.0
C618 C 0.98539 0.60252 0.34255 0.0
C619 C 0.00767 0.57977 0.35446 0.0
C620 C 0.03105 0.55871 0.34219 0.0
loop_
_geom_bond_atom_site_label_1
_geom_bond_atom_site_label_2
_geom_bond_distance
_geom_bond_site_symmetry_2
_ccdc_geom_bond_type
O0 Zn1 1.953 . S
O0 C16 1.225 1_655 S
Zn1 O0 1.953 . S
Zn1 O2 1.949 1_655 S
Zn1 O8 1.919 . S
Zn1 O13 1.924 1_655 S
O2 Zn1 1.949 1_455 S
O2 Zn3 1.923 1_455 S
O2 Zn4 1.950 . S
O2 Zn5 1.945 . S
Zn3 O2 1.923 1_655 S
Zn3 O6 1.933 . S
Zn3 O9 1.941 . S
Zn3 O10 1.965 . S
Zn4 O2 1.950 . S
Zn4 O11 1.938 1_455 S
Zn4 O12 1.906 . S
Zn4 O22 1.953 . S
Zn5 O2 1.945 . S
Zn5 O7 1.932 . S
Zn5 O14 1.977 . S
Zn5 O15 1.910 . S
O6 Zn3 1.933 . S
O6 C17 1.226 1_655 S
O7 Zn5 1.932 . S
O7 C17 1.307 . S
O8 Zn1 1.919 . S
O8 C19 1.253 . S
O9 Zn3 1.941 . S
O9 C19 1.283 . S
O10 Zn3 1.965 . S
O10 C18 1.303 . S
O11 Zn4 1.938 1_655 S
O11 C18 1.247 . S
O12 Zn4 1.906 . S
O12 C20 1.304 . S
O13 Zn1 1.924 1_455 S
O13 C21 1.311 . S
O14 Zn5 1.977 . S
O14 C20 1.272 . S
O15 Zn5 1.910 . S
O15 C21 1.231 . S
C16 O0 1.225 1_455 S
C16 O22 1.298 . S
C17 O6 1.226 1_455 S
C17 O7 1.307 . S
C18 O10 1.303 . S
C18 O11 1.247 . S
C19 O8 1.253 . S
C19 O9 1.283 . S
C20 O12 1.304 . S
C20 O14 1.272 . S
C21 O13 1.311 . S
C21 O15 1.231 . S
O22 Zn4 1.953 . S
O22 C16 1.298 . S
O23 Zn24 1.953 . S
O23 C39 1.225 . S
Zn24 O23 1.953 . S
Zn24 O25 1.949 . S
Zn24 O31 1.919 . S
Zn24 O36 1.924 1_545 S
O25 Zn24 1.949 . S
O25 Zn26 1.923 . S
O25 Zn27 1.950 1_545 S
O25 Zn28 1.945 1_545 S
Zn26 O25 1.923 . S
Zn26 O29 1.933 . S
Zn26 O32 1.941 . S
Zn26 O33 1.965 . S
Zn27 O25 1.950 1_565 S
Zn27 O34 1.938 1_565 S
Zn27 O35 1.906 . S
Zn27 O45 1.953 . S
Zn28 O25 1.945 1_565 S
Zn28 O30 1.932 . S
Zn28 O37 1.977 . S
Zn28 O38 1.910 . S
O29 Zn26 1.933 . S
O29 C40 1.226 . S
O30 Zn28 1.932 . S
O30 C40 1.307 1_565 S
O31 Zn24 1.919 . S
O31 C42 1.253 . S
O32 Zn26 1.941 . S
O32 C42 1.283 . S
O33 Zn26 1.965 . S
O33 C41 1.303 . S
O34 Zn27 1.938 1_545 S
O34 C41 1.247 . S
O35 Zn27 1.906 . S
O35 C43 1.304 . S
O36 Zn24 1.924 1_565 S
O36 C44 1.311 . S
O37 Zn28 1.977 . S
O37 C43 1.272 . S
O38 Zn28 1.910 . S
O38 C44 1.231 . S
C39 O23 1.225 . S
C39 O45 1.298 1_545 S
C40 O29 1.226 . S
C40 O30 1.307 1_545 S
C41 O33 1.303 . S
C41 O34 1.247 . S
C42 O31 1.253 . S
C42 O32 1.283 . S
C43 O35 1.304 . S
C43 O37 1.272 . S
C44 O36 1.311 . S
C44 O38 1.231 . S
O45 Zn27 1.953 . S
O45 C39 1.298 1_565 S
O46 Zn47 1.953 . S
O46 C62 1.225 . S
Zn47 O46 1.953 . S
Zn47 O48 1.949 . S
Zn47 O54 1.919 . S
Zn47 O59 1.924 . S
O48 Zn47 1.949 . S
O48 Zn49 1.923 . S
O48 Zn50 1.950 . S
O48 Zn51 1.945 . S
Zn49 O48 1.923 . S
Zn49 O52 1.933 . S
Zn49 O55 1.941 . S
Zn49 O56 1.965 . S
Zn50 O48 1.950 . S
Zn50 O57 1.938 . S
Zn50 O58 1.906 . S
Zn50 O68 1.953 . S
Zn51 O48 1.945 . S
Zn51 O53 1.932 . S
Zn51 O60 1.977 . S
Zn51 O61 1.910 . S
O52 Zn49 1.933 . S
O52 C63 1.226 . S
O53 Zn51 1.932 . S
O53 C63 1.307 . S
O54 Zn47 1.919 . S
O54 C65 1.253 . S
O55 Zn49 1.941 . S
O55 C65 1.283 . S
O56 Zn49 1.965 . S
O56 C64 1.303 . S
O57 Zn50 1.938 . S
O57 C64 1.247 . S
O58 Zn50 1.906 . S
O58 C66 1.304 . S
O59 Zn47 1.924 . S
O59 C67 1.311 . S
O60 Zn51 1.977 . S
O60 C66 1.272 . S
O61 Zn51 1.910 . S
O61 C67 1.231 . S
C62 O46 1.225 . S
C62 O68 1.298 . S
C63 O52 1.226 . S
C63 O53 1.307 . S
C64 O56 1.303 . S
C64 O57 1.247 . S
C65 O54 1.253 . S
C65 O55 1.283 . S
C66 O58 1.304 . S
C66 O60 1.272 . S
C67 O59 1.311 . S
C67 O61 1.231 . S
O68 Zn50 1.953 . S
O68 C62 1.298 . S
O69 Cd70 2.300 . S
O69 C76 1.275 . S
Cd70 O69 2.300 . S
Cd70 O78 2.381 . S
Cd70 O79 2.378 . S
O71 Cd72 2.385 . S
O71 C76 1.255 1_565 S
Cd72 O71 2.385 . S
Cd72 O73 2.317 . S
O73 Cd72 2.317 . S
O73 C74 1.232 . S
C74 O73 1.232 . S
C74 O75 1.218 . S
O75 C74 1.218 . S
C76 O69 1.275 . S
C76 O71 1.255 1_545 S
C77 O78 1.258 . S
C77 O79 1.256 . S
O78 Cd70 2.381 . S
O78 C77 1.258 . S
O79 Cd70 2.378 . S
O79 C77 1.256 . S
O80 Cd81 2.300 . S
O80 C87 1.275 . S
Cd81 O80 2.300 . S
Cd81 O89 2.381 . S
Cd81 O90 2.378 . S
O82 Cd83 2.385 . S
O82 C87 1.255 . S
Cd83 O82 2.385 . S
Cd83 O84 2.317 . S
O84 Cd83 2.317 . S
O84 C85 1.232 . S
C85 O84 1.232 . S
C85 O86 1.218 . S
O86 C85 1.218 . S
C87 O80 1.275 . S
C87 O82 1.255 . S
C88 O89 1.258 . S
C88 O90 1.256 . S
O89 Cd81 2.381 . S
O89 C88 1.258 . S
O90 Cd81 2.378 . S
O90 C88 1.256 . S
O91 Cd92 2.300 . S
O91 C98 1.275 . S
Cd92 O91 2.300 . S
Cd92 O100 2.381 . S
Cd92 O101 2.378 . S
O93 Cd94 2.385 . S
O93 C98 1.255 1_655 S
Cd94 O93 2.385 . S
Cd94 O95 2.317 . S
O95 Cd94 2.317 . S
O95 C96 1.232 . S
C96 O95 1.232 . S
C96 O97 1.218 . S
O97 C96 1.218 . S
C98 O91 1.275 . S
C98 O93 1.255 1_455 S
C99 O100 1.258 . S
C99 O101 1.256 . S
O100 Cd92 2.381 . S
O100 C99 1.258 . S
O101 Cd92 2.378 . S
O101 C99 1.256 . S
O102 Cd103 2.300 . S
O102 C109 1.275 1_455 S
Cd103 O102 2.300 . S
Cd103 O111 2.381 . S
Cd103 O112 2.378 . S
O104 Cd105 2.385 . S
O104 C109 1.255 . S
Cd105 O104 2.385 . S
Cd105 O106 2.317 . S
O106 Cd105 2.317 . S
O106 C107 1.232 . S
C107 O106 1.232 . S
C107 O108 1.218 . S
O108 C107 1.218 . S
C109 O102 1.275 1_655 S
C109 O104 1.255 . S
C110 O111 1.258 . S
C110 O112 1.256 . S
O111 Cd103 2.381 . S
O111 C110 1.258 . S
O112 Cd103 2.378 . S
O112 C110 1.256 . S
O113 Cd114 2.300 . S
O113 C120 1.275 1_565 S
Cd114 O113 2.300 . S
Cd114 O122 2.381 . S
Cd114 O123 2.378 . S
O115 Cd116 2.385 . S
O115 C120 1.255 . S
Cd116 O115 2.385 . S
Cd116 O117 2.317 . S
O117 Cd116 2.317 . S
O117 C118 1.232 . S
C118 O117 1.232 . S
C118 O119 1.218 . S
O119 C118 1.218 . S
C120 O113 1.275 1_545 S
C120 O115 1.255 . S
C121 O122 1.258 . S
C121 O123 1.256 . S
O122 Cd114 2.381 . S
O122 C121 1.258 . S
O123 Cd114 2.378 . S
O123 C121 1.256 . S
O124 Cd125 2.300 . S
O124 C131 1.275 . S
Cd125 O124 2.300 . S
Cd125 O133 2.381 . S
Cd125 O134 2.378 . S
O126 Cd127 2.385 . S
O126 C131 1.255 . S
Cd127 O126 2.385 . S
Cd127 O128 2.317 . S
O128 Cd127 2.317 . S
O128 C129 1.232 . S
C129 O128 1.232 . S
C129 O130 1.218 . S
O130 C129 1.218 . S
C131 O124 1.275 . S
C131 O126 1.255 . S
C132 O133 1.258 . S
C132 O134 1.256 . S
O133 Cd125 2.381 . S
O133 C132 1.258 . S
O134 Cd125 2.378 . S
O134 C132 1.256 . S
H135 C147 0.930 . S
H136 C149 0.930 . S
H137 C150 0.930 . S
H138 C154 0.959 . S
H139 C154 0.959 . S
H140 C154 0.961 . S
H141 C155 0.960 . S
H142 C155 0.961 . S
H143 C155 0.959 . S
H144 C158 0.929 . S
H145 C159 0.931 . S
H146 C161 0.930 . S
C147 H135 0.930 . S
C147 C148 1.399 . S
C147 C152 1.399 . S
C148 C147 1.399 . S
C148 C149 1.376 . S
C149 H136 0.930 . S
C149 C148 1.376 . S
C149 C150 1.388 . S
C150 H137 0.930 . S
C150 C149 1.388 . S
C150 C151 1.390 . S
C151 C150 1.390 . S
C151 C152 1.394 . S
C151 C157 1.465 . S
C152 C147 1.399 . S
C152 C151 1.394 . S
C152 C153 1.516 . S
C153 C152 1.516 . S
C153 C154 1.502 . S
C153 C155 1.561 . S
C153 C156 1.526 . S
C154 H138 0.959 . S
C154 H139 0.959 . S
C154 H140 0.961 . S
C154 C153 1.502 . S
C155 H141 0.960 . S
C155 H142 0.961 . S
C155 H143 0.959 . S
C155 C153 1.561 . S
C156 C153 1.526 . S
C156 C157 1.396 . S
C156 C161 1.390 . S
C157 C151 1.465 . S
C157 C156 1.396 . S
C157 C158 1.399 . S
C158 H144 0.929 . S
C158 C157 1.399 . S
C158 C159 1.385 . S
C159 H145 0.931 . S
C159 C158 1.385 . S
C159 C160 1.389 . S
C160 C159 1.389 . S
C160 C161 1.387 . S
C161 H146 0.930 . S
C161 C156 1.390 . S
C161 C160 1.387 . S
H162 C174 0.930 . S
H163 C176 0.930 . S
H164 C177 0.930 . S
H165 C181 0.959 . S
H166 C181 0.959 . S
H167 C181 0.961 . S
H168 C182 0.960 . S
H169 C182 0.961 . S
H170 C182 0.959 . S
H171 C185 0.929 . S
H172 C186 0.931 . S
H173 C188 0.930 . S
C174 H162 0.930 . S
C174 C175 1.399 . S
C174 C179 1.399 . S
C175 C174 1.399 . S
C175 C176 1.376 . S
C176 H163 0.930 . S
C176 C175 1.376 . S
C176 C177 1.388 . S
C177 H164 0.930 . S
C177 C176 1.388 . S
C177 C178 1.390 . S
C178 C177 1.390 . S
C178 C179 1.394 . S
C178 C184 1.465 . S
C179 C174 1.399 . S
C179 C178 1.394 . S
C179 C180 1.516 . S
C180 C179 1.516 . S
C180 C181 1.502 . S
C180 C182 1.561 . S
C180 C183 1.526 . S
C181 H165 0.959 . S
C181 H166 0.959 . S
C181 H167 0.961 . S
C181 C180 1.502 . S
C182 H168 0.960 . S
C182 H169 0.961 . S
C182 H170 0.959 . S
C182 C180 1.561 . S
C183 C180 1.526 . S
C183 C184 1.396 . S
C183 C188 1.390 . S
C184 C178 1.465 . S
C184 C183 1.396 . S
C184 C185 1.399 . S
C185 H171 0.929 . S
C185 C184 1.399 . S
C185 C186 1.385 . S
C186 H172 0.931 . S
C186 C185 1.385 . S
C186 C187 1.389 . S
C187 C186 1.389 . S
C187 C188 1.387 . S
C188 H173 0.930 . S
C188 C183 1.390 . S
C188 C187 1.387 . S
H189 C201 0.930 . S
H190 C203 0.930 . S
H191 C204 0.930 . S
H192 C208 0.959 . S
H193 C208 0.959 . S
H194 C208 0.961 . S
H195 C209 0.960 . S
H196 C209 0.961 . S
H197 C209 0.959 . S
H198 C212 0.929 . S
H199 C213 0.931 . S
H200 C215 0.930 . S
C201 H189 0.930 . S
C201 C202 1.399 . S
C201 C206 1.399 . S
C202 C201 1.399 . S
C202 C203 1.376 . S
C203 H190 0.930 . S
C203 C202 1.376 . S
C203 C204 1.388 . S
C204 H191 0.930 . S
C204 C203 1.388 . S
C204 C205 1.390 . S
C205 C204 1.390 . S
C205 C206 1.394 . S
C205 C211 1.465 . S
C206 C201 1.399 . S
C206 C205 1.394 . S
C206 C207 1.516 . S
C207 C206 1.516 . S
C207 C208 1.502 . S
C207 C209 1.561 . S
C207 C210 1.526 . S
C208 H192 0.959 . S
C208 H193 0.959 . S
C208 H194 0.961 . S
C208 C207 1.502 . S
C209 H195 0.960 . S
C209 H196 0.961 . S
C209 H197 0.959 . S
C209 C207 1.561 . S
C210 C207 1.526 . S
C210 C211 1.396 . S
C210 C215 1.390 . S
C211 C205 1.465 . S
C211 C210 1.396 . S
C211 C212 1.399 . S
C212 H198 0.929 . S
C212 C211 1.399 . S
C212 C213 1.385 . S
C213 H199 0.931 . S
C213 C212 1.385 . S
C213 C214 1.389 . S
C214 C213 1.389 . S
C214 C215 1.387 . S
C215 H200 0.930 . S
C215 C210 1.390 . S
C215 C214 1.387 . S
H216 C228 0.930 . S
H217 C230 0.930 . S
H218 C231 0.930 . S
H219 C235 0.959 . S
H220 C235 0.959 . S
H221 C235 0.961 . S
H222 C236 0.960 . S
H223 C236 0.961 . S
H224 C236 0.959 . S
H225 C239 0.929 . S
H226 C240 0.931 . S
H227 C242 0.930 . S
C228 H216 0.930 . S
C228 C229 1.399 . S
C228 C233 1.399 . S
C229 C228 1.399 . S
C229 C230 1.376 . S
C230 H217 0.930 . S
C230 C229 1.376 . S
C230 C231 1.388 . S
C231 H218 0.930 . S
C231 C230 1.388 . S
C231 C232 1.390 . S
C232 C231 1.390 . S
C232 C233 1.394 . S
C232 C238 1.465 . S
C233 C228 1.399 . S
C233 C232 1.394 . S
C233 C234 1.516 . S
C234 C233 1.516 . S
C234 C235 1.502 . S
C234 C236 1.561 . S
C234 C237 1.526 . S
C235 H219 0.959 . S
C235 H220 0.959 . S
C235 H221 0.961 . S
C235 C234 1.502 . S
C236 H222 0.960 . S
C236 H223 0.961 . S
C236 H224 0.959 . S
C236 C234 1.561 . S
C237 C234 1.526 . S
C237 C238 1.396 . S
C237 C242 1.390 . S
C238 C232 1.465 . S
C238 C237 1.396 . S
C238 C239 1.399 . S
C239 H225 0.929 . S
C239 C238 1.399 . S
C239 C240 1.385 . S
C240 H226 0.931 . S
C240 C239 1.385 . S
C240 C241 1.389 . S
C241 C240 1.389 . S
C241 C242 1.387 . S
C242 H227 0.930 . S
C242 C237 1.390 . S
C242 C241 1.387 . S
H243 C255 0.930 . S
H244 C257 0.930 . S
H245 C258 0.930 . S
H246 C262 0.959 . S
H247 C262 0.959 . S
H248 C262 0.961 . S
H249 C263 0.960 . S
H250 C263 0.961 . S
H251 C263 0.959 . S
H252 C266 0.929 . S
H253 C267 0.931 . S
H254 C269 0.930 . S
C255 H243 0.930 . S
C255 C256 1.399 . S
C255 C260 1.399 . S
C256 C255 1.399 . S
C256 C257 1.376 . S
C257 H244 0.930 . S
C257 C256 1.376 . S
C257 C258 1.388 . S
C258 H245 0.930 . S
C258 C257 1.388 . S
C258 C259 1.390 . S
C259 C258 1.390 . S
C259 C260 1.394 . S
C259 C265 1.465 . S
C260 C255 1.399 . S
C260 C259 1.394 . S
C260 C261 1.516 . S
C261 C260 1.516 . S
C261 C262 1.502 . S
C261 C263 1.561 . S
C261 C264 1.526 . S
C262 H246 0.959 . S
C262 H247 0.959 . S
C262 H248 0.961 . S
C262 C261 1.502 . S
C263 H249 0.960 . S
C263 H250 0.961 . S
C263 H251 0.959 . S
C263 C261 1.561 . S
C264 C261 1.526 . S
C264 C265 1.396 . S
C264 C269 1.390 . S
C265 C259 1.465 . S
C265 C264 1.396 . S
C265 C266 1.399 . S
C266 H252 0.929 . S
C266 C265 1.399 . S
C266 C267 1.385 . S
C267 H253 0.931 . S
C267 C266 1.385 . S
C267 C268 1.389 . S
C268 C267 1.389 . S
C268 C269 1.387 . S
C269 H254 0.930 . S
C269 C264 1.390 . S
C269 C268 1.387 . S
H270 C282 0.930 . S
H271 C284 0.930 . S
H272 C285 0.930 . S
H273 C289 0.959 . S
H274 C289 0.959 . S
H275 C289 0.961 . S
H276 C290 0.960 . S
H277 C290 0.961 . S
H278 C290 0.959 . S
H279 C293 0.929 . S
H280 C294 0.931 . S
H281 C296 0.930 . S
C282 H270 0.930 . S
C282 C283 1.399 . S
C282 C287 1.399 . S
C283 C282 1.399 . S
C283 C284 1.376 . S
C284 H271 0.930 . S
C284 C283 1.376 . S
C284 C285 1.388 . S
C285 H272 0.930 . S
C285 C284 1.388 . S
C285 C286 1.390 . S
C286 C285 1.390 . S
C286 C287 1.394 . S
C286 C292 1.465 . S
C287 C282 1.399 . S
C287 C286 1.394 . S
C287 C288 1.516 . S
C288 C287 1.516 . S
C288 C289 1.502 . S
C288 C290 1.561 . S
C288 C291 1.526 . S
C289 H273 0.959 . S
C289 H274 0.959 . S
C289 H275 0.961 . S
C289 C288 1.502 . S
C290 H276 0.960 . S
C290 H277 0.961 . S
C290 H278 0.959 . S
C290 C288 1.561 . S
C291 C288 1.526 . S
C291 C292 1.396 . S
C291 C296 1.390 . S
C292 C286 1.465 . S
C292 C291 1.396 . S
C292 C293 1.399 . S
C293 H279 0.929 . S
C293 C292 1.399 . S
C293 C294 1.385 . S
C294 H280 0.931 . S
C294 C293 1.385 . S
C294 C295 1.389 . S
C295 C294 1.389 . S
C295 C296 1.387 . S
C296 H281 0.930 . S
C296 C291 1.390 . S
C296 C295 1.387 . S
H297 C309 0.930 . S
H298 C311 0.930 . S
H299 C312 0.930 . S
H300 C316 0.959 . S
H301 C316 0.959 . S
H302 C316 0.961 . S
H303 C317 0.960 . S
H304 C317 0.961 . S
H305 C317 0.959 . S
H306 C320 0.929 . S
H307 C321 0.931 . S
H308 C323 0.930 . S
C309 H297 0.930 . S
C309 C310 1.399 . S
C309 C314 1.399 . S
C310 C309 1.399 . S
C310 C311 1.376 . S
C311 H298 0.930 . S
C311 C310 1.376 . S
C311 C312 1.388 . S
C312 H299 0.930 . S
C312 C311 1.388 . S
C312 C313 1.390 . S
C313 C312 1.390 . S
C313 C314 1.394 . S
C313 C319 1.465 . S
C314 C309 1.399 . S
C314 C313 1.394 . S
C314 C315 1.516 . S
C315 C314 1.516 . S
C315 C316 1.502 . S
C315 C317 1.561 . S
C315 C318 1.526 . S
C316 H300 0.959 . S
C316 H301 0.959 . S
C316 H302 0.961 . S
C316 C315 1.502 . S
C317 H303 0.960 . S
C317 H304 0.961 . S
C317 H305 0.959 . S
C317 C315 1.561 . S
C318 C315 1.526 . S
C318 C319 1.396 . S
C318 C323 1.390 . S
C319 C313 1.465 . S
C319 C318 1.396 . S
C319 C320 1.399 . S
C320 H306 0.929 . S
C320 C319 1.399 . S
C320 C321 1.385 . S
C321 H307 0.931 . S
C321 C320 1.385 . S
C321 C322 1.389 . S
C322 C321 1.389 . S
C322 C323 1.387 . S
C323 H308 0.930 . S
C323 C318 1.390 . S
C323 C322 1.387 . S
H324 C336 0.930 . S
H325 C338 0.930 . S
H326 C339 0.930 . S
H327 C343 0.959 . S
H328 C343 0.959 . S
H329 C343 0.961 . S
H330 C344 0.960 . S
H331 C344 0.961 . S
H332 C344 0.959 . S
H333 C347 0.929 . S
H334 C348 0.931 . S
H335 C350 0.930 . S
C336 H324 0.930 . S
C336 C337 1.399 . S
C336 C341 1.399 . S
C337 C336 1.399 . S
C337 C338 1.376 . S
C338 H325 0.930 . S
C338 C337 1.376 . S
C338 C339 1.388 . S
C339 H326 0.930 . S
C339 C338 1.388 . S
C339 C340 1.390 . S
C340 C339 1.390 . S
C340 C341 1.394 . S
C340 C346 1.465 . S
C341 C336 1.399 . S
C341 C340 1.394 . S
C341 C342 1.516 . S
C342 C341 1.516 . S
C342 C343 1.502 . S
C342 C344 1.561 . S
C342 C345 1.526 . S
C343 H327 0.959 . S
C343 H328 0.959 . S
C343 H329 0.961 . S
C343 C342 1.502 . S
C344 H330 0.960 . S
C344 H331 0.961 . S
C344 H332 0.959 . S
C344 C342 1.561 . S
C345 C342 1.526 . S
C345 C346 1.396 . S
C345 C350 1.390 . S
C346 C340 1.465 . S
C346 C345 1.396 . S
C346 C347 1.399 . S
C347 H333 0.929 . S
C347 C346 1.399 . S
C347 C348 1.385 . S
C348 H334 0.931 . S
C348 C347 1.385 . S
C348 C349 1.389 . S
C349 C348 1.389 . S
C349 C350 1.387 . S
C350 H335 0.930 . S
C350 C345 1.390 . S
C350 C349 1.387 . S
H351 C363 0.930 . S
H352 C365 0.930 . S
H353 C366 0.930 . S
H354 C370 0.959 . S
H355 C370 0.959 . S
H356 C370 0.961 . S
H357 C371 0.960 . S
H358 C371 0.961 . S
H359 C371 0.959 . S
H360 C374 0.929 . S
H361 C375 0.931 . S
H362 C377 0.930 . S
C363 H351 0.930 . S
C363 C364 1.399 . S
C363 C368 1.399 . S
C364 C363 1.399 . S
C364 C365 1.376 . S
C365 H352 0.930 . S
C365 C364 1.376 . S
C365 C366 1.388 . S
C366 H353 0.930 . S
C366 C365 1.388 . S
C366 C367 1.390 . S
C367 C366 1.390 . S
C367 C368 1.394 . S
C367 C373 1.465 . S
C368 C363 1.399 . S
C368 C367 1.394 . S
C368 C369 1.516 . S
C369 C368 1.516 . S
C369 C370 1.502 . S
C369 C371 1.561 . S
C369 C372 1.526 . S
C370 H354 0.959 . S
C370 H355 0.959 . S
C370 H356 0.961 . S
C370 C369 1.502 . S
C371 H357 0.960 . S
C371 H358 0.961 . S
C371 H359 0.959 . S
C371 C369 1.561 . S
C372 C369 1.526 . S
C372 C373 1.396 . S
C372 C377 1.390 . S
C373 C367 1.465 . S
C373 C372 1.396 . S
C373 C374 1.399 . S
C374 H360 0.929 . S
C374 C373 1.399 . S
C374 C375 1.385 . S
C375 H361 0.931 . S
C375 C374 1.385 . S
C375 C376 1.389 . S
C376 C375 1.389 . S
C376 C377 1.387 . S
C377 H362 0.930 . S
C377 C372 1.390 . S
C377 C376 1.387 . S
H378 C390 0.930 . S
H379 C392 0.930 . S
H380 C393 0.930 . S
H381 C397 0.959 . S
H382 C397 0.959 . S
H383 C397 0.961 . S
H384 C398 0.960 . S
H385 C398 0.961 . S
H386 C398 0.959 . S
H387 C401 0.929 . S
H388 C402 0.931 . S
H389 C404 0.930 . S
C390 H378 0.930 . S
C390 C391 1.399 . S
C390 C395 1.399 . S
C391 C390 1.399 . S
C391 C392 1.376 . S
C392 H379 0.930 . S
C392 C391 1.376 . S
C392 C393 1.388 . S
C393 H380 0.930 . S
C393 C392 1.388 . S
C393 C394 1.390 . S
C394 C393 1.390 . S
C394 C395 1.394 . S
C394 C400 1.465 . S
C395 C390 1.399 . S
C395 C394 1.394 . S
C395 C396 1.516 . S
C396 C395 1.516 . S
C396 C397 1.502 . S
C396 C398 1.561 . S
C396 C399 1.526 . S
C397 H381 0.959 . S
C397 H382 0.959 . S
C397 H383 0.961 . S
C397 C396 1.502 . S
C398 H384 0.960 . S
C398 H385 0.961 . S
C398 H386 0.959 . S
C398 C396 1.561 . S
C399 C396 1.526 . S
C399 C400 1.396 . S
C399 C404 1.390 . S
C400 C394 1.465 . S
C400 C399 1.396 . S
C400 C401 1.399 . S
C401 H387 0.929 . S
C401 C400 1.399 . S
C401 C402 1.385 . S
C402 H388 0.931 . S
C402 C401 1.385 . S
C402 C403 1.389 . S
C403 C402 1.389 . S
C403 C404 1.387 . S
C404 H389 0.930 . S
C404 C399 1.390 . S
C404 C403 1.387 . S
H405 C417 0.930 . S
H406 C419 0.930 . S
H407 C420 0.930 . S
H408 C424 0.959 . S
H409 C424 0.959 . S
H410 C424 0.961 . S
H411 C425 0.960 . S
H412 C425 0.961 . S
H413 C425 0.959 . S
H414 C428 0.929 . S
H415 C429 0.931 . S
H416 C431 0.930 . S
C417 H405 0.930 . S
C417 C418 1.399 . S
C417 C422 1.399 . S
C418 C417 1.399 . S
C418 C419 1.376 . S
C419 H406 0.930 . S
C419 C418 1.376 . S
C419 C420 1.388 . S
C420 H407 0.930 . S
C420 C419 1.388 . S
C420 C421 1.390 . S
C421 C420 1.390 . S
C421 C422 1.394 . S
C421 C427 1.465 . S
C422 C417 1.399 . S
C422 C421 1.394 . S
C422 C423 1.516 . S
C423 C422 1.516 . S
C423 C424 1.502 . S
C423 C425 1.561 . S
C423 C426 1.526 . S
C424 H408 0.959 . S
C424 H409 0.959 . S
C424 H410 0.961 . S
C424 C423 1.502 . S
C425 H411 0.960 . S
C425 H412 0.961 . S
C425 H413 0.959 . S
C425 C423 1.561 . S
C426 C423 1.526 . S
C426 C427 1.396 . S
C426 C431 1.390 . S
C427 C421 1.465 . S
C427 C426 1.396 . S
C427 C428 1.399 . S
C428 H414 0.929 . S
C428 C427 1.399 . S
C428 C429 1.385 . S
C429 H415 0.931 . S
C429 C428 1.385 . S
C429 C430 1.389 . S
C430 C429 1.389 . S
C430 C431 1.387 . S
C431 H416 0.930 . S
C431 C426 1.390 . S
C431 C430 1.387 . S
H432 C444 0.930 . S
H433 C446 0.930 . S
H434 C447 0.930 . S
H435 C451 0.959 . S
H436 C451 0.959 . S
H437 C451 0.961 . S
H438 C452 0.960 . S
H439 C452 0.961 . S
H440 C452 0.959 . S
H441 C455 0.929 . S
H442 C456 0.931 . S
H443 C458 0.930 . S
C444 H432 0.930 . S
C444 C445 1.399 . S
C444 C449 1.399 . S
C445 C444 1.399 . S
C445 C446 1.376 . S
C446 H433 0.930 . S
C446 C445 1.376 . S
C446 C447 1.388 . S
C447 H434 0.930 . S
C447 C446 1.388 . S
C447 C448 1.390 . S
C448 C447 1.390 . S
C448 C449 1.394 . S
C448 C454 1.465 . S
C449 C444 1.399 . S
C449 C448 1.394 . S
C449 C450 1.516 . S
C450 C449 1.516 . S
C450 C451 1.502 . S
C450 C452 1.561 . S
C450 C453 1.526 . S
C451 H435 0.959 . S
C451 H436 0.959 . S
C451 H437 0.961 . S
C451 C450 1.502 . S
C452 H438 0.960 . S
C452 H439 0.961 . S
C452 H440 0.959 . S
C452 C450 1.561 . S
C453 C450 1.526 . S
C453 C454 1.396 . S
C453 C458 1.390 . S
C454 C448 1.465 . S
C454 C453 1.396 . S
C454 C455 1.399 . S
C455 H441 0.929 . S
C455 C454 1.399 . S
C455 C456 1.385 . S
C456 H442 0.931 . S
C456 C455 1.385 . S
C456 C457 1.389 . S
C457 C456 1.389 . S
C457 C458 1.387 . S
C458 H443 0.930 . S
C458 C453 1.390 . S
C458 C457 1.387 . S
H459 C471 0.930 . S
H460 C473 0.930 . S
H461 C474 0.930 . S
H462 C478 0.959 . S
H463 C478 0.959 . S
H464 C478 0.961 . S
H465 C479 0.960 . S
H466 C479 0.961 . S
H467 C479 0.959 . S
H468 C482 0.929 . S
H469 C483 0.931 . S
H470 C485 0.930 . S
C471 H459 0.930 . S
C471 C472 1.399 1_655 S
C471 C476 1.399 . S
C472 C471 1.399 1_455 S
C472 C473 1.376 . S
C473 H460 0.930 . S
C473 C472 1.376 . S
C473 C474 1.388 . S
C474 H461 0.930 . S
C474 C473 1.388 . S
C474 C475 1.390 . S
C475 C474 1.390 . S
C475 C476 1.394 1_455 S
C475 C481 1.465 . S
C476 C471 1.399 . S
C476 C475 1.394 1_655 S
C476 C477 1.516 . S
C477 C476 1.516 . S
C477 C478 1.502 . S
C477 C479 1.561 . S
C477 C480 1.526 . S
C478 H462 0.959 . S
C478 H463 0.959 . S
C478 H464 0.961 . S
C478 C477 1.502 . S
C479 H465 0.960 . S
C479 H466 0.961 . S
C479 H467 0.959 . S
C479 C477 1.561 . S
C480 C477 1.526 . S
C480 C481 1.396 1_655 S
C480 C485 1.390 1_554 S
C481 C475 1.465 . S
C481 C480 1.396 1_455 S
C481 C482 1.399 1_554 S
C482 H468 0.929 . S
C482 C481 1.399 1_556 S
C482 C483 1.385 . S
C483 H469 0.931 . S
C483 C482 1.385 . S
C483 C484 1.389 . S
C484 C483 1.389 . S
C484 C485 1.387 1_455 S
C485 H470 0.930 . S
C485 C480 1.390 1_556 S
C485 C484 1.387 1_655 S
H486 C498 0.930 . S
H487 C500 0.930 . S
H488 C501 0.930 . S
H489 C505 0.959 . S
H490 C505 0.959 . S
H491 C505 0.961 . S
H492 C506 0.960 . S
H493 C506 0.961 . S
H494 C506 0.959 . S
H495 C509 0.929 . S
H496 C510 0.931 . S
H497 C512 0.930 . S
C498 H486 0.930 . S
C498 C499 1.399 1_565 S
C498 C503 1.399 . S
C499 C498 1.399 1_545 S
C499 C500 1.376 . S
C500 H487 0.930 . S
C500 C499 1.376 . S
C500 C501 1.388 . S
C501 H488 0.930 . S
C501 C500 1.388 . S
C501 C502 1.390 . S
C502 C501 1.390 . S
C502 C503 1.394 1_545 S
C502 C508 1.465 . S
C503 C498 1.399 . S
C503 C502 1.394 1_565 S
C503 C504 1.516 . S
C504 C503 1.516 . S
C504 C505 1.502 . S
C504 C506 1.561 . S
C504 C507 1.526 . S
C505 H489 0.959 . S
C505 H490 0.959 . S
C505 H491 0.961 . S
C505 C504 1.502 . S
C506 H492 0.960 . S
C506 H493 0.961 . S
C506 H494 0.959 . S
C506 C504 1.561 . S
C507 C504 1.526 . S
C507 C508 1.396 1_565 S
C507 C512 1.390 . S
C508 C502 1.465 . S
C508 C507 1.396 1_545 S
C508 C509 1.399 . S
C509 H495 0.929 . S
C509 C508 1.399 . S
C509 C510 1.385 . S
C510 H496 0.931 . S
C510 C509 1.385 . S
C510 C511 1.389 . S
C511 C510 1.389 . S
C511 C512 1.387 1_545 S
C512 H497 0.930 . S
C512 C507 1.390 . S
C512 C511 1.387 1_565 S
H513 C525 0.930 . S
H514 C527 0.930 . S
H515 C528 0.930 . S
H516 C532 0.959 . S
H517 C532 0.959 . S
H518 C532 0.961 . S
H519 C533 0.960 . S
H520 C533 0.961 . S
H521 C533 0.959 . S
H522 C536 0.929 . S
H523 C537 0.931 . S
H524 C539 0.930 . S
C525 H513 0.930 . S
C525 C526 1.399 . S
C525 C530 1.399 . S
C526 C525 1.399 . S
C526 C527 1.376 . S
C527 H514 0.930 . S
C527 C526 1.376 . S
C527 C528 1.388 . S
C528 H515 0.930 . S
C528 C527 1.388 . S
C528 C529 1.390 . S
C529 C528 1.390 . S
C529 C530 1.394 . S
C529 C535 1.465 . S
C530 C525 1.399 . S
C530 C529 1.394 . S
C530 C531 1.516 . S
C531 C530 1.516 . S
C531 C532 1.502 . S
C531 C533 1.561 . S
C531 C534 1.526 . S
C532 H516 0.959 . S
C532 H517 0.959 . S
C532 H518 0.961 . S
C532 C531 1.502 . S
C533 H519 0.960 . S
C533 H520 0.961 . S
C533 H521 0.959 . S
C533 C531 1.561 . S
C534 C531 1.526 . S
C534 C535 1.396 . S
C534 C539 1.390 . S
C535 C529 1.465 . S
C535 C534 1.396 . S
C535 C536 1.399 . S
C536 H522 0.929 . S
C536 C535 1.399 . S
C536 C537 1.385 . S
C537 H523 0.931 . S
C537 C536 1.385 . S
C537 C538 1.389 . S
C538 C537 1.389 . S
C538 C539 1.387 . S
C539 H524 0.930 . S
C539 C534 1.390 . S
C539 C538 1.387 . S
H540 C552 0.930 . S
H541 C554 0.930 . S
H542 C555 0.930 . S
H543 C559 0.959 . S
H544 C559 0.959 . S
H545 C559 0.961 . S
H546 C560 0.960 . S
H547 C560 0.961 . S
H548 C560 0.959 . S
H549 C563 0.929 . S
H550 C564 0.931 . S
H551 C566 0.930 . S
C552 H540 0.930 . S
C552 C553 1.399 1_565 S
C552 C557 1.399 . S
C553 C552 1.399 1_545 S
C553 C554 1.376 . S
C554 H541 0.930 . S
C554 C553 1.376 . S
C554 C555 1.388 . S
C555 H542 0.930 . S
C555 C554 1.388 . S
C555 C556 1.390 . S
C556 C555 1.390 . S
C556 C557 1.394 1_545 S
C556 C562 1.465 . S
C557 C552 1.399 . S
C557 C556 1.394 1_565 S
C557 C558 1.516 . S
C558 C557 1.516 . S
C558 C559 1.502 . S
C558 C560 1.561 . S
C558 C561 1.526 . S
C559 H543 0.959 . S
C559 H544 0.959 . S
C559 H545 0.961 . S
C559 C558 1.502 . S
C560 H546 0.960 . S
C560 H547 0.961 . S
C560 H548 0.959 . S
C560 C558 1.561 . S
C561 C558 1.526 . S
C561 C562 1.396 1_565 S
C561 C566 1.390 . S
C562 C556 1.465 . S
C562 C561 1.396 1_545 S
C562 C563 1.399 . S
C563 H549 0.929 . S
C563 C562 1.399 . S
C563 C564 1.385 . S
C564 H550 0.931 . S
C564 C563 1.385 . S
C564 C565 1.389 . S
C565 C564 1.389 . S
C565 C566 1.387 1_545 S
C566 H551 0.930 . S
C566 C561 1.390 . S
C566 C565 1.387 1_565 S
H567 C579 0.930 . S
H568 C581 0.930 . S
H569 C582 0.930 . S
H570 C586 0.959 . S
H571 C586 0.959 . S
H572 C586 0.961 . S
H573 C587 0.960 . S
H574 C587 0.961 . S
H575 C587 0.959 . S
H576 C590 0.929 . S
H577 C591 0.931 . S
H578 C593 0.930 . S
C579 H567 0.930 . S
C579 C580 1.399 . S
C579 C584 1.399 . S
C580 C579 1.399 . S
C580 C581 1.376 . S
C581 H568 0.930 . S
C581 C580 1.376 . S
C581 C582 1.388 . S
C582 H569 0.930 . S
C582 C581 1.388 . S
C582 C583 1.390 . S
C583 C582 1.390 . S
C583 C584 1.394 . S
C583 C589 1.465 . S
C584 C579 1.399 . S
C584 C583 1.394 . S
C584 C585 1.516 . S
C585 C584 1.516 . S
C585 C586 1.502 . S
C585 C587 1.561 . S
C585 C588 1.526 . S
C586 H570 0.959 . S
C586 H571 0.959 . S
C586 H572 0.961 . S
C586 C585 1.502 . S
C587 H573 0.960 . S
C587 H574 0.961 . S
C587 H575 0.959 . S
C587 C585 1.561 . S
C588 C585 1.526 . S
C588 C589 1.396 . S
C588 C593 1.390 1_556 S
C589 C583 1.465 . S
C589 C588 1.396 . S
C589 C590 1.399 1_556 S
C590 H576 0.929 . S
C590 C589 1.399 1_554 S
C590 C591 1.385 . S
C591 H577 0.931 . S
C591 C590 1.385 . S
C591 C592 1.389 . S
C592 C591 1.389 . S
C592 C593 1.387 . S
C593 H578 0.930 . S
C593 C588 1.390 1_554 S
C593 C592 1.387 . S
H594 C606 0.930 . S
H595 C608 0.930 . S
H596 C609 0.930 . S
H597 C613 0.959 . S
H598 C613 0.959 . S
H599 C613 0.961 . S
H600 C614 0.960 . S
H601 C614 0.961 . S
H602 C614 0.959 . S
H603 C617 0.929 . S
H604 C618 0.931 . S
H605 C620 0.930 . S
C606 H594 0.930 . S
C606 C607 1.399 1_655 S
C606 C611 1.399 . S
C607 C606 1.399 1_455 S
C607 C608 1.376 . S
C608 H595 0.930 . S
C608 C607 1.376 . S
C608 C609 1.388 . S
C609 H596 0.930 . S
C609 C608 1.388 . S
C609 C610 1.390 . S
C610 C609 1.390 . S
C610 C611 1.394 1_455 S
C610 C616 1.465 . S
C611 C606 1.399 . S
C611 C610 1.394 1_655 S
C611 C612 1.516 . S
C612 C611 1.516 . S
C612 C613 1.502 . S
C612 C614 1.561 . S
C612 C615 1.526 . S
C613 H597 0.959 . S
C613 H598 0.959 . S
C613 H599 0.961 . S
C613 C612 1.502 . S
C614 H600 0.960 . S
C614 H601 0.961 . S
C614 H602 0.959 . S
C614 C612 1.561 . S
C615 C612 1.526 . S
C615 C616 1.396 1_655 S
C615 C620 1.390 . S
C616 C610 1.465 . S
C616 C615 1.396 1_455 S
C616 C617 1.399 . S
C617 H603 0.929 . S
C617 C616 1.399 . S
C617 C618 1.385 . S
C618 H604 0.931 . S
C618 C617 1.385 . S
C618 C619 1.389 1_455 S
C619 C618 1.389 1_655 S
C619 C620 1.387 . S
C620 H605 0.930 . S
C620 C615 1.390 . S
C620 C619 1.387 . S
C148 C20 1.366 . S
C160 C129 1.197 . S
C175 C41 1.445 . S
C187 C107 1.292 . S
C202 C64 1.155 . S
C214 C121 1.080 . S
C229 C19 1.102 . S
C241 C132 1.117 . S
C268 C110 1.132 . S
C256 C44 1.092 . S
C295 C118 1.284 . S
C283 C67 1.453 . S
C310 C43 1.364 . S
C322 C85 1.303 . S
C337 C66 1.355 . S
C349 C96 1.196 . S
C364 C21 1.433 . S
C376 C74 1.343 . S
C403 C88 1.061 . S
C391 C42 1.144 . S
C430 C99 1.160 . S
C418 C65 1.038 . S
C445 C18 1.101 . S
C457 C77 1.122 . S
C484 C98 1.391 . S
C472 C17 1.495 . S
C499 C39 1.488 . S
C511 C76 1.429 . S
C526 C62 1.505 . S
C538 C87 1.415 . S
C565 C120 1.404 . S
C553 C40 1.470 . S
C592 C131 1.380 . S
C580 C63 1.492 . S
C607 C16 1.494 . S
C619 C109 1.389 . S
