# Generated by pormake.
# Topology ocu, (6,8)-cn, num edge types: 1
# Building blocks:
#     Node 0, Type 0, BuildingBlock: KUMJIN_clean_sbu_1, # of connection points: 6
#     Node 1, Type 0, BuildingBlock: KUMJIN_clean_sbu_1, # of connection points: 6
#     Node 2, Type 0, BuildingBlock: KUMJIN_clean_sbu_1, # of connection points: 6
#     Node 3, Type 0, BuildingBlock: KUMJIN_clean_sbu_1, # of connection points: 6
#     Node 4, Type 0, BuildingBlock: KUMJIN_clean_sbu_1, # of connection points: 6
#     Node 5, Type 0, BuildingBlock: KUMJIN_clean_sbu_1, # of connection points: 6
#     Node 6, Type 0, BuildingBlock: KUMJIN_clean_sbu_1, # of connection points: 6
#     Node 7, Type 0, BuildingBlock: KUMJIN_clean_sbu_1, # of connection points: 6
#     Node 8, Type 1, BuildingBlock: VETTIZ_charged_sbu_0, # of connection points: 8
#     Node 9, Type 1, BuildingBlock: VETTIZ_charged_sbu_0, # of connection points: 8
#     Node 10, Type 1, BuildingBlock: VETTIZ_charged_sbu_0, # of connection points: 8
#     Node 11, Type 1, BuildingBlock: VETTIZ_charged_sbu_0, # of connection points: 8
#     Node 12, Type 1, BuildingBlock: VETTIZ_charged_sbu_0, # of connection points: 8
#     Node 13, Type 1, BuildingBlock: VETTIZ_charged_sbu_0, # of connection points: 8
#     Edge 14, Type (0, 1), BuildingBlock: UVAHIK_clean_linker_0, # of connection points: 2
#     Edge 15, Type (0, 1), BuildingBlock: UVAHIK_clean_linker_0, # of connection points: 2
#     Edge 16, Type (0, 1), BuildingBlock: UVAHIK_clean_linker_0, # of connection points: 2
#     Edge 17, Type (0, 1), BuildingBlock: UVAHIK_clean_linker_0, # of connection points: 2
#     Edge 18, Type (0, 1), BuildingBlock: UVAHIK_clean_linker_0, # of connection points: 2
#     Edge 19, Type (0, 1), BuildingBlock: UVAHIK_clean_linker_0, # of connection points: 2
#     Edge 20, Type (0, 1), BuildingBlock: UVAHIK_clean_linker_0, # of connection points: 2
#     Edge 21, Type (0, 1), BuildingBlock: UVAHIK_clean_linker_0, # of connection points: 2
#     Edge 22, Type (0, 1), BuildingBlock: UVAHIK_clean_linker_0, # of connection points: 2
#     Edge 23, Type (0, 1), BuildingBlock: UVAHIK_clean_linker_0, # of connection points: 2
#     Edge 24, Type (0, 1), BuildingBlock: UVAHIK_clean_linker_0, # of connection points: 2
#     Edge 25, Type (0, 1), BuildingBlock: UVAHIK_clean_linker_0, # of connection points: 2
#     Edge 26, Type (0, 1), BuildingBlock: UVAHIK_clean_linker_0, # of connection points: 2
#     Edge 27, Type (0, 1), BuildingBlock: UVAHIK_clean_linker_0, # of connection points: 2
#     Edge 28, Type (0, 1), BuildingBlock: UVAHIK_clean_linker_0, # of connection points: 2
#     Edge 29, Type (0, 1), BuildingBlock: UVAHIK_clean_linker_0, # of connection points: 2
#     Edge 30, Type (0, 1), BuildingBlock: UVAHIK_clean_linker_0, # of connection points: 2
#     Edge 31, Type (0, 1), BuildingBlock: UVAHIK_clean_linker_0, # of connection points: 2
#     Edge 32, Type (0, 1), BuildingBlock: UVAHIK_clean_linker_0, # of connection points: 2
#     Edge 33, Type (0, 1), BuildingBlock: UVAHIK_clean_linker_0, # of connection points: 2
#     Edge 34, Type (0, 1), BuildingBlock: UVAHIK_clean_linker_0, # of connection points: 2
#     Edge 35, Type (0, 1), BuildingBlock: UVAHIK_clean_linker_0, # of connection points: 2
#     Edge 36, Type (0, 1), BuildingBlock: UVAHIK_clean_linker_0, # of connection points: 2
#     Edge 37, Type (0, 1), BuildingBlock: UVAHIK_clean_linker_0, # of connection points: 2
#     Edge 38, Type (0, 1), BuildingBlock: UVAHIK_clean_linker_0, # of connection points: 2
#     Edge 39, Type (0, 1), BuildingBlock: UVAHIK_clean_linker_0, # of connection points: 2
#     Edge 40, Type (0, 1), BuildingBlock: UVAHIK_clean_linker_0, # of connection points: 2
#     Edge 41, Type (0, 1), BuildingBlock: UVAHIK_clean_linker_0, # of connection points: 2
#     Edge 42, Type (0, 1), BuildingBlock: UVAHIK_clean_linker_0, # of connection points: 2
#     Edge 43, Type (0, 1), BuildingBlock: UVAHIK_clean_linker_0, # of connection points: 2
#     Edge 44, Type (0, 1), BuildingBlock: UVAHIK_clean_linker_0, # of connection points: 2
#     Edge 45, Type (0, 1), BuildingBlock: UVAHIK_clean_linker_0, # of connection points: 2
#     Edge 46, Type (0, 1), BuildingBlock: UVAHIK_clean_linker_0, # of connection points: 2
#     Edge 47, Type (0, 1), BuildingBlock: UVAHIK_clean_linker_0, # of connection points: 2
#     Edge 48, Type (0, 1), BuildingBlock: UVAHIK_clean_linker_0, # of connection points: 2
#     Edge 49, Type (0, 1), BuildingBlock: UVAHIK_clean_linker_0, # of connection points: 2
#     Edge 50, Type (0, 1), BuildingBlock: UVAHIK_clean_linker_0, # of connection points: 2
#     Edge 51, Type (0, 1), BuildingBlock: UVAHIK_clean_linker_0, # of connection points: 2
#     Edge 52, Type (0, 1), BuildingBlock: UVAHIK_clean_linker_0, # of connection points: 2
#     Edge 53, Type (0, 1), BuildingBlock: UVAHIK_clean_linker_0, # of connection points: 2
#     Edge 54, Type (0, 1), BuildingBlock: UVAHIK_clean_linker_0, # of connection points: 2
#     Edge 55, Type (0, 1), BuildingBlock: UVAHIK_clean_linker_0, # of connection points: 2
#     Edge 56, Type (0, 1), BuildingBlock: UVAHIK_clean_linker_0, # of connection points: 2
#     Edge 57, Type (0, 1), BuildingBlock: UVAHIK_clean_linker_0, # of connection points: 2
#     Edge 58, Type (0, 1), BuildingBlock: UVAHIK_clean_linker_0, # of connection points: 2
#     Edge 59, Type (0, 1), BuildingBlock: UVAHIK_clean_linker_0, # of connection points: 2
#     Edge 60, Type (0, 1), BuildingBlock: UVAHIK_clean_linker_0, # of connection points: 2
#     Edge 61, Type (0, 1), BuildingBlock: UVAHIK_clean_linker_0, # of connection points: 2
# Relax obj value: 0.058
# Max RMSD: 0.136
# Mean RMSD: 0.097
data_MOF--net-ocu--node1-KUMJIN_clean_sbu_1--node2-VETTIZ_charged_sbu_0--edge1-UVAHIK_clean_linker_0
_symmetry_space_group_name_H-M    P1
_symmetry_Int_Tables_number       1
_symmetry_cell_setting            triclinic
loop_
_symmetry_equiv_pos_as_xyz
'x, y, z'
_cell_length_a     49.662022
_cell_length_b     50.039681
_cell_length_c     52.113587
_cell_angle_alpha  98.628569
_cell_angle_beta   82.044991
_cell_angle_gamma 101.76147
loop_
_atom_site_label
_atom_site_type_symbol
_atom_site_fract_x
_atom_site_fract_y
_atom_site_fract_z
_atom_type_partial_charge
Eu0 Eu 0.2383 0.2547 0.23131 0.0
C1 C 0.3067 0.32555 0.32189 0.0
N2 N 0.31683 0.31312 0.29854 0.0
C3 C 0.35388 0.35178 0.29423 0.0
C4 C 0.31967 0.35203 0.33207 0.0
C5 C 0.34046 0.32545 0.28497 0.0
C6 C 0.34334 0.36522 0.31778 0.0
C7 C 0.27283 0.32382 0.36038 0.0
C8 C 0.28349 0.31162 0.33595 0.0
C9 C 0.28551 0.35034 0.37034 0.0
C10 C 0.30882 0.36441 0.35623 0.0
Eu11 Eu 0.29217 0.26894 0.28507 0.0
N12 N 0.27095 0.28634 0.32548 0.0
C13 C 0.24971 0.30897 0.37405 0.0
C14 C 0.24938 0.27119 0.33925 0.0
C15 C 0.23812 0.28243 0.36356 0.0
H16 H 0.34933 0.31487 0.2672 0.0
H17 H 0.22062 0.27057 0.37422 0.0
H18 H 0.18137 0.20873 0.25009 0.0
H19 H 0.30817 0.25265 0.14113 0.0
H20 H 0.24082 0.25056 0.33143 0.0
H21 H 0.24088 0.31767 0.39287 0.0
H22 H 0.28848 0.27301 0.18404 0.0
H23 H 0.37249 0.36159 0.28333 0.0
H24 H 0.27751 0.36012 0.38902 0.0
H25 H 0.31845 0.3848 0.36428 0.0
H26 H 0.15863 0.16159 0.23489 0.0
H27 H 0.35387 0.38558 0.32495 0.0
H28 H 0.2883 0.20509 0.12338 0.0
N29 N 0.21387 0.21013 0.21874 0.0
C30 C 0.22388 0.19744 0.19545 0.0
C31 C 0.17712 0.17133 0.22377 0.0
C32 C 0.21105 0.17073 0.18573 0.0
C33 C 0.19035 0.1979 0.23254 0.0
C34 C 0.18764 0.15759 0.20038 0.0
N35 N 0.25907 0.23697 0.19086 0.0
C36 C 0.2801 0.25219 0.17656 0.0
C37 C 0.25705 0.19901 0.15644 0.0
C38 C 0.24669 0.21141 0.1809 0.0
C39 C 0.27969 0.21394 0.14223 0.0
C40 C 0.29106 0.24076 0.15221 0.0
H41 H 0.17723 0.13705 0.19357 0.0
H42 H 0.21217 0.13756 0.1539 0.0
H43 H 0.25239 0.16229 0.12832 0.0
O44 O 0.2339 0.28781 0.21 0.0
O45 O 0.27329 0.22903 0.22444 0.0
O46 O 0.31127 0.25263 0.24513 0.0
O47 O 0.2002 0.25347 0.21439 0.0
O48 O 0.26813 0.29508 0.23911 0.0
O49 O 0.30937 0.28743 0.2477 0.0
O50 O 0.29613 0.2355 0.30613 0.0
O51 O 0.25815 0.29553 0.29144 0.0
O52 O 0.21983 0.27207 0.27124 0.0
O53 O 0.33022 0.26956 0.30182 0.0
O54 O 0.26207 0.22852 0.27739 0.0
O55 O 0.22108 0.2369 0.26894 0.0
C56 C 0.29995 0.23339 0.22754 0.0
C57 C 0.18858 0.29632 0.21254 0.0
C58 C 0.16153 0.32663 0.19943 0.0
C59 C 0.14941 0.33066 0.22543 0.0
C60 C 0.17607 0.30057 0.23821 0.0
C61 C 0.15672 0.31777 0.24465 0.0
C62 C 0.1815 0.30958 0.19311 0.0
C63 C 0.29511 0.29886 0.23445 0.0
C64 C 0.20832 0.2774 0.20607 0.0
C65 C 0.22169 0.15813 0.16159 0.0
C66 C 0.24458 0.17223 0.14699 0.0
C67 C 0.23161 0.29182 0.28815 0.0
C68 C 0.34116 0.22624 0.30317 0.0
C69 C 0.36485 0.19248 0.31539 0.0
C70 C 0.37834 0.18991 0.28975 0.0
C71 C 0.35466 0.22301 0.27776 0.0
C72 C 0.34626 0.21097 0.32202 0.0
C73 C 0.37317 0.20497 0.27113 0.0
C74 C 0.23506 0.22487 0.2819 0.0
C75 C 0.32183 0.24554 0.30991 0.0
H76 H 0.13429 0.34393 0.23093 0.0
H77 H 0.18109 0.29024 0.25313 0.0
H78 H 0.14719 0.32093 0.26457 0.0
H79 H 0.19093 0.30609 0.17316 0.0
H80 H 0.39324 0.17643 0.28408 0.0
H81 H 0.35106 0.23466 0.26312 0.0
H82 H 0.33557 0.21327 0.34159 0.0
H83 H 0.38366 0.20276 0.2515 0.0
Eu84 Eu 0.74352 0.29171 0.26488 0.0
C85 C 0.83059 0.22167 0.20867 0.0
N86 N 0.803 0.21451 0.21608 0.0
C87 C 0.79656 0.18736 0.1747 0.0
C88 C 0.84213 0.21228 0.18351 0.0
C89 C 0.78606 0.19708 0.19986 0.0
C90 C 0.82469 0.19512 0.16642 0.0
C91 C 0.87596 0.24637 0.21903 0.0
C92 C 0.84724 0.23885 0.2262 0.0
C93 C 0.88747 0.23714 0.19393 0.0
C94 C 0.8706 0.22023 0.17621 0.0
Eu95 Eu 0.78744 0.23186 0.25883 0.0
N96 N 0.83543 0.24828 0.25013 0.0
C97 C 0.89228 0.26307 0.23728 0.0
C98 C 0.85151 0.26324 0.26842 0.0
C99 C 0.88002 0.27131 0.26217 0.0
H100 H 0.7646 0.19009 0.20647 0.0
H101 H 0.89257 0.28351 0.2767 0.0
H102 H 0.76295 0.33584 0.31663 0.0
H103 H 0.64217 0.22785 0.24857 0.0
H104 H 0.84278 0.26826 0.28812 0.0
H105 H 0.9144 0.26933 0.23251 0.0
H106 H 0.68942 0.25146 0.23566 0.0
H107 H 0.78302 0.17367 0.16182 0.0
H108 H 0.90944 0.24294 0.18804 0.0
H109 H 0.87982 0.21327 0.15692 0.0
H110 H 0.74357 0.35045 0.36162 0.0
H111 H 0.83278 0.18749 0.14691 0.0
H112 H 0.62089 0.2367 0.29407 0.0
N113 N 0.72642 0.30757 0.30758 0.0
C114 C 0.69974 0.29671 0.31563 0.0
C115 C 0.73108 0.33523 0.34893 0.0
C116 C 0.68787 0.30435 0.34115 0.0
C117 C 0.74207 0.32682 0.32356 0.0
C118 C 0.70391 0.32387 0.35782 0.0
N119 N 0.69685 0.26982 0.27411 0.0
C120 C 0.68137 0.25374 0.2559 0.0
C121 C 0.65715 0.26504 0.30663 0.0
C122 C 0.68469 0.27702 0.29858 0.0
C123 C 0.6421 0.24635 0.28865 0.0
C124 C 0.6541 0.24111 0.26301 0.0
H125 H 0.69551 0.3303 0.37758 0.0
H126 H 0.65122 0.29752 0.36893 0.0
H127 H 0.62427 0.26327 0.33869 0.0
O128 O 0.72411 0.30797 0.23629 0.0
O129 O 0.73978 0.26684 0.29893 0.0
O130 O 0.74332 0.22442 0.27758 0.0
O131 O 0.74184 0.33518 0.26912 0.0
O132 O 0.74058 0.25902 0.22907 0.0
O133 O 0.74504 0.21995 0.24501 0.0
O134 O 0.80248 0.21393 0.28926 0.0
O135 O 0.79686 0.25929 0.22624 0.0
O136 O 0.78664 0.30163 0.24438 0.0
O137 O 0.78754 0.18822 0.25435 0.0
O138 O 0.79314 0.26577 0.29324 0.0
O139 O 0.78583 0.30537 0.27944 0.0
C140 C 0.73383 0.24001 0.29776 0.0
C141 C 0.72105 0.35684 0.24042 0.0
C142 C 0.7071 0.38007 0.20787 0.0
C143 C 0.70842 0.40414 0.22576 0.0
C144 C 0.72207 0.38116 0.25799 0.0
C145 C 0.71569 0.40458 0.25069 0.0
C146 C 0.7131 0.3562 0.21533 0.0
C147 C 0.73598 0.23204 0.22815 0.0
C148 C 0.72904 0.33284 0.24855 0.0
C149 C 0.66065 0.29202 0.34933 0.0
C150 C 0.64534 0.27242 0.33214 0.0
C151 C 0.79973 0.28602 0.22659 0.0
C152 C 0.80282 0.16433 0.2849 0.0
C153 C 0.82 0.14107 0.31528 0.0
C154 C 0.81201 0.1158 0.3001 0.0
C155 C 0.79494 0.13875 0.26995 0.0
C156 C 0.81542 0.16544 0.30773 0.0
C157 C 0.79953 0.11468 0.27755 0.0
C158 C 0.79704 0.29283 0.2946 0.0
C159 C 0.79769 0.18937 0.27624 0.0
H160 H 0.70366 0.42263 0.22043 0.0
H161 H 0.72788 0.38215 0.27744 0.0
H162 H 0.71654 0.4232 0.26437 0.0
H163 H 0.7123 0.33763 0.20152 0.0
H164 H 0.8156 0.09692 0.30568 0.0
H165 H 0.7852 0.13726 0.2523 0.0
H166 H 0.82176 0.18497 0.31943 0.0
H167 H 0.79344 0.09512 0.26588 0.0
Eu168 Eu 0.7619 0.73624 0.28346 0.0
C169 C 0.82943 0.7985 0.1952 0.0
N170 N 0.8205 0.80881 0.21987 0.0
C171 C 0.86495 0.83753 0.22429 0.0
C172 C 0.85696 0.80694 0.1844 0.0
C173 C 0.83755 0.82844 0.23428 0.0
C174 C 0.87475 0.82664 0.19931 0.0
C175 C 0.82018 0.76717 0.15571 0.0
C176 C 0.8112 0.77871 0.18104 0.0
C177 C 0.84764 0.77544 0.14499 0.0
C178 C 0.86595 0.79527 0.15927 0.0
Eu179 Eu 0.77387 0.79238 0.2345 0.0
N180 N 0.78487 0.77049 0.19211 0.0
C181 C 0.80124 0.74772 0.14183 0.0
C182 C 0.76591 0.75306 0.17799 0.0
C183 C 0.77388 0.74094 0.1529 0.0
H184 H 0.82995 0.83758 0.25325 0.0
H185 H 0.75879 0.72674 0.14194 0.0
H186 H 0.71665 0.6804 0.26161 0.0
H187 H 0.7596 0.80091 0.3775 0.0
H188 H 0.7445 0.74919 0.18556 0.0
H189 H 0.80735 0.73835 0.12234 0.0
H190 H 0.77979 0.78431 0.33359 0.0
H191 H 0.87844 0.85304 0.23582 0.0
H192 H 0.85492 0.76667 0.12561 0.0
H193 H 0.88707 0.80141 0.1507 0.0
H194 H 0.67018 0.65525 0.27589 0.0
H195 H 0.89604 0.83365 0.19167 0.0
H196 H 0.71306 0.77813 0.39497 0.0
N197 N 0.7182 0.70988 0.29549 0.0
C198 C 0.70587 0.7177 0.31965 0.0
C199 C 0.67987 0.67292 0.28828 0.0
C200 C 0.67959 0.70356 0.32886 0.0
C201 C 0.70599 0.68748 0.28003 0.0
C202 C 0.66652 0.68109 0.31273 0.0
N203 N 0.74454 0.75378 0.32559 0.0
C204 C 0.75929 0.77477 0.34068 0.0
C205 C 0.70735 0.74847 0.36043 0.0
C206 C 0.71959 0.73994 0.3353 0.0
C207 C 0.7218 0.77091 0.37557 0.0
C208 C 0.74801 0.78393 0.36574 0.0
H209 H 0.6463 0.66971 0.31911 0.0
H210 H 0.64701 0.70161 0.36117 0.0
H211 H 0.67128 0.7409 0.38877 0.0
O212 O 0.79685 0.72912 0.30113 0.0
O213 O 0.73098 0.76585 0.29156 0.0
O214 O 0.7515 0.80581 0.27387 0.0
O215 O 0.76145 0.69649 0.29599 0.0
O216 O 0.80012 0.77029 0.28455 0.0
O217 O 0.78817 0.80893 0.27394 0.0
O218 O 0.74621 0.80683 0.21181 0.0
O219 O 0.80565 0.76393 0.23195 0.0
O220 O 0.77944 0.72298 0.24192 0.0
O221 O 0.78168 0.83494 0.22749 0.0
O222 O 0.73351 0.76079 0.23486 0.0
O223 O 0.74557 0.72169 0.24446 0.0
C224 C 0.73263 0.79218 0.28988 0.0
C225 C 0.80488 0.68381 0.29204 0.0
C226 C 0.83845 0.65658 0.29813 0.0
C227 C 0.84043 0.64725 0.2712 0.0
C228 C 0.80689 0.67396 0.26536 0.0
C229 C 0.82471 0.65591 0.25497 0.0
C230 C 0.82057 0.67503 0.30846 0.0
C231 C 0.80227 0.79714 0.28696 0.0
C232 C 0.78645 0.70322 0.30268 0.0
C233 C 0.66724 0.71218 0.35382 0.0
C234 C 0.68108 0.73454 0.36955 0.0
C235 C 0.80099 0.73684 0.22887 0.0
C236 C 0.7547 0.8551 0.20318 0.0
C237 C 0.72577 0.87566 0.18063 0.0
C238 C 0.74481 0.90056 0.18282 0.0
C239 C 0.77349 0.8803 0.20514 0.0
C240 C 0.73064 0.85282 0.19086 0.0
C241 C 0.76851 0.90284 0.19505 0.0
C242 C 0.72993 0.73381 0.23335 0.0
C243 C 0.76071 0.83176 0.21423 0.0
H244 H 0.85369 0.63275 0.26275 0.0
H245 H 0.79441 0.68001 0.25267 0.0
H246 H 0.82614 0.64838 0.23434 0.0
H247 H 0.81898 0.68265 0.32912 0.0
H248 H 0.7413 0.91828 0.17499 0.0
H249 H 0.79217 0.88266 0.21447 0.0
H250 H 0.71596 0.83356 0.1891 0.0
H251 H 0.78311 0.92212 0.19667 0.0
Eu252 Eu 0.23427 0.78088 0.26572 0.0
C253 C 0.30966 0.71333 0.30613 0.0
N254 N 0.31486 0.73898 0.29866 0.0
C255 C 0.34141 0.75639 0.33474 0.0
C256 C 0.31948 0.7085 0.32884 0.0
C257 C 0.33169 0.76009 0.31185 0.0
C258 C 0.33498 0.73058 0.34348 0.0
C259 C 0.29075 0.66451 0.29711 0.0
C260 C 0.29538 0.69151 0.29049 0.0
C261 C 0.29991 0.65982 0.32005 0.0
C262 C 0.31415 0.68176 0.33591 0.0
Eu263 Eu 0.29616 0.74256 0.26019 0.0
N264 N 0.28612 0.69662 0.26874 0.0
C265 C 0.27724 0.64296 0.28033 0.0
C266 C 0.27407 0.67562 0.25169 0.0
C267 C 0.26916 0.64853 0.25736 0.0
H268 H 0.33834 0.77972 0.3046 0.0
H269 H 0.25931 0.63195 0.24395 0.0
H270 H 0.21138 0.75631 0.2079 0.0
H271 H 0.26995 0.88781 0.30686 0.0
H272 H 0.26838 0.67966 0.23361 0.0
H273 H 0.2734 0.62193 0.28469 0.0
H274 H 0.25164 0.83872 0.30871 0.0
H275 H 0.35429 0.77335 0.34536 0.0
H276 H 0.29635 0.63924 0.32555 0.0
H277 H 0.32142 0.67773 0.35336 0.0
H278 H 0.21061 0.77294 0.16563 0.0
H279 H 0.34282 0.72771 0.36107 0.0
H280 H 0.27572 0.90691 0.26492 0.0
N281 N 0.23223 0.79481 0.22507 0.0
C282 C 0.24157 0.82197 0.22298 0.0
C283 C 0.2196 0.78685 0.1815 0.0
C284 C 0.24154 0.83234 0.1993 0.0
C285 C 0.22018 0.77745 0.20532 0.0
C286 C 0.23066 0.81433 0.17835 0.0
N287 N 0.24971 0.82904 0.26764 0.0
C288 C 0.25522 0.84627 0.29 0.0
C289 C 0.26063 0.86769 0.24294 0.0
C290 C 0.25104 0.83941 0.24466 0.0
C291 C 0.26827 0.88506 0.26545 0.0
C292 C 0.26512 0.87436 0.28914 0.0
H293 H 0.23027 0.82154 0.15984 0.0
H294 H 0.25244 0.8686 0.17923 0.0
H295 H 0.26911 0.89953 0.21739 0.0
O296 O 0.20037 0.80316 0.2769 0.0
O297 O 0.26678 0.78014 0.22988 0.0
O298 O 0.30457 0.78591 0.25062 0.0
O299 O 0.19138 0.75885 0.26939 0.0
O300 O 0.25946 0.79319 0.30087 0.0
O301 O 0.30251 0.78587 0.28185 0.0
O302 O 0.31621 0.7372 0.22075 0.0
O303 O 0.25569 0.72315 0.28202 0.0
O304 O 0.23758 0.76089 0.30118 0.0
O305 O 0.33798 0.73375 0.25302 0.0
O306 O 0.26688 0.72768 0.22834 0.0
O307 O 0.225 0.73644 0.24894 0.0
C308 C 0.29279 0.79128 0.23169 0.0
C309 C 0.16671 0.77998 0.3054 0.0
C310 C 0.16688 0.79686 0.35163 0.0
C311 C 0.13801 0.78697 0.35507 0.0
C312 C 0.1382 0.77032 0.30892 0.0
C313 C 0.12402 0.77306 0.33396 0.0
C314 C 0.18111 0.79078 0.32701 0.0
C315 C 0.28661 0.79761 0.30062 0.0
C316 C 0.18186 0.78091 0.27941 0.0
C317 C 0.25203 0.86029 0.19735 0.0
C318 C 0.26158 0.8779 0.21908 0.0
C319 C 0.2398 0.73509 0.30059 0.0
C320 C 0.3412 0.70152 0.21536 0.0
C321 C 0.33311 0.66467 0.17961 0.0
C322 C 0.34644 0.64855 0.1919 0.0
C323 C 0.35438 0.68525 0.22741 0.0
C324 C 0.33033 0.69092 0.19173 0.0
C325 C 0.35679 0.65878 0.21574 0.0
C326 C 0.2396 0.72286 0.23069 0.0
C327 C 0.33689 0.72877 0.22789 0.0
H328 H 0.12575 0.79117 0.37351 0.0
H329 H 0.12695 0.76128 0.29237 0.0
H330 H 0.10187 0.76588 0.33676 0.0
H331 H 0.20342 0.79647 0.32397 0.0
H332 H 0.34977 0.62843 0.18274 0.0
H333 H 0.36259 0.69285 0.24589 0.0
H334 H 0.31964 0.70321 0.18265 0.0
H335 H 0.36709 0.64632 0.22499 0.0
Eu336 Eu 0.24144 0.78819 0.76481 0.0
C337 C 0.33047 0.72098 0.7036 0.0
N338 N 0.30312 0.71362 0.71206 0.0
C339 C 0.29552 0.68603 0.67099 0.0
C340 C 0.34111 0.71197 0.67796 0.0
C341 C 0.28597 0.69536 0.6966 0.0
C342 C 0.32313 0.69466 0.6615 0.0
C343 C 0.37655 0.74505 0.71264 0.0
C344 C 0.34811 0.7371 0.72079 0.0
C345 C 0.38701 0.73665 0.68694 0.0
C346 C 0.36936 0.72011 0.66968 0.0
Eu347 Eu 0.28953 0.73034 0.75589 0.0
N348 N 0.33731 0.74567 0.74533 0.0
C349 C 0.39356 0.76154 0.73048 0.0
C350 C 0.35398 0.76058 0.76315 0.0
C351 C 0.38223 0.76918 0.75591 0.0
H352 H 0.26524 0.68702 0.70415 0.0
H353 H 0.39527 0.78146 0.77002 0.0
H354 H 0.26189 0.82887 0.8181 0.0
H355 H 0.14166 0.72073 0.74904 0.0
H356 H 0.34567 0.76556 0.78302 0.0
H357 H 0.41546 0.76825 0.7249 0.0
H358 H 0.18788 0.74637 0.73578 0.0
H359 H 0.28169 0.6718 0.65876 0.0
H360 H 0.40876 0.74273 0.68026 0.0
H361 H 0.37782 0.71353 0.64999 0.0
H362 H 0.24361 0.83998 0.86423 0.0
H363 H 0.33052 0.68725 0.6417 0.0
H364 H 0.12149 0.72687 0.79517 0.0
N365 N 0.22575 0.80014 0.8088 0.0
C366 C 0.19945 0.78822 0.81698 0.0
C367 C 0.23105 0.8253 0.85119 0.0
C368 C 0.18819 0.79392 0.84311 0.0
C369 C 0.24143 0.81886 0.82517 0.0
C370 C 0.20436 0.81269 0.86024 0.0
N371 N 0.1958 0.76389 0.77433 0.0
C372 C 0.18032 0.74779 0.75614 0.0
C373 C 0.15732 0.75589 0.80775 0.0
C374 C 0.18427 0.76927 0.79942 0.0
C375 C 0.14224 0.73758 0.78953 0.0
C376 C 0.15363 0.73388 0.76353 0.0
H377 H 0.19644 0.81757 0.88048 0.0
H378 H 0.15256 0.78432 0.87149 0.0
H379 H 0.12554 0.7511 0.84057 0.0
O380 O 0.21361 0.80669 0.7467 0.0
O381 O 0.24268 0.7626 0.7971 0.0
O382 O 0.24516 0.72112 0.77374 0.0
O383 O 0.24537 0.83298 0.76939 0.0
O384 O 0.23859 0.75754 0.72797 0.0
O385 O 0.2479 0.71803 0.73975 0.0
O386 O 0.30291 0.71299 0.78787 0.0
O387 O 0.30725 0.76763 0.73455 0.0
O388 O 0.27215 0.78977 0.72871 0.0
O389 O 0.29448 0.68806 0.75053 0.0
O390 O 0.29507 0.76435 0.79029 0.0
O391 O 0.28501 0.80289 0.77638 0.0
C392 C 0.23595 0.73578 0.79472 0.0
C393 C 0.21589 0.85602 0.75025 0.0
C394 C 0.19761 0.88063 0.7217 0.0
C395 C 0.19753 0.90289 0.74155 0.0
C396 C 0.21593 0.87858 0.76978 0.0
C397 C 0.20667 0.90185 0.76545 0.0
C398 C 0.20668 0.85703 0.72609 0.0
C399 C 0.2371 0.73073 0.72451 0.0
C400 C 0.22511 0.83152 0.75549 0.0
C401 C 0.16149 0.78036 0.85143 0.0
C402 C 0.14614 0.76136 0.83383 0.0
C403 C 0.2972 0.78432 0.72278 0.0
C404 C 0.30834 0.66433 0.78181 0.0
C405 C 0.3285 0.64188 0.81075 0.0
C406 C 0.32271 0.61691 0.79441 0.0
C407 C 0.30255 0.63902 0.76582 0.0
C408 C 0.32102 0.66562 0.8046 0.0
C409 C 0.30964 0.6155 0.77217 0.0
C410 C 0.29837 0.79133 0.79063 0.0
C411 C 0.30206 0.68909 0.77357 0.0
H412 H 0.19049 0.92117 0.73847 0.0
H413 H 0.22279 0.87806 0.78852 0.0
H414 H 0.20657 0.91913 0.78066 0.0
H415 H 0.20664 0.83972 0.71083 0.0
H416 H 0.3283 0.59844 0.79893 0.0
H417 H 0.29272 0.63736 0.7482 0.0
H418 H 0.32583 0.68501 0.81698 0.0
H419 H 0.30521 0.59616 0.75969 0.0
Eu420 Eu 0.2583 0.22891 0.78803 0.0
C421 C 0.32794 0.29457 0.70112 0.0
N422 N 0.31886 0.30371 0.7261 0.0
C423 C 0.36293 0.33292 0.73133 0.0
C424 C 0.35535 0.30392 0.6905 0.0
C425 C 0.33566 0.32296 0.74108 0.0
C426 C 0.37287 0.32327 0.70596 0.0
C427 C 0.31916 0.26472 0.66071 0.0
C428 C 0.30999 0.27507 0.68641 0.0
C429 C 0.34648 0.27395 0.65014 0.0
C430 C 0.36449 0.2935 0.66496 0.0
Eu431 Eu 0.27231 0.28632 0.74026 0.0
N432 N 0.28379 0.26592 0.69733 0.0
C433 C 0.30055 0.24544 0.64633 0.0
C434 C 0.26513 0.24857 0.68279 0.0
C435 C 0.27332 0.2376 0.65732 0.0
H436 H 0.32786 0.33124 0.7603 0.0
H437 H 0.25848 0.22348 0.64602 0.0
H438 H 0.20439 0.18202 0.76713 0.0
H439 H 0.26963 0.29006 0.88331 0.0
H440 H 0.24376 0.24384 0.69031 0.0
H441 H 0.30681 0.23697 0.62654 0.0
H442 H 0.28508 0.27157 0.83856 0.0
H443 H 0.37619 0.34817 0.7433 0.0
H444 H 0.35388 0.26612 0.63046 0.0
H445 H 0.38551 0.30038 0.65651 0.0
H446 H 0.15635 0.16321 0.78353 0.0
H447 H 0.39406 0.33097 0.69848 0.0
H448 H 0.22165 0.27416 0.90252 0.0
N449 N 0.21221 0.20935 0.80172 0.0
C450 C 0.20262 0.21774 0.82675 0.0
C451 C 0.16905 0.17871 0.7958 0.0
C452 C 0.1754 0.20721 0.83708 0.0
C453 C 0.19614 0.18975 0.78638 0.0
C454 C 0.15857 0.18758 0.82122 0.0
N455 N 0.24582 0.24783 0.83124 0.0
C456 C 0.26387 0.26564 0.84607 0.0
C457 C 0.21028 0.24684 0.86779 0.0
C458 C 0.21989 0.23745 0.84193 0.0
C459 C 0.22825 0.26643 0.88258 0.0
C460 C 0.25527 0.27562 0.87175 0.0
H461 H 0.13754 0.179 0.82846 0.0
H462 H 0.1449 0.20889 0.87101 0.0
H463 H 0.17542 0.2435 0.89787 0.0
O464 O 0.28841 0.2142 0.8077 0.0
O465 O 0.22695 0.25829 0.79426 0.0
O466 O 0.25119 0.2989 0.78048 0.0
O467 O 0.25183 0.1862 0.79402 0.0
O468 O 0.29816 0.26085 0.78983 0.0
O469 O 0.28665 0.30014 0.7801 0.0
O470 O 0.24457 0.30248 0.71867 0.0
O471 O 0.30393 0.25754 0.73613 0.0
O472 O 0.27802 0.21662 0.747 0.0
O473 O 0.28046 0.32915 0.73493 0.0
O474 O 0.23189 0.25493 0.73893 0.0
O475 O 0.24358 0.21564 0.74837 0.0
C476 C 0.23032 0.28518 0.79449 0.0
C477 C 0.28152 0.16544 0.81464 0.0
C478 C 0.31163 0.14482 0.83573 0.0
C479 C 0.2948 0.11896 0.83039 0.0
C480 C 0.26487 0.13929 0.80962 0.0
C481 C 0.27153 0.11626 0.81744 0.0
C482 C 0.30502 0.16819 0.82789 0.0
C483 C 0.3015 0.28782 0.79185 0.0
C484 C 0.27406 0.18918 0.80546 0.0
C485 C 0.16578 0.21669 0.86278 0.0
C486 C 0.18316 0.23643 0.87807 0.0
C487 C 0.29949 0.23047 0.73381 0.0
C488 C 0.2549 0.35154 0.71156 0.0
C489 C 0.22725 0.37551 0.69092 0.0
C490 C 0.24859 0.39876 0.69185 0.0
C491 C 0.27595 0.37511 0.71212 0.0
C492 C 0.23028 0.35182 0.70101 0.0
C493 C 0.27272 0.39853 0.70242 0.0
C494 C 0.22816 0.22793 0.73731 0.0
C495 C 0.25966 0.32711 0.72173 0.0
H496 H 0.29967 0.10084 0.8364 0.0
H497 H 0.24667 0.13651 0.79949 0.0
H498 H 0.25861 0.09624 0.81343 0.0
H499 H 0.31804 0.18818 0.83202 0.0
H500 H 0.24652 0.41723 0.68438 0.0
H501 H 0.29514 0.37549 0.71996 0.0
H502 H 0.21391 0.3338 0.7003 0.0
H503 H 0.28905 0.41654 0.70299 0.0
Eu504 Eu 0.73872 0.28103 0.76091 0.0
C505 C 0.80073 0.20698 0.80356 0.0
N506 N 0.81034 0.23195 0.79508 0.0
C507 C 0.8368 0.24659 0.8315 0.0
C508 C 0.80809 0.20132 0.82712 0.0
C509 C 0.82886 0.2513 0.80814 0.0
C510 C 0.8262 0.22156 0.84115 0.0
C511 C 0.77139 0.16179 0.79831 0.0
C512 C 0.78288 0.18725 0.78902 0.0
C513 C 0.77878 0.15612 0.82169 0.0
C514 C 0.79713 0.17577 0.836 0.0
Eu515 Eu 0.7974 0.23747 0.75469 0.0
N516 N 0.77565 0.19342 0.7666 0.0
C517 C 0.75223 0.14297 0.78419 0.0
C518 C 0.75629 0.17538 0.75333 0.0
C519 C 0.74449 0.14992 0.76173 0.0
H520 H 0.83821 0.27009 0.80024 0.0
H521 H 0.72914 0.1358 0.75102 0.0
H522 H 0.68433 0.2499 0.72858 0.0
H523 H 0.78611 0.39002 0.77347 0.0
H524 H 0.74903 0.18062 0.7368 0.0
H525 H 0.74287 0.12329 0.79076 0.0
H526 H 0.77504 0.34239 0.78398 0.0
H527 H 0.85134 0.26213 0.84186 0.0
H528 H 0.77018 0.13665 0.82902 0.0
H529 H 0.80255 0.1711 0.85405 0.0
H530 H 0.65898 0.25936 0.69433 0.0
H531 H 0.83239 0.21795 0.85929 0.0
H532 H 0.7657 0.40239 0.7372 0.0
N533 N 0.71184 0.28856 0.72969 0.0
C534 C 0.71794 0.31397 0.72179 0.0
C535 C 0.67565 0.27483 0.70173 0.0
C536 C 0.70365 0.32048 0.70269 0.0
C537 C 0.69017 0.26947 0.72095 0.0
C538 C 0.68273 0.30029 0.69224 0.0
N539 N 0.75 0.32744 0.75301 0.0
C540 C 0.76646 0.34734 0.76781 0.0
C541 C 0.74269 0.3612 0.72762 0.0
C542 C 0.73724 0.33409 0.73409 0.0
C543 C 0.76097 0.38134 0.74159 0.0
C544 C 0.77259 0.37445 0.76204 0.0
H545 H 0.67132 0.30447 0.67747 0.0
H546 H 0.69942 0.3524 0.68047 0.0
H547 H 0.73361 0.38806 0.7023 0.0
O548 O 0.72436 0.28414 0.80234 0.0
O549 O 0.77891 0.29927 0.73876 0.0
O550 O 0.79692 0.26097 0.72036 0.0
O551 O 0.69815 0.29105 0.77489 0.0
O552 O 0.77001 0.29328 0.79097 0.0
O553 O 0.81026 0.28236 0.76878 0.0
O554 O 0.82339 0.20829 0.73623 0.0
O555 O 0.76452 0.23907 0.78965 0.0
O556 O 0.72856 0.23656 0.76709 0.0
O557 O 0.84223 0.25025 0.74933 0.0
O558 O 0.77111 0.22202 0.72081 0.0
O559 O 0.73336 0.2447 0.72879 0.0
C560 C 0.79461 0.28677 0.72049 0.0
C561 C 0.70137 0.32099 0.81416 0.0
C562 C 0.70598 0.35064 0.8553 0.0
C563 C 0.7023 0.37278 0.84307 0.0
C564 C 0.69791 0.34325 0.8022 0.0
C565 C 0.69858 0.36908 0.81665 0.0
C566 C 0.70595 0.32495 0.84041 0.0
C567 C 0.79719 0.29694 0.78747 0.0
C568 C 0.70292 0.29412 0.7992 0.0
C569 C 0.71 0.34711 0.6953 0.0
C570 C 0.72943 0.36743 0.70776 0.0
C571 C 0.73822 0.23032 0.78698 0.0
C572 C 0.86007 0.23064 0.70893 0.0
C573 C 0.85908 0.22222 0.66165 0.0
C574 C 0.8874 0.23486 0.65881 0.0
C575 C 0.88804 0.24274 0.70571 0.0
C576 C 0.84537 0.22255 0.68712 0.0
C577 C 0.90144 0.24553 0.68068 0.0
C578 C 0.74734 0.22646 0.71507 0.0
C579 C 0.84568 0.22733 0.73503 0.0
H580 H 0.70121 0.39277 0.85401 0.0
H581 H 0.69498 0.34086 0.78172 0.0
H582 H 0.69574 0.38617 0.80746 0.0
H583 H 0.70943 0.30781 0.8492 0.0
H584 H 0.89951 0.23553 0.63999 0.0
H585 H 0.89942 0.25004 0.72249 0.0
H586 H 0.82329 0.21558 0.6904 0.0
H587 H 0.92315 0.25487 0.67816 0.0
Eu588 Eu 0.74098 0.75504 0.73263 0.0
C589 C 0.79944 0.81603 0.829 0.0
N590 N 0.80889 0.80988 0.80342 0.0
C591 C 0.83515 0.85563 0.80265 0.0
C592 C 0.80682 0.84279 0.84209 0.0
C593 C 0.82718 0.82889 0.7904 0.0
C594 C 0.82477 0.86269 0.82853 0.0
C595 C 0.77101 0.80174 0.86822 0.0
C596 C 0.78174 0.79563 0.84198 0.0
C597 C 0.77813 0.82847 0.88118 0.0
C598 C 0.79603 0.84889 0.86819 0.0
Eu599 Eu 0.79519 0.76384 0.78546 0.0
N600 N 0.77484 0.76994 0.82893 0.0
C601 C 0.7535 0.78075 0.88073 0.0
C602 C 0.75898 0.74912 0.84139 0.0
C603 C 0.74768 0.75426 0.86732 0.0
H604 H 0.83617 0.82351 0.77074 0.0
H605 H 0.73482 0.73771 0.87705 0.0
H606 H 0.68682 0.70537 0.75196 0.0
H607 H 0.79738 0.7615 0.63613 0.0
H608 H 0.75574 0.72838 0.8317 0.0
H609 H 0.74481 0.78465 0.90087 0.0
H610 H 0.78105 0.77874 0.68155 0.0
H611 H 0.84949 0.87073 0.79218 0.0
H612 H 0.77001 0.83354 0.90133 0.0
H613 H 0.80138 0.86937 0.87852 0.0
H614 H 0.66798 0.65699 0.73761 0.0
H615 H 0.83096 0.88346 0.83794 0.0
H616 H 0.78253 0.71248 0.61914 0.0
N617 N 0.71917 0.70899 0.72036 0.0
C618 C 0.72892 0.69723 0.69654 0.0
C619 C 0.68541 0.66792 0.72607 0.0
C620 C 0.71779 0.66986 0.68701 0.0
C621 C 0.69665 0.69528 0.73443 0.0
C622 C 0.69633 0.65499 0.70246 0.0
N623 N 0.75869 0.73963 0.69012 0.0
C624 C 0.77494 0.75729 0.67421 0.0
C625 C 0.75738 0.70242 0.65506 0.0
C626 C 0.74871 0.71317 0.68075 0.0
C627 C 0.77548 0.71995 0.63903 0.0
C628 C 0.78397 0.74763 0.64854 0.0
H629 H 0.68728 0.63391 0.69585 0.0
H630 H 0.71944 0.6375 0.65446 0.0
H631 H 0.75395 0.66607 0.62644 0.0
O632 O 0.73437 0.79117 0.71703 0.0
O633 O 0.78205 0.73944 0.71952 0.0
O634 O 0.79 0.72482 0.75665 0.0
O635 O 0.70306 0.75437 0.71555 0.0
O636 O 0.77174 0.79428 0.74158 0.0
O637 O 0.81171 0.78177 0.7475 0.0
O638 O 0.81499 0.74498 0.81172 0.0
O639 O 0.76296 0.79278 0.79264 0.0
O640 O 0.72378 0.76921 0.77407 0.0
O641 O 0.84002 0.76722 0.78077 0.0
O642 O 0.76379 0.72398 0.78235 0.0
O643 O 0.72485 0.73484 0.76977 0.0
C644 C 0.79402 0.72411 0.7312 0.0
C645 C 0.68836 0.79656 0.71674 0.0
C646 C 0.66257 0.82832 0.7039 0.0
C647 C 0.6467 0.82809 0.72851 0.0
C648 C 0.67251 0.79701 0.74115 0.0
C649 C 0.65175 0.81267 0.74694 0.0
C650 C 0.68342 0.81223 0.69813 0.0
C651 C 0.79847 0.79603 0.73607 0.0
C652 C 0.70994 0.7797 0.71045 0.0
C653 C 0.72759 0.65855 0.66198 0.0
C654 C 0.74723 0.67483 0.646 0.0
C655 C 0.73584 0.78806 0.79157 0.0
C656 C 0.86518 0.74775 0.80801 0.0
C657 C 0.8901 0.7203 0.82815 0.0
C658 C 0.91511 0.73729 0.81996 0.0
C659 C 0.89052 0.76423 0.80009 0.0
C660 C 0.86494 0.72591 0.82248 0.0
C661 C 0.91525 0.75908 0.80616 0.0
C662 C 0.73682 0.72028 0.78233 0.0
C663 C 0.83957 0.7532 0.80006 0.0
H664 H 0.63008 0.83963 0.73349 0.0
H665 H 0.67608 0.78506 0.7556 0.0
H666 H 0.63941 0.81275 0.76577 0.0
H667 H 0.69602 0.8121 0.67939 0.0
H668 H 0.93469 0.73374 0.82434 0.0
H669 H 0.89127 0.78116 0.7891 0.0
H670 H 0.84553 0.71286 0.82849 0.0
H671 H 0.93467 0.77194 0.79997 0.0
Fe672 Fe 0.02324 0.07247 0.50494 0.0
O673 O 0.01969 0.03215 0.49774 0.0
Fe674 Fe 0.05127 0.01522 0.50803 0.0
Fe675 Fe 0.98713 1.00609 0.51277 0.0
O676 O 0.02247 0.03297 0.49822 0.0
O677 O 0.01883 0.98899 0.52297 0.0
O678 O 1.01599 0.98819 0.52252 0.0
Fe679 Fe 1.01535 0.94863 0.51487 0.0
C680 C 0.98331 0.05401 0.55179 0.0
O681 O 0.99238 0.06381 0.48106 0.0
O682 O 0.96128 0.02893 0.49969 0.0
O683 O 0.04637 0.95063 0.48464 0.0
O684 O 0.05064 0.99201 0.47251 0.0
O685 O 0.08166 0.04476 0.48966 0.0
O686 O 0.05649 0.07352 0.4767 0.0
O687 O 0.98511 0.9823 0.47712 0.0
O688 O 0.98637 0.94167 0.48873 0.0
C689 C 0.07881 0.06365 0.47598 0.0
O690 O 0.04681 0.95632 0.53816 0.0
O691 O 0.07725 0.99241 0.52072 0.0
O692 O 0.992 0.07074 0.53505 0.0
O693 O 0.98779 0.02966 0.5481 0.0
C694 C 0.96818 0.04814 0.48425 0.0
C695 C 0.98012 0.9562 0.47322 0.0
C696 C 0.95978 0.95656 0.54415 0.0
O697 O 0.95672 0.97609 0.53121 0.0
O698 O 0.98251 0.94734 0.54328 0.0
C699 C 0.05551 0.96785 0.46846 0.0
O700 O 0.05327 0.0393 0.5436 0.0
O701 O 0.05169 0.07974 0.53148 0.0
C702 C 0.07105 0.97183 0.53456 0.0
C703 C 0.05766 0.06545 0.54738 0.0
Fe704 Fe 0.51649 0.97817 1.00651 0.0
O705 O 0.53943 0.01151 0.99195 0.0
Fe706 Fe 0.45459 1.00184 0.03024 0.0
Fe707 Fe 0.58013 0.01977 0.9898 0.0
O708 O 0.49504 1.00588 0.02705 0.0
O709 O 0.49519 1.00896 0.02776 0.0
O710 O 0.53958 0.01469 0.99263 0.0
Fe711 Fe 0.51835 0.04229 0.01364 0.0
C712 C 0.56616 0.98281 0.03397 0.0
O713 O 0.54362 0.95377 0.98215 0.0
O714 O 0.57615 0.98602 0.96163 0.0
O715 O 0.49429 0.03822 0.98369 0.0
O716 O 0.45294 0.03093 1.00666 0.0
O717 O 0.45026 0.97213 0.99833 0.0
O718 O 0.49216 0.97112 0.9763 0.0
O719 O 0.57731 0.04962 0.96773 0.0
O720 O 0.54616 0.07328 0.99435 0.0
C721 C 0.46582 0.96569 0.97773 0.0
O722 O 0.49178 0.06674 0.03874 0.0
O723 O 0.45961 0.03445 0.05952 0.0
O724 O 0.54038 0.98301 0.03672 0.0
O725 O 0.58226 0.99225 0.01486 0.0
C726 C 0.56469 0.96077 0.96468 0.0
C727 C 0.56569 0.07097 0.97493 0.0
C728 C 0.56887 0.05667 0.0413 0.0
O729 O 0.58396 0.05139 0.02011 0.0
O730 O 0.54279 0.04826 0.04382 0.0
C731 C 0.46878 0.0396 0.9871 0.0
O732 O 0.45667 0.97074 0.05127 0.0
O733 O 0.48872 0.94729 0.02582 0.0
C734 C 0.47166 0.0597 0.05709 0.0
C735 C 0.46867 0.9496 0.04469 0.0
Fe736 Fe 0.01738 0.54475 0.01412 0.0
O737 O 0.99361 0.51163 0.02818 0.0
Fe738 Fe 0.07743 0.51976 0.98796 0.0
Fe739 Fe 0.9529 0.50564 0.03083 0.0
O740 O 0.03716 0.51638 0.99244 0.0
O741 O 0.03683 0.51321 0.99144 0.0
O742 O 0.99321 0.50834 0.02705 0.0
Fe743 Fe 1.01305 0.48001 1.00523 0.0
C744 C 0.97122 0.56292 0.05787 0.0
O745 O 0.99284 0.5416 0.98458 0.0
O746 O 0.95156 0.53543 1.00762 0.0
O747 O 0.0385 0.45477 0.9798 0.0
O748 O 0.07138 0.48659 0.95938 0.0
O749 O 0.07438 0.55014 0.96656 0.0
O750 O 0.04527 0.57512 0.9945 0.0
O751 O 0.94723 0.47612 0.99918 0.0
O752 O 0.98808 0.47521 0.97548 0.0
C753 C 0.06325 0.57182 0.97396 0.0
O754 O 0.03751 0.48266 0.03456 0.0
O755 O 0.0795 0.49154 0.01264 0.0
O756 O 0.99173 0.56986 0.03981 0.0
O757 O 0.95926 0.53768 0.06024 0.0
C758 C 0.96751 0.54374 0.98798 0.0
C759 C 0.96168 0.46988 0.97783 0.0
C760 C 0.9648 0.4518 0.04312 0.0
O761 O 0.95423 0.47372 0.05097 0.0
O762 O 0.98464 0.44942 0.02408 0.0
C763 C 0.05905 0.46147 0.96178 0.0
O764 O 0.08321 0.55072 0.01839 0.0
O765 O 0.04308 0.55022 0.04361 0.0
C766 C 0.06325 0.48209 0.03173 0.0
C767 C 0.06945 0.55686 0.04018 0.0
Fe768 Fe 0.52066 0.52805 0.95409 0.0
O769 O 0.52153 0.52994 0.99218 0.0
Fe770 Fe 0.48598 0.51048 0.01338 0.0
Fe771 Fe 0.54854 0.51415 1.0075 0.0
O772 O 0.51888 0.52792 0.99138 0.0
O773 O 0.51268 0.49401 0.02839 0.0
O774 O 0.51548 0.4959 0.02909 0.0
Fe775 Fe 0.51295 0.49677 0.06678 0.0
C776 C 0.54632 0.47901 0.95637 0.0
O777 O 0.55621 0.55634 0.9583 0.0
O778 O 0.58023 0.53532 0.9819 0.0
O779 O 0.48715 0.5255 0.07601 0.0
O780 O 0.4948 0.54441 0.03949 0.0
O781 O 0.46201 0.53131 0.99577 0.0
O782 O 0.49311 0.55421 0.96535 0.0
O783 O 0.55576 0.54848 0.03486 0.0
O784 O 0.54704 0.5275 0.07077 0.0
C785 C 0.46957 0.54992 0.97984 0.0
O786 O 0.47731 0.4683 0.0628 0.0
O787 O 0.4542 0.49034 0.03937 0.0
O788 O 0.54584 0.49904 0.94414 0.0
O789 O 0.54168 0.48035 0.98093 0.0
C790 C 0.57859 0.55364 0.96698 0.0
C791 C 0.55868 0.54774 0.05859 0.0
C792 C 0.56479 0.47532 0.04219 0.0
O793 O 0.57242 0.4937 0.02591 0.0
O794 O 0.54099 0.47105 0.05635 0.0
C795 C 0.48669 0.54533 0.0635 0.0
O796 O 0.47761 0.4763 0.98613 0.0
O797 O 0.48639 0.49742 0.95022 0.0
C798 C 0.45511 0.47204 0.05451 0.0
C799 C 0.47473 0.47711 0.96237 0.0
Fe800 Fe 0.03105 0.45275 0.50762 0.0
O801 O 0.03207 0.49247 0.51122 0.0
Fe802 Fe 0.02113 0.50796 0.47931 0.0
Fe803 Fe 1.01172 0.51318 0.54136 0.0
O804 O 0.03338 0.49256 0.50804 0.0
O805 O 1.00175 0.5294 0.50944 0.0
O806 O 1.00019 0.52911 0.5125 0.0
Fe807 Fe 1.00326 0.5691 0.51249 0.0
C808 C 0.97723 0.45721 0.54442 0.0
O809 O 0.05417 0.46492 0.53859 0.0
O810 O 0.02874 0.49348 0.56686 0.0
O811 O 0.03698 0.57549 0.48494 0.0
O812 O 0.05638 0.53817 0.47781 0.0
O813 O 0.04386 0.48218 0.45154 0.0
O814 O 0.06242 0.45888 0.47764 0.0
O815 O 0.04654 0.5433 0.54349 0.0
O816 O 0.02953 0.58064 0.54153 0.0
C817 C 0.06108 0.46684 0.45539 0.0
O818 O 0.98006 0.55716 0.48156 0.0
O819 O 1.00401 0.5272 0.45369 0.0
O820 O 0.99809 0.44624 0.5355 0.0
O821 O 0.97674 0.48212 0.54189 0.0
C822 C 0.04773 0.47813 0.56135 0.0
C823 C 0.04754 0.56909 0.54839 0.0
C824 C 0.97121 0.55446 0.56429 0.0
O825 O 0.98766 0.53854 0.56885 0.0
O826 O 0.97166 0.56313 0.54198 0.0
C827 C 0.05719 0.56348 0.47608 0.0
O828 O 0.98611 0.47816 0.47844 0.0
O829 O 1.00415 0.4411 0.4789 0.0
C830 C 0.98557 0.54309 0.45907 0.0
C831 C 0.98553 0.45249 0.47285 0.0
Fe832 Fe 0.51493 0.97992 0.50617 0.0
O833 O 0.49726 1.0082 0.53048 0.0
Fe834 Fe 0.53697 0.01323 0.45094 0.0
Fe835 Fe 0.49427 1.01055 0.56866 0.0
O836 O 0.53427 0.01274 0.48885 0.0
O837 O 0.53379 0.01581 0.48912 0.0
O838 O 0.49683 0.01125 0.53076 0.0
Fe839 Fe 0.51592 0.04406 0.51326 0.0
C840 C 0.4708 0.95184 0.54706 0.0
O841 O 0.54686 0.98393 0.52894 0.0
O842 O 0.52257 0.98566 0.5683 0.0
O843 O 0.53966 0.07434 0.49088 0.0
O844 O 0.56459 0.04959 0.45822 0.0
O845 O 0.56303 0.98607 0.45091 0.0
O846 O 0.53741 0.95486 0.47743 0.0
O847 O 0.52568 0.04437 0.57487 0.0
O848 O 0.54826 0.05093 0.53561 0.0
C849 C 0.5576 0.96218 0.45931 0.0
O850 O 0.48396 0.03962 0.49055 0.0
O851 O 0.50816 0.03749 0.45109 0.0
O852 O 0.49099 0.94971 0.52837 0.0
O853 O 0.46628 0.97454 0.56121 0.0
C854 C 0.54383 0.9808 0.55308 0.0
C855 C 0.54721 0.05408 0.56036 0.0
C856 C 0.4736 0.06189 0.56051 0.0
O857 O 0.46846 0.03813 0.56912 0.0
O858 O 0.49344 0.06911 0.54204 0.0
C859 C 0.55986 0.07233 0.47215 0.0
O860 O 0.50617 0.97894 0.4447 0.0
O861 O 0.48254 0.97338 0.48363 0.0
C862 C 0.48686 0.04224 0.46631 0.0
C863 C 0.48409 0.96981 0.45881 0.0
C864 C 0.19157 0.2037 0.30785 0.0
C865 C 0.22003 0.20523 0.30008 0.0
C866 C 0.17779 0.18654 0.32633 0.0
C867 C 0.18372 0.12741 0.35964 0.0
H868 H 0.12984 0.15641 0.41168 0.0
C869 C 0.10999 0.06244 0.43414 0.0
C870 C 0.1025 0.07624 0.45875 0.0
C871 C 0.12688 0.07697 0.41494 0.0
C872 C 0.14506 0.14805 0.39752 0.0
H873 H 0.25618 0.18935 0.30529 0.0
H874 H 0.23232 0.15989 0.33779 0.0
H875 H 0.15347 0.18375 0.37767 0.0
H876 H 0.10729 0.1155 0.48311 0.0
H877 H 0.13767 0.14065 0.45026 0.0
H878 H 0.17561 0.09189 0.38 0.0
C879 C 0.22051 0.17167 0.32938 0.0
C880 C 0.15831 0.1636 0.37769 0.0
C881 C 0.23426 0.18878 0.31086 0.0
C882 C 0.11322 0.10437 0.46437 0.0
C883 C 0.13022 0.11882 0.44537 0.0
C884 C 0.17044 0.11181 0.37957 0.0
C885 C 0.19215 0.17054 0.33759 0.0
C886 C 0.17782 0.15354 0.35845 0.0
C887 C 0.13644 0.10557 0.42008 0.0
C888 C 0.15101 0.12199 0.39886 0.0
H889 H 0.17997 0.21618 0.30007 0.0
H890 H 0.15586 0.18592 0.33187 0.0
H891 H 0.19844 0.11888 0.34502 0.0
H892 H 0.10126 0.0409 0.42916 0.0
H893 H 0.13102 0.06611 0.39566 0.0
C894 C 0.86232 0.14146 0.33553 0.0
C895 C 0.83385 0.14128 0.33847 0.0
C896 C 0.87473 0.1352 0.35576 0.0
C897 C 0.85701 0.09528 0.41143 0.0
H898 H 0.93354 0.12515 0.42221 0.0
C899 C 0.92089 0.05701 0.48093 0.0
C900 C 0.94752 0.05398 0.46928 0.0
C901 C 0.90412 0.0688 0.468 0.0
C902 C 0.9121 0.11665 0.41944 0.0
H903 H 0.79596 0.13553 0.36466 0.0
H904 H 0.81775 0.12525 0.40057 0.0
H905 H 0.91029 0.147 0.39527 0.0
H906 H 0.97676 0.05875 0.43457 0.0
H907 H 0.94756 0.0787 0.41205 0.0
H908 H 0.85926 0.06457 0.43535 0.0
C909 C 0.8305 0.12991 0.3826 0.0
C910 C 0.89881 0.12912 0.40399 0.0
C911 C 0.81809 0.13611 0.36228 0.0
C912 C 0.95637 0.0611 0.44403 0.0
C913 C 0.93979 0.07276 0.43125 0.0
C914 C 0.87033 0.08286 0.42708 0.0
C915 C 0.85882 0.1286 0.37929 0.0
C916 C 0.87139 0.11809 0.39909 0.0
C917 C 0.91395 0.07766 0.44343 0.0
C918 C 0.89828 0.0929 0.43046 0.0
H919 H 0.87464 0.14487 0.31705 0.0
H920 H 0.89648 0.13396 0.35232 0.0
H921 H 0.83594 0.0861 0.4079 0.0
H922 H 0.91382 0.05192 0.50053 0.0
H923 H 0.88416 0.07225 0.47769 0.0
C924 C 0.82227 0.84319 0.31006 0.0
C925 C 0.82186 0.81473 0.30435 0.0
C926 C 0.84009 0.85956 0.3272 0.0
C927 C 0.87912 0.85475 0.38108 0.0
H928 H 0.91951 0.92694 0.36703 0.0
C929 C 0.96337 0.9135 0.44392 0.0
C930 C 0.96458 0.94188 0.45121 0.0
C931 C 0.94678 0.89911 0.42495 0.0
C932 C 0.90814 0.90696 0.37138 0.0
H933 H 0.8401 0.78126 0.31207 0.0
H934 H 0.87119 0.80978 0.34179 0.0
H935 H 0.88878 0.89964 0.33602 0.0
H936 H 0.94983 0.97759 0.44365 0.0
H937 H 0.92044 0.95226 0.41065 0.0
H938 H 0.89814 0.86196 0.41642 0.0
C939 C 0.85754 0.81942 0.33322 0.0
C940 C 0.89055 0.8913 0.3536 0.0
C941 C 0.83981 0.80308 0.31604 0.0
C942 C 0.94945 0.95574 0.43842 0.0
C943 C 0.93263 0.94123 0.41947 0.0
C944 C 0.89659 0.87037 0.39882 0.0
C945 C 0.85778 0.84782 0.33915 0.0
C946 C 0.87604 0.8649 0.35816 0.0
C947 C 0.93073 0.91262 0.41287 0.0
C948 C 0.91156 0.89656 0.3941 0.0
H949 H 0.80855 0.85281 0.30157 0.0
H950 H 0.83955 0.88131 0.33157 0.0
H951 H 0.86778 0.83477 0.38549 0.0
H952 H 0.975 0.90223 0.45314 0.0
H953 H 0.9464 0.87724 0.4199 0.0
C954 C 0.16922 0.82151 0.39739 0.0
C955 C 0.18092 0.81816 0.37124 0.0
C956 C 0.175 0.84698 0.41261 0.0
C957 C 0.18317 0.91259 0.3917 0.0
H958 H 0.15497 0.9293 0.46414 0.0
C959 C 0.07982 0.93535 0.43878 0.0
C960 C 0.07913 0.96244 0.44996 0.0
C961 C 0.10494 0.92791 0.42862 0.0
C962 C 0.16383 0.9256 0.44402 0.0
H963 H 0.21314 0.83768 0.34314 0.0
H964 H 0.22419 0.88033 0.37018 0.0
H965 H 0.18399 0.89441 0.45217 0.0
H966 H 0.10341 1.00352 0.45786 0.0
H967 H 0.14769 0.99015 0.43993 0.0
H968 H 0.16011 0.9414 0.38336 0.0
C969 C 0.20939 0.86385 0.37839 0.0
C970 C 0.18024 0.90559 0.43715 0.0
C971 C 0.20292 0.83887 0.36281 0.0
C972 C 0.10346 0.98259 0.44882 0.0
C973 C 0.12873 0.97501 0.43893 0.0
C974 C 0.16674 0.93249 0.39859 0.0
C975 C 0.19319 0.86912 0.40207 0.0
C976 C 0.18809 0.89733 0.4107 0.0
C977 C 0.1295 0.94746 0.42981 0.0
C978 C 0.15553 0.93757 0.42448 0.0
H979 H 0.15348 0.80559 0.40529 0.0
H980 H 0.16251 0.8501 0.43117 0.0
H981 H 0.18866 0.90676 0.37107 0.0
H982 H 0.0613 0.91957 0.43977 0.0
H983 H 0.10545 0.90649 0.42155 0.0
C984 C 0.15976 0.88023 0.69503 0.0
C985 C 0.18809 0.88266 0.69664 0.0
C986 C 0.15068 0.88717 0.67315 0.0
C987 C 0.17391 0.93209 0.62173 0.0
H988 H 0.10574 0.89335 0.59481 0.0
C989 C 0.10855 0.98088 0.56396 0.0
C990 C 0.09307 0.96323 0.54557 0.0
C991 C 0.1246 0.97026 0.57863 0.0
C992 C 0.12507 0.90426 0.60173 0.0
H993 H 0.22926 0.89343 0.67676 0.0
H994 H 0.21343 0.90546 0.63812 0.0
H995 H 0.12485 0.87393 0.62664 0.0
H996 H 0.08368 0.92151 0.52634 0.0
H997 H 0.11239 0.9032 0.551 0.0
H998 H 0.17399 0.96251 0.59678 0.0
C999 C 0.19821 0.89829 0.65379 0.0
C1000 C 0.13584 0.89324 0.62025 0.0
C1001 C 0.20726 0.89115 0.67567 0.0
C1002 C 0.09541 0.93543 0.5406 0.0
C1003 C 0.11162 0.92493 0.5549 0.0
C1004 C 0.16312 0.94315 0.60312 0.0
C1005 C 0.16983 0.89692 0.65254 0.0
C1006 C 0.16012 0.90722 0.63081 0.0
C1007 C 0.12547 0.94192 0.57487 0.0
C1008 C 0.13838 0.92952 0.59314 0.0
H1009 H 0.14471 0.87407 0.71122 0.0
H1010 H 0.12872 0.88618 0.67298 0.0
H1011 H 0.19252 0.94353 0.62968 0.0
H1012 H 0.10677 1.00234 0.56821 0.0
H1013 H 0.13492 0.9839 0.59394 0.0
C1014 C 0.18902 0.22204 0.70987 0.0
C1015 C 0.20816 0.21061 0.72016 0.0
C1016 C 0.17135 0.20577 0.69253 0.0
C1017 C 0.14085 0.13376 0.67016 0.0
H1018 H 0.13323 0.16314 0.60739 0.0
C1019 C 0.08724 0.06742 0.58339 0.0
C1020 C 0.0719 0.08035 0.56994 0.0
C1021 C 0.10284 0.08266 0.60293 0.0
C1022 C 0.13476 0.15472 0.62499 0.0
H1023 H 0.22373 0.17305 0.72021 0.0
H1024 H 0.19264 0.14477 0.69045 0.0
H1025 H 0.16172 0.19129 0.63946 0.0
H1026 H 0.05968 0.11906 0.56747 0.0
H1027 H 0.08607 0.14525 0.60176 0.0
H1028 H 0.11375 0.09719 0.65573 0.0
C1029 C 0.19113 0.16621 0.69592 0.0
C1030 C 0.15113 0.17089 0.64336 0.0
C1031 C 0.20896 0.18249 0.713 0.0
C1032 C 0.07157 0.1085 0.57717 0.0
C1033 C 0.0869 0.12361 0.59675 0.0
C1034 C 0.12429 0.1176 0.65184 0.0
C1035 C 0.1723 0.17771 0.68531 0.0
C1036 C 0.15435 0.16062 0.66615 0.0
C1037 C 0.10319 0.11107 0.60952 0.0
C1038 C 0.12097 0.12792 0.62905 0.0
H1039 H 0.18793 0.24362 0.71493 0.0
H1040 H 0.15688 0.21515 0.68479 0.0
H1041 H 0.1428 0.12536 0.68766 0.0
H1042 H 0.08794 0.04577 0.57823 0.0
H1043 H 0.11528 0.07235 0.61227 0.0
C1044 C 0.82312 0.18221 0.64487 0.0
C1045 C 0.84588 0.20361 0.63955 0.0
C1046 C 0.82041 0.15714 0.62892 0.0
C1047 C 0.85809 0.11743 0.62442 0.0
H1048 H 0.88505 0.09048 0.55393 0.0
C1049 C 0.96119 0.08653 0.5837 0.0
C1050 C 0.96012 0.05992 0.57049 0.0
C1051 C 0.93677 0.0954 0.59417 0.0
C1052 C 0.87681 0.09725 0.57366 0.0
H1053 H 0.8758 0.21853 0.60772 0.0
H1054 H 0.87271 0.1742 0.58143 0.0
H1055 H 0.85372 0.1236 0.56079 0.0
H1056 H 0.93349 0.02113 0.55884 0.0
H1057 H 0.89054 0.03707 0.57685 0.0
H1058 H 0.88405 0.09392 0.63721 0.0
C1059 C 0.8578 0.17642 0.59851 0.0
C1060 C 0.85898 0.11605 0.57752 0.0
C1061 C 0.86018 0.20176 0.61421 0.0
C1062 C 0.93469 0.04151 0.56966 0.0
C1063 C 0.91022 0.05059 0.57963 0.0
C1064 C 0.87627 0.09912 0.62053 0.0
C1065 C 0.84034 0.15326 0.60773 0.0
C1066 C 0.85043 0.12712 0.60294 0.0
C1067 C 0.91125 0.07784 0.59099 0.0
C1068 C 0.88643 0.08983 0.59518 0.0
H1069 H 0.80952 0.18262 0.66287 0.0
H1070 H 0.8059 0.13966 0.63574 0.0
H1071 H 0.85244 0.12619 0.64426 0.0
H1072 H 0.98064 0.10104 0.58402 0.0
H1073 H 0.93769 0.11667 0.60267 0.0
C1074 C 0.80341 0.83826 0.71415 0.0
C1075 C 0.81364 0.81489 0.71737 0.0
C1076 C 0.81669 0.85529 0.69539 0.0
C1077 C 0.85652 0.85338 0.63207 0.0
H1078 H 0.88428 0.93147 0.64878 0.0
C1079 C 0.93423 0.91339 0.56029 0.0
C1080 C 0.93599 0.94177 0.56018 0.0
C1081 C 0.91579 0.89914 0.5784 0.0
C1082 C 0.87612 0.90985 0.6436 0.0
H1083 H 0.84562 0.7909 0.70343 0.0
H1084 H 0.86836 0.82023 0.66994 0.0
H1085 H 0.85985 0.90443 0.68332 0.0
H1086 H 0.9188 0.97727 0.57846 0.0
H1087 H 0.88548 0.95203 0.61001 0.0
H1088 H 0.87176 0.85847 0.59244 0.0
C1089 C 0.85035 0.82558 0.68232 0.0
C1090 C 0.86235 0.89434 0.66347 0.0
C1091 C 0.83748 0.80893 0.70155 0.0
C1092 C 0.91769 0.95537 0.57788 0.0
C1093 C 0.89893 0.94093 0.59619 0.0
C1094 C 0.86967 0.8689 0.61217 0.0
C1095 C 0.84002 0.84888 0.67903 0.0
C1096 C 0.85306 0.86584 0.65795 0.0
C1097 C 0.89813 0.91265 0.59697 0.0
C1098 C 0.88044 0.89722 0.6177 0.0
H1099 H 0.78504 0.84333 0.72609 0.0
H1100 H 0.80827 0.87304 0.69315 0.0
H1101 H 0.84903 0.83153 0.62722 0.0
H1102 H 0.94806 0.90227 0.54689 0.0
H1103 H 0.91645 0.87766 0.57848 0.0
C1104 C 0.30744 0.19173 0.1951 0.0
C1105 C 0.31841 0.21675 0.20949 0.0
C1106 C 0.32476 0.17623 0.17815 0.0
C1107 C 0.39764 0.18002 0.14422 0.0
H1108 H 0.37599 0.10067 0.13575 0.0
C1109 C 0.45913 0.10744 0.06911 0.0
C1110 C 0.45919 0.08112 0.07562 0.0
C1111 C 0.44315 0.12521 0.08519 0.0
C1112 C 0.38272 0.12279 0.13799 0.0
H1113 H 0.35668 0.24492 0.21698 0.0
H1114 H 0.38684 0.21753 0.18853 0.0
H1115 H 0.34659 0.12838 0.16418 0.0
H1116 H 0.44339 0.05378 0.10511 0.0
H1117 H 0.41678 0.08447 0.13298 0.0
H1118 H 0.43437 0.17416 0.11863 0.0
C1119 C 0.36472 0.21005 0.18971 0.0
C1120 C 0.36542 0.13887 0.15412 0.0
C1121 C 0.34734 0.22569 0.20643 0.0
C1122 C 0.44383 0.07372 0.09916 0.0
C1123 C 0.42813 0.09135 0.11515 0.0
C1124 C 0.4151 0.16386 0.12815 0.0
C1125 C 0.3538 0.18497 0.17523 0.0
C1126 C 0.37248 0.16782 0.15762 0.0
C1127 C 0.42685 0.11717 0.10824 0.0
C1128 C 0.40805 0.13489 0.12485 0.0
H1129 H 0.28538 0.18388 0.1971 0.0
H1130 H 0.3152 0.15738 0.1672 0.0
H1131 H 0.40388 0.20218 0.14592 0.0
H1132 H 0.47037 0.11381 0.05103 0.0
H1133 H 0.4428 0.14481 0.07898 0.0
C1134 C 0.84689 0.30131 0.20447 0.0
C1135 C 0.81823 0.2993 0.20578 0.0
C1136 C 0.86456 0.31396 0.1847 0.0
C1137 C 0.8648 0.33695 0.12005 0.0
H1138 H 0.93384 0.38437 0.13689 0.0
C1139 C 0.92188 0.42173 0.05928 0.0
C1140 C 0.95092 0.42756 0.05595 0.0
C1141 C 0.90765 0.40196 0.07488 0.0
C1142 C 0.91491 0.37078 0.13172 0.0
H1143 H 0.78525 0.30999 0.18863 0.0
H1144 H 0.81604 0.33289 0.15432 0.0
H1145 H 0.90474 0.3588 0.17013 0.0
H1146 H 0.98802 0.41682 0.06561 0.0
H1147 H 0.96296 0.38195 0.09343 0.0
H1148 H 0.87457 0.34968 0.08191 0.0
C1149 C 0.825 0.32378 0.16788 0.0
C1150 C 0.89815 0.35614 0.1508 0.0
C1151 C 0.80737 0.31091 0.18759 0.0
C1152 C 0.96561 0.41245 0.06773 0.0
C1153 C 0.95128 0.39277 0.08378 0.0
C1154 C 0.88148 0.35165 0.10105 0.0
C1155 C 0.85385 0.32535 0.1661 0.0
C1156 C 0.87263 0.33943 0.14534 0.0
C1157 C 0.92211 0.38766 0.08782 0.0
C1158 C 0.90646 0.36914 0.1068 0.0
H1159 H 0.85567 0.29377 0.21913 0.0
H1160 H 0.8866 0.31479 0.18402 0.0
H1161 H 0.84562 0.32381 0.11496 0.0
H1162 H 0.9101 0.4332 0.05042 0.0
H1163 H 0.88526 0.39886 0.07781 0.0
C1164 C 0.67645 0.8794 0.18108 0.0
C1165 C 0.70142 0.87427 0.16696 0.0
C1166 C 0.65578 0.88525 0.16821 0.0
C1167 C 0.63561 0.88613 0.1018 0.0
H1168 H 0.60605 0.95046 0.13491 0.0
C1169 C 0.603 0.95984 0.04366 0.0
C1170 C 0.57755 0.96843 0.05162 0.0
C1171 C 0.61345 0.94486 0.05914 0.0
C1172 C 0.61376 0.93221 0.12561 0.0
H1173 H 0.72431 0.87012 0.12864 0.0
H1174 H 0.68855 0.88028 0.10607 0.0
H1175 H 0.63205 0.92851 0.15942 0.0
H1176 H 0.54323 0.96822 0.08232 0.0
H1177 H 0.56214 0.94245 0.10993 0.0
H1178 H 0.61863 0.89088 0.06754 0.0
C1179 C 0.68437 0.87935 0.1269 0.0
C1180 C 0.62857 0.91952 0.13965 0.0
C1181 C 0.70493 0.87353 0.13976 0.0
C1182 C 0.56294 0.96196 0.0757 0.0
C1183 C 0.5737 0.94725 0.09147 0.0
C1184 C 0.6211 0.89898 0.08773 0.0
C1185 C 0.65988 0.88615 0.14104 0.0
C1186 C 0.64034 0.89677 0.12767 0.0
C1187 C 0.59892 0.93831 0.08313 0.0
C1188 C 0.61068 0.92256 0.09928 0.0
H1189 H 0.67362 0.88049 0.20217 0.0
H1190 H 0.63706 0.89007 0.17965 0.0
H1191 H 0.64384 0.86832 0.09212 0.0
H1192 H 0.61472 0.96422 0.02515 0.0
H1193 H 0.63311 0.93855 0.0524 0.0
C1194 C 0.23544 0.69517 0.18629 0.0
C1195 C 0.22396 0.70216 0.212 0.0
C1196 C 0.21898 0.67819 0.16814 0.0
C1197 C 0.15255 0.62815 0.16258 0.0
H1198 H 0.15781 0.65146 0.09417 0.0
C1199 C 0.07397 0.57818 0.08725 0.0
C1200 C 0.08554 0.57353 0.06114 0.0
C1201 C 0.09031 0.5936 0.10637 0.0
C1202 C 0.1562 0.64444 0.11309 0.0
H1203 H 0.1866 0.69578 0.23914 0.0
H1204 H 0.15826 0.66624 0.2078 0.0
H1205 H 0.18879 0.677 0.12547 0.0
H1206 H 0.12347 0.58192 0.03485 0.0
H1207 H 0.15136 0.60806 0.06769 0.0
H1208 H 0.11996 0.59551 0.15011 0.0
C1209 C 0.17982 0.67379 0.20148 0.0
C1210 C 0.1741 0.65907 0.13102 0.0
C1211 C 0.1961 0.69091 0.21943 0.0
C1212 C 0.11364 0.58487 0.05469 0.0
C1213 C 0.12975 0.60021 0.07358 0.0
C1214 C 0.13468 0.61342 0.14458 0.0
C1215 C 0.19084 0.66757 0.17547 0.0
C1216 C 0.17256 0.65113 0.156 0.0
C1217 C 0.11843 0.60489 0.09969 0.0
C1218 C 0.13634 0.6213 0.11953 0.0
H1219 H 0.25679 0.70361 0.17995 0.0
H1220 H 0.2282 0.67357 0.1483 0.0
H1221 H 0.1509 0.62132 0.18159 0.0
H1222 H 0.05246 0.56975 0.09292 0.0
H1223 H 0.08085 0.59693 0.1263 0.0
C1224 C 0.32927 0.79852 0.82655 0.0
C1225 C 0.31679 0.80957 0.8089 0.0
C1226 C 0.34688 0.8157 0.84344 0.0
C1227 C 0.3579 0.87975 0.8825 0.0
H1228 H 0.43691 0.88084 0.87375 0.0
C1229 C 0.42864 0.9576 0.94844 0.0
C1230 C 0.45216 0.95004 0.95521 0.0
C1231 C 0.41357 0.94131 0.92912 0.0
C1232 C 0.41486 0.88057 0.87688 0.0
H1233 H 0.31272 0.84765 0.79583 0.0
H1234 H 0.34245 0.87759 0.82632 0.0
H1235 H 0.40742 0.84983 0.84379 0.0
H1236 H 0.47862 0.91972 0.9471 0.0
H1237 H 0.45158 0.89029 0.91436 0.0
H1238 H 0.36448 0.90909 0.91622 0.0
C1239 C 0.339 0.85552 0.82642 0.0
C1240 C 0.39806 0.86291 0.85951 0.0
C1241 C 0.32196 0.83833 0.80904 0.0
C1242 C 0.46071 0.92613 0.94196 0.0
C1243 C 0.44516 0.90933 0.9231 0.0
C1244 C 0.37451 0.8969 0.90023 0.0
C1245 C 0.35174 0.84432 0.84359 0.0
C1246 C 0.36952 0.86256 0.8621 0.0
C1247 C 0.42107 0.91646 0.91661 0.0
C1248 C 0.40335 0.89783 0.89761 0.0
H1249 H 0.32548 0.77655 0.82735 0.0
H1250 H 0.35633 0.80669 0.85674 0.0
H1251 H 0.33584 0.87957 0.88496 0.0
H1252 H 0.42177 0.97611 0.95828 0.0
H1253 H 0.39585 0.94822 0.92424 0.0
C1254 C 0.21593 0.33015 0.81412 0.0
C1255 C 0.21091 0.30122 0.81211 0.0
C1256 C 0.19822 0.34558 0.83054 0.0
C1257 C 0.12781 0.33965 0.87041 0.0
H1258 H 0.15909 0.41382 0.89865 0.0
C1259 C 0.06652 0.41185 0.94754 0.0
C1260 C 0.07175 0.43981 0.94363 0.0
C1261 C 0.08189 0.39316 0.93196 0.0
C1262 C 0.14983 0.39321 0.89083 0.0
H1263 H 0.18223 0.26611 0.82565 0.0
H1264 H 0.15241 0.2928 0.8554 0.0
H1265 H 0.18881 0.3854 0.87171 0.0
H1266 H 0.09683 0.46924 0.91904 0.0
H1267 H 0.12291 0.43733 0.89268 0.0
H1268 H 0.08878 0.34774 0.89042 0.0
C1269 C 0.16981 0.30375 0.84387 0.0
C1270 C 0.167 0.37677 0.87507 0.0
C1271 C 0.18733 0.28827 0.82701 0.0
C1272 C 0.09207 0.44809 0.92313 0.0
C1273 C 0.10738 0.42969 0.90792 0.0
C1274 C 0.11062 0.3561 0.88654 0.0
C1275 C 0.17493 0.33279 0.84603 0.0
C1276 C 0.15634 0.34979 0.8641 0.0
C1277 C 0.10304 0.40205 0.91231 0.0
C1278 C 0.12129 0.38334 0.89665 0.0
H1279 H 0.23361 0.34111 0.80287 0.0
H1280 H 0.20282 0.36768 0.8307 0.0
H1281 H 0.11843 0.31921 0.86237 0.0
H1282 H 0.05126 0.40459 0.96313 0.0
H1283 H 0.07788 0.372 0.93594 0.0
C1284 C 0.69129 0.20585 0.80408 0.0
C1285 C 0.71931 0.21597 0.80738 0.0
C1286 C 0.67351 0.19218 0.82328 0.0
C1287 C 0.67416 0.15539 0.87998 0.0
H1288 H 0.59826 0.16625 0.89665 0.0
C1289 C 0.60534 0.10822 0.9657 0.0
C1290 C 0.5784 0.09487 0.9612 0.0
C1291 C 0.62123 0.12558 0.94835 0.0
C1292 C 0.61933 0.16284 0.89211 0.0
H1293 H 0.75045 0.2201 0.83379 0.0
H1294 H 0.71965 0.19631 0.86711 0.0
H1295 H 0.62874 0.19078 0.86331 0.0
H1296 H 0.54662 0.08936 0.93541 0.0
H1297 H 0.57429 0.12 0.90496 0.0
H1298 H 0.66485 0.12741 0.90859 0.0
C1299 C 0.71138 0.19852 0.84954 0.0
C1300 C 0.63683 0.17686 0.87293 0.0
C1301 C 0.7291 0.21225 0.8304 0.0
C1302 C 0.56709 0.10008 0.93964 0.0
C1303 C 0.58305 0.11748 0.92216 0.0
C1304 C 0.65674 0.14145 0.89914 0.0
C1305 C 0.68332 0.18826 0.84626 0.0
C1306 C 0.66452 0.17336 0.86664 0.0
C1307 C 0.61067 0.12971 0.92585 0.0
C1308 C 0.62911 0.14504 0.90557 0.0
H1309 H 0.68306 0.20833 0.78657 0.0
H1310 H 0.65215 0.18429 0.81988 0.0
H1311 H 0.69512 0.15166 0.87533 0.0
H1312 H 0.61467 0.10402 0.98192 0.0
H1313 H 0.64219 0.13501 0.95212 0.0
C1314 C 0.91052 0.67962 0.83205 0.0
C1315 C 0.89132 0.69674 0.84206 0.0
C1316 C 0.91589 0.66063 0.84682 0.0
C1317 C 0.89129 0.62346 0.90442 0.0
H1318 H 0.96964 0.62539 0.90512 0.0
C1319 C 0.93217 0.56875 0.97755 0.0
C1320 C 0.95681 0.55847 0.96997 0.0
C1321 C 0.92282 0.58412 0.96145 0.0
C1322 C 0.94764 0.62405 0.90488 0.0
H1323 H 0.86133 0.70606 0.87479 0.0
H1324 H 0.87066 0.67253 0.90082 0.0
H1325 H 0.95476 0.6537 0.87796 0.0
H1326 H 0.9905 0.55568 0.93905 0.0
H1327 H 0.97366 0.58139 0.91047 0.0
H1328 H 0.88413 0.59349 0.93111 0.0
C1329 C 0.88159 0.67395 0.88145 0.0
C1330 C 0.93909 0.64048 0.8893 0.0
C1331 C 0.87618 0.69309 0.86656 0.0
C1332 C 0.97152 0.56341 0.94558 0.0
C1333 C 0.96193 0.57843 0.92927 0.0
C1334 C 0.89984 0.60672 0.91984 0.0
C1335 C 0.9022 0.65815 0.87205 0.0
C1336 C 0.91082 0.64039 0.88881 0.0
C1337 C 0.93761 0.58937 0.9371 0.0
C1338 C 0.9282 0.60677 0.92032 0.0
H1339 H 0.92217 0.68164 0.81304 0.0
H1340 H 0.93135 0.64831 0.83868 0.0
H1341 H 0.86936 0.62277 0.90437 0.0
H1342 H 0.92043 0.56558 0.99632 0.0
H1343 H 0.90432 0.59249 0.96852 0.0
C1344 C 0.17206 0.35514 0.16202 0.0
C1345 C 0.15265 0.34009 0.17931 0.0
C1346 C 0.16332 0.37039 0.1453 0.0
C1347 C 0.10353 0.40223 0.13935 0.0
H1348 H 0.13778 0.40887 0.06857 0.0
C1349 C 0.0563 0.45238 0.06782 0.0
C1350 C 0.07431 0.46793 0.04993 0.0
C1351 C 0.06657 0.43735 0.08358 0.0
C1352 C 0.1282 0.40756 0.08842 0.0
H1353 H 0.10889 0.32764 0.19136 0.0
H1354 H 0.09365 0.35364 0.16206 0.0
H1355 H 0.15457 0.3809 0.09515 0.0
H1356 H 0.11742 0.48036 0.03515 0.0
H1357 H 0.13536 0.45478 0.06307 0.0
H1358 H 0.07724 0.42886 0.13278 0.0
C1359 C 0.11564 0.35453 0.16191 0.0
C1360 C 0.13783 0.39145 0.10366 0.0
C1361 C 0.12436 0.3395 0.17862 0.0
C1362 C 0.10291 0.46853 0.04862 0.0
C1363 C 0.1132 0.45365 0.0645 0.0
C1364 C 0.09395 0.41833 0.12417 0.0
C1365 C 0.13499 0.37072 0.14546 0.0
C1366 C 0.12544 0.38838 0.12925 0.0
C1367 C 0.09516 0.43764 0.08203 0.0
C1368 C 0.106 0.42108 0.09843 0.0
H1369 H 0.19402 0.35604 0.1622 0.0
H1370 H 0.17881 0.38269 0.13297 0.0
H1371 H 0.09388 0.40088 0.15918 0.0
H1372 H 0.03414 0.45125 0.06927 0.0
H1373 H 0.05197 0.42497 0.09653 0.0
C1374 C 0.21295 0.73516 0.84053 0.0
C1375 C 0.21593 0.72232 0.81469 0.0
C1376 C 0.19313 0.72292 0.85916 0.0
C1377 C 0.12939 0.66946 0.86517 0.0
H1378 H 0.14919 0.66852 0.9344 0.0
C1379 C 0.07677 0.58722 0.93028 0.0
C1380 C 0.07273 0.59414 0.95746 0.0
C1381 C 0.09027 0.60686 0.91424 0.0
C1382 C 0.1431 0.66907 0.91534 0.0
H1383 H 0.20095 0.68644 0.7881 0.0
H1384 H 0.16694 0.66464 0.82066 0.0
H1385 H 0.18144 0.69489 0.90356 0.0
H1386 H 0.07874 0.62718 0.98926 0.0
H1387 H 0.10274 0.66196 0.961 0.0
H1388 H 0.0915 0.64283 0.87663 0.0
C1389 C 0.17936 0.6845 0.8265 0.0
C1390 C 0.16162 0.68414 0.89762 0.0
C1391 C 0.19911 0.69679 0.8079 0.0
C1392 C 0.08137 0.62147 0.96831 0.0
C1393 C 0.09531 0.64121 0.95218 0.0
C1394 C 0.11096 0.65435 0.88282 0.0
C1395 C 0.17602 0.69746 0.85234 0.0
C1396 C 0.15526 0.68393 0.8721 0.0
C1397 C 0.10034 0.63392 0.92501 0.0
C1398 C 0.11788 0.65343 0.90789 0.0
H1399 H 0.22591 0.75474 0.84634 0.0
H1400 H 0.191 0.73356 0.87881 0.0
H1401 H 0.12354 0.6694 0.84589 0.0
H1402 H 0.07034 0.56623 0.92146 0.0
H1403 H 0.09408 0.60044 0.89348 0.0
C1404 C 0.36019 0.13967 0.83649 0.0
C1405 C 0.3356 0.14651 0.84998 0.0
C1406 C 0.38028 0.13397 0.85013 0.0
C1407 C 0.39947 0.13536 0.9174 0.0
H1408 H 0.42802 0.0698 0.88643 0.0
C1409 C 0.43259 0.06375 0.97796 0.0
C1410 C 0.45755 0.05429 0.96963 0.0
C1411 C 0.42206 0.0785 0.96231 0.0
C1412 C 0.42059 0.08838 0.89514 0.0
H1413 H 0.31274 0.1537 0.88796 0.0
H1414 H 0.34745 0.1435 0.91192 0.0
H1415 H 0.40235 0.09095 0.86102 0.0
H1416 H 0.49101 0.05289 0.93822 0.0
H1417 H 0.47201 0.07827 0.91038 0.0
H1418 H 0.41648 0.13171 0.95203 0.0
C1419 C 0.35184 0.14314 0.89095 0.0
C1420 C 0.40596 0.10063 0.88058 0.0
C1421 C 0.3319 0.14902 0.8773 0.0
C1422 C 0.47169 0.05983 0.94513 0.0
C1423 C 0.46085 0.07431 0.92922 0.0
C1424 C 0.41381 0.12291 0.93203 0.0
C1425 C 0.3759 0.13464 0.87748 0.0
C1426 C 0.39468 0.12395 0.89171 0.0
C1427 C 0.43602 0.08393 0.93781 0.0
C1428 C 0.42398 0.09898 0.92123 0.0
H1429 H 0.36314 0.13723 0.81534 0.0
H1430 H 0.39872 0.12795 0.83914 0.0
H1431 H 0.39161 0.15359 0.92646 0.0
H1432 H 0.42125 0.06008 0.99679 0.0
H1433 H 0.4027 0.08535 0.96926 0.0
C1434 C 0.84275 0.32514 0.79873 0.0
C1435 C 0.81398 0.31775 0.80523 0.0
C1436 C 0.85923 0.34297 0.81608 0.0
C1437 C 0.85744 0.3966 0.87265 0.0
H1438 H 0.92563 0.37647 0.88477 0.0
C1439 C 0.91732 0.45038 0.95863 0.0
C1440 C 0.94645 0.45474 0.95576 0.0
C1441 C 0.90222 0.4351 0.93897 0.0
C1442 C 0.90694 0.38269 0.88131 0.0
H1443 H 0.77983 0.32438 0.83469 0.0
H1444 H 0.80868 0.35597 0.86498 0.0
H1445 H 0.89674 0.34718 0.85341 0.0
H1446 H 0.98248 0.44662 0.92943 0.0
H1447 H 0.95595 0.42013 0.89463 0.0
H1448 H 0.86759 0.43216 0.90036 0.0
C1449 C 0.81845 0.34768 0.84644 0.0
C1450 C 0.89029 0.36581 0.8634 0.0
C1451 C 0.80192 0.32957 0.82912 0.0
C1452 C 0.96011 0.4437 0.93232 0.0
C1453 C 0.94486 0.42835 0.91247 0.0
C1454 C 0.87417 0.41357 0.89041 0.0
C1455 C 0.84736 0.35424 0.84026 0.0
C1456 C 0.86524 0.37246 0.85901 0.0
C1457 C 0.91568 0.42377 0.91562 0.0
C1458 C 0.899 0.4067 0.89522 0.0
H1459 H 0.85273 0.31675 0.78033 0.0
H1460 H 0.88133 0.348 0.81051 0.0
H1461 H 0.83852 0.40254 0.86941 0.0
H1462 H 0.90592 0.45846 0.97635 0.0
H1463 H 0.87985 0.43164 0.94243 0.0
C1464 C 0.72893 0.82852 0.8262 0.0
C1465 C 0.71776 0.80456 0.81043 0.0
C1466 C 0.71166 0.84391 0.84348 0.0
C1467 C 0.63734 0.85423 0.85807 0.0
H1468 H 0.6627 0.89317 0.92286 0.0
C1469 C 0.56671 0.91402 0.93718 0.0
C1470 C 0.57988 0.93961 0.949 0.0
C1471 C 0.58237 0.89608 0.92083 0.0
C1472 C 0.65523 0.88265 0.90477 0.0
H1473 H 0.67912 0.77806 0.80107 0.0
H1474 H 0.6493 0.80455 0.83079 0.0
H1475 H 0.6921 0.86583 0.89362 0.0
H1476 H 0.62001 0.9657 0.95351 0.0
H1477 H 0.64673 0.93501 0.92572 0.0
H1478 H 0.60032 0.87111 0.86951 0.0
C1479 C 0.67143 0.81191 0.8297 0.0
C1480 C 0.6723 0.86691 0.88779 0.0
C1481 C 0.68871 0.79652 0.81256 0.0
C1482 C 0.60899 0.94629 0.94465 0.0
C1483 C 0.62449 0.92845 0.92876 0.0
C1484 C 0.62017 0.86991 0.87517 0.0
C1485 C 0.68251 0.83596 0.84553 0.0
C1486 C 0.66384 0.85253 0.86397 0.0
C1487 C 0.61159 0.90307 0.91636 0.0
C1488 C 0.62893 0.88464 0.89873 0.0
H1489 H 0.75105 0.83579 0.8249 0.0
H1490 H 0.7213 0.86243 0.85482 0.0
H1491 H 0.62996 0.84396 0.83987 0.0
H1492 H 0.54437 0.90822 0.93997 0.0
H1493 H 0.57159 0.87667 0.9118 0.0
C1494 C 0.84679 0.73406 0.20099 0.0
C1495 C 0.81991 0.72137 0.21013 0.0
C1496 C 0.86436 0.71918 0.18353 0.0
C1497 C 0.86346 0.6514 0.13956 0.0
H1498 H 0.94313 0.67054 0.13969 0.0
C1499 C 0.93351 0.57534 0.09226 0.0
C1500 C 0.95775 0.58426 0.07574 0.0
C1501 C 0.91852 0.59391 0.10753 0.0
C1502 C 0.92094 0.66509 0.1392 0.0
H1503 H 0.79056 0.68283 0.20758 0.0
H1504 H 0.8213 0.65664 0.1791 0.0
H1505 H 0.91351 0.69854 0.16851 0.0
H1506 H 0.98523 0.62068 0.06335 0.0
H1507 H 0.95905 0.65356 0.09092 0.0
H1508 H 0.87089 0.61741 0.11102 0.0
C1509 C 0.82887 0.67835 0.18439 0.0
C1510 C 0.90378 0.68124 0.15576 0.0
C1511 C 0.81119 0.69336 0.20131 0.0
C1512 C 0.96684 0.61287 0.07577 0.0
C1513 C 0.9518 0.63172 0.09158 0.0
C1514 C 0.88052 0.63514 0.12341 0.0
C1515 C 0.85582 0.69092 0.17497 0.0
C1516 C 0.87461 0.67451 0.15649 0.0
C1517 C 0.92709 0.62237 0.10729 0.0
C1518 C 0.9095 0.64149 0.12314 0.0
H1519 H 0.85441 0.7555 0.20749 0.0
H1520 H 0.8846 0.73005 0.17666 0.0
H1521 H 0.84138 0.6457 0.13854 0.0
H1522 H 0.92542 0.55366 0.09317 0.0
H1523 H 0.89996 0.58582 0.11962 0.0
C1524 C 0.33517 0.82412 0.21731 0.0
C1525 C 0.31003 0.80708 0.21142 0.0
C1526 C 0.35251 0.83826 0.1983 0.0
C1527 C 0.3697 0.83734 0.12702 0.0
H1528 H 0.40707 0.91218 0.14617 0.0
C1529 C 0.43476 0.90666 0.05156 0.0
C1530 C 0.45716 0.92654 0.0599 0.0
C1531 C 0.4179 0.88994 0.06909 0.0
C1532 C 0.39726 0.89112 0.14051 0.0
H1533 H 0.28337 0.79145 0.18088 0.0
H1534 H 0.31364 0.81648 0.14748 0.0
H1535 H 0.37444 0.88844 0.17829 0.0
H1536 H 0.47998 0.94429 0.09272 0.0
H1537 H 0.45156 0.91436 0.12307 0.0
H1538 H 0.39271 0.84 0.08922 0.0
C1539 C 0.31996 0.81876 0.16688 0.0
C1540 C 0.37835 0.87753 0.15897 0.0
C1541 C 0.30247 0.80466 0.18606 0.0
C1542 C 0.46323 0.9286 0.08568 0.0
C1543 C 0.44655 0.9118 0.10317 0.0
C1544 C 0.38878 0.85091 0.10852 0.0
C1545 C 0.34527 0.83568 0.17278 0.0
C1546 C 0.36442 0.85042 0.15255 0.0
C1547 C 0.42303 0.89291 0.0954 0.0
C1548 C 0.40298 0.87797 0.11505 0.0
H1549 H 0.34161 0.82646 0.23669 0.0
H1550 H 0.37194 0.85081 0.2035 0.0
H1551 H 0.35958 0.81635 0.12149 0.0
H1552 H 0.42913 0.90538 0.03199 0.0
H1553 H 0.39988 0.87594 0.06238 0.0
C1554 C 0.71385 0.22451 0.18645 0.0
C1555 C 0.71791 0.21471 0.20924 0.0
C1556 C 0.69659 0.20799 0.16884 0.0
C1557 C 0.63843 0.14941 0.16373 0.0
H1558 H 0.66566 0.14114 0.09021 0.0
C1559 C 0.57918 0.06988 0.08785 0.0
C1560 C 0.58217 0.07602 0.06211 0.0
C1561 C 0.59468 0.08724 0.10649 0.0
C1562 C 0.65733 0.14354 0.11056 0.0
H1563 H 0.70666 0.18011 0.23168 0.0
H1564 H 0.67647 0.15145 0.20105 0.0
H1565 H 0.69428 0.17113 0.12107 0.0
H1566 H 0.6023 0.10552 0.03583 0.0
H1567 H 0.6278 0.13657 0.06836 0.0
H1568 H 0.6012 0.12243 0.15332 0.0
C1569 C 0.68664 0.17185 0.19678 0.0
C1570 C 0.67393 0.1607 0.12828 0.0
C1571 C 0.70413 0.1882 0.21419 0.0
C1572 C 0.59988 0.10024 0.05555 0.0
C1573 C 0.61476 0.11787 0.07421 0.0
C1574 C 0.62158 0.13258 0.14594 0.0
C1575 C 0.68276 0.1815 0.17386 0.0
C1576 C 0.66472 0.16376 0.15506 0.0
C1577 C 0.613 0.11136 0.09982 0.0
C1578 C 0.63077 0.12936 0.11904 0.0
H1579 H 0.72413 0.24488 0.18216 0.0
H1580 H 0.69383 0.21604 0.1514 0.0
H1581 H 0.63072 0.15154 0.18428 0.0
H1582 H 0.56582 0.05112 0.09324 0.0
H1583 H 0.59289 0.08123 0.12584 0.0
C1584 C 0.69564 0.70666 0.81429 0.0
C1585 C 0.71972 0.70048 0.79906 0.0
C1586 C 0.6825 0.69045 0.83376 0.0
C1587 C 0.67436 0.62254 0.85563 0.0
H1588 H 0.65925 0.66095 0.92484 0.0
C1589 C 0.6252 0.56156 0.94125 0.0
C1590 C 0.60355 0.57216 0.95696 0.0
C1591 C 0.64356 0.57788 0.92426 0.0
C1592 C 0.66306 0.64982 0.90562 0.0
H1593 H 0.74824 0.67199 0.79127 0.0
H1594 H 0.72473 0.64315 0.82462 0.0
H1595 H 0.67971 0.68713 0.88882 0.0
H1596 H 0.5851 0.60834 0.96867 0.0
H1597 H 0.61655 0.63655 0.93939 0.0
H1598 H 0.65678 0.58529 0.87196 0.0
C1599 C 0.71618 0.66061 0.82176 0.0
C1600 C 0.67476 0.66489 0.88498 0.0
C1601 C 0.72958 0.67707 0.80267 0.0
C1602 C 0.60192 0.59984 0.95701 0.0
C1603 C 0.62004 0.61603 0.94008 0.0
C1604 C 0.66224 0.60744 0.87618 0.0
C1605 C 0.69291 0.6675 0.83793 0.0
C1606 C 0.68033 0.65142 0.85974 0.0
C1607 C 0.64043 0.60499 0.92267 0.0
C1608 C 0.65615 0.62087 0.90146 0.0
H1609 H 0.68788 0.72484 0.81213 0.0
H1610 H 0.66445 0.69609 0.84586 0.0
H1611 H 0.67841 0.61164 0.83633 0.0
H1612 H 0.62652 0.5401 0.94049 0.0
H1613 H 0.65934 0.56882 0.91151 0.0
C1614 C 0.36883 0.63429 0.82998 0.0
C1615 C 0.34317 0.64267 0.83363 0.0
C1616 C 0.38115 0.63074 0.85134 0.0
C1617 C 0.40864 0.63512 0.90006 0.0
H1618 H 0.36197 0.59067 0.94995 0.0
C1619 C 0.45845 0.59429 0.97381 0.0
C1620 C 0.44953 0.56615 0.97562 0.0
C1621 C 0.44247 0.60872 0.96311 0.0
C1622 C 0.37526 0.60316 0.93623 0.0
H1623 H 0.31049 0.65483 0.86219 0.0
H1624 H 0.33215 0.64856 0.9 0.0
H1625 H 0.34107 0.60744 0.9172 0.0
H1626 H 0.41648 0.53113 0.96925 0.0
H1627 H 0.38872 0.55606 0.9497 0.0
H1628 H 0.44297 0.62946 0.91761 0.0
C1629 C 0.34267 0.64472 0.88055 0.0
C1630 C 0.36326 0.61304 0.91768 0.0
C1631 C 0.33044 0.64854 0.85905 0.0
C1632 C 0.42349 0.55299 0.96836 0.0
C1633 C 0.40766 0.56732 0.95715 0.0
C1634 C 0.42062 0.62518 0.91844 0.0
C1635 C 0.36795 0.63534 0.87683 0.0
C1636 C 0.37994 0.62853 0.89899 0.0
C1637 C 0.41759 0.59507 0.95338 0.0
C1638 C 0.40416 0.60858 0.93642 0.0
H1639 H 0.37891 0.62957 0.81048 0.0
H1640 H 0.40043 0.62315 0.84777 0.0
H1641 H 0.422 0.64725 0.88608 0.0
H1642 H 0.47853 0.60478 0.97937 0.0
H1643 H 0.45039 0.63024 0.96118 0.0
C1644 C 0.32211 0.33351 0.81476 0.0
C1645 C 0.32144 0.30502 0.80916 0.0
C1646 C 0.34022 0.3498 0.83154 0.0
C1647 C 0.37731 0.34945 0.88668 0.0
H1648 H 0.42193 0.41659 0.86402 0.0
C1649 C 0.45396 0.42714 0.9507 0.0
C1650 C 0.45579 0.45503 0.94821 0.0
C1651 C 0.4383 0.40666 0.93438 0.0
C1652 C 0.40939 0.3981 0.87084 0.0
H1653 H 0.33908 0.27129 0.81726 0.0
H1654 H 0.37036 0.29994 0.84728 0.0
H1655 H 0.39354 0.38495 0.83396 0.0
H1656 H 0.44118 0.48352 0.92837 0.0
H1657 H 0.41331 0.4483 0.90096 0.0
H1658 H 0.3924 0.36318 0.92399 0.0
C1659 C 0.35697 0.3095 0.8383 0.0
C1660 C 0.39328 0.37992 0.85351 0.0
C1661 C 0.33918 0.29319 0.82104 0.0
C1662 C 0.44059 0.46213 0.93032 0.0
C1663 C 0.42477 0.44189 0.91444 0.0
C1664 C 0.39324 0.36791 0.90425 0.0
C1665 C 0.35774 0.33798 0.84354 0.0
C1666 C 0.37671 0.35568 0.86138 0.0
C1667 C 0.42407 0.41388 0.91561 0.0
C1668 C 0.40899 0.39278 0.89668 0.0
H1669 H 0.30849 0.34331 0.80635 0.0
H1670 H 0.34018 0.37168 0.83551 0.0
H1671 H 0.36461 0.33088 0.8932 0.0
H1672 H 0.46554 0.42119 0.96437 0.0
H1673 H 0.43816 0.38527 0.93584 0.0
C1674 C 0.6911 0.33194 0.89805 0.0
C1675 C 0.70573 0.35341 0.88404 0.0
C1676 C 0.68052 0.33785 0.92399 0.0
C1677 C 0.65953 0.40099 0.96368 0.0
H1678 H 0.59175 0.36647 0.93355 0.0
C1679 C 0.58886 0.46426 0.93627 0.0
C1680 C 0.5606 0.45705 0.94445 0.0
C1681 C 0.60641 0.4464 0.93807 0.0
C1682 C 0.61027 0.37613 0.94264 0.0
H1683 H 0.72769 0.39568 0.88823 0.0
H1684 H 0.70674 0.40663 0.932 0.0
H1685 H 0.62838 0.34106 0.93034 0.0
H1686 H 0.52772 0.42509 0.95812 0.0
H1687 H 0.55834 0.3932 0.96013 0.0
H1688 H 0.64149 0.43706 0.97374 0.0
C1689 C 0.7031 0.38527 0.92354 0.0
C1690 C 0.63143 0.36146 0.94117 0.0
C1691 C 0.71471 0.37919 0.89799 0.0
C1692 C 0.54951 0.43062 0.95124 0.0
C1693 C 0.56702 0.41273 0.95295 0.0
C1694 C 0.63839 0.41579 0.9649 0.0
C1695 C 0.68255 0.36543 0.93512 0.0
C1696 C 0.65736 0.37464 0.94935 0.0
C1697 C 0.59569 0.4212 0.9478 0.0
C1698 C 0.61457 0.40397 0.95261 0.0
H1699 H 0.6845 0.31138 0.88844 0.0
H1700 H 0.66631 0.3217 0.93325 0.0
H1701 H 0.67875 0.41136 0.97116 0.0
H1702 H 0.59778 0.48482 0.93154 0.0
H1703 H 0.62848 0.45288 0.93318 0.0
C1704 C 0.71577 0.40021 0.16606 0.0
C1705 C 0.69967 0.38087 0.18155 0.0
C1706 C 0.70607 0.4058 0.14394 0.0
C1707 C 0.65004 0.38393 0.10002 0.0
H1708 H 0.66003 0.46252 0.09791 0.0
C1709 C 0.57527 0.43427 0.05756 0.0
C1710 C 0.58496 0.45924 0.0471 0.0
C1711 C 0.59331 0.42141 0.06735 0.0
C1712 C 0.65754 0.44048 0.09768 0.0
H1713 H 0.6616 0.35106 0.18548 0.0
H1714 H 0.64415 0.36115 0.14697 0.0
H1715 H 0.68398 0.44552 0.12765 0.0
H1716 H 0.62149 0.48924 0.03684 0.0
H1717 H 0.65334 0.46644 0.05368 0.0
H1718 H 0.62261 0.37915 0.07064 0.0
C1719 C 0.66454 0.3717 0.15158 0.0
C1720 C 0.6713 0.43066 0.11484 0.0
C1721 C 0.67446 0.36588 0.17364 0.0
C1722 C 0.61345 0.47001 0.04479 0.0
C1723 C 0.6316 0.4571 0.05467 0.0
C1724 C 0.63624 0.39379 0.0828 0.0
C1725 C 0.67982 0.39248 0.13703 0.0
C1726 C 0.66736 0.4023 0.1166 0.0
C1727 C 0.62154 0.43316 0.06689 0.0
C1728 C 0.63938 0.42223 0.08185 0.0
H1729 H 0.73533 0.41196 0.17182 0.0
H1730 H 0.7187 0.42141 0.13285 0.0
H1731 H 0.6468 0.36195 0.1006 0.0
H1732 H 0.55341 0.4253 0.05938 0.0
H1733 H 0.58472 0.40319 0.07678 0.0
C1734 C 0.69099 0.72775 0.20548 0.0
C1735 C 0.71008 0.71642 0.21606 0.0
C1736 C 0.67368 0.71146 0.18777 0.0
C1737 C 0.64211 0.63998 0.16826 0.0
H1738 H 0.6385 0.66221 0.10081 0.0
C1739 C 0.59517 0.56164 0.08826 0.0
C1740 C 0.57814 0.56946 0.0725 0.0
C1741 C 0.61122 0.5813 0.10447 0.0
C1742 C 0.63894 0.65587 0.1197 0.0
H1743 H 0.72624 0.67914 0.21574 0.0
H1744 H 0.6953 0.6507 0.18601 0.0
H1745 H 0.66543 0.69367 0.13277 0.0
H1746 H 0.56533 0.60398 0.06032 0.0
H1747 H 0.59307 0.63882 0.08949 0.0
H1748 H 0.61553 0.60253 0.15577 0.0
C1749 C 0.69369 0.67213 0.19143 0.0
C1750 C 0.65438 0.67387 0.13795 0.0
C1751 C 0.71128 0.68844 0.20868 0.0
C1752 C 0.57839 0.59753 0.07231 0.0
C1753 C 0.59425 0.61738 0.08899 0.0
C1754 C 0.6265 0.62221 0.15025 0.0
C1755 C 0.67481 0.68346 0.18071 0.0
C1756 C 0.65653 0.6658 0.16218 0.0
C1757 C 0.61027 0.60935 0.1058 0.0
C1758 C 0.62524 0.62959 0.12547 0.0
H1759 H 0.68972 0.74928 0.21057 0.0
H1760 H 0.65924 0.72066 0.1798 0.0
H1761 H 0.64303 0.63344 0.18697 0.0
H1762 H 0.59569 0.54011 0.0884 0.0
H1763 H 0.62404 0.57436 0.11635 0.0
C1764 C 0.31745 0.62752 0.14426 0.0
C1765 C 0.32535 0.65559 0.15283 0.0
C1766 C 0.32109 0.61811 0.11774 0.0
C1767 C 0.38137 0.64555 0.07915 0.0
H1768 H 0.37377 0.56725 0.0572 0.0
C1769 C 0.47368 0.58959 0.06196 0.0
C1770 C 0.46834 0.56478 0.0729 0.0
C1771 C 0.45217 0.60298 0.06051 0.0
C1772 C 0.37613 0.58925 0.06294 0.0
H1773 H 0.33596 0.69637 0.14004 0.0
H1774 H 0.34077 0.67983 0.09412 0.0
H1775 H 0.3325 0.58786 0.06718 0.0
H1776 H 0.43738 0.53605 0.09343 0.0
H1777 H 0.39989 0.56055 0.09261 0.0
H1778 H 0.42468 0.64663 0.07716 0.0
C1779 C 0.33322 0.66493 0.10778 0.0
C1780 C 0.35259 0.60111 0.06827 0.0
C1781 C 0.33052 0.67442 0.13434 0.0
C1782 C 0.44195 0.55524 0.08512 0.0
C1783 C 0.42042 0.56877 0.08386 0.0
C1784 C 0.40482 0.63376 0.07375 0.0
C1785 C 0.33294 0.63683 0.09975 0.0
C1786 C 0.35482 0.62873 0.07944 0.0
C1787 C 0.42517 0.59196 0.07044 0.0
C1788 C 0.40205 0.6052 0.06789 0.0
H1789 H 0.31165 0.61261 0.15807 0.0
H1790 H 0.31909 0.59612 0.11229 0.0
H1791 H 0.38433 0.6671 0.087 0.0
H1792 H 0.49397 0.59713 0.05222 0.0
H1793 H 0.45642 0.62104 0.0504 0.0
C1794 C 0.33792 0.31956 0.20733 0.0
C1795 C 0.30961 0.3181 0.21582 0.0
C1796 C 0.35105 0.3365 0.18845 0.0
C1797 C 0.36968 0.36097 0.13754 0.0
H1798 H 0.35062 0.4325 0.13835 0.0
C1799 C 0.42014 0.42918 0.05789 0.0
C1800 C 0.42936 0.45693 0.0669 0.0
C1801 C 0.40157 0.4122 0.07405 0.0
C1802 C 0.35628 0.41262 0.13784 0.0
H1803 H 0.27302 0.3337 0.21142 0.0
H1804 H 0.29564 0.36263 0.17829 0.0
H1805 H 0.32821 0.40367 0.17178 0.0
H1806 H 0.42657 0.48885 0.09949 0.0
H1807 H 0.39436 0.45961 0.1277 0.0
H1808 H 0.39869 0.37041 0.10437 0.0
C1809 C 0.30789 0.35104 0.18638 0.0
C1810 C 0.34319 0.39594 0.1569 0.0
C1811 C 0.29483 0.33422 0.20529 0.0
C1812 C 0.41885 0.46779 0.09176 0.0
C1813 C 0.40052 0.45086 0.10799 0.0
C1814 C 0.3829 0.37773 0.11858 0.0
C1815 C 0.33613 0.35231 0.1776 0.0
C1816 C 0.34985 0.36996 0.15711 0.0
C1817 C 0.39235 0.42262 0.0997 0.0
C1818 C 0.37652 0.40388 0.11857 0.0
H1819 H 0.34987 0.30729 0.21495 0.0
H1820 H 0.37293 0.33727 0.18244 0.0
H1821 H 0.37503 0.34093 0.13683 0.0
H1822 H 0.42862 0.42024 0.03902 0.0
H1823 H 0.39539 0.39067 0.06684 0.0
C1824 C 0.82559 0.68943 0.72785 0.0
C1825 C 0.8125 0.70574 0.71557 0.0
C1826 C 0.8431 0.67239 0.71327 0.0
C1827 C 0.88004 0.65815 0.64502 0.0
H1828 H 0.8915 0.59333 0.67136 0.0
C1829 C 0.92862 0.57485 0.57755 0.0
C1830 C 0.95102 0.56574 0.5853 0.0
C1831 C 0.91237 0.59069 0.59505 0.0
C1832 C 0.88871 0.61149 0.66382 0.0
H1833 H 0.80871 0.71711 0.67808 0.0
H1834 H 0.83676 0.68628 0.65259 0.0
H1835 H 0.86171 0.62277 0.69767 0.0
H1836 H 0.97254 0.5653 0.61861 0.0
H1837 H 0.94309 0.59245 0.64982 0.0
H1838 H 0.90609 0.64603 0.61071 0.0
C1839 C 0.83452 0.68697 0.6736 0.0
C1840 C 0.87159 0.62864 0.67899 0.0
C1841 C 0.81764 0.70446 0.68826 0.0
C1842 C 0.95541 0.57163 0.61188 0.0
C1843 C 0.93865 0.58739 0.62971 0.0
C1844 C 0.8966 0.64076 0.62974 0.0
C1845 C 0.84788 0.67066 0.68575 0.0
C1846 C 0.86671 0.6523 0.66984 0.0
C1847 C 0.91744 0.59785 0.62124 0.0
C1848 C 0.90108 0.61705 0.63876 0.0
H1849 H 0.82256 0.68997 0.74889 0.0
H1850 H 0.85315 0.66094 0.72384 0.0
H1851 H 0.87802 0.67637 0.63717 0.0
H1852 H 0.92415 0.57062 0.55742 0.0
H1853 H 0.89595 0.59777 0.58784 0.0
C1854 C 0.30448 0.81154 0.68486 0.0
C1855 C 0.31549 0.79861 0.70208 0.0
C1856 C 0.32174 0.82468 0.66514 0.0
C1857 C 0.39539 0.85402 0.64602 0.0
H1858 H 0.36918 0.85329 0.57912 0.0
C1859 C 0.46486 0.90663 0.56338 0.0
C1860 C 0.45305 0.9267 0.55528 0.0
C1861 C 0.44835 0.88666 0.5778 0.0
C1862 C 0.37676 0.8535 0.59768 0.0
H1863 H 0.3535 0.79104 0.71294 0.0
H1864 H 0.38331 0.81197 0.6776 0.0
H1865 H 0.33986 0.82736 0.61211 0.0
H1866 H 0.41495 0.94095 0.55424 0.0
H1867 H 0.38589 0.90546 0.57859 0.0
H1868 H 0.43229 0.88016 0.63147 0.0
C1869 C 0.36139 0.81227 0.67939 0.0
C1870 C 0.35993 0.83888 0.61667 0.0
C1871 C 0.34418 0.79961 0.69936 0.0
C1872 C 0.42435 0.9254 0.56008 0.0
C1873 C 0.40779 0.90515 0.574 0.0
C1874 C 0.41233 0.86831 0.62691 0.0
C1875 C 0.35041 0.82503 0.66202 0.0
C1876 C 0.36887 0.83929 0.64124 0.0
C1877 C 0.4198 0.88627 0.58385 0.0
C1878 C 0.40303 0.86847 0.6027 0.0
H1879 H 0.28248 0.81149 0.68656 0.0
H1880 H 0.31261 0.83487 0.65255 0.0
H1881 H 0.40281 0.85529 0.66483 0.0
H1882 H 0.48706 0.90764 0.56029 0.0
H1883 H 0.45804 0.87226 0.58516 0.0
C1884 C 0.20598 0.38373 0.65331 0.0
C1885 C 0.20246 0.377 0.67889 0.0
C1886 C 0.18532 0.39335 0.64391 0.0
C1887 C 0.11376 0.40082 0.64974 0.0
H1888 H 0.14555 0.47239 0.62773 0.0
C1889 C 0.04962 0.46383 0.60504 0.0
C1890 C 0.06323 0.47409 0.58209 0.0
C1891 C 0.06438 0.45365 0.62135 0.0
C1892 C 0.13629 0.45241 0.63369 0.0
H1893 H 0.17389 0.37283 0.71404 0.0
H1894 H 0.13709 0.38938 0.69722 0.0
H1895 H 0.17422 0.44745 0.64571 0.0
H1896 H 0.10271 0.48296 0.55862 0.0
H1897 H 0.12833 0.46561 0.58672 0.0
H1898 H 0.07609 0.40524 0.63641 0.0
C1899 C 0.15599 0.38723 0.68461 0.0
C1900 C 0.15272 0.43818 0.64403 0.0
C1901 C 0.17689 0.37765 0.69414 0.0
C1902 C 0.09186 0.47544 0.57641 0.0
C1903 C 0.10652 0.4655 0.5926 0.0
C1904 C 0.09727 0.41498 0.63899 0.0
C1905 C 0.16066 0.39635 0.65986 0.0
C1906 C 0.14184 0.41199 0.65153 0.0
C1907 C 0.09293 0.45388 0.61496 0.0
C1908 C 0.10863 0.44065 0.6302 0.0
H1909 H 0.22556 0.38341 0.64126 0.0
H1910 H 0.18922 0.39993 0.62463 0.0
H1911 H 0.10495 0.38066 0.65551 0.0
H1912 H 0.02742 0.46212 0.6095 0.0
H1913 H 0.05335 0.44498 0.63852 0.0
C1914 C 0.73588 0.18145 0.68576 0.0
C1915 C 0.73437 0.20943 0.69244 0.0
C1916 C 0.7186 0.16455 0.6683 0.0
C1917 C 0.65327 0.16433 0.63961 0.0
H1918 H 0.66824 0.09531 0.60128 0.0
C1919 C 0.58992 0.09108 0.56021 0.0
C1920 C 0.57146 0.07055 0.57286 0.0
C1921 C 0.61195 0.10755 0.57265 0.0
C1922 C 0.66395 0.11462 0.61185 0.0
H1923 H 0.71823 0.24261 0.6816 0.0
H1924 H 0.68898 0.21381 0.65066 0.0
H1925 H 0.70409 0.12591 0.62517 0.0
H1926 H 0.56236 0.05052 0.60802 0.0
H1927 H 0.60126 0.07911 0.62949 0.0
H1928 H 0.6133 0.15299 0.62563 0.0
C1929 C 0.70139 0.20413 0.66064 0.0
C1930 C 0.68435 0.13211 0.62576 0.0
C1931 C 0.71813 0.22076 0.67853 0.0
C1932 C 0.57604 0.06633 0.59788 0.0
C1933 C 0.59832 0.08252 0.61011 0.0
C1934 C 0.63313 0.14704 0.62543 0.0
C1935 C 0.70027 0.17548 0.65619 0.0
C1936 C 0.67927 0.15721 0.64005 0.0
C1937 C 0.61623 0.10342 0.5977 0.0
C1938 C 0.63822 0.122 0.61163 0.0
H1939 H 0.74946 0.17218 0.69466 0.0
H1940 H 0.71889 0.14274 0.66525 0.0
H1941 H 0.64803 0.18298 0.65077 0.0
H1942 H 0.58689 0.09493 0.54099 0.0
H1943 H 0.62545 0.12374 0.56286 0.0
C1944 C 0.82355 0.29717 0.33321 0.0
C1945 C 0.81443 0.30973 0.31442 0.0
C1946 C 0.84099 0.31267 0.3511 0.0
C1947 C 0.86322 0.3824 0.38386 0.0
H1948 H 0.92894 0.35565 0.39264 0.0
C1949 C 0.94873 0.44902 0.44331 0.0
C1950 C 0.96392 0.43595 0.45684 0.0
C1951 C 0.92968 0.43362 0.42681 0.0
C1952 C 0.91047 0.36327 0.39089 0.0
H1953 H 0.81589 0.34879 0.30046 0.0
H1954 H 0.84578 0.37595 0.33227 0.0
H1955 H 0.89707 0.32906 0.36262 0.0
H1956 H 0.97027 0.3963 0.46414 0.0
H1957 H 0.93632 0.3694 0.43622 0.0
H1958 H 0.87611 0.41628 0.4125 0.0
C1959 C 0.8396 0.35398 0.33284 0.0
C1960 C 0.89226 0.34803 0.37351 0.0
C1961 C 0.8225 0.33839 0.3146 0.0
C1962 C 0.95907 0.40705 0.4539 0.0
C1963 C 0.93971 0.39161 0.43766 0.0
C1964 C 0.88124 0.39748 0.40154 0.0
C1965 C 0.84932 0.34122 0.35107 0.0
C1966 C 0.86849 0.35746 0.36972 0.0
C1967 C 0.92495 0.40466 0.4236 0.0
C1968 C 0.90523 0.38822 0.40525 0.0
H1969 H 0.81753 0.27522 0.33393 0.0
H1970 H 0.84784 0.3023 0.36512 0.0
H1971 H 0.8449 0.39003 0.38157 0.0
H1972 H 0.95209 0.47127 0.44488 0.0
H1973 H 0.91921 0.44455 0.41606 0.0
C1974 C 0.69 0.79442 0.32269 0.0
C1975 C 0.71358 0.80789 0.30815 0.0
C1976 C 0.67245 0.80946 0.33995 0.0
C1977 C 0.65428 0.87983 0.35429 0.0
H1978 H 0.6186 0.85527 0.41988 0.0
C1979 C 0.60042 0.95246 0.43086 0.0
C1980 C 0.57543 0.94228 0.44565 0.0
C1981 C 0.61624 0.93479 0.41526 0.0
C1982 C 0.62812 0.86233 0.40152 0.0
H1983 H 0.73694 0.84811 0.30071 0.0
H1984 H 0.70678 0.87409 0.33052 0.0
H1985 H 0.64794 0.82729 0.39061 0.0
H1986 H 0.54822 0.90485 0.45595 0.0
H1987 H 0.57602 0.87366 0.42845 0.0
H1988 H 0.63463 0.91471 0.36493 0.0
C1989 C 0.70144 0.85185 0.32848 0.0
C1990 C 0.64504 0.84622 0.38464 0.0
C1991 C 0.71896 0.83685 0.31134 0.0
C1992 C 0.56734 0.91353 0.44499 0.0
C1993 C 0.58333 0.89564 0.42915 0.0
C1994 C 0.63748 0.89584 0.37107 0.0
C1995 C 0.67776 0.83848 0.34302 0.0
C1996 C 0.65872 0.8549 0.36086 0.0
C1997 C 0.60777 0.90606 0.41358 0.0
C1998 C 0.6244 0.88765 0.39518 0.0
H1999 H 0.68477 0.7722 0.32045 0.0
H2000 H 0.65434 0.79824 0.35042 0.0
H2001 H 0.66362 0.88702 0.33594 0.0
H2002 H 0.60777 0.97439 0.43094 0.0
H2003 H 0.63523 0.94385 0.40437 0.0
C2004 C 0.19412 0.71956 0.32622 0.0
C2005 C 0.22227 0.71833 0.31998 0.0
C2006 C 0.17723 0.70251 0.34343 0.0
C2007 C 0.17518 0.63901 0.37452 0.0
H2008 H 0.11438 0.66488 0.41937 0.0
C2009 C 0.09381 0.56746 0.43764 0.0
C2010 C 0.08091 0.57947 0.46097 0.0
C2011 C 0.11235 0.58397 0.42092 0.0
C2012 C 0.13151 0.65733 0.40734 0.0
H2013 H 0.25497 0.69935 0.32803 0.0
H2014 H 0.22614 0.66994 0.35804 0.0
H2015 H 0.14385 0.6948 0.39024 0.0
H2016 H 0.07852 0.61786 0.48586 0.0
H2017 H 0.1118 0.64632 0.45774 0.0
H2018 H 0.16357 0.602 0.39253 0.0
C2019 C 0.21658 0.68325 0.34906 0.0
C2020 C 0.14819 0.67444 0.39014 0.0
C2021 C 0.23329 0.70013 0.33172 0.0
C2022 C 0.08806 0.60803 0.46793 0.0
C2023 C 0.1069 0.62441 0.45154 0.0
C2024 C 0.15871 0.62202 0.39201 0.0
C2025 C 0.1882 0.68396 0.35506 0.0
C2026 C 0.17029 0.66557 0.37341 0.0
C2027 C 0.11869 0.61281 0.42736 0.0
C2028 C 0.1366 0.63091 0.40873 0.0
H2029 H 0.18495 0.73305 0.31714 0.0
H2030 H 0.15544 0.70351 0.34712 0.0
H2031 H 0.19165 0.63112 0.36172 0.0
H2032 H 0.08836 0.54555 0.43158 0.0
H2033 H 0.1207 0.57416 0.40244 0.0
C2034 C 0.37472 0.18724 0.3606 0.0
C2035 C 0.37067 0.17579 0.33471 0.0
C2036 C 0.3836 0.17217 0.37744 0.0
C2037 C 0.4234 0.11735 0.37364 0.0
H2038 H 0.39459 0.11146 0.44602 0.0
C2039 C 0.46166 0.04506 0.42912 0.0
C2040 C 0.4666 0.05383 0.4552 0.0
C2041 C 0.44691 0.05907 0.41646 0.0
C2042 C 0.4031 0.11315 0.42592 0.0
H2043 H 0.37048 0.13871 0.30712 0.0
H2044 H 0.38628 0.11288 0.33613 0.0
H2045 H 0.37452 0.13835 0.42055 0.0
H2046 H 0.45916 0.08354 0.48884 0.0
H2047 H 0.43388 0.10869 0.4665 0.0
H2048 H 0.45241 0.0931 0.37876 0.0
C2049 C 0.38317 0.13362 0.34329 0.0
C2050 C 0.39154 0.12852 0.41135 0.0
C2051 C 0.37416 0.14849 0.32663 0.0
C2052 C 0.45533 0.07617 0.4688 0.0
C2053 C 0.4409 0.09059 0.45593 0.0
C2054 C 0.43509 0.10234 0.38817 0.0
C2055 C 0.38869 0.14548 0.36864 0.0
C2056 C 0.40132 0.13039 0.38491 0.0
C2057 C 0.43722 0.08268 0.42932 0.0
C2058 C 0.42486 0.09958 0.4144 0.0
H2059 H 0.37225 0.20821 0.36747 0.0
H2060 H 0.38769 0.18184 0.3969 0.0
H2061 H 0.43187 0.11894 0.3535 0.0
H2062 H 0.46997 0.02777 0.41822 0.0
H2063 H 0.44374 0.05171 0.39628 0.0
C2064 C 0.65738 0.83573 0.65788 0.0
C2065 C 0.65706 0.84544 0.6847 0.0
C2066 C 0.64999 0.85125 0.64052 0.0
C2067 C 0.63832 0.92197 0.63556 0.0
H2068 H 0.59213 0.8842 0.58207 0.0
C2069 C 0.567 0.97505 0.59084 0.0
C2070 C 0.56395 0.96874 0.56406 0.0
C2071 C 0.58262 0.96108 0.60262 0.0
C2072 C 0.60537 0.89506 0.59664 0.0
H2073 H 0.65013 0.87985 0.71386 0.0
H2074 H 0.63637 0.90611 0.68418 0.0
H2075 H 0.61138 0.85752 0.60812 0.0
H2076 H 0.57531 0.94306 0.52853 0.0
H2077 H 0.6027 0.91835 0.54927 0.0
H2078 H 0.63138 0.95944 0.62476 0.0
C2079 C 0.64259 0.88674 0.67626 0.0
C2080 C 0.61648 0.87976 0.6116 0.0
C2081 C 0.6501 0.8714 0.69347 0.0
C2082 C 0.57758 0.9486 0.54913 0.0
C2083 C 0.59298 0.93427 0.56106 0.0
C2084 C 0.62704 0.9372 0.6208 0.0
C2085 C 0.64216 0.87687 0.64954 0.0
C2086 C 0.63265 0.893 0.63167 0.0
C2087 C 0.59541 0.94017 0.58803 0.0
C2088 C 0.60999 0.92395 0.60149 0.0
H2089 H 0.66255 0.81581 0.65039 0.0
H2090 H 0.65029 0.84308 0.62005 0.0
H2091 H 0.65125 0.93302 0.6503 0.0
H2092 H 0.55667 0.99039 0.6029 0.0
H2093 H 0.58374 0.96595 0.62346 0.0
C2094 C 0.70053 0.19983 0.31356 0.0
C2095 C 0.71476 0.22702 0.31863 0.0
C2096 C 0.68251 0.1873 0.33315 0.0
C2097 C 0.66917 0.18799 0.40354 0.0
H2098 H 0.59704 0.14612 0.38855 0.0
C2099 C 0.56551 0.11824 0.4569 0.0
C2100 C 0.57748 0.09758 0.46373 0.0
C2101 C 0.58167 0.13862 0.44269 0.0
C2102 C 0.61696 0.15804 0.39313 0.0
H2103 H 0.72163 0.26231 0.34822 0.0
H2104 H 0.69008 0.24025 0.38265 0.0
H2105 H 0.62612 0.17241 0.3556 0.0
H2106 H 0.61569 0.08273 0.46263 0.0
H2107 H 0.64414 0.11896 0.43875 0.0
H2108 H 0.66042 0.17258 0.44068 0.0
C2109 C 0.69284 0.22877 0.36343 0.0
C2110 C 0.63367 0.17286 0.37423 0.0
C2111 C 0.71071 0.24142 0.34372 0.0
C2112 C 0.6061 0.09867 0.45778 0.0
C2113 C 0.62234 0.11935 0.44413 0.0
C2114 C 0.65262 0.17278 0.42232 0.0
C2115 C 0.67856 0.20159 0.3583 0.0
C2116 C 0.66005 0.18772 0.37914 0.0
C2117 C 0.61011 0.13893 0.43565 0.0
C2118 C 0.62646 0.15749 0.41718 0.0
H2119 H 0.70319 0.18821 0.29438 0.0
H2120 H 0.672 0.16622 0.32874 0.0
H2121 H 0.68951 0.19912 0.40774 0.0
H2122 H 0.54338 0.11749 0.46087 0.0
H2123 H 0.57181 0.15353 0.43635 0.0
C2124 C 0.88221 0.64385 0.30684 0.0
C2125 C 0.8546 0.64633 0.31519 0.0
C2126 C 0.89672 0.63161 0.32144 0.0
C2127 C 0.88502 0.58332 0.3705 0.0
H2128 H 0.96281 0.6106 0.37792 0.0
C2129 C 0.94193 0.54902 0.44481 0.0
C2130 C 0.96986 0.54687 0.43835 0.0
C2131 C 0.92784 0.55829 0.42762 0.0
C2132 C 0.94122 0.60243 0.37562 0.0
H2133 H 0.82082 0.63886 0.34593 0.0
H2134 H 0.84639 0.61796 0.37184 0.0
H2135 H 0.93844 0.63463 0.35391 0.0
H2136 H 1.00478 0.55152 0.40847 0.0
H2137 H 0.97996 0.56767 0.37795 0.0
H2138 H 0.8877 0.55133 0.3925 0.0
C2139 C 0.85665 0.62502 0.35368 0.0
C2140 C 0.92721 0.61628 0.36197 0.0
C2141 C 0.84211 0.6373 0.33903 0.0
C2142 C 0.98314 0.55273 0.41373 0.0
C2143 C 0.96905 0.5623 0.39649 0.0
C2144 C 0.89901 0.56949 0.38416 0.0
C2145 C 0.88397 0.62162 0.34481 0.0
C2146 C 0.8989 0.607 0.35941 0.0
C2147 C 0.94143 0.56579 0.40357 0.0
C2148 C 0.92722 0.579 0.38705 0.0
H2149 H 0.8925 0.65099 0.28872 0.0
H2150 H 0.91766 0.6292 0.31397 0.0
H2151 H 0.86336 0.57529 0.36843 0.0
H2152 H 0.93127 0.54466 0.46376 0.0
H2153 H 0.90673 0.56097 0.43384 0.0
C2154 C 0.29201 0.82039 0.34658 0.0
C2155 C 0.30067 0.81899 0.31968 0.0
C2156 C 0.30806 0.83845 0.36445 0.0
C2157 C 0.36277 0.90111 0.36923 0.0
H2158 H 0.38457 0.8716 0.42622 0.0
C2159 C 0.45977 0.95381 0.41858 0.0
C2160 C 0.45989 0.95399 0.44558 0.0
C2161 C 0.43751 0.93877 0.4057 0.0
C2162 C 0.37836 0.88037 0.4107 0.0
H2163 H 0.33204 0.83594 0.29024 0.0
H2164 H 0.35943 0.86775 0.32109 0.0
H2165 H 0.34975 0.84335 0.39958 0.0
H2166 H 0.43627 0.93837 0.4802 0.0
H2167 H 0.39722 0.91208 0.45763 0.0
H2168 H 0.3914 0.93793 0.37995 0.0
C2169 C 0.34053 0.85493 0.32859 0.0
C2170 C 0.35837 0.86415 0.39544 0.0
C2171 C 0.32489 0.83663 0.3109 0.0
C2172 C 0.43691 0.93875 0.4594 0.0
C2173 C 0.41458 0.92353 0.44642 0.0
C2174 C 0.38256 0.91733 0.38451 0.0
C2175 C 0.33262 0.85581 0.35561 0.0
C2176 C 0.35086 0.87411 0.37412 0.0
C2177 C 0.41457 0.92337 0.41936 0.0
C2178 C 0.39121 0.90698 0.40505 0.0
H2179 H 0.27354 0.80677 0.35379 0.0
H2180 H 0.30138 0.83872 0.38515 0.0
H2181 H 0.35711 0.90958 0.35323 0.0
H2182 H 0.47699 0.96531 0.40723 0.0
H2183 H 0.43858 0.93884 0.38481 0.0
C2184 C 0.18501 0.30367 0.30685 0.0
C2185 C 0.21408 0.3104 0.30483 0.0
C2186 C 0.16857 0.32167 0.32138 0.0
C2187 C 0.17332 0.39461 0.35685 0.0
H2188 H 0.09739 0.36636 0.3826 0.0
C2189 C 0.1074 0.45676 0.43597 0.0
C2190 C 0.0793 0.4551 0.43323 0.0
C2191 C 0.12373 0.44067 0.41861 0.0
C2192 C 0.11848 0.3747 0.37534 0.0
H2193 H 0.24842 0.34147 0.31758 0.0
H2194 H 0.22026 0.37141 0.34466 0.0
H2195 H 0.12567 0.33509 0.35769 0.0
H2196 H 0.04623 0.43476 0.41014 0.0
H2197 H 0.07475 0.40643 0.37968 0.0
H2198 H 0.16613 0.43407 0.37588 0.0
C2199 C 0.20973 0.35295 0.33392 0.0
C2200 C 0.13491 0.35666 0.36078 0.0
C2201 C 0.22615 0.33533 0.31867 0.0
C2202 C 0.06802 0.43718 0.4123 0.0
C2203 C 0.08427 0.4206 0.39514 0.0
C2204 C 0.15704 0.41249 0.37189 0.0
C2205 C 0.18051 0.34675 0.33534 0.0
C2206 C 0.16274 0.36618 0.35113 0.0
C2207 C 0.1123 0.42184 0.39827 0.0
C2208 C 0.12934 0.40286 0.38134 0.0
H2209 H 0.17478 0.28441 0.29706 0.0
H2210 H 0.1464 0.31581 0.32121 0.0
H2211 H 0.19417 0.40344 0.34952 0.0
H2212 H 0.11651 0.4698 0.4523 0.0
H2213 H 0.14505 0.44202 0.42192 0.0
C2214 C 0.34382 0.22795 0.70332 0.0
C2215 C 0.31817 0.21481 0.71488 0.0
C2216 C 0.36081 0.21311 0.68514 0.0
C2217 C 0.35927 0.14481 0.64256 0.0
H2218 H 0.43917 0.16581 0.63805 0.0
C2219 C 0.42996 0.07137 0.58772 0.0
C2220 C 0.45565 0.08173 0.57413 0.0
C2221 C 0.4138 0.0889 0.60316 0.0
C2222 C 0.41689 0.15979 0.63874 0.0
H2223 H 0.29087 0.17518 0.71656 0.0
H2224 H 0.32061 0.14932 0.6861 0.0
H2225 H 0.41036 0.19323 0.66842 0.0
H2226 H 0.48413 0.11928 0.56624 0.0
H2227 H 0.45556 0.15021 0.59308 0.0
H2228 H 0.36572 0.11124 0.61321 0.0
C2229 C 0.32742 0.17133 0.69019 0.0
C2230 C 0.40022 0.17562 0.65628 0.0
C2231 C 0.31034 0.18622 0.70808 0.0
C2232 C 0.46439 0.11049 0.57614 0.0
C2233 C 0.44811 0.12821 0.59184 0.0
C2234 C 0.37588 0.12899 0.62519 0.0
C2235 C 0.35293 0.18446 0.67819 0.0
C2236 C 0.37105 0.16825 0.65874 0.0
C2237 C 0.42255 0.11764 0.60571 0.0
C2238 C 0.405 0.13596 0.62314 0.0
H2239 H 0.35094 0.24976 0.70841 0.0
H2240 H 0.38003 0.22429 0.67637 0.0
H2241 H 0.33703 0.13862 0.64306 0.0
H2242 H 0.42235 0.0494 0.58685 0.0
H2243 H 0.39466 0.07969 0.61373 0.0
C2244 C 0.80339 0.32678 0.69488 0.0
C2245 C 0.81153 0.30318 0.70044 0.0
C2246 C 0.81989 0.34362 0.67747 0.0
C2247 C 0.89219 0.36151 0.64766 0.0
H2248 H 0.85989 0.39648 0.60092 0.0
C2249 C 0.95789 0.41383 0.56399 0.0
C2250 C 0.95481 0.44044 0.56056 0.0
C2251 C 0.93926 0.39831 0.58101 0.0
C2252 C 0.86914 0.38715 0.61412 0.0
H2253 H 0.84364 0.2787 0.69175 0.0
H2254 H 0.87244 0.30768 0.66078 0.0
H2255 H 0.82987 0.36557 0.62961 0.0
H2256 H 0.92866 0.47097 0.57195 0.0
H2257 H 0.89524 0.44314 0.60164 0.0
H2258 H 0.93145 0.38265 0.63182 0.0
C2259 C 0.85322 0.31339 0.67019 0.0
C2260 C 0.85199 0.36938 0.63054 0.0
C2261 C 0.83655 0.2965 0.68768 0.0
C2262 C 0.93169 0.45062 0.57406 0.0
C2263 C 0.91262 0.43472 0.59105 0.0
C2264 C 0.90928 0.37909 0.63118 0.0
C2265 C 0.84518 0.33734 0.66504 0.0
C2266 C 0.86333 0.35616 0.64739 0.0
C2267 C 0.91666 0.40863 0.59508 0.0
C2268 C 0.898 0.39191 0.61404 0.0
H2269 H 0.78428 0.33245 0.70408 0.0
H2270 H 0.81308 0.36197 0.6743 0.0
H2271 H 0.90165 0.35229 0.66078 0.0
H2272 H 0.97522 0.40494 0.55396 0.0
H2273 H 0.94267 0.37812 0.58324 0.0
C2274 C 0.21085 0.72658 0.68576 0.0
C2275 C 0.21939 0.71403 0.70487 0.0
C2276 C 0.19319 0.71117 0.66797 0.0
C2277 C 0.16988 0.64097 0.63667 0.0
H2278 H 0.10521 0.66824 0.62576 0.0
C2279 C 0.08393 0.57322 0.57855 0.0
C2280 C 0.06924 0.58588 0.56415 0.0
C2281 C 0.10307 0.58903 0.59476 0.0
C2282 C 0.1234 0.66045 0.62811 0.0
H2283 H 0.21566 0.67536 0.72037 0.0
H2284 H 0.18567 0.64835 0.68871 0.0
H2285 H 0.13716 0.69548 0.65543 0.0
H2286 H 0.06392 0.62517 0.55492 0.0
H2287 H 0.09797 0.65271 0.58236 0.0
H2288 H 0.15665 0.60624 0.60903 0.0
C2289 C 0.19271 0.67014 0.68752 0.0
C2290 C 0.14166 0.67608 0.64528 0.0
C2291 C 0.20995 0.68564 0.70562 0.0
C2292 C 0.0747 0.61474 0.56589 0.0
C2293 C 0.09412 0.63056 0.58184 0.0
C2294 C 0.15184 0.62549 0.61922 0.0
C2295 C 0.18398 0.68277 0.66861 0.0
C2296 C 0.16499 0.66643 0.64988 0.0
C2297 C 0.10838 0.61797 0.59679 0.0
C2298 C 0.12819 0.6349 0.61479 0.0
H2299 H 0.21761 0.74841 0.68467 0.0
H2300 H 0.18693 0.72144 0.65354 0.0
H2301 H 0.18788 0.63316 0.63959 0.0
H2302 H 0.08011 0.55103 0.57788 0.0
H2303 H 0.11316 0.57847 0.60621 0.0
loop_
_geom_bond_atom_site_label_1
_geom_bond_atom_site_label_2
_geom_bond_distance
_geom_bond_site_symmetry_2
_ccdc_geom_bond_type
Eu0 N29 2.600 . S
Eu0 N35 2.562 . S
Eu0 O44 2.462 . S
Eu0 O45 2.373 . S
Eu0 O47 2.432 . S
Eu0 O48 2.291 . S
Eu0 O52 2.335 . S
Eu0 O55 2.372 . S
Eu0 C64 2.787 . S
C1 N2 1.365 . S
C1 C4 1.405 . S
C1 C8 1.448 . S
N2 C1 1.365 . S
N2 C5 1.319 . S
N2 Eu11 2.600 . S
C3 C5 1.397 . S
C3 C6 1.367 . S
C3 H23 0.931 . S
C4 C1 1.405 . S
C4 C6 1.403 . S
C4 C10 1.439 . S
C5 N2 1.319 . S
C5 C3 1.397 . S
C5 H16 0.930 . S
C6 C3 1.367 . S
C6 C4 1.403 . S
C6 H27 0.929 . S
C7 C8 1.430 . S
C7 C9 1.387 . S
C7 C13 1.404 . S
C8 C1 1.448 . S
C8 C7 1.430 . S
C8 N12 1.351 . S
C9 C7 1.387 . S
C9 C10 1.374 . S
C9 H24 0.931 . S
C10 C4 1.439 . S
C10 C9 1.374 . S
C10 H25 0.931 . S
Eu11 N2 2.600 . S
Eu11 N12 2.562 . S
Eu11 O46 2.335 . S
Eu11 O49 2.372 . S
Eu11 O50 2.462 . S
Eu11 O51 2.373 . S
Eu11 O53 2.432 . S
Eu11 O54 2.291 . S
Eu11 C75 2.787 . S
N12 C8 1.351 . S
N12 Eu11 2.562 . S
N12 C14 1.325 . S
C13 C7 1.404 . S
C13 C15 1.366 . S
C13 H21 0.930 . S
C14 N12 1.325 . S
C14 C15 1.416 . S
C14 H20 0.929 . S
C15 C13 1.366 . S
C15 C14 1.416 . S
C15 H17 0.930 . S
H16 C5 0.930 . S
H17 C15 0.930 . S
H18 C33 0.930 . S
H19 C40 0.930 . S
H20 C14 0.929 . S
H21 C13 0.930 . S
H22 C36 0.929 . S
H23 C3 0.931 . S
H24 C9 0.931 . S
H25 C10 0.931 . S
H26 C31 0.931 . S
H27 C6 0.929 . S
H28 C39 0.930 . S
N29 Eu0 2.600 . S
N29 C30 1.365 . S
N29 C33 1.319 . S
C30 N29 1.365 . S
C30 C32 1.405 . S
C30 C38 1.448 . S
C31 H26 0.931 . S
C31 C33 1.397 . S
C31 C34 1.367 . S
C32 C30 1.405 . S
C32 C34 1.403 . S
C32 C65 1.439 . S
C33 H18 0.930 . S
C33 N29 1.319 . S
C33 C31 1.397 . S
C34 C31 1.367 . S
C34 C32 1.403 . S
C34 H41 0.929 . S
N35 Eu0 2.562 . S
N35 C36 1.325 . S
N35 C38 1.351 . S
C36 H22 0.929 . S
C36 N35 1.325 . S
C36 C40 1.416 . S
C37 C38 1.430 . S
C37 C39 1.404 . S
C37 C66 1.387 . S
C38 C30 1.448 . S
C38 N35 1.351 . S
C38 C37 1.430 . S
C39 H28 0.930 . S
C39 C37 1.404 . S
C39 C40 1.366 . S
C40 H19 0.930 . S
C40 C36 1.416 . S
C40 C39 1.366 . S
H41 C34 0.929 . S
H42 C65 0.931 . S
H43 C66 0.931 . S
O44 Eu0 2.462 . S
O44 C64 1.252 . S
O45 Eu0 2.373 . S
O45 C56 1.249 . S
O46 Eu11 2.335 . S
O46 C56 1.264 . S
O47 Eu0 2.432 . S
O47 C64 1.268 . S
O48 Eu0 2.291 . S
O48 C63 1.255 . S
O49 Eu11 2.372 . S
O49 C63 1.257 . S
O50 Eu11 2.462 . S
O50 C75 1.252 . S
O51 Eu11 2.373 . S
O51 C67 1.249 . S
O52 Eu0 2.335 . S
O52 C67 1.264 . S
O53 Eu11 2.432 . S
O53 C75 1.268 . S
O54 Eu11 2.291 . S
O54 C74 1.255 . S
O55 Eu0 2.372 . S
O55 C74 1.257 . S
C56 O45 1.249 . S
C56 O46 1.264 . S
C57 C60 1.382 . S
C57 C62 1.390 . S
C57 C64 1.506 . S
C58 C59 1.398 . S
C58 C62 1.392 . S
C59 C58 1.398 . S
C59 C61 1.372 . S
C59 H76 0.931 . S
C60 C57 1.382 . S
C60 C61 1.390 . S
C60 H77 0.931 . S
C61 C59 1.372 . S
C61 C60 1.390 . S
C61 H78 0.929 . S
C62 C57 1.390 . S
C62 C58 1.392 . S
C62 H79 0.930 . S
C63 O48 1.255 . S
C63 O49 1.257 . S
C64 Eu0 2.787 . S
C64 O44 1.252 . S
C64 O47 1.268 . S
C64 C57 1.506 . S
C65 C32 1.439 . S
C65 H42 0.931 . S
C65 C66 1.374 . S
C66 C37 1.387 . S
C66 H43 0.931 . S
C66 C65 1.374 . S
C67 O51 1.249 . S
C67 O52 1.264 . S
C68 C71 1.382 . S
C68 C72 1.390 . S
C68 C75 1.506 . S
C69 C70 1.398 . S
C69 C72 1.392 . S
C70 C69 1.398 . S
C70 C73 1.372 . S
C70 H80 0.931 . S
C71 C68 1.382 . S
C71 C73 1.390 . S
C71 H81 0.931 . S
C72 C68 1.390 . S
C72 C69 1.392 . S
C72 H82 0.930 . S
C73 C70 1.372 . S
C73 C71 1.390 . S
C73 H83 0.929 . S
C74 O54 1.255 . S
C74 O55 1.257 . S
C75 Eu11 2.787 . S
C75 O50 1.252 . S
C75 O53 1.268 . S
C75 C68 1.506 . S
H76 C59 0.931 . S
H77 C60 0.931 . S
H78 C61 0.929 . S
H79 C62 0.930 . S
H80 C70 0.931 . S
H81 C71 0.931 . S
H82 C72 0.930 . S
H83 C73 0.929 . S
Eu84 N113 2.600 . S
Eu84 N119 2.562 . S
Eu84 O128 2.462 . S
Eu84 O129 2.373 . S
Eu84 O131 2.432 . S
Eu84 O132 2.291 . S
Eu84 O136 2.335 . S
Eu84 O139 2.372 . S
Eu84 C148 2.787 . S
C85 N86 1.365 . S
C85 C88 1.405 . S
C85 C92 1.448 . S
N86 C85 1.365 . S
N86 C89 1.319 . S
N86 Eu95 2.600 . S
C87 C89 1.397 . S
C87 C90 1.367 . S
C87 H107 0.931 . S
C88 C85 1.405 . S
C88 C90 1.403 . S
C88 C94 1.439 . S
C89 N86 1.319 . S
C89 C87 1.397 . S
C89 H100 0.930 . S
C90 C87 1.367 . S
C90 C88 1.403 . S
C90 H111 0.929 . S
C91 C92 1.430 . S
C91 C93 1.387 . S
C91 C97 1.404 . S
C92 C85 1.448 . S
C92 C91 1.430 . S
C92 N96 1.351 . S
C93 C91 1.387 . S
C93 C94 1.374 . S
C93 H108 0.931 . S
C94 C88 1.439 . S
C94 C93 1.374 . S
C94 H109 0.931 . S
Eu95 N86 2.600 . S
Eu95 N96 2.562 . S
Eu95 O130 2.335 . S
Eu95 O133 2.372 . S
Eu95 O134 2.462 . S
Eu95 O135 2.373 . S
Eu95 O137 2.432 . S
Eu95 O138 2.291 . S
Eu95 C159 2.787 . S
N96 C92 1.351 . S
N96 Eu95 2.562 . S
N96 C98 1.325 . S
C97 C91 1.404 . S
C97 C99 1.366 . S
C97 H105 0.930 . S
C98 N96 1.325 . S
C98 C99 1.416 . S
C98 H104 0.929 . S
C99 C97 1.366 . S
C99 C98 1.416 . S
C99 H101 0.930 . S
H100 C89 0.930 . S
H101 C99 0.930 . S
H102 C117 0.930 . S
H103 C124 0.930 . S
H104 C98 0.929 . S
H105 C97 0.930 . S
H106 C120 0.929 . S
H107 C87 0.931 . S
H108 C93 0.931 . S
H109 C94 0.931 . S
H110 C115 0.931 . S
H111 C90 0.929 . S
H112 C123 0.930 . S
N113 Eu84 2.600 . S
N113 C114 1.365 . S
N113 C117 1.319 . S
C114 N113 1.365 . S
C114 C116 1.405 . S
C114 C122 1.448 . S
C115 H110 0.931 . S
C115 C117 1.397 . S
C115 C118 1.367 . S
C116 C114 1.405 . S
C116 C118 1.403 . S
C116 C149 1.439 . S
C117 H102 0.930 . S
C117 N113 1.319 . S
C117 C115 1.397 . S
C118 C115 1.367 . S
C118 C116 1.403 . S
C118 H125 0.929 . S
N119 Eu84 2.562 . S
N119 C120 1.325 . S
N119 C122 1.351 . S
C120 H106 0.929 . S
C120 N119 1.325 . S
C120 C124 1.416 . S
C121 C122 1.430 . S
C121 C123 1.404 . S
C121 C150 1.387 . S
C122 C114 1.448 . S
C122 N119 1.351 . S
C122 C121 1.430 . S
C123 H112 0.930 . S
C123 C121 1.404 . S
C123 C124 1.366 . S
C124 H103 0.930 . S
C124 C120 1.416 . S
C124 C123 1.366 . S
H125 C118 0.929 . S
H126 C149 0.931 . S
H127 C150 0.931 . S
O128 Eu84 2.462 . S
O128 C148 1.252 . S
O129 Eu84 2.373 . S
O129 C140 1.249 . S
O130 Eu95 2.335 . S
O130 C140 1.264 . S
O131 Eu84 2.432 . S
O131 C148 1.268 . S
O132 Eu84 2.291 . S
O132 C147 1.255 . S
O133 Eu95 2.372 . S
O133 C147 1.257 . S
O134 Eu95 2.462 . S
O134 C159 1.252 . S
O135 Eu95 2.373 . S
O135 C151 1.249 . S
O136 Eu84 2.335 . S
O136 C151 1.264 . S
O137 Eu95 2.432 . S
O137 C159 1.268 . S
O138 Eu95 2.291 . S
O138 C158 1.255 . S
O139 Eu84 2.372 . S
O139 C158 1.257 . S
C140 O129 1.249 . S
C140 O130 1.264 . S
C141 C144 1.382 . S
C141 C146 1.390 . S
C141 C148 1.506 . S
C142 C143 1.398 . S
C142 C146 1.392 . S
C143 C142 1.398 . S
C143 C145 1.372 . S
C143 H160 0.931 . S
C144 C141 1.382 . S
C144 C145 1.390 . S
C144 H161 0.931 . S
C145 C143 1.372 . S
C145 C144 1.390 . S
C145 H162 0.929 . S
C146 C141 1.390 . S
C146 C142 1.392 . S
C146 H163 0.930 . S
C147 O132 1.255 . S
C147 O133 1.257 . S
C148 Eu84 2.787 . S
C148 O128 1.252 . S
C148 O131 1.268 . S
C148 C141 1.506 . S
C149 C116 1.439 . S
C149 H126 0.931 . S
C149 C150 1.374 . S
C150 C121 1.387 . S
C150 H127 0.931 . S
C150 C149 1.374 . S
C151 O135 1.249 . S
C151 O136 1.264 . S
C152 C155 1.382 . S
C152 C156 1.390 . S
C152 C159 1.506 . S
C153 C154 1.398 . S
C153 C156 1.392 . S
C154 C153 1.398 . S
C154 C157 1.372 . S
C154 H164 0.931 . S
C155 C152 1.382 . S
C155 C157 1.390 . S
C155 H165 0.931 . S
C156 C152 1.390 . S
C156 C153 1.392 . S
C156 H166 0.930 . S
C157 C154 1.372 . S
C157 C155 1.390 . S
C157 H167 0.929 . S
C158 O138 1.255 . S
C158 O139 1.257 . S
C159 Eu95 2.787 . S
C159 O134 1.252 . S
C159 O137 1.268 . S
C159 C152 1.506 . S
H160 C143 0.931 . S
H161 C144 0.931 . S
H162 C145 0.929 . S
H163 C146 0.930 . S
H164 C154 0.931 . S
H165 C155 0.931 . S
H166 C156 0.930 . S
H167 C157 0.929 . S
Eu168 N197 2.600 . S
Eu168 N203 2.562 . S
Eu168 O212 2.462 . S
Eu168 O213 2.373 . S
Eu168 O215 2.432 . S
Eu168 O216 2.291 . S
Eu168 O220 2.335 . S
Eu168 O223 2.372 . S
Eu168 C232 2.787 . S
C169 N170 1.365 . S
C169 C172 1.405 . S
C169 C176 1.448 . S
N170 C169 1.365 . S
N170 C173 1.319 . S
N170 Eu179 2.600 . S
C171 C173 1.397 . S
C171 C174 1.367 . S
C171 H191 0.931 . S
C172 C169 1.405 . S
C172 C174 1.403 . S
C172 C178 1.439 . S
C173 N170 1.319 . S
C173 C171 1.397 . S
C173 H184 0.930 . S
C174 C171 1.367 . S
C174 C172 1.403 . S
C174 H195 0.929 . S
C175 C176 1.430 . S
C175 C177 1.387 . S
C175 C181 1.404 . S
C176 C169 1.448 . S
C176 C175 1.430 . S
C176 N180 1.351 . S
C177 C175 1.387 . S
C177 C178 1.374 . S
C177 H192 0.931 . S
C178 C172 1.439 . S
C178 C177 1.374 . S
C178 H193 0.931 . S
Eu179 N170 2.600 . S
Eu179 N180 2.562 . S
Eu179 O214 2.335 . S
Eu179 O217 2.372 . S
Eu179 O218 2.462 . S
Eu179 O219 2.373 . S
Eu179 O221 2.432 . S
Eu179 O222 2.291 . S
Eu179 C243 2.787 . S
N180 C176 1.351 . S
N180 Eu179 2.562 . S
N180 C182 1.325 . S
C181 C175 1.404 . S
C181 C183 1.366 . S
C181 H189 0.930 . S
C182 N180 1.325 . S
C182 C183 1.416 . S
C182 H188 0.929 . S
C183 C181 1.366 . S
C183 C182 1.416 . S
C183 H185 0.930 . S
H184 C173 0.930 . S
H185 C183 0.930 . S
H186 C201 0.930 . S
H187 C208 0.930 . S
H188 C182 0.929 . S
H189 C181 0.930 . S
H190 C204 0.929 . S
H191 C171 0.931 . S
H192 C177 0.931 . S
H193 C178 0.931 . S
H194 C199 0.931 . S
H195 C174 0.929 . S
H196 C207 0.930 . S
N197 Eu168 2.600 . S
N197 C198 1.365 . S
N197 C201 1.319 . S
C198 N197 1.365 . S
C198 C200 1.405 . S
C198 C206 1.448 . S
C199 H194 0.931 . S
C199 C201 1.397 . S
C199 C202 1.367 . S
C200 C198 1.405 . S
C200 C202 1.403 . S
C200 C233 1.439 . S
C201 H186 0.930 . S
C201 N197 1.319 . S
C201 C199 1.397 . S
C202 C199 1.367 . S
C202 C200 1.403 . S
C202 H209 0.929 . S
N203 Eu168 2.562 . S
N203 C204 1.325 . S
N203 C206 1.351 . S
C204 H190 0.929 . S
C204 N203 1.325 . S
C204 C208 1.416 . S
C205 C206 1.430 . S
C205 C207 1.404 . S
C205 C234 1.387 . S
C206 C198 1.448 . S
C206 N203 1.351 . S
C206 C205 1.430 . S
C207 H196 0.930 . S
C207 C205 1.404 . S
C207 C208 1.366 . S
C208 H187 0.930 . S
C208 C204 1.416 . S
C208 C207 1.366 . S
H209 C202 0.929 . S
H210 C233 0.931 . S
H211 C234 0.931 . S
O212 Eu168 2.462 . S
O212 C232 1.252 . S
O213 Eu168 2.373 . S
O213 C224 1.249 . S
O214 Eu179 2.335 . S
O214 C224 1.264 . S
O215 Eu168 2.432 . S
O215 C232 1.268 . S
O216 Eu168 2.291 . S
O216 C231 1.255 . S
O217 Eu179 2.372 . S
O217 C231 1.257 . S
O218 Eu179 2.462 . S
O218 C243 1.252 . S
O219 Eu179 2.373 . S
O219 C235 1.249 . S
O220 Eu168 2.335 . S
O220 C235 1.264 . S
O221 Eu179 2.432 . S
O221 C243 1.268 . S
O222 Eu179 2.291 . S
O222 C242 1.255 . S
O223 Eu168 2.372 . S
O223 C242 1.257 . S
C224 O213 1.249 . S
C224 O214 1.264 . S
C225 C228 1.382 . S
C225 C230 1.390 . S
C225 C232 1.506 . S
C226 C227 1.398 . S
C226 C230 1.392 . S
C227 C226 1.398 . S
C227 C229 1.372 . S
C227 H244 0.931 . S
C228 C225 1.382 . S
C228 C229 1.390 . S
C228 H245 0.931 . S
C229 C227 1.372 . S
C229 C228 1.390 . S
C229 H246 0.929 . S
C230 C225 1.390 . S
C230 C226 1.392 . S
C230 H247 0.930 . S
C231 O216 1.255 . S
C231 O217 1.257 . S
C232 Eu168 2.787 . S
C232 O212 1.252 . S
C232 O215 1.268 . S
C232 C225 1.506 . S
C233 C200 1.439 . S
C233 H210 0.931 . S
C233 C234 1.374 . S
C234 C205 1.387 . S
C234 H211 0.931 . S
C234 C233 1.374 . S
C235 O219 1.249 . S
C235 O220 1.264 . S
C236 C239 1.382 . S
C236 C240 1.390 . S
C236 C243 1.506 . S
C237 C238 1.398 . S
C237 C240 1.392 . S
C238 C237 1.398 . S
C238 C241 1.372 . S
C238 H248 0.931 . S
C239 C236 1.382 . S
C239 C241 1.390 . S
C239 H249 0.931 . S
C240 C236 1.390 . S
C240 C237 1.392 . S
C240 H250 0.930 . S
C241 C238 1.372 . S
C241 C239 1.390 . S
C241 H251 0.929 . S
C242 O222 1.255 . S
C242 O223 1.257 . S
C243 Eu179 2.787 . S
C243 O218 1.252 . S
C243 O221 1.268 . S
C243 C236 1.506 . S
H244 C227 0.931 . S
H245 C228 0.931 . S
H246 C229 0.929 . S
H247 C230 0.930 . S
H248 C238 0.931 . S
H249 C239 0.931 . S
H250 C240 0.930 . S
H251 C241 0.929 . S
Eu252 N281 2.600 . S
Eu252 N287 2.562 . S
Eu252 O296 2.462 . S
Eu252 O297 2.373 . S
Eu252 O299 2.432 . S
Eu252 O300 2.291 . S
Eu252 O304 2.335 . S
Eu252 O307 2.372 . S
Eu252 C316 2.787 . S
C253 N254 1.365 . S
C253 C256 1.405 . S
C253 C260 1.448 . S
N254 C253 1.365 . S
N254 C257 1.319 . S
N254 Eu263 2.600 . S
C255 C257 1.397 . S
C255 C258 1.367 . S
C255 H275 0.931 . S
C256 C253 1.405 . S
C256 C258 1.403 . S
C256 C262 1.439 . S
C257 N254 1.319 . S
C257 C255 1.397 . S
C257 H268 0.930 . S
C258 C255 1.367 . S
C258 C256 1.403 . S
C258 H279 0.929 . S
C259 C260 1.430 . S
C259 C261 1.387 . S
C259 C265 1.404 . S
C260 C253 1.448 . S
C260 C259 1.430 . S
C260 N264 1.351 . S
C261 C259 1.387 . S
C261 C262 1.374 . S
C261 H276 0.931 . S
C262 C256 1.439 . S
C262 C261 1.374 . S
C262 H277 0.931 . S
Eu263 N254 2.600 . S
Eu263 N264 2.562 . S
Eu263 O298 2.335 . S
Eu263 O301 2.372 . S
Eu263 O302 2.462 . S
Eu263 O303 2.373 . S
Eu263 O305 2.432 . S
Eu263 O306 2.291 . S
Eu263 C327 2.787 . S
N264 C260 1.351 . S
N264 Eu263 2.562 . S
N264 C266 1.325 . S
C265 C259 1.404 . S
C265 C267 1.366 . S
C265 H273 0.930 . S
C266 N264 1.325 . S
C266 C267 1.416 . S
C266 H272 0.929 . S
C267 C265 1.366 . S
C267 C266 1.416 . S
C267 H269 0.930 . S
H268 C257 0.930 . S
H269 C267 0.930 . S
H270 C285 0.930 . S
H271 C292 0.930 . S
H272 C266 0.929 . S
H273 C265 0.930 . S
H274 C288 0.929 . S
H275 C255 0.931 . S
H276 C261 0.931 . S
H277 C262 0.931 . S
H278 C283 0.931 . S
H279 C258 0.929 . S
H280 C291 0.930 . S
N281 Eu252 2.600 . S
N281 C282 1.365 . S
N281 C285 1.319 . S
C282 N281 1.365 . S
C282 C284 1.405 . S
C282 C290 1.448 . S
C283 H278 0.931 . S
C283 C285 1.397 . S
C283 C286 1.367 . S
C284 C282 1.405 . S
C284 C286 1.403 . S
C284 C317 1.439 . S
C285 H270 0.930 . S
C285 N281 1.319 . S
C285 C283 1.397 . S
C286 C283 1.367 . S
C286 C284 1.403 . S
C286 H293 0.929 . S
N287 Eu252 2.562 . S
N287 C288 1.325 . S
N287 C290 1.351 . S
C288 H274 0.929 . S
C288 N287 1.325 . S
C288 C292 1.416 . S
C289 C290 1.430 . S
C289 C291 1.404 . S
C289 C318 1.387 . S
C290 C282 1.448 . S
C290 N287 1.351 . S
C290 C289 1.430 . S
C291 H280 0.930 . S
C291 C289 1.404 . S
C291 C292 1.366 . S
C292 H271 0.930 . S
C292 C288 1.416 . S
C292 C291 1.366 . S
H293 C286 0.929 . S
H294 C317 0.931 . S
H295 C318 0.931 . S
O296 Eu252 2.462 . S
O296 C316 1.252 . S
O297 Eu252 2.373 . S
O297 C308 1.249 . S
O298 Eu263 2.335 . S
O298 C308 1.264 . S
O299 Eu252 2.432 . S
O299 C316 1.268 . S
O300 Eu252 2.291 . S
O300 C315 1.255 . S
O301 Eu263 2.372 . S
O301 C315 1.257 . S
O302 Eu263 2.462 . S
O302 C327 1.252 . S
O303 Eu263 2.373 . S
O303 C319 1.249 . S
O304 Eu252 2.335 . S
O304 C319 1.264 . S
O305 Eu263 2.432 . S
O305 C327 1.268 . S
O306 Eu263 2.291 . S
O306 C326 1.255 . S
O307 Eu252 2.372 . S
O307 C326 1.257 . S
C308 O297 1.249 . S
C308 O298 1.264 . S
C309 C312 1.382 . S
C309 C314 1.390 . S
C309 C316 1.506 . S
C310 C311 1.398 . S
C310 C314 1.392 . S
C311 C310 1.398 . S
C311 C313 1.372 . S
C311 H328 0.931 . S
C312 C309 1.382 . S
C312 C313 1.390 . S
C312 H329 0.931 . S
C313 C311 1.372 . S
C313 C312 1.390 . S
C313 H330 0.929 . S
C314 C309 1.390 . S
C314 C310 1.392 . S
C314 H331 0.930 . S
C315 O300 1.255 . S
C315 O301 1.257 . S
C316 Eu252 2.787 . S
C316 O296 1.252 . S
C316 O299 1.268 . S
C316 C309 1.506 . S
C317 C284 1.439 . S
C317 H294 0.931 . S
C317 C318 1.374 . S
C318 C289 1.387 . S
C318 H295 0.931 . S
C318 C317 1.374 . S
C319 O303 1.249 . S
C319 O304 1.264 . S
C320 C323 1.382 . S
C320 C324 1.390 . S
C320 C327 1.506 . S
C321 C322 1.398 . S
C321 C324 1.392 . S
C322 C321 1.398 . S
C322 C325 1.372 . S
C322 H332 0.931 . S
C323 C320 1.382 . S
C323 C325 1.390 . S
C323 H333 0.931 . S
C324 C320 1.390 . S
C324 C321 1.392 . S
C324 H334 0.930 . S
C325 C322 1.372 . S
C325 C323 1.390 . S
C325 H335 0.929 . S
C326 O306 1.255 . S
C326 O307 1.257 . S
C327 Eu263 2.787 . S
C327 O302 1.252 . S
C327 O305 1.268 . S
C327 C320 1.506 . S
H328 C311 0.931 . S
H329 C312 0.931 . S
H330 C313 0.929 . S
H331 C314 0.930 . S
H332 C322 0.931 . S
H333 C323 0.931 . S
H334 C324 0.930 . S
H335 C325 0.929 . S
Eu336 N365 2.600 . S
Eu336 N371 2.562 . S
Eu336 O380 2.462 . S
Eu336 O381 2.373 . S
Eu336 O383 2.432 . S
Eu336 O384 2.291 . S
Eu336 O388 2.335 . S
Eu336 O391 2.372 . S
Eu336 C400 2.787 . S
C337 N338 1.365 . S
C337 C340 1.405 . S
C337 C344 1.448 . S
N338 C337 1.365 . S
N338 C341 1.319 . S
N338 Eu347 2.600 . S
C339 C341 1.397 . S
C339 C342 1.367 . S
C339 H359 0.931 . S
C340 C337 1.405 . S
C340 C342 1.403 . S
C340 C346 1.439 . S
C341 N338 1.319 . S
C341 C339 1.397 . S
C341 H352 0.930 . S
C342 C339 1.367 . S
C342 C340 1.403 . S
C342 H363 0.929 . S
C343 C344 1.430 . S
C343 C345 1.387 . S
C343 C349 1.404 . S
C344 C337 1.448 . S
C344 C343 1.430 . S
C344 N348 1.351 . S
C345 C343 1.387 . S
C345 C346 1.374 . S
C345 H360 0.931 . S
C346 C340 1.439 . S
C346 C345 1.374 . S
C346 H361 0.931 . S
Eu347 N338 2.600 . S
Eu347 N348 2.562 . S
Eu347 O382 2.335 . S
Eu347 O385 2.372 . S
Eu347 O386 2.462 . S
Eu347 O387 2.373 . S
Eu347 O389 2.432 . S
Eu347 O390 2.291 . S
Eu347 C411 2.787 . S
N348 C344 1.351 . S
N348 Eu347 2.562 . S
N348 C350 1.325 . S
C349 C343 1.404 . S
C349 C351 1.366 . S
C349 H357 0.930 . S
C350 N348 1.325 . S
C350 C351 1.416 . S
C350 H356 0.929 . S
C351 C349 1.366 . S
C351 C350 1.416 . S
C351 H353 0.930 . S
H352 C341 0.930 . S
H353 C351 0.930 . S
H354 C369 0.930 . S
H355 C376 0.930 . S
H356 C350 0.929 . S
H357 C349 0.930 . S
H358 C372 0.929 . S
H359 C339 0.931 . S
H360 C345 0.931 . S
H361 C346 0.931 . S
H362 C367 0.931 . S
H363 C342 0.929 . S
H364 C375 0.930 . S
N365 Eu336 2.600 . S
N365 C366 1.365 . S
N365 C369 1.319 . S
C366 N365 1.365 . S
C366 C368 1.405 . S
C366 C374 1.448 . S
C367 H362 0.931 . S
C367 C369 1.397 . S
C367 C370 1.367 . S
C368 C366 1.405 . S
C368 C370 1.403 . S
C368 C401 1.439 . S
C369 H354 0.930 . S
C369 N365 1.319 . S
C369 C367 1.397 . S
C370 C367 1.367 . S
C370 C368 1.403 . S
C370 H377 0.929 . S
N371 Eu336 2.562 . S
N371 C372 1.325 . S
N371 C374 1.351 . S
C372 H358 0.929 . S
C372 N371 1.325 . S
C372 C376 1.416 . S
C373 C374 1.430 . S
C373 C375 1.404 . S
C373 C402 1.387 . S
C374 C366 1.448 . S
C374 N371 1.351 . S
C374 C373 1.430 . S
C375 H364 0.930 . S
C375 C373 1.404 . S
C375 C376 1.366 . S
C376 H355 0.930 . S
C376 C372 1.416 . S
C376 C375 1.366 . S
H377 C370 0.929 . S
H378 C401 0.931 . S
H379 C402 0.931 . S
O380 Eu336 2.462 . S
O380 C400 1.252 . S
O381 Eu336 2.373 . S
O381 C392 1.249 . S
O382 Eu347 2.335 . S
O382 C392 1.264 . S
O383 Eu336 2.432 . S
O383 C400 1.268 . S
O384 Eu336 2.291 . S
O384 C399 1.255 . S
O385 Eu347 2.372 . S
O385 C399 1.257 . S
O386 Eu347 2.462 . S
O386 C411 1.252 . S
O387 Eu347 2.373 . S
O387 C403 1.249 . S
O388 Eu336 2.335 . S
O388 C403 1.264 . S
O389 Eu347 2.432 . S
O389 C411 1.268 . S
O390 Eu347 2.291 . S
O390 C410 1.255 . S
O391 Eu336 2.372 . S
O391 C410 1.257 . S
C392 O381 1.249 . S
C392 O382 1.264 . S
C393 C396 1.382 . S
C393 C398 1.390 . S
C393 C400 1.506 . S
C394 C395 1.398 . S
C394 C398 1.392 . S
C395 C394 1.398 . S
C395 C397 1.372 . S
C395 H412 0.931 . S
C396 C393 1.382 . S
C396 C397 1.390 . S
C396 H413 0.931 . S
C397 C395 1.372 . S
C397 C396 1.390 . S
C397 H414 0.929 . S
C398 C393 1.390 . S
C398 C394 1.392 . S
C398 H415 0.930 . S
C399 O384 1.255 . S
C399 O385 1.257 . S
C400 Eu336 2.787 . S
C400 O380 1.252 . S
C400 O383 1.268 . S
C400 C393 1.506 . S
C401 C368 1.439 . S
C401 H378 0.931 . S
C401 C402 1.374 . S
C402 C373 1.387 . S
C402 H379 0.931 . S
C402 C401 1.374 . S
C403 O387 1.249 . S
C403 O388 1.264 . S
C404 C407 1.382 . S
C404 C408 1.390 . S
C404 C411 1.506 . S
C405 C406 1.398 . S
C405 C408 1.392 . S
C406 C405 1.398 . S
C406 C409 1.372 . S
C406 H416 0.931 . S
C407 C404 1.382 . S
C407 C409 1.390 . S
C407 H417 0.931 . S
C408 C404 1.390 . S
C408 C405 1.392 . S
C408 H418 0.930 . S
C409 C406 1.372 . S
C409 C407 1.390 . S
C409 H419 0.929 . S
C410 O390 1.255 . S
C410 O391 1.257 . S
C411 Eu347 2.787 . S
C411 O386 1.252 . S
C411 O389 1.268 . S
C411 C404 1.506 . S
H412 C395 0.931 . S
H413 C396 0.931 . S
H414 C397 0.929 . S
H415 C398 0.930 . S
H416 C406 0.931 . S
H417 C407 0.931 . S
H418 C408 0.930 . S
H419 C409 0.929 . S
Eu420 N449 2.600 . S
Eu420 N455 2.562 . S
Eu420 O464 2.462 . S
Eu420 O465 2.373 . S
Eu420 O467 2.432 . S
Eu420 O468 2.291 . S
Eu420 O472 2.335 . S
Eu420 O475 2.372 . S
Eu420 C484 2.787 . S
C421 N422 1.365 . S
C421 C424 1.405 . S
C421 C428 1.448 . S
N422 C421 1.365 . S
N422 C425 1.319 . S
N422 Eu431 2.600 . S
C423 C425 1.397 . S
C423 C426 1.367 . S
C423 H443 0.931 . S
C424 C421 1.405 . S
C424 C426 1.403 . S
C424 C430 1.439 . S
C425 N422 1.319 . S
C425 C423 1.397 . S
C425 H436 0.930 . S
C426 C423 1.367 . S
C426 C424 1.403 . S
C426 H447 0.929 . S
C427 C428 1.430 . S
C427 C429 1.387 . S
C427 C433 1.404 . S
C428 C421 1.448 . S
C428 C427 1.430 . S
C428 N432 1.351 . S
C429 C427 1.387 . S
C429 C430 1.374 . S
C429 H444 0.931 . S
C430 C424 1.439 . S
C430 C429 1.374 . S
C430 H445 0.931 . S
Eu431 N422 2.600 . S
Eu431 N432 2.562 . S
Eu431 O466 2.335 . S
Eu431 O469 2.372 . S
Eu431 O470 2.462 . S
Eu431 O471 2.373 . S
Eu431 O473 2.432 . S
Eu431 O474 2.291 . S
Eu431 C495 2.787 . S
N432 C428 1.351 . S
N432 Eu431 2.562 . S
N432 C434 1.325 . S
C433 C427 1.404 . S
C433 C435 1.366 . S
C433 H441 0.930 . S
C434 N432 1.325 . S
C434 C435 1.416 . S
C434 H440 0.929 . S
C435 C433 1.366 . S
C435 C434 1.416 . S
C435 H437 0.930 . S
H436 C425 0.930 . S
H437 C435 0.930 . S
H438 C453 0.930 . S
H439 C460 0.930 . S
H440 C434 0.929 . S
H441 C433 0.930 . S
H442 C456 0.929 . S
H443 C423 0.931 . S
H444 C429 0.931 . S
H445 C430 0.931 . S
H446 C451 0.931 . S
H447 C426 0.929 . S
H448 C459 0.930 . S
N449 Eu420 2.600 . S
N449 C450 1.365 . S
N449 C453 1.319 . S
C450 N449 1.365 . S
C450 C452 1.405 . S
C450 C458 1.448 . S
C451 H446 0.931 . S
C451 C453 1.397 . S
C451 C454 1.367 . S
C452 C450 1.405 . S
C452 C454 1.403 . S
C452 C485 1.439 . S
C453 H438 0.930 . S
C453 N449 1.319 . S
C453 C451 1.397 . S
C454 C451 1.367 . S
C454 C452 1.403 . S
C454 H461 0.929 . S
N455 Eu420 2.562 . S
N455 C456 1.325 . S
N455 C458 1.351 . S
C456 H442 0.929 . S
C456 N455 1.325 . S
C456 C460 1.416 . S
C457 C458 1.430 . S
C457 C459 1.404 . S
C457 C486 1.387 . S
C458 C450 1.448 . S
C458 N455 1.351 . S
C458 C457 1.430 . S
C459 H448 0.930 . S
C459 C457 1.404 . S
C459 C460 1.366 . S
C460 H439 0.930 . S
C460 C456 1.416 . S
C460 C459 1.366 . S
H461 C454 0.929 . S
H462 C485 0.931 . S
H463 C486 0.931 . S
O464 Eu420 2.462 . S
O464 C484 1.252 . S
O465 Eu420 2.373 . S
O465 C476 1.249 . S
O466 Eu431 2.335 . S
O466 C476 1.264 . S
O467 Eu420 2.432 . S
O467 C484 1.268 . S
O468 Eu420 2.291 . S
O468 C483 1.255 . S
O469 Eu431 2.372 . S
O469 C483 1.257 . S
O470 Eu431 2.462 . S
O470 C495 1.252 . S
O471 Eu431 2.373 . S
O471 C487 1.249 . S
O472 Eu420 2.335 . S
O472 C487 1.264 . S
O473 Eu431 2.432 . S
O473 C495 1.268 . S
O474 Eu431 2.291 . S
O474 C494 1.255 . S
O475 Eu420 2.372 . S
O475 C494 1.257 . S
C476 O465 1.249 . S
C476 O466 1.264 . S
C477 C480 1.382 . S
C477 C482 1.390 . S
C477 C484 1.506 . S
C478 C479 1.398 . S
C478 C482 1.392 . S
C479 C478 1.398 . S
C479 C481 1.372 . S
C479 H496 0.931 . S
C480 C477 1.382 . S
C480 C481 1.390 . S
C480 H497 0.931 . S
C481 C479 1.372 . S
C481 C480 1.390 . S
C481 H498 0.929 . S
C482 C477 1.390 . S
C482 C478 1.392 . S
C482 H499 0.930 . S
C483 O468 1.255 . S
C483 O469 1.257 . S
C484 Eu420 2.787 . S
C484 O464 1.252 . S
C484 O467 1.268 . S
C484 C477 1.506 . S
C485 C452 1.439 . S
C485 H462 0.931 . S
C485 C486 1.374 . S
C486 C457 1.387 . S
C486 H463 0.931 . S
C486 C485 1.374 . S
C487 O471 1.249 . S
C487 O472 1.264 . S
C488 C491 1.382 . S
C488 C492 1.390 . S
C488 C495 1.506 . S
C489 C490 1.398 . S
C489 C492 1.392 . S
C490 C489 1.398 . S
C490 C493 1.372 . S
C490 H500 0.931 . S
C491 C488 1.382 . S
C491 C493 1.390 . S
C491 H501 0.931 . S
C492 C488 1.390 . S
C492 C489 1.392 . S
C492 H502 0.930 . S
C493 C490 1.372 . S
C493 C491 1.390 . S
C493 H503 0.929 . S
C494 O474 1.255 . S
C494 O475 1.257 . S
C495 Eu431 2.787 . S
C495 O470 1.252 . S
C495 O473 1.268 . S
C495 C488 1.506 . S
H496 C479 0.931 . S
H497 C480 0.931 . S
H498 C481 0.929 . S
H499 C482 0.930 . S
H500 C490 0.931 . S
H501 C491 0.931 . S
H502 C492 0.930 . S
H503 C493 0.929 . S
Eu504 N533 2.600 . S
Eu504 N539 2.562 . S
Eu504 O548 2.462 . S
Eu504 O549 2.373 . S
Eu504 O551 2.432 . S
Eu504 O552 2.291 . S
Eu504 O556 2.335 . S
Eu504 O559 2.372 . S
Eu504 C568 2.787 . S
C505 N506 1.365 . S
C505 C508 1.405 . S
C505 C512 1.448 . S
N506 C505 1.365 . S
N506 C509 1.319 . S
N506 Eu515 2.600 . S
C507 C509 1.397 . S
C507 C510 1.367 . S
C507 H527 0.931 . S
C508 C505 1.405 . S
C508 C510 1.403 . S
C508 C514 1.439 . S
C509 N506 1.319 . S
C509 C507 1.397 . S
C509 H520 0.930 . S
C510 C507 1.367 . S
C510 C508 1.403 . S
C510 H531 0.929 . S
C511 C512 1.430 . S
C511 C513 1.387 . S
C511 C517 1.404 . S
C512 C505 1.448 . S
C512 C511 1.430 . S
C512 N516 1.351 . S
C513 C511 1.387 . S
C513 C514 1.374 . S
C513 H528 0.931 . S
C514 C508 1.439 . S
C514 C513 1.374 . S
C514 H529 0.931 . S
Eu515 N506 2.600 . S
Eu515 N516 2.562 . S
Eu515 O550 2.335 . S
Eu515 O553 2.372 . S
Eu515 O554 2.462 . S
Eu515 O555 2.373 . S
Eu515 O557 2.432 . S
Eu515 O558 2.291 . S
Eu515 C579 2.787 . S
N516 C512 1.351 . S
N516 Eu515 2.562 . S
N516 C518 1.325 . S
C517 C511 1.404 . S
C517 C519 1.366 . S
C517 H525 0.930 . S
C518 N516 1.325 . S
C518 C519 1.416 . S
C518 H524 0.929 . S
C519 C517 1.366 . S
C519 C518 1.416 . S
C519 H521 0.930 . S
H520 C509 0.930 . S
H521 C519 0.930 . S
H522 C537 0.930 . S
H523 C544 0.930 . S
H524 C518 0.929 . S
H525 C517 0.930 . S
H526 C540 0.929 . S
H527 C507 0.931 . S
H528 C513 0.931 . S
H529 C514 0.931 . S
H530 C535 0.931 . S
H531 C510 0.929 . S
H532 C543 0.930 . S
N533 Eu504 2.600 . S
N533 C534 1.365 . S
N533 C537 1.319 . S
C534 N533 1.365 . S
C534 C536 1.405 . S
C534 C542 1.448 . S
C535 H530 0.931 . S
C535 C537 1.397 . S
C535 C538 1.367 . S
C536 C534 1.405 . S
C536 C538 1.403 . S
C536 C569 1.439 . S
C537 H522 0.930 . S
C537 N533 1.319 . S
C537 C535 1.397 . S
C538 C535 1.367 . S
C538 C536 1.403 . S
C538 H545 0.929 . S
N539 Eu504 2.562 . S
N539 C540 1.325 . S
N539 C542 1.351 . S
C540 H526 0.929 . S
C540 N539 1.325 . S
C540 C544 1.416 . S
C541 C542 1.430 . S
C541 C543 1.404 . S
C541 C570 1.387 . S
C542 C534 1.448 . S
C542 N539 1.351 . S
C542 C541 1.430 . S
C543 H532 0.930 . S
C543 C541 1.404 . S
C543 C544 1.366 . S
C544 H523 0.930 . S
C544 C540 1.416 . S
C544 C543 1.366 . S
H545 C538 0.929 . S
H546 C569 0.931 . S
H547 C570 0.931 . S
O548 Eu504 2.462 . S
O548 C568 1.252 . S
O549 Eu504 2.373 . S
O549 C560 1.249 . S
O550 Eu515 2.335 . S
O550 C560 1.264 . S
O551 Eu504 2.432 . S
O551 C568 1.268 . S
O552 Eu504 2.291 . S
O552 C567 1.255 . S
O553 Eu515 2.372 . S
O553 C567 1.257 . S
O554 Eu515 2.462 . S
O554 C579 1.252 . S
O555 Eu515 2.373 . S
O555 C571 1.249 . S
O556 Eu504 2.335 . S
O556 C571 1.264 . S
O557 Eu515 2.432 . S
O557 C579 1.268 . S
O558 Eu515 2.291 . S
O558 C578 1.255 . S
O559 Eu504 2.372 . S
O559 C578 1.257 . S
C560 O549 1.249 . S
C560 O550 1.264 . S
C561 C564 1.382 . S
C561 C566 1.390 . S
C561 C568 1.506 . S
C562 C563 1.398 . S
C562 C566 1.392 . S
C563 C562 1.398 . S
C563 C565 1.372 . S
C563 H580 0.931 . S
C564 C561 1.382 . S
C564 C565 1.390 . S
C564 H581 0.931 . S
C565 C563 1.372 . S
C565 C564 1.390 . S
C565 H582 0.929 . S
C566 C561 1.390 . S
C566 C562 1.392 . S
C566 H583 0.930 . S
C567 O552 1.255 . S
C567 O553 1.257 . S
C568 Eu504 2.787 . S
C568 O548 1.252 . S
C568 O551 1.268 . S
C568 C561 1.506 . S
C569 C536 1.439 . S
C569 H546 0.931 . S
C569 C570 1.374 . S
C570 C541 1.387 . S
C570 H547 0.931 . S
C570 C569 1.374 . S
C571 O555 1.249 . S
C571 O556 1.264 . S
C572 C575 1.382 . S
C572 C576 1.390 . S
C572 C579 1.506 . S
C573 C574 1.398 . S
C573 C576 1.392 . S
C574 C573 1.398 . S
C574 C577 1.372 . S
C574 H584 0.931 . S
C575 C572 1.382 . S
C575 C577 1.390 . S
C575 H585 0.931 . S
C576 C572 1.390 . S
C576 C573 1.392 . S
C576 H586 0.930 . S
C577 C574 1.372 . S
C577 C575 1.390 . S
C577 H587 0.929 . S
C578 O558 1.255 . S
C578 O559 1.257 . S
C579 Eu515 2.787 . S
C579 O554 1.252 . S
C579 O557 1.268 . S
C579 C572 1.506 . S
H580 C563 0.931 . S
H581 C564 0.931 . S
H582 C565 0.929 . S
H583 C566 0.930 . S
H584 C574 0.931 . S
H585 C575 0.931 . S
H586 C576 0.930 . S
H587 C577 0.929 . S
Eu588 N617 2.600 . S
Eu588 N623 2.562 . S
Eu588 O632 2.462 . S
Eu588 O633 2.373 . S
Eu588 O635 2.432 . S
Eu588 O636 2.291 . S
Eu588 O640 2.335 . S
Eu588 O643 2.372 . S
Eu588 C652 2.787 . S
C589 N590 1.365 . S
C589 C592 1.405 . S
C589 C596 1.448 . S
N590 C589 1.365 . S
N590 C593 1.319 . S
N590 Eu599 2.600 . S
C591 C593 1.397 . S
C591 C594 1.367 . S
C591 H611 0.931 . S
C592 C589 1.405 . S
C592 C594 1.403 . S
C592 C598 1.439 . S
C593 N590 1.319 . S
C593 C591 1.397 . S
C593 H604 0.930 . S
C594 C591 1.367 . S
C594 C592 1.403 . S
C594 H615 0.929 . S
C595 C596 1.430 . S
C595 C597 1.387 . S
C595 C601 1.404 . S
C596 C589 1.448 . S
C596 C595 1.430 . S
C596 N600 1.351 . S
C597 C595 1.387 . S
C597 C598 1.374 . S
C597 H612 0.931 . S
C598 C592 1.439 . S
C598 C597 1.374 . S
C598 H613 0.931 . S
Eu599 N590 2.600 . S
Eu599 N600 2.562 . S
Eu599 O634 2.335 . S
Eu599 O637 2.372 . S
Eu599 O638 2.462 . S
Eu599 O639 2.373 . S
Eu599 O641 2.432 . S
Eu599 O642 2.291 . S
Eu599 C663 2.787 . S
N600 C596 1.351 . S
N600 Eu599 2.562 . S
N600 C602 1.325 . S
C601 C595 1.404 . S
C601 C603 1.366 . S
C601 H609 0.930 . S
C602 N600 1.325 . S
C602 C603 1.416 . S
C602 H608 0.929 . S
C603 C601 1.366 . S
C603 C602 1.416 . S
C603 H605 0.930 . S
H604 C593 0.930 . S
H605 C603 0.930 . S
H606 C621 0.930 . S
H607 C628 0.930 . S
H608 C602 0.929 . S
H609 C601 0.930 . S
H610 C624 0.929 . S
H611 C591 0.931 . S
H612 C597 0.931 . S
H613 C598 0.931 . S
H614 C619 0.931 . S
H615 C594 0.929 . S
H616 C627 0.930 . S
N617 Eu588 2.600 . S
N617 C618 1.365 . S
N617 C621 1.319 . S
C618 N617 1.365 . S
C618 C620 1.405 . S
C618 C626 1.448 . S
C619 H614 0.931 . S
C619 C621 1.397 . S
C619 C622 1.367 . S
C620 C618 1.405 . S
C620 C622 1.403 . S
C620 C653 1.439 . S
C621 H606 0.930 . S
C621 N617 1.319 . S
C621 C619 1.397 . S
C622 C619 1.367 . S
C622 C620 1.403 . S
C622 H629 0.929 . S
N623 Eu588 2.562 . S
N623 C624 1.325 . S
N623 C626 1.351 . S
C624 H610 0.929 . S
C624 N623 1.325 . S
C624 C628 1.416 . S
C625 C626 1.430 . S
C625 C627 1.404 . S
C625 C654 1.387 . S
C626 C618 1.448 . S
C626 N623 1.351 . S
C626 C625 1.430 . S
C627 H616 0.930 . S
C627 C625 1.404 . S
C627 C628 1.366 . S
C628 H607 0.930 . S
C628 C624 1.416 . S
C628 C627 1.366 . S
H629 C622 0.929 . S
H630 C653 0.931 . S
H631 C654 0.931 . S
O632 Eu588 2.462 . S
O632 C652 1.252 . S
O633 Eu588 2.373 . S
O633 C644 1.249 . S
O634 Eu599 2.335 . S
O634 C644 1.264 . S
O635 Eu588 2.432 . S
O635 C652 1.268 . S
O636 Eu588 2.291 . S
O636 C651 1.255 . S
O637 Eu599 2.372 . S
O637 C651 1.257 . S
O638 Eu599 2.462 . S
O638 C663 1.252 . S
O639 Eu599 2.373 . S
O639 C655 1.249 . S
O640 Eu588 2.335 . S
O640 C655 1.264 . S
O641 Eu599 2.432 . S
O641 C663 1.268 . S
O642 Eu599 2.291 . S
O642 C662 1.255 . S
O643 Eu588 2.372 . S
O643 C662 1.257 . S
C644 O633 1.249 . S
C644 O634 1.264 . S
C645 C648 1.382 . S
C645 C650 1.390 . S
C645 C652 1.506 . S
C646 C647 1.398 . S
C646 C650 1.392 . S
C647 C646 1.398 . S
C647 C649 1.372 . S
C647 H664 0.931 . S
C648 C645 1.382 . S
C648 C649 1.390 . S
C648 H665 0.931 . S
C649 C647 1.372 . S
C649 C648 1.390 . S
C649 H666 0.929 . S
C650 C645 1.390 . S
C650 C646 1.392 . S
C650 H667 0.930 . S
C651 O636 1.255 . S
C651 O637 1.257 . S
C652 Eu588 2.787 . S
C652 O632 1.252 . S
C652 O635 1.268 . S
C652 C645 1.506 . S
C653 C620 1.439 . S
C653 H630 0.931 . S
C653 C654 1.374 . S
C654 C625 1.387 . S
C654 H631 0.931 . S
C654 C653 1.374 . S
C655 O639 1.249 . S
C655 O640 1.264 . S
C656 C659 1.382 . S
C656 C660 1.390 . S
C656 C663 1.506 . S
C657 C658 1.398 . S
C657 C660 1.392 . S
C658 C657 1.398 . S
C658 C661 1.372 . S
C658 H668 0.931 . S
C659 C656 1.382 . S
C659 C661 1.390 . S
C659 H669 0.931 . S
C660 C656 1.390 . S
C660 C657 1.392 . S
C660 H670 0.930 . S
C661 C658 1.372 . S
C661 C659 1.390 . S
C661 H671 0.929 . S
C662 O642 1.255 . S
C662 O643 1.257 . S
C663 Eu599 2.787 . S
C663 O638 1.252 . S
C663 O641 1.268 . S
C663 C656 1.506 . S
H664 C647 0.931 . S
H665 C648 0.931 . S
H666 C649 0.929 . S
H667 C650 0.930 . S
H668 C658 0.931 . S
H669 C659 0.931 . S
H670 C660 0.930 . S
H671 C661 0.929 . S
Fe672 O673 1.886 1_455 S
Fe672 O676 1.715 . S
Fe672 O681 2.077 1_455 S
Fe672 O686 1.935 . S
Fe672 O692 2.077 1_455 S
Fe672 O701 1.935 . S
O673 Fe672 1.886 1_655 S
O673 Fe675 1.715 1_545 S
Fe674 O676 1.886 . S
Fe674 O677 1.715 1_545 S
Fe674 O684 1.935 1_545 S
Fe674 O685 2.077 . S
Fe674 O691 1.935 1_545 S
Fe674 O700 2.077 . S
Fe675 O673 1.715 1_565 S
Fe675 O678 1.886 . S
Fe675 O682 1.935 1_565 S
Fe675 O687 2.077 . S
Fe675 O693 1.935 1_565 S
Fe675 O697 2.077 . S
O676 Fe672 1.715 . S
O676 Fe674 1.886 . S
O677 Fe674 1.715 1_565 S
O677 Fe679 1.886 1_455 S
O678 Fe675 1.886 . S
O678 Fe679 1.715 . S
Fe679 O677 1.886 1_655 S
Fe679 O678 1.715 . S
Fe679 O683 2.077 1_655 S
Fe679 O688 1.935 . S
Fe679 O690 2.077 1_655 S
Fe679 O698 1.935 . S
C680 O692 1.381 . S
C680 O693 1.421 . S
O681 Fe672 2.077 1_655 S
O681 C694 1.381 . S
O682 Fe675 1.935 1_545 S
O682 C694 1.421 . S
O683 Fe679 2.077 1_455 S
O683 C699 1.381 . S
O684 Fe674 1.935 1_565 S
O684 C699 1.421 . S
O685 Fe674 2.077 . S
O685 C689 1.381 . S
O686 Fe672 1.935 . S
O686 C689 1.421 . S
O687 Fe675 2.077 . S
O687 C695 1.381 . S
O688 Fe679 1.935 . S
O688 C695 1.421 . S
C689 O685 1.381 . S
C689 O686 1.421 . S
O690 Fe679 2.077 1_455 S
O690 C702 1.381 . S
O691 Fe674 1.935 1_565 S
O691 C702 1.421 . S
O692 Fe672 2.077 1_655 S
O692 C680 1.381 . S
O693 Fe675 1.935 1_545 S
O693 C680 1.421 . S
C694 O681 1.381 . S
C694 O682 1.421 . S
C695 O687 1.381 . S
C695 O688 1.421 . S
C696 O697 1.381 . S
C696 O698 1.421 . S
O697 Fe675 2.077 . S
O697 C696 1.381 . S
O698 Fe679 1.935 . S
O698 C696 1.421 . S
C699 O683 1.381 . S
C699 O684 1.421 . S
O700 Fe674 2.077 . S
O700 C703 1.381 . S
O701 Fe672 1.935 . S
O701 C703 1.421 . S
C702 O690 1.381 . S
C702 O691 1.421 . S
C703 O700 1.381 . S
C703 O701 1.421 . S
Fe704 O705 1.886 . S
Fe704 O708 1.715 . S
Fe704 O713 2.077 . S
Fe704 O718 1.935 . S
Fe704 O724 2.077 1_556 S
Fe704 O733 1.935 1_556 S
O705 Fe704 1.886 . S
O705 Fe707 1.715 1_565 S
Fe706 O708 1.886 1_554 S
Fe706 O709 1.715 1_565 S
Fe706 O716 1.935 1_564 S
Fe706 O717 2.077 1_554 S
Fe706 O723 1.935 1_565 S
Fe706 O732 2.077 . S
Fe707 O705 1.715 1_545 S
Fe707 O710 1.886 1_556 S
Fe707 O714 1.935 1_545 S
Fe707 O719 2.077 . S
Fe707 O725 1.935 1_546 S
Fe707 O729 2.077 1_556 S
O708 Fe704 1.715 . S
O708 Fe706 1.886 1_556 S
O709 Fe706 1.715 1_545 S
O709 Fe711 1.886 . S
O710 Fe707 1.886 1_554 S
O710 Fe711 1.714 . S
Fe711 O709 1.886 . S
Fe711 O710 1.714 . S
Fe711 O715 2.077 1_554 S
Fe711 O720 1.935 1_554 S
Fe711 O722 2.077 . S
Fe711 O730 1.935 . S
C712 O724 1.381 . S
C712 O725 1.421 . S
O713 Fe704 2.077 . S
O713 C726 1.381 . S
O714 Fe707 1.935 1_565 S
O714 C726 1.421 . S
O715 Fe711 2.077 1_556 S
O715 C731 1.381 . S
O716 Fe706 1.935 1_546 S
O716 C731 1.421 . S
O717 Fe706 2.077 1_556 S
O717 C721 1.381 . S
O718 Fe704 1.935 . S
O718 C721 1.421 . S
O719 Fe707 2.077 . S
O719 C727 1.381 . S
O720 Fe711 1.935 1_556 S
O720 C727 1.421 . S
C721 O717 1.381 . S
C721 O718 1.421 . S
O722 Fe711 2.077 . S
O722 C734 1.381 . S
O723 Fe706 1.935 1_545 S
O723 C734 1.421 . S
O724 Fe704 2.077 1_554 S
O724 C712 1.381 . S
O725 Fe707 1.935 1_564 S
O725 C712 1.421 . S
C726 O713 1.381 . S
C726 O714 1.421 . S
C727 O719 1.381 . S
C727 O720 1.421 . S
C728 O729 1.381 . S
C728 O730 1.421 . S
O729 Fe707 2.077 1_554 S
O729 C728 1.381 . S
O730 Fe711 1.935 . S
O730 C728 1.421 . S
C731 O715 1.381 . S
C731 O716 1.421 . S
O732 Fe706 2.077 . S
O732 C735 1.381 . S
O733 Fe704 1.935 1_554 S
O733 C735 1.421 . S
C734 O722 1.381 . S
C734 O723 1.421 . S
C735 O732 1.381 . S
C735 O733 1.421 . S
Fe736 O737 1.886 1_455 S
Fe736 O740 1.714 . S
Fe736 O745 2.077 1_454 S
Fe736 O750 1.935 1_554 S
Fe736 O756 2.077 1_455 S
Fe736 O765 1.935 . S
O737 Fe736 1.886 1_655 S
O737 Fe739 1.715 . S
Fe738 O740 1.886 1_556 S
Fe738 O741 1.715 . S
Fe738 O748 1.935 . S
Fe738 O749 2.077 . S
Fe738 O755 1.935 1_556 S
Fe738 O764 2.077 1_556 S
Fe739 O737 1.715 . S
Fe739 O742 1.886 1_554 S
Fe739 O746 1.935 1_554 S
Fe739 O751 2.077 1_554 S
Fe739 O757 1.935 . S
Fe739 O761 2.077 . S
O740 Fe736 1.714 . S
O740 Fe738 1.886 1_554 S
O741 Fe738 1.715 . S
O741 Fe743 1.886 1_455 S
O742 Fe739 1.886 1_556 S
O742 Fe743 1.715 . S
Fe743 O741 1.886 1_655 S
Fe743 O742 1.715 . S
Fe743 O747 2.077 1_655 S
Fe743 O752 1.935 . S
Fe743 O754 2.077 1_656 S
Fe743 O762 1.935 1_556 S
C744 O756 1.381 . S
C744 O757 1.421 . S
O745 Fe736 2.077 1_656 S
O745 C758 1.381 . S
O746 Fe739 1.935 1_556 S
O746 C758 1.421 . S
O747 Fe743 2.077 1_455 S
O747 C763 1.381 . S
O748 Fe738 1.935 . S
O748 C763 1.421 . S
O749 Fe738 2.077 . S
O749 C753 1.381 . S
O750 Fe736 1.935 1_556 S
O750 C753 1.421 . S
O751 Fe739 2.077 1_556 S
O751 C759 1.381 . S
O752 Fe743 1.935 . S
O752 C759 1.421 . S
C753 O749 1.381 . S
C753 O750 1.421 . S
O754 Fe743 2.077 1_454 S
O754 C766 1.381 . S
O755 Fe738 1.935 1_554 S
O755 C766 1.421 . S
O756 Fe736 2.077 1_655 S
O756 C744 1.381 . S
O757 Fe739 1.935 . S
O757 C744 1.421 . S
C758 O745 1.381 . S
C758 O746 1.421 . S
C759 O751 1.381 . S
C759 O752 1.421 . S
C760 O761 1.381 . S
C760 O762 1.421 . S
O761 Fe739 2.077 . S
O761 C760 1.381 . S
O762 Fe743 1.935 1_554 S
O762 C760 1.421 . S
C763 O747 1.381 . S
C763 O748 1.421 . S
O764 Fe738 2.077 1_554 S
O764 C767 1.381 . S
O765 Fe736 1.935 . S
O765 C767 1.421 . S
C766 O754 1.381 . S
C766 O755 1.421 . S
C767 O764 1.381 . S
C767 O765 1.421 . S
Fe768 O769 1.886 . S
Fe768 O772 1.715 . S
Fe768 O777 2.077 . S
Fe768 O782 1.935 . S
Fe768 O788 2.077 . S
Fe768 O797 1.935 . S
O769 Fe768 1.886 . S
O769 Fe771 1.715 . S
Fe770 O772 1.886 1_554 S
Fe770 O773 1.715 . S
Fe770 O780 1.935 . S
Fe770 O781 2.077 1_554 S
Fe770 O787 1.935 . S
Fe770 O796 2.077 1_554 S
Fe771 O769 1.715 . S
Fe771 O774 1.886 1_556 S
Fe771 O778 1.935 . S
Fe771 O783 2.077 1_556 S
Fe771 O789 1.935 . S
Fe771 O793 2.077 1_556 S
O772 Fe768 1.715 . S
O772 Fe770 1.886 1_556 S
O773 Fe770 1.715 . S
O773 Fe775 1.886 . S
O774 Fe771 1.886 1_554 S
O774 Fe775 1.715 . S
Fe775 O773 1.886 . S
Fe775 O774 1.715 . S
Fe775 O779 2.077 . S
Fe775 O784 1.935 . S
Fe775 O786 2.077 . S
Fe775 O794 1.935 . S
C776 O788 1.381 . S
C776 O789 1.421 . S
O777 Fe768 2.077 . S
O777 C790 1.381 . S
O778 Fe771 1.935 . S
O778 C790 1.421 . S
O779 Fe775 2.077 . S
O779 C795 1.381 . S
O780 Fe770 1.935 . S
O780 C795 1.421 . S
O781 Fe770 2.077 1_556 S
O781 C785 1.381 . S
O782 Fe768 1.935 . S
O782 C785 1.421 . S
O783 Fe771 2.077 1_554 S
O783 C791 1.381 . S
O784 Fe775 1.935 . S
O784 C791 1.421 . S
C785 O781 1.381 . S
C785 O782 1.421 . S
O786 Fe775 2.077 . S
O786 C798 1.381 . S
O787 Fe770 1.935 . S
O787 C798 1.421 . S
O788 Fe768 2.077 . S
O788 C776 1.381 . S
O789 Fe771 1.935 . S
O789 C776 1.421 . S
C790 O777 1.381 . S
C790 O778 1.421 . S
C791 O783 1.381 . S
C791 O784 1.421 . S
C792 O793 1.381 . S
C792 O794 1.421 . S
O793 Fe771 2.077 1_554 S
O793 C792 1.381 . S
O794 Fe775 1.935 . S
O794 C792 1.421 . S
C795 O779 1.381 . S
C795 O780 1.421 . S
O796 Fe770 2.077 1_556 S
O796 C799 1.381 . S
O797 Fe768 1.935 . S
O797 C799 1.421 . S
C798 O786 1.381 . S
C798 O787 1.421 . S
C799 O796 1.381 . S
C799 O797 1.421 . S
Fe800 O801 1.886 . S
Fe800 O804 1.715 . S
Fe800 O809 2.077 1_655 S
Fe800 O814 1.935 1_655 S
Fe800 O820 2.077 . S
Fe800 O829 1.935 . S
O801 Fe800 1.886 . S
O801 Fe803 1.715 . S
Fe802 O804 1.886 1_455 S
Fe802 O805 1.715 . S
Fe802 O812 1.935 . S
Fe802 O813 2.077 . S
Fe802 O819 1.935 1_455 S
Fe802 O828 2.077 1_455 S
Fe803 O801 1.715 . S
Fe803 O806 1.886 1_655 S
Fe803 O810 1.935 1_655 S
Fe803 O815 2.077 1_655 S
Fe803 O821 1.935 . S
Fe803 O825 2.077 . S
O804 Fe800 1.715 . S
O804 Fe802 1.886 1_655 S
O805 Fe802 1.715 . S
O805 Fe807 1.886 . S
O806 Fe803 1.886 1_455 S
O806 Fe807 1.715 . S
Fe807 O805 1.886 . S
Fe807 O806 1.715 . S
Fe807 O811 2.077 . S
Fe807 O816 1.935 . S
Fe807 O818 2.077 1_455 S
Fe807 O826 1.935 1_455 S
C808 O820 1.381 . S
C808 O821 1.421 . S
O809 Fe800 2.077 1_455 S
O809 C822 1.381 . S
O810 Fe803 1.935 1_455 S
O810 C822 1.421 . S
O811 Fe807 2.077 . S
O811 C827 1.381 . S
O812 Fe802 1.935 . S
O812 C827 1.421 . S
O813 Fe802 2.077 . S
O813 C817 1.381 . S
O814 Fe800 1.935 1_455 S
O814 C817 1.421 . S
O815 Fe803 2.077 1_455 S
O815 C823 1.381 . S
O816 Fe807 1.935 . S
O816 C823 1.421 . S
C817 O813 1.381 . S
C817 O814 1.421 . S
O818 Fe807 2.077 1_655 S
O818 C830 1.381 . S
O819 Fe802 1.935 1_655 S
O819 C830 1.421 . S
O820 Fe800 2.077 . S
O820 C808 1.381 . S
O821 Fe803 1.935 . S
O821 C808 1.421 . S
C822 O809 1.381 . S
C822 O810 1.421 . S
C823 O815 1.381 . S
C823 O816 1.421 . S
C824 O825 1.381 . S
C824 O826 1.421 . S
O825 Fe803 2.077 . S
O825 C824 1.381 . S
O826 Fe807 1.935 1_655 S
O826 C824 1.421 . S
C827 O811 1.381 . S
C827 O812 1.421 . S
O828 Fe802 2.077 1_655 S
O828 C831 1.381 . S
O829 Fe800 1.935 . S
O829 C831 1.421 . S
C830 O818 1.381 . S
C830 O819 1.421 . S
C831 O828 1.381 . S
C831 O829 1.421 . S
Fe832 O833 1.886 . S
Fe832 O836 1.715 . S
Fe832 O841 2.077 . S
Fe832 O846 1.935 . S
Fe832 O852 2.077 . S
Fe832 O861 1.935 . S
O833 Fe832 1.886 . S
O833 Fe835 1.715 1_565 S
Fe834 O836 1.886 . S
Fe834 O837 1.715 1_565 S
Fe834 O844 1.935 1_565 S
Fe834 O845 2.077 . S
Fe834 O851 1.935 1_565 S
Fe834 O860 2.077 . S
Fe835 O833 1.715 1_545 S
Fe835 O838 1.886 . S
Fe835 O842 1.935 1_545 S
Fe835 O847 2.077 . S
Fe835 O853 1.935 1_545 S
Fe835 O857 2.077 . S
O836 Fe832 1.715 . S
O836 Fe834 1.886 . S
O837 Fe834 1.715 1_545 S
O837 Fe839 1.886 . S
O838 Fe835 1.886 . S
O838 Fe839 1.715 . S
Fe839 O837 1.886 . S
Fe839 O838 1.715 . S
Fe839 O843 2.077 . S
Fe839 O848 1.935 . S
Fe839 O850 2.077 . S
Fe839 O858 1.935 . S
C840 O852 1.381 . S
C840 O853 1.421 . S
O841 Fe832 2.077 . S
O841 C854 1.381 . S
O842 Fe835 1.935 1_565 S
O842 C854 1.421 . S
O843 Fe839 2.077 . S
O843 C859 1.381 . S
O844 Fe834 1.935 1_545 S
O844 C859 1.421 . S
O845 Fe834 2.077 . S
O845 C849 1.381 . S
O846 Fe832 1.935 . S
O846 C849 1.421 . S
O847 Fe835 2.077 . S
O847 C855 1.381 . S
O848 Fe839 1.935 . S
O848 C855 1.421 . S
C849 O845 1.381 . S
C849 O846 1.421 . S
O850 Fe839 2.077 . S
O850 C862 1.381 . S
O851 Fe834 1.935 1_545 S
O851 C862 1.421 . S
O852 Fe832 2.077 . S
O852 C840 1.381 . S
O853 Fe835 1.935 1_565 S
O853 C840 1.421 . S
C854 O841 1.381 . S
C854 O842 1.421 . S
C855 O847 1.381 . S
C855 O848 1.421 . S
C856 O857 1.381 . S
C856 O858 1.421 . S
O857 Fe835 2.077 . S
O857 C856 1.381 . S
O858 Fe839 1.935 . S
O858 C856 1.421 . S
C859 O843 1.381 . S
C859 O844 1.421 . S
O860 Fe834 2.077 . S
O860 C863 1.381 . S
O861 Fe832 1.935 . S
O861 C863 1.421 . S
C862 O850 1.381 . S
C862 O851 1.421 . S
C863 O860 1.381 . S
C863 O861 1.421 . S
C864 C865 1.349 . S
C864 C866 1.327 . S
C864 H889 0.950 . S
C865 C864 1.349 . S
C865 C881 1.349 . S
C866 C864 1.327 . S
C866 C885 1.429 . S
C866 H890 0.950 . S
C867 C884 1.574 . S
C867 C886 1.368 . S
C867 H891 0.949 . S
H868 C872 0.949 . S
C869 C870 1.349 . S
C869 C871 1.327 . S
C869 H892 0.950 . S
C870 C869 1.349 . S
C870 C882 1.349 . S
C871 C869 1.327 . S
C871 C887 1.429 . S
C871 H893 0.950 . S
C872 H868 0.949 . S
C872 C880 1.574 . S
C872 C888 1.368 . S
H873 C881 0.950 . S
H874 C879 0.950 . S
H875 C880 0.949 . S
H876 C882 0.950 . S
H877 C883 0.950 . S
H878 C884 0.949 . S
C879 H874 0.950 . S
C879 C881 1.327 . S
C879 C885 1.429 . S
C880 C872 1.574 . S
C880 H875 0.949 . S
C880 C886 1.368 . S
C881 C865 1.349 . S
C881 H873 0.950 . S
C881 C879 1.327 . S
C882 C870 1.349 . S
C882 H876 0.950 . S
C882 C883 1.327 . S
C883 H877 0.950 . S
C883 C882 1.327 . S
C883 C887 1.429 . S
C884 C867 1.574 . S
C884 H878 0.949 . S
C884 C888 1.368 . S
C885 C866 1.429 . S
C885 C879 1.429 . S
C885 C886 1.523 . S
C886 C867 1.368 . S
C886 C880 1.368 . S
C886 C885 1.523 . S
C887 C871 1.429 . S
C887 C883 1.429 . S
C887 C888 1.523 . S
C888 C872 1.368 . S
C888 C884 1.368 . S
C888 C887 1.523 . S
H889 C864 0.950 . S
H890 C866 0.950 . S
H891 C867 0.949 . S
H892 C869 0.950 . S
H893 C871 0.950 . S
C894 C895 1.349 . S
C894 C896 1.327 . S
C894 H919 0.950 . S
C895 C894 1.349 . S
C895 C911 1.349 . S
C896 C894 1.327 . S
C896 C915 1.429 . S
C896 H920 0.950 . S
C897 C914 1.574 . S
C897 C916 1.368 . S
C897 H921 0.949 . S
H898 C902 0.949 . S
C899 C900 1.349 . S
C899 C901 1.327 . S
C899 H922 0.950 . S
C900 C899 1.349 . S
C900 C912 1.349 . S
C901 C899 1.327 . S
C901 C917 1.429 . S
C901 H923 0.950 . S
C902 H898 0.949 . S
C902 C910 1.574 . S
C902 C918 1.368 . S
H903 C911 0.950 . S
H904 C909 0.950 . S
H905 C910 0.949 . S
H906 C912 0.950 . S
H907 C913 0.950 . S
H908 C914 0.949 . S
C909 H904 0.950 . S
C909 C911 1.327 . S
C909 C915 1.429 . S
C910 C902 1.574 . S
C910 H905 0.949 . S
C910 C916 1.368 . S
C911 C895 1.349 . S
C911 H903 0.950 . S
C911 C909 1.327 . S
C912 C900 1.349 . S
C912 H906 0.950 . S
C912 C913 1.327 . S
C913 H907 0.950 . S
C913 C912 1.327 . S
C913 C917 1.429 . S
C914 C897 1.574 . S
C914 H908 0.949 . S
C914 C918 1.368 . S
C915 C896 1.429 . S
C915 C909 1.429 . S
C915 C916 1.523 . S
C916 C897 1.368 . S
C916 C910 1.368 . S
C916 C915 1.523 . S
C917 C901 1.429 . S
C917 C913 1.429 . S
C917 C918 1.523 . S
C918 C902 1.368 . S
C918 C914 1.368 . S
C918 C917 1.523 . S
H919 C894 0.950 . S
H920 C896 0.950 . S
H921 C897 0.949 . S
H922 C899 0.950 . S
H923 C901 0.950 . S
C924 C925 1.349 . S
C924 C926 1.327 . S
C924 H949 0.950 . S
C925 C924 1.349 . S
C925 C941 1.349 . S
C926 C924 1.327 . S
C926 C945 1.429 . S
C926 H950 0.950 . S
C927 C944 1.574 . S
C927 C946 1.368 . S
C927 H951 0.949 . S
H928 C932 0.949 . S
C929 C930 1.349 . S
C929 C931 1.327 . S
C929 H952 0.950 . S
C930 C929 1.349 . S
C930 C942 1.349 . S
C931 C929 1.327 . S
C931 C947 1.429 . S
C931 H953 0.950 . S
C932 H928 0.949 . S
C932 C940 1.574 . S
C932 C948 1.368 . S
H933 C941 0.950 . S
H934 C939 0.950 . S
H935 C940 0.949 . S
H936 C942 0.950 . S
H937 C943 0.950 . S
H938 C944 0.949 . S
C939 H934 0.950 . S
C939 C941 1.327 . S
C939 C945 1.429 . S
C940 C932 1.574 . S
C940 H935 0.949 . S
C940 C946 1.368 . S
C941 C925 1.349 . S
C941 H933 0.950 . S
C941 C939 1.327 . S
C942 C930 1.349 . S
C942 H936 0.950 . S
C942 C943 1.327 . S
C943 H937 0.950 . S
C943 C942 1.327 . S
C943 C947 1.429 . S
C944 C927 1.574 . S
C944 H938 0.949 . S
C944 C948 1.368 . S
C945 C926 1.429 . S
C945 C939 1.429 . S
C945 C946 1.523 . S
C946 C927 1.368 . S
C946 C940 1.368 . S
C946 C945 1.523 . S
C947 C931 1.429 . S
C947 C943 1.429 . S
C947 C948 1.523 . S
C948 C932 1.368 . S
C948 C944 1.368 . S
C948 C947 1.523 . S
H949 C924 0.950 . S
H950 C926 0.950 . S
H951 C927 0.949 . S
H952 C929 0.950 . S
H953 C931 0.950 . S
C954 C955 1.349 . S
C954 C956 1.327 . S
C954 H979 0.950 . S
C955 C954 1.349 . S
C955 C971 1.349 . S
C956 C954 1.327 . S
C956 C975 1.429 . S
C956 H980 0.950 . S
C957 C974 1.574 . S
C957 C976 1.368 . S
C957 H981 0.949 . S
H958 C962 0.949 . S
C959 C960 1.349 . S
C959 C961 1.327 . S
C959 H982 0.950 . S
C960 C959 1.349 . S
C960 C972 1.349 . S
C961 C959 1.327 . S
C961 C977 1.429 . S
C961 H983 0.950 . S
C962 H958 0.949 . S
C962 C970 1.574 . S
C962 C978 1.368 . S
H963 C971 0.950 . S
H964 C969 0.950 . S
H965 C970 0.949 . S
H966 C972 0.950 . S
H967 C973 0.950 . S
H968 C974 0.949 . S
C969 H964 0.950 . S
C969 C971 1.327 . S
C969 C975 1.429 . S
C970 C962 1.574 . S
C970 H965 0.949 . S
C970 C976 1.368 . S
C971 C955 1.349 . S
C971 H963 0.950 . S
C971 C969 1.327 . S
C972 C960 1.349 . S
C972 H966 0.950 . S
C972 C973 1.327 . S
C973 H967 0.950 . S
C973 C972 1.327 . S
C973 C977 1.429 . S
C974 C957 1.574 . S
C974 H968 0.949 . S
C974 C978 1.368 . S
C975 C956 1.429 . S
C975 C969 1.429 . S
C975 C976 1.523 . S
C976 C957 1.368 . S
C976 C970 1.368 . S
C976 C975 1.523 . S
C977 C961 1.429 . S
C977 C973 1.429 . S
C977 C978 1.523 . S
C978 C962 1.368 . S
C978 C974 1.368 . S
C978 C977 1.523 . S
H979 C954 0.950 . S
H980 C956 0.950 . S
H981 C957 0.949 . S
H982 C959 0.950 . S
H983 C961 0.950 . S
C984 C985 1.349 . S
C984 C986 1.327 . S
C984 H1009 0.950 . S
C985 C984 1.349 . S
C985 C1001 1.349 . S
C986 C984 1.327 . S
C986 C1005 1.429 . S
C986 H1010 0.950 . S
C987 C1004 1.574 . S
C987 C1006 1.368 . S
C987 H1011 0.949 . S
H988 C992 0.949 . S
C989 C990 1.349 . S
C989 C991 1.327 . S
C989 H1012 0.950 . S
C990 C989 1.349 . S
C990 C1002 1.349 . S
C991 C989 1.327 . S
C991 C1007 1.429 . S
C991 H1013 0.950 . S
C992 H988 0.949 . S
C992 C1000 1.574 . S
C992 C1008 1.368 . S
H993 C1001 0.950 . S
H994 C999 0.950 . S
H995 C1000 0.949 . S
H996 C1002 0.950 . S
H997 C1003 0.950 . S
H998 C1004 0.949 . S
C999 H994 0.950 . S
C999 C1001 1.327 . S
C999 C1005 1.429 . S
C1000 C992 1.574 . S
C1000 H995 0.949 . S
C1000 C1006 1.368 . S
C1001 C985 1.349 . S
C1001 H993 0.950 . S
C1001 C999 1.327 . S
C1002 C990 1.349 . S
C1002 H996 0.950 . S
C1002 C1003 1.327 . S
C1003 H997 0.950 . S
C1003 C1002 1.327 . S
C1003 C1007 1.429 . S
C1004 C987 1.574 . S
C1004 H998 0.949 . S
C1004 C1008 1.368 . S
C1005 C986 1.429 . S
C1005 C999 1.429 . S
C1005 C1006 1.523 . S
C1006 C987 1.368 . S
C1006 C1000 1.368 . S
C1006 C1005 1.523 . S
C1007 C991 1.429 . S
C1007 C1003 1.429 . S
C1007 C1008 1.523 . S
C1008 C992 1.368 . S
C1008 C1004 1.368 . S
C1008 C1007 1.523 . S
H1009 C984 0.950 . S
H1010 C986 0.950 . S
H1011 C987 0.949 . S
H1012 C989 0.950 . S
H1013 C991 0.950 . S
C1014 C1015 1.349 . S
C1014 C1016 1.327 . S
C1014 H1039 0.950 . S
C1015 C1014 1.349 . S
C1015 C1031 1.349 . S
C1016 C1014 1.327 . S
C1016 C1035 1.429 . S
C1016 H1040 0.950 . S
C1017 C1034 1.574 . S
C1017 C1036 1.368 . S
C1017 H1041 0.949 . S
H1018 C1022 0.949 . S
C1019 C1020 1.349 . S
C1019 C1021 1.327 . S
C1019 H1042 0.950 . S
C1020 C1019 1.349 . S
C1020 C1032 1.349 . S
C1021 C1019 1.327 . S
C1021 C1037 1.429 . S
C1021 H1043 0.950 . S
C1022 H1018 0.949 . S
C1022 C1030 1.574 . S
C1022 C1038 1.368 . S
H1023 C1031 0.950 . S
H1024 C1029 0.950 . S
H1025 C1030 0.949 . S
H1026 C1032 0.950 . S
H1027 C1033 0.950 . S
H1028 C1034 0.949 . S
C1029 H1024 0.950 . S
C1029 C1031 1.327 . S
C1029 C1035 1.429 . S
C1030 C1022 1.574 . S
C1030 H1025 0.949 . S
C1030 C1036 1.368 . S
C1031 C1015 1.349 . S
C1031 H1023 0.950 . S
C1031 C1029 1.327 . S
C1032 C1020 1.349 . S
C1032 H1026 0.950 . S
C1032 C1033 1.327 . S
C1033 H1027 0.950 . S
C1033 C1032 1.327 . S
C1033 C1037 1.429 . S
C1034 C1017 1.574 . S
C1034 H1028 0.949 . S
C1034 C1038 1.368 . S
C1035 C1016 1.429 . S
C1035 C1029 1.429 . S
C1035 C1036 1.523 . S
C1036 C1017 1.368 . S
C1036 C1030 1.368 . S
C1036 C1035 1.523 . S
C1037 C1021 1.429 . S
C1037 C1033 1.429 . S
C1037 C1038 1.523 . S
C1038 C1022 1.368 . S
C1038 C1034 1.368 . S
C1038 C1037 1.523 . S
H1039 C1014 0.950 . S
H1040 C1016 0.950 . S
H1041 C1017 0.949 . S
H1042 C1019 0.950 . S
H1043 C1021 0.950 . S
C1044 C1045 1.349 . S
C1044 C1046 1.327 . S
C1044 H1069 0.950 . S
C1045 C1044 1.349 . S
C1045 C1061 1.349 . S
C1046 C1044 1.327 . S
C1046 C1065 1.429 . S
C1046 H1070 0.950 . S
C1047 C1064 1.574 . S
C1047 C1066 1.368 . S
C1047 H1071 0.949 . S
H1048 C1052 0.949 . S
C1049 C1050 1.349 . S
C1049 C1051 1.327 . S
C1049 H1072 0.950 . S
C1050 C1049 1.349 . S
C1050 C1062 1.349 . S
C1051 C1049 1.327 . S
C1051 C1067 1.429 . S
C1051 H1073 0.950 . S
C1052 H1048 0.949 . S
C1052 C1060 1.574 . S
C1052 C1068 1.368 . S
H1053 C1061 0.950 . S
H1054 C1059 0.950 . S
H1055 C1060 0.949 . S
H1056 C1062 0.950 . S
H1057 C1063 0.950 . S
H1058 C1064 0.949 . S
C1059 H1054 0.950 . S
C1059 C1061 1.327 . S
C1059 C1065 1.429 . S
C1060 C1052 1.574 . S
C1060 H1055 0.949 . S
C1060 C1066 1.368 . S
C1061 C1045 1.349 . S
C1061 H1053 0.950 . S
C1061 C1059 1.327 . S
C1062 C1050 1.349 . S
C1062 H1056 0.950 . S
C1062 C1063 1.327 . S
C1063 H1057 0.950 . S
C1063 C1062 1.327 . S
C1063 C1067 1.429 . S
C1064 C1047 1.574 . S
C1064 H1058 0.949 . S
C1064 C1068 1.368 . S
C1065 C1046 1.429 . S
C1065 C1059 1.429 . S
C1065 C1066 1.523 . S
C1066 C1047 1.368 . S
C1066 C1060 1.368 . S
C1066 C1065 1.523 . S
C1067 C1051 1.429 . S
C1067 C1063 1.429 . S
C1067 C1068 1.523 . S
C1068 C1052 1.368 . S
C1068 C1064 1.368 . S
C1068 C1067 1.523 . S
H1069 C1044 0.950 . S
H1070 C1046 0.950 . S
H1071 C1047 0.949 . S
H1072 C1049 0.950 . S
H1073 C1051 0.950 . S
C1074 C1075 1.349 . S
C1074 C1076 1.327 . S
C1074 H1099 0.950 . S
C1075 C1074 1.349 . S
C1075 C1091 1.349 . S
C1076 C1074 1.327 . S
C1076 C1095 1.429 . S
C1076 H1100 0.950 . S
C1077 C1094 1.574 . S
C1077 C1096 1.368 . S
C1077 H1101 0.949 . S
H1078 C1082 0.949 . S
C1079 C1080 1.349 . S
C1079 C1081 1.327 . S
C1079 H1102 0.950 . S
C1080 C1079 1.349 . S
C1080 C1092 1.349 . S
C1081 C1079 1.327 . S
C1081 C1097 1.429 . S
C1081 H1103 0.950 . S
C1082 H1078 0.949 . S
C1082 C1090 1.574 . S
C1082 C1098 1.368 . S
H1083 C1091 0.950 . S
H1084 C1089 0.950 . S
H1085 C1090 0.949 . S
H1086 C1092 0.950 . S
H1087 C1093 0.950 . S
H1088 C1094 0.949 . S
C1089 H1084 0.950 . S
C1089 C1091 1.327 . S
C1089 C1095 1.429 . S
C1090 C1082 1.574 . S
C1090 H1085 0.949 . S
C1090 C1096 1.368 . S
C1091 C1075 1.349 . S
C1091 H1083 0.950 . S
C1091 C1089 1.327 . S
C1092 C1080 1.349 . S
C1092 H1086 0.950 . S
C1092 C1093 1.327 . S
C1093 H1087 0.950 . S
C1093 C1092 1.327 . S
C1093 C1097 1.429 . S
C1094 C1077 1.574 . S
C1094 H1088 0.949 . S
C1094 C1098 1.368 . S
C1095 C1076 1.429 . S
C1095 C1089 1.429 . S
C1095 C1096 1.523 . S
C1096 C1077 1.368 . S
C1096 C1090 1.368 . S
C1096 C1095 1.523 . S
C1097 C1081 1.429 . S
C1097 C1093 1.429 . S
C1097 C1098 1.523 . S
C1098 C1082 1.368 . S
C1098 C1094 1.368 . S
C1098 C1097 1.523 . S
H1099 C1074 0.950 . S
H1100 C1076 0.950 . S
H1101 C1077 0.949 . S
H1102 C1079 0.950 . S
H1103 C1081 0.950 . S
C1104 C1105 1.349 . S
C1104 C1106 1.327 . S
C1104 H1129 0.950 . S
C1105 C1104 1.349 . S
C1105 C1121 1.349 . S
C1106 C1104 1.327 . S
C1106 C1125 1.429 . S
C1106 H1130 0.950 . S
C1107 C1124 1.574 . S
C1107 C1126 1.368 . S
C1107 H1131 0.949 . S
H1108 C1112 0.949 . S
C1109 C1110 1.349 . S
C1109 C1111 1.327 . S
C1109 H1132 0.950 . S
C1110 C1109 1.349 . S
C1110 C1122 1.349 . S
C1111 C1109 1.327 . S
C1111 C1127 1.429 . S
C1111 H1133 0.950 . S
C1112 H1108 0.949 . S
C1112 C1120 1.574 . S
C1112 C1128 1.368 . S
H1113 C1121 0.950 . S
H1114 C1119 0.950 . S
H1115 C1120 0.949 . S
H1116 C1122 0.950 . S
H1117 C1123 0.950 . S
H1118 C1124 0.949 . S
C1119 H1114 0.950 . S
C1119 C1121 1.327 . S
C1119 C1125 1.429 . S
C1120 C1112 1.574 . S
C1120 H1115 0.949 . S
C1120 C1126 1.368 . S
C1121 C1105 1.349 . S
C1121 H1113 0.950 . S
C1121 C1119 1.327 . S
C1122 C1110 1.349 . S
C1122 H1116 0.950 . S
C1122 C1123 1.327 . S
C1123 H1117 0.950 . S
C1123 C1122 1.327 . S
C1123 C1127 1.429 . S
C1124 C1107 1.574 . S
C1124 H1118 0.949 . S
C1124 C1128 1.368 . S
C1125 C1106 1.429 . S
C1125 C1119 1.429 . S
C1125 C1126 1.523 . S
C1126 C1107 1.368 . S
C1126 C1120 1.368 . S
C1126 C1125 1.523 . S
C1127 C1111 1.429 . S
C1127 C1123 1.429 . S
C1127 C1128 1.523 . S
C1128 C1112 1.368 . S
C1128 C1124 1.368 . S
C1128 C1127 1.523 . S
H1129 C1104 0.950 . S
H1130 C1106 0.950 . S
H1131 C1107 0.949 . S
H1132 C1109 0.950 . S
H1133 C1111 0.950 . S
C1134 C1135 1.349 . S
C1134 C1136 1.327 . S
C1134 H1159 0.950 . S
C1135 C1134 1.349 . S
C1135 C1151 1.349 . S
C1136 C1134 1.327 . S
C1136 C1155 1.429 . S
C1136 H1160 0.950 . S
C1137 C1154 1.574 . S
C1137 C1156 1.368 . S
C1137 H1161 0.949 . S
H1138 C1142 0.949 . S
C1139 C1140 1.349 . S
C1139 C1141 1.327 . S
C1139 H1162 0.950 . S
C1140 C1139 1.349 . S
C1140 C1152 1.349 . S
C1141 C1139 1.327 . S
C1141 C1157 1.429 . S
C1141 H1163 0.950 . S
C1142 H1138 0.949 . S
C1142 C1150 1.574 . S
C1142 C1158 1.368 . S
H1143 C1151 0.950 . S
H1144 C1149 0.950 . S
H1145 C1150 0.949 . S
H1146 C1152 0.950 . S
H1147 C1153 0.950 . S
H1148 C1154 0.949 . S
C1149 H1144 0.950 . S
C1149 C1151 1.327 . S
C1149 C1155 1.429 . S
C1150 C1142 1.574 . S
C1150 H1145 0.949 . S
C1150 C1156 1.368 . S
C1151 C1135 1.349 . S
C1151 H1143 0.950 . S
C1151 C1149 1.327 . S
C1152 C1140 1.349 . S
C1152 H1146 0.950 . S
C1152 C1153 1.327 . S
C1153 H1147 0.950 . S
C1153 C1152 1.327 . S
C1153 C1157 1.429 . S
C1154 C1137 1.574 . S
C1154 H1148 0.949 . S
C1154 C1158 1.368 . S
C1155 C1136 1.429 . S
C1155 C1149 1.429 . S
C1155 C1156 1.523 . S
C1156 C1137 1.368 . S
C1156 C1150 1.368 . S
C1156 C1155 1.523 . S
C1157 C1141 1.429 . S
C1157 C1153 1.429 . S
C1157 C1158 1.523 . S
C1158 C1142 1.368 . S
C1158 C1154 1.368 . S
C1158 C1157 1.523 . S
H1159 C1134 0.950 . S
H1160 C1136 0.950 . S
H1161 C1137 0.949 . S
H1162 C1139 0.950 . S
H1163 C1141 0.950 . S
C1164 C1165 1.349 . S
C1164 C1166 1.327 . S
C1164 H1189 0.950 . S
C1165 C1164 1.349 . S
C1165 C1181 1.349 . S
C1166 C1164 1.327 . S
C1166 C1185 1.429 . S
C1166 H1190 0.950 . S
C1167 C1184 1.574 . S
C1167 C1186 1.368 . S
C1167 H1191 0.949 . S
H1168 C1172 0.949 . S
C1169 C1170 1.349 . S
C1169 C1171 1.327 . S
C1169 H1192 0.950 . S
C1170 C1169 1.349 . S
C1170 C1182 1.349 . S
C1171 C1169 1.327 . S
C1171 C1187 1.429 . S
C1171 H1193 0.950 . S
C1172 H1168 0.949 . S
C1172 C1180 1.574 . S
C1172 C1188 1.368 . S
H1173 C1181 0.950 . S
H1174 C1179 0.950 . S
H1175 C1180 0.949 . S
H1176 C1182 0.950 . S
H1177 C1183 0.950 . S
H1178 C1184 0.949 . S
C1179 H1174 0.950 . S
C1179 C1181 1.327 . S
C1179 C1185 1.429 . S
C1180 C1172 1.574 . S
C1180 H1175 0.949 . S
C1180 C1186 1.368 . S
C1181 C1165 1.349 . S
C1181 H1173 0.950 . S
C1181 C1179 1.327 . S
C1182 C1170 1.349 . S
C1182 H1176 0.950 . S
C1182 C1183 1.327 . S
C1183 H1177 0.950 . S
C1183 C1182 1.327 . S
C1183 C1187 1.429 . S
C1184 C1167 1.574 . S
C1184 H1178 0.949 . S
C1184 C1188 1.368 . S
C1185 C1166 1.429 . S
C1185 C1179 1.429 . S
C1185 C1186 1.523 . S
C1186 C1167 1.368 . S
C1186 C1180 1.368 . S
C1186 C1185 1.523 . S
C1187 C1171 1.429 . S
C1187 C1183 1.429 . S
C1187 C1188 1.523 . S
C1188 C1172 1.368 . S
C1188 C1184 1.368 . S
C1188 C1187 1.523 . S
H1189 C1164 0.950 . S
H1190 C1166 0.950 . S
H1191 C1167 0.949 . S
H1192 C1169 0.950 . S
H1193 C1171 0.950 . S
C1194 C1195 1.349 . S
C1194 C1196 1.327 . S
C1194 H1219 0.950 . S
C1195 C1194 1.349 . S
C1195 C1211 1.349 . S
C1196 C1194 1.327 . S
C1196 C1215 1.429 . S
C1196 H1220 0.950 . S
C1197 C1214 1.574 . S
C1197 C1216 1.368 . S
C1197 H1221 0.949 . S
H1198 C1202 0.949 . S
C1199 C1200 1.349 . S
C1199 C1201 1.327 . S
C1199 H1222 0.950 . S
C1200 C1199 1.349 . S
C1200 C1212 1.349 . S
C1201 C1199 1.327 . S
C1201 C1217 1.429 . S
C1201 H1223 0.950 . S
C1202 H1198 0.949 . S
C1202 C1210 1.574 . S
C1202 C1218 1.368 . S
H1203 C1211 0.950 . S
H1204 C1209 0.950 . S
H1205 C1210 0.949 . S
H1206 C1212 0.950 . S
H1207 C1213 0.950 . S
H1208 C1214 0.949 . S
C1209 H1204 0.950 . S
C1209 C1211 1.327 . S
C1209 C1215 1.429 . S
C1210 C1202 1.574 . S
C1210 H1205 0.949 . S
C1210 C1216 1.368 . S
C1211 C1195 1.349 . S
C1211 H1203 0.950 . S
C1211 C1209 1.327 . S
C1212 C1200 1.349 . S
C1212 H1206 0.950 . S
C1212 C1213 1.327 . S
C1213 H1207 0.950 . S
C1213 C1212 1.327 . S
C1213 C1217 1.429 . S
C1214 C1197 1.574 . S
C1214 H1208 0.949 . S
C1214 C1218 1.368 . S
C1215 C1196 1.429 . S
C1215 C1209 1.429 . S
C1215 C1216 1.523 . S
C1216 C1197 1.368 . S
C1216 C1210 1.368 . S
C1216 C1215 1.523 . S
C1217 C1201 1.429 . S
C1217 C1213 1.429 . S
C1217 C1218 1.523 . S
C1218 C1202 1.368 . S
C1218 C1214 1.368 . S
C1218 C1217 1.523 . S
H1219 C1194 0.950 . S
H1220 C1196 0.950 . S
H1221 C1197 0.949 . S
H1222 C1199 0.950 . S
H1223 C1201 0.950 . S
C1224 C1225 1.349 . S
C1224 C1226 1.327 . S
C1224 H1249 0.950 . S
C1225 C1224 1.349 . S
C1225 C1241 1.349 . S
C1226 C1224 1.327 . S
C1226 C1245 1.429 . S
C1226 H1250 0.950 . S
C1227 C1244 1.574 . S
C1227 C1246 1.368 . S
C1227 H1251 0.949 . S
H1228 C1232 0.949 . S
C1229 C1230 1.349 . S
C1229 C1231 1.327 . S
C1229 H1252 0.950 . S
C1230 C1229 1.349 . S
C1230 C1242 1.349 . S
C1231 C1229 1.327 . S
C1231 C1247 1.429 . S
C1231 H1253 0.950 . S
C1232 H1228 0.949 . S
C1232 C1240 1.574 . S
C1232 C1248 1.368 . S
H1233 C1241 0.950 . S
H1234 C1239 0.950 . S
H1235 C1240 0.949 . S
H1236 C1242 0.950 . S
H1237 C1243 0.950 . S
H1238 C1244 0.949 . S
C1239 H1234 0.950 . S
C1239 C1241 1.327 . S
C1239 C1245 1.429 . S
C1240 C1232 1.574 . S
C1240 H1235 0.949 . S
C1240 C1246 1.368 . S
C1241 C1225 1.349 . S
C1241 H1233 0.950 . S
C1241 C1239 1.327 . S
C1242 C1230 1.349 . S
C1242 H1236 0.950 . S
C1242 C1243 1.327 . S
C1243 H1237 0.950 . S
C1243 C1242 1.327 . S
C1243 C1247 1.429 . S
C1244 C1227 1.574 . S
C1244 H1238 0.949 . S
C1244 C1248 1.368 . S
C1245 C1226 1.429 . S
C1245 C1239 1.429 . S
C1245 C1246 1.523 . S
C1246 C1227 1.368 . S
C1246 C1240 1.368 . S
C1246 C1245 1.523 . S
C1247 C1231 1.429 . S
C1247 C1243 1.429 . S
C1247 C1248 1.523 . S
C1248 C1232 1.368 . S
C1248 C1244 1.368 . S
C1248 C1247 1.523 . S
H1249 C1224 0.950 . S
H1250 C1226 0.950 . S
H1251 C1227 0.949 . S
H1252 C1229 0.950 . S
H1253 C1231 0.950 . S
C1254 C1255 1.349 . S
C1254 C1256 1.327 . S
C1254 H1279 0.950 . S
C1255 C1254 1.349 . S
C1255 C1271 1.349 . S
C1256 C1254 1.327 . S
C1256 C1275 1.429 . S
C1256 H1280 0.950 . S
C1257 C1274 1.574 . S
C1257 C1276 1.368 . S
C1257 H1281 0.949 . S
H1258 C1262 0.949 . S
C1259 C1260 1.349 . S
C1259 C1261 1.327 . S
C1259 H1282 0.950 . S
C1260 C1259 1.349 . S
C1260 C1272 1.349 . S
C1261 C1259 1.327 . S
C1261 C1277 1.429 . S
C1261 H1283 0.950 . S
C1262 H1258 0.949 . S
C1262 C1270 1.574 . S
C1262 C1278 1.368 . S
H1263 C1271 0.950 . S
H1264 C1269 0.950 . S
H1265 C1270 0.949 . S
H1266 C1272 0.950 . S
H1267 C1273 0.950 . S
H1268 C1274 0.949 . S
C1269 H1264 0.950 . S
C1269 C1271 1.327 . S
C1269 C1275 1.429 . S
C1270 C1262 1.574 . S
C1270 H1265 0.949 . S
C1270 C1276 1.368 . S
C1271 C1255 1.349 . S
C1271 H1263 0.950 . S
C1271 C1269 1.327 . S
C1272 C1260 1.349 . S
C1272 H1266 0.950 . S
C1272 C1273 1.327 . S
C1273 H1267 0.950 . S
C1273 C1272 1.327 . S
C1273 C1277 1.429 . S
C1274 C1257 1.574 . S
C1274 H1268 0.949 . S
C1274 C1278 1.368 . S
C1275 C1256 1.429 . S
C1275 C1269 1.429 . S
C1275 C1276 1.523 . S
C1276 C1257 1.368 . S
C1276 C1270 1.368 . S
C1276 C1275 1.523 . S
C1277 C1261 1.429 . S
C1277 C1273 1.429 . S
C1277 C1278 1.523 . S
C1278 C1262 1.368 . S
C1278 C1274 1.368 . S
C1278 C1277 1.523 . S
H1279 C1254 0.950 . S
H1280 C1256 0.950 . S
H1281 C1257 0.949 . S
H1282 C1259 0.950 . S
H1283 C1261 0.950 . S
C1284 C1285 1.349 . S
C1284 C1286 1.327 . S
C1284 H1309 0.950 . S
C1285 C1284 1.349 . S
C1285 C1301 1.349 . S
C1286 C1284 1.327 . S
C1286 C1305 1.429 . S
C1286 H1310 0.950 . S
C1287 C1304 1.574 . S
C1287 C1306 1.368 . S
C1287 H1311 0.949 . S
H1288 C1292 0.949 . S
C1289 C1290 1.349 . S
C1289 C1291 1.327 . S
C1289 H1312 0.950 . S
C1290 C1289 1.349 . S
C1290 C1302 1.349 . S
C1291 C1289 1.327 . S
C1291 C1307 1.429 . S
C1291 H1313 0.950 . S
C1292 H1288 0.949 . S
C1292 C1300 1.574 . S
C1292 C1308 1.368 . S
H1293 C1301 0.950 . S
H1294 C1299 0.950 . S
H1295 C1300 0.949 . S
H1296 C1302 0.950 . S
H1297 C1303 0.950 . S
H1298 C1304 0.949 . S
C1299 H1294 0.950 . S
C1299 C1301 1.327 . S
C1299 C1305 1.429 . S
C1300 C1292 1.574 . S
C1300 H1295 0.949 . S
C1300 C1306 1.368 . S
C1301 C1285 1.349 . S
C1301 H1293 0.950 . S
C1301 C1299 1.327 . S
C1302 C1290 1.349 . S
C1302 H1296 0.950 . S
C1302 C1303 1.327 . S
C1303 H1297 0.950 . S
C1303 C1302 1.327 . S
C1303 C1307 1.429 . S
C1304 C1287 1.574 . S
C1304 H1298 0.949 . S
C1304 C1308 1.368 . S
C1305 C1286 1.429 . S
C1305 C1299 1.429 . S
C1305 C1306 1.523 . S
C1306 C1287 1.368 . S
C1306 C1300 1.368 . S
C1306 C1305 1.523 . S
C1307 C1291 1.429 . S
C1307 C1303 1.429 . S
C1307 C1308 1.523 . S
C1308 C1292 1.368 . S
C1308 C1304 1.368 . S
C1308 C1307 1.523 . S
H1309 C1284 0.950 . S
H1310 C1286 0.950 . S
H1311 C1287 0.949 . S
H1312 C1289 0.950 . S
H1313 C1291 0.950 . S
C1314 C1315 1.349 . S
C1314 C1316 1.327 . S
C1314 H1339 0.950 . S
C1315 C1314 1.349 . S
C1315 C1331 1.349 . S
C1316 C1314 1.327 . S
C1316 C1335 1.429 . S
C1316 H1340 0.950 . S
C1317 C1334 1.574 . S
C1317 C1336 1.368 . S
C1317 H1341 0.949 . S
H1318 C1322 0.949 . S
C1319 C1320 1.349 . S
C1319 C1321 1.327 . S
C1319 H1342 0.950 . S
C1320 C1319 1.349 . S
C1320 C1332 1.349 . S
C1321 C1319 1.327 . S
C1321 C1337 1.429 . S
C1321 H1343 0.950 . S
C1322 H1318 0.949 . S
C1322 C1330 1.574 . S
C1322 C1338 1.368 . S
H1323 C1331 0.950 . S
H1324 C1329 0.950 . S
H1325 C1330 0.949 . S
H1326 C1332 0.950 . S
H1327 C1333 0.950 . S
H1328 C1334 0.949 . S
C1329 H1324 0.950 . S
C1329 C1331 1.327 . S
C1329 C1335 1.429 . S
C1330 C1322 1.574 . S
C1330 H1325 0.949 . S
C1330 C1336 1.368 . S
C1331 C1315 1.349 . S
C1331 H1323 0.950 . S
C1331 C1329 1.327 . S
C1332 C1320 1.349 . S
C1332 H1326 0.950 . S
C1332 C1333 1.327 . S
C1333 H1327 0.950 . S
C1333 C1332 1.327 . S
C1333 C1337 1.429 . S
C1334 C1317 1.574 . S
C1334 H1328 0.949 . S
C1334 C1338 1.368 . S
C1335 C1316 1.429 . S
C1335 C1329 1.429 . S
C1335 C1336 1.523 . S
C1336 C1317 1.368 . S
C1336 C1330 1.368 . S
C1336 C1335 1.523 . S
C1337 C1321 1.429 . S
C1337 C1333 1.429 . S
C1337 C1338 1.523 . S
C1338 C1322 1.368 . S
C1338 C1334 1.368 . S
C1338 C1337 1.523 . S
H1339 C1314 0.950 . S
H1340 C1316 0.950 . S
H1341 C1317 0.949 . S
H1342 C1319 0.950 . S
H1343 C1321 0.950 . S
C1344 C1345 1.349 . S
C1344 C1346 1.327 . S
C1344 H1369 0.950 . S
C1345 C1344 1.349 . S
C1345 C1361 1.349 . S
C1346 C1344 1.327 . S
C1346 C1365 1.429 . S
C1346 H1370 0.950 . S
C1347 C1364 1.574 . S
C1347 C1366 1.368 . S
C1347 H1371 0.949 . S
H1348 C1352 0.949 . S
C1349 C1350 1.349 . S
C1349 C1351 1.327 . S
C1349 H1372 0.950 . S
C1350 C1349 1.349 . S
C1350 C1362 1.349 . S
C1351 C1349 1.327 . S
C1351 C1367 1.429 . S
C1351 H1373 0.950 . S
C1352 H1348 0.949 . S
C1352 C1360 1.574 . S
C1352 C1368 1.368 . S
H1353 C1361 0.950 . S
H1354 C1359 0.950 . S
H1355 C1360 0.949 . S
H1356 C1362 0.950 . S
H1357 C1363 0.950 . S
H1358 C1364 0.949 . S
C1359 H1354 0.950 . S
C1359 C1361 1.327 . S
C1359 C1365 1.429 . S
C1360 C1352 1.574 . S
C1360 H1355 0.949 . S
C1360 C1366 1.368 . S
C1361 C1345 1.349 . S
C1361 H1353 0.950 . S
C1361 C1359 1.327 . S
C1362 C1350 1.349 . S
C1362 H1356 0.950 . S
C1362 C1363 1.327 . S
C1363 H1357 0.950 . S
C1363 C1362 1.327 . S
C1363 C1367 1.429 . S
C1364 C1347 1.574 . S
C1364 H1358 0.949 . S
C1364 C1368 1.368 . S
C1365 C1346 1.429 . S
C1365 C1359 1.429 . S
C1365 C1366 1.523 . S
C1366 C1347 1.368 . S
C1366 C1360 1.368 . S
C1366 C1365 1.523 . S
C1367 C1351 1.429 . S
C1367 C1363 1.429 . S
C1367 C1368 1.523 . S
C1368 C1352 1.368 . S
C1368 C1364 1.368 . S
C1368 C1367 1.523 . S
H1369 C1344 0.950 . S
H1370 C1346 0.950 . S
H1371 C1347 0.949 . S
H1372 C1349 0.950 . S
H1373 C1351 0.950 . S
C1374 C1375 1.349 . S
C1374 C1376 1.327 . S
C1374 H1399 0.950 . S
C1375 C1374 1.349 . S
C1375 C1391 1.349 . S
C1376 C1374 1.327 . S
C1376 C1395 1.429 . S
C1376 H1400 0.950 . S
C1377 C1394 1.574 . S
C1377 C1396 1.368 . S
C1377 H1401 0.949 . S
H1378 C1382 0.949 . S
C1379 C1380 1.349 . S
C1379 C1381 1.327 . S
C1379 H1402 0.950 . S
C1380 C1379 1.349 . S
C1380 C1392 1.349 . S
C1381 C1379 1.327 . S
C1381 C1397 1.429 . S
C1381 H1403 0.950 . S
C1382 H1378 0.949 . S
C1382 C1390 1.574 . S
C1382 C1398 1.368 . S
H1383 C1391 0.950 . S
H1384 C1389 0.950 . S
H1385 C1390 0.949 . S
H1386 C1392 0.950 . S
H1387 C1393 0.950 . S
H1388 C1394 0.949 . S
C1389 H1384 0.950 . S
C1389 C1391 1.327 . S
C1389 C1395 1.429 . S
C1390 C1382 1.574 . S
C1390 H1385 0.949 . S
C1390 C1396 1.368 . S
C1391 C1375 1.349 . S
C1391 H1383 0.950 . S
C1391 C1389 1.327 . S
C1392 C1380 1.349 . S
C1392 H1386 0.950 . S
C1392 C1393 1.327 . S
C1393 H1387 0.950 . S
C1393 C1392 1.327 . S
C1393 C1397 1.429 . S
C1394 C1377 1.574 . S
C1394 H1388 0.949 . S
C1394 C1398 1.368 . S
C1395 C1376 1.429 . S
C1395 C1389 1.429 . S
C1395 C1396 1.523 . S
C1396 C1377 1.368 . S
C1396 C1390 1.368 . S
C1396 C1395 1.523 . S
C1397 C1381 1.429 . S
C1397 C1393 1.429 . S
C1397 C1398 1.523 . S
C1398 C1382 1.368 . S
C1398 C1394 1.368 . S
C1398 C1397 1.523 . S
H1399 C1374 0.950 . S
H1400 C1376 0.950 . S
H1401 C1377 0.949 . S
H1402 C1379 0.950 . S
H1403 C1381 0.950 . S
C1404 C1405 1.349 . S
C1404 C1406 1.327 . S
C1404 H1429 0.950 . S
C1405 C1404 1.349 . S
C1405 C1421 1.349 . S
C1406 C1404 1.327 . S
C1406 C1425 1.429 . S
C1406 H1430 0.950 . S
C1407 C1424 1.574 . S
C1407 C1426 1.368 . S
C1407 H1431 0.949 . S
H1408 C1412 0.949 . S
C1409 C1410 1.349 . S
C1409 C1411 1.327 . S
C1409 H1432 0.950 . S
C1410 C1409 1.349 . S
C1410 C1422 1.349 . S
C1411 C1409 1.327 . S
C1411 C1427 1.429 . S
C1411 H1433 0.950 . S
C1412 H1408 0.949 . S
C1412 C1420 1.574 . S
C1412 C1428 1.368 . S
H1413 C1421 0.950 . S
H1414 C1419 0.950 . S
H1415 C1420 0.949 . S
H1416 C1422 0.950 . S
H1417 C1423 0.950 . S
H1418 C1424 0.949 . S
C1419 H1414 0.950 . S
C1419 C1421 1.327 . S
C1419 C1425 1.429 . S
C1420 C1412 1.574 . S
C1420 H1415 0.949 . S
C1420 C1426 1.368 . S
C1421 C1405 1.349 . S
C1421 H1413 0.950 . S
C1421 C1419 1.327 . S
C1422 C1410 1.349 . S
C1422 H1416 0.950 . S
C1422 C1423 1.327 . S
C1423 H1417 0.950 . S
C1423 C1422 1.327 . S
C1423 C1427 1.429 . S
C1424 C1407 1.574 . S
C1424 H1418 0.949 . S
C1424 C1428 1.368 . S
C1425 C1406 1.429 . S
C1425 C1419 1.429 . S
C1425 C1426 1.523 . S
C1426 C1407 1.368 . S
C1426 C1420 1.368 . S
C1426 C1425 1.523 . S
C1427 C1411 1.429 . S
C1427 C1423 1.429 . S
C1427 C1428 1.523 . S
C1428 C1412 1.368 . S
C1428 C1424 1.368 . S
C1428 C1427 1.523 . S
H1429 C1404 0.950 . S
H1430 C1406 0.950 . S
H1431 C1407 0.949 . S
H1432 C1409 0.950 . S
H1433 C1411 0.950 . S
C1434 C1435 1.349 . S
C1434 C1436 1.327 . S
C1434 H1459 0.950 . S
C1435 C1434 1.349 . S
C1435 C1451 1.349 . S
C1436 C1434 1.327 . S
C1436 C1455 1.429 . S
C1436 H1460 0.950 . S
C1437 C1454 1.574 . S
C1437 C1456 1.368 . S
C1437 H1461 0.949 . S
H1438 C1442 0.949 . S
C1439 C1440 1.349 . S
C1439 C1441 1.327 . S
C1439 H1462 0.950 . S
C1440 C1439 1.349 . S
C1440 C1452 1.349 . S
C1441 C1439 1.327 . S
C1441 C1457 1.429 . S
C1441 H1463 0.950 . S
C1442 H1438 0.949 . S
C1442 C1450 1.574 . S
C1442 C1458 1.368 . S
H1443 C1451 0.950 . S
H1444 C1449 0.950 . S
H1445 C1450 0.949 . S
H1446 C1452 0.950 . S
H1447 C1453 0.950 . S
H1448 C1454 0.949 . S
C1449 H1444 0.950 . S
C1449 C1451 1.327 . S
C1449 C1455 1.429 . S
C1450 C1442 1.574 . S
C1450 H1445 0.949 . S
C1450 C1456 1.368 . S
C1451 C1435 1.349 . S
C1451 H1443 0.950 . S
C1451 C1449 1.327 . S
C1452 C1440 1.349 . S
C1452 H1446 0.950 . S
C1452 C1453 1.327 . S
C1453 H1447 0.950 . S
C1453 C1452 1.327 . S
C1453 C1457 1.429 . S
C1454 C1437 1.574 . S
C1454 H1448 0.949 . S
C1454 C1458 1.368 . S
C1455 C1436 1.429 . S
C1455 C1449 1.429 . S
C1455 C1456 1.523 . S
C1456 C1437 1.368 . S
C1456 C1450 1.368 . S
C1456 C1455 1.523 . S
C1457 C1441 1.429 . S
C1457 C1453 1.429 . S
C1457 C1458 1.523 . S
C1458 C1442 1.368 . S
C1458 C1454 1.368 . S
C1458 C1457 1.523 . S
H1459 C1434 0.950 . S
H1460 C1436 0.950 . S
H1461 C1437 0.949 . S
H1462 C1439 0.950 . S
H1463 C1441 0.950 . S
C1464 C1465 1.349 . S
C1464 C1466 1.327 . S
C1464 H1489 0.950 . S
C1465 C1464 1.349 . S
C1465 C1481 1.349 . S
C1466 C1464 1.327 . S
C1466 C1485 1.429 . S
C1466 H1490 0.950 . S
C1467 C1484 1.574 . S
C1467 C1486 1.368 . S
C1467 H1491 0.949 . S
H1468 C1472 0.949 . S
C1469 C1470 1.349 . S
C1469 C1471 1.327 . S
C1469 H1492 0.950 . S
C1470 C1469 1.349 . S
C1470 C1482 1.349 . S
C1471 C1469 1.327 . S
C1471 C1487 1.429 . S
C1471 H1493 0.950 . S
C1472 H1468 0.949 . S
C1472 C1480 1.574 . S
C1472 C1488 1.368 . S
H1473 C1481 0.950 . S
H1474 C1479 0.950 . S
H1475 C1480 0.949 . S
H1476 C1482 0.950 . S
H1477 C1483 0.950 . S
H1478 C1484 0.949 . S
C1479 H1474 0.950 . S
C1479 C1481 1.327 . S
C1479 C1485 1.429 . S
C1480 C1472 1.574 . S
C1480 H1475 0.949 . S
C1480 C1486 1.368 . S
C1481 C1465 1.349 . S
C1481 H1473 0.950 . S
C1481 C1479 1.327 . S
C1482 C1470 1.349 . S
C1482 H1476 0.950 . S
C1482 C1483 1.327 . S
C1483 H1477 0.950 . S
C1483 C1482 1.327 . S
C1483 C1487 1.429 . S
C1484 C1467 1.574 . S
C1484 H1478 0.949 . S
C1484 C1488 1.368 . S
C1485 C1466 1.429 . S
C1485 C1479 1.429 . S
C1485 C1486 1.523 . S
C1486 C1467 1.368 . S
C1486 C1480 1.368 . S
C1486 C1485 1.523 . S
C1487 C1471 1.429 . S
C1487 C1483 1.429 . S
C1487 C1488 1.523 . S
C1488 C1472 1.368 . S
C1488 C1484 1.368 . S
C1488 C1487 1.523 . S
H1489 C1464 0.950 . S
H1490 C1466 0.950 . S
H1491 C1467 0.949 . S
H1492 C1469 0.950 . S
H1493 C1471 0.950 . S
C1494 C1495 1.349 . S
C1494 C1496 1.327 . S
C1494 H1519 0.950 . S
C1495 C1494 1.349 . S
C1495 C1511 1.349 . S
C1496 C1494 1.327 . S
C1496 C1515 1.429 . S
C1496 H1520 0.950 . S
C1497 C1514 1.574 . S
C1497 C1516 1.368 . S
C1497 H1521 0.949 . S
H1498 C1502 0.949 . S
C1499 C1500 1.349 . S
C1499 C1501 1.327 . S
C1499 H1522 0.950 . S
C1500 C1499 1.349 . S
C1500 C1512 1.349 . S
C1501 C1499 1.327 . S
C1501 C1517 1.429 . S
C1501 H1523 0.950 . S
C1502 H1498 0.949 . S
C1502 C1510 1.574 . S
C1502 C1518 1.368 . S
H1503 C1511 0.950 . S
H1504 C1509 0.950 . S
H1505 C1510 0.949 . S
H1506 C1512 0.950 . S
H1507 C1513 0.950 . S
H1508 C1514 0.949 . S
C1509 H1504 0.950 . S
C1509 C1511 1.327 . S
C1509 C1515 1.429 . S
C1510 C1502 1.574 . S
C1510 H1505 0.949 . S
C1510 C1516 1.368 . S
C1511 C1495 1.349 . S
C1511 H1503 0.950 . S
C1511 C1509 1.327 . S
C1512 C1500 1.349 . S
C1512 H1506 0.950 . S
C1512 C1513 1.327 . S
C1513 H1507 0.950 . S
C1513 C1512 1.327 . S
C1513 C1517 1.429 . S
C1514 C1497 1.574 . S
C1514 H1508 0.949 . S
C1514 C1518 1.368 . S
C1515 C1496 1.429 . S
C1515 C1509 1.429 . S
C1515 C1516 1.523 . S
C1516 C1497 1.368 . S
C1516 C1510 1.368 . S
C1516 C1515 1.523 . S
C1517 C1501 1.429 . S
C1517 C1513 1.429 . S
C1517 C1518 1.523 . S
C1518 C1502 1.368 . S
C1518 C1514 1.368 . S
C1518 C1517 1.523 . S
H1519 C1494 0.950 . S
H1520 C1496 0.950 . S
H1521 C1497 0.949 . S
H1522 C1499 0.950 . S
H1523 C1501 0.950 . S
C1524 C1525 1.349 . S
C1524 C1526 1.327 . S
C1524 H1549 0.950 . S
C1525 C1524 1.349 . S
C1525 C1541 1.349 . S
C1526 C1524 1.327 . S
C1526 C1545 1.429 . S
C1526 H1550 0.950 . S
C1527 C1544 1.574 . S
C1527 C1546 1.368 . S
C1527 H1551 0.949 . S
H1528 C1532 0.949 . S
C1529 C1530 1.349 . S
C1529 C1531 1.327 . S
C1529 H1552 0.950 . S
C1530 C1529 1.349 . S
C1530 C1542 1.349 . S
C1531 C1529 1.327 . S
C1531 C1547 1.429 . S
C1531 H1553 0.950 . S
C1532 H1528 0.949 . S
C1532 C1540 1.574 . S
C1532 C1548 1.368 . S
H1533 C1541 0.950 . S
H1534 C1539 0.950 . S
H1535 C1540 0.949 . S
H1536 C1542 0.950 . S
H1537 C1543 0.950 . S
H1538 C1544 0.949 . S
C1539 H1534 0.950 . S
C1539 C1541 1.327 . S
C1539 C1545 1.429 . S
C1540 C1532 1.574 . S
C1540 H1535 0.949 . S
C1540 C1546 1.368 . S
C1541 C1525 1.349 . S
C1541 H1533 0.950 . S
C1541 C1539 1.327 . S
C1542 C1530 1.349 . S
C1542 H1536 0.950 . S
C1542 C1543 1.327 . S
C1543 H1537 0.950 . S
C1543 C1542 1.327 . S
C1543 C1547 1.429 . S
C1544 C1527 1.574 . S
C1544 H1538 0.949 . S
C1544 C1548 1.368 . S
C1545 C1526 1.429 . S
C1545 C1539 1.429 . S
C1545 C1546 1.523 . S
C1546 C1527 1.368 . S
C1546 C1540 1.368 . S
C1546 C1545 1.523 . S
C1547 C1531 1.429 . S
C1547 C1543 1.429 . S
C1547 C1548 1.523 . S
C1548 C1532 1.368 . S
C1548 C1544 1.368 . S
C1548 C1547 1.523 . S
H1549 C1524 0.950 . S
H1550 C1526 0.950 . S
H1551 C1527 0.949 . S
H1552 C1529 0.950 . S
H1553 C1531 0.950 . S
C1554 C1555 1.349 . S
C1554 C1556 1.327 . S
C1554 H1579 0.950 . S
C1555 C1554 1.349 . S
C1555 C1571 1.349 . S
C1556 C1554 1.327 . S
C1556 C1575 1.429 . S
C1556 H1580 0.950 . S
C1557 C1574 1.574 . S
C1557 C1576 1.368 . S
C1557 H1581 0.949 . S
H1558 C1562 0.949 . S
C1559 C1560 1.349 . S
C1559 C1561 1.327 . S
C1559 H1582 0.950 . S
C1560 C1559 1.349 . S
C1560 C1572 1.349 . S
C1561 C1559 1.327 . S
C1561 C1577 1.429 . S
C1561 H1583 0.950 . S
C1562 H1558 0.949 . S
C1562 C1570 1.574 . S
C1562 C1578 1.368 . S
H1563 C1571 0.950 . S
H1564 C1569 0.950 . S
H1565 C1570 0.949 . S
H1566 C1572 0.950 . S
H1567 C1573 0.950 . S
H1568 C1574 0.949 . S
C1569 H1564 0.950 . S
C1569 C1571 1.327 . S
C1569 C1575 1.429 . S
C1570 C1562 1.574 . S
C1570 H1565 0.949 . S
C1570 C1576 1.368 . S
C1571 C1555 1.349 . S
C1571 H1563 0.950 . S
C1571 C1569 1.327 . S
C1572 C1560 1.349 . S
C1572 H1566 0.950 . S
C1572 C1573 1.327 . S
C1573 H1567 0.950 . S
C1573 C1572 1.327 . S
C1573 C1577 1.429 . S
C1574 C1557 1.574 . S
C1574 H1568 0.949 . S
C1574 C1578 1.368 . S
C1575 C1556 1.429 . S
C1575 C1569 1.429 . S
C1575 C1576 1.523 . S
C1576 C1557 1.368 . S
C1576 C1570 1.368 . S
C1576 C1575 1.523 . S
C1577 C1561 1.429 . S
C1577 C1573 1.429 . S
C1577 C1578 1.523 . S
C1578 C1562 1.368 . S
C1578 C1574 1.368 . S
C1578 C1577 1.523 . S
H1579 C1554 0.950 . S
H1580 C1556 0.950 . S
H1581 C1557 0.949 . S
H1582 C1559 0.950 . S
H1583 C1561 0.950 . S
C1584 C1585 1.349 . S
C1584 C1586 1.327 . S
C1584 H1609 0.950 . S
C1585 C1584 1.349 . S
C1585 C1601 1.349 . S
C1586 C1584 1.327 . S
C1586 C1605 1.429 . S
C1586 H1610 0.950 . S
C1587 C1604 1.574 . S
C1587 C1606 1.368 . S
C1587 H1611 0.949 . S
H1588 C1592 0.949 . S
C1589 C1590 1.349 . S
C1589 C1591 1.327 . S
C1589 H1612 0.950 . S
C1590 C1589 1.349 . S
C1590 C1602 1.349 . S
C1591 C1589 1.327 . S
C1591 C1607 1.429 . S
C1591 H1613 0.950 . S
C1592 H1588 0.949 . S
C1592 C1600 1.574 . S
C1592 C1608 1.368 . S
H1593 C1601 0.950 . S
H1594 C1599 0.950 . S
H1595 C1600 0.949 . S
H1596 C1602 0.950 . S
H1597 C1603 0.950 . S
H1598 C1604 0.949 . S
C1599 H1594 0.950 . S
C1599 C1601 1.327 . S
C1599 C1605 1.429 . S
C1600 C1592 1.574 . S
C1600 H1595 0.949 . S
C1600 C1606 1.368 . S
C1601 C1585 1.349 . S
C1601 H1593 0.950 . S
C1601 C1599 1.327 . S
C1602 C1590 1.349 . S
C1602 H1596 0.950 . S
C1602 C1603 1.327 . S
C1603 H1597 0.950 . S
C1603 C1602 1.327 . S
C1603 C1607 1.429 . S
C1604 C1587 1.574 . S
C1604 H1598 0.949 . S
C1604 C1608 1.368 . S
C1605 C1586 1.429 . S
C1605 C1599 1.429 . S
C1605 C1606 1.523 . S
C1606 C1587 1.368 . S
C1606 C1600 1.368 . S
C1606 C1605 1.523 . S
C1607 C1591 1.429 . S
C1607 C1603 1.429 . S
C1607 C1608 1.523 . S
C1608 C1592 1.368 . S
C1608 C1604 1.368 . S
C1608 C1607 1.523 . S
H1609 C1584 0.950 . S
H1610 C1586 0.950 . S
H1611 C1587 0.949 . S
H1612 C1589 0.950 . S
H1613 C1591 0.950 . S
C1614 C1615 1.349 . S
C1614 C1616 1.327 . S
C1614 H1639 0.950 . S
C1615 C1614 1.349 . S
C1615 C1631 1.349 . S
C1616 C1614 1.327 . S
C1616 C1635 1.429 . S
C1616 H1640 0.950 . S
C1617 C1634 1.574 . S
C1617 C1636 1.368 . S
C1617 H1641 0.949 . S
H1618 C1622 0.949 . S
C1619 C1620 1.349 . S
C1619 C1621 1.327 . S
C1619 H1642 0.950 . S
C1620 C1619 1.349 . S
C1620 C1632 1.349 . S
C1621 C1619 1.327 . S
C1621 C1637 1.429 . S
C1621 H1643 0.950 . S
C1622 H1618 0.949 . S
C1622 C1630 1.574 . S
C1622 C1638 1.368 . S
H1623 C1631 0.950 . S
H1624 C1629 0.950 . S
H1625 C1630 0.949 . S
H1626 C1632 0.950 . S
H1627 C1633 0.950 . S
H1628 C1634 0.949 . S
C1629 H1624 0.950 . S
C1629 C1631 1.327 . S
C1629 C1635 1.429 . S
C1630 C1622 1.574 . S
C1630 H1625 0.949 . S
C1630 C1636 1.368 . S
C1631 C1615 1.349 . S
C1631 H1623 0.950 . S
C1631 C1629 1.327 . S
C1632 C1620 1.349 . S
C1632 H1626 0.950 . S
C1632 C1633 1.327 . S
C1633 H1627 0.950 . S
C1633 C1632 1.327 . S
C1633 C1637 1.429 . S
C1634 C1617 1.574 . S
C1634 H1628 0.949 . S
C1634 C1638 1.368 . S
C1635 C1616 1.429 . S
C1635 C1629 1.429 . S
C1635 C1636 1.523 . S
C1636 C1617 1.368 . S
C1636 C1630 1.368 . S
C1636 C1635 1.523 . S
C1637 C1621 1.429 . S
C1637 C1633 1.429 . S
C1637 C1638 1.523 . S
C1638 C1622 1.368 . S
C1638 C1634 1.368 . S
C1638 C1637 1.523 . S
H1639 C1614 0.950 . S
H1640 C1616 0.950 . S
H1641 C1617 0.949 . S
H1642 C1619 0.950 . S
H1643 C1621 0.950 . S
C1644 C1645 1.349 . S
C1644 C1646 1.327 . S
C1644 H1669 0.950 . S
C1645 C1644 1.349 . S
C1645 C1661 1.349 . S
C1646 C1644 1.327 . S
C1646 C1665 1.429 . S
C1646 H1670 0.950 . S
C1647 C1664 1.574 . S
C1647 C1666 1.368 . S
C1647 H1671 0.949 . S
H1648 C1652 0.949 . S
C1649 C1650 1.349 . S
C1649 C1651 1.327 . S
C1649 H1672 0.950 . S
C1650 C1649 1.349 . S
C1650 C1662 1.349 . S
C1651 C1649 1.327 . S
C1651 C1667 1.429 . S
C1651 H1673 0.950 . S
C1652 H1648 0.949 . S
C1652 C1660 1.574 . S
C1652 C1668 1.368 . S
H1653 C1661 0.950 . S
H1654 C1659 0.950 . S
H1655 C1660 0.949 . S
H1656 C1662 0.950 . S
H1657 C1663 0.950 . S
H1658 C1664 0.949 . S
C1659 H1654 0.950 . S
C1659 C1661 1.327 . S
C1659 C1665 1.429 . S
C1660 C1652 1.574 . S
C1660 H1655 0.949 . S
C1660 C1666 1.368 . S
C1661 C1645 1.349 . S
C1661 H1653 0.950 . S
C1661 C1659 1.327 . S
C1662 C1650 1.349 . S
C1662 H1656 0.950 . S
C1662 C1663 1.327 . S
C1663 H1657 0.950 . S
C1663 C1662 1.327 . S
C1663 C1667 1.429 . S
C1664 C1647 1.574 . S
C1664 H1658 0.949 . S
C1664 C1668 1.368 . S
C1665 C1646 1.429 . S
C1665 C1659 1.429 . S
C1665 C1666 1.523 . S
C1666 C1647 1.368 . S
C1666 C1660 1.368 . S
C1666 C1665 1.523 . S
C1667 C1651 1.429 . S
C1667 C1663 1.429 . S
C1667 C1668 1.523 . S
C1668 C1652 1.368 . S
C1668 C1664 1.368 . S
C1668 C1667 1.523 . S
H1669 C1644 0.950 . S
H1670 C1646 0.950 . S
H1671 C1647 0.949 . S
H1672 C1649 0.950 . S
H1673 C1651 0.950 . S
C1674 C1675 1.349 . S
C1674 C1676 1.327 . S
C1674 H1699 0.950 . S
C1675 C1674 1.349 . S
C1675 C1691 1.349 . S
C1676 C1674 1.327 . S
C1676 C1695 1.429 . S
C1676 H1700 0.950 . S
C1677 C1694 1.574 . S
C1677 C1696 1.368 . S
C1677 H1701 0.949 . S
H1678 C1682 0.949 . S
C1679 C1680 1.349 . S
C1679 C1681 1.327 . S
C1679 H1702 0.950 . S
C1680 C1679 1.349 . S
C1680 C1692 1.349 . S
C1681 C1679 1.327 . S
C1681 C1697 1.429 . S
C1681 H1703 0.950 . S
C1682 H1678 0.949 . S
C1682 C1690 1.574 . S
C1682 C1698 1.368 . S
H1683 C1691 0.950 . S
H1684 C1689 0.950 . S
H1685 C1690 0.949 . S
H1686 C1692 0.950 . S
H1687 C1693 0.950 . S
H1688 C1694 0.949 . S
C1689 H1684 0.950 . S
C1689 C1691 1.327 . S
C1689 C1695 1.429 . S
C1690 C1682 1.574 . S
C1690 H1685 0.949 . S
C1690 C1696 1.368 . S
C1691 C1675 1.349 . S
C1691 H1683 0.950 . S
C1691 C1689 1.327 . S
C1692 C1680 1.349 . S
C1692 H1686 0.950 . S
C1692 C1693 1.327 . S
C1693 H1687 0.950 . S
C1693 C1692 1.327 . S
C1693 C1697 1.429 . S
C1694 C1677 1.574 . S
C1694 H1688 0.949 . S
C1694 C1698 1.368 . S
C1695 C1676 1.429 . S
C1695 C1689 1.429 . S
C1695 C1696 1.523 . S
C1696 C1677 1.368 . S
C1696 C1690 1.368 . S
C1696 C1695 1.523 . S
C1697 C1681 1.429 . S
C1697 C1693 1.429 . S
C1697 C1698 1.523 . S
C1698 C1682 1.368 . S
C1698 C1694 1.368 . S
C1698 C1697 1.523 . S
H1699 C1674 0.950 . S
H1700 C1676 0.950 . S
H1701 C1677 0.949 . S
H1702 C1679 0.950 . S
H1703 C1681 0.950 . S
C1704 C1705 1.349 . S
C1704 C1706 1.327 . S
C1704 H1729 0.950 . S
C1705 C1704 1.349 . S
C1705 C1721 1.349 . S
C1706 C1704 1.327 . S
C1706 C1725 1.429 . S
C1706 H1730 0.950 . S
C1707 C1724 1.574 . S
C1707 C1726 1.368 . S
C1707 H1731 0.949 . S
H1708 C1712 0.949 . S
C1709 C1710 1.349 . S
C1709 C1711 1.327 . S
C1709 H1732 0.950 . S
C1710 C1709 1.349 . S
C1710 C1722 1.349 . S
C1711 C1709 1.327 . S
C1711 C1727 1.429 . S
C1711 H1733 0.950 . S
C1712 H1708 0.949 . S
C1712 C1720 1.574 . S
C1712 C1728 1.368 . S
H1713 C1721 0.950 . S
H1714 C1719 0.950 . S
H1715 C1720 0.949 . S
H1716 C1722 0.950 . S
H1717 C1723 0.950 . S
H1718 C1724 0.949 . S
C1719 H1714 0.950 . S
C1719 C1721 1.327 . S
C1719 C1725 1.429 . S
C1720 C1712 1.574 . S
C1720 H1715 0.949 . S
C1720 C1726 1.368 . S
C1721 C1705 1.349 . S
C1721 H1713 0.950 . S
C1721 C1719 1.327 . S
C1722 C1710 1.349 . S
C1722 H1716 0.950 . S
C1722 C1723 1.327 . S
C1723 H1717 0.950 . S
C1723 C1722 1.327 . S
C1723 C1727 1.429 . S
C1724 C1707 1.574 . S
C1724 H1718 0.949 . S
C1724 C1728 1.368 . S
C1725 C1706 1.429 . S
C1725 C1719 1.429 . S
C1725 C1726 1.523 . S
C1726 C1707 1.368 . S
C1726 C1720 1.368 . S
C1726 C1725 1.523 . S
C1727 C1711 1.429 . S
C1727 C1723 1.429 . S
C1727 C1728 1.523 . S
C1728 C1712 1.368 . S
C1728 C1724 1.368 . S
C1728 C1727 1.523 . S
H1729 C1704 0.950 . S
H1730 C1706 0.950 . S
H1731 C1707 0.949 . S
H1732 C1709 0.950 . S
H1733 C1711 0.950 . S
C1734 C1735 1.349 . S
C1734 C1736 1.327 . S
C1734 H1759 0.950 . S
C1735 C1734 1.349 . S
C1735 C1751 1.349 . S
C1736 C1734 1.327 . S
C1736 C1755 1.429 . S
C1736 H1760 0.950 . S
C1737 C1754 1.574 . S
C1737 C1756 1.368 . S
C1737 H1761 0.949 . S
H1738 C1742 0.949 . S
C1739 C1740 1.349 . S
C1739 C1741 1.327 . S
C1739 H1762 0.950 . S
C1740 C1739 1.349 . S
C1740 C1752 1.349 . S
C1741 C1739 1.327 . S
C1741 C1757 1.429 . S
C1741 H1763 0.950 . S
C1742 H1738 0.949 . S
C1742 C1750 1.574 . S
C1742 C1758 1.368 . S
H1743 C1751 0.950 . S
H1744 C1749 0.950 . S
H1745 C1750 0.949 . S
H1746 C1752 0.950 . S
H1747 C1753 0.950 . S
H1748 C1754 0.949 . S
C1749 H1744 0.950 . S
C1749 C1751 1.327 . S
C1749 C1755 1.429 . S
C1750 C1742 1.574 . S
C1750 H1745 0.949 . S
C1750 C1756 1.368 . S
C1751 C1735 1.349 . S
C1751 H1743 0.950 . S
C1751 C1749 1.327 . S
C1752 C1740 1.349 . S
C1752 H1746 0.950 . S
C1752 C1753 1.327 . S
C1753 H1747 0.950 . S
C1753 C1752 1.327 . S
C1753 C1757 1.429 . S
C1754 C1737 1.574 . S
C1754 H1748 0.949 . S
C1754 C1758 1.368 . S
C1755 C1736 1.429 . S
C1755 C1749 1.429 . S
C1755 C1756 1.523 . S
C1756 C1737 1.368 . S
C1756 C1750 1.368 . S
C1756 C1755 1.523 . S
C1757 C1741 1.429 . S
C1757 C1753 1.429 . S
C1757 C1758 1.523 . S
C1758 C1742 1.368 . S
C1758 C1754 1.368 . S
C1758 C1757 1.523 . S
H1759 C1734 0.950 . S
H1760 C1736 0.950 . S
H1761 C1737 0.949 . S
H1762 C1739 0.950 . S
H1763 C1741 0.950 . S
C1764 C1765 1.349 . S
C1764 C1766 1.327 . S
C1764 H1789 0.950 . S
C1765 C1764 1.349 . S
C1765 C1781 1.349 . S
C1766 C1764 1.327 . S
C1766 C1785 1.429 . S
C1766 H1790 0.950 . S
C1767 C1784 1.574 . S
C1767 C1786 1.368 . S
C1767 H1791 0.949 . S
H1768 C1772 0.949 . S
C1769 C1770 1.349 . S
C1769 C1771 1.327 . S
C1769 H1792 0.950 . S
C1770 C1769 1.349 . S
C1770 C1782 1.349 . S
C1771 C1769 1.327 . S
C1771 C1787 1.429 . S
C1771 H1793 0.950 . S
C1772 H1768 0.949 . S
C1772 C1780 1.574 . S
C1772 C1788 1.368 . S
H1773 C1781 0.950 . S
H1774 C1779 0.950 . S
H1775 C1780 0.949 . S
H1776 C1782 0.950 . S
H1777 C1783 0.950 . S
H1778 C1784 0.949 . S
C1779 H1774 0.950 . S
C1779 C1781 1.327 . S
C1779 C1785 1.429 . S
C1780 C1772 1.574 . S
C1780 H1775 0.949 . S
C1780 C1786 1.368 . S
C1781 C1765 1.349 . S
C1781 H1773 0.950 . S
C1781 C1779 1.327 . S
C1782 C1770 1.349 . S
C1782 H1776 0.950 . S
C1782 C1783 1.327 . S
C1783 H1777 0.950 . S
C1783 C1782 1.327 . S
C1783 C1787 1.429 . S
C1784 C1767 1.574 . S
C1784 H1778 0.949 . S
C1784 C1788 1.368 . S
C1785 C1766 1.429 . S
C1785 C1779 1.429 . S
C1785 C1786 1.523 . S
C1786 C1767 1.368 . S
C1786 C1780 1.368 . S
C1786 C1785 1.523 . S
C1787 C1771 1.429 . S
C1787 C1783 1.429 . S
C1787 C1788 1.523 . S
C1788 C1772 1.368 . S
C1788 C1784 1.368 . S
C1788 C1787 1.523 . S
H1789 C1764 0.950 . S
H1790 C1766 0.950 . S
H1791 C1767 0.949 . S
H1792 C1769 0.950 . S
H1793 C1771 0.950 . S
C1794 C1795 1.349 . S
C1794 C1796 1.327 . S
C1794 H1819 0.950 . S
C1795 C1794 1.349 . S
C1795 C1811 1.349 . S
C1796 C1794 1.327 . S
C1796 C1815 1.429 . S
C1796 H1820 0.950 . S
C1797 C1814 1.574 . S
C1797 C1816 1.368 . S
C1797 H1821 0.949 . S
H1798 C1802 0.949 . S
C1799 C1800 1.349 . S
C1799 C1801 1.327 . S
C1799 H1822 0.950 . S
C1800 C1799 1.349 . S
C1800 C1812 1.349 . S
C1801 C1799 1.327 . S
C1801 C1817 1.429 . S
C1801 H1823 0.950 . S
C1802 H1798 0.949 . S
C1802 C1810 1.574 . S
C1802 C1818 1.368 . S
H1803 C1811 0.950 . S
H1804 C1809 0.950 . S
H1805 C1810 0.949 . S
H1806 C1812 0.950 . S
H1807 C1813 0.950 . S
H1808 C1814 0.949 . S
C1809 H1804 0.950 . S
C1809 C1811 1.327 . S
C1809 C1815 1.429 . S
C1810 C1802 1.574 . S
C1810 H1805 0.949 . S
C1810 C1816 1.368 . S
C1811 C1795 1.349 . S
C1811 H1803 0.950 . S
C1811 C1809 1.327 . S
C1812 C1800 1.349 . S
C1812 H1806 0.950 . S
C1812 C1813 1.327 . S
C1813 H1807 0.950 . S
C1813 C1812 1.327 . S
C1813 C1817 1.429 . S
C1814 C1797 1.574 . S
C1814 H1808 0.949 . S
C1814 C1818 1.368 . S
C1815 C1796 1.429 . S
C1815 C1809 1.429 . S
C1815 C1816 1.523 . S
C1816 C1797 1.368 . S
C1816 C1810 1.368 . S
C1816 C1815 1.523 . S
C1817 C1801 1.429 . S
C1817 C1813 1.429 . S
C1817 C1818 1.523 . S
C1818 C1802 1.368 . S
C1818 C1814 1.368 . S
C1818 C1817 1.523 . S
H1819 C1794 0.950 . S
H1820 C1796 0.950 . S
H1821 C1797 0.949 . S
H1822 C1799 0.950 . S
H1823 C1801 0.950 . S
C1824 C1825 1.349 . S
C1824 C1826 1.327 . S
C1824 H1849 0.950 . S
C1825 C1824 1.349 . S
C1825 C1841 1.349 . S
C1826 C1824 1.327 . S
C1826 C1845 1.429 . S
C1826 H1850 0.950 . S
C1827 C1844 1.574 . S
C1827 C1846 1.368 . S
C1827 H1851 0.949 . S
H1828 C1832 0.949 . S
C1829 C1830 1.349 . S
C1829 C1831 1.327 . S
C1829 H1852 0.950 . S
C1830 C1829 1.349 . S
C1830 C1842 1.349 . S
C1831 C1829 1.327 . S
C1831 C1847 1.429 . S
C1831 H1853 0.950 . S
C1832 H1828 0.949 . S
C1832 C1840 1.574 . S
C1832 C1848 1.368 . S
H1833 C1841 0.950 . S
H1834 C1839 0.950 . S
H1835 C1840 0.949 . S
H1836 C1842 0.950 . S
H1837 C1843 0.950 . S
H1838 C1844 0.949 . S
C1839 H1834 0.950 . S
C1839 C1841 1.327 . S
C1839 C1845 1.429 . S
C1840 C1832 1.574 . S
C1840 H1835 0.949 . S
C1840 C1846 1.368 . S
C1841 C1825 1.349 . S
C1841 H1833 0.950 . S
C1841 C1839 1.327 . S
C1842 C1830 1.349 . S
C1842 H1836 0.950 . S
C1842 C1843 1.327 . S
C1843 H1837 0.950 . S
C1843 C1842 1.327 . S
C1843 C1847 1.429 . S
C1844 C1827 1.574 . S
C1844 H1838 0.949 . S
C1844 C1848 1.368 . S
C1845 C1826 1.429 . S
C1845 C1839 1.429 . S
C1845 C1846 1.523 . S
C1846 C1827 1.368 . S
C1846 C1840 1.368 . S
C1846 C1845 1.523 . S
C1847 C1831 1.429 . S
C1847 C1843 1.429 . S
C1847 C1848 1.523 . S
C1848 C1832 1.368 . S
C1848 C1844 1.368 . S
C1848 C1847 1.523 . S
H1849 C1824 0.950 . S
H1850 C1826 0.950 . S
H1851 C1827 0.949 . S
H1852 C1829 0.950 . S
H1853 C1831 0.950 . S
C1854 C1855 1.349 . S
C1854 C1856 1.327 . S
C1854 H1879 0.950 . S
C1855 C1854 1.349 . S
C1855 C1871 1.349 . S
C1856 C1854 1.327 . S
C1856 C1875 1.429 . S
C1856 H1880 0.950 . S
C1857 C1874 1.574 . S
C1857 C1876 1.368 . S
C1857 H1881 0.949 . S
H1858 C1862 0.949 . S
C1859 C1860 1.349 . S
C1859 C1861 1.327 . S
C1859 H1882 0.950 . S
C1860 C1859 1.349 . S
C1860 C1872 1.349 . S
C1861 C1859 1.327 . S
C1861 C1877 1.429 . S
C1861 H1883 0.950 . S
C1862 H1858 0.949 . S
C1862 C1870 1.574 . S
C1862 C1878 1.368 . S
H1863 C1871 0.950 . S
H1864 C1869 0.950 . S
H1865 C1870 0.949 . S
H1866 C1872 0.950 . S
H1867 C1873 0.950 . S
H1868 C1874 0.949 . S
C1869 H1864 0.950 . S
C1869 C1871 1.327 . S
C1869 C1875 1.429 . S
C1870 C1862 1.574 . S
C1870 H1865 0.949 . S
C1870 C1876 1.368 . S
C1871 C1855 1.349 . S
C1871 H1863 0.950 . S
C1871 C1869 1.327 . S
C1872 C1860 1.349 . S
C1872 H1866 0.950 . S
C1872 C1873 1.327 . S
C1873 H1867 0.950 . S
C1873 C1872 1.327 . S
C1873 C1877 1.429 . S
C1874 C1857 1.574 . S
C1874 H1868 0.949 . S
C1874 C1878 1.368 . S
C1875 C1856 1.429 . S
C1875 C1869 1.429 . S
C1875 C1876 1.523 . S
C1876 C1857 1.368 . S
C1876 C1870 1.368 . S
C1876 C1875 1.523 . S
C1877 C1861 1.429 . S
C1877 C1873 1.429 . S
C1877 C1878 1.523 . S
C1878 C1862 1.368 . S
C1878 C1874 1.368 . S
C1878 C1877 1.523 . S
H1879 C1854 0.950 . S
H1880 C1856 0.950 . S
H1881 C1857 0.949 . S
H1882 C1859 0.950 . S
H1883 C1861 0.950 . S
C1884 C1885 1.349 . S
C1884 C1886 1.327 . S
C1884 H1909 0.950 . S
C1885 C1884 1.349 . S
C1885 C1901 1.349 . S
C1886 C1884 1.327 . S
C1886 C1905 1.429 . S
C1886 H1910 0.950 . S
C1887 C1904 1.574 . S
C1887 C1906 1.368 . S
C1887 H1911 0.949 . S
H1888 C1892 0.949 . S
C1889 C1890 1.349 . S
C1889 C1891 1.327 . S
C1889 H1912 0.950 . S
C1890 C1889 1.349 . S
C1890 C1902 1.349 . S
C1891 C1889 1.327 . S
C1891 C1907 1.429 . S
C1891 H1913 0.950 . S
C1892 H1888 0.949 . S
C1892 C1900 1.574 . S
C1892 C1908 1.368 . S
H1893 C1901 0.950 . S
H1894 C1899 0.950 . S
H1895 C1900 0.949 . S
H1896 C1902 0.950 . S
H1897 C1903 0.950 . S
H1898 C1904 0.949 . S
C1899 H1894 0.950 . S
C1899 C1901 1.327 . S
C1899 C1905 1.429 . S
C1900 C1892 1.574 . S
C1900 H1895 0.949 . S
C1900 C1906 1.368 . S
C1901 C1885 1.349 . S
C1901 H1893 0.950 . S
C1901 C1899 1.327 . S
C1902 C1890 1.349 . S
C1902 H1896 0.950 . S
C1902 C1903 1.327 . S
C1903 H1897 0.950 . S
C1903 C1902 1.327 . S
C1903 C1907 1.429 . S
C1904 C1887 1.574 . S
C1904 H1898 0.949 . S
C1904 C1908 1.368 . S
C1905 C1886 1.429 . S
C1905 C1899 1.429 . S
C1905 C1906 1.523 . S
C1906 C1887 1.368 . S
C1906 C1900 1.368 . S
C1906 C1905 1.523 . S
C1907 C1891 1.429 . S
C1907 C1903 1.429 . S
C1907 C1908 1.523 . S
C1908 C1892 1.368 . S
C1908 C1904 1.368 . S
C1908 C1907 1.523 . S
H1909 C1884 0.950 . S
H1910 C1886 0.950 . S
H1911 C1887 0.949 . S
H1912 C1889 0.950 . S
H1913 C1891 0.950 . S
C1914 C1915 1.349 . S
C1914 C1916 1.327 . S
C1914 H1939 0.950 . S
C1915 C1914 1.349 . S
C1915 C1931 1.349 . S
C1916 C1914 1.327 . S
C1916 C1935 1.429 . S
C1916 H1940 0.950 . S
C1917 C1934 1.574 . S
C1917 C1936 1.368 . S
C1917 H1941 0.949 . S
H1918 C1922 0.949 . S
C1919 C1920 1.349 . S
C1919 C1921 1.327 . S
C1919 H1942 0.950 . S
C1920 C1919 1.349 . S
C1920 C1932 1.349 . S
C1921 C1919 1.327 . S
C1921 C1937 1.429 . S
C1921 H1943 0.950 . S
C1922 H1918 0.949 . S
C1922 C1930 1.574 . S
C1922 C1938 1.368 . S
H1923 C1931 0.950 . S
H1924 C1929 0.950 . S
H1925 C1930 0.949 . S
H1926 C1932 0.950 . S
H1927 C1933 0.950 . S
H1928 C1934 0.949 . S
C1929 H1924 0.950 . S
C1929 C1931 1.327 . S
C1929 C1935 1.429 . S
C1930 C1922 1.574 . S
C1930 H1925 0.949 . S
C1930 C1936 1.368 . S
C1931 C1915 1.349 . S
C1931 H1923 0.950 . S
C1931 C1929 1.327 . S
C1932 C1920 1.349 . S
C1932 H1926 0.950 . S
C1932 C1933 1.327 . S
C1933 H1927 0.950 . S
C1933 C1932 1.327 . S
C1933 C1937 1.429 . S
C1934 C1917 1.574 . S
C1934 H1928 0.949 . S
C1934 C1938 1.368 . S
C1935 C1916 1.429 . S
C1935 C1929 1.429 . S
C1935 C1936 1.523 . S
C1936 C1917 1.368 . S
C1936 C1930 1.368 . S
C1936 C1935 1.523 . S
C1937 C1921 1.429 . S
C1937 C1933 1.429 . S
C1937 C1938 1.523 . S
C1938 C1922 1.368 . S
C1938 C1934 1.368 . S
C1938 C1937 1.523 . S
H1939 C1914 0.950 . S
H1940 C1916 0.950 . S
H1941 C1917 0.949 . S
H1942 C1919 0.950 . S
H1943 C1921 0.950 . S
C1944 C1945 1.349 . S
C1944 C1946 1.327 . S
C1944 H1969 0.950 . S
C1945 C1944 1.349 . S
C1945 C1961 1.349 . S
C1946 C1944 1.327 . S
C1946 C1965 1.429 . S
C1946 H1970 0.950 . S
C1947 C1964 1.574 . S
C1947 C1966 1.368 . S
C1947 H1971 0.949 . S
H1948 C1952 0.949 . S
C1949 C1950 1.349 . S
C1949 C1951 1.327 . S
C1949 H1972 0.950 . S
C1950 C1949 1.349 . S
C1950 C1962 1.349 . S
C1951 C1949 1.327 . S
C1951 C1967 1.429 . S
C1951 H1973 0.950 . S
C1952 H1948 0.949 . S
C1952 C1960 1.574 . S
C1952 C1968 1.368 . S
H1953 C1961 0.950 . S
H1954 C1959 0.950 . S
H1955 C1960 0.949 . S
H1956 C1962 0.950 . S
H1957 C1963 0.950 . S
H1958 C1964 0.949 . S
C1959 H1954 0.950 . S
C1959 C1961 1.327 . S
C1959 C1965 1.429 . S
C1960 C1952 1.574 . S
C1960 H1955 0.949 . S
C1960 C1966 1.368 . S
C1961 C1945 1.349 . S
C1961 H1953 0.950 . S
C1961 C1959 1.327 . S
C1962 C1950 1.349 . S
C1962 H1956 0.950 . S
C1962 C1963 1.327 . S
C1963 H1957 0.950 . S
C1963 C1962 1.327 . S
C1963 C1967 1.429 . S
C1964 C1947 1.574 . S
C1964 H1958 0.949 . S
C1964 C1968 1.368 . S
C1965 C1946 1.429 . S
C1965 C1959 1.429 . S
C1965 C1966 1.523 . S
C1966 C1947 1.368 . S
C1966 C1960 1.368 . S
C1966 C1965 1.523 . S
C1967 C1951 1.429 . S
C1967 C1963 1.429 . S
C1967 C1968 1.523 . S
C1968 C1952 1.368 . S
C1968 C1964 1.368 . S
C1968 C1967 1.523 . S
H1969 C1944 0.950 . S
H1970 C1946 0.950 . S
H1971 C1947 0.949 . S
H1972 C1949 0.950 . S
H1973 C1951 0.950 . S
C1974 C1975 1.349 . S
C1974 C1976 1.327 . S
C1974 H1999 0.950 . S
C1975 C1974 1.349 . S
C1975 C1991 1.349 . S
C1976 C1974 1.327 . S
C1976 C1995 1.429 . S
C1976 H2000 0.950 . S
C1977 C1994 1.574 . S
C1977 C1996 1.368 . S
C1977 H2001 0.949 . S
H1978 C1982 0.949 . S
C1979 C1980 1.349 . S
C1979 C1981 1.327 . S
C1979 H2002 0.950 . S
C1980 C1979 1.349 . S
C1980 C1992 1.349 . S
C1981 C1979 1.327 . S
C1981 C1997 1.429 . S
C1981 H2003 0.950 . S
C1982 H1978 0.949 . S
C1982 C1990 1.574 . S
C1982 C1998 1.368 . S
H1983 C1991 0.950 . S
H1984 C1989 0.950 . S
H1985 C1990 0.949 . S
H1986 C1992 0.950 . S
H1987 C1993 0.950 . S
H1988 C1994 0.949 . S
C1989 H1984 0.950 . S
C1989 C1991 1.327 . S
C1989 C1995 1.429 . S
C1990 C1982 1.574 . S
C1990 H1985 0.949 . S
C1990 C1996 1.368 . S
C1991 C1975 1.349 . S
C1991 H1983 0.950 . S
C1991 C1989 1.327 . S
C1992 C1980 1.349 . S
C1992 H1986 0.950 . S
C1992 C1993 1.327 . S
C1993 H1987 0.950 . S
C1993 C1992 1.327 . S
C1993 C1997 1.429 . S
C1994 C1977 1.574 . S
C1994 H1988 0.949 . S
C1994 C1998 1.368 . S
C1995 C1976 1.429 . S
C1995 C1989 1.429 . S
C1995 C1996 1.523 . S
C1996 C1977 1.368 . S
C1996 C1990 1.368 . S
C1996 C1995 1.523 . S
C1997 C1981 1.429 . S
C1997 C1993 1.429 . S
C1997 C1998 1.523 . S
C1998 C1982 1.368 . S
C1998 C1994 1.368 . S
C1998 C1997 1.523 . S
H1999 C1974 0.950 . S
H2000 C1976 0.950 . S
H2001 C1977 0.949 . S
H2002 C1979 0.950 . S
H2003 C1981 0.950 . S
C2004 C2005 1.349 . S
C2004 C2006 1.327 . S
C2004 H2029 0.950 . S
C2005 C2004 1.349 . S
C2005 C2021 1.349 . S
C2006 C2004 1.327 . S
C2006 C2025 1.429 . S
C2006 H2030 0.950 . S
C2007 C2024 1.574 . S
C2007 C2026 1.368 . S
C2007 H2031 0.949 . S
H2008 C2012 0.949 . S
C2009 C2010 1.349 . S
C2009 C2011 1.327 . S
C2009 H2032 0.950 . S
C2010 C2009 1.349 . S
C2010 C2022 1.349 . S
C2011 C2009 1.327 . S
C2011 C2027 1.429 . S
C2011 H2033 0.950 . S
C2012 H2008 0.949 . S
C2012 C2020 1.574 . S
C2012 C2028 1.368 . S
H2013 C2021 0.950 . S
H2014 C2019 0.950 . S
H2015 C2020 0.949 . S
H2016 C2022 0.950 . S
H2017 C2023 0.950 . S
H2018 C2024 0.949 . S
C2019 H2014 0.950 . S
C2019 C2021 1.327 . S
C2019 C2025 1.429 . S
C2020 C2012 1.574 . S
C2020 H2015 0.949 . S
C2020 C2026 1.368 . S
C2021 C2005 1.349 . S
C2021 H2013 0.950 . S
C2021 C2019 1.327 . S
C2022 C2010 1.349 . S
C2022 H2016 0.950 . S
C2022 C2023 1.327 . S
C2023 H2017 0.950 . S
C2023 C2022 1.327 . S
C2023 C2027 1.429 . S
C2024 C2007 1.574 . S
C2024 H2018 0.949 . S
C2024 C2028 1.368 . S
C2025 C2006 1.429 . S
C2025 C2019 1.429 . S
C2025 C2026 1.523 . S
C2026 C2007 1.368 . S
C2026 C2020 1.368 . S
C2026 C2025 1.523 . S
C2027 C2011 1.429 . S
C2027 C2023 1.429 . S
C2027 C2028 1.523 . S
C2028 C2012 1.368 . S
C2028 C2024 1.368 . S
C2028 C2027 1.523 . S
H2029 C2004 0.950 . S
H2030 C2006 0.950 . S
H2031 C2007 0.949 . S
H2032 C2009 0.950 . S
H2033 C2011 0.950 . S
C2034 C2035 1.349 . S
C2034 C2036 1.327 . S
C2034 H2059 0.950 . S
C2035 C2034 1.349 . S
C2035 C2051 1.349 . S
C2036 C2034 1.327 . S
C2036 C2055 1.429 . S
C2036 H2060 0.950 . S
C2037 C2054 1.574 . S
C2037 C2056 1.368 . S
C2037 H2061 0.949 . S
H2038 C2042 0.949 . S
C2039 C2040 1.349 . S
C2039 C2041 1.327 . S
C2039 H2062 0.950 . S
C2040 C2039 1.349 . S
C2040 C2052 1.349 . S
C2041 C2039 1.327 . S
C2041 C2057 1.429 . S
C2041 H2063 0.950 . S
C2042 H2038 0.949 . S
C2042 C2050 1.574 . S
C2042 C2058 1.368 . S
H2043 C2051 0.950 . S
H2044 C2049 0.950 . S
H2045 C2050 0.949 . S
H2046 C2052 0.950 . S
H2047 C2053 0.950 . S
H2048 C2054 0.949 . S
C2049 H2044 0.950 . S
C2049 C2051 1.327 . S
C2049 C2055 1.429 . S
C2050 C2042 1.574 . S
C2050 H2045 0.949 . S
C2050 C2056 1.368 . S
C2051 C2035 1.349 . S
C2051 H2043 0.950 . S
C2051 C2049 1.327 . S
C2052 C2040 1.349 . S
C2052 H2046 0.950 . S
C2052 C2053 1.327 . S
C2053 H2047 0.950 . S
C2053 C2052 1.327 . S
C2053 C2057 1.429 . S
C2054 C2037 1.574 . S
C2054 H2048 0.949 . S
C2054 C2058 1.368 . S
C2055 C2036 1.429 . S
C2055 C2049 1.429 . S
C2055 C2056 1.523 . S
C2056 C2037 1.368 . S
C2056 C2050 1.368 . S
C2056 C2055 1.523 . S
C2057 C2041 1.429 . S
C2057 C2053 1.429 . S
C2057 C2058 1.523 . S
C2058 C2042 1.368 . S
C2058 C2054 1.368 . S
C2058 C2057 1.523 . S
H2059 C2034 0.950 . S
H2060 C2036 0.950 . S
H2061 C2037 0.949 . S
H2062 C2039 0.950 . S
H2063 C2041 0.950 . S
C2064 C2065 1.349 . S
C2064 C2066 1.327 . S
C2064 H2089 0.950 . S
C2065 C2064 1.349 . S
C2065 C2081 1.349 . S
C2066 C2064 1.327 . S
C2066 C2085 1.429 . S
C2066 H2090 0.950 . S
C2067 C2084 1.574 . S
C2067 C2086 1.368 . S
C2067 H2091 0.949 . S
H2068 C2072 0.949 . S
C2069 C2070 1.349 . S
C2069 C2071 1.327 . S
C2069 H2092 0.950 . S
C2070 C2069 1.349 . S
C2070 C2082 1.349 . S
C2071 C2069 1.327 . S
C2071 C2087 1.429 . S
C2071 H2093 0.950 . S
C2072 H2068 0.949 . S
C2072 C2080 1.574 . S
C2072 C2088 1.368 . S
H2073 C2081 0.950 . S
H2074 C2079 0.950 . S
H2075 C2080 0.949 . S
H2076 C2082 0.950 . S
H2077 C2083 0.950 . S
H2078 C2084 0.949 . S
C2079 H2074 0.950 . S
C2079 C2081 1.327 . S
C2079 C2085 1.429 . S
C2080 C2072 1.574 . S
C2080 H2075 0.949 . S
C2080 C2086 1.368 . S
C2081 C2065 1.349 . S
C2081 H2073 0.950 . S
C2081 C2079 1.327 . S
C2082 C2070 1.349 . S
C2082 H2076 0.950 . S
C2082 C2083 1.327 . S
C2083 H2077 0.950 . S
C2083 C2082 1.327 . S
C2083 C2087 1.429 . S
C2084 C2067 1.574 . S
C2084 H2078 0.949 . S
C2084 C2088 1.368 . S
C2085 C2066 1.429 . S
C2085 C2079 1.429 . S
C2085 C2086 1.523 . S
C2086 C2067 1.368 . S
C2086 C2080 1.368 . S
C2086 C2085 1.523 . S
C2087 C2071 1.429 . S
C2087 C2083 1.429 . S
C2087 C2088 1.523 . S
C2088 C2072 1.368 . S
C2088 C2084 1.368 . S
C2088 C2087 1.523 . S
H2089 C2064 0.950 . S
H2090 C2066 0.950 . S
H2091 C2067 0.949 . S
H2092 C2069 0.950 . S
H2093 C2071 0.950 . S
C2094 C2095 1.349 . S
C2094 C2096 1.327 . S
C2094 H2119 0.950 . S
C2095 C2094 1.349 . S
C2095 C2111 1.349 . S
C2096 C2094 1.327 . S
C2096 C2115 1.429 . S
C2096 H2120 0.950 . S
C2097 C2114 1.574 . S
C2097 C2116 1.368 . S
C2097 H2121 0.949 . S
H2098 C2102 0.949 . S
C2099 C2100 1.349 . S
C2099 C2101 1.327 . S
C2099 H2122 0.950 . S
C2100 C2099 1.349 . S
C2100 C2112 1.349 . S
C2101 C2099 1.327 . S
C2101 C2117 1.429 . S
C2101 H2123 0.950 . S
C2102 H2098 0.949 . S
C2102 C2110 1.574 . S
C2102 C2118 1.368 . S
H2103 C2111 0.950 . S
H2104 C2109 0.950 . S
H2105 C2110 0.949 . S
H2106 C2112 0.950 . S
H2107 C2113 0.950 . S
H2108 C2114 0.949 . S
C2109 H2104 0.950 . S
C2109 C2111 1.327 . S
C2109 C2115 1.429 . S
C2110 C2102 1.574 . S
C2110 H2105 0.949 . S
C2110 C2116 1.368 . S
C2111 C2095 1.349 . S
C2111 H2103 0.950 . S
C2111 C2109 1.327 . S
C2112 C2100 1.349 . S
C2112 H2106 0.950 . S
C2112 C2113 1.327 . S
C2113 H2107 0.950 . S
C2113 C2112 1.327 . S
C2113 C2117 1.429 . S
C2114 C2097 1.574 . S
C2114 H2108 0.949 . S
C2114 C2118 1.368 . S
C2115 C2096 1.429 . S
C2115 C2109 1.429 . S
C2115 C2116 1.523 . S
C2116 C2097 1.368 . S
C2116 C2110 1.368 . S
C2116 C2115 1.523 . S
C2117 C2101 1.429 . S
C2117 C2113 1.429 . S
C2117 C2118 1.523 . S
C2118 C2102 1.368 . S
C2118 C2114 1.368 . S
C2118 C2117 1.523 . S
H2119 C2094 0.950 . S
H2120 C2096 0.950 . S
H2121 C2097 0.949 . S
H2122 C2099 0.950 . S
H2123 C2101 0.950 . S
C2124 C2125 1.349 . S
C2124 C2126 1.327 . S
C2124 H2149 0.950 . S
C2125 C2124 1.349 . S
C2125 C2141 1.349 . S
C2126 C2124 1.327 . S
C2126 C2145 1.429 . S
C2126 H2150 0.950 . S
C2127 C2144 1.574 . S
C2127 C2146 1.368 . S
C2127 H2151 0.949 . S
H2128 C2132 0.949 . S
C2129 C2130 1.349 . S
C2129 C2131 1.327 . S
C2129 H2152 0.950 . S
C2130 C2129 1.349 . S
C2130 C2142 1.349 . S
C2131 C2129 1.327 . S
C2131 C2147 1.429 . S
C2131 H2153 0.950 . S
C2132 H2128 0.949 . S
C2132 C2140 1.574 . S
C2132 C2148 1.368 . S
H2133 C2141 0.950 . S
H2134 C2139 0.950 . S
H2135 C2140 0.949 . S
H2136 C2142 0.950 . S
H2137 C2143 0.950 . S
H2138 C2144 0.949 . S
C2139 H2134 0.950 . S
C2139 C2141 1.327 . S
C2139 C2145 1.429 . S
C2140 C2132 1.574 . S
C2140 H2135 0.949 . S
C2140 C2146 1.368 . S
C2141 C2125 1.349 . S
C2141 H2133 0.950 . S
C2141 C2139 1.327 . S
C2142 C2130 1.349 . S
C2142 H2136 0.950 . S
C2142 C2143 1.327 . S
C2143 H2137 0.950 . S
C2143 C2142 1.327 . S
C2143 C2147 1.429 . S
C2144 C2127 1.574 . S
C2144 H2138 0.949 . S
C2144 C2148 1.368 . S
C2145 C2126 1.429 . S
C2145 C2139 1.429 . S
C2145 C2146 1.523 . S
C2146 C2127 1.368 . S
C2146 C2140 1.368 . S
C2146 C2145 1.523 . S
C2147 C2131 1.429 . S
C2147 C2143 1.429 . S
C2147 C2148 1.523 . S
C2148 C2132 1.368 . S
C2148 C2144 1.368 . S
C2148 C2147 1.523 . S
H2149 C2124 0.950 . S
H2150 C2126 0.950 . S
H2151 C2127 0.949 . S
H2152 C2129 0.950 . S
H2153 C2131 0.950 . S
C2154 C2155 1.349 . S
C2154 C2156 1.327 . S
C2154 H2179 0.950 . S
C2155 C2154 1.349 . S
C2155 C2171 1.349 . S
C2156 C2154 1.327 . S
C2156 C2175 1.429 . S
C2156 H2180 0.950 . S
C2157 C2174 1.574 . S
C2157 C2176 1.368 . S
C2157 H2181 0.949 . S
H2158 C2162 0.949 . S
C2159 C2160 1.349 . S
C2159 C2161 1.327 . S
C2159 H2182 0.950 . S
C2160 C2159 1.349 . S
C2160 C2172 1.349 . S
C2161 C2159 1.327 . S
C2161 C2177 1.429 . S
C2161 H2183 0.950 . S
C2162 H2158 0.949 . S
C2162 C2170 1.574 . S
C2162 C2178 1.368 . S
H2163 C2171 0.950 . S
H2164 C2169 0.950 . S
H2165 C2170 0.949 . S
H2166 C2172 0.950 . S
H2167 C2173 0.950 . S
H2168 C2174 0.949 . S
C2169 H2164 0.950 . S
C2169 C2171 1.327 . S
C2169 C2175 1.429 . S
C2170 C2162 1.574 . S
C2170 H2165 0.949 . S
C2170 C2176 1.368 . S
C2171 C2155 1.349 . S
C2171 H2163 0.950 . S
C2171 C2169 1.327 . S
C2172 C2160 1.349 . S
C2172 H2166 0.950 . S
C2172 C2173 1.327 . S
C2173 H2167 0.950 . S
C2173 C2172 1.327 . S
C2173 C2177 1.429 . S
C2174 C2157 1.574 . S
C2174 H2168 0.949 . S
C2174 C2178 1.368 . S
C2175 C2156 1.429 . S
C2175 C2169 1.429 . S
C2175 C2176 1.523 . S
C2176 C2157 1.368 . S
C2176 C2170 1.368 . S
C2176 C2175 1.523 . S
C2177 C2161 1.429 . S
C2177 C2173 1.429 . S
C2177 C2178 1.523 . S
C2178 C2162 1.368 . S
C2178 C2174 1.368 . S
C2178 C2177 1.523 . S
H2179 C2154 0.950 . S
H2180 C2156 0.950 . S
H2181 C2157 0.949 . S
H2182 C2159 0.950 . S
H2183 C2161 0.950 . S
C2184 C2185 1.349 . S
C2184 C2186 1.327 . S
C2184 H2209 0.950 . S
C2185 C2184 1.349 . S
C2185 C2201 1.349 . S
C2186 C2184 1.327 . S
C2186 C2205 1.429 . S
C2186 H2210 0.950 . S
C2187 C2204 1.574 . S
C2187 C2206 1.368 . S
C2187 H2211 0.949 . S
H2188 C2192 0.949 . S
C2189 C2190 1.349 . S
C2189 C2191 1.327 . S
C2189 H2212 0.950 . S
C2190 C2189 1.349 . S
C2190 C2202 1.349 . S
C2191 C2189 1.327 . S
C2191 C2207 1.429 . S
C2191 H2213 0.950 . S
C2192 H2188 0.949 . S
C2192 C2200 1.574 . S
C2192 C2208 1.368 . S
H2193 C2201 0.950 . S
H2194 C2199 0.950 . S
H2195 C2200 0.949 . S
H2196 C2202 0.950 . S
H2197 C2203 0.950 . S
H2198 C2204 0.949 . S
C2199 H2194 0.950 . S
C2199 C2201 1.327 . S
C2199 C2205 1.429 . S
C2200 C2192 1.574 . S
C2200 H2195 0.949 . S
C2200 C2206 1.368 . S
C2201 C2185 1.349 . S
C2201 H2193 0.950 . S
C2201 C2199 1.327 . S
C2202 C2190 1.349 . S
C2202 H2196 0.950 . S
C2202 C2203 1.327 . S
C2203 H2197 0.950 . S
C2203 C2202 1.327 . S
C2203 C2207 1.429 . S
C2204 C2187 1.574 . S
C2204 H2198 0.949 . S
C2204 C2208 1.368 . S
C2205 C2186 1.429 . S
C2205 C2199 1.429 . S
C2205 C2206 1.523 . S
C2206 C2187 1.368 . S
C2206 C2200 1.368 . S
C2206 C2205 1.523 . S
C2207 C2191 1.429 . S
C2207 C2203 1.429 . S
C2207 C2208 1.523 . S
C2208 C2192 1.368 . S
C2208 C2204 1.368 . S
C2208 C2207 1.523 . S
H2209 C2184 0.950 . S
H2210 C2186 0.950 . S
H2211 C2187 0.949 . S
H2212 C2189 0.950 . S
H2213 C2191 0.950 . S
C2214 C2215 1.349 . S
C2214 C2216 1.327 . S
C2214 H2239 0.950 . S
C2215 C2214 1.349 . S
C2215 C2231 1.349 . S
C2216 C2214 1.327 . S
C2216 C2235 1.429 . S
C2216 H2240 0.950 . S
C2217 C2234 1.574 . S
C2217 C2236 1.368 . S
C2217 H2241 0.949 . S
H2218 C2222 0.949 . S
C2219 C2220 1.349 . S
C2219 C2221 1.327 . S
C2219 H2242 0.950 . S
C2220 C2219 1.349 . S
C2220 C2232 1.349 . S
C2221 C2219 1.327 . S
C2221 C2237 1.429 . S
C2221 H2243 0.950 . S
C2222 H2218 0.949 . S
C2222 C2230 1.574 . S
C2222 C2238 1.368 . S
H2223 C2231 0.950 . S
H2224 C2229 0.950 . S
H2225 C2230 0.949 . S
H2226 C2232 0.950 . S
H2227 C2233 0.950 . S
H2228 C2234 0.949 . S
C2229 H2224 0.950 . S
C2229 C2231 1.327 . S
C2229 C2235 1.429 . S
C2230 C2222 1.574 . S
C2230 H2225 0.949 . S
C2230 C2236 1.368 . S
C2231 C2215 1.349 . S
C2231 H2223 0.950 . S
C2231 C2229 1.327 . S
C2232 C2220 1.349 . S
C2232 H2226 0.950 . S
C2232 C2233 1.327 . S
C2233 H2227 0.950 . S
C2233 C2232 1.327 . S
C2233 C2237 1.429 . S
C2234 C2217 1.574 . S
C2234 H2228 0.949 . S
C2234 C2238 1.368 . S
C2235 C2216 1.429 . S
C2235 C2229 1.429 . S
C2235 C2236 1.523 . S
C2236 C2217 1.368 . S
C2236 C2230 1.368 . S
C2236 C2235 1.523 . S
C2237 C2221 1.429 . S
C2237 C2233 1.429 . S
C2237 C2238 1.523 . S
C2238 C2222 1.368 . S
C2238 C2234 1.368 . S
C2238 C2237 1.523 . S
H2239 C2214 0.950 . S
H2240 C2216 0.950 . S
H2241 C2217 0.949 . S
H2242 C2219 0.950 . S
H2243 C2221 0.950 . S
C2244 C2245 1.349 . S
C2244 C2246 1.327 . S
C2244 H2269 0.950 . S
C2245 C2244 1.349 . S
C2245 C2261 1.349 . S
C2246 C2244 1.327 . S
C2246 C2265 1.429 . S
C2246 H2270 0.950 . S
C2247 C2264 1.574 . S
C2247 C2266 1.368 . S
C2247 H2271 0.949 . S
H2248 C2252 0.949 . S
C2249 C2250 1.349 . S
C2249 C2251 1.327 . S
C2249 H2272 0.950 . S
C2250 C2249 1.349 . S
C2250 C2262 1.349 . S
C2251 C2249 1.327 . S
C2251 C2267 1.429 . S
C2251 H2273 0.950 . S
C2252 H2248 0.949 . S
C2252 C2260 1.574 . S
C2252 C2268 1.368 . S
H2253 C2261 0.950 . S
H2254 C2259 0.950 . S
H2255 C2260 0.949 . S
H2256 C2262 0.950 . S
H2257 C2263 0.950 . S
H2258 C2264 0.949 . S
C2259 H2254 0.950 . S
C2259 C2261 1.327 . S
C2259 C2265 1.429 . S
C2260 C2252 1.574 . S
C2260 H2255 0.949 . S
C2260 C2266 1.368 . S
C2261 C2245 1.349 . S
C2261 H2253 0.950 . S
C2261 C2259 1.327 . S
C2262 C2250 1.349 . S
C2262 H2256 0.950 . S
C2262 C2263 1.327 . S
C2263 H2257 0.950 . S
C2263 C2262 1.327 . S
C2263 C2267 1.429 . S
C2264 C2247 1.574 . S
C2264 H2258 0.949 . S
C2264 C2268 1.368 . S
C2265 C2246 1.429 . S
C2265 C2259 1.429 . S
C2265 C2266 1.523 . S
C2266 C2247 1.368 . S
C2266 C2260 1.368 . S
C2266 C2265 1.523 . S
C2267 C2251 1.429 . S
C2267 C2263 1.429 . S
C2267 C2268 1.523 . S
C2268 C2252 1.368 . S
C2268 C2264 1.368 . S
C2268 C2267 1.523 . S
H2269 C2244 0.950 . S
H2270 C2246 0.950 . S
H2271 C2247 0.949 . S
H2272 C2249 0.950 . S
H2273 C2251 0.950 . S
C2274 C2275 1.349 . S
C2274 C2276 1.327 . S
C2274 H2299 0.950 . S
C2275 C2274 1.349 . S
C2275 C2291 1.349 . S
C2276 C2274 1.327 . S
C2276 C2295 1.429 . S
C2276 H2300 0.950 . S
C2277 C2294 1.574 . S
C2277 C2296 1.368 . S
C2277 H2301 0.949 . S
H2278 C2282 0.949 . S
C2279 C2280 1.349 . S
C2279 C2281 1.327 . S
C2279 H2302 0.950 . S
C2280 C2279 1.349 . S
C2280 C2292 1.349 . S
C2281 C2279 1.327 . S
C2281 C2297 1.429 . S
C2281 H2303 0.950 . S
C2282 H2278 0.949 . S
C2282 C2290 1.574 . S
C2282 C2298 1.368 . S
H2283 C2291 0.950 . S
H2284 C2289 0.950 . S
H2285 C2290 0.949 . S
H2286 C2292 0.950 . S
H2287 C2293 0.950 . S
H2288 C2294 0.949 . S
C2289 H2284 0.950 . S
C2289 C2291 1.327 . S
C2289 C2295 1.429 . S
C2290 C2282 1.574 . S
C2290 H2285 0.949 . S
C2290 C2296 1.368 . S
C2291 C2275 1.349 . S
C2291 H2283 0.950 . S
C2291 C2289 1.327 . S
C2292 C2280 1.349 . S
C2292 H2286 0.950 . S
C2292 C2293 1.327 . S
C2293 H2287 0.950 . S
C2293 C2292 1.327 . S
C2293 C2297 1.429 . S
C2294 C2277 1.574 . S
C2294 H2288 0.949 . S
C2294 C2298 1.368 . S
C2295 C2276 1.429 . S
C2295 C2289 1.429 . S
C2295 C2296 1.523 . S
C2296 C2277 1.368 . S
C2296 C2290 1.368 . S
C2296 C2295 1.523 . S
C2297 C2281 1.429 . S
C2297 C2293 1.429 . S
C2297 C2298 1.523 . S
C2298 C2282 1.368 . S
C2298 C2294 1.368 . S
C2298 C2297 1.523 . S
H2299 C2274 0.950 . S
H2300 C2276 0.950 . S
H2301 C2277 0.949 . S
H2302 C2279 0.950 . S
H2303 C2281 0.950 . S
C870 C689 1.595 . S
C865 C74 1.581 . S
C900 C694 1.310 . S
C895 C153 1.235 . S
C930 C695 1.542 . S
C925 C231 1.532 . S
C955 C310 0.796 . S
C960 C699 0.551 . S
C985 C394 1.233 . S
C990 C702 1.310 . S
C1020 C703 1.542 . S
C1015 C494 1.525 . S
C1045 C573 0.796 . S
C1050 C680 0.548 . S
C1075 C651 1.584 . S
C1080 C696 1.598 . S
C1110 C734 2.338 . S
C1105 C56 2.419 . S
C1135 C151 1.525 . S
C1140 C760 1.486 . S
C1170 C712 1.292 . S
C1165 C237 1.228 . S
C1200 C767 1.496 . S
C1195 C326 1.486 . S
C1225 C410 1.516 . S
C1230 C721 1.514 . S
C1260 C763 2.325 . S
C1255 C476 2.405 . S
C1285 C571 1.545 . S
C1290 C727 1.509 . S
C1315 C657 1.222 . S
C1320 C758 1.289 . S
C1345 C58 1.222 . S
C1350 C766 1.278 . S
C1375 C392 1.525 . S
C1380 C753 1.489 . S
C1410 C731 1.292 . S
C1405 C478 1.232 . S
C1440 C759 1.495 . S
C1435 C567 1.495 . S
C1465 C655 2.422 . S
C1470 C726 2.342 . S
C1495 C235 2.406 . S
C1500 C744 2.324 . S
C1530 C735 1.507 . S
C1525 C308 1.544 . S
C1555 C147 1.516 . S
C1560 C728 1.506 . S
C1585 C662 1.550 . S
C1590 C790 1.537 . S
C1615 C405 1.202 . S
C1620 C785 1.280 . S
C1650 C799 1.472 . S
C1645 C483 1.507 . S
C1680 C776 0.417 . S
C1675 C562 0.817 . S
C1705 C142 1.202 . S
C1710 C792 1.276 . S
C1740 C791 1.472 . S
C1735 C242 1.501 . S
C1765 C321 0.816 . S
C1770 C795 0.418 . S
C1795 C63 1.550 . S
C1800 C798 1.533 . S
C1825 C644 2.429 . S
C1830 C824 2.380 . S
C1860 C840 1.471 . S
C1855 C403 1.541 . S
C1885 C489 1.236 . S
C1890 C822 1.305 . S
C1915 C578 1.512 . S
C1920 C855 1.509 . S
C1950 C831 1.485 . S
C1945 C158 1.502 . S
C1975 C224 2.443 . S
C1980 C849 2.376 . S
C2010 C827 1.459 . S
C2005 C319 1.526 . S
C2040 C862 1.313 . S
C2035 C69 1.245 . S
C2070 C854 1.313 . S
C2065 C646 1.250 . S
C2095 C140 1.540 . S
C2100 C859 1.470 . S
C2125 C226 1.236 . S
C2130 C830 1.311 . S
C2160 C863 1.510 . S
C2155 C315 1.513 . S
C2185 C67 2.429 . S
C2190 C817 2.374 . S
C2215 C487 2.443 . S
C2220 C856 2.372 . S
C2250 C808 1.459 . S
C2245 C560 1.530 . S
C2280 C823 1.485 . S
C2275 C399 1.497 . S
