# Generated by pormake.
# Topology gar, (4,6)-cn, num edge types: 1
# Building blocks:
#     Node 0, Type 0, BuildingBlock: UXUYUI_clean_sbu_0, # of connection points: 4
#     Node 1, Type 0, BuildingBlock: UXUYUI_clean_sbu_0, # of connection points: 4
#     Node 2, Type 0, BuildingBlock: UXUYUI_clean_sbu_0, # of connection points: 4
#     Node 3, Type 0, BuildingBlock: UXUYUI_clean_sbu_0, # of connection points: 4
#     Node 4, Type 0, BuildingBlock: UXUYUI_clean_sbu_0, # of connection points: 4
#     Node 5, Type 0, BuildingBlock: UXUYUI_clean_sbu_0, # of connection points: 4
#     Node 6, Type 0, BuildingBlock: UXUYUI_clean_sbu_0, # of connection points: 4
#     Node 7, Type 0, BuildingBlock: UXUYUI_clean_sbu_0, # of connection points: 4
#     Node 8, Type 0, BuildingBlock: UXUYUI_clean_sbu_0, # of connection points: 4
#     Node 9, Type 0, BuildingBlock: UXUYUI_clean_sbu_0, # of connection points: 4
#     Node 10, Type 0, BuildingBlock: UXUYUI_clean_sbu_0, # of connection points: 4
#     Node 11, Type 0, BuildingBlock: UXUYUI_clean_sbu_0, # of connection points: 4
#     Node 12, Type 0, BuildingBlock: UXUYUI_clean_sbu_0, # of connection points: 4
#     Node 13, Type 0, BuildingBlock: UXUYUI_clean_sbu_0, # of connection points: 4
#     Node 14, Type 0, BuildingBlock: UXUYUI_clean_sbu_0, # of connection points: 4
#     Node 15, Type 0, BuildingBlock: UXUYUI_clean_sbu_0, # of connection points: 4
#     Node 16, Type 0, BuildingBlock: UXUYUI_clean_sbu_0, # of connection points: 4
#     Node 17, Type 0, BuildingBlock: UXUYUI_clean_sbu_0, # of connection points: 4
#     Node 18, Type 0, BuildingBlock: UXUYUI_clean_sbu_0, # of connection points: 4
#     Node 19, Type 0, BuildingBlock: UXUYUI_clean_sbu_0, # of connection points: 4
#     Node 20, Type 0, BuildingBlock: UXUYUI_clean_sbu_0, # of connection points: 4
#     Node 21, Type 0, BuildingBlock: UXUYUI_clean_sbu_0, # of connection points: 4
#     Node 22, Type 0, BuildingBlock: UXUYUI_clean_sbu_0, # of connection points: 4
#     Node 23, Type 0, BuildingBlock: UXUYUI_clean_sbu_0, # of connection points: 4
#     Node 24, Type 1, BuildingBlock: PAMTUU_clean_sbu_0, # of connection points: 6
#     Node 25, Type 1, BuildingBlock: PAMTUU_clean_sbu_0, # of connection points: 6
#     Node 26, Type 1, BuildingBlock: PAMTUU_clean_sbu_0, # of connection points: 6
#     Node 27, Type 1, BuildingBlock: PAMTUU_clean_sbu_0, # of connection points: 6
#     Node 28, Type 1, BuildingBlock: PAMTUU_clean_sbu_0, # of connection points: 6
#     Node 29, Type 1, BuildingBlock: PAMTUU_clean_sbu_0, # of connection points: 6
#     Node 30, Type 1, BuildingBlock: PAMTUU_clean_sbu_0, # of connection points: 6
#     Node 31, Type 1, BuildingBlock: PAMTUU_clean_sbu_0, # of connection points: 6
#     Node 32, Type 1, BuildingBlock: PAMTUU_clean_sbu_0, # of connection points: 6
#     Node 33, Type 1, BuildingBlock: PAMTUU_clean_sbu_0, # of connection points: 6
#     Node 34, Type 1, BuildingBlock: PAMTUU_clean_sbu_0, # of connection points: 6
#     Node 35, Type 1, BuildingBlock: PAMTUU_clean_sbu_0, # of connection points: 6
#     Node 36, Type 1, BuildingBlock: PAMTUU_clean_sbu_0, # of connection points: 6
#     Node 37, Type 1, BuildingBlock: PAMTUU_clean_sbu_0, # of connection points: 6
#     Node 38, Type 1, BuildingBlock: PAMTUU_clean_sbu_0, # of connection points: 6
#     Node 39, Type 1, BuildingBlock: PAMTUU_clean_sbu_0, # of connection points: 6
#     Edge 40, Type (0, 1), None
#     Edge 41, Type (0, 1), None
#     Edge 42, Type (0, 1), None
#     Edge 43, Type (0, 1), None
#     Edge 44, Type (0, 1), None
#     Edge 45, Type (0, 1), None
#     Edge 46, Type (0, 1), None
#     Edge 47, Type (0, 1), None
#     Edge 48, Type (0, 1), None
#     Edge 49, Type (0, 1), None
#     Edge 50, Type (0, 1), None
#     Edge 51, Type (0, 1), None
#     Edge 52, Type (0, 1), None
#     Edge 53, Type (0, 1), None
#     Edge 54, Type (0, 1), None
#     Edge 55, Type (0, 1), None
#     Edge 56, Type (0, 1), None
#     Edge 57, Type (0, 1), None
#     Edge 58, Type (0, 1), None
#     Edge 59, Type (0, 1), None
#     Edge 60, Type (0, 1), None
#     Edge 61, Type (0, 1), None
#     Edge 62, Type (0, 1), None
#     Edge 63, Type (0, 1), None
#     Edge 64, Type (0, 1), None
#     Edge 65, Type (0, 1), None
#     Edge 66, Type (0, 1), None
#     Edge 67, Type (0, 1), None
#     Edge 68, Type (0, 1), None
#     Edge 69, Type (0, 1), None
#     Edge 70, Type (0, 1), None
#     Edge 71, Type (0, 1), None
#     Edge 72, Type (0, 1), None
#     Edge 73, Type (0, 1), None
#     Edge 74, Type (0, 1), None
#     Edge 75, Type (0, 1), None
#     Edge 76, Type (0, 1), None
#     Edge 77, Type (0, 1), None
#     Edge 78, Type (0, 1), None
#     Edge 79, Type (0, 1), None
#     Edge 80, Type (0, 1), None
#     Edge 81, Type (0, 1), None
#     Edge 82, Type (0, 1), None
#     Edge 83, Type (0, 1), None
#     Edge 84, Type (0, 1), None
#     Edge 85, Type (0, 1), None
#     Edge 86, Type (0, 1), None
#     Edge 87, Type (0, 1), None
#     Edge 88, Type (0, 1), None
#     Edge 89, Type (0, 1), None
#     Edge 90, Type (0, 1), None
#     Edge 91, Type (0, 1), None
#     Edge 92, Type (0, 1), None
#     Edge 93, Type (0, 1), None
#     Edge 94, Type (0, 1), None
#     Edge 95, Type (0, 1), None
#     Edge 96, Type (0, 1), None
#     Edge 97, Type (0, 1), None
#     Edge 98, Type (0, 1), None
#     Edge 99, Type (0, 1), None
#     Edge 100, Type (0, 1), None
#     Edge 101, Type (0, 1), None
#     Edge 102, Type (0, 1), None
#     Edge 103, Type (0, 1), None
#     Edge 104, Type (0, 1), None
#     Edge 105, Type (0, 1), None
#     Edge 106, Type (0, 1), None
#     Edge 107, Type (0, 1), None
#     Edge 108, Type (0, 1), None
#     Edge 109, Type (0, 1), None
#     Edge 110, Type (0, 1), None
#     Edge 111, Type (0, 1), None
#     Edge 112, Type (0, 1), None
#     Edge 113, Type (0, 1), None
#     Edge 114, Type (0, 1), None
#     Edge 115, Type (0, 1), None
#     Edge 116, Type (0, 1), None
#     Edge 117, Type (0, 1), None
#     Edge 118, Type (0, 1), None
#     Edge 119, Type (0, 1), None
#     Edge 120, Type (0, 1), None
#     Edge 121, Type (0, 1), None
#     Edge 122, Type (0, 1), None
#     Edge 123, Type (0, 1), None
#     Edge 124, Type (0, 1), None
#     Edge 125, Type (0, 1), None
#     Edge 126, Type (0, 1), None
#     Edge 127, Type (0, 1), None
#     Edge 128, Type (0, 1), None
#     Edge 129, Type (0, 1), None
#     Edge 130, Type (0, 1), None
#     Edge 131, Type (0, 1), None
#     Edge 132, Type (0, 1), None
#     Edge 133, Type (0, 1), None
#     Edge 134, Type (0, 1), None
#     Edge 135, Type (0, 1), None
# Relax obj value: 0.275
# Max RMSD: 0.381
# Mean RMSD: 0.222
data_MOF--net-gar--node1-UXUYUI_clean_sbu_0--node2-PAMTUU_clean_sbu_0--edge1-none
_symmetry_space_group_name_H-M    P1
_symmetry_Int_Tables_number       1
_symmetry_cell_setting            triclinic
loop_
_symmetry_equiv_pos_as_xyz
'x, y, z'
_cell_length_a     43.453109
_cell_length_b     39.918341
_cell_length_c     42.560913
_cell_angle_alpha  94.560065
_cell_angle_beta   94.93746
_cell_angle_gamma 109.06926
loop_
_atom_site_label
_atom_site_type_symbol
_atom_site_fract_x
_atom_site_fract_y
_atom_site_fract_z
_atom_type_partial_charge
Li0 Li 0.04689 0.30765 0.39579 0.0
Li1 Li 0.09087 0.34996 0.44395 0.0
Li2 Li 0.1227 0.31545 0.39762 0.0
Li3 Li 0.08188 0.27447 0.44158 0.0
C4 C 0.09585 0.38257 0.38384 0.0
N5 N 0.10354 0.44782 0.36202 0.0
C6 C 0.07084 0.39733 0.38489 0.0
C7 C 0.12479 0.40097 0.37176 0.0
C8 C 0.07518 0.43035 0.3737 0.0
C9 C 0.12821 0.43396 0.36084 0.0
C10 C 0.02976 0.31157 0.46565 0.0
C11 C 1.0088 0.30514 0.51626 0.0
N12 N 0.99081 0.3263 0.50896 0.0
C13 C 1.01111 0.33325 0.45861 0.0
C14 C 0.02868 0.29739 0.49466 0.0
C15 C 0.99155 0.34038 0.48084 0.0
C16 C 0.96606 0.28615 0.38004 0.0
N17 N 0.99557 0.30822 0.37206 0.0
C18 C 0.96063 0.3345 0.33886 0.0
C19 C 0.99215 0.33205 0.35118 0.0
C20 C 0.92981 0.31225 0.34681 0.0
C21 C 0.93409 0.28755 0.36794 0.0
H22 H 0.96673 0.26703 0.39651 0.0
H23 H 1.01405 0.3502 0.34376 0.0
C24 C 0.10247 0.43422 0.46036 0.0
N25 N 0.09142 0.40161 0.47201 0.0
C26 C 0.1 0.46662 0.47595 0.0
C27 C 0.07625 0.43411 0.51717 0.0
C28 C 0.07862 0.4021 0.50057 0.0
C29 C 0.0866 0.46788 0.50521 0.0
H30 H 0.11336 0.43576 0.43843 0.0
H31 H 0.06962 0.37737 0.51094 0.0
C32 C 0.06988 0.23926 0.37268 0.0
N33 N 0.05798 0.17604 0.33465 0.0
C34 C 0.09302 0.22184 0.37383 0.0
C35 C 0.04061 0.2245 0.35234 0.0
C36 C 0.08651 0.18982 0.35444 0.0
C37 C 0.03508 0.1925 0.33323 0.0
C38 C 0.14744 0.32308 0.47305 0.0
C39 C 0.17831 0.32136 0.46819 0.0
C40 C 0.13956 0.3273 0.50392 0.0
C41 C 0.20099 0.32417 0.49447 0.0
C42 C 0.16287 0.32981 0.52956 0.0
N43 N 0.19285 0.32828 0.52434 0.0
C44 C 0.20099 0.34644 0.37792 0.0
C45 C 0.17518 0.28851 0.35445 0.0
C46 C 0.23142 0.34753 0.36465 0.0
N47 N 0.17223 0.31715 0.37326 0.0
C48 C 0.20518 0.28859 0.34087 0.0
C49 C 0.23527 0.31835 0.34525 0.0
H50 H 0.20115 0.36998 0.3925 0.0
H51 H 0.1541 0.26439 0.34956 0.0
C52 C 0.07158 0.19025 0.45199 0.0
N53 N 0.07904 0.22417 0.46773 0.0
C54 C 0.07054 0.15899 0.46793 0.0
C55 C 0.08437 0.19552 0.51713 0.0
C56 C 0.08539 0.22616 0.50035 0.0
C57 C 0.07686 0.16022 0.50157 0.0
H58 H 0.06627 0.18664 0.42642 0.0
H59 H 0.09156 0.25189 0.51418 0.0
O60 O 0.092 0.35022 0.39452 0.0
O61 O 0.04941 0.30476 0.44441 0.0
O62 O 0.07611 0.27105 0.39087 0.0
O63 O 0.12495 0.32059 0.44769 0.0
H64 H 0.04851 0.38361 0.39462 0.0
H65 H 0.14438 0.38985 0.37084 0.0
H66 H 0.05608 0.44216 0.37445 0.0
H67 H 0.15047 0.44852 0.35144 0.0
H68 H 1.00772 0.2944 0.53884 0.0
H69 H 1.01195 0.34467 0.43634 0.0
H70 H 0.04314 0.28071 0.50046 0.0
H71 H 0.97703 0.35718 0.47578 0.0
H72 H 0.96069 0.35428 0.32287 0.0
H73 H 0.91251 0.26911 0.37571 0.0
H74 H 0.10892 0.49088 0.46485 0.0
H75 H 0.06577 0.43206 0.5394 0.0
H76 H 0.11573 0.23295 0.38957 0.0
H77 H 1.0225 0.23778 0.35117 0.0
H78 H 0.10416 0.17597 0.35507 0.0
H79 H 1.01267 0.18082 0.31717 0.0
H80 H 0.18469 0.31798 0.4444 0.0
H81 H 0.11568 0.32857 0.50799 0.0
H82 H 0.22502 0.32296 0.49112 0.0
H83 H 0.15713 0.33301 0.55361 0.0
H84 H 0.25232 0.37182 0.37008 0.0
H85 H 0.20455 0.26454 0.32676 0.0
H86 H 0.06465 0.13363 0.45351 0.0
H87 H 0.08985 0.19987 0.54272 0.0
Li88 Li 0.08173 0.86214 0.66992 0.0
Li89 Li 0.11508 0.82864 0.71583 0.0
Li90 Li 0.07215 0.78675 0.66725 0.0
Li91 Li 0.03989 0.82091 0.71451 0.0
C92 C 0.13744 0.82739 0.65013 0.0
N93 N 0.1856 0.8187 0.61526 0.0
C94 C 0.15467 0.80493 0.65911 0.0
C95 C 0.14471 0.84548 0.62348 0.0
C96 C 0.17894 0.8009 0.64118 0.0
C97 C 0.16914 0.8407 0.60613 0.0
C98 C 0.09975 0.89587 0.74128 0.0
C99 C 0.10197 0.93016 0.79117 0.0
N100 N 0.1291 0.9559 0.78423 0.0
C101 C 0.1276 0.92264 0.73458 0.0
C102 C 0.08682 0.89953 0.76978 0.0
C103 C 0.14211 0.95281 0.75663 0.0
C104 C 0.08362 0.94333 0.657 0.0
N105 N 0.08458 0.91155 0.64232 0.0
C106 C 0.08796 0.94154 0.59259 0.0
C107 C 0.08668 0.91124 0.61003 0.0
C108 C 0.08691 0.97465 0.60705 0.0
C109 C 0.08461 0.97408 0.64033 0.0
H110 H 0.08183 0.94543 0.68224 0.0
H111 H 0.0872 0.88711 0.59692 0.0
C112 C 0.1691 0.80183 0.75873 0.0
N113 N 0.16604 0.8283 0.74076 0.0
C114 C 0.2005 0.79966 0.7718 0.0
C115 C 0.22758 0.85198 0.74925 0.0
C116 C 0.19575 0.85313 0.73636 0.0
C117 C 0.23156 0.82481 0.76758 0.0
H118 H 0.14701 0.78132 0.76311 0.0
H119 H 0.1954 0.87438 0.72221 0.0
C120 C 1.01735 0.81872 0.63884 0.0
N121 N 0.97699 0.82652 0.58828 0.0
C122 C 0.98922 0.827 0.64415 0.0
C123 C 1.02499 0.8144 0.60789 0.0
C124 C 0.96907 0.83076 0.61822 0.0
C125 C 1.00425 0.81847 0.58262 0.0
C126 C 0.06503 0.75187 0.72441 0.0
C127 C 0.08879 0.73574 0.72066 0.0
C128 C 0.03558 0.73297 0.73539 0.0
C129 C 0.0827 0.70085 0.72804 0.0
C130 C 0.03043 0.69812 0.74254 0.0
N131 N 0.0539 0.68295 0.73873 0.0
C132 C 0.09107 0.73652 0.61417 0.0
C133 C 0.05417 0.7021 0.64535 0.0
C134 C 0.09361 0.70472 0.59737 0.0
N135 N 0.07175 0.73572 0.63841 0.0
C136 C 0.05599 0.66971 0.62905 0.0
C137 C 0.07614 0.66974 0.60432 0.0
H138 H 0.10524 0.76209 0.60749 0.0
H139 H 0.03855 0.69977 0.66409 0.0
C140 C 0.98702 0.8489 0.75665 0.0
N141 N 0.99059 0.8193 0.73986 0.0
C142 C 0.95748 0.84882 0.77121 0.0
C143 C 0.93275 0.78808 0.75223 0.0
C144 C 0.96276 0.78912 0.73808 0.0
C145 C 0.92837 0.81815 0.76981 0.0
H146 H 1.00722 0.87384 0.75903 0.0
H147 H 0.96303 0.76475 0.72522 0.0
O148 O 0.11359 0.83158 0.66739 0.0
O149 O 0.08594 0.86561 0.72054 0.0
O150 O 0.03796 0.81607 0.66389 0.0
O151 O 0.07033 0.7858 0.71687 0.0
H152 H 0.14918 0.79057 0.67957 0.0
H153 H 0.1316 0.86298 0.61627 0.0
H154 H 0.19243 0.78357 0.64785 0.0
H155 H 0.17501 0.85449 0.5854 0.0
H156 H 0.09225 0.93335 0.81334 0.0
H157 H 0.138 0.92 0.71267 0.0
H158 H 0.06551 0.87875 0.77544 0.0
H159 H 0.16376 0.97371 0.75182 0.0
H160 H 0.08942 0.9386 0.56731 0.0
H161 H 0.08348 0.99767 0.65393 0.0
H162 H 0.20017 0.77773 0.78533 0.0
H163 H 0.24935 0.87267 0.74434 0.0
H164 H 0.98314 0.83063 0.66804 0.0
H165 H 0.04686 0.80828 0.6035 0.0
H166 H 0.9472 0.83715 0.62189 0.0
H167 H 1.00988 0.81533 0.55852 0.0
H168 H 0.11151 0.74988 0.71179 0.0
H169 H 1.0169 0.74509 0.73829 0.0
H170 H 0.1008 0.68795 0.72514 0.0
H171 H 1.00777 0.68312 0.75106 0.0
H172 H 0.10956 0.70783 0.57883 0.0
H173 H 0.04151 0.64446 0.63619 0.0
H174 H 0.95764 0.87364 0.78358 0.0
H175 H 0.91262 0.76301 0.74908 0.0
Li176 Li 0.54613 0.80681 0.89598 0.0
Li177 Li 0.58982 0.84842 0.94478 0.0
Li178 Li 0.62211 0.81485 0.89814 0.0
Li179 Li 0.58108 0.77317 0.94165 0.0
C180 C 0.59526 0.88258 0.88599 0.0
N181 N 0.60329 0.94927 0.8672 0.0
C182 C 0.57021 0.89719 0.88776 0.0
C183 C 0.62441 0.90184 0.8747 0.0
C184 C 0.57474 0.93096 0.87813 0.0
C185 C 0.628 0.93555 0.86531 0.0
C186 C 0.52815 0.80912 0.96555 0.0
C187 C 0.50623 0.80115 0.01561 0.0
N188 N 0.48788 0.82193 1.00832 0.0
C189 C 0.50911 0.8304 0.95851 0.0
C190 C 0.52678 0.79436 0.99429 0.0
C191 C 0.48888 0.83656 0.98046 0.0
C192 C 0.46517 0.78513 0.87925 0.0
N193 N 0.49482 0.80754 0.87188 0.0
C194 C 0.46014 0.83422 0.83873 0.0
C195 C 0.4916 0.8318 0.85136 0.0
C196 C 0.42915 0.81161 0.84604 0.0
C197 C 0.43326 0.78656 0.86689 0.0
H198 H 0.46564 0.76567 0.89543 0.0
H199 H 0.51362 0.85032 0.84448 0.0
C200 C 0.60322 0.93251 0.96316 0.0
N201 N 0.59024 0.89951 0.97362 0.0
C202 C 0.60103 0.96489 0.97898 0.0
C203 C 0.57337 0.93153 0.018 0.0
C204 C 0.57566 0.89953 1.00122 0.0
C205 C 0.58578 0.96575 1.00722 0.0
H206 H 0.61542 0.93435 0.94198 0.0
H207 H 0.56516 0.87447 0.01067 0.0
C208 C 0.56987 0.73916 0.87208 0.0
N209 N 0.55926 0.6773 0.83254 0.0
C210 C 0.59295 0.72167 0.87353 0.0
C211 C 0.54129 0.72513 0.85071 0.0
C212 C 0.58711 0.69035 0.85333 0.0
C213 C 0.5364 0.6938 0.83086 0.0
C214 C 0.64652 0.82162 0.97353 0.0
C215 C 0.67742 0.82002 0.96864 0.0
C216 C 0.6386 0.82561 1.00442 0.0
C217 C 0.70008 0.8227 0.99489 0.0
C218 C 0.66189 0.828 0.03004 0.0
N219 N 0.69191 0.82659 0.02478 0.0
C220 C 0.70062 0.84593 0.8786 0.0
C221 C 0.67475 0.78817 0.85478 0.0
C222 C 0.73108 0.84706 0.86533 0.0
N223 N 0.6718 0.8167 0.87377 0.0
C224 C 0.70478 0.78829 0.84121 0.0
C225 C 0.73492 0.818 0.84575 0.0
H226 H 0.70081 0.86939 0.89331 0.0
H227 H 0.65364 0.76409 0.84974 0.0
C228 C 0.57151 0.68908 0.9519 0.0
N229 N 0.57841 0.7229 0.96767 0.0
C230 C 0.57061 0.6579 0.96789 0.0
C231 C 0.58347 0.69429 0.01712 0.0
C232 C 0.58436 0.72486 1.00032 0.0
C233 C 0.57653 0.65911 1.00156 0.0
H234 H 0.56658 0.68553 0.92631 0.0
H235 H 0.59009 0.75052 0.01415 0.0
O236 O 0.59128 0.8496 0.89535 0.0
O237 O 0.54836 0.80315 0.94454 0.0
O238 O 0.57555 0.77038 0.89095 0.0
O239 O 0.62406 0.81929 0.9482 0.0
H240 H 0.54769 0.88277 0.89685 0.0
H241 H 0.64404 0.89086 0.87325 0.0
H242 H 0.55561 0.94267 0.87946 0.0
H243 H 0.65042 0.95082 0.85653 0.0
H244 H 0.50492 0.78994 0.03798 0.0
H245 H 0.51015 0.84226 0.93645 0.0
H246 H 0.54151 0.77795 1.00007 0.0
H247 H 0.47406 0.85305 0.9754 0.0
H248 H 0.46038 0.85433 0.82303 0.0
H249 H 0.41157 0.76782 0.87421 0.0
H250 H 0.6116 0.9895 0.96881 0.0
H251 H 0.56138 0.92913 0.03938 0.0
H252 H 0.61514 0.73223 0.89006 0.0
H253 H 0.52324 0.73848 0.84931 0.0
H254 H 0.60473 0.67647 0.85413 0.0
H255 H 0.51451 0.68268 0.81404 0.0
H256 H 0.68383 0.81682 0.94484 0.0
H257 H 0.6147 0.82679 1.00852 0.0
H258 H 0.72414 0.82158 0.99151 0.0
H259 H 0.65613 0.83103 0.0541 0.0
H260 H 0.75201 0.8713 0.87091 0.0
H261 H 0.7041 0.76432 0.82695 0.0
H262 H 0.56518 0.63261 0.95348 0.0
H263 H 0.58861 0.69862 0.04274 0.0
Li264 Li 0.58218 0.36184 0.17045 0.0
Li265 Li 0.61575 0.3289 0.21673 0.0
Li266 Li 0.57271 0.28667 0.16828 0.0
Li267 Li 0.54058 0.32121 0.21534 0.0
C268 C 0.63568 0.32465 0.14893 0.0
N269 N 0.67818 0.31001 0.10965 0.0
C270 C 0.65295 0.30209 0.15748 0.0
C271 C 0.64001 0.33981 0.12047 0.0
C272 C 0.67433 0.29501 0.13728 0.0
C273 C 0.66163 0.33207 0.10091 0.0
C274 C 0.6002 0.39597 0.24207 0.0
C275 C 0.60267 0.42933 0.29253 0.0
N276 N 0.62932 0.45564 0.28548 0.0
C277 C 0.62755 0.42333 0.23526 0.0
C278 C 0.58762 0.39888 0.2709 0.0
C279 C 0.64194 0.45331 0.25754 0.0
C280 C 0.58422 0.44297 0.15744 0.0
N281 N 0.58484 0.41104 0.14272 0.0
C282 C 0.58765 0.44073 0.09286 0.0
C283 C 0.58645 0.41049 0.11035 0.0
C284 C 0.58697 0.47397 0.10736 0.0
C285 C 0.58512 0.47364 0.14071 0.0
H286 H 0.58279 0.44524 0.18273 0.0
H287 H 0.58659 0.38623 0.09721 0.0
C288 C 0.66977 0.30365 0.2615 0.0
N289 N 0.66672 0.3287 0.24179 0.0
C290 C 0.70116 0.30152 0.27464 0.0
C291 C 0.72829 0.3512 0.24879 0.0
C292 C 0.69645 0.35225 0.2358 0.0
C293 C 0.73223 0.32537 0.26881 0.0
H294 H 0.64768 0.28428 0.26734 0.0
H295 H 0.69611 0.37235 0.22029 0.0
C296 C 0.51807 0.31851 0.13947 0.0
N297 N 0.4782 0.3264 0.08854 0.0
C298 C 0.49014 0.32731 0.14451 0.0
C299 C 0.52576 0.31371 0.1086 0.0
C300 C 0.47024 0.33111 0.11841 0.0
C301 C 0.50527 0.31783 0.08314 0.0
C302 C 0.56752 0.25397 0.22857 0.0
C303 C 0.59198 0.23865 0.22585 0.0
C304 C 0.53947 0.23621 0.2423 0.0
C305 C 0.58803 0.20573 0.23709 0.0
C306 C 0.53644 0.20331 0.25323 0.0
N307 N 0.56059 0.18892 0.25045 0.0
C308 C 0.58672 0.2354 0.11216 0.0
C309 C 0.55936 0.20254 0.1504 0.0
C310 C 0.58902 0.20339 0.09543 0.0
N311 N 0.5722 0.23547 0.13979 0.0
C312 C 0.56149 0.17013 0.13459 0.0
C313 C 0.57664 0.16921 0.10629 0.0
H314 H 0.59721 0.26045 0.10268 0.0
H315 H 0.54734 0.20081 0.1717 0.0
C316 C 0.48767 0.34913 0.25731 0.0
N317 N 0.49123 0.31959 0.24043 0.0
C318 C 0.45803 0.34904 0.27165 0.0
C319 C 0.43323 0.2884 0.25232 0.0
C320 C 0.46334 0.28946 0.23836 0.0
C321 C 0.42884 0.31842 0.26994 0.0
H322 H 0.50795 0.37403 0.25991 0.0
H323 H 0.46365 0.26513 0.22543 0.0
O324 O 0.6143 0.33145 0.16818 0.0
O325 O 0.58655 0.36587 0.2211 0.0
O326 O 0.53847 0.31583 0.16469 0.0
O327 O 0.571 0.28623 0.21784 0.0
H328 H 0.6497 0.28998 0.17935 0.0
H329 H 0.62676 0.35726 0.11353 0.0
H330 H 0.68779 0.27751 0.14353 0.0
H331 H 0.6652 0.34357 0.07877 0.0
H332 H 0.59327 0.43196 0.31499 0.0
H333 H 0.63767 0.42128 0.21309 0.0
H334 H 0.56668 0.37767 0.27662 0.0
H335 H 0.66321 0.47467 0.25266 0.0
H336 H 0.58873 0.43761 0.06753 0.0
H337 H 0.58429 0.49736 0.15433 0.0
H338 H 0.70082 0.28073 0.28958 0.0
H339 H 0.75007 0.37083 0.24257 0.0
H340 H 0.48403 0.33132 0.16834 0.0
H341 H 0.54749 0.30719 0.10441 0.0
H342 H 0.44852 0.33791 0.12187 0.0
H343 H 0.51093 0.31433 0.0591 0.0
H344 H 0.61364 0.25191 0.21495 0.0
H345 H 0.52031 0.24775 0.24451 0.0
H346 H 0.60674 0.1935 0.2351 0.0
H347 H 0.51489 0.18922 0.26394 0.0
H348 H 0.60097 0.20575 0.07403 0.0
H349 H 0.55101 0.14557 0.14485 0.0
H350 H 0.45818 0.37381 0.28412 0.0
H351 H 0.41305 0.26337 0.24896 0.0
Li352 Li 0.13556 0.87642 0.12964 0.0
Li353 Li 0.17136 0.84995 0.17183 0.0
Li354 Li 0.12907 0.80734 0.12727 0.0
Li355 Li 0.10938 0.83782 0.1706 0.0
C356 C 0.1916 0.87147 0.1056 0.0
N357 N 0.23438 0.91671 0.07069 0.0
C358 C 0.21983 0.89795 0.12092 0.0
C359 C 0.18499 0.8681 0.07256 0.0
C360 C 0.24126 0.92042 0.10282 0.0
C361 C 0.2069 0.8913 0.05533 0.0
C362 C 0.13662 0.90495 0.19977 0.0
C363 C 0.13587 0.92655 0.25416 0.0
N364 N 0.11473 0.94333 0.24424 0.0
C365 C 0.11492 0.92241 0.19016 0.0
C366 C 0.1473 0.90709 0.23202 0.0
C367 C 0.10418 0.94169 0.21296 0.0
C368 C 0.09719 0.91709 0.09664 0.0
N369 N 0.12845 0.92069 0.10901 0.0
C370 C 0.14452 0.98386 0.1008 0.0
C371 C 0.15199 0.95377 0.11094 0.0
C372 C 0.11226 0.98098 0.08847 0.0
C373 C 0.08874 0.9464 0.08636 0.0
H374 H 0.07809 0.89146 0.09558 0.0
H375 H 0.17668 0.95739 0.12119 0.0
C376 C 0.23911 0.84901 0.19182 0.0
N377 N 0.21039 0.85002 0.2019 0.0
C378 C 0.26362 0.84345 0.21282 0.0
C379 C 0.22929 0.84023 0.25459 0.0
C380 C 0.20533 0.84551 0.23278 0.0
C381 C 0.25901 0.83868 0.24486 0.0
H382 H 0.24273 0.85129 0.16715 0.0
H383 H 0.18201 0.84459 0.2404 0.0
C384 C 0.06928 0.81376 0.10286 0.0
N385 N 1.01795 0.77321 0.05823 0.0
C386 C 0.04013 0.79206 0.11256 0.0
C387 C 0.07219 0.81524 0.07052 0.0
C388 C 1.01451 0.77159 0.0896 0.0
C389 C 0.04594 0.79452 0.04831 0.0
C390 C 0.12734 0.77076 0.17913 0.0
C391 C 0.09465 0.74862 0.17714 0.0
C392 C 0.1525 0.75665 0.18501 0.0
C393 C 0.08766 0.71254 0.18093 0.0
C394 C 0.14449 0.72043 0.1887 0.0
N395 N 0.11251 0.69931 0.18656 0.0
C396 C 0.14597 0.74338 0.10328 0.0
C397 C 0.08926 0.73363 0.09793 0.0
C398 C 0.1401 0.70658 0.09413 0.0
N399 N 0.12068 0.75653 0.10537 0.0
C400 C 0.08236 0.69693 0.08868 0.0
C401 C 0.10778 0.68233 0.08699 0.0
H402 H 0.17089 0.76113 0.11005 0.0
H403 H 0.0691 0.74322 0.10057 0.0
C404 C 0.05176 0.84692 0.19014 0.0
N405 N 0.07593 0.83333 0.19793 0.0
C406 C 1.02718 0.84467 0.2098 0.0
C407 C 0.05269 0.81428 0.2451 0.0
C408 C 0.07698 0.81747 0.2249 0.0
C409 C 1.02721 0.82793 0.23768 0.0
H410 H 0.05171 0.8597 0.16866 0.0
H411 H 0.09663 0.80712 0.23065 0.0
O412 O 0.17025 0.84934 0.1229 0.0
O413 O 0.14703 0.8856 0.17767 0.0
O414 O 0.09514 0.8328 0.12489 0.0
O415 O 0.13464 0.80583 0.17435 0.0
H416 H 0.2251 0.90114 0.14651 0.0
H417 H 0.16309 0.84786 0.0604 0.0
H418 H 0.26337 0.94075 0.11435 0.0
H419 H 0.20207 0.88911 0.02975 0.0
H420 H 0.14386 0.92836 0.27921 0.0
H421 H 0.10606 0.92072 0.16539 0.0
H422 H 0.1642 0.89393 0.23989 0.0
H423 H 0.08739 0.95526 0.20569 0.0
H424 H 0.16397 1.00944 0.10318 0.0
H425 H 0.0635 0.94191 0.07725 0.0
H426 H 0.2858 0.84227 0.20375 0.0
H427 H 0.22405 0.83635 0.27871 0.0
H428 H 0.03758 0.7904 0.1375 0.0
H429 H 0.09463 0.83195 0.0627 0.0
H430 H 0.99194 0.75433 0.09671 0.0
H431 H 0.04788 0.79522 0.02318 0.0
H432 H 0.07491 0.75909 0.17225 0.0
H433 H 0.17793 0.77338 0.18634 0.0
H434 H 0.06247 0.69502 0.17924 0.0
H435 H 0.16369 0.70908 0.19311 0.0
H436 H 0.16075 0.69714 0.09343 0.0
H437 H 0.05693 0.67996 0.08365 0.0
H438 H 1.00852 0.85622 0.20331 0.0
H439 H 0.05362 0.80073 0.26601 0.0
Li440 Li 0.53474 0.83485 0.48934 0.0
Li441 Li 0.49444 0.79173 0.4447 0.0
Li442 Li 0.53065 0.76382 0.48772 0.0
Li443 Li 0.55453 0.80351 0.44776 0.0
C444 C 0.48072 0.79533 0.51967 0.0
N445 N 0.45235 0.80631 0.57343 0.0
C446 C 0.45181 0.80365 0.51712 0.0
C447 C 0.49513 0.79243 0.54951 0.0
C448 C 0.43785 0.80911 0.54461 0.0
C449 C 0.48043 0.79815 0.57643 0.0
C450 C 0.51726 0.8629 0.43565 0.0
C451 C 0.51513 0.91085 0.40535 0.0
N452 N 0.49004 0.91419 0.42089 0.0
C453 C 0.49137 0.86677 0.45123 0.0
C454 C 0.52921 0.88507 0.41244 0.0
C455 C 0.47798 0.89286 0.44348 0.0
C456 C 0.56584 0.91135 0.49904 0.0
N457 N 0.54289 0.88527 0.51158 0.0
C458 C 0.53098 0.93152 0.54397 0.0
C459 C 0.52545 0.89498 0.5338 0.0
C460 C 0.55457 0.95893 0.53121 0.0
C461 C 0.57211 0.94785 0.50851 0.0
H462 H 0.57895 0.90387 0.48075 0.0
H463 H 0.50666 0.87455 0.54327 0.0
C464 C 0.42272 0.77856 0.41994 0.0
N465 N 0.45459 0.78903 0.41358 0.0
C466 C 0.39757 0.7823 0.39833 0.0
C467 C 0.43783 0.80735 0.36375 0.0
C468 C 0.46201 0.80283 0.38569 0.0
C469 C 0.40488 0.79739 0.36974 0.0
H470 H 0.41671 0.76804 0.44212 0.0
H471 H 0.4872 0.81178 0.38075 0.0
C472 C 0.60233 0.82042 0.49538 0.0
N473 N 0.66928 0.84093 0.49335 0.0
C474 C 0.61685 0.79508 0.48687 0.0
C475 C 0.622 0.85607 0.50366 0.0
C476 C 0.65065 0.80603 0.48554 0.0
C477 C 0.6558 0.86592 0.5025 0.0
C478 C 0.52399 0.73666 0.41387 0.0
C479 C 0.53177 0.70572 0.41741 0.0
C480 C 0.5217 0.74795 0.38379 0.0
C481 C 0.5374 0.68675 0.39076 0.0
C482 C 0.52753 0.72826 0.35772 0.0
N483 N 0.5352 0.69834 0.36172 0.0
C484 C 0.51726 0.6856 0.50235 0.0
C485 C 0.56769 0.72536 0.5273 0.0
C486 C 0.52512 0.65607 0.51322 0.0
N487 N 0.53854 0.71998 0.50899 0.0
C488 C 0.57665 0.69656 0.53823 0.0
C489 C 0.55557 0.66076 0.53118 0.0
H490 H 0.49426 0.6806 0.48769 0.0
H491 H 0.58478 0.75221 0.5331 0.0
C492 C 0.60306 0.84403 0.41221 0.0
N493 N 0.58973 0.81092 0.42123 0.0
C494 C 0.62878 0.85116 0.39334 0.0
C495 C 0.62725 0.79022 0.39401 0.0
C496 C 0.60152 0.78426 0.41268 0.0
C497 C 0.64121 0.82401 0.38398 0.0
H498 H 0.59397 0.86508 0.42002 0.0
H499 H 0.59152 0.75847 0.42089 0.0
O500 O 0.49459 0.78941 0.49307 0.0
O501 O 0.53054 0.83726 0.44277 0.0
O502 O 0.56902 0.81044 0.49525 0.0
O503 O 0.51859 0.75569 0.43974 0.0
H504 H 0.4402 0.80574 0.49418 0.0
H505 H 0.51744 0.78585 0.55181 0.0
H506 H 0.41545 0.81551 0.54301 0.0
H507 H 0.49131 0.79604 0.5997 0.0
H508 H 0.52412 0.92815 0.38742 0.0
H509 H 0.48175 0.84978 0.46912 0.0
H510 H 0.54895 0.88224 0.39984 0.0
H511 H 0.45797 0.89614 0.45541 0.0
H512 H 0.51668 0.93818 0.56154 0.0
H513 H 0.59055 0.96731 0.49766 0.0
H514 H 0.37271 0.77418 0.40442 0.0
H515 H 0.44516 0.81911 0.34234 0.0
H516 H 0.60201 0.76737 0.48032 0.0
H517 H 0.61134 0.87591 0.51104 0.0
H518 H 0.66201 0.78679 0.47811 0.0
H519 H 0.6713 0.89344 0.50877 0.0
H520 H 0.53381 0.69666 0.4405 0.0
H521 H 0.51609 0.77199 0.38069 0.0
H522 H 0.54364 0.66289 0.39318 0.0
H523 H 0.52607 0.73686 0.33433 0.0
H524 H 0.50753 0.62948 0.50686 0.0
H525 H 0.60028 0.70249 0.55208 0.0
H526 H 0.63919 0.87778 0.38661 0.0
H527 H 0.63594 0.76845 0.38731 0.0
Li528 Li 0.63477 0.37721 0.63181 0.0
Li529 Li 0.67138 0.34915 0.67197 0.0
Li530 Li 0.62903 0.3069 0.62958 0.0
Li531 Li 0.61031 0.33739 0.67319 0.0
C532 C 0.69805 0.36866 0.61432 0.0
N533 N 0.75771 0.40731 0.59628 0.0
C534 C 0.71055 0.40568 0.62184 0.0
C535 C 0.71588 0.35122 0.59775 0.0
C536 C 0.74078 0.42478 0.61248 0.0
C537 C 0.74603 0.37126 0.58884 0.0
C538 C 0.63872 0.40332 0.7038 0.0
C539 C 0.64143 0.42199 0.75956 0.0
N540 N 0.61888 0.43808 0.75271 0.0
C541 C 0.61577 0.42028 0.69728 0.0
C542 C 0.6518 0.40431 0.73515 0.0
C543 C 0.60597 0.43759 0.72234 0.0
C544 C 0.60055 0.4166 0.58977 0.0
N545 N 0.62662 0.42168 0.61237 0.0
C546 C 0.6362 0.48587 0.61514 0.0
C547 C 0.64433 0.45607 0.62487 0.0
C548 C 0.60921 0.48139 0.59209 0.0
C549 C 0.59167 0.44567 0.57934 0.0
H550 H 0.58573 0.38973 0.58012 0.0
H551 H 0.66447 0.4607 0.64333 0.0
C552 C 0.74169 0.35279 0.69032 0.0
N553 N 0.71197 0.3499 0.70038 0.0
C554 C 0.76702 0.34766 0.71065 0.0
C555 C 0.7315 0.33721 0.75169 0.0
C556 C 0.70682 0.3421 0.73058 0.0
C557 C 0.76223 0.33946 0.74197 0.0
H558 H 0.74564 0.35806 0.6662 0.0
H559 H 0.68292 0.33835 0.73816 0.0
C560 C 0.56848 0.31263 0.60656 0.0
N561 N 0.51642 0.2702 0.5635 0.0
C562 C 0.53966 0.29147 0.61725 0.0
C563 C 0.57072 0.31243 0.57399 0.0
C564 C 0.51364 0.27012 0.59509 0.0
C565 C 0.54411 0.29081 0.5526 0.0
C566 C 0.629 0.2701 0.68028 0.0
C567 C 0.59659 0.24767 0.67974 0.0
C568 C 0.65457 0.2562 0.684 0.0
C569 C 0.59027 0.21151 0.68279 0.0
C570 C 0.64722 0.21989 0.68701 0.0
N571 N 0.6155 0.19849 0.68631 0.0
C572 C 0.64538 0.24356 0.60306 0.0
C573 C 0.58871 0.23348 0.60058 0.0
C574 C 0.63936 0.20686 0.59335 0.0
N575 N 0.6202 0.25649 0.60682 0.0
C576 C 0.58164 0.19691 0.59075 0.0
C577 C 0.60699 0.18253 0.58734 0.0
H578 H 0.6704 0.26137 0.60896 0.0
H579 H 0.5687 0.24285 0.60474 0.0
C580 C 0.55312 0.34611 0.69335 0.0
N581 N 0.57741 0.33266 0.70101 0.0
C582 C 0.52831 0.34314 0.7128 0.0
C583 C 0.55392 0.31248 0.74774 0.0
C584 C 0.57847 0.3164 0.72774 0.0
C585 C 0.52822 0.32577 0.74031 0.0
H586 H 0.55305 0.35914 0.67202 0.0
H587 H 0.5982 0.30614 0.73334 0.0
O588 O 0.66822 0.34967 0.62274 0.0
O589 O 0.64789 0.38537 0.67962 0.0
O590 O 0.59476 0.3325 0.62784 0.0
O591 O 0.6356 0.30531 0.67628 0.0
H592 H 0.69701 0.41947 0.63475 0.0
H593 H 0.70645 0.32255 0.59175 0.0
H594 H 0.75077 0.45346 0.61803 0.0
H595 H 0.76011 0.35815 0.57597 0.0
H596 H 0.65129 0.42289 0.78395 0.0
H597 H 0.60514 0.41947 0.67318 0.0
H598 H 0.66975 0.39159 0.7406 0.0
H599 H 0.58796 0.45043 0.71765 0.0
H600 H 0.6509 0.51236 0.62606 0.0
H601 H 0.57067 0.43994 0.56162 0.0
H602 H 0.79006 0.34968 0.70167 0.0
H603 H 0.72607 0.33064 0.77525 0.0
H604 H 0.53765 0.29085 0.64235 0.0
H605 H 0.59296 0.32845 0.56537 0.0
H606 H 0.49131 0.25335 0.60299 0.0
H607 H 0.54554 0.29024 0.52732 0.0
H608 H 0.57652 0.25797 0.6765 0.0
H609 H 0.67977 0.27315 0.68415 0.0
H610 H 0.56529 0.19377 0.68219 0.0
H611 H 0.66673 0.20871 0.68974 0.0
H612 H 0.65996 0.19756 0.59133 0.0
H613 H 0.5562 0.17984 0.58672 0.0
H614 H 0.50948 0.35447 0.70635 0.0
H615 H 0.55476 0.29853 0.76842 0.0
Li616 Li 0.0363 0.33479 0.9894 0.0
Li617 Li 0.99747 0.29265 0.94308 0.0
Li618 Li 0.03265 0.26365 0.98634 0.0
Li619 Li 0.05755 0.3051 0.94824 0.0
C620 C 0.98087 0.29343 0.01717 0.0
N621 N 0.94998 0.30224 0.06972 0.0
C622 C 0.95126 0.30026 0.01363 0.0
C623 C 0.99469 0.29088 0.04738 0.0
C624 C 0.93604 0.30468 0.04051 0.0
C625 C 0.9787 0.29547 0.07368 0.0
C626 C 1.01976 0.36446 0.93691 0.0
C627 C 1.01805 0.41471 0.90968 0.0
N628 N 0.99193 0.41595 0.9246 0.0
C629 C 0.99285 0.36623 0.95189 0.0
C630 C 0.03245 0.38887 0.91556 0.0
C631 C 0.97915 0.39244 0.9454 0.0
C632 C 0.0676 0.41099 1.00098 0.0
N633 N 0.04385 0.38474 0.01249 0.0
C634 C 0.031 0.43074 0.04436 0.0
C635 C 1.02555 0.39423 0.03394 0.0
C636 C 0.05535 0.45831 0.03257 0.0
C637 C 0.07377 0.44741 0.01066 0.0
H638 H 0.08134 0.40372 0.9832 0.0
H639 H 1.00608 0.37368 0.04252 0.0
C640 C 0.9258 0.27666 0.91572 0.0
N641 N 0.9581 0.29013 0.91106 0.0
C642 C 0.90074 0.28005 0.89375 0.0
C643 C 0.94194 0.31089 0.86224 0.0
C644 C 0.96603 0.3066 0.88445 0.0
C645 C 0.90851 0.29791 0.86656 0.0
H646 H 0.91929 0.26386 0.93683 0.0
H647 H 0.99147 0.31775 0.8807 0.0
C648 C 0.10381 0.31901 0.99729 0.0
N649 N 0.17094 0.33643 0.99845 0.0
C650 C 0.11749 0.29237 0.99103 0.0
C651 C 0.12434 0.35444 1.00488 0.0
C652 C 0.15142 0.30175 0.99132 0.0
C653 C 0.15823 0.36272 1.00536 0.0
C654 C 0.02915 0.24126 0.91107 0.0
C655 C 0.03763 0.21041 0.91196 0.0
C656 C 0.02796 0.25599 0.88248 0.0
C657 C 0.04495 0.19494 0.88422 0.0
C658 C 0.03546 0.23976 0.85526 0.0
N659 N 0.04373 0.20982 0.85669 0.0
C660 C 1.02333 0.18467 0.9947 0.0
C661 C 0.06556 0.22489 0.03081 0.0
C662 C 0.0318 0.15531 1.00513 0.0
N663 N 0.04038 0.21928 1.00703 0.0
C664 C 0.07472 0.19625 0.042 0.0
C665 C 0.05824 0.16037 0.02902 0.0
H666 H 1.00344 0.17951 0.97586 0.0
H667 H 0.07952 0.25194 0.04082 0.0
C668 C 0.10592 0.34606 0.91268 0.0
N669 N 0.09383 0.31352 0.92315 0.0
C670 C 0.13161 0.35319 0.89379 0.0
C671 C 0.13273 0.29357 0.89761 0.0
C672 C 0.107 0.28759 0.91627 0.0
C673 C 0.14525 0.32665 0.88589 0.0
H674 H 0.09571 0.36657 0.91915 0.0
H675 H 0.09775 0.26222 0.92543 0.0
O676 O 0.99605 0.28868 0.99117 0.0
O677 O 0.03355 0.33893 0.94306 0.0
O678 O 0.07048 0.31041 0.99577 0.0
O679 O 1.02213 0.25702 0.93802 0.0
H680 H 0.94006 0.30198 0.99038 0.0
H681 H 1.01753 0.28544 0.05045 0.0
H682 H 0.91313 0.30999 0.03816 0.0
H683 H 0.9891 0.29361 0.09724 0.0
H684 H 0.02762 0.43375 0.89321 0.0
H685 H 0.98272 0.3476 0.96844 0.0
H686 H 0.05304 0.38781 0.90347 0.0
H687 H 0.95835 0.39409 0.9569 0.0
H688 H 1.01598 0.43725 0.06125 0.0
H689 H 0.09283 0.46696 1.00056 0.0
H690 H 0.8755 0.26929 0.89844 0.0
H691 H 0.94968 0.32485 0.84197 0.0
H692 H 0.10197 0.26483 0.985 0.0
H693 H 0.1143 0.37532 1.01046 0.0
H694 H 0.16218 0.28146 0.98561 0.0
H695 H 0.17441 0.39004 0.01112 0.0
H696 H 0.03905 0.1988 0.93387 0.0
H697 H 1.02196 0.2801 0.88148 0.0
H698 H 0.05174 0.17119 0.88463 0.0
H699 H 0.03485 0.25107 0.83304 0.0
H700 H 1.01772 0.12866 0.99411 0.0
H701 H 0.09513 0.20244 0.06047 0.0
H702 H 0.14091 0.37931 0.88574 0.0
H703 H 0.14237 0.27226 0.89205 0.0
Li704 Li 0.47353 0.0909 0.39235 0.0
Li705 Li 0.4269 0.03985 0.36822 0.0
Li706 Li 0.45907 0.08581 0.33807 0.0
Li707 Li 0.42467 0.10203 0.37674 0.0
C708 C 0.48947 0.03747 0.34126 0.0
N709 N 0.52176 1.01011 0.29817 0.0
C710 C 0.47549 1.00232 0.32688 0.0
C711 C 0.5202 0.05846 0.33412 0.0
C712 C 0.49212 0.98904 0.30506 0.0
C713 C 0.53604 0.04422 0.31216 0.0
C714 C 0.43358 0.06585 0.43908 0.0
C715 C 0.42712 0.08039 0.49363 0.0
N716 N 0.44265 0.05751 0.50263 0.0
C717 C 0.44923 0.04223 0.4488 0.0
C718 C 0.42241 0.08509 0.46162 0.0
C719 C 0.45378 0.03858 0.48109 0.0
C720 C 0.50756 0.12026 0.45325 0.0
N721 N 0.50901 0.10217 0.42531 0.0
C722 C 0.5531 0.08547 0.44859 0.0
C723 C 0.53205 0.08619 0.42221 0.0
C724 C 0.54965 0.10075 0.47819 0.0
C725 C 0.52761 0.11956 0.48031 0.0
H726 H 0.48878 0.13234 0.4552 0.0
H727 H 0.53236 0.07147 0.39997 0.0
C728 C 0.38668 0.98174 0.33223 0.0
N729 N 0.40095 0.99184 0.36263 0.0
C730 C 0.36911 0.94633 0.32209 0.0
C731 C 0.37999 0.93201 0.37524 0.0
C732 C 0.39758 0.96815 0.38443 0.0
C733 C 0.36629 0.92088 0.34347 0.0
H734 H 0.39023 1.00101 0.31536 0.0
H735 H 0.40932 0.977 0.40847 0.0
C736 C 0.4951 0.15743 0.38435 0.0
N737 N 0.54686 0.21102 0.41938 0.0
C738 C 0.48931 0.17931 0.4088 0.0
C739 C 0.52716 0.16296 0.37754 0.0
C740 C 0.51583 0.20624 0.42628 0.0
C741 C 0.55301 0.19014 0.39558 0.0
C742 C 0.39406 0.07908 0.3155 0.0
C743 C 0.40823 0.1127 0.30552 0.0
C744 C 0.36213 0.05814 0.30288 0.0
C745 C 0.39027 0.12468 0.28291 0.0
C746 C 0.34508 0.07097 0.28015 0.0
N747 N 0.35937 0.10371 0.27074 0.0
C748 C 0.4519 0.05447 0.27767 0.0
C749 C 0.4976 0.10806 0.28594 0.0
C750 C 0.46156 0.04431 0.24919 0.0
N751 N 0.47049 0.08513 0.2959 0.0
C752 C 0.50808 0.09901 0.25725 0.0
C753 C 0.49051 0.06614 0.23922 0.0
H754 H 0.43082 0.0365 0.28644 0.0
H755 H 0.51228 0.13194 0.30116 0.0
C756 C 0.36119 0.09672 0.38147 0.0
N757 N 0.3913 0.12164 0.38148 0.0
C758 C 0.33294 0.1052 0.37397 0.0
C759 C 0.36746 0.16588 0.37051 0.0
C760 C 0.39507 0.15602 0.37727 0.0
C761 C 0.33609 0.13981 0.36725 0.0
H762 H 0.35918 0.06936 0.38403 0.0
H763 H 0.41925 0.17485 0.37619 0.0
O764 O 0.47326 0.05121 0.36228 0.0
O765 O 0.42895 0.07001 0.40766 0.0
O766 O 0.46948 0.13077 0.36716 0.0
O767 O 0.41116 0.06677 0.33771 0.0
H768 H 0.45208 0.98539 0.33242 0.0
H769 H 0.53146 0.08569 0.34501 0.0
H770 H 0.48144 0.96197 0.2936 0.0
H771 H 0.55962 0.06034 0.30615 0.0
H772 H 0.41833 0.09487 0.51127 0.0
H773 H 0.4583 0.02742 0.43164 0.0
H774 H 0.41016 0.10339 0.45441 0.0
H775 H 0.46618 0.02072 0.48903 0.0
H776 H 0.56949 0.07019 0.44645 0.0
H777 H 0.52423 0.13127 0.50305 0.0
H778 H 0.35881 0.93888 0.29742 0.0
H779 H 0.37838 0.91295 0.39231 0.0
H780 H 0.46467 0.17518 0.41457 0.0
H781 H 0.53204 0.14631 0.35867 0.0
H782 H 0.51174 0.22321 0.44543 0.0
H783 H 0.57798 0.19461 0.39068 0.0
H784 H 0.43281 0.12943 0.31507 0.0
H785 H 0.35056 0.03228 0.31064 0.0
H786 H 0.40093 0.15063 0.27499 0.0
H787 H 0.32039 0.055 0.27014 0.0
H788 H 0.44728 0.01894 0.23576 0.0
H789 H 0.53072 0.11626 0.25028 0.0
H790 H 0.30916 0.08438 0.37087 0.0
H791 H 0.37068 0.19262 0.36456 0.0
Li792 Li 0.32335 0.2688 0.59156 0.0
Li793 Li 0.34377 0.22507 0.55756 0.0
Li794 Li 0.32349 0.2634 0.52128 0.0
Li795 Li 0.28587 0.21644 0.55405 0.0
C796 C 0.39355 0.28688 0.5603 0.0
N797 N 0.4603 0.30272 0.55997 0.0
C798 C 0.41447 0.29765 0.58876 0.0
C799 C 0.40654 0.28412 0.53167 0.0
C800 C 0.44817 0.30555 0.58811 0.0
C801 C 0.44036 0.29217 0.53201 0.0
C802 C 0.30264 0.18947 0.60798 0.0
C803 C 0.28601 0.12614 0.61151 0.0
N804 N 0.27566 0.13132 0.64018 0.0
C805 C 0.29207 0.19419 0.63761 0.0
C806 C 0.29979 0.15519 0.59492 0.0
C807 C 0.27841 0.16446 0.65346 0.0
C808 C 0.30285 0.29851 0.65322 0.0
N809 N 0.32723 0.28944 0.64012 0.0
C810 C 0.35382 0.29355 0.69407 0.0
C811 C 0.35244 0.28699 0.66048 0.0
C812 C 0.32872 0.30218 0.70833 0.0
C813 C 0.3031 0.30483 0.68681 0.0
H814 H 0.28226 0.29973 0.63782 0.0
H815 H 0.37116 0.27833 0.65086 0.0
C816 C 0.39308 0.19365 0.53915 0.0
N817 N 0.37648 0.20108 0.563 0.0
C818 C 0.4131 0.17261 0.54343 0.0
C819 C 0.40063 0.16923 0.59742 0.0
C820 C 0.38101 0.19039 0.59213 0.0
C821 C 0.41645 0.15927 0.57269 0.0
H822 H 0.3906 0.20359 0.51661 0.0
H823 H 0.3689 0.19773 0.6113 0.0
C824 C 0.25606 0.26204 0.54474 0.0
N825 N 0.18929 0.24466 0.52839 0.0
C826 C 0.24231 0.25061 0.5132 0.0
C827 C 0.23587 0.26491 0.56792 0.0
C828 C 0.2085 0.24185 0.50542 0.0
C829 C 0.20217 0.25599 0.55919 0.0
C830 C 0.31793 0.18535 0.49889 0.0
C831 C 0.33875 0.19588 0.47553 0.0
C832 C 0.3037 0.14904 0.5018 0.0
C833 C 0.34535 0.16999 0.45582 0.0
C834 C 0.31088 0.12394 0.4816 0.0
N835 N 0.33141 0.13484 0.45924 0.0
C836 C 0.35198 0.31185 0.46735 0.0
C837 C 0.30893 0.25877 0.44916 0.0
C838 C 0.35569 0.31994 0.43527 0.0
N839 N 0.32874 0.28143 0.47434 0.0
C840 C 0.31218 0.26562 0.41694 0.0
C841 C 0.33595 0.29654 0.40883 0.0
H842 H 0.3683 0.33007 0.48659 0.0
H843 H 0.29064 0.23439 0.45379 0.0
C844 C 0.22688 0.18148 0.58179 0.0
N845 N 0.24177 0.18162 0.55482 0.0
C846 C 0.19614 0.15603 0.58394 0.0
C847 C 0.1959 0.13173 0.53018 0.0
C848 C 0.22672 0.15744 0.52917 0.0
C849 C 0.18011 0.13061 0.55788 0.0
H850 H 0.23873 0.20141 0.60171 0.0
H851 H 0.23852 0.15821 0.50776 0.0
O852 O 0.36053 0.27941 0.56028 0.0
O853 O 0.3159 0.21822 0.5919 0.0
O854 O 0.28889 0.26889 0.55289 0.0
O855 O 0.31096 0.21039 0.51823 0.0
H856 H 0.40483 0.30016 0.61107 0.0
H857 H 0.39063 0.27578 0.50944 0.0
H858 H 0.46471 0.31401 0.60995 0.0
H859 H 0.45077 0.29009 0.51004 0.0
H860 H 0.28363 0.09947 0.60162 0.0
H861 H 0.29396 0.22042 0.64813 0.0
H862 H 0.30841 0.15113 0.57236 0.0
H863 H 0.26994 0.16772 0.67631 0.0
H864 H 0.37421 0.29078 0.70883 0.0
H865 H 0.28299 0.31143 0.69581 0.0
H866 H 0.42502 0.16601 0.52368 0.0
H867 H 0.40325 0.16063 0.6207 0.0
H868 H 0.25756 0.248 0.49502 0.0
H869 H 0.24599 0.27333 0.59246 0.0
H870 H 0.19752 0.23277 0.48113 0.0
H871 H 0.18623 0.25787 0.57692 0.0
H872 H 0.35042 0.22378 0.47313 0.0
H873 H 0.28711 0.14022 0.5193 0.0
H874 H 0.36177 0.17789 0.43799 0.0
H875 H 0.30007 0.09578 0.48367 0.0
H876 H 0.37434 0.3444 0.43129 0.0
H877 H 0.29558 0.24661 0.39841 0.0
H878 H 0.18478 0.15682 0.60552 0.0
H879 H 0.18445 0.11308 0.50923 0.0
Li880 Li 0.22754 0.11625 0.87337 0.0
Li881 Li 0.19367 0.0703 0.89915 0.0
Li882 Li 0.23024 0.05683 0.86396 0.0
Li883 Li 0.17784 0.07048 0.84537 0.0
C884 C 0.26896 0.11261 0.92372 0.0
N885 N 0.32235 0.16035 0.96229 0.0
C886 C 0.26445 0.1312 0.95124 0.0
C887 C 0.30079 0.11826 0.91604 0.0
C888 C 0.29169 0.15522 0.97037 0.0
C889 C 0.32741 0.14255 0.93574 0.0
C890 C 0.1703 0.12528 0.90252 0.0
C891 C 0.12588 0.13377 0.92884 0.0
N892 N 0.14801 0.15892 0.95045 0.0
C893 C 0.19251 0.15162 0.92474 0.0
C894 C 0.13664 0.11664 0.90433 0.0
C895 C 0.18081 0.16816 0.94888 0.0
C896 C 0.23703 0.1871 0.86324 0.0
N897 N 0.25316 0.16369 0.86837 0.0
C898 C 0.30076 0.20156 0.84884 0.0
C899 C 0.2845 0.17041 0.86165 0.0
C900 C 0.28445 0.22584 0.84261 0.0
C901 C 0.25239 0.21866 0.85061 0.0
H902 H 0.21154 0.18028 0.867 0.0
H903 H 0.296 0.15038 0.86375 0.0
C904 C 0.18575 0.06308 0.96461 0.0
N905 N 0.17063 0.05715 0.93446 0.0
C906 C 0.16721 0.06069 0.98995 0.0
C907 C 0.1178 0.04156 0.95269 0.0
C908 C 0.13735 0.04476 0.92807 0.0
C909 C 0.13295 0.05145 0.98391 0.0
H910 H 0.21214 0.07123 0.969 0.0
H911 H 0.12609 0.0398 0.90373 0.0
C912 C 0.23514 0.10762 0.80958 0.0
N913 N 0.26129 0.15048 0.76391 0.0
C914 C 0.21819 0.12824 0.79598 0.0
C915 C 0.26535 0.1087 0.79988 0.0
C916 C 0.23183 0.14977 0.77295 0.0
C917 C 0.27816 0.13057 0.77677 0.0
C918 C 0.17221 1.00036 0.8818 0.0
C919 C 0.19394 0.99415 0.90493 0.0
C920 C 0.13958 0.9778 0.87647 0.0
C921 C 0.18242 0.96574 0.92284 0.0
C922 C 0.12909 0.94946 0.89469 0.0
N923 N 0.15052 0.94414 0.91737 0.0
C924 C 0.28361 0.03208 0.87232 0.0
C925 C 0.25404 0.01832 0.82085 0.0
C926 C 0.30745 0.01912 0.86171 0.0
N927 N 0.25813 0.03228 0.85168 0.0
C928 C 0.2768 1.00408 0.8094 0.0
C929 C 0.30441 1.0049 0.82977 0.0
H930 H 0.28589 0.04284 0.89686 0.0
H931 H 0.23339 0.01892 0.80504 0.0
C932 C 0.12794 0.08691 0.81289 0.0
N933 N 0.14585 0.06472 0.81168 0.0
C934 C 0.1112 0.09179 0.78526 0.0
C935 C 0.12983 0.04882 0.75623 0.0
C936 C 0.14652 0.0451 0.78443 0.0
C937 C 0.11329 0.07381 0.75627 0.0
H938 H 0.12915 0.10332 0.83466 0.0
H939 H 0.16218 0.02892 0.78424 0.0
O940 O 0.24259 0.08806 0.90513 0.0
O941 O 0.18145 0.10843 0.87894 0.0
O942 O 0.22244 0.08677 0.83253 0.0
O943 O 0.18281 0.02874 0.86478 0.0
H944 H 0.24022 0.12726 0.95791 0.0
H945 H 0.30501 0.1046 0.89475 0.0
H946 H 0.28845 0.16979 0.99165 0.0
H947 H 0.35209 0.14735 0.92985 0.0
H948 H 0.09993 0.127 0.93071 0.0
H949 H 0.21854 0.15942 0.92324 0.0
H950 H 0.11895 0.09643 0.88738 0.0
H951 H 0.19782 0.18842 0.96631 0.0
H952 H 0.32544 0.20595 0.843 0.0
H953 H 0.23884 0.23661 0.84621 0.0
H954 H 0.17957 0.06755 0.01396 0.0
H955 H 0.09146 0.0342 0.94724 0.0
H956 H 0.19501 0.12811 0.80348 0.0
H957 H 0.27895 0.09317 0.81036 0.0
H958 H 0.21907 0.16602 0.76237 0.0
H959 H 0.30158 0.1318 0.76915 0.0
H960 H 0.21926 1.0115 0.90938 0.0
H961 H 0.12251 0.9824 0.85868 0.0
H962 H 0.1988 0.96102 0.94122 0.0
H963 H 0.10386 0.93183 0.89092 0.0
H964 H 0.32814 0.02077 0.87844 0.0
H965 H 0.27252 0.9924 0.78492 0.0
H966 H 0.09923 0.11171 0.78626 0.0
H967 H 0.13169 0.03415 0.73436 0.0
Li968 Li 0.31777 1.00041 1.00902 0.0
Li969 Li 0.34096 0.96135 0.03784 0.0
Li970 Li 0.37452 1.00262 1.00636 0.0
Li971 Li 0.32951 0.95054 0.98126 0.0
C972 C 0.34402 0.02781 0.06948 0.0
N973 N 0.31976 0.05682 0.11884 0.0
C974 C 0.31638 1.00689 0.08216 0.0
C975 C 0.35906 0.06363 0.0818 0.0
C976 C 0.30454 0.02204 0.10711 0.0
C977 C 0.34654 0.07772 0.10683 0.0
C978 C 0.27217 0.92081 0.99595 0.0
C979 C 0.24218 0.85797 0.98314 0.0
N980 N 0.22331 0.86547 0.9594 0.0
C981 C 0.25245 0.92795 0.97148 0.0
C982 C 0.26705 0.88558 1.00186 0.0
C983 C 0.2279 0.89957 0.95321 0.0
C984 C 0.30527 0.06534 0.01742 0.0
N985 N 0.29113 0.02922 0.01476 0.0
C986 C 0.24443 0.03448 0.03751 0.0
C987 C 0.26094 1.01357 0.0237 0.0
C988 C 0.25925 0.07177 0.04223 0.0
C989 C 0.28944 0.08732 0.03085 0.0
H990 H 0.32995 0.07702 0.01161 0.0
H991 H 0.25078 0.98482 0.02234 0.0
C992 C 0.37684 0.95899 0.09376 0.0
N993 N 0.34645 0.94353 0.0774 0.0
C994 C 0.38571 0.94559 0.12104 0.0
C995 C 0.33085 0.90254 0.11577 0.0
C996 C 0.32326 0.91626 0.08805 0.0
C997 C 0.36268 0.91677 0.13206 0.0
H998 H 0.3946 0.98096 0.08484 0.0
H999 H 0.29923 0.90472 0.07472 0.0
C1000 C 0.35819 0.02007 0.94915 0.0
N1001 N 0.39577 0.05927 0.90682 0.0
C1002 C 0.37418 1.00417 0.92863 0.0
C1003 C 0.36087 0.05577 0.94775 0.0
C1004 C 0.3933 0.02451 0.90761 0.0
C1005 C 0.38001 0.07514 0.92622 0.0
C1006 C 0.38543 0.9326 0.02255 0.0
C1007 C 0.41909 0.94703 0.03264 0.0
C1008 C 0.36782 0.89841 0.02954 0.0
C1009 C 0.43451 0.92709 0.04948 0.0
C1010 C 0.38411 0.87935 0.04651 0.0
N1011 N 0.41684 0.89395 0.05603 0.0
C1012 C 0.43226 0.0523 0.0345 0.0
C1013 C 0.43803 0.02305 0.98576 0.0
C1014 C 0.46604 0.06486 0.04277 0.0
N1015 N 0.41894 0.03086 1.00695 0.0
C1016 C 0.47211 0.0357 0.99281 0.0
C1017 C 0.48617 0.05529 0.02235 0.0
H1018 H 0.41662 0.05686 0.05145 0.0
H1019 H 0.42701 1.00402 0.96511 0.0
C1020 C 0.30867 0.92496 0.91619 0.0
N1021 N 0.31757 0.91565 0.94473 0.0
C1022 C 0.30683 0.90311 0.88827 0.0
C1023 C 0.32035 0.86102 0.91979 0.0
C1024 C 0.32233 0.88387 0.94704 0.0
C1025 C 0.31393 0.87137 0.88991 0.0
H1026 H 0.30481 0.95028 0.91496 0.0
H1027 H 0.32926 0.87694 0.96986 0.0
O1028 O 0.35477 1.01426 0.0436 0.0
O1029 O 0.29693 0.94815 0.01346 0.0
O1030 O 0.33993 1.00078 0.97038 0.0
O1031 O 0.36976 0.95204 1.00648 0.0
H1032 H 0.30361 0.97951 0.07237 0.0
H1033 H 0.37976 0.0807 0.07175 0.0
H1034 H 0.28303 1.00628 0.11692 0.0
H1035 H 0.35793 0.1054 0.11648 0.0
H1036 H 0.23796 0.83056 0.98743 0.0
H1037 H 0.25638 0.95508 0.96637 0.0
H1038 H 0.28224 0.87955 0.02051 0.0
H1039 H 0.21262 0.90459 0.93401 0.0
H1040 H 0.22093 0.02157 0.04566 0.0
H1041 H 0.30167 0.11595 0.03428 0.0
H1042 H 0.41033 0.95743 0.13328 0.0
H1043 H 0.31246 0.88034 0.1238 0.0
H1044 H 0.37248 0.97661 0.92941 0.0
H1045 H 0.34828 0.06842 0.96301 0.0
H1046 H 0.40612 1.01262 0.89188 0.0
H1047 H 0.38236 0.1028 0.92494 0.0
H1048 H 0.43322 0.97346 0.02792 0.0
H1049 H 0.34163 0.88717 0.02301 0.0
H1050 H 0.4605 0.93805 0.05748 0.0
H1051 H 0.37064 0.85308 0.05237 0.0
H1052 H 0.47611 0.07995 0.06579 0.0
H1053 H 0.48693 0.02731 0.97675 0.0
H1054 H 0.30102 0.91151 0.86559 0.0
H1055 H 0.32588 0.8367 0.92204 0.0
Li1056 Li 0.31993 0.41466 0.06352 0.0
Li1057 Li 0.33971 0.37511 0.09779 0.0
Li1058 Li 0.3787 0.42375 0.0674 0.0
Li1059 Li 0.34038 0.37114 0.03001 0.0
C1060 C 0.34265 0.45351 0.11959 0.0
N1061 N 0.32127 0.50313 0.15184 0.0
C1062 C 0.32502 0.44463 0.14548 0.0
C1063 C 0.34946 0.48773 0.11024 0.0
C1064 C 0.31437 0.47002 0.16138 0.0
C1065 C 0.3385 0.51244 0.12684 0.0
C1066 C 0.27116 0.34531 0.06446 0.0
C1067 C 0.2174 0.30228 0.04796 0.0
N1068 N 0.20739 0.31146 0.0758 0.0
C1069 C 0.2605 0.35405 0.09303 0.0
C1070 C 0.24949 0.31929 0.04166 0.0
C1071 C 0.22807 0.33688 0.09821 0.0
C1072 C 0.28443 0.45109 0.02975 0.0
N1073 N 0.2871 0.43804 0.05806 0.0
C1074 C 0.24816 0.46342 0.07697 0.0
C1075 C 0.26856 0.44283 0.08113 0.0
C1076 C 0.24653 0.47901 0.04865 0.0
C1077 C 0.26451 0.47192 0.02463 0.0
H1078 H 0.2983 0.44593 0.01121 0.0
H1079 H 0.27008 0.43147 0.10312 0.0
C1080 C 0.356 0.3772 0.16883 0.0
N1081 N 0.33461 0.35594 0.14389 0.0
C1082 C 0.35307 0.3701 0.20098 0.0
C1083 C 0.30687 0.31806 0.18288 0.0
C1084 C 0.31024 0.32648 0.1509 0.0
C1085 C 0.32811 0.34024 0.20912 0.0
H1086 H 0.37526 0.40073 0.16403 0.0
H1087 H 0.29279 0.30938 0.13179 0.0
C1088 C 0.36715 0.448 0.01279 0.0
N1089 N 0.40612 0.49992 0.98023 0.0
C1090 C 0.38626 0.43918 0.99087 0.0
C1091 C 0.36791 0.4833 0.0181 0.0
C1092 C 0.40578 0.46578 0.97466 0.0
C1093 C 0.38775 0.50914 1.00142 0.0
C1094 C 0.37804 0.33827 0.06451 0.0
C1095 C 0.40384 0.33211 0.05036 0.0
C1096 C 0.35412 0.3099 0.07502 0.0
C1097 C 0.40524 0.29755 0.04691 0.0
C1098 C 0.3565 0.27578 0.0713 0.0
N1099 N 0.38178 0.27035 0.05741 0.0
C1100 C 0.43305 0.49256 0.07908 0.0
C1101 C 0.44246 0.44537 0.04876 0.0
C1102 C 0.46356 0.51645 0.07374 0.0
N1103 N 0.42294 0.4577 0.06641 0.0
C1104 C 0.473 0.46822 0.04283 0.0
C1105 C 0.48399 0.50445 0.05519 0.0
H1106 H 0.41737 0.5021 0.093 0.0
H1107 H 0.43384 0.41783 0.03841 0.0
C1108 C 0.31569 0.36109 0.96106 0.0
N1109 N 0.33654 0.35141 0.98159 0.0
C1110 C 0.31541 0.35595 0.92751 0.0
C1111 C 0.35763 0.33016 0.93537 0.0
C1112 C 0.35724 0.33589 0.96888 0.0
C1113 C 0.33687 0.34067 0.91364 0.0
H1114 H 0.29985 0.3743 0.97067 0.0
H1115 H 0.37459 0.32905 0.98463 0.0
O1116 O 0.35262 0.42871 0.10316 0.0
O1117 O 0.30314 0.36075 0.05956 0.0
O1118 O 0.3485 0.42243 0.02954 0.0
O1119 O 0.37571 0.3717 0.06734 0.0
H1120 H 0.3188 0.41819 0.15279 0.0
H1121 H 0.36258 0.49499 0.09006 0.0
H1122 H 0.30018 0.46319 0.18098 0.0
H1123 H 0.34348 0.53892 0.1197 0.0
H1124 H 0.20055 0.28155 0.03085 0.0
H1125 H 0.2772 0.37368 0.11112 0.0
H1126 H 0.25756 0.31188 0.0196 0.0
H1127 H 0.21945 0.34348 0.12019 0.0
H1128 H 0.2347 0.46807 0.09616 0.0
H1129 H 0.26339 0.4826 1.00211 0.0
H1130 H 0.37081 0.38802 0.21942 0.0
H1131 H 0.28726 0.29444 0.18698 0.0
H1132 H 0.38669 0.41229 0.98691 0.0
H1133 H 0.35341 0.49078 0.03494 0.0
H1134 H 0.42083 0.45931 0.95782 0.0
H1135 H 0.38857 0.53654 1.00536 0.0
H1136 H 0.42247 0.35371 0.04193 0.0
H1137 H 0.33379 0.31411 0.0857 0.0
H1138 H 0.42498 0.29234 0.03587 0.0
H1139 H 0.33816 0.25358 0.07932 0.0
H1140 H 0.4711 0.54397 0.08415 0.0
H1141 H 0.4878 0.45747 0.02857 0.0
H1142 H 0.29865 0.36456 0.91255 0.0
H1143 H 0.37475 0.31819 0.92662 0.0
Li1144 Li 0.83243 0.18964 0.13556 0.0
Li1145 Li 0.84382 0.14326 0.10319 0.0
Li1146 Li 0.82173 0.18597 0.07911 0.0
Li1147 Li 0.78821 0.13919 0.10747 0.0
C1148 C 0.89198 0.21811 0.12268 0.0
N1149 N 0.94544 0.26277 0.16289 0.0
C1150 C 0.90975 0.20385 0.14348 0.0
C1151 C 0.90138 0.25505 0.12231 0.0
C1152 C 0.93668 0.22689 0.16366 0.0
C1153 C 0.92851 0.27718 0.14281 0.0
C1154 C 0.80101 0.11156 0.15666 0.0
C1155 C 0.76694 0.05003 0.15603 0.0
N1156 N 0.75754 0.05823 0.18446 0.0
C1157 C 0.79078 0.11939 0.1858 0.0
C1158 C 0.78875 0.07661 0.14156 0.0
C1159 C 0.76885 0.09206 0.19947 0.0
C1160 C 0.84378 0.25572 0.17071 0.0
N1161 N 0.84504 0.22244 0.17298 0.0
C1162 C 0.8533 0.23332 0.22948 0.0
C1163 C 0.85136 0.21156 0.20152 0.0
C1164 C 0.84927 0.26672 0.22774 0.0
C1165 C 0.84599 0.27853 0.19792 0.0
H1166 H 0.83971 0.2641 0.14781 0.0
H1167 H 0.85329 0.18534 0.20261 0.0
C1168 C 0.89515 0.13029 0.0758 0.0
N1169 N 0.87194 0.11658 0.0951 0.0
C1170 C 0.91224 0.10947 0.06297 0.0
C1171 C 0.88227 0.06131 0.09125 0.0
C1172 C 0.86604 0.08325 0.10385 0.0
C1173 C 0.90522 0.07408 0.06993 0.0
H1174 H 0.89926 0.15688 0.0692 0.0
H1175 H 0.84782 0.07306 0.11951 0.0
C1176 C 0.77463 0.20945 0.09793 0.0
N1177 N 0.73928 0.2486 0.07091 0.0
C1178 C 0.74092 0.19379 0.0885 0.0
C1179 C 0.79028 0.24508 0.09332 0.0
C1180 C 0.72349 0.21402 0.07504 0.0
C1181 C 0.77205 0.26436 0.07962 0.0
C1182 C 0.81639 0.11477 0.04492 0.0
C1183 C 0.83581 0.13238 0.0227 0.0
C1184 C 0.80714 0.07763 0.04359 0.0
C1185 C 0.84569 0.11253 0.99957 0.0
C1186 C 0.8176 0.05876 0.02015 0.0
N1187 N 0.8365 0.07645 0.99881 0.0
C1188 C 0.83959 0.24094 0.03754 0.0
C1189 C 0.78925 0.19342 0.02348 0.0
C1190 C 0.83295 0.25792 0.01162 0.0
N1191 N 0.81759 0.20952 0.04303 0.0
C1192 C 0.78176 0.2092 0.99723 0.0
C1193 C 0.80358 0.24209 0.99111 0.0
H1194 H 0.86188 0.25313 0.05358 0.0
H1195 H 0.77226 0.16841 0.02861 0.0
C1196 C 0.72476 0.11321 0.12805 0.0
N1197 N 0.7441 0.10941 0.10547 0.0
C1198 C 0.69065 0.09915 0.12117 0.0
C1199 C 0.69758 0.07551 0.06911 0.0
C1200 C 0.73131 0.08985 0.07697 0.0
C1201 C 0.67691 0.08171 0.09073 0.0
H1202 H 0.73563 0.12989 0.15013 0.0
H1203 H 0.74715 0.0879 0.05927 0.0
O1204 O 0.86499 0.19601 0.10342 0.0
O1205 O 0.82238 0.13796 0.1427 0.0
O1206 O 0.7921 0.19013 0.11164 0.0
O1207 O 0.8072 0.13381 0.06835 0.0
H1208 H 0.90257 0.17532 0.14429 0.0
H1209 H 0.88765 0.26656 0.10668 0.0
H1210 H 0.95052 0.21628 0.18007 0.0
H1211 H 0.93602 0.30583 0.14283 0.0
H1212 H 0.75724 0.02294 0.14449 0.0
H1213 H 0.79914 0.1463 0.19758 0.0
H1214 H 0.79519 0.07023 0.11845 0.0
H1215 H 0.7606 0.09778 0.2219 0.0
H1216 H 0.85652 0.22345 0.25209 0.0
H1217 H 0.84321 0.30423 0.19551 0.0
H1218 H 0.93044 0.12089 0.04744 0.0
H1219 H 0.87602 0.03426 0.09727 0.0
H1220 H 0.72816 0.16636 0.09142 0.0
H1221 H 0.81647 0.25744 0.09905 0.0
H1222 H 0.69739 0.20217 0.06782 0.0
H1223 H 0.78402 0.2918 0.07568 0.0
H1224 H 0.84375 0.1611 0.02361 0.0
H1225 H 0.79238 0.06352 0.06071 0.0
H1226 H 0.86087 0.12585 0.98236 0.0
H1227 H 0.81081 0.03005 0.019 0.0
H1228 H 0.85041 0.28336 1.008 0.0
H1229 H 0.75926 0.19546 0.98176 0.0
H1230 H 0.67542 0.10455 0.13839 0.0
H1231 H 0.68789 0.06187 0.0455 0.0
Li1232 Li 0.2415 0.59612 0.2493 0.0
Li1233 Li 0.21367 0.55254 0.28297 0.0
Li1234 Li 0.24411 0.5347 0.2423 0.0
Li1235 Li 0.19339 0.54556 0.22931 0.0
C1236 C 0.27936 0.56169 0.30214 0.0
N1237 N 0.31585 0.54052 0.34799 0.0
C1238 C 0.30917 0.58568 0.31717 0.0
C1239 C 0.26809 0.52693 0.31049 0.0
C1240 C 0.32724 0.57448 0.3403 0.0
C1241 C 0.28695 0.51671 0.33363 0.0
C1242 C 0.18164 0.59823 0.28313 0.0
C1243 C 0.1351 0.59111 0.31235 0.0
N1244 N 0.15154 0.6228 0.33015 0.0
C1245 C 0.19809 0.6307 0.30185 0.0
C1246 C 0.14988 0.57825 0.28848 0.0
C1247 C 0.18244 0.64269 0.32541 0.0
C1248 C 0.24728 0.66586 0.2439 0.0
N1249 N 0.26482 0.64373 0.24827 0.0
C1250 C 0.31376 0.69255 0.26561 0.0
C1251 C 0.29762 0.65609 0.25754 0.0
C1252 C 0.29544 0.71563 0.26449 0.0
C1253 C 0.26222 0.70231 0.25218 0.0
H1254 H 0.22114 0.65492 0.23671 0.0
H1255 H 0.31066 0.63748 0.26075 0.0
C1256 C 0.17823 0.53087 0.33635 0.0
N1257 N 0.20552 0.55316 0.32617 0.0
C1258 C 0.16913 0.53955 0.36583 0.0
C1259 C 0.21773 0.59215 0.37447 0.0
C1260 C 0.2259 0.58246 0.34506 0.0
C1261 C 0.18832 0.57143 0.38451 0.0
H1262 H 0.16223 0.50805 0.32068 0.0
H1263 H 0.24701 0.6002 0.33608 0.0
C1264 C 0.23178 0.57009 0.17976 0.0
N1265 N 0.22399 0.58284 0.11727 0.0
C1266 C 0.21715 0.5951 0.17159 0.0
C1267 C 0.24248 0.5516 0.15622 0.0
C1268 C 0.21323 0.60098 0.1398 0.0
C1269 C 0.23848 0.55857 0.12478 0.0
C1270 C 0.17376 0.47969 0.23864 0.0
C1271 C 0.1782 0.45685 0.21416 0.0
C1272 C 0.14226 0.47493 0.24681 0.0
C1273 C 0.15093 0.42963 0.19811 0.0
C1274 C 0.11562 0.44743 0.23017 0.0
N1275 N 0.12047 0.42554 0.20637 0.0
C1276 C 0.27281 0.48027 0.24091 0.0
C1277 C 0.30669 0.53882 0.2342 0.0
C1278 C 0.30038 0.47037 0.24759 0.0
N1279 N 0.27663 0.51437 0.23556 0.0
C1280 C 0.33495 0.5303 0.24154 0.0
C1281 C 0.33179 0.49611 0.24952 0.0
H1282 H 0.24876 0.46196 0.24331 0.0
H1283 H 0.30876 0.56605 0.23094 0.0
C1284 C 0.13694 0.55609 0.20087 0.0
N1285 N 0.15672 0.53598 0.19784 0.0
C1286 C 0.11624 0.55838 0.1748 0.0
C1287 C 0.13545 0.51776 0.14341 0.0
C1288 C 0.15554 0.51602 0.17011 0.0
C1289 C 0.11657 0.54039 0.14531 0.0
H1290 H 0.1392 0.57285 0.22267 0.0
H1291 H 0.17236 0.50136 0.1679 0.0
O1292 O 0.26121 0.5725 0.27971 0.0
O1293 O 0.19666 0.58582 0.26004 0.0
O1294 O 0.2358 0.56371 0.21065 0.0
O1295 O 0.20012 0.50659 0.25452 0.0
H1296 H 0.31818 0.61275 0.31118 0.0
H1297 H 0.24503 0.50799 0.29931 0.0
H1298 H 0.35034 0.59278 0.35214 0.0
H1299 H 0.27857 0.48987 0.34024 0.0
H1300 H 0.11062 0.5758 0.31682 0.0
H1301 H 0.22297 0.64614 0.29882 0.0
H1302 H 0.13687 0.55286 0.2746 0.0
H1303 H 0.19499 0.66765 0.34016 0.0
H1304 H 0.33947 0.70215 0.27497 0.0
H1305 H 0.24755 0.7196 0.2507 0.0
H1306 H 0.14611 0.52305 0.37277 0.0
H1307 H 0.23321 0.61677 0.38833 0.0
H1308 H 0.20851 0.60939 0.18952 0.0
H1309 H 0.25394 0.53222 0.16225 0.0
H1310 H 0.20168 0.62001 0.13304 0.0
H1311 H 0.24701 0.54476 0.10641 0.0
H1312 H 0.20234 0.46044 0.20725 0.0
H1313 H 0.13839 0.49239 0.26564 0.0
H1314 H 0.15397 0.41188 0.17899 0.0
H1315 H 0.09108 0.44351 0.23616 0.0
H1316 H 0.2972 0.44404 0.25459 0.0
H1317 H 0.35879 0.5509 0.24369 0.0
H1318 H 0.10233 0.57637 0.17714 0.0
H1319 H 0.13643 0.5034 0.12102 0.0
Li1320 Li 0.82033 0.91611 0.56483 0.0
Li1321 Li 0.83981 0.87607 0.59872 0.0
Li1322 Li 0.87887 0.92484 0.56827 0.0
Li1323 Li 0.84016 0.87257 0.53067 0.0
C1324 C 0.84339 0.95431 0.62144 0.0
N1325 N 0.82299 1.0037 0.65533 0.0
C1326 C 0.82593 0.94496 0.64738 0.0
C1327 C 0.85043 0.98886 0.61283 0.0
C1328 C 0.81583 0.97027 0.66416 0.0
C1329 C 0.83995 1.01344 0.63024 0.0
C1330 C 0.77072 0.84829 0.56443 0.0
C1331 C 0.71586 0.80937 0.54534 0.0
N1332 N 0.70572 0.81758 0.57341 0.0
C1333 C 0.7599 0.85606 0.59321 0.0
C1334 C 0.74858 0.82486 0.54023 0.0
C1335 C 0.72686 0.84053 0.59719 0.0
C1336 C 0.78505 0.95327 0.53185 0.0
N1337 N 0.78783 0.94001 0.56004 0.0
C1338 C 0.74972 0.96616 0.57972 0.0
C1339 C 0.76975 0.94509 0.58343 0.0
C1340 C 0.74794 0.98188 0.55149 0.0
C1341 C 0.76544 0.9745 0.52715 0.0
H1342 H 0.79858 0.94792 0.51307 0.0
H1343 H 0.77133 0.93354 0.60532 0.0
C1344 C 0.85631 0.87739 0.66969 0.0
N1345 N 0.83471 0.85653 0.64469 0.0
C1346 C 0.85327 0.87015 0.70179 0.0
C1347 C 0.8066 0.81864 0.68352 0.0
C1348 C 0.81005 0.82726 0.6516 0.0
C1349 C 0.82803 0.84045 0.70982 0.0
H1350 H 0.87579 0.90078 0.66498 0.0
H1351 H 0.79242 0.8105 0.63244 0.0
C1352 C 0.86719 0.94974 0.51408 0.0
N1353 N 0.90621 1.00219 0.48203 0.0
C1354 C 0.88586 0.94111 0.49161 0.0
C1355 C 0.86839 0.98512 0.52018 0.0
C1356 C 0.90542 0.96797 0.47567 0.0
C1357 C 0.88825 1.01122 0.50375 0.0
C1358 C 0.87783 0.83921 0.56464 0.0
C1359 C 0.9034 0.83312 0.55002 0.0
C1360 C 0.85408 0.81077 0.57525 0.0
C1361 C 0.90471 0.79854 0.54615 0.0
C1362 C 0.85638 0.77664 0.57113 0.0
N1363 N 0.88142 0.77127 0.55675 0.0
C1364 C 0.93346 0.99344 0.58008 0.0
C1365 C 0.94243 0.94644 0.54906 0.0
C1366 C 0.96391 0.01736 0.57458 0.0
N1367 N 0.92316 0.95867 0.56714 0.0
C1368 C 0.9729 0.96931 0.54298 0.0
C1369 C 0.98408 1.00546 0.5556 0.0
H1370 H 0.91797 1.00292 0.59432 0.0
H1371 H 0.93365 0.91898 0.53849 0.0
C1372 C 0.81468 0.86171 0.46154 0.0
N1373 N 0.83613 0.85286 0.48207 0.0
C1374 C 0.81423 0.85643 0.42796 0.0
C1375 C 0.85758 0.83228 0.43574 0.0
C1376 C 0.8573 0.83807 0.46928 0.0
C1377 C 0.83617 0.84191 0.41401 0.0
H1378 H 0.79843 0.87435 0.47118 0.0
H1379 H 0.87512 0.83189 0.48497 0.0
O1380 O 0.85309 0.9297 0.60435 0.0
O1381 O 0.80318 0.86208 0.56063 0.0
O1382 O 0.84855 0.92391 0.53059 0.0
O1383 O 0.87556 0.87267 0.56787 0.0
H1384 H 0.81943 0.91825 0.65408 0.0
H1385 H 0.86341 0.99652 0.59263 0.0
H1386 H 0.80193 0.96315 0.68393 0.0
H1387 H 0.84513 0.04018 0.62367 0.0
H1388 H 0.69861 0.79054 0.52713 0.0
H1389 H 0.7769 0.87374 0.61232 0.0
H1390 H 0.75674 0.81821 0.51797 0.0
H1391 H 0.71811 0.84643 0.61929 0.0
H1392 H 0.7366 0.97097 0.59915 0.0
H1393 H 0.76415 0.98519 0.50466 0.0
H1394 H 0.87112 0.88784 0.7203 0.0
H1395 H 0.78677 0.79519 0.68753 0.0
H1396 H 0.88593 0.91415 0.48701 0.0
H1397 H 0.85422 0.99244 0.53745 0.0
H1398 H 0.92015 0.96165 0.45841 0.0
H1399 H 0.88942 0.03869 0.50832 0.0
H1400 H 0.9219 0.85478 0.54152 0.0
H1401 H 0.83394 0.81494 0.58633 0.0
H1402 H 0.92427 0.79338 0.53473 0.0
H1403 H 0.83816 0.75438 0.57921 0.0
H1404 H 0.97159 0.04481 0.5852 0.0
H1405 H 0.9875 0.95864 0.52837 0.0
H1406 H 0.79697 0.86438 0.41302 0.0
H1407 H 0.8751 0.82094 0.42696 0.0
Li1408 Li 0.99574 0.08384 0.28328 0.0
Li1409 Li 0.9448 0.03241 0.25779 0.0
Li1410 Li 0.98082 0.07274 0.22696 0.0
Li1411 Li 0.94558 0.09274 0.2569 0.0
C1412 C 1.00478 1.01487 0.24519 0.0
N1413 N 0.03082 0.9622 0.22823 0.0
C1414 C 0.98431 0.98118 0.231 0.0
C1415 C 0.0385 0.02137 0.25108 0.0
C1416 C 0.99793 0.95504 0.22246 0.0
C1417 C 0.0512 0.99456 0.24224 0.0
C1418 C 0.93071 0.07644 0.31489 0.0
C1419 C 0.87888 0.06398 0.33604 0.0
N1420 N 0.89052 0.09624 0.35401 0.0
C1421 C 0.94224 0.10938 0.33374 0.0
C1422 C 0.89883 0.05346 0.31615 0.0
C1423 C 0.92152 0.11892 0.3533 0.0
C1424 C 0.06053 0.09831 0.31158 0.0
N1425 N 0.02924 0.09427 0.31721 0.0
C1426 C 0.04071 0.08486 0.37077 0.0
C1427 C 1.01939 0.08897 0.34635 0.0
C1428 C 0.07188 0.08494 0.36465 0.0
C1429 C 0.08242 0.09298 0.33512 0.0
H1430 H 0.06762 0.10281 0.28813 0.0
H1431 H 0.99421 0.08481 0.34995 0.0
C1432 C 0.9335 0.97337 0.28935 0.0
N1433 N 0.91923 0.98701 0.26629 0.0
C1434 C 0.91596 0.94136 0.30004 0.0
C1435 C 0.86915 0.93837 0.26329 0.0
C1436 C 0.88771 0.97043 0.25319 0.0
C1437 C 0.88328 0.92358 0.28712 0.0
H1438 H 0.95845 0.98776 0.29972 0.0
H1439 H 0.87678 0.98246 0.23552 0.0
C1440 C 1.00664 0.14295 0.23454 0.0
N1441 N 0.03536 0.18806 0.19142 0.0
C1442 C 0.98709 0.15067 0.21028 0.0
C1443 C 0.04073 0.15844 0.23715 0.0
C1444 C 1.00211 0.17343 0.18861 0.0
C1445 C 0.05479 0.18116 0.21506 0.0
C1446 C 0.91559 0.03062 0.19523 0.0
C1447 C 0.93087 1.00904 0.18019 0.0
C1448 C 0.88359 0.02764 0.1836 0.0
C1449 C 0.91374 0.98434 0.15426 0.0
C1450 C 0.86722 1.00258 0.15763 0.0
N1451 N 0.8825 0.9816 0.14363 0.0
C1452 C 0.03549 0.08086 0.19531 0.0
C1453 C 0.98835 0.07789 0.16118 0.0
C1454 C 0.05383 0.08307 0.16982 0.0
N1455 N 1.00323 0.07734 0.19045 0.0
C1456 C 1.0057 0.07984 0.13493 0.0
C1457 C 0.03872 0.08178 0.13908 0.0
H1458 H 0.04696 0.08195 0.21907 0.0
H1459 H 0.96296 0.07642 0.15816 0.0
C1460 C 0.92621 0.15199 0.27533 0.0
N1461 N 0.91604 0.1176 0.2619 0.0
C1462 C 0.90347 0.16635 0.28668 0.0
C1463 C 0.86033 0.11029 0.26829 0.0
C1464 C 0.88386 0.09702 0.25744 0.0
C1465 C 0.87022 0.14494 0.28411 0.0
H1466 H 0.95211 0.16735 0.27913 0.0
H1467 H 0.87684 0.06937 0.24777 0.0
O1468 O 0.99172 0.04034 0.25534 0.0
O1469 O 0.95029 0.0671 0.29482 0.0
O1470 O 0.99242 0.11988 0.25533 0.0
O1471 O 0.93182 0.05509 0.22075 0.0
H1472 H 0.9581 0.97491 0.22685 0.0
H1473 H 0.05488 0.0468 0.26235 0.0
H1474 H 0.9823 0.92895 0.21146 0.0
H1475 H 0.07727 0.99947 0.2467 0.0
H1476 H 0.85407 0.04657 0.33706 0.0
H1477 H 0.96675 0.12763 0.33283 0.0
H1478 H 0.88942 0.02797 0.30163 0.0
H1479 H 0.93002 0.14446 0.36778 0.0
H1480 H 0.03185 0.0782 0.3933 0.0
H1481 H 0.10634 0.09295 0.32979 0.0
H1482 H 0.9278 0.93091 0.31841 0.0
H1483 H 0.84403 0.92545 0.25263 0.0
H1484 H 0.96064 0.13876 0.20796 0.0
H1485 H 0.05613 0.15269 0.25586 0.0
H1486 H 0.98735 0.1793 0.16945 0.0
H1487 H 0.08116 0.19321 0.21665 0.0
H1488 H 0.95596 1.0119 0.18792 0.0
H1489 H 0.87146 0.04451 0.19444 0.0
H1490 H 0.92539 0.96759 0.1424 0.0
H1491 H 0.84244 0.99998 0.14849 0.0
H1492 H 0.07931 0.08495 0.17411 0.0
H1493 H 0.99327 0.07941 0.11165 0.0
H1494 H 0.91192 0.19346 0.29825 0.0
H1495 H 0.83502 0.09289 0.26605 0.0
Li1496 Li 0.32886 0.68304 0.63696 0.0
Li1497 Li 0.33863 0.63564 0.60454 0.0
Li1498 Li 0.31669 0.67849 0.5794 0.0
Li1499 Li 0.28448 0.63369 0.61085 0.0
C1500 C 0.38815 0.70863 0.62269 0.0
N1501 N 0.44271 0.75031 0.66323 0.0
C1502 C 0.40293 0.69314 0.64512 0.0
C1503 C 0.40114 0.74528 0.62079 0.0
C1504 C 0.43045 0.71469 0.66546 0.0
C1505 C 0.42879 0.76589 0.64149 0.0
C1506 C 0.29675 0.60918 0.66125 0.0
C1507 C 0.26169 0.54968 0.66721 0.0
N1508 N 0.25118 0.56284 0.69309 0.0
C1509 C 0.28543 0.62212 0.68782 0.0
C1510 C 0.28463 0.57267 0.65075 0.0
C1511 C 0.26245 0.59826 0.70361 0.0
C1512 C 0.33875 0.74966 0.66944 0.0
N1513 N 0.34221 0.71751 0.673 0.0
C1514 C 0.3531 0.73178 0.72918 0.0
C1515 C 0.35064 0.70879 0.70191 0.0
C1516 C 0.34722 0.76412 0.72642 0.0
C1517 C 0.34135 0.77367 0.69603 0.0
H1518 H 0.33226 0.75582 0.64601 0.0
H1519 H 0.35354 0.68311 0.70392 0.0
C1520 C 0.38981 0.62286 0.5766 0.0
N1521 N 0.36702 0.6089 0.59624 0.0
C1522 C 0.40734 0.60255 0.56372 0.0
C1523 C 0.37904 0.55447 0.59289 0.0
C1524 C 0.36205 0.57581 0.60532 0.0
C1525 C 0.40143 0.5675 0.57114 0.0
H1526 H 0.39321 0.64921 0.56972 0.0
H1527 H 0.34392 0.56529 0.62101 0.0
C1528 C 0.26277 0.69259 0.60071 0.0
N1529 N 0.20867 0.70815 0.57609 0.0
C1530 C 0.24262 0.67172 0.57402 0.0
C1531 C 0.25527 0.72127 0.615 0.0
C1532 C 0.21545 0.68004 0.56189 0.0
C1533 C 0.22784 0.72872 0.60217 0.0
C1534 C 0.30971 0.60446 0.54837 0.0
C1535 C 0.32859 0.61959 0.52481 0.0
C1536 C 0.30094 0.56772 0.55006 0.0
C1537 C 0.338 0.59769 0.50315 0.0
C1538 C 0.3109 0.54674 0.528 0.0
N1539 N 0.32905 0.56203 0.50518 0.0
C1540 C 0.32726 0.73902 0.54442 0.0
C1541 C 0.2912 0.68367 0.51831 0.0
C1542 C 0.32078 0.75661 0.51878 0.0
N1543 N 0.3124 0.70319 0.54368 0.0
C1544 C 0.28383 0.70009 0.49246 0.0
C1545 C 0.29842 0.73707 0.49257 0.0
H1546 H 0.3435 0.75402 0.56515 0.0
H1547 H 0.27941 0.65529 0.51841 0.0
C1548 C 0.22097 0.61818 0.63103 0.0
N1549 N 0.23967 0.60615 0.61198 0.0
C1550 C 0.18679 0.60566 0.62408 0.0
C1551 C 0.19214 0.56668 0.57995 0.0
C1552 C 0.22595 0.57977 0.58776 0.0
C1553 C 0.17238 0.58108 0.59715 0.0
H1554 H 0.23263 0.63993 0.64961 0.0
H1555 H 0.24127 0.57142 0.57251 0.0
O1556 O 0.36025 0.68817 0.6037 0.0
O1557 O 0.31901 0.63216 0.64521 0.0
O1558 O 0.28967 0.68509 0.61299 0.0
O1559 O 0.30088 0.62564 0.57029 0.0
H1560 H 0.39288 0.66489 0.6472 0.0
H1561 H 0.38987 0.75772 0.60372 0.0
H1562 H 0.44186 0.70314 0.68321 0.0
H1563 H 0.43907 0.79432 0.64039 0.0
H1564 H 0.25206 0.5214 0.65926 0.0
H1565 H 0.29381 0.6503 0.69593 0.0
H1566 H 0.29222 0.56225 0.62971 0.0
H1567 H 0.25342 0.60795 0.72413 0.0
H1568 H 0.35806 0.72355 0.75219 0.0
H1569 H 0.33679 0.79836 0.69285 0.0
H1570 H 0.42504 0.61407 0.54775 0.0
H1571 H 0.37378 0.52764 0.59927 0.0
H1572 H 0.24779 0.64922 0.56282 0.0
H1573 H 0.27045 0.7376 0.6358 0.0
H1574 H 0.19981 0.66417 0.54116 0.0
H1575 H 0.22181 0.75089 0.61294 0.0
H1576 H 0.33661 0.64805 0.52367 0.0
H1577 H 0.28725 0.55555 0.56865 0.0
H1578 H 0.35271 0.6091 0.48491 0.0
H1579 H 0.30444 0.51834 0.52919 0.0
H1580 H 0.33245 0.78522 0.51979 0.0
H1581 H 0.26691 0.68391 0.47251 0.0
H1582 H 0.17226 0.61761 0.63761 0.0
H1583 H 0.18179 0.5476 0.55902 0.0
Li1584 Li 0.44848 0.53258 0.76025 0.0
Li1585 Li 0.4986 0.58505 0.78579 0.0
Li1586 Li 0.4467 0.59249 0.76143 0.0
Li1587 Li 0.48314 0.57554 0.73026 0.0
C1588 C 0.43522 0.57519 0.81982 0.0
N1589 N 0.39706 0.59441 0.86169 0.0
C1590 C 0.44543 0.60982 0.83553 0.0
C1591 C 0.40573 0.55026 0.82562 0.0
C1592 C 0.42575 0.61904 0.85653 0.0
C1593 C 0.38677 0.56051 0.84686 0.0
C1594 C 0.50778 0.51946 0.73957 0.0
C1595 C 0.55313 0.50454 0.72075 0.0
N1596 N 0.53184 0.47314 0.70577 0.0
C1597 C 0.4865 0.48661 0.72451 0.0
C1598 C 0.54151 0.52802 0.73822 0.0
C1599 C 0.49905 0.46372 0.70738 0.0
C1600 C 0.43799 0.47 0.78767 0.0
N1601 N 0.423 0.48645 0.76779 0.0
C1602 C 0.3716 0.44013 0.76689 0.0
C1603 C 0.39048 0.47238 0.75734 0.0
C1604 C 0.38638 0.42251 0.78757 0.0
C1605 C 0.4201 0.43771 0.79779 0.0
H1606 H 0.46377 0.48242 0.79615 0.0
H1607 H 0.37899 0.48667 0.74242 0.0
C1608 C 0.56292 0.5966 0.81208 0.0
N1609 N 0.53289 0.5963 0.81908 0.0
C1610 C 0.58508 0.59147 0.83541 0.0
C1611 C 0.54687 0.59187 0.87347 0.0
C1612 C 0.52502 0.59547 0.84924 0.0
C1613 C 0.57633 0.58769 0.86614 0.0
H1614 H 0.56859 0.59804 0.78795 0.0
H1615 H 0.50082 0.59445 0.85409 0.0
C1616 C 0.41393 0.53335 0.70004 0.0
N1617 N 0.37209 0.4869 0.6508 0.0
C1618 C 0.42476 0.51002 0.68138 0.0
C1619 C 0.38197 0.53363 0.69303 0.0
C1620 C 0.40324 0.48661 0.65676 0.0
C1621 C 0.36115 0.50982 0.6682 0.0
C1622 C 0.50777 0.64632 0.74044 0.0
C1623 C 0.48904 0.65376 0.71531 0.0
C1624 C 0.54162 0.66408 0.74563 0.0
C1625 C 0.50468 0.67846 0.69533 0.0
C1626 C 0.55629 0.68875 0.72524 0.0
N1627 N 0.53769 0.6953 0.70067 0.0
C1628 C 0.42482 0.65093 0.77626 0.0
C1629 C 0.38452 0.59314 0.76775 0.0
C1630 C 0.40196 0.66539 0.78715 0.0
N1631 N 0.41579 0.61529 0.76752 0.0
C1632 C 0.36087 0.60645 0.77824 0.0
C1633 C 0.36978 0.6428 0.78895 0.0
H1634 H 0.45008 0.66767 0.77638 0.0
H1635 H 0.37853 0.56473 0.76178 0.0
C1636 C 0.53803 0.59283 0.69767 0.0
N1637 N 0.50475 0.58282 0.69332 0.0
C1638 C 0.55573 0.59562 0.67167 0.0
C1639 C 0.50465 0.58006 0.63725 0.0
C1640 C 0.48803 0.57813 0.66395 0.0
C1641 C 0.53878 0.58784 0.64106 0.0
H1642 H 0.55075 0.59793 0.72142 0.0
H1643 H 0.4618 0.57218 0.66116 0.0
O1644 O 0.45355 0.56604 0.79823 0.0
O1645 O 0.49589 0.54209 0.7569 0.0
O1646 O 0.43448 0.5563 0.72463 0.0
O1647 O 0.49308 0.62155 0.75973 0.0
H1648 H 0.46802 0.62955 0.83105 0.0
H1649 H 0.3974 0.52338 0.81365 0.0
H1650 H 0.43318 0.64585 0.86858 0.0
H1651 H 0.3638 0.54155 0.85143 0.0
H1652 H 0.57913 0.51125 0.71921 0.0
H1653 H 0.46047 0.4787 0.72581 0.0
H1654 H 0.55871 0.55258 0.75031 0.0
H1655 H 0.48271 0.43843 0.69541 0.0
H1656 H 0.34567 0.42937 0.75843 0.0
H1657 H 0.43251 0.42505 0.81367 0.0
H1658 H 0.60762 0.58815 0.82912 0.0
H1659 H 0.5393 0.5885 0.89696 0.0
H1660 H 0.44977 0.51064 0.68522 0.0
H1661 H 0.37327 0.55211 0.70645 0.0
H1662 H 0.41141 0.46846 0.64219 0.0
H1663 H 0.33634 0.5097 0.66266 0.0
H1664 H 0.46279 0.64017 0.71102 0.0
H1665 H 0.55641 0.65852 0.76497 0.0
H1666 H 0.49063 0.68413 0.67549 0.0
H1667 H 0.5825 0.70256 0.72883 0.0
H1668 H 0.40954 0.69372 0.79484 0.0
H1669 H 0.33642 0.58823 0.77956 0.0
H1670 H 0.58209 0.60198 0.67547 0.0
H1671 H 0.49094 0.57484 0.61387 0.0
Li1672 Li 0.7157 0.05696 0.78208 0.0
Li1673 Li 0.74338 0.09783 0.74708 0.0
Li1674 Li 0.69376 0.04718 0.72758 0.0
Li1675 Li 0.74504 0.03737 0.74429 0.0
C1676 C 0.68308 0.1021 0.7796 0.0
N1677 N 0.65193 0.12763 0.82506 0.0
C1678 C 0.69857 0.13567 0.79686 0.0
C1679 C 0.6518 0.08145 0.7857 0.0
C1680 C 0.68239 0.14813 0.81965 0.0
C1681 C 0.63646 0.09484 0.80872 0.0
C1682 C 0.77981 0.06541 0.80311 0.0
C1683 C 0.78477 0.02052 0.83606 0.0
N1684 N 0.81439 0.04327 0.84992 0.0
C1685 C 0.8103 0.08831 0.81767 0.0
C1686 C 0.76687 0.03124 0.81242 0.0
C1687 C 0.82739 0.07664 0.8413 0.0
C1688 C 0.67831 0.0348 0.83362 0.0
N1689 N 0.70564 0.05837 0.82465 0.0
C1690 C 0.71369 0.09718 0.87249 0.0
C1691 C 0.72408 0.08828 0.84394 0.0
C1692 C 0.68424 0.07486 0.8813 0.0
C1693 C 0.66714 0.04254 0.86223 0.0
H1694 H 0.66391 1.0115 0.81752 0.0
H1695 H 0.74544 0.10676 0.83592 0.0
C1696 C 0.75038 0.16763 0.73908 0.0
N1697 N 0.7673 0.14506 0.7443 0.0
C1698 C 0.76582 0.20409 0.7469 0.0
C1699 C 0.81667 0.19341 0.76156 0.0
C1700 C 0.80004 0.15697 0.75392 0.0
C1701 C 0.7989 0.21697 0.75969 0.0
H1702 H 0.72424 0.15714 0.73183 0.0
H1703 H 0.81257 0.13805 0.75801 0.0
C1704 C 0.68777 0.97749 0.73685 0.0
N1705 N 0.6643 0.91148 0.70107 0.0
C1706 C 0.69988 0.97215 0.70817 0.0
C1707 C 0.66377 0.94921 0.74735 0.0
C1708 C 0.68771 0.9386 0.69043 0.0
C1709 C 0.65219 0.91605 0.72891 0.0
C1710 C 0.73502 0.07356 0.67961 0.0
C1711 C 0.71824 0.09703 0.67254 0.0
C1712 C 0.74942 0.05993 0.65587 0.0
C1713 C 0.71611 0.10645 0.64171 0.0
C1714 C 0.7469 0.07014 0.62537 0.0
N1715 N 0.7304 0.09297 0.61897 0.0
C1716 C 0.63684 0.05691 0.69957 0.0
C1717 C 0.65593 0.01761 0.66843 0.0
C1718 C 0.61578 0.05893 0.67369 0.0
N1719 N 0.65698 0.03724 0.69631 0.0
C1720 C 0.63538 0.01895 0.64196 0.0
C1721 C 0.61609 0.04108 0.64414 0.0
H1722 H 0.63906 0.07362 0.72136 0.0
H1723 H 0.67309 1.00355 0.66576 0.0
C1724 C 0.77341 0.98202 0.74562 0.0
N1725 N 0.77726 1.01577 0.73903 0.0
C1726 C 0.80088 0.97191 0.75197 0.0
C1727 C 0.83553 0.03098 0.74364 0.0
C1728 C 0.8073 0.03964 0.73647 0.0
C1729 C 0.83233 0.99716 0.75255 0.0
H1730 H 0.74953 0.96413 0.74906 0.0
H1731 H 0.80948 0.06663 0.73216 0.0
O1732 O 0.69865 0.08922 0.7573 0.0
O1733 O 0.76295 0.07649 0.77974 0.0
O1734 O 0.69935 1.00993 0.75498 0.0
O1735 O 0.73669 0.06308 0.70935 0.0
H1736 H 0.7231 0.15169 0.79329 0.0
H1737 H 0.63971 0.05504 0.77319 0.0
H1738 H 0.69418 0.17396 0.83326 0.0
H1739 H 0.61235 0.07904 0.81377 0.0
H1740 H 0.77511 0.99412 0.84338 0.0
H1741 H 0.82066 0.11486 0.8108 0.0
H1742 H 0.74334 1.01308 0.80149 0.0
H1743 H 0.85103 0.09409 0.85275 0.0
H1744 H 0.72767 0.12212 0.88675 0.0
H1745 H 0.64418 0.02479 0.86821 0.0
H1746 H 0.75155 0.22176 0.74492 0.0
H1747 H 0.84225 0.20266 0.77138 0.0
H1748 H 0.7185 0.99358 0.69962 0.0
H1749 H 0.65421 0.95286 0.76955 0.0
H1750 H 0.69688 0.93414 0.66819 0.0
H1751 H 0.6336 0.89394 0.73676 0.0
H1752 H 0.7065 0.10734 0.69051 0.0
H1753 H 0.76234 0.04156 0.66096 0.0
H1754 H 0.70298 0.12437 0.63582 0.0
H1755 H 0.75802 0.05989 0.6068 0.0
H1756 H 0.60159 0.07661 0.67622 0.0
H1757 H 0.63637 1.00472 0.61952 0.0
H1758 H 0.79772 0.9459 0.75973 0.0
H1759 H 0.85945 0.05124 0.74473 0.0
Li1760 Li 0.82298 0.7684 0.09193 0.0
Li1761 Li 0.84385 0.72476 0.05815 0.0
Li1762 Li 0.82333 0.76285 0.02171 0.0
Li1763 Li 0.78585 0.71586 0.05452 0.0
C1764 C 0.89336 0.78707 0.06095 0.0
N1765 N 0.96025 0.80418 0.06093 0.0
C1766 C 0.91412 0.79797 0.08951 0.0
C1767 C 0.90657 0.78479 0.03239 0.0
C1768 C 0.94791 0.80651 0.08901 0.0
C1769 C 0.94047 0.79348 0.03288 0.0
C1770 C 0.80249 0.68913 0.1085 0.0
C1771 C 0.78566 0.62578 0.11199 0.0
N1772 N 0.7752 0.63099 0.1406 0.0
C1773 C 0.7918 0.69387 0.13807 0.0
C1774 C 0.7996 0.65483 0.09546 0.0
C1775 C 0.77798 0.66414 0.15387 0.0
C1776 C 0.80216 0.79854 0.15324 0.0
N1777 N 0.82655 0.78925 0.14038 0.0
C1778 C 0.85282 0.79353 0.19449 0.0
C1779 C 0.85161 0.78678 0.16093 0.0
C1780 C 0.82772 0.80241 0.20851 0.0
C1781 C 0.80225 0.80507 0.18679 0.0
H1782 H 0.7817 0.79981 0.13768 0.0
H1783 H 0.87034 0.77798 0.15151 0.0
C1784 C 0.8938 0.69413 0.03993 0.0
N1785 N 0.87678 0.70096 0.06364 0.0
C1786 C 0.91396 0.67321 0.04414 0.0
C1787 C 0.90071 0.66868 0.09781 0.0
C1788 C 0.881 0.68977 0.0926 0.0
C1789 C 0.91696 0.65928 0.07318 0.0
H1790 H 0.89155 0.70446 0.01753 0.0
H1791 H 0.86857 0.69665 0.11171 0.0
C1792 C 0.75572 0.76111 0.04489 0.0
N1793 N 0.68892 0.74323 0.02835 0.0
C1794 C 0.74206 0.74939 0.01336 0.0
C1795 C 0.73543 0.76402 0.06796 0.0
C1796 C 0.70823 0.74038 1.00548 0.0
C1797 C 0.70171 0.75484 0.05913 0.0
C1798 C 0.8184 0.68503 0.99947 0.0
C1799 C 0.83937 0.69584 0.97628 0.0
C1800 C 0.80437 0.64867 1.00226 0.0
C1801 C 0.84627 0.67016 0.95657 0.0
C1802 C 0.81188 0.62379 0.98209 0.0
N1803 N 0.83252 0.63496 0.95987 0.0
C1804 C 0.85173 0.81134 0.9678 0.0
C1805 C 0.80886 0.75812 0.94958 0.0
C1806 C 0.85545 0.81943 0.93573 0.0
N1807 N 0.82857 0.78084 0.97478 0.0
C1808 C 0.81209 0.765 0.91737 0.0
C1809 C 0.83579 0.79598 0.90928 0.0
H1810 H 0.86797 0.82961 0.98705 0.0
H1811 H 0.79064 0.73368 0.95419 0.0
C1812 C 0.72677 0.68097 0.08218 0.0
N1813 N 0.7418 0.68091 0.05531 0.0
C1814 C 0.69602 0.65555 0.08432 0.0
C1815 C 0.69605 0.63084 0.03078 0.0
C1816 C 0.72688 0.65652 0.02976 0.0
C1817 C 0.6801 0.62995 0.05837 0.0
H1818 H 0.73853 0.70106 0.10201 0.0
H1819 H 0.73878 0.65712 1.00843 0.0
O1820 O 0.86027 0.7791 0.06079 0.0
O1821 O 0.8159 0.71788 0.09247 0.0
O1822 O 0.78857 0.76818 0.05315 0.0
O1823 O 0.81108 0.70985 0.01878 0.0
H1824 H 0.9043 0.80011 0.11177 0.0
H1825 H 0.89079 0.77634 1.0101 0.0
H1826 H 0.96433 0.81507 0.11092 0.0
H1827 H 0.95106 0.7918 0.01097 0.0
H1828 H 0.78325 0.5991 0.1021 0.0
H1829 H 0.79371 0.72012 0.14858 0.0
H1830 H 0.80829 0.65076 0.07294 0.0
H1831 H 0.76941 0.66741 0.17666 0.0
H1832 H 0.87308 0.79071 0.2094 0.0
H1833 H 0.78216 0.81187 0.1956 0.0
H1834 H 0.92624 0.66716 0.02448 0.0
H1835 H 0.90306 0.65971 0.12096 0.0
H1836 H 0.75738 0.74674 0.99527 0.0
H1837 H 0.74548 0.77267 0.09249 0.0
H1838 H 0.69732 0.73107 0.9812 0.0
H1839 H 0.6857 0.75675 0.07678 0.0
H1840 H 0.85088 0.7238 0.97398 0.0
H1841 H 0.78768 0.63963 0.01964 0.0
H1842 H 0.86276 0.67827 0.93884 0.0
H1843 H 0.80122 0.59559 0.98406 0.0
H1844 H 0.87403 0.84395 0.93176 0.0
H1845 H 0.79555 0.74595 0.89883 0.0
H1846 H 0.68455 0.65652 0.10582 0.0
H1847 H 0.6847 0.61203 1.0099 0.0
Li1848 Li 0.92894 0.541 0.8655 0.0
Li1849 Li 0.97527 0.5908 0.8918 0.0
Li1850 Li 0.92691 0.60309 0.87627 0.0
Li1851 Li 0.96221 0.58858 0.83748 0.0
C1852 C 0.93458 0.56688 0.93761 0.0
N1853 N 0.9429 0.56185 1.00193 0.0
C1854 C 0.94922 0.54305 0.94889 0.0
C1855 C 0.92401 0.588 0.95899 0.0
C1856 C 0.95342 0.5411 0.98153 0.0
C1857 C 0.92834 0.58497 0.99142 0.0
C1858 C 0.99213 0.53997 0.83884 0.0
C1859 C 0.0409 0.54684 0.81312 0.0
N1860 N 1.02535 0.51517 0.79495 0.0
C1861 C 0.97683 0.50726 0.82017 0.0
C1862 C 1.02456 0.55979 0.83545 0.0
C1863 C 0.99395 0.49528 0.79801 0.0
C1864 C 0.88812 0.48305 0.82865 0.0
N1865 N 0.90291 0.49305 0.8589 0.0
C1866 C 0.88289 0.43309 0.87134 0.0
C1867 C 0.90019 0.46926 0.88053 0.0
C1868 C 0.8688 0.42197 0.8397 0.0
C1869 C 0.87083 0.44751 0.81849 0.0
H1870 H 0.89126 0.50251 0.81192 0.0
H1871 H 0.91231 0.47809 0.90444 0.0
C1872 C 1.00938 0.61965 0.95297 0.0
N1873 N 1.0099 0.60029 0.92539 0.0
C1874 C 0.0292 0.61882 0.98018 0.0
C1875 C 0.05227 0.5814 0.94935 0.0
C1876 C 0.03145 0.58226 0.92288 0.0
C1877 C 0.05006 0.59856 0.97853 0.0
H1878 H 0.99155 0.63308 0.95458 0.0
H1879 H 0.03074 0.56619 0.9011 0.0
C1880 C 0.89731 0.58314 0.81457 0.0
N1881 N 0.86368 0.61021 0.77092 0.0
C1882 C 0.91189 0.61739 0.80601 0.0
C1883 C 0.86552 0.56279 0.80108 0.0
C1884 C 0.89446 0.63062 0.78397 0.0
C1885 C 0.84903 0.57685 0.7789 0.0
C1886 C 0.99751 0.65833 0.88641 0.0
C1887 C 0.99106 0.68068 0.91003 0.0
C1888 C 0.02992 0.66293 0.88135 0.0
C1889 C 1.01725 0.70712 0.92843 0.0
C1890 C 0.05543 0.68964 0.90029 0.0
N1891 N 0.04862 0.71099 0.92324 0.0
C1892 C 0.86341 0.5974 0.88132 0.0
C1893 C 0.89693 0.65693 0.87746 0.0
C1894 C 0.83502 0.60566 0.87397 0.0
N1895 N 0.89342 0.62255 0.88145 0.0
C1896 C 0.86916 0.66657 0.87085 0.0
C1897 C 0.8379 0.64029 0.86749 0.0
H1898 H 0.8616 0.57005 0.88366 0.0
H1899 H 0.92101 0.67594 0.87637 0.0
C1900 C 0.95439 0.56357 0.77459 0.0
N1901 N 0.9753 0.59023 0.79578 0.0
C1902 C 0.96413 0.55413 0.74593 0.0
C1903 C 1.01661 0.60059 0.76061 0.0
C1904 C 1.0055 0.60976 0.78891 0.0
C1905 C 0.99614 0.57155 0.73923 0.0
H1906 H 0.93093 0.54768 0.78089 0.0
H1907 H 1.02198 0.63026 0.80645 0.0
O1908 O 0.93016 0.56928 0.90578 0.0
O1909 O 0.97551 0.55254 0.86026 0.0
O1910 O 0.91398 0.56952 0.83605 0.0
O1911 O 0.97221 0.63221 0.86826 0.0
H1912 H 0.95786 0.52682 0.93265 0.0
H1913 H 0.9125 0.60646 0.95059 0.0
H1914 H 0.96508 0.52312 0.99066 0.0
H1915 H 0.92003 0.60092 1.00819 0.0
H1916 H 0.06586 0.56211 0.81006 0.0
H1917 H 0.952 0.49126 0.82259 0.0
H1918 H 0.03684 0.58525 0.8495 0.0
H1919 H 0.98225 0.47017 0.78324 0.0
H1920 H 0.88188 0.41399 0.88828 0.0
H1921 H 0.8602 0.44003 0.7939 0.0
H1922 H 1.02661 0.63177 1.00268 0.0
H1923 H 0.06758 0.56482 0.94768 0.0
H1924 H 0.93642 0.63363 0.81621 0.0
H1925 H 0.85367 0.53641 0.80767 0.0
H1926 H 0.90544 0.65708 0.77717 0.0
H1927 H 0.82446 0.56134 0.76819 0.0
H1928 H 0.96615 0.67726 0.91448 0.0
H1929 H 0.03533 0.64584 0.86324 0.0
H1930 H 1.01264 0.72444 0.94695 0.0
H1931 H 0.08064 0.69336 0.89677 0.0
H1932 H 0.81134 0.58469 0.87079 0.0
H1933 H 0.87219 0.69333 0.86507 0.0
H1934 H 0.94718 0.5322 0.72988 0.0
H1935 H 0.04162 0.61448 0.7566 0.0
Li1936 Li 0.85149 0.46609 0.53824 0.0
Li1937 Li 0.82605 0.5034 0.51116 0.0
Li1938 Li 0.83507 0.45148 0.48276 0.0
Li1939 Li 0.88058 0.50363 0.50286 0.0
C1940 C 0.77947 0.4256 0.49989 0.0
N1941 N 0.72789 0.37321 0.4633 0.0
C1942 C 0.76119 0.43453 0.47527 0.0
C1943 C 0.77165 0.38997 0.5057 0.0
C1944 C 0.73521 0.40766 0.45706 0.0
C1945 C 0.74539 0.36391 0.48705 0.0
C1946 C 0.85889 0.53219 0.57016 0.0
C1947 C 0.87164 0.57803 0.61448 0.0
N1948 N 0.84348 0.55972 0.62601 0.0
C1949 C 0.83011 0.51374 0.58258 0.0
C1950 C 0.87986 0.56455 0.5863 0.0
C1951 C 0.82274 0.52814 0.61078 0.0
C1952 C 0.88856 0.46732 0.59554 0.0
N1953 N 0.85893 0.45035 0.57815 0.0
C1954 C 0.84378 0.40841 0.61564 0.0
C1955 C 0.83645 0.42178 0.58777 0.0
C1956 C 0.87477 0.4244 0.63322 0.0
C1957 C 0.89728 0.45437 0.62317 0.0
H1958 H 0.90589 0.49014 0.58723 0.0
H1959 H 0.81339 0.40882 0.57323 0.0
C1960 C 0.81282 0.56795 0.52317 0.0
N1961 N 0.79915 0.53176 0.51863 0.0
C1962 C 0.7956 0.58868 0.53625 0.0
C1963 C 0.75034 0.53454 0.53871 0.0
C1964 C 0.76836 0.51494 0.52567 0.0
C1965 C 0.76434 0.5718 0.54512 0.0
H1966 H 0.83786 0.58056 0.51861 0.0
H1967 H 0.75848 0.48617 0.52305 0.0
C1968 C 0.89245 0.43503 0.52291 0.0
N1969 N 0.92342 0.39818 0.55937 0.0
C1970 C 0.92543 0.45089 0.53546 0.0
C1971 C 0.87519 0.40056 0.52952 0.0
C1972 C 0.94067 0.43178 0.55362 0.0
C1973 C 0.89126 0.38236 0.54786 0.0
C1974 C 0.86101 0.52162 0.44953 0.0
C1975 C 0.87812 0.50778 0.42864 0.0
C1976 C 0.8624 0.55709 0.44953 0.0
C1977 C 0.89682 0.52986 0.40841 0.0
C1978 C 0.88126 0.57828 0.42884 0.0
N1979 N 0.89797 0.56436 0.40891 0.0
C1980 C 0.81192 0.42552 0.4187 0.0
C1981 C 0.82345 0.38289 0.44905 0.0
C1982 C 0.80869 0.40341 0.39066 0.0
N1983 N 0.82053 0.41558 0.44703 0.0
C1984 C 0.82025 0.35984 0.42162 0.0
C1985 C 0.81438 0.37087 0.39192 0.0
H1986 H 0.80941 0.4515 0.4177 0.0
H1987 H 0.82998 0.37533 0.47167 0.0
C1988 C 0.93944 0.56166 0.51487 0.0
N1989 N 0.92366 0.53014 0.49665 0.0
C1990 C 0.97359 0.57381 0.52089 0.0
C1991 C 0.97418 0.52226 0.48719 0.0
C1992 C 0.94018 0.51161 0.48118 0.0
C1993 C 0.99083 0.55266 0.50846 0.0
H1994 H 0.9255 0.57537 0.52721 0.0
H1995 H 0.92684 0.48611 0.46761 0.0
O1996 O 0.80565 0.45143 0.51731 0.0
O1997 O 0.86654 0.51906 0.54224 0.0
O1998 O 0.87688 0.4535 0.50531 0.0
O1999 O 0.84303 0.50053 0.46988 0.0
H2000 H 0.76737 0.46185 0.46992 0.0
H2001 H 0.78591 0.38235 0.52409 0.0
H2002 H 0.72103 0.41414 0.4378 0.0
H2003 H 0.73908 0.33624 0.4913 0.0
H2004 H 0.88765 0.60309 0.62715 0.0
H2005 H 0.8135 0.48866 0.57062 0.0
H2006 H 0.90225 0.5792 0.57713 0.0
H2007 H 0.8005 0.51422 0.62054 0.0
H2008 H 0.82594 0.3851 0.6228 0.0
H2009 H 0.9213 0.46737 0.63639 0.0
H2010 H 0.80733 0.61733 0.54095 0.0
H2011 H 0.72607 0.5205 0.54467 0.0
H2012 H 0.93903 0.47799 0.53218 0.0
H2013 H 0.84927 0.38851 0.5219 0.0
H2014 H 0.96611 0.44387 0.56347 0.0
H2015 H 0.87803 0.35583 0.55331 0.0
H2016 H 0.87722 0.48033 0.42825 0.0
H2017 H 0.84901 0.56813 0.46526 0.0
H2018 H 0.91032 0.51953 0.39225 0.0
H2019 H 0.88263 0.60579 0.42861 0.0
H2020 H 0.8032 0.41231 0.36814 0.0
H2021 H 0.82462 0.33484 0.42359 0.0
H2022 H 0.98598 0.59729 0.53764 0.0
H2023 H 0.98699 0.50537 0.47751 0.0
Li2024 Li 0.6933 0.57313 0.401 0.0
Li2025 Li 0.72825 0.61786 0.37507 0.0
Li2026 Li 0.67823 0.5732 0.3468 0.0
Li2027 Li 0.72969 0.55799 0.36643 0.0
C2028 C 0.67169 0.62992 0.40295 0.0
N2029 N 0.65042 0.66724 0.44897 0.0
C2030 C 0.69434 0.65563 0.42534 0.0
C2031 C 0.63816 0.62377 0.40363 0.0
C2032 C 0.68314 0.67406 0.4485 0.0
C2033 C 0.6279 0.64274 0.42717 0.0
C2034 C 0.76847 0.61389 0.42622 0.0
C2035 C 0.82688 0.64396 0.43842 0.0
N2036 N 0.82167 0.66191 0.4648 0.0
C2037 C 0.76381 0.63239 0.45371 0.0
C2038 C 0.80036 0.61953 0.41872 0.0
C2039 C 0.79095 0.65668 0.47277 0.0
C2040 C 0.6842 0.56447 0.46613 0.0
N2041 N 0.66968 0.56119 0.43601 0.0
C2042 C 0.6168 0.54856 0.45368 0.0
C2043 C 0.63659 0.55168 0.4293 0.0
C2044 C 0.63136 0.55482 0.48518 0.0
C2045 C 0.66536 0.56142 0.49131 0.0
H2046 H 0.71043 0.57067 0.47068 0.0
H2047 H 0.62577 0.54842 0.40492 0.0
C2048 C 0.73758 0.68761 0.36334 0.0
N2049 N 0.75424 0.66504 0.3699 0.0
C2050 C 0.75277 0.71897 0.35046 0.0
C2051 C 0.80219 0.70356 0.35142 0.0
C2052 C 0.78602 0.67248 0.36438 0.0
C2053 C 0.78531 0.72691 0.34373 0.0
H2054 H 0.71182 0.6802 0.3661 0.0
H2055 H 0.79804 0.65305 0.36749 0.0
C2056 C 0.66916 0.50303 0.38351 0.0
N2057 N 0.64346 0.44683 0.41811 0.0
C2058 C 0.68953 0.49448 0.40644 0.0
C2059 C 0.63584 0.48282 0.37789 0.0
C2060 C 0.67601 0.46608 0.42383 0.0
C2061 C 0.6233 0.45449 0.39565 0.0
C2062 C 0.73771 0.60842 0.31205 0.0
C2063 C 0.72197 0.62897 0.29648 0.0
C2064 C 0.76868 0.60913 0.30482 0.0
C2065 C 0.73764 0.65015 0.27407 0.0
C2066 C 0.78351 0.63063 0.28224 0.0
N2067 N 0.76782 0.65054 0.26748 0.0
C2068 C 0.63073 0.59236 0.31344 0.0
C2069 C 0.64481 0.54599 0.28659 0.0
C2070 C 0.6136 0.59652 0.28576 0.0
N2071 N 0.64652 0.5681 0.31302 0.0
C2072 C 0.62766 0.54895 0.25835 0.0
C2073 C 0.6131 0.57565 0.25748 0.0
H2074 H 0.63383 0.61062 0.33448 0.0
H2075 H 0.65883 0.52809 0.28696 0.0
C2076 C 0.78287 0.53294 0.37536 0.0
N2077 N 0.75712 0.53255 0.35476 0.0
C2078 C 0.8068 0.52006 0.36482 0.0
C2079 C 0.77561 0.50374 0.31276 0.0
C2080 C 0.75279 0.51794 0.32411 0.0
C2081 C 0.80357 0.50532 0.33301 0.0
H2082 H 0.78537 0.54426 0.39975 0.0
H2083 H 0.732 0.51817 0.3083 0.0
O2084 O 0.68231 0.61138 0.38018 0.0
O2085 O 0.74217 0.58951 0.40743 0.0
O2086 O 0.68183 0.53123 0.36679 0.0
O2087 O 0.723 0.58793 0.33443 0.0
H2088 H 0.72034 0.66162 0.42462 0.0
H2089 H 0.62013 0.60413 0.38649 0.0
H2090 H 0.70047 0.6939 0.46603 0.0
H2091 H 0.60203 0.63793 0.42814 0.0
H2092 H 0.85159 0.64885 0.4326 0.0
H2093 H 0.73951 0.62824 0.46034 0.0
H2094 H 0.80467 0.60584 0.39749 0.0
H2095 H 0.78762 0.67146 0.49387 0.0
H2096 H 0.59071 0.54297 0.44793 0.0
H2097 H 0.67757 0.56573 0.51531 0.0
H2098 H 0.73873 0.73617 0.34494 0.0
H2099 H 0.82726 0.70855 0.34653 0.0
H2100 H 0.71539 0.50996 0.41106 0.0
H2101 H 0.61983 0.48915 0.36016 0.0
H2102 H 0.69136 0.45944 0.44195 0.0
H2103 H 0.59753 0.43866 0.39166 0.0
H2104 H 0.69815 0.62901 0.30198 0.0
H2105 H 0.78133 0.59364 0.31684 0.0
H2106 H 0.72584 0.66637 0.262 0.0
H2107 H 0.80755 0.63161 0.27654 0.0
H2108 H 0.6033 0.61784 0.28601 0.0
H2109 H 0.62755 0.53211 0.23707 0.0
H2110 H 0.82778 0.52231 0.38144 0.0
H2111 H 0.7712 0.49163 0.28841 0.0
Tb2112 Tb 0.11946 0.09832 0.07824 0.0
Tb2113 Tb 0.05037 0.04405 0.04234 0.0
C2114 C 0.0566 0.08043 0.11139 0.0
C2115 C 0.20571 0.12836 0.09125 0.0
C2116 C 0.24399 0.09378 0.0607 0.0
C2117 C 0.23208 0.0832 0.08927 0.0
C2118 C 0.21334 0.10044 0.10451 0.0
C2119 C 0.22059 0.14132 0.06447 0.0
C2120 C 0.23957 0.12412 0.0493 0.0
C2121 C 0.1765 0.13696 0.09974 0.0
O2122 O 0.12557 0.04529 0.08083 0.0
O2123 O 0.07219 1.00872 0.06757 0.0
O2124 O 0.08375 0.03653 1.00977 0.0
O2125 O 0.12945 0.08373 0.03144 0.0
O2126 O 1.00943 1.00012 0.04763 0.0
O2127 O 1.01112 0.0269 1.00548 0.0
O2128 O 0.05338 0.09622 0.02529 0.0
O2129 O 0.09152 0.13413 0.06412 0.0
O2130 O 0.08804 0.08568 0.11539 0.0
O2131 O 0.04024 0.07302 0.08309 0.0
C2132 C 0.10298 1.01322 0.07843 0.0
O2133 O 0.15964 0.14471 0.07627 0.0
O2134 O 0.15722 0.1148 0.11641 0.0
C2135 C 0.11431 0.05687 1.0098 0.0
C2136 C 0.96312 1.01534 0.03141 0.0
C2137 C 0.92228 0.05107 0.05545 0.0
C2138 C 0.93045 0.05392 0.02425 0.0
C2139 C 0.95074 0.03631 0.01237 0.0
C2140 C 0.95208 1.00955 0.06132 0.0
C2141 C 0.93217 0.02748 0.07332 0.0
C2142 C 0.99223 1.00626 0.02352 0.0
C2143 C 0.0683 0.12887 0.03996 0.0
H2144 H 0.23604 0.0605 0.09908 0.0
H2145 H 0.20269 0.08993 0.12527 0.0
H2146 H 0.21534 0.16284 0.05368 0.0
H2147 H 0.24877 0.13298 0.02746 0.0
H2148 H 0.92224 0.07089 1.0094 0.0
H2149 H 0.95842 0.04099 0.98909 0.0
H2150 H 0.96084 0.99332 0.07662 0.0
H2151 H 0.92642 0.02459 0.09741 0.0
Tb2152 Tb 0.30629 0.80718 0.33332 0.0
Tb2153 Tb 0.3571 0.82715 0.28053 0.0
C2154 C 0.28446 0.83121 0.2674 0.0
C2155 C 0.27579 0.78064 0.40815 0.0
C2156 C 0.29038 0.75459 0.46508 0.0
C2157 C 0.25781 0.74461 0.45063 0.0
C2158 C 0.25062 0.75748 0.42234 0.0
C2159 C 0.30812 0.79207 0.42325 0.0
C2160 C 0.31535 0.77926 0.45161 0.0
C2161 C 0.26908 0.78815 0.37558 0.0
O2162 O 0.29018 0.76701 0.29262 0.0
O2163 O 0.3407 0.76997 0.28024 0.0
O2164 O 0.38796 0.82243 0.32285 0.0
O2165 O 0.34774 0.79079 0.35146 0.0
O2166 O 0.37064 0.81557 0.23591 0.0
O2167 O 0.39904 0.86375 0.26623 0.0
O2168 O 0.3488 0.87419 0.30072 0.0
O2169 O 0.34293 0.85846 0.35032 0.0
O2170 O 0.28119 0.83051 0.29807 0.0
O2171 O 0.30954 0.82486 0.25579 0.0
C2172 C 0.30947 0.7524 0.27944 0.0
O2173 O 0.28145 0.82124 0.36975 0.0
O2174 O 0.27396 0.76604 0.35397 0.0
C2175 C 0.37894 0.80369 0.34686 0.0
C2176 C 0.38778 0.86803 0.21202 0.0
C2177 C 0.37207 0.90113 0.16005 0.0
C2178 C 0.39918 0.88918 0.16098 0.0
C2179 C 0.40681 0.87237 0.18673 0.0
C2180 C 0.36158 0.88135 0.21165 0.0
C2181 C 0.35353 0.89739 0.18572 0.0
C2182 C 0.39292 0.84706 0.23753 0.0
C2183 C 0.35171 0.88304 0.33127 0.0
H2184 H 0.238 0.72598 0.46071 0.0
H2185 H 0.22561 0.7481 0.41082 0.0
H2186 H 0.32797 0.80956 0.41234 0.0
H2187 H 0.34067 0.78717 0.46202 0.0
H2188 H 0.41377 0.8918 0.14132 0.0
H2189 H 0.42701 0.86211 0.18659 0.0
H2190 H 0.34686 0.87863 0.23115 0.0
H2191 H 0.33277 0.90677 0.18563 0.0
Tb2192 Tb 0.54538 0.06483 0.5743 0.0
Tb2193 Tb 0.61793 0.07587 0.54997 0.0
C2194 C 0.60088 0.0495 0.6149 0.0
C2195 C 0.47141 0.08724 0.58599 0.0
C2196 C 0.43564 0.1346 0.57735 0.0
C2197 C 0.42412 0.10519 0.59468 0.0
C2198 C 0.44183 0.08182 0.59896 0.0
C2199 C 0.48298 0.1164 0.56856 0.0
C2200 C 0.46534 0.13984 0.5643 0.0
C2201 C 0.49061 0.06322 0.59134 0.0
O2202 O 0.56781 0.1225 0.57354 0.0
O2203 O 0.62227 0.1284 0.57544 0.0
O2204 O 0.59435 0.09753 0.51379 0.0
O2205 O 0.54088 0.0728 0.52477 0.0
O2206 O 0.6685 0.09244 0.56453 0.0
O2207 O 0.64892 0.06905 0.51644 0.0
O2208 O 0.58636 0.02173 0.52967 0.0
O2209 O 0.54544 1.00953 0.56247 0.0
O2210 O 0.57882 0.06531 0.61564 0.0
O2211 O 0.6122 0.04333 0.58851 0.0
C2212 C 0.59892 0.14264 0.57836 0.0
O2213 O 0.49378 0.04426 0.56621 0.0
O2214 O 0.51846 0.07757 0.60935 0.0
C2215 C 0.56265 0.09028 0.50713 0.0
C2216 C 0.69281 0.05379 0.54064 0.0
C2217 C 0.72867 1.00646 0.5476 0.0
C2218 C 0.74139 0.03796 0.53323 0.0
C2219 C 0.72366 0.0614 0.52988 0.0
C2220 C 0.67988 0.02235 0.55485 0.0
C2221 C 0.69767 0.99899 0.55843 0.0
C2222 C 0.6746 0.07903 0.53776 0.0
C2223 C 0.56198 0.99854 0.54143 0.0
H2224 H 0.40113 0.09995 0.60467 0.0
H2225 H 0.43243 0.05953 0.61247 0.0
H2226 H 0.50576 0.12112 0.55832 0.0
H2227 H 0.47515 0.16224 0.55104 0.0
H2228 H 0.76538 0.04486 0.52508 0.0
H2229 H 0.73417 0.08563 0.51907 0.0
H2230 H 0.65603 1.01591 0.56325 0.0
H2231 H 0.687 0.9749 0.56935 0.0
Tb2232 Tb 0.36817 0.31424 0.81556 0.0
Tb2233 Tb 0.29957 0.33236 0.80659 0.0
C2234 C 0.30095 0.25887 0.82874 0.0
C2235 C 0.44915 0.30945 0.79863 0.0
C2236 C 0.50108 0.32082 0.76059 0.0
C2237 C 0.50713 0.32244 0.79383 0.0
C2238 C 0.48138 0.31672 0.81263 0.0
C2239 C 0.44305 0.30845 0.76558 0.0
C2240 C 0.46866 0.31386 0.74676 0.0
C2241 C 0.4221 0.30256 0.81855 0.0
O2242 O 0.35711 0.3123 0.76318 0.0
O2243 O 0.30342 0.31056 0.75767 0.0
O2244 O 0.33571 0.37455 0.78755 0.0
O2245 O 0.38157 0.37157 0.81592 0.0
O2246 O 0.24947 0.31743 0.79033 0.0
O2247 O 0.27607 0.37009 0.81456 0.0
O2248 O 0.31801 0.34722 0.85823 0.0
O2249 O 0.35652 0.31937 0.86521 0.0
O2250 O 0.33057 0.26437 0.82081 0.0
O2251 O 0.28598 0.28235 0.82666 0.0
C2252 C 0.32963 0.30844 0.74482 0.0
O2253 O 0.41825 0.3305 0.83335 0.0
O2254 O 0.39414 0.27942 0.80579 0.0
C2255 C 0.36695 0.38818 0.79776 0.0
C2256 C 0.22183 0.34283 0.825 0.0
C2257 C 0.17215 0.33313 0.86534 0.0
C2258 C 0.17121 0.35083 0.83814 0.0
C2259 C 0.19585 0.35556 0.8181 0.0
C2260 C 0.2232 0.32567 0.85235 0.0
C2261 C 0.19857 0.32082 0.87232 0.0
C2262 C 0.2473 0.3471 0.80359 0.0
C2263 C 0.33727 0.33561 0.87729 0.0
H2264 H 0.53179 0.32834 0.8054 0.0
H2265 H 0.48662 0.31785 0.83812 0.0
H2266 H 0.41838 0.30304 0.75423 0.0
H2267 H 0.46287 0.31186 0.72127 0.0
H2268 H 0.15104 0.3603 0.83194 0.0
H2269 H 0.19445 0.36887 0.79708 0.0
H2270 H 0.24325 0.31586 0.85815 0.0
H2271 H 0.20027 0.30754 0.8933 0.0
Tb2272 Tb 0.07882 0.08814 0.58539 0.0
Tb2273 Tb 0.0834 0.04555 0.52163 0.0
C2274 C 1.01746 0.0293 0.55066 0.0
C2275 C 0.08491 0.10959 0.6697 0.0
C2276 C 0.10259 0.08494 0.72614 0.0
C2277 C 0.0736 0.09341 0.72226 0.0
C2278 C 0.0648 0.10562 0.69414 0.0
C2279 C 0.11395 0.10143 0.67368 0.0
C2280 C 0.12282 0.0895 0.70169 0.0
C2281 C 0.07332 0.11664 0.63846 0.0
O2282 O 0.08178 0.03643 0.60259 0.0
O2283 O 0.09141 1.0084 0.55732 0.0
O2284 O 0.13002 0.08848 0.5309 0.0
O2285 O 0.13174 0.10165 0.5841 0.0
O2286 O 0.06027 0.01862 0.47732 0.0
O2287 O 0.11098 0.02478 0.49231 0.0
O2288 O 0.07262 0.09432 0.50474 0.0
O2289 O 0.08061 0.12976 0.5517 0.0
O2290 O 0.02863 0.06297 0.56231 0.0
O2291 O 0.03694 1.01547 0.53693 0.0
C2292 C 0.08697 1.00808 0.58812 0.0
O2293 O 0.09591 0.1318 0.62091 0.0
O2294 O 0.05036 0.08951 0.62256 0.0
C2295 C 0.14609 0.10518 0.55803 0.0
C2296 C 0.09655 0.0343 0.44 0.0
C2297 C 0.08946 0.06966 0.38719 0.0
C2298 C 0.08198 0.03246 0.38362 0.0
C2299 C 0.08526 1.01477 0.41006 0.0
C2300 C 0.10828 0.0718 0.44265 0.0
C2301 C 0.10437 0.08943 0.41637 0.0
C2302 C 0.08779 0.01677 0.46847 0.0
C2303 C 0.07656 0.12648 0.52005 0.0
H2304 H 0.05754 0.09008 0.74073 0.0
H2305 H 0.0419 0.11099 0.6911 0.0
H2306 H 0.12954 0.10354 0.65486 0.0
H2307 H 0.14574 0.08414 0.70424 0.0
H2308 H 0.06989 0.0168 0.36129 0.0
H2309 H 0.07582 0.98587 0.40767 0.0
H2310 H 0.11703 0.08735 0.46563 0.0
H2311 H 0.10977 0.11807 0.4196 0.0
Tb2312 Tb 0.34781 0.85518 0.79445 0.0
Tb2313 Tb 0.31297 0.78156 0.81944 0.0
C2314 C 0.34364 0.78554 0.75492 0.0
C2315 C 0.36592 0.94821 0.79539 0.0
C2316 C 0.32863 0.98899 0.81831 0.0
C2317 C 0.33421 0.98732 0.78614 0.0
C2318 C 0.35241 0.96677 0.77473 0.0
C2319 C 0.36335 0.95312 0.82802 0.0
C2320 C 0.34464 0.97279 0.8392 0.0
C2321 C 0.37526 0.91784 0.78278 0.0
O2322 O 0.29462 0.84877 0.77845 0.0
O2323 O 0.26928 0.79538 0.79661 0.0
O2324 O 0.31311 0.81718 0.86026 0.0
O2325 O 0.32844 0.86911 0.83713 0.0
O2326 O 0.28019 0.7301 0.8038 0.0
O2327 O 0.30152 0.74448 0.85276 0.0
O2328 O 0.3659 0.79037 0.83893 0.0
O2329 O 0.39141 0.83908 0.8143 0.0
O2330 O 0.34264 0.81766 0.75324 0.0
O2331 O 0.33962 0.77081 0.78123 0.0
C2332 C 0.26673 0.82286 0.78154 0.0
O2333 O 0.38802 0.90275 0.80392 0.0
O2334 O 0.35286 0.8941 0.76273 0.0
C2335 C 0.31802 0.85129 0.86085 0.0
C2336 C 0.30397 0.69138 0.82582 0.0
C2337 C 0.34604 0.65696 0.80306 0.0
C2338 C 0.35586 0.68041 0.83121 0.0
C2339 C 0.33501 0.69737 0.84257 0.0
C2340 C 0.29299 0.66527 0.79938 0.0
C2341 C 0.31392 0.64822 0.78804 0.0
C2342 C 0.28773 0.71835 0.83013 0.0
C2343 C 0.39394 0.8139 0.83256 0.0
H2344 H 0.32336 1.00053 0.76941 0.0
H2345 H 0.35407 0.96349 0.74948 0.0
H2346 H 0.37341 0.9393 0.84482 0.0
H2347 H 0.34095 0.97287 0.86397 0.0
H2348 H 0.38021 0.68675 0.84375 0.0
H2349 H 0.34432 0.71718 0.8631 0.0
H2350 H 0.26931 0.6603 0.7859 0.0
H2351 H 0.30573 0.62995 0.76642 0.0
Tb2352 Tb 0.56865 0.04827 0.08714 0.0
Tb2353 Tb 0.59444 0.08695 0.02664 0.0
C2354 C 0.64214 0.07452 0.0796 0.0
C2355 C 0.53001 0.02911 0.15986 0.0
C2356 C 0.50346 0.05322 0.21149 0.0
C2357 C 0.50624 0.01897 0.20917 0.0
C2358 C 0.51964 1.00709 0.18361 0.0
C2359 C 0.52633 0.06285 0.16168 0.0
C2360 C 0.51352 0.07503 0.18747 0.0
C2361 C 0.54605 0.01778 0.13405 0.0
O2362 O 0.57016 0.10379 0.10316 0.0
O2363 O 0.58943 0.13205 0.06035 0.0
O2364 O 0.54208 0.06408 0.01386 0.0
O2365 O 0.52817 0.06118 0.06428 0.0
O2366 O 0.63375 0.12532 1.01017 0.0
O2367 O 0.58883 0.09773 0.97949 0.0
O2368 O 0.59189 0.03111 1.01021 0.0
O2369 O 0.57361 1.00308 0.05348 0.0
O2370 O 0.62096 0.07368 0.09968 0.0
O2371 O 0.6336 0.07181 0.04914 0.0
C2372 C 0.57904 0.13346 0.08904 0.0
O2373 O 0.52983 1.01148 0.10577 0.0
O2374 O 0.57668 0.037 0.13384 0.0
C2375 C 0.52055 0.06121 0.03391 0.0
C2376 C 0.63795 0.10827 0.95703 0.0
C2377 C 0.66983 0.08687 0.90842 0.0
C2378 C 0.66776 0.12144 0.91144 0.0
C2379 C 0.65176 0.13199 0.93551 0.0
C2380 C 0.64105 0.07426 0.95476 0.0
C2381 C 0.65656 0.06348 0.93047 0.0
C2382 C 0.61931 0.11832 0.98109 0.0
C2383 C 0.5834 1.00152 0.02451 0.0
H2384 H 0.49878 1.00172 0.22754 0.0
H2385 H 0.52231 0.98099 0.1826 0.0
H2386 H 0.53364 0.07995 0.14334 0.0
H2387 H 0.51131 0.10135 0.18857 0.0
H2388 H 0.67757 0.13993 0.89457 0.0
H2389 H 0.64968 0.15837 0.93696 0.0
H2390 H 0.63103 0.05581 0.97146 0.0
H2391 H 0.65807 0.03684 0.92884 0.0
Tb2392 Tb 0.31588 0.2782 0.29706 0.0
Tb2393 Tb 0.34899 0.35826 0.32052 0.0
C2394 C 0.32584 0.33205 0.24416 0.0
C2395 C 0.28515 0.18302 0.30472 0.0
C2396 C 0.30909 0.14691 0.34892 0.0
C2397 C 0.30099 0.13242 0.31692 0.0
C2398 C 0.28946 0.15076 0.29473 0.0
C2399 C 0.28641 0.193 0.33733 0.0
C2400 C 0.29934 0.17561 0.35945 0.0
C2401 C 0.29328 0.21124 0.28375 0.0
O2402 O 0.36788 0.28932 0.28142 0.0
O2403 O 0.39324 0.34718 0.30189 0.0
O2404 O 0.35405 0.33699 0.36673 0.0
O2405 O 0.32346 0.27907 0.35008 0.0
O2406 O 0.38987 0.40447 0.33645 0.0
O2407 O 0.34099 0.40673 0.32901 0.0
O2408 O 0.29674 0.34714 0.33545 0.0
O2409 O 0.27121 0.2896 0.31404 0.0
O2410 O 0.31041 0.29954 0.251 0.0
O2411 O 0.34105 0.3575 0.26766 0.0
C2412 C 0.39523 0.31822 0.28517 0.0
O2413 O 0.27514 0.23151 0.2821 0.0
O2414 O 0.32432 0.23005 0.28796 0.0
C2415 C 0.33846 0.30455 0.37365 0.0
C2416 C 0.38139 0.45326 0.31308 0.0
C2417 C 0.35894 0.48953 0.26806 0.0
C2418 C 0.36667 0.50428 0.3 0.0
C2419 C 0.37745 0.48585 0.32261 0.0
C2420 C 0.38073 0.44305 0.2806 0.0
C2421 C 0.36855 0.46056 0.25805 0.0
C2422 C 0.37214 0.42512 0.33403 0.0
C2423 C 0.26918 0.31846 0.33087 0.0
H2424 H 0.30809 0.11006 0.30843 0.0
H2425 H 0.28851 0.14251 0.26968 0.0
H2426 H 0.28202 0.21721 0.34538 0.0
H2427 H 0.30514 0.18694 0.38411 0.0
H2428 H 0.35961 0.52683 0.30807 0.0
H2429 H 0.37796 0.49427 0.34755 0.0
H2430 H 0.38479 0.41854 0.27291 0.0
H2431 H 0.36297 0.44899 0.23346 0.0
Tb2432 Tb 0.57858 0.58724 0.08548 0.0
Tb2433 Tb 0.58359 0.54471 0.02185 0.0
C2434 C 0.51743 0.52829 0.05043 0.0
C2435 C 0.58407 0.60845 0.16967 0.0
C2436 C 0.60186 0.58533 0.22685 0.0
C2437 C 0.57421 0.5963 0.22344 0.0
C2438 C 0.56534 0.60775 0.19493 0.0
C2439 C 0.61159 0.59746 0.17303 0.0
C2440 C 0.62054 0.58626 0.2014 0.0
C2441 C 0.57262 0.61558 0.13845 0.0
O2442 O 0.58172 0.53566 0.10279 0.0
O2443 O 0.59138 0.50755 0.05758 0.0
O2444 O 0.63013 0.58772 0.03133 0.0
O2445 O 0.63158 0.60116 0.08445 0.0
O2446 O 0.56103 0.5181 0.97725 0.0
O2447 O 0.61147 0.52384 0.99303 0.0
O2448 O 0.57269 0.59336 1.00483 0.0
O2449 O 0.58029 0.62877 0.05175 0.0
O2450 O 0.52852 0.56195 0.06212 0.0
O2451 O 0.53699 0.5145 0.03682 0.0
C2452 C 0.58695 0.50731 0.08838 0.0
O2453 O 0.59538 0.6308 0.1211 0.0
O2454 O 0.5498 0.58843 0.12242 0.0
C2455 C 0.64606 0.60454 0.05847 0.0
C2456 C 0.59826 0.53448 0.94085 0.0
C2457 C 0.5929 0.57147 0.88875 0.0
C2458 C 0.58507 0.53422 0.88446 0.0
C2459 C 0.58743 0.51571 0.91055 0.0
C2460 C 0.61041 0.57199 0.94426 0.0
C2461 C 0.60735 0.59043 0.91836 0.0
C2462 C 0.58873 0.51631 0.96883 0.0
C2463 C 0.57637 0.62546 0.02009 0.0
H2464 H 0.55932 0.59573 0.24266 0.0
H2465 H 0.54354 0.61531 0.19236 0.0
H2466 H 0.62598 0.59701 0.15353 0.0
H2467 H 0.64241 0.57882 0.20347 0.0
H2468 H 0.57336 0.51917 0.86178 0.0
H2469 H 0.57769 0.48681 0.90756 0.0
H2470 H 0.61884 0.58696 0.96752 0.0
H2471 H 0.61308 0.61909 0.92213 0.0
Tb2472 Tb 0.84838 0.35631 0.29651 0.0
Tb2473 Tb 0.81361 0.28204 0.32068 0.0
C2474 C 0.84507 0.28728 0.25639 0.0
C2475 C 0.86578 0.44954 0.29861 0.0
C2476 C 0.82804 0.4898 0.32153 0.0
C2477 C 0.83329 0.48787 0.28928 0.0
C2478 C 0.85175 0.46762 0.27788 0.0
C2479 C 0.86352 0.45475 0.33129 0.0
C2480 C 0.84465 0.47424 0.34249 0.0
C2481 C 0.87562 0.41949 0.28605 0.0
O2482 O 0.7953 0.34908 0.27926 0.0
O2483 O 0.76992 0.29643 0.29859 0.0
O2484 O 0.81395 0.317 0.36199 0.0
O2485 O 0.82804 0.36898 0.33891 0.0
O2486 O 0.77969 0.23123 0.30494 0.0
O2487 O 0.80328 0.24388 0.35317 0.0
O2488 O 0.8666 0.29075 0.33978 0.0
O2489 O 0.892 0.34012 0.31589 0.0
O2490 O 0.84462 0.31968 0.25522 0.0
O2491 O 0.83978 0.2715 0.28206 0.0
C2492 C 0.76739 0.32349 0.28288 0.0
O2493 O 0.88803 0.4042 0.30728 0.0
O2494 O 0.85376 0.39589 0.26542 0.0
C2495 C 0.81819 0.35097 0.36267 0.0
C2496 C 0.80394 0.19122 0.32378 0.0
C2497 C 0.84623 0.15825 0.29891 0.0
C2498 C 0.85474 0.17788 0.3291 0.0
C2499 C 0.83379 0.19415 0.34147 0.0
C2500 C 0.79402 0.1685 0.29509 0.0
C2501 C 0.81509 0.15236 0.28267 0.0
C2502 C 0.78832 0.21845 0.33024 0.0
C2503 C 0.89457 0.31458 0.33364 0.0
H2504 H 0.82202 0.50064 0.2725 0.0
H2505 H 0.85322 0.46416 0.25261 0.0
H2506 H 0.874 0.44133 0.34814 0.0
H2507 H 0.84132 0.47468 0.36734 0.0
H2508 H 0.87818 0.18182 0.34264 0.0
H2509 H 0.8422 0.21119 0.36379 0.0
H2510 H 0.77121 0.16575 0.28089 0.0
H2511 H 0.80786 0.13716 0.25946 0.0
Tb2512 Tb 0.06426 0.54778 0.58129 0.0
Tb2513 Tb 0.09781 0.59053 0.52696 0.0
C2514 C 0.13877 0.57541 0.58298 0.0
C2515 C 0.0281 0.53109 0.65593 0.0
C2516 C 1.00831 0.5578 0.71109 0.0
C2517 C 0.99845 0.52076 0.7018 0.0
C2518 C 1.00803 0.50759 0.67431 0.0
C2519 C 0.03923 0.56792 0.66572 0.0
C2520 C 0.02934 0.58122 0.69303 0.0
C2521 C 0.03479 0.51741 0.62519 0.0
O2522 O 0.06058 0.60242 0.59362 0.0
O2523 O 0.09815 0.63524 0.56369 0.0
O2524 O 0.0474 0.58852 0.52181 0.0
O2525 O 0.03003 0.53387 0.53815 0.0
O2526 O 0.13884 0.62809 0.51228 0.0
O2527 O 0.09504 0.60091 0.47958 0.0
O2528 O 0.08852 0.53267 0.50791 0.0
O2529 O 0.07706 0.50483 0.55277 0.0
O2530 O 0.11533 0.57577 0.60011 0.0
O2531 O 0.13334 0.57234 0.55217 0.0
C2532 C 0.07852 0.6343 0.5864 0.0
O2533 O 1.02034 0.5263 0.60073 0.0
O2534 O 0.06536 0.52144 0.62207 0.0
C2535 C 1.02428 0.55827 0.52228 0.0
C2536 C 0.14531 0.60993 0.46009 0.0
C2537 C 0.17575 0.58531 0.41205 0.0
C2538 C 0.17545 0.6206 0.41457 0.0
C2539 C 0.16012 0.63274 0.43834 0.0
C2540 C 0.14715 0.57537 0.45871 0.0
C2541 C 0.16193 0.56298 0.43464 0.0
C2542 C 0.12586 0.62098 0.48264 0.0
C2543 C 0.08389 0.50334 0.52276 0.0
H2544 H 0.98304 0.50184 0.71563 0.0
H2545 H 0.99922 0.47909 0.66707 0.0
H2546 H 0.05484 0.58646 0.65179 0.0
H2547 H 0.03735 0.60981 0.6994 0.0
H2548 H 0.1858 0.63834 0.39735 0.0
H2549 H 0.15898 0.6595 0.43914 0.0
H2550 H 0.13632 0.55764 0.4757 0.0
H2551 H 0.16213 0.53583 0.43339 0.0
Tb2552 Tb 0.86806 0.81672 0.31586 0.0
Tb2553 Tb 0.79801 0.83241 0.30666 0.0
C2554 C 0.80155 0.75983 0.32964 0.0
C2555 C 0.94962 0.81412 0.29773 0.0
C2556 C 1.00059 0.82411 0.25853 0.0
C2557 C 1.00727 0.8262 0.29176 0.0
C2558 C 0.98202 0.82114 0.31112 0.0
C2559 C 0.94289 0.81286 0.26472 0.0
C2560 C 0.96803 0.81763 0.24531 0.0
C2561 C 0.92304 0.80735 0.31827 0.0
O2562 O 0.85596 0.81289 0.2634 0.0
O2563 O 0.8023 0.81139 0.25763 0.0
O2564 O 0.83344 0.87455 0.28692 0.0
O2565 O 0.87927 0.87382 0.31677 0.0
O2566 O 0.74791 0.81684 0.29027 0.0
O2567 O 0.77376 0.86938 0.31508 0.0
O2568 O 0.81611 0.84693 0.35848 0.0
O2569 O 0.85681 0.82198 0.36562 0.0
O2570 O 0.83216 0.76693 0.32415 0.0
O2571 O 0.78504 0.78154 0.32502 0.0
C2572 C 0.82851 0.80898 0.24496 0.0
O2573 O 0.91858 0.83532 0.33232 0.0
O2574 O 0.89529 0.78308 0.30652 0.0
C2575 C 0.86441 0.88935 0.29772 0.0
C2576 C 0.71925 0.8413 0.32463 0.0
C2577 C 0.66855 0.83071 0.36392 0.0
C2578 C 0.66909 0.85046 0.33789 0.0
C2579 C 0.69421 0.85562 0.31837 0.0
C2580 C 0.71916 0.82207 0.35085 0.0
C2581 C 0.694 0.81675 0.37028 0.0
C2582 C 0.74522 0.84617 0.30369 0.0
C2583 C 0.83646 0.83675 0.37761 0.0
H2584 H 0.03206 0.83185 0.3029 0.0
H2585 H 0.98776 0.82248 0.33657 0.0
H2586 H 0.91808 0.80764 0.25385 0.0
H2587 H 0.96174 0.81537 0.21988 0.0
H2588 H 0.64971 0.86127 0.33219 0.0
H2589 H 0.69394 0.87055 0.29824 0.0
H2590 H 0.73846 0.81102 0.35618 0.0
H2591 H 0.69459 0.80188 0.3904 0.0
Tb2592 Tb 0.81037 0.30769 0.82964 0.0
Tb2593 Tb 0.86131 0.32849 0.77748 0.0
C2594 C 0.78836 0.3324 0.76399 0.0
C2595 C 0.78127 0.28287 0.90486 0.0
C2596 C 0.79612 0.25877 0.96273 0.0
C2597 C 0.76352 0.25523 0.95178 0.0
C2598 C 0.75614 0.26688 0.92287 0.0
C2599 C 0.81395 0.2886 0.91662 0.0
C2600 C 0.82133 0.27641 0.94514 0.0
C2601 C 0.7735 0.2894 0.87225 0.0
O2602 O 0.79388 0.26805 0.78856 0.0
O2603 O 0.84435 0.27111 0.7759 0.0
O2604 O 0.8917 0.32403 0.8203 0.0
O2605 O 0.85126 0.29005 0.8471 0.0
O2606 O 0.87575 0.31845 0.73295 0.0
O2607 O 0.90472 0.36464 0.76541 0.0
O2608 O 0.85227 0.37532 0.79698 0.0
O2609 O 0.84669 0.35935 0.84647 0.0
O2610 O 0.78465 0.33028 0.79445 0.0
O2611 O 0.81418 0.32774 0.75236 0.0
C2612 C 0.81306 0.25366 0.77486 0.0
O2613 O 0.78569 0.3223 0.86592 0.0
O2614 O 0.77812 0.26695 0.85076 0.0
C2615 C 0.8826 0.30406 0.84348 0.0
C2616 C 0.89599 0.37233 0.71187 0.0
C2617 C 0.88368 0.40895 0.66139 0.0
C2618 C 0.91083 0.39708 0.66295 0.0
C2619 C 0.9168 0.37851 0.68801 0.0
C2620 C 0.87 0.38596 0.71113 0.0
C2621 C 0.86366 0.4038 0.6859 0.0
C2622 C 0.89912 0.34937 0.73623 0.0
C2623 C 0.85479 0.38409 0.82747 0.0
H2624 H 0.74356 0.24263 0.96512 0.0
H2625 H 0.73078 0.26231 0.9141 0.0
H2626 H 0.83367 0.30113 0.90303 0.0
H2627 H 0.84664 0.27937 0.95254 0.0
H2628 H 0.92647 0.4008 0.6441 0.0
H2629 H 0.93694 0.36813 0.68829 0.0
H2630 H 0.85396 0.38183 0.72959 0.0
H2631 H 0.84277 0.413 0.6852 0.0
Tb2632 Tb 0.8156 0.77795 0.79748 0.0
Tb2633 Tb 0.84882 0.85791 0.82117 0.0
C2634 C 0.82566 0.8321 0.7448 0.0
C2635 C 0.78571 0.68279 0.80527 0.0
C2636 C 0.81073 0.64725 0.84927 0.0
C2637 C 0.80241 0.63266 0.8173 0.0
C2638 C 0.79037 0.65073 0.79521 0.0
C2639 C 0.78725 0.69279 0.83792 0.0
C2640 C 0.80074 0.67574 0.85992 0.0
C2641 C 0.79319 0.71096 0.78419 0.0
O2642 O 0.86753 0.78904 0.78167 0.0
O2643 O 0.89293 0.84691 0.80205 0.0
O2644 O 0.85396 0.83648 0.86725 0.0
O2645 O 0.82323 0.77867 0.85049 0.0
O2646 O 0.88978 0.90388 0.83753 0.0
O2647 O 0.841 0.90645 0.82982 0.0
O2648 O 0.7965 0.84675 0.83608 0.0
O2649 O 0.77087 0.78934 0.81438 0.0
O2650 O 0.81011 0.79956 0.75154 0.0
O2651 O 0.84095 0.85745 0.76836 0.0
C2652 C 0.89486 0.81795 0.78527 0.0
O2653 O 0.77488 0.73108 0.78297 0.0
O2654 O 0.82418 0.72994 0.78788 0.0
C2655 C 0.8383 0.80405 0.87411 0.0
C2656 C 0.88182 0.95321 0.81472 0.0
C2657 C 0.85977 0.99058 0.77051 0.0
C2658 C 0.86759 1.0048 0.80259 0.0
C2659 C 0.87824 0.98584 0.82478 0.0
C2660 C 0.88109 0.94351 0.78213 0.0
C2661 C 0.86916 0.96162 0.75998 0.0
C2662 C 0.87218 0.92469 0.83521 0.0
C2663 C 0.76888 0.81813 0.83135 0.0
H2664 H 0.80963 0.61043 0.80873 0.0
H2665 H 0.78922 0.64244 0.77014 0.0
H2666 H 0.78253 0.71678 0.84603 0.0
H2667 H 0.80666 0.68711 0.88456 0.0
H2668 H 0.86056 0.02724 0.81109 0.0
H2669 H 0.87879 0.99385 0.84982 0.0
H2670 H 0.88478 0.9189 0.77402 0.0
H2671 H 0.86341 0.9504 0.73528 0.0
Tb2672 Tb 0.6183 0.59837 0.57865 0.0
Tb2673 Tb 0.54845 0.544 0.54315 0.0
C2674 C 0.55574 0.58419 0.61332 0.0
C2675 C 0.70552 0.62577 0.58918 0.0
C2676 C 0.74664 0.59236 0.56213 0.0
C2677 C 0.72956 0.57867 0.58745 0.0
C2678 C 0.70916 0.5951 0.60077 0.0
C2679 C 0.72485 0.64125 0.56581 0.0
C2680 C 0.74516 0.62463 0.55233 0.0
C2681 C 0.67679 0.63631 0.59543 0.0
O2682 O 0.61597 0.54608 0.59526 0.0
O2683 O 0.57533 0.50779 0.55842 0.0
O2684 O 0.58094 0.55325 0.5064 0.0
O2685 O 0.62783 0.56626 0.5401 0.0
O2686 O 0.50889 0.49689 0.54451 0.0
O2687 O 0.50957 0.52889 0.50603 0.0
O2688 O 0.54292 0.59672 0.53837 0.0
O2689 O 0.59563 0.63395 0.55449 0.0
O2690 O 0.58661 0.60355 0.61355 0.0
O2691 O 0.53903 0.55972 0.59012 0.0
C2692 C 0.59954 0.5132 0.58161 0.0
O2693 O 0.65982 0.6397 0.5698 0.0
O2694 O 0.65774 0.6187 0.61511 0.0
C2695 C 0.61222 0.55764 0.51158 0.0
C2696 C 0.46148 0.51207 0.53149 0.0
C2697 C 0.41905 0.54516 0.55651 0.0
C2698 C 0.42497 0.54661 0.52458 0.0
C2699 C 0.44592 0.53019 0.51218 0.0
C2700 C 0.45296 0.50771 0.5625 0.0
C2701 C 0.43203 0.52413 0.57487 0.0
C2702 C 0.49119 0.5052 0.52212 0.0
C2703 C 0.56518 0.62898 0.54198 0.0
H2704 H 0.73095 0.55437 0.59617 0.0
H2705 H 0.6947 0.58235 0.61872 0.0
H2706 H 0.72236 0.66472 0.55625 0.0
H2707 H 0.75808 0.63584 0.53296 0.0
H2708 H 0.41449 0.56173 0.50951 0.0
H2709 H 0.45174 0.53382 0.48816 0.0
H2710 H 0.4643 0.49384 0.57814 0.0
H2711 H 0.42792 0.52239 0.59952 0.0
Tb2712 Tb 0.04614 0.56447 0.0751 0.0
Tb2713 Tb 0.11859 0.57527 0.05072 0.0
C2714 C 0.10174 0.54905 0.11594 0.0
C2715 C 0.97216 0.58736 0.08648 0.0
C2716 C 0.9362 0.63459 0.07772 0.0
C2717 C 0.9247 0.60511 0.09498 0.0
C2718 C 0.9425 0.58183 0.09933 0.0
C2719 C 0.98368 0.61652 0.06903 0.0
C2720 C 0.96596 0.6399 0.06473 0.0
C2721 C 0.99144 0.56343 0.09204 0.0
O2722 O 0.06869 0.6221 0.07372 0.0
O2723 O 0.12318 0.62802 0.07597 0.0
O2724 O 0.09479 0.59703 0.01485 0.0
O2725 O 0.04139 0.57077 0.0252 0.0
O2726 O 0.16932 0.59105 0.06424 0.0
O2727 O 0.14858 0.56838 0.01624 0.0
O2728 O 0.08682 0.5211 0.0308 0.0
O2729 O 0.04611 0.50901 0.06379 0.0
O2730 O 0.07941 0.56454 0.1165 0.0
O2731 O 0.1136 0.54334 0.08972 0.0
C2732 C 0.0998 0.64231 0.07857 0.0
O2733 O 0.99452 0.54413 0.06709 0.0
O2734 O 1.01935 0.57793 0.10993 0.0
C2735 C 0.06305 0.58878 1.00776 0.0
C2736 C 0.19225 0.55184 0.03895 0.0
C2737 C 0.22725 0.50354 0.04456 0.0
C2738 C 0.24052 0.53555 0.0311 0.0
C2739 C 0.22321 0.55948 0.02841 0.0
C2740 C 0.17865 0.51973 0.05201 0.0
C2741 C 0.19602 0.49586 0.05489 0.0
C2742 C 0.17462 0.57771 0.03705 0.0
C2743 C 0.06262 0.49793 0.04277 0.0
H2744 H 0.90167 0.59973 0.1049 0.0
H2745 H 0.93312 0.55952 0.11283 0.0
H2746 H 1.00649 0.6213 0.05882 0.0
H2747 H 0.97577 0.66233 0.05151 0.0
H2748 H 0.26468 0.54256 0.02332 0.0
H2749 H 0.23418 0.58416 0.01841 0.0
H2750 H 0.15471 0.51327 0.06023 0.0
H2751 H 0.18498 0.47139 0.06515 0.0
loop_
_geom_bond_atom_site_label_1
_geom_bond_atom_site_label_2
_geom_bond_distance
_geom_bond_site_symmetry_2
_ccdc_geom_bond_type
Li0 N17 1.990 1_455 S
Li0 O60 1.956 . S
Li0 O61 1.970 . S
Li0 O62 1.961 . S
Li1 N25 1.990 . S
Li1 O60 1.970 . S
Li1 O61 1.956 . S
Li1 O63 1.961 . S
Li2 N47 1.990 . S
Li2 O60 1.961 . S
Li2 O62 1.956 . S
Li2 O63 1.970 . S
Li3 N53 1.990 . S
Li3 O61 1.961 . S
Li3 O62 1.970 . S
Li3 O63 1.956 . S
C4 C6 1.348 . S
C4 C7 1.356 . S
C4 O60 1.325 . S
N5 C8 1.314 . S
N5 C9 1.279 . S
C6 C4 1.348 . S
C6 C8 1.353 . S
C6 H64 0.929 . S
C7 C4 1.356 . S
C7 C9 1.358 . S
C7 H65 0.930 . S
C8 N5 1.314 . S
C8 C6 1.353 . S
C8 H66 0.930 . S
C9 N5 1.279 . S
C9 C7 1.358 . S
C9 H67 0.930 . S
C10 C13 1.348 . S
C10 C14 1.358 . S
C10 O61 1.325 1_655 S
C11 N12 1.279 . S
C11 C14 1.386 . S
C11 H68 0.930 . S
N12 C11 1.279 . S
N12 C15 1.314 . S
C13 C10 1.348 . S
C13 C15 1.353 . S
C13 H69 0.929 . S
C14 C10 1.358 . S
C14 C11 1.386 . S
C14 H70 0.900 1_655 S
C15 N12 1.314 . S
C15 C13 1.353 . S
C15 H71 0.930 . S
C16 N17 1.314 . S
C16 C21 1.353 . S
C16 H22 0.930 . S
N17 Li0 1.990 1_655 S
N17 C16 1.314 . S
N17 C19 1.279 . S
C18 C19 1.358 . S
C18 C20 1.356 . S
C18 H72 0.930 . S
C19 N17 1.279 . S
C19 C18 1.358 . S
C19 H23 0.930 . S
C20 C18 1.356 . S
C20 C21 1.348 . S
C21 C16 1.353 . S
C21 C20 1.348 . S
C21 H73 0.929 . S
H22 C16 0.930 . S
H23 C19 0.930 . S
C24 N25 1.314 . S
C24 C26 1.353 . S
C24 H30 0.930 . S
N25 Li1 1.990 . S
N25 C24 1.314 . S
N25 C28 1.279 . S
C26 C24 1.353 . S
C26 C29 1.348 . S
C26 H74 0.929 . S
C27 C28 1.358 . S
C27 C29 1.356 . S
C27 H75 0.930 . S
C28 N25 1.279 . S
C28 C27 1.358 . S
C28 H31 0.930 . S
C29 C26 1.348 . S
C29 C27 1.356 . S
H30 C24 0.930 . S
H31 C28 0.930 . S
C32 C34 1.348 . S
C32 C35 1.356 . S
C32 O62 1.325 . S
N33 C36 1.314 . S
N33 C37 1.279 . S
C34 C32 1.348 . S
C34 C36 1.353 . S
C34 H76 0.929 . S
C35 C32 1.356 . S
C35 C37 1.358 . S
C35 H77 0.930 . S
C36 N33 1.314 . S
C36 C34 1.353 . S
C36 H78 0.930 . S
C37 N33 1.279 . S
C37 C35 1.358 . S
C37 H79 0.930 . S
C38 C39 1.348 . S
C38 C40 1.356 . S
C38 O63 1.325 . S
C39 C38 1.348 . S
C39 C41 1.353 . S
C39 H80 0.929 . S
C40 C38 1.356 . S
C40 C42 1.358 . S
C40 H81 0.930 . S
C41 C39 1.353 . S
C41 N43 1.314 . S
C41 H82 0.930 . S
C42 C40 1.358 . S
C42 N43 1.279 . S
C42 H83 0.930 . S
N43 C41 1.314 . S
N43 C42 1.279 . S
C44 C46 1.353 . S
C44 N47 1.314 . S
C44 H50 0.930 . S
C45 N47 1.279 . S
C45 C48 1.358 . S
C45 H51 0.930 . S
C46 C44 1.353 . S
C46 C49 1.348 . S
C46 H84 0.929 . S
N47 Li2 1.990 . S
N47 C44 1.314 . S
N47 C45 1.279 . S
C48 C45 1.358 . S
C48 C49 1.356 . S
C48 H85 0.930 . S
C49 C46 1.348 . S
C49 C48 1.356 . S
H50 C44 0.930 . S
H51 C45 0.930 . S
C52 N53 1.314 . S
C52 C54 1.353 . S
C52 H58 0.930 1_455 S
N53 Li3 1.990 . S
N53 C52 1.314 . S
N53 C56 1.279 . S
C54 C52 1.353 . S
C54 C57 1.348 . S
C54 H86 0.929 1_455 S
C55 C56 1.358 . S
C55 C57 1.356 . S
C55 H87 0.930 . S
C56 N53 1.279 . S
C56 C55 1.358 . S
C56 H59 0.930 . S
C57 C54 1.348 . S
C57 C55 1.356 . S
H58 C52 0.930 1_655 S
H59 C56 0.930 . S
O60 Li0 1.956 . S
O60 Li1 1.970 . S
O60 Li2 1.961 . S
O60 C4 1.325 . S
O61 Li0 1.970 . S
O61 Li1 1.956 . S
O61 Li3 1.961 . S
O61 C10 1.325 1_455 S
O62 Li0 1.961 . S
O62 Li2 1.956 . S
O62 Li3 1.970 . S
O62 C32 1.325 . S
O63 Li1 1.961 . S
O63 Li2 1.970 . S
O63 Li3 1.956 . S
O63 C38 1.325 . S
H64 C6 0.929 . S
H65 C7 0.930 . S
H66 C8 0.930 . S
H67 C9 0.930 . S
H68 C11 0.930 . S
H69 C13 0.929 . S
H70 C14 0.900 1_455 S
H71 C15 0.930 . S
H72 C18 0.930 . S
H73 C21 0.929 . S
H74 C26 0.929 . S
H75 C27 0.930 . S
H76 C34 0.929 . S
H77 C35 0.930 . S
H78 C36 0.930 . S
H79 C37 0.930 . S
H80 C39 0.929 . S
H81 C40 0.930 . S
H82 C41 0.930 . S
H83 C42 0.930 . S
H84 C46 0.929 . S
H85 C48 0.930 . S
H86 C54 0.929 1_655 S
H87 C55 0.930 . S
Li88 N105 1.990 . S
Li88 O148 1.956 . S
Li88 O149 1.970 . S
Li88 O150 1.961 . S
Li89 N113 1.990 . S
Li89 O148 1.970 . S
Li89 O149 1.956 . S
Li89 O151 1.961 . S
Li90 N135 1.990 . S
Li90 O148 1.961 . S
Li90 O150 1.956 . S
Li90 O151 1.970 . S
Li91 N141 1.990 1_455 S
Li91 O149 1.961 . S
Li91 O150 1.970 . S
Li91 O151 1.956 . S
C92 C94 1.348 . S
C92 C95 1.356 . S
C92 O148 1.325 . S
N93 C96 1.314 . S
N93 C97 1.279 . S
C94 C92 1.348 . S
C94 C96 1.353 . S
C94 H152 0.929 . S
C95 C92 1.356 . S
C95 C97 1.358 . S
C95 H153 0.930 . S
C96 N93 1.314 . S
C96 C94 1.353 . S
C96 H154 0.930 . S
C97 N93 1.279 . S
C97 C95 1.358 . S
C97 H155 0.930 . S
C98 C101 1.348 . S
C98 C102 1.356 . S
C98 O149 1.325 . S
C99 N100 1.279 . S
C99 C102 1.358 . S
C99 H156 0.930 . S
N100 C99 1.279 . S
N100 C103 1.314 . S
C101 C98 1.348 . S
C101 C103 1.353 . S
C101 H157 0.929 . S
C102 C98 1.356 . S
C102 C99 1.358 . S
C102 H158 0.930 . S
C103 N100 1.314 . S
C103 C101 1.353 . S
C103 H159 0.930 . S
C104 N105 1.314 . S
C104 C109 1.353 . S
C104 H110 0.930 . S
N105 Li88 1.990 . S
N105 C104 1.314 . S
N105 C107 1.279 . S
C106 C107 1.358 . S
C106 C108 1.356 . S
C106 H160 0.930 . S
C107 N105 1.279 . S
C107 C106 1.358 . S
C107 H111 0.930 . S
C108 C106 1.356 . S
C108 C109 1.348 . S
C109 C104 1.353 . S
C109 C108 1.348 . S
C109 H161 0.929 . S
H110 C104 0.930 . S
H111 C107 0.930 . S
C112 N113 1.314 . S
C112 C114 1.353 . S
C112 H118 0.930 . S
N113 Li89 1.990 . S
N113 C112 1.314 . S
N113 C116 1.279 . S
C114 C112 1.353 . S
C114 C117 1.348 . S
C114 H162 0.929 . S
C115 C116 1.358 . S
C115 C117 1.356 . S
C115 H163 0.930 . S
C116 N113 1.279 . S
C116 C115 1.358 . S
C116 H119 0.930 . S
C117 C114 1.348 . S
C117 C115 1.356 . S
H118 C112 0.930 . S
H119 C116 0.930 . S
C120 C122 1.348 . S
C120 C123 1.356 . S
C120 O150 1.325 1_655 S
N121 C124 1.314 . S
N121 C125 1.279 . S
C122 C120 1.348 . S
C122 C124 1.353 . S
C122 H164 0.929 . S
C123 C120 1.356 . S
C123 C125 1.358 . S
C123 H165 0.930 1_655 S
C124 N121 1.314 . S
C124 C122 1.353 . S
C124 H166 0.930 . S
C125 N121 1.279 . S
C125 C123 1.358 . S
C125 H167 0.930 . S
C126 C127 1.348 . S
C126 C128 1.356 . S
C126 O151 1.325 . S
C127 C126 1.348 . S
C127 C129 1.353 . S
C127 H168 0.929 . S
C128 C126 1.356 . S
C128 C130 1.358 . S
C128 H169 0.930 . S
C129 C127 1.353 . S
C129 N131 1.314 . S
C129 H170 0.930 . S
C130 C128 1.358 . S
C130 N131 1.279 . S
C130 H171 0.930 . S
N131 C129 1.314 . S
N131 C130 1.279 . S
C132 C134 1.353 . S
C132 N135 1.314 . S
C132 H138 0.930 . S
C133 N135 1.279 . S
C133 C136 1.358 . S
C133 H139 0.930 1_455 S
C134 C132 1.353 . S
C134 C137 1.348 . S
C134 H172 0.929 . S
N135 Li90 1.990 . S
N135 C132 1.314 . S
N135 C133 1.279 . S
C136 C133 1.358 . S
C136 C137 1.356 . S
C136 H173 0.930 1_455 S
C137 C134 1.348 . S
C137 C136 1.356 . S
H138 C132 0.930 . S
H139 C133 0.930 1_655 S
C140 N141 1.314 . S
C140 C142 1.353 . S
C140 H146 0.930 . S
N141 Li91 1.990 1_655 S
N141 C140 1.314 . S
N141 C144 1.279 . S
C142 C140 1.353 . S
C142 C145 1.348 . S
C142 H174 0.929 . S
C143 C144 1.358 . S
C143 C145 1.356 . S
C143 H175 0.930 . S
C144 N141 1.279 . S
C144 C143 1.358 . S
C144 H147 0.930 . S
C145 C142 1.348 . S
C145 C143 1.356 . S
H146 C140 0.930 . S
H147 C144 0.930 . S
O148 Li88 1.956 . S
O148 Li89 1.970 . S
O148 Li90 1.961 . S
O148 C92 1.325 . S
O149 Li88 1.970 . S
O149 Li89 1.956 . S
O149 Li91 1.961 . S
O149 C98 1.325 . S
O150 Li88 1.961 . S
O150 Li90 1.956 . S
O150 Li91 1.970 . S
O150 C120 1.325 1_455 S
O151 Li89 1.961 . S
O151 Li90 1.970 . S
O151 Li91 1.956 . S
O151 C126 1.325 . S
H152 C94 0.929 . S
H153 C95 0.930 . S
H154 C96 0.930 . S
H155 C97 0.930 . S
H156 C99 0.930 . S
H157 C101 0.929 . S
H158 C102 0.930 . S
H159 C103 0.930 . S
H160 C106 0.930 . S
H161 C109 0.929 . S
H162 C114 0.929 . S
H163 C115 0.930 . S
H164 C122 0.929 . S
H165 C123 0.930 1_455 S
H166 C124 0.930 . S
H167 C125 0.930 . S
H168 C127 0.929 . S
H169 C128 0.930 . S
H170 C129 0.930 . S
H171 C130 0.930 . S
H172 C134 0.929 . S
H173 C136 0.930 1_655 S
H174 C142 0.929 . S
H175 C143 0.930 . S
Li176 N193 1.990 . S
Li176 O236 1.956 . S
Li176 O237 1.970 . S
Li176 O238 1.961 . S
Li177 N201 1.990 . S
Li177 O236 1.970 . S
Li177 O237 1.956 . S
Li177 O239 1.961 . S
Li178 N223 1.990 . S
Li178 O236 1.961 . S
Li178 O238 1.956 . S
Li178 O239 1.970 . S
Li179 N229 1.990 . S
Li179 O237 1.961 . S
Li179 O238 1.970 . S
Li179 O239 1.956 . S
C180 C182 1.348 . S
C180 C183 1.356 . S
C180 O236 1.325 . S
N181 C184 1.314 . S
N181 C185 1.279 . S
C182 C180 1.348 . S
C182 C184 1.353 . S
C182 H240 0.929 . S
C183 C180 1.356 . S
C183 C185 1.358 . S
C183 H241 0.930 . S
C184 N181 1.314 . S
C184 C182 1.353 . S
C184 H242 0.930 . S
C185 N181 1.279 . S
C185 C183 1.358 . S
C185 H243 0.930 . S
C186 C189 1.348 . S
C186 C190 1.356 . S
C186 O237 1.325 . S
C187 N188 1.279 . S
C187 C190 1.358 . S
C187 H244 0.930 1_556 S
N188 C187 1.279 . S
N188 C191 1.314 . S
C189 C186 1.348 . S
C189 C191 1.353 . S
C189 H245 0.929 . S
C190 C186 1.356 . S
C190 C187 1.358 . S
C190 H246 0.930 . S
C191 N188 1.314 . S
C191 C189 1.353 . S
C191 H247 0.930 . S
C192 N193 1.314 . S
C192 C197 1.353 . S
C192 H198 0.930 . S
N193 Li176 1.990 . S
N193 C192 1.314 . S
N193 C195 1.279 . S
C194 C195 1.358 . S
C194 C196 1.356 . S
C194 H248 0.930 . S
C195 N193 1.279 . S
C195 C194 1.358 . S
C195 H199 0.930 . S
C196 C194 1.356 . S
C196 C197 1.348 . S
C197 C192 1.353 . S
C197 C196 1.348 . S
C197 H249 0.929 . S
H198 C192 0.930 . S
H199 C195 0.930 . S
C200 N201 1.314 . S
C200 C202 1.353 . S
C200 H206 0.930 . S
N201 Li177 1.990 . S
N201 C200 1.314 . S
N201 C204 1.279 . S
C202 C200 1.353 . S
C202 C205 1.348 . S
C202 H250 0.929 . S
C203 C204 1.358 . S
C203 C205 1.356 . S
C203 H251 0.930 . S
C204 N201 1.279 . S
C204 C203 1.358 . S
C204 H207 0.930 . S
C205 C202 1.348 . S
C205 C203 1.356 . S
H206 C200 0.930 . S
H207 C204 0.930 . S
C208 C210 1.348 . S
C208 C211 1.356 . S
C208 O238 1.325 . S
N209 C212 1.314 . S
N209 C213 1.279 . S
C210 C208 1.348 . S
C210 C212 1.353 . S
C210 H252 0.929 . S
C211 C208 1.356 . S
C211 C213 1.358 . S
C211 H253 0.930 . S
C212 N209 1.314 . S
C212 C210 1.353 . S
C212 H254 0.930 . S
C213 N209 1.279 . S
C213 C211 1.358 . S
C213 H255 0.930 . S
C214 C215 1.348 . S
C214 C216 1.356 . S
C214 O239 1.325 . S
C215 C214 1.348 . S
C215 C217 1.353 . S
C215 H256 0.929 . S
C216 C214 1.356 . S
C216 C218 1.358 . S
C216 H257 0.930 . S
C217 C215 1.353 . S
C217 N219 1.314 . S
C217 H258 0.930 . S
C218 C216 1.358 . S
C218 N219 1.279 . S
C218 H259 0.930 1_556 S
N219 C217 1.314 . S
N219 C218 1.279 . S
C220 C222 1.353 . S
C220 N223 1.314 . S
C220 H226 0.930 . S
C221 N223 1.279 . S
C221 C224 1.358 . S
C221 H227 0.930 . S
C222 C220 1.353 . S
C222 C225 1.348 . S
C222 H260 0.929 . S
N223 Li178 1.990 . S
N223 C220 1.314 . S
N223 C221 1.279 . S
C224 C221 1.358 . S
C224 C225 1.356 . S
C224 H261 0.930 . S
C225 C222 1.348 . S
C225 C224 1.356 . S
H226 C220 0.930 . S
H227 C221 0.930 . S
C228 N229 1.314 . S
C228 C230 1.353 . S
C228 H234 0.930 . S
N229 Li179 1.990 . S
N229 C228 1.314 . S
N229 C232 1.279 . S
C230 C228 1.353 . S
C230 C233 1.348 . S
C230 H262 0.929 . S
C231 C232 1.358 . S
C231 C233 1.356 . S
C231 H263 0.930 . S
C232 N229 1.279 . S
C232 C231 1.358 . S
C232 H235 0.930 . S
C233 C230 1.348 . S
C233 C231 1.356 . S
H234 C228 0.930 . S
H235 C232 0.930 . S
O236 Li176 1.956 . S
O236 Li177 1.970 . S
O236 Li178 1.961 . S
O236 C180 1.325 . S
O237 Li176 1.970 . S
O237 Li177 1.956 . S
O237 Li179 1.961 . S
O237 C186 1.325 . S
O238 Li176 1.961 . S
O238 Li178 1.956 . S
O238 Li179 1.970 . S
O238 C208 1.325 . S
O239 Li177 1.961 . S
O239 Li178 1.970 . S
O239 Li179 1.956 . S
O239 C214 1.325 . S
H240 C182 0.929 . S
H241 C183 0.930 . S
H242 C184 0.930 . S
H243 C185 0.930 . S
H244 C187 0.930 1_554 S
H245 C189 0.929 . S
H246 C190 0.930 . S
H247 C191 0.930 . S
H248 C194 0.930 . S
H249 C197 0.929 . S
H250 C202 0.929 . S
H251 C203 0.930 . S
H252 C210 0.929 . S
H253 C211 0.930 . S
H254 C212 0.930 . S
H255 C213 0.930 . S
H256 C215 0.929 . S
H257 C216 0.930 . S
H258 C217 0.930 . S
H259 C218 0.930 1_554 S
H260 C222 0.929 . S
H261 C224 0.930 . S
H262 C230 0.929 . S
H263 C231 0.930 . S
Li264 N281 1.990 . S
Li264 O324 1.956 . S
Li264 O325 1.970 . S
Li264 O326 1.961 . S
Li265 N289 1.990 . S
Li265 O324 1.970 . S
Li265 O325 1.956 . S
Li265 O327 1.961 . S
Li266 N311 1.990 . S
Li266 O324 1.961 . S
Li266 O326 1.956 . S
Li266 O327 1.970 . S
Li267 N317 1.990 . S
Li267 O325 1.961 . S
Li267 O326 1.970 . S
Li267 O327 1.956 . S
C268 C270 1.348 . S
C268 C271 1.356 . S
C268 O324 1.325 . S
N269 C272 1.314 . S
N269 C273 1.279 . S
C270 C268 1.348 . S
C270 C272 1.353 . S
C270 H328 0.929 . S
C271 C268 1.356 . S
C271 C273 1.358 . S
C271 H329 0.930 . S
C272 N269 1.314 . S
C272 C270 1.353 . S
C272 H330 0.930 . S
C273 N269 1.279 . S
C273 C271 1.358 . S
C273 H331 0.930 . S
C274 C277 1.348 . S
C274 C278 1.356 . S
C274 O325 1.325 . S
C275 N276 1.279 . S
C275 C278 1.358 . S
C275 H332 0.930 . S
N276 C275 1.279 . S
N276 C279 1.314 . S
C277 C274 1.348 . S
C277 C279 1.353 . S
C277 H333 0.929 . S
C278 C274 1.356 . S
C278 C275 1.358 . S
C278 H334 0.930 . S
C279 N276 1.314 . S
C279 C277 1.353 . S
C279 H335 0.930 . S
C280 N281 1.314 . S
C280 C285 1.353 . S
C280 H286 0.930 . S
N281 Li264 1.990 . S
N281 C280 1.314 . S
N281 C283 1.279 . S
C282 C283 1.358 . S
C282 C284 1.356 . S
C282 H336 0.930 . S
C283 N281 1.279 . S
C283 C282 1.358 . S
C283 H287 0.930 . S
C284 C282 1.356 . S
C284 C285 1.348 . S
C285 C280 1.353 . S
C285 C284 1.348 . S
C285 H337 0.929 . S
H286 C280 0.930 . S
H287 C283 0.930 . S
C288 N289 1.314 . S
C288 C290 1.353 . S
C288 H294 0.930 . S
N289 Li265 1.990 . S
N289 C288 1.314 . S
N289 C292 1.279 . S
C290 C288 1.353 . S
C290 C293 1.348 . S
C290 H338 0.929 . S
C291 C292 1.358 . S
C291 C293 1.356 . S
C291 H339 0.930 . S
C292 N289 1.279 . S
C292 C291 1.358 . S
C292 H295 0.930 . S
C293 C290 1.348 . S
C293 C291 1.356 . S
H294 C288 0.930 . S
H295 C292 0.930 . S
C296 C298 1.348 . S
C296 C299 1.356 . S
C296 O326 1.325 . S
N297 C300 1.314 . S
N297 C301 1.279 . S
C298 C296 1.348 . S
C298 C300 1.353 . S
C298 H340 0.929 . S
C299 C296 1.356 . S
C299 C301 1.358 . S
C299 H341 0.930 . S
C300 N297 1.314 . S
C300 C298 1.353 . S
C300 H342 0.930 . S
C301 N297 1.279 . S
C301 C299 1.358 . S
C301 H343 0.930 . S
C302 C303 1.348 . S
C302 C304 1.356 . S
C302 O327 1.325 . S
C303 C302 1.348 . S
C303 C305 1.353 . S
C303 H344 0.929 . S
C304 C302 1.356 . S
C304 C306 1.358 . S
C304 H345 0.930 . S
C305 C303 1.353 . S
C305 N307 1.314 . S
C305 H346 0.930 . S
C306 C304 1.358 . S
C306 N307 1.279 . S
C306 H347 0.930 . S
N307 C305 1.314 . S
N307 C306 1.279 . S
C308 C310 1.353 . S
C308 N311 1.314 . S
C308 H314 0.930 . S
C309 N311 1.279 . S
C309 C312 1.358 . S
C309 H315 0.930 . S
C310 C308 1.353 . S
C310 C313 1.348 . S
C310 H348 0.929 . S
N311 Li266 1.990 . S
N311 C308 1.314 . S
N311 C309 1.279 . S
C312 C309 1.358 . S
C312 C313 1.356 . S
C312 H349 0.930 . S
C313 C310 1.348 . S
C313 C312 1.356 . S
H314 C308 0.930 . S
H315 C309 0.930 . S
C316 N317 1.314 . S
C316 C318 1.353 . S
C316 H322 0.930 . S
N317 Li267 1.990 . S
N317 C316 1.314 . S
N317 C320 1.279 . S
C318 C316 1.353 . S
C318 C321 1.348 . S
C318 H350 0.929 . S
C319 C320 1.358 . S
C319 C321 1.356 . S
C319 H351 0.930 . S
C320 N317 1.279 . S
C320 C319 1.358 . S
C320 H323 0.930 . S
C321 C318 1.348 . S
C321 C319 1.356 . S
H322 C316 0.930 . S
H323 C320 0.930 . S
O324 Li264 1.956 . S
O324 Li265 1.970 . S
O324 Li266 1.961 . S
O324 C268 1.325 . S
O325 Li264 1.970 . S
O325 Li265 1.956 . S
O325 Li267 1.961 . S
O325 C274 1.325 . S
O326 Li264 1.961 . S
O326 Li266 1.956 . S
O326 Li267 1.970 . S
O326 C296 1.325 . S
O327 Li265 1.961 . S
O327 Li266 1.970 . S
O327 Li267 1.956 . S
O327 C302 1.325 . S
H328 C270 0.929 . S
H329 C271 0.930 . S
H330 C272 0.930 . S
H331 C273 0.930 . S
H332 C275 0.930 . S
H333 C277 0.929 . S
H334 C278 0.930 . S
H335 C279 0.930 . S
H336 C282 0.930 . S
H337 C285 0.929 . S
H338 C290 0.929 . S
H339 C291 0.930 . S
H340 C298 0.929 . S
H341 C299 0.930 . S
H342 C300 0.930 . S
H343 C301 0.930 . S
H344 C303 0.929 . S
H345 C304 0.930 . S
H346 C305 0.930 . S
H347 C306 0.930 . S
H348 C310 0.929 . S
H349 C312 0.930 . S
H350 C318 0.929 . S
H351 C319 0.930 . S
Li352 N369 1.990 . S
Li352 O412 1.956 . S
Li352 O413 1.970 . S
Li352 O414 1.961 . S
Li353 N377 1.990 . S
Li353 O412 1.970 . S
Li353 O413 1.956 . S
Li353 O415 1.961 . S
Li354 N399 1.990 . S
Li354 O412 1.961 . S
Li354 O414 1.956 . S
Li354 O415 1.970 . S
Li355 N405 1.990 . S
Li355 O413 1.961 . S
Li355 O414 1.970 . S
Li355 O415 1.956 . S
C356 C358 1.348 . S
C356 C359 1.356 . S
C356 O412 1.325 . S
N357 C360 1.314 . S
N357 C361 1.279 . S
C358 C356 1.348 . S
C358 C360 1.353 . S
C358 H416 0.929 . S
C359 C356 1.356 . S
C359 C361 1.358 . S
C359 H417 0.930 . S
C360 N357 1.314 . S
C360 C358 1.353 . S
C360 H418 0.930 . S
C361 N357 1.279 . S
C361 C359 1.358 . S
C361 H419 0.930 . S
C362 C365 1.348 . S
C362 C366 1.356 . S
C362 O413 1.325 . S
C363 N364 1.279 . S
C363 C366 1.358 . S
C363 H420 0.930 . S
N364 C363 1.279 . S
N364 C367 1.314 . S
C365 C362 1.348 . S
C365 C367 1.353 . S
C365 H421 0.929 . S
C366 C362 1.356 . S
C366 C363 1.358 . S
C366 H422 0.930 . S
C367 N364 1.314 . S
C367 C365 1.353 . S
C367 H423 0.930 . S
C368 N369 1.314 . S
C368 C373 1.353 . S
C368 H374 0.930 . S
N369 Li352 1.990 . S
N369 C368 1.314 . S
N369 C371 1.279 . S
C370 C371 1.358 . S
C370 C372 1.356 . S
C370 H424 0.930 . S
C371 N369 1.279 . S
C371 C370 1.358 . S
C371 H375 0.930 . S
C372 C370 1.356 . S
C372 C373 1.348 . S
C373 C368 1.353 . S
C373 C372 1.348 . S
C373 H425 0.929 . S
H374 C368 0.930 . S
H375 C371 0.930 . S
C376 N377 1.314 . S
C376 C378 1.353 . S
C376 H382 0.930 . S
N377 Li353 1.990 . S
N377 C376 1.314 . S
N377 C380 1.279 . S
C378 C376 1.353 . S
C378 C381 1.348 . S
C378 H426 0.929 . S
C379 C380 1.358 . S
C379 C381 1.356 . S
C379 H427 0.930 . S
C380 N377 1.279 . S
C380 C379 1.358 . S
C380 H383 0.930 . S
C381 C378 1.348 . S
C381 C379 1.356 . S
H382 C376 0.930 . S
H383 C380 0.930 . S
C384 C386 1.348 . S
C384 C387 1.356 . S
C384 O414 1.325 . S
N385 C388 1.314 . S
N385 C389 1.279 1_655 S
C386 C384 1.348 . S
C386 C388 1.353 1_455 S
C386 H428 0.929 . S
C387 C384 1.356 . S
C387 C389 1.358 . S
C387 H429 0.930 . S
C388 N385 1.314 . S
C388 C386 1.353 1_655 S
C388 H430 0.930 . S
C389 N385 1.279 1_455 S
C389 C387 1.358 . S
C389 H431 0.930 . S
C390 C391 1.348 . S
C390 C392 1.356 . S
C390 O415 1.325 . S
C391 C390 1.348 . S
C391 C393 1.353 . S
C391 H432 0.929 . S
C392 C390 1.356 . S
C392 C394 1.358 . S
C392 H433 0.930 . S
C393 C391 1.353 . S
C393 N395 1.314 . S
C393 H434 0.930 . S
C394 C392 1.358 . S
C394 N395 1.279 . S
C394 H435 0.930 . S
N395 C393 1.314 . S
N395 C394 1.279 . S
C396 C398 1.353 . S
C396 N399 1.314 . S
C396 H402 0.930 . S
C397 N399 1.279 . S
C397 C400 1.358 . S
C397 H403 0.930 . S
C398 C396 1.353 . S
C398 C401 1.348 . S
C398 H436 0.929 . S
N399 Li354 1.990 . S
N399 C396 1.314 . S
N399 C397 1.279 . S
C400 C397 1.358 . S
C400 C401 1.356 . S
C400 H437 0.930 . S
C401 C398 1.348 . S
C401 C400 1.356 . S
H402 C396 0.930 . S
H403 C397 0.930 . S
C404 N405 1.314 . S
C404 C406 1.353 . S
C404 H410 0.930 . S
N405 Li355 1.990 . S
N405 C404 1.314 . S
N405 C408 1.279 . S
C406 C404 1.353 . S
C406 C409 1.348 1_455 S
C406 H438 0.929 . S
C407 C408 1.358 . S
C407 C409 1.356 1_455 S
C407 H439 0.930 . S
C408 N405 1.279 . S
C408 C407 1.358 . S
C408 H411 0.930 . S
C409 C406 1.348 1_655 S
C409 C407 1.356 1_655 S
H410 C404 0.930 . S
H411 C408 0.930 . S
O412 Li352 1.956 . S
O412 Li353 1.970 . S
O412 Li354 1.961 . S
O412 C356 1.325 . S
O413 Li352 1.970 . S
O413 Li353 1.956 . S
O413 Li355 1.961 . S
O413 C362 1.325 . S
O414 Li352 1.961 . S
O414 Li354 1.956 . S
O414 Li355 1.970 . S
O414 C384 1.325 . S
O415 Li353 1.961 . S
O415 Li354 1.970 . S
O415 Li355 1.956 . S
O415 C390 1.325 . S
H416 C358 0.929 . S
H417 C359 0.930 . S
H418 C360 0.930 . S
H419 C361 0.930 . S
H420 C363 0.930 . S
H421 C365 0.929 . S
H422 C366 0.930 . S
H423 C367 0.930 . S
H424 C370 0.930 . S
H425 C373 0.929 . S
H426 C378 0.929 . S
H427 C379 0.930 . S
H428 C386 0.929 . S
H429 C387 0.930 . S
H430 C388 0.930 . S
H431 C389 0.930 . S
H432 C391 0.929 . S
H433 C392 0.930 . S
H434 C393 0.930 . S
H435 C394 0.930 . S
H436 C398 0.929 . S
H437 C400 0.930 . S
H438 C406 0.929 . S
H439 C407 0.930 . S
Li440 N457 1.990 . S
Li440 O500 1.956 . S
Li440 O501 1.970 . S
Li440 O502 1.961 . S
Li441 N465 1.990 . S
Li441 O500 1.970 . S
Li441 O501 1.956 . S
Li441 O503 1.961 . S
Li442 N487 1.990 . S
Li442 O500 1.961 . S
Li442 O502 1.956 . S
Li442 O503 1.970 . S
Li443 N493 1.990 . S
Li443 O501 1.961 . S
Li443 O502 1.970 . S
Li443 O503 1.956 . S
C444 C446 1.348 . S
C444 C447 1.356 . S
C444 O500 1.325 . S
N445 C448 1.314 . S
N445 C449 1.279 . S
C446 C444 1.348 . S
C446 C448 1.353 . S
C446 H504 0.929 . S
C447 C444 1.356 . S
C447 C449 1.358 . S
C447 H505 0.930 . S
C448 N445 1.314 . S
C448 C446 1.353 . S
C448 H506 0.930 . S
C449 N445 1.279 . S
C449 C447 1.358 . S
C449 H507 0.930 . S
C450 C453 1.348 . S
C450 C454 1.356 . S
C450 O501 1.325 . S
C451 N452 1.279 . S
C451 C454 1.358 . S
C451 H508 0.930 . S
N452 C451 1.279 . S
N452 C455 1.314 . S
C453 C450 1.348 . S
C453 C455 1.353 . S
C453 H509 0.929 . S
C454 C450 1.356 . S
C454 C451 1.358 . S
C454 H510 0.930 . S
C455 N452 1.314 . S
C455 C453 1.353 . S
C455 H511 0.930 . S
C456 N457 1.314 . S
C456 C461 1.353 . S
C456 H462 0.930 . S
N457 Li440 1.990 . S
N457 C456 1.314 . S
N457 C459 1.279 . S
C458 C459 1.358 . S
C458 C460 1.356 . S
C458 H512 0.930 . S
C459 N457 1.279 . S
C459 C458 1.358 . S
C459 H463 0.930 . S
C460 C458 1.356 . S
C460 C461 1.348 . S
C461 C456 1.353 . S
C461 C460 1.348 . S
C461 H513 0.929 . S
H462 C456 0.930 . S
H463 C459 0.930 . S
C464 N465 1.314 . S
C464 C466 1.353 . S
C464 H470 0.930 . S
N465 Li441 1.990 . S
N465 C464 1.314 . S
N465 C468 1.279 . S
C466 C464 1.353 . S
C466 C469 1.348 . S
C466 H514 0.929 . S
C467 C468 1.358 . S
C467 C469 1.356 . S
C467 H515 0.930 . S
C468 N465 1.279 . S
C468 C467 1.358 . S
C468 H471 0.930 . S
C469 C466 1.348 . S
C469 C467 1.356 . S
H470 C464 0.930 . S
H471 C468 0.930 . S
C472 C474 1.348 . S
C472 C475 1.356 . S
C472 O502 1.325 . S
N473 C476 1.314 . S
N473 C477 1.279 . S
C474 C472 1.348 . S
C474 C476 1.353 . S
C474 H516 0.929 . S
C475 C472 1.356 . S
C475 C477 1.358 . S
C475 H517 0.930 . S
C476 N473 1.314 . S
C476 C474 1.353 . S
C476 H518 0.930 . S
C477 N473 1.279 . S
C477 C475 1.358 . S
C477 H519 0.930 . S
C478 C479 1.348 . S
C478 C480 1.356 . S
C478 O503 1.325 . S
C479 C478 1.348 . S
C479 C481 1.353 . S
C479 H520 0.929 . S
C480 C478 1.356 . S
C480 C482 1.358 . S
C480 H521 0.930 . S
C481 C479 1.353 . S
C481 N483 1.314 . S
C481 H522 0.930 . S
C482 C480 1.358 . S
C482 N483 1.279 . S
C482 H523 0.930 . S
N483 C481 1.314 . S
N483 C482 1.279 . S
C484 C486 1.353 . S
C484 N487 1.314 . S
C484 H490 0.930 . S
C485 N487 1.279 . S
C485 C488 1.358 . S
C485 H491 0.930 . S
C486 C484 1.353 . S
C486 C489 1.348 . S
C486 H524 0.929 . S
N487 Li442 1.990 . S
N487 C484 1.314 . S
N487 C485 1.279 . S
C488 C485 1.358 . S
C488 C489 1.356 . S
C488 H525 0.930 . S
C489 C486 1.348 . S
C489 C488 1.356 . S
H490 C484 0.930 . S
H491 C485 0.930 . S
C492 N493 1.314 . S
C492 C494 1.353 . S
C492 H498 0.930 . S
N493 Li443 1.990 . S
N493 C492 1.314 . S
N493 C496 1.279 . S
C494 C492 1.353 . S
C494 C497 1.348 . S
C494 H526 0.929 . S
C495 C496 1.358 . S
C495 C497 1.356 . S
C495 H527 0.930 . S
C496 N493 1.279 . S
C496 C495 1.358 . S
C496 H499 0.930 . S
C497 C494 1.348 . S
C497 C495 1.356 . S
H498 C492 0.930 . S
H499 C496 0.930 . S
O500 Li440 1.956 . S
O500 Li441 1.970 . S
O500 Li442 1.961 . S
O500 C444 1.325 . S
O501 Li440 1.970 . S
O501 Li441 1.956 . S
O501 Li443 1.961 . S
O501 C450 1.325 . S
O502 Li440 1.961 . S
O502 Li442 1.956 . S
O502 Li443 1.970 . S
O502 C472 1.325 . S
O503 Li441 1.961 . S
O503 Li442 1.970 . S
O503 Li443 1.956 . S
O503 C478 1.325 . S
H504 C446 0.929 . S
H505 C447 0.930 . S
H506 C448 0.930 . S
H507 C449 0.930 . S
H508 C451 0.930 . S
H509 C453 0.929 . S
H510 C454 0.930 . S
H511 C455 0.930 . S
H512 C458 0.930 . S
H513 C461 0.929 . S
H514 C466 0.929 . S
H515 C467 0.930 . S
H516 C474 0.929 . S
H517 C475 0.930 . S
H518 C476 0.930 . S
H519 C477 0.930 . S
H520 C479 0.929 . S
H521 C480 0.930 . S
H522 C481 0.930 . S
H523 C482 0.930 . S
H524 C486 0.929 . S
H525 C488 0.930 . S
H526 C494 0.929 . S
H527 C495 0.930 . S
Li528 N545 1.990 . S
Li528 O588 1.956 . S
Li528 O589 1.970 . S
Li528 O590 1.961 . S
Li529 N553 1.990 . S
Li529 O588 1.970 . S
Li529 O589 1.956 . S
Li529 O591 1.961 . S
Li530 N575 1.990 . S
Li530 O588 1.961 . S
Li530 O590 1.956 . S
Li530 O591 1.970 . S
Li531 N581 1.990 . S
Li531 O589 1.961 . S
Li531 O590 1.970 . S
Li531 O591 1.956 . S
C532 C534 1.348 . S
C532 C535 1.356 . S
C532 O588 1.325 . S
N533 C536 1.314 . S
N533 C537 1.279 . S
C534 C532 1.348 . S
C534 C536 1.353 . S
C534 H592 0.929 . S
C535 C532 1.356 . S
C535 C537 1.358 . S
C535 H593 0.930 . S
C536 N533 1.314 . S
C536 C534 1.353 . S
C536 H594 0.930 . S
C537 N533 1.279 . S
C537 C535 1.358 . S
C537 H595 0.930 . S
C538 C541 1.348 . S
C538 C542 1.356 . S
C538 O589 1.325 . S
C539 N540 1.279 . S
C539 C542 1.358 . S
C539 H596 0.930 . S
N540 C539 1.279 . S
N540 C543 1.314 . S
C541 C538 1.348 . S
C541 C543 1.353 . S
C541 H597 0.929 . S
C542 C538 1.356 . S
C542 C539 1.358 . S
C542 H598 0.930 . S
C543 N540 1.314 . S
C543 C541 1.353 . S
C543 H599 0.930 . S
C544 N545 1.314 . S
C544 C549 1.353 . S
C544 H550 0.930 . S
N545 Li528 1.990 . S
N545 C544 1.314 . S
N545 C547 1.279 . S
C546 C547 1.358 . S
C546 C548 1.356 . S
C546 H600 0.930 . S
C547 N545 1.279 . S
C547 C546 1.358 . S
C547 H551 0.930 . S
C548 C546 1.356 . S
C548 C549 1.348 . S
C549 C544 1.353 . S
C549 C548 1.348 . S
C549 H601 0.929 . S
H550 C544 0.930 . S
H551 C547 0.930 . S
C552 N553 1.314 . S
C552 C554 1.353 . S
C552 H558 0.930 . S
N553 Li529 1.990 . S
N553 C552 1.314 . S
N553 C556 1.279 . S
C554 C552 1.353 . S
C554 C557 1.348 . S
C554 H602 0.929 . S
C555 C556 1.358 . S
C555 C557 1.356 . S
C555 H603 0.930 . S
C556 N553 1.279 . S
C556 C555 1.358 . S
C556 H559 0.930 . S
C557 C554 1.348 . S
C557 C555 1.356 . S
H558 C552 0.930 . S
H559 C556 0.930 . S
C560 C562 1.348 . S
C560 C563 1.356 . S
C560 O590 1.325 . S
N561 C564 1.314 . S
N561 C565 1.279 . S
C562 C560 1.348 . S
C562 C564 1.353 . S
C562 H604 0.929 . S
C563 C560 1.356 . S
C563 C565 1.358 . S
C563 H605 0.930 . S
C564 N561 1.314 . S
C564 C562 1.353 . S
C564 H606 0.930 . S
C565 N561 1.279 . S
C565 C563 1.358 . S
C565 H607 0.930 . S
C566 C567 1.348 . S
C566 C568 1.356 . S
C566 O591 1.325 . S
C567 C566 1.348 . S
C567 C569 1.353 . S
C567 H608 0.929 . S
C568 C566 1.356 . S
C568 C570 1.358 . S
C568 H609 0.930 . S
C569 C567 1.353 . S
C569 N571 1.314 . S
C569 H610 0.930 . S
C570 C568 1.358 . S
C570 N571 1.279 . S
C570 H611 0.930 . S
N571 C569 1.314 . S
N571 C570 1.279 . S
C572 C574 1.353 . S
C572 N575 1.314 . S
C572 H578 0.930 . S
C573 N575 1.279 . S
C573 C576 1.358 . S
C573 H579 0.930 . S
C574 C572 1.353 . S
C574 C577 1.348 . S
C574 H612 0.929 . S
N575 Li530 1.990 . S
N575 C572 1.314 . S
N575 C573 1.279 . S
C576 C573 1.358 . S
C576 C577 1.356 . S
C576 H613 0.930 . S
C577 C574 1.348 . S
C577 C576 1.356 . S
H578 C572 0.930 . S
H579 C573 0.930 . S
C580 N581 1.314 . S
C580 C582 1.353 . S
C580 H586 0.930 . S
N581 Li531 1.990 . S
N581 C580 1.314 . S
N581 C584 1.279 . S
C582 C580 1.353 . S
C582 C585 1.348 . S
C582 H614 0.929 . S
C583 C584 1.358 . S
C583 C585 1.356 . S
C583 H615 0.930 . S
C584 N581 1.279 . S
C584 C583 1.358 . S
C584 H587 0.930 . S
C585 C582 1.348 . S
C585 C583 1.356 . S
H586 C580 0.930 . S
H587 C584 0.930 . S
O588 Li528 1.956 . S
O588 Li529 1.970 . S
O588 Li530 1.961 . S
O588 C532 1.325 . S
O589 Li528 1.970 . S
O589 Li529 1.956 . S
O589 Li531 1.961 . S
O589 C538 1.325 . S
O590 Li528 1.961 . S
O590 Li530 1.956 . S
O590 Li531 1.970 . S
O590 C560 1.325 . S
O591 Li529 1.961 . S
O591 Li530 1.970 . S
O591 Li531 1.956 . S
O591 C566 1.325 . S
H592 C534 0.929 . S
H593 C535 0.930 . S
H594 C536 0.930 . S
H595 C537 0.930 . S
H596 C539 0.930 . S
H597 C541 0.929 . S
H598 C542 0.930 . S
H599 C543 0.930 . S
H600 C546 0.930 . S
H601 C549 0.929 . S
H602 C554 0.929 . S
H603 C555 0.930 . S
H604 C562 0.929 . S
H605 C563 0.930 . S
H606 C564 0.930 . S
H607 C565 0.930 . S
H608 C567 0.929 . S
H609 C568 0.930 . S
H610 C569 0.930 . S
H611 C570 0.930 . S
H612 C574 0.929 . S
H613 C576 0.930 . S
H614 C582 0.929 . S
H615 C583 0.930 . S
Li616 N633 1.990 1_556 S
Li616 O676 1.956 1_455 S
Li616 O677 1.970 . S
Li616 O678 1.961 . S
Li617 N641 1.990 . S
Li617 O676 1.970 . S
Li617 O677 1.956 1_655 S
Li617 O679 1.961 . S
Li618 N663 2.002 . S
Li618 O676 1.961 . S
Li618 O678 1.956 1_655 S
Li618 O679 1.970 . S
Li619 N669 1.990 . S
Li619 O677 1.961 . S
Li619 O678 1.970 . S
Li619 O679 1.956 1_455 S
C620 C622 1.348 . S
C620 C623 1.356 1_556 S
C620 O676 1.325 . S
N621 C624 1.314 1_554 S
N621 C625 1.279 . S
C622 C620 1.348 . S
C622 C624 1.353 . S
C622 H680 0.929 . S
C623 C620 1.356 1_554 S
C623 C625 1.358 . S
C623 H681 0.930 . S
C624 N621 1.314 1_556 S
C624 C622 1.353 . S
C624 H682 0.930 . S
C625 N621 1.279 . S
C625 C623 1.358 . S
C625 H683 0.930 . S
C626 C629 1.348 . S
C626 C630 1.356 . S
C626 O677 1.325 . S
C627 N628 1.279 . S
C627 C630 1.358 . S
C627 H684 0.930 . S
N628 C627 1.279 . S
N628 C631 1.314 . S
C629 C626 1.348 . S
C629 C631 1.353 . S
C629 H685 0.929 . S
C630 C626 1.356 . S
C630 C627 1.358 . S
C630 H686 0.930 . S
C631 N628 1.314 . S
C631 C629 1.353 . S
C631 H687 0.930 . S
C632 N633 1.314 . S
C632 C637 1.353 . S
C632 H638 0.930 . S
N633 Li616 1.990 1_554 S
N633 C632 1.314 . S
N633 C635 1.279 1_455 S
C634 C635 1.362 1_455 S
C634 C636 1.368 . S
C634 H688 0.914 1_455 S
C635 N633 1.279 1_655 S
C635 C634 1.362 1_655 S
C635 H639 0.930 . S
C636 C634 1.368 . S
C636 C637 1.348 . S
C637 C632 1.353 . S
C637 C636 1.348 . S
C637 H689 0.929 . S
H638 C632 0.930 . S
H639 C635 0.930 . S
C640 N641 1.314 . S
C640 C642 1.353 . S
C640 H646 0.930 . S
N641 Li617 1.990 . S
N641 C640 1.314 . S
N641 C644 1.279 . S
C642 C640 1.353 . S
C642 C645 1.348 . S
C642 H690 0.929 . S
C643 C644 1.358 . S
C643 C645 1.356 . S
C643 H691 0.930 . S
C644 N641 1.279 . S
C644 C643 1.358 . S
C644 H647 0.930 . S
C645 C642 1.348 . S
C645 C643 1.356 . S
H646 C640 0.930 . S
H647 C644 0.930 . S
C648 C650 1.348 . S
C648 C651 1.356 1_556 S
C648 O678 1.325 . S
N649 C652 1.314 . S
N649 C653 1.279 . S
C650 C648 1.348 . S
C650 C652 1.353 1_556 S
C650 H692 0.929 . S
C651 C648 1.356 1_554 S
C651 C653 1.358 . S
C651 H693 0.930 . S
C652 N649 1.314 . S
C652 C650 1.353 1_554 S
C652 H694 0.940 . S
C653 N649 1.279 . S
C653 C651 1.358 . S
C653 H695 0.930 . S
C654 C655 1.348 . S
C654 C656 1.356 . S
C654 O679 1.325 . S
C655 C654 1.348 . S
C655 C657 1.353 . S
C655 H696 0.929 . S
C656 C654 1.356 . S
C656 C658 1.358 . S
C656 H697 0.930 . S
C657 C655 1.353 . S
C657 N659 1.314 . S
C657 H698 0.930 . S
C658 C656 1.358 . S
C658 N659 1.279 . S
C658 H699 0.930 . S
N659 C657 1.314 . S
N659 C658 1.279 . S
C660 C662 1.353 . S
C660 N663 1.310 1_554 S
C660 H666 0.930 1_554 S
C661 N663 1.271 1_454 S
C661 C664 1.358 . S
C661 H667 0.930 . S
C662 C660 1.353 . S
C662 C665 1.348 . S
C662 H700 0.929 . S
N663 Li618 2.002 . S
N663 C660 1.310 1_556 S
N663 C661 1.271 1_656 S
C664 C661 1.358 . S
C664 C665 1.356 1_455 S
C664 H701 0.930 . S
C665 C662 1.348 . S
C665 C664 1.356 1_655 S
H666 C660 0.930 1_556 S
H667 C661 0.930 . S
C668 N669 1.314 . S
C668 C670 1.353 . S
C668 H674 0.930 . S
N669 Li619 1.990 . S
N669 C668 1.314 . S
N669 C672 1.279 . S
C670 C668 1.353 . S
C670 C673 1.348 . S
C670 H702 0.929 . S
C671 C672 1.358 . S
C671 C673 1.356 . S
C671 H703 0.930 . S
C672 N669 1.279 . S
C672 C671 1.358 . S
C672 H675 0.930 . S
C673 C670 1.348 . S
C673 C671 1.356 . S
H674 C668 0.930 . S
H675 C672 0.930 . S
O676 Li616 1.956 1_655 S
O676 Li617 1.970 . S
O676 Li618 1.961 . S
O676 C620 1.325 . S
O677 Li616 1.970 . S
O677 Li617 1.956 1_455 S
O677 Li619 1.961 . S
O677 C626 1.325 . S
O678 Li616 1.961 . S
O678 Li618 1.956 1_455 S
O678 Li619 1.970 . S
O678 C648 1.325 . S
O679 Li617 1.961 . S
O679 Li618 1.970 . S
O679 Li619 1.956 1_655 S
O679 C654 1.325 . S
H680 C622 0.929 . S
H681 C623 0.930 . S
H682 C624 0.930 . S
H683 C625 0.930 . S
H684 C627 0.930 . S
H685 C629 0.929 . S
H686 C630 0.930 . S
H687 C631 0.930 . S
H688 C634 0.914 1_655 S
H689 C637 0.929 . S
H690 C642 0.929 . S
H691 C643 0.930 . S
H692 C650 0.929 . S
H693 C651 0.930 . S
H694 C652 0.940 . S
H695 C653 0.930 . S
H696 C655 0.929 . S
H697 C656 0.930 . S
H698 C657 0.930 . S
H699 C658 0.930 . S
H700 C662 0.929 . S
H701 C664 0.930 . S
H702 C670 0.929 . S
H703 C671 0.930 . S
Li704 N721 1.990 . S
Li704 O764 1.963 . S
Li704 O765 1.970 . S
Li704 O766 1.961 . S
Li705 N729 1.990 . S
Li705 O764 1.973 1_565 S
Li705 O765 1.956 1_565 S
Li705 O767 1.961 1_565 S
Li706 N751 1.990 . S
Li706 O764 1.969 . S
Li706 O766 1.956 . S
Li706 O767 1.970 . S
Li707 N757 1.990 . S
Li707 O765 1.961 . S
Li707 O766 1.970 . S
Li707 O767 1.956 . S
C708 C710 1.348 . S
C708 C711 1.356 . S
C708 O764 1.316 1_565 S
N709 C712 1.314 . S
N709 C713 1.279 . S
C710 C708 1.348 . S
C710 C712 1.353 . S
C710 H768 0.929 . S
C711 C708 1.356 . S
C711 C713 1.358 . S
C711 H769 0.930 1_565 S
C712 N709 1.314 . S
C712 C710 1.353 . S
C712 H770 0.930 . S
C713 N709 1.279 . S
C713 C711 1.358 . S
C713 H771 0.930 . S
C714 C717 1.348 . S
C714 C718 1.356 . S
C714 O765 1.325 . S
C715 N716 1.279 . S
C715 C718 1.358 . S
C715 H772 0.930 . S
N716 C715 1.279 . S
N716 C719 1.314 . S
C717 C714 1.348 . S
C717 C719 1.353 . S
C717 H773 0.929 . S
C718 C714 1.356 . S
C718 C715 1.358 . S
C718 H774 0.930 . S
C719 N716 1.314 . S
C719 C717 1.353 . S
C719 H775 0.930 . S
C720 N721 1.314 . S
C720 C725 1.353 . S
C720 H726 0.930 . S
N721 Li704 1.990 . S
N721 C720 1.314 . S
N721 C723 1.279 . S
C722 C723 1.358 . S
C722 C724 1.356 . S
C722 H776 0.930 . S
C723 N721 1.279 . S
C723 C722 1.358 . S
C723 H727 0.930 . S
C724 C722 1.356 . S
C724 C725 1.348 . S
C725 C720 1.353 . S
C725 C724 1.348 . S
C725 H777 0.929 . S
H726 C720 0.930 . S
H727 C723 0.930 . S
C728 N729 1.314 . S
C728 C730 1.353 . S
C728 H734 0.930 . S
N729 Li705 1.990 . S
N729 C728 1.314 . S
N729 C732 1.279 . S
C730 C728 1.353 . S
C730 C733 1.348 . S
C730 H778 0.929 . S
C731 C732 1.358 . S
C731 C733 1.356 . S
C731 H779 0.930 . S
C732 N729 1.279 . S
C732 C731 1.358 . S
C732 H735 0.930 . S
C733 C730 1.348 . S
C733 C731 1.356 . S
H734 C728 0.930 . S
H735 C732 0.930 . S
C736 C738 1.348 . S
C736 C739 1.356 . S
C736 O766 1.325 . S
N737 C740 1.314 . S
N737 C741 1.279 . S
C738 C736 1.348 . S
C738 C740 1.353 . S
C738 H780 0.929 . S
C739 C736 1.356 . S
C739 C741 1.358 . S
C739 H781 0.930 . S
C740 N737 1.314 . S
C740 C738 1.353 . S
C740 H782 0.930 . S
C741 N737 1.279 . S
C741 C739 1.358 . S
C741 H783 0.930 . S
C742 C743 1.348 . S
C742 C744 1.356 . S
C742 O767 1.325 . S
C743 C742 1.348 . S
C743 C745 1.353 . S
C743 H784 0.929 . S
C744 C742 1.356 . S
C744 C746 1.358 1_545 S
C744 H785 0.930 1_545 S
C745 C743 1.353 . S
C745 N747 1.314 . S
C745 H786 0.930 . S
C746 C744 1.358 1_565 S
C746 N747 1.279 1_565 S
C746 H787 0.930 . S
N747 C745 1.314 . S
N747 C746 1.279 1_545 S
C748 C750 1.353 . S
C748 N751 1.314 . S
C748 H754 0.930 1_545 S
C749 N751 1.279 . S
C749 C752 1.358 . S
C749 H755 0.930 . S
C750 C748 1.353 . S
C750 C753 1.348 . S
C750 H788 0.929 1_545 S
N751 Li706 1.990 . S
N751 C748 1.314 . S
N751 C749 1.279 . S
C752 C749 1.358 . S
C752 C753 1.356 . S
C752 H789 0.930 . S
C753 C750 1.348 . S
C753 C752 1.356 . S
H754 C748 0.930 1_565 S
H755 C749 0.930 . S
C756 N757 1.314 . S
C756 C758 1.353 . S
C756 H762 0.930 . S
N757 Li707 1.990 . S
N757 C756 1.314 . S
N757 C760 1.279 . S
C758 C756 1.353 . S
C758 C761 1.348 . S
C758 H790 0.929 . S
C759 C760 1.358 . S
C759 C761 1.356 . S
C759 H791 0.930 . S
C760 N757 1.279 . S
C760 C759 1.358 . S
C760 H763 0.930 . S
C761 C758 1.348 . S
C761 C759 1.356 . S
H762 C756 0.930 . S
H763 C760 0.930 . S
O764 Li704 1.963 . S
O764 Li705 1.973 1_545 S
O764 Li706 1.969 . S
O764 C708 1.316 1_545 S
O765 Li704 1.970 . S
O765 Li705 1.956 1_545 S
O765 Li707 1.961 . S
O765 C714 1.325 . S
O766 Li704 1.961 . S
O766 Li706 1.956 . S
O766 Li707 1.970 . S
O766 C736 1.325 . S
O767 Li705 1.961 1_545 S
O767 Li706 1.970 . S
O767 Li707 1.956 . S
O767 C742 1.325 . S
H768 C710 0.929 . S
H769 C711 0.930 1_545 S
H770 C712 0.930 . S
H771 C713 0.930 . S
H772 C715 0.930 . S
H773 C717 0.929 . S
H774 C718 0.930 . S
H775 C719 0.930 . S
H776 C722 0.930 . S
H777 C725 0.929 . S
H778 C730 0.929 . S
H779 C731 0.930 . S
H780 C738 0.929 . S
H781 C739 0.930 . S
H782 C740 0.930 . S
H783 C741 0.930 . S
H784 C743 0.929 . S
H785 C744 0.930 1_565 S
H786 C745 0.930 . S
H787 C746 0.930 . S
H788 C750 0.929 1_565 S
H789 C752 0.930 . S
H790 C758 0.929 . S
H791 C759 0.930 . S
Li792 N809 1.990 . S
Li792 O852 1.956 . S
Li792 O853 1.970 . S
Li792 O854 1.961 . S
Li793 N817 1.990 . S
Li793 O852 1.970 . S
Li793 O853 1.956 . S
Li793 O855 1.961 . S
Li794 N839 1.990 . S
Li794 O852 1.961 . S
Li794 O854 1.956 . S
Li794 O855 1.970 . S
Li795 N845 1.990 . S
Li795 O853 1.961 . S
Li795 O854 1.970 . S
Li795 O855 1.956 . S
C796 C798 1.348 . S
C796 C799 1.356 . S
C796 O852 1.325 . S
N797 C800 1.314 . S
N797 C801 1.279 . S
C798 C796 1.348 . S
C798 C800 1.353 . S
C798 H856 0.929 . S
C799 C796 1.356 . S
C799 C801 1.358 . S
C799 H857 0.930 . S
C800 N797 1.314 . S
C800 C798 1.353 . S
C800 H858 0.930 . S
C801 N797 1.279 . S
C801 C799 1.358 . S
C801 H859 0.930 . S
C802 C805 1.348 . S
C802 C806 1.356 . S
C802 O853 1.325 . S
C803 N804 1.279 . S
C803 C806 1.358 . S
C803 H860 0.930 . S
N804 C803 1.279 . S
N804 C807 1.314 . S
C805 C802 1.348 . S
C805 C807 1.353 . S
C805 H861 0.929 . S
C806 C802 1.356 . S
C806 C803 1.358 . S
C806 H862 0.930 . S
C807 N804 1.314 . S
C807 C805 1.353 . S
C807 H863 0.930 . S
C808 N809 1.314 . S
C808 C813 1.353 . S
C808 H814 0.930 . S
N809 Li792 1.990 . S
N809 C808 1.314 . S
N809 C811 1.279 . S
C810 C811 1.358 . S
C810 C812 1.356 . S
C810 H864 0.930 . S
C811 N809 1.279 . S
C811 C810 1.358 . S
C811 H815 0.930 . S
C812 C810 1.356 . S
C812 C813 1.348 . S
C813 C808 1.353 . S
C813 C812 1.348 . S
C813 H865 0.929 . S
H814 C808 0.930 . S
H815 C811 0.930 . S
C816 N817 1.314 . S
C816 C818 1.353 . S
C816 H822 0.930 . S
N817 Li793 1.990 . S
N817 C816 1.314 . S
N817 C820 1.279 . S
C818 C816 1.353 . S
C818 C821 1.348 . S
C818 H866 0.929 . S
C819 C820 1.358 . S
C819 C821 1.356 . S
C819 H867 0.930 . S
C820 N817 1.279 . S
C820 C819 1.358 . S
C820 H823 0.930 . S
C821 C818 1.348 . S
C821 C819 1.356 . S
H822 C816 0.930 . S
H823 C820 0.930 . S
C824 C826 1.348 . S
C824 C827 1.356 . S
C824 O854 1.325 . S
N825 C828 1.314 . S
N825 C829 1.279 . S
C826 C824 1.348 . S
C826 C828 1.353 . S
C826 H868 0.929 . S
C827 C824 1.356 . S
C827 C829 1.358 . S
C827 H869 0.930 . S
C828 N825 1.314 . S
C828 C826 1.353 . S
C828 H870 0.930 . S
C829 N825 1.279 . S
C829 C827 1.358 . S
C829 H871 0.930 . S
C830 C831 1.348 . S
C830 C832 1.356 . S
C830 O855 1.325 . S
C831 C830 1.348 . S
C831 C833 1.353 . S
C831 H872 0.929 . S
C832 C830 1.356 . S
C832 C834 1.358 . S
C832 H873 0.930 . S
C833 C831 1.353 . S
C833 N835 1.314 . S
C833 H874 0.930 . S
C834 C832 1.358 . S
C834 N835 1.279 . S
C834 H875 0.930 . S
N835 C833 1.314 . S
N835 C834 1.279 . S
C836 C838 1.353 . S
C836 N839 1.314 . S
C836 H842 0.930 . S
C837 N839 1.279 . S
C837 C840 1.358 . S
C837 H843 0.930 . S
C838 C836 1.353 . S
C838 C841 1.348 . S
C838 H876 0.929 . S
N839 Li794 1.990 . S
N839 C836 1.314 . S
N839 C837 1.279 . S
C840 C837 1.358 . S
C840 C841 1.356 . S
C840 H877 0.930 . S
C841 C838 1.348 . S
C841 C840 1.356 . S
H842 C836 0.930 . S
H843 C837 0.930 . S
C844 N845 1.314 . S
C844 C846 1.353 . S
C844 H850 0.930 . S
N845 Li795 1.990 . S
N845 C844 1.314 . S
N845 C848 1.279 . S
C846 C844 1.353 . S
C846 C849 1.348 . S
C846 H878 0.929 . S
C847 C848 1.358 . S
C847 C849 1.356 . S
C847 H879 0.930 . S
C848 N845 1.279 . S
C848 C847 1.358 . S
C848 H851 0.930 . S
C849 C846 1.348 . S
C849 C847 1.356 . S
H850 C844 0.930 . S
H851 C848 0.930 . S
O852 Li792 1.956 . S
O852 Li793 1.970 . S
O852 Li794 1.961 . S
O852 C796 1.325 . S
O853 Li792 1.970 . S
O853 Li793 1.956 . S
O853 Li795 1.961 . S
O853 C802 1.325 . S
O854 Li792 1.961 . S
O854 Li794 1.956 . S
O854 Li795 1.970 . S
O854 C824 1.325 . S
O855 Li793 1.961 . S
O855 Li794 1.970 . S
O855 Li795 1.956 . S
O855 C830 1.325 . S
H856 C798 0.929 . S
H857 C799 0.930 . S
H858 C800 0.930 . S
H859 C801 0.930 . S
H860 C803 0.930 . S
H861 C805 0.929 . S
H862 C806 0.930 . S
H863 C807 0.930 . S
H864 C810 0.930 . S
H865 C813 0.929 . S
H866 C818 0.929 . S
H867 C819 0.930 . S
H868 C826 0.929 . S
H869 C827 0.930 . S
H870 C828 0.930 . S
H871 C829 0.930 . S
H872 C831 0.929 . S
H873 C832 0.930 . S
H874 C833 0.930 . S
H875 C834 0.930 . S
H876 C838 0.929 . S
H877 C840 0.930 . S
H878 C846 0.929 . S
H879 C847 0.930 . S
Li880 N897 1.990 . S
Li880 O940 1.956 . S
Li880 O941 1.970 . S
Li880 O942 1.961 . S
Li881 N905 1.990 . S
Li881 O940 1.970 . S
Li881 O941 1.956 . S
Li881 O943 1.961 . S
Li882 N927 1.990 . S
Li882 O940 1.961 . S
Li882 O942 1.956 . S
Li882 O943 1.970 . S
Li883 N933 1.990 . S
Li883 O941 1.961 . S
Li883 O942 1.970 . S
Li883 O943 1.956 . S
C884 C886 1.348 . S
C884 C887 1.356 . S
C884 O940 1.325 . S
N885 C888 1.314 . S
N885 C889 1.279 . S
C886 C884 1.348 . S
C886 C888 1.353 . S
C886 H944 0.929 . S
C887 C884 1.356 . S
C887 C889 1.358 . S
C887 H945 0.930 . S
C888 N885 1.314 . S
C888 C886 1.353 . S
C888 H946 0.930 1_556 S
C889 N885 1.279 . S
C889 C887 1.358 . S
C889 H947 0.930 . S
C890 C893 1.348 . S
C890 C894 1.356 . S
C890 O941 1.325 . S
C891 N892 1.279 . S
C891 C894 1.358 . S
C891 H948 0.930 . S
N892 C891 1.279 . S
N892 C895 1.314 . S
C893 C890 1.348 . S
C893 C895 1.353 . S
C893 H949 0.929 . S
C894 C890 1.356 . S
C894 C891 1.358 . S
C894 H950 0.930 . S
C895 N892 1.314 . S
C895 C893 1.353 . S
C895 H951 0.930 . S
C896 N897 1.314 . S
C896 C901 1.353 . S
C896 H902 0.930 . S
N897 Li880 1.990 . S
N897 C896 1.314 . S
N897 C899 1.279 . S
C898 C899 1.358 . S
C898 C900 1.356 . S
C898 H952 0.930 . S
C899 N897 1.279 . S
C899 C898 1.358 . S
C899 H903 0.930 . S
C900 C898 1.356 . S
C900 C901 1.348 . S
C901 C896 1.353 . S
C901 C900 1.348 . S
C901 H953 0.929 . S
H902 C896 0.930 . S
H903 C899 0.930 . S
C904 N905 1.314 . S
C904 C906 1.353 . S
C904 H910 0.930 . S
N905 Li881 1.990 . S
N905 C904 1.314 . S
N905 C908 1.279 . S
C906 C904 1.353 . S
C906 C909 1.348 . S
C906 H954 0.929 . S
C907 C908 1.358 . S
C907 C909 1.356 . S
C907 H955 0.930 . S
C908 N905 1.279 . S
C908 C907 1.358 . S
C908 H911 0.930 . S
C909 C906 1.348 . S
C909 C907 1.356 . S
H910 C904 0.930 . S
H911 C908 0.930 . S
C912 C914 1.348 . S
C912 C915 1.356 . S
C912 O942 1.325 . S
N913 C916 1.314 . S
N913 C917 1.279 . S
C914 C912 1.348 . S
C914 C916 1.353 . S
C914 H956 0.929 . S
C915 C912 1.356 . S
C915 C917 1.358 . S
C915 H957 0.930 . S
C916 N913 1.314 . S
C916 C914 1.353 . S
C916 H958 0.930 . S
C917 N913 1.279 . S
C917 C915 1.358 . S
C917 H959 0.930 . S
C918 C919 1.348 . S
C918 C920 1.356 . S
C918 O943 1.325 . S
C919 C918 1.348 . S
C919 C921 1.353 1_545 S
C919 H960 0.929 . S
C920 C918 1.356 . S
C920 C922 1.358 1_545 S
C920 H961 0.930 . S
C921 C919 1.353 1_565 S
C921 N923 1.314 . S
C921 H962 0.930 . S
C922 C920 1.358 1_565 S
C922 N923 1.279 . S
C922 H963 0.930 . S
N923 C921 1.314 . S
N923 C922 1.279 . S
C924 C926 1.353 . S
C924 N927 1.314 . S
C924 H930 0.930 . S
C925 N927 1.279 . S
C925 C928 1.358 . S
C925 H931 0.930 . S
C926 C924 1.353 . S
C926 C929 1.348 1_545 S
C926 H964 0.928 . S
N927 Li882 1.990 . S
N927 C924 1.314 . S
N927 C925 1.279 . S
C928 C925 1.358 . S
C928 C929 1.356 1_545 S
C928 H965 0.930 . S
C929 C926 1.348 1_565 S
C929 C928 1.356 1_565 S
H930 C924 0.930 . S
H931 C925 0.930 . S
C932 N933 1.314 . S
C932 C934 1.353 . S
C932 H938 0.930 . S
N933 Li883 1.990 . S
N933 C932 1.314 . S
N933 C936 1.279 . S
C934 C932 1.353 . S
C934 C937 1.348 . S
C934 H966 0.929 . S
C935 C936 1.358 . S
C935 C937 1.356 . S
C935 H967 0.930 . S
C936 N933 1.279 . S
C936 C935 1.358 . S
C936 H939 0.930 . S
C937 C934 1.348 . S
C937 C935 1.356 . S
H938 C932 0.930 . S
H939 C936 0.930 . S
O940 Li880 1.956 . S
O940 Li881 1.970 . S
O940 Li882 1.961 . S
O940 C884 1.325 . S
O941 Li880 1.970 . S
O941 Li881 1.956 . S
O941 Li883 1.961 . S
O941 C890 1.325 . S
O942 Li880 1.961 . S
O942 Li882 1.956 . S
O942 Li883 1.970 . S
O942 C912 1.325 . S
O943 Li881 1.961 . S
O943 Li882 1.970 . S
O943 Li883 1.956 . S
O943 C918 1.325 . S
H944 C886 0.929 . S
H945 C887 0.930 . S
H946 C888 0.930 1_554 S
H947 C889 0.930 . S
H948 C891 0.930 . S
H949 C893 0.929 . S
H950 C894 0.930 . S
H951 C895 0.930 . S
H952 C898 0.930 . S
H953 C901 0.929 . S
H954 C906 0.929 . S
H955 C907 0.930 . S
H956 C914 0.929 . S
H957 C915 0.930 . S
H958 C916 0.930 . S
H959 C917 0.930 . S
H960 C919 0.929 . S
H961 C920 0.930 . S
H962 C921 0.930 . S
H963 C922 0.930 . S
H964 C926 0.928 . S
H965 C928 0.930 . S
H966 C934 0.929 . S
H967 C935 0.930 . S
Li968 N985 1.990 1_565 S
Li968 O1028 1.956 . S
Li968 O1029 1.970 1_554 S
Li968 O1030 1.961 1_554 S
Li969 N993 1.990 . S
Li969 O1028 1.970 . S
Li969 O1029 1.956 1_554 S
Li969 O1031 1.961 . S
Li970 N1015 1.990 1_565 S
Li970 O1028 1.961 . S
Li970 O1030 1.956 1_554 S
Li970 O1031 1.970 . S
Li971 N1021 1.990 . S
Li971 O1029 1.961 . S
Li971 O1030 1.970 . S
Li971 O1031 1.956 1_556 S
C972 C974 1.348 1_545 S
C972 C975 1.356 . S
C972 O1028 1.325 1_545 S
N973 C976 1.314 . S
N973 C977 1.279 . S
C974 C972 1.348 1_565 S
C974 C976 1.353 1_565 S
C974 H1032 0.929 . S
C975 C972 1.356 . S
C975 C977 1.358 . S
C975 H1033 0.930 . S
C976 N973 1.314 . S
C976 C974 1.353 1_545 S
C976 H1034 0.930 . S
C977 N973 1.279 . S
C977 C975 1.358 . S
C977 H1035 0.930 . S
C978 C981 1.348 1_556 S
C978 C982 1.356 . S
C978 O1029 1.325 . S
C979 N980 1.279 . S
C979 C982 1.358 . S
C979 H1036 0.930 . S
N980 C979 1.279 . S
N980 C983 1.314 . S
C981 C978 1.348 1_554 S
C981 C983 1.353 1_554 S
C981 H1037 0.929 . S
C982 C978 1.356 . S
C982 C979 1.358 . S
C982 H1038 0.930 . S
C983 N980 1.314 . S
C983 C981 1.353 1_556 S
C983 H1039 0.930 1_556 S
C984 N985 1.314 1_556 S
C984 C989 1.353 . S
C984 H990 0.930 1_545 S
N985 Li968 1.990 1_545 S
N985 C984 1.314 1_554 S
N985 C987 1.279 . S
C986 C987 1.358 . S
C986 C988 1.381 . S
C986 H1040 0.930 . S
C987 N985 1.279 . S
C987 C986 1.358 . S
C987 H991 0.930 . S
C988 C986 1.381 . S
C988 C989 1.322 1_554 S
C989 C984 1.353 . S
C989 C988 1.322 1_556 S
C989 H1041 0.929 . S
H990 C984 0.930 1_565 S
H991 C987 0.930 . S
C992 N993 1.314 . S
C992 C994 1.353 . S
C992 H998 0.930 . S
N993 Li969 1.990 . S
N993 C992 1.314 . S
N993 C996 1.279 . S
C994 C992 1.353 . S
C994 C997 1.348 . S
C994 H1042 0.929 . S
C995 C996 1.358 . S
C995 C997 1.356 . S
C995 H1043 0.930 . S
C996 N993 1.279 . S
C996 C995 1.358 . S
C996 H999 0.930 . S
C997 C994 1.348 . S
C997 C995 1.356 . S
H998 C992 0.930 . S
H999 C996 0.930 . S
C1000 C1002 1.348 1_545 S
C1000 C1003 1.356 . S
C1000 O1030 1.325 1_545 S
N1001 C1004 1.314 . S
N1001 C1005 1.279 . S
C1002 C1000 1.348 1_565 S
C1002 C1004 1.353 1_565 S
C1002 H1044 0.929 . S
C1003 C1000 1.356 . S
C1003 C1005 1.358 . S
C1003 H1045 0.930 . S
C1004 N1001 1.314 . S
C1004 C1002 1.353 1_545 S
C1004 H1046 0.930 . S
C1005 N1001 1.279 . S
C1005 C1003 1.358 . S
C1005 H1047 0.930 . S
C1006 C1007 1.347 1_554 S
C1006 C1008 1.357 . S
C1006 O1031 1.325 . S
C1007 C1006 1.347 1_556 S
C1007 C1009 1.353 . S
C1007 H1048 0.929 . S
C1008 C1006 1.357 . S
C1008 C1010 1.358 . S
C1008 H1049 0.930 . S
C1009 C1007 1.353 . S
C1009 N1011 1.314 . S
C1009 H1050 0.930 . S
C1010 C1008 1.358 . S
C1010 N1011 1.279 1_554 S
C1010 H1051 0.930 . S
N1011 C1009 1.314 . S
N1011 C1010 1.279 1_556 S
C1012 C1014 1.353 . S
C1012 N1015 1.314 . S
C1012 H1018 0.930 . S
C1013 N1015 1.279 1_556 S
C1013 C1016 1.358 . S
C1013 H1019 0.930 . S
C1014 C1012 1.353 . S
C1014 C1017 1.348 . S
C1014 H1052 0.929 . S
N1015 Li970 1.990 1_545 S
N1015 C1012 1.314 . S
N1015 C1013 1.279 1_554 S
C1016 C1013 1.358 . S
C1016 C1017 1.356 1_556 S
C1016 H1053 0.930 . S
C1017 C1014 1.348 . S
C1017 C1016 1.356 1_554 S
H1018 C1012 0.930 . S
H1019 C1013 0.930 . S
C1020 N1021 1.314 . S
C1020 C1022 1.353 . S
C1020 H1026 0.930 . S
N1021 Li971 1.990 . S
N1021 C1020 1.314 . S
N1021 C1024 1.279 . S
C1022 C1020 1.353 . S
C1022 C1025 1.348 . S
C1022 H1054 0.929 . S
C1023 C1024 1.358 . S
C1023 C1025 1.356 . S
C1023 H1055 0.930 . S
C1024 N1021 1.279 . S
C1024 C1023 1.358 . S
C1024 H1027 0.930 . S
C1025 C1022 1.348 . S
C1025 C1023 1.356 . S
H1026 C1020 0.930 . S
H1027 C1024 0.930 . S
O1028 Li968 1.956 . S
O1028 Li969 1.970 . S
O1028 Li970 1.961 . S
O1028 C972 1.325 1_565 S
O1029 Li968 1.970 1_556 S
O1029 Li969 1.956 1_556 S
O1029 Li971 1.961 . S
O1029 C978 1.325 . S
O1030 Li968 1.961 1_556 S
O1030 Li970 1.956 1_556 S
O1030 Li971 1.970 . S
O1030 C1000 1.325 1_565 S
O1031 Li969 1.961 . S
O1031 Li970 1.970 . S
O1031 Li971 1.956 1_554 S
O1031 C1006 1.325 . S
H1032 C974 0.929 . S
H1033 C975 0.930 . S
H1034 C976 0.930 . S
H1035 C977 0.930 . S
H1036 C979 0.930 . S
H1037 C981 0.929 . S
H1038 C982 0.930 . S
H1039 C983 0.930 1_554 S
H1040 C986 0.930 . S
H1041 C989 0.929 . S
H1042 C994 0.929 . S
H1043 C995 0.930 . S
H1044 C1002 0.929 . S
H1045 C1003 0.930 . S
H1046 C1004 0.930 . S
H1047 C1005 0.930 . S
H1048 C1007 0.929 . S
H1049 C1008 0.930 . S
H1050 C1009 0.930 . S
H1051 C1010 0.930 . S
H1052 C1014 0.929 . S
H1053 C1016 0.930 . S
H1054 C1022 0.929 . S
H1055 C1023 0.930 . S
Li1056 N1073 1.990 . S
Li1056 O1116 1.956 . S
Li1056 O1117 1.970 . S
Li1056 O1118 1.961 . S
Li1057 N1081 1.990 . S
Li1057 O1116 1.970 . S
Li1057 O1117 1.956 . S
Li1057 O1119 1.961 . S
Li1058 N1103 1.990 . S
Li1058 O1116 1.961 . S
Li1058 O1118 1.956 . S
Li1058 O1119 1.970 . S
Li1059 N1109 1.990 1_554 S
Li1059 O1117 1.961 . S
Li1059 O1118 1.970 . S
Li1059 O1119 1.956 . S
C1060 C1062 1.348 . S
C1060 C1063 1.356 . S
C1060 O1116 1.325 . S
N1061 C1064 1.314 . S
N1061 C1065 1.279 . S
C1062 C1060 1.348 . S
C1062 C1064 1.353 . S
C1062 H1120 0.929 . S
C1063 C1060 1.356 . S
C1063 C1065 1.358 . S
C1063 H1121 0.930 . S
C1064 N1061 1.314 . S
C1064 C1062 1.353 . S
C1064 H1122 0.930 . S
C1065 N1061 1.279 . S
C1065 C1063 1.358 . S
C1065 H1123 0.930 . S
C1066 C1069 1.348 . S
C1066 C1070 1.356 . S
C1066 O1117 1.325 . S
C1067 N1068 1.279 . S
C1067 C1070 1.358 . S
C1067 H1124 0.930 . S
N1068 C1067 1.279 . S
N1068 C1071 1.314 . S
C1069 C1066 1.348 . S
C1069 C1071 1.353 . S
C1069 H1125 0.929 . S
C1070 C1066 1.356 . S
C1070 C1067 1.358 . S
C1070 H1126 0.930 . S
C1071 N1068 1.314 . S
C1071 C1069 1.353 . S
C1071 H1127 0.930 . S
C1072 N1073 1.314 . S
C1072 C1077 1.353 . S
C1072 H1078 0.930 . S
N1073 Li1056 1.990 . S
N1073 C1072 1.314 . S
N1073 C1075 1.279 . S
C1074 C1075 1.358 . S
C1074 C1076 1.356 . S
C1074 H1128 0.930 . S
C1075 N1073 1.279 . S
C1075 C1074 1.358 . S
C1075 H1079 0.930 . S
C1076 C1074 1.356 . S
C1076 C1077 1.348 . S
C1077 C1072 1.353 . S
C1077 C1076 1.348 . S
C1077 H1129 0.929 . S
H1078 C1072 0.930 . S
H1079 C1075 0.930 . S
C1080 N1081 1.314 . S
C1080 C1082 1.353 . S
C1080 H1086 0.930 . S
N1081 Li1057 1.990 . S
N1081 C1080 1.314 . S
N1081 C1084 1.279 . S
C1082 C1080 1.353 . S
C1082 C1085 1.348 . S
C1082 H1130 0.929 . S
C1083 C1084 1.358 . S
C1083 C1085 1.356 . S
C1083 H1131 0.930 . S
C1084 N1081 1.279 . S
C1084 C1083 1.358 . S
C1084 H1087 0.930 . S
C1085 C1082 1.348 . S
C1085 C1083 1.356 . S
H1086 C1080 0.930 . S
H1087 C1084 0.930 . S
C1088 C1090 1.348 . S
C1088 C1091 1.356 . S
C1088 O1118 1.325 1_556 S
N1089 C1092 1.314 . S
N1089 C1093 1.279 . S
C1090 C1088 1.348 . S
C1090 C1092 1.353 . S
C1090 H1132 0.929 . S
C1091 C1088 1.356 . S
C1091 C1093 1.358 . S
C1091 H1133 0.930 1_556 S
C1092 N1089 1.314 . S
C1092 C1090 1.353 . S
C1092 H1134 0.930 . S
C1093 N1089 1.279 . S
C1093 C1091 1.358 . S
C1093 H1135 0.930 . S
C1094 C1095 1.348 . S
C1094 C1096 1.356 . S
C1094 O1119 1.325 . S
C1095 C1094 1.348 . S
C1095 C1097 1.353 . S
C1095 H1136 0.929 . S
C1096 C1094 1.356 . S
C1096 C1098 1.358 . S
C1096 H1137 0.930 . S
C1097 C1095 1.353 . S
C1097 N1099 1.314 . S
C1097 H1138 0.930 . S
C1098 C1096 1.358 . S
C1098 N1099 1.279 . S
C1098 H1139 0.930 . S
N1099 C1097 1.314 . S
N1099 C1098 1.279 . S
C1100 C1102 1.353 . S
C1100 N1103 1.314 . S
C1100 H1106 0.930 . S
C1101 N1103 1.279 . S
C1101 C1104 1.358 . S
C1101 H1107 0.930 . S
C1102 C1100 1.353 . S
C1102 C1105 1.348 . S
C1102 H1140 0.929 . S
N1103 Li1058 1.990 . S
N1103 C1100 1.314 . S
N1103 C1101 1.279 . S
C1104 C1101 1.358 . S
C1104 C1105 1.356 . S
C1104 H1141 0.930 . S
C1105 C1102 1.348 . S
C1105 C1104 1.356 . S
H1106 C1100 0.930 . S
H1107 C1101 0.930 . S
C1108 N1109 1.314 . S
C1108 C1110 1.353 . S
C1108 H1114 0.930 . S
N1109 Li1059 1.990 1_556 S
N1109 C1108 1.314 . S
N1109 C1112 1.279 . S
C1110 C1108 1.353 . S
C1110 C1113 1.348 . S
C1110 H1142 0.929 . S
C1111 C1112 1.358 . S
C1111 C1113 1.356 . S
C1111 H1143 0.930 . S
C1112 N1109 1.279 . S
C1112 C1111 1.358 . S
C1112 H1115 0.930 . S
C1113 C1110 1.348 . S
C1113 C1111 1.356 . S
H1114 C1108 0.930 . S
H1115 C1112 0.930 . S
O1116 Li1056 1.956 . S
O1116 Li1057 1.970 . S
O1116 Li1058 1.961 . S
O1116 C1060 1.325 . S
O1117 Li1056 1.970 . S
O1117 Li1057 1.956 . S
O1117 Li1059 1.961 . S
O1117 C1066 1.325 . S
O1118 Li1056 1.961 . S
O1118 Li1058 1.956 . S
O1118 Li1059 1.970 . S
O1118 C1088 1.325 1_554 S
O1119 Li1057 1.961 . S
O1119 Li1058 1.970 . S
O1119 Li1059 1.956 . S
O1119 C1094 1.325 . S
H1120 C1062 0.929 . S
H1121 C1063 0.930 . S
H1122 C1064 0.930 . S
H1123 C1065 0.930 . S
H1124 C1067 0.930 . S
H1125 C1069 0.929 . S
H1126 C1070 0.930 . S
H1127 C1071 0.930 . S
H1128 C1074 0.930 . S
H1129 C1077 0.929 . S
H1130 C1082 0.929 . S
H1131 C1083 0.930 . S
H1132 C1090 0.929 . S
H1133 C1091 0.930 1_554 S
H1134 C1092 0.930 . S
H1135 C1093 0.930 . S
H1136 C1095 0.929 . S
H1137 C1096 0.930 . S
H1138 C1097 0.930 . S
H1139 C1098 0.930 . S
H1140 C1102 0.929 . S
H1141 C1104 0.930 . S
H1142 C1110 0.929 . S
H1143 C1111 0.930 . S
Li1144 N1161 1.990 . S
Li1144 O1204 1.956 . S
Li1144 O1205 1.970 . S
Li1144 O1206 1.961 . S
Li1145 N1169 1.990 . S
Li1145 O1204 1.970 . S
Li1145 O1205 1.956 . S
Li1145 O1207 1.961 . S
Li1146 N1191 1.990 . S
Li1146 O1204 1.961 . S
Li1146 O1206 1.956 . S
Li1146 O1207 1.970 . S
Li1147 N1197 1.990 . S
Li1147 O1205 1.961 . S
Li1147 O1206 1.970 . S
Li1147 O1207 1.956 . S
C1148 C1150 1.348 . S
C1148 C1151 1.356 . S
C1148 O1204 1.325 . S
N1149 C1152 1.314 . S
N1149 C1153 1.279 . S
C1150 C1148 1.348 . S
C1150 C1152 1.353 . S
C1150 H1208 0.929 . S
C1151 C1148 1.356 . S
C1151 C1153 1.358 . S
C1151 H1209 0.930 . S
C1152 N1149 1.314 . S
C1152 C1150 1.353 . S
C1152 H1210 0.930 . S
C1153 N1149 1.279 . S
C1153 C1151 1.358 . S
C1153 H1211 0.930 . S
C1154 C1157 1.348 . S
C1154 C1158 1.356 . S
C1154 O1205 1.325 . S
C1155 N1156 1.279 . S
C1155 C1158 1.358 . S
C1155 H1212 0.930 . S
N1156 C1155 1.279 . S
N1156 C1159 1.314 . S
C1157 C1154 1.348 . S
C1157 C1159 1.353 . S
C1157 H1213 0.929 . S
C1158 C1154 1.356 . S
C1158 C1155 1.358 . S
C1158 H1214 0.930 . S
C1159 N1156 1.314 . S
C1159 C1157 1.353 . S
C1159 H1215 0.930 . S
C1160 N1161 1.314 . S
C1160 C1165 1.353 . S
C1160 H1166 0.930 . S
N1161 Li1144 1.990 . S
N1161 C1160 1.314 . S
N1161 C1163 1.279 . S
C1162 C1163 1.358 . S
C1162 C1164 1.356 . S
C1162 H1216 0.930 . S
C1163 N1161 1.279 . S
C1163 C1162 1.358 . S
C1163 H1167 0.930 . S
C1164 C1162 1.356 . S
C1164 C1165 1.348 . S
C1165 C1160 1.353 . S
C1165 C1164 1.348 . S
C1165 H1217 0.929 . S
H1166 C1160 0.930 . S
H1167 C1163 0.930 . S
C1168 N1169 1.314 . S
C1168 C1170 1.353 . S
C1168 H1174 0.930 . S
N1169 Li1145 1.990 . S
N1169 C1168 1.314 . S
N1169 C1172 1.279 . S
C1170 C1168 1.353 . S
C1170 C1173 1.348 . S
C1170 H1218 0.929 . S
C1171 C1172 1.358 . S
C1171 C1173 1.356 . S
C1171 H1219 0.930 . S
C1172 N1169 1.279 . S
C1172 C1171 1.358 . S
C1172 H1175 0.930 . S
C1173 C1170 1.348 . S
C1173 C1171 1.356 . S
H1174 C1168 0.930 . S
H1175 C1172 0.930 . S
C1176 C1178 1.348 . S
C1176 C1179 1.356 . S
C1176 O1206 1.325 . S
N1177 C1180 1.314 . S
N1177 C1181 1.279 . S
C1178 C1176 1.348 . S
C1178 C1180 1.353 . S
C1178 H1220 0.929 . S
C1179 C1176 1.356 . S
C1179 C1181 1.358 . S
C1179 H1221 0.930 . S
C1180 N1177 1.314 . S
C1180 C1178 1.353 . S
C1180 H1222 0.930 . S
C1181 N1177 1.279 . S
C1181 C1179 1.358 . S
C1181 H1223 0.930 . S
C1182 C1183 1.348 . S
C1182 C1184 1.356 . S
C1182 O1207 1.325 . S
C1183 C1182 1.348 . S
C1183 C1185 1.353 1_554 S
C1183 H1224 0.929 . S
C1184 C1182 1.356 . S
C1184 C1186 1.358 . S
C1184 H1225 0.930 . S
C1185 C1183 1.353 1_556 S
C1185 N1187 1.314 . S
C1185 H1226 0.930 . S
C1186 C1184 1.358 . S
C1186 N1187 1.279 1_554 S
C1186 H1227 0.930 . S
N1187 C1185 1.314 . S
N1187 C1186 1.279 1_556 S
C1188 C1190 1.353 1_554 S
C1188 N1191 1.314 . S
C1188 H1194 0.930 . S
C1189 N1191 1.279 . S
C1189 C1192 1.327 1_554 S
C1189 H1195 0.930 . S
C1190 C1188 1.353 1_556 S
C1190 C1193 1.348 . S
C1190 H1228 0.929 . S
N1191 Li1146 1.990 . S
N1191 C1188 1.314 . S
N1191 C1189 1.279 . S
C1192 C1189 1.327 1_556 S
C1192 C1193 1.380 . S
C1192 H1229 0.939 . S
C1193 C1190 1.348 . S
C1193 C1192 1.380 . S
H1194 C1188 0.930 . S
H1195 C1189 0.930 . S
C1196 N1197 1.314 . S
C1196 C1198 1.353 . S
C1196 H1202 0.930 . S
N1197 Li1147 1.990 . S
N1197 C1196 1.314 . S
N1197 C1200 1.279 . S
C1198 C1196 1.353 . S
C1198 C1201 1.348 . S
C1198 H1230 0.929 . S
C1199 C1200 1.358 . S
C1199 C1201 1.356 . S
C1199 H1231 0.930 . S
C1200 N1197 1.279 . S
C1200 C1199 1.358 . S
C1200 H1203 0.930 . S
C1201 C1198 1.348 . S
C1201 C1199 1.356 . S
H1202 C1196 0.930 . S
H1203 C1200 0.930 . S
O1204 Li1144 1.956 . S
O1204 Li1145 1.970 . S
O1204 Li1146 1.961 . S
O1204 C1148 1.325 . S
O1205 Li1144 1.970 . S
O1205 Li1145 1.956 . S
O1205 Li1147 1.961 . S
O1205 C1154 1.325 . S
O1206 Li1144 1.961 . S
O1206 Li1146 1.956 . S
O1206 Li1147 1.970 . S
O1206 C1176 1.325 . S
O1207 Li1145 1.961 . S
O1207 Li1146 1.970 . S
O1207 Li1147 1.956 . S
O1207 C1182 1.325 . S
H1208 C1150 0.929 . S
H1209 C1151 0.930 . S
H1210 C1152 0.930 . S
H1211 C1153 0.930 . S
H1212 C1155 0.930 . S
H1213 C1157 0.929 . S
H1214 C1158 0.930 . S
H1215 C1159 0.930 . S
H1216 C1162 0.930 . S
H1217 C1165 0.929 . S
H1218 C1170 0.929 . S
H1219 C1171 0.930 . S
H1220 C1178 0.929 . S
H1221 C1179 0.930 . S
H1222 C1180 0.930 . S
H1223 C1181 0.930 . S
H1224 C1183 0.929 . S
H1225 C1184 0.930 . S
H1226 C1185 0.930 . S
H1227 C1186 0.930 . S
H1228 C1190 0.929 . S
H1229 C1192 0.939 . S
H1230 C1198 0.929 . S
H1231 C1199 0.930 . S
Li1232 N1249 1.990 . S
Li1232 O1292 1.956 . S
Li1232 O1293 1.970 . S
Li1232 O1294 1.961 . S
Li1233 N1257 1.990 . S
Li1233 O1292 1.970 . S
Li1233 O1293 1.956 . S
Li1233 O1295 1.961 . S
Li1234 N1279 1.990 . S
Li1234 O1292 1.961 . S
Li1234 O1294 1.956 . S
Li1234 O1295 1.970 . S
Li1235 N1285 1.990 . S
Li1235 O1293 1.961 . S
Li1235 O1294 1.970 . S
Li1235 O1295 1.956 . S
C1236 C1238 1.348 . S
C1236 C1239 1.356 . S
C1236 O1292 1.325 . S
N1237 C1240 1.314 . S
N1237 C1241 1.279 . S
C1238 C1236 1.348 . S
C1238 C1240 1.353 . S
C1238 H1296 0.929 . S
C1239 C1236 1.356 . S
C1239 C1241 1.358 . S
C1239 H1297 0.930 . S
C1240 N1237 1.314 . S
C1240 C1238 1.353 . S
C1240 H1298 0.930 . S
C1241 N1237 1.279 . S
C1241 C1239 1.358 . S
C1241 H1299 0.930 . S
C1242 C1245 1.348 . S
C1242 C1246 1.356 . S
C1242 O1293 1.325 . S
C1243 N1244 1.279 . S
C1243 C1246 1.358 . S
C1243 H1300 0.930 . S
N1244 C1243 1.279 . S
N1244 C1247 1.314 . S
C1245 C1242 1.348 . S
C1245 C1247 1.353 . S
C1245 H1301 0.929 . S
C1246 C1242 1.356 . S
C1246 C1243 1.358 . S
C1246 H1302 0.930 . S
C1247 N1244 1.314 . S
C1247 C1245 1.353 . S
C1247 H1303 0.930 . S
C1248 N1249 1.314 . S
C1248 C1253 1.353 . S
C1248 H1254 0.930 . S
N1249 Li1232 1.990 . S
N1249 C1248 1.314 . S
N1249 C1251 1.279 . S
C1250 C1251 1.358 . S
C1250 C1252 1.356 . S
C1250 H1304 0.930 . S
C1251 N1249 1.279 . S
C1251 C1250 1.358 . S
C1251 H1255 0.930 . S
C1252 C1250 1.356 . S
C1252 C1253 1.348 . S
C1253 C1248 1.353 . S
C1253 C1252 1.348 . S
C1253 H1305 0.929 . S
H1254 C1248 0.930 . S
H1255 C1251 0.930 . S
C1256 N1257 1.314 . S
C1256 C1258 1.353 . S
C1256 H1262 0.930 . S
N1257 Li1233 1.990 . S
N1257 C1256 1.314 . S
N1257 C1260 1.279 . S
C1258 C1256 1.353 . S
C1258 C1261 1.348 . S
C1258 H1306 0.929 . S
C1259 C1260 1.358 . S
C1259 C1261 1.356 . S
C1259 H1307 0.930 . S
C1260 N1257 1.279 . S
C1260 C1259 1.358 . S
C1260 H1263 0.930 . S
C1261 C1258 1.348 . S
C1261 C1259 1.356 . S
H1262 C1256 0.930 . S
H1263 C1260 0.930 . S
C1264 C1266 1.348 . S
C1264 C1267 1.356 . S
C1264 O1294 1.325 . S
N1265 C1268 1.314 . S
N1265 C1269 1.279 . S
C1266 C1264 1.348 . S
C1266 C1268 1.353 . S
C1266 H1308 0.929 . S
C1267 C1264 1.356 . S
C1267 C1269 1.358 . S
C1267 H1309 0.930 . S
C1268 N1265 1.314 . S
C1268 C1266 1.353 . S
C1268 H1310 0.930 . S
C1269 N1265 1.279 . S
C1269 C1267 1.358 . S
C1269 H1311 0.930 . S
C1270 C1271 1.348 . S
C1270 C1272 1.356 . S
C1270 O1295 1.325 . S
C1271 C1270 1.348 . S
C1271 C1273 1.353 . S
C1271 H1312 0.929 . S
C1272 C1270 1.356 . S
C1272 C1274 1.358 . S
C1272 H1313 0.930 . S
C1273 C1271 1.353 . S
C1273 N1275 1.314 . S
C1273 H1314 0.930 . S
C1274 C1272 1.358 . S
C1274 N1275 1.279 . S
C1274 H1315 0.930 . S
N1275 C1273 1.314 . S
N1275 C1274 1.279 . S
C1276 C1278 1.353 . S
C1276 N1279 1.314 . S
C1276 H1282 0.930 . S
C1277 N1279 1.279 . S
C1277 C1280 1.358 . S
C1277 H1283 0.930 . S
C1278 C1276 1.353 . S
C1278 C1281 1.348 . S
C1278 H1316 0.929 . S
N1279 Li1234 1.990 . S
N1279 C1276 1.314 . S
N1279 C1277 1.279 . S
C1280 C1277 1.358 . S
C1280 C1281 1.356 . S
C1280 H1317 0.930 . S
C1281 C1278 1.348 . S
C1281 C1280 1.356 . S
H1282 C1276 0.930 . S
H1283 C1277 0.930 . S
C1284 N1285 1.314 . S
C1284 C1286 1.353 . S
C1284 H1290 0.930 . S
N1285 Li1235 1.990 . S
N1285 C1284 1.314 . S
N1285 C1288 1.279 . S
C1286 C1284 1.353 . S
C1286 C1289 1.348 . S
C1286 H1318 0.929 . S
C1287 C1288 1.358 . S
C1287 C1289 1.356 . S
C1287 H1319 0.930 . S
C1288 N1285 1.279 . S
C1288 C1287 1.358 . S
C1288 H1291 0.930 . S
C1289 C1286 1.348 . S
C1289 C1287 1.356 . S
H1290 C1284 0.930 . S
H1291 C1288 0.930 . S
O1292 Li1232 1.956 . S
O1292 Li1233 1.970 . S
O1292 Li1234 1.961 . S
O1292 C1236 1.325 . S
O1293 Li1232 1.970 . S
O1293 Li1233 1.956 . S
O1293 Li1235 1.961 . S
O1293 C1242 1.325 . S
O1294 Li1232 1.961 . S
O1294 Li1234 1.956 . S
O1294 Li1235 1.970 . S
O1294 C1264 1.325 . S
O1295 Li1233 1.961 . S
O1295 Li1234 1.970 . S
O1295 Li1235 1.956 . S
O1295 C1270 1.325 . S
H1296 C1238 0.929 . S
H1297 C1239 0.930 . S
H1298 C1240 0.930 . S
H1299 C1241 0.930 . S
H1300 C1243 0.930 . S
H1301 C1245 0.929 . S
H1302 C1246 0.930 . S
H1303 C1247 0.930 . S
H1304 C1250 0.930 . S
H1305 C1253 0.929 . S
H1306 C1258 0.929 . S
H1307 C1259 0.930 . S
H1308 C1266 0.929 . S
H1309 C1267 0.930 . S
H1310 C1268 0.930 . S
H1311 C1269 0.930 . S
H1312 C1271 0.929 . S
H1313 C1272 0.930 . S
H1314 C1273 0.930 . S
H1315 C1274 0.930 . S
H1316 C1278 0.929 . S
H1317 C1280 0.930 . S
H1318 C1286 0.929 . S
H1319 C1287 0.930 . S
Li1320 N1337 1.990 . S
Li1320 O1380 1.956 . S
Li1320 O1381 1.970 . S
Li1320 O1382 1.961 . S
Li1321 N1345 1.990 . S
Li1321 O1380 1.970 . S
Li1321 O1381 1.956 . S
Li1321 O1383 1.961 . S
Li1322 N1367 1.990 . S
Li1322 O1380 1.961 . S
Li1322 O1382 1.956 . S
Li1322 O1383 1.970 . S
Li1323 N1373 1.990 . S
Li1323 O1381 1.961 . S
Li1323 O1382 1.970 . S
Li1323 O1383 1.956 . S
C1324 C1326 1.348 . S
C1324 C1327 1.356 . S
C1324 O1380 1.325 . S
N1325 C1328 1.314 . S
N1325 C1329 1.279 . S
C1326 C1324 1.348 . S
C1326 C1328 1.353 . S
C1326 H1384 0.929 . S
C1327 C1324 1.356 . S
C1327 C1329 1.358 . S
C1327 H1385 0.930 . S
C1328 N1325 1.314 . S
C1328 C1326 1.353 . S
C1328 H1386 0.930 . S
C1329 N1325 1.279 . S
C1329 C1327 1.358 . S
C1329 H1387 0.930 1_565 S
C1330 C1333 1.348 . S
C1330 C1334 1.356 . S
C1330 O1381 1.325 . S
C1331 N1332 1.279 . S
C1331 C1334 1.358 . S
C1331 H1388 0.930 . S
N1332 C1331 1.279 . S
N1332 C1335 1.314 . S
C1333 C1330 1.348 . S
C1333 C1335 1.353 . S
C1333 H1389 0.929 . S
C1334 C1330 1.356 . S
C1334 C1331 1.358 . S
C1334 H1390 0.930 . S
C1335 N1332 1.314 . S
C1335 C1333 1.353 . S
C1335 H1391 0.930 . S
C1336 N1337 1.314 . S
C1336 C1341 1.353 . S
C1336 H1342 0.930 . S
N1337 Li1320 1.990 . S
N1337 C1336 1.314 . S
N1337 C1339 1.279 . S
C1338 C1339 1.358 . S
C1338 C1340 1.356 . S
C1338 H1392 0.930 . S
C1339 N1337 1.279 . S
C1339 C1338 1.358 . S
C1339 H1343 0.930 . S
C1340 C1338 1.356 . S
C1340 C1341 1.348 . S
C1341 C1336 1.353 . S
C1341 C1340 1.348 . S
C1341 H1393 0.929 . S
H1342 C1336 0.930 . S
H1343 C1339 0.930 . S
C1344 N1345 1.314 . S
C1344 C1346 1.353 . S
C1344 H1350 0.930 . S
N1345 Li1321 1.990 . S
N1345 C1344 1.314 . S
N1345 C1348 1.279 . S
C1346 C1344 1.353 . S
C1346 C1349 1.348 . S
C1346 H1394 0.929 . S
C1347 C1348 1.358 . S
C1347 C1349 1.356 . S
C1347 H1395 0.930 . S
C1348 N1345 1.279 . S
C1348 C1347 1.358 . S
C1348 H1351 0.930 . S
C1349 C1346 1.348 . S
C1349 C1347 1.356 . S
H1350 C1344 0.930 . S
H1351 C1348 0.930 . S
C1352 C1354 1.348 . S
C1352 C1355 1.356 . S
C1352 O1382 1.325 . S
N1353 C1356 1.314 . S
N1353 C1357 1.279 . S
C1354 C1352 1.348 . S
C1354 C1356 1.353 . S
C1354 H1396 0.929 . S
C1355 C1352 1.356 . S
C1355 C1357 1.358 . S
C1355 H1397 0.930 . S
C1356 N1353 1.314 . S
C1356 C1354 1.353 . S
C1356 H1398 0.930 . S
C1357 N1353 1.279 . S
C1357 C1355 1.358 . S
C1357 H1399 0.930 . S
C1358 C1359 1.348 . S
C1358 C1360 1.356 . S
C1358 O1383 1.325 . S
C1359 C1358 1.348 . S
C1359 C1361 1.353 . S
C1359 H1400 0.929 . S
C1360 C1358 1.356 . S
C1360 C1362 1.358 . S
C1360 H1401 0.930 . S
C1361 C1359 1.353 . S
C1361 N1363 1.314 . S
C1361 H1402 0.930 . S
C1362 C1360 1.358 . S
C1362 N1363 1.279 . S
C1362 H1403 0.930 . S
N1363 C1361 1.314 . S
N1363 C1362 1.279 . S
C1364 C1366 1.353 . S
C1364 N1367 1.314 . S
C1364 H1370 0.930 . S
C1365 N1367 1.279 . S
C1365 C1368 1.358 . S
C1365 H1371 0.930 . S
C1366 C1364 1.353 . S
C1366 C1369 1.348 . S
C1366 H1404 0.929 . S
N1367 Li1322 1.990 . S
N1367 C1364 1.314 . S
N1367 C1365 1.279 . S
C1368 C1365 1.358 . S
C1368 C1369 1.356 . S
C1368 H1405 0.930 . S
C1369 C1366 1.348 . S
C1369 C1368 1.356 . S
H1370 C1364 0.930 . S
H1371 C1365 0.930 . S
C1372 N1373 1.314 . S
C1372 C1374 1.353 . S
C1372 H1378 0.930 . S
N1373 Li1323 1.990 . S
N1373 C1372 1.314 . S
N1373 C1376 1.279 . S
C1374 C1372 1.353 . S
C1374 C1377 1.348 . S
C1374 H1406 0.929 . S
C1375 C1376 1.358 . S
C1375 C1377 1.356 . S
C1375 H1407 0.930 . S
C1376 N1373 1.279 . S
C1376 C1375 1.358 . S
C1376 H1379 0.930 . S
C1377 C1374 1.348 . S
C1377 C1375 1.356 . S
H1378 C1372 0.930 . S
H1379 C1376 0.930 . S
O1380 Li1320 1.956 . S
O1380 Li1321 1.970 . S
O1380 Li1322 1.961 . S
O1380 C1324 1.325 . S
O1381 Li1320 1.970 . S
O1381 Li1321 1.956 . S
O1381 Li1323 1.961 . S
O1381 C1330 1.325 . S
O1382 Li1320 1.961 . S
O1382 Li1322 1.956 . S
O1382 Li1323 1.970 . S
O1382 C1352 1.325 . S
O1383 Li1321 1.961 . S
O1383 Li1322 1.970 . S
O1383 Li1323 1.956 . S
O1383 C1358 1.325 . S
H1384 C1326 0.929 . S
H1385 C1327 0.930 . S
H1386 C1328 0.930 . S
H1387 C1329 0.930 1_545 S
H1388 C1331 0.930 . S
H1389 C1333 0.929 . S
H1390 C1334 0.930 . S
H1391 C1335 0.930 . S
H1392 C1338 0.930 . S
H1393 C1341 0.929 . S
H1394 C1346 0.929 . S
H1395 C1347 0.930 . S
H1396 C1354 0.929 . S
H1397 C1355 0.930 . S
H1398 C1356 0.930 . S
H1399 C1357 0.930 . S
H1400 C1359 0.929 . S
H1401 C1360 0.930 . S
H1402 C1361 0.930 . S
H1403 C1362 0.930 . S
H1404 C1366 0.929 . S
H1405 C1368 0.930 . S
H1406 C1374 0.929 . S
H1407 C1375 0.930 . S
Li1408 N1425 1.990 . S
Li1408 O1468 1.956 1_545 S
Li1408 O1469 1.970 1_545 S
Li1408 O1470 1.961 . S
Li1409 N1433 1.990 . S
Li1409 O1468 1.970 . S
Li1409 O1469 1.956 . S
Li1409 O1471 1.961 . S
Li1410 N1455 1.990 . S
Li1410 O1468 1.961 1_545 S
Li1410 O1470 1.956 . S
Li1410 O1471 1.970 1_545 S
Li1411 N1461 1.990 . S
Li1411 O1469 1.961 1_545 S
Li1411 O1470 1.970 . S
Li1411 O1471 1.956 1_545 S
C1412 C1414 1.348 . S
C1412 C1415 1.356 . S
C1412 O1468 1.325 . S
N1413 C1416 1.314 . S
N1413 C1417 1.279 . S
C1414 C1412 1.348 . S
C1414 C1416 1.353 . S
C1414 H1472 0.929 . S
C1415 C1412 1.356 . S
C1415 C1417 1.358 . S
C1415 H1473 0.930 . S
C1416 N1413 1.314 . S
C1416 C1414 1.353 . S
C1416 H1474 0.930 . S
C1417 N1413 1.279 . S
C1417 C1415 1.358 . S
C1417 H1475 0.930 1_655 S
C1418 C1421 1.348 . S
C1418 C1422 1.356 . S
C1418 O1469 1.325 . S
C1419 N1420 1.279 . S
C1419 C1422 1.358 . S
C1419 H1476 0.930 . S
N1420 C1419 1.279 . S
N1420 C1423 1.314 . S
C1421 C1418 1.348 . S
C1421 C1423 1.353 . S
C1421 H1477 0.929 . S
C1422 C1418 1.356 . S
C1422 C1419 1.358 . S
C1422 H1478 0.930 . S
C1423 N1420 1.314 . S
C1423 C1421 1.353 . S
C1423 H1479 0.930 . S
C1424 N1425 1.314 . S
C1424 C1429 1.353 1_655 S
C1424 H1430 0.930 . S
N1425 Li1408 1.990 . S
N1425 C1424 1.314 . S
N1425 C1427 1.279 1_545 S
C1426 C1427 1.363 1_445 S
C1426 C1428 1.380 . S
C1426 H1480 0.901 1_545 S
C1427 N1425 1.279 1_565 S
C1427 C1426 1.363 1_665 S
C1427 H1431 0.930 . S
C1428 C1426 1.380 . S
C1428 C1429 1.348 . S
C1429 C1424 1.353 1_455 S
C1429 C1428 1.348 . S
C1429 H1481 0.929 . S
H1430 C1424 0.930 . S
H1431 C1427 0.930 . S
C1432 N1433 1.314 . S
C1432 C1434 1.353 . S
C1432 H1438 0.930 . S
N1433 Li1409 1.990 . S
N1433 C1432 1.314 . S
N1433 C1436 1.279 . S
C1434 C1432 1.353 . S
C1434 C1437 1.348 . S
C1434 H1482 0.929 . S
C1435 C1436 1.358 . S
C1435 C1437 1.356 . S
C1435 H1483 0.930 . S
C1436 N1433 1.279 . S
C1436 C1435 1.358 . S
C1436 H1439 0.930 . S
C1437 C1434 1.348 . S
C1437 C1435 1.356 . S
H1438 C1432 0.930 . S
H1439 C1436 0.930 . S
C1440 C1442 1.348 . S
C1440 C1443 1.350 1_655 S
C1440 O1470 1.325 . S
N1441 C1444 1.314 1_455 S
N1441 C1445 1.279 . S
C1442 C1440 1.348 . S
C1442 C1444 1.353 . S
C1442 H1484 0.929 . S
C1443 C1440 1.350 1_455 S
C1443 C1445 1.361 . S
C1443 H1485 0.934 . S
C1444 N1441 1.314 1_655 S
C1444 C1442 1.353 . S
C1444 H1486 0.930 . S
C1445 N1441 1.279 . S
C1445 C1443 1.361 . S
C1445 H1487 0.930 . S
C1446 C1447 1.348 . S
C1446 C1448 1.356 . S
C1446 O1471 1.325 . S
C1447 C1446 1.348 . S
C1447 C1449 1.353 . S
C1447 H1488 0.929 1_565 S
C1448 C1446 1.356 . S
C1448 C1450 1.358 . S
C1448 H1489 0.930 . S
C1449 C1447 1.353 . S
C1449 N1451 1.314 . S
C1449 H1490 0.930 . S
C1450 C1448 1.358 . S
C1450 N1451 1.279 . S
C1450 H1491 0.930 . S
N1451 C1449 1.314 . S
N1451 C1450 1.279 . S
C1452 C1454 1.353 . S
C1452 N1455 1.314 1_565 S
C1452 H1458 0.930 . S
C1453 N1455 1.279 . S
C1453 C1456 1.358 1_655 S
C1453 H1459 0.930 . S
C1454 C1452 1.353 . S
C1454 C1457 1.351 1_565 S
C1454 H1492 0.929 . S
N1455 Li1410 1.990 . S
N1455 C1452 1.314 1_545 S
N1455 C1453 1.279 . S
C1456 C1453 1.358 1_455 S
C1456 C1457 1.360 1_455 S
C1456 H1493 0.930 . S
C1457 C1454 1.351 1_545 S
C1457 C1456 1.360 1_655 S
H1458 C1452 0.930 . S
H1459 C1453 0.930 . S
C1460 N1461 1.314 . S
C1460 C1462 1.353 . S
C1460 H1466 0.930 . S
N1461 Li1411 1.990 . S
N1461 C1460 1.314 . S
N1461 C1464 1.279 . S
C1462 C1460 1.353 . S
C1462 C1465 1.348 . S
C1462 H1494 0.929 . S
C1463 C1464 1.358 . S
C1463 C1465 1.356 . S
C1463 H1495 0.930 . S
C1464 N1461 1.279 . S
C1464 C1463 1.358 . S
C1464 H1467 0.930 . S
C1465 C1462 1.348 . S
C1465 C1463 1.356 . S
H1466 C1460 0.930 . S
H1467 C1464 0.930 . S
O1468 Li1408 1.956 1_565 S
O1468 Li1409 1.970 . S
O1468 Li1410 1.961 1_565 S
O1468 C1412 1.325 . S
O1469 Li1408 1.970 1_565 S
O1469 Li1409 1.956 . S
O1469 Li1411 1.961 1_565 S
O1469 C1418 1.325 . S
O1470 Li1408 1.961 . S
O1470 Li1410 1.956 . S
O1470 Li1411 1.970 . S
O1470 C1440 1.325 . S
O1471 Li1409 1.961 . S
O1471 Li1410 1.970 1_565 S
O1471 Li1411 1.956 1_565 S
O1471 C1446 1.325 . S
H1472 C1414 0.929 . S
H1473 C1415 0.930 . S
H1474 C1416 0.930 . S
H1475 C1417 0.930 1_455 S
H1476 C1419 0.930 . S
H1477 C1421 0.929 . S
H1478 C1422 0.930 . S
H1479 C1423 0.930 . S
H1480 C1426 0.901 1_565 S
H1481 C1429 0.929 . S
H1482 C1434 0.929 . S
H1483 C1435 0.930 . S
H1484 C1442 0.929 . S
H1485 C1443 0.934 . S
H1486 C1444 0.930 . S
H1487 C1445 0.930 . S
H1488 C1447 0.929 1_545 S
H1489 C1448 0.930 . S
H1490 C1449 0.930 . S
H1491 C1450 0.930 . S
H1492 C1454 0.929 . S
H1493 C1456 0.930 . S
H1494 C1462 0.929 . S
H1495 C1463 0.930 . S
Li1496 N1513 1.990 . S
Li1496 O1556 1.956 . S
Li1496 O1557 1.970 . S
Li1496 O1558 1.961 . S
Li1497 N1521 1.990 . S
Li1497 O1556 1.970 . S
Li1497 O1557 1.956 . S
Li1497 O1559 1.961 . S
Li1498 N1543 1.990 . S
Li1498 O1556 1.961 . S
Li1498 O1558 1.956 . S
Li1498 O1559 1.970 . S
Li1499 N1549 1.990 . S
Li1499 O1557 1.961 . S
Li1499 O1558 1.970 . S
Li1499 O1559 1.956 . S
C1500 C1502 1.348 . S
C1500 C1503 1.356 . S
C1500 O1556 1.325 . S
N1501 C1504 1.314 . S
N1501 C1505 1.279 . S
C1502 C1500 1.348 . S
C1502 C1504 1.353 . S
C1502 H1560 0.929 . S
C1503 C1500 1.356 . S
C1503 C1505 1.358 . S
C1503 H1561 0.930 . S
C1504 N1501 1.314 . S
C1504 C1502 1.353 . S
C1504 H1562 0.930 . S
C1505 N1501 1.279 . S
C1505 C1503 1.358 . S
C1505 H1563 0.930 . S
C1506 C1509 1.348 . S
C1506 C1510 1.356 . S
C1506 O1557 1.325 . S
C1507 N1508 1.279 . S
C1507 C1510 1.358 . S
C1507 H1564 0.930 . S
N1508 C1507 1.279 . S
N1508 C1511 1.314 . S
C1509 C1506 1.348 . S
C1509 C1511 1.353 . S
C1509 H1565 0.929 . S
C1510 C1506 1.356 . S
C1510 C1507 1.358 . S
C1510 H1566 0.930 . S
C1511 N1508 1.314 . S
C1511 C1509 1.353 . S
C1511 H1567 0.930 . S
C1512 N1513 1.314 . S
C1512 C1517 1.353 . S
C1512 H1518 0.930 . S
N1513 Li1496 1.990 . S
N1513 C1512 1.314 . S
N1513 C1515 1.279 . S
C1514 C1515 1.358 . S
C1514 C1516 1.356 . S
C1514 H1568 0.930 . S
C1515 N1513 1.279 . S
C1515 C1514 1.358 . S
C1515 H1519 0.930 . S
C1516 C1514 1.356 . S
C1516 C1517 1.348 . S
C1517 C1512 1.353 . S
C1517 C1516 1.348 . S
C1517 H1569 0.929 . S
H1518 C1512 0.930 . S
H1519 C1515 0.930 . S
C1520 N1521 1.314 . S
C1520 C1522 1.353 . S
C1520 H1526 0.930 . S
N1521 Li1497 1.990 . S
N1521 C1520 1.314 . S
N1521 C1524 1.279 . S
C1522 C1520 1.353 . S
C1522 C1525 1.348 . S
C1522 H1570 0.929 . S
C1523 C1524 1.358 . S
C1523 C1525 1.356 . S
C1523 H1571 0.930 . S
C1524 N1521 1.279 . S
C1524 C1523 1.358 . S
C1524 H1527 0.930 . S
C1525 C1522 1.348 . S
C1525 C1523 1.356 . S
H1526 C1520 0.930 . S
H1527 C1524 0.930 . S
C1528 C1530 1.348 . S
C1528 C1531 1.356 . S
C1528 O1558 1.325 . S
N1529 C1532 1.314 . S
N1529 C1533 1.279 . S
C1530 C1528 1.348 . S
C1530 C1532 1.353 . S
C1530 H1572 0.929 . S
C1531 C1528 1.356 . S
C1531 C1533 1.358 . S
C1531 H1573 0.930 . S
C1532 N1529 1.314 . S
C1532 C1530 1.353 . S
C1532 H1574 0.930 . S
C1533 N1529 1.279 . S
C1533 C1531 1.358 . S
C1533 H1575 0.930 . S
C1534 C1535 1.348 . S
C1534 C1536 1.356 . S
C1534 O1559 1.325 . S
C1535 C1534 1.348 . S
C1535 C1537 1.353 . S
C1535 H1576 0.929 . S
C1536 C1534 1.356 . S
C1536 C1538 1.358 . S
C1536 H1577 0.930 . S
C1537 C1535 1.353 . S
C1537 N1539 1.314 . S
C1537 H1578 0.930 . S
C1538 C1536 1.358 . S
C1538 N1539 1.279 . S
C1538 H1579 0.930 . S
N1539 C1537 1.314 . S
N1539 C1538 1.279 . S
C1540 C1542 1.353 . S
C1540 N1543 1.314 . S
C1540 H1546 0.930 . S
C1541 N1543 1.279 . S
C1541 C1544 1.358 . S
C1541 H1547 0.930 . S
C1542 C1540 1.353 . S
C1542 C1545 1.348 . S
C1542 H1580 0.929 . S
N1543 Li1498 1.990 . S
N1543 C1540 1.314 . S
N1543 C1541 1.279 . S
C1544 C1541 1.358 . S
C1544 C1545 1.356 . S
C1544 H1581 0.930 . S
C1545 C1542 1.348 . S
C1545 C1544 1.356 . S
H1546 C1540 0.930 . S
H1547 C1541 0.930 . S
C1548 N1549 1.314 . S
C1548 C1550 1.353 . S
C1548 H1554 0.930 . S
N1549 Li1499 1.990 . S
N1549 C1548 1.314 . S
N1549 C1552 1.279 . S
C1550 C1548 1.353 . S
C1550 C1553 1.348 . S
C1550 H1582 0.929 . S
C1551 C1552 1.358 . S
C1551 C1553 1.356 . S
C1551 H1583 0.930 . S
C1552 N1549 1.279 . S
C1552 C1551 1.358 . S
C1552 H1555 0.930 . S
C1553 C1550 1.348 . S
C1553 C1551 1.356 . S
H1554 C1548 0.930 . S
H1555 C1552 0.930 . S
O1556 Li1496 1.956 . S
O1556 Li1497 1.970 . S
O1556 Li1498 1.961 . S
O1556 C1500 1.325 . S
O1557 Li1496 1.970 . S
O1557 Li1497 1.956 . S
O1557 Li1499 1.961 . S
O1557 C1506 1.325 . S
O1558 Li1496 1.961 . S
O1558 Li1498 1.956 . S
O1558 Li1499 1.970 . S
O1558 C1528 1.325 . S
O1559 Li1497 1.961 . S
O1559 Li1498 1.970 . S
O1559 Li1499 1.956 . S
O1559 C1534 1.325 . S
H1560 C1502 0.929 . S
H1561 C1503 0.930 . S
H1562 C1504 0.930 . S
H1563 C1505 0.930 . S
H1564 C1507 0.930 . S
H1565 C1509 0.929 . S
H1566 C1510 0.930 . S
H1567 C1511 0.930 . S
H1568 C1514 0.930 . S
H1569 C1517 0.929 . S
H1570 C1522 0.929 . S
H1571 C1523 0.930 . S
H1572 C1530 0.929 . S
H1573 C1531 0.930 . S
H1574 C1532 0.930 . S
H1575 C1533 0.930 . S
H1576 C1535 0.929 . S
H1577 C1536 0.930 . S
H1578 C1537 0.930 . S
H1579 C1538 0.930 . S
H1580 C1542 0.929 . S
H1581 C1544 0.930 . S
H1582 C1550 0.929 . S
H1583 C1551 0.930 . S
Li1584 N1601 1.990 . S
Li1584 O1644 1.956 . S
Li1584 O1645 1.970 . S
Li1584 O1646 1.961 . S
Li1585 N1609 1.990 . S
Li1585 O1644 1.970 . S
Li1585 O1645 1.956 . S
Li1585 O1647 1.961 . S
Li1586 N1631 1.990 . S
Li1586 O1644 1.961 . S
Li1586 O1646 1.956 . S
Li1586 O1647 1.970 . S
Li1587 N1637 1.990 . S
Li1587 O1645 1.961 . S
Li1587 O1646 1.970 . S
Li1587 O1647 1.956 . S
C1588 C1590 1.348 . S
C1588 C1591 1.356 . S
C1588 O1644 1.325 . S
N1589 C1592 1.314 . S
N1589 C1593 1.279 . S
C1590 C1588 1.348 . S
C1590 C1592 1.353 . S
C1590 H1648 0.929 . S
C1591 C1588 1.356 . S
C1591 C1593 1.358 . S
C1591 H1649 0.930 . S
C1592 N1589 1.314 . S
C1592 C1590 1.353 . S
C1592 H1650 0.930 . S
C1593 N1589 1.279 . S
C1593 C1591 1.358 . S
C1593 H1651 0.930 . S
C1594 C1597 1.348 . S
C1594 C1598 1.356 . S
C1594 O1645 1.325 . S
C1595 N1596 1.279 . S
C1595 C1598 1.358 . S
C1595 H1652 0.930 . S
N1596 C1595 1.279 . S
N1596 C1599 1.314 . S
C1597 C1594 1.348 . S
C1597 C1599 1.353 . S
C1597 H1653 0.929 . S
C1598 C1594 1.356 . S
C1598 C1595 1.358 . S
C1598 H1654 0.930 . S
C1599 N1596 1.314 . S
C1599 C1597 1.353 . S
C1599 H1655 0.930 . S
C1600 N1601 1.314 . S
C1600 C1605 1.353 . S
C1600 H1606 0.930 . S
N1601 Li1584 1.990 . S
N1601 C1600 1.314 . S
N1601 C1603 1.279 . S
C1602 C1603 1.358 . S
C1602 C1604 1.356 . S
C1602 H1656 0.930 . S
C1603 N1601 1.279 . S
C1603 C1602 1.358 . S
C1603 H1607 0.930 . S
C1604 C1602 1.356 . S
C1604 C1605 1.348 . S
C1605 C1600 1.353 . S
C1605 C1604 1.348 . S
C1605 H1657 0.929 . S
H1606 C1600 0.930 . S
H1607 C1603 0.930 . S
C1608 N1609 1.314 . S
C1608 C1610 1.353 . S
C1608 H1614 0.930 . S
N1609 Li1585 1.990 . S
N1609 C1608 1.314 . S
N1609 C1612 1.279 . S
C1610 C1608 1.353 . S
C1610 C1613 1.348 . S
C1610 H1658 0.929 . S
C1611 C1612 1.358 . S
C1611 C1613 1.356 . S
C1611 H1659 0.930 . S
C1612 N1609 1.279 . S
C1612 C1611 1.358 . S
C1612 H1615 0.930 . S
C1613 C1610 1.348 . S
C1613 C1611 1.356 . S
H1614 C1608 0.930 . S
H1615 C1612 0.930 . S
C1616 C1618 1.348 . S
C1616 C1619 1.356 . S
C1616 O1646 1.325 . S
N1617 C1620 1.314 . S
N1617 C1621 1.279 . S
C1618 C1616 1.348 . S
C1618 C1620 1.353 . S
C1618 H1660 0.929 . S
C1619 C1616 1.356 . S
C1619 C1621 1.358 . S
C1619 H1661 0.930 . S
C1620 N1617 1.314 . S
C1620 C1618 1.353 . S
C1620 H1662 0.930 . S
C1621 N1617 1.279 . S
C1621 C1619 1.358 . S
C1621 H1663 0.930 . S
C1622 C1623 1.348 . S
C1622 C1624 1.356 . S
C1622 O1647 1.325 . S
C1623 C1622 1.348 . S
C1623 C1625 1.353 . S
C1623 H1664 0.929 . S
C1624 C1622 1.356 . S
C1624 C1626 1.358 . S
C1624 H1665 0.930 . S
C1625 C1623 1.353 . S
C1625 N1627 1.314 . S
C1625 H1666 0.930 . S
C1626 C1624 1.358 . S
C1626 N1627 1.279 . S
C1626 H1667 0.930 . S
N1627 C1625 1.314 . S
N1627 C1626 1.279 . S
C1628 C1630 1.353 . S
C1628 N1631 1.314 . S
C1628 H1634 0.930 . S
C1629 N1631 1.279 . S
C1629 C1632 1.358 . S
C1629 H1635 0.930 . S
C1630 C1628 1.353 . S
C1630 C1633 1.348 . S
C1630 H1668 0.929 . S
N1631 Li1586 1.990 . S
N1631 C1628 1.314 . S
N1631 C1629 1.279 . S
C1632 C1629 1.358 . S
C1632 C1633 1.356 . S
C1632 H1669 0.930 . S
C1633 C1630 1.348 . S
C1633 C1632 1.356 . S
H1634 C1628 0.930 . S
H1635 C1629 0.930 . S
C1636 N1637 1.314 . S
C1636 C1638 1.353 . S
C1636 H1642 0.930 . S
N1637 Li1587 1.990 . S
N1637 C1636 1.314 . S
N1637 C1640 1.279 . S
C1638 C1636 1.353 . S
C1638 C1641 1.348 . S
C1638 H1670 0.929 . S
C1639 C1640 1.358 . S
C1639 C1641 1.356 . S
C1639 H1671 0.930 . S
C1640 N1637 1.279 . S
C1640 C1639 1.358 . S
C1640 H1643 0.930 . S
C1641 C1638 1.348 . S
C1641 C1639 1.356 . S
H1642 C1636 0.930 . S
H1643 C1640 0.930 . S
O1644 Li1584 1.956 . S
O1644 Li1585 1.970 . S
O1644 Li1586 1.961 . S
O1644 C1588 1.325 . S
O1645 Li1584 1.970 . S
O1645 Li1585 1.956 . S
O1645 Li1587 1.961 . S
O1645 C1594 1.325 . S
O1646 Li1584 1.961 . S
O1646 Li1586 1.956 . S
O1646 Li1587 1.970 . S
O1646 C1616 1.325 . S
O1647 Li1585 1.961 . S
O1647 Li1586 1.970 . S
O1647 Li1587 1.956 . S
O1647 C1622 1.325 . S
H1648 C1590 0.929 . S
H1649 C1591 0.930 . S
H1650 C1592 0.930 . S
H1651 C1593 0.930 . S
H1652 C1595 0.930 . S
H1653 C1597 0.929 . S
H1654 C1598 0.930 . S
H1655 C1599 0.930 . S
H1656 C1602 0.930 . S
H1657 C1605 0.929 . S
H1658 C1610 0.929 . S
H1659 C1611 0.930 . S
H1660 C1618 0.929 . S
H1661 C1619 0.930 . S
H1662 C1620 0.930 . S
H1663 C1621 0.930 . S
H1664 C1623 0.929 . S
H1665 C1624 0.930 . S
H1666 C1625 0.930 . S
H1667 C1626 0.930 . S
H1668 C1630 0.929 . S
H1669 C1632 0.930 . S
H1670 C1638 0.929 . S
H1671 C1639 0.930 . S
Li1672 N1689 1.990 . S
Li1672 O1732 1.956 . S
Li1672 O1733 1.970 . S
Li1672 O1734 1.961 . S
Li1673 N1697 1.990 . S
Li1673 O1732 1.970 . S
Li1673 O1733 1.956 . S
Li1673 O1735 1.961 . S
Li1674 N1719 1.990 . S
Li1674 O1732 1.961 . S
Li1674 O1734 1.956 . S
Li1674 O1735 1.970 . S
Li1675 N1725 1.990 . S
Li1675 O1733 1.961 . S
Li1675 O1734 1.970 . S
Li1675 O1735 1.956 . S
C1676 C1678 1.348 . S
C1676 C1679 1.356 . S
C1676 O1732 1.325 . S
N1677 C1680 1.314 . S
N1677 C1681 1.279 . S
C1678 C1676 1.348 . S
C1678 C1680 1.353 . S
C1678 H1736 0.929 . S
C1679 C1676 1.356 . S
C1679 C1681 1.358 . S
C1679 H1737 0.930 . S
C1680 N1677 1.314 . S
C1680 C1678 1.353 . S
C1680 H1738 0.930 . S
C1681 N1677 1.279 . S
C1681 C1679 1.358 . S
C1681 H1739 0.930 . S
C1682 C1685 1.348 . S
C1682 C1686 1.356 . S
C1682 O1733 1.325 . S
C1683 N1684 1.279 . S
C1683 C1686 1.358 . S
C1683 H1740 0.930 . S
N1684 C1683 1.279 . S
N1684 C1687 1.314 . S
C1685 C1682 1.348 . S
C1685 C1687 1.353 . S
C1685 H1741 0.929 . S
C1686 C1682 1.356 . S
C1686 C1683 1.358 . S
C1686 H1742 0.930 . S
C1687 N1684 1.314 . S
C1687 C1685 1.353 . S
C1687 H1743 0.930 . S
C1688 N1689 1.314 . S
C1688 C1693 1.353 . S
C1688 H1694 0.930 . S
N1689 Li1672 1.990 . S
N1689 C1688 1.314 . S
N1689 C1691 1.279 . S
C1690 C1691 1.358 . S
C1690 C1692 1.356 . S
C1690 H1744 0.930 . S
C1691 N1689 1.279 . S
C1691 C1690 1.358 . S
C1691 H1695 0.930 . S
C1692 C1690 1.356 . S
C1692 C1693 1.348 . S
C1693 C1688 1.353 . S
C1693 C1692 1.348 . S
C1693 H1745 0.929 . S
H1694 C1688 0.930 . S
H1695 C1691 0.930 . S
C1696 N1697 1.314 . S
C1696 C1698 1.353 . S
C1696 H1702 0.930 . S
N1697 Li1673 1.990 . S
N1697 C1696 1.314 . S
N1697 C1700 1.279 . S
C1698 C1696 1.353 . S
C1698 C1701 1.348 . S
C1698 H1746 0.929 . S
C1699 C1700 1.358 . S
C1699 C1701 1.356 . S
C1699 H1747 0.930 . S
C1700 N1697 1.279 . S
C1700 C1699 1.358 . S
C1700 H1703 0.930 . S
C1701 C1698 1.348 . S
C1701 C1699 1.356 . S
H1702 C1696 0.930 . S
H1703 C1700 0.930 . S
C1704 C1706 1.348 1_545 S
C1704 C1707 1.356 1_545 S
C1704 O1734 1.325 . S
N1705 C1708 1.314 . S
N1705 C1709 1.279 . S
C1706 C1704 1.348 1_565 S
C1706 C1708 1.353 . S
C1706 H1748 0.929 . S
C1707 C1704 1.356 1_565 S
C1707 C1709 1.358 . S
C1707 H1749 0.930 1_565 S
C1708 N1705 1.314 . S
C1708 C1706 1.353 . S
C1708 H1750 0.930 . S
C1709 N1705 1.279 . S
C1709 C1707 1.358 . S
C1709 H1751 0.930 . S
C1710 C1711 1.348 . S
C1710 C1712 1.356 . S
C1710 O1735 1.325 . S
C1711 C1710 1.348 . S
C1711 C1713 1.353 . S
C1711 H1752 0.929 . S
C1712 C1710 1.356 . S
C1712 C1714 1.358 . S
C1712 H1753 0.930 . S
C1713 C1711 1.353 . S
C1713 N1715 1.314 . S
C1713 H1754 0.930 . S
C1714 C1712 1.358 . S
C1714 N1715 1.279 . S
C1714 H1755 0.930 . S
N1715 C1713 1.314 . S
N1715 C1714 1.279 . S
C1716 C1718 1.353 . S
C1716 N1719 1.314 . S
C1716 H1722 0.930 . S
C1717 N1719 1.279 . S
C1717 C1720 1.358 . S
C1717 H1723 0.930 . S
C1718 C1716 1.353 . S
C1718 C1721 1.348 . S
C1718 H1756 0.929 . S
N1719 Li1674 1.990 . S
N1719 C1716 1.314 . S
N1719 C1717 1.279 . S
C1720 C1717 1.358 . S
C1720 C1721 1.356 . S
C1720 H1757 0.930 1_545 S
C1721 C1718 1.348 . S
C1721 C1720 1.356 . S
H1722 C1716 0.930 . S
H1723 C1717 0.930 . S
C1724 N1725 1.314 . S
C1724 C1726 1.353 1_545 S
C1724 H1730 0.930 . S
N1725 Li1675 1.990 . S
N1725 C1724 1.314 . S
N1725 C1728 1.279 . S
C1726 C1724 1.353 1_565 S
C1726 C1729 1.348 . S
C1726 H1758 0.929 . S
C1727 C1728 1.358 1_565 S
C1727 C1729 1.356 . S
C1727 H1759 0.930 . S
C1728 N1725 1.279 . S
C1728 C1727 1.358 1_545 S
C1728 H1731 0.930 . S
C1729 C1726 1.348 . S
C1729 C1727 1.356 . S
H1730 C1724 0.930 . S
H1731 C1728 0.930 . S
O1732 Li1672 1.956 . S
O1732 Li1673 1.970 . S
O1732 Li1674 1.961 . S
O1732 C1676 1.325 . S
O1733 Li1672 1.970 . S
O1733 Li1673 1.956 . S
O1733 Li1675 1.961 . S
O1733 C1682 1.325 . S
O1734 Li1672 1.961 . S
O1734 Li1674 1.956 . S
O1734 Li1675 1.970 . S
O1734 C1704 1.325 . S
O1735 Li1673 1.961 . S
O1735 Li1674 1.970 . S
O1735 Li1675 1.956 . S
O1735 C1710 1.325 . S
H1736 C1678 0.929 . S
H1737 C1679 0.930 . S
H1738 C1680 0.930 . S
H1739 C1681 0.930 . S
H1740 C1683 0.930 . S
H1741 C1685 0.929 . S
H1742 C1686 0.930 . S
H1743 C1687 0.930 . S
H1744 C1690 0.930 . S
H1745 C1693 0.929 . S
H1746 C1698 0.929 . S
H1747 C1699 0.930 . S
H1748 C1706 0.929 . S
H1749 C1707 0.930 1_545 S
H1750 C1708 0.930 . S
H1751 C1709 0.930 . S
H1752 C1711 0.929 . S
H1753 C1712 0.930 . S
H1754 C1713 0.930 . S
H1755 C1714 0.930 . S
H1756 C1718 0.929 . S
H1757 C1720 0.930 1_565 S
H1758 C1726 0.929 . S
H1759 C1727 0.930 . S
Li1760 N1777 1.990 . S
Li1760 O1820 1.956 . S
Li1760 O1821 1.970 . S
Li1760 O1822 1.961 . S
Li1761 N1785 1.990 . S
Li1761 O1820 1.970 . S
Li1761 O1821 1.956 . S
Li1761 O1823 1.961 . S
Li1762 N1807 1.990 1_554 S
Li1762 O1820 1.961 . S
Li1762 O1822 1.956 . S
Li1762 O1823 1.970 . S
Li1763 N1813 1.990 . S
Li1763 O1821 1.961 . S
Li1763 O1822 1.970 . S
Li1763 O1823 1.956 . S
C1764 C1766 1.348 . S
C1764 C1767 1.356 . S
C1764 O1820 1.325 . S
N1765 C1768 1.314 . S
N1765 C1769 1.279 . S
C1766 C1764 1.348 . S
C1766 C1768 1.353 . S
C1766 H1824 0.929 . S
C1767 C1764 1.356 . S
C1767 C1769 1.358 . S
C1767 H1825 0.930 . S
C1768 N1765 1.314 . S
C1768 C1766 1.353 . S
C1768 H1826 0.930 . S
C1769 N1765 1.279 . S
C1769 C1767 1.358 . S
C1769 H1827 0.930 . S
C1770 C1773 1.348 . S
C1770 C1774 1.356 . S
C1770 O1821 1.325 . S
C1771 N1772 1.279 . S
C1771 C1774 1.358 . S
C1771 H1828 0.930 . S
N1772 C1771 1.279 . S
N1772 C1775 1.314 . S
C1773 C1770 1.348 . S
C1773 C1775 1.353 . S
C1773 H1829 0.929 . S
C1774 C1770 1.356 . S
C1774 C1771 1.358 . S
C1774 H1830 0.930 . S
C1775 N1772 1.314 . S
C1775 C1773 1.353 . S
C1775 H1831 0.930 . S
C1776 N1777 1.314 . S
C1776 C1781 1.353 . S
C1776 H1782 0.930 . S
N1777 Li1760 1.990 . S
N1777 C1776 1.314 . S
N1777 C1779 1.279 . S
C1778 C1779 1.358 . S
C1778 C1780 1.356 . S
C1778 H1832 0.930 . S
C1779 N1777 1.279 . S
C1779 C1778 1.358 . S
C1779 H1783 0.930 . S
C1780 C1778 1.356 . S
C1780 C1781 1.348 . S
C1781 C1776 1.353 . S
C1781 C1780 1.348 . S
C1781 H1833 0.929 . S
H1782 C1776 0.930 . S
H1783 C1779 0.930 . S
C1784 N1785 1.314 . S
C1784 C1786 1.353 . S
C1784 H1790 0.930 . S
N1785 Li1761 1.990 . S
N1785 C1784 1.314 . S
N1785 C1788 1.279 . S
C1786 C1784 1.353 . S
C1786 C1789 1.348 . S
C1786 H1834 0.929 . S
C1787 C1788 1.358 . S
C1787 C1789 1.356 . S
C1787 H1835 0.930 . S
C1788 N1785 1.279 . S
C1788 C1787 1.358 . S
C1788 H1791 0.930 . S
C1789 C1786 1.348 . S
C1789 C1787 1.356 . S
H1790 C1784 0.930 . S
H1791 C1788 0.930 . S
C1792 C1794 1.348 . S
C1792 C1795 1.356 . S
C1792 O1822 1.325 . S
N1793 C1796 1.314 . S
N1793 C1797 1.279 . S
C1794 C1792 1.348 . S
C1794 C1796 1.353 . S
C1794 H1836 0.929 . S
C1795 C1792 1.356 . S
C1795 C1797 1.358 . S
C1795 H1837 0.930 . S
C1796 N1793 1.314 . S
C1796 C1794 1.353 . S
C1796 H1838 0.930 . S
C1797 N1793 1.279 . S
C1797 C1795 1.358 . S
C1797 H1839 0.930 . S
C1798 C1799 1.348 . S
C1798 C1800 1.356 . S
C1798 O1823 1.325 1_556 S
C1799 C1798 1.348 . S
C1799 C1801 1.353 . S
C1799 H1840 0.929 . S
C1800 C1798 1.356 . S
C1800 C1802 1.358 . S
C1800 H1841 0.930 1_556 S
C1801 C1799 1.353 . S
C1801 N1803 1.314 . S
C1801 H1842 0.930 . S
C1802 C1800 1.358 . S
C1802 N1803 1.279 . S
C1802 H1843 0.930 . S
N1803 C1801 1.314 . S
N1803 C1802 1.279 . S
C1804 C1806 1.353 . S
C1804 N1807 1.314 . S
C1804 H1810 0.930 . S
C1805 N1807 1.279 . S
C1805 C1808 1.358 . S
C1805 H1811 0.930 . S
C1806 C1804 1.353 . S
C1806 C1809 1.348 . S
C1806 H1844 0.929 . S
N1807 Li1762 1.990 1_556 S
N1807 C1804 1.314 . S
N1807 C1805 1.279 . S
C1808 C1805 1.358 . S
C1808 C1809 1.356 . S
C1808 H1845 0.930 . S
C1809 C1806 1.348 . S
C1809 C1808 1.356 . S
H1810 C1804 0.930 . S
H1811 C1805 0.930 . S
C1812 N1813 1.314 . S
C1812 C1814 1.353 . S
C1812 H1818 0.930 . S
N1813 Li1763 1.990 . S
N1813 C1812 1.314 . S
N1813 C1816 1.279 . S
C1814 C1812 1.353 . S
C1814 C1817 1.348 . S
C1814 H1846 0.929 . S
C1815 C1816 1.358 . S
C1815 C1817 1.356 . S
C1815 H1847 0.930 1_554 S
C1816 N1813 1.279 . S
C1816 C1815 1.358 . S
C1816 H1819 0.930 1_554 S
C1817 C1814 1.348 . S
C1817 C1815 1.356 . S
H1818 C1812 0.930 . S
H1819 C1816 0.930 1_556 S
O1820 Li1760 1.956 . S
O1820 Li1761 1.970 . S
O1820 Li1762 1.961 . S
O1820 C1764 1.325 . S
O1821 Li1760 1.970 . S
O1821 Li1761 1.956 . S
O1821 Li1763 1.961 . S
O1821 C1770 1.325 . S
O1822 Li1760 1.961 . S
O1822 Li1762 1.956 . S
O1822 Li1763 1.970 . S
O1822 C1792 1.325 . S
O1823 Li1761 1.961 . S
O1823 Li1762 1.970 . S
O1823 Li1763 1.956 . S
O1823 C1798 1.325 1_554 S
H1824 C1766 0.929 . S
H1825 C1767 0.930 . S
H1826 C1768 0.930 . S
H1827 C1769 0.930 . S
H1828 C1771 0.930 . S
H1829 C1773 0.929 . S
H1830 C1774 0.930 . S
H1831 C1775 0.930 . S
H1832 C1778 0.930 . S
H1833 C1781 0.929 . S
H1834 C1786 0.929 . S
H1835 C1787 0.930 . S
H1836 C1794 0.929 . S
H1837 C1795 0.930 . S
H1838 C1796 0.930 . S
H1839 C1797 0.930 . S
H1840 C1799 0.929 . S
H1841 C1800 0.930 1_554 S
H1842 C1801 0.930 . S
H1843 C1802 0.930 . S
H1844 C1806 0.929 . S
H1845 C1808 0.930 . S
H1846 C1814 0.929 . S
H1847 C1815 0.930 1_556 S
Li1848 N1865 1.990 . S
Li1848 O1908 1.956 . S
Li1848 O1909 1.970 . S
Li1848 O1910 1.961 . S
Li1849 N1873 1.998 . S
Li1849 O1908 1.970 . S
Li1849 O1909 1.956 . S
Li1849 O1911 1.961 . S
Li1850 N1895 1.990 . S
Li1850 O1908 1.961 . S
Li1850 O1910 1.956 . S
Li1850 O1911 1.970 . S
Li1851 N1901 1.990 . S
Li1851 O1909 1.961 . S
Li1851 O1910 1.970 . S
Li1851 O1911 1.956 . S
C1852 C1854 1.348 . S
C1852 C1855 1.356 . S
C1852 O1908 1.325 . S
N1853 C1856 1.314 . S
N1853 C1857 1.279 . S
C1854 C1852 1.348 . S
C1854 C1856 1.353 . S
C1854 H1912 0.929 . S
C1855 C1852 1.356 . S
C1855 C1857 1.358 . S
C1855 H1913 0.930 . S
C1856 N1853 1.314 . S
C1856 C1854 1.353 . S
C1856 H1914 0.930 . S
C1857 N1853 1.279 . S
C1857 C1855 1.358 . S
C1857 H1915 0.930 . S
C1858 C1861 1.348 . S
C1858 C1862 1.356 1_655 S
C1858 O1909 1.325 . S
C1859 N1860 1.279 . S
C1859 C1862 1.358 . S
C1859 H1916 0.930 . S
N1860 C1859 1.279 . S
N1860 C1863 1.314 1_455 S
C1861 C1858 1.348 . S
C1861 C1863 1.353 . S
C1861 H1917 0.929 . S
C1862 C1858 1.356 1_455 S
C1862 C1859 1.358 . S
C1862 H1918 0.930 . S
C1863 N1860 1.314 1_655 S
C1863 C1861 1.353 . S
C1863 H1919 0.930 . S
C1864 N1865 1.314 . S
C1864 C1869 1.353 . S
C1864 H1870 0.930 . S
N1865 Li1848 1.990 . S
N1865 C1864 1.314 . S
N1865 C1867 1.279 . S
C1866 C1867 1.358 . S
C1866 C1868 1.356 . S
C1866 H1920 0.930 . S
C1867 N1865 1.279 . S
C1867 C1866 1.358 . S
C1867 H1871 0.930 . S
C1868 C1866 1.356 . S
C1868 C1869 1.348 . S
C1869 C1864 1.353 . S
C1869 C1868 1.348 . S
C1869 H1921 0.929 . S
H1870 C1864 0.930 . S
H1871 C1867 0.930 . S
C1872 N1873 1.315 1_455 S
C1872 C1874 1.353 . S
C1872 H1878 0.951 . S
N1873 Li1849 1.998 . S
N1873 C1872 1.315 1_655 S
N1873 C1876 1.271 1_655 S
C1874 C1872 1.353 . S
C1874 C1877 1.348 . S
C1874 H1922 0.929 . S
C1875 C1876 1.358 . S
C1875 C1877 1.356 . S
C1875 H1923 0.930 . S
C1876 N1873 1.271 1_455 S
C1876 C1875 1.358 . S
C1876 H1879 0.930 . S
C1877 C1874 1.348 . S
C1877 C1875 1.356 . S
H1878 C1872 0.951 . S
H1879 C1876 0.930 . S
C1880 C1882 1.348 . S
C1880 C1883 1.356 . S
C1880 O1910 1.325 . S
N1881 C1884 1.314 . S
N1881 C1885 1.279 . S
C1882 C1880 1.348 . S
C1882 C1884 1.353 . S
C1882 H1924 0.929 . S
C1883 C1880 1.356 . S
C1883 C1885 1.358 . S
C1883 H1925 0.930 . S
C1884 N1881 1.314 . S
C1884 C1882 1.353 . S
C1884 H1926 0.930 . S
C1885 N1881 1.279 . S
C1885 C1883 1.358 . S
C1885 H1927 0.930 . S
C1886 C1887 1.348 . S
C1886 C1888 1.356 1_655 S
C1886 O1911 1.325 . S
C1887 C1886 1.348 . S
C1887 C1889 1.353 1_655 S
C1887 H1928 0.929 . S
C1888 C1886 1.356 1_455 S
C1888 C1890 1.358 . S
C1888 H1929 0.930 . S
C1889 C1887 1.353 1_455 S
C1889 N1891 1.314 . S
C1889 H1930 0.930 . S
C1890 C1888 1.358 . S
C1890 N1891 1.279 . S
C1890 H1931 0.930 . S
N1891 C1889 1.314 . S
N1891 C1890 1.279 . S
C1892 C1894 1.353 . S
C1892 N1895 1.314 . S
C1892 H1898 0.930 . S
C1893 N1895 1.279 . S
C1893 C1896 1.358 . S
C1893 H1899 0.930 . S
C1894 C1892 1.353 . S
C1894 C1897 1.348 . S
C1894 H1932 0.929 . S
N1895 Li1850 1.990 . S
N1895 C1892 1.314 . S
N1895 C1893 1.279 . S
C1896 C1893 1.358 . S
C1896 C1897 1.356 . S
C1896 H1933 0.930 . S
C1897 C1894 1.348 . S
C1897 C1896 1.356 . S
H1898 C1892 0.930 . S
H1899 C1893 0.930 . S
C1900 N1901 1.314 . S
C1900 C1902 1.353 1_655 S
C1900 H1906 0.930 . S
N1901 Li1851 1.990 . S
N1901 C1900 1.314 . S
N1901 C1904 1.279 1_655 S
C1902 C1900 1.353 1_455 S
C1902 C1905 1.348 . S
C1902 H1934 0.929 . S
C1903 C1904 1.358 . S
C1903 C1905 1.356 . S
C1903 H1935 0.930 . S
C1904 N1901 1.279 1_455 S
C1904 C1903 1.358 . S
C1904 H1907 0.930 . S
C1905 C1902 1.348 . S
C1905 C1903 1.356 . S
H1906 C1900 0.930 . S
H1907 C1904 0.930 . S
O1908 Li1848 1.956 . S
O1908 Li1849 1.970 . S
O1908 Li1850 1.961 . S
O1908 C1852 1.325 . S
O1909 Li1848 1.970 . S
O1909 Li1849 1.956 . S
O1909 Li1851 1.961 . S
O1909 C1858 1.325 . S
O1910 Li1848 1.961 . S
O1910 Li1850 1.956 . S
O1910 Li1851 1.970 . S
O1910 C1880 1.325 . S
O1911 Li1849 1.961 . S
O1911 Li1850 1.970 . S
O1911 Li1851 1.956 . S
O1911 C1886 1.325 . S
H1912 C1854 0.929 . S
H1913 C1855 0.930 . S
H1914 C1856 0.930 . S
H1915 C1857 0.930 . S
H1916 C1859 0.930 . S
H1917 C1861 0.929 . S
H1918 C1862 0.930 . S
H1919 C1863 0.930 . S
H1920 C1866 0.930 . S
H1921 C1869 0.929 . S
H1922 C1874 0.929 . S
H1923 C1875 0.930 . S
H1924 C1882 0.929 . S
H1925 C1883 0.930 . S
H1926 C1884 0.930 . S
H1927 C1885 0.930 . S
H1928 C1887 0.929 . S
H1929 C1888 0.930 . S
H1930 C1889 0.930 . S
H1931 C1890 0.930 . S
H1932 C1894 0.929 . S
H1933 C1896 0.930 . S
H1934 C1902 0.929 . S
H1935 C1903 0.930 . S
Li1936 N1953 1.990 . S
Li1936 O1996 1.956 . S
Li1936 O1997 1.970 . S
Li1936 O1998 1.961 . S
Li1937 N1961 1.990 . S
Li1937 O1996 1.970 . S
Li1937 O1997 1.956 . S
Li1937 O1999 1.961 . S
Li1938 N1983 1.990 . S
Li1938 O1996 1.961 . S
Li1938 O1998 1.956 . S
Li1938 O1999 1.970 . S
Li1939 N1989 1.990 . S
Li1939 O1997 1.961 . S
Li1939 O1998 1.970 . S
Li1939 O1999 1.956 . S
C1940 C1942 1.348 . S
C1940 C1943 1.356 . S
C1940 O1996 1.325 . S
N1941 C1944 1.314 . S
N1941 C1945 1.279 . S
C1942 C1940 1.348 . S
C1942 C1944 1.353 . S
C1942 H2000 0.929 . S
C1943 C1940 1.356 . S
C1943 C1945 1.358 . S
C1943 H2001 0.930 . S
C1944 N1941 1.314 . S
C1944 C1942 1.353 . S
C1944 H2002 0.930 . S
C1945 N1941 1.279 . S
C1945 C1943 1.358 . S
C1945 H2003 0.930 . S
C1946 C1949 1.348 . S
C1946 C1950 1.356 . S
C1946 O1997 1.325 . S
C1947 N1948 1.279 . S
C1947 C1950 1.358 . S
C1947 H2004 0.930 . S
N1948 C1947 1.279 . S
N1948 C1951 1.314 . S
C1949 C1946 1.348 . S
C1949 C1951 1.353 . S
C1949 H2005 0.929 . S
C1950 C1946 1.356 . S
C1950 C1947 1.358 . S
C1950 H2006 0.930 . S
C1951 N1948 1.314 . S
C1951 C1949 1.353 . S
C1951 H2007 0.930 . S
C1952 N1953 1.314 . S
C1952 C1957 1.353 . S
C1952 H1958 0.930 . S
N1953 Li1936 1.990 . S
N1953 C1952 1.314 . S
N1953 C1955 1.279 . S
C1954 C1955 1.358 . S
C1954 C1956 1.356 . S
C1954 H2008 0.930 . S
C1955 N1953 1.279 . S
C1955 C1954 1.358 . S
C1955 H1959 0.930 . S
C1956 C1954 1.356 . S
C1956 C1957 1.348 . S
C1957 C1952 1.353 . S
C1957 C1956 1.348 . S
C1957 H2009 0.929 . S
H1958 C1952 0.930 . S
H1959 C1955 0.930 . S
C1960 N1961 1.314 . S
C1960 C1962 1.353 . S
C1960 H1966 0.930 . S
N1961 Li1937 1.990 . S
N1961 C1960 1.314 . S
N1961 C1964 1.279 . S
C1962 C1960 1.353 . S
C1962 C1965 1.348 . S
C1962 H2010 0.929 . S
C1963 C1964 1.358 . S
C1963 C1965 1.356 . S
C1963 H2011 0.930 . S
C1964 N1961 1.279 . S
C1964 C1963 1.358 . S
C1964 H1967 0.930 . S
C1965 C1962 1.348 . S
C1965 C1963 1.356 . S
H1966 C1960 0.930 . S
H1967 C1964 0.930 . S
C1968 C1970 1.348 . S
C1968 C1971 1.356 . S
C1968 O1998 1.325 . S
N1969 C1972 1.314 . S
N1969 C1973 1.279 . S
C1970 C1968 1.348 . S
C1970 C1972 1.353 . S
C1970 H2012 0.929 . S
C1971 C1968 1.356 . S
C1971 C1973 1.358 . S
C1971 H2013 0.930 . S
C1972 N1969 1.314 . S
C1972 C1970 1.353 . S
C1972 H2014 0.930 . S
C1973 N1969 1.279 . S
C1973 C1971 1.358 . S
C1973 H2015 0.930 . S
C1974 C1975 1.348 . S
C1974 C1976 1.356 . S
C1974 O1999 1.325 . S
C1975 C1974 1.348 . S
C1975 C1977 1.353 . S
C1975 H2016 0.929 . S
C1976 C1974 1.356 . S
C1976 C1978 1.358 . S
C1976 H2017 0.930 . S
C1977 C1975 1.353 . S
C1977 N1979 1.314 . S
C1977 H2018 0.930 . S
C1978 C1976 1.358 . S
C1978 N1979 1.279 . S
C1978 H2019 0.930 . S
N1979 C1977 1.314 . S
N1979 C1978 1.279 . S
C1980 C1982 1.353 . S
C1980 N1983 1.314 . S
C1980 H1986 0.930 . S
C1981 N1983 1.279 . S
C1981 C1984 1.358 . S
C1981 H1987 0.930 . S
C1982 C1980 1.353 . S
C1982 C1985 1.348 . S
C1982 H2020 0.929 . S
N1983 Li1938 1.990 . S
N1983 C1980 1.314 . S
N1983 C1981 1.279 . S
C1984 C1981 1.358 . S
C1984 C1985 1.356 . S
C1984 H2021 0.930 . S
C1985 C1982 1.348 . S
C1985 C1984 1.356 . S
H1986 C1980 0.930 . S
H1987 C1981 0.930 . S
C1988 N1989 1.314 . S
C1988 C1990 1.353 . S
C1988 H1994 0.930 . S
N1989 Li1939 1.990 . S
N1989 C1988 1.314 . S
N1989 C1992 1.279 . S
C1990 C1988 1.353 . S
C1990 C1993 1.348 1_655 S
C1990 H2022 0.929 . S
C1991 C1992 1.358 . S
C1991 C1993 1.356 1_655 S
C1991 H2023 0.930 . S
C1992 N1989 1.279 . S
C1992 C1991 1.358 . S
C1992 H1995 0.930 . S
C1993 C1990 1.348 1_455 S
C1993 C1991 1.356 1_455 S
H1994 C1988 0.930 . S
H1995 C1992 0.930 . S
O1996 Li1936 1.956 . S
O1996 Li1937 1.970 . S
O1996 Li1938 1.961 . S
O1996 C1940 1.325 . S
O1997 Li1936 1.970 . S
O1997 Li1937 1.956 . S
O1997 Li1939 1.961 . S
O1997 C1946 1.325 . S
O1998 Li1936 1.961 . S
O1998 Li1938 1.956 . S
O1998 Li1939 1.970 . S
O1998 C1968 1.325 . S
O1999 Li1937 1.961 . S
O1999 Li1938 1.970 . S
O1999 Li1939 1.956 . S
O1999 C1974 1.325 . S
H2000 C1942 0.929 . S
H2001 C1943 0.930 . S
H2002 C1944 0.930 . S
H2003 C1945 0.930 . S
H2004 C1947 0.930 . S
H2005 C1949 0.929 . S
H2006 C1950 0.930 . S
H2007 C1951 0.930 . S
H2008 C1954 0.930 . S
H2009 C1957 0.929 . S
H2010 C1962 0.929 . S
H2011 C1963 0.930 . S
H2012 C1970 0.929 . S
H2013 C1971 0.930 . S
H2014 C1972 0.930 . S
H2015 C1973 0.930 . S
H2016 C1975 0.929 . S
H2017 C1976 0.930 . S
H2018 C1977 0.930 . S
H2019 C1978 0.930 . S
H2020 C1982 0.929 . S
H2021 C1984 0.930 . S
H2022 C1990 0.929 . S
H2023 C1991 0.930 . S
Li2024 N2041 1.990 . S
Li2024 O2084 1.956 . S
Li2024 O2085 1.970 . S
Li2024 O2086 1.961 . S
Li2025 N2049 1.990 . S
Li2025 O2084 1.970 . S
Li2025 O2085 1.956 . S
Li2025 O2087 1.961 . S
Li2026 N2071 1.990 . S
Li2026 O2084 1.961 . S
Li2026 O2086 1.956 . S
Li2026 O2087 1.970 . S
Li2027 N2077 1.990 . S
Li2027 O2085 1.961 . S
Li2027 O2086 1.970 . S
Li2027 O2087 1.956 . S
C2028 C2030 1.348 . S
C2028 C2031 1.356 . S
C2028 O2084 1.325 . S
N2029 C2032 1.314 . S
N2029 C2033 1.279 . S
C2030 C2028 1.348 . S
C2030 C2032 1.353 . S
C2030 H2088 0.929 . S
C2031 C2028 1.356 . S
C2031 C2033 1.358 . S
C2031 H2089 0.930 . S
C2032 N2029 1.314 . S
C2032 C2030 1.353 . S
C2032 H2090 0.930 . S
C2033 N2029 1.279 . S
C2033 C2031 1.358 . S
C2033 H2091 0.930 . S
C2034 C2037 1.348 . S
C2034 C2038 1.356 . S
C2034 O2085 1.325 . S
C2035 N2036 1.279 . S
C2035 C2038 1.358 . S
C2035 H2092 0.930 . S
N2036 C2035 1.279 . S
N2036 C2039 1.314 . S
C2037 C2034 1.348 . S
C2037 C2039 1.353 . S
C2037 H2093 0.929 . S
C2038 C2034 1.356 . S
C2038 C2035 1.358 . S
C2038 H2094 0.930 . S
C2039 N2036 1.314 . S
C2039 C2037 1.353 . S
C2039 H2095 0.930 . S
C2040 N2041 1.314 . S
C2040 C2045 1.353 . S
C2040 H2046 0.930 . S
N2041 Li2024 1.990 . S
N2041 C2040 1.314 . S
N2041 C2043 1.279 . S
C2042 C2043 1.358 . S
C2042 C2044 1.356 . S
C2042 H2096 0.930 . S
C2043 N2041 1.279 . S
C2043 C2042 1.358 . S
C2043 H2047 0.930 . S
C2044 C2042 1.356 . S
C2044 C2045 1.348 . S
C2045 C2040 1.353 . S
C2045 C2044 1.348 . S
C2045 H2097 0.929 . S
H2046 C2040 0.930 . S
H2047 C2043 0.930 . S
C2048 N2049 1.314 . S
C2048 C2050 1.353 . S
C2048 H2054 0.930 . S
N2049 Li2025 1.990 . S
N2049 C2048 1.314 . S
N2049 C2052 1.279 . S
C2050 C2048 1.353 . S
C2050 C2053 1.348 . S
C2050 H2098 0.929 . S
C2051 C2052 1.358 . S
C2051 C2053 1.356 . S
C2051 H2099 0.930 . S
C2052 N2049 1.279 . S
C2052 C2051 1.358 . S
C2052 H2055 0.930 . S
C2053 C2050 1.348 . S
C2053 C2051 1.356 . S
H2054 C2048 0.930 . S
H2055 C2052 0.930 . S
C2056 C2058 1.348 . S
C2056 C2059 1.356 . S
C2056 O2086 1.325 . S
N2057 C2060 1.314 . S
N2057 C2061 1.279 . S
C2058 C2056 1.348 . S
C2058 C2060 1.353 . S
C2058 H2100 0.929 . S
C2059 C2056 1.356 . S
C2059 C2061 1.358 . S
C2059 H2101 0.930 . S
C2060 N2057 1.314 . S
C2060 C2058 1.353 . S
C2060 H2102 0.930 . S
C2061 N2057 1.279 . S
C2061 C2059 1.358 . S
C2061 H2103 0.930 . S
C2062 C2063 1.348 . S
C2062 C2064 1.356 . S
C2062 O2087 1.325 . S
C2063 C2062 1.348 . S
C2063 C2065 1.353 . S
C2063 H2104 0.929 . S
C2064 C2062 1.356 . S
C2064 C2066 1.358 . S
C2064 H2105 0.930 . S
C2065 C2063 1.353 . S
C2065 N2067 1.314 . S
C2065 H2106 0.930 . S
C2066 C2064 1.358 . S
C2066 N2067 1.279 . S
C2066 H2107 0.930 . S
N2067 C2065 1.314 . S
N2067 C2066 1.279 . S
C2068 C2070 1.353 . S
C2068 N2071 1.314 . S
C2068 H2074 0.930 . S
C2069 N2071 1.279 . S
C2069 C2072 1.358 . S
C2069 H2075 0.930 . S
C2070 C2068 1.353 . S
C2070 C2073 1.348 . S
C2070 H2108 0.929 . S
N2071 Li2026 1.990 . S
N2071 C2068 1.314 . S
N2071 C2069 1.279 . S
C2072 C2069 1.358 . S
C2072 C2073 1.356 . S
C2072 H2109 0.930 . S
C2073 C2070 1.348 . S
C2073 C2072 1.356 . S
H2074 C2068 0.930 . S
H2075 C2069 0.930 . S
C2076 N2077 1.314 . S
C2076 C2078 1.353 . S
C2076 H2082 0.930 . S
N2077 Li2027 1.990 . S
N2077 C2076 1.314 . S
N2077 C2080 1.279 . S
C2078 C2076 1.353 . S
C2078 C2081 1.348 . S
C2078 H2110 0.929 . S
C2079 C2080 1.358 . S
C2079 C2081 1.356 . S
C2079 H2111 0.930 . S
C2080 N2077 1.279 . S
C2080 C2079 1.358 . S
C2080 H2083 0.930 . S
C2081 C2078 1.348 . S
C2081 C2079 1.356 . S
H2082 C2076 0.930 . S
H2083 C2080 0.930 . S
O2084 Li2024 1.956 . S
O2084 Li2025 1.970 . S
O2084 Li2026 1.961 . S
O2084 C2028 1.325 . S
O2085 Li2024 1.970 . S
O2085 Li2025 1.956 . S
O2085 Li2027 1.961 . S
O2085 C2034 1.325 . S
O2086 Li2024 1.961 . S
O2086 Li2026 1.956 . S
O2086 Li2027 1.970 . S
O2086 C2056 1.325 . S
O2087 Li2025 1.961 . S
O2087 Li2026 1.970 . S
O2087 Li2027 1.956 . S
O2087 C2062 1.325 . S
H2088 C2030 0.929 . S
H2089 C2031 0.930 . S
H2090 C2032 0.930 . S
H2091 C2033 0.930 . S
H2092 C2035 0.930 . S
H2093 C2037 0.929 . S
H2094 C2038 0.930 . S
H2095 C2039 0.930 . S
H2096 C2042 0.930 . S
H2097 C2045 0.929 . S
H2098 C2050 0.929 . S
H2099 C2051 0.930 . S
H2100 C2058 0.929 . S
H2101 C2059 0.930 . S
H2102 C2060 0.930 . S
H2103 C2061 0.930 . S
H2104 C2063 0.929 . S
H2105 C2064 0.930 . S
H2106 C2065 0.930 . S
H2107 C2066 0.930 . S
H2108 C2070 0.929 . S
H2109 C2072 0.930 . S
H2110 C2078 0.929 . S
H2111 C2079 0.930 . S
Tb2112 C2121 2.764 . S
Tb2112 O2122 2.325 . S
Tb2112 O2125 2.303 . S
Tb2112 O2129 2.322 . S
Tb2112 O2130 2.349 . S
Tb2112 O2133 2.415 . S
Tb2112 O2134 2.399 . S
Tb2113 O2123 2.322 1_545 S
Tb2113 O2124 2.349 1_554 S
Tb2113 O2126 2.415 1_455 S
Tb2113 O2127 2.399 1_454 S
Tb2113 O2128 2.325 . S
Tb2113 O2131 2.303 . S
Tb2113 C2142 2.764 1_455 S
C2114 O2130 1.261 . S
C2114 O2131 1.257 . S
C2115 C2118 1.358 . S
C2115 C2119 1.332 . S
C2115 C2121 1.504 . S
C2116 C2117 1.373 . S
C2116 C2120 1.308 . S
C2117 C2116 1.373 . S
C2117 C2118 1.429 . S
C2117 H2144 0.932 . S
C2118 C2115 1.358 . S
C2118 C2117 1.429 . S
C2118 H2145 0.930 . S
C2119 C2115 1.332 . S
C2119 C2120 1.394 . S
C2119 H2146 0.932 . S
C2120 C2116 1.308 . S
C2120 C2119 1.394 . S
C2120 H2147 0.929 . S
C2121 Tb2112 2.764 . S
C2121 C2115 1.504 . S
C2121 O2133 1.239 . S
C2121 O2134 1.263 . S
O2122 Tb2112 2.325 . S
O2122 C2132 1.236 1_545 S
O2123 Tb2113 2.322 1_565 S
O2123 C2132 1.257 . S
O2124 Tb2113 2.349 1_556 S
O2124 C2135 1.261 . S
O2125 Tb2112 2.303 . S
O2125 C2135 1.257 1_554 S
O2126 Tb2113 2.415 1_655 S
O2126 C2142 1.239 . S
O2127 Tb2113 2.399 1_656 S
O2127 C2142 1.263 1_556 S
O2128 Tb2113 2.325 . S
O2128 C2143 1.236 . S
O2129 Tb2112 2.322 . S
O2129 C2143 1.257 . S
O2130 Tb2112 2.349 . S
O2130 C2114 1.261 . S
O2131 Tb2113 2.303 . S
O2131 C2114 1.257 . S
C2132 O2122 1.236 1_565 S
C2132 O2123 1.257 . S
O2133 Tb2112 2.415 . S
O2133 C2121 1.239 . S
O2134 Tb2112 2.399 . S
O2134 C2121 1.263 . S
C2135 O2124 1.261 . S
C2135 O2125 1.257 1_556 S
C2136 C2139 1.358 1_554 S
C2136 C2140 1.332 . S
C2136 C2142 1.504 . S
C2137 C2138 1.373 . S
C2137 C2141 1.308 1_556 S
C2138 C2137 1.373 . S
C2138 C2139 1.429 . S
C2138 H2148 0.932 . S
C2139 C2136 1.358 1_556 S
C2139 C2138 1.429 . S
C2139 H2149 0.930 . S
C2140 C2136 1.332 . S
C2140 C2141 1.394 . S
C2140 H2150 0.932 . S
C2141 C2137 1.308 1_554 S
C2141 C2140 1.394 . S
C2141 H2151 0.929 . S
C2142 Tb2113 2.764 1_655 S
C2142 O2126 1.239 . S
C2142 O2127 1.263 1_554 S
C2142 C2136 1.504 . S
C2143 O2128 1.236 . S
C2143 O2129 1.257 . S
H2144 C2117 0.932 . S
H2145 C2118 0.930 . S
H2146 C2119 0.932 . S
H2147 C2120 0.929 . S
H2148 C2138 0.932 . S
H2149 C2139 0.930 . S
H2150 C2140 0.932 . S
H2151 C2141 0.929 . S
Tb2152 C2161 2.764 . S
Tb2152 O2162 2.325 . S
Tb2152 O2165 2.303 . S
Tb2152 O2169 2.322 . S
Tb2152 O2170 2.349 . S
Tb2152 O2173 2.415 . S
Tb2152 O2174 2.399 . S
Tb2153 O2163 2.322 . S
Tb2153 O2164 2.349 . S
Tb2153 O2166 2.415 . S
Tb2153 O2167 2.399 . S
Tb2153 O2168 2.325 . S
Tb2153 O2171 2.303 . S
Tb2153 C2182 2.764 . S
C2154 O2170 1.261 . S
C2154 O2171 1.257 . S
C2155 C2158 1.358 . S
C2155 C2159 1.332 . S
C2155 C2161 1.504 . S
C2156 C2157 1.373 . S
C2156 C2160 1.308 . S
C2157 C2156 1.373 . S
C2157 C2158 1.429 . S
C2157 H2184 0.932 . S
C2158 C2155 1.358 . S
C2158 C2157 1.429 . S
C2158 H2185 0.930 . S
C2159 C2155 1.332 . S
C2159 C2160 1.394 . S
C2159 H2186 0.932 . S
C2160 C2156 1.308 . S
C2160 C2159 1.394 . S
C2160 H2187 0.929 . S
C2161 Tb2152 2.764 . S
C2161 C2155 1.504 . S
C2161 O2173 1.239 . S
C2161 O2174 1.263 . S
O2162 Tb2152 2.325 . S
O2162 C2172 1.236 . S
O2163 Tb2153 2.322 . S
O2163 C2172 1.257 . S
O2164 Tb2153 2.349 . S
O2164 C2175 1.261 . S
O2165 Tb2152 2.303 . S
O2165 C2175 1.257 . S
O2166 Tb2153 2.415 . S
O2166 C2182 1.239 . S
O2167 Tb2153 2.399 . S
O2167 C2182 1.263 . S
O2168 Tb2153 2.325 . S
O2168 C2183 1.236 . S
O2169 Tb2152 2.322 . S
O2169 C2183 1.257 . S
O2170 Tb2152 2.349 . S
O2170 C2154 1.261 . S
O2171 Tb2153 2.303 . S
O2171 C2154 1.257 . S
C2172 O2162 1.236 . S
C2172 O2163 1.257 . S
O2173 Tb2152 2.415 . S
O2173 C2161 1.239 . S
O2174 Tb2152 2.399 . S
O2174 C2161 1.263 . S
C2175 O2164 1.261 . S
C2175 O2165 1.257 . S
C2176 C2179 1.358 . S
C2176 C2180 1.332 . S
C2176 C2182 1.504 . S
C2177 C2178 1.373 . S
C2177 C2181 1.308 . S
C2178 C2177 1.373 . S
C2178 C2179 1.429 . S
C2178 H2188 0.932 . S
C2179 C2176 1.358 . S
C2179 C2178 1.429 . S
C2179 H2189 0.930 . S
C2180 C2176 1.332 . S
C2180 C2181 1.394 . S
C2180 H2190 0.932 . S
C2181 C2177 1.308 . S
C2181 C2180 1.394 . S
C2181 H2191 0.929 . S
C2182 Tb2153 2.764 . S
C2182 O2166 1.239 . S
C2182 O2167 1.263 . S
C2182 C2176 1.504 . S
C2183 O2168 1.236 . S
C2183 O2169 1.257 . S
H2184 C2157 0.932 . S
H2185 C2158 0.930 . S
H2186 C2159 0.932 . S
H2187 C2160 0.929 . S
H2188 C2178 0.932 . S
H2189 C2179 0.930 . S
H2190 C2180 0.932 . S
H2191 C2181 0.929 . S
Tb2192 C2201 2.764 . S
Tb2192 O2202 2.325 . S
Tb2192 O2205 2.303 . S
Tb2192 O2209 2.322 1_545 S
Tb2192 O2210 2.349 . S
Tb2192 O2213 2.415 . S
Tb2192 O2214 2.399 . S
Tb2193 O2203 2.322 . S
Tb2193 O2204 2.349 . S
Tb2193 O2206 2.415 . S
Tb2193 O2207 2.399 . S
Tb2193 O2208 2.325 . S
Tb2193 O2211 2.303 . S
Tb2193 C2222 2.764 . S
C2194 O2210 1.261 . S
C2194 O2211 1.257 . S
C2195 C2198 1.358 . S
C2195 C2199 1.332 . S
C2195 C2201 1.504 . S
C2196 C2197 1.373 . S
C2196 C2200 1.308 . S
C2197 C2196 1.373 . S
C2197 C2198 1.429 . S
C2197 H2224 0.932 . S
C2198 C2195 1.358 . S
C2198 C2197 1.429 . S
C2198 H2225 0.930 . S
C2199 C2195 1.332 . S
C2199 C2200 1.394 . S
C2199 H2226 0.932 . S
C2200 C2196 1.308 . S
C2200 C2199 1.394 . S
C2200 H2227 0.929 . S
C2201 Tb2192 2.764 . S
C2201 C2195 1.504 . S
C2201 O2213 1.239 . S
C2201 O2214 1.263 . S
O2202 Tb2192 2.325 . S
O2202 C2212 1.236 . S
O2203 Tb2193 2.322 . S
O2203 C2212 1.257 . S
O2204 Tb2193 2.349 . S
O2204 C2215 1.261 . S
O2205 Tb2192 2.303 . S
O2205 C2215 1.257 . S
O2206 Tb2193 2.415 . S
O2206 C2222 1.239 . S
O2207 Tb2193 2.399 . S
O2207 C2222 1.263 . S
O2208 Tb2193 2.325 . S
O2208 C2223 1.236 1_545 S
O2209 Tb2192 2.322 1_565 S
O2209 C2223 1.257 . S
O2210 Tb2192 2.349 . S
O2210 C2194 1.261 . S
O2211 Tb2193 2.303 . S
O2211 C2194 1.257 . S
C2212 O2202 1.236 . S
C2212 O2203 1.257 . S
O2213 Tb2192 2.415 . S
O2213 C2201 1.239 . S
O2214 Tb2192 2.399 . S
O2214 C2201 1.263 . S
C2215 O2204 1.261 . S
C2215 O2205 1.257 . S
C2216 C2219 1.358 . S
C2216 C2220 1.332 1_545 S
C2216 C2222 1.504 . S
C2217 C2218 1.373 . S
C2217 C2221 1.308 . S
C2218 C2217 1.373 . S
C2218 C2219 1.429 1_565 S
C2218 H2228 0.932 . S
C2219 C2216 1.358 . S
C2219 C2218 1.429 1_545 S
C2219 H2229 0.930 . S
C2220 C2216 1.332 1_565 S
C2220 C2221 1.394 . S
C2220 H2230 0.932 . S
C2221 C2217 1.308 . S
C2221 C2220 1.394 . S
C2221 H2231 0.929 . S
C2222 Tb2193 2.764 . S
C2222 O2206 1.239 . S
C2222 O2207 1.263 . S
C2222 C2216 1.504 . S
C2223 O2208 1.236 1_565 S
C2223 O2209 1.257 . S
H2224 C2197 0.932 . S
H2225 C2198 0.930 . S
H2226 C2199 0.932 . S
H2227 C2200 0.929 . S
H2228 C2218 0.932 . S
H2229 C2219 0.930 . S
H2230 C2220 0.932 . S
H2231 C2221 0.929 . S
Tb2232 C2241 2.764 . S
Tb2232 O2242 2.325 . S
Tb2232 O2245 2.303 . S
Tb2232 O2249 2.322 . S
Tb2232 O2250 2.349 . S
Tb2232 O2253 2.415 . S
Tb2232 O2254 2.399 . S
Tb2233 O2243 2.322 . S
Tb2233 O2244 2.349 . S
Tb2233 O2246 2.415 . S
Tb2233 O2247 2.399 . S
Tb2233 O2248 2.325 . S
Tb2233 O2251 2.303 . S
Tb2233 C2262 2.764 . S
C2234 O2250 1.261 . S
C2234 O2251 1.257 . S
C2235 C2238 1.358 . S
C2235 C2239 1.332 . S
C2235 C2241 1.504 . S
C2236 C2237 1.373 . S
C2236 C2240 1.308 . S
C2237 C2236 1.373 . S
C2237 C2238 1.429 . S
C2237 H2264 0.932 . S
C2238 C2235 1.358 . S
C2238 C2237 1.429 . S
C2238 H2265 0.930 . S
C2239 C2235 1.332 . S
C2239 C2240 1.394 . S
C2239 H2266 0.932 . S
C2240 C2236 1.308 . S
C2240 C2239 1.394 . S
C2240 H2267 0.929 . S
C2241 Tb2232 2.764 . S
C2241 C2235 1.504 . S
C2241 O2253 1.239 . S
C2241 O2254 1.263 . S
O2242 Tb2232 2.325 . S
O2242 C2252 1.236 . S
O2243 Tb2233 2.322 . S
O2243 C2252 1.257 . S
O2244 Tb2233 2.349 . S
O2244 C2255 1.261 . S
O2245 Tb2232 2.303 . S
O2245 C2255 1.257 . S
O2246 Tb2233 2.415 . S
O2246 C2262 1.239 . S
O2247 Tb2233 2.399 . S
O2247 C2262 1.263 . S
O2248 Tb2233 2.325 . S
O2248 C2263 1.236 . S
O2249 Tb2232 2.322 . S
O2249 C2263 1.257 . S
O2250 Tb2232 2.349 . S
O2250 C2234 1.261 . S
O2251 Tb2233 2.303 . S
O2251 C2234 1.257 . S
C2252 O2242 1.236 . S
C2252 O2243 1.257 . S
O2253 Tb2232 2.415 . S
O2253 C2241 1.239 . S
O2254 Tb2232 2.399 . S
O2254 C2241 1.263 . S
C2255 O2244 1.261 . S
C2255 O2245 1.257 . S
C2256 C2259 1.358 . S
C2256 C2260 1.332 . S
C2256 C2262 1.504 . S
C2257 C2258 1.373 . S
C2257 C2261 1.308 . S
C2258 C2257 1.373 . S
C2258 C2259 1.429 . S
C2258 H2268 0.932 . S
C2259 C2256 1.358 . S
C2259 C2258 1.429 . S
C2259 H2269 0.930 . S
C2260 C2256 1.332 . S
C2260 C2261 1.394 . S
C2260 H2270 0.932 . S
C2261 C2257 1.308 . S
C2261 C2260 1.394 . S
C2261 H2271 0.929 . S
C2262 Tb2233 2.764 . S
C2262 O2246 1.239 . S
C2262 O2247 1.263 . S
C2262 C2256 1.504 . S
C2263 O2248 1.236 . S
C2263 O2249 1.257 . S
H2264 C2237 0.932 . S
H2265 C2238 0.930 . S
H2266 C2239 0.932 . S
H2267 C2240 0.929 . S
H2268 C2258 0.932 . S
H2269 C2259 0.930 . S
H2270 C2260 0.932 . S
H2271 C2261 0.929 . S
Tb2272 C2281 2.764 . S
Tb2272 O2282 2.325 . S
Tb2272 O2285 2.303 . S
Tb2272 O2289 2.322 . S
Tb2272 O2290 2.349 . S
Tb2272 O2293 2.415 . S
Tb2272 O2294 2.399 . S
Tb2273 O2283 2.322 . S
Tb2273 O2284 2.349 . S
Tb2273 O2286 2.415 . S
Tb2273 O2287 2.399 . S
Tb2273 O2288 2.325 . S
Tb2273 O2291 2.303 . S
Tb2273 C2302 2.764 . S
C2274 O2290 1.261 1_655 S
C2274 O2291 1.257 1_655 S
C2275 C2278 1.358 . S
C2275 C2279 1.332 . S
C2275 C2281 1.504 . S
C2276 C2277 1.373 . S
C2276 C2280 1.308 . S
C2277 C2276 1.373 . S
C2277 C2278 1.429 . S
C2277 H2304 0.932 . S
C2278 C2275 1.358 . S
C2278 C2277 1.429 . S
C2278 H2305 0.930 . S
C2279 C2275 1.332 . S
C2279 C2280 1.394 . S
C2279 H2306 0.932 . S
C2280 C2276 1.308 . S
C2280 C2279 1.394 . S
C2280 H2307 0.929 . S
C2281 Tb2272 2.764 . S
C2281 C2275 1.504 . S
C2281 O2293 1.239 . S
C2281 O2294 1.263 . S
O2282 Tb2272 2.325 . S
O2282 C2292 1.236 . S
O2283 Tb2273 2.322 . S
O2283 C2292 1.257 . S
O2284 Tb2273 2.349 . S
O2284 C2295 1.261 . S
O2285 Tb2272 2.303 . S
O2285 C2295 1.257 . S
O2286 Tb2273 2.415 . S
O2286 C2302 1.239 . S
O2287 Tb2273 2.399 . S
O2287 C2302 1.263 . S
O2288 Tb2273 2.325 . S
O2288 C2303 1.236 . S
O2289 Tb2272 2.322 . S
O2289 C2303 1.257 . S
O2290 Tb2272 2.349 . S
O2290 C2274 1.261 1_455 S
O2291 Tb2273 2.303 . S
O2291 C2274 1.257 1_455 S
C2292 O2282 1.236 . S
C2292 O2283 1.257 . S
O2293 Tb2272 2.415 . S
O2293 C2281 1.239 . S
O2294 Tb2272 2.399 . S
O2294 C2281 1.263 . S
C2295 O2284 1.261 . S
C2295 O2285 1.257 . S
C2296 C2299 1.358 . S
C2296 C2300 1.332 1_455 S
C2296 C2302 1.504 . S
C2297 C2298 1.373 1_655 S
C2297 C2301 1.308 . S
C2298 C2297 1.373 1_455 S
C2298 C2299 1.429 . S
C2298 H2308 0.932 . S
C2299 C2296 1.358 . S
C2299 C2298 1.429 . S
C2299 H2309 0.930 . S
C2300 C2296 1.332 1_655 S
C2300 C2301 1.394 . S
C2300 H2310 0.932 . S
C2301 C2297 1.308 . S
C2301 C2300 1.394 . S
C2301 H2311 0.929 . S
C2302 Tb2273 2.764 . S
C2302 O2286 1.239 . S
C2302 O2287 1.263 . S
C2302 C2296 1.504 . S
C2303 O2288 1.236 . S
C2303 O2289 1.257 . S
H2304 C2277 0.932 . S
H2305 C2278 0.930 . S
H2306 C2279 0.932 . S
H2307 C2280 0.929 . S
H2308 C2298 0.932 . S
H2309 C2299 0.930 . S
H2310 C2300 0.932 . S
H2311 C2301 0.929 . S
Tb2312 C2321 2.764 . S
Tb2312 O2322 2.325 . S
Tb2312 O2325 2.303 . S
Tb2312 O2329 2.322 . S
Tb2312 O2330 2.349 . S
Tb2312 O2333 2.415 . S
Tb2312 O2334 2.399 . S
Tb2313 O2323 2.322 . S
Tb2313 O2324 2.349 . S
Tb2313 O2326 2.415 . S
Tb2313 O2327 2.399 . S
Tb2313 O2328 2.325 . S
Tb2313 O2331 2.303 . S
Tb2313 C2342 2.764 . S
C2314 O2330 1.261 . S
C2314 O2331 1.257 . S
C2315 C2318 1.358 . S
C2315 C2319 1.332 . S
C2315 C2321 1.504 . S
C2316 C2317 1.373 . S
C2316 C2320 1.308 . S
C2317 C2316 1.373 . S
C2317 C2318 1.429 . S
C2317 H2344 0.932 . S
C2318 C2315 1.358 . S
C2318 C2317 1.429 . S
C2318 H2345 0.930 . S
C2319 C2315 1.332 . S
C2319 C2320 1.394 . S
C2319 H2346 0.932 . S
C2320 C2316 1.308 . S
C2320 C2319 1.394 . S
C2320 H2347 0.929 . S
C2321 Tb2312 2.764 . S
C2321 C2315 1.504 . S
C2321 O2333 1.239 . S
C2321 O2334 1.263 . S
O2322 Tb2312 2.325 . S
O2322 C2332 1.236 . S
O2323 Tb2313 2.322 . S
O2323 C2332 1.257 . S
O2324 Tb2313 2.349 . S
O2324 C2335 1.261 . S
O2325 Tb2312 2.303 . S
O2325 C2335 1.257 . S
O2326 Tb2313 2.415 . S
O2326 C2342 1.239 . S
O2327 Tb2313 2.399 . S
O2327 C2342 1.263 . S
O2328 Tb2313 2.325 . S
O2328 C2343 1.236 . S
O2329 Tb2312 2.322 . S
O2329 C2343 1.257 . S
O2330 Tb2312 2.349 . S
O2330 C2314 1.261 . S
O2331 Tb2313 2.303 . S
O2331 C2314 1.257 . S
C2332 O2322 1.236 . S
C2332 O2323 1.257 . S
O2333 Tb2312 2.415 . S
O2333 C2321 1.239 . S
O2334 Tb2312 2.399 . S
O2334 C2321 1.263 . S
C2335 O2324 1.261 . S
C2335 O2325 1.257 . S
C2336 C2339 1.358 . S
C2336 C2340 1.332 . S
C2336 C2342 1.504 . S
C2337 C2338 1.373 . S
C2337 C2341 1.308 . S
C2338 C2337 1.373 . S
C2338 C2339 1.429 . S
C2338 H2348 0.932 . S
C2339 C2336 1.358 . S
C2339 C2338 1.429 . S
C2339 H2349 0.930 . S
C2340 C2336 1.332 . S
C2340 C2341 1.394 . S
C2340 H2350 0.932 . S
C2341 C2337 1.308 . S
C2341 C2340 1.394 . S
C2341 H2351 0.929 . S
C2342 Tb2313 2.764 . S
C2342 O2326 1.239 . S
C2342 O2327 1.263 . S
C2342 C2336 1.504 . S
C2343 O2328 1.236 . S
C2343 O2329 1.257 . S
H2344 C2317 0.932 . S
H2345 C2318 0.930 . S
H2346 C2319 0.932 . S
H2347 C2320 0.929 . S
H2348 C2338 0.932 . S
H2349 C2339 0.930 . S
H2350 C2340 0.932 . S
H2351 C2341 0.929 . S
Tb2352 C2361 2.764 . S
Tb2352 O2362 2.325 . S
Tb2352 O2365 2.303 . S
Tb2352 O2369 2.319 1_545 S
Tb2352 O2370 2.349 . S
Tb2352 O2373 2.415 . S
Tb2352 O2374 2.399 . S
Tb2353 O2363 2.322 . S
Tb2353 O2364 2.349 . S
Tb2353 O2366 2.415 1_554 S
Tb2353 O2367 2.399 1_554 S
Tb2353 O2368 2.325 . S
Tb2353 O2371 2.303 . S
Tb2353 C2382 2.764 1_554 S
C2354 O2370 1.261 . S
C2354 O2371 1.257 . S
C2355 C2358 1.358 . S
C2355 C2359 1.332 . S
C2355 C2361 1.504 . S
C2356 C2357 1.373 . S
C2356 C2360 1.308 . S
C2357 C2356 1.373 . S
C2357 C2358 1.429 . S
C2357 H2384 0.932 . S
C2358 C2355 1.358 . S
C2358 C2357 1.429 . S
C2358 H2385 0.930 . S
C2359 C2355 1.332 . S
C2359 C2360 1.394 . S
C2359 H2386 0.932 . S
C2360 C2356 1.308 . S
C2360 C2359 1.394 . S
C2360 H2387 0.929 . S
C2361 Tb2352 2.764 . S
C2361 C2355 1.504 . S
C2361 O2373 1.239 . S
C2361 O2374 1.263 . S
O2362 Tb2352 2.325 . S
O2362 C2372 1.236 . S
O2363 Tb2353 2.322 . S
O2363 C2372 1.257 . S
O2364 Tb2353 2.349 . S
O2364 C2375 1.261 . S
O2365 Tb2352 2.303 . S
O2365 C2375 1.257 . S
O2366 Tb2353 2.415 1_556 S
O2366 C2382 1.239 . S
O2367 Tb2353 2.399 1_556 S
O2367 C2382 1.263 . S
O2368 Tb2353 2.325 . S
O2368 C2383 1.236 1_545 S
O2369 Tb2352 2.319 1_565 S
O2369 C2383 1.257 . S
O2370 Tb2352 2.349 . S
O2370 C2354 1.261 . S
O2371 Tb2353 2.303 . S
O2371 C2354 1.257 . S
C2372 O2362 1.236 . S
C2372 O2363 1.257 . S
O2373 Tb2352 2.415 . S
O2373 C2361 1.239 . S
O2374 Tb2352 2.399 . S
O2374 C2361 1.263 . S
C2375 O2364 1.261 . S
C2375 O2365 1.257 . S
C2376 C2379 1.358 . S
C2376 C2380 1.332 . S
C2376 C2382 1.504 . S
C2377 C2378 1.373 . S
C2377 C2381 1.308 . S
C2378 C2377 1.373 . S
C2378 C2379 1.429 . S
C2378 H2388 0.932 . S
C2379 C2376 1.358 . S
C2379 C2378 1.429 . S
C2379 H2389 0.930 . S
C2380 C2376 1.332 . S
C2380 C2381 1.394 . S
C2380 H2390 0.932 . S
C2381 C2377 1.308 . S
C2381 C2380 1.394 . S
C2381 H2391 0.929 . S
C2382 Tb2353 2.764 1_556 S
C2382 O2366 1.239 . S
C2382 O2367 1.263 . S
C2382 C2376 1.504 . S
C2383 O2368 1.236 1_565 S
C2383 O2369 1.257 . S
H2384 C2357 0.932 . S
H2385 C2358 0.930 . S
H2386 C2359 0.932 . S
H2387 C2360 0.929 . S
H2388 C2378 0.932 . S
H2389 C2379 0.930 . S
H2390 C2380 0.932 . S
H2391 C2381 0.929 . S
Tb2392 C2401 2.764 . S
Tb2392 O2402 2.325 . S
Tb2392 O2405 2.303 . S
Tb2392 O2409 2.322 . S
Tb2392 O2410 2.349 . S
Tb2392 O2413 2.415 . S
Tb2392 O2414 2.399 . S
Tb2393 O2403 2.322 . S
Tb2393 O2404 2.349 . S
Tb2393 O2406 2.415 . S
Tb2393 O2407 2.399 . S
Tb2393 O2408 2.325 . S
Tb2393 O2411 2.303 . S
Tb2393 C2422 2.764 . S
C2394 O2410 1.261 . S
C2394 O2411 1.257 . S
C2395 C2398 1.358 . S
C2395 C2399 1.332 . S
C2395 C2401 1.504 . S
C2396 C2397 1.373 . S
C2396 C2400 1.308 . S
C2397 C2396 1.373 . S
C2397 C2398 1.429 . S
C2397 H2424 0.932 . S
C2398 C2395 1.358 . S
C2398 C2397 1.429 . S
C2398 H2425 0.930 . S
C2399 C2395 1.332 . S
C2399 C2400 1.394 . S
C2399 H2426 0.932 . S
C2400 C2396 1.308 . S
C2400 C2399 1.394 . S
C2400 H2427 0.929 . S
C2401 Tb2392 2.764 . S
C2401 C2395 1.504 . S
C2401 O2413 1.239 . S
C2401 O2414 1.263 . S
O2402 Tb2392 2.325 . S
O2402 C2412 1.236 . S
O2403 Tb2393 2.322 . S
O2403 C2412 1.257 . S
O2404 Tb2393 2.349 . S
O2404 C2415 1.261 . S
O2405 Tb2392 2.303 . S
O2405 C2415 1.257 . S
O2406 Tb2393 2.415 . S
O2406 C2422 1.239 . S
O2407 Tb2393 2.399 . S
O2407 C2422 1.263 . S
O2408 Tb2393 2.325 . S
O2408 C2423 1.236 . S
O2409 Tb2392 2.322 . S
O2409 C2423 1.257 . S
O2410 Tb2392 2.349 . S
O2410 C2394 1.261 . S
O2411 Tb2393 2.303 . S
O2411 C2394 1.257 . S
C2412 O2402 1.236 . S
C2412 O2403 1.257 . S
O2413 Tb2392 2.415 . S
O2413 C2401 1.239 . S
O2414 Tb2392 2.399 . S
O2414 C2401 1.263 . S
C2415 O2404 1.261 . S
C2415 O2405 1.257 . S
C2416 C2419 1.358 . S
C2416 C2420 1.332 . S
C2416 C2422 1.504 . S
C2417 C2418 1.373 . S
C2417 C2421 1.308 . S
C2418 C2417 1.373 . S
C2418 C2419 1.429 . S
C2418 H2428 0.932 . S
C2419 C2416 1.358 . S
C2419 C2418 1.429 . S
C2419 H2429 0.930 . S
C2420 C2416 1.332 . S
C2420 C2421 1.394 . S
C2420 H2430 0.932 . S
C2421 C2417 1.308 . S
C2421 C2420 1.394 . S
C2421 H2431 0.929 . S
C2422 Tb2393 2.764 . S
C2422 O2406 1.239 . S
C2422 O2407 1.263 . S
C2422 C2416 1.504 . S
C2423 O2408 1.236 . S
C2423 O2409 1.257 . S
H2424 C2397 0.932 . S
H2425 C2398 0.930 . S
H2426 C2399 0.932 . S
H2427 C2400 0.929 . S
H2428 C2418 0.932 . S
H2429 C2419 0.930 . S
H2430 C2420 0.932 . S
H2431 C2421 0.929 . S
Tb2432 C2441 2.764 . S
Tb2432 O2442 2.325 . S
Tb2432 O2445 2.303 . S
Tb2432 O2449 2.322 . S
Tb2432 O2450 2.349 . S
Tb2432 O2453 2.415 . S
Tb2432 O2454 2.399 . S
Tb2433 O2443 2.322 . S
Tb2433 O2444 2.349 . S
Tb2433 O2446 2.415 1_554 S
Tb2433 O2447 2.399 1_554 S
Tb2433 O2448 2.325 . S
Tb2433 O2451 2.303 . S
Tb2433 C2462 2.764 1_554 S
C2434 O2450 1.261 . S
C2434 O2451 1.257 . S
C2435 C2438 1.358 . S
C2435 C2439 1.332 . S
C2435 C2441 1.504 . S
C2436 C2437 1.373 . S
C2436 C2440 1.308 . S
C2437 C2436 1.373 . S
C2437 C2438 1.429 . S
C2437 H2464 0.932 . S
C2438 C2435 1.358 . S
C2438 C2437 1.429 . S
C2438 H2465 0.930 . S
C2439 C2435 1.332 . S
C2439 C2440 1.394 . S
C2439 H2466 0.932 . S
C2440 C2436 1.308 . S
C2440 C2439 1.394 . S
C2440 H2467 0.929 . S
C2441 Tb2432 2.764 . S
C2441 C2435 1.504 . S
C2441 O2453 1.239 . S
C2441 O2454 1.263 . S
O2442 Tb2432 2.325 . S
O2442 C2452 1.236 . S
O2443 Tb2433 2.322 . S
O2443 C2452 1.257 . S
O2444 Tb2433 2.349 . S
O2444 C2455 1.261 . S
O2445 Tb2432 2.303 . S
O2445 C2455 1.257 . S
O2446 Tb2433 2.415 1_556 S
O2446 C2462 1.239 . S
O2447 Tb2433 2.399 1_556 S
O2447 C2462 1.263 . S
O2448 Tb2433 2.325 . S
O2448 C2463 1.236 . S
O2449 Tb2432 2.322 . S
O2449 C2463 1.257 . S
O2450 Tb2432 2.349 . S
O2450 C2434 1.261 . S
O2451 Tb2433 2.303 . S
O2451 C2434 1.257 . S
C2452 O2442 1.236 . S
C2452 O2443 1.257 . S
O2453 Tb2432 2.415 . S
O2453 C2441 1.239 . S
O2454 Tb2432 2.399 . S
O2454 C2441 1.263 . S
C2455 O2444 1.261 . S
C2455 O2445 1.257 . S
C2456 C2459 1.358 . S
C2456 C2460 1.332 . S
C2456 C2462 1.504 . S
C2457 C2458 1.373 . S
C2457 C2461 1.308 . S
C2458 C2457 1.373 . S
C2458 C2459 1.429 . S
C2458 H2468 0.932 . S
C2459 C2456 1.358 . S
C2459 C2458 1.429 . S
C2459 H2469 0.930 . S
C2460 C2456 1.332 . S
C2460 C2461 1.394 . S
C2460 H2470 0.932 . S
C2461 C2457 1.308 . S
C2461 C2460 1.394 . S
C2461 H2471 0.929 . S
C2462 Tb2433 2.764 1_556 S
C2462 O2446 1.239 . S
C2462 O2447 1.263 . S
C2462 C2456 1.504 . S
C2463 O2448 1.236 . S
C2463 O2449 1.257 . S
H2464 C2437 0.932 . S
H2465 C2438 0.930 . S
H2466 C2439 0.932 . S
H2467 C2440 0.929 . S
H2468 C2458 0.932 . S
H2469 C2459 0.930 . S
H2470 C2460 0.932 . S
H2471 C2461 0.929 . S
Tb2472 C2481 2.764 . S
Tb2472 O2482 2.325 . S
Tb2472 O2485 2.303 . S
Tb2472 O2489 2.322 . S
Tb2472 O2490 2.349 . S
Tb2472 O2493 2.415 . S
Tb2472 O2494 2.399 . S
Tb2473 O2483 2.322 . S
Tb2473 O2484 2.349 . S
Tb2473 O2486 2.415 . S
Tb2473 O2487 2.399 . S
Tb2473 O2488 2.325 . S
Tb2473 O2491 2.303 . S
Tb2473 C2502 2.764 . S
C2474 O2490 1.261 . S
C2474 O2491 1.257 . S
C2475 C2478 1.358 . S
C2475 C2479 1.332 . S
C2475 C2481 1.504 . S
C2476 C2477 1.373 . S
C2476 C2480 1.308 . S
C2477 C2476 1.373 . S
C2477 C2478 1.429 . S
C2477 H2504 0.932 . S
C2478 C2475 1.358 . S
C2478 C2477 1.429 . S
C2478 H2505 0.930 . S
C2479 C2475 1.332 . S
C2479 C2480 1.394 . S
C2479 H2506 0.932 . S
C2480 C2476 1.308 . S
C2480 C2479 1.394 . S
C2480 H2507 0.929 . S
C2481 Tb2472 2.764 . S
C2481 C2475 1.504 . S
C2481 O2493 1.239 . S
C2481 O2494 1.263 . S
O2482 Tb2472 2.325 . S
O2482 C2492 1.236 . S
O2483 Tb2473 2.322 . S
O2483 C2492 1.257 . S
O2484 Tb2473 2.349 . S
O2484 C2495 1.261 . S
O2485 Tb2472 2.303 . S
O2485 C2495 1.257 . S
O2486 Tb2473 2.415 . S
O2486 C2502 1.239 . S
O2487 Tb2473 2.399 . S
O2487 C2502 1.263 . S
O2488 Tb2473 2.325 . S
O2488 C2503 1.236 . S
O2489 Tb2472 2.322 . S
O2489 C2503 1.257 . S
O2490 Tb2472 2.349 . S
O2490 C2474 1.261 . S
O2491 Tb2473 2.303 . S
O2491 C2474 1.257 . S
C2492 O2482 1.236 . S
C2492 O2483 1.257 . S
O2493 Tb2472 2.415 . S
O2493 C2481 1.239 . S
O2494 Tb2472 2.399 . S
O2494 C2481 1.263 . S
C2495 O2484 1.261 . S
C2495 O2485 1.257 . S
C2496 C2499 1.358 . S
C2496 C2500 1.332 . S
C2496 C2502 1.504 . S
C2497 C2498 1.373 . S
C2497 C2501 1.308 . S
C2498 C2497 1.373 . S
C2498 C2499 1.429 . S
C2498 H2508 0.932 . S
C2499 C2496 1.358 . S
C2499 C2498 1.429 . S
C2499 H2509 0.930 . S
C2500 C2496 1.332 . S
C2500 C2501 1.394 . S
C2500 H2510 0.932 . S
C2501 C2497 1.308 . S
C2501 C2500 1.394 . S
C2501 H2511 0.929 . S
C2502 Tb2473 2.764 . S
C2502 O2486 1.239 . S
C2502 O2487 1.263 . S
C2502 C2496 1.504 . S
C2503 O2488 1.236 . S
C2503 O2489 1.257 . S
H2504 C2477 0.932 . S
H2505 C2478 0.930 . S
H2506 C2479 0.932 . S
H2507 C2480 0.929 . S
H2508 C2498 0.932 . S
H2509 C2499 0.930 . S
H2510 C2500 0.932 . S
H2511 C2501 0.929 . S
Tb2512 C2521 2.764 . S
Tb2512 O2522 2.325 . S
Tb2512 O2525 2.303 . S
Tb2512 O2529 2.322 . S
Tb2512 O2530 2.349 . S
Tb2512 O2533 2.415 . S
Tb2512 O2534 2.399 . S
Tb2513 O2523 2.322 . S
Tb2513 O2524 2.349 . S
Tb2513 O2526 2.415 . S
Tb2513 O2527 2.399 . S
Tb2513 O2528 2.325 . S
Tb2513 O2531 2.303 . S
Tb2513 C2542 2.764 . S
C2514 O2530 1.261 . S
C2514 O2531 1.257 . S
C2515 C2518 1.358 . S
C2515 C2519 1.332 1_455 S
C2515 C2521 1.504 . S
C2516 C2517 1.378 1_655 S
C2516 C2520 1.305 . S
C2517 C2516 1.378 1_455 S
C2517 C2518 1.429 . S
C2517 H2544 0.932 . S
C2518 C2515 1.358 . S
C2518 C2517 1.429 . S
C2518 H2545 0.930 . S
C2519 C2515 1.332 1_655 S
C2519 C2520 1.394 . S
C2519 H2546 0.932 . S
C2520 C2516 1.305 . S
C2520 C2519 1.394 . S
C2520 H2547 0.929 . S
C2521 Tb2512 2.764 . S
C2521 C2515 1.504 . S
C2521 O2533 1.239 . S
C2521 O2534 1.263 . S
O2522 Tb2512 2.325 . S
O2522 C2532 1.236 . S
O2523 Tb2513 2.322 . S
O2523 C2532 1.257 . S
O2524 Tb2513 2.349 . S
O2524 C2535 1.261 1_455 S
O2525 Tb2512 2.303 . S
O2525 C2535 1.257 1_455 S
O2526 Tb2513 2.415 . S
O2526 C2542 1.239 . S
O2527 Tb2513 2.399 . S
O2527 C2542 1.263 . S
O2528 Tb2513 2.325 . S
O2528 C2543 1.236 . S
O2529 Tb2512 2.322 . S
O2529 C2543 1.257 . S
O2530 Tb2512 2.349 . S
O2530 C2514 1.261 . S
O2531 Tb2513 2.303 . S
O2531 C2514 1.257 . S
C2532 O2522 1.236 . S
C2532 O2523 1.257 . S
O2533 Tb2512 2.415 . S
O2533 C2521 1.239 . S
O2534 Tb2512 2.399 . S
O2534 C2521 1.263 . S
C2535 O2524 1.261 1_655 S
C2535 O2525 1.257 1_655 S
C2536 C2539 1.358 . S
C2536 C2540 1.332 . S
C2536 C2542 1.504 . S
C2537 C2538 1.373 . S
C2537 C2541 1.308 . S
C2538 C2537 1.373 . S
C2538 C2539 1.429 . S
C2538 H2548 0.932 . S
C2539 C2536 1.358 . S
C2539 C2538 1.429 . S
C2539 H2549 0.930 . S
C2540 C2536 1.332 . S
C2540 C2541 1.394 . S
C2540 H2550 0.932 . S
C2541 C2537 1.308 . S
C2541 C2540 1.394 . S
C2541 H2551 0.929 . S
C2542 Tb2513 2.764 . S
C2542 O2526 1.239 . S
C2542 O2527 1.263 . S
C2542 C2536 1.504 . S
C2543 O2528 1.236 . S
C2543 O2529 1.257 . S
H2544 C2517 0.932 . S
H2545 C2518 0.930 . S
H2546 C2519 0.932 . S
H2547 C2520 0.929 . S
H2548 C2538 0.932 . S
H2549 C2539 0.930 . S
H2550 C2540 0.932 . S
H2551 C2541 0.929 . S
Tb2552 C2561 2.764 . S
Tb2552 O2562 2.325 . S
Tb2552 O2565 2.303 . S
Tb2552 O2569 2.322 . S
Tb2552 O2570 2.349 . S
Tb2552 O2573 2.415 . S
Tb2552 O2574 2.399 . S
Tb2553 O2563 2.322 . S
Tb2553 O2564 2.349 . S
Tb2553 O2566 2.415 . S
Tb2553 O2567 2.399 . S
Tb2553 O2568 2.325 . S
Tb2553 O2571 2.303 . S
Tb2553 C2582 2.764 . S
C2554 O2570 1.261 . S
C2554 O2571 1.257 . S
C2555 C2558 1.358 . S
C2555 C2559 1.332 . S
C2555 C2561 1.504 . S
C2556 C2557 1.373 . S
C2556 C2560 1.308 . S
C2557 C2556 1.373 . S
C2557 C2558 1.429 . S
C2557 H2584 0.932 . S
C2558 C2555 1.358 . S
C2558 C2557 1.429 . S
C2558 H2585 0.930 . S
C2559 C2555 1.332 . S
C2559 C2560 1.394 . S
C2559 H2586 0.932 . S
C2560 C2556 1.308 . S
C2560 C2559 1.394 . S
C2560 H2587 0.929 . S
C2561 Tb2552 2.764 . S
C2561 C2555 1.504 . S
C2561 O2573 1.239 . S
C2561 O2574 1.263 . S
O2562 Tb2552 2.325 . S
O2562 C2572 1.236 . S
O2563 Tb2553 2.322 . S
O2563 C2572 1.257 . S
O2564 Tb2553 2.349 . S
O2564 C2575 1.261 . S
O2565 Tb2552 2.303 . S
O2565 C2575 1.257 . S
O2566 Tb2553 2.415 . S
O2566 C2582 1.239 . S
O2567 Tb2553 2.399 . S
O2567 C2582 1.263 . S
O2568 Tb2553 2.325 . S
O2568 C2583 1.236 . S
O2569 Tb2552 2.322 . S
O2569 C2583 1.257 . S
O2570 Tb2552 2.349 . S
O2570 C2554 1.261 . S
O2571 Tb2553 2.303 . S
O2571 C2554 1.257 . S
C2572 O2562 1.236 . S
C2572 O2563 1.257 . S
O2573 Tb2552 2.415 . S
O2573 C2561 1.239 . S
O2574 Tb2552 2.399 . S
O2574 C2561 1.263 . S
C2575 O2564 1.261 . S
C2575 O2565 1.257 . S
C2576 C2579 1.358 . S
C2576 C2580 1.332 . S
C2576 C2582 1.504 . S
C2577 C2578 1.373 . S
C2577 C2581 1.308 . S
C2578 C2577 1.373 . S
C2578 C2579 1.429 . S
C2578 H2588 0.932 . S
C2579 C2576 1.358 . S
C2579 C2578 1.429 . S
C2579 H2589 0.930 . S
C2580 C2576 1.332 . S
C2580 C2581 1.394 . S
C2580 H2590 0.932 . S
C2581 C2577 1.308 . S
C2581 C2580 1.394 . S
C2581 H2591 0.929 . S
C2582 Tb2553 2.764 . S
C2582 O2566 1.239 . S
C2582 O2567 1.263 . S
C2582 C2576 1.504 . S
C2583 O2568 1.236 . S
C2583 O2569 1.257 . S
H2584 C2557 0.932 . S
H2585 C2558 0.930 . S
H2586 C2559 0.932 . S
H2587 C2560 0.929 . S
H2588 C2578 0.932 . S
H2589 C2579 0.930 . S
H2590 C2580 0.932 . S
H2591 C2581 0.929 . S
Tb2592 C2601 2.764 . S
Tb2592 O2602 2.325 . S
Tb2592 O2605 2.303 . S
Tb2592 O2609 2.322 . S
Tb2592 O2610 2.349 . S
Tb2592 O2613 2.415 . S
Tb2592 O2614 2.399 . S
Tb2593 O2603 2.322 . S
Tb2593 O2604 2.349 . S
Tb2593 O2606 2.415 . S
Tb2593 O2607 2.399 . S
Tb2593 O2608 2.325 . S
Tb2593 O2611 2.303 . S
Tb2593 C2622 2.764 . S
C2594 O2610 1.261 . S
C2594 O2611 1.257 . S
C2595 C2598 1.358 . S
C2595 C2599 1.332 . S
C2595 C2601 1.504 . S
C2596 C2597 1.373 . S
C2596 C2600 1.308 . S
C2597 C2596 1.373 . S
C2597 C2598 1.429 . S
C2597 H2624 0.932 . S
C2598 C2595 1.358 . S
C2598 C2597 1.429 . S
C2598 H2625 0.930 . S
C2599 C2595 1.332 . S
C2599 C2600 1.394 . S
C2599 H2626 0.932 . S
C2600 C2596 1.308 . S
C2600 C2599 1.394 . S
C2600 H2627 0.929 . S
C2601 Tb2592 2.764 . S
C2601 C2595 1.504 . S
C2601 O2613 1.239 . S
C2601 O2614 1.263 . S
O2602 Tb2592 2.325 . S
O2602 C2612 1.236 . S
O2603 Tb2593 2.322 . S
O2603 C2612 1.257 . S
O2604 Tb2593 2.349 . S
O2604 C2615 1.261 . S
O2605 Tb2592 2.303 . S
O2605 C2615 1.257 . S
O2606 Tb2593 2.415 . S
O2606 C2622 1.239 . S
O2607 Tb2593 2.399 . S
O2607 C2622 1.263 . S
O2608 Tb2593 2.325 . S
O2608 C2623 1.236 . S
O2609 Tb2592 2.322 . S
O2609 C2623 1.257 . S
O2610 Tb2592 2.349 . S
O2610 C2594 1.261 . S
O2611 Tb2593 2.303 . S
O2611 C2594 1.257 . S
C2612 O2602 1.236 . S
C2612 O2603 1.257 . S
O2613 Tb2592 2.415 . S
O2613 C2601 1.239 . S
O2614 Tb2592 2.399 . S
O2614 C2601 1.263 . S
C2615 O2604 1.261 . S
C2615 O2605 1.257 . S
C2616 C2619 1.358 . S
C2616 C2620 1.332 . S
C2616 C2622 1.504 . S
C2617 C2618 1.373 . S
C2617 C2621 1.308 . S
C2618 C2617 1.373 . S
C2618 C2619 1.429 . S
C2618 H2628 0.932 . S
C2619 C2616 1.358 . S
C2619 C2618 1.429 . S
C2619 H2629 0.930 . S
C2620 C2616 1.332 . S
C2620 C2621 1.394 . S
C2620 H2630 0.932 . S
C2621 C2617 1.308 . S
C2621 C2620 1.394 . S
C2621 H2631 0.929 . S
C2622 Tb2593 2.764 . S
C2622 O2606 1.239 . S
C2622 O2607 1.263 . S
C2622 C2616 1.504 . S
C2623 O2608 1.236 . S
C2623 O2609 1.257 . S
H2624 C2597 0.932 . S
H2625 C2598 0.930 . S
H2626 C2599 0.932 . S
H2627 C2600 0.929 . S
H2628 C2618 0.932 . S
H2629 C2619 0.930 . S
H2630 C2620 0.932 . S
H2631 C2621 0.929 . S
Tb2632 C2641 2.764 . S
Tb2632 O2642 2.325 . S
Tb2632 O2645 2.303 . S
Tb2632 O2649 2.322 . S
Tb2632 O2650 2.349 . S
Tb2632 O2653 2.415 . S
Tb2632 O2654 2.399 . S
Tb2633 O2643 2.322 . S
Tb2633 O2644 2.349 . S
Tb2633 O2646 2.415 . S
Tb2633 O2647 2.399 . S
Tb2633 O2648 2.325 . S
Tb2633 O2651 2.303 . S
Tb2633 C2662 2.764 . S
C2634 O2650 1.261 . S
C2634 O2651 1.257 . S
C2635 C2638 1.358 . S
C2635 C2639 1.332 . S
C2635 C2641 1.504 . S
C2636 C2637 1.373 . S
C2636 C2640 1.308 . S
C2637 C2636 1.373 . S
C2637 C2638 1.429 . S
C2637 H2664 0.932 . S
C2638 C2635 1.358 . S
C2638 C2637 1.429 . S
C2638 H2665 0.930 . S
C2639 C2635 1.332 . S
C2639 C2640 1.394 . S
C2639 H2666 0.932 . S
C2640 C2636 1.308 . S
C2640 C2639 1.394 . S
C2640 H2667 0.929 . S
C2641 Tb2632 2.764 . S
C2641 C2635 1.504 . S
C2641 O2653 1.239 . S
C2641 O2654 1.263 . S
O2642 Tb2632 2.325 . S
O2642 C2652 1.236 . S
O2643 Tb2633 2.322 . S
O2643 C2652 1.257 . S
O2644 Tb2633 2.349 . S
O2644 C2655 1.261 . S
O2645 Tb2632 2.303 . S
O2645 C2655 1.257 . S
O2646 Tb2633 2.415 . S
O2646 C2662 1.239 . S
O2647 Tb2633 2.399 . S
O2647 C2662 1.263 . S
O2648 Tb2633 2.325 . S
O2648 C2663 1.236 . S
O2649 Tb2632 2.322 . S
O2649 C2663 1.257 . S
O2650 Tb2632 2.349 . S
O2650 C2634 1.261 . S
O2651 Tb2633 2.303 . S
O2651 C2634 1.257 . S
C2652 O2642 1.236 . S
C2652 O2643 1.257 . S
O2653 Tb2632 2.415 . S
O2653 C2641 1.239 . S
O2654 Tb2632 2.399 . S
O2654 C2641 1.263 . S
C2655 O2644 1.261 . S
C2655 O2645 1.257 . S
C2656 C2659 1.358 . S
C2656 C2660 1.332 . S
C2656 C2662 1.504 . S
C2657 C2658 1.373 . S
C2657 C2661 1.308 . S
C2658 C2657 1.373 . S
C2658 C2659 1.429 . S
C2658 H2668 0.930 1_565 S
C2659 C2656 1.358 . S
C2659 C2658 1.429 . S
C2659 H2669 0.930 . S
C2660 C2656 1.332 . S
C2660 C2661 1.394 . S
C2660 H2670 0.932 . S
C2661 C2657 1.308 . S
C2661 C2660 1.394 . S
C2661 H2671 0.929 . S
C2662 Tb2633 2.764 . S
C2662 O2646 1.239 . S
C2662 O2647 1.263 . S
C2662 C2656 1.504 . S
C2663 O2648 1.236 . S
C2663 O2649 1.257 . S
H2664 C2637 0.932 . S
H2665 C2638 0.930 . S
H2666 C2639 0.932 . S
H2667 C2640 0.929 . S
H2668 C2658 0.930 1_545 S
H2669 C2659 0.930 . S
H2670 C2660 0.932 . S
H2671 C2661 0.929 . S
Tb2672 C2681 2.764 . S
Tb2672 O2682 2.325 . S
Tb2672 O2685 2.303 . S
Tb2672 O2689 2.322 . S
Tb2672 O2690 2.349 . S
Tb2672 O2693 2.415 . S
Tb2672 O2694 2.399 . S
Tb2673 O2683 2.322 . S
Tb2673 O2684 2.349 . S
Tb2673 O2686 2.415 . S
Tb2673 O2687 2.399 . S
Tb2673 O2688 2.325 . S
Tb2673 O2691 2.303 . S
Tb2673 C2702 2.764 . S
C2674 O2690 1.261 . S
C2674 O2691 1.257 . S
C2675 C2678 1.358 . S
C2675 C2679 1.332 . S
C2675 C2681 1.504 . S
C2676 C2677 1.373 . S
C2676 C2680 1.308 . S
C2677 C2676 1.373 . S
C2677 C2678 1.429 . S
C2677 H2704 0.932 . S
C2678 C2675 1.358 . S
C2678 C2677 1.429 . S
C2678 H2705 0.930 . S
C2679 C2675 1.332 . S
C2679 C2680 1.394 . S
C2679 H2706 0.932 . S
C2680 C2676 1.308 . S
C2680 C2679 1.394 . S
C2680 H2707 0.929 . S
C2681 Tb2672 2.764 . S
C2681 C2675 1.504 . S
C2681 O2693 1.239 . S
C2681 O2694 1.263 . S
O2682 Tb2672 2.325 . S
O2682 C2692 1.236 . S
O2683 Tb2673 2.322 . S
O2683 C2692 1.257 . S
O2684 Tb2673 2.349 . S
O2684 C2695 1.261 . S
O2685 Tb2672 2.303 . S
O2685 C2695 1.257 . S
O2686 Tb2673 2.415 . S
O2686 C2702 1.239 . S
O2687 Tb2673 2.399 . S
O2687 C2702 1.263 . S
O2688 Tb2673 2.325 . S
O2688 C2703 1.236 . S
O2689 Tb2672 2.322 . S
O2689 C2703 1.257 . S
O2690 Tb2672 2.349 . S
O2690 C2674 1.261 . S
O2691 Tb2673 2.303 . S
O2691 C2674 1.257 . S
C2692 O2682 1.236 . S
C2692 O2683 1.257 . S
O2693 Tb2672 2.415 . S
O2693 C2681 1.239 . S
O2694 Tb2672 2.399 . S
O2694 C2681 1.263 . S
C2695 O2684 1.261 . S
C2695 O2685 1.257 . S
C2696 C2699 1.358 . S
C2696 C2700 1.332 . S
C2696 C2702 1.504 . S
C2697 C2698 1.373 . S
C2697 C2701 1.308 . S
C2698 C2697 1.373 . S
C2698 C2699 1.429 . S
C2698 H2708 0.932 . S
C2699 C2696 1.358 . S
C2699 C2698 1.429 . S
C2699 H2709 0.930 . S
C2700 C2696 1.332 . S
C2700 C2701 1.394 . S
C2700 H2710 0.932 . S
C2701 C2697 1.308 . S
C2701 C2700 1.394 . S
C2701 H2711 0.929 . S
C2702 Tb2673 2.764 . S
C2702 O2686 1.239 . S
C2702 O2687 1.263 . S
C2702 C2696 1.504 . S
C2703 O2688 1.236 . S
C2703 O2689 1.257 . S
H2704 C2677 0.932 . S
H2705 C2678 0.930 . S
H2706 C2679 0.932 . S
H2707 C2680 0.929 . S
H2708 C2698 0.932 . S
H2709 C2699 0.930 . S
H2710 C2700 0.932 . S
H2711 C2701 0.929 . S
Tb2712 C2721 2.764 1_455 S
Tb2712 O2722 2.325 . S
Tb2712 O2725 2.303 . S
Tb2712 O2729 2.322 . S
Tb2712 O2730 2.349 . S
Tb2712 O2733 2.415 1_455 S
Tb2712 O2734 2.399 1_455 S
Tb2713 O2723 2.322 . S
Tb2713 O2724 2.349 1_554 S
Tb2713 O2726 2.415 . S
Tb2713 O2727 2.399 . S
Tb2713 O2728 2.325 . S
Tb2713 O2731 2.303 . S
Tb2713 C2742 2.764 . S
C2714 O2730 1.261 . S
C2714 O2731 1.257 . S
C2715 C2718 1.358 . S
C2715 C2719 1.332 . S
C2715 C2721 1.504 . S
C2716 C2717 1.373 . S
C2716 C2720 1.308 . S
C2717 C2716 1.373 . S
C2717 C2718 1.429 . S
C2717 H2744 0.932 . S
C2718 C2715 1.358 . S
C2718 C2717 1.429 . S
C2718 H2745 0.930 . S
C2719 C2715 1.332 . S
C2719 C2720 1.394 . S
C2719 H2746 0.932 . S
C2720 C2716 1.308 . S
C2720 C2719 1.394 . S
C2720 H2747 0.929 . S
C2721 Tb2712 2.764 1_655 S
C2721 C2715 1.504 . S
C2721 O2733 1.239 . S
C2721 O2734 1.263 . S
O2722 Tb2712 2.325 . S
O2722 C2732 1.236 . S
O2723 Tb2713 2.322 . S
O2723 C2732 1.257 . S
O2724 Tb2713 2.349 1_556 S
O2724 C2735 1.261 . S
O2725 Tb2712 2.303 . S
O2725 C2735 1.257 1_554 S
O2726 Tb2713 2.415 . S
O2726 C2742 1.239 . S
O2727 Tb2713 2.399 . S
O2727 C2742 1.263 . S
O2728 Tb2713 2.325 . S
O2728 C2743 1.236 . S
O2729 Tb2712 2.322 . S
O2729 C2743 1.257 . S
O2730 Tb2712 2.349 . S
O2730 C2714 1.261 . S
O2731 Tb2713 2.303 . S
O2731 C2714 1.257 . S
C2732 O2722 1.236 . S
C2732 O2723 1.257 . S
O2733 Tb2712 2.415 1_655 S
O2733 C2721 1.239 . S
O2734 Tb2712 2.399 1_655 S
O2734 C2721 1.263 . S
C2735 O2724 1.261 . S
C2735 O2725 1.257 1_556 S
C2736 C2739 1.358 1_554 S
C2736 C2740 1.332 . S
C2736 C2742 1.504 . S
C2737 C2738 1.373 1_554 S
C2737 C2741 1.308 . S
C2738 C2737 1.373 1_556 S
C2738 C2739 1.429 . S
C2738 H2748 0.932 . S
C2739 C2736 1.358 1_556 S
C2739 C2738 1.429 . S
C2739 H2749 0.930 . S
C2740 C2736 1.332 . S
C2740 C2741 1.394 . S
C2740 H2750 0.932 . S
C2741 C2737 1.308 . S
C2741 C2740 1.394 . S
C2741 H2751 0.929 . S
C2742 Tb2713 2.764 . S
C2742 O2726 1.239 . S
C2742 O2727 1.263 . S
C2742 C2736 1.504 . S
C2743 O2728 1.236 . S
C2743 O2729 1.257 . S
H2744 C2717 0.932 . S
H2745 C2718 0.930 . S
H2746 C2719 0.932 . S
H2747 C2720 0.929 . S
H2748 C2738 0.932 . S
H2749 C2739 0.930 . S
H2750 C2740 0.932 . S
H2751 C2741 0.929 . S
C665 C2143 4.046 1_655 S
C381 C2154 2.875 . S
C460 C2223 2.475 . S
C2236 C585 1.247 . S
C108 C2292 3.471 1_565 S
C2343 C196 3.799 . S
C2372 C313 3.361 . S
C49 C2423 3.819 . S
C2114 C1457 2.197 1_455 S
C1545 C2156 2.185 . S
C2194 C1721 0.525 . S
C2263 C1113 3.562 . S
C1428 C2297 0.740 1_455 S
C2314 C1516 1.603 . S
C2377 C1692 1.146 . S
C2394 C1085 3.283 . S
C2116 C988 4.598 . S
C1817 C2455 1.764 . S
C2476 C2081 4.488 . S
C2535 C1993 1.705 1_655 S
C761 C2396 3.000 . S
C821 C2196 2.111 . S
C2053 C2554 3.319 . S
C2623 C1868 1.446 . S
C2132 C372 4.058 . S
C2615 C645 2.866 . S
C577 C2212 2.464 . S
C497 C2577 1.255 . S
C2303 C57 3.463 . S
C293 C2492 3.802 . S
C2383 C205 3.349 1_554 S
C2652 C145 3.819 . S
C2135 C909 2.231 . S
C2617 C1956 2.190 . S
C724 C2215 0.514 . S
C1780 C2572 3.553 . S
C937 C2276 0.737 . S
C2495 C1985 1.612 . S
C753 C2356 1.136 . S
C1809 C2655 3.277 . S
C1173 C2137 4.587 1_554 S
C1105 C2434 1.761 . S
C1633 C2337 4.507 . S
C1553 C2514 1.689 . S
C2657 C1729 3.020 . S
C1340 C2217 2.129 . S
C2255 C1604 3.307 . S
C2172 C1252 1.432 . S
C489 C2703 4.050 . S
C2594 C557 2.876 . S
C636 C2743 2.475 . S
C409 C2556 1.247 . S
C284 C2452 3.471 . S
C2503 C20 3.800 . S
C2532 C137 3.361 . S
C2663 C225 3.819 . S
C2674 C1641 2.212 . S
C1193 C2596 2.184 . S
C2714 C1289 0.525 . S
C2583 C1377 3.562 . S
C2457 C1613 0.736 . S
C1164 C2474 1.604 . S
C2537 C1261 1.146 . S
C1349 C2634 3.283 . S
C2676 C1965 4.568 . S
C849 C2295 1.764 . S
C2316 C929 4.487 . S
C2375 C1017 1.704 . S
C2636 C1897 3.001 . S
C1789 C2716 2.111 . S
C2234 C900 3.318 . S
C2183 C733 1.446 . S
C548 C2692 4.058 . S
C2175 C469 2.864 . S
C401 C2732 2.464 . S
C673 C2257 1.252 . S
C233 C2463 3.463 1_556 S
C2332 C117 3.802 . S
C29 C2543 3.349 . S
C321 C2412 3.819 . S
C2695 C2044 2.230 . S
C997 C2177 2.190 . S
C2735 C1877 0.514 . S
C812 C2252 3.554 . S
C2073 C2436 0.737 . S
C2335 C1025 1.612 . S
C1905 C2516 1.141 1_455 S
C2415 C841 3.277 . S
C2697 C1525 4.588 . S
C2274 C1369 1.762 1_545 S
C1465 C2497 4.507 . S
C2354 C1201 1.689 . S
C1281 C2417 3.020 . S
C1076 C2737 2.128 . S
C2575 C1437 3.304 . S
C2612 C1701 1.431 . S
