# Generated by pormake.
# Topology llk, (3,12)-cn, num edge types: 1
# Building blocks:
#     Node 0, Type 0, BuildingBlock: OLANEW_clean_sbu_2, # of connection points: 3
#     Node 1, Type 0, BuildingBlock: OLANEW_clean_sbu_2, # of connection points: 3
#     Node 2, Type 0, BuildingBlock: OLANEW_clean_sbu_2, # of connection points: 3
#     Node 3, Type 0, BuildingBlock: OLANEW_clean_sbu_2, # of connection points: 3
#     Node 4, Type 0, BuildingBlock: OLANEW_clean_sbu_2, # of connection points: 3
#     Node 5, Type 0, BuildingBlock: OLANEW_clean_sbu_2, # of connection points: 3
#     Node 6, Type 0, BuildingBlock: OLANEW_clean_sbu_2, # of connection points: 3
#     Node 7, Type 0, BuildingBlock: OLANEW_clean_sbu_2, # of connection points: 3
#     Node 8, Type 0, BuildingBlock: OLANEW_clean_sbu_2, # of connection points: 3
#     Node 9, Type 0, BuildingBlock: OLANEW_clean_sbu_2, # of connection points: 3
#     Node 10, Type 0, BuildingBlock: OLANEW_clean_sbu_2, # of connection points: 3
#     Node 11, Type 0, BuildingBlock: OLANEW_clean_sbu_2, # of connection points: 3
#     Node 12, Type 0, BuildingBlock: OLANEW_clean_sbu_2, # of connection points: 3
#     Node 13, Type 0, BuildingBlock: OLANEW_clean_sbu_2, # of connection points: 3
#     Node 14, Type 0, BuildingBlock: OLANEW_clean_sbu_2, # of connection points: 3
#     Node 15, Type 0, BuildingBlock: OLANEW_clean_sbu_2, # of connection points: 3
#     Node 16, Type 0, BuildingBlock: OLANEW_clean_sbu_2, # of connection points: 3
#     Node 17, Type 0, BuildingBlock: OLANEW_clean_sbu_2, # of connection points: 3
#     Node 18, Type 0, BuildingBlock: OLANEW_clean_sbu_2, # of connection points: 3
#     Node 19, Type 0, BuildingBlock: OLANEW_clean_sbu_2, # of connection points: 3
#     Node 20, Type 0, BuildingBlock: OLANEW_clean_sbu_2, # of connection points: 3
#     Node 21, Type 0, BuildingBlock: OLANEW_clean_sbu_2, # of connection points: 3
#     Node 22, Type 0, BuildingBlock: OLANEW_clean_sbu_2, # of connection points: 3
#     Node 23, Type 0, BuildingBlock: OLANEW_clean_sbu_2, # of connection points: 3
#     Node 24, Type 1, BuildingBlock: EZIPEK_clean_sbu_0, # of connection points: 12
#     Node 25, Type 1, BuildingBlock: EZIPEK_clean_sbu_0, # of connection points: 12
#     Node 26, Type 1, BuildingBlock: EZIPEK_clean_sbu_0, # of connection points: 12
#     Node 27, Type 1, BuildingBlock: EZIPEK_clean_sbu_0, # of connection points: 12
#     Node 28, Type 1, BuildingBlock: EZIPEK_clean_sbu_0, # of connection points: 12
#     Node 29, Type 1, BuildingBlock: EZIPEK_clean_sbu_0, # of connection points: 12
#     Edge 30, Type (0, 1), None
#     Edge 31, Type (0, 1), None
#     Edge 32, Type (0, 1), None
#     Edge 33, Type (0, 1), None
#     Edge 34, Type (0, 1), None
#     Edge 35, Type (0, 1), None
#     Edge 36, Type (0, 1), None
#     Edge 37, Type (0, 1), None
#     Edge 38, Type (0, 1), None
#     Edge 39, Type (0, 1), None
#     Edge 40, Type (0, 1), None
#     Edge 41, Type (0, 1), None
#     Edge 42, Type (0, 1), None
#     Edge 43, Type (0, 1), None
#     Edge 44, Type (0, 1), None
#     Edge 45, Type (0, 1), None
#     Edge 46, Type (0, 1), None
#     Edge 47, Type (0, 1), None
#     Edge 48, Type (0, 1), None
#     Edge 49, Type (0, 1), None
#     Edge 50, Type (0, 1), None
#     Edge 51, Type (0, 1), None
#     Edge 52, Type (0, 1), None
#     Edge 53, Type (0, 1), None
#     Edge 54, Type (0, 1), None
#     Edge 55, Type (0, 1), None
#     Edge 56, Type (0, 1), None
#     Edge 57, Type (0, 1), None
#     Edge 58, Type (0, 1), None
#     Edge 59, Type (0, 1), None
#     Edge 60, Type (0, 1), None
#     Edge 61, Type (0, 1), None
#     Edge 62, Type (0, 1), None
#     Edge 63, Type (0, 1), None
#     Edge 64, Type (0, 1), None
#     Edge 65, Type (0, 1), None
#     Edge 66, Type (0, 1), None
#     Edge 67, Type (0, 1), None
#     Edge 68, Type (0, 1), None
#     Edge 69, Type (0, 1), None
#     Edge 70, Type (0, 1), None
#     Edge 71, Type (0, 1), None
#     Edge 72, Type (0, 1), None
#     Edge 73, Type (0, 1), None
#     Edge 74, Type (0, 1), None
#     Edge 75, Type (0, 1), None
#     Edge 76, Type (0, 1), None
#     Edge 77, Type (0, 1), None
#     Edge 78, Type (0, 1), None
#     Edge 79, Type (0, 1), None
#     Edge 80, Type (0, 1), None
#     Edge 81, Type (0, 1), None
#     Edge 82, Type (0, 1), None
#     Edge 83, Type (0, 1), None
#     Edge 84, Type (0, 1), None
#     Edge 85, Type (0, 1), None
#     Edge 86, Type (0, 1), None
#     Edge 87, Type (0, 1), None
#     Edge 88, Type (0, 1), None
#     Edge 89, Type (0, 1), None
#     Edge 90, Type (0, 1), None
#     Edge 91, Type (0, 1), None
#     Edge 92, Type (0, 1), None
#     Edge 93, Type (0, 1), None
#     Edge 94, Type (0, 1), None
#     Edge 95, Type (0, 1), None
#     Edge 96, Type (0, 1), None
#     Edge 97, Type (0, 1), None
#     Edge 98, Type (0, 1), None
#     Edge 99, Type (0, 1), None
#     Edge 100, Type (0, 1), None
#     Edge 101, Type (0, 1), None
# Relax obj value: 0.057
# Max RMSD: 0.087
# Mean RMSD: 0.077
data_MOF--net-llk--node1-OLANEW_clean_sbu_2--node2-EZIPEK_clean_sbu_0--edge1-none
_symmetry_space_group_name_H-M    P1
_symmetry_Int_Tables_number       1
_symmetry_cell_setting            triclinic
loop_
_symmetry_equiv_pos_as_xyz
'x, y, z'
_cell_length_a     26.052218
_cell_length_b     27.610246
_cell_length_c     26.880038
_cell_angle_alpha  89.999923
_cell_angle_beta   89.999634
_cell_angle_gamma 89.999879
loop_
_atom_site_label
_atom_site_type_symbol
_atom_site_fract_x
_atom_site_fract_y
_atom_site_fract_z
_atom_type_partial_charge
O0 O 0.02902 0.30608 0.34688 0.0
Cd1 Cd 0.02982 0.23851 0.28803 0.0
O2 O 0.97225 0.3458 0.3023 0.0
Cd3 Cd 0.97308 0.29222 0.24153 0.0
O4 O 0.98485 0.30879 0.1629 0.0
C5 C 0.97024 0.35249 0.16048 0.0
O6 O 0.9494 0.37225 0.20012 0.0
C7 C 0.00048 0.34287 0.34068 0.0
C8 C 0.01346 0.15494 0.34203 0.0
O9 O 0.05905 0.16875 0.33131 0.0
O10 O 0.97535 0.17986 0.32628 0.0
O11 O 0.66842 0.97724 0.31009 0.0
Cd12 Cd 0.72527 0.98622 0.23887 0.0
O13 O 0.68712 0.05075 0.33649 0.0
Cd14 Cd 0.7545 0.05619 0.28813 0.0
O15 O 0.8328 0.03758 0.30926 0.0
C16 C 0.8308 0.00644 0.34392 0.0
O17 O 0.78587 0.98847 0.35623 0.0
C18 C 0.6607 0.0122 0.33987 0.0
C19 C 0.6612 0.99464 0.15731 0.0
O20 O 0.68395 0.95452 0.1665 0.0
O21 O 0.66996 0.03112 0.18541 0.0
O22 O 0.96747 0.69276 0.34672 0.0
Cd23 Cd 0.96683 0.76038 0.28795 0.0
O24 O 0.02454 0.65318 0.30237 0.0
Cd25 Cd 0.02378 0.70672 0.24154 0.0
O26 O 0.01192 0.69008 0.16292 0.0
C27 C 0.02603 0.64623 0.16066 0.0
O28 O 0.0465 0.62635 0.20042 0.0
C29 C 0.99613 0.65603 0.34063 0.0
C30 C 0.98311 0.84389 0.34209 0.0
O31 O 0.93754 0.83015 0.3312 0.0
O32 O 0.02124 0.81894 0.32644 0.0
O33 O 0.32797 0.02174 0.31013 0.0
Cd34 Cd 0.27109 0.01283 0.23891 0.0
O35 O 0.30937 0.94816 0.33639 0.0
Cd36 Cd 0.24196 0.94276 0.28807 0.0
O37 O 0.16367 0.96134 0.30924 0.0
C38 C 0.16567 0.99246 0.34393 0.0
O39 O 0.2106 0.01042 0.35625 0.0
C40 C 0.33575 0.98673 0.33983 0.0
C41 C 0.3351 0.00436 0.15731 0.0
O42 O 0.31242 0.04451 0.16654 0.0
O43 O 0.3263 0.96788 0.1854 0.0
O44 O 0.029 0.6928 0.64963 0.0
Cd45 Cd 0.02969 0.76041 0.70841 0.0
O46 O 0.97213 0.65311 0.69411 0.0
Cd47 Cd 0.97292 0.70668 0.7549 0.0
O48 O 0.98472 0.69009 0.83353 0.0
C49 C 0.97036 0.64631 0.83588 0.0
O50 O 0.94971 0.62649 0.79617 0.0
C51 C 0.00043 0.65602 0.65579 0.0
C52 C 0.01338 0.8439 0.65426 0.0
O53 O 0.05896 0.83016 0.66511 0.0
O54 O 0.97525 0.81897 0.66996 0.0
O55 O 0.32795 0.97725 0.68632 0.0
Cd56 Cd 0.27104 0.98616 0.75753 0.0
O57 O 0.30931 0.0508 0.66 0.0
Cd58 Cd 0.24189 0.0562 0.70831 0.0
O59 O 0.16362 0.03758 0.68712 0.0
C60 C 0.16565 0.00648 0.65243 0.0
O61 O 0.21059 0.98855 0.6401 0.0
C62 C 0.33571 0.01223 0.65659 0.0
C63 C 0.33504 0.99462 0.83913 0.0
O64 O 0.31238 0.95447 0.82989 0.0
O65 O 0.32623 0.03111 0.81106 0.0
O66 O 0.9675 0.30607 0.64951 0.0
Cd67 Cd 0.96668 0.2385 0.70835 0.0
O68 O 0.02424 0.3458 0.6941 0.0
Cd69 Cd 0.02339 0.29223 0.75489 0.0
O70 O 0.01161 0.30882 0.83351 0.0
C71 C 0.02615 0.35254 0.83591 0.0
O72 O 0.04694 0.37232 0.79625 0.0
C73 C 0.99603 0.34286 0.65572 0.0
C74 C 0.98301 0.15494 0.65432 0.0
O75 O 0.93743 0.16876 0.66504 0.0
O76 O 0.02113 0.17984 0.67008 0.0
O77 O 0.66841 0.02175 0.68638 0.0
Cd78 Cd 0.72531 0.0128 0.75757 0.0
O79 O 0.68709 0.94823 0.66 0.0
Cd80 Cd 0.75451 0.94281 0.70832 0.0
O81 O 0.83279 0.96138 0.68712 0.0
C82 C 0.83079 0.99247 0.65242 0.0
O83 O 0.78585 0.01042 0.64009 0.0
C84 C 0.66067 0.98678 0.65662 0.0
C85 C 0.66128 0.00432 0.83916 0.0
O86 O 0.68398 0.04447 0.82995 0.0
O87 O 0.67009 0.96785 0.81106 0.0
O88 O 0.33555 0.30819 0.98021 0.0
Cd89 Cd 0.27757 0.23901 0.99085 0.0
O90 O 0.30449 0.34578 0.04592 0.0
Cd91 Cd 0.24127 0.29436 0.05426 0.0
O92 O 0.16304 0.31456 0.03593 0.0
C93 C 0.1652 0.3489 0.00465 0.0
O94 O 0.2101 0.36107 0.98627 0.0
C95 C 0.33623 0.34384 0.01014 0.0
C96 C 0.33677 0.15572 0.99676 0.0
O97 O 0.31342 0.16632 0.95629 0.0
O98 O 0.33134 0.18362 0.0344 0.0
O99 O 0.33559 0.69076 0.01626 0.0
Cd100 Cd 0.2776 0.75993 0.00561 0.0
O101 O 0.30454 0.65316 0.95055 0.0
Cd102 Cd 0.2413 0.70456 0.94223 0.0
O103 O 0.1631 0.68431 0.96058 0.0
C104 C 0.16528 0.64991 0.99178 0.0
O105 O 0.2102 0.63768 0.01008 0.0
C106 C 0.33628 0.65511 0.98633 0.0
C107 C 0.33676 0.84324 -0.00034 0.0
O108 O 0.31342 0.83265 0.04014 0.0
O109 O 0.33134 0.81532 0.96203 0.0
O110 O 0.66078 0.30814 0.01623 0.0
Cd111 Cd 0.71876 0.23898 0.00556 0.0
O112 O 0.69188 0.34578 0.95056 0.0
Cd113 Cd 0.75511 0.29437 0.94222 0.0
O114 O 0.83335 0.31457 0.96052 0.0
C115 C 0.8312 0.34892 0.99178 0.0
O116 O 0.7863 0.36111 0.01017 0.0
C117 C 0.66011 0.34381 0.98633 0.0
C118 C 0.65956 0.15569 -0.00036 0.0
O119 O 0.68294 0.16627 0.0401 0.0
O120 O 0.66497 0.18362 0.96201 0.0
O121 O 0.66079 0.69075 0.98026 0.0
Cd122 Cd 0.71874 0.75994 0.99092 0.0
O123 O 0.69191 0.65311 0.04591 0.0
Cd124 Cd 0.75512 0.70453 0.05424 0.0
O125 O 0.83334 0.68431 0.03591 0.0
C126 C 0.83117 0.64993 0.00468 0.0
O127 O 0.78626 0.63772 0.98634 0.0
C128 C 0.66014 0.65507 0.01015 0.0
C129 C 0.65953 0.84323 0.99681 0.0
O130 O 0.68292 0.83264 0.95635 0.0
O131 O 0.66494 0.81532 0.03445 0.0
O132 O 0.52892 0.80611 0.84683 0.0
Cd133 Cd 0.52967 0.73851 0.78802 0.0
O134 O 0.47205 0.84578 0.80233 0.0
Cd135 Cd 0.47286 0.79223 0.74153 0.0
O136 O 0.48468 0.80887 0.66292 0.0
C137 C 0.47031 0.85264 0.66059 0.0
O138 O 0.44964 0.87245 0.7003 0.0
C139 C 0.50034 0.84288 0.84066 0.0
C140 C 0.51337 0.65498 0.84211 0.0
O141 O 0.55895 0.66878 0.83133 0.0
O142 O 0.47524 0.67989 0.82638 0.0
O143 O 0.16846 0.47718 0.81011 0.0
Cd144 Cd 0.22536 0.48612 0.7389 0.0
O145 O 0.18708 0.55074 0.83643 0.0
Cd146 Cd 0.25449 0.55616 0.78811 0.0
O147 O 0.33277 0.53756 0.8093 0.0
C148 C 0.33075 0.50647 0.84401 0.0
O149 O 0.2858 0.48854 0.85635 0.0
C150 C 0.1607 0.51216 0.83984 0.0
C151 C 0.16136 0.49459 0.65729 0.0
O152 O 0.18404 0.45444 0.66652 0.0
O153 O 0.17015 0.53106 0.68539 0.0
O154 O 0.46739 0.19282 0.84678 0.0
Cd155 Cd 0.46667 0.26042 0.78799 0.0
O156 O 0.52431 0.15317 0.80233 0.0
Cd157 Cd 0.52351 0.20674 0.74154 0.0
O158 O 0.51169 0.19016 0.66291 0.0
C159 C 0.5261 0.1464 0.66054 0.0
O160 O 0.54679 0.12658 0.70023 0.0
C161 C 0.49599 0.15606 0.84064 0.0
C162 C 0.483 0.34393 0.8421 0.0
O163 O 0.43742 0.33017 0.83129 0.0
O164 O 0.52112 0.319 0.82639 0.0
O165 O 0.82802 0.52169 0.81008 0.0
Cd166 Cd 0.77112 0.51278 0.73887 0.0
O167 O 0.80931 0.44818 0.83645 0.0
Cd168 Cd 0.7419 0.44278 0.78812 0.0
O169 O 0.66362 0.46137 0.8093 0.0
C170 C 0.66563 0.49246 0.84401 0.0
O171 O 0.71058 0.51039 0.85634 0.0
C172 C 0.83574 0.48672 0.83983 0.0
C173 C 0.83515 0.50432 0.65728 0.0
O174 O 0.81247 0.54446 0.66651 0.0
O175 O 0.82634 0.46784 0.68536 0.0
O176 O 0.5289 0.19279 0.14968 0.0
Cd177 Cd 0.52952 0.2604 0.20849 0.0
O178 O 0.47187 0.15316 0.19404 0.0
Cd179 Cd 0.4726 0.2067 0.25486 0.0
O180 O 0.48447 0.1901 0.33348 0.0
C181 C 0.47036 0.14625 0.33576 0.0
O182 O 0.44989 0.12636 0.29601 0.0
C183 C 0.50028 0.15604 0.15578 0.0
C184 C 0.51327 0.34396 0.1544 0.0
O185 O 0.55884 0.33022 0.16531 0.0
O186 O 0.47514 0.31898 0.16999 0.0
O187 O 0.82799 0.4772 0.18636 0.0
Cd188 Cd 0.7711 0.48617 0.25756 0.0
O189 O 0.80929 0.55071 0.15995 0.0
Cd190 Cd 0.74189 0.55615 0.20829 0.0
O191 O 0.66358 0.53758 0.18714 0.0
C192 C 0.66557 0.50641 0.15251 0.0
O193 O 0.7105 0.4884 0.14023 0.0
C194 C 0.83571 0.51215 0.15658 0.0
C195 C 0.83515 0.49462 0.33913 0.0
O196 O 0.81242 0.45449 0.32993 0.0
O197 O 0.82637 0.5311 0.31103 0.0
O198 O 0.46748 0.8061 0.14958 0.0
Cd199 Cd 0.46673 0.73851 0.20842 0.0
O200 O 0.52412 0.84594 0.1942 0.0
Cd201 Cd 0.52331 0.79233 0.25494 0.0
O202 O 0.51154 0.80885 0.33357 0.0
C203 C 0.52626 0.85251 0.33603 0.0
O204 O 0.5472 0.87225 0.29643 0.0
C205 C 0.49593 0.84295 0.1558 0.0
C206 C 0.48304 0.65494 0.15439 0.0
O207 O 0.43746 0.66872 0.16519 0.0
O208 O 0.52116 0.67988 0.17007 0.0
O209 O 0.16845 0.52169 0.18632 0.0
Cd210 Cd 0.22537 0.5128 0.25752 0.0
O211 O 0.1871 0.44814 0.16001 0.0
Cd212 Cd 0.25452 0.44274 0.20833 0.0
O213 O 0.33281 0.46132 0.18716 0.0
C214 C 0.33081 0.49248 0.15251 0.0
O215 O 0.28588 0.51048 0.14023 0.0
C216 C 0.16069 0.4867 0.1566 0.0
C217 C 0.16136 0.50433 0.33912 0.0
O218 O 0.18402 0.54449 0.32987 0.0
O219 O 0.17019 0.46785 0.31105 0.0
O220 O 0.83569 0.80812 0.48016 0.0
Cd221 Cd 0.77769 0.73897 0.49079 0.0
O222 O 0.80455 0.84576 0.5458 0.0
Cd223 Cd 0.74131 0.79436 0.55413 0.0
O224 O 0.66307 0.8146 0.53589 0.0
C225 C 0.66522 0.84898 0.50466 0.0
O226 O 0.71012 0.86117 0.48628 0.0
C227 C 0.83634 0.84379 0.51006 0.0
C228 C 0.83685 0.65567 0.49675 0.0
O229 O 0.81352 0.66627 0.45626 0.0
O230 O 0.83141 0.68358 0.53438 0.0
O231 O 0.83562 0.19073 0.51615 0.0
Cd232 Cd 0.7777 0.25993 0.50545 0.0
O233 O 0.80452 0.1531 0.45048 0.0
Cd234 Cd 0.74132 0.20453 0.44214 0.0
O235 O 0.6631 0.18434 0.46049 0.0
C236 C 0.66525 0.14998 0.49174 0.0
O237 O 0.71016 0.13778 0.5101 0.0
C238 C 0.83628 0.15506 0.48625 0.0
C239 C 0.83693 0.3432 0.49959 0.0
O240 O 0.8135 0.33264 0.54003 0.0
O241 O 0.83156 0.31527 0.46196 0.0
O242 O 0.16077 0.80814 0.51622 0.0
Cd243 Cd 0.2188 0.739 0.50562 0.0
O244 O 0.19191 0.84576 0.45056 0.0
Cd245 Cd 0.25515 0.79436 0.44226 0.0
O246 O 0.33338 0.81459 0.46057 0.0
C247 C 0.33121 0.84896 0.49181 0.0
O248 O 0.2863 0.86115 0.51017 0.0
C249 C 0.16012 0.8438 0.4863 0.0
C250 C 0.15966 0.65567 0.49967 0.0
O251 O 0.18296 0.6663 0.54017 0.0
O252 O 0.16512 0.68357 0.46203 0.0
O253 O 0.16084 0.19072 0.48016 0.0
Cd254 Cd 0.21878 0.25991 0.49085 0.0
O255 O 0.19188 0.15313 0.54589 0.0
Cd256 Cd 0.25509 0.20456 0.55423 0.0
O257 O 0.33331 0.18435 0.53588 0.0
C258 C 0.33115 0.14997 0.50465 0.0
O259 O 0.28624 0.13775 0.48631 0.0
C260 C 0.16015 0.15507 0.51009 0.0
C261 C 0.15957 0.3432 0.49677 0.0
O262 O 0.18298 0.33263 0.45631 0.0
O263 O 0.16496 0.31526 0.53439 0.0
C264 C 0.00568 0.88242 0.6182 0.0
C265 C 0.99079 0.88241 0.37815 0.0
C266 C 0.99074 0.11645 0.61824 0.0
C267 C 0.00571 0.11645 0.3781 0.0
C268 C 0.87507 0.11709 0.49171 0.0
C269 C 0.87512 0.88177 0.50462 0.0
C270 C 0.12136 0.1171 0.50463 0.0
C271 C 0.12134 0.88178 0.49173 0.0
C272 C 0.12308 0.99779 0.37888 0.0
C273 C 0.87338 0.00109 0.37887 0.0
C274 C 0.12306 0.00112 0.61748 0.0
C275 C 0.87337 0.99779 0.61746 0.0
Eu276 Eu -0.00177 0.90835 0.49817 0.0
O277 O 0.95288 0.95664 0.45345 0.0
O278 O 0.04357 0.95665 0.54289 0.0
Eu279 Eu 0.90184 -0.00058 0.49817 0.0
Eu280 Eu 0.09461 -0.00057 0.49818 0.0
O281 O 0.95303 0.95667 0.54287 0.0
O282 O 0.04342 0.95667 0.45347 0.0
Eu283 Eu -0.00178 -0.00057 0.5936 0.0
Eu284 Eu -0.00177 -0.00058 0.40274 0.0
O285 O 0.95295 0.04228 0.54282 0.0
O286 O 0.9531 0.04226 0.45353 0.0
O287 O 0.04349 0.04228 0.45352 0.0
O288 O 0.04334 0.04226 0.54281 0.0
Eu289 Eu -0.00178 0.09066 0.49817 0.0
O290 O 0.00133 0.86797 0.57112 0.0
O291 O 0.99514 0.86797 0.42523 0.0
O292 O 0.99507 0.13093 0.57117 0.0
O293 O 0.00137 0.13093 0.42517 0.0
O294 O 0.8592 0.07109 0.49003 0.0
O295 O 0.85922 0.92776 0.50631 0.0
O296 O 0.13724 0.0711 0.50631 0.0
O297 O 0.13723 0.92777 0.49004 0.0
O298 O 0.07501 0.99162 0.36261 0.0
O299 O 0.92145 0.00725 0.3626 0.0
O300 O 0.07499 0.00727 0.63374 0.0
O301 O 0.92144 0.99163 0.63374 0.0
O302 O 0.07302 0.13193 0.49977 0.0
O303 O 0.92341 0.13193 0.49658 0.0
O304 O 0.07299 0.86699 0.49661 0.0
O305 O 0.92347 0.86698 0.49974 0.0
O306 O 0.98992 0.928 0.36177 0.0
O307 O 0.00654 0.07084 0.36175 0.0
O308 O 0.00653 0.92801 0.63458 0.0
O309 O 0.98992 0.07084 0.63459 0.0
O310 O 0.85914 0.00524 0.57053 0.0
O311 O 0.85915 0.99363 0.4258 0.0
O312 O 0.1373 0.99366 0.57055 0.0
O313 O 0.13731 0.00524 0.42581 0.0
C314 C 0.49686 0.88146 0.11808 0.0
C315 C 0.49939 0.11752 0.11806 0.0
C316 C 0.49941 0.88141 0.87836 0.0
C317 C 0.49691 0.11753 0.87834 0.0
C318 C 0.62253 0.00146 0.87805 0.0
C319 C 0.62247 0.99749 0.1184 0.0
C320 C 0.37379 0.99748 0.87803 0.0
C321 C 0.37382 0.0015 0.11839 0.0
C322 C 0.37456 0.11684 0.99799 0.0
C323 C 0.62176 0.11682 -0.00159 0.0
C324 C 0.37455 0.88213 -0.00157 0.0
C325 C 0.62174 0.88211 0.99802 0.0
Eu326 Eu 0.49815 -0.00051 0.09269 0.0
O327 O 0.54398 0.04227 0.04255 0.0
O328 O 0.45232 0.9567 0.04255 0.0
Eu329 Eu 0.59585 -0.00053 -0.00177 0.0
Eu330 Eu 0.40045 -0.00052 -0.00178 0.0
O331 O 0.54387 0.95675 0.04246 0.0
O332 O 0.45243 0.04221 0.04245 0.0
Eu333 Eu 0.49815 0.90843 -0.00177 0.0
Eu334 Eu 0.49816 0.09053 -0.00179 0.0
O335 O 0.54392 0.95674 0.95382 0.0
O336 O 0.54382 0.04214 0.95391 0.0
O337 O 0.45239 0.04221 0.95381 0.0
O338 O 0.45248 0.95681 0.95391 0.0
Eu339 Eu 0.49816 -0.00053 0.90359 0.0
O340 O 0.50149 0.92722 0.13384 0.0
O341 O 0.49477 0.07177 0.13382 0.0
O342 O 0.49481 0.92715 0.86255 0.0
O343 O 0.50152 0.07179 0.86254 0.0
O344 O 0.63856 0.00502 0.925 0.0
O345 O 0.63853 0.9939 0.07146 0.0
O346 O 0.35775 0.99393 0.92499 0.0
O347 O 0.35776 0.00506 0.07145 0.0
O348 O 0.42312 0.13099 0.00304 0.0
O349 O 0.57321 0.13098 0.99335 0.0
O350 O 0.42311 0.86797 0.99336 0.0
O351 O 0.57319 0.86796 0.00308 0.0
O352 O 0.42224 0.00195 0.86267 0.0
O353 O 0.57408 0.99699 0.86268 0.0
O354 O 0.42228 0.99701 0.13371 0.0
O355 O 0.57401 0.00199 0.13371 0.0
O356 O 0.50356 0.13169 0.07084 0.0
O357 O 0.49277 0.13168 0.92557 0.0
O358 O 0.49272 0.86728 0.07086 0.0
O359 O 0.50355 0.86726 0.92559 0.0
O360 O 0.63826 0.92761 0.993 0.0
O361 O 0.63827 0.07132 0.00344 0.0
O362 O 0.35804 0.92763 0.00344 0.0
O363 O 0.35805 0.07134 0.99298 0.0
C364 C 0.98293 0.38425 0.1189 0.0
C365 C 0.01347 0.38429 0.87751 0.0
C366 C 0.01339 0.61453 0.119 0.0
C367 C 0.98301 0.61459 0.87751 0.0
C368 C 0.87371 0.61595 -0.00028 0.0
C369 C 0.87372 0.38292 0.99673 0.0
C370 C 0.12274 0.61593 0.99674 0.0
C371 C 0.12268 0.3829 -0.0003 0.0
C372 C 0.12148 0.50787 0.87834 0.0
C373 C 0.87496 0.491 0.87833 0.0
C374 C 0.12147 0.49097 0.11811 0.0
C375 C 0.87494 0.50786 0.1181 0.0
Eu376 Eu -0.0018 0.40558 -0.0018 0.0
O377 O 0.95282 0.45521 0.95432 0.0
O378 O 0.0436 0.45519 0.04211 0.0
Eu379 Eu 0.90204 0.49942 -0.00178 0.0
Eu380 Eu 0.09438 0.49941 -0.00178 0.0
O381 O 0.9533 0.45584 0.04141 0.0
O382 O 0.04312 0.45585 0.95502 0.0
Eu383 Eu -0.0018 0.49939 0.0907 0.0
Eu384 Eu -0.00178 0.49943 0.90574 0.0
O385 O 0.95287 0.5437 0.04208 0.0
O386 O 0.95336 0.54307 0.95508 0.0
O387 O 0.04356 0.54371 0.95438 0.0
O388 O 0.04307 0.54305 0.04139 0.0
Eu389 Eu -0.00178 0.59338 -0.00176 0.0
O390 O 0.98756 0.3665 0.07274 0.0
O391 O 0.00884 0.36653 0.92366 0.0
O392 O 0.00884 0.63234 0.07286 0.0
O393 O 0.98761 0.63237 0.92365 0.0
O394 O 0.85965 0.57017 0.99206 0.0
O395 O 0.85965 0.42869 0.0044 0.0
O396 O 0.13679 0.57014 0.00437 0.0
O397 O 0.13676 0.42867 0.99204 0.0
O398 O 0.07288 0.50575 0.86312 0.0
O399 O 0.92356 0.49314 0.86312 0.0
O400 O 0.07286 0.49309 0.13332 0.0
O401 O 0.92353 0.50569 0.13331 0.0
O402 O 0.07488 0.63204 0.98998 0.0
O403 O 0.92157 0.63205 0.00651 0.0
O404 O 0.07481 0.36683 0.00649 0.0
O405 O 0.92159 0.36685 0.98992 0.0
O406 O 0.00975 0.43045 0.86423 0.0
O407 O 0.98674 0.56842 0.86425 0.0
O408 O 0.98666 0.43041 0.13219 0.0
O409 O 0.00964 0.56836 0.13224 0.0
O410 O 0.8588 0.50637 0.07106 0.0
O411 O 0.85881 0.4925 0.92536 0.0
O412 O 0.13761 0.49248 0.07108 0.0
O413 O 0.13762 0.50635 0.92536 0.0
C414 C 0.50561 0.38245 0.1183 0.0
C415 C 0.49074 0.61645 0.1183 0.0
C416 C 0.49071 0.38243 0.87818 0.0
C417 C 0.50567 0.61649 0.87819 0.0
C418 C 0.62304 0.49779 0.87896 0.0
C419 C 0.623 0.50108 0.11754 0.0
C420 C 0.37334 0.50112 0.87896 0.0
C421 C 0.37338 0.49782 0.11754 0.0
C422 C 0.37507 0.61714 0.99179 0.0
C423 C 0.62134 0.61711 0.0047 0.0
C424 C 0.37503 0.3818 0.00469 0.0
C425 C 0.62132 0.38177 0.99178 0.0
Eu426 Eu 0.49819 0.49945 0.09356 0.0
O427 O 0.54338 0.5423 0.04285 0.0
O428 O 0.453 0.45661 0.04285 0.0
Eu429 Eu 0.59458 0.49944 -0.00175 0.0
Eu430 Eu 0.40181 0.49947 -0.00174 0.0
O431 O 0.54352 0.45657 0.04286 0.0
O432 O 0.45287 0.54233 0.04287 0.0
Eu433 Eu 0.49818 0.40824 -0.00175 0.0
Eu434 Eu 0.49821 0.59066 -0.00175 0.0
O435 O 0.54331 0.45665 0.95358 0.0
O436 O 0.54348 0.54227 0.95356 0.0
O437 O 0.45307 0.54226 0.95358 0.0
O438 O 0.45291 0.45664 0.95356 0.0
Eu439 Eu 0.49819 0.49945 0.9028 0.0
O440 O 0.50651 0.42807 0.13461 0.0
O441 O 0.48987 0.57083 0.13461 0.0
O442 O 0.48987 0.42803 0.86183 0.0
O443 O 0.5065 0.57088 0.86183 0.0
O444 O 0.63728 0.50524 0.92589 0.0
O445 O 0.63726 0.49361 0.07062 0.0
O446 O 0.3591 0.49368 0.92589 0.0
O447 O 0.35912 0.50529 0.07062 0.0
O448 O 0.42341 0.63196 0.99667 0.0
O449 O 0.57301 0.63194 -0.00018 0.0
O450 O 0.42337 0.36697 -0.00019 0.0
O451 O 0.57298 0.36695 0.99667 0.0
O452 O 0.4214 0.50728 0.86268 0.0
O453 O 0.57498 0.49164 0.86268 0.0
O454 O 0.42146 0.49163 0.13377 0.0
O455 O 0.57493 0.50727 0.13377 0.0
O456 O 0.49511 0.63095 0.07124 0.0
O457 O 0.50133 0.63096 0.92526 0.0
O458 O 0.50124 0.36795 0.07124 0.0
O459 O 0.49506 0.36794 0.92525 0.0
O460 O 0.6372 0.42778 0.99009 0.0
O461 O 0.63721 0.5711 0.0064 0.0
O462 O 0.35917 0.42781 0.0064 0.0
O463 O 0.35919 0.57114 0.9901 0.0
C464 C 0.99697 0.38141 0.61804 0.0
C465 C -0.00046 0.38142 0.37836 0.0
C466 C -0.00049 0.61749 0.61809 0.0
C467 C 0.99703 0.61751 0.37833 0.0
C468 C 0.87465 0.61679 0.49799 0.0
C469 C 0.87471 0.3821 0.49839 0.0
C470 C 0.12186 0.6168 0.49843 0.0
C471 C 0.12181 0.3821 0.49799 0.0
C472 C 0.12262 0.50147 0.37802 0.0
C473 C 0.87389 0.49747 0.37802 0.0
C474 C 0.12262 0.49745 0.6184 0.0
C475 C 0.87389 0.50146 0.61839 0.0
Eu476 Eu -0.00174 0.40853 0.4982 0.0
O477 O 0.95252 0.45682 0.45386 0.0
O478 O 0.04399 0.45681 0.54254 0.0
Eu479 Eu 0.90056 0.49944 0.4982 0.0
Eu480 Eu 0.09596 0.49944 0.4982 0.0
O481 O 0.95242 0.45675 0.54264 0.0
O482 O 0.04409 0.45676 0.45377 0.0
Eu483 Eu -0.00174 0.49944 0.59281 0.0
Eu484 Eu -0.00174 0.49945 0.4036 0.0
O485 O 0.95259 0.54215 0.54248 0.0
O486 O 0.95249 0.54221 0.45384 0.0
O487 O 0.04392 0.54215 0.45394 0.0
O488 O 0.04402 0.54221 0.54257 0.0
Eu489 Eu -0.00174 0.59052 0.49821 0.0
O490 O 0.99282 0.36729 0.57079 0.0
O491 O 0.00369 0.3673 0.4256 0.0
O492 O 0.00365 0.63166 0.57086 0.0
O493 O 0.99287 0.63167 0.42556 0.0
O494 O 0.85814 0.57129 0.49298 0.0
O495 O 0.85817 0.42759 0.50343 0.0
O496 O 0.13837 0.57129 0.50343 0.0
O497 O 0.13835 0.42758 0.49296 0.0
O498 O 0.07417 0.49698 0.36266 0.0
O499 O 0.92235 0.50196 0.36267 0.0
O500 O 0.07416 0.50193 0.63374 0.0
O501 O 0.92235 0.49698 0.63374 0.0
O502 O 0.07331 0.63096 0.49338 0.0
O503 O 0.9232 0.63096 0.50304 0.0
O504 O 0.07325 0.36799 0.50307 0.0
O505 O 0.92327 0.36799 0.49331 0.0
O506 O 0.99491 0.42715 0.36255 0.0
O507 O 0.00163 0.57176 0.36254 0.0
O508 O 0.0016 0.42714 0.63385 0.0
O509 O 0.99491 0.57175 0.63388 0.0
O510 O 0.85786 0.50502 0.57143 0.0
O511 O 0.85786 0.49389 0.42497 0.0
O512 O 0.13866 0.49388 0.57144 0.0
O513 O 0.13866 0.50503 0.42497 0.0
C514 C 0.48296 0.88438 0.61898 0.0
C515 C 0.51354 0.88429 0.3776 0.0
C516 C 0.51343 0.11467 0.61892 0.0
C517 C 0.48301 0.11456 0.37743 0.0
C518 C 0.37369 0.116 0.49969 0.0
C519 C 0.37373 0.88296 0.49676 0.0
C520 C 0.62271 0.11601 0.49671 0.0
C521 C 0.62269 0.88298 0.49973 0.0
C522 C 0.62148 0.00791 0.37836 0.0
C523 C 0.37496 0.99101 0.37833 0.0
C524 C 0.62146 0.99107 0.61813 0.0
C525 C 0.37493 0.00795 0.6181 0.0
Eu526 Eu 0.49821 0.90564 0.49827 0.0
O527 O 0.45282 0.95524 0.45435 0.0
O528 O 0.5436 0.95528 0.54215 0.0
Eu529 Eu 0.40204 -0.00053 0.49822 0.0
Eu530 Eu 0.59438 -0.00052 0.49824 0.0
O531 O 0.4533 0.95592 0.54144 0.0
O532 O 0.54312 0.95589 0.45506 0.0
Eu533 Eu 0.49819 -0.00049 0.59071 0.0
Eu534 Eu 0.49822 -0.00057 0.40575 0.0
O535 O 0.45285 0.04378 0.54205 0.0
O536 O 0.45335 0.0431 0.45505 0.0
O537 O 0.54356 0.04375 0.45437 0.0
O538 O 0.54306 0.04314 0.54137 0.0
Eu539 Eu 0.4982 0.09344 0.49819 0.0
O540 O 0.48758 0.86661 0.57283 0.0
O541 O 0.50887 0.86655 0.42375 0.0
O542 O 0.50882 0.13245 0.57277 0.0
O543 O 0.48757 0.13238 0.42356 0.0
O544 O 0.35963 0.07021 0.49206 0.0
O545 O 0.35965 0.92874 0.5044 0.0
O546 O 0.63677 0.07023 0.50439 0.0
O547 O 0.63676 0.92875 0.49206 0.0
O548 O 0.57288 0.00574 0.36314 0.0
O549 O 0.42357 0.99311 0.36312 0.0
O550 O 0.57285 0.99322 0.63334 0.0
O551 O 0.42353 0.00583 0.63332 0.0
O552 O 0.57485 0.13211 0.48991 0.0
O553 O 0.42154 0.13211 0.50645 0.0
O554 O 0.57483 0.86691 0.50655 0.0
O555 O 0.4216 0.86689 0.48999 0.0
O556 O 0.50981 0.93044 0.36429 0.0
O557 O 0.48677 0.06839 0.36421 0.0
O558 O 0.48669 0.93054 0.63224 0.0
O559 O 0.50969 0.06851 0.63219 0.0
O560 O 0.35879 0.00642 0.57107 0.0
O561 O 0.35881 0.99255 0.42535 0.0
O562 O 0.6376 0.99256 0.5711 0.0
O563 O 0.63762 0.00642 0.42539 0.0
loop_
_geom_bond_atom_site_label_1
_geom_bond_atom_site_label_2
_geom_bond_distance
_geom_bond_site_symmetry_2
_ccdc_geom_bond_type
O0 Cd1 2.300 1_455 S
O0 C7 1.275 1_455 S
Cd1 O0 2.300 1_655 S
Cd1 O9 2.381 1_655 S
Cd1 O10 2.378 . S
O2 Cd3 2.385 . S
O2 C7 1.255 . S
Cd3 O2 2.385 . S
Cd3 O4 2.317 . S
O4 Cd3 2.317 . S
O4 C5 1.232 . S
C5 O4 1.232 . S
C5 O6 1.218 . S
O6 C5 1.218 . S
C7 O0 1.275 1_655 S
C7 O2 1.255 . S
C8 O9 1.258 1_655 S
C8 O10 1.256 . S
O9 Cd1 2.381 1_455 S
O9 C8 1.258 1_455 S
O10 Cd1 2.378 . S
O10 C8 1.256 . S
O11 Cd12 2.300 1_565 S
O11 C18 1.275 1_565 S
Cd12 O11 2.300 1_545 S
Cd12 O20 2.381 1_545 S
Cd12 O21 2.378 . S
O13 Cd14 2.385 . S
O13 C18 1.255 . S
Cd14 O13 2.385 . S
Cd14 O15 2.317 . S
O15 Cd14 2.317 . S
O15 C16 1.232 . S
C16 O15 1.232 . S
C16 O17 1.218 . S
O17 C16 1.218 . S
C18 O11 1.275 1_545 S
C18 O13 1.255 . S
C19 O20 1.258 1_545 S
C19 O21 1.256 . S
O20 Cd12 2.381 1_565 S
O20 C19 1.258 1_565 S
O21 Cd12 2.378 . S
O21 C19 1.256 . S
O22 Cd23 2.300 1_655 S
O22 C29 1.275 1_655 S
Cd23 O22 2.300 1_455 S
Cd23 O31 2.381 1_455 S
Cd23 O32 2.378 . S
O24 Cd25 2.385 . S
O24 C29 1.255 . S
Cd25 O24 2.385 . S
Cd25 O26 2.317 . S
O26 Cd25 2.317 . S
O26 C27 1.232 . S
C27 O26 1.232 . S
C27 O28 1.218 . S
O28 C27 1.218 . S
C29 O22 1.275 1_455 S
C29 O24 1.255 . S
C30 O31 1.258 1_455 S
C30 O32 1.256 . S
O31 Cd23 2.381 1_655 S
O31 C30 1.258 1_655 S
O32 Cd23 2.378 . S
O32 C30 1.256 . S
O33 Cd34 2.300 1_545 S
O33 C40 1.275 1_545 S
Cd34 O33 2.300 1_565 S
Cd34 O42 2.381 1_565 S
Cd34 O43 2.378 . S
O35 Cd36 2.385 . S
O35 C40 1.255 . S
Cd36 O35 2.385 . S
Cd36 O37 2.317 . S
O37 Cd36 2.317 . S
O37 C38 1.232 . S
C38 O37 1.232 . S
C38 O39 1.218 . S
O39 C38 1.218 . S
C40 O33 1.275 1_565 S
C40 O35 1.255 . S
C41 O42 1.258 1_565 S
C41 O43 1.256 . S
O42 Cd34 2.381 1_545 S
O42 C41 1.258 1_545 S
O43 Cd34 2.378 . S
O43 C41 1.256 . S
O44 Cd45 2.300 1_455 S
O44 C51 1.275 1_455 S
Cd45 O44 2.300 1_655 S
Cd45 O53 2.381 1_655 S
Cd45 O54 2.378 . S
O46 Cd47 2.385 . S
O46 C51 1.255 . S
Cd47 O46 2.385 . S
Cd47 O48 2.317 . S
O48 Cd47 2.317 . S
O48 C49 1.232 . S
C49 O48 1.232 . S
C49 O50 1.218 . S
O50 C49 1.218 . S
C51 O44 1.275 1_655 S
C51 O46 1.255 . S
C52 O53 1.258 1_655 S
C52 O54 1.256 . S
O53 Cd45 2.381 1_455 S
O53 C52 1.258 1_455 S
O54 Cd45 2.378 . S
O54 C52 1.256 . S
O55 Cd56 2.300 1_565 S
O55 C62 1.275 1_565 S
Cd56 O55 2.300 1_545 S
Cd56 O64 2.381 1_545 S
Cd56 O65 2.378 . S
O57 Cd58 2.385 . S
O57 C62 1.255 . S
Cd58 O57 2.385 . S
Cd58 O59 2.317 . S
O59 Cd58 2.317 . S
O59 C60 1.232 . S
C60 O59 1.232 . S
C60 O61 1.218 . S
O61 C60 1.218 . S
C62 O55 1.275 1_545 S
C62 O57 1.255 . S
C63 O64 1.258 1_545 S
C63 O65 1.256 . S
O64 Cd56 2.381 1_565 S
O64 C63 1.258 1_565 S
O65 Cd56 2.378 . S
O65 C63 1.256 . S
O66 Cd67 2.300 1_655 S
O66 C73 1.275 1_655 S
Cd67 O66 2.300 1_455 S
Cd67 O75 2.381 1_455 S
Cd67 O76 2.378 . S
O68 Cd69 2.385 . S
O68 C73 1.255 . S
Cd69 O68 2.385 . S
Cd69 O70 2.317 . S
O70 Cd69 2.317 . S
O70 C71 1.232 . S
C71 O70 1.232 . S
C71 O72 1.218 . S
O72 C71 1.218 . S
C73 O66 1.275 1_455 S
C73 O68 1.255 . S
C74 O75 1.258 1_455 S
C74 O76 1.256 . S
O75 Cd67 2.381 1_655 S
O75 C74 1.258 1_655 S
O76 Cd67 2.378 . S
O76 C74 1.256 . S
O77 Cd78 2.300 1_545 S
O77 C84 1.275 1_545 S
Cd78 O77 2.300 1_565 S
Cd78 O86 2.381 1_565 S
Cd78 O87 2.378 . S
O79 Cd80 2.385 . S
O79 C84 1.255 . S
Cd80 O79 2.385 . S
Cd80 O81 2.317 . S
O81 Cd80 2.317 . S
O81 C82 1.232 . S
C82 O81 1.232 . S
C82 O83 1.218 . S
O83 C82 1.218 . S
C84 O77 1.275 1_565 S
C84 O79 1.255 . S
C85 O86 1.258 1_565 S
C85 O87 1.256 . S
O86 Cd78 2.381 1_545 S
O86 C85 1.258 1_545 S
O87 Cd78 2.378 . S
O87 C85 1.256 . S
O88 Cd89 2.300 1_556 S
O88 C95 1.275 1_556 S
Cd89 O88 2.300 1_554 S
Cd89 O97 2.381 1_554 S
Cd89 O98 2.378 . S
O90 Cd91 2.385 . S
O90 C95 1.255 . S
Cd91 O90 2.385 . S
Cd91 O92 2.317 . S
O92 Cd91 2.317 . S
O92 C93 1.232 . S
C93 O92 1.232 . S
C93 O94 1.218 . S
O94 C93 1.218 . S
C95 O88 1.275 1_554 S
C95 O90 1.255 . S
C96 O97 1.258 1_554 S
C96 O98 1.256 . S
O97 Cd89 2.381 1_556 S
O97 C96 1.258 1_556 S
O98 Cd89 2.378 . S
O98 C96 1.256 . S
O99 Cd100 2.300 1_554 S
O99 C106 1.275 1_554 S
Cd100 O99 2.300 1_556 S
Cd100 O108 2.381 1_556 S
Cd100 O109 2.378 . S
O101 Cd102 2.385 . S
O101 C106 1.255 . S
Cd102 O101 2.385 . S
Cd102 O103 2.317 . S
O103 Cd102 2.317 . S
O103 C104 1.232 . S
C104 O103 1.232 . S
C104 O105 1.218 . S
O105 C104 1.218 . S
C106 O99 1.275 1_556 S
C106 O101 1.255 . S
C107 O108 1.258 1_556 S
C107 O109 1.256 . S
O108 Cd100 2.381 1_554 S
O108 C107 1.258 1_554 S
O109 Cd100 2.378 . S
O109 C107 1.256 . S
O110 Cd111 2.300 1_554 S
O110 C117 1.275 1_554 S
Cd111 O110 2.300 1_556 S
Cd111 O119 2.381 1_556 S
Cd111 O120 2.378 . S
O112 Cd113 2.385 . S
O112 C117 1.255 . S
Cd113 O112 2.385 . S
Cd113 O114 2.317 . S
O114 Cd113 2.317 . S
O114 C115 1.232 . S
C115 O114 1.232 . S
C115 O116 1.218 . S
O116 C115 1.218 . S
C117 O110 1.275 1_556 S
C117 O112 1.255 . S
C118 O119 1.258 1_556 S
C118 O120 1.256 . S
O119 Cd111 2.381 1_554 S
O119 C118 1.258 1_554 S
O120 Cd111 2.378 . S
O120 C118 1.256 . S
O121 Cd122 2.300 1_556 S
O121 C128 1.275 1_556 S
Cd122 O121 2.300 1_554 S
Cd122 O130 2.381 1_554 S
Cd122 O131 2.378 . S
O123 Cd124 2.385 . S
O123 C128 1.255 . S
Cd124 O123 2.385 . S
Cd124 O125 2.317 . S
O125 Cd124 2.317 . S
O125 C126 1.232 . S
C126 O125 1.232 . S
C126 O127 1.218 . S
O127 C126 1.218 . S
C128 O121 1.275 1_554 S
C128 O123 1.255 . S
C129 O130 1.258 1_554 S
C129 O131 1.256 . S
O130 Cd122 2.381 1_556 S
O130 C129 1.258 1_556 S
O131 Cd122 2.378 . S
O131 C129 1.256 . S
O132 Cd133 2.300 . S
O132 C139 1.275 . S
Cd133 O132 2.300 . S
Cd133 O141 2.381 . S
Cd133 O142 2.378 . S
O134 Cd135 2.385 . S
O134 C139 1.255 . S
Cd135 O134 2.385 . S
Cd135 O136 2.317 . S
O136 Cd135 2.317 . S
O136 C137 1.232 . S
C137 O136 1.232 . S
C137 O138 1.218 . S
O138 C137 1.218 . S
C139 O132 1.275 . S
C139 O134 1.255 . S
C140 O141 1.258 . S
C140 O142 1.256 . S
O141 Cd133 2.381 . S
O141 C140 1.258 . S
O142 Cd133 2.378 . S
O142 C140 1.256 . S
O143 Cd144 2.300 . S
O143 C150 1.275 . S
Cd144 O143 2.300 . S
Cd144 O152 2.381 . S
Cd144 O153 2.378 . S
O145 Cd146 2.385 . S
O145 C150 1.255 . S
Cd146 O145 2.385 . S
Cd146 O147 2.317 . S
O147 Cd146 2.317 . S
O147 C148 1.232 . S
C148 O147 1.232 . S
C148 O149 1.218 . S
O149 C148 1.218 . S
C150 O143 1.275 . S
C150 O145 1.255 . S
C151 O152 1.258 . S
C151 O153 1.256 . S
O152 Cd144 2.381 . S
O152 C151 1.258 . S
O153 Cd144 2.378 . S
O153 C151 1.256 . S
O154 Cd155 2.300 . S
O154 C161 1.275 . S
Cd155 O154 2.300 . S
Cd155 O163 2.381 . S
Cd155 O164 2.378 . S
O156 Cd157 2.385 . S
O156 C161 1.255 . S
Cd157 O156 2.385 . S
Cd157 O158 2.317 . S
O158 Cd157 2.317 . S
O158 C159 1.232 . S
C159 O158 1.232 . S
C159 O160 1.218 . S
O160 C159 1.218 . S
C161 O154 1.275 . S
C161 O156 1.255 . S
C162 O163 1.258 . S
C162 O164 1.256 . S
O163 Cd155 2.381 . S
O163 C162 1.258 . S
O164 Cd155 2.378 . S
O164 C162 1.256 . S
O165 Cd166 2.300 . S
O165 C172 1.275 . S
Cd166 O165 2.300 . S
Cd166 O174 2.381 . S
Cd166 O175 2.378 . S
O167 Cd168 2.385 . S
O167 C172 1.255 . S
Cd168 O167 2.385 . S
Cd168 O169 2.317 . S
O169 Cd168 2.317 . S
O169 C170 1.232 . S
C170 O169 1.232 . S
C170 O171 1.218 . S
O171 C170 1.218 . S
C172 O165 1.275 . S
C172 O167 1.255 . S
C173 O174 1.258 . S
C173 O175 1.256 . S
O174 Cd166 2.381 . S
O174 C173 1.258 . S
O175 Cd166 2.378 . S
O175 C173 1.256 . S
O176 Cd177 2.300 . S
O176 C183 1.275 . S
Cd177 O176 2.300 . S
Cd177 O185 2.381 . S
Cd177 O186 2.378 . S
O178 Cd179 2.385 . S
O178 C183 1.255 . S
Cd179 O178 2.385 . S
Cd179 O180 2.317 . S
O180 Cd179 2.317 . S
O180 C181 1.232 . S
C181 O180 1.232 . S
C181 O182 1.218 . S
O182 C181 1.218 . S
C183 O176 1.275 . S
C183 O178 1.255 . S
C184 O185 1.258 . S
C184 O186 1.256 . S
O185 Cd177 2.381 . S
O185 C184 1.258 . S
O186 Cd177 2.378 . S
O186 C184 1.256 . S
O187 Cd188 2.300 . S
O187 C194 1.275 . S
Cd188 O187 2.300 . S
Cd188 O196 2.381 . S
Cd188 O197 2.378 . S
O189 Cd190 2.385 . S
O189 C194 1.255 . S
Cd190 O189 2.385 . S
Cd190 O191 2.317 . S
O191 Cd190 2.317 . S
O191 C192 1.232 . S
C192 O191 1.232 . S
C192 O193 1.218 . S
O193 C192 1.218 . S
C194 O187 1.275 . S
C194 O189 1.255 . S
C195 O196 1.258 . S
C195 O197 1.256 . S
O196 Cd188 2.381 . S
O196 C195 1.258 . S
O197 Cd188 2.378 . S
O197 C195 1.256 . S
O198 Cd199 2.300 . S
O198 C205 1.275 . S
Cd199 O198 2.300 . S
Cd199 O207 2.381 . S
Cd199 O208 2.378 . S
O200 Cd201 2.385 . S
O200 C205 1.255 . S
Cd201 O200 2.385 . S
Cd201 O202 2.317 . S
O202 Cd201 2.317 . S
O202 C203 1.232 . S
C203 O202 1.232 . S
C203 O204 1.218 . S
O204 C203 1.218 . S
C205 O198 1.275 . S
C205 O200 1.255 . S
C206 O207 1.258 . S
C206 O208 1.256 . S
O207 Cd199 2.381 . S
O207 C206 1.258 . S
O208 Cd199 2.378 . S
O208 C206 1.256 . S
O209 Cd210 2.300 . S
O209 C216 1.275 . S
Cd210 O209 2.300 . S
Cd210 O218 2.381 . S
Cd210 O219 2.378 . S
O211 Cd212 2.385 . S
O211 C216 1.255 . S
Cd212 O211 2.385 . S
Cd212 O213 2.317 . S
O213 Cd212 2.317 . S
O213 C214 1.232 . S
C214 O213 1.232 . S
C214 O215 1.218 . S
O215 C214 1.218 . S
C216 O209 1.275 . S
C216 O211 1.255 . S
C217 O218 1.258 . S
C217 O219 1.256 . S
O218 Cd210 2.381 . S
O218 C217 1.258 . S
O219 Cd210 2.378 . S
O219 C217 1.256 . S
O220 Cd221 2.300 . S
O220 C227 1.275 . S
Cd221 O220 2.300 . S
Cd221 O229 2.381 . S
Cd221 O230 2.378 . S
O222 Cd223 2.385 . S
O222 C227 1.255 . S
Cd223 O222 2.385 . S
Cd223 O224 2.317 . S
O224 Cd223 2.317 . S
O224 C225 1.232 . S
C225 O224 1.232 . S
C225 O226 1.218 . S
O226 C225 1.218 . S
C227 O220 1.275 . S
C227 O222 1.255 . S
C228 O229 1.258 . S
C228 O230 1.256 . S
O229 Cd221 2.381 . S
O229 C228 1.258 . S
O230 Cd221 2.378 . S
O230 C228 1.256 . S
O231 Cd232 2.300 . S
O231 C238 1.275 . S
Cd232 O231 2.300 . S
Cd232 O240 2.381 . S
Cd232 O241 2.378 . S
O233 Cd234 2.385 . S
O233 C238 1.255 . S
Cd234 O233 2.385 . S
Cd234 O235 2.317 . S
O235 Cd234 2.317 . S
O235 C236 1.232 . S
C236 O235 1.232 . S
C236 O237 1.218 . S
O237 C236 1.218 . S
C238 O231 1.275 . S
C238 O233 1.255 . S
C239 O240 1.258 . S
C239 O241 1.256 . S
O240 Cd232 2.381 . S
O240 C239 1.258 . S
O241 Cd232 2.378 . S
O241 C239 1.256 . S
O242 Cd243 2.300 . S
O242 C249 1.275 . S
Cd243 O242 2.300 . S
Cd243 O251 2.381 . S
Cd243 O252 2.378 . S
O244 Cd245 2.385 . S
O244 C249 1.255 . S
Cd245 O244 2.385 . S
Cd245 O246 2.317 . S
O246 Cd245 2.317 . S
O246 C247 1.232 . S
C247 O246 1.232 . S
C247 O248 1.218 . S
O248 C247 1.218 . S
C249 O242 1.275 . S
C249 O244 1.255 . S
C250 O251 1.258 . S
C250 O252 1.256 . S
O251 Cd243 2.381 . S
O251 C250 1.258 . S
O252 Cd243 2.378 . S
O252 C250 1.256 . S
O253 Cd254 2.300 . S
O253 C260 1.275 . S
Cd254 O253 2.300 . S
Cd254 O262 2.381 . S
Cd254 O263 2.378 . S
O255 Cd256 2.385 . S
O255 C260 1.255 . S
Cd256 O255 2.385 . S
Cd256 O257 2.317 . S
O257 Cd256 2.317 . S
O257 C258 1.232 . S
C258 O257 1.232 . S
C258 O259 1.218 . S
O259 C258 1.218 . S
C260 O253 1.275 . S
C260 O255 1.255 . S
C261 O262 1.258 . S
C261 O263 1.256 . S
O262 Cd254 2.381 . S
O262 C261 1.258 . S
O263 Cd254 2.378 . S
O263 C261 1.256 . S
C264 O290 1.283 . S
C264 O308 1.283 . S
C265 O291 1.283 . S
C265 O306 1.283 . S
C266 O292 1.283 . S
C266 O309 1.283 . S
C267 O293 1.283 . S
C267 O307 1.283 . S
C268 O294 1.283 . S
C268 O303 1.283 . S
C269 O295 1.283 . S
C269 O305 1.283 . S
C270 O296 1.283 . S
C270 O302 1.283 . S
C271 O297 1.283 . S
C271 O304 1.283 . S
C272 O298 1.283 . S
C272 O313 1.283 . S
C273 O299 1.283 . S
C273 O311 1.283 . S
C274 O300 1.283 . S
C274 O312 1.283 . S
C275 O301 1.283 . S
C275 O310 1.283 . S
Eu276 O277 2.370 1_455 S
Eu276 O278 2.370 . S
Eu276 O281 2.370 1_455 S
Eu276 O282 2.370 . S
Eu276 O290 2.363 . S
Eu276 O291 2.363 . S
Eu276 O304 2.363 . S
Eu276 O305 2.363 1_455 S
O277 Eu276 2.370 1_655 S
O277 Eu279 2.370 1_565 S
O277 Eu284 2.370 1_665 S
O278 Eu276 2.370 . S
O278 Eu280 2.370 1_565 S
O278 Eu283 2.370 1_565 S
Eu279 O277 2.370 1_545 S
Eu279 O281 2.370 1_545 S
Eu279 O285 2.370 . S
Eu279 O286 2.370 . S
Eu279 O294 2.363 . S
Eu279 O295 2.363 1_545 S
Eu279 O310 2.363 . S
Eu279 O311 2.363 . S
Eu280 O278 2.370 1_545 S
Eu280 O282 2.370 1_545 S
Eu280 O287 2.370 . S
Eu280 O288 2.370 . S
Eu280 O296 2.363 . S
Eu280 O297 2.363 1_545 S
Eu280 O312 2.363 . S
Eu280 O313 2.363 . S
O281 Eu276 2.370 1_655 S
O281 Eu279 2.370 1_565 S
O281 Eu283 2.370 1_665 S
O282 Eu276 2.370 . S
O282 Eu280 2.370 1_565 S
O282 Eu284 2.370 1_565 S
Eu283 O278 2.370 1_545 S
Eu283 O281 2.370 1_445 S
Eu283 O285 2.370 1_455 S
Eu283 O288 2.370 . S
Eu283 O300 2.363 . S
Eu283 O301 2.363 1_455 S
Eu283 O308 2.363 1_545 S
Eu283 O309 2.363 . S
Eu284 O277 2.370 1_445 S
Eu284 O282 2.370 1_545 S
Eu284 O286 2.370 1_455 S
Eu284 O287 2.370 . S
Eu284 O298 2.363 . S
Eu284 O299 2.363 1_455 S
Eu284 O306 2.363 1_545 S
Eu284 O307 2.363 . S
O285 Eu279 2.370 . S
O285 Eu283 2.370 1_655 S
O285 Eu289 2.370 1_655 S
O286 Eu279 2.370 . S
O286 Eu284 2.370 1_655 S
O286 Eu289 2.370 1_655 S
O287 Eu280 2.370 . S
O287 Eu284 2.370 . S
O287 Eu289 2.370 . S
O288 Eu280 2.370 . S
O288 Eu283 2.370 . S
O288 Eu289 2.370 . S
Eu289 O285 2.370 1_455 S
Eu289 O286 2.370 1_455 S
Eu289 O287 2.370 . S
Eu289 O288 2.370 . S
Eu289 O292 2.363 . S
Eu289 O293 2.363 . S
Eu289 O302 2.363 . S
Eu289 O303 2.363 1_455 S
O290 C264 1.283 . S
O290 Eu276 2.363 . S
O291 C265 1.283 . S
O291 Eu276 2.363 . S
O292 C266 1.283 . S
O292 Eu289 2.363 . S
O293 C267 1.283 . S
O293 Eu289 2.363 . S
O294 C268 1.283 . S
O294 Eu279 2.363 . S
O295 C269 1.283 . S
O295 Eu279 2.363 1_565 S
O296 C270 1.283 . S
O296 Eu280 2.363 . S
O297 C271 1.283 . S
O297 Eu280 2.363 1_565 S
O298 C272 1.283 . S
O298 Eu284 2.363 . S
O299 C273 1.283 . S
O299 Eu284 2.363 1_655 S
O300 C274 1.283 . S
O300 Eu283 2.363 . S
O301 C275 1.283 . S
O301 Eu283 2.363 1_655 S
O302 C270 1.283 . S
O302 Eu289 2.363 . S
O303 C268 1.283 . S
O303 Eu289 2.363 1_655 S
O304 C271 1.283 . S
O304 Eu276 2.363 . S
O305 C269 1.283 . S
O305 Eu276 2.363 1_655 S
O306 C265 1.283 . S
O306 Eu284 2.363 1_565 S
O307 C267 1.283 . S
O307 Eu284 2.363 . S
O308 C264 1.283 . S
O308 Eu283 2.363 1_565 S
O309 C266 1.283 . S
O309 Eu283 2.363 . S
O310 C275 1.283 . S
O310 Eu279 2.363 . S
O311 C273 1.283 . S
O311 Eu279 2.363 . S
O312 C274 1.283 . S
O312 Eu280 2.363 . S
O313 C272 1.283 . S
O313 Eu280 2.363 . S
C314 O340 1.283 . S
C314 O358 1.283 . S
C315 O341 1.283 . S
C315 O356 1.283 . S
C316 O342 1.283 . S
C316 O359 1.283 . S
C317 O343 1.283 . S
C317 O357 1.283 . S
C318 O344 1.283 . S
C318 O353 1.283 . S
C319 O345 1.283 . S
C319 O355 1.283 . S
C320 O346 1.283 . S
C320 O352 1.283 . S
C321 O347 1.283 . S
C321 O354 1.283 . S
C322 O348 1.283 . S
C322 O363 1.283 . S
C323 O349 1.283 . S
C323 O361 1.283 . S
C324 O350 1.283 . S
C324 O362 1.283 . S
C325 O351 1.283 . S
C325 O360 1.283 . S
Eu326 O327 2.370 . S
Eu326 O328 2.370 1_545 S
Eu326 O331 2.370 1_545 S
Eu326 O332 2.370 . S
Eu326 O340 2.363 1_545 S
Eu326 O341 2.363 . S
Eu326 O354 2.363 . S
Eu326 O355 2.363 . S
O327 Eu326 2.370 . S
O327 Eu329 2.370 . S
O327 Eu334 2.370 . S
O328 Eu326 2.370 1_565 S
O328 Eu330 2.370 1_565 S
O328 Eu333 2.370 . S
Eu329 O327 2.370 . S
Eu329 O331 2.370 1_545 S
Eu329 O335 2.370 1_544 S
Eu329 O336 2.370 1_554 S
Eu329 O344 2.363 1_554 S
Eu329 O345 2.363 . S
Eu329 O360 2.363 1_545 S
Eu329 O361 2.363 . S
Eu330 O328 2.370 1_545 S
Eu330 O332 2.370 . S
Eu330 O337 2.370 1_554 S
Eu330 O338 2.370 1_544 S
Eu330 O346 2.363 1_554 S
Eu330 O347 2.363 . S
Eu330 O362 2.363 1_545 S
Eu330 O363 2.363 . S
O331 Eu326 2.370 1_565 S
O331 Eu329 2.370 1_565 S
O331 Eu333 2.370 . S
O332 Eu326 2.370 . S
O332 Eu330 2.370 . S
O332 Eu334 2.370 . S
Eu333 O328 2.370 . S
Eu333 O331 2.370 . S
Eu333 O335 2.370 1_554 S
Eu333 O338 2.370 1_554 S
Eu333 O350 2.363 . S
Eu333 O351 2.363 . S
Eu333 O358 2.363 . S
Eu333 O359 2.363 1_554 S
Eu334 O327 2.370 . S
Eu334 O332 2.370 . S
Eu334 O336 2.370 1_554 S
Eu334 O337 2.370 1_554 S
Eu334 O348 2.363 . S
Eu334 O349 2.363 . S
Eu334 O356 2.363 . S
Eu334 O357 2.363 1_554 S
O335 Eu329 2.370 1_566 S
O335 Eu333 2.370 1_556 S
O335 Eu339 2.370 1_565 S
O336 Eu329 2.370 1_556 S
O336 Eu334 2.370 1_556 S
O336 Eu339 2.370 . S
O337 Eu330 2.370 1_556 S
O337 Eu334 2.370 1_556 S
O337 Eu339 2.370 . S
O338 Eu330 2.370 1_566 S
O338 Eu333 2.370 1_556 S
O338 Eu339 2.370 1_565 S
Eu339 O335 2.370 1_545 S
Eu339 O336 2.370 . S
Eu339 O337 2.370 . S
Eu339 O338 2.370 1_545 S
Eu339 O342 2.363 1_545 S
Eu339 O343 2.363 . S
Eu339 O352 2.363 . S
Eu339 O353 2.363 . S
O340 C314 1.283 . S
O340 Eu326 2.363 1_565 S
O341 C315 1.283 . S
O341 Eu326 2.363 . S
O342 C316 1.283 . S
O342 Eu339 2.363 1_565 S
O343 C317 1.283 . S
O343 Eu339 2.363 . S
O344 C318 1.283 . S
O344 Eu329 2.363 1_556 S
O345 C319 1.283 . S
O345 Eu329 2.363 . S
O346 C320 1.283 . S
O346 Eu330 2.363 1_556 S
O347 C321 1.283 . S
O347 Eu330 2.363 . S
O348 C322 1.283 . S
O348 Eu334 2.363 . S
O349 C323 1.283 . S
O349 Eu334 2.363 . S
O350 C324 1.283 . S
O350 Eu333 2.363 . S
O351 C325 1.283 . S
O351 Eu333 2.363 . S
O352 C320 1.283 . S
O352 Eu339 2.363 . S
O353 C318 1.283 . S
O353 Eu339 2.363 . S
O354 C321 1.283 . S
O354 Eu326 2.363 . S
O355 C319 1.283 . S
O355 Eu326 2.363 . S
O356 C315 1.283 . S
O356 Eu334 2.363 . S
O357 C317 1.283 . S
O357 Eu334 2.363 1_556 S
O358 C314 1.283 . S
O358 Eu333 2.363 . S
O359 C316 1.283 . S
O359 Eu333 2.363 1_556 S
O360 C325 1.283 . S
O360 Eu329 2.363 1_565 S
O361 C323 1.283 . S
O361 Eu329 2.363 . S
O362 C324 1.283 . S
O362 Eu330 2.363 1_565 S
O363 C322 1.283 . S
O363 Eu330 2.363 . S
C364 O390 1.283 . S
C364 O408 1.283 . S
C365 O391 1.283 . S
C365 O406 1.283 . S
C366 O392 1.283 . S
C366 O409 1.283 . S
C367 O393 1.283 . S
C367 O407 1.283 . S
C368 O394 1.283 . S
C368 O403 1.283 . S
C369 O395 1.283 . S
C369 O405 1.283 . S
C370 O396 1.283 . S
C370 O402 1.283 . S
C371 O397 1.283 . S
C371 O404 1.283 . S
C372 O398 1.283 . S
C372 O413 1.283 . S
C373 O399 1.283 . S
C373 O411 1.283 . S
C374 O400 1.283 . S
C374 O412 1.283 . S
C375 O401 1.283 . S
C375 O410 1.283 . S
Eu376 O377 2.370 1_454 S
Eu376 O378 2.370 . S
Eu376 O381 2.370 1_455 S
Eu376 O382 2.370 1_554 S
Eu376 O390 2.363 . S
Eu376 O391 2.363 1_554 S
Eu376 O404 2.363 . S
Eu376 O405 2.363 1_455 S
O377 Eu376 2.370 1_656 S
O377 Eu379 2.370 1_556 S
O377 Eu384 2.370 1_655 S
O378 Eu376 2.370 . S
O378 Eu380 2.370 . S
O378 Eu383 2.370 . S
Eu379 O377 2.370 1_554 S
Eu379 O381 2.370 . S
Eu379 O385 2.370 . S
Eu379 O386 2.370 1_554 S
Eu379 O394 2.363 . S
Eu379 O395 2.363 . S
Eu379 O410 2.363 . S
Eu379 O411 2.363 1_554 S
Eu380 O378 2.370 . S
Eu380 O382 2.370 1_554 S
Eu380 O387 2.370 1_554 S
Eu380 O388 2.370 . S
Eu380 O396 2.363 . S
Eu380 O397 2.363 . S
Eu380 O412 2.363 . S
Eu380 O413 2.363 1_554 S
O381 Eu376 2.370 1_655 S
O381 Eu379 2.370 . S
O381 Eu383 2.370 1_655 S
O382 Eu376 2.370 1_556 S
O382 Eu380 2.370 1_556 S
O382 Eu384 2.370 . S
Eu383 O378 2.370 . S
Eu383 O381 2.370 1_455 S
Eu383 O385 2.370 1_455 S
Eu383 O388 2.370 . S
Eu383 O400 2.363 . S
Eu383 O401 2.363 1_455 S
Eu383 O408 2.363 . S
Eu383 O409 2.363 . S
Eu384 O377 2.370 1_455 S
Eu384 O382 2.370 . S
Eu384 O386 2.370 1_455 S
Eu384 O387 2.370 . S
Eu384 O398 2.363 . S
Eu384 O399 2.363 1_455 S
Eu384 O406 2.363 . S
Eu384 O407 2.363 . S
O385 Eu379 2.370 . S
O385 Eu383 2.370 1_655 S
O385 Eu389 2.370 1_655 S
O386 Eu379 2.370 1_556 S
O386 Eu384 2.370 1_655 S
O386 Eu389 2.370 1_656 S
O387 Eu380 2.370 1_556 S
O387 Eu384 2.370 . S
O387 Eu389 2.370 1_556 S
O388 Eu380 2.370 . S
O388 Eu383 2.370 . S
O388 Eu389 2.370 . S
Eu389 O385 2.370 1_455 S
Eu389 O386 2.370 1_454 S
Eu389 O387 2.370 1_554 S
Eu389 O388 2.370 . S
Eu389 O392 2.363 . S
Eu389 O393 2.363 1_554 S
Eu389 O402 2.363 . S
Eu389 O403 2.363 1_455 S
O390 C364 1.283 . S
O390 Eu376 2.363 . S
O391 C365 1.283 . S
O391 Eu376 2.363 1_556 S
O392 C366 1.283 . S
O392 Eu389 2.363 . S
O393 C367 1.283 . S
O393 Eu389 2.363 1_556 S
O394 C368 1.283 . S
O394 Eu379 2.363 . S
O395 C369 1.283 . S
O395 Eu379 2.363 . S
O396 C370 1.283 . S
O396 Eu380 2.363 . S
O397 C371 1.283 . S
O397 Eu380 2.363 . S
O398 C372 1.283 . S
O398 Eu384 2.363 . S
O399 C373 1.283 . S
O399 Eu384 2.363 1_655 S
O400 C374 1.283 . S
O400 Eu383 2.363 . S
O401 C375 1.283 . S
O401 Eu383 2.363 1_655 S
O402 C370 1.283 . S
O402 Eu389 2.363 . S
O403 C368 1.283 . S
O403 Eu389 2.363 1_655 S
O404 C371 1.283 . S
O404 Eu376 2.363 . S
O405 C369 1.283 . S
O405 Eu376 2.363 1_655 S
O406 C365 1.283 . S
O406 Eu384 2.363 . S
O407 C367 1.283 . S
O407 Eu384 2.363 . S
O408 C364 1.283 . S
O408 Eu383 2.363 . S
O409 C366 1.283 . S
O409 Eu383 2.363 . S
O410 C375 1.283 . S
O410 Eu379 2.363 . S
O411 C373 1.283 . S
O411 Eu379 2.363 1_556 S
O412 C374 1.283 . S
O412 Eu380 2.363 . S
O413 C372 1.283 . S
O413 Eu380 2.363 1_556 S
C414 O440 1.283 . S
C414 O458 1.283 . S
C415 O441 1.283 . S
C415 O456 1.283 . S
C416 O442 1.283 . S
C416 O459 1.283 . S
C417 O443 1.283 . S
C417 O457 1.283 . S
C418 O444 1.283 . S
C418 O453 1.283 . S
C419 O445 1.283 . S
C419 O455 1.283 . S
C420 O446 1.283 . S
C420 O452 1.283 . S
C421 O447 1.283 . S
C421 O454 1.283 . S
C422 O448 1.283 . S
C422 O463 1.283 . S
C423 O449 1.283 . S
C423 O461 1.283 . S
C424 O450 1.283 . S
C424 O462 1.283 . S
C425 O451 1.283 . S
C425 O460 1.283 . S
Eu426 O427 2.370 . S
Eu426 O428 2.370 . S
Eu426 O431 2.370 . S
Eu426 O432 2.370 . S
Eu426 O440 2.363 . S
Eu426 O441 2.363 . S
Eu426 O454 2.363 . S
Eu426 O455 2.363 . S
O427 Eu426 2.370 . S
O427 Eu429 2.370 . S
O427 Eu434 2.370 . S
O428 Eu426 2.370 . S
O428 Eu430 2.370 . S
O428 Eu433 2.370 . S
Eu429 O427 2.370 . S
Eu429 O431 2.370 . S
Eu429 O435 2.370 1_554 S
Eu429 O436 2.370 1_554 S
Eu429 O444 2.363 1_554 S
Eu429 O445 2.363 . S
Eu429 O460 2.363 . S
Eu429 O461 2.363 . S
Eu430 O428 2.370 . S
Eu430 O432 2.370 . S
Eu430 O437 2.370 1_554 S
Eu430 O438 2.370 1_554 S
Eu430 O446 2.363 1_554 S
Eu430 O447 2.363 . S
Eu430 O462 2.363 . S
Eu430 O463 2.363 . S
O431 Eu426 2.370 . S
O431 Eu429 2.370 . S
O431 Eu433 2.370 . S
O432 Eu426 2.370 . S
O432 Eu430 2.370 . S
O432 Eu434 2.370 . S
Eu433 O428 2.370 . S
Eu433 O431 2.370 . S
Eu433 O435 2.370 1_554 S
Eu433 O438 2.370 1_554 S
Eu433 O450 2.363 . S
Eu433 O451 2.363 . S
Eu433 O458 2.363 . S
Eu433 O459 2.363 1_554 S
Eu434 O427 2.370 . S
Eu434 O432 2.370 . S
Eu434 O436 2.370 1_554 S
Eu434 O437 2.370 1_554 S
Eu434 O448 2.363 . S
Eu434 O449 2.363 . S
Eu434 O456 2.363 . S
Eu434 O457 2.363 1_554 S
O435 Eu429 2.370 1_556 S
O435 Eu433 2.370 1_556 S
O435 Eu439 2.370 . S
O436 Eu429 2.370 1_556 S
O436 Eu434 2.370 1_556 S
O436 Eu439 2.370 . S
O437 Eu430 2.370 1_556 S
O437 Eu434 2.370 1_556 S
O437 Eu439 2.370 . S
O438 Eu430 2.370 1_556 S
O438 Eu433 2.370 1_556 S
O438 Eu439 2.370 . S
Eu439 O435 2.370 . S
Eu439 O436 2.370 . S
Eu439 O437 2.370 . S
Eu439 O438 2.370 . S
Eu439 O442 2.363 . S
Eu439 O443 2.363 . S
Eu439 O452 2.363 . S
Eu439 O453 2.363 . S
O440 C414 1.283 . S
O440 Eu426 2.363 . S
O441 C415 1.283 . S
O441 Eu426 2.363 . S
O442 C416 1.283 . S
O442 Eu439 2.363 . S
O443 C417 1.283 . S
O443 Eu439 2.363 . S
O444 C418 1.283 . S
O444 Eu429 2.363 1_556 S
O445 C419 1.283 . S
O445 Eu429 2.363 . S
O446 C420 1.283 . S
O446 Eu430 2.363 1_556 S
O447 C421 1.283 . S
O447 Eu430 2.363 . S
O448 C422 1.283 . S
O448 Eu434 2.363 . S
O449 C423 1.283 . S
O449 Eu434 2.363 . S
O450 C424 1.283 . S
O450 Eu433 2.363 . S
O451 C425 1.283 . S
O451 Eu433 2.363 . S
O452 C420 1.283 . S
O452 Eu439 2.363 . S
O453 C418 1.283 . S
O453 Eu439 2.363 . S
O454 C421 1.283 . S
O454 Eu426 2.363 . S
O455 C419 1.283 . S
O455 Eu426 2.363 . S
O456 C415 1.283 . S
O456 Eu434 2.363 . S
O457 C417 1.283 . S
O457 Eu434 2.363 1_556 S
O458 C414 1.283 . S
O458 Eu433 2.363 . S
O459 C416 1.283 . S
O459 Eu433 2.363 1_556 S
O460 C425 1.283 . S
O460 Eu429 2.363 . S
O461 C423 1.283 . S
O461 Eu429 2.363 . S
O462 C424 1.283 . S
O462 Eu430 2.363 . S
O463 C422 1.283 . S
O463 Eu430 2.363 . S
C464 O490 1.283 . S
C464 O508 1.283 . S
C465 O491 1.283 . S
C465 O506 1.283 . S
C466 O492 1.283 . S
C466 O509 1.283 . S
C467 O493 1.283 . S
C467 O507 1.283 . S
C468 O494 1.283 . S
C468 O503 1.283 . S
C469 O495 1.283 . S
C469 O505 1.283 . S
C470 O496 1.283 . S
C470 O502 1.283 . S
C471 O497 1.283 . S
C471 O504 1.283 . S
C472 O498 1.283 . S
C472 O513 1.283 . S
C473 O499 1.283 . S
C473 O511 1.283 . S
C474 O500 1.283 . S
C474 O512 1.283 . S
C475 O501 1.283 . S
C475 O510 1.283 . S
Eu476 O477 2.370 1_455 S
Eu476 O478 2.370 . S
Eu476 O481 2.370 1_455 S
Eu476 O482 2.370 . S
Eu476 O490 2.363 . S
Eu476 O491 2.363 . S
Eu476 O504 2.363 . S
Eu476 O505 2.363 1_455 S
O477 Eu476 2.370 1_655 S
O477 Eu479 2.370 . S
O477 Eu484 2.370 1_655 S
O478 Eu476 2.370 . S
O478 Eu480 2.370 . S
O478 Eu483 2.370 . S
Eu479 O477 2.370 . S
Eu479 O481 2.370 . S
Eu479 O485 2.370 . S
Eu479 O486 2.370 . S
Eu479 O494 2.363 . S
Eu479 O495 2.363 . S
Eu479 O510 2.363 . S
Eu479 O511 2.363 . S
Eu480 O478 2.370 . S
Eu480 O482 2.370 . S
Eu480 O487 2.370 . S
Eu480 O488 2.370 . S
Eu480 O496 2.363 . S
Eu480 O497 2.363 . S
Eu480 O512 2.363 . S
Eu480 O513 2.363 . S
O481 Eu476 2.370 1_655 S
O481 Eu479 2.370 . S
O481 Eu483 2.370 1_655 S
O482 Eu476 2.370 . S
O482 Eu480 2.370 . S
O482 Eu484 2.370 . S
Eu483 O478 2.370 . S
Eu483 O481 2.370 1_455 S
Eu483 O485 2.370 1_455 S
Eu483 O488 2.370 . S
Eu483 O500 2.363 . S
Eu483 O501 2.363 1_455 S
Eu483 O508 2.363 . S
Eu483 O509 2.363 . S
Eu484 O477 2.370 1_455 S
Eu484 O482 2.370 . S
Eu484 O486 2.370 1_455 S
Eu484 O487 2.370 . S
Eu484 O498 2.363 . S
Eu484 O499 2.363 1_455 S
Eu484 O506 2.363 . S
Eu484 O507 2.363 . S
O485 Eu479 2.370 . S
O485 Eu483 2.370 1_655 S
O485 Eu489 2.370 1_655 S
O486 Eu479 2.370 . S
O486 Eu484 2.370 1_655 S
O486 Eu489 2.370 1_655 S
O487 Eu480 2.370 . S
O487 Eu484 2.370 . S
O487 Eu489 2.370 . S
O488 Eu480 2.370 . S
O488 Eu483 2.370 . S
O488 Eu489 2.370 . S
Eu489 O485 2.370 1_455 S
Eu489 O486 2.370 1_455 S
Eu489 O487 2.370 . S
Eu489 O488 2.370 . S
Eu489 O492 2.363 . S
Eu489 O493 2.363 . S
Eu489 O502 2.363 . S
Eu489 O503 2.363 1_455 S
O490 C464 1.283 . S
O490 Eu476 2.363 . S
O491 C465 1.283 . S
O491 Eu476 2.363 . S
O492 C466 1.283 . S
O492 Eu489 2.363 . S
O493 C467 1.283 . S
O493 Eu489 2.363 . S
O494 C468 1.283 . S
O494 Eu479 2.363 . S
O495 C469 1.283 . S
O495 Eu479 2.363 . S
O496 C470 1.283 . S
O496 Eu480 2.363 . S
O497 C471 1.283 . S
O497 Eu480 2.363 . S
O498 C472 1.283 . S
O498 Eu484 2.363 . S
O499 C473 1.283 . S
O499 Eu484 2.363 1_655 S
O500 C474 1.283 . S
O500 Eu483 2.363 . S
O501 C475 1.283 . S
O501 Eu483 2.363 1_655 S
O502 C470 1.283 . S
O502 Eu489 2.363 . S
O503 C468 1.283 . S
O503 Eu489 2.363 1_655 S
O504 C471 1.283 . S
O504 Eu476 2.363 . S
O505 C469 1.283 . S
O505 Eu476 2.363 1_655 S
O506 C465 1.283 . S
O506 Eu484 2.363 . S
O507 C467 1.283 . S
O507 Eu484 2.363 . S
O508 C464 1.283 . S
O508 Eu483 2.363 . S
O509 C466 1.283 . S
O509 Eu483 2.363 . S
O510 C475 1.283 . S
O510 Eu479 2.363 . S
O511 C473 1.283 . S
O511 Eu479 2.363 . S
O512 C474 1.283 . S
O512 Eu480 2.363 . S
O513 C472 1.283 . S
O513 Eu480 2.363 . S
C514 O540 1.283 . S
C514 O558 1.283 . S
C515 O541 1.283 . S
C515 O556 1.283 . S
C516 O542 1.283 . S
C516 O559 1.283 . S
C517 O543 1.283 . S
C517 O557 1.283 . S
C518 O544 1.283 . S
C518 O553 1.283 . S
C519 O545 1.283 . S
C519 O555 1.283 . S
C520 O546 1.283 . S
C520 O552 1.283 . S
C521 O547 1.283 . S
C521 O554 1.283 . S
C522 O548 1.283 . S
C522 O563 1.283 . S
C523 O549 1.283 . S
C523 O561 1.283 . S
C524 O550 1.283 . S
C524 O562 1.283 . S
C525 O551 1.283 . S
C525 O560 1.283 . S
Eu526 O527 2.370 . S
Eu526 O528 2.370 . S
Eu526 O531 2.370 . S
Eu526 O532 2.370 . S
Eu526 O540 2.363 . S
Eu526 O541 2.363 . S
Eu526 O554 2.363 . S
Eu526 O555 2.363 . S
O527 Eu526 2.370 . S
O527 Eu529 2.370 1_565 S
O527 Eu534 2.370 1_565 S
O528 Eu526 2.370 . S
O528 Eu530 2.370 1_565 S
O528 Eu533 2.370 1_565 S
Eu529 O527 2.370 1_545 S
Eu529 O531 2.370 1_545 S
Eu529 O535 2.370 . S
Eu529 O536 2.370 . S
Eu529 O544 2.363 . S
Eu529 O545 2.363 1_545 S
Eu529 O560 2.363 . S
Eu529 O561 2.363 . S
Eu530 O528 2.370 1_545 S
Eu530 O532 2.370 1_545 S
Eu530 O537 2.370 . S
Eu530 O538 2.370 . S
Eu530 O546 2.363 . S
Eu530 O547 2.363 1_545 S
Eu530 O562 2.363 . S
Eu530 O563 2.363 . S
O531 Eu526 2.370 . S
O531 Eu529 2.370 1_565 S
O531 Eu533 2.370 1_565 S
O532 Eu526 2.370 . S
O532 Eu530 2.370 1_565 S
O532 Eu534 2.370 1_565 S
Eu533 O528 2.370 1_545 S
Eu533 O531 2.370 1_545 S
Eu533 O535 2.370 . S
Eu533 O538 2.370 . S
Eu533 O550 2.363 . S
Eu533 O551 2.363 . S
Eu533 O558 2.363 1_545 S
Eu533 O559 2.363 . S
Eu534 O527 2.370 1_545 S
Eu534 O532 2.370 1_545 S
Eu534 O536 2.370 . S
Eu534 O537 2.370 . S
Eu534 O548 2.363 . S
Eu534 O549 2.363 . S
Eu534 O556 2.363 1_545 S
Eu534 O557 2.363 . S
O535 Eu529 2.370 . S
O535 Eu533 2.370 . S
O535 Eu539 2.370 . S
O536 Eu529 2.370 . S
O536 Eu534 2.370 . S
O536 Eu539 2.370 . S
O537 Eu530 2.370 . S
O537 Eu534 2.370 . S
O537 Eu539 2.370 . S
O538 Eu530 2.370 . S
O538 Eu533 2.370 . S
O538 Eu539 2.370 . S
Eu539 O535 2.370 . S
Eu539 O536 2.370 . S
Eu539 O537 2.370 . S
Eu539 O538 2.370 . S
Eu539 O542 2.363 . S
Eu539 O543 2.363 . S
Eu539 O552 2.363 . S
Eu539 O553 2.363 . S
O540 C514 1.283 . S
O540 Eu526 2.363 . S
O541 C515 1.283 . S
O541 Eu526 2.363 . S
O542 C516 1.283 . S
O542 Eu539 2.363 . S
O543 C517 1.283 . S
O543 Eu539 2.363 . S
O544 C518 1.283 . S
O544 Eu529 2.363 . S
O545 C519 1.283 . S
O545 Eu529 2.363 1_565 S
O546 C520 1.283 . S
O546 Eu530 2.363 . S
O547 C521 1.283 . S
O547 Eu530 2.363 1_565 S
O548 C522 1.283 . S
O548 Eu534 2.363 . S
O549 C523 1.283 . S
O549 Eu534 2.363 . S
O550 C524 1.283 . S
O550 Eu533 2.363 . S
O551 C525 1.283 . S
O551 Eu533 2.363 . S
O552 C520 1.283 . S
O552 Eu539 2.363 . S
O553 C518 1.283 . S
O553 Eu539 2.363 . S
O554 C521 1.283 . S
O554 Eu526 2.363 . S
O555 C519 1.283 . S
O555 Eu526 2.363 . S
O556 C515 1.283 . S
O556 Eu534 2.363 1_565 S
O557 C517 1.283 . S
O557 Eu534 2.363 . S
O558 C514 1.283 . S
O558 Eu533 2.363 1_565 S
O559 C516 1.283 . S
O559 Eu533 2.363 . S
O560 C525 1.283 . S
O560 Eu529 2.363 . S
O561 C523 1.283 . S
O561 Eu529 2.363 . S
O562 C524 1.283 . S
O562 Eu530 2.363 . S
O563 C522 1.283 . S
O563 Eu530 2.363 . S
C270 C260 1.862 . S
C238 C268 1.866 . S
C269 C227 1.870 . S
C249 C271 1.866 . S
C315 C183 1.920 . S
C375 C194 1.810 . S
C205 C314 1.923 . S
C374 C216 1.806 . S
C139 C316 1.927 . S
C372 C150 1.809 . S
C161 C317 1.924 . S
C172 C373 1.813 . S
C423 C128 1.866 . S
C106 C422 1.866 1_556 S
C95 C424 1.866 . S
C425 C117 1.866 1_554 S
C51 C466 1.924 1_655 S
C62 C525 1.810 . S
C73 C464 1.924 . S
C84 C524 1.810 1_565 S
C465 C7 1.924 1_455 S
C522 C18 1.810 . S
C29 C467 1.924 . S
C523 C40 1.810 1_545 S
C267 C8 1.588 1_455 S
C16 C273 1.095 . S
C30 C265 1.590 . S
C38 C272 1.093 1_565 S
C52 C264 1.590 1_655 S
C274 C60 1.093 . S
C74 C266 1.588 . S
C275 C82 1.095 1_545 S
C321 C41 1.430 1_545 S
C5 C364 1.307 1_655 S
C319 C19 1.430 . S
C366 C27 1.307 . S
C63 C320 1.431 . S
C365 C71 1.310 . S
C318 C85 1.431 1_545 S
C367 C49 1.310 1_455 S
C371 C93 1.175 . S
C104 C370 1.175 1_556 S
C322 C96 1.504 . S
C369 C115 1.176 1_554 S
C129 C325 1.505 . S
C126 C368 1.177 . S
C324 C107 1.505 1_554 S
C323 C118 1.504 1_554 S
C417 C140 1.591 . S
C420 C148 1.096 . S
C162 C416 1.591 . S
C418 C170 1.096 . S
C414 C184 1.587 . S
C192 C419 1.092 . S
C206 C415 1.586 . S
C421 C214 1.092 . S
C475 C173 1.433 . S
C137 C514 1.310 . S
C474 C151 1.428 . S
C516 C159 1.307 . S
C473 C195 1.433 . S
C203 C515 1.310 . S
C472 C217 1.428 . S
C517 C181 1.307 . S
C521 C225 1.178 . S
C236 C520 1.173 . S
C468 C228 1.507 . S
C247 C519 1.178 . S
C471 C261 1.502 . S
C518 C258 1.173 . S
C469 C239 1.507 . S
C250 C470 1.502 . S
