# Generated by pormake.
# Topology bcu-b, (8,8)-cn, num edge types: 1
# Building blocks:
#     Node 0, Type 0, BuildingBlock: TAGTUT_clean_sbu_1, # of connection points: 8
#     Node 1, Type 1, BuildingBlock: GIZVER_clean_sbu_0, # of connection points: 8
#     Edge 2, Type (0, 1), BuildingBlock: ZUJKAS_clean_linker_0, # of connection points: 2
#     Edge 3, Type (0, 1), BuildingBlock: ZUJKAS_clean_linker_0, # of connection points: 2
#     Edge 4, Type (0, 1), BuildingBlock: ZUJKAS_clean_linker_0, # of connection points: 2
#     Edge 5, Type (0, 1), BuildingBlock: ZUJKAS_clean_linker_0, # of connection points: 2
#     Edge 6, Type (0, 1), BuildingBlock: ZUJKAS_clean_linker_0, # of connection points: 2
#     Edge 7, Type (0, 1), BuildingBlock: ZUJKAS_clean_linker_0, # of connection points: 2
#     Edge 8, Type (0, 1), BuildingBlock: ZUJKAS_clean_linker_0, # of connection points: 2
#     Edge 9, Type (0, 1), BuildingBlock: ZUJKAS_clean_linker_0, # of connection points: 2
# Relax obj value: 0.110
# Max RMSD: 0.178
# Mean RMSD: 0.172
data_MOF--net-bcu-b--node1-TAGTUT_clean_sbu_1--node2-GIZVER_clean_sbu_0--edge1-ZUJKAS_clean_linker_0
_symmetry_space_group_name_H-M    P1
_symmetry_Int_Tables_number       1
_symmetry_cell_setting            triclinic
loop_
_symmetry_equiv_pos_as_xyz
'x, y, z'
_cell_length_a     26.081381
_cell_length_b     27.749905
_cell_length_c     22.050581
_cell_angle_alpha  88.566928
_cell_angle_beta   93.533656
_cell_angle_gamma 105.85727
loop_
_atom_site_label
_atom_site_type_symbol
_atom_site_fract_x
_atom_site_fract_y
_atom_site_fract_z
_atom_type_partial_charge
C0 C 0.90073 0.1242 0.09077 0.0
C1 C 0.93477 0.11964 0.90316 0.0
C2 C 0.90683 0.92302 0.93751 0.0
Mg3 Mg 1.00109 0.12156 0.02359 0.0
O4 O 0.9722 0.05278 0.03683 0.0
Mg5 Mg 0.89686 0.02386 0.00336 0.0
Mg6 Mg 1.00802 1.00699 0.99897 0.0
O7 O 0.04386 0.96127 0.96102 0.0
Mg8 Mg 0.01517 0.89228 0.97274 0.0
Mg9 Mg 0.11912 0.99008 0.99457 0.0
C10 C 0.10918 0.09085 0.06009 0.0
C11 C 0.08939 0.07148 0.90007 0.0
O12 O 0.87493 0.08214 0.06617 0.0
O13 O 0.94998 0.14509 0.08179 0.0
O14 O 0.90283 0.07987 0.92344 0.0
O15 O 0.97839 0.14099 0.93254 0.0
O16 O 0.08394 0.12455 0.05098 0.0
O17 O 0.08656 0.04394 0.05165 0.0
C18 C 0.92679 0.94271 0.09811 0.0
O19 O 0.97249 0.94995 0.07507 0.0
O20 O 0.89366 0.96738 0.08005 0.0
O21 O 0.14131 0.93234 0.93135 0.0
O22 O 0.06635 0.8697 0.91374 0.0
O23 O 0.11294 0.93356 0.07403 0.0
C24 C 0.11574 0.89073 0.90561 0.0
O25 O 0.03801 0.8718 0.06325 0.0
O26 O 0.93227 0.8894 0.94582 0.0
C27 C 0.08122 0.89324 0.09335 0.0
O28 O 0.92944 0.96987 0.94651 0.0
O29 O 0.04359 0.0641 0.9229 0.0
O30 O 0.12254 0.04686 0.91822 0.0
Co31 Co 0.5717 0.41606 0.48934 0.0
Co32 Co 0.58046 0.45787 0.59324 0.0
Co33 Co 0.5089 0.50692 0.49926 0.0
O34 O 0.57349 0.48193 0.51536 0.0
H35 H 0.606 0.50672 0.50557 0.0
O36 O 0.44432 0.532 0.48322 0.0
Co37 Co 0.44693 0.59819 0.50882 0.0
Co38 Co 0.43734 0.55596 0.40543 0.0
H39 H 0.41178 0.50741 0.49333 0.0
O40 O 0.64755 0.46013 0.62647 0.0
O41 O 0.59099 0.39705 0.57337 0.0
O42 O 0.51874 0.44481 0.64061 0.0
O43 O 0.46699 0.46762 0.56738 0.0
O44 O 0.54234 0.56395 0.55506 0.0
O45 O 0.44477 0.65697 0.53509 0.0
O46 O 0.37822 0.58543 0.52939 0.0
O47 O 0.51976 0.61946 0.49408 0.0
O48 O 0.55079 0.54613 0.4311 0.0
O49 O 0.49886 0.56847 0.3577 0.0
O50 O 0.42702 0.61702 0.42478 0.0
O51 O 0.37026 0.55347 0.37244 0.0
C52 C 0.62377 0.38249 0.45389 0.0
C53 C 0.46959 0.40433 0.45928 0.0
C54 C 0.47333 0.44773 0.61932 0.0
C55 C 0.63634 0.41535 0.60399 0.0
C56 C 0.39602 0.63239 0.5454 0.0
C57 C 0.5482 0.60949 0.53893 0.0
C58 C 0.54433 0.5657 0.37899 0.0
C59 C 0.38166 0.59851 0.39419 0.0
O60 O 0.57488 0.35754 0.46298 0.0
O61 O 0.64073 0.42954 0.46974 0.0
O62 O 0.47539 0.44993 0.44346 0.0
O63 O 0.49864 0.39398 0.5033 0.0
H64 H 0.18095 0.18036 0.04246 0.0
H65 H 0.25936 0.21795 0.1081 0.0
H66 H 0.23979 0.07806 0.20595 0.0
H67 H 0.16031 0.04009 0.14011 0.0
H68 H 0.23576 0.15473 0.27815 0.0
H69 H 0.41279 0.21779 0.14225 0.0
H70 H 0.35739 0.2359 0.10608 0.0
H71 H 0.35371 0.17036 0.11579 0.0
C72 C 0.19445 0.15704 0.07654 0.0
C73 C 0.16428 0.10755 0.08676 0.0
C74 C 0.23962 0.17849 0.1138 0.0
C75 C 0.25564 0.15081 0.16186 0.0
C76 C 0.22824 0.09997 0.16888 0.0
H77 H 0.45254 0.30333 0.477 0.0
H78 H 0.40458 0.23613 0.40803 0.0
C79 C 0.18303 0.07828 0.13112 0.0
C80 C 0.29382 0.17783 0.21029 0.0
H81 H 0.41187 0.26821 0.23133 0.0
C82 C 0.27496 0.17848 0.26851 0.0
C83 C 0.34477 0.209 0.19754 0.0
C84 C 0.3685 0.20782 0.13712 0.0
C85 C 0.30397 0.21212 0.31282 0.0
C86 C 0.35328 0.24551 0.29861 0.0
C87 C 0.37368 0.24286 0.24174 0.0
C88 C 0.38236 0.28579 0.34059 0.0
C89 C 0.28025 0.21397 0.37316 0.0
C90 C 0.38564 0.33586 0.3253 0.0
C91 C 0.4128 0.37437 0.36457 0.0
C92 C 0.43757 0.36343 0.41966 0.0
C93 C 0.43381 0.31306 0.43498 0.0
C94 C 0.40647 0.27458 0.39571 0.0
H95 H 0.23838 0.19026 0.37386 0.0
H96 H 0.30437 0.2005 0.40957 0.0
H97 H 0.28117 0.25309 0.38391 0.0
H98 H 0.36705 0.34512 0.28293 0.0
H99 H 0.41503 0.41269 0.3513 0.0
H100 H 0.79959 0.09075 0.1329 0.0
H101 H 0.75604 0.13563 0.19902 0.0
H102 H 0.89653 0.2612 0.20531 0.0
H103 H 0.94023 0.21729 0.13976 0.0
H104 H 0.79788 0.17869 0.32104 0.0
H105 H 0.76983 0.32058 0.14881 0.0
H106 H 0.78077 0.2617 0.12831 0.0
H107 H 0.83562 0.3116 0.15732 0.0
C108 C 0.82115 0.12794 0.14822 0.0
C109 C 0.87337 0.15036 0.13073 0.0
C110 C 0.79627 0.15345 0.18606 0.0
C111 C 0.82297 0.20188 0.20639 0.0
C112 C 0.87505 0.22412 0.18943 0.0
H113 H 0.72517 0.42276 0.41519 0.0
H114 H 0.77836 0.37946 0.35999 0.0
C115 C 0.89999 0.19872 0.15206 0.0
C116 C 0.79689 0.22939 0.2458 0.0
H117 H 0.74894 0.33206 0.24923 0.0
C118 C 0.78697 0.21212 0.3054 0.0
C119 C 0.7835 0.27336 0.22539 0.0
C120 C 0.79253 0.29291 0.16134 0.0
C121 C 0.76407 0.23786 0.34535 0.0
C122 C 0.74967 0.28134 0.32459 0.0
C123 C 0.76024 0.2989 0.26516 0.0
C124 C 0.72007 0.30704 0.36217 0.0
C125 C 0.75622 0.21865 0.40969 0.0
C126 C 0.66991 0.2807 0.38171 0.0
C127 C 0.63973 0.30514 0.41311 0.0
C128 C 0.65874 0.35672 0.42523 0.0
C129 C 0.70949 0.38302 0.40667 0.0
C130 C 0.73982 0.35837 0.37507 0.0
H131 H 0.78462 0.19657 0.42412 0.0
H132 H 0.76143 0.2499 0.44197 0.0
H133 H 0.71516 0.19368 0.41249 0.0
H134 H 0.65333 0.2414 0.37117 0.0
H135 H 0.60081 0.28363 0.42665 0.0
H136 H 0.85993 0.93934 0.1886 0.0
H137 H 0.81164 0.86519 0.24373 0.0
H138 H 0.8997 0.77692 0.15891 0.0
H139 H 0.94682 0.85095 0.10202 0.0
H140 H 0.79321 0.73721 0.14256 0.0
H141 H 0.84246 0.78069 0.38563 0.0
H142 H 0.82282 0.83071 0.34633 0.0
H143 H 0.88236 0.81521 0.32646 0.0
C144 C 0.87021 0.90447 0.18312 0.0
C145 C 0.90787 0.90115 0.14161 0.0
C146 C 0.84277 0.86211 0.21497 0.0
C147 C 0.85249 0.81553 0.20616 0.0
C148 C 0.89199 0.81259 0.16699 0.0
H149 H 0.64848 0.56728 0.40853 0.0
H150 H 0.72834 0.61998 0.36363 0.0
C151 C 0.91955 0.85512 0.1351 0.0
C152 C 0.81632 0.76945 0.23139 0.0
H153 H 0.75713 0.72065 0.36137 0.0
C154 C 0.78611 0.73302 0.19062 0.0
C155 C 0.80743 0.76351 0.2941 0.0
C156 C 0.84095 0.7994 0.34067 0.0
C157 C 0.74502 0.69262 0.21035 0.0
C158 C 0.73316 0.6891 0.27232 0.0
C159 C 0.76565 0.72367 0.31368 0.0
C160 C 0.68502 0.65239 0.29456 0.0
C161 C 0.71418 0.65464 0.16437 0.0
C162 C 0.63404 0.65248 0.27011 0.0
C163 C 0.58826 0.62219 0.29539 0.0
C164 C 0.59245 0.59162 0.34629 0.0
C165 C 0.64364 0.59033 0.36939 0.0
C166 C 0.68943 0.62053 0.34387 0.0
H167 H 0.7389 0.65223 0.12587 0.0
H168 H 0.70004 0.61685 0.18525 0.0
H169 H 0.67893 0.66632 0.14556 0.0
H170 H 0.62953 0.67759 0.23303 0.0
H171 H 0.54962 0.62452 0.27664 0.0
H172 H 0.03649 0.79777 0.13426 0.0
H173 H 0.07877 0.74889 0.20482 0.0
H174 H 0.21005 0.87965 0.24208 0.0
H175 H 0.1683 0.92892 0.17172 0.0
H176 H 0.1829 0.74242 0.17592 0.0
H177 H 0.18305 0.80946 0.41132 0.0
H178 H 0.13522 0.81746 0.35167 0.0
H179 H 0.20231 0.85732 0.35413 0.0
C180 C 0.07354 0.81661 0.15881 0.0
C181 C 0.09939 0.86714 0.14655 0.0
C182 C 0.09765 0.78855 0.19914 0.0
C183 C 0.14748 0.81066 0.2287 0.0
C184 C 0.17127 0.86199 0.22035 0.0
H185 H 0.40073 0.70037 0.4056 0.0
H186 H 0.3415 0.75174 0.37023 0.0
C187 C 0.14741 0.89004 0.17975 0.0
C188 C 0.17845 0.77877 0.25972 0.0
H189 H 0.23905 0.75658 0.39535 0.0
C190 C 0.19467 0.74508 0.22405 0.0
C191 C 0.1946 0.78316 0.32218 0.0
C192 C 0.17769 0.81852 0.36238 0.0
C193 C 0.22732 0.71612 0.2488 0.0
C194 C 0.24293 0.71979 0.31155 0.0
C195 C 0.22677 0.75359 0.34739 0.0
C196 C 0.27627 0.68879 0.33999 0.0
C197 C 0.24619 0.6831 0.20688 0.0
C198 C 0.25849 0.63638 0.33689 0.0
C199 C 0.29237 0.60714 0.35608 0.0
C200 C 0.3445 0.62965 0.37979 0.0
C201 C 0.36102 0.68197 0.38685 0.0
C202 C 0.32718 0.71134 0.36688 0.0
H203 H 0.24351 0.69524 0.15866 0.0
H204 H 0.28813 0.68315 0.21924 0.0
H205 H 0.22061 0.64408 0.21046 0.0
H206 H 0.21883 0.61811 0.31787 0.0
H207 H 0.27797 0.56687 0.3512 0.0
H208 H 0.21944 0.92248 0.87106 0.0
H209 H 0.26416 0.87885 0.80503 0.0
H210 H 0.12027 0.75749 0.78456 0.0
H211 H 0.07517 0.80069 0.84917 0.0
H212 H 0.28144 0.78513 0.82239 0.0
H213 H 0.15796 0.78869 0.6092 0.0
H214 H 0.15712 0.82748 0.67344 0.0
H215 H 0.11952 0.76262 0.67279 0.0
C216 C 0.19722 0.88669 0.85218 0.0
C217 C 0.14359 0.86533 0.86531 0.0
C218 C 0.22281 0.86181 0.81446 0.0
C219 C 0.1952 0.81535 0.78899 0.0
C220 C 0.14194 0.79385 0.80241 0.0
H221 H 0.29261 0.59456 0.57945 0.0
H222 H 0.24152 0.63777 0.63823 0.0
C223 C 0.11635 0.81861 0.83983 0.0
C224 C 0.22255 0.7881 0.75058 0.0
H225 H 0.21632 0.73589 0.61056 0.0
C226 C 0.26739 0.77463 0.77598 0.0
C227 C 0.20388 0.77412 0.69013 0.0
C228 C 0.15728 0.78934 0.6595 0.0
C229 C 0.29376 0.74713 0.74278 0.0
C230 C 0.27511 0.73319 0.68244 0.0
C231 C 0.23015 0.74634 0.65704 0.0
C232 C 0.30394 0.70756 0.64408 0.0
C233 C 0.34118 0.73277 0.77263 0.0
C234 C 0.35506 0.73303 0.62672 0.0
C235 C 0.384 0.70876 0.59322 0.0
C236 C 0.36244 0.65836 0.57628 0.0
C237 C 0.31036 0.63329 0.59197 0.0
C238 C 0.28121 0.65786 0.62551 0.0
H239 H 0.34277 0.73593 0.82289 0.0
H240 H 0.34016 0.69381 0.7609 0.0
H241 H 0.37843 0.75815 0.75598 0.0
H242 H 0.3729 0.77164 0.63982 0.0
H243 H 0.42384 0.72945 0.58166 0.0
H244 H 0.07092 0.16385 0.89757 0.0
H245 H 0.11831 0.23772 0.84064 0.0
H246 H 0.20388 0.14836 0.75358 0.0
H247 H 0.15513 0.07434 0.80862 0.0
H248 H 0.22451 0.27644 0.85587 0.0
H249 H 0.1738 0.23393 0.61283 0.0
H250 H 0.13407 0.19932 0.67208 0.0
H251 H 0.19325 0.18354 0.65145 0.0
C252 C 0.09758 0.15942 0.86392 0.0
C253 C 0.10841 0.11308 0.85667 0.0
C254 C 0.12535 0.20186 0.83203 0.0
C255 C 0.16428 0.19857 0.79222 0.0
C256 C 0.17317 0.15174 0.78279 0.0
H257 H 0.46788 0.38843 0.72126 0.0
H258 H 0.38791 0.33542 0.76479 0.0
C259 C 0.14548 0.10944 0.81459 0.0
C260 C 0.20076 0.24449 0.76698 0.0
H261 H 0.2597 0.29324 0.63682 0.0
C262 C 0.23141 0.28067 0.80777 0.0
C263 C 0.20942 0.25052 0.70422 0.0
C264 C 0.17543 0.21498 0.65762 0.0
C265 C 0.27266 0.3209 0.78797 0.0
C266 C 0.28427 0.32448 0.72593 0.0
C267 C 0.25138 0.29016 0.68458 0.0
C268 C 0.33249 0.36101 0.70356 0.0
C269 C 0.30391 0.35865 0.83399 0.0
C270 C 0.32817 0.39303 0.65438 0.0
C271 C 0.37399 0.42319 0.62888 0.0
C272 C 0.42515 0.42171 0.65188 0.0
C273 C 0.42927 0.39092 0.70259 0.0
C274 C 0.38345 0.36067 0.72783 0.0
H275 H 0.27939 0.36119 0.87263 0.0
H276 H 0.33901 0.34664 0.8526 0.0
H277 H 0.3183 0.39645 0.81322 0.0
H278 H 0.28927 0.39377 0.63474 0.0
H279 H 0.36921 0.44639 0.58988 0.0
H280 H 0.9828 0.21263 0.85677 0.0
H281 H 0.94135 0.26206 0.78594 0.0
H282 H 0.80368 0.1353 0.75844 0.0
H283 H 0.8446 0.0854 0.82889 0.0
H284 H 0.83843 0.20333 0.64915 0.0
H285 H 0.80931 0.29709 0.85972 0.0
H286 H 0.87626 0.29491 0.84793 0.0
H287 H 0.82558 0.23789 0.86141 0.0
C288 C 0.94436 0.19473 0.83444 0.0
C289 C 0.91654 0.14533 0.8496 0.0
C290 C 0.92075 0.2231 0.79398 0.0
C291 C 0.86917 0.20248 0.76784 0.0
C292 C 0.84346 0.15188 0.77835 0.0
H293 H 0.61922 0.31444 0.58581 0.0
H294 H 0.6789 0.26289 0.61788 0.0
C295 C 0.86692 0.1235 0.81887 0.0
C296 C 0.83898 0.23518 0.73727 0.0
H297 H 0.77711 0.32468 0.76758 0.0
C298 C 0.82521 0.23015 0.67474 0.0
C299 C 0.82144 0.26967 0.77107 0.0
C300 C 0.83342 0.27521 0.83883 0.0
C301 C 0.7949 0.25952 0.64488 0.0
C302 C 0.77709 0.29383 0.67891 0.0
C303 C 0.79103 0.29864 0.74142 0.0
C304 C 0.74344 0.3251 0.65171 0.0
C305 C 0.783 0.25412 0.57721 0.0
C306 C 0.7597 0.37716 0.65999 0.0
C307 C 0.72537 0.40646 0.64287 0.0
C308 C 0.67395 0.38439 0.61688 0.0
C309 C 0.65851 0.33255 0.60593 0.0
C310 C 0.69282 0.30308 0.62369 0.0
H311 H 0.81194 0.23806 0.55559 0.0
H312 H 0.74255 0.2284 0.5683 0.0
H313 H 0.78386 0.29079 0.55529 0.0
H314 H 0.79854 0.39501 0.68147 0.0
H315 H 0.73882 0.44636 0.65126 0.0
H316 H 0.83705 0.83168 0.95071 0.0
H317 H 0.75872 0.79515 0.88438 0.0
H318 H 0.77256 0.9389 0.79768 0.0
H319 H 0.85245 0.97576 0.86361 0.0
H320 H 0.66021 0.80929 0.84787 0.0
H321 H 0.80202 0.85412 0.66198 0.0
H322 H 0.82468 0.86203 0.7409 0.0
H323 H 0.79359 0.90598 0.70365 0.0
C324 C 0.82268 0.8559 0.9186 0.0
C325 C 0.85155 0.90624 0.91121 0.0
C326 C 0.77772 0.83499 0.88083 0.0
C327 C 0.76078 0.86397 0.83495 0.0
C328 C 0.78583 0.91566 0.83196 0.0
H329 H 0.56734 0.71043 0.51918 0.0
H330 H 0.61215 0.77801 0.58923 0.0
C331 C 0.83111 0.93677 0.87 0.0
C332 C 0.7225 0.83783 0.78608 0.0
H333 H 0.71861 0.79832 0.63994 0.0
C334 C 0.67246 0.80768 0.80201 0.0
C335 C 0.73873 0.83558 0.72628 0.0
C336 C 0.79274 0.86582 0.70692 0.0
C337 C 0.6394 0.77357 0.76069 0.0
C338 C 0.65715 0.76927 0.70231 0.0
C339 C 0.70543 0.80167 0.68497 0.0
C340 C 0.62873 0.72852 0.6605 0.0
C341 C 0.58645 0.74135 0.78038 0.0
C342 C 0.6245 0.67846 0.67691 0.0
C343 C 0.59943 0.63978 0.6369 0.0
C344 C 0.57806 0.65052 0.57968 0.0
C345 C 0.58321 0.70086 0.563 0.0
C346 C 0.60857 0.73953 0.60298 0.0
H347 H 0.57195 0.75864 0.8184 0.0
H348 H 0.55578 0.73481 0.74202 0.0
H349 H 0.59119 0.70448 0.79634 0.0
H350 H 0.64101 0.66932 0.72059 0.0
H351 H 0.59629 0.6015 0.65113 0.0
loop_
_geom_bond_atom_site_label_1
_geom_bond_atom_site_label_2
_geom_bond_distance
_geom_bond_site_symmetry_2
_ccdc_geom_bond_type
C0 O12 1.241 . S
C0 O13 1.280 . S
C1 O14 1.277 . S
C1 O15 1.245 . S
C2 O26 1.247 . S
C2 O28 1.289 . S
Mg3 O4 1.926 . S
Mg3 O13 1.984 . S
Mg3 O15 1.988 1_554 S
Mg3 O16 2.061 1_655 S
O4 Mg3 1.926 . S
O4 Mg5 1.986 1_554 S
O4 Mg6 1.917 1_655 S
Mg5 O4 1.986 1_556 S
Mg5 O12 2.042 1_556 S
Mg5 O14 2.041 . S
Mg5 O20 2.038 1_546 S
Mg5 O28 2.238 1_545 S
Mg6 O4 1.917 1_455 S
Mg6 O7 1.917 1_544 S
Mg6 O17 2.107 . S
Mg6 O19 2.079 1_445 S
Mg6 O28 2.106 1_444 S
Mg6 O29 2.079 1_554 S
O7 Mg6 1.917 1_566 S
O7 Mg8 1.926 . S
O7 Mg9 1.986 1_556 S
Mg8 O7 1.926 . S
Mg8 O22 1.984 . S
Mg8 O25 1.988 1_556 S
Mg8 O26 2.061 1_455 S
Mg9 O7 1.986 1_554 S
Mg9 O17 2.238 1_565 S
Mg9 O21 2.042 1_554 S
Mg9 O23 2.041 . S
Mg9 O30 2.038 1_564 S
C10 O16 1.247 . S
C10 O17 1.289 . S
C11 O29 1.245 . S
C11 O30 1.274 . S
O12 C0 1.241 . S
O12 Mg5 2.042 1_554 S
O13 C0 1.280 . S
O13 Mg3 1.984 . S
O14 C1 1.277 . S
O14 Mg5 2.041 . S
O15 C1 1.245 . S
O15 Mg3 1.988 1_556 S
O16 Mg3 2.061 1_455 S
O16 C10 1.247 . S
O17 Mg6 2.107 . S
O17 Mg9 2.238 1_545 S
O17 C10 1.289 . S
C18 O19 1.245 . S
C18 O20 1.274 . S
O19 Mg6 2.079 1_665 S
O19 C18 1.245 . S
O20 Mg5 2.038 1_564 S
O20 C18 1.274 . S
O21 Mg9 2.042 1_556 S
O21 C24 1.241 . S
O22 Mg8 1.984 . S
O22 C24 1.280 . S
O23 Mg9 2.041 . S
O23 C27 1.277 . S
C24 O21 1.241 . S
C24 O22 1.280 . S
O25 Mg8 1.988 1_554 S
O25 C27 1.245 . S
O26 C2 1.247 . S
O26 Mg8 2.061 1_655 S
C27 O23 1.277 . S
C27 O25 1.245 . S
O28 C2 1.289 . S
O28 Mg5 2.238 1_565 S
O28 Mg6 2.106 1_666 S
O29 Mg6 2.079 1_556 S
O29 C11 1.245 . S
O30 Mg9 2.038 1_546 S
O30 C11 1.274 . S
Co31 O34 2.042 . S
Co31 O41 2.264 . S
Co31 O60 2.286 . S
Co31 O61 2.069 . S
Co31 O63 2.015 . S
Co32 O34 2.122 . S
Co32 O40 2.073 . S
Co32 O41 2.327 . S
Co32 O42 1.976 . S
Co33 O34 2.087 . S
Co33 O36 2.087 . S
Co33 O43 2.111 . S
Co33 O44 2.143 . S
Co33 O48 2.111 . S
Co33 O62 2.143 . S
O34 Co31 2.042 . S
O34 Co32 2.122 . S
O34 Co33 2.087 . S
O34 H35 0.980 . S
H35 O34 0.980 . S
O36 Co33 2.087 . S
O36 Co37 2.042 . S
O36 Co38 2.122 . S
O36 H39 0.980 . S
Co37 O36 2.042 . S
Co37 O45 2.286 . S
Co37 O46 2.069 . S
Co37 O47 2.015 . S
Co37 O50 2.264 . S
Co38 O36 2.122 . S
Co38 O49 1.976 . S
Co38 O50 2.327 . S
Co38 O51 2.073 . S
H39 O36 0.980 . S
O40 Co32 2.073 . S
O40 C55 1.245 . S
O41 Co31 2.264 . S
O41 Co32 2.327 . S
O41 C55 1.257 . S
O42 Co32 1.976 . S
O42 C54 1.251 . S
O43 Co33 2.111 . S
O43 C54 1.274 . S
O44 Co33 2.143 . S
O44 C57 1.246 . S
O45 Co37 2.286 . S
O45 C56 1.259 . S
O46 Co37 2.069 . S
O46 C56 1.289 . S
O47 Co37 2.015 . S
O47 C57 1.257 . S
O48 Co33 2.111 . S
O48 C58 1.274 . S
O49 Co38 1.976 . S
O49 C58 1.251 . S
O50 Co37 2.264 . S
O50 Co38 2.327 . S
O50 C59 1.257 . S
O51 Co38 2.073 . S
O51 C59 1.245 . S
C52 O60 1.259 . S
C52 O61 1.289 . S
C53 O62 1.246 . S
C53 O63 1.257 . S
C54 O42 1.251 . S
C54 O43 1.274 . S
C55 O40 1.245 . S
C55 O41 1.257 . S
C56 O45 1.259 . S
C56 O46 1.289 . S
C57 O44 1.246 . S
C57 O47 1.257 . S
C58 O48 1.274 . S
C58 O49 1.251 . S
C59 O50 1.257 . S
C59 O51 1.245 . S
O60 Co31 2.286 . S
O60 C52 1.259 . S
O61 Co31 2.069 . S
O61 C52 1.289 . S
O62 Co33 2.143 . S
O62 C53 1.246 . S
O63 Co31 2.015 . S
O63 C53 1.257 . S
H64 C72 0.929 . S
H65 C74 0.930 . S
H66 C76 0.930 . S
H67 C79 0.929 . S
H68 C82 0.930 . S
H69 C84 0.960 . S
H70 C84 0.960 . S
H71 C84 0.960 . S
C72 H64 0.929 . S
C72 C73 1.377 . S
C72 C74 1.384 . S
C73 C72 1.377 . S
C73 C79 1.390 . S
C74 H65 0.930 . S
C74 C72 1.384 . S
C74 C75 1.372 . S
C75 C74 1.372 . S
C75 C76 1.400 . S
C75 C80 1.490 . S
C76 H66 0.930 . S
C76 C75 1.400 . S
C76 C79 1.386 . S
H77 C93 0.930 . S
H78 C94 0.931 . S
C79 H67 0.929 . S
C79 C73 1.390 . S
C79 C76 1.386 . S
C80 C75 1.490 . S
C80 C82 1.395 . S
C80 C83 1.403 . S
H81 C87 0.930 . S
C82 H68 0.930 . S
C82 C80 1.395 . S
C82 C85 1.403 . S
C83 C80 1.403 . S
C83 C84 1.524 . S
C83 C87 1.400 . S
C84 H69 0.960 . S
C84 H70 0.960 . S
C84 H71 0.960 . S
C84 C83 1.524 . S
C85 C82 1.403 . S
C85 C86 1.392 . S
C85 C89 1.495 . S
C86 C85 1.392 . S
C86 C87 1.385 . S
C86 C88 1.478 . S
C87 H81 0.930 . S
C87 C83 1.400 . S
C87 C86 1.385 . S
C88 C86 1.478 . S
C88 C90 1.381 . S
C88 C94 1.383 . S
C89 C85 1.495 . S
C89 H95 0.959 . S
C89 H96 0.961 . S
C89 H97 0.960 . S
C90 C88 1.381 . S
C90 C91 1.394 . S
C90 H98 0.930 . S
C91 C90 1.394 . S
C91 C92 1.383 . S
C91 H99 0.929 . S
C92 C91 1.383 . S
C92 C93 1.377 . S
C93 H77 0.930 . S
C93 C92 1.377 . S
C93 C94 1.379 . S
C94 H78 0.931 . S
C94 C88 1.383 . S
C94 C93 1.379 . S
H95 C89 0.959 . S
H96 C89 0.961 . S
H97 C89 0.960 . S
H98 C90 0.930 . S
H99 C91 0.929 . S
H100 C108 0.929 . S
H101 C110 0.930 . S
H102 C112 0.930 . S
H103 C115 0.929 . S
H104 C118 0.930 . S
H105 C120 0.960 . S
H106 C120 0.960 . S
H107 C120 0.960 . S
C108 H100 0.929 . S
C108 C109 1.377 . S
C108 C110 1.384 . S
C109 C108 1.377 . S
C109 C115 1.390 . S
C110 H101 0.930 . S
C110 C108 1.384 . S
C110 C111 1.372 . S
C111 C110 1.372 . S
C111 C112 1.400 . S
C111 C116 1.490 . S
C112 H102 0.930 . S
C112 C111 1.400 . S
C112 C115 1.386 . S
H113 C129 0.930 . S
H114 C130 0.931 . S
C115 H103 0.929 . S
C115 C109 1.390 . S
C115 C112 1.386 . S
C116 C111 1.490 . S
C116 C118 1.395 . S
C116 C119 1.403 . S
H117 C123 0.930 . S
C118 H104 0.930 . S
C118 C116 1.395 . S
C118 C121 1.403 . S
C119 C116 1.403 . S
C119 C120 1.524 . S
C119 C123 1.400 . S
C120 H105 0.960 . S
C120 H106 0.960 . S
C120 H107 0.960 . S
C120 C119 1.524 . S
C121 C118 1.403 . S
C121 C122 1.392 . S
C121 C125 1.495 . S
C122 C121 1.392 . S
C122 C123 1.385 . S
C122 C124 1.478 . S
C123 H117 0.930 . S
C123 C119 1.400 . S
C123 C122 1.385 . S
C124 C122 1.478 . S
C124 C126 1.381 . S
C124 C130 1.383 . S
C125 C121 1.495 . S
C125 H131 0.959 . S
C125 H132 0.961 . S
C125 H133 0.960 . S
C126 C124 1.381 . S
C126 C127 1.394 . S
C126 H134 0.930 . S
C127 C126 1.394 . S
C127 C128 1.383 . S
C127 H135 0.929 . S
C128 C127 1.383 . S
C128 C129 1.377 . S
C129 H113 0.930 . S
C129 C128 1.377 . S
C129 C130 1.379 . S
C130 H114 0.931 . S
C130 C124 1.383 . S
C130 C129 1.379 . S
H131 C125 0.959 . S
H132 C125 0.961 . S
H133 C125 0.960 . S
H134 C126 0.930 . S
H135 C127 0.929 . S
H136 C144 0.929 . S
H137 C146 0.930 . S
H138 C148 0.930 . S
H139 C151 0.929 . S
H140 C154 0.930 . S
H141 C156 0.960 . S
H142 C156 0.960 . S
H143 C156 0.960 . S
C144 H136 0.929 . S
C144 C145 1.377 . S
C144 C146 1.384 . S
C145 C144 1.377 . S
C145 C151 1.390 . S
C146 H137 0.930 . S
C146 C144 1.384 . S
C146 C147 1.372 . S
C147 C146 1.372 . S
C147 C148 1.400 . S
C147 C152 1.490 . S
C148 H138 0.930 . S
C148 C147 1.400 . S
C148 C151 1.386 . S
H149 C165 0.930 . S
H150 C166 0.931 . S
C151 H139 0.929 . S
C151 C145 1.390 . S
C151 C148 1.386 . S
C152 C147 1.490 . S
C152 C154 1.395 . S
C152 C155 1.403 . S
H153 C159 0.930 . S
C154 H140 0.930 . S
C154 C152 1.395 . S
C154 C157 1.403 . S
C155 C152 1.403 . S
C155 C156 1.524 . S
C155 C159 1.400 . S
C156 H141 0.960 . S
C156 H142 0.960 . S
C156 H143 0.960 . S
C156 C155 1.524 . S
C157 C154 1.403 . S
C157 C158 1.392 . S
C157 C161 1.495 . S
C158 C157 1.392 . S
C158 C159 1.385 . S
C158 C160 1.478 . S
C159 H153 0.930 . S
C159 C155 1.400 . S
C159 C158 1.385 . S
C160 C158 1.478 . S
C160 C162 1.381 . S
C160 C166 1.383 . S
C161 C157 1.495 . S
C161 H167 0.959 . S
C161 H168 0.961 . S
C161 H169 0.960 . S
C162 C160 1.381 . S
C162 C163 1.394 . S
C162 H170 0.930 . S
C163 C162 1.394 . S
C163 C164 1.383 . S
C163 H171 0.929 . S
C164 C163 1.383 . S
C164 C165 1.377 . S
C165 H149 0.930 . S
C165 C164 1.377 . S
C165 C166 1.379 . S
C166 H150 0.931 . S
C166 C160 1.383 . S
C166 C165 1.379 . S
H167 C161 0.959 . S
H168 C161 0.961 . S
H169 C161 0.960 . S
H170 C162 0.930 . S
H171 C163 0.929 . S
H172 C180 0.929 . S
H173 C182 0.930 . S
H174 C184 0.930 . S
H175 C187 0.929 . S
H176 C190 0.930 . S
H177 C192 0.960 . S
H178 C192 0.960 . S
H179 C192 0.960 . S
C180 H172 0.929 . S
C180 C181 1.377 . S
C180 C182 1.384 . S
C181 C180 1.377 . S
C181 C187 1.390 . S
C182 H173 0.930 . S
C182 C180 1.384 . S
C182 C183 1.372 . S
C183 C182 1.372 . S
C183 C184 1.400 . S
C183 C188 1.490 . S
C184 H174 0.930 . S
C184 C183 1.400 . S
C184 C187 1.386 . S
H185 C201 0.930 . S
H186 C202 0.931 . S
C187 H175 0.929 . S
C187 C181 1.390 . S
C187 C184 1.386 . S
C188 C183 1.490 . S
C188 C190 1.395 . S
C188 C191 1.403 . S
H189 C195 0.930 . S
C190 H176 0.930 . S
C190 C188 1.395 . S
C190 C193 1.403 . S
C191 C188 1.403 . S
C191 C192 1.524 . S
C191 C195 1.400 . S
C192 H177 0.960 . S
C192 H178 0.960 . S
C192 H179 0.960 . S
C192 C191 1.524 . S
C193 C190 1.403 . S
C193 C194 1.392 . S
C193 C197 1.495 . S
C194 C193 1.392 . S
C194 C195 1.385 . S
C194 C196 1.478 . S
C195 H189 0.930 . S
C195 C191 1.400 . S
C195 C194 1.385 . S
C196 C194 1.478 . S
C196 C198 1.381 . S
C196 C202 1.383 . S
C197 C193 1.495 . S
C197 H203 0.959 . S
C197 H204 0.961 . S
C197 H205 0.960 . S
C198 C196 1.381 . S
C198 C199 1.394 . S
C198 H206 0.930 . S
C199 C198 1.394 . S
C199 C200 1.383 . S
C199 H207 0.929 . S
C200 C199 1.383 . S
C200 C201 1.377 . S
C201 H185 0.930 . S
C201 C200 1.377 . S
C201 C202 1.379 . S
C202 H186 0.931 . S
C202 C196 1.383 . S
C202 C201 1.379 . S
H203 C197 0.959 . S
H204 C197 0.961 . S
H205 C197 0.960 . S
H206 C198 0.930 . S
H207 C199 0.929 . S
H208 C216 0.929 . S
H209 C218 0.930 . S
H210 C220 0.930 . S
H211 C223 0.929 . S
H212 C226 0.930 . S
H213 C228 0.960 . S
H214 C228 0.960 . S
H215 C228 0.960 . S
C216 H208 0.929 . S
C216 C217 1.377 . S
C216 C218 1.384 . S
C217 C216 1.377 . S
C217 C223 1.390 . S
C218 H209 0.930 . S
C218 C216 1.384 . S
C218 C219 1.372 . S
C219 C218 1.372 . S
C219 C220 1.400 . S
C219 C224 1.490 . S
C220 H210 0.930 . S
C220 C219 1.400 . S
C220 C223 1.386 . S
H221 C237 0.930 . S
H222 C238 0.931 . S
C223 H211 0.929 . S
C223 C217 1.390 . S
C223 C220 1.386 . S
C224 C219 1.490 . S
C224 C226 1.395 . S
C224 C227 1.403 . S
H225 C231 0.930 . S
C226 H212 0.930 . S
C226 C224 1.395 . S
C226 C229 1.403 . S
C227 C224 1.403 . S
C227 C228 1.524 . S
C227 C231 1.400 . S
C228 H213 0.960 . S
C228 H214 0.960 . S
C228 H215 0.960 . S
C228 C227 1.524 . S
C229 C226 1.403 . S
C229 C230 1.392 . S
C229 C233 1.495 . S
C230 C229 1.392 . S
C230 C231 1.385 . S
C230 C232 1.478 . S
C231 H225 0.930 . S
C231 C227 1.400 . S
C231 C230 1.385 . S
C232 C230 1.478 . S
C232 C234 1.381 . S
C232 C238 1.383 . S
C233 C229 1.495 . S
C233 H239 0.959 . S
C233 H240 0.961 . S
C233 H241 0.960 . S
C234 C232 1.381 . S
C234 C235 1.394 . S
C234 H242 0.930 . S
C235 C234 1.394 . S
C235 C236 1.383 . S
C235 H243 0.929 . S
C236 C235 1.383 . S
C236 C237 1.377 . S
C237 H221 0.930 . S
C237 C236 1.377 . S
C237 C238 1.379 . S
C238 H222 0.931 . S
C238 C232 1.383 . S
C238 C237 1.379 . S
H239 C233 0.959 . S
H240 C233 0.961 . S
H241 C233 0.960 . S
H242 C234 0.930 . S
H243 C235 0.929 . S
H244 C252 0.929 . S
H245 C254 0.930 . S
H246 C256 0.930 . S
H247 C259 0.929 . S
H248 C262 0.930 . S
H249 C264 0.960 . S
H250 C264 0.960 . S
H251 C264 0.960 . S
C252 H244 0.929 . S
C252 C253 1.377 . S
C252 C254 1.384 . S
C253 C252 1.377 . S
C253 C259 1.390 . S
C254 H245 0.930 . S
C254 C252 1.384 . S
C254 C255 1.372 . S
C255 C254 1.372 . S
C255 C256 1.400 . S
C255 C260 1.490 . S
C256 H246 0.930 . S
C256 C255 1.400 . S
C256 C259 1.386 . S
H257 C273 0.930 . S
H258 C274 0.931 . S
C259 H247 0.929 . S
C259 C253 1.390 . S
C259 C256 1.386 . S
C260 C255 1.490 . S
C260 C262 1.395 . S
C260 C263 1.403 . S
H261 C267 0.930 . S
C262 H248 0.930 . S
C262 C260 1.395 . S
C262 C265 1.403 . S
C263 C260 1.403 . S
C263 C264 1.524 . S
C263 C267 1.400 . S
C264 H249 0.960 . S
C264 H250 0.960 . S
C264 H251 0.960 . S
C264 C263 1.524 . S
C265 C262 1.403 . S
C265 C266 1.392 . S
C265 C269 1.495 . S
C266 C265 1.392 . S
C266 C267 1.385 . S
C266 C268 1.478 . S
C267 H261 0.930 . S
C267 C263 1.400 . S
C267 C266 1.385 . S
C268 C266 1.478 . S
C268 C270 1.381 . S
C268 C274 1.383 . S
C269 C265 1.495 . S
C269 H275 0.959 . S
C269 H276 0.961 . S
C269 H277 0.960 . S
C270 C268 1.381 . S
C270 C271 1.394 . S
C270 H278 0.930 . S
C271 C270 1.394 . S
C271 C272 1.383 . S
C271 H279 0.929 . S
C272 C271 1.383 . S
C272 C273 1.377 . S
C273 H257 0.930 . S
C273 C272 1.377 . S
C273 C274 1.379 . S
C274 H258 0.931 . S
C274 C268 1.383 . S
C274 C273 1.379 . S
H275 C269 0.959 . S
H276 C269 0.961 . S
H277 C269 0.960 . S
H278 C270 0.930 . S
H279 C271 0.929 . S
H280 C288 0.929 . S
H281 C290 0.930 . S
H282 C292 0.930 . S
H283 C295 0.929 . S
H284 C298 0.930 . S
H285 C300 0.960 . S
H286 C300 0.960 . S
H287 C300 0.960 . S
C288 H280 0.929 . S
C288 C289 1.377 . S
C288 C290 1.384 . S
C289 C288 1.377 . S
C289 C295 1.390 . S
C290 H281 0.930 . S
C290 C288 1.384 . S
C290 C291 1.372 . S
C291 C290 1.372 . S
C291 C292 1.400 . S
C291 C296 1.490 . S
C292 H282 0.930 . S
C292 C291 1.400 . S
C292 C295 1.386 . S
H293 C309 0.930 . S
H294 C310 0.931 . S
C295 H283 0.929 . S
C295 C289 1.390 . S
C295 C292 1.386 . S
C296 C291 1.490 . S
C296 C298 1.395 . S
C296 C299 1.403 . S
H297 C303 0.930 . S
C298 H284 0.930 . S
C298 C296 1.395 . S
C298 C301 1.403 . S
C299 C296 1.403 . S
C299 C300 1.524 . S
C299 C303 1.400 . S
C300 H285 0.960 . S
C300 H286 0.960 . S
C300 H287 0.960 . S
C300 C299 1.524 . S
C301 C298 1.403 . S
C301 C302 1.392 . S
C301 C305 1.495 . S
C302 C301 1.392 . S
C302 C303 1.385 . S
C302 C304 1.478 . S
C303 H297 0.930 . S
C303 C299 1.400 . S
C303 C302 1.385 . S
C304 C302 1.478 . S
C304 C306 1.381 . S
C304 C310 1.383 . S
C305 C301 1.495 . S
C305 H311 0.959 . S
C305 H312 0.961 . S
C305 H313 0.960 . S
C306 C304 1.381 . S
C306 C307 1.394 . S
C306 H314 0.930 . S
C307 C306 1.394 . S
C307 C308 1.383 . S
C307 H315 0.929 . S
C308 C307 1.383 . S
C308 C309 1.377 . S
C309 H293 0.930 . S
C309 C308 1.377 . S
C309 C310 1.379 . S
C310 H294 0.931 . S
C310 C304 1.383 . S
C310 C309 1.379 . S
H311 C305 0.959 . S
H312 C305 0.961 . S
H313 C305 0.960 . S
H314 C306 0.930 . S
H315 C307 0.929 . S
H316 C324 0.929 . S
H317 C326 0.930 . S
H318 C328 0.930 . S
H319 C331 0.929 . S
H320 C334 0.930 . S
H321 C336 0.960 . S
H322 C336 0.960 . S
H323 C336 0.960 . S
C324 H316 0.929 . S
C324 C325 1.377 . S
C324 C326 1.384 . S
C325 C324 1.377 . S
C325 C331 1.390 . S
C326 H317 0.930 . S
C326 C324 1.384 . S
C326 C327 1.372 . S
C327 C326 1.372 . S
C327 C328 1.400 . S
C327 C332 1.490 . S
C328 H318 0.930 . S
C328 C327 1.400 . S
C328 C331 1.386 . S
H329 C345 0.930 . S
H330 C346 0.931 . S
C331 H319 0.929 . S
C331 C325 1.390 . S
C331 C328 1.386 . S
C332 C327 1.490 . S
C332 C334 1.395 . S
C332 C335 1.403 . S
H333 C339 0.930 . S
C334 H320 0.930 . S
C334 C332 1.395 . S
C334 C337 1.403 . S
C335 C332 1.403 . S
C335 C336 1.524 . S
C335 C339 1.400 . S
C336 H321 0.960 . S
C336 H322 0.960 . S
C336 H323 0.960 . S
C336 C335 1.524 . S
C337 C334 1.403 . S
C337 C338 1.392 . S
C337 C341 1.495 . S
C338 C337 1.392 . S
C338 C339 1.385 . S
C338 C340 1.478 . S
C339 H333 0.930 . S
C339 C335 1.400 . S
C339 C338 1.385 . S
C340 C338 1.478 . S
C340 C342 1.381 . S
C340 C346 1.383 . S
C341 C337 1.495 . S
C341 H347 0.959 . S
C341 H348 0.961 . S
C341 H349 0.960 . S
C342 C340 1.381 . S
C342 C343 1.394 . S
C342 H350 0.930 . S
C343 C342 1.394 . S
C343 C344 1.383 . S
C343 H351 0.929 . S
C344 C343 1.383 . S
C344 C345 1.377 . S
C345 H329 0.930 . S
C345 C344 1.377 . S
C345 C346 1.379 . S
C346 H330 0.931 . S
C346 C340 1.383 . S
C346 C345 1.379 . S
H347 C341 0.959 . S
H348 C341 0.961 . S
H349 C341 0.960 . S
H350 C342 0.930 . S
H351 C343 0.929 . S
C73 C10 1.030 . S
C92 C53 1.080 . S
C109 C0 1.740 . S
C128 C52 1.797 . S
C145 C18 1.437 . S
C164 C58 1.380 . S
C181 C27 1.634 . S
C200 C59 1.582 . S
C217 C24 1.749 . S
C236 C56 1.783 . S
C272 C54 1.371 . S
C253 C11 1.445 . S
C289 C1 1.628 . S
C308 C55 1.623 . S
C344 C57 1.020 . S
C325 C2 1.029 . S
