# Generated by pormake.
# Topology scu, (8,4)-cn, num edge types: 1
# Building blocks:
#     Node 0, Type 0, BuildingBlock: VETTIZ_charged_sbu_0, # of connection points: 8
#     Node 1, Type 1, BuildingBlock: NAWXER_clean_sbu_0, # of connection points: 4
#     Node 2, Type 1, BuildingBlock: NAWXER_clean_sbu_0, # of connection points: 4
#     Edge 3, Type (0, 1), BuildingBlock: UVAHIK_clean_linker_0, # of connection points: 2
#     Edge 4, Type (0, 1), BuildingBlock: UVAHIK_clean_linker_0, # of connection points: 2
#     Edge 5, Type (0, 1), BuildingBlock: UVAHIK_clean_linker_0, # of connection points: 2
#     Edge 6, Type (0, 1), BuildingBlock: UVAHIK_clean_linker_0, # of connection points: 2
#     Edge 7, Type (0, 1), BuildingBlock: UVAHIK_clean_linker_0, # of connection points: 2
#     Edge 8, Type (0, 1), BuildingBlock: UVAHIK_clean_linker_0, # of connection points: 2
#     Edge 9, Type (0, 1), BuildingBlock: UVAHIK_clean_linker_0, # of connection points: 2
#     Edge 10, Type (0, 1), BuildingBlock: UVAHIK_clean_linker_0, # of connection points: 2
# Relax obj value: 0.013
# Max RMSD: 0.059
# Mean RMSD: 0.052
data_MOF--net-scu--node1-VETTIZ_charged_sbu_0--node2-NAWXER_clean_sbu_0--edge1-UVAHIK_clean_linker_0
_symmetry_space_group_name_H-M    P1
_symmetry_Int_Tables_number       1
_symmetry_cell_setting            triclinic
loop_
_symmetry_equiv_pos_as_xyz
'x, y, z'
_cell_length_a     30.91436
_cell_length_b     31.874008
_cell_length_c     25.642354
_cell_angle_alpha  89.820394
_cell_angle_beta   90.021427
_cell_angle_gamma 90.047163
loop_
_atom_site_label
_atom_site_type_symbol
_atom_site_fract_x
_atom_site_fract_y
_atom_site_fract_z
_atom_type_partial_charge
Fe0 Fe 1.02218 0.00824 0.05044 0.0
O1 O 1.02144 0.04994 -0.00759 0.0
Fe2 Fe 0.06289 0.91881 -0.00834 0.0
Fe3 Fe 0.98168 0.09744 -0.01002 0.0
O4 O 0.02321 0.96647 -0.00722 0.0
O5 O 1.02243 0.96633 0.98743 0.0
O6 O 1.02245 0.05013 0.98722 0.0
Fe7 Fe 0.02332 0.0083 0.92924 0.0
C8 C 0.93004 0.03431 0.05805 0.0
O9 O 1.02075 0.05824 0.10415 0.0
O10 O 1.01828 0.11715 0.05206 0.0
O11 O 0.09032 0.00931 0.92802 0.0
O12 O 0.10287 0.9408 0.9341 0.0
O13 O 0.10501 0.94417 0.04717 0.0
O14 O 0.08786 0.01197 0.05129 0.0
O15 O 1.02159 0.11788 0.9308 0.0
O16 O 0.02596 0.05972 0.87691 0.0
C17 C 0.11413 0.98208 0.05925 0.0
O18 O 1.02235 0.95711 0.8771 0.0
O19 O 0.02388 0.89865 0.93135 0.0
O20 O 0.95644 1.0044 0.05113 0.0
O21 O 0.93894 0.07204 0.04472 0.0
C22 C 0.02403 0.09858 0.09655 0.0
C23 C 0.03155 0.09959 0.88708 0.0
C24 C 0.93211 0.03876 0.91711 0.0
O25 O 0.94283 0.07538 0.93156 0.0
O26 O 0.95639 1.00711 0.92512 0.0
C27 C 0.11435 0.97746 0.92032 0.0
O28 O 0.02512 0.89927 0.05314 0.0
O29 O 0.02345 0.95838 0.10463 0.0
C30 C 1.01585 0.91733 0.88714 0.0
C31 C 1.01931 0.91817 0.09725 0.0
C32 C 0.98884 0.56452 0.56067 0.0
C33 C 0.99843 0.44549 0.4417 0.0
O34 O 0.0277 0.55531 0.54766 0.0
Zn35 Zn 0.06104 0.51062 0.50074 0.0
O36 O 0.95763 0.54204 0.54445 0.0
Zn37 Zn 0.99196 0.50475 0.50125 0.0
O38 O 0.02543 0.46652 0.55662 0.0
O39 O 0.09557 0.47833 0.5498 0.0
O40 O 0.96396 0.46219 0.45905 0.0
O41 O 0.03526 0.46122 0.45375 0.0
O42 O 0.08893 0.54769 0.45103 0.0
O43 O 1.01768 0.54706 0.44415 0.0
C44 C 0.06432 0.45857 0.57085 0.0
C45 C 0.05458 0.56112 0.42938 0.0
C46 C 0.57949 0.03679 0.54957 0.0
C47 C 0.46619 0.03674 0.41431 0.0
O48 O 0.56689 1.00056 0.53455 0.0
Zn49 Zn 0.52225 0.97202 0.48352 0.0
O50 O 0.5616 0.0695 0.53071 0.0
Zn51 Zn 0.52138 0.04077 0.48325 0.0
O52 O 0.47722 0.01229 0.53504 0.0
O53 O 0.48251 0.94334 0.53188 0.0
O54 O 0.48178 0.06972 0.43525 0.0
O55 O 0.47896 1.0006 0.42986 0.0
O56 O 0.5617 0.94311 0.43526 0.0
O57 O 0.56395 0.01226 0.42924 0.0
C58 C 0.46477 0.97608 0.5506 0.0
C59 C 0.57673 0.97619 0.41376 0.0
C60 C 1.01414 0.11556 0.19157 0.0
C61 C 0.02937 0.12684 0.14176 0.0
C62 C 1.0099 0.14608 0.23057 0.0
C63 C 0.9875 0.25747 0.24003 0.0
H64 H 0.0327 0.25379 0.38095 0.0
C65 C 0.95884 0.39129 0.38857 0.0
C66 C 0.99725 0.40612 0.41133 0.0
C67 C 0.95874 0.35358 0.36059 0.0
C68 C 1.01959 0.255 0.34179 0.0
H69 H 0.05604 0.17782 0.09547 0.0
H70 H 0.04848 0.23053 0.16307 0.0
H71 H 0.04317 0.19346 0.32303 0.0
H72 H 0.06532 0.39242 0.42386 0.0
H73 H 0.06492 0.32704 0.37555 0.0
H74 H 0.96475 0.31915 0.25801 0.0
C75 C 0.039 0.19851 0.17169 0.0
C76 C 0.02544 0.22051 0.30889 0.0
C77 C 0.04351 0.16822 0.13312 0.0
C78 C 0.03522 0.38216 0.40641 0.0
C79 C 0.03495 0.34437 0.37926 0.0
C80 C 0.98115 0.29163 0.27303 0.0
C81 C 1.02065 0.18811 0.22 0.0
C82 C 1.01048 0.22201 0.25728 0.0
C83 C 0.99684 0.32977 0.35581 0.0
C84 C 0.99809 0.29118 0.32378 0.0
H85 H 1.00288 0.08397 0.19934 0.0
H86 H 0.99595 0.13735 0.2678 0.0
H87 H 0.97523 0.25912 0.20049 0.0
H88 H 0.92907 0.40897 0.39194 0.0
H89 H 0.92891 0.34296 0.3428 0.0
C90 C 0.85937 0.05672 0.09789 0.0
C91 C 0.8896 0.02503 0.08714 0.0
C92 C 0.82338 0.04834 0.12935 0.0
C93 C 0.75765 0.96202 0.18781 0.0
H94 H 0.72878 0.04769 0.28886 0.0
C95 C 0.63608 0.94058 0.3622 0.0
C96 C 0.60864 0.97503 0.37072 0.0
C97 C 0.66925 0.94319 0.32478 0.0
C98 C 0.73621 0.02354 0.26061 0.0
H99 H 0.90469 0.95915 0.09981 0.0
H100 H 0.84261 0.94497 0.15503 0.0
H101 H 0.7876 0.05981 0.22786 0.0
H102 H 0.59238 0.03785 0.34401 0.0
H103 H 0.64927 0.04205 0.27949 0.0
H104 H 0.70614 0.92564 0.22157 0.0
C105 C 0.84631 0.97615 0.13872 0.0
C106 C 0.76982 0.0306 0.22541 0.0
C107 C 0.88215 0.98445 0.10717 0.0
C108 C 0.61349 0.011 0.33933 0.0
C109 C 0.64623 0.01353 0.30232 0.0
C110 C 0.72396 0.95488 0.22337 0.0
C111 C 0.81685 0.00814 0.15098 0.0
C112 C 0.78074 1.00017 0.18817 0.0
C113 C 0.67527 0.98025 0.29554 0.0
C114 C 0.71258 0.98584 0.25969 0.0
H115 H 0.86388 0.08821 0.08286 0.0
H116 H 0.80085 0.07355 0.13718 0.0
H117 H 0.76507 0.93797 0.15947 0.0
H118 H 0.63303 0.91245 0.38572 0.0
H119 H 0.69117 0.91697 0.32019 0.0
C120 C 0.04249 0.89204 0.18442 0.0
C121 C 1.01341 0.89029 0.14246 0.0
C122 C 0.04574 0.85821 0.21921 0.0
C123 C 0.02459 0.74395 0.21879 0.0
H124 H 0.05741 0.74955 0.36451 0.0
C125 C 1.02074 0.60155 0.35691 0.0
C126 C 0.05571 0.59587 0.3912 0.0
C127 C 1.0179 0.63753 0.32602 0.0
C128 C 0.04873 0.74763 0.32365 0.0
H129 H 0.96227 0.85425 0.10637 0.0
H130 H 0.96595 0.79645 0.16862 0.0
H131 H 0.04317 0.81441 0.31615 0.0
H132 H 0.11565 0.62294 0.41929 0.0
H133 H 0.11042 0.68644 0.36527 0.0
H134 H 0.02928 0.67725 0.22658 0.0
C135 C 0.98763 0.82283 0.17369 0.0
C136 C 0.04046 0.78473 0.29598 0.0
C137 C 0.98498 0.85617 0.13849 0.0
C138 C 0.08856 0.62634 0.39281 0.0
C139 C 0.08534 0.66281 0.36241 0.0
C140 C 0.0324 0.70702 0.24651 0.0
C141 C 1.01956 0.82239 0.21281 0.0
C142 C 0.02791 0.78332 0.24325 0.0
C143 C 0.04965 0.66894 0.32926 0.0
C144 C 0.0443 0.70842 0.29926 0.0
H145 H 0.06521 0.91781 0.18768 0.0
H146 H 0.07075 0.85901 0.24876 0.0
H147 H 1.01637 0.74154 0.17785 0.0
H148 H 0.9949 0.57863 0.35494 0.0
H149 H 0.98992 0.64152 0.30105 0.0
C150 C 0.16321 0.03336 0.10366 0.0
C151 C 0.15485 0.99193 0.08743 0.0
C152 C 0.19968 0.04278 0.1335 0.0
C153 C 0.30717 1.00331 0.17232 0.0
H154 H 0.29003 0.07238 0.29496 0.0
C155 C 0.42493 1.00131 0.34377 0.0
C156 C 0.43408 0.03835 0.37138 0.0
C157 C 0.39384 1.00074 0.30458 0.0
C158 C 0.29561 0.05377 0.26034 0.0
H159 H 0.17927 0.92818 0.08886 0.0
H160 H 0.24317 0.94473 0.14112 0.0
H161 H 0.23002 0.06062 0.23484 0.0
H162 H 0.41803 0.10424 0.37854 0.0
H163 H 0.36295 0.10326 0.30929 0.0
H164 H 0.37252 0.9959 0.19814 0.0
C165 C 0.22138 0.9699 0.13039 0.0
C166 C 0.26118 0.04687 0.22596 0.0
C167 C 0.18467 0.96038 0.10062 0.0
C168 C 0.41169 0.07522 0.35803 0.0
C169 C 0.38009 0.07458 0.3186 0.0
C170 C 0.3416 0.01033 0.20653 0.0
C171 C 0.22894 0.01114 0.14775 0.0
C172 C 0.26636 0.02088 0.18212 0.0
C173 C 0.3708 0.03718 0.29157 0.0
C174 C 0.33597 0.03483 0.25161 0.0
H175 H 0.14116 0.05864 0.09413 0.0
H176 H 0.20489 0.07493 0.14559 0.0
H177 H 0.31243 0.98384 0.13837 0.0
H178 H 0.44158 0.97226 0.35268 0.0
H179 H 0.38706 0.97122 0.28538 0.0
C180 C 1.01886 0.88876 0.79661 0.0
C181 C 0.99883 0.8903 0.84556 0.0
C182 C 1.00761 0.85732 0.76106 0.0
C183 C 0.95926 0.75059 0.76191 0.0
H184 H 0.97615 0.75981 0.61258 0.0
C185 C 0.94322 0.60938 0.61976 0.0
C186 C 0.98112 0.60338 0.5905 0.0
C187 C 0.93714 0.64663 0.64778 0.0
C188 C 0.97097 0.75695 0.65423 0.0
H189 H 0.94912 0.86308 0.8945 0.0
H190 H 0.92763 0.80988 0.83166 0.0
H191 H 0.97859 0.82292 0.66628 0.0
H192 H 0.04156 0.63212 0.56612 0.0
H193 H 0.03053 0.69693 0.61403 0.0
H194 H 0.95184 0.68452 0.74951 0.0
C195 C 0.95336 0.83137 0.8212 0.0
C196 C 0.97271 0.793 0.68509 0.0
C197 C 0.96531 0.86208 0.85705 0.0
C198 C 1.0122 0.63558 0.58876 0.0
C199 C 1.00573 0.67291 0.61571 0.0
C200 C 0.95683 0.71471 0.73092 0.0
C201 C 0.97554 0.8274 0.77357 0.0
C202 C 0.96806 0.79018 0.73958 0.0
C203 C 0.96835 0.67874 0.64575 0.0
C204 C 0.96383 0.71742 0.67704 0.0
H205 H 0.04506 0.91009 0.78721 0.0
H206 H 0.0258 0.85518 0.72511 0.0
H207 H 0.9563 0.74677 0.80372 0.0
H208 H 0.91871 0.58512 0.62163 0.0
H209 H 0.90808 0.65046 0.67088 0.0
C210 C 0.16415 0.01684 0.85926 0.0
C211 C 0.15497 0.98123 0.88984 0.0
C212 C 0.19983 0.017 0.82541 0.0
C213 C 0.26843 0.94339 0.75224 0.0
H214 H 0.34548 0.03828 0.73497 0.0
C215 C 0.42009 0.93741 0.61803 0.0
C216 C 0.42946 0.97408 0.58968 0.0
C217 C 0.38768 0.9376 0.65644 0.0
C218 C 0.32398 0.01162 0.73884 0.0
H219 H 0.17777 0.91899 0.91112 0.0
H220 H 0.23939 0.91951 0.85262 0.0
H221 H 0.28707 0.04184 0.79873 0.0
H222 H 0.41096 0.03923 0.57815 0.0
H223 H 0.35454 0.03917 0.6433 0.0
H224 H 0.30462 0.91341 0.69175 0.0
C225 C 0.21869 0.9469 0.85387 0.0
C226 C 0.29054 0.01373 0.77547 0.0
C227 C 0.18339 0.94677 0.88764 0.0
C228 C 0.40515 0.01048 0.59969 0.0
C229 C 0.37283 0.01059 0.63749 0.0
C230 C 0.30165 0.94138 0.71533 0.0
C231 C 0.2268 0.98154 0.82148 0.0
C232 C 0.26238 0.97965 0.78256 0.0
C233 C 0.36393 0.97441 0.66692 0.0
C234 C 0.32974 0.97556 0.70792 0.0
H235 H 0.14289 0.04384 0.85993 0.0
H236 H 0.20531 0.04419 0.80085 0.0
H237 H 0.24688 0.91677 0.75635 0.0
H238 H 0.43828 0.90891 0.61129 0.0
H239 H 0.38183 0.90917 0.67856 0.0
C240 C 0.04193 0.12057 0.79313 0.0
C241 C 0.04974 0.12741 0.84637 0.0
C242 C 0.05368 0.15111 0.75624 0.0
C243 C 0.11563 0.25127 0.73915 0.0
H244 H 1.01937 0.28205 0.65017 0.0
C245 C 0.11159 0.40112 0.60669 0.0
C246 C 0.07182 0.42251 0.60614 0.0
C247 C 0.11537 0.36233 0.63227 0.0
C248 C 0.04659 0.27385 0.67478 0.0
H249 H 0.07939 0.16957 0.90227 0.0
H250 H 0.09939 0.2224 0.83869 0.0
H251 H 1.01701 0.21623 0.69827 0.0
H252 H 1.00585 0.42153 0.635 0.0
H253 H 1.01271 0.35481 0.68014 0.0
H254 H 0.14407 0.3102 0.71752 0.0
C255 C 0.08429 0.19383 0.82493 0.0
C256 C 0.04554 0.23576 0.70172 0.0
C257 C 0.07231 0.16367 0.86156 0.0
C258 C 0.03682 0.40566 0.6342 0.0
C259 C 0.0406 0.36716 0.65963 0.0
C260 C 0.11667 0.28947 0.71211 0.0
C261 C 0.07391 0.18864 0.77205 0.0
C262 C 0.07939 0.22462 0.73557 0.0
C263 C 0.07943 0.34439 0.65759 0.0
C264 C 0.08144 0.30178 0.68107 0.0
H265 H 0.02475 0.09281 0.78032 0.0
H266 H 0.04565 0.14603 0.71564 0.0
H267 H 0.1425 0.24331 0.76442 0.0
H268 H 0.13906 0.4132 0.58515 0.0
H269 H 0.14578 0.34557 0.63027 0.0
C270 C 0.86342 0.0692 0.88265 0.0
C271 C 0.89183 0.03477 0.88597 0.0
C272 C 0.82823 0.06864 0.84871 0.0
C273 C 0.75627 1.00077 0.77255 0.0
H274 H 0.74157 0.10009 0.68636 0.0
C275 C 0.6394 1.00248 0.59864 0.0
C276 C 0.61519 0.03891 0.58815 0.0
C277 C 0.67221 1.00259 0.63586 0.0
C278 C 0.74473 0.07239 0.71063 0.0
H279 H 0.90405 0.97182 0.85775 0.0
H280 H 0.8418 0.97073 0.79835 0.0
H281 H 0.7999 0.09742 0.75031 0.0
H282 H 0.60702 0.10435 0.60834 0.0
H283 H 0.6643 0.10449 0.6746 0.0
H284 H 0.70089 0.97584 0.73345 0.0
C285 C 0.84723 0.99823 0.82218 0.0
C286 C 0.77829 0.07078 0.74716 0.0
C287 C 0.88282 0.99883 0.8562 0.0
C288 C 0.62511 0.07582 0.61547 0.0
C289 C 0.65801 0.07586 0.65328 0.0
C290 C 0.72249 1.00249 0.7363 0.0
C291 C 0.82021 0.0336 0.81725 0.0
C292 C 0.78452 0.03491 0.77841 0.0
C293 C 0.68171 0.03905 0.6642 0.0
C294 C 0.71646 0.03821 0.70455 0.0
H295 H 0.86888 0.09725 0.90547 0.0
H296 H 0.80749 0.09598 0.84668 0.0
H297 H 0.75989 0.97297 0.79655 0.0
H298 H 0.63314 0.97354 0.5779 0.0
H299 H 0.69041 0.97399 0.64204 0.0
loop_
_geom_bond_atom_site_label_1
_geom_bond_atom_site_label_2
_geom_bond_distance
_geom_bond_site_symmetry_2
_ccdc_geom_bond_type
Fe0 O1 1.906 . S
Fe0 O4 1.695 1_645 S
Fe0 O9 2.099 1_655 S
Fe0 O14 1.924 1_655 S
Fe0 O20 2.092 1_545 S
Fe0 O29 1.916 1_545 S
O1 Fe0 1.906 . S
O1 Fe3 1.715 1_554 S
Fe2 O4 1.886 . S
Fe2 O5 1.715 1_554 S
Fe2 O12 1.935 1_554 S
Fe2 O13 2.077 . S
Fe2 O19 1.935 1_554 S
Fe2 O28 2.077 . S
Fe3 O1 1.715 1_556 S
Fe3 O6 1.886 . S
Fe3 O10 1.935 1_556 S
Fe3 O15 2.077 . S
Fe3 O21 1.935 1_556 S
Fe3 O25 2.077 . S
O4 Fe0 1.695 1_465 S
O4 Fe2 1.886 . S
O5 Fe2 1.715 1_556 S
O5 Fe7 1.906 . S
O6 Fe3 1.886 . S
O6 Fe7 1.695 1_645 S
Fe7 O5 1.906 . S
Fe7 O6 1.695 1_465 S
Fe7 O11 2.099 1_565 S
Fe7 O16 1.924 1_565 S
Fe7 O18 2.092 1_455 S
Fe7 O26 1.916 1_455 S
C8 O20 1.381 1_545 S
C8 O21 1.421 . S
O9 Fe0 2.099 1_455 S
O9 C22 1.381 1_455 S
O10 Fe3 1.935 1_554 S
O10 C22 1.421 . S
O11 Fe7 2.099 1_545 S
O11 C27 1.381 1_545 S
O12 Fe2 1.935 1_556 S
O12 C27 1.421 . S
O13 Fe2 2.077 . S
O13 C17 1.381 . S
O14 Fe0 1.924 1_455 S
O14 C17 1.421 1_545 S
O15 Fe3 2.077 . S
O15 C23 1.381 . S
O16 Fe7 1.924 1_545 S
O16 C23 1.421 1_455 S
C17 O13 1.381 . S
C17 O14 1.421 1_565 S
O18 Fe7 2.092 1_655 S
O18 C30 1.381 1_655 S
O19 Fe2 1.935 1_556 S
O19 C30 1.421 . S
O20 Fe0 2.092 1_565 S
O20 C8 1.381 1_565 S
O21 Fe3 1.935 1_554 S
O21 C8 1.421 . S
C22 O9 1.381 1_655 S
C22 O10 1.421 . S
C23 O15 1.381 . S
C23 O16 1.421 1_655 S
C24 O25 1.381 . S
C24 O26 1.421 1_545 S
O25 Fe3 2.077 . S
O25 C24 1.381 . S
O26 Fe7 1.916 1_655 S
O26 C24 1.421 1_565 S
C27 O11 1.381 1_565 S
C27 O12 1.421 . S
O28 Fe2 2.077 . S
O28 C31 1.381 . S
O29 Fe0 1.916 1_565 S
O29 C31 1.421 1_655 S
C30 O18 1.381 1_455 S
C30 O19 1.421 . S
C31 O28 1.381 . S
C31 O29 1.421 1_455 S
C32 O34 1.251 . S
C32 O36 1.254 1_455 S
C33 O40 1.245 . S
C33 O41 1.260 1_655 S
O34 C32 1.251 . S
O34 Zn35 2.028 . S
Zn35 O34 2.028 . S
Zn35 O39 2.035 . S
Zn35 O41 2.035 . S
Zn35 O42 2.028 . S
O36 C32 1.254 1_655 S
O36 Zn37 2.035 . S
Zn37 O36 2.035 . S
Zn37 O38 2.028 . S
Zn37 O40 2.028 . S
Zn37 O43 2.035 . S
O38 Zn37 2.028 . S
O38 C44 1.245 . S
O39 Zn35 2.035 . S
O39 C44 1.260 1_455 S
O40 C33 1.245 . S
O40 Zn37 2.028 . S
O41 C33 1.260 1_455 S
O41 Zn35 2.035 . S
O42 Zn35 2.028 . S
O42 C45 1.251 . S
O43 Zn37 2.035 . S
O43 C45 1.254 1_655 S
C44 O38 1.245 . S
C44 O39 1.260 1_655 S
C45 O42 1.251 . S
C45 O43 1.254 1_455 S
C46 O48 1.245 . S
C46 O50 1.260 1_565 S
C47 O54 1.251 . S
C47 O55 1.254 1_545 S
O48 C46 1.245 . S
O48 Zn49 2.028 . S
Zn49 O48 2.028 . S
Zn49 O53 2.035 . S
Zn49 O55 2.035 . S
Zn49 O56 2.028 . S
O50 C46 1.260 1_545 S
O50 Zn51 2.035 . S
Zn51 O50 2.035 . S
Zn51 O52 2.028 . S
Zn51 O54 2.028 . S
Zn51 O57 2.035 . S
O52 Zn51 2.028 . S
O52 C58 1.251 . S
O53 Zn49 2.035 . S
O53 C58 1.254 1_565 S
O54 C47 1.251 . S
O54 Zn51 2.028 . S
O55 C47 1.254 1_565 S
O55 Zn49 2.035 . S
O56 Zn49 2.028 . S
O56 C59 1.245 . S
O57 Zn51 2.035 . S
O57 C59 1.260 1_545 S
C58 O52 1.251 . S
C58 O53 1.254 1_545 S
C59 O56 1.245 . S
C59 O57 1.260 1_565 S
C60 C61 1.350 . S
C60 C62 1.327 . S
C60 H85 0.950 . S
C61 C60 1.350 . S
C61 C77 1.348 1_455 S
C62 C60 1.327 . S
C62 C81 1.429 . S
C62 H86 0.950 . S
C63 C80 1.574 . S
C63 C82 1.368 1_655 S
C63 H87 0.949 . S
H64 C68 0.949 . S
C65 C66 1.349 1_655 S
C65 C67 1.327 . S
C65 H88 0.950 . S
C66 C65 1.349 1_455 S
C66 C78 1.349 . S
C67 C65 1.327 . S
C67 C83 1.428 1_655 S
C67 H89 0.950 . S
C68 H64 0.949 . S
C68 C76 1.574 . S
C68 C84 1.369 . S
H69 C77 0.950 . S
H70 C75 0.950 . S
H71 C76 0.949 . S
H72 C78 0.950 . S
H73 C79 0.950 . S
H74 C80 0.949 . S
C75 H70 0.950 . S
C75 C77 1.327 . S
C75 C81 1.428 1_655 S
C76 C68 1.574 . S
C76 H71 0.949 . S
C76 C82 1.369 . S
C77 C61 1.348 1_655 S
C77 H69 0.950 . S
C77 C75 1.327 . S
C78 C66 1.349 . S
C78 H72 0.950 . S
C78 C79 1.327 . S
C79 H73 0.950 . S
C79 C78 1.327 . S
C79 C83 1.429 . S
C80 C63 1.574 . S
C80 H74 0.949 . S
C80 C84 1.368 1_655 S
C81 C62 1.429 . S
C81 C75 1.428 1_455 S
C81 C82 1.523 . S
C82 C63 1.368 1_455 S
C82 C76 1.369 . S
C82 C81 1.523 . S
C83 C67 1.428 1_455 S
C83 C79 1.429 . S
C83 C84 1.523 . S
C84 C68 1.369 . S
C84 C80 1.368 1_455 S
C84 C83 1.523 . S
H85 C60 0.950 . S
H86 C62 0.950 . S
H87 C63 0.949 . S
H88 C65 0.950 . S
H89 C67 0.950 . S
C90 C91 1.347 . S
C90 C92 1.327 . S
C90 H115 0.950 . S
C91 C90 1.347 . S
C91 C107 1.351 1_545 S
C92 C90 1.327 . S
C92 C111 1.427 . S
C92 H116 0.950 . S
C93 C110 1.574 . S
C93 C112 1.370 1_565 S
C93 H117 0.949 . S
H94 C98 0.949 . S
C95 C96 1.349 1_565 S
C95 C97 1.327 . S
C95 H118 0.950 . S
C96 C95 1.349 1_545 S
C96 C108 1.349 . S
C97 C95 1.327 . S
C97 C113 1.429 1_565 S
C97 H119 0.950 . S
C98 H94 0.949 . S
C98 C106 1.574 . S
C98 C114 1.367 . S
H99 C107 0.950 . S
H100 C105 0.950 . S
H101 C106 0.949 . S
H102 C108 0.950 . S
H103 C109 0.950 . S
H104 C110 0.949 . S
C105 H100 0.950 . S
C105 C107 1.327 . S
C105 C111 1.430 1_565 S
C106 C98 1.574 . S
C106 H101 0.949 . S
C106 C112 1.367 . S
C107 C91 1.351 1_565 S
C107 H99 0.950 . S
C107 C105 1.327 . S
C108 C96 1.349 . S
C108 H102 0.950 . S
C108 C109 1.327 . S
C109 H103 0.950 . S
C109 C108 1.327 . S
C109 C113 1.428 . S
C110 C93 1.574 . S
C110 H104 0.949 . S
C110 C114 1.369 1_565 S
C111 C92 1.427 . S
C111 C105 1.430 1_545 S
C111 C112 1.523 . S
C112 C93 1.370 1_545 S
C112 C106 1.367 . S
C112 C111 1.523 . S
C113 C97 1.429 1_545 S
C113 C109 1.428 . S
C113 C114 1.523 . S
C114 C98 1.367 . S
C114 C110 1.369 1_545 S
C114 C113 1.523 . S
H115 C90 0.950 . S
H116 C92 0.950 . S
H117 C93 0.949 . S
H118 C95 0.950 . S
H119 C97 0.950 . S
C120 C121 1.346 . S
C120 C122 1.327 . S
C120 H145 0.950 . S
C121 C120 1.346 . S
C121 C137 1.351 1_455 S
C122 C120 1.327 . S
C122 C141 1.427 . S
C122 H146 0.950 . S
C123 C140 1.574 . S
C123 C142 1.370 1_655 S
C123 H147 0.949 . S
H124 C128 0.949 . S
C125 C126 1.349 1_655 S
C125 C127 1.327 . S
C125 H148 0.950 . S
C126 C125 1.349 1_455 S
C126 C138 1.349 . S
C127 C125 1.327 . S
C127 C143 1.429 1_655 S
C127 H149 0.950 . S
C128 H124 0.949 . S
C128 C136 1.574 . S
C128 C144 1.367 . S
H129 C137 0.950 . S
H130 C135 0.950 . S
H131 C136 0.949 . S
H132 C138 0.950 . S
H133 C139 0.950 . S
H134 C140 0.949 . S
C135 H130 0.950 . S
C135 C137 1.327 . S
C135 C141 1.430 1_655 S
C136 C128 1.574 . S
C136 H131 0.949 . S
C136 C142 1.367 . S
C137 C121 1.351 1_655 S
C137 H129 0.950 . S
C137 C135 1.327 . S
C138 C126 1.349 . S
C138 H132 0.950 . S
C138 C139 1.327 . S
C139 H133 0.950 . S
C139 C138 1.327 . S
C139 C143 1.428 . S
C140 C123 1.574 . S
C140 H134 0.949 . S
C140 C144 1.369 1_655 S
C141 C122 1.427 . S
C141 C135 1.430 1_455 S
C141 C142 1.523 . S
C142 C123 1.370 1_455 S
C142 C136 1.367 . S
C142 C141 1.523 . S
C143 C127 1.429 1_455 S
C143 C139 1.428 . S
C143 C144 1.523 . S
C144 C128 1.367 . S
C144 C140 1.369 1_455 S
C144 C143 1.523 . S
H145 C120 0.950 . S
H146 C122 0.950 . S
H147 C123 0.949 . S
H148 C125 0.950 . S
H149 C127 0.950 . S
C150 C151 1.350 . S
C150 C152 1.327 . S
C150 H175 0.950 . S
C151 C150 1.350 . S
C151 C167 1.348 1_545 S
C152 C150 1.327 . S
C152 C171 1.429 . S
C152 H176 0.950 . S
C153 C170 1.574 . S
C153 C172 1.368 1_565 S
C153 H177 0.949 . S
H154 C158 0.949 . S
C155 C156 1.349 1_565 S
C155 C157 1.327 . S
C155 H178 0.950 . S
C156 C155 1.349 1_545 S
C156 C168 1.349 . S
C157 C155 1.327 . S
C157 C173 1.428 1_565 S
C157 H179 0.950 . S
C158 H154 0.949 . S
C158 C166 1.574 . S
C158 C174 1.369 . S
H159 C167 0.950 . S
H160 C165 0.950 . S
H161 C166 0.949 . S
H162 C168 0.950 . S
H163 C169 0.950 . S
H164 C170 0.949 . S
C165 H160 0.950 . S
C165 C167 1.327 . S
C165 C171 1.428 1_565 S
C166 C158 1.574 . S
C166 H161 0.949 . S
C166 C172 1.369 . S
C167 C151 1.348 1_565 S
C167 H159 0.950 . S
C167 C165 1.327 . S
C168 C156 1.349 . S
C168 H162 0.950 . S
C168 C169 1.327 . S
C169 H163 0.950 . S
C169 C168 1.327 . S
C169 C173 1.429 . S
C170 C153 1.574 . S
C170 H164 0.949 . S
C170 C174 1.368 1_565 S
C171 C152 1.429 . S
C171 C165 1.428 1_545 S
C171 C172 1.523 . S
C172 C153 1.368 1_545 S
C172 C166 1.369 . S
C172 C171 1.523 . S
C173 C157 1.428 1_545 S
C173 C169 1.429 . S
C173 C174 1.523 . S
C174 C158 1.369 . S
C174 C170 1.368 1_545 S
C174 C173 1.523 . S
H175 C150 0.950 . S
H176 C152 0.950 . S
H177 C153 0.949 . S
H178 C155 0.950 . S
H179 C157 0.950 . S
C180 C181 1.348 . S
C180 C182 1.327 . S
C180 H205 0.950 . S
C181 C180 1.348 . S
C181 C197 1.350 1_455 S
C182 C180 1.327 . S
C182 C201 1.428 . S
C182 H206 0.950 . S
C183 C200 1.574 . S
C183 C202 1.369 1_655 S
C183 H207 0.949 . S
H184 C188 0.949 . S
C185 C186 1.349 1_655 S
C185 C187 1.327 . S
C185 H208 0.950 . S
C186 C185 1.349 1_455 S
C186 C198 1.349 . S
C187 C185 1.327 . S
C187 C203 1.429 1_655 S
C187 H209 0.950 . S
C188 H184 0.949 . S
C188 C196 1.574 . S
C188 C204 1.368 . S
H189 C197 0.950 . S
H190 C195 0.950 . S
H191 C196 0.949 . S
H192 C198 0.950 . S
H193 C199 0.950 . S
H194 C200 0.949 . S
C195 H190 0.950 . S
C195 C197 1.327 . S
C195 C201 1.430 1_655 S
C196 C188 1.574 . S
C196 H191 0.949 . S
C196 C202 1.367 . S
C197 C181 1.350 1_655 S
C197 H189 0.950 . S
C197 C195 1.327 . S
C198 C186 1.349 . S
C198 H192 0.950 . S
C198 C199 1.327 . S
C199 H193 0.950 . S
C199 C198 1.327 . S
C199 C203 1.428 . S
C200 C183 1.574 . S
C200 H194 0.949 . S
C200 C204 1.369 1_655 S
C201 C182 1.428 . S
C201 C195 1.430 1_455 S
C201 C202 1.523 . S
C202 C183 1.369 1_455 S
C202 C196 1.367 . S
C202 C201 1.523 . S
C203 C187 1.429 1_455 S
C203 C199 1.428 . S
C203 C204 1.523 . S
C204 C188 1.368 . S
C204 C200 1.369 1_455 S
C204 C203 1.523 . S
H205 C180 0.950 . S
H206 C182 0.950 . S
H207 C183 0.949 . S
H208 C185 0.950 . S
H209 C187 0.950 . S
C210 C211 1.351 . S
C210 C212 1.327 . S
C210 H235 0.950 . S
C211 C210 1.351 . S
C211 C227 1.347 1_545 S
C212 C210 1.327 . S
C212 C231 1.430 . S
C212 H236 0.950 . S
C213 C230 1.574 . S
C213 C232 1.367 1_565 S
C213 H237 0.949 . S
H214 C218 0.949 . S
C215 C216 1.349 1_565 S
C215 C217 1.327 . S
C215 H238 0.950 . S
C216 C215 1.349 1_545 S
C216 C228 1.349 . S
C217 C215 1.327 . S
C217 C233 1.428 1_565 S
C217 H239 0.950 . S
C218 H214 0.949 . S
C218 C226 1.574 . S
C218 C234 1.369 . S
H219 C227 0.950 . S
H220 C225 0.950 . S
H221 C226 0.949 . S
H222 C228 0.950 . S
H223 C229 0.950 . S
H224 C230 0.949 . S
C225 H220 0.950 . S
C225 C227 1.327 . S
C225 C231 1.427 1_565 S
C226 C218 1.574 . S
C226 H221 0.949 . S
C226 C232 1.370 . S
C227 C211 1.347 1_565 S
C227 H219 0.950 . S
C227 C225 1.327 . S
C228 C216 1.349 . S
C228 H222 0.950 . S
C228 C229 1.327 . S
C229 H223 0.950 . S
C229 C228 1.327 . S
C229 C233 1.429 . S
C230 C213 1.574 . S
C230 H224 0.949 . S
C230 C234 1.367 1_565 S
C231 C212 1.430 . S
C231 C225 1.427 1_545 S
C231 C232 1.523 . S
C232 C213 1.367 1_545 S
C232 C226 1.370 . S
C232 C231 1.523 . S
C233 C217 1.428 1_545 S
C233 C229 1.429 . S
C233 C234 1.523 . S
C234 C218 1.369 . S
C234 C230 1.367 1_545 S
C234 C233 1.523 . S
H235 C210 0.950 . S
H236 C212 0.950 . S
H237 C213 0.949 . S
H238 C215 0.950 . S
H239 C217 0.950 . S
C240 C241 1.347 1_655 S
C240 C242 1.327 . S
C240 H265 0.950 . S
C241 C240 1.347 1_455 S
C241 C257 1.350 . S
C242 C240 1.327 . S
C242 C261 1.427 1_655 S
C242 H266 0.950 . S
C243 C260 1.574 . S
C243 C262 1.369 . S
C243 H267 0.949 . S
H244 C248 0.949 . S
C245 C246 1.349 . S
C245 C247 1.327 . S
C245 H268 0.950 . S
C246 C245 1.349 . S
C246 C258 1.349 1_455 S
C247 C245 1.327 . S
C247 C263 1.429 . S
C247 H269 0.950 . S
C248 H244 0.949 . S
C248 C256 1.574 . S
C248 C264 1.368 1_655 S
H249 C257 0.950 . S
H250 C255 0.950 . S
H251 C256 0.949 . S
H252 C258 0.950 . S
H253 C259 0.950 . S
H254 C260 0.949 . S
C255 H250 0.950 . S
C255 C257 1.327 . S
C255 C261 1.430 . S
C256 C248 1.574 . S
C256 H251 0.949 . S
C256 C262 1.367 1_655 S
C257 C241 1.350 . S
C257 H249 0.950 . S
C257 C255 1.327 . S
C258 C246 1.349 1_655 S
C258 H252 0.950 . S
C258 C259 1.327 . S
C259 H253 0.950 . S
C259 C258 1.327 . S
C259 C263 1.428 1_655 S
C260 C243 1.574 . S
C260 H254 0.949 . S
C260 C264 1.369 . S
C261 C242 1.427 1_455 S
C261 C255 1.430 . S
C261 C262 1.523 . S
C262 C243 1.369 . S
C262 C256 1.367 1_455 S
C262 C261 1.523 . S
C263 C247 1.429 . S
C263 C259 1.428 1_455 S
C263 C264 1.523 . S
C264 C248 1.368 1_455 S
C264 C260 1.369 . S
C264 C263 1.523 . S
H265 C240 0.950 . S
H266 C242 0.950 . S
H267 C243 0.949 . S
H268 C245 0.950 . S
H269 C247 0.950 . S
C270 C271 1.347 . S
C270 C272 1.327 . S
C270 H295 0.950 . S
C271 C270 1.347 . S
C271 C287 1.351 1_545 S
C272 C270 1.327 . S
C272 C291 1.427 . S
C272 H296 0.950 . S
C273 C290 1.574 . S
C273 C292 1.370 1_565 S
C273 H297 0.949 . S
H274 C278 0.949 . S
C275 C276 1.349 1_565 S
C275 C277 1.327 . S
C275 H298 0.950 . S
C276 C275 1.349 1_545 S
C276 C288 1.349 . S
C277 C275 1.327 . S
C277 C293 1.429 1_565 S
C277 H299 0.950 . S
C278 H274 0.949 . S
C278 C286 1.574 . S
C278 C294 1.367 . S
H279 C287 0.950 . S
H280 C285 0.950 . S
H281 C286 0.949 . S
H282 C288 0.950 . S
H283 C289 0.950 . S
H284 C290 0.949 . S
C285 H280 0.950 . S
C285 C287 1.327 . S
C285 C291 1.430 1_565 S
C286 C278 1.574 . S
C286 H281 0.949 . S
C286 C292 1.367 . S
C287 C271 1.351 1_565 S
C287 H279 0.950 . S
C287 C285 1.327 . S
C288 C276 1.349 . S
C288 H282 0.950 . S
C288 C289 1.327 . S
C289 H283 0.950 . S
C289 C288 1.327 . S
C289 C293 1.428 . S
C290 C273 1.574 . S
C290 H284 0.949 . S
C290 C294 1.369 1_565 S
C291 C272 1.427 . S
C291 C285 1.430 1_545 S
C291 C292 1.523 . S
C292 C273 1.370 1_545 S
C292 C286 1.367 . S
C292 C291 1.523 . S
C293 C277 1.429 1_545 S
C293 C289 1.428 . S
C293 C294 1.523 . S
C294 C278 1.367 . S
C294 C290 1.369 1_545 S
C294 C293 1.523 . S
H295 C270 0.950 . S
H296 C272 0.950 . S
H297 C273 0.949 . S
H298 C275 0.950 . S
H299 C277 0.950 . S
C61 C22 1.396 1_455 S
C66 C33 1.444 1_455 S
C91 C8 1.396 . S
C96 C59 1.446 1_545 S
C121 C31 1.393 . S
C126 C45 1.446 . S
C151 C17 1.393 1_545 S
C156 C47 1.444 . S
C181 C30 1.396 . S
C186 C32 1.449 . S
C211 C27 1.396 1_545 S
C216 C58 1.447 . S
C246 C44 1.447 1_455 S
C241 C23 1.394 1_455 S
C271 C24 1.393 . S
C276 C46 1.449 1_545 S
