# Generated by pormake.
# Topology pyr, (3,6)-cn, num edge types: 1
# Building blocks:
#     Node 0, Type 0, BuildingBlock: WUSLED_clean_sbu_0, # of connection points: 3
#     Node 1, Type 0, BuildingBlock: WUSLED_clean_sbu_0, # of connection points: 3
#     Node 2, Type 0, BuildingBlock: WUSLED_clean_sbu_0, # of connection points: 3
#     Node 3, Type 0, BuildingBlock: WUSLED_clean_sbu_0, # of connection points: 3
#     Node 4, Type 0, BuildingBlock: WUSLED_clean_sbu_0, # of connection points: 3
#     Node 5, Type 0, BuildingBlock: WUSLED_clean_sbu_0, # of connection points: 3
#     Node 6, Type 0, BuildingBlock: WUSLED_clean_sbu_0, # of connection points: 3
#     Node 7, Type 0, BuildingBlock: WUSLED_clean_sbu_0, # of connection points: 3
#     Node 8, Type 1, BuildingBlock: MIFKUJ_clean_sbu_0, # of connection points: 6
#     Node 9, Type 1, BuildingBlock: MIFKUJ_clean_sbu_0, # of connection points: 6
#     Node 10, Type 1, BuildingBlock: MIFKUJ_clean_sbu_0, # of connection points: 6
#     Node 11, Type 1, BuildingBlock: MIFKUJ_clean_sbu_0, # of connection points: 6
#     Edge 12, Type (0, 1), BuildingBlock: EYOCIG_clean_linker_4, # of connection points: 2
#     Edge 13, Type (0, 1), BuildingBlock: EYOCIG_clean_linker_4, # of connection points: 2
#     Edge 14, Type (0, 1), BuildingBlock: EYOCIG_clean_linker_4, # of connection points: 2
#     Edge 15, Type (0, 1), BuildingBlock: EYOCIG_clean_linker_4, # of connection points: 2
#     Edge 16, Type (0, 1), BuildingBlock: EYOCIG_clean_linker_4, # of connection points: 2
#     Edge 17, Type (0, 1), BuildingBlock: EYOCIG_clean_linker_4, # of connection points: 2
#     Edge 18, Type (0, 1), BuildingBlock: EYOCIG_clean_linker_4, # of connection points: 2
#     Edge 19, Type (0, 1), BuildingBlock: EYOCIG_clean_linker_4, # of connection points: 2
#     Edge 20, Type (0, 1), BuildingBlock: EYOCIG_clean_linker_4, # of connection points: 2
#     Edge 21, Type (0, 1), BuildingBlock: EYOCIG_clean_linker_4, # of connection points: 2
#     Edge 22, Type (0, 1), BuildingBlock: EYOCIG_clean_linker_4, # of connection points: 2
#     Edge 23, Type (0, 1), BuildingBlock: EYOCIG_clean_linker_4, # of connection points: 2
#     Edge 24, Type (0, 1), BuildingBlock: EYOCIG_clean_linker_4, # of connection points: 2
#     Edge 25, Type (0, 1), BuildingBlock: EYOCIG_clean_linker_4, # of connection points: 2
#     Edge 26, Type (0, 1), BuildingBlock: EYOCIG_clean_linker_4, # of connection points: 2
#     Edge 27, Type (0, 1), BuildingBlock: EYOCIG_clean_linker_4, # of connection points: 2
#     Edge 28, Type (0, 1), BuildingBlock: EYOCIG_clean_linker_4, # of connection points: 2
#     Edge 29, Type (0, 1), BuildingBlock: EYOCIG_clean_linker_4, # of connection points: 2
#     Edge 30, Type (0, 1), BuildingBlock: EYOCIG_clean_linker_4, # of connection points: 2
#     Edge 31, Type (0, 1), BuildingBlock: EYOCIG_clean_linker_4, # of connection points: 2
#     Edge 32, Type (0, 1), BuildingBlock: EYOCIG_clean_linker_4, # of connection points: 2
#     Edge 33, Type (0, 1), BuildingBlock: EYOCIG_clean_linker_4, # of connection points: 2
#     Edge 34, Type (0, 1), BuildingBlock: EYOCIG_clean_linker_4, # of connection points: 2
#     Edge 35, Type (0, 1), BuildingBlock: EYOCIG_clean_linker_4, # of connection points: 2
# Relax obj value: 0.026
# Max RMSD: 0.083
# Mean RMSD: 0.046
data_MOF--net-pyr--node1-WUSLED_clean_sbu_0--node2-MIFKUJ_clean_sbu_0--edge1-EYOCIG_clean_linker_4
_symmetry_space_group_name_H-M    P1
_symmetry_Int_Tables_number       1
_symmetry_cell_setting            triclinic
loop_
_symmetry_equiv_pos_as_xyz
'x, y, z'
_cell_length_a     43.263035
_cell_length_b     39.206823
_cell_length_c     41.969648
_cell_angle_alpha  85.542814
_cell_angle_beta   88.479452
_cell_angle_gamma 96.719385
loop_
_atom_site_label
_atom_site_type_symbol
_atom_site_fract_x
_atom_site_fract_y
_atom_site_fract_z
_atom_type_partial_charge
C0 C 0.17094 0.26829 0.16802 0.0
C1 C 0.14361 0.27375 0.18482 0.0
C2 C 0.13912 0.32378 0.14799 0.0
C3 C 0.12771 0.3017 0.17472 0.0
C4 C 0.16685 0.31887 0.13221 0.0
C5 C 0.18256 0.29128 0.14217 0.0
U6 U 0.20437 0.18856 0.21333 0.0
O7 O 0.22732 0.15247 0.18585 0.0
O8 O 0.25409 0.18322 0.2202 0.0
C9 C 0.25391 0.15933 0.19987 0.0
C10 C 0.18912 0.23973 0.17576 0.0
C11 C 0.28315 0.15304 0.18378 0.0
C12 C 0.3206 0.15843 0.13878 0.0
C13 C 0.29428 0.16908 0.15386 0.0
C14 C 0.32503 0.11676 0.18366 0.0
C15 C 0.33558 0.13159 0.15333 0.0
C16 C 0.29913 0.1275 0.19871 0.0
C17 C 0.15985 0.14995 0.29559 0.0
C18 C 0.16077 0.10617 0.33964 0.0
C19 C 0.12389 0.14823 0.3409 0.0
C20 C 0.1359 0.16347 0.3116 0.0
C21 C 0.13566 0.11911 0.35462 0.0
C22 C 0.17296 0.12162 0.30989 0.0
C23 C 0.16957 0.16736 0.2643 0.0
O24 O 0.20973 0.24374 0.19799 0.0
O25 O 0.17609 0.20783 0.17442 0.0
O26 O 0.16836 0.15043 0.2384 0.0
O27 O 0.19054 0.19449 0.26306 0.0
H28 H 0.13446 0.25639 0.2051 0.0
H29 H 0.10617 0.30547 0.18702 0.0
H30 H 0.17589 0.33573 0.11153 0.0
H31 H 0.20375 0.2875 0.12922 0.0
H32 H 0.32858 0.17025 0.11535 0.0
H33 H 0.2823 0.18893 0.1419 0.0
H34 H 0.33618 0.09606 0.19533 0.0
H35 H 0.29083 0.11486 0.22176 0.0
H36 H 0.17 0.08356 0.35025 0.0
H37 H 0.10452 0.15844 0.35222 0.0
H38 H 0.12586 0.18555 0.30097 0.0
H39 H 0.19183 0.11118 0.29794 0.0
C40 C 0.25296 0.85935 0.65557 0.0
C41 C 0.24297 0.88522 0.67341 0.0
C42 C 0.20762 0.89874 0.63127 0.0
C43 C 0.22009 0.90486 0.6612 0.0
C44 C 0.2177 0.87296 0.61388 0.0
C45 C 0.24008 0.8534 0.62602 0.0
U46 U 0.32704 0.82554 0.69614 0.0
O47 O 0.33596 0.77208 0.69204 0.0
O48 O 0.36863 0.81528 0.66842 0.0
C49 C 0.36205 0.78187 0.67533 0.0
C50 C 0.27858 0.83957 0.66415 0.0
C51 C 0.37557 0.75749 0.65612 0.0
C52 C 0.37538 0.71893 0.61365 0.0
C53 C 0.36135 0.74368 0.62948 0.0
C54 C 0.41727 0.72197 0.65106 0.0
C55 C 0.40329 0.70807 0.62462 0.0
C56 C 0.40348 0.7466 0.66663 0.0
C57 C 0.35944 0.86764 0.77434 0.0
C58 C 0.40396 0.86902 0.80846 0.0
C59 C 0.36859 0.91251 0.81072 0.0
C60 C 0.35089 0.897 0.78754 0.0
C61 C 0.39517 0.89875 0.82121 0.0
C62 C 0.38612 0.85338 0.78484 0.0
C63 C 0.34019 0.85545 0.7484 0.0
O64 O 0.30692 0.85443 0.65679 0.0
O65 O 0.27619 0.81783 0.68987 0.0
O66 O 0.32765 0.82317 0.74902 0.0
O67 O 0.3468 0.87061 0.71966 0.0
H68 H 0.25298 0.89043 0.69617 0.0
H69 H 0.21229 0.92478 0.67488 0.0
H70 H 0.20832 0.86795 0.59079 0.0
H71 H 0.24788 0.83383 0.61187 0.0
H72 H 0.36437 0.70801 0.59324 0.0
H73 H 0.33959 0.75165 0.62124 0.0
H74 H 0.43868 0.71355 0.6599 0.0
H75 H 0.41443 0.75684 0.68737 0.0
H76 H 0.4246 0.8582 0.81656 0.0
H77 H 0.36155 0.93542 0.8203 0.0
H78 H 0.33051 0.90838 0.77947 0.0
H79 H 0.39323 0.83082 0.7747 0.0
C80 C 0.63191 0.38977 0.74101 0.0
C81 C 0.64792 0.42169 0.72889 0.0
C82 C 0.61373 0.42238 0.68344 0.0
C83 C 0.63876 0.43799 0.70007 0.0
C84 C 0.59835 0.39051 0.69557 0.0
C85 C 0.6073 0.37449 0.72404 0.0
U86 U 0.66966 0.34799 0.81982 0.0
O87 O 0.63807 0.31662 0.85583 0.0
O88 O 0.6718 0.29165 0.8274 0.0
C89 C 0.64981 0.28819 0.85004 0.0
C90 C 0.64012 0.36973 0.77007 0.0
C91 C 0.63444 0.2541 0.86304 0.0
C92 C 0.59152 0.20753 0.86706 0.0
C93 C 0.60601 0.23893 0.85203 0.0
C94 C 0.63383 0.20617 0.90361 0.0
C95 C 0.60523 0.1913 0.89324 0.0
C96 C 0.64831 0.2372 0.88857 0.0
C97 C 0.74848 0.39504 0.85333 0.0
C98 C 0.78506 0.38691 0.89542 0.0
C99 C 0.79628 0.43425 0.85452 0.0
C100 C 0.76845 0.42372 0.84013 0.0
C101 C 0.80451 0.41616 0.88247 0.0
C102 C 0.75702 0.37631 0.88094 0.0
C103 C 0.71956 0.38607 0.8366 0.0
O104 O 0.66178 0.3491 0.76821 0.0
O105 O 0.63522 0.37993 0.79872 0.0
O106 O 0.69228 0.38542 0.85144 0.0
O107 O 0.71998 0.36453 0.81423 0.0
H108 H 0.66723 0.43381 0.7415 0.0
H109 H 0.65092 0.46271 0.69098 0.0
H110 H 0.57907 0.37802 0.68314 0.0
H111 H 0.5949 0.34979 0.73285 0.0
H112 H 0.56939 0.19635 0.85873 0.0
H113 H 0.59487 0.25152 0.83233 0.0
H114 H 0.64474 0.19413 0.92378 0.0
H115 H 0.67014 0.24852 0.89744 0.0
H116 H 0.79133 0.37265 0.91697 0.0
H117 H 0.81106 0.45681 0.84411 0.0
H118 H 0.76232 0.43827 0.81867 0.0
H119 H 0.74207 0.3539 0.89132 0.0
C120 C 0.76153 0.62368 0.32481 0.0
C121 C 0.75576 0.63979 0.35275 0.0
C122 C 0.70607 0.60373 0.36085 0.0
C123 C 0.72792 0.6298 0.37068 0.0
C124 C 0.71176 0.58807 0.33282 0.0
C125 C 0.7394 0.59798 0.31501 0.0
U126 U 0.84272 0.66922 0.28869 0.0
O127 O 0.86828 0.63151 0.26624 0.0
O128 O 0.86192 0.68118 0.23935 0.0
C129 C 0.87402 0.65188 0.23982 0.0
C130 C 0.79005 0.6319 0.3048 0.0
C131 C 0.88162 0.63773 0.2096 0.0
C132 C 0.87742 0.59489 0.1705 0.0
C133 C 0.86575 0.60792 0.19815 0.0
C134 C 0.91951 0.64181 0.16553 0.0
C135 C 0.905 0.61129 0.15491 0.0
C136 C 0.90788 0.65483 0.19261 0.0
C137 C 0.88256 0.74881 0.33413 0.0
C138 C 0.92525 0.79555 0.33188 0.0
C139 C 0.88158 0.79512 0.3693 0.0
C140 C 0.86766 0.76494 0.35785 0.0
C141 C 0.91072 0.8102 0.35705 0.0
C142 C 0.91124 0.76472 0.3204 0.0
C143 C 0.86665 0.71498 0.32693 0.0
O144 O 0.79196 0.6591 0.28389 0.0
O145 O 0.81664 0.6259 0.3175 0.0
O146 O 0.88154 0.68962 0.31866 0.0
O147 O 0.8398 0.71562 0.31377 0.0
H148 H 0.77268 0.65962 0.36074 0.0
H149 H 0.7237 0.64186 0.39251 0.0
H150 H 0.69522 0.56771 0.32505 0.0
H151 H 0.74369 0.58526 0.29357 0.0
H152 H 0.86592 0.57127 0.16227 0.0
H153 H 0.84525 0.59437 0.21085 0.0
H154 H 0.94078 0.65477 0.15382 0.0
H155 H 0.92031 0.67779 0.20115 0.0
H156 H 0.94771 0.80728 0.32193 0.0
H157 H 0.86989 0.80607 0.38854 0.0
H158 H 0.84543 0.75335 0.36853 0.0
H159 H 0.92302 0.75309 0.30169 0.0
C160 C 0.83344 0.72233 0.83325 0.0
C161 C 0.85898 0.71438 0.81494 0.0
C162 C 0.87405 0.67848 0.86053 0.0
C163 C 0.87921 0.69219 0.82863 0.0
C164 C 0.84798 0.68545 0.87806 0.0
C165 C 0.82782 0.70707 0.86444 0.0
U166 U 0.79915 0.80193 0.78748 0.0
O167 O 0.74929 0.80766 0.79337 0.0
O168 O 0.78476 0.84645 0.81096 0.0
C169 C 0.7551 0.83691 0.80667 0.0
C170 C 0.81371 0.74906 0.82351 0.0
C171 C 0.73088 0.84931 0.82681 0.0
C172 C 0.69524 0.84598 0.87327 0.0
C173 C 0.7186 0.83224 0.85596 0.0
C174 C 0.69614 0.89325 0.83242 0.0
C175 C 0.68397 0.87666 0.86158 0.0
C176 C 0.71936 0.87971 0.81531 0.0
C177 C 0.84293 0.84052 0.70424 0.0
C178 C 0.84808 0.89077 0.66579 0.0
C179 C 0.88799 0.85214 0.66783 0.0
C180 C 0.87108 0.83156 0.69219 0.0
C181 C 0.87691 0.88201 0.65484 0.0
C182 C 0.83104 0.87006 0.69071 0.0
C183 C 0.82985 0.81981 0.73312 0.0
O184 O 0.82464 0.78106 0.8275 0.0
O185 O 0.79552 0.74551 0.79905 0.0
O186 O 0.80144 0.80345 0.73446 0.0
O187 O 0.84062 0.82801 0.76078 0.0
H188 H 0.86378 0.72601 0.79079 0.0
H189 H 0.89929 0.68665 0.81482 0.0
H190 H 0.84364 0.67499 0.90266 0.0
H191 H 0.80834 0.71308 0.8789 0.0
H192 H 0.68603 0.83278 0.89577 0.0
H193 H 0.727 0.80861 0.86527 0.0
H194 H 0.6878 0.91683 0.82284 0.0
H195 H 0.72838 0.89309 0.79281 0.0
H196 H 0.8393 0.91391 0.65576 0.0
H197 H 0.9102 0.84509 0.65969 0.0
H198 H 0.88068 0.80906 0.70255 0.0
H199 H 0.80941 0.87754 0.69989 0.0
C200 C 0.64847 0.14794 0.24447 0.0
C201 C 0.66561 0.12259 0.2334 0.0
C202 C 0.62445 0.10735 0.19678 0.0
C203 C 0.6535 0.10225 0.2094 0.0
C204 C 0.60825 0.13342 0.20723 0.0
C205 C 0.62026 0.1536 0.23076 0.0
U206 U 0.68894 0.18507 0.32048 0.0
O207 O 0.68168 0.23961 0.32298 0.0
O208 O 0.67132 0.20242 0.36531 0.0
C209 C 0.6727 0.23447 0.35327 0.0
C210 C 0.65707 0.16837 0.27124 0.0
C211 C 0.65186 0.25651 0.36733 0.0
C212 C 0.60839 0.29045 0.36817 0.0
C213 C 0.62546 0.26769 0.35278 0.0
C214 C 0.64363 0.28999 0.4122 0.0
C215 C 0.61795 0.302 0.39762 0.0
C216 C 0.66037 0.26742 0.39713 0.0
C217 C 0.76431 0.1447 0.35184 0.0
C218 C 0.79826 0.14412 0.39717 0.0
C219 C 0.79839 0.10006 0.35973 0.0
C220 C 0.77575 0.11491 0.34249 0.0
C221 C 0.81006 0.11468 0.38689 0.0
C222 C 0.77525 0.15921 0.37968 0.0
C223 C 0.74022 0.15735 0.33157 0.0
O224 O 0.64916 0.15471 0.30047 0.0
O225 O 0.68283 0.19006 0.26875 0.0
O226 O 0.74054 0.19018 0.32212 0.0
O227 O 0.7123 0.14046 0.33591 0.0
H228 H 0.68764 0.11809 0.24364 0.0
H229 H 0.66637 0.08232 0.20116 0.0
H230 H 0.58594 0.13786 0.19759 0.0
H231 H 0.60696 0.17324 0.23895 0.0
H232 H 0.58847 0.2998 0.35677 0.0
H233 H 0.61846 0.25947 0.32972 0.0
H234 H 0.65135 0.29881 0.43484 0.0
H235 H 0.68069 0.25903 0.40853 0.0
H236 H 0.80707 0.15554 0.41833 0.0
H237 H 0.80708 0.07731 0.35152 0.0
H238 H 0.76718 0.10308 0.32142 0.0
H239 H 0.76631 0.1819 0.38767 0.0
C240 C 0.25654 0.6287 0.18261 0.0
C241 C 0.24862 0.65009 0.15637 0.0
C242 C 0.20862 0.60485 0.14289 0.0
C243 C 0.2246 0.63813 0.13661 0.0
C244 C 0.21587 0.58418 0.16969 0.0
C245 C 0.23959 0.59609 0.18937 0.0
U246 U 0.33433 0.67445 0.21797 0.0
O247 O 0.33915 0.66465 0.2701 0.0
O248 O 0.37461 0.64993 0.23647 0.0
C249 C 0.36548 0.65155 0.26634 0.0
C250 C 0.28302 0.63754 0.20302 0.0
C251 C 0.37816 0.63059 0.29271 0.0
C252 C 0.37648 0.58231 0.33354 0.0
C253 C 0.36243 0.59997 0.30818 0.0
C254 C 0.42154 0.62544 0.32781 0.0
C255 C 0.40608 0.59529 0.34361 0.0
C256 C 0.40775 0.64278 0.30271 0.0
C257 C 0.37385 0.76292 0.16904 0.0
C258 C 0.42073 0.80458 0.16422 0.0
C259 C 0.38332 0.80418 0.12234 0.0
C260 C 0.36489 0.77688 0.13941 0.0
C261 C 0.4113 0.81833 0.13449 0.0
C262 C 0.4021 0.77684 0.18148 0.0
C263 C 0.3534 0.73256 0.18388 0.0
O264 O 0.31087 0.63205 0.1928 0.0
O265 O 0.28302 0.66408 0.22039 0.0
O266 O 0.34067 0.73184 0.21282 0.0
O267 O 0.35702 0.70214 0.17441 0.0
H268 H 0.26128 0.67545 0.15083 0.0
H269 H 0.21895 0.65448 0.1161 0.0
H270 H 0.20365 0.55855 0.17508 0.0
H271 H 0.24527 0.57935 0.20961 0.0
H272 H 0.3642 0.55889 0.34541 0.0
H273 H 0.33956 0.58988 0.30085 0.0
H274 H 0.44434 0.63589 0.33508 0.0
H275 H 0.42025 0.66625 0.29115 0.0
H276 H 0.44242 0.81514 0.17393 0.0
H277 H 0.37564 0.81419 0.09947 0.0
H278 H 0.34347 0.76629 0.12915 0.0
H279 H 0.40979 0.76622 0.2041 0.0
C280 C 0.12955 0.25907 0.69007 0.0
C281 C 0.14619 0.25216 0.66252 0.0
C282 C 0.10952 0.20073 0.65777 0.0
C283 C 0.13607 0.22295 0.64637 0.0
C284 C 0.0935 0.20747 0.68547 0.0
C285 C 0.10344 0.23642 0.70138 0.0
U286 U 0.17509 0.34032 0.72786 0.0
O287 O 0.14917 0.37609 0.75246 0.0
O288 O 0.17956 0.34355 0.78007 0.0
C289 C 0.16117 0.36801 0.78008 0.0
C290 C 0.13841 0.28819 0.70936 0.0
C291 C 0.14673 0.37727 0.80974 0.0
C292 C 0.10278 0.37639 0.84716 0.0
C293 C 0.11683 0.36295 0.82111 0.0
C294 C 0.14858 0.41771 0.85084 0.0
C295 C 0.11839 0.40431 0.86158 0.0
C296 C 0.16265 0.40417 0.82514 0.0
C297 C 0.25723 0.38018 0.68466 0.0
C298 C 0.30238 0.42325 0.68526 0.0
C299 C 0.30133 0.37832 0.64854 0.0
C300 C 0.27205 0.3646 0.66067 0.0
C301 C 0.31625 0.40808 0.66006 0.0
C302 C 0.27265 0.40925 0.69768 0.0
C303 C 0.22625 0.36343 0.69511 0.0
O304 O 0.16 0.28475 0.73037 0.0
O305 O 0.13746 0.32005 0.69728 0.0
O306 O 0.2015 0.37999 0.69384 0.0
O307 O 0.22375 0.33558 0.71484 0.0
H308 H 0.16668 0.26911 0.6536 0.0
H309 H 0.14874 0.21783 0.62497 0.0
H310 H 0.07309 0.19054 0.69468 0.0
H311 H 0.0906 0.24116 0.7228 0.0
H312 H 0.07937 0.36586 0.85528 0.0
H313 H 0.1041 0.34231 0.80938 0.0
H314 H 0.16089 0.43938 0.86156 0.0
H315 H 0.18561 0.41567 0.8164 0.0
H316 H 0.31395 0.44631 0.69444 0.0
H317 H 0.31181 0.36631 0.62921 0.0
H318 H 0.26062 0.34187 0.6508 0.0
H319 H 0.2617 0.42123 0.71671 0.0
Zn320 Zn 0.0449 0.00982 0.54057 0.0
Zn321 Zn 0.97272 1.00045 0.47611 0.0
C322 C 0.07095 0.07019 0.56877 0.0
O323 O 0.09418 0.06773 0.5487 0.0
C324 C 0.94755 0.93969 0.44712 0.0
O325 O 0.92348 0.94228 0.46607 0.0
O326 O 0.08329 0.98594 0.547 0.0
O327 O 0.00706 0.97831 0.55653 0.0
O328 O 0.96955 0.979 0.52126 0.0
C329 C 0.08868 0.9753 0.57536 0.0
O330 O 0.069 0.97902 0.59877 0.0
O331 O 0.04681 0.04843 0.56958 0.0
C332 C 0.93014 0.037 0.44017 0.0
O333 O 0.95048 0.03413 0.4171 0.0
O334 O 0.93454 0.02483 0.46838 0.0
O335 O 0.01061 0.03208 0.46033 0.0
O336 O 0.04764 0.03138 0.496 0.0
O337 O 0.9716 0.9615 0.44728 0.0
C338 C 0.97937 0.96993 0.54845 0.0
C339 C 0.03813 0.04064 0.46882 0.0
Zn340 Zn 0.52824 0.9753 0.98083 0.0
Zn341 Zn 0.49123 0.02811 0.03938 0.0
C342 C 0.48707 0.95011 0.93464 0.0
O343 O 0.49927 0.92196 0.94352 0.0
C344 C 0.53259 0.05409 0.08581 0.0
O345 O 0.52092 0.0825 0.07661 0.0
O346 O 0.56144 0.94709 0.96259 0.0
O347 O 0.54948 0.02379 0.98332 0.0
O348 O 0.512 0.05415 0.99879 0.0
C349 C 0.57562 0.95609 0.93565 0.0
O350 O 0.56946 0.98408 0.91904 0.0
O351 O 0.49547 0.97776 0.94752 0.0
C352 C 0.44441 0.05003 0.08359 0.0
O353 O 0.45041 0.02277 0.10143 0.0
O354 O 0.45829 0.05733 0.0563 0.0
O355 O 0.47039 0.97911 0.03801 0.0
O356 O 0.50744 0.94868 0.02134 0.0
O357 O 0.52385 0.02646 0.07302 0.0
C358 C 0.53695 0.05159 0.98274 0.0
C359 C 0.48285 0.95123 0.03806 0.0
Zn360 Zn 0.53756 0.4875 0.48448 0.0
Zn361 Zn 0.48693 0.52421 0.53845 0.0
C362 C 0.58348 0.52656 0.44529 0.0
O363 O 0.56843 0.50737 0.42518 0.0
C364 C 0.44064 0.4853 0.57827 0.0
O365 O 0.4553 0.50468 0.59848 0.0
O366 O 0.54564 0.44707 0.46087 0.0
O367 O 0.53947 0.46805 0.53044 0.0
O368 O 0.52483 0.50822 0.55976 0.0
C369 C 0.56946 0.43263 0.4682 0.0
O370 O 0.58798 0.44477 0.48997 0.0
O371 O 0.57474 0.52357 0.47458 0.0
C372 C 0.45548 0.57915 0.55484 0.0
O373 O 0.4371 0.5674 0.53278 0.0
O374 O 0.47909 0.56445 0.56227 0.0
O375 O 0.48375 0.54318 0.49247 0.0
O376 O 0.50074 0.50506 0.46212 0.0
O377 O 0.45 0.48785 0.54917 0.0
C378 C 0.53947 0.48248 0.55639 0.0
C379 C 0.48539 0.53021 0.46584 0.0
Zn380 Zn 0.98237 0.52179 0.97608 0.0
Zn381 Zn 0.04087 0.49415 0.03889 0.0
C382 C 0.93538 0.48405 0.94409 0.0
O383 O 0.95212 0.50067 0.92003 0.0
C384 C 0.08938 0.53106 0.06823 0.0
O385 O 0.07142 0.51696 0.09251 0.0
O386 O 0.97493 0.56184 0.94612 0.0
O387 O 0.97864 0.53866 0.01946 0.0
O388 O 0.00708 0.51813 0.05794 0.0
C389 C 0.95147 0.57661 0.95333 0.0
O390 O 0.9352 0.56655 0.97992 0.0
O391 O 0.94428 0.4871 0.97241 0.0
C392 C 0.07072 0.44012 0.06253 0.0
O393 O 0.08644 0.44947 0.03549 0.0
O394 O 0.0475 0.45514 0.07002 0.0
O395 O 0.04058 0.47229 0.99722 0.0
O396 O 0.01994 0.5027 0.95805 0.0
O397 O 0.08103 0.52645 0.03992 0.0
C398 C 0.9863 0.53626 0.0483 0.0
C399 C 0.03727 0.48044 0.96788 0.0
C400 C 0.10209 0.08895 0.4041 0.0
C401 C 0.11893 0.10088 0.38181 0.0
C402 C 0.07956 0.07401 0.42729 0.0
C403 C 0.06026 0.05878 0.4459 0.0
C404 C 0.42807 0.92941 0.86518 0.0
C405 C 0.41306 0.91546 0.84514 0.0
C406 C 0.44699 0.94256 0.88921 0.0
C407 C 0.46485 0.9491 0.90997 0.0
C408 C 0.58971 0.44912 0.631 0.0
C409 C 0.60218 0.43888 0.65481 0.0
C410 C 0.57264 0.46017 0.60442 0.0
C411 C 0.55761 0.4701 0.58235 0.0
C412 C 0.93585 0.58333 0.11055 0.0
C413 C 0.92099 0.59515 0.13079 0.0
C414 C 0.95435 0.56784 0.08897 0.0
C415 C 0.96932 0.55316 0.07095 0.0
C416 C 0.3807 0.10448 0.12334 0.0
C417 C 0.36013 0.11728 0.13648 0.0
C418 C 0.40352 0.08753 0.10784 0.0
C419 C 0.42233 0.07148 0.09553 0.0
C420 C 0.16408 0.93242 0.60524 0.0
C421 C 0.18393 0.91788 0.61815 0.0
C422 C 0.13924 0.94776 0.59142 0.0
C423 C 0.11672 0.96051 0.58235 0.0
C424 C 0.85514 0.43886 0.9122 0.0
C425 C 0.83208 0.42855 0.89863 0.0
C426 C 0.88207 0.45213 0.92757 0.0
C427 C 0.90577 0.46572 0.93786 0.0
C428 C 0.65655 0.58099 0.39783 0.0
C429 C 0.67907 0.59122 0.38085 0.0
C430 C 0.63161 0.56592 0.41837 0.0
C431 C 0.6103 0.54935 0.43361 0.0
C432 C 0.10825 0.37151 0.12104 0.0
C433 C 0.12126 0.34942 0.13444 0.0
C434 C 0.09348 0.3956 0.10244 0.0
C435 C 0.0822 0.41604 0.08499 0.0
C436 C 0.57786 0.13473 0.92634 0.0
C437 C 0.58962 0.16046 0.9107 0.0
C438 C 0.56384 0.10561 0.94599 0.0
C439 C 0.55144 0.08108 0.9628 0.0
C440 C 0.93466 0.86326 0.38745 0.0
C441 C 0.9257 0.83939 0.37212 0.0
C442 C 0.94212 0.89037 0.40739 0.0
C443 C 0.94582 0.91331 0.42503 0.0
C444 C 0.42941 0.65992 0.59741 0.0
C445 C 0.4173 0.68186 0.60964 0.0
C446 C 0.44109 0.63262 0.5833 0.0
C447 C 0.44846 0.60814 0.57086 0.0
C448 C 0.91532 0.91892 0.61219 0.0
C449 C 0.89641 0.90371 0.63136 0.0
C450 C 0.93848 0.93583 0.59039 0.0
C451 C 0.95762 0.95138 0.57168 0.0
C452 C 0.59454 0.07195 0.15394 0.0
C453 C 0.61031 0.08622 0.17333 0.0
C454 C 0.5738 0.06023 0.13066 0.0
C455 C 0.55525 0.05487 0.11018 0.0
C456 C 0.43551 0.56738 0.39225 0.0
C457 C 0.42092 0.57881 0.37038 0.0
C458 C 0.45329 0.55475 0.41773 0.0
C459 C 0.46798 0.54343 0.43956 0.0
C460 C 0.08874 0.43442 0.90551 0.0
C461 C 0.10255 0.42098 0.88553 0.0
C462 C 0.07091 0.45075 0.92711 0.0
C463 C 0.05528 0.46471 0.94517 0.0
C464 C 0.64059 0.90474 0.89357 0.0
C465 C 0.66031 0.89155 0.87938 0.0
C466 C 0.61769 0.92095 0.9099 0.0
C467 C 0.59835 0.93588 0.92282 0.0
C468 C 0.85556 0.08497 0.41426 0.0
C469 C 0.83491 0.09968 0.40294 0.0
C470 C 0.88066 0.06778 0.42535 0.0
C471 C 0.90288 0.05356 0.43318 0.0
C472 C 0.1658 0.57913 0.10441 0.0
C473 C 0.18538 0.59138 0.12159 0.0
C474 C 0.14148 0.56411 0.08627 0.0
C475 C 0.11871 0.54994 0.07467 0.0
C476 C 0.36645 0.43431 0.62599 0.0
C477 C 0.3439 0.42422 0.64296 0.0
C478 C 0.39142 0.44783 0.60484 0.0
C479 C 0.41319 0.4633 0.58947 0.0
C480 C 0.91192 0.64145 0.8923 0.0
C481 C 0.89577 0.65844 0.8763 0.0
C482 C 0.9284 0.6204 0.91261 0.0
C483 C 0.93981 0.60034 0.93047 0.0
C484 C 0.44269 0.87035 0.09813 0.0
C485 C 0.42964 0.84682 0.11587 0.0
C486 C 0.45694 0.89793 0.07661 0.0
C487 C 0.46911 0.92193 0.05888 0.0
C488 C 0.08836 0.14724 0.62646 0.0
C489 C 0.09792 0.17158 0.6408 0.0
C490 C 0.07893 0.11953 0.608 0.0
C491 C 0.07374 0.09646 0.59082 0.0
C492 C 0.59276 0.35044 0.42539 0.0
C493 C 0.60349 0.32839 0.41188 0.0
C494 C 0.5829 0.37831 0.4403 0.0
C495 C 0.57625 0.40315 0.4527 0.0
loop_
_geom_bond_atom_site_label_1
_geom_bond_atom_site_label_2
_geom_bond_distance
_geom_bond_site_symmetry_2
_ccdc_geom_bond_type
C0 C1 1.264 . S
C0 C5 1.479 . S
C0 C10 1.465 . S
C1 C0 1.264 . S
C1 C3 1.339 . S
C1 H28 0.931 . S
C2 C3 1.395 . S
C2 C4 1.320 . S
C3 C1 1.339 . S
C3 C2 1.395 . S
C3 H29 0.929 . S
C4 C2 1.320 . S
C4 C5 1.405 . S
C4 H30 0.930 . S
C5 C0 1.479 . S
C5 C4 1.405 . S
C5 H31 0.931 . S
U6 O7 2.454 . S
U6 O8 2.458 . S
U6 C9 2.984 . S
U6 C10 2.847 . S
U6 C23 2.882 . S
U6 O24 2.441 . S
U6 O25 2.420 . S
U6 O26 2.455 . S
U6 O27 2.449 . S
O7 U6 2.454 . S
O7 C9 1.353 . S
O8 U6 2.458 . S
O8 C9 1.286 . S
C9 U6 2.984 . S
C9 O7 1.353 . S
C9 O8 1.286 . S
C9 C11 1.363 . S
C10 C0 1.465 . S
C10 U6 2.847 . S
C10 O24 1.249 . S
C10 O25 1.202 . S
C11 C9 1.363 . S
C11 C13 1.408 . S
C11 C16 1.342 . S
C12 C13 1.310 . S
C12 C15 1.461 . S
C12 H32 0.932 . S
C13 C11 1.408 . S
C13 C12 1.310 . S
C13 H33 0.930 . S
C14 C15 1.474 . S
C14 C16 1.285 . S
C14 H34 0.929 . S
C15 C12 1.461 . S
C15 C14 1.474 . S
C16 C11 1.342 . S
C16 C14 1.285 . S
C16 H35 0.930 . S
C17 C20 1.424 . S
C17 C22 1.245 . S
C17 C23 1.428 . S
C18 C21 1.260 . S
C18 C22 1.477 . S
C18 H36 0.932 . S
C19 C20 1.384 . S
C19 C21 1.479 . S
C19 H37 0.929 . S
C20 C17 1.424 . S
C20 C19 1.384 . S
C20 H38 0.928 . S
C21 C18 1.260 . S
C21 C19 1.479 . S
C22 C17 1.245 . S
C22 C18 1.477 . S
C22 H39 0.932 . S
C23 U6 2.882 . S
C23 C17 1.428 . S
C23 O26 1.301 . S
C23 O27 1.282 . S
O24 U6 2.441 . S
O24 C10 1.249 . S
O25 U6 2.420 . S
O25 C10 1.202 . S
O26 U6 2.455 . S
O26 C23 1.301 . S
O27 U6 2.449 . S
O27 C23 1.282 . S
H28 C1 0.931 . S
H29 C3 0.929 . S
H30 C4 0.930 . S
H31 C5 0.931 . S
H32 C12 0.932 . S
H33 C13 0.930 . S
H34 C14 0.929 . S
H35 C16 0.930 . S
H36 C18 0.932 . S
H37 C19 0.929 . S
H38 C20 0.928 . S
H39 C22 0.932 . S
C40 C41 1.264 . S
C40 C45 1.479 . S
C40 C50 1.465 . S
C41 C40 1.264 . S
C41 C43 1.339 . S
C41 H68 0.931 . S
C42 C43 1.395 . S
C42 C44 1.320 . S
C43 C41 1.339 . S
C43 C42 1.395 . S
C43 H69 0.929 . S
C44 C42 1.320 . S
C44 C45 1.405 . S
C44 H70 0.930 . S
C45 C40 1.479 . S
C45 C44 1.405 . S
C45 H71 0.931 . S
U46 O47 2.454 . S
U46 O48 2.458 . S
U46 C49 2.984 . S
U46 C50 2.847 . S
U46 C63 2.882 . S
U46 O64 2.441 . S
U46 O65 2.420 . S
U46 O66 2.455 . S
U46 O67 2.449 . S
O47 U46 2.454 . S
O47 C49 1.353 . S
O48 U46 2.458 . S
O48 C49 1.286 . S
C49 U46 2.984 . S
C49 O47 1.353 . S
C49 O48 1.286 . S
C49 C51 1.363 . S
C50 C40 1.465 . S
C50 U46 2.847 . S
C50 O64 1.249 . S
C50 O65 1.202 . S
C51 C49 1.363 . S
C51 C53 1.408 . S
C51 C56 1.342 . S
C52 C53 1.310 . S
C52 C55 1.461 . S
C52 H72 0.932 . S
C53 C51 1.408 . S
C53 C52 1.310 . S
C53 H73 0.930 . S
C54 C55 1.474 . S
C54 C56 1.285 . S
C54 H74 0.929 . S
C55 C52 1.461 . S
C55 C54 1.474 . S
C56 C51 1.342 . S
C56 C54 1.285 . S
C56 H75 0.930 . S
C57 C60 1.424 . S
C57 C62 1.245 . S
C57 C63 1.428 . S
C58 C61 1.260 . S
C58 C62 1.477 . S
C58 H76 0.932 . S
C59 C60 1.384 . S
C59 C61 1.479 . S
C59 H77 0.929 . S
C60 C57 1.424 . S
C60 C59 1.384 . S
C60 H78 0.928 . S
C61 C58 1.260 . S
C61 C59 1.479 . S
C62 C57 1.245 . S
C62 C58 1.477 . S
C62 H79 0.932 . S
C63 U46 2.882 . S
C63 C57 1.428 . S
C63 O66 1.301 . S
C63 O67 1.282 . S
O64 U46 2.441 . S
O64 C50 1.249 . S
O65 U46 2.420 . S
O65 C50 1.202 . S
O66 U46 2.455 . S
O66 C63 1.301 . S
O67 U46 2.449 . S
O67 C63 1.282 . S
H68 C41 0.931 . S
H69 C43 0.929 . S
H70 C44 0.930 . S
H71 C45 0.931 . S
H72 C52 0.932 . S
H73 C53 0.930 . S
H74 C54 0.929 . S
H75 C56 0.930 . S
H76 C58 0.932 . S
H77 C59 0.929 . S
H78 C60 0.928 . S
H79 C62 0.932 . S
C80 C81 1.264 . S
C80 C85 1.479 . S
C80 C90 1.465 . S
C81 C80 1.264 . S
C81 C83 1.339 . S
C81 H108 0.931 . S
C82 C83 1.395 . S
C82 C84 1.320 . S
C83 C81 1.339 . S
C83 C82 1.395 . S
C83 H109 0.929 . S
C84 C82 1.320 . S
C84 C85 1.405 . S
C84 H110 0.930 . S
C85 C80 1.479 . S
C85 C84 1.405 . S
C85 H111 0.931 . S
U86 O87 2.454 . S
U86 O88 2.458 . S
U86 C89 2.984 . S
U86 C90 2.847 . S
U86 C103 2.882 . S
U86 O104 2.441 . S
U86 O105 2.420 . S
U86 O106 2.455 . S
U86 O107 2.449 . S
O87 U86 2.454 . S
O87 C89 1.353 . S
O88 U86 2.458 . S
O88 C89 1.286 . S
C89 U86 2.984 . S
C89 O87 1.353 . S
C89 O88 1.286 . S
C89 C91 1.363 . S
C90 C80 1.465 . S
C90 U86 2.847 . S
C90 O104 1.249 . S
C90 O105 1.202 . S
C91 C89 1.363 . S
C91 C93 1.408 . S
C91 C96 1.342 . S
C92 C93 1.310 . S
C92 C95 1.461 . S
C92 H112 0.932 . S
C93 C91 1.408 . S
C93 C92 1.310 . S
C93 H113 0.930 . S
C94 C95 1.474 . S
C94 C96 1.285 . S
C94 H114 0.929 . S
C95 C92 1.461 . S
C95 C94 1.474 . S
C96 C91 1.342 . S
C96 C94 1.285 . S
C96 H115 0.930 . S
C97 C100 1.424 . S
C97 C102 1.245 . S
C97 C103 1.428 . S
C98 C101 1.260 . S
C98 C102 1.477 . S
C98 H116 0.932 . S
C99 C100 1.384 . S
C99 C101 1.479 . S
C99 H117 0.929 . S
C100 C97 1.424 . S
C100 C99 1.384 . S
C100 H118 0.928 . S
C101 C98 1.260 . S
C101 C99 1.479 . S
C102 C97 1.245 . S
C102 C98 1.477 . S
C102 H119 0.932 . S
C103 U86 2.882 . S
C103 C97 1.428 . S
C103 O106 1.301 . S
C103 O107 1.282 . S
O104 U86 2.441 . S
O104 C90 1.249 . S
O105 U86 2.420 . S
O105 C90 1.202 . S
O106 U86 2.455 . S
O106 C103 1.301 . S
O107 U86 2.449 . S
O107 C103 1.282 . S
H108 C81 0.931 . S
H109 C83 0.929 . S
H110 C84 0.930 . S
H111 C85 0.931 . S
H112 C92 0.932 . S
H113 C93 0.930 . S
H114 C94 0.929 . S
H115 C96 0.930 . S
H116 C98 0.932 . S
H117 C99 0.929 . S
H118 C100 0.928 . S
H119 C102 0.932 . S
C120 C121 1.264 . S
C120 C125 1.479 . S
C120 C130 1.465 . S
C121 C120 1.264 . S
C121 C123 1.339 . S
C121 H148 0.931 . S
C122 C123 1.395 . S
C122 C124 1.320 . S
C123 C121 1.339 . S
C123 C122 1.395 . S
C123 H149 0.929 . S
C124 C122 1.320 . S
C124 C125 1.405 . S
C124 H150 0.930 . S
C125 C120 1.479 . S
C125 C124 1.405 . S
C125 H151 0.931 . S
U126 O127 2.454 . S
U126 O128 2.458 . S
U126 C129 2.984 . S
U126 C130 2.847 . S
U126 C143 2.882 . S
U126 O144 2.441 . S
U126 O145 2.420 . S
U126 O146 2.455 . S
U126 O147 2.449 . S
O127 U126 2.454 . S
O127 C129 1.353 . S
O128 U126 2.458 . S
O128 C129 1.286 . S
C129 U126 2.984 . S
C129 O127 1.353 . S
C129 O128 1.286 . S
C129 C131 1.363 . S
C130 C120 1.465 . S
C130 U126 2.847 . S
C130 O144 1.249 . S
C130 O145 1.202 . S
C131 C129 1.363 . S
C131 C133 1.408 . S
C131 C136 1.342 . S
C132 C133 1.310 . S
C132 C135 1.461 . S
C132 H152 0.932 . S
C133 C131 1.408 . S
C133 C132 1.310 . S
C133 H153 0.930 . S
C134 C135 1.474 . S
C134 C136 1.285 . S
C134 H154 0.929 . S
C135 C132 1.461 . S
C135 C134 1.474 . S
C136 C131 1.342 . S
C136 C134 1.285 . S
C136 H155 0.930 . S
C137 C140 1.424 . S
C137 C142 1.245 . S
C137 C143 1.428 . S
C138 C141 1.260 . S
C138 C142 1.477 . S
C138 H156 0.932 . S
C139 C140 1.384 . S
C139 C141 1.479 . S
C139 H157 0.929 . S
C140 C137 1.424 . S
C140 C139 1.384 . S
C140 H158 0.928 . S
C141 C138 1.260 . S
C141 C139 1.479 . S
C142 C137 1.245 . S
C142 C138 1.477 . S
C142 H159 0.932 . S
C143 U126 2.882 . S
C143 C137 1.428 . S
C143 O146 1.301 . S
C143 O147 1.282 . S
O144 U126 2.441 . S
O144 C130 1.249 . S
O145 U126 2.420 . S
O145 C130 1.202 . S
O146 U126 2.455 . S
O146 C143 1.301 . S
O147 U126 2.449 . S
O147 C143 1.282 . S
H148 C121 0.931 . S
H149 C123 0.929 . S
H150 C124 0.930 . S
H151 C125 0.931 . S
H152 C132 0.932 . S
H153 C133 0.930 . S
H154 C134 0.929 . S
H155 C136 0.930 . S
H156 C138 0.932 . S
H157 C139 0.929 . S
H158 C140 0.928 . S
H159 C142 0.932 . S
C160 C161 1.264 . S
C160 C165 1.479 . S
C160 C170 1.465 . S
C161 C160 1.264 . S
C161 C163 1.339 . S
C161 H188 0.931 . S
C162 C163 1.395 . S
C162 C164 1.320 . S
C163 C161 1.339 . S
C163 C162 1.395 . S
C163 H189 0.929 . S
C164 C162 1.320 . S
C164 C165 1.405 . S
C164 H190 0.930 . S
C165 C160 1.479 . S
C165 C164 1.405 . S
C165 H191 0.931 . S
U166 O167 2.454 . S
U166 O168 2.458 . S
U166 C169 2.984 . S
U166 C170 2.847 . S
U166 C183 2.882 . S
U166 O184 2.441 . S
U166 O185 2.420 . S
U166 O186 2.455 . S
U166 O187 2.449 . S
O167 U166 2.454 . S
O167 C169 1.353 . S
O168 U166 2.458 . S
O168 C169 1.286 . S
C169 U166 2.984 . S
C169 O167 1.353 . S
C169 O168 1.286 . S
C169 C171 1.363 . S
C170 C160 1.465 . S
C170 U166 2.847 . S
C170 O184 1.249 . S
C170 O185 1.202 . S
C171 C169 1.363 . S
C171 C173 1.408 . S
C171 C176 1.342 . S
C172 C173 1.310 . S
C172 C175 1.461 . S
C172 H192 0.932 . S
C173 C171 1.408 . S
C173 C172 1.310 . S
C173 H193 0.930 . S
C174 C175 1.474 . S
C174 C176 1.285 . S
C174 H194 0.929 . S
C175 C172 1.461 . S
C175 C174 1.474 . S
C176 C171 1.342 . S
C176 C174 1.285 . S
C176 H195 0.930 . S
C177 C180 1.424 . S
C177 C182 1.245 . S
C177 C183 1.428 . S
C178 C181 1.260 . S
C178 C182 1.477 . S
C178 H196 0.932 . S
C179 C180 1.384 . S
C179 C181 1.479 . S
C179 H197 0.929 . S
C180 C177 1.424 . S
C180 C179 1.384 . S
C180 H198 0.928 . S
C181 C178 1.260 . S
C181 C179 1.479 . S
C182 C177 1.245 . S
C182 C178 1.477 . S
C182 H199 0.932 . S
C183 U166 2.882 . S
C183 C177 1.428 . S
C183 O186 1.301 . S
C183 O187 1.282 . S
O184 U166 2.441 . S
O184 C170 1.249 . S
O185 U166 2.420 . S
O185 C170 1.202 . S
O186 U166 2.455 . S
O186 C183 1.301 . S
O187 U166 2.449 . S
O187 C183 1.282 . S
H188 C161 0.931 . S
H189 C163 0.929 . S
H190 C164 0.930 . S
H191 C165 0.931 . S
H192 C172 0.932 . S
H193 C173 0.930 . S
H194 C174 0.929 . S
H195 C176 0.930 . S
H196 C178 0.932 . S
H197 C179 0.929 . S
H198 C180 0.928 . S
H199 C182 0.932 . S
C200 C201 1.264 . S
C200 C205 1.479 . S
C200 C210 1.465 . S
C201 C200 1.264 . S
C201 C203 1.339 . S
C201 H228 0.931 . S
C202 C203 1.395 . S
C202 C204 1.320 . S
C203 C201 1.339 . S
C203 C202 1.395 . S
C203 H229 0.929 . S
C204 C202 1.320 . S
C204 C205 1.405 . S
C204 H230 0.930 . S
C205 C200 1.479 . S
C205 C204 1.405 . S
C205 H231 0.931 . S
U206 O207 2.454 . S
U206 O208 2.458 . S
U206 C209 2.984 . S
U206 C210 2.847 . S
U206 C223 2.882 . S
U206 O224 2.441 . S
U206 O225 2.420 . S
U206 O226 2.455 . S
U206 O227 2.449 . S
O207 U206 2.454 . S
O207 C209 1.353 . S
O208 U206 2.458 . S
O208 C209 1.286 . S
C209 U206 2.984 . S
C209 O207 1.353 . S
C209 O208 1.286 . S
C209 C211 1.363 . S
C210 C200 1.465 . S
C210 U206 2.847 . S
C210 O224 1.249 . S
C210 O225 1.202 . S
C211 C209 1.363 . S
C211 C213 1.408 . S
C211 C216 1.342 . S
C212 C213 1.310 . S
C212 C215 1.461 . S
C212 H232 0.932 . S
C213 C211 1.408 . S
C213 C212 1.310 . S
C213 H233 0.930 . S
C214 C215 1.474 . S
C214 C216 1.285 . S
C214 H234 0.929 . S
C215 C212 1.461 . S
C215 C214 1.474 . S
C216 C211 1.342 . S
C216 C214 1.285 . S
C216 H235 0.930 . S
C217 C220 1.424 . S
C217 C222 1.245 . S
C217 C223 1.428 . S
C218 C221 1.260 . S
C218 C222 1.477 . S
C218 H236 0.932 . S
C219 C220 1.384 . S
C219 C221 1.479 . S
C219 H237 0.929 . S
C220 C217 1.424 . S
C220 C219 1.384 . S
C220 H238 0.928 . S
C221 C218 1.260 . S
C221 C219 1.479 . S
C222 C217 1.245 . S
C222 C218 1.477 . S
C222 H239 0.932 . S
C223 U206 2.882 . S
C223 C217 1.428 . S
C223 O226 1.301 . S
C223 O227 1.282 . S
O224 U206 2.441 . S
O224 C210 1.249 . S
O225 U206 2.420 . S
O225 C210 1.202 . S
O226 U206 2.455 . S
O226 C223 1.301 . S
O227 U206 2.449 . S
O227 C223 1.282 . S
H228 C201 0.931 . S
H229 C203 0.929 . S
H230 C204 0.930 . S
H231 C205 0.931 . S
H232 C212 0.932 . S
H233 C213 0.930 . S
H234 C214 0.929 . S
H235 C216 0.930 . S
H236 C218 0.932 . S
H237 C219 0.929 . S
H238 C220 0.928 . S
H239 C222 0.932 . S
C240 C241 1.264 . S
C240 C245 1.479 . S
C240 C250 1.465 . S
C241 C240 1.264 . S
C241 C243 1.339 . S
C241 H268 0.931 . S
C242 C243 1.395 . S
C242 C244 1.320 . S
C243 C241 1.339 . S
C243 C242 1.395 . S
C243 H269 0.929 . S
C244 C242 1.320 . S
C244 C245 1.405 . S
C244 H270 0.930 . S
C245 C240 1.479 . S
C245 C244 1.405 . S
C245 H271 0.931 . S
U246 O247 2.454 . S
U246 O248 2.458 . S
U246 C249 2.984 . S
U246 C250 2.847 . S
U246 C263 2.882 . S
U246 O264 2.441 . S
U246 O265 2.420 . S
U246 O266 2.455 . S
U246 O267 2.449 . S
O247 U246 2.454 . S
O247 C249 1.353 . S
O248 U246 2.458 . S
O248 C249 1.286 . S
C249 U246 2.984 . S
C249 O247 1.353 . S
C249 O248 1.286 . S
C249 C251 1.363 . S
C250 C240 1.465 . S
C250 U246 2.847 . S
C250 O264 1.249 . S
C250 O265 1.202 . S
C251 C249 1.363 . S
C251 C253 1.408 . S
C251 C256 1.342 . S
C252 C253 1.310 . S
C252 C255 1.461 . S
C252 H272 0.932 . S
C253 C251 1.408 . S
C253 C252 1.310 . S
C253 H273 0.930 . S
C254 C255 1.474 . S
C254 C256 1.285 . S
C254 H274 0.929 . S
C255 C252 1.461 . S
C255 C254 1.474 . S
C256 C251 1.342 . S
C256 C254 1.285 . S
C256 H275 0.930 . S
C257 C260 1.424 . S
C257 C262 1.245 . S
C257 C263 1.428 . S
C258 C261 1.260 . S
C258 C262 1.477 . S
C258 H276 0.932 . S
C259 C260 1.384 . S
C259 C261 1.479 . S
C259 H277 0.929 . S
C260 C257 1.424 . S
C260 C259 1.384 . S
C260 H278 0.928 . S
C261 C258 1.260 . S
C261 C259 1.479 . S
C262 C257 1.245 . S
C262 C258 1.477 . S
C262 H279 0.932 . S
C263 U246 2.882 . S
C263 C257 1.428 . S
C263 O266 1.301 . S
C263 O267 1.282 . S
O264 U246 2.441 . S
O264 C250 1.249 . S
O265 U246 2.420 . S
O265 C250 1.202 . S
O266 U246 2.455 . S
O266 C263 1.301 . S
O267 U246 2.449 . S
O267 C263 1.282 . S
H268 C241 0.931 . S
H269 C243 0.929 . S
H270 C244 0.930 . S
H271 C245 0.931 . S
H272 C252 0.932 . S
H273 C253 0.930 . S
H274 C254 0.929 . S
H275 C256 0.930 . S
H276 C258 0.932 . S
H277 C259 0.929 . S
H278 C260 0.928 . S
H279 C262 0.932 . S
C280 C281 1.264 . S
C280 C285 1.479 . S
C280 C290 1.465 . S
C281 C280 1.264 . S
C281 C283 1.339 . S
C281 H308 0.931 . S
C282 C283 1.395 . S
C282 C284 1.320 . S
C283 C281 1.339 . S
C283 C282 1.395 . S
C283 H309 0.929 . S
C284 C282 1.320 . S
C284 C285 1.405 . S
C284 H310 0.930 . S
C285 C280 1.479 . S
C285 C284 1.405 . S
C285 H311 0.931 . S
U286 O287 2.454 . S
U286 O288 2.458 . S
U286 C289 2.984 . S
U286 C290 2.847 . S
U286 C303 2.882 . S
U286 O304 2.441 . S
U286 O305 2.420 . S
U286 O306 2.455 . S
U286 O307 2.449 . S
O287 U286 2.454 . S
O287 C289 1.353 . S
O288 U286 2.458 . S
O288 C289 1.286 . S
C289 U286 2.984 . S
C289 O287 1.353 . S
C289 O288 1.286 . S
C289 C291 1.363 . S
C290 C280 1.465 . S
C290 U286 2.847 . S
C290 O304 1.249 . S
C290 O305 1.202 . S
C291 C289 1.363 . S
C291 C293 1.408 . S
C291 C296 1.342 . S
C292 C293 1.310 . S
C292 C295 1.461 . S
C292 H312 0.932 . S
C293 C291 1.408 . S
C293 C292 1.310 . S
C293 H313 0.930 . S
C294 C295 1.474 . S
C294 C296 1.285 . S
C294 H314 0.929 . S
C295 C292 1.461 . S
C295 C294 1.474 . S
C296 C291 1.342 . S
C296 C294 1.285 . S
C296 H315 0.930 . S
C297 C300 1.424 . S
C297 C302 1.245 . S
C297 C303 1.428 . S
C298 C301 1.260 . S
C298 C302 1.477 . S
C298 H316 0.932 . S
C299 C300 1.384 . S
C299 C301 1.479 . S
C299 H317 0.929 . S
C300 C297 1.424 . S
C300 C299 1.384 . S
C300 H318 0.928 . S
C301 C298 1.260 . S
C301 C299 1.479 . S
C302 C297 1.245 . S
C302 C298 1.477 . S
C302 H319 0.932 . S
C303 U286 2.882 . S
C303 C297 1.428 . S
C303 O306 1.301 . S
C303 O307 1.282 . S
O304 U286 2.441 . S
O304 C290 1.249 . S
O305 U286 2.420 . S
O305 C290 1.202 . S
O306 U286 2.455 . S
O306 C303 1.301 . S
O307 U286 2.449 . S
O307 C303 1.282 . S
H308 C281 0.931 . S
H309 C283 0.929 . S
H310 C284 0.930 . S
H311 C285 0.931 . S
H312 C292 0.932 . S
H313 C293 0.930 . S
H314 C294 0.929 . S
H315 C296 0.930 . S
H316 C298 0.932 . S
H317 C299 0.929 . S
H318 C300 0.928 . S
H319 C302 0.932 . S
Zn320 O326 1.969 1_545 S
Zn320 O327 1.965 1_545 S
Zn320 O331 2.024 . S
Zn320 O336 1.969 . S
Zn321 O328 1.969 . S
Zn321 O334 1.969 1_565 S
Zn321 O335 1.965 1_665 S
Zn321 O337 2.024 . S
C322 O323 1.229 . S
C322 O331 1.058 . S
O323 C322 1.229 . S
C324 O325 1.229 . S
C324 O337 1.058 . S
O325 C324 1.229 . S
O326 Zn320 1.969 1_565 S
O326 C329 1.267 . S
O327 Zn320 1.965 1_565 S
O327 C338 1.260 1_455 S
O328 Zn321 1.969 . S
O328 C338 1.258 . S
C329 O326 1.267 . S
C329 O330 1.228 . S
O330 C329 1.228 . S
O331 Zn320 2.024 . S
O331 C322 1.058 . S
C332 O333 1.228 . S
C332 O334 1.267 . S
O333 C332 1.228 . S
O334 Zn321 1.969 1_545 S
O334 C332 1.267 . S
O335 Zn321 1.965 1_445 S
O335 C339 1.260 . S
O336 Zn320 1.969 . S
O336 C339 1.258 . S
O337 Zn321 2.024 . S
O337 C324 1.058 . S
C338 O327 1.260 1_655 S
C338 O328 1.258 . S
C339 O335 1.260 . S
C339 O336 1.258 . S
Zn340 O346 1.969 . S
Zn340 O347 1.965 1_565 S
Zn340 O351 2.024 . S
Zn340 O356 1.969 1_556 S
Zn341 O348 1.969 . S
Zn341 O354 1.969 . S
Zn341 O355 1.965 1_545 S
Zn341 O357 2.024 . S
C342 O343 1.229 . S
C342 O351 1.058 . S
O343 C342 1.229 . S
C344 O345 1.229 . S
C344 O357 1.058 . S
O345 C344 1.229 . S
O346 Zn340 1.969 . S
O346 C349 1.267 . S
O347 Zn340 1.965 1_545 S
O347 C358 1.260 . S
O348 Zn341 1.969 . S
O348 C358 1.258 1_554 S
C349 O346 1.267 . S
C349 O350 1.228 . S
O350 C349 1.228 . S
O351 Zn340 2.024 . S
O351 C342 1.058 . S
C352 O353 1.228 . S
C352 O354 1.267 . S
O353 C352 1.228 . S
O354 Zn341 1.969 . S
O354 C352 1.267 . S
O355 Zn341 1.965 1_565 S
O355 C359 1.260 . S
O356 Zn340 1.969 1_554 S
O356 C359 1.258 . S
O357 Zn341 2.024 . S
O357 C344 1.058 . S
C358 O347 1.260 . S
C358 O348 1.258 1_556 S
C359 O355 1.260 . S
C359 O356 1.258 . S
Zn360 O366 1.969 . S
Zn360 O367 1.965 . S
Zn360 O371 2.024 . S
Zn360 O376 1.969 . S
Zn361 O368 1.969 . S
Zn361 O374 1.969 . S
Zn361 O375 1.965 . S
Zn361 O377 2.024 . S
C362 O363 1.229 . S
C362 O371 1.058 . S
O363 C362 1.229 . S
C364 O365 1.229 . S
C364 O377 1.058 . S
O365 C364 1.229 . S
O366 Zn360 1.969 . S
O366 C369 1.267 . S
O367 Zn360 1.965 . S
O367 C378 1.260 . S
O368 Zn361 1.969 . S
O368 C378 1.258 . S
C369 O366 1.267 . S
C369 O370 1.228 . S
O370 C369 1.228 . S
O371 Zn360 2.024 . S
O371 C362 1.058 . S
C372 O373 1.228 . S
C372 O374 1.267 . S
O373 C372 1.228 . S
O374 Zn361 1.969 . S
O374 C372 1.267 . S
O375 Zn361 1.965 . S
O375 C379 1.260 . S
O376 Zn360 1.969 . S
O376 C379 1.258 . S
O377 Zn361 2.024 . S
O377 C364 1.058 . S
C378 O367 1.260 . S
C378 O368 1.258 . S
C379 O375 1.260 . S
C379 O376 1.258 . S
Zn380 O386 1.969 . S
Zn380 O387 1.965 1_556 S
Zn380 O391 2.024 . S
Zn380 O396 1.969 1_655 S
Zn381 O388 1.969 . S
Zn381 O394 1.969 . S
Zn381 O395 1.965 1_554 S
Zn381 O397 2.024 . S
C382 O383 1.229 . S
C382 O391 1.058 . S
O383 C382 1.229 . S
C384 O385 1.229 . S
C384 O397 1.058 . S
O385 C384 1.229 . S
O386 Zn380 1.969 . S
O386 C389 1.267 . S
O387 Zn380 1.965 1_554 S
O387 C398 1.260 . S
O388 Zn381 1.969 . S
O388 C398 1.258 1_455 S
C389 O386 1.267 . S
C389 O390 1.228 . S
O390 C389 1.228 . S
O391 Zn380 2.024 . S
O391 C382 1.058 . S
C392 O393 1.228 . S
C392 O394 1.267 . S
O393 C392 1.228 . S
O394 Zn381 1.969 . S
O394 C392 1.267 . S
O395 Zn381 1.965 1_556 S
O395 C399 1.260 . S
O396 Zn380 1.969 1_455 S
O396 C399 1.258 . S
O397 Zn381 2.024 . S
O397 C384 1.058 . S
C398 O387 1.260 . S
C398 O388 1.258 1_655 S
C399 O395 1.260 . S
C399 O396 1.258 . S
C400 C401 1.170 . S
C400 C402 1.380 . S
C401 C400 1.170 . S
C402 C400 1.380 . S
C402 C403 1.170 . S
C403 C402 1.170 . S
C404 C405 1.170 . S
C404 C406 1.380 . S
C405 C404 1.170 . S
C406 C404 1.380 . S
C406 C407 1.170 . S
C407 C406 1.170 . S
C408 C409 1.170 . S
C408 C410 1.380 . S
C409 C408 1.170 . S
C410 C408 1.380 . S
C410 C411 1.170 . S
C411 C410 1.170 . S
C412 C413 1.170 . S
C412 C414 1.380 . S
C413 C412 1.170 . S
C414 C412 1.380 . S
C414 C415 1.170 . S
C415 C414 1.170 . S
C416 C417 1.170 . S
C416 C418 1.380 . S
C417 C416 1.170 . S
C418 C416 1.380 . S
C418 C419 1.170 . S
C419 C418 1.170 . S
C420 C421 1.170 . S
C420 C422 1.380 . S
C421 C420 1.170 . S
C422 C420 1.380 . S
C422 C423 1.170 . S
C423 C422 1.170 . S
C424 C425 1.170 . S
C424 C426 1.380 . S
C425 C424 1.170 . S
C426 C424 1.380 . S
C426 C427 1.170 . S
C427 C426 1.170 . S
C428 C429 1.170 . S
C428 C430 1.380 . S
C429 C428 1.170 . S
C430 C428 1.380 . S
C430 C431 1.170 . S
C431 C430 1.170 . S
C432 C433 1.170 . S
C432 C434 1.380 . S
C433 C432 1.170 . S
C434 C432 1.380 . S
C434 C435 1.170 . S
C435 C434 1.170 . S
C436 C437 1.170 . S
C436 C438 1.380 . S
C437 C436 1.170 . S
C438 C436 1.380 . S
C438 C439 1.170 . S
C439 C438 1.170 . S
C440 C441 1.170 . S
C440 C442 1.380 . S
C441 C440 1.170 . S
C442 C440 1.380 . S
C442 C443 1.170 . S
C443 C442 1.170 . S
C444 C445 1.170 . S
C444 C446 1.380 . S
C445 C444 1.170 . S
C446 C444 1.380 . S
C446 C447 1.170 . S
C447 C446 1.170 . S
C448 C449 1.170 . S
C448 C450 1.380 . S
C449 C448 1.170 . S
C450 C448 1.380 . S
C450 C451 1.170 . S
C451 C450 1.170 . S
C452 C453 1.170 . S
C452 C454 1.380 . S
C453 C452 1.170 . S
C454 C452 1.380 . S
C454 C455 1.170 . S
C455 C454 1.170 . S
C456 C457 1.170 . S
C456 C458 1.380 . S
C457 C456 1.170 . S
C458 C456 1.380 . S
C458 C459 1.170 . S
C459 C458 1.170 . S
C460 C461 1.170 . S
C460 C462 1.380 . S
C461 C460 1.170 . S
C462 C460 1.380 . S
C462 C463 1.170 . S
C463 C462 1.170 . S
C464 C465 1.170 . S
C464 C466 1.380 . S
C465 C464 1.170 . S
C466 C464 1.380 . S
C466 C467 1.170 . S
C467 C466 1.170 . S
C468 C469 1.170 . S
C468 C470 1.380 . S
C469 C468 1.170 . S
C470 C468 1.380 . S
C470 C471 1.170 . S
C471 C470 1.170 . S
C472 C473 1.170 . S
C472 C474 1.380 . S
C473 C472 1.170 . S
C474 C472 1.380 . S
C474 C475 1.170 . S
C475 C474 1.170 . S
C476 C477 1.170 . S
C476 C478 1.380 . S
C477 C476 1.170 . S
C478 C476 1.380 . S
C478 C479 1.170 . S
C479 C478 1.170 . S
C480 C481 1.170 . S
C480 C482 1.380 . S
C481 C480 1.170 . S
C482 C480 1.380 . S
C482 C483 1.170 . S
C483 C482 1.170 . S
C484 C485 1.170 . S
C484 C486 1.380 . S
C485 C484 1.170 . S
C486 C484 1.380 . S
C486 C487 1.170 . S
C487 C486 1.170 . S
C488 C489 1.170 . S
C488 C490 1.380 . S
C489 C488 1.170 . S
C490 C488 1.380 . S
C490 C491 1.170 . S
C491 C490 1.170 . S
C492 C493 1.170 . S
C492 C494 1.380 . S
C493 C492 1.170 . S
C494 C492 1.380 . S
C494 C495 1.170 . S
C495 C494 1.170 . S
C401 C21 1.542 . S
C403 C339 1.534 . S
C405 C61 1.320 . S
C407 C342 1.299 . S
C411 C378 1.729 . S
C409 C82 1.698 . S
C413 C135 1.695 . S
C415 C398 1.673 . S
C419 C352 1.681 . S
C417 C15 1.728 . S
C423 C329 1.509 . S
C421 C42 1.541 . S
C427 C382 1.581 . S
C425 C101 1.672 . S
C431 C362 1.375 . S
C429 C122 1.481 . S
C433 C2 1.360 . S
C435 C392 1.362 . S
C439 C358 1.576 . S
C437 C95 1.594 . S
C441 C141 1.648 . S
C443 C324 1.647 . S
C445 C55 1.332 . S
C447 C372 1.289 . S
C451 C338 1.565 . S
C449 C181 1.619 . S
C453 C202 1.313 . S
C455 C344 1.296 . S
C457 C255 1.756 . S
C459 C379 1.743 . S
C461 C295 1.688 . S
C463 C399 1.681 . S
C465 C175 1.726 . S
C467 C349 1.663 . S
C471 C332 1.520 . S
C469 C221 1.540 . S
C475 C384 1.532 . S
C473 C242 1.673 . S
C479 C364 1.473 . S
C477 C301 1.477 . S
C481 C162 1.420 . S
C483 C389 1.323 . S
C487 C359 1.632 . S
C485 C261 1.641 . S
C491 C322 1.611 . S
C489 C282 1.651 . S
C493 C215 1.361 . S
C495 C369 1.343 . S
