# Generated by pormake.
# Topology cor, (4,6)-cn, num edge types: 1
# Building blocks:
#     Node 0, Type 0, BuildingBlock: QUQFOY_clean_sbu_3, # of connection points: 4
#     Node 1, Type 0, BuildingBlock: QUQFOY_clean_sbu_3, # of connection points: 4
#     Node 2, Type 0, BuildingBlock: QUQFOY_clean_sbu_3, # of connection points: 4
#     Node 3, Type 0, BuildingBlock: QUQFOY_clean_sbu_3, # of connection points: 4
#     Node 4, Type 0, BuildingBlock: QUQFOY_clean_sbu_3, # of connection points: 4
#     Node 5, Type 0, BuildingBlock: QUQFOY_clean_sbu_3, # of connection points: 4
#     Node 6, Type 0, BuildingBlock: QUQFOY_clean_sbu_3, # of connection points: 4
#     Node 7, Type 0, BuildingBlock: QUQFOY_clean_sbu_3, # of connection points: 4
#     Node 8, Type 0, BuildingBlock: QUQFOY_clean_sbu_3, # of connection points: 4
#     Node 9, Type 0, BuildingBlock: QUQFOY_clean_sbu_3, # of connection points: 4
#     Node 10, Type 0, BuildingBlock: QUQFOY_clean_sbu_3, # of connection points: 4
#     Node 11, Type 0, BuildingBlock: QUQFOY_clean_sbu_3, # of connection points: 4
#     Node 12, Type 0, BuildingBlock: QUQFOY_clean_sbu_3, # of connection points: 4
#     Node 13, Type 0, BuildingBlock: QUQFOY_clean_sbu_3, # of connection points: 4
#     Node 14, Type 0, BuildingBlock: QUQFOY_clean_sbu_3, # of connection points: 4
#     Node 15, Type 0, BuildingBlock: QUQFOY_clean_sbu_3, # of connection points: 4
#     Node 16, Type 0, BuildingBlock: QUQFOY_clean_sbu_3, # of connection points: 4
#     Node 17, Type 0, BuildingBlock: QUQFOY_clean_sbu_3, # of connection points: 4
#     Node 18, Type 1, BuildingBlock: MIDCAF_clean_sbu_0, # of connection points: 6
#     Node 19, Type 1, BuildingBlock: MIDCAF_clean_sbu_0, # of connection points: 6
#     Node 20, Type 1, BuildingBlock: MIDCAF_clean_sbu_0, # of connection points: 6
#     Node 21, Type 1, BuildingBlock: MIDCAF_clean_sbu_0, # of connection points: 6
#     Node 22, Type 1, BuildingBlock: MIDCAF_clean_sbu_0, # of connection points: 6
#     Node 23, Type 1, BuildingBlock: MIDCAF_clean_sbu_0, # of connection points: 6
#     Node 24, Type 1, BuildingBlock: MIDCAF_clean_sbu_0, # of connection points: 6
#     Node 25, Type 1, BuildingBlock: MIDCAF_clean_sbu_0, # of connection points: 6
#     Node 26, Type 1, BuildingBlock: MIDCAF_clean_sbu_0, # of connection points: 6
#     Node 27, Type 1, BuildingBlock: MIDCAF_clean_sbu_0, # of connection points: 6
#     Node 28, Type 1, BuildingBlock: MIDCAF_clean_sbu_0, # of connection points: 6
#     Node 29, Type 1, BuildingBlock: MIDCAF_clean_sbu_0, # of connection points: 6
#     Edge 30, Type (0, 1), BuildingBlock: AJUNOK_clean_linker_0, # of connection points: 2
#     Edge 31, Type (0, 1), BuildingBlock: AJUNOK_clean_linker_0, # of connection points: 2
#     Edge 32, Type (0, 1), BuildingBlock: AJUNOK_clean_linker_0, # of connection points: 2
#     Edge 33, Type (0, 1), BuildingBlock: AJUNOK_clean_linker_0, # of connection points: 2
#     Edge 34, Type (0, 1), BuildingBlock: AJUNOK_clean_linker_0, # of connection points: 2
#     Edge 35, Type (0, 1), BuildingBlock: AJUNOK_clean_linker_0, # of connection points: 2
#     Edge 36, Type (0, 1), BuildingBlock: AJUNOK_clean_linker_0, # of connection points: 2
#     Edge 37, Type (0, 1), BuildingBlock: AJUNOK_clean_linker_0, # of connection points: 2
#     Edge 38, Type (0, 1), BuildingBlock: AJUNOK_clean_linker_0, # of connection points: 2
#     Edge 39, Type (0, 1), BuildingBlock: AJUNOK_clean_linker_0, # of connection points: 2
#     Edge 40, Type (0, 1), BuildingBlock: AJUNOK_clean_linker_0, # of connection points: 2
#     Edge 41, Type (0, 1), BuildingBlock: AJUNOK_clean_linker_0, # of connection points: 2
#     Edge 42, Type (0, 1), BuildingBlock: AJUNOK_clean_linker_0, # of connection points: 2
#     Edge 43, Type (0, 1), BuildingBlock: AJUNOK_clean_linker_0, # of connection points: 2
#     Edge 44, Type (0, 1), BuildingBlock: AJUNOK_clean_linker_0, # of connection points: 2
#     Edge 45, Type (0, 1), BuildingBlock: AJUNOK_clean_linker_0, # of connection points: 2
#     Edge 46, Type (0, 1), BuildingBlock: AJUNOK_clean_linker_0, # of connection points: 2
#     Edge 47, Type (0, 1), BuildingBlock: AJUNOK_clean_linker_0, # of connection points: 2
#     Edge 48, Type (0, 1), BuildingBlock: AJUNOK_clean_linker_0, # of connection points: 2
#     Edge 49, Type (0, 1), BuildingBlock: AJUNOK_clean_linker_0, # of connection points: 2
#     Edge 50, Type (0, 1), BuildingBlock: AJUNOK_clean_linker_0, # of connection points: 2
#     Edge 51, Type (0, 1), BuildingBlock: AJUNOK_clean_linker_0, # of connection points: 2
#     Edge 52, Type (0, 1), BuildingBlock: AJUNOK_clean_linker_0, # of connection points: 2
#     Edge 53, Type (0, 1), BuildingBlock: AJUNOK_clean_linker_0, # of connection points: 2
#     Edge 54, Type (0, 1), BuildingBlock: AJUNOK_clean_linker_0, # of connection points: 2
#     Edge 55, Type (0, 1), BuildingBlock: AJUNOK_clean_linker_0, # of connection points: 2
#     Edge 56, Type (0, 1), BuildingBlock: AJUNOK_clean_linker_0, # of connection points: 2
#     Edge 57, Type (0, 1), BuildingBlock: AJUNOK_clean_linker_0, # of connection points: 2
#     Edge 58, Type (0, 1), BuildingBlock: AJUNOK_clean_linker_0, # of connection points: 2
#     Edge 59, Type (0, 1), BuildingBlock: AJUNOK_clean_linker_0, # of connection points: 2
#     Edge 60, Type (0, 1), BuildingBlock: AJUNOK_clean_linker_0, # of connection points: 2
#     Edge 61, Type (0, 1), BuildingBlock: AJUNOK_clean_linker_0, # of connection points: 2
#     Edge 62, Type (0, 1), BuildingBlock: AJUNOK_clean_linker_0, # of connection points: 2
#     Edge 63, Type (0, 1), BuildingBlock: AJUNOK_clean_linker_0, # of connection points: 2
#     Edge 64, Type (0, 1), BuildingBlock: AJUNOK_clean_linker_0, # of connection points: 2
#     Edge 65, Type (0, 1), BuildingBlock: AJUNOK_clean_linker_0, # of connection points: 2
#     Edge 66, Type (0, 1), BuildingBlock: AJUNOK_clean_linker_0, # of connection points: 2
#     Edge 67, Type (0, 1), BuildingBlock: AJUNOK_clean_linker_0, # of connection points: 2
#     Edge 68, Type (0, 1), BuildingBlock: AJUNOK_clean_linker_0, # of connection points: 2
#     Edge 69, Type (0, 1), BuildingBlock: AJUNOK_clean_linker_0, # of connection points: 2
#     Edge 70, Type (0, 1), BuildingBlock: AJUNOK_clean_linker_0, # of connection points: 2
#     Edge 71, Type (0, 1), BuildingBlock: AJUNOK_clean_linker_0, # of connection points: 2
#     Edge 72, Type (0, 1), BuildingBlock: AJUNOK_clean_linker_0, # of connection points: 2
#     Edge 73, Type (0, 1), BuildingBlock: AJUNOK_clean_linker_0, # of connection points: 2
#     Edge 74, Type (0, 1), BuildingBlock: AJUNOK_clean_linker_0, # of connection points: 2
#     Edge 75, Type (0, 1), BuildingBlock: AJUNOK_clean_linker_0, # of connection points: 2
#     Edge 76, Type (0, 1), BuildingBlock: AJUNOK_clean_linker_0, # of connection points: 2
#     Edge 77, Type (0, 1), BuildingBlock: AJUNOK_clean_linker_0, # of connection points: 2
#     Edge 78, Type (0, 1), BuildingBlock: AJUNOK_clean_linker_0, # of connection points: 2
#     Edge 79, Type (0, 1), BuildingBlock: AJUNOK_clean_linker_0, # of connection points: 2
#     Edge 80, Type (0, 1), BuildingBlock: AJUNOK_clean_linker_0, # of connection points: 2
#     Edge 81, Type (0, 1), BuildingBlock: AJUNOK_clean_linker_0, # of connection points: 2
#     Edge 82, Type (0, 1), BuildingBlock: AJUNOK_clean_linker_0, # of connection points: 2
#     Edge 83, Type (0, 1), BuildingBlock: AJUNOK_clean_linker_0, # of connection points: 2
#     Edge 84, Type (0, 1), BuildingBlock: AJUNOK_clean_linker_0, # of connection points: 2
#     Edge 85, Type (0, 1), BuildingBlock: AJUNOK_clean_linker_0, # of connection points: 2
#     Edge 86, Type (0, 1), BuildingBlock: AJUNOK_clean_linker_0, # of connection points: 2
#     Edge 87, Type (0, 1), BuildingBlock: AJUNOK_clean_linker_0, # of connection points: 2
#     Edge 88, Type (0, 1), BuildingBlock: AJUNOK_clean_linker_0, # of connection points: 2
#     Edge 89, Type (0, 1), BuildingBlock: AJUNOK_clean_linker_0, # of connection points: 2
#     Edge 90, Type (0, 1), BuildingBlock: AJUNOK_clean_linker_0, # of connection points: 2
#     Edge 91, Type (0, 1), BuildingBlock: AJUNOK_clean_linker_0, # of connection points: 2
#     Edge 92, Type (0, 1), BuildingBlock: AJUNOK_clean_linker_0, # of connection points: 2
#     Edge 93, Type (0, 1), BuildingBlock: AJUNOK_clean_linker_0, # of connection points: 2
#     Edge 94, Type (0, 1), BuildingBlock: AJUNOK_clean_linker_0, # of connection points: 2
#     Edge 95, Type (0, 1), BuildingBlock: AJUNOK_clean_linker_0, # of connection points: 2
#     Edge 96, Type (0, 1), BuildingBlock: AJUNOK_clean_linker_0, # of connection points: 2
#     Edge 97, Type (0, 1), BuildingBlock: AJUNOK_clean_linker_0, # of connection points: 2
#     Edge 98, Type (0, 1), BuildingBlock: AJUNOK_clean_linker_0, # of connection points: 2
#     Edge 99, Type (0, 1), BuildingBlock: AJUNOK_clean_linker_0, # of connection points: 2
#     Edge 100, Type (0, 1), BuildingBlock: AJUNOK_clean_linker_0, # of connection points: 2
#     Edge 101, Type (0, 1), BuildingBlock: AJUNOK_clean_linker_0, # of connection points: 2
# Relax obj value: 0.108
# Max RMSD: 0.161
# Mean RMSD: 0.108
data_MOF--net-cor--node1-QUQFOY_clean_sbu_3--node2-MIDCAF_clean_sbu_0--edge1-AJUNOK_clean_linker_0
_symmetry_space_group_name_H-M    P1
_symmetry_Int_Tables_number       1
_symmetry_cell_setting            triclinic
loop_
_symmetry_equiv_pos_as_xyz
'x, y, z'
_cell_length_a     29.520398
_cell_length_b     29.443786
_cell_length_c     73.505067
_cell_angle_alpha  90.151431
_cell_angle_beta   89.611736
_cell_angle_gamma 120.33229
loop_
_atom_site_label
_atom_site_type_symbol
_atom_site_fract_x
_atom_site_fract_y
_atom_site_fract_z
_atom_type_partial_charge
C0 C 0.64364 0.86022 0.26939 0.0
O1 O 0.67319 0.84904 0.26017 0.0
Cd2 Cd 0.7579 0.92 0.25162 0.0
O3 O 0.65431 0.90774 0.27069 0.0
Cd4 Cd 0.71848 -0.00298 0.25984 0.0
C5 C 0.78575 0.98252 0.29339 0.0
O6 O 0.75526 0.984 0.23173 0.0
O7 O 0.80246 0.05755 0.24591 0.0
O8 O 0.65667 0.01443 0.24357 0.0
C9 C 0.79504 0.03032 0.23165 0.0
O10 O 0.79023 0.95203 0.28215 0.0
C11 C 0.66351 0.05177 0.25399 0.0
O12 O 0.76235 0.00719 0.28899 0.0
O13 O 0.69407 0.06198 0.26742 0.0
C14 C 0.90256 0.61474 0.2613 0.0
O15 O 0.87449 0.62883 0.27004 0.0
Cd16 Cd 0.90225 0.71322 0.28258 0.0
O17 O 0.95204 0.64503 0.26006 0.0
Cd18 Cd 0.01318 0.73576 0.27139 0.0
C19 C 0.95177 0.77581 0.24191 0.0
O20 O 0.97699 0.73841 0.30134 0.0
O21 O 0.03531 0.81277 0.28967 0.0
O22 O 0.06911 0.7068 0.28387 0.0
C23 C 0.00846 0.78734 0.30345 0.0
O24 O 0.91739 0.76209 0.25447 0.0
C25 C 0.11101 0.74144 0.27617 0.0
O26 O -0.00853 0.77007 0.24405 0.0
O27 O 0.1069 0.77146 0.2647 0.0
C28 C 0.23152 0.3686 0.26637 0.0
O29 O 0.19062 0.33792 0.25746 0.0
Cd30 Cd 0.17402 0.25161 0.25081 0.0
O31 O 0.26766 0.35758 0.26862 0.0
Cd32 Cd 0.29125 0.29068 0.2602 0.0
C33 C 0.20497 0.22846 0.29395 0.0
O34 O 0.24287 0.25457 0.23206 0.0
O35 O 0.26496 0.20516 0.24657 0.0
O36 O 0.37471 0.35122 0.24522 0.0
C37 C 0.24671 0.21348 0.23218 0.0
O38 O 0.17094 0.22283 0.28222 0.0
C39 C 0.40221 0.34163 0.25603 0.0
O40 O 0.25347 0.25114 0.28975 0.0
O41 O 0.37832 0.31023 0.26911 0.0
C42 C 0.39384 0.11057 0.73527 0.0
O43 O 0.369 0.13515 0.73383 0.0
Cd44 Cd 0.2866 0.10687 0.74864 0.0
O45 O 0.37478 0.06859 0.74473 0.0
Cd46 Cd 0.29324 0.01314 0.76292 0.0
C47 C 0.20917 -0.01047 0.72756 0.0
O48 O 0.29378 0.08708 0.78018 0.0
O49 O 0.23195 0.0076 0.78591 0.0
O50 O 0.35453 -0.00638 0.77899 0.0
C51 C 0.25472 0.05588 0.78997 0.0
O52 O 0.22219 0.03748 0.72953 0.0
C53 C 0.32011 0.9463 0.7825 0.0
O54 O 0.22924 0.96911 0.7376 0.0
O55 O 0.27437 0.92985 0.77635 0.0
C56 C 0.91457 0.29408 0.74711 0.0
O57 O 0.88693 0.2442 0.74766 0.0
Cd58 Cd 0.90882 0.18835 0.76403 0.0
O59 O 0.95685 0.31872 0.75614 0.0
Cd60 Cd 0.01107 0.29999 0.77658 0.0
C61 C 0.02795 0.23116 0.74224 0.0
O62 O 0.9357 0.22977 0.79305 0.0
O63 O 0.01267 0.24758 0.80166 0.0
O64 O 0.02121 0.38126 0.78915 0.0
C65 C 0.96342 0.2208 0.80393 0.0
O66 O 0.98012 0.19706 0.74525 0.0
C67 C 0.06848 0.39969 0.79394 0.0
O68 O 0.05127 0.2737 0.75145 0.0
O69 O 0.08974 0.37246 0.79019 0.0
C70 C 0.5972 0.72286 0.79184 0.0
O71 O 0.62427 0.77271 0.79261 0.0
Cd72 Cd 0.70551 0.82454 0.77656 0.0
O73 O 0.61298 0.69708 0.78246 0.0
Cd74 Cd 0.69236 0.71806 0.7646 0.0
C75 C 0.78046 0.78579 0.79862 0.0
O76 O 0.69451 0.78925 0.74587 0.0
O77 O 0.75158 0.76601 0.73955 0.0
O78 O 0.64326 0.63798 0.74607 0.0
C79 C 0.73129 0.79371 0.73557 0.0
O80 O 0.76917 0.82173 0.79649 0.0
C81 C 0.66701 0.61628 0.75292 0.0
O82 O 0.75904 0.74466 0.78881 0.0
O83 O 0.70217 0.64219 0.7646 0.0
C84 C 0.29327 0.22387 0.62775 0.0
O85 O 0.3196 0.20221 0.62343 0.0
Cd86 Cd 0.40674 0.25709 0.61156 0.0
O87 O 0.31077 0.27177 0.62368 0.0
Cd88 Cd 0.38652 0.34357 0.60751 0.0
C89 C 0.45675 0.35389 0.64387 0.0
O90 O 0.41313 0.30285 0.58314 0.0
O91 O 0.4685 0.38355 0.59028 0.0
O92 O 0.32383 0.35536 0.58974 0.0
C93 C 0.45566 0.34534 0.57947 0.0
O94 O 0.45351 0.31212 0.63753 0.0
C95 C 0.33869 0.40082 0.59609 0.0
O96 O 0.43554 0.37618 0.63566 0.0
O97 O 0.37667 0.41968 0.6072 0.0
C98 C 0.53839 0.92666 0.59578 0.0
O99 O 0.5107 0.94166 0.60426 0.0
Cd100 Cd 0.53925 0.03166 0.61097 0.0
O101 O 0.58651 0.9583 0.59239 0.0
Cd102 Cd 0.64923 0.0476 0.60304 0.0
C103 C 0.60148 0.0982 0.57149 0.0
O104 O 0.61209 0.06576 0.63082 0.0
O105 O 0.67585 0.13072 0.61607 0.0
O106 O 0.68596 0.00635 0.62215 0.0
C107 C 0.64626 0.11447 0.62999 0.0
O108 O 0.56395 0.08208 0.58293 0.0
C109 C 0.73214 0.03087 0.61566 0.0
O110 O 0.63929 0.08947 0.57429 0.0
O111 O 0.73992 0.06236 0.60252 0.0
C112 C 0.92712 0.70634 0.61405 0.0
O113 O 0.87844 0.67329 0.61296 0.0
Cd114 Cd 0.84728 0.58736 0.60014 0.0
O115 O 0.96032 0.6959 0.60699 0.0
Cd116 Cd 0.95573 0.61881 0.59091 0.0
C117 C 0.91302 0.55273 0.62972 0.0
O118 O 0.87913 0.58202 0.5703 0.0
O119 O 0.90517 0.52928 0.57932 0.0
O120 O 0.02218 0.68005 0.56904 0.0
C121 C 0.87771 0.53836 0.56836 0.0
O122 O 0.86914 0.54454 0.62379 0.0
C123 C 0.04939 0.65787 0.5701 0.0
O124 O 0.95557 0.58322 0.62133 0.0
O125 O 0.03451 0.62015 0.58129 0.0
C126 C 0.05859 0.47403 0.08683 0.0
O127 O 0.03123 0.49494 0.09066 0.0
Cd128 Cd 0.94552 0.44841 0.10347 0.0
O129 O 0.04228 0.42615 0.09113 0.0
Cd130 Cd 0.96082 0.35294 0.10589 0.0
C131 C 0.89299 0.35729 0.06966 0.0
O132 O 0.94482 0.40148 0.13061 0.0
O133 O 0.88193 0.32352 0.124 0.0
O134 O 0.00135 0.31078 0.12339 0.0
C135 C 0.90099 0.36187 0.13499 0.0
O136 O 0.89658 0.39814 0.07699 0.0
C137 C 0.97361 0.266 0.11596 0.0
O138 O 0.91289 0.33273 0.07722 0.0
O139 O 0.94329 0.26332 0.10334 0.0
C140 C 0.54098 0.58991 0.09084 0.0
O141 O 0.51278 0.54456 0.09776 0.0
Cd142 Cd 0.54278 0.50219 0.11831 0.0
O143 O 0.58911 0.61816 0.09525 0.0
Cd144 Cd 0.65058 0.60421 0.11433 0.0
C145 C 0.63017 0.50004 0.0885 0.0
O146 O 0.59852 0.55777 0.1421 0.0
O147 O 0.66904 0.5555 0.13572 0.0
O148 O 0.69817 0.6915 0.12863 0.0
C149 C 0.63343 0.54742 0.14715 0.0
O150 O 0.58898 0.4744 0.09818 0.0
C151 C 0.74282 0.70298 0.12227 0.0
O152 O 0.65913 0.54972 0.09037 0.0
O153 O 0.74379 0.67035 0.11115 0.0
C154 C 0.31916 0.09216 0.11847 0.0
O155 O 0.35101 0.14137 0.11899 0.0
Cd156 Cd 0.43665 0.18087 0.10613 0.0
O157 O 0.33292 0.06149 0.11115 0.0
Cd158 Cd 0.41553 0.07278 0.09688 0.0
C159 C 0.48523 0.12624 0.13496 0.0
O160 O 0.4251 0.14329 0.07619 0.0
O161 O 0.48991 0.12919 0.07738 0.0
O162 O 0.36189 -0.00856 0.07916 0.0
C163 C 0.46653 0.1488 0.06895 0.0
O164 O 0.48763 0.16811 0.12927 0.0
C165 C 0.39742 0.97913 0.07842 0.0
O166 O 0.4581 0.083 0.12661 0.0
O167 O 0.43885 0.00781 0.08736 0.0
C168 C 0.91569 0.57841 0.96188 0.0
O169 O 0.92278 0.54007 0.95867 0.0
Cd170 Cd -0.01141 0.53977 0.93949 0.0
O171 O 0.94231 0.62186 0.95356 0.0
Cd172 Cd 0.01636 0.65478 0.93186 0.0
C173 C 0.08282 0.6339 0.96574 0.0
O174 O 0.0034 0.5834 0.91054 0.0
O175 O 0.0813 0.65191 0.91339 0.0
O176 O 0.97648 0.6928 0.91261 0.0
C177 C 0.05074 0.60994 0.90494 0.0
O178 O 0.06075 0.58684 0.95991 0.0
C179 C 0.01434 0.73978 0.91402 0.0
O180 O 0.07313 0.66756 0.95854 0.0
O181 O 0.05203 0.74711 0.92428 0.0
C182 C 0.23855 0.30166 0.91007 0.0
O183 O 0.21882 0.3292 0.9152 0.0
Cd184 Cd 0.2668 0.41005 0.93215 0.0
O185 O 0.28517 0.31496 0.91456 0.0
Cd186 Cd 0.3582 0.38777 0.93154 0.0
C187 C 0.36784 0.48011 0.90222 0.0
O188 O 0.31451 0.40344 0.95754 0.0
O189 O 0.39641 0.46056 0.95307 0.0
O190 O 0.37743 0.3279 0.94801 0.0
C191 C 0.35588 0.44436 0.96303 0.0
O192 O 0.3262 0.47299 0.91004 0.0
C193 C 0.42056 0.34274 0.93978 0.0
O194 O 0.38886 0.45311 0.90655 0.0
O195 O 0.43426 0.37814 0.92769 0.0
C196 C 0.65828 0.11071 0.93754 0.0
O197 O 0.61064 0.09885 0.93634 0.0
Cd198 Cd 0.53863 0.02205 0.92319 0.0
O199 O 0.67408 0.08094 0.93116 0.0
Cd200 Cd 0.63186 -0.00575 0.91625 0.0
C201 C 0.54792 0.93973 0.95346 0.0
O202 O 0.57091 0.00354 0.89587 0.0
O203 O 0.56924 0.92937 0.8954 0.0
O204 O 0.71402 0.0283 0.89891 0.0
C205 C 0.55152 0.95753 0.88932 0.0
O206 O 0.52158 0.95971 0.94739 0.0
C207 C 0.72198 -0.0087 0.90344 0.0
O208 O 0.58921 0.94687 0.94513 0.0
O209 O 0.68796 0.95606 0.9139 0.0
C210 C 0.70529 0.80174 0.42398 0.0
O211 O 0.68792 0.83002 0.43044 0.0
Cd212 Cd 0.6118 0.80159 0.44831 0.0
O213 O 0.68235 0.75248 0.42741 0.0
Cd214 Cd 0.5994 0.68946 0.4441 0.0
C215 C 0.53441 0.72428 0.41376 0.0
O216 O 0.61191 0.74406 0.47111 0.0
O217 O 0.53269 0.6816 0.46592 0.0
O218 O 0.6352 0.6371 0.4578 0.0
C219 C 0.56541 0.71562 0.47682 0.0
O220 O 0.54749 0.76324 0.42431 0.0
C221 C 0.59808 0.59237 0.45283 0.0
O222 O 0.5498 0.69158 0.41694 0.0
O223 O 0.5632 0.59281 0.4429 0.0
C224 C 0.19747 0.90625 0.42938 0.0
O225 O 0.17253 0.85928 0.43522 0.0
Cd226 Cd 0.21177 0.80966 0.44451 0.0
O227 O 0.24742 0.93307 0.4299 0.0
Cd228 Cd 0.32104 0.92078 0.43931 0.0
C229 C 0.28212 0.83475 0.40427 0.0
O230 O 0.28427 0.85738 0.46421 0.0
O231 O 0.35066 0.86282 0.44957 0.0
O232 O 0.36387 -0.00116 0.45881 0.0
C233 C 0.3181 0.84299 0.46261 0.0
O234 O 0.24583 0.80379 0.41514 0.0
C235 C 0.40707 0.02113 0.45011 0.0
O236 O 0.31532 0.88187 0.40896 0.0
O237 O 0.40956 -0.0023 0.43588 0.0
C238 C 0.95868 0.43091 0.44582 0.0
O239 O -0.00887 0.47984 0.44477 0.0
Cd240 Cd 0.07978 0.51033 0.4361 0.0
O241 O 0.97296 0.39797 0.4414 0.0
Cd242 Cd 0.05731 0.40411 0.43044 0.0
C243 C 0.11349 0.45565 0.47024 0.0
O244 O 0.08656 0.47358 0.40698 0.0
O245 O 0.14467 0.45667 0.41712 0.0
O246 O 0.00788 0.32347 0.41207 0.0
C247 C 0.13051 0.47628 0.40463 0.0
O248 O 0.118 0.49773 0.46372 0.0
C249 C 0.03945 0.3072 0.41547 0.0
O250 O 0.09066 0.41318 0.46122 0.0
O251 O 0.07597 0.33377 0.42661 0.0
Zn252 Zn 0.00452 0.00019 0.12639 0.0
Zn253 Zn 0.00511 0.01201 0.19225 0.0
Zn254 Zn 0.00535 0.00654 0.16063 0.0
C255 C 0.94583 0.90979 0.18834 0.0
C256 C 0.10593 0.05027 0.1869 0.0
O257 O 0.97683 0.05837 0.1508 0.0
O258 O -0.00279 0.06254 0.12166 0.0
C259 C 0.93001 0.90188 0.1378 0.0
O260 O 0.96624 0.92548 0.17238 0.0
O261 O 0.94703 0.94278 0.19954 0.0
O262 O 0.07419 0.02402 0.19942 0.0
O263 O 0.08802 0.05053 0.17095 0.0
O264 O 0.94315 0.92964 0.12359 0.0
O265 O 0.9526 0.92238 0.15304 0.0
O266 O 0.08766 0.03791 0.15199 0.0
O267 O 0.07398 0.00616 0.12406 0.0
C268 C 0.10457 0.02755 0.13727 0.0
O269 O 0.96092 0.04546 0.16995 0.0
O270 O -0.00708 0.07051 0.19742 0.0
C271 C -0.0178 0.07903 0.13495 0.0
C272 C 0.96209 0.06795 0.18518 0.0
Zn273 Zn 0.01126 0.0142 0.34538 0.0
Zn274 Zn 0.00236 0.01462 0.40528 0.0
Zn275 Zn 0.00619 0.0149 0.37459 0.0
C276 C 0.01789 0.10974 0.394 0.0
C277 C 0.90821 0.93455 0.3936 0.0
O278 O 0.03204 0.95903 0.3667 0.0
O279 O 0.97565 0.93602 0.34442 0.0
C280 C 0.09773 0.09817 0.35314 0.0
O281 O 0.04038 0.09808 0.38129 0.0
O282 O -0.01016 0.07526 0.40563 0.0
O283 O 0.94097 0.94112 0.40576 0.0
O284 O 0.92244 0.96793 0.3805 0.0
O285 O 0.08979 0.05656 0.34538 0.0
O286 O 0.06267 0.09506 0.36441 0.0
O287 O 0.928 -0.01035 0.36304 0.0
O288 O 0.96872 0.04917 0.34188 0.0
C289 C 0.92655 0.0184 0.35013 0.0
O290 O 0.04858 0.97697 0.38491 0.0
O291 O 0.07345 0.02474 0.40983 0.0
C292 C 0.0037 0.92555 0.35442 0.0
C293 C 0.07778 -0.00645 0.39911 0.0
Zn294 Zn 0.00986 0.0077 0.89216 0.0
Zn295 Zn 0.00334 0.00369 0.82707 0.0
Zn296 Zn 0.00698 0.00471 0.86051 0.0
C297 C 0.94234 0.04501 0.83696 0.0
C298 C 0.9595 0.89959 0.83647 0.0
O299 O -0.00872 0.92664 0.87046 0.0
O300 O 0.03814 0.96038 0.89515 0.0
C301 C 0.09307 0.09929 0.88178 0.0
O302 O 0.95734 0.03807 0.85262 0.0
O303 O 0.95479 0.0297 0.82275 0.0
O304 O 0.97581 0.92871 0.82259 0.0
O305 O 0.9694 0.9206 0.85244 0.0
O306 O 0.05858 0.08396 0.89411 0.0
O307 O 0.08612 0.06949 0.86796 0.0
O308 O 0.94541 0.02074 0.87068 0.0
O309 O 0.93405 0.97965 0.89671 0.0
C310 C 0.91726 -0.00146 0.88495 0.0
O311 O 0.08967 0.05325 0.84984 0.0
O312 O 0.07644 0.05133 0.82026 0.0
C313 C 0.01567 0.92237 0.88423 0.0
C314 C 0.10772 0.0659 0.83344 0.0
Zn315 Zn 0.97994 0.98499 0.70265 0.0
Zn316 Zn -0.00615 0.003 0.63768 0.0
Zn317 Zn -0.01689 -0.00446 0.66961 0.0
C318 C -0.01696 0.90889 0.64346 0.0
C319 C 0.08346 0.08399 0.65086 0.0
O320 O 0.03322 0.07627 0.68206 0.0
O321 O 0.025 0.05687 0.7113 0.0
C322 C 0.87722 0.94874 0.69252 0.0
O323 O -0.00519 0.93055 0.65933 0.0
O324 O 0.97336 0.93097 0.63064 0.0
O325 O 0.06914 0.05325 0.63745 0.0
O326 O 0.05177 0.07457 0.66432 0.0
O327 O 0.90529 0.95622 0.70628 0.0
O328 O 0.89853 0.96232 0.67659 0.0
O329 O 0.01716 0.94458 0.67697 0.0
O330 O 0.0073 0.93792 0.70679 0.0
C331 C 0.02565 0.92954 0.69248 0.0
O332 O 0.90771 0.98617 0.65823 0.0
O333 O 0.94502 0.02825 0.63284 0.0
C334 C 0.04316 0.09095 0.69887 0.0
C335 C 0.90608 0.00935 0.64352 0.0
Zn336 Zn 0.65303 0.32847 0.55423 0.0
Zn337 Zn 0.64013 0.33536 0.45808 0.0
Zn338 Zn 0.6451 0.33539 0.49097 0.0
C339 C 0.7452 0.36978 0.46684 0.0
C340 C 0.57507 0.23133 0.46789 0.0
O341 O 0.59855 0.3646 0.505 0.0
O342 O 0.63056 0.34635 0.52872 0.0
C343 C 0.72722 0.38232 0.51906 0.0
O344 O 0.72878 0.37383 0.4827 0.0
O345 O 0.71345 0.35151 0.45375 0.0
O346 O 0.58468 0.26138 0.45441 0.0
O347 O 0.5972 0.2507 0.48329 0.0
O348 O 0.68422 0.35071 0.5272 0.0
O349 O 0.72581 0.38293 0.50164 0.0
O350 O 0.61392 0.25421 0.5017 0.0
O351 O 0.636 0.29671 0.52739 0.0
C352 C 0.61931 0.25318 0.51896 0.0
O353 O 0.60872 0.38483 0.48607 0.0
O354 O 0.62194 0.39194 0.45634 0.0
C355 C 0.59897 0.35992 0.52233 0.0
C356 C 0.60781 0.40532 0.47067 0.0
Zn357 Zn 0.68467 0.34478 0.73758 0.0
Zn358 Zn 0.70391 0.39442 0.6735 0.0
Zn359 Zn 0.68999 0.36309 0.70298 0.0
C360 C 0.62699 0.40889 0.68308 0.0
C361 C 0.79773 0.44875 0.6849 0.0
O362 O 0.76788 0.37985 0.71126 0.0
O363 O 0.75532 0.35441 0.74005 0.0
C364 C 0.6073 0.25238 0.71992 0.0
O365 O 0.64666 0.40551 0.69826 0.0
O366 O 0.64189 0.39834 0.6684 0.0
O367 O 0.76906 0.46248 0.67687 0.0
O368 O 0.77559 0.4058 0.69428 0.0
O369 O 0.62313 0.27229 0.73549 0.0
O370 O 0.63009 0.27924 0.70551 0.0
O371 O 0.66344 0.41321 0.71608 0.0
O372 O 0.67299 0.40251 0.74522 0.0
C373 C 0.66236 0.42534 0.73288 0.0
O374 O 0.65186 0.2899 0.68793 0.0
O375 O 0.70639 0.33066 0.6652 0.0
C376 C 0.78466 0.37118 0.72619 0.0
C377 C 0.67445 0.28824 0.67317 0.0
Zn378 Zn 0.67679 0.33196 0.24839 0.0
Zn379 Zn 0.65166 0.32232 0.18536 0.0
Zn380 Zn 0.66776 0.3296 0.2147 0.0
C381 C 0.64203 0.4027 0.19172 0.0
C382 C 0.58477 0.22982 0.19441 0.0
O383 O 0.64042 0.24759 0.22389 0.0
O384 O 0.65968 0.25984 0.25307 0.0
C385 C 0.77433 0.4075 0.23453 0.0
O386 O 0.62964 0.37623 0.2067 0.0
O387 O 0.66411 0.3917 0.17918 0.0
O388 O 0.57781 0.26397 0.18673 0.0
O389 O 0.62416 0.24556 0.20521 0.0
O390 O 0.75062 0.38889 0.24941 0.0
O391 O 0.75113 0.38723 0.21938 0.0
O392 O 0.61686 0.35947 0.22467 0.0
O393 O 0.62165 0.34956 0.25417 0.0
C394 C 0.60206 0.36131 0.24107 0.0
O395 O 0.74596 0.36538 0.20135 0.0
O396 O 0.7087 0.30799 0.17927 0.0
C397 C 0.64231 0.22931 0.2396 0.0
C398 C 0.74984 0.34082 0.18745 0.0
Zn399 Zn 0.63151 0.26271 0.02262 0.0
Zn400 Zn 0.70058 0.37307 0.96458 0.0
Zn401 Zn 0.67216 0.34173 0.99659 0.0
C402 C 0.73534 0.30459 0.97041 0.0
C403 C 0.73747 0.4606 0.98914 0.0
O404 O 0.68684 0.39407 0.01835 0.0
O405 O 0.62879 0.32544 0.0345 0.0
C406 C 0.56765 0.24087 1.0014 0.0
O407 O 0.71472 0.30482 0.98586 0.0
O408 O 0.73886 0.33606 0.95811 0.0
O409 O 0.73672 0.44681 0.97279 0.0
O410 O 0.7147 0.42566 1.00158 0.0
O411 O 0.59963 0.22523 0.99865 0.0
O412 O 0.58655 0.29043 0.99937 0.0
O413 O 0.72535 0.31154 1.00565 0.0
O414 O 0.69272 0.2605 0.02997 0.0
C415 C 0.73073 0.28699 0.01932 0.0
O416 O 0.60156 0.32057 0.98063 0.0
O417 O 0.63215 0.34678 0.95296 0.0
C418 C 0.65729 0.37513 0.03244 0.0
C419 C 0.59368 0.32531 0.96379 0.0
Zn420 Zn 0.3229 0.69422 0.87565 0.0
Zn421 Zn 0.31503 0.67897 0.80456 0.0
Zn422 Zn 0.31814 0.68538 0.84066 0.0
C423 C 0.39134 0.65684 0.81599 0.0
C424 C 0.21615 0.60501 0.81747 0.0
O425 O 0.23661 0.63616 0.85142 0.0
O426 O 0.24796 0.64731 0.88113 0.0
C427 C 0.36589 0.79552 0.86307 0.0
O428 O 0.37575 0.66358 0.83164 0.0
O429 O 0.37002 0.66012 0.80162 0.0
O430 O 0.24109 0.62295 0.80275 0.0
O431 O 0.23813 0.62446 0.83286 0.0
O432 O 0.35297 0.77075 0.87795 0.0
O433 O 0.35457 0.77002 0.84791 0.0
O434 O 0.36719 0.65332 0.8505 0.0
O435 O 0.36955 0.66558 0.88019 0.0
C436 C 0.3817 0.64804 0.86647 0.0
O437 O 0.33858 0.76334 0.82943 0.0
O438 O 0.3338 0.75212 0.79953 0.0
C439 C 0.21779 0.6268 0.86775 0.0
C440 C 0.34189 0.78122 0.81318 0.0
Zn441 Zn 0.35673 0.6923 0.05923 0.0
Zn442 Zn 0.34875 0.68484 0.99991 0.0
Zn443 Zn 0.35182 0.68791 0.02922 0.0
C444 C 0.26308 0.68603 1.0083 0.0
C445 C 0.43565 0.77263 1.00438 0.0
O446 O 0.39702 0.65065 0.03807 0.0
O447 O 0.42967 0.7057 0.06095 0.0
C448 C 0.26002 0.61205 0.0531 0.0
O449 O 0.26992 0.66081 0.02129 0.0
O450 O 0.30139 0.7144 0.99797 0.0
O451 O 0.42526 0.7318 0.9955 0.0
O452 O 0.40555 0.7681 0.01791 0.0
O453 O 0.29713 0.61958 0.06344 0.0
O454 O 0.27 0.64254 0.03927 0.0
O455 O 0.38824 0.77284 0.03561 0.0
O456 O 0.34281 0.75133 0.06112 0.0
C457 C 0.36874 0.7854 0.04913 0.0
O458 O 0.3755 0.63037 0.02024 0.0
O459 O 0.31777 0.60743 0.99839 0.0
C460 C 0.43097 0.67157 0.0509 0.0
C461 C 0.34662 0.59701 1.00797 0.0
Zn462 Zn 0.29077 0.64532 0.5768 0.0
Zn463 Zn 0.3523 0.61215 0.52145 0.0
Zn464 Zn 0.31818 0.64008 0.54505 0.0
C465 C 0.31914 0.68579 0.50979 0.0
C466 C 0.26452 0.52674 0.52372 0.0
O467 O 0.28648 0.56148 0.55731 0.0
O468 O 0.26894 0.57407 0.58547 0.0
C469 C 0.39689 0.71775 0.57478 0.0
O470 O 0.2922 0.67157 0.52457 0.0
O471 O 0.35219 0.67111 0.50672 0.0
O472 O 0.30194 0.54351 0.51252 0.0
O473 O 0.26908 0.55407 0.53812 0.0
O474 O 0.35874 0.70137 0.58573 0.0
O475 O 0.38972 0.69822 0.55873 0.0
O476 O 0.26498 0.6709 0.5411 0.0
O477 O 0.23968 0.66602 0.56975 0.0
C478 C 0.23715 0.67689 0.55332 0.0
O479 O 0.40606 0.68603 0.54068 0.0
O480 O 0.41634 0.61995 0.53311 0.0
C481 C 0.27297 0.54491 0.57376 0.0
C482 C 0.43675 0.66846 0.53617 0.0
Zn483 Zn 0.341 0.67443 0.28567 0.0
Zn484 Zn 0.31846 0.67044 0.38155 0.0
Zn485 Zn 0.33709 0.67035 0.31887 0.0
C486 C 0.40609 0.69781 0.3508 0.0
C487 C 0.27595 0.59266 0.34726 0.0
O488 O 0.30174 0.71698 0.30923 0.0
O489 O 0.31283 0.72046 0.27946 0.0
C490 C 0.44374 0.71275 0.29814 0.0
O491 O 0.41342 0.69905 0.33355 0.0
O492 O 0.35909 0.68158 0.35613 0.0
O493 O 0.30621 0.6367 0.35492 0.0
O494 O 0.28059 0.59089 0.32998 0.0
O495 O 0.41689 0.70171 0.28381 0.0
O496 O 0.4215 0.70487 0.31384 0.0
O497 O 0.29058 0.58725 0.31089 0.0
O498 O 0.29438 0.59891 0.2811 0.0
C499 C 0.27858 0.5685 0.29467 0.0
O500 O 0.30853 0.72282 0.32811 0.0
O501 O 0.3144 0.69138 0.35413 0.0
C502 C 0.29488 0.73122 0.29338 0.0
C503 C 0.3045 0.72272 0.34542 0.0
C504 C 0.20382 0.18452 0.20171 0.0
C505 C 0.2236 0.17358 0.21746 0.0
C506 C 0.17195 0.14442 0.18949 0.0
C507 C 0.15818 0.09197 0.19279 0.0
H508 H 0.20981 0.22353 0.19945 0.0
H509 H 0.15301 0.15359 0.17869 0.0
S510 S 0.20965 0.04462 0.2294 0.0
N511 N 0.23541 0.10808 0.23356 0.0
N512 N 0.17422 0.03279 0.21084 0.0
C513 C 0.18307 0.08181 0.2071 0.0
C514 C 0.21593 0.12259 0.21945 0.0
C515 C 0.82589 0.01699 0.2013 0.0
C516 C 0.83424 0.0492 0.21658 0.0
C517 C 0.86645 0.02867 0.18878 0.0
C518 C 0.91691 0.07247 0.19131 0.0
H519 H 0.78899 0.98054 0.19965 0.0
H520 H 0.85984 -0.0002 0.17839 0.0
S521 S 0.95555 0.17614 0.22628 0.0
N522 N 0.89388 0.13262 0.23127 0.0
N523 N 0.97025 0.15325 0.20803 0.0
C524 C 0.92373 0.10839 0.2051 0.0
C525 C 0.88241 0.09693 0.21774 0.0
C526 C 0.90048 0.80514 0.22326 0.0
C527 C 0.94498 0.7995 0.22499 0.0
C528 C 0.89662 0.83494 0.2092 0.0
C529 C 0.93677 0.85989 0.19617 0.0
H530 H 0.86975 0.78936 0.23351 0.0
H531 H 0.86442 0.84269 0.20953 0.0
S532 S 0.05636 0.84931 0.19226 0.0
N533 N 0.02621 0.81494 0.21067 0.0
N534 N 0.01859 0.87093 0.18421 0.0
C535 C 0.97833 0.84954 0.19642 0.0
C536 C -0.01731 0.81957 0.21089 0.0
C537 C 0.14134 0.20554 0.31963 0.0
C538 C 0.1868 0.20761 0.31252 0.0
C539 C 0.11661 0.17647 0.33536 0.0
C540 C 0.13593 0.14757 0.3442 0.0
H541 H 0.12287 0.22381 0.31235 0.0
H542 H 0.07893 0.17159 0.33928 0.0
S543 S 0.25873 0.14789 0.33314 0.0
N544 N 0.25474 0.18539 0.31729 0.0
N545 N 0.20703 0.12909 0.34649 0.0
C546 C 0.1844 0.15416 0.33844 0.0
C547 C 0.21011 0.18448 0.32261 0.0
C548 C 0.84179 0.04082 0.31837 0.0
C549 C 0.80983 -0.01009 0.31147 0.0
C550 C 0.87558 0.04951 0.33296 0.0
C551 C 0.8775 0.00747 0.34129 0.0
H552 H 0.84429 0.07446 0.31145 0.0
H553 H 0.90369 0.08973 0.33668 0.0
S554 S 0.79289 0.86591 0.33074 0.0
N555 N 0.77583 0.89628 0.31577 0.0
N556 N 0.83854 0.91269 0.34349 0.0
C557 C 0.84095 0.95599 0.33598 0.0
C558 C 0.8074 0.94719 0.32089 0.0
C559 C 0.05688 0.86261 0.32474 0.0
C560 C 0.01088 0.81501 0.32055 0.0
C561 C 0.05717 0.89559 0.33858 0.0
C562 C 0.01118 0.88238 0.34837 0.0
H563 H 0.09194 0.87609 0.31649 0.0
H564 H 0.09167 0.93423 0.34011 0.0
S565 S 0.88332 0.75869 0.34485 0.0
N566 N 0.9206 0.75286 0.32924 0.0
N567 N 0.92085 0.81604 0.3548 0.0
C568 C 0.96675 0.83259 0.34566 0.0
C569 C 0.9666 0.79856 0.33179 0.0
C570 C 0.82024 0.81446 0.82926 0.0
C571 C 0.82121 0.79439 0.81197 0.0
C572 C 0.86549 0.83913 0.84001 0.0
C573 C 0.91367 0.84696 0.83329 0.0
H574 H 0.78564 0.81526 0.83379 0.0
H575 H 0.86448 0.8596 0.85215 0.0
S576 S 0.93323 0.78975 0.79109 0.0
N577 N 0.87077 0.77316 0.79057 0.0
N578 N 0.95669 0.82225 0.81033 0.0
C579 C 0.91285 0.81968 0.81743 0.0
C580 C 0.86642 0.79332 0.8067 0.0
C581 C 0.21465 0.04282 0.82077 0.0
C582 C 0.2339 0.0738 0.80495 0.0
C583 C 0.18032 0.04817 0.8327 0.0
C584 C 0.1627 0.08333 0.82876 0.0
H585 H 0.22269 0.01126 0.82315 0.0
H586 H 0.16188 0.0195 0.84352 0.0
S587 S 0.21001 0.18073 0.79124 0.0
N588 N 0.24071 0.1475 0.78789 0.0
N589 N 0.17404 0.15578 0.80982 0.0
C590 C 0.18694 0.11902 0.81432 0.0
C591 C 0.22292 0.11447 0.80242 0.0
C592 C 0.96656 0.17936 0.83283 0.0
C593 C 0.94075 0.17543 0.81639 0.0
C594 C 0.95842 0.1342 0.842 0.0
C595 C 0.92588 0.08407 0.83453 0.0
H596 H -0.00327 0.21747 0.83775 0.0
H597 H -0.01652 0.13907 0.85342 0.0
S598 S 0.8398 0.05261 0.79444 0.0
N599 N 0.87285 0.11757 0.79528 0.0
N600 N 0.85964 0.03257 0.81205 0.0
C601 C 0.89425 0.07955 0.81965 0.0
C602 C 0.90149 0.12551 0.81058 0.0
C603 C 0.77223 0.81905 0.70469 0.0
C604 C 0.75217 0.83133 0.72017 0.0
C605 C 0.8052 0.85829 0.69228 0.0
C606 C 0.82108 0.91137 0.69547 0.0
H607 H 0.76584 0.77969 0.70292 0.0
H608 H 0.82476 0.84813 0.68187 0.0
S609 S 0.77008 0.96201 0.73153 0.0
N610 N 0.74176 0.89832 0.73581 0.0
N611 N 0.80621 0.97246 0.71304 0.0
C612 C 0.79528 0.92271 0.70934 0.0
C613 C 0.76062 0.88259 0.72173 0.0
C614 C 0.16624 0.97952 0.69761 0.0
C615 C 0.16658 0.95756 0.71457 0.0
C616 C 0.1195 0.96142 0.68784 0.0
C617 C 0.07125 0.92227 0.69514 0.0
H618 H 0.20133 0.01423 0.69272 0.0
H619 H 0.12026 0.98382 0.67605 0.0
S620 S 0.05328 0.84369 0.7367 0.0
N621 N 0.11676 0.88729 0.73622 0.0
N622 N 0.0285 0.85464 0.71825 0.0
C623 C 0.07256 0.89479 0.7106 0.0
C624 C 0.12037 0.91251 0.72036 0.0
C625 C 0.03293 0.20722 0.71032 0.0
C626 C 0.05489 0.21842 0.72787 0.0
C627 C 0.03823 0.17211 0.69874 0.0
C628 C 0.06442 0.14614 0.70463 0.0
H629 H 0.00644 0.22078 0.70638 0.0
H630 H 0.01515 0.1595 0.68641 0.0
S631 S 0.13945 0.17193 0.74737 0.0
N632 N 0.11252 0.20922 0.74895 0.0
N633 N 0.12178 0.1425 0.72737 0.0
C634 C 0.09319 0.16336 0.7209 0.0
C635 C 0.08829 0.19953 0.73257 0.0
C636 C 0.83021 0.51296 0.53849 0.0
C637 C 0.84278 0.49803 0.55504 0.0
C638 C 0.79603 0.47499 0.52598 0.0
C639 C 0.77244 0.42094 0.52982 0.0
H640 H 0.84645 0.55422 0.53528 0.0
H641 H 0.78573 0.48803 0.51373 0.0
S642 S 0.79343 0.36111 0.57082 0.0
N643 N 0.83053 0.42514 0.5741 0.0
N644 N 0.7651 0.35431 0.55091 0.0
C645 C 0.78565 0.40556 0.54605 0.0
C646 C 0.82116 0.44397 0.55858 0.0
C647 C 0.54231 0.39267 0.56311 0.0
C648 C 0.48996 0.35054 0.56367 0.0
C649 C 0.57683 0.39737 0.54903 0.0
C650 C 0.55993 0.36124 0.53461 0.0
H651 H 0.55747 0.42132 0.57401 0.0
H652 H 0.61746 0.42866 0.54968 0.0
S653 S 0.42738 0.24443 0.52917 0.0
N654 N 0.42322 0.27206 0.54823 0.0
N655 N 0.488 0.28205 0.52158 0.0
C656 C 0.50757 0.3199 0.53462 0.0
C657 C 0.47259 0.3143 0.54917 0.0
C658 C 0.64681 0.15817 0.54452 0.0
C659 C 0.60203 0.13095 0.55575 0.0
C660 C 0.65057 0.19506 0.53149 0.0
C661 C 0.60964 0.20582 0.52911 0.0
H662 H 0.68022 0.15287 0.54636 0.0
H663 H 0.68687 0.21732 0.5239 0.0
S664 S 0.48281 0.14388 0.55379 0.0
N665 N 0.51411 0.11568 0.56237 0.0
N666 N 0.5228 0.18586 0.53836 0.0
C667 C 0.56409 0.17773 0.53959 0.0
C668 C 0.5598 0.13996 0.55272 0.0
C669 C 0.90982 0.55748 0.66302 0.0
C670 C 0.91268 0.5306 0.64764 0.0
C671 C 0.88037 0.52962 0.67834 0.0
C672 C 0.8525 0.47424 0.67849 0.0
H673 H 0.92367 0.59924 0.66219 0.0
H674 H 0.87214 0.55095 0.68863 0.0
S675 S 0.86211 0.38795 0.64393 0.0
N676 N 0.89668 0.44765 0.63525 0.0
N677 N 0.84165 0.39509 0.66415 0.0
C678 C 0.86407 0.44824 0.66479 0.0
C679 C 0.89368 0.47656 0.64914 0.0
C680 C 0.48907 0.34698 0.67417 0.0
C681 C 0.4906 0.37885 0.6597 0.0
C682 C 0.53232 0.36362 0.68564 0.0
C683 C 0.57885 0.41138 0.68228 0.0
H684 H 0.45661 0.30695 0.67544 0.0
H685 H 0.53235 0.33521 0.69499 0.0
S686 S 0.59721 0.51434 0.64943 0.0
N687 N 0.53726 0.46511 0.64548 0.0
N688 N 0.61975 0.49509 0.66648 0.0
C689 C 0.57744 0.44689 0.66993 0.0
C690 C 0.53297 0.4306 0.65856 0.0
C691 C 0.60933 0.15193 0.65242 0.0
C692 C 0.65276 0.15193 0.64438 0.0
C693 C 0.61633 0.19486 0.66305 0.0
C694 C 0.66681 0.23852 0.66569 0.0
H695 H 0.56986 0.12049 0.6495 0.0
H696 H 0.58212 0.19547 0.66815 0.0
S697 S 0.79291 0.25135 0.65064 0.0
N698 N 0.74756 0.19453 0.64224 0.0
N699 N 0.76072 0.2753 0.66171 0.0
C700 C 0.71034 0.23642 0.65899 0.0
C701 C 0.70329 0.19298 0.64844 0.0
C702 C 0.47821 0.12795 0.16831 0.0
C703 C 0.50703 0.12784 0.15304 0.0
C704 C 0.50363 0.15235 0.18454 0.0
C705 C 0.55856 0.17766 0.18584 0.0
H706 H 0.43689 0.11508 0.167 0.0
H707 H 0.48124 0.15856 0.19499 0.0
S708 S 0.64938 0.17555 0.15132 0.0
N709 N 0.5914 0.14543 0.14136 0.0
N710 N 0.63906 0.19014 0.17209 0.0
C711 C 0.58619 0.16937 0.17181 0.0
C712 C 0.5605 0.14534 0.15516 0.0
C713 C 0.87065 0.4046 0.15797 0.0
C714 C 0.87201 0.35998 0.15175 0.0
C715 C 0.83476 0.40004 0.17162 0.0
C716 C 0.80005 0.35092 0.17953 0.0
H717 H 0.89439 0.44224 0.1513 0.0
H718 H 0.83095 0.43392 0.17478 0.0
S719 S 0.79578 0.22491 0.17063 0.0
N720 N 0.84116 0.26716 0.15649 0.0
N721 N 0.77457 0.25891 0.18209 0.0
C722 C 0.8051 0.30753 0.17472 0.0
C723 C 0.84084 0.31193 0.1608 0.0
C724 C 0.58443 0.47501 0.16975 0.0
C725 C 0.63081 0.52087 0.16441 0.0
C726 C 0.5864 0.43865 0.18167 0.0
C727 C 0.63468 0.44768 0.1885 0.0
H728 H 0.54767 0.46431 0.16314 0.0
H729 H 0.55122 0.40077 0.18369 0.0
S730 S 0.7652 0.56598 0.18081 0.0
N731 N 0.72441 0.57721 0.16907 0.0
N732 N 0.72836 0.50817 0.19059 0.0
C733 C 0.6799 0.49623 0.18487 0.0
C734 C 0.67788 0.53312 0.173 0.0
C735 C 0.49705 0.14195 0.03825 0.0
C736 C 0.4826 0.16933 0.05036 0.0
C737 C 0.5179 0.16254 0.02113 0.0
C738 C 0.52719 0.21247 1.01573 0.0
H739 H 0.49372 0.10496 0.04225 0.0
H740 H 0.53096 0.14103 1.01271 0.0
S741 S 0.48641 0.29493 0.04139 0.0
N742 N 0.47051 0.24425 0.05492 0.0
N743 N 0.51198 0.28463 0.02287 0.0
C744 C 0.50794 0.2378 0.02705 0.0
C745 C 0.48546 0.21598 0.04443 0.0
C746 C 0.82539 0.2828 0.05133 0.0
C747 C 0.86227 0.33665 0.05284 0.0
C748 C 0.78628 0.26464 0.03803 0.0
C749 C 0.78313 0.29977 0.0258 0.0
H750 H 0.82357 0.25536 0.06151 0.0
H751 H 0.75506 0.22386 0.0386 0.0
S752 S 0.88109 0.44164 0.02078 0.0
N753 N 0.90095 0.42273 0.03865 0.0
N754 N 0.82777 0.38863 1.01345 0.0
C755 C 0.82474 0.35217 0.02546 0.0
C756 C 0.86408 0.37075 0.03917 0.0
C757 C 0.61373 0.41551 0.07502 0.0
C758 C 0.64196 0.47085 0.07452 0.0
C759 C 0.61987 0.38573 0.0615 0.0
C760 C 0.65443 0.40956 0.04671 0.0
H761 H 0.58594 0.3946 0.08587 0.0
H762 H 0.59646 0.34326 0.06269 0.0
S763 S 0.74017 0.55342 0.03941 0.0
N764 N 0.70769 0.54874 0.05836 0.0
N765 N 0.71939 0.49237 0.03284 0.0
C766 C 0.68419 0.46498 0.04622 0.0
C767 C 0.67794 0.49561 0.06014 0.0
C768 C 0.50276 0.90548 0.86234 0.0
C769 C 0.5037 0.93283 0.87816 0.0
C770 C 0.45512 0.86607 0.85506 0.0
C771 C 0.40726 0.85142 0.86391 0.0
H772 H 0.53913 0.91124 0.85652 0.0
H773 H 0.45655 0.84227 0.84404 0.0
S774 S 0.38837 0.91811 0.90358 0.0
N775 N 0.45262 0.94919 0.90045 0.0
N776 N 0.36312 0.87331 0.88734 0.0
C777 C 0.40746 0.88298 0.87833 0.0
C778 C 0.45587 0.92403 0.88542 0.0
C779 C 0.09875 0.56455 0.89697 0.0
C780 C 0.07326 0.5911 0.89102 0.0
C781 C 0.14202 0.56903 0.88737 0.0
C782 C 0.16093 0.60012 0.87154 0.0
H783 H 0.0896 0.54597 0.91024 0.0
H784 H 0.16462 0.55351 0.89357 0.0
S785 S 0.09992 0.6671 0.84831 0.0
N786 N 0.06385 0.64159 0.86685 0.0
N787 N 0.1447 0.6492 0.84857 0.0
C788 C 0.1308 0.61997 0.86405 0.0
C789 C 0.08708 0.6159 0.87395 0.0
C790 C 0.42534 0.574 0.8951 0.0
C791 C 0.39213 0.52269 0.88875 0.0
C792 C 0.42942 0.61742 0.88579 0.0
C793 C 0.40011 0.61059 0.86993 0.0
H794 H 0.4431 0.58021 0.90841 0.0
H795 H 0.45027 0.65566 0.89227 0.0
S796 S 0.31768 0.48479 0.84569 0.0
N797 N 0.33732 0.46794 0.86415 0.0
N798 N 0.34546 0.54951 0.84642 0.0
C799 C 0.37346 0.56024 0.86203 0.0
C800 C 0.36897 0.51604 0.87162 0.0
C801 C 0.54117 0.8658 0.97229 0.0
C802 C 0.52783 0.90486 0.9697 0.0
C803 C 0.51476 0.8259 0.98523 0.0
C804 C 0.47434 0.82373 0.9962 0.0
H805 H 0.56953 0.86374 0.96342 0.0
H806 H 0.52345 0.79429 0.98572 0.0
S807 S 0.43259 0.92307 0.99758 0.0
N808 N 0.47766 0.94392 0.98134 0.0
N809 N 0.42791 0.86847 1.00554 0.0
C810 C 0.46464 0.86563 0.99515 0.0
C811 C 0.49128 0.9062 0.98187 0.0
C812 C 0.16435 0.70148 0.98127 0.0
C813 C 0.12237 0.64948 0.98031 0.0
C814 C 0.20795 0.71434 0.99216 0.0
C815 C 0.21091 0.67579 1.00258 0.0
H816 H 0.16544 0.73163 0.97255 0.0
H817 H 0.2413 0.754 0.99137 0.0
S818 S 0.10611 0.53655 1.00794 0.0
N819 N 0.08232 0.56115 0.99314 0.0
N820 N 0.16478 0.58553 1.01342 0.0
C821 C 0.16677 0.6251 1.00333 0.0
C822 C 0.12239 0.61184 0.99217 0.0
C823 C 0.30669 0.46891 0.98498 0.0
C824 C 0.35497 0.47653 0.97852 0.0
C825 C 0.3046 0.50559 0.99662 0.0
C826 C 0.35062 0.5509 1.00245 0.0
H827 H 0.2701 0.43661 0.97996 0.0
H828 H 0.2665 0.50063 0.99991 0.0
S829 S 0.48691 0.58352 0.99264 0.0
N830 N 0.45016 0.52859 0.98121 0.0
N831 N 0.44571 0.59736 1.00315 0.0
C832 C 0.39908 0.55597 0.9978 0.0
C833 C 0.40137 0.51887 0.98576 0.0
C834 C 0.13971 0.49062 0.50166 0.0
C835 C 0.13924 0.4579 0.48762 0.0
C836 C 0.17495 0.50484 0.51615 0.0
C837 C 0.21238 0.48872 0.51653 0.0
H838 H 0.11543 0.50841 0.50072 0.0
H839 H 0.1777 0.53439 0.5256 0.0
S840 S 0.21974 0.39404 0.4851 0.0
N841 N 0.17197 0.40158 0.4769 0.0
N842 N 0.24056 0.43108 0.50352 0.0
C843 C 0.20762 0.4507 0.50387 0.0
C844 C 0.17067 0.43493 0.48943 0.0
C845 C 0.5522 0.69209 0.50944 0.0
C846 C 0.54913 0.72174 0.49512 0.0
C847 C 0.52222 0.68307 0.52529 0.0
C848 C 0.48761 0.70265 0.52706 0.0
H849 H 0.57374 0.67153 0.50766 0.0
H850 H 0.52066 0.65476 0.53505 0.0
S851 S 0.47776 0.795 0.49531 0.0
N852 N 0.5183 0.77974 0.48506 0.0
N853 N 0.46217 0.76343 0.51497 0.0
C854 C 0.49109 0.73935 0.51405 0.0
C855 C 0.52129 0.74812 0.49784 0.0
C856 C 0.29014 0.78834 0.49092 0.0
C857 C 0.31594 0.80059 0.47396 0.0
C858 C 0.28987 0.74996 0.50225 0.0
C859 C 0.31512 0.72224 0.49695 0.0
H860 H 0.27115 0.80947 0.49571 0.0
H861 H 0.27089 0.74308 0.51542 0.0
S862 S 0.38241 0.73493 0.45272 0.0
N863 N 0.3636 0.77895 0.45172 0.0
N864 N 0.36234 0.70637 0.47277 0.0
C865 C 0.33893 0.73247 0.47961 0.0
C866 C 0.3396 0.7718 0.46819 0.0
C867 C 0.2133 0.50355 0.38708 0.0
C868 C 0.16408 0.5004 0.38824 0.0
C869 C 0.2477 0.52895 0.37248 0.0
C870 C 0.23381 0.55103 0.35823 0.0
H871 H 0.22647 0.48818 0.39791 0.0
H872 H 0.28667 0.53396 0.37286 0.0
S873 S 0.10932 0.55186 0.354 0.0
N874 N 0.10264 0.52005 0.37323 0.0
N875 N 0.16763 0.56748 0.34576 0.0
C876 C 0.18401 0.54614 0.35868 0.0
C877 C 0.14904 0.52085 0.37367 0.0
C878 C 0.50448 0.691 0.3818 0.0
C879 C 0.50386 0.71982 0.3971 0.0
C880 C 0.47653 0.68764 0.36587 0.0
C881 C 0.44693 0.71282 0.36477 0.0
H882 H 0.52629 0.67049 0.38218 0.0
H883 H 0.47582 0.663 0.35477 0.0
S884 S 0.43306 0.79419 0.40051 0.0
N885 N 0.47164 0.77506 0.40963 0.0
N886 N 0.41978 0.76857 0.3799 0.0
C887 C 0.44724 0.74286 0.37969 0.0
C888 C 0.47546 0.74638 0.39579 0.0
C889 C 0.24266 0.76531 0.38043 0.0
C890 C 0.28549 0.81356 0.38629 0.0
C891 C 0.24716 0.73838 0.36548 0.0
C892 C 0.29416 0.75918 0.35562 0.0
H893 H 0.20617 0.74644 0.38806 0.0
H894 H 0.21493 0.69928 0.36245 0.0
S895 S 0.41586 0.88626 0.36368 0.0
N896 N 0.37509 0.88305 0.37981 0.0
N897 N 0.38291 0.8321 0.35149 0.0
C898 C 0.33581 0.80911 0.36026 0.0
C899 C 0.33158 0.83654 0.37564 0.0
C900 C 0.25298 0.10398 0.13626 0.0
C901 C 0.26497 0.0715 0.12551 0.0
C902 C 0.20105 0.08828 0.14115 0.0
C903 C 0.15936 0.03991 0.13524 0.0
H904 H 0.28376 0.14261 0.14047 0.0
H905 H 0.19333 0.1153 0.14873 0.0
S906 S 0.16949 0.93727 0.10916 0.0
N907 N 0.23065 0.98613 0.11091 0.0
N908 N 0.13329 0.95714 0.11989 0.0
C909 C 0.1709 0.00575 0.1255 0.0
C910 C 0.22366 0.02137 0.12071 0.0
C911 C 0.95363 0.17411 0.11027 0.0
C912 C 0.97484 0.21835 0.12177 0.0
C913 C 0.95404 0.12838 0.11512 0.0
C914 C 0.9747 0.12443 0.13182 0.0
H915 H 0.93749 0.17508 0.09718 0.0
H916 H 0.93884 0.09605 0.10552 0.0
S917 S 0.03313 0.22798 0.16723 0.0
N918 N 0.01573 0.25464 0.15097 0.0
N919 N 0.01628 0.16832 0.16006 0.0
C920 C -0.00533 0.16764 0.14374 0.0
C921 C -0.00509 0.21471 0.1387 0.0
C922 C 0.83658 0.77098 0.11649 0.0
C923 C 0.79169 0.75159 0.12763 0.0
C924 C 0.88254 0.8181 0.12065 0.0
C925 C 0.88595 0.84718 0.13632 0.0
H926 H 0.8357 0.75063 0.10408 0.0
H927 H 0.91522 0.83288 0.11116 0.0
S928 S 0.78142 0.81132 0.17093 0.0
N929 N 0.75477 0.76348 0.15575 0.0
N930 N 0.84163 0.85201 0.16355 0.0
C931 C 0.84247 0.827 0.14811 0.0
C932 C 0.79518 0.77929 0.14374 0.0
C933 C -0.01551 0.21398 0.40568 0.0
C934 C 0.03416 0.25922 0.40717 0.0
C935 C 0.97954 0.16602 0.40032 0.0
C936 C 0.02391 0.1622 0.39578 0.0
H937 H 0.94957 0.21494 0.40965 0.0
H938 H 0.94081 0.13118 0.40036 0.0
S939 S 0.16194 0.27104 0.39505 0.0
N940 N 0.12819 0.2986 0.40217 0.0
N941 N 0.11837 0.20843 0.39145 0.0
C942 C 0.07336 0.20793 0.39588 0.0
C943 C 0.07862 0.25652 0.4018 0.0
C944 C 0.76425 0.87354 0.40277 0.0
C945 C 0.75312 0.82786 0.41257 0.0
C946 C 0.81347 0.90555 0.39471 0.0
C947 C 0.8533 0.89327 0.3965 0.0
H948 H 0.73557 0.88612 0.40211 0.0
H949 H 0.82166 0.94221 0.38843 0.0
S950 S 0.84141 0.77354 0.4177 0.0
N951 N 0.78352 0.7681 0.42116 0.0
N952 N 0.87664 0.82897 0.4063 0.0
C953 C 0.84123 0.84532 0.40472 0.0
C954 C 0.79087 0.81232 0.4127 0.0
C955 C 0.18481 0.98211 0.42272 0.0
C956 C 0.16831 0.92858 0.4206 0.0
C957 C 0.15636 0.00341 0.41501 0.0
C958 C 0.11135 0.97223 0.4045 0.0
H959 H 0.21891 0.00728 0.43088 0.0
H960 H 0.16912 0.04439 0.41757 0.0
S961 S 0.05512 0.83102 0.39338 0.0
N962 N 0.10625 0.84556 0.4063 0.0
N963 N 0.05338 0.88598 0.39153 0.0
C964 C 0.09599 0.91929 0.40153 0.0
C965 C 0.12429 0.89732 0.40969 0.0
C966 C 0.80902 0.03246 0.88712 0.0
C967 C 0.76962 -0.00965 0.89737 0.0
C968 C 0.8561 0.03414 0.8824 0.0
C969 C 0.86553 -0.00596 0.88792 0.0
H970 H 0.80409 0.06502 0.88307 0.0
H971 H 0.88602 0.06799 0.87504 0.0
S972 S 0.77282 0.872 0.91282 0.0
N973 N 0.74172 0.90523 0.91131 0.0
N974 N 0.82992 0.9087 0.90258 0.0
C975 C 0.82561 0.95067 0.89741 0.0
C976 C 0.77774 0.94875 0.90209 0.0
C977 C 0.05844 0.83513 0.9064 0.0
C978 C 0.01486 0.78431 0.90438 0.0
C979 C 0.05926 0.87885 0.89873 0.0
C980 C 0.01664 0.87389 0.88863 0.0
H981 H 0.09187 0.84163 0.9144 0.0
H982 H 0.09313 0.91732 0.90127 0.0
S983 S 0.89494 0.74929 0.87773 0.0
N984 N 0.92927 0.73097 0.89024 0.0
N985 N 0.93104 0.81396 0.87592 0.0
C986 C 0.97393 0.8232 0.88558 0.0
C987 C 0.97293 0.77826 0.89347 0.0
C988 C 0.21739 0.21134 0.90019 0.0
C989 C 0.2066 0.25283 0.8994 0.0
C990 C 0.18311 0.16202 0.89244 0.0
C991 C 0.13774 0.1531 0.8833 0.0
H992 H 0.2506 0.21582 0.90787 0.0
H993 H 0.19006 0.12973 0.89477 0.0
S994 S 0.09582 0.25031 0.87487 0.0
N995 N 0.15017 0.28293 0.88684 0.0
N996 N 0.08639 0.19043 0.87225 0.0
C997 C 0.12886 0.19525 0.88112 0.0
C998 C 0.16315 0.24512 0.88916 0.0
C999 C -0.00903 0.80263 0.61777 0.0
C1000 C 0.94533 0.75695 0.62369 0.0
C1001 C 0.00588 0.85188 0.62546 0.0
C1002 C 0.97679 0.85691 0.63975 0.0
H1003 H 0.01369 0.80082 0.60645 0.0
H1004 H 0.03891 0.88667 0.61958 0.0
S1005 S 0.85797 0.74896 0.66169 0.0
N1006 N 0.87357 0.71949 0.64573 0.0
N1007 N 0.90276 0.8121 0.6604 0.0
C1008 C 0.93332 0.81127 0.64664 0.0
C1009 C 0.91727 0.76125 0.63855 0.0
C1010 C 0.22713 0.14336 0.64441 0.0
C1011 C 0.2418 0.19313 0.63717 0.0
C1012 C 0.17647 0.11038 0.65122 0.0
C1013 C 0.13861 0.12588 0.6511 0.0
H1014 H 0.2541 0.12858 0.64405 0.0
H1015 H 0.16558 0.07077 0.6553 0.0
S1016 S 0.15812 0.25416 0.63588 0.0
N1017 N 0.21541 0.25842 0.63218 0.0
N1018 N 0.11972 0.19526 0.64476 0.0
C1019 C 0.15355 0.17677 0.64528 0.0
C1020 C 0.20534 0.21074 0.63836 0.0
C1021 C 0.82669 0.05591 0.61705 0.0
C1022 C 0.77512 0.02431 0.62347 0.0
C1023 C 0.86815 0.05134 0.62412 0.0
C1024 C 0.86037 0.01475 0.63796 0.0
H1025 H 0.83538 0.08464 0.60642 0.0
H1026 H 0.9069 0.07683 0.61847 0.0
S1027 S 0.73283 0.92288 0.65986 0.0
N1028 N 0.71844 0.95546 0.64492 0.0
N1029 N 0.79667 0.94662 0.65794 0.0
C1030 C 0.80914 0.98332 0.64475 0.0
C1031 C 0.76653 0.98804 0.63756 0.0
C1032 C 0.89392 0.44616 0.46324 0.0
C1033 C 0.90439 0.41276 0.45238 0.0
C1034 C 0.84257 0.43114 0.46887 0.0
C1035 C 0.79987 0.3827 0.46349 0.0
H1036 H 0.92561 0.4845 0.46728 0.0
H1037 H 0.83604 0.45842 0.47679 0.0
S1038 S 0.80587 0.27945 0.43628 0.0
N1039 N 0.86752 0.32758 0.43754 0.0
N1040 N 0.77128 0.30003 0.4477 0.0
C1041 C 0.80989 0.34834 0.45316 0.0
C1042 C 0.86206 0.36315 0.44772 0.0
C1043 C 0.62624 0.5422 0.47321 0.0
C1044 C 0.59534 0.54233 0.45863 0.0
C1045 C 0.62624 0.49608 0.47837 0.0
C1046 C 0.59584 0.44845 0.46902 0.0
H1047 H 0.65156 0.5783 0.48047 0.0
H1048 H 0.65269 0.49856 0.48899 0.0
S1049 S 0.50536 0.42611 0.43085 0.0
N1050 N 0.53069 0.48904 0.43583 0.0
N1051 N 0.53206 0.4034 0.44519 0.0
C1052 C 0.56331 0.44751 0.45495 0.0
C1053 C 0.56265 0.49409 0.44986 0.0
C1054 C 0.49416 0.10129 0.4439 0.0
C1055 C 0.45211 0.07246 0.45599 0.0
C1056 C 0.53532 0.15151 0.44841 0.0
C1057 C 0.53675 0.17473 0.46532 0.0
H1058 H 0.49451 0.08583 0.43054 0.0
H1059 H 0.56563 0.17308 0.43831 0.0
S1060 S 0.43872 0.11447 0.50249 0.0
N1061 N 0.41612 0.0698 0.48617 0.0
N1062 N 0.49412 0.16424 0.49461 0.0
C1063 C 0.49655 0.14548 0.47795 0.0
C1064 C 0.45402 0.09441 0.47327 0.0
C1065 C 0.65537 0.55029 0.72935 0.0
C1066 C 0.65534 0.56339 0.74771 0.0
C1067 C 0.65464 0.5038 0.72449 0.0
C1068 C 0.65319 0.46885 0.73789 0.0
H1069 H 0.65932 0.57759 0.71875 0.0
H1070 H 0.65808 0.49687 0.71022 0.0
S1071 S 0.64241 0.48188 0.78783 0.0
N1072 N 0.64728 0.53585 0.77919 0.0
N1073 N 0.64401 0.44768 0.77027 0.0
C1074 C 0.64856 0.47985 0.75626 0.0
C1075 C 0.6502 0.52741 0.76113 0.0
C1076 C 0.46283 0.17127 0.71327 0.0
C1077 C 0.44779 0.13486 0.72767 0.0
C1078 C 0.51589 0.2049 0.70885 0.0
C1079 C 0.5556 0.20394 0.71897 0.0
H1080 H 0.43363 0.17632 0.70617 0.0
H1081 H 0.52579 0.23549 0.69882 0.0
S1082 S 0.53715 0.1095 0.75549 0.0
N1083 N 0.47694 0.09414 0.74993 0.0
N1084 N 0.57665 0.15874 0.74201 0.0
C1085 C 0.54104 0.16411 0.73203 0.0
C1086 C 0.48705 0.12916 0.7363 0.0
C1087 C 0.89998 0.37009 0.74558 0.0
C1088 C 0.89383 0.32372 0.73771 0.0
C1089 C 0.86844 0.39051 0.74011 0.0
C1090 C 0.8314 0.36614 0.72624 0.0
H1091 H 0.92533 0.38763 0.75722 0.0
H1092 H 0.86971 0.42255 0.74783 0.0
S1093 S 0.8068 0.24934 0.69942 0.0
N1094 N 0.85293 0.25811 0.71394 0.0
N1095 N 0.79473 0.29751 0.70332 0.0
C1096 C 0.8295 0.32369 0.71685 0.0
C1097 C 0.86051 0.3021 0.7227 0.0
C1098 C 0.47506 0.3615 0.23425 0.0
C1099 C 0.45798 0.36001 0.25226 0.0
C1100 C 0.52394 0.36616 0.23053 0.0
C1101 C 0.55753 0.3701 0.24473 0.0
H1102 H 0.44893 0.35499 0.22299 0.0
H1103 H 0.53364 0.363 0.21654 0.0
S1104 S 0.53536 0.38052 0.29405 0.0
N1105 N 0.48116 0.37101 0.28421 0.0
N1106 N 0.57369 0.38165 0.27738 0.0
C1107 C 0.54295 0.37435 0.2627 0.0
C1108 C 0.49293 0.36872 0.26644 0.0
C1109 C 0.64671 0.105 0.23161 0.0
C1110 C 0.64284 0.08657 0.24953 0.0
C1111 C 0.64114 0.14874 0.22792 0.0
C1112 C 0.63114 0.17477 0.24208 0.0
H1113 H 0.65858 0.08852 0.22064 0.0
H1114 H 0.64916 0.16476 0.21426 0.0
S1115 S 0.60433 0.13279 0.29047 0.0
N1116 N 0.61956 0.09144 0.28088 0.0
N1117 N 0.60727 0.17229 0.27401 0.0
C1118 C 0.62088 0.15242 0.25963 0.0
C1119 C 0.62736 0.10868 0.26337 0.0
C1120 C 0.89485 0.52982 0.2505 0.0
C1121 C 0.87582 0.56507 0.25092 0.0
C1122 C 0.86424 0.47896 0.24314 0.0
C1123 C 0.81509 0.46319 0.23533 0.0
H1124 H 0.93155 0.54011 0.25708 0.0
H1125 H 0.87737 0.45084 0.24464 0.0
S1126 S 0.74948 0.542 0.23238 0.0
N1127 N 0.80625 0.58158 0.24211 0.0
N1128 N 0.74971 0.48704 0.22815 0.0
C1129 C 0.7978 0.49962 0.23454 0.0
C1130 C 0.82797 0.55037 0.24237 0.0
C1131 C 0.68361 0.16165 0.966 0.0
C1132 C 0.69431 0.15823 0.94761 0.0
C1133 C 0.70582 0.21039 0.97473 0.0
C1134 C 0.73758 0.25731 0.965 0.0
H1135 H 0.65457 0.12695 0.97326 0.0
H1136 H 0.69222 0.21129 0.98837 0.0
S1137 S 0.78822 0.26691 0.91798 0.0
N1138 N 0.74731 0.20334 0.92112 0.0
N1139 N 0.78838 0.29583 0.9373 0.0
C1140 C 0.75463 0.25336 0.94742 0.0
C1141 C 0.73259 0.20344 0.93866 0.0
C1142 C 0.8707 0.54387 0.9915 0.0
C1143 C 0.87518 0.57096 0.97524 0.0
C1144 C 0.82297 0.51828 1.00106 0.0
C1145 C 0.77802 0.51485 0.99335 0.0
H1146 H 0.90244 0.53807 0.99581 0.0
H1147 H 0.81885 0.49188 1.012 0.0
S1148 S 0.77554 0.598 0.95623 0.0
N1149 N 0.83625 0.60895 0.95599 0.0
N1150 N 0.74554 0.55748 0.97344 0.0
C1151 C 0.78564 0.55261 0.98015 0.0
C1152 C 0.83443 0.58 0.97063 0.0
C1153 C 0.46217 0.31714 0.96385 0.0
C1154 C 0.45621 0.32426 0.9453 0.0
C1155 C 0.50454 0.3123 0.96981 0.0
C1156 C 0.54175 0.31403 0.95733 0.0
H1157 H 0.43654 0.31957 0.97393 0.0
H1158 H 0.51027 0.31144 0.98431 0.0
S1159 S 0.53472 0.31784 0.90696 0.0
N1160 N 0.4847 0.32323 0.91435 0.0
N1161 N 0.56347 0.3125 0.92536 0.0
C1162 C 0.53222 0.31466 0.9386 0.0
C1163 C 0.48968 0.32037 0.93262 0.0
C1164 C 0.53646 0.71765 0.81652 0.0
C1165 C 0.54537 0.69539 0.80092 0.0
C1166 C 0.48554 0.69922 0.82316 0.0
C1167 C 0.44193 0.65892 0.8141 0.0
H1168 H 0.56874 0.75155 0.823 0.0
H1169 H 0.48011 0.72041 0.83424 0.0
S1170 S 0.4447 0.58123 0.77485 0.0
N1171 N 0.50699 0.62528 0.77842 0.0
N1172 N 0.41101 0.59211 0.79055 0.0
C1173 C 0.45064 0.63286 0.79968 0.0
C1174 C 0.50254 0.65083 0.79314 0.0
C1175 C 0.2941 0.87487 0.80529 0.0
C1176 C 0.33207 0.91135 0.79317 0.0
C1177 C 0.30097 0.83618 0.81373 0.0
C1178 C 0.34541 0.83202 0.80996 0.0
H1179 H 0.25789 0.87495 0.8077 0.0
H1180 H 0.2693 0.80666 0.82202 0.0
S1181 S 0.45817 0.92052 0.78058 0.0
N1182 N 0.41794 0.94403 0.77923 0.0
N1183 N 0.42946 0.86933 0.79442 0.0
C1184 C 0.38497 0.86997 0.79873 0.0
C1185 C 0.37868 0.91028 0.79051 0.0
C1186 C 0.13608 0.45939 0.81606 0.0
C1187 C 0.09811 0.45119 0.803 0.0
C1188 C 0.17003 0.50978 0.82293 0.0
C1189 C 0.16796 0.55362 0.81654 0.0
H1190 H 0.14108 0.42705 0.8204 0.0
H1191 H 0.20135 0.51512 0.8319 0.0
S1192 S 0.07202 0.5523 0.78408 0.0
N1193 N 0.05636 0.49004 0.7856 0.0
N1194 N 0.12236 0.58533 0.79782 0.0
C1195 C 0.12788 0.54544 0.80451 0.0
C1196 C 0.09234 0.49395 0.79789 0.0
C1197 C 0.34029 0.88942 0.06548 0.0
C1198 C 0.39073 0.93298 0.06802 0.0
C1199 C 0.33346 0.84282 0.05778 0.0
C1200 C 0.37663 0.83847 0.05192 0.0
H1201 H 0.30604 0.89022 0.07042 0.0
H1202 H 0.29415 0.80892 0.05724 0.0
S1203 S 0.51611 0.94385 0.0528 0.0
N1204 N 0.48431 0.97091 0.06214 0.0
N1205 N 0.4709 0.88309 0.04741 0.0
C1206 C 0.42686 0.88296 0.05298 0.0
C1207 C 0.43405 0.93028 0.06114 0.0
C1208 C 0.11814 0.55172 0.0674 0.0
C1209 C 0.10859 0.50563 0.07663 0.0
C1210 C 0.16601 0.58426 0.05847 0.0
C1211 C 0.20622 0.57214 0.05859 0.0
H1212 H 0.08879 0.56346 0.06734 0.0
H1213 H 0.17255 0.6205 0.05231 0.0
S1214 S 0.19991 0.45393 0.079 0.0
N1215 N 0.14236 0.4477 0.0839 0.0
N1216 N 0.23246 0.50925 0.06734 0.0
C1217 C 0.19644 0.52505 0.06694 0.0
C1218 C 0.14759 0.49165 0.07589 0.0
C1219 C 0.53745 0.66472 0.07635 0.0
C1220 C 0.51728 0.61026 0.07783 0.0
C1221 C 0.51154 0.68462 0.06608 0.0
C1222 C 0.46501 0.65093 0.05665 0.0
H1223 H 0.57176 0.69209 0.08402 0.0
H1224 H 0.52648 0.72664 0.06636 0.0
S1225 S 0.40138 0.50587 0.0534 0.0
N1226 N 0.45181 0.52327 0.06703 0.0
N1227 N 0.40347 0.56105 0.04761 0.0
C1228 C 0.44708 0.5968 0.05665 0.0
C1229 C 0.47304 0.57635 0.06733 0.0
C1230 C 0.14368 0.72005 0.56443 0.0
C1231 C 0.09705 0.67492 0.55922 0.0
C1232 C 0.19237 0.7264 0.55932 0.0
C1233 C 0.19535 0.68786 0.54886 0.0
H1234 H 0.14265 0.74726 0.57415 0.0
H1235 H 0.22744 0.75783 0.56555 0.0
S1236 S 0.08409 0.5696 0.52836 0.0
N1237 N 0.05632 0.59635 0.54052 0.0
N1238 N 0.14808 0.60904 0.53056 0.0
C1239 C 0.14911 0.64713 0.54132 0.0
C1240 C 0.0996 0.64014 0.54677 0.0
C1241 C 0.31914 0.47168 0.60249 0.0
C1242 C 0.31344 0.43106 0.59099 0.0
C1243 C 0.30097 0.50514 0.59735 0.0
C1244 C 0.27725 0.49997 0.58033 0.0
H1245 H 0.3393 0.47885 0.61536 0.0
H1246 H 0.30907 0.53762 0.60632 0.0
S1247 S 0.2445 0.39396 0.54672 0.0
N1248 N 0.27596 0.38267 0.56296 0.0
N1249 N 0.24228 0.44659 0.55316 0.0
C1250 C 0.26774 0.45713 0.56928 0.0
C1251 C 0.28567 0.42234 0.57466 0.0
C1252 C 0.50716 0.85756 0.57185 0.0
C1253 C 0.51424 0.87146 0.59034 0.0
C1254 C 0.47327 0.80521 0.56659 0.0
C1255 C 0.44596 0.76581 0.57975 0.0
H1256 H 0.52443 0.88777 0.56147 0.0
H1257 H 0.46469 0.79671 0.55228 0.0
S1258 S 0.46204 0.78129 0.62979 0.0
N1259 N 0.49903 0.8414 0.62165 0.0
N1260 N 0.43634 0.74284 0.61188 0.0
C1261 C 0.45806 0.77866 0.5982 0.0
C1262 C 0.49184 0.83174 0.60349 0.0
C1263 C 0.26888 0.43756 0.29049 0.0
C1264 C 0.23642 0.41607 0.27515 0.0
C1265 C 0.27749 0.48461 0.29836 0.0
C1266 C 0.25457 0.51205 0.29097 0.0
H1267 H 0.28906 0.41872 0.29615 0.0
H1268 H 0.30552 0.50166 0.30934 0.0
S1269 S 0.1615 0.46974 0.25248 0.0
N1270 N 0.17681 0.42317 0.25419 0.0
N1271 N 0.19433 0.51248 0.26874 0.0
C1272 C 0.21932 0.48933 0.27648 0.0
C1273 C 0.20993 0.44109 0.26861 0.0
C1274 C 0.57523 0.83251 0.29375 0.0
C1275 C 0.59727 0.81862 0.2792 0.0
C1276 C 0.52791 0.79528 0.30197 0.0
C1277 C 0.50085 0.74317 0.29574 0.0
H1278 H 0.59343 0.87295 0.29833 0.0
H1279 H 0.51005 0.80851 0.31201 0.0
S1280 S 0.54527 0.68457 0.26023 0.0
N1281 N 0.59157 0.74725 0.2607 0.0
N1282 N 0.50184 0.67775 0.27588 0.0
C1283 C 0.52459 0.72773 0.28239 0.0
C1284 C 0.57301 0.76538 0.27415 0.0
C1285 C 0.16654 0.72743 0.29808 0.0
C1286 C 0.16204 0.74731 0.28122 0.0
C1287 C 0.21251 0.72788 0.30287 0.0
C1288 C 0.25544 0.74738 0.2908 0.0
H1289 H 0.13367 0.70984 0.3075 0.0
H1290 H 0.21264 0.70909 0.3155 0.0
S1291 S 0.26664 0.81131 0.24623 0.0
N1292 N 0.20675 0.79321 0.25346 0.0
N1293 N 0.29308 0.79294 0.26224 0.0
C1294 C 0.25298 0.77105 0.2745 0.0
C1295 C 0.20626 0.77124 0.26974 0.0
loop_
_geom_bond_atom_site_label_1
_geom_bond_atom_site_label_2
_geom_bond_distance
_geom_bond_site_symmetry_2
_ccdc_geom_bond_type
C0 O1 1.306 . S
C0 O3 1.160 . S
O1 C0 1.306 . S
O1 Cd2 2.228 . S
Cd2 O1 2.228 . S
Cd2 O6 2.273 . S
Cd2 O10 2.277 . S
O3 C0 1.160 . S
O3 Cd4 2.203 1_565 S
Cd4 O3 2.203 1_545 S
Cd4 O6 2.411 1_545 S
Cd4 O7 2.333 . S
Cd4 O8 2.352 . S
Cd4 O12 2.277 . S
Cd4 O13 2.356 . S
C5 O10 1.209 1_545 S
C5 O12 1.226 . S
O6 Cd2 2.273 . S
O6 Cd4 2.411 1_565 S
O6 C9 1.320 1_565 S
O7 Cd4 2.333 . S
O7 C9 1.214 . S
O8 Cd4 2.352 . S
O8 C11 1.258 . S
C9 O6 1.320 1_545 S
C9 O7 1.214 . S
O10 Cd2 2.277 . S
O10 C5 1.209 1_565 S
C11 O8 1.258 . S
C11 O13 1.282 . S
O12 Cd4 2.277 . S
O12 C5 1.226 . S
O13 Cd4 2.356 . S
O13 C11 1.282 . S
C14 O15 1.306 . S
C14 O17 1.160 . S
O15 C14 1.306 . S
O15 Cd16 2.228 . S
Cd16 O15 2.228 . S
Cd16 O20 2.273 . S
Cd16 O24 2.277 . S
O17 C14 1.160 . S
O17 Cd18 2.203 1_655 S
Cd18 O17 2.203 1_455 S
Cd18 O20 2.411 1_455 S
Cd18 O21 2.333 . S
Cd18 O22 2.352 . S
Cd18 O26 2.277 . S
Cd18 O27 2.356 . S
C19 O24 1.209 1_455 S
C19 O26 1.226 . S
O20 Cd16 2.273 . S
O20 Cd18 2.411 1_655 S
O20 C23 1.320 1_655 S
O21 Cd18 2.333 . S
O21 C23 1.214 . S
O22 Cd18 2.352 . S
O22 C25 1.258 . S
C23 O20 1.320 1_455 S
C23 O21 1.214 . S
O24 Cd16 2.277 . S
O24 C19 1.209 1_655 S
C25 O22 1.258 . S
C25 O27 1.282 . S
O26 Cd18 2.277 . S
O26 C19 1.226 . S
O27 Cd18 2.356 . S
O27 C25 1.282 . S
C28 O29 1.306 . S
C28 O31 1.160 . S
O29 C28 1.306 . S
O29 Cd30 2.228 . S
Cd30 O29 2.228 . S
Cd30 O34 2.273 . S
Cd30 O38 2.277 . S
O31 C28 1.160 . S
O31 Cd32 2.203 . S
Cd32 O31 2.203 . S
Cd32 O34 2.411 . S
Cd32 O35 2.333 . S
Cd32 O36 2.352 . S
Cd32 O40 2.277 . S
Cd32 O41 2.356 . S
C33 O38 1.209 . S
C33 O40 1.226 . S
O34 Cd30 2.273 . S
O34 Cd32 2.411 . S
O34 C37 1.320 . S
O35 Cd32 2.333 . S
O35 C37 1.214 . S
O36 Cd32 2.352 . S
O36 C39 1.258 . S
C37 O34 1.320 . S
C37 O35 1.214 . S
O38 Cd30 2.277 . S
O38 C33 1.209 . S
C39 O36 1.258 . S
C39 O41 1.282 . S
O40 Cd32 2.277 . S
O40 C33 1.226 . S
O41 Cd32 2.356 . S
O41 C39 1.282 . S
C42 O43 1.306 . S
C42 O45 1.160 . S
O43 C42 1.306 . S
O43 Cd44 2.228 . S
Cd44 O43 2.228 . S
Cd44 O48 2.273 . S
Cd44 O52 2.277 . S
O45 C42 1.160 . S
O45 Cd46 2.203 . S
Cd46 O45 2.203 . S
Cd46 O48 2.411 . S
Cd46 O49 2.333 1_545 S
Cd46 O50 2.352 1_545 S
Cd46 O54 2.277 1_545 S
Cd46 O55 2.356 1_545 S
C47 O52 1.209 . S
C47 O54 1.226 1_545 S
O48 Cd44 2.273 . S
O48 Cd46 2.411 . S
O48 C51 1.320 . S
O49 Cd46 2.333 1_565 S
O49 C51 1.214 1_565 S
O50 Cd46 2.352 1_565 S
O50 C53 1.258 . S
C51 O48 1.320 . S
C51 O49 1.214 1_545 S
O52 Cd44 2.277 . S
O52 C47 1.209 . S
C53 O50 1.258 . S
C53 O55 1.282 . S
O54 Cd46 2.277 1_565 S
O54 C47 1.226 1_565 S
O55 Cd46 2.356 1_565 S
O55 C53 1.282 . S
C56 O57 1.306 . S
C56 O59 1.160 . S
O57 C56 1.306 . S
O57 Cd58 2.228 . S
Cd58 O57 2.228 . S
Cd58 O62 2.273 . S
Cd58 O66 2.277 . S
O59 C56 1.160 . S
O59 Cd60 2.203 1_655 S
Cd60 O59 2.203 1_455 S
Cd60 O62 2.411 1_455 S
Cd60 O63 2.333 . S
Cd60 O64 2.352 . S
Cd60 O68 2.277 . S
Cd60 O69 2.356 . S
C61 O66 1.209 1_455 S
C61 O68 1.226 . S
O62 Cd58 2.273 . S
O62 Cd60 2.411 1_655 S
O62 C65 1.320 1_655 S
O63 Cd60 2.333 . S
O63 C65 1.214 . S
O64 Cd60 2.352 . S
O64 C67 1.258 . S
C65 O62 1.320 1_455 S
C65 O63 1.214 . S
O66 Cd58 2.277 . S
O66 C61 1.209 1_655 S
C67 O64 1.258 . S
C67 O69 1.282 . S
O68 Cd60 2.277 . S
O68 C61 1.226 . S
O69 Cd60 2.356 . S
O69 C67 1.282 . S
C70 O71 1.306 . S
C70 O73 1.160 . S
O71 C70 1.306 . S
O71 Cd72 2.228 . S
Cd72 O71 2.228 . S
Cd72 O76 2.273 . S
Cd72 O80 2.277 . S
O73 C70 1.160 . S
O73 Cd74 2.203 . S
Cd74 O73 2.203 . S
Cd74 O76 2.411 . S
Cd74 O77 2.333 . S
Cd74 O78 2.352 . S
Cd74 O82 2.277 . S
Cd74 O83 2.356 . S
C75 O80 1.209 . S
C75 O82 1.226 . S
O76 Cd72 2.273 . S
O76 Cd74 2.411 . S
O76 C79 1.320 . S
O77 Cd74 2.333 . S
O77 C79 1.214 . S
O78 Cd74 2.352 . S
O78 C81 1.258 . S
C79 O76 1.320 . S
C79 O77 1.214 . S
O80 Cd72 2.277 . S
O80 C75 1.209 . S
C81 O78 1.258 . S
C81 O83 1.282 . S
O82 Cd74 2.277 . S
O82 C75 1.226 . S
O83 Cd74 2.356 . S
O83 C81 1.282 . S
C84 O85 1.306 . S
C84 O87 1.160 . S
O85 C84 1.306 . S
O85 Cd86 2.228 . S
Cd86 O85 2.228 . S
Cd86 O90 2.273 . S
Cd86 O94 2.277 . S
O87 C84 1.160 . S
O87 Cd88 2.203 . S
Cd88 O87 2.203 . S
Cd88 O90 2.411 . S
Cd88 O91 2.333 . S
Cd88 O92 2.352 . S
Cd88 O96 2.277 . S
Cd88 O97 2.356 . S
C89 O94 1.209 . S
C89 O96 1.226 . S
O90 Cd86 2.273 . S
O90 Cd88 2.411 . S
O90 C93 1.320 . S
O91 Cd88 2.333 . S
O91 C93 1.214 . S
O92 Cd88 2.352 . S
O92 C95 1.258 . S
C93 O90 1.320 . S
C93 O91 1.214 . S
O94 Cd86 2.277 . S
O94 C89 1.209 . S
C95 O92 1.258 . S
C95 O97 1.282 . S
O96 Cd88 2.277 . S
O96 C89 1.226 . S
O97 Cd88 2.356 . S
O97 C95 1.282 . S
C98 O99 1.306 . S
C98 O101 1.160 1_565 S
O99 C98 1.306 . S
O99 Cd100 2.228 1_565 S
Cd100 O99 2.228 1_545 S
Cd100 O104 2.273 . S
Cd100 O108 2.277 . S
O101 C98 1.160 1_545 S
O101 Cd102 2.218 . S
Cd102 O101 2.218 . S
Cd102 O104 2.411 . S
Cd102 O105 2.333 . S
Cd102 O106 2.352 . S
Cd102 O110 2.277 . S
Cd102 O111 2.356 . S
C103 O108 1.209 . S
C103 O110 1.226 . S
O104 Cd100 2.273 . S
O104 Cd102 2.411 . S
O104 C107 1.320 . S
O105 Cd102 2.333 . S
O105 C107 1.214 . S
O106 Cd102 2.352 . S
O106 C109 1.258 . S
C107 O104 1.320 . S
C107 O105 1.214 . S
O108 Cd100 2.277 . S
O108 C103 1.209 . S
C109 O106 1.258 . S
C109 O111 1.282 . S
O110 Cd102 2.277 . S
O110 C103 1.226 . S
O111 Cd102 2.356 . S
O111 C109 1.282 . S
C112 O113 1.306 . S
C112 O115 1.160 1_655 S
O113 C112 1.306 . S
O113 Cd114 2.228 . S
Cd114 O113 2.228 . S
Cd114 O118 2.273 . S
Cd114 O122 2.277 . S
O115 C112 1.160 1_455 S
O115 Cd116 2.203 1_455 S
Cd116 O115 2.203 1_655 S
Cd116 O118 2.411 . S
Cd116 O119 2.333 . S
Cd116 O120 2.352 1_655 S
Cd116 O124 2.277 . S
Cd116 O125 2.356 1_655 S
C117 O122 1.209 . S
C117 O124 1.226 . S
O118 Cd114 2.273 . S
O118 Cd116 2.411 . S
O118 C121 1.320 . S
O119 Cd116 2.333 . S
O119 C121 1.214 . S
O120 Cd116 2.352 1_455 S
O120 C123 1.258 . S
C121 O118 1.320 . S
C121 O119 1.214 . S
O122 Cd114 2.277 . S
O122 C117 1.209 . S
C123 O120 1.258 . S
C123 O125 1.282 . S
O124 Cd116 2.277 . S
O124 C117 1.226 . S
O125 Cd116 2.356 1_455 S
O125 C123 1.282 . S
C126 O127 1.306 . S
C126 O129 1.160 . S
O127 C126 1.306 . S
O127 Cd128 2.228 1_455 S
Cd128 O127 2.228 1_655 S
Cd128 O132 2.273 . S
Cd128 O136 2.277 . S
O129 C126 1.160 . S
O129 Cd130 2.203 1_455 S
Cd130 O129 2.203 1_655 S
Cd130 O132 2.411 . S
Cd130 O133 2.333 . S
Cd130 O134 2.352 1_655 S
Cd130 O138 2.277 . S
Cd130 O139 2.356 . S
C131 O136 1.209 . S
C131 O138 1.226 . S
O132 Cd128 2.273 . S
O132 Cd130 2.411 . S
O132 C135 1.320 . S
O133 Cd130 2.333 . S
O133 C135 1.214 . S
O134 Cd130 2.352 1_455 S
O134 C137 1.258 1_455 S
C135 O132 1.320 . S
C135 O133 1.214 . S
O136 Cd128 2.277 . S
O136 C131 1.209 . S
C137 O134 1.258 1_655 S
C137 O139 1.282 . S
O138 Cd130 2.277 . S
O138 C131 1.226 . S
O139 Cd130 2.356 . S
O139 C137 1.282 . S
C140 O141 1.306 . S
C140 O143 1.160 . S
O141 C140 1.306 . S
O141 Cd142 2.228 . S
Cd142 O141 2.228 . S
Cd142 O146 2.273 . S
Cd142 O150 2.277 . S
O143 C140 1.160 . S
O143 Cd144 2.203 . S
Cd144 O143 2.203 . S
Cd144 O146 2.411 . S
Cd144 O147 2.333 . S
Cd144 O148 2.352 . S
Cd144 O152 2.277 . S
Cd144 O153 2.356 . S
C145 O150 1.209 . S
C145 O152 1.226 . S
O146 Cd142 2.273 . S
O146 Cd144 2.411 . S
O146 C149 1.320 . S
O147 Cd144 2.333 . S
O147 C149 1.214 . S
O148 Cd144 2.352 . S
O148 C151 1.258 . S
C149 O146 1.320 . S
C149 O147 1.214 . S
O150 Cd142 2.277 . S
O150 C145 1.209 . S
C151 O148 1.258 . S
C151 O153 1.282 . S
O152 Cd144 2.277 . S
O152 C145 1.226 . S
O153 Cd144 2.356 . S
O153 C151 1.282 . S
C154 O155 1.306 . S
C154 O157 1.160 . S
O155 C154 1.306 . S
O155 Cd156 2.228 . S
Cd156 O155 2.228 . S
Cd156 O160 2.273 . S
Cd156 O164 2.277 . S
O157 C154 1.160 . S
O157 Cd158 2.203 . S
Cd158 O157 2.203 . S
Cd158 O160 2.411 . S
Cd158 O161 2.333 . S
Cd158 O162 2.352 1_545 S
Cd158 O166 2.277 . S
Cd158 O167 2.356 1_545 S
C159 O164 1.209 . S
C159 O166 1.226 . S
O160 Cd156 2.273 . S
O160 Cd158 2.411 . S
O160 C163 1.320 . S
O161 Cd158 2.333 . S
O161 C163 1.214 . S
O162 Cd158 2.352 1_565 S
O162 C165 1.258 . S
C163 O160 1.320 . S
C163 O161 1.214 . S
O164 Cd156 2.277 . S
O164 C159 1.209 . S
C165 O162 1.258 . S
C165 O167 1.282 . S
O166 Cd158 2.277 . S
O166 C159 1.226 . S
O167 Cd158 2.356 1_565 S
O167 C165 1.282 . S
C168 O169 1.306 . S
C168 O171 1.160 . S
O169 C168 1.306 . S
O169 Cd170 2.228 1_655 S
Cd170 O169 2.228 1_455 S
Cd170 O174 2.273 . S
Cd170 O178 2.277 . S
O171 C168 1.160 . S
O171 Cd172 2.203 1_655 S
Cd172 O171 2.203 1_455 S
Cd172 O174 2.411 . S
Cd172 O175 2.333 . S
Cd172 O176 2.352 . S
Cd172 O180 2.277 . S
Cd172 O181 2.356 . S
C173 O178 1.209 . S
C173 O180 1.226 . S
O174 Cd170 2.273 . S
O174 Cd172 2.411 . S
O174 C177 1.320 . S
O175 Cd172 2.333 . S
O175 C177 1.214 . S
O176 Cd172 2.352 . S
O176 C179 1.258 . S
C177 O174 1.320 . S
C177 O175 1.214 . S
O178 Cd170 2.277 . S
O178 C173 1.209 . S
C179 O176 1.258 . S
C179 O181 1.282 . S
O180 Cd172 2.277 . S
O180 C173 1.226 . S
O181 Cd172 2.356 . S
O181 C179 1.282 . S
C182 O183 1.306 . S
C182 O185 1.160 . S
O183 C182 1.306 . S
O183 Cd184 2.228 . S
Cd184 O183 2.228 . S
Cd184 O188 2.273 . S
Cd184 O192 2.277 . S
O185 C182 1.160 . S
O185 Cd186 2.203 . S
Cd186 O185 2.203 . S
Cd186 O188 2.411 . S
Cd186 O189 2.333 . S
Cd186 O190 2.352 . S
Cd186 O194 2.277 . S
Cd186 O195 2.356 . S
C187 O192 1.209 . S
C187 O194 1.226 . S
O188 Cd184 2.273 . S
O188 Cd186 2.411 . S
O188 C191 1.320 . S
O189 Cd186 2.333 . S
O189 C191 1.214 . S
O190 Cd186 2.352 . S
O190 C193 1.258 . S
C191 O188 1.320 . S
C191 O189 1.214 . S
O192 Cd184 2.277 . S
O192 C187 1.209 . S
C193 O190 1.258 . S
C193 O195 1.282 . S
O194 Cd186 2.277 . S
O194 C187 1.226 . S
O195 Cd186 2.356 . S
O195 C193 1.282 . S
C196 O197 1.306 . S
C196 O199 1.160 . S
O197 C196 1.306 . S
O197 Cd198 2.228 1_545 S
Cd198 O197 2.228 1_565 S
Cd198 O202 2.273 . S
Cd198 O206 2.277 . S
O199 C196 1.160 . S
O199 Cd200 2.203 1_545 S
Cd200 O199 2.203 1_565 S
Cd200 O202 2.411 . S
Cd200 O203 2.333 . S
Cd200 O204 2.352 1_565 S
Cd200 O208 2.277 . S
Cd200 O209 2.356 . S
C201 O206 1.209 . S
C201 O208 1.226 . S
O202 Cd198 2.273 . S
O202 Cd200 2.411 . S
O202 C205 1.320 . S
O203 Cd200 2.333 . S
O203 C205 1.214 . S
O204 Cd200 2.352 1_545 S
O204 C207 1.258 1_545 S
C205 O202 1.320 . S
C205 O203 1.214 . S
O206 Cd198 2.277 . S
O206 C201 1.209 . S
C207 O204 1.258 1_565 S
C207 O209 1.282 . S
O208 Cd200 2.277 . S
O208 C201 1.226 . S
O209 Cd200 2.356 . S
O209 C207 1.282 . S
C210 O211 1.306 . S
C210 O213 1.160 . S
O211 C210 1.306 . S
O211 Cd212 2.228 . S
Cd212 O211 2.228 . S
Cd212 O216 2.273 . S
Cd212 O220 2.277 . S
O213 C210 1.160 . S
O213 Cd214 2.203 . S
Cd214 O213 2.203 . S
Cd214 O216 2.411 . S
Cd214 O217 2.333 . S
Cd214 O218 2.352 . S
Cd214 O222 2.277 . S
Cd214 O223 2.356 . S
C215 O220 1.209 . S
C215 O222 1.226 . S
O216 Cd212 2.273 . S
O216 Cd214 2.411 . S
O216 C219 1.320 . S
O217 Cd214 2.333 . S
O217 C219 1.214 . S
O218 Cd214 2.352 . S
O218 C221 1.258 . S
C219 O216 1.320 . S
C219 O217 1.214 . S
O220 Cd212 2.277 . S
O220 C215 1.209 . S
C221 O218 1.258 . S
C221 O223 1.282 . S
O222 Cd214 2.277 . S
O222 C215 1.226 . S
O223 Cd214 2.356 . S
O223 C221 1.282 . S
C224 O225 1.306 . S
C224 O227 1.160 1_565 S
O225 C224 1.306 . S
O225 Cd226 2.228 . S
Cd226 O225 2.228 . S
Cd226 O230 2.273 . S
Cd226 O234 2.277 . S
O227 C224 1.160 1_545 S
O227 Cd228 2.203 1_545 S
Cd228 O227 2.203 1_565 S
Cd228 O230 2.411 . S
Cd228 O231 2.333 . S
Cd228 O232 2.352 1_565 S
Cd228 O236 2.277 . S
Cd228 O237 2.356 1_565 S
C229 O234 1.209 . S
C229 O236 1.226 . S
O230 Cd226 2.273 . S
O230 Cd228 2.411 . S
O230 C233 1.320 . S
O231 Cd228 2.333 . S
O231 C233 1.214 . S
O232 Cd228 2.352 1_545 S
O232 C235 1.258 . S
C233 O230 1.320 . S
C233 O231 1.214 . S
O234 Cd226 2.277 . S
O234 C229 1.209 . S
C235 O232 1.258 . S
C235 O237 1.282 . S
O236 Cd228 2.277 . S
O236 C229 1.226 . S
O237 Cd228 2.356 1_545 S
O237 C235 1.282 . S
C238 O239 1.306 . S
C238 O241 1.160 . S
O239 C238 1.306 . S
O239 Cd240 2.228 1_655 S
Cd240 O239 2.228 1_455 S
Cd240 O244 2.273 . S
Cd240 O248 2.277 . S
O241 C238 1.160 . S
O241 Cd242 2.203 1_655 S
Cd242 O241 2.203 1_455 S
Cd242 O244 2.411 . S
Cd242 O245 2.333 . S
Cd242 O246 2.352 . S
Cd242 O250 2.277 . S
Cd242 O251 2.356 . S
C243 O248 1.209 . S
C243 O250 1.226 . S
O244 Cd240 2.273 . S
O244 Cd242 2.411 . S
O244 C247 1.320 . S
O245 Cd242 2.333 . S
O245 C247 1.214 . S
O246 Cd242 2.352 . S
O246 C249 1.258 . S
C247 O244 1.320 . S
C247 O245 1.214 . S
O248 Cd240 2.277 . S
O248 C243 1.209 . S
C249 O246 1.258 . S
C249 O251 1.282 . S
O250 Cd242 2.277 . S
O250 C243 1.226 . S
O251 Cd242 2.356 . S
O251 C249 1.282 . S
Zn252 O258 1.920 1_455 S
Zn252 O264 1.898 1_445 S
Zn252 O267 1.905 . S
Zn253 O261 1.905 1_445 S
Zn253 O262 1.898 . S
Zn253 O270 1.920 1_455 S
Zn254 O257 2.080 . S
Zn254 O260 2.114 1_545 S
Zn254 O263 2.120 . S
Zn254 O265 2.120 1_445 S
Zn254 O266 2.114 . S
Zn254 O269 2.080 1_455 S
C255 O260 1.166 . S
C255 O261 1.182 1_455 S
C256 O262 1.167 . S
C256 O263 1.299 . S
O257 Zn254 2.080 . S
O257 C271 1.305 1_455 S
O258 Zn252 1.920 1_655 S
O258 C271 1.234 . S
C259 O264 1.167 . S
C259 O265 1.299 . S
O260 Zn254 2.114 1_565 S
O260 C255 1.166 . S
O261 Zn253 1.905 1_665 S
O261 C255 1.182 1_655 S
O262 Zn253 1.898 . S
O262 C256 1.167 . S
O263 Zn254 2.120 . S
O263 C256 1.299 . S
O264 Zn252 1.898 1_665 S
O264 C259 1.167 . S
O265 Zn254 2.120 1_665 S
O265 C259 1.299 . S
O266 Zn254 2.114 . S
O266 C268 1.166 . S
O267 Zn252 1.905 . S
O267 C268 1.182 . S
C268 O266 1.166 . S
C268 O267 1.182 . S
O269 Zn254 2.080 1_655 S
O269 C272 1.305 . S
O270 Zn253 1.920 1_655 S
O270 C272 1.234 . S
C271 O257 1.305 1_655 S
C271 O258 1.234 . S
C272 O269 1.305 . S
C272 O270 1.234 . S
Zn273 O279 1.920 1_545 S
Zn273 O285 1.898 . S
Zn273 O288 1.905 1_445 S
Zn274 O282 1.905 . S
Zn274 O283 1.898 1_445 S
Zn274 O291 1.920 1_545 S
Zn275 O278 2.080 1_545 S
Zn275 O281 2.114 . S
Zn275 O284 2.120 1_445 S
Zn275 O286 2.120 . S
Zn275 O287 2.114 1_455 S
Zn275 O290 2.080 . S
C276 O281 1.166 . S
C276 O282 1.182 . S
C277 O283 1.167 . S
C277 O284 1.299 . S
O278 Zn275 2.080 1_565 S
O278 C292 1.305 . S
O279 Zn273 1.920 1_565 S
O279 C292 1.234 . S
C280 O285 1.167 . S
C280 O286 1.299 . S
O281 Zn275 2.114 . S
O281 C276 1.166 . S
O282 Zn274 1.905 . S
O282 C276 1.182 . S
O283 Zn274 1.898 1_665 S
O283 C277 1.167 . S
O284 Zn275 2.120 1_665 S
O284 C277 1.299 . S
O285 Zn273 1.898 . S
O285 C280 1.167 . S
O286 Zn275 2.120 . S
O286 C280 1.299 . S
O287 Zn275 2.114 1_655 S
O287 C289 1.166 1_545 S
O288 Zn273 1.905 1_665 S
O288 C289 1.182 . S
C289 O287 1.166 1_565 S
C289 O288 1.182 . S
O290 Zn275 2.080 . S
O290 C293 1.305 1_545 S
O291 Zn274 1.920 1_565 S
O291 C293 1.234 . S
C292 O278 1.305 . S
C292 O279 1.234 . S
C293 O290 1.305 1_565 S
C293 O291 1.234 . S
Zn294 O300 1.920 1_545 S
Zn294 O306 1.898 . S
Zn294 O309 1.905 1_445 S
Zn295 O303 1.905 . S
Zn295 O304 1.898 1_445 S
Zn295 O312 1.931 . S
Zn296 O299 2.080 1_545 S
Zn296 O302 2.114 . S
Zn296 O305 2.120 1_445 S
Zn296 O307 2.120 . S
Zn296 O308 2.114 1_455 S
Zn296 O311 2.080 . S
C297 O302 1.166 . S
C297 O303 1.182 . S
C298 O304 1.167 . S
C298 O305 1.299 . S
O299 Zn296 2.080 1_565 S
O299 C313 1.305 . S
O300 Zn294 1.920 1_565 S
O300 C313 1.234 . S
C301 O306 1.167 . S
C301 O307 1.299 . S
O302 Zn296 2.114 . S
O302 C297 1.166 . S
O303 Zn295 1.905 . S
O303 C297 1.182 . S
O304 Zn295 1.898 1_665 S
O304 C298 1.167 . S
O305 Zn296 2.120 1_665 S
O305 C298 1.299 . S
O306 Zn294 1.898 . S
O306 C301 1.167 . S
O307 Zn296 2.120 . S
O307 C301 1.299 . S
O308 Zn296 2.114 1_655 S
O308 C310 1.165 1_545 S
O309 Zn294 1.905 1_665 S
O309 C310 1.184 . S
C310 O308 1.165 1_565 S
C310 O309 1.184 . S
O311 Zn296 2.080 . S
O311 C314 1.305 . S
O312 Zn295 1.931 . S
O312 C314 1.233 . S
C313 O299 1.305 . S
C313 O300 1.234 . S
C314 O311 1.305 . S
C314 O312 1.233 . S
Zn315 O321 1.920 1_455 S
Zn315 O327 1.898 1_445 S
Zn315 O330 1.905 . S
Zn316 O324 1.905 1_445 S
Zn316 O325 1.898 . S
Zn316 O333 1.920 1_455 S
Zn317 O320 2.080 . S
Zn317 O323 2.114 1_545 S
Zn317 O326 2.120 . S
Zn317 O328 2.120 1_445 S
Zn317 O329 2.114 . S
Zn317 O332 2.080 1_455 S
C318 O323 1.166 1_655 S
C318 O324 1.182 . S
C319 O325 1.167 . S
C319 O326 1.299 . S
O320 Zn317 2.080 . S
O320 C334 1.307 . S
O321 Zn315 1.920 1_655 S
O321 C334 1.235 1_655 S
C322 O327 1.167 . S
C322 O328 1.299 . S
O323 Zn317 2.114 1_565 S
O323 C318 1.166 1_455 S
O324 Zn316 1.905 1_665 S
O324 C318 1.182 . S
O325 Zn316 1.898 . S
O325 C319 1.167 . S
O326 Zn317 2.120 . S
O326 C319 1.299 . S
O327 Zn315 1.898 1_665 S
O327 C322 1.167 . S
O328 Zn317 2.120 1_665 S
O328 C322 1.299 . S
O329 Zn317 2.114 . S
O329 C331 1.166 . S
O330 Zn315 1.905 . S
O330 C331 1.182 . S
C331 O329 1.166 . S
C331 O330 1.182 . S
O332 Zn317 2.080 1_655 S
O332 C335 1.305 . S
O333 Zn316 1.920 1_655 S
O333 C335 1.234 . S
C334 O320 1.307 . S
C334 O321 1.235 1_455 S
C335 O332 1.305 . S
C335 O333 1.234 . S
Zn336 O342 1.920 . S
Zn336 O348 1.898 . S
Zn336 O351 1.905 . S
Zn337 O345 1.905 . S
Zn337 O346 1.898 . S
Zn337 O354 1.920 . S
Zn338 O341 2.080 . S
Zn338 O344 2.114 . S
Zn338 O347 2.120 . S
Zn338 O349 2.120 . S
Zn338 O350 2.114 . S
Zn338 O353 2.080 . S
C339 O344 1.166 . S
C339 O345 1.182 . S
C340 O346 1.167 . S
C340 O347 1.299 . S
O341 Zn338 2.080 . S
O341 C355 1.305 . S
O342 Zn336 1.920 . S
O342 C355 1.234 . S
C343 O348 1.167 . S
C343 O349 1.299 . S
O344 Zn338 2.114 . S
O344 C339 1.166 . S
O345 Zn337 1.905 . S
O345 C339 1.182 . S
O346 Zn337 1.898 . S
O346 C340 1.167 . S
O347 Zn338 2.120 . S
O347 C340 1.299 . S
O348 Zn336 1.898 . S
O348 C343 1.167 . S
O349 Zn338 2.120 . S
O349 C343 1.299 . S
O350 Zn338 2.114 . S
O350 C352 1.166 . S
O351 Zn336 1.905 . S
O351 C352 1.182 . S
C352 O350 1.166 . S
C352 O351 1.182 . S
O353 Zn338 2.080 . S
O353 C356 1.305 . S
O354 Zn337 1.920 . S
O354 C356 1.234 . S
C355 O341 1.305 . S
C355 O342 1.234 . S
C356 O353 1.305 . S
C356 O354 1.234 . S
Zn357 O363 1.920 . S
Zn357 O369 1.898 . S
Zn357 O372 1.905 . S
Zn358 O366 1.905 . S
Zn358 O367 1.898 . S
Zn358 O375 1.920 . S
Zn359 O362 2.080 . S
Zn359 O365 2.114 . S
Zn359 O368 2.120 . S
Zn359 O370 2.120 . S
Zn359 O371 2.114 . S
Zn359 O374 2.080 . S
C360 O365 1.166 . S
C360 O366 1.182 . S
C361 O367 1.167 . S
C361 O368 1.299 . S
O362 Zn359 2.080 . S
O362 C376 1.305 . S
O363 Zn357 1.920 . S
O363 C376 1.234 . S
C364 O369 1.167 . S
C364 O370 1.299 . S
O365 Zn359 2.114 . S
O365 C360 1.166 . S
O366 Zn358 1.905 . S
O366 C360 1.182 . S
O367 Zn358 1.898 . S
O367 C361 1.167 . S
O368 Zn359 2.120 . S
O368 C361 1.299 . S
O369 Zn357 1.898 . S
O369 C364 1.167 . S
O370 Zn359 2.120 . S
O370 C364 1.299 . S
O371 Zn359 2.114 . S
O371 C373 1.166 . S
O372 Zn357 1.905 . S
O372 C373 1.182 . S
C373 O371 1.166 . S
C373 O372 1.182 . S
O374 Zn359 2.080 . S
O374 C377 1.305 . S
O375 Zn358 1.920 . S
O375 C377 1.234 . S
C376 O362 1.305 . S
C376 O363 1.234 . S
C377 O374 1.305 . S
C377 O375 1.234 . S
Zn378 O384 1.920 . S
Zn378 O390 1.898 . S
Zn378 O393 1.905 . S
Zn379 O387 1.905 . S
Zn379 O388 1.898 . S
Zn379 O396 1.920 . S
Zn380 O383 2.080 . S
Zn380 O386 2.114 . S
Zn380 O389 2.120 . S
Zn380 O391 2.120 . S
Zn380 O392 2.114 . S
Zn380 O395 2.080 . S
C381 O386 1.166 . S
C381 O387 1.182 . S
C382 O388 1.167 . S
C382 O389 1.299 . S
O383 Zn380 2.080 . S
O383 C397 1.305 . S
O384 Zn378 1.920 . S
O384 C397 1.234 . S
C385 O390 1.167 . S
C385 O391 1.299 . S
O386 Zn380 2.114 . S
O386 C381 1.166 . S
O387 Zn379 1.905 . S
O387 C381 1.182 . S
O388 Zn379 1.898 . S
O388 C382 1.167 . S
O389 Zn380 2.120 . S
O389 C382 1.299 . S
O390 Zn378 1.898 . S
O390 C385 1.167 . S
O391 Zn380 2.120 . S
O391 C385 1.299 . S
O392 Zn380 2.114 . S
O392 C394 1.166 . S
O393 Zn378 1.905 . S
O393 C394 1.182 . S
C394 O392 1.166 . S
C394 O393 1.182 . S
O395 Zn380 2.080 . S
O395 C398 1.305 . S
O396 Zn379 1.920 . S
O396 C398 1.234 . S
C397 O383 1.305 . S
C397 O384 1.234 . S
C398 O395 1.305 . S
C398 O396 1.234 . S
Zn399 O405 1.920 . S
Zn399 O411 1.898 . S
Zn399 O414 1.905 . S
Zn400 O408 1.905 . S
Zn400 O409 1.898 . S
Zn400 O417 1.920 . S
Zn401 O404 2.091 . S
Zn401 O407 2.114 . S
Zn401 O410 2.120 . S
Zn401 O412 2.124 . S
Zn401 O413 2.121 . S
Zn401 O416 2.080 . S
C402 O407 1.166 . S
C402 O408 1.182 . S
C403 O409 1.167 . S
C403 O410 1.299 . S
O404 Zn401 2.091 . S
O404 C418 1.290 1_556 S
O405 Zn399 1.920 . S
O405 C418 1.234 . S
C406 O411 1.167 . S
C406 O412 1.293 1_554 S
O407 Zn401 2.114 . S
O407 C402 1.166 . S
O408 Zn400 1.905 . S
O408 C402 1.182 . S
O409 Zn400 1.898 . S
O409 C403 1.167 . S
O410 Zn401 2.120 . S
O410 C403 1.299 . S
O411 Zn399 1.898 . S
O411 C406 1.167 . S
O412 Zn401 2.124 . S
O412 C406 1.293 1_556 S
O413 Zn401 2.121 . S
O413 C415 1.157 1_556 S
O414 Zn399 1.905 . S
O414 C415 1.182 . S
C415 O413 1.157 1_554 S
C415 O414 1.182 . S
O416 Zn401 2.080 . S
O416 C419 1.305 . S
O417 Zn400 1.920 . S
O417 C419 1.234 . S
C418 O404 1.290 1_554 S
C418 O405 1.234 . S
C419 O416 1.305 . S
C419 O417 1.234 . S
Zn420 O426 1.920 . S
Zn420 O432 1.898 . S
Zn420 O435 1.905 . S
Zn421 O429 1.905 . S
Zn421 O430 1.898 . S
Zn421 O438 1.920 . S
Zn422 O425 2.080 . S
Zn422 O428 2.114 . S
Zn422 O431 2.120 . S
Zn422 O433 2.120 . S
Zn422 O434 2.114 . S
Zn422 O437 2.080 . S
C423 O428 1.166 . S
C423 O429 1.182 . S
C424 O430 1.167 . S
C424 O431 1.299 . S
O425 Zn422 2.080 . S
O425 C439 1.305 . S
O426 Zn420 1.920 . S
O426 C439 1.234 . S
C427 O432 1.167 . S
C427 O433 1.299 . S
O428 Zn422 2.114 . S
O428 C423 1.166 . S
O429 Zn421 1.905 . S
O429 C423 1.182 . S
O430 Zn421 1.898 . S
O430 C424 1.167 . S
O431 Zn422 2.120 . S
O431 C424 1.299 . S
O432 Zn420 1.898 . S
O432 C427 1.167 . S
O433 Zn422 2.120 . S
O433 C427 1.299 . S
O434 Zn422 2.114 . S
O434 C436 1.166 . S
O435 Zn420 1.905 . S
O435 C436 1.182 . S
C436 O434 1.166 . S
C436 O435 1.182 . S
O437 Zn422 2.080 . S
O437 C440 1.305 . S
O438 Zn421 1.920 . S
O438 C440 1.234 . S
C439 O425 1.305 . S
C439 O426 1.234 . S
C440 O437 1.305 . S
C440 O438 1.234 . S
Zn441 O447 1.920 . S
Zn441 O453 1.898 . S
Zn441 O456 1.905 . S
Zn442 O450 1.905 . S
Zn442 O451 1.898 . S
Zn442 O459 1.920 . S
Zn443 O446 2.080 . S
Zn443 O449 2.121 . S
Zn443 O452 2.124 . S
Zn443 O454 2.120 . S
Zn443 O455 2.114 . S
Zn443 O458 2.088 . S
C444 O449 1.156 1_556 S
C444 O450 1.182 . S
C445 O451 1.167 . S
C445 O452 1.293 1_556 S
O446 Zn443 2.080 . S
O446 C460 1.305 . S
O447 Zn441 1.920 . S
O447 C460 1.234 . S
C448 O453 1.167 . S
C448 O454 1.299 . S
O449 Zn443 2.121 . S
O449 C444 1.156 1_554 S
O450 Zn442 1.905 . S
O450 C444 1.182 . S
O451 Zn442 1.898 . S
O451 C445 1.167 . S
O452 Zn443 2.124 . S
O452 C445 1.293 1_554 S
O453 Zn441 1.898 . S
O453 C448 1.167 . S
O454 Zn443 2.120 . S
O454 C448 1.299 . S
O455 Zn443 2.114 . S
O455 C457 1.166 . S
O456 Zn441 1.905 . S
O456 C457 1.182 . S
C457 O455 1.166 . S
C457 O456 1.182 . S
O458 Zn443 2.088 . S
O458 C461 1.294 1_554 S
O459 Zn442 1.920 . S
O459 C461 1.234 . S
C460 O446 1.305 . S
C460 O447 1.234 . S
C461 O458 1.294 1_556 S
C461 O459 1.234 . S
Zn462 O468 1.920 . S
Zn462 O474 1.898 . S
Zn462 O477 1.905 . S
Zn463 O471 1.905 . S
Zn463 O472 1.898 . S
Zn463 O480 1.920 . S
Zn464 O467 2.080 . S
Zn464 O470 2.114 . S
Zn464 O473 2.120 . S
Zn464 O475 2.120 . S
Zn464 O476 2.114 . S
Zn464 O479 2.080 . S
C465 O470 1.166 . S
C465 O471 1.182 . S
C466 O472 1.167 . S
C466 O473 1.299 . S
O467 Zn464 2.080 . S
O467 C481 1.305 . S
O468 Zn462 1.920 . S
O468 C481 1.234 . S
C469 O474 1.167 . S
C469 O475 1.299 . S
O470 Zn464 2.114 . S
O470 C465 1.166 . S
O471 Zn463 1.905 . S
O471 C465 1.182 . S
O472 Zn463 1.898 . S
O472 C466 1.167 . S
O473 Zn464 2.120 . S
O473 C466 1.299 . S
O474 Zn462 1.898 . S
O474 C469 1.167 . S
O475 Zn464 2.120 . S
O475 C469 1.299 . S
O476 Zn464 2.114 . S
O476 C478 1.166 . S
O477 Zn462 1.905 . S
O477 C478 1.182 . S
C478 O476 1.166 . S
C478 O477 1.182 . S
O479 Zn464 2.080 . S
O479 C482 1.305 . S
O480 Zn463 1.920 . S
O480 C482 1.234 . S
C481 O467 1.305 . S
C481 O468 1.234 . S
C482 O479 1.305 . S
C482 O480 1.234 . S
Zn483 O489 1.920 . S
Zn483 O495 1.898 . S
Zn483 O498 1.905 . S
Zn484 O492 1.905 . S
Zn484 O493 1.898 . S
Zn484 O501 1.920 . S
Zn485 O488 2.080 . S
Zn485 O491 2.114 . S
Zn485 O494 2.120 . S
Zn485 O496 2.120 . S
Zn485 O497 2.114 . S
Zn485 O500 2.080 . S
C486 O491 1.166 . S
C486 O492 1.182 . S
C487 O493 1.167 . S
C487 O494 1.299 . S
O488 Zn485 2.080 . S
O488 C502 1.305 . S
O489 Zn483 1.920 . S
O489 C502 1.234 . S
C490 O495 1.167 . S
C490 O496 1.299 . S
O491 Zn485 2.114 . S
O491 C486 1.166 . S
O492 Zn484 1.905 . S
O492 C486 1.182 . S
O493 Zn484 1.898 . S
O493 C487 1.167 . S
O494 Zn485 2.120 . S
O494 C487 1.299 . S
O495 Zn483 1.898 . S
O495 C490 1.167 . S
O496 Zn485 2.120 . S
O496 C490 1.299 . S
O497 Zn485 2.114 . S
O497 C499 1.166 . S
O498 Zn483 1.905 . S
O498 C499 1.182 . S
C499 O497 1.166 . S
C499 O498 1.182 . S
O500 Zn485 2.080 . S
O500 C503 1.305 . S
O501 Zn484 1.920 . S
O501 C503 1.234 . S
C502 O488 1.305 . S
C502 O489 1.234 . S
C503 O500 1.305 . S
C503 O501 1.234 . S
C504 C505 1.369 . S
C504 C506 1.419 . S
C504 H508 0.930 . S
C505 C504 1.369 . S
C505 C514 1.429 . S
C506 C504 1.419 . S
C506 C507 1.363 . S
C506 H509 0.929 . S
C507 C506 1.363 . S
C507 C513 1.428 . S
H508 C504 0.930 . S
H509 C506 0.929 . S
S510 N511 1.613 . S
S510 N512 1.610 . S
N511 S510 1.613 . S
N511 C514 1.350 . S
N512 S510 1.610 . S
N512 C513 1.351 . S
C513 C507 1.428 . S
C513 N512 1.351 . S
C513 C514 1.434 . S
C514 C505 1.429 . S
C514 N511 1.350 . S
C514 C513 1.434 . S
C515 C516 1.369 1_565 S
C515 C517 1.419 . S
C515 H519 0.930 . S
C516 C515 1.369 1_545 S
C516 C525 1.429 . S
C517 C515 1.419 . S
C517 C518 1.363 1_565 S
C517 H520 0.929 . S
C518 C517 1.363 1_545 S
C518 C524 1.428 . S
H519 C515 0.930 . S
H520 C517 0.929 . S
S521 N522 1.613 . S
S521 N523 1.610 . S
N522 S521 1.613 . S
N522 C525 1.350 . S
N523 S521 1.610 . S
N523 C524 1.351 . S
C524 C518 1.428 . S
C524 N523 1.351 . S
C524 C525 1.434 . S
C525 C516 1.429 . S
C525 N522 1.350 . S
C525 C524 1.434 . S
C526 C527 1.369 . S
C526 C528 1.419 . S
C526 H530 0.930 . S
C527 C526 1.369 . S
C527 C536 1.429 1_455 S
C528 C526 1.419 . S
C528 C529 1.363 . S
C528 H531 0.929 . S
C529 C528 1.363 . S
C529 C535 1.428 1_455 S
H530 C526 0.930 . S
H531 C528 0.929 . S
S532 N533 1.613 . S
S532 N534 1.610 . S
N533 S532 1.613 . S
N533 C536 1.350 . S
N534 S532 1.610 . S
N534 C535 1.351 . S
C535 C529 1.428 1_655 S
C535 N534 1.351 . S
C535 C536 1.434 . S
C536 C527 1.429 1_655 S
C536 N533 1.350 . S
C536 C535 1.434 . S
C537 C538 1.369 . S
C537 C539 1.419 . S
C537 H541 0.930 . S
C538 C537 1.369 . S
C538 C547 1.429 . S
C539 C537 1.419 . S
C539 C540 1.363 . S
C539 H542 0.929 . S
C540 C539 1.363 . S
C540 C546 1.428 . S
H541 C537 0.930 . S
H542 C539 0.929 . S
S543 N544 1.613 . S
S543 N545 1.610 . S
N544 S543 1.613 . S
N544 C547 1.350 . S
N545 S543 1.610 . S
N545 C546 1.351 . S
C546 C540 1.428 . S
C546 N545 1.351 . S
C546 C547 1.434 . S
C547 C538 1.429 . S
C547 N544 1.350 . S
C547 C546 1.434 . S
C548 C549 1.369 . S
C548 C550 1.419 . S
C548 H552 0.930 . S
C549 C548 1.369 . S
C549 C558 1.429 1_545 S
C550 C548 1.419 . S
C550 C551 1.363 1_545 S
C550 H553 0.929 . S
C551 C550 1.363 1_565 S
C551 C557 1.428 . S
H552 C548 0.930 . S
H553 C550 0.929 . S
S554 N555 1.613 . S
S554 N556 1.610 . S
N555 S554 1.613 . S
N555 C558 1.350 . S
N556 S554 1.610 . S
N556 C557 1.351 . S
C557 C551 1.428 . S
C557 N556 1.351 . S
C557 C558 1.434 . S
C558 C549 1.429 1_565 S
C558 N555 1.350 . S
C558 C557 1.434 . S
C559 C560 1.369 . S
C559 C561 1.419 . S
C559 H563 0.930 . S
C560 C559 1.369 . S
C560 C569 1.429 1_455 S
C561 C559 1.419 . S
C561 C562 1.363 . S
C561 H564 0.929 . S
C562 C561 1.363 . S
C562 C568 1.428 . S
H563 C559 0.930 . S
H564 C561 0.929 . S
S565 N566 1.613 . S
S565 N567 1.610 . S
N566 S565 1.613 . S
N566 C569 1.350 . S
N567 S565 1.610 . S
N567 C568 1.351 1_655 S
C568 C562 1.428 . S
C568 N567 1.351 1_455 S
C568 C569 1.434 1_455 S
C569 C560 1.429 1_655 S
C569 N566 1.350 . S
C569 C568 1.434 1_655 S
C570 C571 1.369 . S
C570 C572 1.419 . S
C570 H574 0.930 . S
C571 C570 1.369 . S
C571 C580 1.429 . S
C572 C570 1.419 . S
C572 C573 1.363 . S
C572 H575 0.929 . S
C573 C572 1.363 . S
C573 C579 1.428 . S
H574 C570 0.930 . S
H575 C572 0.929 . S
S576 N577 1.613 . S
S576 N578 1.610 . S
N577 S576 1.613 . S
N577 C580 1.350 . S
N578 S576 1.610 . S
N578 C579 1.351 . S
C579 C573 1.428 . S
C579 N578 1.351 . S
C579 C580 1.434 . S
C580 C571 1.429 . S
C580 N577 1.350 . S
C580 C579 1.434 . S
C581 C582 1.369 . S
C581 C583 1.419 . S
C581 H585 0.930 . S
C582 C581 1.369 . S
C582 C591 1.429 . S
C583 C581 1.419 . S
C583 C584 1.363 . S
C583 H586 0.929 . S
C584 C583 1.363 . S
C584 C590 1.428 1_545 S
H585 C581 0.930 . S
H586 C583 0.929 . S
S587 N588 1.613 1_565 S
S587 N589 1.610 . S
N588 S587 1.613 1_545 S
N588 C591 1.350 . S
N589 S587 1.610 . S
N589 C590 1.350 . S
C590 C584 1.428 1_565 S
C590 N589 1.350 . S
C590 C591 1.435 1_565 S
C591 C582 1.429 . S
C591 N588 1.350 . S
C591 C590 1.435 1_545 S
C592 C593 1.369 . S
C592 C594 1.419 . S
C592 H596 0.930 . S
C593 C592 1.369 . S
C593 C602 1.429 . S
C594 C592 1.419 . S
C594 C595 1.363 . S
C594 H597 0.929 . S
C595 C594 1.363 . S
C595 C601 1.428 . S
H596 C592 0.930 . S
H597 C594 0.929 . S
S598 N599 1.613 . S
S598 N600 1.610 . S
N599 S598 1.613 . S
N599 C602 1.350 . S
N600 S598 1.610 . S
N600 C601 1.351 . S
C601 C595 1.428 . S
C601 N600 1.351 . S
C601 C602 1.434 . S
C602 C593 1.429 . S
C602 N599 1.350 . S
C602 C601 1.434 . S
C603 C604 1.369 . S
C603 C605 1.419 . S
C603 H607 0.930 . S
C604 C603 1.369 . S
C604 C613 1.429 . S
C605 C603 1.419 . S
C605 C606 1.363 . S
C605 H608 0.929 . S
C606 C605 1.363 . S
C606 C612 1.428 . S
H607 C603 0.930 . S
H608 C605 0.929 . S
S609 N610 1.613 . S
S609 N611 1.610 . S
N610 S609 1.613 . S
N610 C613 1.350 . S
N611 S609 1.610 . S
N611 C612 1.351 . S
C612 C606 1.428 . S
C612 N611 1.351 . S
C612 C613 1.434 . S
C613 C604 1.429 . S
C613 N610 1.350 . S
C613 C612 1.434 . S
C614 C615 1.369 . S
C614 C616 1.419 . S
C614 H618 0.930 . S
C615 C614 1.369 . S
C615 C624 1.429 1_545 S
C616 C614 1.419 . S
C616 C617 1.363 . S
C616 H619 0.929 . S
C617 C616 1.363 . S
C617 C623 1.428 1_545 S
H618 C614 0.930 . S
H619 C616 0.929 . S
S620 N621 1.613 . S
S620 N622 1.610 . S
N621 S620 1.613 . S
N621 C624 1.350 . S
N622 S620 1.610 . S
N622 C623 1.351 . S
C623 C617 1.428 1_565 S
C623 N622 1.351 . S
C623 C624 1.434 . S
C624 C615 1.429 1_565 S
C624 N621 1.350 . S
C624 C623 1.434 . S
C625 C626 1.369 1_655 S
C625 C627 1.419 . S
C625 H629 0.930 . S
C626 C625 1.369 1_455 S
C626 C635 1.429 . S
C627 C625 1.419 . S
C627 C628 1.363 . S
C627 H630 0.929 . S
C628 C627 1.363 . S
C628 C634 1.428 1_655 S
H629 C625 0.930 . S
H630 C627 0.929 . S
S631 N632 1.613 . S
S631 N633 1.610 . S
N632 S631 1.613 . S
N632 C635 1.350 . S
N633 S631 1.610 . S
N633 C634 1.351 . S
C634 C628 1.428 1_455 S
C634 N633 1.351 . S
C634 C635 1.434 . S
C635 C626 1.429 . S
C635 N632 1.350 . S
C635 C634 1.434 . S
C636 C637 1.369 . S
C636 C638 1.419 . S
C636 H640 0.930 . S
C637 C636 1.369 . S
C637 C646 1.429 . S
C638 C636 1.419 . S
C638 C639 1.363 . S
C638 H641 0.929 . S
C639 C638 1.363 . S
C639 C645 1.428 . S
H640 C636 0.930 . S
H641 C638 0.929 . S
S642 N643 1.613 . S
S642 N644 1.610 . S
N643 S642 1.613 . S
N643 C646 1.350 . S
N644 S642 1.610 . S
N644 C645 1.351 . S
C645 C639 1.428 . S
C645 N644 1.351 . S
C645 C646 1.434 . S
C646 C637 1.429 . S
C646 N643 1.350 . S
C646 C645 1.434 . S
C647 C648 1.369 . S
C647 C649 1.419 . S
C647 H651 0.930 . S
C648 C647 1.369 . S
C648 C657 1.429 . S
C649 C647 1.419 . S
C649 C650 1.363 . S
C649 H652 0.929 . S
C650 C649 1.363 . S
C650 C656 1.428 . S
H651 C647 0.930 . S
H652 C649 0.929 . S
S653 N654 1.613 . S
S653 N655 1.610 . S
N654 S653 1.613 . S
N654 C657 1.350 . S
N655 S653 1.610 . S
N655 C656 1.351 . S
C656 C650 1.428 . S
C656 N655 1.351 . S
C656 C657 1.434 . S
C657 C648 1.429 . S
C657 N654 1.350 . S
C657 C656 1.434 . S
C658 C659 1.369 . S
C658 C660 1.419 . S
C658 H662 0.930 . S
C659 C658 1.369 . S
C659 C668 1.429 . S
C660 C658 1.419 . S
C660 C661 1.363 . S
C660 H663 0.929 . S
C661 C660 1.363 . S
C661 C667 1.428 . S
H662 C658 0.930 . S
H663 C660 0.929 . S
S664 N665 1.613 . S
S664 N666 1.610 . S
N665 S664 1.613 . S
N665 C668 1.350 . S
N666 S664 1.610 . S
N666 C667 1.351 . S
C667 C661 1.428 . S
C667 N666 1.351 . S
C667 C668 1.434 . S
C668 C659 1.429 . S
C668 N665 1.350 . S
C668 C667 1.434 . S
C669 C670 1.369 . S
C669 C671 1.419 . S
C669 H673 0.930 . S
C670 C669 1.369 . S
C670 C679 1.429 . S
C671 C669 1.419 . S
C671 C672 1.363 . S
C671 H674 0.929 . S
C672 C671 1.363 . S
C672 C678 1.428 . S
H673 C669 0.930 . S
H674 C671 0.929 . S
S675 N676 1.613 . S
S675 N677 1.610 . S
N676 S675 1.613 . S
N676 C679 1.350 . S
N677 S675 1.610 . S
N677 C678 1.351 . S
C678 C672 1.428 . S
C678 N677 1.351 . S
C678 C679 1.434 . S
C679 C670 1.429 . S
C679 N676 1.350 . S
C679 C678 1.434 . S
C680 C681 1.369 . S
C680 C682 1.419 . S
C680 H684 0.930 . S
C681 C680 1.369 . S
C681 C690 1.429 . S
C682 C680 1.419 . S
C682 C683 1.363 . S
C682 H685 0.929 . S
C683 C682 1.363 . S
C683 C689 1.428 . S
H684 C680 0.930 . S
H685 C682 0.929 . S
S686 N687 1.613 . S
S686 N688 1.610 . S
N687 S686 1.613 . S
N687 C690 1.350 . S
N688 S686 1.610 . S
N688 C689 1.351 . S
C689 C683 1.428 . S
C689 N688 1.351 . S
C689 C690 1.434 . S
C690 C681 1.429 . S
C690 N687 1.350 . S
C690 C689 1.434 . S
C691 C692 1.369 . S
C691 C693 1.419 . S
C691 H695 0.930 . S
C692 C691 1.369 . S
C692 C701 1.429 . S
C693 C691 1.419 . S
C693 C694 1.363 . S
C693 H696 0.929 . S
C694 C693 1.363 . S
C694 C700 1.428 . S
H695 C691 0.930 . S
H696 C693 0.929 . S
S697 N698 1.613 . S
S697 N699 1.610 . S
N698 S697 1.613 . S
N698 C701 1.350 . S
N699 S697 1.610 . S
N699 C700 1.351 . S
C700 C694 1.428 . S
C700 N699 1.351 . S
C700 C701 1.434 . S
C701 C692 1.429 . S
C701 N698 1.350 . S
C701 C700 1.434 . S
C702 C703 1.369 . S
C702 C704 1.419 . S
C702 H706 0.930 . S
C703 C702 1.369 . S
C703 C712 1.429 . S
C704 C702 1.419 . S
C704 C705 1.363 . S
C704 H707 0.929 . S
C705 C704 1.363 . S
C705 C711 1.428 . S
H706 C702 0.930 . S
H707 C704 0.929 . S
S708 N709 1.613 . S
S708 N710 1.610 . S
N709 S708 1.613 . S
N709 C712 1.350 . S
N710 S708 1.610 . S
N710 C711 1.351 . S
C711 C705 1.428 . S
C711 N710 1.351 . S
C711 C712 1.434 . S
C712 C703 1.429 . S
C712 N709 1.350 . S
C712 C711 1.434 . S
C713 C714 1.369 . S
C713 C715 1.419 . S
C713 H717 0.930 . S
C714 C713 1.369 . S
C714 C723 1.429 . S
C715 C713 1.419 . S
C715 C716 1.363 . S
C715 H718 0.929 . S
C716 C715 1.363 . S
C716 C722 1.428 . S
H717 C713 0.930 . S
H718 C715 0.929 . S
S719 N720 1.613 . S
S719 N721 1.610 . S
N720 S719 1.613 . S
N720 C723 1.350 . S
N721 S719 1.610 . S
N721 C722 1.351 . S
C722 C716 1.428 . S
C722 N721 1.351 . S
C722 C723 1.434 . S
C723 C714 1.429 . S
C723 N720 1.350 . S
C723 C722 1.434 . S
C724 C725 1.369 . S
C724 C726 1.419 . S
C724 H728 0.930 . S
C725 C724 1.369 . S
C725 C734 1.429 . S
C726 C724 1.419 . S
C726 C727 1.363 . S
C726 H729 0.929 . S
C727 C726 1.363 . S
C727 C733 1.428 . S
H728 C724 0.930 . S
H729 C726 0.929 . S
S730 N731 1.613 . S
S730 N732 1.610 . S
N731 S730 1.613 . S
N731 C734 1.350 . S
N732 S730 1.610 . S
N732 C733 1.351 . S
C733 C727 1.428 . S
C733 N732 1.351 . S
C733 C734 1.434 . S
C734 C725 1.429 . S
C734 N731 1.350 . S
C734 C733 1.434 . S
C735 C736 1.369 . S
C735 C737 1.419 . S
C735 H739 0.930 . S
C736 C735 1.369 . S
C736 C745 1.429 . S
C737 C735 1.419 . S
C737 C738 1.363 . S
C737 H740 0.929 . S
C738 C737 1.363 . S
C738 C744 1.428 . S
H739 C735 0.930 . S
H740 C737 0.929 . S
S741 N742 1.553 1_556 S
S741 N743 1.618 . S
N742 S741 1.553 1_554 S
N742 C745 1.350 . S
N743 S741 1.618 . S
N743 C744 1.351 1_556 S
C744 C738 1.428 . S
C744 N743 1.351 1_554 S
C744 C745 1.434 . S
C745 C736 1.429 . S
C745 N742 1.350 . S
C745 C744 1.434 . S
C746 C747 1.369 . S
C746 C748 1.419 . S
C746 H750 0.930 . S
C747 C746 1.369 . S
C747 C756 1.429 . S
C748 C746 1.419 . S
C748 C749 1.363 . S
C748 H751 0.929 . S
C749 C748 1.363 . S
C749 C755 1.428 . S
H750 C746 0.930 . S
H751 C748 0.929 . S
S752 N753 1.613 . S
S752 N754 1.610 . S
N753 S752 1.613 . S
N753 C756 1.350 . S
N754 S752 1.610 . S
N754 C755 1.351 . S
C755 C749 1.428 . S
C755 N754 1.351 . S
C755 C756 1.434 . S
C756 C747 1.429 . S
C756 N753 1.350 . S
C756 C755 1.434 . S
C757 C758 1.369 . S
C757 C759 1.419 . S
C757 H761 0.930 . S
C758 C757 1.369 . S
C758 C767 1.429 . S
C759 C757 1.419 . S
C759 C760 1.363 . S
C759 H762 0.968 . S
C760 C759 1.363 . S
C760 C766 1.428 . S
H761 C757 0.930 . S
H762 C759 0.968 . S
S763 N764 1.613 . S
S763 N765 1.610 . S
N764 S763 1.613 . S
N764 C767 1.350 . S
N765 S763 1.610 . S
N765 C766 1.351 . S
C766 C760 1.428 . S
C766 N765 1.351 . S
C766 C767 1.434 . S
C767 C758 1.429 . S
C767 N764 1.350 . S
C767 C766 1.434 . S
C768 C769 1.369 . S
C768 C770 1.419 . S
C768 H772 0.930 . S
C769 C768 1.369 . S
C769 C778 1.429 . S
C770 C768 1.419 . S
C770 C771 1.363 . S
C770 H773 0.929 . S
C771 C770 1.363 . S
C771 C777 1.428 . S
H772 C768 0.930 . S
H773 C770 0.929 . S
S774 N775 1.613 . S
S774 N776 1.610 . S
N775 S774 1.613 . S
N775 C778 1.350 . S
N776 S774 1.610 . S
N776 C777 1.351 . S
C777 C771 1.428 . S
C777 N776 1.351 . S
C777 C778 1.434 . S
C778 C769 1.429 . S
C778 N775 1.350 . S
C778 C777 1.434 . S
C779 C780 1.369 . S
C779 C781 1.419 . S
C779 H783 0.930 . S
C780 C779 1.369 . S
C780 C789 1.429 . S
C781 C779 1.419 . S
C781 C782 1.363 . S
C781 H784 0.929 . S
C782 C781 1.363 . S
C782 C788 1.428 . S
H783 C779 0.930 . S
H784 C781 0.929 . S
S785 N786 1.613 . S
S785 N787 1.610 . S
N786 S785 1.613 . S
N786 C789 1.350 . S
N787 S785 1.610 . S
N787 C788 1.351 . S
C788 C782 1.428 . S
C788 N787 1.351 . S
C788 C789 1.434 . S
C789 C780 1.429 . S
C789 N786 1.350 . S
C789 C788 1.434 . S
C790 C791 1.369 . S
C790 C792 1.419 . S
C790 H794 0.930 . S
C791 C790 1.369 . S
C791 C800 1.429 . S
C792 C790 1.419 . S
C792 C793 1.363 . S
C792 H795 0.929 . S
C793 C792 1.363 . S
C793 C799 1.428 . S
H794 C790 0.930 . S
H795 C792 0.929 . S
S796 N797 1.613 . S
S796 N798 1.610 . S
N797 S796 1.613 . S
N797 C800 1.350 . S
N798 S796 1.610 . S
N798 C799 1.351 . S
C799 C793 1.428 . S
C799 N798 1.351 . S
C799 C800 1.434 . S
C800 C791 1.429 . S
C800 N797 1.350 . S
C800 C799 1.434 . S
C801 C802 1.369 . S
C801 C803 1.419 . S
C801 H805 0.930 . S
C802 C801 1.369 . S
C802 C811 1.429 . S
C803 C801 1.419 . S
C803 C804 1.363 . S
C803 H806 0.929 . S
C804 C803 1.363 . S
C804 C810 1.428 . S
H805 C801 0.930 . S
H806 C803 0.929 . S
S807 N808 1.613 . S
S807 N809 1.610 . S
N808 S807 1.613 . S
N808 C811 1.350 . S
N809 S807 1.610 . S
N809 C810 1.351 . S
C810 C804 1.428 . S
C810 N809 1.351 . S
C810 C811 1.434 . S
C811 C802 1.429 . S
C811 N808 1.350 . S
C811 C810 1.434 . S
C812 C813 1.369 . S
C812 C814 1.419 . S
C812 H816 0.930 . S
C813 C812 1.369 . S
C813 C822 1.429 . S
C814 C812 1.419 . S
C814 C815 1.363 . S
C814 H817 0.929 . S
C815 C814 1.363 . S
C815 C821 1.428 . S
H816 C812 0.930 . S
H817 C814 0.929 . S
S818 N819 1.613 . S
S818 N820 1.610 . S
N819 S818 1.613 . S
N819 C822 1.350 . S
N820 S818 1.610 . S
N820 C821 1.351 . S
C821 C815 1.428 . S
C821 N820 1.351 . S
C821 C822 1.434 . S
C822 C813 1.429 . S
C822 N819 1.350 . S
C822 C821 1.434 . S
C823 C824 1.369 . S
C823 C825 1.419 . S
C823 H827 0.930 . S
C824 C823 1.369 . S
C824 C833 1.429 . S
C825 C823 1.419 . S
C825 C826 1.363 . S
C825 H828 0.929 . S
C826 C825 1.363 . S
C826 C832 1.428 . S
H827 C823 0.930 . S
H828 C825 0.929 . S
S829 N830 1.613 . S
S829 N831 1.610 . S
N830 S829 1.613 . S
N830 C833 1.350 . S
N831 S829 1.610 . S
N831 C832 1.351 . S
C832 C826 1.428 . S
C832 N831 1.351 . S
C832 C833 1.434 . S
C833 C824 1.429 . S
C833 N830 1.350 . S
C833 C832 1.434 . S
C834 C835 1.369 . S
C834 C836 1.419 . S
C834 H838 0.930 . S
C835 C834 1.369 . S
C835 C844 1.429 . S
C836 C834 1.419 . S
C836 C837 1.363 . S
C836 H839 0.929 . S
C837 C836 1.363 . S
C837 C843 1.428 . S
H838 C834 0.930 . S
H839 C836 0.929 . S
S840 N841 1.613 . S
S840 N842 1.610 . S
N841 S840 1.613 . S
N841 C844 1.350 . S
N842 S840 1.610 . S
N842 C843 1.351 . S
C843 C837 1.428 . S
C843 N842 1.351 . S
C843 C844 1.434 . S
C844 C835 1.429 . S
C844 N841 1.350 . S
C844 C843 1.434 . S
C845 C846 1.369 . S
C845 C847 1.419 . S
C845 H849 0.930 . S
C846 C845 1.369 . S
C846 C855 1.429 . S
C847 C845 1.419 . S
C847 C848 1.363 . S
C847 H850 0.929 . S
C848 C847 1.363 . S
C848 C854 1.428 . S
H849 C845 0.930 . S
H850 C847 0.929 . S
S851 N852 1.613 . S
S851 N853 1.610 . S
N852 S851 1.613 . S
N852 C855 1.350 . S
N853 S851 1.610 . S
N853 C854 1.351 . S
C854 C848 1.428 . S
C854 N853 1.351 . S
C854 C855 1.434 . S
C855 C846 1.429 . S
C855 N852 1.350 . S
C855 C854 1.434 . S
C856 C857 1.369 . S
C856 C858 1.419 . S
C856 H860 0.930 . S
C857 C856 1.369 . S
C857 C866 1.429 . S
C858 C856 1.419 . S
C858 C859 1.363 . S
C858 H861 0.929 . S
C859 C858 1.363 . S
C859 C865 1.428 . S
H860 C856 0.930 . S
H861 C858 0.929 . S
S862 N863 1.613 . S
S862 N864 1.610 . S
N863 S862 1.613 . S
N863 C866 1.350 . S
N864 S862 1.610 . S
N864 C865 1.351 . S
C865 C859 1.428 . S
C865 N864 1.351 . S
C865 C866 1.434 . S
C866 C857 1.429 . S
C866 N863 1.350 . S
C866 C865 1.434 . S
C867 C868 1.369 . S
C867 C869 1.419 . S
C867 H871 0.930 . S
C868 C867 1.369 . S
C868 C877 1.429 . S
C869 C867 1.419 . S
C869 C870 1.363 . S
C869 H872 0.929 . S
C870 C869 1.363 . S
C870 C876 1.428 . S
H871 C867 0.930 . S
H872 C869 0.929 . S
S873 N874 1.613 . S
S873 N875 1.610 . S
N874 S873 1.613 . S
N874 C877 1.350 . S
N875 S873 1.610 . S
N875 C876 1.351 . S
C876 C870 1.428 . S
C876 N875 1.351 . S
C876 C877 1.434 . S
C877 C868 1.429 . S
C877 N874 1.350 . S
C877 C876 1.434 . S
C878 C879 1.369 . S
C878 C880 1.419 . S
C878 H882 0.930 . S
C879 C878 1.369 . S
C879 C888 1.429 . S
C880 C878 1.419 . S
C880 C881 1.363 . S
C880 H883 0.929 . S
C881 C880 1.363 . S
C881 C887 1.428 . S
H882 C878 0.930 . S
H883 C880 0.929 . S
S884 N885 1.613 . S
S884 N886 1.610 . S
N885 S884 1.613 . S
N885 C888 1.350 . S
N886 S884 1.610 . S
N886 C887 1.351 . S
C887 C881 1.428 . S
C887 N886 1.351 . S
C887 C888 1.434 . S
C888 C879 1.429 . S
C888 N885 1.350 . S
C888 C887 1.434 . S
C889 C890 1.369 . S
C889 C891 1.419 . S
C889 H893 0.930 . S
C890 C889 1.369 . S
C890 C899 1.429 . S
C891 C889 1.419 . S
C891 C892 1.363 . S
C891 H894 0.929 . S
C892 C891 1.363 . S
C892 C898 1.428 . S
H893 C889 0.930 . S
H894 C891 0.929 . S
S895 N896 1.613 . S
S895 N897 1.610 . S
N896 S895 1.613 . S
N896 C899 1.350 . S
N897 S895 1.610 . S
N897 C898 1.351 . S
C898 C892 1.428 . S
C898 N897 1.351 . S
C898 C899 1.434 . S
C899 C890 1.429 . S
C899 N896 1.350 . S
C899 C898 1.434 . S
C900 C901 1.369 . S
C900 C902 1.419 . S
C900 H904 0.930 . S
C901 C900 1.369 . S
C901 C910 1.440 . S
C902 C900 1.419 . S
C902 C903 1.363 . S
C902 H905 0.929 . S
C903 C902 1.363 . S
C903 C909 1.428 . S
H904 C900 0.930 . S
H905 C902 0.929 . S
S906 N907 1.613 . S
S906 N908 1.610 . S
N907 S906 1.613 . S
N907 C910 1.327 1_565 S
N908 S906 1.610 . S
N908 C909 1.351 1_565 S
C909 C903 1.428 . S
C909 N908 1.351 1_545 S
C909 C910 1.446 . S
C910 C901 1.440 . S
C910 N907 1.327 1_545 S
C910 C909 1.446 . S
C911 C912 1.369 . S
C911 C913 1.419 . S
C911 H915 0.930 . S
C912 C911 1.369 . S
C912 C921 1.429 1_655 S
C913 C911 1.419 . S
C913 C914 1.363 . S
C913 H916 0.929 . S
C914 C913 1.363 . S
C914 C920 1.428 1_655 S
H915 C911 0.930 . S
H916 C913 0.929 . S
S917 N918 1.613 . S
S917 N919 1.610 . S
N918 S917 1.613 . S
N918 C921 1.350 . S
N919 S917 1.610 . S
N919 C920 1.351 . S
C920 C914 1.428 1_455 S
C920 N919 1.351 . S
C920 C921 1.434 . S
C921 C912 1.429 1_455 S
C921 N918 1.350 . S
C921 C920 1.434 . S
C922 C923 1.369 . S
C922 C924 1.419 . S
C922 H926 0.930 . S
C923 C922 1.369 . S
C923 C932 1.429 . S
C924 C922 1.419 . S
C924 C925 1.363 . S
C924 H927 0.929 . S
C925 C924 1.363 . S
C925 C931 1.428 . S
H926 C922 0.930 . S
H927 C924 0.929 . S
S928 N929 1.613 . S
S928 N930 1.610 . S
N929 S928 1.613 . S
N929 C932 1.350 . S
N930 S928 1.610 . S
N930 C931 1.351 . S
C931 C925 1.428 . S
C931 N930 1.351 . S
C931 C932 1.434 . S
C932 C923 1.429 . S
C932 N929 1.350 . S
C932 C931 1.434 . S
C933 C934 1.369 1_655 S
C933 C935 1.422 . S
C933 H937 0.930 . S
C934 C933 1.369 1_455 S
C934 C943 1.429 . S
C935 C933 1.422 . S
C935 C936 1.357 1_655 S
C935 H938 0.932 . S
C936 C935 1.357 1_455 S
C936 C942 1.428 . S
H937 C933 0.930 . S
H938 C935 0.932 . S
S939 N940 1.613 . S
S939 N941 1.610 . S
N940 S939 1.613 . S
N940 C943 1.350 . S
N941 S939 1.610 . S
N941 C942 1.351 . S
C942 C936 1.428 . S
C942 N941 1.351 . S
C942 C943 1.434 . S
C943 C934 1.429 . S
C943 N940 1.350 . S
C943 C942 1.434 . S
C944 C945 1.369 . S
C944 C946 1.419 . S
C944 H948 0.930 . S
C945 C944 1.369 . S
C945 C954 1.429 . S
C946 C944 1.419 . S
C946 C947 1.363 . S
C946 H949 0.929 . S
C947 C946 1.363 . S
C947 C953 1.428 . S
H948 C944 0.930 . S
H949 C946 0.929 . S
S950 N951 1.613 . S
S950 N952 1.610 . S
N951 S950 1.613 . S
N951 C954 1.350 . S
N952 S950 1.610 . S
N952 C953 1.351 . S
C953 C947 1.428 . S
C953 N952 1.351 . S
C953 C954 1.434 . S
C954 C945 1.429 . S
C954 N951 1.350 . S
C954 C953 1.434 . S
C955 C956 1.369 1_545 S
C955 C957 1.419 . S
C955 H959 0.930 . S
C956 C955 1.369 1_565 S
C956 C965 1.429 . S
C957 C955 1.419 . S
C957 C958 1.363 1_545 S
C957 H960 0.929 . S
C958 C957 1.363 1_565 S
C958 C964 1.428 . S
H959 C955 0.930 . S
H960 C957 0.929 . S
S961 N962 1.613 . S
S961 N963 1.610 . S
N962 S961 1.613 . S
N962 C965 1.350 . S
N963 S961 1.610 . S
N963 C964 1.351 . S
C964 C958 1.428 . S
C964 N963 1.351 . S
C964 C965 1.434 . S
C965 C956 1.429 . S
C965 N962 1.350 . S
C965 C964 1.434 . S
C966 C967 1.369 1_545 S
C966 C968 1.419 . S
C966 H970 0.930 . S
C967 C966 1.369 1_565 S
C967 C976 1.429 . S
C968 C966 1.419 . S
C968 C969 1.363 1_545 S
C968 H971 0.929 . S
C969 C968 1.363 1_565 S
C969 C975 1.428 . S
H970 C966 0.930 . S
H971 C968 0.929 . S
S972 N973 1.613 . S
S972 N974 1.610 . S
N973 S972 1.613 . S
N973 C976 1.350 . S
N974 S972 1.610 . S
N974 C975 1.351 . S
C975 C969 1.428 . S
C975 N974 1.351 . S
C975 C976 1.434 . S
C976 C967 1.429 . S
C976 N973 1.350 . S
C976 C975 1.434 . S
C977 C978 1.369 . S
C977 C979 1.419 . S
C977 H981 0.930 . S
C978 C977 1.369 . S
C978 C987 1.429 . S
C979 C977 1.419 . S
C979 C980 1.363 . S
C979 H982 0.929 . S
C980 C979 1.363 . S
C980 C986 1.428 . S
H981 C977 0.930 . S
H982 C979 0.929 . S
S983 N984 1.613 . S
S983 N985 1.610 . S
N984 S983 1.613 . S
N984 C987 1.350 . S
N985 S983 1.610 . S
N985 C986 1.351 . S
C986 C980 1.428 . S
C986 N985 1.351 . S
C986 C987 1.434 . S
C987 C978 1.429 . S
C987 N984 1.350 . S
C987 C986 1.434 . S
C988 C989 1.369 . S
C988 C990 1.419 . S
C988 H992 0.930 . S
C989 C988 1.369 . S
C989 C998 1.429 . S
C990 C988 1.419 . S
C990 C991 1.363 . S
C990 H993 0.929 . S
C991 C990 1.363 . S
C991 C997 1.428 . S
H992 C988 0.930 . S
H993 C990 0.929 . S
S994 N995 1.613 . S
S994 N996 1.610 . S
N995 S994 1.613 . S
N995 C998 1.350 . S
N996 S994 1.610 . S
N996 C997 1.351 . S
C997 C991 1.428 . S
C997 N996 1.351 . S
C997 C998 1.434 . S
C998 C989 1.429 . S
C998 N995 1.350 . S
C998 C997 1.434 . S
C999 C1000 1.369 1_455 S
C999 C1001 1.419 . S
C999 H1003 0.930 . S
C1000 C999 1.369 1_655 S
C1000 C1009 1.429 . S
C1001 C999 1.419 . S
C1001 C1002 1.363 1_455 S
C1001 H1004 0.929 . S
C1002 C1001 1.363 1_655 S
C1002 C1008 1.428 . S
H1003 C999 0.930 . S
H1004 C1001 0.929 . S
S1005 N1006 1.613 . S
S1005 N1007 1.610 . S
N1006 S1005 1.613 . S
N1006 C1009 1.350 . S
N1007 S1005 1.610 . S
N1007 C1008 1.351 . S
C1008 C1002 1.428 . S
C1008 N1007 1.351 . S
C1008 C1009 1.434 . S
C1009 C1000 1.429 . S
C1009 N1006 1.350 . S
C1009 C1008 1.434 . S
C1010 C1011 1.369 . S
C1010 C1012 1.419 . S
C1010 H1014 0.930 . S
C1011 C1010 1.369 . S
C1011 C1020 1.429 . S
C1012 C1010 1.419 . S
C1012 C1013 1.363 . S
C1012 H1015 0.929 . S
C1013 C1012 1.363 . S
C1013 C1019 1.428 . S
H1014 C1010 0.930 . S
H1015 C1012 0.929 . S
S1016 N1017 1.613 . S
S1016 N1018 1.610 . S
N1017 S1016 1.613 . S
N1017 C1020 1.350 . S
N1018 S1016 1.610 . S
N1018 C1019 1.351 . S
C1019 C1013 1.428 . S
C1019 N1018 1.351 . S
C1019 C1020 1.434 . S
C1020 C1011 1.429 . S
C1020 N1017 1.350 . S
C1020 C1019 1.434 . S
C1021 C1022 1.369 . S
C1021 C1023 1.419 . S
C1021 H1025 0.930 . S
C1022 C1021 1.369 . S
C1022 C1031 1.429 . S
C1023 C1021 1.419 . S
C1023 C1024 1.363 . S
C1023 H1026 0.929 . S
C1024 C1023 1.363 . S
C1024 C1030 1.428 . S
H1025 C1021 0.930 . S
H1026 C1023 0.929 . S
S1027 N1028 1.613 . S
S1027 N1029 1.610 1_565 S
N1028 S1027 1.613 . S
N1028 C1031 1.350 1_565 S
N1029 S1027 1.610 1_545 S
N1029 C1030 1.351 . S
C1030 C1024 1.428 . S
C1030 N1029 1.351 . S
C1030 C1031 1.434 . S
C1031 C1022 1.429 . S
C1031 N1028 1.350 1_545 S
C1031 C1030 1.434 . S
C1032 C1033 1.369 . S
C1032 C1034 1.419 . S
C1032 H1036 0.930 . S
C1033 C1032 1.369 . S
C1033 C1042 1.429 . S
C1034 C1032 1.419 . S
C1034 C1035 1.363 . S
C1034 H1037 0.929 . S
C1035 C1034 1.363 . S
C1035 C1041 1.428 . S
H1036 C1032 0.930 . S
H1037 C1034 0.929 . S
S1038 N1039 1.613 . S
S1038 N1040 1.610 . S
N1039 S1038 1.613 . S
N1039 C1042 1.350 . S
N1040 S1038 1.610 . S
N1040 C1041 1.351 . S
C1041 C1035 1.428 . S
C1041 N1040 1.351 . S
C1041 C1042 1.434 . S
C1042 C1033 1.429 . S
C1042 N1039 1.350 . S
C1042 C1041 1.434 . S
C1043 C1044 1.369 . S
C1043 C1045 1.419 . S
C1043 H1047 0.930 . S
C1044 C1043 1.369 . S
C1044 C1053 1.429 . S
C1045 C1043 1.419 . S
C1045 C1046 1.363 . S
C1045 H1048 0.929 . S
C1046 C1045 1.363 . S
C1046 C1052 1.428 . S
H1047 C1043 0.930 . S
H1048 C1045 0.929 . S
S1049 N1050 1.613 . S
S1049 N1051 1.610 . S
N1050 S1049 1.613 . S
N1050 C1053 1.350 . S
N1051 S1049 1.610 . S
N1051 C1052 1.351 . S
C1052 C1046 1.428 . S
C1052 N1051 1.351 . S
C1052 C1053 1.434 . S
C1053 C1044 1.429 . S
C1053 N1050 1.350 . S
C1053 C1052 1.434 . S
C1054 C1055 1.369 . S
C1054 C1056 1.419 . S
C1054 H1058 0.930 . S
C1055 C1054 1.369 . S
C1055 C1064 1.429 . S
C1056 C1054 1.419 . S
C1056 C1057 1.363 . S
C1056 H1059 0.929 . S
C1057 C1056 1.363 . S
C1057 C1063 1.428 . S
H1058 C1054 0.930 . S
H1059 C1056 0.929 . S
S1060 N1061 1.613 . S
S1060 N1062 1.610 . S
N1061 S1060 1.613 . S
N1061 C1064 1.350 . S
N1062 S1060 1.610 . S
N1062 C1063 1.351 . S
C1063 C1057 1.428 . S
C1063 N1062 1.351 . S
C1063 C1064 1.434 . S
C1064 C1055 1.429 . S
C1064 N1061 1.350 . S
C1064 C1063 1.434 . S
C1065 C1066 1.369 . S
C1065 C1067 1.419 . S
C1065 H1069 0.930 . S
C1066 C1065 1.369 . S
C1066 C1075 1.429 . S
C1067 C1065 1.419 . S
C1067 C1068 1.363 . S
C1067 H1070 0.929 . S
C1068 C1067 1.363 . S
C1068 C1074 1.428 . S
H1069 C1065 0.930 . S
H1070 C1067 0.929 . S
S1071 N1072 1.613 . S
S1071 N1073 1.610 . S
N1072 S1071 1.613 . S
N1072 C1075 1.350 . S
N1073 S1071 1.610 . S
N1073 C1074 1.351 . S
C1074 C1068 1.428 . S
C1074 N1073 1.351 . S
C1074 C1075 1.434 . S
C1075 C1066 1.429 . S
C1075 N1072 1.350 . S
C1075 C1074 1.434 . S
C1076 C1077 1.369 . S
C1076 C1078 1.419 . S
C1076 H1080 0.930 . S
C1077 C1076 1.369 . S
C1077 C1086 1.429 . S
C1078 C1076 1.419 . S
C1078 C1079 1.363 . S
C1078 H1081 0.929 . S
C1079 C1078 1.363 . S
C1079 C1085 1.428 . S
H1080 C1076 0.930 . S
H1081 C1078 0.929 . S
S1082 N1083 1.613 . S
S1082 N1084 1.610 . S
N1083 S1082 1.613 . S
N1083 C1086 1.350 . S
N1084 S1082 1.610 . S
N1084 C1085 1.351 . S
C1085 C1079 1.428 . S
C1085 N1084 1.351 . S
C1085 C1086 1.434 . S
C1086 C1077 1.429 . S
C1086 N1083 1.350 . S
C1086 C1085 1.434 . S
C1087 C1088 1.369 . S
C1087 C1089 1.419 . S
C1087 H1091 0.930 . S
C1088 C1087 1.369 . S
C1088 C1097 1.429 . S
C1089 C1087 1.419 . S
C1089 C1090 1.363 . S
C1089 H1092 0.929 . S
C1090 C1089 1.363 . S
C1090 C1096 1.428 . S
H1091 C1087 0.930 . S
H1092 C1089 0.929 . S
S1093 N1094 1.613 . S
S1093 N1095 1.610 . S
N1094 S1093 1.613 . S
N1094 C1097 1.350 . S
N1095 S1093 1.610 . S
N1095 C1096 1.351 . S
C1096 C1090 1.428 . S
C1096 N1095 1.351 . S
C1096 C1097 1.434 . S
C1097 C1088 1.429 . S
C1097 N1094 1.350 . S
C1097 C1096 1.434 . S
C1098 C1099 1.369 . S
C1098 C1100 1.419 . S
C1098 H1102 0.930 . S
C1099 C1098 1.369 . S
C1099 C1108 1.429 . S
C1100 C1098 1.419 . S
C1100 C1101 1.363 . S
C1100 H1103 0.929 . S
C1101 C1100 1.363 . S
C1101 C1107 1.428 . S
H1102 C1098 0.930 . S
H1103 C1100 0.929 . S
S1104 N1105 1.613 . S
S1104 N1106 1.610 . S
N1105 S1104 1.613 . S
N1105 C1108 1.350 . S
N1106 S1104 1.610 . S
N1106 C1107 1.351 . S
C1107 C1101 1.428 . S
C1107 N1106 1.351 . S
C1107 C1108 1.434 . S
C1108 C1099 1.429 . S
C1108 N1105 1.350 . S
C1108 C1107 1.434 . S
C1109 C1110 1.369 . S
C1109 C1111 1.419 . S
C1109 H1113 0.930 . S
C1110 C1109 1.369 . S
C1110 C1119 1.429 . S
C1111 C1109 1.419 . S
C1111 C1112 1.363 . S
C1111 H1114 0.929 . S
C1112 C1111 1.363 . S
C1112 C1118 1.428 . S
H1113 C1109 0.930 . S
H1114 C1111 0.929 . S
S1115 N1116 1.613 . S
S1115 N1117 1.610 . S
N1116 S1115 1.613 . S
N1116 C1119 1.350 . S
N1117 S1115 1.610 . S
N1117 C1118 1.351 . S
C1118 C1112 1.428 . S
C1118 N1117 1.351 . S
C1118 C1119 1.434 . S
C1119 C1110 1.429 . S
C1119 N1116 1.350 . S
C1119 C1118 1.434 . S
C1120 C1121 1.369 . S
C1120 C1122 1.419 . S
C1120 H1124 0.930 . S
C1121 C1120 1.369 . S
C1121 C1130 1.429 . S
C1122 C1120 1.419 . S
C1122 C1123 1.363 . S
C1122 H1125 0.929 . S
C1123 C1122 1.363 . S
C1123 C1129 1.428 . S
H1124 C1120 0.930 . S
H1125 C1122 0.929 . S
S1126 N1127 1.613 . S
S1126 N1128 1.610 . S
N1127 S1126 1.613 . S
N1127 C1130 1.350 . S
N1128 S1126 1.610 . S
N1128 C1129 1.351 . S
C1129 C1123 1.428 . S
C1129 N1128 1.351 . S
C1129 C1130 1.434 . S
C1130 C1121 1.429 . S
C1130 N1127 1.350 . S
C1130 C1129 1.434 . S
C1131 C1132 1.369 . S
C1131 C1133 1.419 . S
C1131 H1135 0.930 . S
C1132 C1131 1.369 . S
C1132 C1141 1.429 . S
C1133 C1131 1.419 . S
C1133 C1134 1.363 . S
C1133 H1136 0.929 . S
C1134 C1133 1.363 . S
C1134 C1140 1.428 . S
H1135 C1131 0.930 . S
H1136 C1133 0.929 . S
S1137 N1138 1.613 . S
S1137 N1139 1.610 . S
N1138 S1137 1.613 . S
N1138 C1141 1.350 . S
N1139 S1137 1.610 . S
N1139 C1140 1.351 . S
C1140 C1134 1.428 . S
C1140 N1139 1.351 . S
C1140 C1141 1.434 . S
C1141 C1132 1.429 . S
C1141 N1138 1.350 . S
C1141 C1140 1.434 . S
C1142 C1143 1.369 . S
C1142 C1144 1.419 . S
C1142 H1146 0.930 . S
C1143 C1142 1.369 . S
C1143 C1152 1.429 . S
C1144 C1142 1.419 . S
C1144 C1145 1.363 . S
C1144 H1147 0.929 . S
C1145 C1144 1.363 . S
C1145 C1151 1.428 . S
H1146 C1142 0.930 . S
H1147 C1144 0.929 . S
S1148 N1149 1.613 . S
S1148 N1150 1.610 . S
N1149 S1148 1.613 . S
N1149 C1152 1.350 . S
N1150 S1148 1.610 . S
N1150 C1151 1.351 . S
C1151 C1145 1.428 . S
C1151 N1150 1.351 . S
C1151 C1152 1.434 . S
C1152 C1143 1.429 . S
C1152 N1149 1.350 . S
C1152 C1151 1.434 . S
C1153 C1154 1.369 . S
C1153 C1155 1.419 . S
C1153 H1157 0.930 . S
C1154 C1153 1.369 . S
C1154 C1163 1.429 . S
C1155 C1153 1.419 . S
C1155 C1156 1.363 . S
C1155 H1158 0.929 . S
C1156 C1155 1.363 . S
C1156 C1162 1.428 . S
H1157 C1153 0.930 . S
H1158 C1155 0.929 . S
S1159 N1160 1.613 . S
S1159 N1161 1.610 . S
N1160 S1159 1.613 . S
N1160 C1163 1.350 . S
N1161 S1159 1.610 . S
N1161 C1162 1.351 . S
C1162 C1156 1.428 . S
C1162 N1161 1.351 . S
C1162 C1163 1.434 . S
C1163 C1154 1.429 . S
C1163 N1160 1.350 . S
C1163 C1162 1.434 . S
C1164 C1165 1.369 . S
C1164 C1166 1.419 . S
C1164 H1168 0.930 . S
C1165 C1164 1.369 . S
C1165 C1174 1.429 . S
C1166 C1164 1.419 . S
C1166 C1167 1.363 . S
C1166 H1169 0.929 . S
C1167 C1166 1.363 . S
C1167 C1173 1.428 . S
H1168 C1164 0.930 . S
H1169 C1166 0.929 . S
S1170 N1171 1.613 . S
S1170 N1172 1.610 . S
N1171 S1170 1.613 . S
N1171 C1174 1.350 . S
N1172 S1170 1.610 . S
N1172 C1173 1.351 . S
C1173 C1167 1.428 . S
C1173 N1172 1.351 . S
C1173 C1174 1.434 . S
C1174 C1165 1.429 . S
C1174 N1171 1.350 . S
C1174 C1173 1.434 . S
C1175 C1176 1.369 . S
C1175 C1177 1.419 . S
C1175 H1179 0.930 . S
C1176 C1175 1.369 . S
C1176 C1185 1.429 . S
C1177 C1175 1.419 . S
C1177 C1178 1.363 . S
C1177 H1180 0.929 . S
C1178 C1177 1.363 . S
C1178 C1184 1.428 . S
H1179 C1175 0.930 . S
H1180 C1177 0.929 . S
S1181 N1182 1.613 . S
S1181 N1183 1.610 . S
N1182 S1181 1.613 . S
N1182 C1185 1.350 . S
N1183 S1181 1.610 . S
N1183 C1184 1.351 . S
C1184 C1178 1.428 . S
C1184 N1183 1.351 . S
C1184 C1185 1.434 . S
C1185 C1176 1.429 . S
C1185 N1182 1.350 . S
C1185 C1184 1.434 . S
C1186 C1187 1.369 . S
C1186 C1188 1.419 . S
C1186 H1190 0.930 . S
C1187 C1186 1.369 . S
C1187 C1196 1.429 . S
C1188 C1186 1.419 . S
C1188 C1189 1.363 . S
C1188 H1191 0.929 . S
C1189 C1188 1.363 . S
C1189 C1195 1.428 . S
H1190 C1186 0.930 . S
H1191 C1188 0.929 . S
S1192 N1193 1.613 . S
S1192 N1194 1.610 . S
N1193 S1192 1.613 . S
N1193 C1196 1.350 . S
N1194 S1192 1.610 . S
N1194 C1195 1.351 . S
C1195 C1189 1.428 . S
C1195 N1194 1.351 . S
C1195 C1196 1.434 . S
C1196 C1187 1.429 . S
C1196 N1193 1.350 . S
C1196 C1195 1.434 . S
C1197 C1198 1.369 . S
C1197 C1199 1.419 . S
C1197 H1201 0.930 . S
C1198 C1197 1.369 . S
C1198 C1207 1.429 . S
C1199 C1197 1.419 . S
C1199 C1200 1.363 . S
C1199 H1202 0.929 . S
C1200 C1199 1.363 . S
C1200 C1206 1.428 . S
H1201 C1197 0.930 . S
H1202 C1199 0.929 . S
S1203 N1204 1.613 . S
S1203 N1205 1.610 . S
N1204 S1203 1.613 . S
N1204 C1207 1.350 . S
N1205 S1203 1.610 . S
N1205 C1206 1.351 . S
C1206 C1200 1.428 . S
C1206 N1205 1.351 . S
C1206 C1207 1.434 . S
C1207 C1198 1.429 . S
C1207 N1204 1.350 . S
C1207 C1206 1.434 . S
C1208 C1209 1.369 . S
C1208 C1210 1.419 . S
C1208 H1212 0.930 . S
C1209 C1208 1.369 . S
C1209 C1218 1.429 . S
C1210 C1208 1.419 . S
C1210 C1211 1.363 . S
C1210 H1213 0.929 . S
C1211 C1210 1.363 . S
C1211 C1217 1.428 . S
H1212 C1208 0.930 . S
H1213 C1210 0.929 . S
S1214 N1215 1.613 . S
S1214 N1216 1.610 . S
N1215 S1214 1.613 . S
N1215 C1218 1.350 . S
N1216 S1214 1.610 . S
N1216 C1217 1.351 . S
C1217 C1211 1.428 . S
C1217 N1216 1.351 . S
C1217 C1218 1.434 . S
C1218 C1209 1.429 . S
C1218 N1215 1.350 . S
C1218 C1217 1.434 . S
C1219 C1220 1.369 . S
C1219 C1221 1.419 . S
C1219 H1223 0.930 . S
C1220 C1219 1.369 . S
C1220 C1229 1.429 . S
C1221 C1219 1.419 . S
C1221 C1222 1.363 . S
C1221 H1224 0.929 . S
C1222 C1221 1.363 . S
C1222 C1228 1.428 . S
H1223 C1219 0.930 . S
H1224 C1221 0.929 . S
S1225 N1226 1.613 . S
S1225 N1227 1.610 . S
N1226 S1225 1.613 . S
N1226 C1229 1.350 . S
N1227 S1225 1.610 . S
N1227 C1228 1.351 . S
C1228 C1222 1.428 . S
C1228 N1227 1.351 . S
C1228 C1229 1.434 . S
C1229 C1220 1.429 . S
C1229 N1226 1.350 . S
C1229 C1228 1.434 . S
C1230 C1231 1.369 . S
C1230 C1232 1.419 . S
C1230 H1234 0.930 . S
C1231 C1230 1.369 . S
C1231 C1240 1.429 . S
C1232 C1230 1.419 . S
C1232 C1233 1.363 . S
C1232 H1235 0.929 . S
C1233 C1232 1.363 . S
C1233 C1239 1.428 . S
H1234 C1230 0.930 . S
H1235 C1232 0.929 . S
S1236 N1237 1.613 . S
S1236 N1238 1.610 . S
N1237 S1236 1.613 . S
N1237 C1240 1.350 . S
N1238 S1236 1.610 . S
N1238 C1239 1.351 . S
C1239 C1233 1.428 . S
C1239 N1238 1.351 . S
C1239 C1240 1.434 . S
C1240 C1231 1.429 . S
C1240 N1237 1.350 . S
C1240 C1239 1.434 . S
C1241 C1242 1.369 . S
C1241 C1243 1.419 . S
C1241 H1245 0.930 . S
C1242 C1241 1.369 . S
C1242 C1251 1.429 . S
C1243 C1241 1.419 . S
C1243 C1244 1.363 . S
C1243 H1246 0.929 . S
C1244 C1243 1.363 . S
C1244 C1250 1.428 . S
H1245 C1241 0.930 . S
H1246 C1243 0.929 . S
S1247 N1248 1.613 . S
S1247 N1249 1.610 . S
N1248 S1247 1.613 . S
N1248 C1251 1.350 . S
N1249 S1247 1.610 . S
N1249 C1250 1.351 . S
C1250 C1244 1.428 . S
C1250 N1249 1.351 . S
C1250 C1251 1.434 . S
C1251 C1242 1.429 . S
C1251 N1248 1.350 . S
C1251 C1250 1.434 . S
C1252 C1253 1.369 . S
C1252 C1254 1.419 . S
C1252 H1256 0.930 . S
C1253 C1252 1.369 . S
C1253 C1262 1.429 . S
C1254 C1252 1.419 . S
C1254 C1255 1.363 . S
C1254 H1257 0.929 . S
C1255 C1254 1.363 . S
C1255 C1261 1.428 . S
H1256 C1252 0.930 . S
H1257 C1254 0.929 . S
S1258 N1259 1.613 . S
S1258 N1260 1.610 . S
N1259 S1258 1.613 . S
N1259 C1262 1.350 . S
N1260 S1258 1.610 . S
N1260 C1261 1.351 . S
C1261 C1255 1.428 . S
C1261 N1260 1.351 . S
C1261 C1262 1.434 . S
C1262 C1253 1.429 . S
C1262 N1259 1.350 . S
C1262 C1261 1.434 . S
C1263 C1264 1.369 . S
C1263 C1265 1.419 . S
C1263 H1267 0.930 . S
C1264 C1263 1.369 . S
C1264 C1273 1.429 . S
C1265 C1263 1.419 . S
C1265 C1266 1.363 . S
C1265 H1268 0.929 . S
C1266 C1265 1.363 . S
C1266 C1272 1.428 . S
H1267 C1263 0.930 . S
H1268 C1265 0.929 . S
S1269 N1270 1.613 . S
S1269 N1271 1.610 . S
N1270 S1269 1.613 . S
N1270 C1273 1.350 . S
N1271 S1269 1.610 . S
N1271 C1272 1.351 . S
C1272 C1266 1.428 . S
C1272 N1271 1.351 . S
C1272 C1273 1.434 . S
C1273 C1264 1.429 . S
C1273 N1270 1.350 . S
C1273 C1272 1.434 . S
C1274 C1275 1.369 . S
C1274 C1276 1.419 . S
C1274 H1278 0.930 . S
C1275 C1274 1.369 . S
C1275 C1284 1.429 . S
C1276 C1274 1.419 . S
C1276 C1277 1.363 . S
C1276 H1279 0.929 . S
C1277 C1276 1.363 . S
C1277 C1283 1.428 . S
H1278 C1274 0.930 . S
H1279 C1276 0.929 . S
S1280 N1281 1.613 . S
S1280 N1282 1.610 . S
N1281 S1280 1.613 . S
N1281 C1284 1.350 . S
N1282 S1280 1.610 . S
N1282 C1283 1.351 . S
C1283 C1277 1.428 . S
C1283 N1282 1.351 . S
C1283 C1284 1.434 . S
C1284 C1275 1.429 . S
C1284 N1281 1.350 . S
C1284 C1283 1.434 . S
C1285 C1286 1.369 . S
C1285 C1287 1.419 . S
C1285 H1289 0.930 . S
C1286 C1285 1.369 . S
C1286 C1295 1.429 . S
C1287 C1285 1.419 . S
C1287 C1288 1.363 . S
C1287 H1290 0.929 . S
C1288 C1287 1.363 . S
C1288 C1294 1.428 . S
H1289 C1285 0.930 . S
H1290 C1287 0.929 . S
S1291 N1292 1.613 . S
S1291 N1293 1.610 . S
N1292 S1291 1.613 . S
N1292 C1295 1.350 . S
N1293 S1291 1.610 . S
N1293 C1294 1.351 . S
C1294 C1288 1.428 . S
C1294 N1293 1.351 . S
C1294 C1295 1.434 . S
C1295 C1286 1.429 . S
C1295 N1292 1.350 . S
C1295 C1294 1.434 . S
C505 C37 1.373 . S
C507 C256 1.177 . S
C516 C9 1.353 . S
C518 C272 1.182 . S
C529 C255 1.192 . S
C527 C19 1.364 . S
C540 C280 1.160 . S
C538 C33 1.359 . S
C549 C5 1.389 . S
C551 C289 1.203 . S
C562 C292 1.186 . S
C560 C23 1.375 . S
C571 C75 1.361 . S
C573 C298 1.169 . S
C584 C314 1.159 . S
C582 C51 1.343 . S
C595 C297 1.203 . S
C593 C65 1.396 . S
C604 C79 1.393 . S
C606 C322 1.185 . S
C617 C331 1.186 . S
C615 C47 1.379 . S
C628 C334 1.167 1_655 S
C626 C61 1.356 . S
C639 C343 1.176 . S
C637 C121 1.373 . S
C650 C355 1.182 . S
C648 C93 1.358 . S
C661 C352 1.181 . S
C659 C103 1.361 . S
C670 C117 1.356 . S
C672 C361 1.160 . S
C683 C360 1.199 . S
C681 C89 1.393 . S
C692 C107 1.368 . S
C694 C377 1.186 . S
C705 C382 1.168 . S
C703 C159 1.362 . S
C716 C398 1.173 . S
C714 C135 1.340 . S
C725 C149 1.391 . S
C727 C381 1.214 . S
C738 C406 1.198 . S
C736 C163 1.391 . S
C749 C415 1.193 . S
C747 C131 1.375 . S
C758 C145 1.354 . S
C760 C418 1.159 . S
C769 C205 1.378 . S
C771 C427 1.173 . S
C782 C439 1.182 . S
C780 C177 1.357 . S
C793 C436 1.192 . S
C791 C187 1.364 . S
C802 C201 1.355 . S
C804 C445 1.165 . S
C815 C444 1.205 . S
C813 C173 1.391 . S
C824 C191 1.370 . S
C826 C461 1.190 . S
C837 C466 1.170 . S
C835 C243 1.361 . S
C848 C482 1.159 . S
C846 C219 1.344 . S
C857 C233 1.395 . S
C859 C465 1.203 . S
C870 C487 1.185 . S
C868 C247 1.393 . S
C881 C486 1.181 . S
C879 C215 1.376 . S
C892 C503 1.165 . S
C890 C229 1.356 . S
C903 C268 1.525 . S
C901 C154 1.617 . S
C912 C137 1.531 . S
C914 C271 1.439 . S
C925 C259 1.444 . S
C923 C151 1.550 . S
C934 C249 1.579 . S
C936 C276 1.502 . S
C945 C210 1.526 . S
C947 C277 1.432 . S
C958 C293 1.549 . S
C956 C224 1.628 . S
C969 C310 1.431 . S
C967 C207 1.516 . S
C980 C313 1.515 . S
C978 C179 1.601 . S
C989 C182 1.563 . S
C991 C301 1.468 . S
C1002 C318 1.521 . S
C1000 C112 1.601 . S
C1011 C84 1.603 . S
C1013 C319 1.507 . S
C1022 C109 1.534 . S
C1024 C335 1.453 . S
C1033 C238 1.617 . S
C1035 C339 1.524 . S
C1044 C221 1.527 . S
C1046 C356 1.435 . S
C1057 C340 1.452 . S
C1055 C235 1.547 . S
C1068 C373 1.495 . S
C1066 C81 1.582 . S
C1079 C364 1.433 . S
C1077 C42 1.527 . S
C1088 C56 1.628 . S
C1090 C376 1.547 . S
C1101 C394 1.429 . S
C1099 C39 1.518 . S
C1112 C397 1.506 . S
C1110 C11 1.603 . S
C1121 C14 1.562 . S
C1123 C385 1.471 . S
C1134 C402 1.519 . S
C1132 C196 1.603 . S
C1145 C403 1.513 . S
C1143 C168 1.603 . S
C1156 C419 1.445 . S
C1154 C193 1.537 . S
C1167 C423 1.524 . S
C1165 C70 1.614 . S
C1178 C440 1.434 . S
C1176 C53 1.530 . S
C1187 C67 1.549 . S
C1189 C424 1.443 . S
C1198 C165 1.579 . S
C1200 C457 1.501 . S
C1209 C126 1.524 . S
C1211 C448 1.432 . S
C1222 C460 1.549 . S
C1220 C140 1.628 . S
C1231 C123 1.516 . S
C1233 C478 1.434 . S
C1242 C95 1.604 . S
C1244 C481 1.513 . S
C1255 C469 1.464 . S
C1253 C98 1.567 . S
C1266 C499 1.518 . S
C1264 C28 1.604 . S
C1277 C490 1.513 . S
C1275 C0 1.599 . S
C1286 C25 1.533 . S
C1288 C502 1.447 . S
