# Generated by pormake.
# Topology iac, (4,6)-cn, num edge types: 1
# Building blocks:
#     Node 0, Type 0, BuildingBlock: AZAVOO_clean_sbu_0, # of connection points: 4
#     Node 1, Type 0, BuildingBlock: AZAVOO_clean_sbu_0, # of connection points: 4
#     Node 2, Type 0, BuildingBlock: AZAVOO_clean_sbu_0, # of connection points: 4
#     Node 3, Type 0, BuildingBlock: AZAVOO_clean_sbu_0, # of connection points: 4
#     Node 4, Type 0, BuildingBlock: AZAVOO_clean_sbu_0, # of connection points: 4
#     Node 5, Type 0, BuildingBlock: AZAVOO_clean_sbu_0, # of connection points: 4
#     Node 6, Type 0, BuildingBlock: AZAVOO_clean_sbu_0, # of connection points: 4
#     Node 7, Type 0, BuildingBlock: AZAVOO_clean_sbu_0, # of connection points: 4
#     Node 8, Type 0, BuildingBlock: AZAVOO_clean_sbu_0, # of connection points: 4
#     Node 9, Type 0, BuildingBlock: AZAVOO_clean_sbu_0, # of connection points: 4
#     Node 10, Type 0, BuildingBlock: AZAVOO_clean_sbu_0, # of connection points: 4
#     Node 11, Type 0, BuildingBlock: AZAVOO_clean_sbu_0, # of connection points: 4
#     Node 12, Type 0, BuildingBlock: AZAVOO_clean_sbu_0, # of connection points: 4
#     Node 13, Type 0, BuildingBlock: AZAVOO_clean_sbu_0, # of connection points: 4
#     Node 14, Type 0, BuildingBlock: AZAVOO_clean_sbu_0, # of connection points: 4
#     Node 15, Type 0, BuildingBlock: AZAVOO_clean_sbu_0, # of connection points: 4
#     Node 16, Type 0, BuildingBlock: AZAVOO_clean_sbu_0, # of connection points: 4
#     Node 17, Type 0, BuildingBlock: AZAVOO_clean_sbu_0, # of connection points: 4
#     Node 18, Type 0, BuildingBlock: AZAVOO_clean_sbu_0, # of connection points: 4
#     Node 19, Type 0, BuildingBlock: AZAVOO_clean_sbu_0, # of connection points: 4
#     Node 20, Type 0, BuildingBlock: AZAVOO_clean_sbu_0, # of connection points: 4
#     Node 21, Type 0, BuildingBlock: AZAVOO_clean_sbu_0, # of connection points: 4
#     Node 22, Type 0, BuildingBlock: AZAVOO_clean_sbu_0, # of connection points: 4
#     Node 23, Type 0, BuildingBlock: AZAVOO_clean_sbu_0, # of connection points: 4
#     Node 24, Type 1, BuildingBlock: FUNLAD_clean_sbu_0, # of connection points: 6
#     Node 25, Type 1, BuildingBlock: FUNLAD_clean_sbu_0, # of connection points: 6
#     Node 26, Type 1, BuildingBlock: FUNLAD_clean_sbu_0, # of connection points: 6
#     Node 27, Type 1, BuildingBlock: FUNLAD_clean_sbu_0, # of connection points: 6
#     Node 28, Type 1, BuildingBlock: FUNLAD_clean_sbu_0, # of connection points: 6
#     Node 29, Type 1, BuildingBlock: FUNLAD_clean_sbu_0, # of connection points: 6
#     Node 30, Type 1, BuildingBlock: FUNLAD_clean_sbu_0, # of connection points: 6
#     Node 31, Type 1, BuildingBlock: FUNLAD_clean_sbu_0, # of connection points: 6
#     Node 32, Type 1, BuildingBlock: FUNLAD_clean_sbu_0, # of connection points: 6
#     Node 33, Type 1, BuildingBlock: FUNLAD_clean_sbu_0, # of connection points: 6
#     Node 34, Type 1, BuildingBlock: FUNLAD_clean_sbu_0, # of connection points: 6
#     Node 35, Type 1, BuildingBlock: FUNLAD_clean_sbu_0, # of connection points: 6
#     Node 36, Type 1, BuildingBlock: FUNLAD_clean_sbu_0, # of connection points: 6
#     Node 37, Type 1, BuildingBlock: FUNLAD_clean_sbu_0, # of connection points: 6
#     Node 38, Type 1, BuildingBlock: FUNLAD_clean_sbu_0, # of connection points: 6
#     Node 39, Type 1, BuildingBlock: FUNLAD_clean_sbu_0, # of connection points: 6
#     Edge 40, Type (0, 1), BuildingBlock: TEMPAE_clean_linker_10, # of connection points: 2
#     Edge 41, Type (0, 1), BuildingBlock: TEMPAE_clean_linker_10, # of connection points: 2
#     Edge 42, Type (0, 1), BuildingBlock: TEMPAE_clean_linker_10, # of connection points: 2
#     Edge 43, Type (0, 1), BuildingBlock: TEMPAE_clean_linker_10, # of connection points: 2
#     Edge 44, Type (0, 1), BuildingBlock: TEMPAE_clean_linker_10, # of connection points: 2
#     Edge 45, Type (0, 1), BuildingBlock: TEMPAE_clean_linker_10, # of connection points: 2
#     Edge 46, Type (0, 1), BuildingBlock: TEMPAE_clean_linker_10, # of connection points: 2
#     Edge 47, Type (0, 1), BuildingBlock: TEMPAE_clean_linker_10, # of connection points: 2
#     Edge 48, Type (0, 1), BuildingBlock: TEMPAE_clean_linker_10, # of connection points: 2
#     Edge 49, Type (0, 1), BuildingBlock: TEMPAE_clean_linker_10, # of connection points: 2
#     Edge 50, Type (0, 1), BuildingBlock: TEMPAE_clean_linker_10, # of connection points: 2
#     Edge 51, Type (0, 1), BuildingBlock: TEMPAE_clean_linker_10, # of connection points: 2
#     Edge 52, Type (0, 1), BuildingBlock: TEMPAE_clean_linker_10, # of connection points: 2
#     Edge 53, Type (0, 1), BuildingBlock: TEMPAE_clean_linker_10, # of connection points: 2
#     Edge 54, Type (0, 1), BuildingBlock: TEMPAE_clean_linker_10, # of connection points: 2
#     Edge 55, Type (0, 1), BuildingBlock: TEMPAE_clean_linker_10, # of connection points: 2
#     Edge 56, Type (0, 1), BuildingBlock: TEMPAE_clean_linker_10, # of connection points: 2
#     Edge 57, Type (0, 1), BuildingBlock: TEMPAE_clean_linker_10, # of connection points: 2
#     Edge 58, Type (0, 1), BuildingBlock: TEMPAE_clean_linker_10, # of connection points: 2
#     Edge 59, Type (0, 1), BuildingBlock: TEMPAE_clean_linker_10, # of connection points: 2
#     Edge 60, Type (0, 1), BuildingBlock: TEMPAE_clean_linker_10, # of connection points: 2
#     Edge 61, Type (0, 1), BuildingBlock: TEMPAE_clean_linker_10, # of connection points: 2
#     Edge 62, Type (0, 1), BuildingBlock: TEMPAE_clean_linker_10, # of connection points: 2
#     Edge 63, Type (0, 1), BuildingBlock: TEMPAE_clean_linker_10, # of connection points: 2
#     Edge 64, Type (0, 1), BuildingBlock: TEMPAE_clean_linker_10, # of connection points: 2
#     Edge 65, Type (0, 1), BuildingBlock: TEMPAE_clean_linker_10, # of connection points: 2
#     Edge 66, Type (0, 1), BuildingBlock: TEMPAE_clean_linker_10, # of connection points: 2
#     Edge 67, Type (0, 1), BuildingBlock: TEMPAE_clean_linker_10, # of connection points: 2
#     Edge 68, Type (0, 1), BuildingBlock: TEMPAE_clean_linker_10, # of connection points: 2
#     Edge 69, Type (0, 1), BuildingBlock: TEMPAE_clean_linker_10, # of connection points: 2
#     Edge 70, Type (0, 1), BuildingBlock: TEMPAE_clean_linker_10, # of connection points: 2
#     Edge 71, Type (0, 1), BuildingBlock: TEMPAE_clean_linker_10, # of connection points: 2
#     Edge 72, Type (0, 1), BuildingBlock: TEMPAE_clean_linker_10, # of connection points: 2
#     Edge 73, Type (0, 1), BuildingBlock: TEMPAE_clean_linker_10, # of connection points: 2
#     Edge 74, Type (0, 1), BuildingBlock: TEMPAE_clean_linker_10, # of connection points: 2
#     Edge 75, Type (0, 1), BuildingBlock: TEMPAE_clean_linker_10, # of connection points: 2
#     Edge 76, Type (0, 1), BuildingBlock: TEMPAE_clean_linker_10, # of connection points: 2
#     Edge 77, Type (0, 1), BuildingBlock: TEMPAE_clean_linker_10, # of connection points: 2
#     Edge 78, Type (0, 1), BuildingBlock: TEMPAE_clean_linker_10, # of connection points: 2
#     Edge 79, Type (0, 1), BuildingBlock: TEMPAE_clean_linker_10, # of connection points: 2
#     Edge 80, Type (0, 1), BuildingBlock: TEMPAE_clean_linker_10, # of connection points: 2
#     Edge 81, Type (0, 1), BuildingBlock: TEMPAE_clean_linker_10, # of connection points: 2
#     Edge 82, Type (0, 1), BuildingBlock: TEMPAE_clean_linker_10, # of connection points: 2
#     Edge 83, Type (0, 1), BuildingBlock: TEMPAE_clean_linker_10, # of connection points: 2
#     Edge 84, Type (0, 1), BuildingBlock: TEMPAE_clean_linker_10, # of connection points: 2
#     Edge 85, Type (0, 1), BuildingBlock: TEMPAE_clean_linker_10, # of connection points: 2
#     Edge 86, Type (0, 1), BuildingBlock: TEMPAE_clean_linker_10, # of connection points: 2
#     Edge 87, Type (0, 1), BuildingBlock: TEMPAE_clean_linker_10, # of connection points: 2
#     Edge 88, Type (0, 1), BuildingBlock: TEMPAE_clean_linker_10, # of connection points: 2
#     Edge 89, Type (0, 1), BuildingBlock: TEMPAE_clean_linker_10, # of connection points: 2
#     Edge 90, Type (0, 1), BuildingBlock: TEMPAE_clean_linker_10, # of connection points: 2
#     Edge 91, Type (0, 1), BuildingBlock: TEMPAE_clean_linker_10, # of connection points: 2
#     Edge 92, Type (0, 1), BuildingBlock: TEMPAE_clean_linker_10, # of connection points: 2
#     Edge 93, Type (0, 1), BuildingBlock: TEMPAE_clean_linker_10, # of connection points: 2
#     Edge 94, Type (0, 1), BuildingBlock: TEMPAE_clean_linker_10, # of connection points: 2
#     Edge 95, Type (0, 1), BuildingBlock: TEMPAE_clean_linker_10, # of connection points: 2
#     Edge 96, Type (0, 1), BuildingBlock: TEMPAE_clean_linker_10, # of connection points: 2
#     Edge 97, Type (0, 1), BuildingBlock: TEMPAE_clean_linker_10, # of connection points: 2
#     Edge 98, Type (0, 1), BuildingBlock: TEMPAE_clean_linker_10, # of connection points: 2
#     Edge 99, Type (0, 1), BuildingBlock: TEMPAE_clean_linker_10, # of connection points: 2
#     Edge 100, Type (0, 1), BuildingBlock: TEMPAE_clean_linker_10, # of connection points: 2
#     Edge 101, Type (0, 1), BuildingBlock: TEMPAE_clean_linker_10, # of connection points: 2
#     Edge 102, Type (0, 1), BuildingBlock: TEMPAE_clean_linker_10, # of connection points: 2
#     Edge 103, Type (0, 1), BuildingBlock: TEMPAE_clean_linker_10, # of connection points: 2
#     Edge 104, Type (0, 1), BuildingBlock: TEMPAE_clean_linker_10, # of connection points: 2
#     Edge 105, Type (0, 1), BuildingBlock: TEMPAE_clean_linker_10, # of connection points: 2
#     Edge 106, Type (0, 1), BuildingBlock: TEMPAE_clean_linker_10, # of connection points: 2
#     Edge 107, Type (0, 1), BuildingBlock: TEMPAE_clean_linker_10, # of connection points: 2
#     Edge 108, Type (0, 1), BuildingBlock: TEMPAE_clean_linker_10, # of connection points: 2
#     Edge 109, Type (0, 1), BuildingBlock: TEMPAE_clean_linker_10, # of connection points: 2
#     Edge 110, Type (0, 1), BuildingBlock: TEMPAE_clean_linker_10, # of connection points: 2
#     Edge 111, Type (0, 1), BuildingBlock: TEMPAE_clean_linker_10, # of connection points: 2
#     Edge 112, Type (0, 1), BuildingBlock: TEMPAE_clean_linker_10, # of connection points: 2
#     Edge 113, Type (0, 1), BuildingBlock: TEMPAE_clean_linker_10, # of connection points: 2
#     Edge 114, Type (0, 1), BuildingBlock: TEMPAE_clean_linker_10, # of connection points: 2
#     Edge 115, Type (0, 1), BuildingBlock: TEMPAE_clean_linker_10, # of connection points: 2
#     Edge 116, Type (0, 1), BuildingBlock: TEMPAE_clean_linker_10, # of connection points: 2
#     Edge 117, Type (0, 1), BuildingBlock: TEMPAE_clean_linker_10, # of connection points: 2
#     Edge 118, Type (0, 1), BuildingBlock: TEMPAE_clean_linker_10, # of connection points: 2
#     Edge 119, Type (0, 1), BuildingBlock: TEMPAE_clean_linker_10, # of connection points: 2
#     Edge 120, Type (0, 1), BuildingBlock: TEMPAE_clean_linker_10, # of connection points: 2
#     Edge 121, Type (0, 1), BuildingBlock: TEMPAE_clean_linker_10, # of connection points: 2
#     Edge 122, Type (0, 1), BuildingBlock: TEMPAE_clean_linker_10, # of connection points: 2
#     Edge 123, Type (0, 1), BuildingBlock: TEMPAE_clean_linker_10, # of connection points: 2
#     Edge 124, Type (0, 1), BuildingBlock: TEMPAE_clean_linker_10, # of connection points: 2
#     Edge 125, Type (0, 1), BuildingBlock: TEMPAE_clean_linker_10, # of connection points: 2
#     Edge 126, Type (0, 1), BuildingBlock: TEMPAE_clean_linker_10, # of connection points: 2
#     Edge 127, Type (0, 1), BuildingBlock: TEMPAE_clean_linker_10, # of connection points: 2
#     Edge 128, Type (0, 1), BuildingBlock: TEMPAE_clean_linker_10, # of connection points: 2
#     Edge 129, Type (0, 1), BuildingBlock: TEMPAE_clean_linker_10, # of connection points: 2
#     Edge 130, Type (0, 1), BuildingBlock: TEMPAE_clean_linker_10, # of connection points: 2
#     Edge 131, Type (0, 1), BuildingBlock: TEMPAE_clean_linker_10, # of connection points: 2
#     Edge 132, Type (0, 1), BuildingBlock: TEMPAE_clean_linker_10, # of connection points: 2
#     Edge 133, Type (0, 1), BuildingBlock: TEMPAE_clean_linker_10, # of connection points: 2
#     Edge 134, Type (0, 1), BuildingBlock: TEMPAE_clean_linker_10, # of connection points: 2
#     Edge 135, Type (0, 1), BuildingBlock: TEMPAE_clean_linker_10, # of connection points: 2
# Relax obj value: 0.360
# Max RMSD: 0.275
# Mean RMSD: 0.187
data_MOF--net-iac--node1-AZAVOO_clean_sbu_0--node2-FUNLAD_clean_sbu_0--edge1-TEMPAE_clean_linker_10
_symmetry_space_group_name_H-M    P1
_symmetry_Int_Tables_number       1
_symmetry_cell_setting            triclinic
loop_
_symmetry_equiv_pos_as_xyz
'x, y, z'
_cell_length_a     57.264132
_cell_length_b     53.092159
_cell_length_c     59.547255
_cell_angle_alpha  92.343908
_cell_angle_beta   92.015711
_cell_angle_gamma 91.178692
loop_
_atom_site_label
_atom_site_type_symbol
_atom_site_fract_x
_atom_site_fract_y
_atom_site_fract_z
_atom_type_partial_charge
Mg0 Mg 0.0022 0.30778 0.18455 0.0
O1 O -0.00683 0.27155 0.16387 0.0
O2 O 0.9546 0.26378 0.16247 0.0
Mg3 Mg 0.93896 0.2973 0.18131 0.0
C4 C 0.97535 0.258 0.15745 0.0
C5 C 0.05036 0.32116 0.16117 0.0
O6 O 0.04184 0.34347 0.15751 0.0
O7 O -0.01001 0.3297 0.15503 0.0
O8 O 0.95165 0.32043 0.15203 0.0
O9 O 0.00405 0.28496 0.21452 0.0
O10 O 0.97191 0.30334 0.2017 0.0
C11 C 0.97009 0.33093 0.14493 0.0
C12 C 0.98165 0.28769 0.21498 0.0
O13 O 0.03848 0.30512 0.17144 0.0
Mg14 Mg 0.02113 0.73804 0.37193 0.0
O15 O 0.01841 0.77275 0.3976 0.0
O16 O 0.98392 0.76679 0.41343 0.0
Mg17 Mg 0.96477 0.73105 0.39902 0.0
C18 C 0.00272 0.77977 0.41132 0.0
C19 C 0.06784 0.75715 0.3502 0.0
O20 O 0.0525 0.77011 0.33882 0.0
O21 O 0.02847 0.71063 0.4004 0.0
O22 O -0.00718 0.70488 0.4136 0.0
O23 O 0.00235 0.75825 0.34403 0.0
O24 O 0.98443 0.73572 0.36858 0.0
C25 C 0.01447 0.69945 0.41324 0.0
C26 C 0.98292 0.74978 0.35155 0.0
O27 O 0.06077 0.74383 0.36607 0.0
Mg28 Mg 0.52515 0.72557 0.64526 0.0
O29 O 0.51595 0.68656 0.62893 0.0
O30 O 0.47866 0.68823 0.61659 0.0
Mg31 Mg 0.46406 0.72675 0.62569 0.0
C32 C 0.49767 0.67634 0.61917 0.0
C33 C 0.57613 0.71133 0.6602 0.0
O34 O 0.56521 0.70197 0.67713 0.0
O35 O 0.52593 0.74237 0.6112 0.0
O36 O 0.48832 0.74571 0.60092 0.0
O37 O 0.5139 0.71273 0.67849 0.0
O38 O 0.49075 0.72997 0.65321 0.0
C39 C 0.51002 0.74935 0.59748 0.0
C40 C 0.49313 0.71948 0.67225 0.0
O41 O 0.56419 0.71985 0.64397 0.0
Mg42 Mg 0.52014 0.24146 0.86723 0.0
O43 O 0.51725 0.27531 0.89355 0.0
O44 O 0.48221 0.26965 0.90838 0.0
Mg45 Mg 0.46299 0.2346 0.89278 0.0
C46 C 0.50133 0.28228 0.907 0.0
C47 C 0.56805 0.26291 0.84931 0.0
O48 O 0.55356 0.27838 0.83966 0.0
O49 O 0.52636 0.21321 0.89526 0.0
O50 O 0.49037 0.20791 0.90776 0.0
O51 O 0.5026 0.26326 0.83968 0.0
O52 O 0.48347 0.24006 0.86295 0.0
C53 C 0.51196 0.20216 0.90778 0.0
C54 C 0.48276 0.25511 0.84656 0.0
O55 O 0.55998 0.24706 0.86272 0.0
Mg56 Mg 0.14699 -0.00697 0.26684 0.0
O57 O 0.17001 0.02706 0.26023 0.0
O58 O 0.19402 0.03477 0.29019 0.0
Mg59 Mg 0.18536 0.006 0.31655 0.0
C60 C 0.18643 0.03994 0.27052 0.0
C61 C 0.1124 -0.00791 0.22839 0.0
O62 O 0.10026 -0.0087 0.24666 0.0
O63 O 0.17735 0.96678 0.26117 0.0
O64 O 0.19767 0.97315 0.29384 0.0
O65 O 0.12135 0.01864 0.28208 0.0
O66 O 0.1499 0.00127 0.30148 0.0
C67 C 0.19414 0.96155 0.27475 0.0
C68 C 0.13257 0.01635 0.30107 0.0
O69 O 0.13453 -0.00898 0.23018 0.0
Mg70 Mg 0.27878 0.90775 0.55409 0.0
O71 O 0.28292 0.87802 0.5249 0.0
O72 O 0.31875 0.86292 0.53083 0.0
Mg73 Mg 0.33643 0.88082 0.56279 0.0
C74 C 0.29969 0.8638 0.51908 0.0
C75 C 0.22481 0.90509 0.53271 0.0
O76 O 0.23119 0.89004 0.51608 0.0
O77 O 0.27252 0.87712 0.57915 0.0
O78 O 0.30891 0.8641 0.58576 0.0
O79 O 0.29508 0.93658 0.53298 0.0
O80 O 0.31475 0.91336 0.55678 0.0
C81 C 0.28712 0.86372 0.58977 0.0
C82 C 0.31498 0.92962 0.54134 0.0
O83 O 0.2397 0.91262 0.54795 0.0
Mg84 Mg 0.40654 0.02054 0.74975 0.0
O85 O 0.3757 -0.00706 0.75571 0.0
O86 O 0.36589 0.00275 0.79104 0.0
Mg87 Mg 0.38812 0.03554 0.80652 0.0
C88 C 0.36332 0.9892 0.77284 0.0
C89 C 0.42982 0.01771 0.70886 0.0
O90 O 0.44309 0.02614 0.72613 0.0
O91 O 0.38189 0.05297 0.74504 0.0
O92 O 0.37322 0.06278 0.78056 0.0
O93 O 0.43056 -0.00765 0.76296 0.0
O94 O 0.41503 0.02263 0.78392 0.0
C95 C 0.37182 0.0669 0.75955 0.0
C96 C 0.42726 0.00253 0.78265 0.0
O97 O 0.40851 0.01217 0.7122 0.0
Mg98 Mg 0.29436 0.03453 0.9691 0.0
O99 O 0.27919 0.06077 -0.00285 0.0
O100 O 0.30679 0.09155 0.00168 0.0
Mg101 Mg 0.33856 0.08473 0.98097 0.0
C102 C 0.28692 0.08189 0.00602 0.0
C103 C 0.23926 0.00959 0.96158 0.0
O104 O 0.22829 0.98973 0.95205 0.0
O105 O 0.28532 0.06428 0.94391 0.0
O106 O 0.3136 0.09333 0.9519 0.0
O107 O 0.31294 0.01077 -0.00586 0.0
O108 O 0.3275 0.04539 0.98041 0.0
C109 C 0.29538 0.08541 0.94062 0.0
C110 C 0.32995 0.02715 -0.00623 0.0
O111 O 0.2612 0.01153 0.95957 0.0
Mg112 Mg 0.77659 0.4106 0.05904 0.0
O113 O 0.78419 0.38225 0.02979 0.0
O114 O 0.82029 0.36861 0.03699 0.0
Mg115 Mg 0.83519 0.38691 0.07008 0.0
C116 C 0.80169 0.36889 0.0245 0.0
C117 C 0.72992 0.43392 0.05518 0.0
O118 O 0.7443 0.45031 0.06586 0.0
O119 O 0.77043 0.37842 0.08275 0.0
O120 O 0.80716 0.36742 0.09086 0.0
O121 O 0.79253 0.44138 0.03996 0.0
O122 O 0.81235 0.41866 0.06397 0.0
C123 C 0.78517 0.36543 0.09366 0.0
C124 C 0.81244 0.43562 0.0491 0.0
O125 O 0.73782 0.41258 0.04906 0.0
Mg126 Mg 0.90952 0.49912 0.25045 0.0
O127 O 0.87992 0.47072 0.25774 0.0
O128 O 0.8719 0.47902 0.2938 0.0
Mg129 Mg 0.8944 0.51192 0.30885 0.0
C130 C 0.86854 0.46614 0.27532 0.0
C131 C 0.93081 0.48997 0.20808 0.0
O132 O 0.94636 0.49452 0.22457 0.0
O133 O 0.88324 0.53076 0.24785 0.0
O134 O 0.8772 0.539 0.28434 0.0
O135 O 0.93533 0.4716 0.2627 0.0
O136 O 0.92005 0.50136 0.28424 0.0
C137 C 0.87397 0.54374 0.26359 0.0
C138 C 0.93318 0.48205 0.28245 0.0
O139 O 0.90923 0.49042 0.21257 0.0
Mg140 Mg 0.81164 0.59368 0.50079 0.0
O141 O 0.82437 0.61681 0.53216 0.0
O142 O 0.85884 0.63468 0.5249 0.0
Mg143 Mg 0.8688 0.62069 0.48974 0.0
C144 C 0.842 0.63101 0.53797 0.0
C145 C 0.76507 0.57889 0.52506 0.0
O146 O 0.77778 0.56174 0.53465 0.0
O147 O 0.80441 0.62923 0.48327 0.0
O148 O 0.83928 0.64431 0.47412 0.0
O149 O 0.82806 0.55943 0.5136 0.0
O150 O 0.84559 0.58717 0.49268 0.0
C151 C 0.81698 0.64544 0.47388 0.0
C152 C 0.8468 0.56707 0.50406 0.0
O153 O 0.77458 0.59399 0.51202 0.0
Mg154 Mg 0.64591 0.49623 0.75356 0.0
O155 O 0.66812 0.53303 0.75462 0.0
O156 O 0.6859 0.53591 0.78873 0.0
Mg157 Mg 0.67541 0.5025 0.80906 0.0
C158 C 0.68175 0.54454 0.76933 0.0
C159 C 0.62481 0.50581 0.70517 0.0
O160 O 0.61049 0.51986 0.71674 0.0
O161 O 0.67801 0.47248 0.7506 0.0
O162 O 0.69494 0.47585 0.78504 0.0
O163 O 0.61585 0.51733 0.76716 0.0
O164 O 0.64292 0.49943 0.78807 0.0
C165 C 0.69416 0.46705 0.76474 0.0
C166 C 0.62459 0.51303 0.78696 0.0
O167 O 0.64156 0.49535 0.71545 0.0
Mg168 Mg 0.9721 0.80267 0.90848 0.0
O169 O 0.97334 0.84294 0.9226 0.0
O170 O 0.942 0.84971 0.94302 0.0
Mg171 Mg 0.91948 0.81346 0.94032 0.0
C172 C 0.96142 0.85707 0.93539 0.0
C173 C 0.01323 0.82332 0.88323 0.0
O174 O -0.00443 0.83628 0.8756 0.0
O175 O 0.9821 0.79012 0.94349 0.0
O176 O 0.9483 0.7943 0.96097 0.0
O177 O 0.95122 0.81232 0.87785 0.0
O178 O 0.93591 0.80026 0.9093 0.0
C179 C 0.96968 0.78775 0.96074 0.0
C180 C 0.93284 0.807 0.88893 0.0
O181 O 0.00975 0.80762 0.89839 0.0
Mg182 Mg 0.01556 0.25987 0.6613 0.0
O183 O 0.0146 0.22191 0.64012 0.0
O184 O 0.98103 0.22143 0.61986 0.0
Mg185 Mg 0.96011 0.25685 0.62889 0.0
C186 C 0.00028 0.21122 0.62552 0.0
C187 C 0.06889 0.23966 0.6699 0.0
O188 O 0.06066 0.21689 0.66436 0.0
O189 O 0.0226 0.2826 0.63013 0.0
O190 O 0.9872 0.28324 0.61317 0.0
O191 O -0.00349 0.24268 0.69003 0.0
O192 O 0.97895 0.26066 0.66172 0.0
C193 C 0.0087 0.29039 0.61475 0.0
C194 C 0.97719 0.24962 0.68042 0.0
O195 O 0.05513 0.25819 0.66975 0.0
Mg196 Mg 0.45973 0.24588 0.3725 0.0
O197 O 0.46768 0.28757 0.37423 0.0
O198 O 0.43535 0.30691 0.38447 0.0
Mg199 Mg 0.40486 0.27814 0.37944 0.0
C200 C 0.45725 0.30721 0.38104 0.0
C201 C 0.5096 0.22846 0.36327 0.0
O202 O 0.49763 0.21461 0.34792 0.0
O203 O 0.45407 0.24872 0.40976 0.0
O204 O 0.41745 0.26221 0.41329 0.0
O205 O 0.45448 0.24504 0.33558 0.0
O206 O 0.42648 0.25165 0.35984 0.0
C207 C 0.43663 0.25413 0.42167 0.0
C208 C 0.43287 0.25006 0.33927 0.0
O209 O 0.49861 0.24129 0.37772 0.0
Mg210 Mg 0.51535 0.75901 0.15932 0.0
O211 O 0.51225 0.72296 0.136 0.0
O212 O 0.47837 0.72426 0.11649 0.0
Mg213 Mg 0.45918 0.76009 0.12779 0.0
C214 C 0.49751 0.71338 0.12125 0.0
C215 C 0.56794 0.76934 0.17491 0.0
O216 O 0.55895 0.79165 0.17857 0.0
O217 O 0.52299 0.78411 0.1293 0.0
O218 O 0.48723 0.78585 0.11321 0.0
O219 O 0.49523 0.74034 0.18683 0.0
O220 O 0.47866 0.76205 0.16033 0.0
C221 C 0.50878 0.79277 0.11454 0.0
C222 C 0.47631 0.74924 0.17797 0.0
O223 O 0.55465 0.75155 0.16654 0.0
Mg224 Mg 0.90419 0.0183 0.80929 0.0
O225 O 0.88524 0.98049 0.80966 0.0
O226 O 0.86171 0.97876 0.83855 0.0
Mg227 Mg 0.86759 0.01662 0.8583 0.0
C228 C 0.86998 0.969 0.82068 0.0
C229 C 0.92932 0.01869 0.76321 0.0
O230 O 0.93924 0.03932 0.77243 0.0
O231 O 0.87029 0.03563 0.79737 0.0
O232 O 0.84981 0.03634 0.82878 0.0
O233 O 0.93386 0.00695 0.83204 0.0
O234 O 0.90169 0.02481 0.84354 0.0
C235 C 0.85212 0.04147 0.80815 0.0
C236 C 0.92203 0.01638 0.84841 0.0
O237 O 0.9142 0.0068 0.77397 0.0
Mg238 Mg 0.7761 0.10259 0.48545 0.0
O239 O 0.7785 0.12672 0.51809 0.0
O240 O 0.81221 0.14855 0.52052 0.0
Mg241 Mg 0.8318 0.13787 0.48869 0.0
C242 C 0.79257 0.14246 0.52847 0.0
C243 C 0.72273 0.0846 0.47914 0.0
O244 O 0.72884 0.07694 0.45896 0.0
O245 O 0.76879 0.1373 0.46515 0.0
O246 O 0.80386 0.15679 0.46662 0.0
O247 O 0.79396 0.07094 0.50186 0.0
O248 O 0.81257 0.10127 0.48489 0.0
C249 C 0.78246 0.1552 0.45971 0.0
C250 C 0.81352 0.08121 0.49634 0.0
O251 O 0.73774 0.09584 0.49239 0.0
Mg252 Mg 0.643 0.98851 0.2963 0.0
O253 O 0.66164 0.02634 0.29949 0.0
O254 O 0.6822 0.03203 0.33168 0.0
Mg255 Mg 0.6757 -0.00489 0.34978 0.0
C256 C 0.67503 0.03984 0.31272 0.0
C257 C 0.62666 0.0171 0.25624 0.0
O258 O 0.6202 0.03106 0.27355 0.0
O259 O 0.67689 0.9695 0.2896 0.0
O260 O 0.69587 0.97168 0.32305 0.0
O261 O 0.6124 0.00447 0.31187 0.0
O262 O 0.64141 0.98761 0.33134 0.0
C263 C 0.69439 0.96436 0.30227 0.0
C264 C 0.62183 -0.00063 0.33116 0.0
O265 O 0.63677 -0.00359 0.25962 0.0
Mg266 Mg 0.75758 0.88116 0.03765 0.0
O267 O 0.74936 0.8811 -0.00021 0.0
O268 O 0.78207 0.89108 0.98252 0.0
Mg269 Mg 0.81072 0.90128 0.0095 0.0
C270 C 0.76041 0.8847 0.98195 0.0
C271 C 0.70327 0.85697 0.04343 0.0
O272 O 0.69135 0.8371 0.04947 0.0
O273 O 0.7786 0.84621 0.03174 0.0
O274 O 0.81302 0.85987 0.01981 0.0
O275 O 0.74967 0.92253 0.04486 0.0
O276 O 0.78323 0.90801 0.03368 0.0
C277 C 0.79971 0.84232 0.02659 0.0
C278 C 0.77091 0.92694 0.03925 0.0
O279 O 0.7255 0.856 0.04425 0.0
Mg280 Mg 0.27277 0.6017 0.97633 0.0
O281 O 0.27378 0.62258 0.01081 0.0
O282 O 0.30742 0.64429 0.01596 0.0
Mg283 Mg 0.32817 0.63752 0.98423 0.0
C284 C 0.28753 0.63725 0.0228 0.0
C285 C 0.22892 0.58233 -0.00116 0.0
O286 O 0.24594 0.57777 0.01339 0.0
O287 O 0.26572 0.63866 0.95895 0.0
O288 O 0.30056 0.65845 0.96356 0.0
O289 O 0.29069 0.56856 0.99042 0.0
O290 O 0.30939 0.60117 0.97703 0.0
C291 C 0.27942 0.65744 0.95586 0.0
C292 C 0.3103 0.57987 0.98662 0.0
O293 O 0.23392 0.59272 0.98066 0.0
Mg294 Mg 0.14124 0.51048 0.80924 0.0
O295 O 0.16444 0.5453 0.80772 0.0
O296 O 0.18538 0.55149 0.83973 0.0
Mg297 Mg 0.17517 0.51873 0.86181 0.0
C298 C 0.17938 0.55805 0.82001 0.0
C299 C 0.11616 0.52291 0.76503 0.0
O300 O 0.10091 0.52991 0.77987 0.0
O301 O 0.17179 0.48502 0.80458 0.0
O302 O 0.19159 0.48901 0.83757 0.0
O303 O 0.114 0.53391 0.82342 0.0
O304 O 0.14018 0.51451 0.84436 0.0
C305 C 0.18865 0.47902 0.81771 0.0
C306 C 0.12266 0.52944 0.84315 0.0
O307 O 0.13493 0.51279 0.77169 0.0
Mg308 Mg 0.25931 0.41604 0.49732 0.0
O309 O 0.24111 0.38852 0.47059 0.0
O310 O 0.24765 0.34831 0.47883 0.0
Mg311 Mg 0.25535 0.3507 0.51643 0.0
C312 C 0.24056 0.36486 0.4653 0.0
C313 C 0.27143 0.46325 0.53065 0.0
O314 O 0.28363 0.47653 0.5462 0.0
O315 O 0.22837 0.41682 0.52114 0.0
O316 O 0.22507 0.37695 0.5144 0.0
O317 O 0.29374 0.40433 0.4839 0.0
O318 O 0.27831 0.38481 0.51146 0.0
C319 C 0.22457 0.39518 0.52865 0.0
C320 C 0.29525 0.38693 0.49821 0.0
O321 O 0.27994 0.44341 0.52191 0.0
Mg322 Mg 0.39191 0.49298 0.30205 0.0
O323 O 0.36979 0.45893 0.28982 0.0
O324 O 0.34238 0.45089 0.31429 0.0
Mg325 Mg 0.34799 0.48058 0.34341 0.0
C326 C 0.35231 0.44601 0.29581 0.0
C327 C 0.42042 0.4754 0.26197 0.0
O328 O 0.42614 0.45916 0.27716 0.0
O329 O 0.36237 0.51885 0.2928 0.0
O330 O 0.3373 0.51244 0.32012 0.0
O331 O 0.41609 0.46949 0.32201 0.0
O332 O 0.38502 0.48763 0.33572 0.0
C333 C 0.34354 0.52398 0.30278 0.0
C334 C 0.40308 0.47408 0.33898 0.0
O335 O 0.40642 0.49286 0.267 0.0
C336 C -0.00772 0.06169 0.00263 0.0
N337 N 0.96115 0.03668 0.06003 0.0
C338 C 0.94373 0.05106 0.05173 0.0
C339 C 0.92043 0.04429 0.05436 0.0
C340 C 0.91474 0.02283 0.06625 0.0
C341 C 0.93316 0.00919 0.07589 0.0
C342 C 0.95636 0.0163 0.07231 0.0
Zn343 Zn -0.00575 0.04647 0.05158 0.0
C344 C 0.01807 0.00615 0.0281 0.0
N345 N 0.06026 0.07239 0.02973 0.0
C346 C 0.06422 0.09314 0.01757 0.0
C347 C 0.07824 0.05826 0.03726 0.0
C348 C 0.10122 0.06486 0.03283 0.0
C349 C 0.10583 0.08591 0.0201 0.0
C350 C 0.08704 0.10011 0.01227 0.0
Zn351 Zn 0.02731 0.06163 0.03831 0.0
O352 O 0.98121 0.05347 0.019 0.0
C353 C 0.00233 0.10187 0.06167 0.0
O354 O 0.01331 0.06946 0.00588 0.0
H355 H 0.07478 0.04162 0.04658 0.0
H356 H 0.94785 0.06745 0.04232 0.0
H357 H 0.04967 0.10416 0.01182 0.0
O358 O 0.98837 0.08329 0.06356 0.0
O359 O 0.02097 0.09884 0.05099 0.0
H360 H 0.97048 0.00523 0.07891 0.0
O361 O 0.04102 0.05254 0.07085 0.0
O362 O 0.00788 0.03793 0.08315 0.0
O363 O 0.03254 0.02416 0.02518 0.0
O364 O 0.00034 0.00995 0.03987 0.0
C365 C 0.02958 0.04261 0.08626 0.0
H366 H 0.90714 0.05528 0.04621 0.0
H367 H 0.9298 -0.00714 0.08568 0.0
H368 H 0.11522 0.05301 0.03856 0.0
H369 H 0.08999 0.11622 0.00207 0.0
C370 C 0.31946 0.74685 0.25301 0.0
N371 N 0.25508 0.72729 0.22019 0.0
C372 C 0.26347 0.74056 0.20303 0.0
C373 C 0.26082 0.73109 0.18088 0.0
C374 C 0.24965 0.70757 0.17631 0.0
C375 C 0.24008 0.69485 0.19419 0.0
C376 C 0.24292 0.70517 0.21613 0.0
Zn377 Zn 0.26583 0.73868 0.25225 0.0
C378 C 0.28065 0.69538 0.27865 0.0
N379 N 0.29255 0.7627 0.31785 0.0
C380 C 0.30639 0.78353 0.32255 0.0
C381 C 0.28205 0.7505 0.33457 0.0
C382 C 0.28417 0.75985 0.3568 0.0
C383 C 0.29755 0.7819 0.36218 0.0
C384 C 0.30928 0.79337 0.34471 0.0
Zn385 Zn 0.28231 0.75143 0.28542 0.0
O386 O 0.30119 0.7408 0.24101 0.0
C387 C 0.26718 0.79455 0.25879 0.0
O388 O 0.31733 0.75303 0.27374 0.0
H389 H 0.27093 0.73411 0.33055 0.0
H390 H 0.27343 0.75787 0.2066 0.0
H391 H 0.31448 0.79308 0.30903 0.0
O392 O 0.26026 0.77679 0.24506 0.0
O393 O 0.27766 0.78944 0.27716 0.0
H394 H 0.23645 0.69486 0.23001 0.0
O395 O 0.24694 0.75001 0.29633 0.0
O396 O 0.23092 0.7364 0.26403 0.0
O397 O 0.28696 0.71289 0.29294 0.0
O398 O 0.27113 0.70104 0.26003 0.0
C399 C 0.22873 0.7433 0.28457 0.0
H400 H 0.26874 0.74135 0.16765 0.0
H401 H 0.23122 0.67673 0.19132 0.0
H402 H 0.27445 0.75045 0.36941 0.0
H403 H 0.32018 0.81011 0.34799 0.0
C404 C 0.50494 0.01629 0.55863 0.0
N405 N 0.53383 0.95899 0.51892 0.0
C406 C 0.54776 0.95331 0.53688 0.0
C407 C 0.55235 0.92823 0.54115 0.0
C408 C 0.54219 0.90886 0.52699 0.0
C409 C 0.52916 0.9154 0.50777 0.0
C410 C 0.52523 0.94073 0.50401 0.0
Zn411 Zn 0.52295 -0.00515 0.51576 0.0
C412 C 0.47234 -0.00381 0.50432 0.0
N413 N 0.49954 0.06951 0.5096 0.0
C414 C 0.50579 0.08858 0.52474 0.0
C415 C 0.48492 0.07333 0.49166 0.0
C416 C 0.47619 0.09711 0.48819 0.0
C417 C 0.48284 0.11737 0.5031 0.0
C418 C 0.49759 0.11289 0.52177 0.0
Zn419 Zn 0.51118 0.03404 0.51297 0.0
O420 O 0.51419 -0.00325 0.55006 0.0
C421 C 0.56183 0.03296 0.52366 0.0
O422 O 0.50235 0.03549 0.54685 0.0
H423 H 0.48011 0.0579 0.47989 0.0
H424 H 0.55447 0.96818 0.54845 0.0
H425 H 0.51734 0.08499 0.53896 0.0
O426 O 0.55738 0.00936 0.52337 0.0
O427 O 0.54515 0.04807 0.52096 0.0
H428 H 0.5143 0.94571 0.48976 0.0
O429 O 0.52054 0.03236 0.47889 0.0
O430 O 0.53127 -0.00686 0.48182 0.0
O431 O 0.47704 0.01966 0.5049 0.0
O432 O 0.48868 0.9809 0.50778 0.0
C433 C 0.52922 0.01255 0.47025 0.0
H434 H 0.56285 0.92402 0.55595 0.0
H435 H 0.5208 0.90114 0.49651 0.0
H436 H 0.46451 0.09967 0.4738 0.0
H437 H 0.5032 0.12807 0.53356 0.0
C438 C 0.29181 0.22714 0.73356 0.0
N439 N 0.26291 0.24628 0.79398 0.0
C440 C 0.24841 0.22569 0.79081 0.0
C441 C 0.24562 0.20903 0.80803 0.0
C442 C 0.25817 0.21355 0.82841 0.0
C443 C 0.27173 0.23573 0.83183 0.0
C444 C 0.27371 0.25213 0.81428 0.0
Zn445 Zn 0.27271 0.26473 0.76656 0.0
C446 C 0.32465 0.2782 0.77034 0.0
N447 N 0.29515 0.2997 0.70797 0.0
C448 C 0.28926 0.28767 0.68789 0.0
C449 C 0.30206 0.32443 0.70915 0.0
C450 C 0.30112 0.33859 0.68987 0.0
C451 C 0.29347 0.32699 0.66925 0.0
C452 C 0.28852 0.30098 0.66819 0.0
Zn453 Zn 0.28648 0.2821 0.73655 0.0
O454 O 0.28004 0.22971 0.75111 0.0
C455 C 0.23459 0.26715 0.73277 0.0
O456 O 0.29799 0.24659 0.7233 0.0
H457 H 0.30669 0.33366 0.72526 0.0
H458 H 0.24028 0.22118 0.77444 0.0
H459 H 0.28337 0.26817 0.68734 0.0
O460 O 0.23829 0.26216 0.75321 0.0
O461 O 0.25163 0.27503 0.72159 0.0
H462 H 0.28512 0.2686 0.81641 0.0
O463 O 0.27534 0.31712 0.75088 0.0
O464 O 0.26524 0.29993 0.78208 0.0
O465 O 0.32082 0.2886 0.75171 0.0
O466 O 0.30794 0.26694 0.77958 0.0
C467 C 0.26754 0.31941 0.77058 0.0
H468 H 0.23527 0.19185 0.80489 0.0
H469 H 0.2817 0.23956 0.84744 0.0
H470 H 0.30513 0.35864 0.69127 0.0
H471 H 0.28227 0.29146 0.65262 0.0
C472 C 0.06402 0.97972 0.53328 0.0
N473 N 0.03204 0.01881 0.48167 0.0
C474 C 0.05242 0.03244 0.48192 0.0
C475 C 0.06129 0.04061 0.46191 0.0
C476 C 0.04891 0.03489 0.44151 0.0
C477 C 0.02706 0.0224 0.442 0.0
C478 C 0.019 0.01429 0.46236 0.0
Zn479 Zn 0.02254 0.00262 0.51029 0.0
C480 C 0.01164 0.94686 0.50183 0.0
N481 N 0.0043 0.96846 0.57065 0.0
C482 C 0.01805 0.97442 0.58928 0.0
C483 C 0.98287 0.95727 0.57224 0.0
C484 C 0.97362 0.95385 0.59332 0.0
C485 C 0.9867 0.96185 0.6128 0.0
C486 C 0.0096 0.97113 0.61063 0.0
Zn487 Zn 0.01363 0.98349 0.54127 0.0
O488 O 0.05785 -0.00715 0.51682 0.0
C489 C 0.02444 0.03946 0.54946 0.0
O490 O 0.04885 0.97336 0.54716 0.0
H491 H 0.97223 0.9527 0.5572 0.0
H492 H 0.06241 0.03594 0.49752 0.0
H493 H 0.03487 0.98366 0.58765 0.0
O494 O 0.02764 0.03807 0.52843 0.0
O495 O 0.01918 0.01936 0.55925 0.0
H496 H 0.0028 0.00348 0.4626 0.0
O497 O 0.97838 -0.00626 0.53494 0.0
O498 O 0.98725 0.01188 0.50385 0.0
O499 O 0.00818 0.94795 0.52288 0.0
O500 O 0.01724 0.96702 0.49226 0.0
C501 C 0.97213 0.0059 0.5179 0.0
H502 H 0.0783 0.04995 0.46234 0.0
H503 H 0.01675 0.018 0.42669 0.0
H504 H 0.95595 0.94643 0.59436 0.0
H505 H 0.02015 0.97781 0.62521 0.0
C506 C 0.25022 0.78418 0.73351 0.0
N507 N 0.30583 0.75136 0.76833 0.0
C508 C 0.30782 0.73552 0.75002 0.0
C509 C 0.32952 0.72596 0.74469 0.0
C510 C 0.34931 0.73263 0.75844 0.0
C511 C 0.34654 0.74828 0.77771 0.0
C512 C 0.32456 0.7576 0.78228 0.0
Zn513 Zn 0.27443 0.76641 0.77495 0.0
C514 C 0.27848 0.82223 0.78333 0.0
N515 N 0.20908 0.79824 0.78984 0.0
C516 C 0.1895 0.79153 0.77725 0.0
C517 C 0.20794 0.81273 0.80911 0.0
C518 C 0.18639 0.81979 0.81716 0.0
C519 C 0.16573 0.81214 0.80513 0.0
C520 C 0.16754 0.79848 0.78454 0.0
Zn521 Zn 0.24044 0.7835 0.78216 0.0
O522 O 0.26829 0.77296 0.74048 0.0
C523 C 0.23675 0.72764 0.77378 0.0
O524 O 0.23489 0.79083 0.7474 0.0
H525 H 0.22375 0.81785 0.81885 0.0
H526 H 0.29265 0.73073 0.73924 0.0
H527 H 0.19085 0.77998 0.76198 0.0
O528 O 0.25848 0.73055 0.77094 0.0
O529 O 0.22451 0.74691 0.77785 0.0
H530 H 0.32254 0.77017 0.79679 0.0
O531 O 0.24642 0.77581 0.8169 0.0
O532 O 0.2801 0.75949 0.80922 0.0
O533 O 0.2567 0.8197 0.78631 0.0
O534 O 0.2904 0.80279 0.77908 0.0
C535 C 0.26472 0.76468 0.8234 0.0
H536 H 0.33089 0.71431 0.72945 0.0
H537 H 0.36128 0.75368 0.78889 0.0
H538 H 0.18595 0.83003 0.83324 0.0
H539 H 0.15213 0.79258 0.77446 0.0
C540 C 0.5422 0.94916 0.02877 0.0
N541 N 0.55542 0.02251 0.0545 0.0
C542 C 0.53998 0.01907 0.07099 0.0
C543 C 0.54597 0.0264 0.09314 0.0
C544 C 0.56849 0.03626 0.09861 0.0
C545 C 0.58349 0.04122 0.08107 0.0
C546 C 0.57643 0.03441 0.05896 0.0
Zn547 Zn 0.54818 0.00543 0.02384 0.0
C548 C 0.59184 0.98654 0.00282 0.0
N549 N 0.53395 0.967 0.96105 0.0
C550 C 0.51694 0.94869 0.95937 0.0
C551 C 0.54326 0.97659 0.94247 0.0
C552 C 0.53374 0.96979 0.92122 0.0
C553 C 0.51471 0.95256 0.91903 0.0
C554 C 0.50724 0.94089 0.93837 0.0
Zn555 Zn 0.54185 0.98442 -0.00864 0.0
O556 O 0.54477 0.97014 0.03974 0.0
C557 C 0.49801 0.00114 0.01272 0.0
O558 O 0.54075 0.94908 0.0074 0.0
H559 H 0.55693 -0.00903 0.94421 0.0
H560 H 0.52345 0.00937 0.0673 0.0
H561 H 0.50979 0.94131 0.97439 0.0
O562 O 0.51218 0.01138 0.02734 0.0
O563 O 0.50586 0.98877 -0.00395 0.0
H564 H 0.58834 0.03729 0.04557 0.0
O565 O 0.54288 0.0204 0.9759 0.0
O566 O 0.55127 0.04071 0.008 0.0
O567 O 0.57763 0.97953 0.98683 0.0
O568 O 0.58416 -0.00171 0.01996 0.0
C569 C 0.54721 0.04114 0.98687 0.0
H570 H 0.5335 0.02298 0.10599 0.0
H571 H 0.60105 0.04871 0.0844 0.0
H572 H 0.54007 0.97957 0.90696 0.0
H573 H 0.49304 0.92706 0.93748 0.0
C574 C 0.23403 0.21175 0.22277 0.0
N575 N 0.26802 0.23771 0.16764 0.0
C576 C 0.27957 0.21555 0.16802 0.0
C577 C 0.28 0.19968 0.14884 0.0
C578 C 0.26812 0.20636 0.12906 0.0
C579 C 0.25741 0.22991 0.12864 0.0
C580 C 0.25773 0.2455 0.14821 0.0
Zn581 Zn 0.25953 0.25312 0.19848 0.0
C582 C 0.211 0.27376 0.19684 0.0
N583 N 0.23685 0.2771 0.26316 0.0
C584 C 0.24236 0.26294 0.28105 0.0
C585 C 0.2271 0.30014 0.266 0.0
C586 C 0.22326 0.31011 0.28761 0.0
C587 C 0.22984 0.29633 0.30631 0.0
C588 C 0.23911 0.27231 0.30288 0.0
Zn589 Zn 0.24601 0.26419 0.23205 0.0
O590 O 0.24508 0.21679 0.20532 0.0
C591 C 0.29476 0.24518 0.23411 0.0
O592 O 0.23093 0.22909 0.23754 0.0
H593 H 0.22298 0.31113 0.25155 0.0
H594 H 0.28693 0.20907 0.18364 0.0
H595 H 0.24997 0.24463 0.27843 0.0
O596 O 0.29221 0.24348 0.21286 0.0
O597 O 0.27804 0.25251 0.24595 0.0
H598 H 0.24844 0.26302 0.14818 0.0
O599 O 0.26144 0.29931 0.22641 0.0
O600 O 0.27467 0.2893 0.19295 0.0
O601 O 0.21458 0.27588 0.21798 0.0
O602 O 0.22663 0.26428 0.18465 0.0
C603 C 0.27253 0.3053 0.20926 0.0
H604 H 0.28825 0.18156 0.14992 0.0
H605 H 0.24827 0.2358 0.11358 0.0
H606 H 0.2162 0.3288 0.28971 0.0
H607 H 0.24421 0.2611 0.31697 0.0
C608 C 0.56275 0.48543 0.02736 0.0
N609 N 0.52905 0.52023 0.9735 0.0
C610 C 0.54939 0.53353 0.97162 0.0
C611 C 0.55683 0.53996 0.95047 0.0
C612 C 0.54308 0.53279 0.93116 0.0
C613 C 0.52141 0.52061 0.93384 0.0
C614 C 0.51482 0.51427 0.95521 0.0
Zn615 Zn 0.5208 0.50567 0.00339 0.0
C616 C 0.51085 0.44934 -0.00312 0.0
N617 N 0.50325 0.47331 0.06496 0.0
C618 C 0.51782 0.47913 0.08304 0.0
C619 C 0.48202 0.46199 0.06743 0.0
C620 C 0.47397 0.45795 0.08889 0.0
C621 C 0.48809 0.46528 0.10794 0.0
C622 C 0.5107 0.47493 0.10471 0.0
Zn623 Zn 0.51172 0.4873 0.03483 0.0
O624 O 0.55664 0.49733 0.01008 0.0
C625 C 0.5214 0.54375 0.04123 0.0
O626 O 0.54733 0.47919 0.04102 0.0
H627 H 0.4707 0.45748 0.05284 0.0
H628 H 0.56041 0.53811 0.98641 0.0
H629 H 0.53452 0.48836 0.08081 0.0
O630 O 0.52519 0.542 0.02029 0.0
O631 O 0.51617 0.52382 0.05128 0.0
H632 H 0.49876 0.5036 0.95704 0.0
O633 O 0.47612 0.49574 0.02826 0.0
O634 O 0.48503 0.5136 -0.00292 0.0
O635 O 0.50733 0.45092 0.0179 0.0
O636 O 0.51616 0.46927 0.98686 0.0
C637 C 0.46981 0.50738 0.01094 0.0
H638 H 0.57377 0.54914 0.94921 0.0
H639 H 0.51006 0.51511 0.91946 0.0
H640 H 0.45637 0.45057 0.09048 0.0
H641 H 0.52245 0.48025 0.11883 0.0
C642 C 0.74559 0.26841 0.2281 0.0
N643 N 0.79974 0.23162 0.26209 0.0
C644 C 0.80201 0.2143 0.24486 0.0
C645 C 0.82373 0.20371 0.24097 0.0
C646 C 0.84314 0.2111 0.25498 0.0
C647 C 0.83995 0.22845 0.273 0.0
C648 C 0.81808 0.23846 0.27626 0.0
Zn649 Zn 0.76877 0.24765 0.26858 0.0
C650 C 0.7749 0.30358 0.27874 0.0
N651 N 0.70487 0.28136 0.28531 0.0
C652 C 0.68536 0.27319 0.27326 0.0
C653 C 0.70346 0.29358 0.30574 0.0
C654 C 0.68202 0.29514 0.31605 0.0
C655 C 0.662 0.28445 0.30494 0.0
C656 C 0.66351 0.27473 0.28279 0.0
Zn657 Zn 0.73608 0.26672 0.27707 0.0
O658 O 0.76308 0.25568 0.23429 0.0
C659 C 0.73039 0.21066 0.26745 0.0
O660 O 0.73068 0.27501 0.24248 0.0
H661 H 0.71922 0.29991 0.31501 0.0
H662 H 0.78707 0.20899 0.23395 0.0
H663 H 0.68696 0.26326 0.25718 0.0
O664 O 0.75199 0.21249 0.26371 0.0
O665 O 0.7193 0.2305 0.27241 0.0
H666 H 0.81586 0.25215 0.28992 0.0
O667 O 0.74212 0.25849 0.31158 0.0
O668 O 0.77421 0.23955 0.30276 0.0
O669 O 0.75308 0.30234 0.28189 0.0
O670 O 0.78566 0.28353 0.27369 0.0
C671 C 0.75979 0.24601 0.31748 0.0
H672 H 0.82545 0.19046 0.22684 0.0
H673 H 0.85447 0.23533 0.28387 0.0
H674 H 0.68138 0.30289 0.33312 0.0
H675 H 0.64839 0.26616 0.27382 0.0
C676 C 0.05117 0.44436 0.52934 0.0
N677 N 0.06084 0.51748 0.5566 0.0
C678 C 0.04613 0.50992 0.57257 0.0
C679 C 0.05129 0.51583 0.59514 0.0
C680 C 0.07205 0.52915 0.6014 0.0
C681 C 0.08607 0.53838 0.58456 0.0
C682 C 0.08004 0.53231 0.56202 0.0
Zn683 Zn 0.05557 0.50131 0.52537 0.0
C684 C 0.10035 0.48694 0.50508 0.0
N685 N 0.04407 0.46294 0.46194 0.0
C686 C 0.02888 0.44287 0.4599 0.0
C687 C 0.05267 0.4737 0.44355 0.0
C688 C 0.04422 0.46593 0.4221 0.0
C689 C 0.02714 0.44647 0.41952 0.0
C690 C 0.02049 0.434 0.43873 0.0
Zn691 Zn 0.0503 0.4801 0.49276 0.0
O692 O 0.05384 0.46526 0.54041 0.0
C693 C 0.00555 0.49481 0.51312 0.0
O694 O 0.04969 0.44447 0.50802 0.0
H695 H 0.06493 0.48945 0.44553 0.0
H696 H 0.0311 0.49793 0.56801 0.0
H697 H 0.02213 0.43462 0.47471 0.0
O698 O 0.01955 0.50471 0.52805 0.0
O699 O 0.01367 0.4829 0.4963 0.0
H700 H 0.09145 0.53813 0.54901 0.0
O701 O 0.05054 0.51677 0.47801 0.0
O702 O 0.05677 0.537 0.51056 0.0
O703 O 0.08694 0.47717 0.48949 0.0
O704 O 0.09175 0.49807 0.52204 0.0
C705 C 0.05343 0.53755 0.48936 0.0
H706 H 0.0398 0.50881 0.60764 0.0
H707 H 0.10224 0.54871 0.58877 0.0
H708 H 0.04982 0.47641 0.40796 0.0
H709 H 0.00788 0.41849 0.43761 0.0
C710 C 0.78823 0.70362 0.24516 0.0
N711 N 0.76024 0.74231 0.29954 0.0
C712 C 0.74562 0.72248 0.30307 0.0
C713 C 0.74124 0.71573 0.32497 0.0
C714 C 0.75225 0.72942 0.34326 0.0
C715 C 0.76571 0.75098 0.33901 0.0
C716 C 0.76948 0.7571 0.31694 0.0
Zn717 Zn 0.77217 0.74876 0.26861 0.0
C718 C 0.82453 0.7591 0.27241 0.0
N719 N 0.80033 0.76561 0.20601 0.0
C720 C 0.794 0.74882 0.18889 0.0
C721 C 0.81526 0.7853 0.20286 0.0
C722 C 0.82404 0.78897 0.18162 0.0
C723 C 0.81753 0.77205 0.16363 0.0
C724 C 0.80255 0.75161 0.16751 0.0
Zn725 Zn 0.78745 0.75967 0.23677 0.0
O726 O 0.77701 0.70993 0.26243 0.0
C727 C 0.73476 0.74936 0.23331 0.0
O728 O 0.79442 0.7205 0.23192 0.0
H729 H 0.82018 0.79829 0.21677 0.0
H730 H 0.73837 0.71109 0.28892 0.0
H731 H 0.78206 0.73333 0.19176 0.0
O732 O 0.73787 0.74573 0.25416 0.0
O733 O 0.75245 0.75459 0.22179 0.0
H734 H 0.78106 0.77279 0.31375 0.0
O735 O 0.78095 0.79876 0.24239 0.0
O736 O 0.76729 0.78766 0.27457 0.0
O737 O 0.82172 0.76504 0.25206 0.0
O738 O 0.80703 0.75149 0.28298 0.0
C739 C 0.7719 0.80476 0.261 0.0
H740 H 0.73048 0.69916 0.32753 0.0
H741 H 0.77484 0.76191 0.35247 0.0
H742 H 0.83552 0.80503 0.17919 0.0
H743 H 0.79676 0.73848 0.15394 0.0
C744 C 0.82261 0.25392 0.75864 0.0
N745 N 0.75888 0.23949 0.72397 0.0
C746 C 0.7688 0.25256 0.70743 0.0
C747 C 0.76699 0.24344 0.68513 0.0
C748 C 0.75509 0.22049 0.67979 0.0
C749 C 0.74378 0.20818 0.69695 0.0
C750 C 0.74583 0.21813 0.71906 0.0
Zn751 Zn 0.76924 0.24909 0.75654 0.0
C752 C 0.78109 0.20369 0.78171 0.0
N753 N 0.7952 0.26831 0.8235 0.0
C754 C 0.81025 0.28807 0.82848 0.0
C755 C 0.78414 0.25639 0.84006 0.0
C756 C 0.78694 0.26514 0.86244 0.0
C757 C 0.80151 0.28626 0.86806 0.0
C758 C 0.81379 0.29728 0.85074 0.0
Zn759 Zn 0.78474 0.25894 0.79076 0.0
O760 O 0.80449 0.2487 0.74625 0.0
C761 C 0.77277 0.30438 0.76585 0.0
O762 O 0.82019 0.26025 0.77931 0.0
H763 H 0.77215 0.24078 0.83581 0.0
H764 H 0.77945 0.26923 0.71169 0.0
H765 H 0.8188 0.29737 0.81507 0.0
O766 O 0.76699 0.28813 0.75027 0.0
O767 O 0.78075 0.29722 0.78463 0.0
H768 H 0.73814 0.20798 0.73244 0.0
O769 O 0.74925 0.25762 0.80121 0.0
O770 O 0.73398 0.24903 0.76741 0.0
O771 O 0.78834 0.22025 0.79649 0.0
O772 O 0.77174 0.21061 0.7634 0.0
C773 C 0.73126 0.25346 0.78834 0.0
H774 H 0.77619 0.25337 0.67246 0.0
H775 H 0.73427 0.19053 0.69346 0.0
H776 H 0.77683 0.25612 0.875 0.0
H777 H 0.82559 0.31326 0.85422 0.0
C778 C 0.74327 0.72207 0.75653 0.0
N779 N 0.79598 0.7517 0.7185 0.0
C780 C 0.80549 0.72853 0.7199 0.0
C781 C 0.81653 0.71759 0.70151 0.0
C782 C 0.81805 0.73078 0.6816 0.0
C783 C 0.80972 0.75549 0.68136 0.0
C784 C 0.79847 0.76552 0.69997 0.0
Zn785 Zn 0.77394 0.76412 0.74246 0.0
C786 C 0.72726 0.77701 0.72096 0.0
N787 N 0.72563 0.78976 0.79095 0.0
C788 C 0.72138 0.77416 0.80798 0.0
C789 C 0.72028 0.81461 0.79271 0.0
C790 C 0.7136 0.82531 0.81325 0.0
C791 C 0.71176 0.8101 0.83193 0.0
C792 C 0.71385 0.7839 0.82849 0.0
Zn793 Zn 0.74735 0.77738 0.76633 0.0
O794 O 0.76062 0.72711 0.7447 0.0
C795 C 0.79355 0.76477 0.78818 0.0
O796 O 0.73401 0.73976 0.7679 0.0
H797 H 0.72325 0.8267 0.77889 0.0
H798 H 0.80337 0.7179 0.73483 0.0
H799 H 0.72578 0.7545 0.80652 0.0
O800 O 0.79927 0.75865 0.76829 0.0
O801 O 0.77287 0.77172 0.79168 0.0
H802 H 0.7907 0.78386 0.69918 0.0
O803 O 0.7615 0.81433 0.76441 0.0
O804 O 0.78778 0.80124 0.74101 0.0
O805 O 0.72229 0.7833 0.74102 0.0
O806 O 0.74772 0.76956 0.71687 0.0
C807 C 0.77942 0.81882 0.75318 0.0
H808 H 0.82249 0.69843 0.70249 0.0
H809 H 0.81096 0.7666 0.66658 0.0
H810 H 0.71207 0.84558 0.81486 0.0
H811 H 0.7117 0.77122 0.84209 0.0
C812 C 0.4931 0.47156 0.48502 0.0
N813 N 0.48709 0.43099 0.54315 0.0
C814 C 0.46582 0.44162 0.54469 0.0
C815 C 0.44636 0.42699 0.54943 0.0
C816 C 0.44868 0.40103 0.55252 0.0
C817 C 0.47112 0.39086 0.55236 0.0
C818 C 0.49027 0.40633 0.54766 0.0
Zn819 Zn 0.51235 0.45175 0.52878 0.0
C820 C 0.53609 0.42094 0.49359 0.0
N821 N 0.5632 0.49443 0.49582 0.0
C822 C 0.56049 0.51954 0.49298 0.0
C823 C 0.5844 0.4836 0.49406 0.0
C824 C 0.60427 0.49845 0.49123 0.0
C825 C 0.6023 0.52469 0.49066 0.0
C826 C 0.58005 0.53522 0.49063 0.0
Zn827 Zn 0.53775 0.47373 0.50986 0.0
O828 O 0.48808 0.45929 0.50216 0.0
C829 C 0.51292 0.50566 0.54322 0.0
O830 O 0.51348 0.48125 0.48379 0.0
H831 H 0.58629 0.46375 0.49683 0.0
H832 H 0.46358 0.46111 0.54065 0.0
H833 H 0.54345 0.52774 0.49435 0.0
O834 O 0.5028 0.48501 0.54765 0.0
O835 O 0.52793 0.50573 0.52812 0.0
H836 H 0.50738 0.39828 0.54627 0.0
O837 O 0.56191 0.4663 0.53652 0.0
O838 O 0.53659 0.44437 0.55488 0.0
O839 O 0.54683 0.44168 0.491 0.0
O840 O 0.52188 0.41932 0.50941 0.0
C841 C 0.55687 0.4543 0.5538 0.0
H842 H 0.4294 0.43564 0.54884 0.0
H843 H 0.47368 0.37097 0.55471 0.0
H844 H 0.62121 0.48972 0.49161 0.0
H845 H 0.57798 0.55543 0.49018 0.0
C846 C 0.00692 0.5104 0.06174 0.0
N847 N 0.02426 0.46221 0.00774 0.0
C848 C 0.03627 0.44969 0.02372 0.0
C849 C 0.03175 0.4241 0.02611 0.0
C850 C 0.01441 0.41175 0.01219 0.0
C851 C 0.00506 0.42418 -0.00627 0.0
C852 C 0.01044 0.44969 -0.0083 0.0
Zn853 Zn 0.01902 0.49954 0.01352 0.0
C854 C 0.96795 0.50911 0.01021 0.0
N855 N 0.00503 0.57693 0.02667 0.0
C856 C 0.01958 0.59218 0.04005 0.0
C857 C 0.98762 0.58662 0.0138 0.0
C858 C 0.98502 0.61252 0.01317 0.0
C859 C 0.00108 0.62882 0.02512 0.0
C860 C 0.01802 0.6184 0.03939 0.0
Zn861 Zn 0.01119 0.53947 0.02168 0.0
O862 O 0.01255 0.49301 0.04777 0.0
C863 C 0.06237 0.52922 0.02504 0.0
O864 O 0.00656 0.53306 0.05569 0.0
H865 H 0.97643 0.5744 0.003 0.0
H866 H 0.04705 0.46009 0.03633 0.0
H867 H 0.03322 0.58412 0.0503 0.0
O868 O 0.05528 0.5067 0.02034 0.0
O869 O 0.04746 0.54646 0.02726 0.0
H870 H 0.00119 0.46007 0.97905 0.0
O871 O 0.01621 0.54589 0.98727 0.0
O872 O 0.02462 0.50632 0.97999 0.0
O873 O 0.97464 0.53138 0.01626 0.0
O874 O 0.98317 0.49259 0.00667 0.0
C875 C 0.02273 0.52869 0.97357 0.0
H876 H 0.03918 0.41516 0.04068 0.0
H877 H -0.00838 0.41519 0.98272 0.0
H878 H 0.9712 0.61969 0.00248 0.0
H879 H 0.03074 0.63025 0.04894 0.0
C880 C 0.96274 0.22874 0.12535 0.0
C881 C 0.97897 0.23552 0.14281 0.0
C882 C 0.96666 0.2082 0.1105 0.0
C883 C 0.9869 0.19372 0.1137 0.0
C884 C 0.00325 0.20041 0.13144 0.0
C885 C -0.00075 0.22151 0.14559 0.0
C886 C 0.94913 0.20195 0.09144 0.0
C887 C 0.02468 0.18497 0.1358 0.0
C888 C 0.98367 0.12553 0.09273 0.0
C889 C -0.00231 0.12586 0.0739 0.0
C890 C 0.98006 0.1475 0.10578 0.0
C891 C -0.0098 0.17055 0.0995 0.0
C892 C 0.00387 0.1712 0.08013 0.0
C893 C 0.00776 0.14869 0.0677 0.0
C894 C 0.96588 0.14589 0.12664 0.0
C895 C 0.01444 0.19561 0.07266 0.0
H896 H 0.94725 0.23987 0.12299 0.0
H897 H 0.01178 0.22679 0.15913 0.0
H898 H 0.95811 0.20068 0.07523 0.0
H899 H 0.94072 0.1833 0.09383 0.0
H900 H 0.93527 0.21623 0.09026 0.0
H901 H 0.03581 0.19295 0.15012 0.0
H902 H 0.01932 0.16541 0.13953 0.0
H903 H 0.03532 0.18384 0.12061 0.0
H904 H 0.97606 0.10785 0.09776 0.0
H905 H 0.01855 0.14896 0.0531 0.0
H906 H 0.95066 0.15841 0.12548 0.0
H907 H 0.97669 0.15248 0.14165 0.0
H908 H 0.95939 0.12641 0.12926 0.0
H909 H 0.00065 0.20982 0.07071 0.0
H910 H 0.02338 0.19315 0.05648 0.0
H911 H 0.0273 0.20332 0.08565 0.0
C912 C 0.10675 0.73587 0.34859 0.0
C913 C 0.09236 0.75582 0.34263 0.0
C914 C 0.12905 0.73312 0.33958 0.0
C915 C 0.1374 0.75095 0.3245 0.0
C916 C 0.12322 0.77152 0.31896 0.0
C917 C 0.10088 0.77358 0.32792 0.0
C918 C 0.14345 0.71078 0.34578 0.0
C919 C 0.13154 0.79126 0.30335 0.0
C920 C 0.20301 0.75693 0.3159 0.0
C921 C 0.20536 0.74447 0.29484 0.0
C922 C 0.18111 0.75905 0.32574 0.0
C923 C 0.16094 0.74816 0.31448 0.0
C924 C 0.16321 0.7352 0.29337 0.0
C925 C 0.18532 0.73368 0.28374 0.0
C926 C 0.17954 0.77337 0.34806 0.0
C927 C 0.14224 0.72304 0.28089 0.0
H928 H 0.10029 0.72193 0.35977 0.0
H929 H 0.08997 0.7891 0.32323 0.0
H930 H 0.14698 0.69915 0.33041 0.0
H931 H 0.1606 0.7173 0.35336 0.0
H932 H 0.1346 0.6987 0.35785 0.0
H933 H 0.11881 0.80658 0.30135 0.0
H934 H 0.14847 0.79971 0.30983 0.0
H935 H 0.13455 0.7824 0.28653 0.0
H936 H 0.2183 0.76546 0.32464 0.0
H937 H 0.18692 0.72395 0.26752 0.0
H938 H 0.17175 0.76108 0.36057 0.0
H939 H 0.16789 0.78965 0.34617 0.0
H940 H 0.19688 0.78048 0.35481 0.0
H941 H 0.1334 0.70961 0.29178 0.0
H942 H 0.14701 0.71278 0.26514 0.0
H943 H 0.12942 0.73763 0.2766 0.0
C944 C 0.54065 0.77115 0.576 0.0
C945 C 0.51692 0.76556 0.57906 0.0
C946 C 0.54742 0.79139 0.56311 0.0
C947 C 0.53003 0.80627 0.55314 0.0
C948 C 0.50621 0.79879 0.55385 0.0
C949 C 0.49991 0.77844 0.56681 0.0
C950 C 0.57304 0.79841 0.56227 0.0
C951 C 0.48715 0.81392 0.54305 0.0
C952 C 0.53874 0.87697 0.55625 0.0
C953 C 0.54242 0.88229 0.53378 0.0
C954 C 0.53564 0.85219 0.56279 0.0
C955 C 0.5361 0.83212 0.54641 0.0
C956 C 0.54084 0.83716 0.52386 0.0
C957 C 0.5439 0.86227 0.51778 0.0
C958 C 0.53075 0.84763 0.5871 0.0
C959 C 0.54165 0.81623 0.506 0.0
H960 H 0.554 0.76092 0.58495 0.0
H961 H 0.48155 0.77396 0.56869 0.0
H962 H 0.57741 0.80478 0.54538 0.0
H963 H 0.57718 0.81427 0.57459 0.0
H964 H 0.58431 0.78238 0.56654 0.0
H965 H 0.47015 0.8034 0.54184 0.0
H966 H 0.48489 0.83162 0.55326 0.0
H967 H 0.4919 0.81923 0.52595 0.0
H968 H 0.53711 0.89229 0.56866 0.0
H969 H 0.54696 0.86626 0.5004 0.0
H970 H 0.54316 0.83385 0.59392 0.0
H971 H 0.51285 0.8395 0.58829 0.0
H972 H 0.53217 0.86521 0.59788 0.0
H973 H 0.55145 0.79999 0.5123 0.0
H974 H 0.54984 0.82267 0.49053 0.0
H975 H 0.5236 0.80941 0.50144 0.0
C976 C 0.44006 0.26469 0.84791 0.0
C977 C 0.4603 0.26208 0.83552 0.0
C978 C 0.41838 0.26959 0.83724 0.0
C979 C 0.4167 0.27102 0.8135 0.0
C980 C 0.4372 0.2687 0.80097 0.0
C981 C 0.45879 0.26471 0.81218 0.0
C982 C 0.39717 0.27277 0.85136 0.0
C983 C 0.43617 0.26923 0.77563 0.0
C984 C 0.35709 0.25335 0.78625 0.0
C985 C 0.34855 0.27683 0.78042 0.0
C986 C 0.37944 0.25118 0.7964 0.0
C987 C 0.39331 0.27318 0.80171 0.0
C988 C 0.38466 0.29703 0.79595 0.0
C989 C 0.36252 0.29853 0.78495 0.0
C990 C 0.38816 0.22528 0.80142 0.0
C991 C 0.3985 0.321 0.80194 0.0
H992 H 0.44118 0.26298 0.86597 0.0
H993 H 0.47437 0.26249 0.80252 0.0
H994 H 0.3879 0.29014 0.84693 0.0
H995 H 0.3848 0.25662 0.84787 0.0
H996 H 0.4018 0.27386 0.86965 0.0
H997 H 0.45376 0.26805 0.76841 0.0
H998 H 0.42519 0.25314 0.76857 0.0
H999 H 0.42789 0.28674 0.77011 0.0
H1000 H 0.34631 0.23654 0.78258 0.0
H1001 H 0.3558 0.3167 0.78059 0.0
H1002 H 0.39051 0.22354 0.81985 0.0
H1003 H 0.40547 0.22243 0.79399 0.0
H1004 H 0.37596 0.21001 0.79474 0.0
H1005 H 0.40186 0.32274 0.82042 0.0
H1006 H 0.3893 0.33804 0.79647 0.0
H1007 H 0.41575 0.32043 0.79405 0.0
C1008 C 0.9853 0.81578 0.43306 0.0
C1009 C 0.00527 0.80432 0.42454 0.0
C1010 C 0.98674 0.83891 0.44543 0.0
C1011 C 0.00878 0.85099 0.44992 0.0
C1012 C 0.02909 0.83954 0.44152 0.0
C1013 C 0.02708 0.8165 0.42874 0.0
C1014 C 0.96455 0.85054 0.45358 0.0
C1015 C 0.05297 0.85155 0.44618 0.0
C1016 C 0.00921 0.92174 0.46502 0.0
C1017 C 0.01047 0.9223 0.48864 0.0
C1018 C 0.00889 0.89878 0.45225 0.0
C1019 C 0.0103 0.87565 0.46327 0.0
C1020 C 0.01189 0.87611 0.48712 0.0
C1021 C 0.01172 0.89934 0.49948 0.0
C1022 C 0.00667 0.89927 0.42694 0.0
C1023 C 0.01376 0.85202 0.4996 0.0
H1024 H 0.96829 0.8068 0.42978 0.0
H1025 H 0.04262 0.80785 0.42232 0.0
H1026 H 0.96533 0.85272 0.47219 0.0
H1027 H 0.9627 0.86966 0.44694 0.0
H1028 H 0.94872 0.83904 0.44831 0.0
H1029 H 0.06709 0.8401 0.43892 0.0
H1030 H 0.05367 0.87054 0.43911 0.0
H1031 H 0.0564 0.85409 0.4646 0.0
H1032 H 0.00825 0.93932 0.45644 0.0
H1033 H 0.01299 0.89952 0.51769 0.0
H1034 H -0.0095 0.88891 0.42083 0.0
H1035 H 0.0216 0.88957 0.41929 0.0
H1036 H 0.0061 0.91878 0.42089 0.0
H1037 H -0.00228 0.84018 0.49625 0.0
H1038 H 0.01615 0.85558 0.51805 0.0
H1039 H 0.0287 0.84099 0.4935 0.0
C1040 C 0.45081 0.72378 0.67922 0.0
C1041 C 0.47284 0.71566 0.68644 0.0
C1042 C 0.4317 0.72259 0.69311 0.0
C1043 C 0.43473 0.71325 0.71491 0.0
C1044 C 0.45666 0.70405 0.72206 0.0
C1045 C 0.47553 0.70535 0.70768 0.0
C1046 C 0.40851 0.73247 0.68479 0.0
C1047 C 0.46046 0.69395 0.74519 0.0
C1048 C 0.39129 0.74335 0.75295 0.0
C1049 C 0.37291 0.72543 0.75137 0.0
C1050 C 0.41251 0.73862 0.7428 0.0
C1051 C 0.41531 0.71551 0.73061 0.0
C1052 C 0.3976 0.69654 0.73051 0.0
C1053 C 0.37656 0.70172 0.74095 0.0
C1054 C 0.43108 0.75929 0.74343 0.0
C1055 C 0.40007 0.67158 0.71785 0.0
H1056 H 0.44854 0.7319 0.66295 0.0
H1057 H 0.49253 0.699 0.71335 0.0
H1058 H 0.39436 0.71824 0.68678 0.0
H1059 H 0.40417 0.7496 0.69497 0.0
H1060 H 0.40868 0.73736 0.66684 0.0
H1061 H 0.4774 0.68426 0.74697 0.0
H1062 H 0.46031 0.70975 0.75797 0.0
H1063 H 0.44612 0.68058 0.74898 0.0
H1064 H 0.38862 0.76179 0.76081 0.0
H1065 H 0.36259 0.68758 0.74012 0.0
H1066 H 0.43153 0.76779 0.72672 0.0
H1067 H 0.44859 0.75157 0.7471 0.0
H1068 H 0.42771 0.77446 0.75624 0.0
H1069 H 0.39768 0.67431 0.69955 0.0
H1070 H 0.38689 0.65738 0.72277 0.0
H1071 H 0.41779 0.66403 0.72077 0.0
C1072 C 0.50369 0.16763 0.93428 0.0
C1073 C 0.51978 0.1806 0.92141 0.0
C1074 C 0.50984 0.14576 0.94543 0.0
C1075 C 0.53276 0.13645 0.94391 0.0
C1076 C 0.54937 0.14986 0.93161 0.0
C1077 C 0.5427 0.1717 0.92049 0.0
C1078 C 0.49152 0.13215 0.95832 0.0
C1079 C 0.57403 0.14075 0.92969 0.0
C1080 C 0.5503 0.08861 0.98735 0.0
C1081 C 0.5458 0.06557 0.97539 0.0
C1082 C 0.54699 0.11182 0.97712 0.0
C1083 C 0.53883 0.1121 0.95438 0.0
C1084 C 0.53494 0.0889 0.94204 0.0
C1085 C 0.53853 0.06601 0.95263 0.0
C1086 C 0.55153 0.13604 -0.00912 0.0
C1087 C 0.52615 0.08822 0.91781 0.0
H1088 H 0.48595 0.17421 0.93524 0.0
H1089 H 0.55533 0.18146 0.91065 0.0
H1090 H 0.4881 0.11302 0.95053 0.0
H1091 H 0.49791 0.12975 0.97589 0.0
H1092 H 0.47477 0.14232 0.95865 0.0
H1093 H 0.58531 0.15416 0.92089 0.0
H1094 H 0.58195 0.13789 0.94665 0.0
H1095 H 0.57383 0.12225 0.9203 0.0
H1096 H 0.55598 0.08857 0.00491 0.0
H1097 H 0.53498 0.04838 0.94317 0.0
H1098 H 0.53483 0.14585 -0.00672 0.0
H1099 H 0.56315 0.14888 0.98187 0.0
H1100 H 0.55968 0.13274 0.00768 0.0
H1101 H 0.50843 0.09626 0.91674 0.0
H1102 H 0.52525 0.06877 0.91016 0.0
H1103 H 0.53769 0.09999 0.9077 0.0
C1104 C 0.08167 0.29013 0.1562 0.0
C1105 C 0.07479 0.31532 0.15645 0.0
C1106 C 0.10529 0.28407 0.15748 0.0
C1107 C 0.12236 0.30373 0.15899 0.0
C1108 C 0.11561 0.329 0.15645 0.0
C1109 C 0.09174 0.33456 0.15523 0.0
C1110 C 0.11172 0.25683 0.15987 0.0
C1111 C 0.13343 0.35038 0.15736 0.0
C1112 C 0.17127 0.29093 0.20072 0.0
C1113 C 0.18889 0.28249 0.18671 0.0
C1114 C 0.14989 0.29873 0.19175 0.0
C1115 C 0.14603 0.29828 0.16811 0.0
C1116 C 0.16399 0.29062 0.15379 0.0
C1117 C 0.18524 0.28262 0.16328 0.0
C1118 C 0.13113 0.30666 0.20767 0.0
C1119 C 0.16057 0.29019 0.12853 0.0
H1120 H 0.06854 0.27513 0.15653 0.0
H1121 H 0.08647 0.35405 0.15508 0.0
H1122 H 0.12693 0.25206 0.14963 0.0
H1123 H 0.11672 0.25373 0.17771 0.0
H1124 H 0.09696 0.24369 0.15475 0.0
H1125 H 0.12612 0.3677 0.15027 0.0
H1126 H 0.13907 0.3548 0.17513 0.0
H1127 H 0.14916 0.34506 0.14806 0.0
H1128 H 0.174 0.29104 0.21884 0.0
H1129 H 0.19889 0.27632 0.15236 0.0
H1130 H 0.11581 0.29353 0.20542 0.0
H1131 H 0.12508 0.32579 0.20388 0.0
H1132 H 0.1373 0.30682 0.22557 0.0
H1133 H 0.14903 0.27394 0.12292 0.0
H1134 H 0.17739 0.28838 0.11992 0.0
H1135 H 0.15193 0.30755 0.12309 0.0
C1136 C 0.10941 -0.00982 0.18633 0.0
C1137 C 0.10062 -0.0018 0.207 0.0
C1138 C 0.09817 -0.00348 0.16605 0.0
C1139 C 0.07827 0.01193 0.16663 0.0
C1140 C 0.06961 0.02036 0.18752 0.0
C1141 C 0.08068 0.01304 0.20744 0.0
C1142 C 0.10743 0.98661 0.14404 0.0
C1143 C 0.04885 0.03743 0.18883 0.0
C1144 C 0.06164 0.04872 0.11543 0.0
C1145 C 0.04185 0.03508 0.10694 0.0
C1146 C 0.07377 0.04135 0.13486 0.0
C1147 C 0.06632 0.01935 0.14549 0.0
C1148 C 0.04666 0.00518 0.13662 0.0
C1149 C 0.0344 0.01348 0.11763 0.0
C1150 C 0.0942 0.05737 0.14428 0.0
C1151 C 0.0386 0.98127 0.14716 0.0
H1152 H 0.12482 0.97866 0.18605 0.0
H1153 H 0.07407 0.01957 0.22345 0.0
H1154 H 0.09341 0.9759 0.13421 0.0
H1155 H 0.11293 0.00254 0.13382 0.0
H1156 H 0.12255 0.97412 0.14653 0.0
H1157 H 0.04489 0.04306 0.20644 0.0
H1158 H 0.05222 0.05472 0.1795 0.0
H1159 H 0.03315 0.0278 0.1808 0.0
H1160 H 0.06736 0.06543 0.1071 0.0
H1161 H 0.0193 0.00271 0.11079 0.0
H1162 H 0.11017 0.04594 0.14528 0.0
H1163 H 0.09065 0.06429 0.16164 0.0
H1164 H 0.09777 0.07387 0.13394 0.0
H1165 H 0.05335 0.96815 0.14875 0.0
H1166 H 0.02406 0.9715 0.13723 0.0
H1167 H 0.0326 0.98567 0.16436 0.0
C1168 C 0.27696 0.84556 0.48495 0.0
C1169 C 0.29834 0.84986 0.49687 0.0
C1170 C 0.2761 0.83378 0.46329 0.0
C1171 C 0.29714 0.82664 0.45314 0.0
C1172 C 0.31871 0.83083 0.46516 0.0
C1173 C 0.31902 0.84212 0.48688 0.0
C1174 C 0.25272 0.82915 0.45119 0.0
C1175 C 0.34159 0.82399 0.45485 0.0
C1176 C 0.2972 0.77811 0.40428 0.0
C1177 C 0.29813 0.7934 0.38558 0.0
C1178 C 0.29624 0.78865 0.42626 0.0
C1179 C 0.29682 0.81518 0.42982 0.0
C1180 C 0.29813 0.83076 0.41113 0.0
C1181 C 0.29853 0.81972 0.38929 0.0
C1182 C 0.29465 0.77137 0.44569 0.0
C1183 C 0.29921 0.85914 0.41423 0.0
H1184 H 0.26091 0.85143 0.49252 0.0
H1185 H 0.33569 0.84559 0.49577 0.0
H1186 H 0.25189 0.83994 0.43563 0.0
H1187 H 0.2505 0.80889 0.44605 0.0
H1188 H 0.23792 0.83474 0.46175 0.0
H1189 H 0.35687 0.82842 0.46645 0.0
H1190 H 0.34156 0.80357 0.45007 0.0
H1191 H 0.34381 0.83439 0.43924 0.0
H1192 H 0.2973 0.75779 0.40181 0.0
H1193 H 0.29877 0.83181 0.37508 0.0
H1194 H 0.27937 0.77623 0.45584 0.0
H1195 H 0.31046 0.77391 0.45692 0.0
H1196 H 0.293 0.7512 0.44002 0.0
H1197 H 0.28346 0.86585 0.42277 0.0
H1198 H 0.3004 0.86861 0.398 0.0
H1199 H 0.31462 0.86504 0.42515 0.0
C1200 C 0.4641 0.02034 0.68462 0.0
C1201 C 0.44009 0.01533 0.68646 0.0
C1202 C 0.47455 0.01936 0.66377 0.0
C1203 C 0.46069 0.01318 0.64416 0.0
C1204 C 0.43652 0.00756 0.64581 0.0
C1205 C 0.42645 0.0087 0.66703 0.0
C1206 C 0.50039 0.02547 0.66271 0.0
C1207 C 0.42128 0.00081 0.62515 0.0
C1208 C 0.48425 0.03727 0.59023 0.0
C1209 C 0.49482 0.01576 0.58109 0.0
C1210 C 0.47264 0.03651 0.61051 0.0
C1211 C 0.47156 0.01368 0.62193 0.0
C1212 C 0.48225 -0.00808 0.61288 0.0
C1213 C 0.49382 -0.00678 0.59257 0.0
C1214 C 0.46163 0.06018 0.61979 0.0
C1215 C 0.4815 0.96728 0.62467 0.0
H1216 H 0.47486 0.02533 0.69954 0.0
H1217 H 0.40792 0.00475 0.66837 0.0
H1218 H 0.5094 0.00969 0.65413 0.0
H1219 H 0.50306 0.04241 0.65272 0.0
H1220 H 0.50884 0.02909 0.67965 0.0
H1221 H 0.40308 -0.00421 0.62939 0.0
H1222 H 0.42085 0.01696 0.61391 0.0
H1223 H 0.42869 0.98469 0.61555 0.0
H1224 H 0.48483 0.05472 0.58141 0.0
H1225 H 0.50174 0.97645 0.58551 0.0
H1226 H 0.47 0.06586 0.63636 0.0
H1227 H 0.4428 0.05658 0.6225 0.0
H1228 H 0.46332 0.07616 0.60843 0.0
H1229 H 0.49049 0.96964 0.64146 0.0
H1230 H 0.48994 0.95186 0.61499 0.0
H1231 H 0.46311 0.96155 0.62742 0.0
C1232 C 0.28634 0.12852 0.92946 0.0
C1233 C 0.28498 0.10251 0.92448 0.0
C1234 C 0.27853 0.14565 0.91384 0.0
C1235 C 0.26955 0.1365 0.89257 0.0
C1236 C 0.26707 0.11019 0.88781 0.0
C1237 C 0.27463 0.09339 0.90403 0.0
C1238 C 0.28109 0.17356 0.91971 0.0
C1239 C 0.25781 0.09986 0.86518 0.0
C1240 C 0.24111 0.18509 0.85619 0.0
C1241 C 0.26031 0.19335 0.84439 0.0
C1242 C 0.24357 0.1659 0.87158 0.0
C1243 C 0.26559 0.15461 0.87465 0.0
C1244 C 0.28473 0.16233 0.86199 0.0
C1245 C 0.28189 0.18183 0.84715 0.0
C1246 C 0.22294 0.15836 0.8851 0.0
C1247 C 0.30842 0.15052 0.86455 0.0
H1248 H 0.2939 0.13552 0.94553 0.0
H1249 H 0.27351 0.07323 0.9003 0.0
H1250 H 0.295 0.1819 0.90963 0.0
H1251 H 0.26463 0.18327 0.91554 0.0
H1252 H 0.28575 0.17743 0.93781 0.0
H1253 H 0.25429 0.07919 0.86511 0.0
H1254 H 0.24148 0.10935 0.86015 0.0
H1255 H 0.2708 0.10367 0.85228 0.0
H1256 H 0.22441 0.19404 0.85374 0.0
H1257 H 0.29655 0.18809 0.83758 0.0
H1258 H 0.22656 0.16376 0.90311 0.0
H1259 H 0.22013 0.13761 0.8839 0.0
H1260 H 0.20662 0.16751 0.87943 0.0
H1261 H 0.3161 0.15532 0.8816 0.0
H1262 H 0.32077 0.15708 0.85194 0.0
H1263 H 0.30667 0.12967 0.8628 0.0
C1264 C 0.13412 0.02291 0.34279 0.0
C1265 C 0.12427 0.02874 0.32183 0.0
C1266 C 0.12305 0.02974 0.36267 0.0
C1267 C 0.10166 0.0426 0.36142 0.0
C1268 C 0.09305 0.05093 0.34052 0.0
C1269 C 0.10448 0.04387 0.3209 0.0
C1270 C 0.13299 0.0209 0.38474 0.0
C1271 C 0.0705 0.06504 0.33855 0.0
C1272 C 0.05844 0.01985 0.40284 0.0
C1273 C 0.06011 0.03892 0.41984 0.0
C1274 C 0.07121 0.02146 0.38337 0.0
C1275 C 0.08623 0.04259 0.38087 0.0
C1276 C 0.08733 0.06246 0.39746 0.0
C1277 C 0.07422 0.06038 0.41682 0.0
C1278 C 0.06942 -0.00011 0.36596 0.0
C1279 C 0.10305 0.08532 0.39525 0.0
H1280 H 0.14959 0.01152 0.34365 0.0
H1281 H 0.097 0.04884 0.30474 0.0
H1282 H 0.13218 0.03597 0.39812 0.0
H1283 H 0.12243 0.00455 0.39 0.0
H1284 H 0.15142 0.015 0.38342 0.0
H1285 H 0.06874 0.0745 0.32229 0.0
H1286 H 0.05553 0.05157 0.33963 0.0
H1287 H 0.06929 0.07939 0.35251 0.0
H1288 H 0.04799 0.00298 0.40518 0.0
H1289 H 0.0754 0.07531 0.4298 0.0
H1290 H 0.08651 -0.00949 0.36495 0.0
H1291 H 0.06503 0.00706 0.34913 0.0
H1292 H 0.05595 0.98554 0.36991 0.0
H1293 H 0.12152 0.07999 0.3981 0.0
H1294 H 0.0991 0.10074 0.40763 0.0
H1295 H 0.10139 0.09254 0.37806 0.0
C1296 C 0.2564 0.83887 0.60901 0.0
C1297 C 0.27913 0.84921 0.60888 0.0
C1298 C 0.24864 0.82611 0.62772 0.0
C1299 C 0.26369 0.82453 0.647 0.0
C1300 C 0.28661 0.83507 0.64691 0.0
C1301 C 0.29415 0.84688 0.62774 0.0
C1302 C 0.22438 0.81438 0.62692 0.0
C1303 C 0.30305 0.83445 0.6673 0.0
C1304 C 0.2413 0.81658 0.70558 0.0
C1305 C 0.249 0.79237 0.71012 0.0
C1306 C 0.24485 0.82692 0.68459 0.0
C1307 C 0.25568 0.81235 0.66757 0.0
C1308 C 0.26162 0.7871 0.67152 0.0
C1309 C 0.25864 0.77758 0.69291 0.0
C1310 C 0.23886 0.85412 0.68136 0.0
C1311 C 0.27247 0.77065 0.65362 0.0
H1312 H 0.24478 0.84058 0.59441 0.0
H1313 H 0.31163 0.85514 0.62784 0.0
H1314 H 0.22527 0.79416 0.63085 0.0
H1315 H 0.21367 0.8237 0.63985 0.0
H1316 H 0.21538 0.81592 0.61021 0.0
H1317 H 0.32002 0.84423 0.66472 0.0
H1318 H 0.29488 0.84355 0.68209 0.0
H1319 H 0.30653 0.81465 0.67139 0.0
H1320 H 0.23411 0.82815 0.71897 0.0
H1321 H 0.26453 0.75881 0.69641 0.0
H1322 H 0.22901 0.85613 0.66519 0.0
H1323 H 0.25523 0.86558 0.68071 0.0
H1324 H 0.22835 0.86199 0.69522 0.0
H1325 H 0.26309 0.77242 0.63715 0.0
H1326 H 0.2723 0.75048 0.65793 0.0
H1327 H 0.29088 0.77684 0.65165 0.0
C1328 C 0.44036 0.96497 0.80282 0.0
C1329 C 0.43693 -0.00897 0.80284 0.0
C1330 C 0.45128 0.95396 0.82131 0.0
C1331 C 0.45962 0.96961 0.83977 0.0
C1332 C 0.45573 -0.0041 0.84002 0.0
C1333 C 0.44404 0.00625 0.82164 0.0
C1334 C 0.45428 0.92576 0.8209 0.0
C1335 C 0.4647 0.01326 0.85929 0.0
C1336 C 0.47607 0.94921 0.89795 0.0
C1337 C 0.50061 0.95024 0.89756 0.0
C1338 C 0.46232 0.95313 0.87855 0.0
C1339 C 0.47337 0.95897 0.85851 0.0
C1340 C 0.49798 0.95791 0.85746 0.0
C1341 C 0.51128 0.95307 0.87693 0.0
C1342 C 0.43605 0.95312 0.88005 0.0
C1343 C 0.51042 0.96418 0.83638 0.0
H1344 H 0.43456 0.95319 0.7883 0.0
H1345 H 0.44141 0.02641 0.82153 0.0
H1346 H 0.47303 0.92137 0.81947 0.0
H1347 H 0.44842 0.91796 0.83683 0.0
H1348 H 0.44433 0.91605 0.8066 0.0
H1349 H 0.46033 0.03326 0.85676 0.0
H1350 H 0.45718 0.00747 0.87525 0.0
H1351 H 0.48398 0.01192 0.86126 0.0
H1352 H 0.46746 0.94717 0.9137 0.0
H1353 H 0.53017 0.95306 0.87628 0.0
H1354 H 0.42748 0.94389 0.86477 0.0
H1355 H 0.43004 0.97284 0.88129 0.0
H1356 H 0.43016 0.9433 0.89505 0.0
H1357 H 0.50249 0.95349 0.82156 0.0
H1358 H 0.52935 0.96004 0.83765 0.0
H1359 H 0.50854 0.98454 0.83333 0.0
C1360 C 0.2707 0.12294 0.01673 0.0
C1361 C 0.27254 0.09729 0.02098 0.0
C1362 C 0.26441 0.14035 0.03358 0.0
C1363 C 0.25998 0.13182 0.05524 0.0
C1364 C 0.25894 0.10554 0.05876 0.0
C1365 C 0.26532 0.08843 0.04146 0.0
C1366 C 0.26541 0.16807 0.02886 0.0
C1367 C 0.25357 0.09566 0.08142 0.0
C1368 C 0.28553 0.17512 0.10241 0.0
C1369 C 0.26587 0.18797 0.10962 0.0
C1370 C 0.28364 0.15649 0.08506 0.0
C1371 C 0.26145 0.15035 0.07471 0.0
C1372 C 0.24145 0.16315 0.08198 0.0
C1373 C 0.24392 0.18195 0.09931 0.0
C1374 C 0.30551 0.14359 0.07761 0.0
C1375 C 0.21752 0.15687 0.07155 0.0
H1376 H 0.27606 0.12966 0.00069 0.0
H1377 H 0.26672 0.06856 0.04468 0.0
H1378 H 0.25069 0.1781 0.03656 0.0
H1379 H 0.28189 0.17659 0.03638 0.0
H1380 H 0.26494 0.17126 0.01053 0.0
H1381 H 0.24824 0.0754 0.08013 0.0
H1382 H 0.26942 0.09774 0.09268 0.0
H1383 H 0.23949 0.10653 0.08935 0.0
H1384 H 0.3025 0.17979 0.11033 0.0
H1385 H 0.22861 0.19155 0.10516 0.0
H1386 H 0.30838 0.1472 0.05968 0.0
H1387 H 0.3035 0.1229 0.07904 0.0
H1388 H 0.3213 0.15019 0.08772 0.0
H1389 H 0.21744 0.15955 0.05318 0.0
H1390 H 0.20375 0.16867 0.07901 0.0
H1391 H 0.21303 0.13674 0.07388 0.0
C1392 C 0.23054 0.05415 0.97392 0.0
C1393 C 0.22575 0.02819 0.97441 0.0
C1394 C 0.21506 0.07166 0.98324 0.0
C1395 C 0.19426 0.06278 -0.00726 0.0
C1396 C 0.19018 0.03649 -0.00566 0.0
C1397 C 0.206 0.01962 0.98521 0.0
C1398 C 0.22043 0.0995 0.98202 0.0
C1399 C 0.16835 0.02597 0.00448 0.0
C1400 C 0.14875 0.09088 0.02854 0.0
C1401 C 0.12992 0.09039 0.01279 0.0
C1402 C 0.17152 0.0862 0.02168 0.0
C1403 C 0.17511 0.07999 -0.00125 0.0
C1404 C 0.15677 0.08324 0.98257 0.0
C1405 C 0.13431 0.08857 0.98984 0.0
C1406 C 0.19092 0.0844 0.03932 0.0
C1407 C 0.15979 0.07705 0.95788 0.0
H1408 H 0.24564 0.06076 0.96527 0.0
H1409 H 0.20243 -0.00049 0.98577 0.0
H1410 H 0.20757 0.10815 0.9705 0.0
H1411 H 0.21892 0.10902 -0.00117 0.0
H1412 H 0.23825 0.10323 0.97594 0.0
H1413 H 0.1682 0.00506 0.00478 0.0
H1414 H 0.16686 0.0336 0.02197 0.0
H1415 H 0.15264 0.03168 -0.00534 0.0
H1416 H 0.14539 0.0928 0.04633 0.0
H1417 H 0.11977 0.08836 0.97765 0.0
H1418 H 0.20802 0.0902 0.03277 0.0
H1419 H 0.19221 0.06457 0.04436 0.0
H1420 H 0.18746 0.0963 0.05458 0.0
H1421 H 0.17701 0.0839 0.95242 0.0
H1422 H 0.14584 0.08539 0.94728 0.0
H1423 H 0.15893 0.05627 0.95489 0.0
C1424 C 0.68962 0.42406 0.03847 0.0
C1425 C 0.70528 0.44072 0.05046 0.0
C1426 C 0.66631 0.43075 0.03402 0.0
C1427 C 0.65852 0.45462 0.04179 0.0
C1428 C 0.67427 0.47149 0.05386 0.0
C1429 C 0.6974 0.46435 0.05802 0.0
C1430 C 0.64999 0.41229 0.02107 0.0
C1431 C 0.66666 0.49708 0.0625 0.0
C1432 C 0.60421 0.48302 0.01528 0.0
C1433 C 0.58734 0.47788 0.0311 0.0
C1434 C 0.62736 0.4752 0.01835 0.0
C1435 C 0.63381 0.46196 0.03771 0.0
C1436 C 0.61686 0.45669 0.0537 0.0
C1437 C 0.59385 0.4647 0.05021 0.0
C1438 C 0.64496 0.48122 0.00093 0.0
C1439 C 0.62306 0.44275 0.07463 0.0
H1440 H 0.69557 0.4058 0.03254 0.0
H1441 H 0.70933 0.4774 0.06731 0.0
H1442 H 0.63502 0.40738 0.03151 0.0
H1443 H 0.64275 0.42103 0.00579 0.0
H1444 H 0.65883 0.39465 0.01591 0.0
H1445 H 0.68113 0.50809 0.07141 0.0
H1446 H 0.65991 0.5081 0.04832 0.0
H1447 H 0.65219 0.49485 0.07422 0.0
H1448 H 0.59933 0.4931 0.00042 0.0
H1449 H 0.58095 0.46057 0.0625 0.0
H1450 H 0.65299 0.46363 -0.00549 0.0
H1451 H 0.65925 0.49342 0.00871 0.0
H1452 H 0.637 0.49097 0.98649 0.0
H1453 H 0.63054 0.42423 0.06996 0.0
H1454 H 0.6077 0.43954 0.08512 0.0
H1455 H 0.63661 0.45361 0.08493 0.0
C1456 C 0.84606 0.43034 0.25503 0.0
C1457 C 0.85228 0.44398 0.27511 0.0
C1458 C 0.83217 0.40819 0.25517 0.0
C1459 C 0.82462 0.39934 0.2759 0.0
C1460 C 0.83038 0.41332 0.29612 0.0
C1461 C 0.84397 0.4355 0.29546 0.0
C1462 C 0.82605 0.39394 0.23322 0.0
C1463 C 0.82289 0.40437 0.31859 0.0
C1464 C 0.77514 0.35063 0.27732 0.0
C1465 C 0.78749 0.32822 0.27918 0.0
C1466 C 0.78698 0.37391 0.27589 0.0
C1467 C 0.81173 0.3748 0.27668 0.0
C1468 C 0.82426 0.35227 0.2789 0.0
C1469 C 0.81199 0.32924 0.27996 0.0
C1470 C 0.77304 0.3975 0.27327 0.0
C1471 C 0.85066 0.35248 0.28016 0.0
H1472 H 0.85228 0.43677 0.23922 0.0
H1473 H 0.84869 0.44579 0.31112 0.0
H1474 H 0.8345 0.37532 0.233 0.0
H1475 H 0.80689 0.39037 0.2315 0.0
H1476 H 0.83175 0.40428 0.21845 0.0
H1477 H 0.82803 0.41794 0.33268 0.0
H1478 H 0.80365 0.40138 0.31839 0.0
H1479 H 0.83091 0.38598 0.32189 0.0
H1480 H 0.7562 0.34992 0.27644 0.0
H1481 H 0.82164 0.31198 0.28139 0.0
H1482 H 0.77786 0.4068 0.25769 0.0
H1483 H 0.77721 0.41109 0.28756 0.0
H1484 H 0.75389 0.39354 0.2725 0.0
H1485 H 0.85763 0.36048 0.26477 0.0
H1486 H 0.85776 0.33333 0.28198 0.0
H1487 H 0.85722 0.36472 0.29468 0.0
C1488 C 0.88908 0.56277 0.49673 0.0
C1489 C 0.8689 0.55351 0.50648 0.0
C1490 C 0.91022 0.55022 0.49873 0.0
C1491 C 0.9111 0.52763 0.5105 0.0
C1492 C 0.89073 0.51786 0.52005 0.0
C1493 C 0.86983 0.53103 0.51803 0.0
C1494 C 0.93169 0.56134 0.48847 0.0
C1495 C 0.89108 0.49363 0.53247 0.0
C1496 C 0.96471 0.49045 0.49702 0.0
C1497 C 0.9803 0.4993 0.51438 0.0
C1498 C 0.94141 0.49807 0.49638 0.0
C1499 C 0.93374 0.51502 0.5134 0.0
C1500 C 0.94896 0.52255 0.53178 0.0
C1501 C 0.97205 0.51449 0.5321 0.0
C1502 C 0.9255 0.48935 0.47671 0.0
C1503 C 0.94142 0.54068 0.55022 0.0
H1504 H 0.88846 0.57991 0.48751 0.0
H1505 H 0.85421 0.52365 0.52543 0.0
H1506 H 0.94547 0.56549 0.50175 0.0
H1507 H 0.93886 0.54757 0.47616 0.0
H1508 H 0.92797 0.57902 0.47977 0.0
H1509 H 0.87348 0.48799 0.53803 0.0
H1510 H 0.89779 0.47817 0.52155 0.0
H1511 H 0.9031 0.4958 0.54747 0.0
H1512 H 0.97092 0.47847 0.48341 0.0
H1513 H 0.98394 0.52117 0.54572 0.0
H1514 H 0.92289 0.50515 0.46531 0.0
H1515 H 0.90807 0.48359 0.48254 0.0
H1516 H 0.93286 0.47331 0.46692 0.0
H1517 H 0.93924 0.55966 0.54337 0.0
H1518 H 0.95437 0.5423 0.56457 0.0
H1519 H 0.9243 0.53467 0.55658 0.0
C1520 C 0.18314 0.07284 0.24179 0.0
C1521 C 0.19546 0.06284 0.26007 0.0
C1522 C 0.18971 0.09615 0.23345 0.0
C1523 C 0.20921 0.10964 0.24345 0.0
C1524 C 0.22249 0.09903 0.26105 0.0
C1525 C 0.21537 0.07581 0.26926 0.0
C1526 C 0.17502 0.10695 0.21475 0.0
C1527 C 0.24364 0.11271 0.27189 0.0
C1528 C 0.23548 0.1653 0.21436 0.0
C1529 C 0.22625 0.18566 0.22664 0.0
C1530 C 0.22988 0.14035 0.21942 0.0
C1531 C 0.21448 0.13577 0.23694 0.0
C1532 C 0.20449 0.15626 0.24884 0.0
C1533 C 0.21062 0.18096 0.24364 0.0
C1534 C 0.241 0.11895 0.20651 0.0
C1535 C 0.1877 0.15211 0.26742 0.0
H1536 H 0.16773 0.06297 0.23455 0.0
H1537 H 0.22511 0.0681 0.28323 0.0
H1538 H 0.16584 0.12374 0.22137 0.0
H1539 H 0.18623 0.11327 0.20116 0.0
H1540 H 0.16175 0.09313 0.20741 0.0
H1541 H 0.25338 0.10083 0.28378 0.0
H1542 H 0.25567 0.11881 0.25885 0.0
H1543 H 0.23806 0.12994 0.28123 0.0
H1544 H 0.24767 0.16885 0.20127 0.0
H1545 H 0.20334 0.19663 0.2531 0.0
H1546 H 0.22738 0.10548 0.19936 0.0
H1547 H 0.25243 0.10841 0.21809 0.0
H1548 H 0.25165 0.12567 0.19262 0.0
H1549 H 0.17288 0.13966 0.26112 0.0
H1550 H 0.1806 0.17005 0.27425 0.0
H1551 H 0.19669 0.1425 0.28137 0.0
C1552 C 0.33851 0.94736 0.51091 0.0
C1553 C 0.33725 0.939 0.53286 0.0
C1554 C 0.35977 0.95626 0.50282 0.0
C1555 C 0.37993 0.95749 0.51731 0.0
C1556 C 0.37865 0.94917 0.53954 0.0
C1557 C 0.35738 0.93968 0.54693 0.0
C1558 C 0.36067 0.96435 0.47885 0.0
C1559 C 0.39964 0.95073 0.55569 0.0
C1560 C 0.44235 0.96147 0.4986 0.0
C1561 C 0.44779 0.98707 0.50315 0.0
C1562 C 0.4197 0.95184 0.5015 0.0
C1563 C 0.40236 0.96811 0.50969 0.0
C1564 C 0.40743 -0.00578 0.51307 0.0
C1565 C 0.43004 0.00344 0.50948 0.0
C1566 C 0.41474 0.924 0.49711 0.0
C1567 C 0.38957 0.01212 0.52218 0.0
H1568 H 0.32296 0.94659 0.49996 0.0
H1569 H 0.35637 0.93333 0.56395 0.0
H1570 H 0.3654 0.9847 0.47862 0.0
H1571 H 0.37441 0.95391 0.46993 0.0
H1572 H 0.34371 0.96104 0.46944 0.0
H1573 H 0.39558 0.94384 0.57252 0.0
H1574 H 0.41402 0.93941 0.54883 0.0
H1575 H 0.40617 0.97055 0.5578 0.0
H1576 H 0.45599 0.94879 0.49354 0.0
H1577 H 0.43418 0.02324 0.51313 0.0
H1578 H 0.39787 0.92086 0.48757 0.0
H1579 H 0.41326 0.91468 0.51336 0.0
H1580 H 0.42878 0.91477 0.48758 0.0
H1581 H 0.37273 0.00973 0.51248 0.0
H1582 H 0.3955 0.03214 0.52173 0.0
H1583 H 0.3862 0.0078 0.53987 0.0
C1584 C 0.86027 0.58688 0.27294 0.0
C1585 C 0.85978 0.56572 0.25806 0.0
C1586 C 0.84721 0.60817 0.26825 0.0
C1587 C 0.83272 0.60804 0.24849 0.0
C1588 C 0.83189 0.5866 0.23348 0.0
C1589 C 0.84576 0.56578 0.23828 0.0
C1590 C 0.84912 0.6309 0.2844 0.0
C1591 C 0.81619 0.58558 0.21256 0.0
C1592 C 0.78652 0.6578 0.25331 0.0
C1593 C 0.79694 0.67772 0.24229 0.0
C1594 C 0.79705 0.63416 0.25385 0.0
C1595 C 0.81881 0.63068 0.24368 0.0
C1596 C 0.82871 0.65032 0.23147 0.0
C1597 C 0.81748 0.67351 0.23069 0.0
C1598 C 0.7856 0.61346 0.2665 0.0
C1599 C 0.85213 0.64763 0.22083 0.0
H1600 H 0.87128 0.58698 0.28814 0.0
H1601 H 0.84526 0.54934 0.22684 0.0
H1602 H 0.85464 0.6478 0.27539 0.0
H1603 H 0.83183 0.63483 0.29143 0.0
H1604 H 0.86185 0.62825 0.29858 0.0
H1605 H 0.8172 0.56733 0.20287 0.0
H1606 H 0.7978 0.58844 0.2172 0.0
H1607 H 0.82101 0.60103 0.20151 0.0
H1608 H 0.77054 0.66092 0.26216 0.0
H1609 H 0.82569 0.6889 0.22223 0.0
H1610 H 0.79536 0.61118 0.28269 0.0
H1611 H 0.78606 0.59521 0.25676 0.0
H1612 H 0.76716 0.61765 0.27016 0.0
H1613 H 0.86606 0.64729 0.23424 0.0
H1614 H 0.85608 0.66341 0.20978 0.0
H1615 H 0.85279 0.62962 0.21079 0.0
C1616 C 0.70107 0.42475 0.7477 0.0
C1617 C 0.71019 0.44683 0.75862 0.0
C1618 C 0.71441 0.40299 0.74618 0.0
C1619 C 0.73774 0.40377 0.75497 0.0
C1620 C 0.74777 0.42683 0.76385 0.0
C1621 C 0.73364 0.44801 0.76614 0.0
C1622 C 0.70277 0.37864 0.73722 0.0
C1623 C 0.77294 0.42871 0.77222 0.0
C1624 C 0.75659 0.34374 0.7815 0.0
C1625 C 0.76689 0.33094 0.76353 0.0
C1626 C 0.74758 0.36778 0.77904 0.0
C1627 C 0.74991 0.37975 0.75839 0.0
C1628 C 0.76182 0.36758 0.74067 0.0
C1629 C 0.76962 0.34291 0.74324 0.0
C1630 C 0.73431 0.37964 0.79812 0.0
C1631 C 0.76566 0.38022 0.71882 0.0
H1632 H 0.68285 0.42386 0.74203 0.0
H1633 H 0.74071 0.46524 0.77439 0.0
H1634 H 0.71351 0.36936 0.72431 0.0
H1635 H 0.70115 0.36548 0.75113 0.0
H1636 H 0.68506 0.38161 0.72971 0.0
H1637 H 0.77936 0.44862 0.77384 0.0
H1638 H 0.77466 0.42045 0.78899 0.0
H1639 H 0.7843 0.41798 0.76071 0.0
H1640 H 0.7543 0.33429 0.79711 0.0
H1641 H 0.77775 0.33295 0.72941 0.0
H1642 H 0.71604 0.383 0.79237 0.0
H1643 H 0.74236 0.39816 0.80352 0.0
H1644 H 0.73393 0.36763 0.81296 0.0
H1645 H 0.74937 0.37885 0.70817 0.0
H1646 H 0.77979 0.37116 0.70929 0.0
H1647 H 0.77019 0.40053 0.72189 0.0
C1648 C 0.95872 0.90007 0.95374 0.0
C1649 C 0.97237 0.8809 0.94459 0.0
C1650 C 0.9692 0.92097 0.96559 0.0
C1651 C -0.00617 0.92225 0.96895 0.0
C1652 C 0.00774 0.90347 0.95899 0.0
C1653 C -0.00316 0.88318 0.94666 0.0
C1654 C 0.95377 0.94101 0.97543 0.0
C1655 C 0.03399 0.904 0.96248 0.0
C1656 C 0.01936 0.98546 0.99038 0.0
C1657 C 0.01817 0.98315 0.01365 0.0
C1658 C 0.01238 0.96538 0.97547 0.0
C1659 C 0.00476 0.94233 0.98416 0.0
C1660 C 0.00549 0.9393 0.00771 0.0
C1661 C 0.01174 0.95998 0.02222 0.0
C1662 C 0.01093 0.96974 0.95059 0.0
C1663 C -0.00181 0.91475 0.01761 0.0
H1664 H 0.93983 0.89843 0.95211 0.0
H1665 H 0.00751 0.86831 0.93979 0.0
H1666 H 0.96156 0.96008 0.97365 0.0
H1667 H 0.936 0.94028 0.9673 0.0
H1668 H 0.95204 0.93815 -0.00635 0.0
H1669 H 0.0424 0.889 0.95224 0.0
H1670 H 0.04144 0.92256 0.95817 0.0
H1671 H 0.03854 0.90135 0.98049 0.0
H1672 H 0.02369 0.00366 0.98379 0.0
H1673 H 0.01058 0.95841 0.04025 0.0
H1674 H -0.00769 0.97173 0.94528 0.0
H1675 H 0.01776 0.95348 0.94076 0.0
H1676 H 0.0207 0.98709 0.94634 0.0
H1677 H 0.97898 0.91198 0.01538 0.0
H1678 H 0.00291 0.91438 0.03585 0.0
H1679 H 0.00649 0.89865 0.00877 0.0
C1680 C 0.95143 0.23217 0.70987 0.0
C1681 C 0.95433 0.24757 0.69152 0.0
C1682 C 0.93043 0.23196 0.72159 0.0
C1683 C 0.91207 0.24803 0.71521 0.0
C1684 C 0.91492 0.26354 0.69664 0.0
C1685 C 0.93582 0.26288 0.6849 0.0
C1686 C 0.92791 0.21459 0.74083 0.0
C1687 C 0.89604 0.28126 0.68942 0.0
C1688 C 0.84881 0.23514 0.73002 0.0
C1689 C 0.84603 0.25168 0.74872 0.0
C1690 C 0.87037 0.23308 0.71958 0.0
C1691 C 0.88966 0.24842 0.72757 0.0
C1692 C 0.88707 0.265 0.74662 0.0
C1693 C 0.86538 0.26617 0.75716 0.0
C1694 C 0.87238 0.21469 0.69975 0.0
C1695 C 0.907 0.28209 0.75542 0.0
H1696 H 0.96563 0.22032 0.71514 0.0
H1697 H 0.93793 0.27509 0.67093 0.0
H1698 H 0.92541 0.22579 0.75666 0.0
H1699 H 0.91218 0.20219 0.73781 0.0
H1700 H 0.9434 0.20259 0.74319 0.0
H1701 H 0.90121 0.29262 0.67507 0.0
H1702 H 0.87979 0.27042 0.68443 0.0
H1703 H 0.8919 0.29429 0.70371 0.0
H1704 H 0.83403 0.22363 0.72352 0.0
H1705 H 0.86336 0.27903 0.77153 0.0
H1706 H 0.88749 0.20228 0.70251 0.0
H1707 H 0.87556 0.22511 0.68434 0.0
H1708 H 0.85635 0.20269 0.69673 0.0
H1709 H 0.92256 0.27083 0.75952 0.0
H1710 H 0.90243 0.29342 0.77068 0.0
H1711 H 0.91199 0.29514 0.74222 0.0
C1712 C 0.42056 0.23126 0.45322 0.0
C1713 C 0.43804 0.24697 0.44521 0.0
C1714 C 0.42584 0.21501 0.47058 0.0
C1715 C 0.44895 0.21494 0.47988 0.0
C1716 C 0.46483 0.23458 0.47511 0.0
C1717 C 0.45934 0.25019 0.45738 0.0
C1718 C 0.40804 0.19502 0.47596 0.0
C1719 C 0.48906 0.23626 0.48587 0.0
C1720 C 0.46717 0.15969 0.51492 0.0
C1721 C 0.47529 0.14311 0.49812 0.0
C1722 C 0.4587 0.18348 0.50954 0.0
C1723 C 0.45854 0.19064 0.48689 0.0
C1724 C 0.46738 0.17413 0.47005 0.0
C1725 C 0.4758 0.15077 0.47595 0.0
C1726 C 0.45029 0.20085 0.52809 0.0
C1727 C 0.46777 0.18087 0.4456 0.0
H1728 H 0.4039 0.22915 0.44403 0.0
H1729 H 0.47262 0.26297 0.45152 0.0
H1730 H 0.41131 0.17753 0.46579 0.0
H1731 H 0.40942 0.1905 0.49397 0.0
H1732 H 0.38996 0.20103 0.47187 0.0
H1733 H 0.49678 0.25556 0.48501 0.0
H1734 H 0.48881 0.23104 0.50371 0.0
H1735 H 0.50051 0.22294 0.47684 0.0
H1736 H 0.46695 0.15387 0.53215 0.0
H1737 H 0.48275 0.13833 0.46305 0.0
H1738 H 0.43513 0.21191 0.52238 0.0
H1739 H 0.4646 0.2144 0.53347 0.0
H1740 H 0.44534 0.19025 0.54298 0.0
H1741 H 0.44992 0.18525 0.43931 0.0
H1742 H 0.47448 0.1654 0.43464 0.0
H1743 H 0.47907 0.19784 0.44383 0.0
C1744 C 0.60276 0.74112 0.1787 0.0
C1745 C 0.59291 0.76502 0.18145 0.0
C1746 C 0.62607 0.7369 0.18578 0.0
C1747 C 0.63993 0.75701 0.19589 0.0
C1748 C 0.63019 0.78124 0.19834 0.0
C1749 C 0.60691 0.78493 0.19111 0.0
C1750 C 0.63577 0.71081 0.18277 0.0
C1751 C 0.64424 0.80325 0.20903 0.0
C1752 C 0.69123 0.74446 0.2362 0.0
C1753 C 0.7106 0.74909 0.22301 0.0
C1754 C 0.66822 0.74621 0.22739 0.0
C1755 C 0.66431 0.75272 0.20475 0.0
C1756 C 0.68375 0.75663 0.19111 0.0
C1757 C 0.70662 0.7548 0.20038 0.0
C1758 C 0.64808 0.74189 0.24258 0.0
C1759 C 0.68042 0.76352 0.16688 0.0
H1760 H 0.59217 0.7256 0.17124 0.0
H1761 H 0.5996 0.8035 0.1933 0.0
H1762 H 0.6521 0.71158 0.17331 0.0
H1763 H 0.64029 0.70331 0.19945 0.0
H1764 H 0.62318 0.69747 0.17369 0.0
H1765 H 0.63438 0.82106 0.20909 0.0
H1766 H 0.64935 0.7992 0.22664 0.0
H1767 H 0.66058 0.8061 0.1999 0.0
H1768 H 0.694 0.73999 0.25368 0.0
H1769 H 0.7214 0.75839 0.18999 0.0
H1770 H 0.63565 0.72754 0.23473 0.0
H1771 H 0.63838 0.75962 0.24497 0.0
H1772 H 0.65397 0.73553 0.25936 0.0
H1773 H 0.66831 0.74975 0.15774 0.0
H1774 H 0.69717 0.76411 0.15805 0.0
H1775 H 0.67235 0.7823 0.16611 0.0
C1776 C 0.98879 0.17274 0.60118 0.0
C1777 C 0.00571 0.18602 0.61496 0.0
C1778 C -0.00671 0.14893 0.5912 0.0
C1779 C 0.01535 0.13791 0.59485 0.0
C1780 C 0.03258 0.15117 0.60865 0.0
C1781 C 0.02755 0.17497 0.61858 0.0
C1782 C 0.9743 0.1355 0.57675 0.0
C1783 C 0.05637 0.14024 0.6129 0.0
C1784 C 0.0171 0.06649 0.58415 0.0
C1785 C 0.02469 0.06445 0.56197 0.0
C1786 C 0.01472 0.09018 0.5953 0.0
C1787 C 0.02018 0.11253 0.58414 0.0
C1788 C 0.02874 0.11055 0.56209 0.0
C1789 C 0.0308 0.08662 0.55128 0.0
C1790 C 0.00544 0.0913 0.61873 0.0
C1791 C 0.03497 0.13378 0.54959 0.0
H1792 H 0.97181 0.18089 0.59824 0.0
H1793 H 0.04082 0.18495 0.62909 0.0
H1794 H 0.98048 0.13191 0.55949 0.0
H1795 H 0.97011 0.11691 0.58366 0.0
H1796 H 0.95803 0.14648 0.57568 0.0
H1797 H 0.06791 0.1529 0.62393 0.0
H1798 H 0.05454 0.12182 0.62089 0.0
H1799 H 0.06499 0.1367 0.5967 0.0
H1800 H 0.01227 0.04956 0.59261 0.0
H1801 H 0.03674 0.08535 0.53419 0.0
H1802 H 0.98811 0.10027 0.61847 0.0
H1803 H 0.01724 0.10309 0.63021 0.0
H1804 H 0.00354 0.07231 0.6257 0.0
H1805 H 0.01897 0.14462 0.54612 0.0
H1806 H 0.04317 0.12908 0.53336 0.0
H1807 H 0.04716 0.14627 0.56004 0.0
C1808 C 0.54705 0.22016 0.34441 0.0
C1809 C 0.53463 0.23417 0.36027 0.0
C1810 C 0.5692 0.22835 0.33805 0.0
C1811 C 0.57897 0.25122 0.34762 0.0
C1812 C 0.56727 0.26449 0.3648 0.0
C1813 C 0.54524 0.25575 0.37098 0.0
C1814 C 0.58154 0.21327 0.32017 0.0
C1815 C 0.57706 0.2889 0.37551 0.0
C1816 C 0.64266 0.26537 0.33703 0.0
C1817 C 0.64082 0.27924 0.31753 0.0
C1818 C 0.62265 0.25661 0.34742 0.0
C1819 C 0.60036 0.26223 0.33822 0.0
C1820 C 0.59843 0.27732 0.31918 0.0
C1821 C 0.61875 0.28538 0.30885 0.0
C1822 C 0.62537 0.24045 0.36759 0.0
C1823 C 0.5749 0.28424 0.30929 0.0
H1824 H 0.53906 0.20334 0.33624 0.0
H1825 H 0.53578 0.26674 0.38328 0.0
H1826 H 0.58173 0.22387 0.30449 0.0
H1827 H 0.59999 0.21031 0.32557 0.0
H1828 H 0.5729 0.1946 0.31628 0.0
H1829 H 0.56933 0.29315 0.39205 0.0
H1830 H 0.59633 0.28847 0.37796 0.0
H1831 H 0.57294 0.30452 0.36429 0.0
H1832 H 0.65978 0.26029 0.34351 0.0
H1833 H 0.61742 0.29608 0.29375 0.0
H1834 H 0.61839 0.22114 0.36322 0.0
H1835 H 0.61511 0.24815 0.38166 0.0
H1836 H 0.64391 0.23912 0.37349 0.0
H1837 H 0.5654 0.26698 0.30255 0.0
H1838 H 0.57646 0.29758 0.29549 0.0
H1839 H 0.56417 0.29296 0.32255 0.0
C1840 C 0.53977 0.82225 0.10024 0.0
C1841 C 0.5165 0.81326 0.09979 0.0
C1842 C 0.5463 0.84328 0.08791 0.0
C1843 C 0.52912 0.85587 0.0751 0.0
C1844 C 0.50579 0.84645 0.07411 0.0
C1845 C 0.49985 0.82527 0.08625 0.0
C1846 C 0.57145 0.85243 0.08907 0.0
C1847 C 0.48681 0.85933 0.06088 0.0
C1848 C 0.53586 0.92574 0.06386 0.0
C1849 C 0.54045 0.92523 0.04085 0.0
C1850 C 0.53289 0.90333 0.07535 0.0
C1851 C 0.53494 0.87971 0.06369 0.0
C1852 C 0.54052 0.87908 0.04067 0.0
C1853 C 0.54298 0.90181 0.02948 0.0
C1854 C 0.52665 0.90497 0.09978 0.0
C1855 C 0.54332 0.85437 0.0277 0.0
H1856 H 0.55283 0.81318 0.11054 0.0
H1857 H 0.4818 0.81865 0.08565 0.0
H1858 H 0.57779 0.85496 0.07189 0.0
H1859 H 0.57285 0.87108 0.09816 0.0
H1860 H 0.58309 0.8392 0.09783 0.0
H1861 H 0.46966 0.84922 0.06125 0.0
H1862 H 0.4848 0.87883 0.06787 0.0
H1863 H 0.49167 0.86073 0.0431 0.0
H1864 H 0.53389 0.94372 0.07282 0.0
H1865 H 0.5468 0.90121 0.01177 0.0
H1866 H 0.53898 0.89391 0.11 0.0
H1867 H 0.5089 0.89669 0.10162 0.0
H1868 H 0.52692 0.92472 0.10675 0.0
H1869 H 0.55547 0.84217 0.037 0.0
H1870 H 0.55002 0.85707 0.01066 0.0
H1871 H 0.52621 0.84418 0.02587 0.0
C1872 C 0.89275 0.78812 0.88569 0.0
C1873 C 0.90957 0.80468 0.87756 0.0
C1874 C 0.87241 0.78147 0.87287 0.0
C1875 C 0.86856 0.7922 0.85175 0.0
C1876 C 0.88464 0.81037 0.84424 0.0
C1877 C 0.90519 0.81613 0.85711 0.0
C1878 C 0.85585 0.76175 0.88128 0.0
C1879 C 0.88064 0.8229 0.82216 0.0
C1880 C 0.83314 0.75688 0.80507 0.0
C1881 C 0.81162 0.76878 0.80627 0.0
C1882 C 0.85157 0.76366 0.82042 0.0
C1883 C 0.84853 0.78329 0.83685 0.0
C1884 C 0.82666 0.79498 0.83843 0.0
C1885 C 0.80835 0.7873 0.82333 0.0
C1886 C 0.87453 0.75037 0.8186 0.0
C1887 C 0.82293 0.81638 0.85535 0.0
H1888 H 0.89616 0.77908 0.90143 0.0
H1889 H 0.91812 0.82903 0.85086 0.0
H1890 H 0.83763 0.76845 0.88061 0.0
H1891 H 0.85632 0.74445 0.87021 0.0
H1892 H 0.86041 0.75669 0.89879 0.0
H1893 H 0.89303 0.83898 0.82024 0.0
H1894 H 0.88285 0.80897 0.80804 0.0
H1895 H 0.86253 0.82984 0.82071 0.0
H1896 H 0.8357 0.74265 0.79186 0.0
H1897 H 0.79183 0.79686 0.82413 0.0
H1898 H 0.88022 0.74344 0.83521 0.0
H1899 H 0.88822 0.76381 0.81342 0.0
H1900 H 0.87341 0.73415 0.80619 0.0
H1901 H 0.8267 0.81022 0.87264 0.0
H1902 H 0.8048 0.82345 0.85438 0.0
H1903 H 0.83522 0.83225 0.85244 0.0
C1904 C 0.92195 0.03819 0.88616 0.0
C1905 C 0.93258 0.02117 0.87125 0.0
C1906 C 0.93281 0.04577 0.90683 0.0
C1907 C 0.9546 0.03561 0.91313 0.0
C1908 C 0.96535 0.01816 0.89829 0.0
C1909 C 0.95424 0.01126 0.87745 0.0
C1910 C 0.921 0.06488 0.92187 0.0
C1911 C 0.98845 0.00635 0.90397 0.0
C1912 C -0.00993 0.06935 0.96116 0.0
C1913 C 0.9822 0.05656 0.97966 0.0
C1914 C 0.98141 0.06263 0.93925 0.0
C1915 C 0.96506 0.04228 0.93587 0.0
C1916 C 0.95766 0.02889 0.95444 0.0
C1917 C 0.96604 0.03639 0.97607 0.0
C1918 C 0.98981 0.07709 0.9197 0.0
C1919 C 0.9412 0.0063 0.95143 0.0
H1920 H 0.90536 0.04628 0.8814 0.0
H1921 H 0.96267 -0.00174 0.86596 0.0
H1922 H 0.91618 0.05614 0.93771 0.0
H1923 H 0.93321 0.08092 0.92643 0.0
H1924 H 0.90493 0.07233 0.91377 0.0
H1925 H 0.00032 0.00819 0.88975 0.0
H1926 H -0.00265 0.0147 0.91943 0.0
H1927 H 0.98549 0.98587 0.9061 0.0
H1928 H 0.0029 0.08458 0.96382 0.0
H1929 H 0.96045 0.02578 0.99018 0.0
H1930 H 0.97468 0.08514 0.91053 0.0
H1931 H -0.00149 0.0641 0.90772 0.0
H1932 H 0.00228 0.09265 0.92512 0.0
H1933 H 0.92464 0.01163 0.94285 0.0
H1934 H 0.93696 -0.00192 0.96769 0.0
H1935 H 0.94923 -0.00841 0.94059 0.0
C1936 C 0.80216 0.1676 0.56431 0.0
C1937 C 0.78573 0.154 0.55032 0.0
C1938 C 0.79591 0.17829 0.58515 0.0
C1939 C 0.77261 0.17556 0.59208 0.0
C1940 C 0.75589 0.16209 0.57796 0.0
C1941 C 0.76266 0.15138 0.55732 0.0
C1942 C 0.81431 0.19231 0.59986 0.0
C1943 C 0.73084 0.15897 0.58468 0.0
C1944 C 0.7633 0.18301 0.6548 0.0
C1945 C 0.75682 0.20829 0.65705 0.0
C1946 C 0.76797 0.17194 0.63368 0.0
C1947 C 0.76593 0.18646 0.61431 0.0
C1948 C 0.75851 0.21171 0.61637 0.0
C1949 C 0.75418 0.22238 0.63775 0.0
C1950 C 0.77602 0.14503 0.63222 0.0
C1951 C 0.75581 0.22767 0.59607 0.0
H1952 H 0.82002 0.16967 0.55911 0.0
H1953 H 0.74978 0.14103 0.5466 0.0
H1954 H 0.8089 0.21198 0.60335 0.0
H1955 H 0.8162 0.18326 0.61628 0.0
H1956 H 0.83163 0.19277 0.59203 0.0
H1957 H 0.71985 0.1484 0.57158 0.0
H1958 H 0.73016 0.14881 0.60056 0.0
H1959 H 0.72314 0.17774 0.58788 0.0
H1960 H 0.76573 0.17216 0.6697 0.0
H1961 H 0.74904 0.24188 0.63943 0.0
H1962 H 0.79416 0.14457 0.62629 0.0
H1963 H 0.76487 0.13371 0.6198 0.0
H1964 H 0.77558 0.13593 0.64867 0.0
H1965 H 0.7731 0.23071 0.58864 0.0
H1966 H 0.74836 0.24635 0.60031 0.0
H1967 H 0.74433 0.2178 0.58298 0.0
C1968 C 0.61957 0.00132 0.37317 0.0
C1969 C 0.60947 0.00559 0.35193 0.0
C1970 C 0.60669 0.00484 0.39264 0.0
C1971 C 0.58311 0.01226 0.39065 0.0
C1972 C 0.57316 0.0175 0.36935 0.0
C1973 C 0.58652 0.01431 0.35028 0.0
C1974 C 0.61801 -0.00039 0.41521 0.0
C1975 C 0.54802 0.0253 0.36655 0.0
C1976 C 0.54271 -0.0091 0.43544 0.0
C1977 C 0.5404 0.0132 0.44845 0.0
C1978 C 0.55627 -0.00951 0.41632 0.0
C1979 C 0.56825 0.01277 0.41051 0.0
C1980 C 0.56577 0.03541 0.42349 0.0
C1981 C 0.55158 0.03543 0.44219 0.0
C1982 C 0.55812 0.96611 0.40258 0.0
C1983 C 0.5788 0.05932 0.41813 0.0
H1984 H 0.63732 -0.00528 0.37455 0.0
H1985 H 0.57858 0.01772 0.33393 0.0
H1986 H 0.61406 0.01468 0.42788 0.0
H1987 H 0.61083 0.98162 0.4212 0.0
H1988 H 0.63728 -0.00191 0.41435 0.0
H1989 H 0.54335 0.03004 0.34898 0.0
H1990 H 0.53624 0.00974 0.37142 0.0
H1991 H 0.54469 0.0419 0.37781 0.0
H1992 H 0.53416 0.9737 0.44043 0.0
H1993 H 0.55022 0.05255 0.45259 0.0
H1994 H 0.57652 0.95993 0.40294 0.0
H1995 H 0.55292 0.969 0.38476 0.0
H1996 H 0.54697 0.95076 0.40889 0.0
H1997 H 0.5979 0.05634 0.4197 0.0
H1998 H 0.57441 0.07552 0.4295 0.0
H1999 H 0.57478 0.06427 0.40052 0.0
C2000 C 0.79538 0.79974 0.04176 0.0
C2001 C 0.8102 0.81894 0.0346 0.0
C2002 C 0.80245 0.78482 0.05949 0.0
C2003 C 0.82493 0.78908 0.06973 0.0
C2004 C 0.84156 0.80395 0.05892 0.0
C2005 C 0.83394 0.81905 0.0414 0.0
C2006 C 0.78456 0.76786 0.06965 0.0
C2007 C 0.86636 0.80697 0.0681 0.0
C2008 C 0.81966 0.80103 0.13216 0.0
C2009 C 0.82388 0.77722 0.14039 0.0
C2010 C 0.82133 0.80541 0.10928 0.0
C2011 C 0.82785 0.78551 0.09426 0.0
C2012 C 0.83403 0.76197 0.1028 0.0
C2013 C 0.8316 0.75796 0.12578 0.0
C2014 C 0.8145 0.83093 0.10108 0.0
C2015 C 0.84209 0.74053 0.08779 0.0
H2016 H 0.77727 0.79872 0.03573 0.0
H2017 H 0.84587 0.83311 0.03529 0.0
H2018 H 0.79246 0.7498 0.07422 0.0
H2019 H 0.77823 0.77717 0.08526 0.0
H2020 H 0.76929 0.76374 0.05796 0.0
H2021 H 0.87832 0.81268 0.05483 0.0
H2022 H 0.86723 0.82187 0.08175 0.0
H2023 H 0.8725 0.78918 0.07523 0.0
H2024 H 0.81354 0.81586 0.14341 0.0
H2025 H 0.83516 0.73956 0.13222 0.0
H2026 H 0.79919 0.82881 0.08914 0.0
H2027 H 0.82907 0.83949 0.09204 0.0
H2028 H 0.80993 0.84424 0.11504 0.0
H2029 H 0.82723 0.72713 0.08391 0.0
H2030 H 0.85597 0.72997 0.09658 0.0
H2031 H 0.84887 0.74705 0.07175 0.0
C2032 C 0.95154 0.02248 0.72805 0.0
C2033 C 0.93635 0.00859 0.74099 0.0
C2034 C 0.95869 0.01281 0.70718 0.0
C2035 C 0.95057 0.98859 0.69917 0.0
C2036 C 0.93521 0.97447 0.71213 0.0
C2037 C 0.9282 0.98468 0.73285 0.0
C2038 C 0.97493 0.02852 0.69368 0.0
C2039 C 0.9263 0.94854 0.70417 0.0
C2040 C 0.95404 0.97633 0.63631 0.0
C2041 C 0.9756 0.96442 0.63484 0.0
C2042 C 0.94516 0.98337 0.65722 0.0
C2043 C 0.95812 0.97824 0.67712 0.0
C2044 C 0.97921 0.96487 0.67579 0.0
C2045 C 0.98777 0.95822 0.65462 0.0
C2046 C 0.92265 -0.00233 0.65796 0.0
C2047 C -0.00668 0.95874 0.69667 0.0
H2048 H 0.95786 0.04097 0.7342 0.0
H2049 H 0.9165 0.97376 0.74278 0.0
H2050 H -0.00867 0.01828 0.69082 0.0
H2051 H 0.96671 0.03179 0.67693 0.0
H2052 H 0.97945 0.04709 0.70218 0.0
H2053 H 0.91443 0.94001 0.71626 0.0
H2054 H 0.91677 0.94955 0.6877 0.0
H2055 H 0.94123 0.93586 0.70164 0.0
H2056 H 0.94474 0.98153 0.62107 0.0
H2057 H 0.00437 0.94888 0.6535 0.0
H2058 H 0.92643 0.01737 0.6642 0.0
H2059 H 0.91058 0.98909 0.66979 0.0
H2060 H 0.91365 -0.00188 0.64115 0.0
H2061 H 0.00061 0.97642 0.70498 0.0
H2062 H 0.00802 0.9461 0.69285 0.0
H2063 H 0.98202 0.9496 0.70886 0.0
C2064 C 0.78603 0.19626 0.44088 0.0
C2065 C 0.77441 0.17295 0.44265 0.0
C2066 C 0.7817 0.21124 0.42236 0.0
C2067 C 0.76574 0.20242 0.40497 0.0
C2068 C 0.75286 0.17967 0.40735 0.0
C2069 C 0.75719 0.16532 0.42631 0.0
C2070 C 0.79539 0.23566 0.42071 0.0
C2071 C 0.73587 0.16945 0.38907 0.0
C2072 C 0.74702 0.24424 0.35735 0.0
C2073 C 0.76242 0.23684 0.34059 0.0
C2074 C 0.74818 0.23369 0.37864 0.0
C2075 C 0.76488 0.21507 0.38311 0.0
C2076 C 0.78072 0.20792 0.36639 0.0
C2077 C 0.77941 0.219 0.34544 0.0
C2078 C 0.73126 0.24208 0.39617 0.0
C2079 C 0.7987 0.18798 0.37037 0.0
H2080 H 0.79919 0.20239 0.45358 0.0
H2081 H 0.7482 0.14728 0.42751 0.0
H2082 H 0.80889 0.23323 0.40793 0.0
H2083 H 0.78377 0.25087 0.41521 0.0
H2084 H 0.80425 0.24175 0.43699 0.0
H2085 H 0.72534 0.15316 0.39457 0.0
H2086 H 0.72383 0.18432 0.38367 0.0
H2087 H 0.74567 0.16321 0.37416 0.0
H2088 H 0.73384 0.25801 0.35373 0.0
H2089 H 0.79132 0.21307 0.3326 0.0
H2090 H 0.74089 0.24801 0.41207 0.0
H2091 H 0.71946 0.22609 0.39995 0.0
H2092 H 0.72043 0.25795 0.39061 0.0
H2093 H 0.81021 0.19364 0.38516 0.0
H2094 H 0.80978 0.18464 0.35564 0.0
H2095 H 0.78982 0.16994 0.37413 0.0
C2096 C 0.6325 0.01407 0.21496 0.0
C2097 C 0.62117 0.02493 0.2333 0.0
C2098 C 0.62592 0.0199 0.19295 0.0
C2099 C 0.60727 0.03652 0.18932 0.0
C2100 C 0.59667 0.04861 0.20782 0.0
C2101 C 0.60392 0.04282 0.22965 0.0
C2102 C 0.63797 0.0071 0.17356 0.0
C2103 C 0.57648 0.06611 0.20459 0.0
C2104 C 0.59354 0.05688 0.13006 0.0
C2105 C 0.57716 0.03814 0.12241 0.0
C2106 C 0.60347 0.05686 0.15195 0.0
C2107 C 0.59646 0.03797 0.16653 0.0
C2108 C 0.57937 0.01958 0.15919 0.0
C2109 C 0.57023 0.01967 0.13717 0.0
C2110 C 0.62193 0.07651 0.15925 0.0
C2111 C 0.57118 -0.0007 0.17439 0.0
H2112 H 0.64617 0.0006 0.21779 0.0
H2113 H 0.59523 0.05139 0.24383 0.0
H2114 H 0.62608 -0.00754 0.16535 0.0
H2115 H 0.64221 0.02088 0.16072 0.0
H2116 H 0.65432 -0.00207 0.17915 0.0
H2117 H 0.57241 0.07664 0.22044 0.0
H2118 H 0.58025 0.07985 0.19159 0.0
H2119 H 0.5607 0.05494 0.19865 0.0
H2120 H 0.59886 0.07136 0.11887 0.0
H2121 H 0.55817 0.00462 0.13136 0.0
H2122 H 0.6388 0.0672 0.16258 0.0
H2123 H 0.61716 0.08637 0.17516 0.0
H2124 H 0.62451 0.09072 0.14633 0.0
H2125 H 0.58586 0.98678 0.1785 0.0
H2126 H 0.55658 0.98754 0.16656 0.0
H2127 H 0.5653 0.00791 0.19045 0.0
C2128 C 0.75935 0.88383 0.93987 0.0
C2129 C 0.74812 0.87932 0.95991 0.0
C2130 C 0.74937 0.87533 0.91903 0.0
C2131 C 0.72775 0.86182 0.91824 0.0
C2132 C 0.71547 0.85895 0.9382 0.0
C2133 C 0.72576 0.86784 0.95882 0.0
C2134 C 0.76282 0.8792 0.89802 0.0
C2135 C 0.69239 0.84468 0.93809 0.0
C2136 C 0.70164 0.84496 0.85986 0.0
C2137 C 0.71208 0.82168 0.85518 0.0
C2138 C 0.70571 0.85797 0.88072 0.0
C2139 C 0.72024 0.84725 0.89733 0.0
C2140 C 0.72951 0.82308 0.89327 0.0
C2141 C 0.72555 0.81078 0.87224 0.0
C2142 C 0.69557 0.88375 0.88447 0.0
C2143 C 0.74486 0.81078 0.91066 0.0
H2144 H 0.77642 0.89309 0.94049 0.0
H2145 H 0.71675 0.86456 0.97418 0.0
H2146 H 0.77014 0.861 0.89213 0.0
H2147 H 0.75109 0.88575 0.88433 0.0
H2148 H 0.77747 0.89311 0.90098 0.0
H2149 H 0.6831 0.84821 0.95395 0.0
H2150 H 0.68086 0.84988 0.92373 0.0
H2151 H 0.69554 0.82417 0.93614 0.0
H2152 H 0.69093 0.85343 0.84698 0.0
H2153 H 0.73426 0.79318 0.86889 0.0
H2154 H 0.70972 0.89828 0.88389 0.0
H2155 H 0.68794 0.88564 0.90131 0.0
H2156 H 0.6819 0.88774 0.87148 0.0
H2157 H 0.76169 0.82147 0.91298 0.0
H2158 H 0.74869 0.79093 0.90573 0.0
H2159 H 0.7364 0.81107 0.92713 0.0
C2160 C 0.79635 0.9606 0.02565 0.0
C2161 C 0.78242 0.95172 0.04256 0.0
C2162 C 0.81464 0.97801 0.03085 0.0
C2163 C 0.81955 0.9857 0.05362 0.0
C2164 C 0.80385 0.97893 0.07032 0.0
C2165 C 0.78515 0.96218 0.06447 0.0
C2166 C 0.83036 0.98568 0.01238 0.0
C2167 C 0.80852 0.98648 0.0948 0.0
C2168 C 0.88476 0.98766 0.06574 0.0
C2169 C 0.88995 0.01364 0.06662 0.0
C2170 C 0.86169 0.97852 0.06297 0.0
C2171 C 0.8433 -0.0043 0.06024 0.0
C2172 C 0.84815 0.02191 0.06209 0.0
C2173 C 0.87138 0.03057 0.06565 0.0
C2174 C 0.85719 0.95033 0.06177 0.0
C2175 C 0.82911 0.04082 0.0589 0.0
H2176 H 0.79418 0.95236 0.00871 0.0
H2177 H 0.77448 0.95495 0.07757 0.0
H2178 H 0.83575 0.00584 0.01468 0.0
H2179 H 0.84642 0.97433 0.01295 0.0
H2180 H 0.82167 0.98254 -0.00451 0.0
H2181 H 0.7925 0.98464 0.10465 0.0
H2182 H 0.82193 0.97399 0.10194 0.0
H2183 H 0.8154 0.00614 0.09687 0.0
H2184 H 0.89874 0.97425 0.06611 0.0
H2185 H 0.87497 0.05069 0.06696 0.0
H2186 H 0.85182 0.94408 0.04431 0.0
H2187 H 0.84274 0.94526 0.0728 0.0
H2188 H 0.8729 0.93973 0.06687 0.0
H2189 H 0.82419 0.04133 0.04074 0.0
H2190 H 0.83487 0.06011 0.06493 0.0
H2191 H 0.8132 0.03538 0.06779 0.0
C2192 C 0.33452 0.54203 -0.00744 0.0
C2193 C 0.33289 0.56834 -0.00756 0.0
C2194 C 0.35619 0.53059 -0.00402 0.0
C2195 C 0.37659 0.54589 -8e-05 0.0
C2196 C 0.37487 0.57248 0.00069 0.0
C2197 C 0.35307 0.58337 -0.00334 0.0
C2198 C 0.35737 0.50219 -0.00537 0.0
C2199 C 0.39612 0.58944 0.00542 0.0
C2200 C 0.43105 0.51795 0.02636 0.0
C2201 C 0.44533 0.5152 0.00779 0.0
C2202 C 0.40851 0.52765 0.02403 0.0
C2203 C 0.39987 0.53419 0.00253 0.0
C2204 C 0.41389 0.53054 0.98358 0.0
C2205 C 0.43657 0.52137 0.98649 0.0
C2206 C 0.3943 0.53177 0.0447 0.0
C2207 C 0.4051 0.53676 0.9603 0.0
H2208 H 0.31896 0.53033 0.98914 0.0
H2209 H 0.35189 0.60367 -0.0031 0.0
H2210 H 0.36839 0.49618 0.98049 0.0
H2211 H 0.36571 0.4953 0.01024 0.0
H2212 H 0.33983 0.49299 -0.00795 0.0
H2213 H 0.39158 0.60967 0.00688 0.0
H2214 H 0.40526 0.58429 0.02127 0.0
H2215 H 0.4086 0.5869 -0.00828 0.0
H2216 H 0.43782 0.5134 0.04291 0.0
H2217 H 0.44752 0.51914 0.97208 0.0
H2218 H 0.37702 0.52202 0.04233 0.0
H2219 H 0.39104 0.55218 0.04741 0.0
H2220 H 0.40321 0.52486 0.06007 0.0
H2221 H 0.38799 0.52714 0.95632 0.0
H2222 H 0.41749 0.53112 0.94715 0.0
H2223 H 0.40236 0.55734 0.95958 0.0
C2224 C 0.20249 0.59869 0.8253 0.0
C2225 C 0.18891 0.5818 0.81131 0.0
C2226 C 0.2101 0.62199 0.81755 0.0
C2227 C 0.20405 0.62851 0.79529 0.0
C2228 C 0.19082 0.61133 0.78093 0.0
C2229 C 0.18341 0.58822 0.78911 0.0
C2230 C 0.22421 0.63987 0.83336 0.0
C2231 C 0.18416 0.61754 0.75705 0.0
C2232 C 0.20456 0.69847 0.78452 0.0
C2233 C 0.22676 0.70193 0.77574 0.0
C2234 C 0.19665 0.6745 0.79035 0.0
C2235 C 0.21122 0.65351 0.78719 0.0
C2236 C 0.23309 0.65666 0.77721 0.0
C2237 C 0.2406 0.68084 0.77161 0.0
C2238 C 0.17315 0.67183 0.80086 0.0
C2239 C 0.24902 0.6347 0.77338 0.0
H2240 H 0.20679 0.59395 0.84246 0.0
H2241 H 0.17301 0.57529 0.77809 0.0
H2242 H 0.21437 0.6574 0.83641 0.0
H2243 H 0.22832 0.63152 0.8498 0.0
H2244 H 0.24085 0.64533 0.82568 0.0
H2245 H 0.17448 0.60175 0.74781 0.0
H2246 H 0.17305 0.63442 0.75708 0.0
H2247 H 0.20004 0.62219 0.74776 0.0
H2248 H 0.19377 0.71465 0.78782 0.0
H2249 H 0.25775 0.68333 0.76477 0.0
H2250 H 0.17564 0.66626 0.81853 0.0
H2251 H 0.16244 0.65674 0.79179 0.0
H2252 H 0.16328 0.68963 0.80077 0.0
H2253 H 0.25504 0.62759 0.78982 0.0
H2254 H 0.2646 0.63994 0.76386 0.0
H2255 H 0.23944 0.61895 0.76404 0.0
C2256 C 0.2393 0.47091 0.50291 0.0
C2257 C 0.24713 0.46946 0.52533 0.0
C2258 C 0.21569 0.475 0.49753 0.0
C2259 C 0.19958 0.47665 0.515 0.0
C2260 C 0.20753 0.4752 0.53771 0.0
C2261 C 0.23139 0.47215 0.54263 0.0
C2262 C 0.20796 0.4773 0.47322 0.0
C2263 C 0.19076 0.47599 0.55673 0.0
C2264 C 0.14019 0.50596 0.5085 0.0
C2265 C 0.12574 0.48459 0.50437 0.0
C2266 C 0.16449 0.50377 0.51064 0.0
C2267 C 0.17431 0.47952 0.50964 0.0
C2268 C 0.15974 0.4579 0.50502 0.0
C2269 C 0.13554 0.46077 0.50203 0.0
C2270 C 0.17955 0.5273 0.51471 0.0
C2271 C 0.16949 0.43167 0.50463 0.0
H2272 H 0.25168 0.46881 0.48963 0.0
H2273 H 0.23759 0.47062 0.55993 0.0
H2274 H 0.19608 0.46126 0.46781 0.0
H2275 H 0.19802 0.49485 0.4712 0.0
H2276 H 0.22295 0.47752 0.46188 0.0
H2277 H 0.19976 0.47397 0.57338 0.0
H2278 H 0.18136 0.49404 0.55706 0.0
H2279 H 0.17744 0.46058 0.55408 0.0
H2280 H 0.1324 0.52435 0.5103 0.0
H2281 H 0.12416 0.44429 0.49918 0.0
H2282 H 0.19434 0.52715 0.50316 0.0
H2283 H 0.1871 0.52792 0.53214 0.0
H2284 H 0.16951 0.54473 0.51233 0.0
H2285 H 0.15603 0.417 0.49943 0.0
H2286 H 0.17655 0.42757 0.52165 0.0
H2287 H 0.18414 0.43025 0.493 0.0
C2288 C 0.84908 0.92719 0.82322 0.0
C2289 C 0.85901 0.94573 0.81021 0.0
C2290 C 0.8371 0.90613 0.81292 0.0
C2291 C 0.83421 0.90422 0.78915 0.0
C2292 C 0.84434 0.92282 0.77599 0.0
C2293 C 0.85692 0.94311 0.78666 0.0
C2294 C 0.82736 0.88605 0.82745 0.0
C2295 C 0.8412 0.9218 0.75067 0.0
C2296 C 0.81776 0.84089 0.76028 0.0
C2297 C 0.79332 0.8421 0.75861 0.0
C2298 C 0.8313 0.8609 0.77031 0.0
C2299 C 0.82018 0.88303 0.77802 0.0
C2300 C 0.7956 0.88484 0.77528 0.0
C2301 C 0.7824 0.86414 0.76599 0.0
C2302 C 0.85741 0.85798 0.77326 0.0
C2303 C 0.78317 0.9084 0.7827 0.0
H2304 H 0.85072 0.92914 0.8414 0.0
H2305 H 0.86428 0.95757 0.7765 0.0
H2306 H 0.80799 0.88604 0.82632 0.0
H2307 H 0.83291 0.86714 0.82134 0.0
H2308 H 0.83313 0.889 0.84539 0.0
H2309 H 0.85014 0.93786 0.7429 0.0
H2310 H 0.84814 0.90399 0.74351 0.0
H2311 H 0.8223 0.92205 0.74586 0.0
H2312 H 0.82624 0.82366 0.75504 0.0
H2313 H 0.76349 0.86497 0.76493 0.0
H2314 H 0.86356 0.86429 0.79049 0.0
H2315 H 0.86647 0.86998 0.76132 0.0
H2316 H 0.86271 0.83817 0.77011 0.0
H2317 H 0.78495 0.91117 0.80125 0.0
H2318 H 0.76427 0.90752 0.77777 0.0
H2319 H 0.79127 0.92516 0.77528 0.0
C2320 C 0.68165 0.06802 0.47241 0.0
C2321 C 0.6991 0.07869 0.48716 0.0
C2322 C 0.65953 0.06148 0.48014 0.0
C2323 C 0.65486 0.06548 0.50321 0.0
C2324 C 0.67232 0.07642 0.51815 0.0
C2325 C 0.69418 0.08301 0.50993 0.0
C2326 C 0.6412 0.05011 0.46364 0.0
C2327 C 0.66803 0.08087 0.54286 0.0
C2328 C 0.59085 0.06747 0.51737 0.0
C2329 C 0.58629 0.0424 0.52281 0.0
C2330 C 0.61328 0.07548 0.51166 0.0
C2331 C 0.63167 0.05809 0.51167 0.0
C2332 C 0.62755 0.03323 0.51857 0.0
C2333 C 0.60488 0.02564 0.52399 0.0
C2334 C 0.61696 0.10214 0.50437 0.0
C2335 C 0.64683 0.01426 0.51912 0.0
H2336 H 0.68528 0.0647 0.45481 0.0
H2337 H 0.70757 0.09119 0.52149 0.0
H2338 H 0.63614 0.0309 0.46862 0.0
H2339 H 0.62523 0.06159 0.46385 0.0
H2340 H 0.64741 0.04883 0.44617 0.0
H2341 H 0.68335 0.08988 0.55219 0.0
H2342 H 0.65272 0.09307 0.54507 0.0
H2343 H 0.66389 0.06267 0.55052 0.0
H2344 H 0.57661 0.08057 0.51635 0.0
H2345 H 0.60154 0.00626 0.52821 0.0
H2346 H 0.62076 0.10182 0.48622 0.0
H2347 H 0.63223 0.11124 0.51365 0.0
H2348 H 0.60141 0.1139 0.5071 0.0
H2349 H 0.65221 0.00968 0.50174 0.0
H2350 H 0.64131 -0.00351 0.52684 0.0
H2351 H 0.6624 0.02229 0.52869 0.0
C2352 C 0.22462 0.453 0.82223 0.0
C2353 C 0.20378 0.45811 0.81033 0.0
C2354 C 0.23779 0.4318 0.81637 0.0
C2355 C 0.22965 0.4151 0.7985 0.0
C2356 C 0.20896 0.42052 0.78609 0.0
C2357 C 0.19644 0.44204 0.79201 0.0
C2358 C 0.26008 0.42692 0.82962 0.0
C2359 C 0.1995 0.40305 0.7671 0.0
C2360 C 0.26698 0.36644 0.76923 0.0
C2361 C 0.25998 0.34427 0.7794 0.0
C2362 C 0.25829 0.38993 0.77618 0.0
C2363 C 0.24185 0.39118 0.79337 0.0
C2364 C 0.23535 0.36897 0.80422 0.0
C2365 C 0.24467 0.34582 0.79724 0.0
C2366 C 0.26603 0.41325 0.76453 0.0
C2367 C 0.2176 0.36943 0.82239 0.0
H2368 H 0.23051 0.46539 0.83631 0.0
H2369 H 0.18033 0.44571 0.78273 0.0
H2370 H 0.25782 0.4097 0.83932 0.0
H2371 H 0.27458 0.42351 0.81807 0.0
H2372 H 0.26518 0.44289 0.84154 0.0
H2373 H 0.18347 0.41029 0.75878 0.0
H2374 H 0.21287 0.4003 0.75425 0.0
H2375 H 0.19532 0.38426 0.77363 0.0
H2376 H 0.279 0.36539 0.75557 0.0
H2377 H 0.23916 0.32876 0.80515 0.0
H2378 H 0.27112 0.42857 0.77708 0.0
H2379 H 0.2513 0.42012 0.75401 0.0
H2380 H 0.28099 0.4096 0.75356 0.0
H2381 H 0.22274 0.38377 0.83581 0.0
H2382 H 0.21554 0.35085 0.83011 0.0
H2383 H 0.20038 0.37482 0.81516 0.0
C2384 C 0.30899 0.55191 0.30609 0.0
C2385 C 0.33007 0.54611 0.2959 0.0
C2386 C 0.29812 0.57495 0.30265 0.0
C2387 C 0.30869 0.59265 0.28884 0.0
C2388 C 0.3292 0.58633 0.27748 0.0
C2389 C 0.33957 0.56308 0.28104 0.0
C2390 C 0.276 0.58086 0.31471 0.0
C2391 C 0.34096 0.60472 0.26256 0.0
C2392 C 0.2768 0.64948 0.26785 0.0
C2393 C 0.28576 0.66875 0.28277 0.0
C2394 C 0.28338 0.62439 0.27012 0.0
C2395 C 0.29946 0.61851 0.28759 0.0
C2396 C 0.30791 0.63772 0.30319 0.0
C2397 C 0.30085 0.66261 0.30066 0.0
C2398 C 0.27376 0.60436 0.25337 0.0
C2399 C 0.32515 0.63216 0.32203 0.0
H2400 H 0.30137 0.53884 0.31744 0.0
H2401 H 0.3558 0.55879 0.27302 0.0
H2402 H 0.27978 0.59573 0.32805 0.0
H2403 H 0.26266 0.58827 0.30289 0.0
H2404 H 0.26852 0.56406 0.32261 0.0
H2405 H 0.35584 0.59625 0.25369 0.0
H2406 H 0.32824 0.61155 0.24984 0.0
H2407 H 0.34761 0.6214 0.27287 0.0
H2408 H 0.26497 0.65406 0.25406 0.0
H2409 H 0.30783 0.67739 0.31224 0.0
H2410 H 0.26666 0.58805 0.26223 0.0
H2411 H 0.28802 0.59729 0.24283 0.0
H2412 H 0.25974 0.61157 0.24213 0.0
H2413 H 0.31818 0.61684 0.33219 0.0
H2414 H 0.32917 0.64896 0.33334 0.0
H2415 H 0.34168 0.62552 0.31489 0.0
C2416 C 0.51784 0.63502 0.61495 0.0
C2417 C 0.49833 0.64982 0.6105 0.0
C2418 C 0.51889 0.61021 0.60602 0.0
C2419 C 0.50008 0.6001 0.5922 0.0
C2420 C 0.48002 0.61459 0.5883 0.0
C2421 C 0.47935 0.63925 0.59754 0.0
C2422 C 0.54053 0.59519 0.61065 0.0
C2423 C 0.45968 0.6045 0.57351 0.0
C2424 C 0.5155 0.55234 0.54666 0.0
C2425 C 0.50815 0.52956 0.55554 0.0
C2426 C 0.51276 0.57535 0.5584 0.0
C2427 C 0.50253 0.57564 0.57967 0.0
C2428 C 0.49476 0.55277 0.58868 0.0
C2429 C 0.49756 0.52991 0.57641 0.0
C2430 C 0.52104 0.59935 0.54808 0.0
C2431 C 0.48392 0.55246 0.61141 0.0
H2432 H 0.53247 0.6429 0.62515 0.0
H2433 H 0.46412 0.65044 0.59409 0.0
H2434 H 0.53567 0.5762 0.61633 0.0
H2435 H 0.55017 0.59247 0.59492 0.0
H2436 H 0.55246 0.6047 0.62361 0.0
H2437 H 0.44451 0.6172 0.57389 0.0
H2438 H 0.46522 0.60225 0.55588 0.0
H2439 H 0.45397 0.58563 0.57881 0.0
H2440 H 0.52357 0.55223 0.53046 0.0
H2441 H 0.492 0.51231 0.58338 0.0
H2442 H 0.53477 0.6089 0.55916 0.0
H2443 H 0.50635 0.61254 0.54646 0.0
H2444 H 0.52827 0.59584 0.53119 0.0
H2445 H 0.4967 0.55999 0.62456 0.0
H2446 H 0.47823 0.53319 0.61577 0.0
H2447 H 0.46859 0.56489 0.61175 0.0
C2448 C 0.60237 0.28178 0.83033 0.0
C2449 C 0.59285 0.26214 0.84247 0.0
C2450 C 0.62507 0.28051 0.82207 0.0
C2451 C 0.6386 0.2589 0.8257 0.0
C2452 C 0.62924 0.23917 0.83823 0.0
C2453 C 0.60659 0.2411 0.84659 0.0
C2454 C 0.63446 0.3022 0.80918 0.0
C2455 C 0.64295 0.21571 0.84235 0.0
C2456 C 0.68763 0.24575 0.78511 0.0
C2457 C 0.70752 0.25436 0.79784 0.0
C2458 C 0.66519 0.24674 0.79408 0.0
C2459 C 0.66244 0.25693 0.8162 0.0
C2460 C 0.68246 0.26568 0.8291 0.0
C2461 C 0.70469 0.26413 0.81985 0.0
C2462 C 0.64438 0.23693 0.77983 0.0
C2463 C 0.68038 0.27699 0.8526 0.0
H2464 H 0.59198 0.29816 0.82709 0.0
H2465 H 0.59939 0.22573 0.8558 0.0
H2466 H 0.65132 0.30929 0.81703 0.0
H2467 H 0.63792 0.29567 0.7917 0.0
H2468 H 0.62215 0.31808 0.80857 0.0
H2469 H 0.63339 0.20221 0.85265 0.0
H2470 H 0.64683 0.20612 0.82604 0.0
H2471 H 0.65994 0.22081 0.85104 0.0
H2472 H 0.6896 0.23808 0.76815 0.0
H2473 H 0.71988 0.27096 0.82984 0.0
H2474 H 0.63205 0.25241 0.77693 0.0
H2475 H 0.63485 0.22219 0.78877 0.0
H2476 H 0.64948 0.22884 0.76326 0.0
H2477 H 0.66912 0.29374 0.85219 0.0
H2478 H 0.69763 0.2828 0.86049 0.0
H2479 H 0.67191 0.26321 0.8634 0.0
C2480 C 0.98278 0.36322 0.11885 0.0
C2481 C 0.96932 0.34168 0.12264 0.0
C2482 C 0.98573 0.37114 0.097 0.0
C2483 C 0.97555 0.3566 0.07852 0.0
C2484 C 0.96119 0.33532 0.08232 0.0
C2485 C 0.95802 0.32826 0.10447 0.0
C2486 C 0.00089 0.39426 0.09374 0.0
C2487 C 0.95069 0.31883 0.06317 0.0
C2488 C 0.97808 0.39459 0.02713 0.0
C2489 C 0.00134 0.39059 0.02147 0.0
C2490 C 0.96802 0.38127 0.04427 0.0
C2491 C 0.98146 0.36327 0.05546 0.0
C2492 C 0.0034 0.35629 0.04719 0.0
C2493 C 0.01333 0.37039 0.03042 0.0
C2494 C 0.94444 0.38902 0.05242 0.0
C2495 C 0.01766 0.33615 0.05795 0.0
H2496 H -0.00843 0.37344 0.13297 0.0
H2497 H 0.948 0.31124 0.10746 0.0
H2498 H 0.01794 0.3884 0.0872 0.0
H2499 H -0.00736 0.40655 0.08124 0.0
H2500 H 0.0043 0.40551 0.1097 0.0
H2501 H 0.93537 0.30769 0.06853 0.0
H2502 H 0.94524 0.33001 0.04864 0.0
H2503 H 0.96403 0.30542 0.05735 0.0
H2504 H 0.96877 0.41027 0.02023 0.0
H2505 H 0.03123 0.3672 0.02587 0.0
H2506 H 0.94686 0.4003 0.06847 0.0
H2507 H 0.93347 0.37224 0.0558 0.0
H2508 H 0.93492 0.40057 0.04009 0.0
H2509 H 0.02618 0.34397 0.07382 0.0
H2510 H 0.03152 0.32928 0.04678 0.0
H2511 H 0.00632 0.31993 0.06216 0.0
C2512 C 0.9397 0.7567 0.35252 0.0
C2513 C 0.96007 0.75475 0.34023 0.0
C2514 C 0.91772 0.75937 0.34161 0.0
C2515 C 0.91592 0.75913 0.31778 0.0
C2516 C 0.93653 0.75743 0.30534 0.0
C2517 C 0.95836 0.75572 0.31673 0.0
C2518 C 0.89635 0.76203 0.35559 0.0
C2519 C 0.93544 0.75627 0.27995 0.0
C2520 C 0.85741 0.73679 0.29064 0.0
C2521 C 0.84804 0.75935 0.28343 0.0
C2522 C 0.87965 0.73641 0.3014 0.0
C2523 C 0.89246 0.75932 0.30585 0.0
C2524 C 0.88282 0.78226 0.29884 0.0
C2525 C 0.86088 0.78193 0.28732 0.0
C2526 C 0.88947 0.71143 0.30784 0.0
C2527 C 0.89547 0.80717 0.3039 0.0
H2528 H 0.94095 0.75619 0.37069 0.0
H2529 H 0.97404 0.75394 0.30716 0.0
H2530 H 0.88614 0.77847 0.35034 0.0
H2531 H 0.88485 0.74504 0.35286 0.0
H2532 H 0.90093 0.76444 0.37385 0.0
H2533 H 0.95306 0.75544 0.27275 0.0
H2534 H 0.9251 0.73932 0.27373 0.0
H2535 H 0.92643 0.77295 0.27353 0.0
H2536 H 0.84743 0.71933 0.28752 0.0
H2537 H 0.85345 0.79939 0.28189 0.0
H2538 H 0.89194 0.71105 0.32638 0.0
H2539 H 0.90688 0.70892 0.30054 0.0
H2540 H 0.8779 0.69523 0.30201 0.0
H2541 H 0.89896 0.80989 0.3223 0.0
H2542 H 0.88532 0.82336 0.29792 0.0
H2543 H 0.91263 0.80726 0.29583 0.0
C2544 C 0.52592 0.31843 0.92494 0.0
C2545 C 0.50404 0.30644 0.92071 0.0
C2546 C 0.52808 0.34133 0.93785 0.0
C2547 C 0.50785 0.35282 0.94636 0.0
C2548 C 0.48575 0.34085 0.942 0.0
C2549 C 0.48416 0.31784 0.92947 0.0
C2550 C 0.55201 0.35326 0.94241 0.0
C2551 C 0.46365 0.35254 0.95029 0.0
C2552 C 0.51114 0.40184 -0.00469 0.0
C2553 C 0.5098 0.42456 0.98412 0.0
C2554 C 0.51122 0.37843 0.98325 0.0
C2555 C 0.50949 0.3776 0.95941 0.0
C2556 C 0.50802 0.40049 0.94806 0.0
C2557 C 0.5084 0.42362 0.9605 0.0
C2558 C 0.51314 0.35455 -0.00396 0.0
C2559 C 0.50566 0.40056 0.92272 0.0
H2560 H 0.54139 0.3098 0.91835 0.0
H2561 H 0.46709 0.30898 0.92618 0.0
H2562 H 0.55283 0.37207 0.935 0.0
H2563 H 0.55541 0.35617 0.9608 0.0
H2564 H 0.56609 0.34157 0.93536 0.0
H2565 H 0.44779 0.34093 0.94537 0.0
H2566 H 0.46469 0.35505 0.96889 0.0
H2567 H 0.46165 0.37152 0.94341 0.0
H2568 H 0.51249 0.40236 0.01353 0.0
H2569 H 0.50736 0.44104 0.95167 0.0
H2570 H 0.52803 0.34339 0.99 0.0
H2571 H 0.49708 0.3427 -0.00706 0.0
H2572 H 0.51566 0.35841 0.01445 0.0
H2573 H 0.52051 0.39069 0.91511 0.0
H2574 H 0.50509 0.41995 0.91641 0.0
H2575 H 0.48942 0.39017 0.91683 0.0
C2576 C 0.94578 0.27732 0.23466 0.0
C2577 C 0.96695 0.2695 0.22617 0.0
C2578 C 0.92915 0.2597 0.24113 0.0
C2579 C 0.93367 0.23358 0.23841 0.0
C2580 C 0.95571 0.22563 0.23121 0.0
C2581 C 0.97226 0.24383 0.22528 0.0
C2582 C 0.90608 0.26913 0.24935 0.0
C2583 C 0.96132 0.19811 0.22797 0.0
C2584 C 0.88455 0.20234 0.26611 0.0
C2585 C 0.86727 0.20464 0.24904 0.0
C2586 C 0.90801 0.20791 0.26211 0.0
C2587 C 0.91399 0.21543 0.24053 0.0
C2588 C 0.89747 0.21232 0.22234 0.0
C2589 C 0.87407 0.20716 0.22684 0.0
C2590 C 0.92546 0.20968 0.28169 0.0
C2591 C 0.90363 0.21863 0.19876 0.0
H2592 H 0.94185 0.29723 0.23535 0.0
H2593 H 0.98863 0.23781 0.21841 0.0
H2594 H 0.89195 0.26411 0.23661 0.0
H2595 H 0.90164 0.26012 0.26517 0.0
H2596 H 0.90632 0.28991 0.25245 0.0
H2597 H 0.98031 0.19512 0.23087 0.0
H2598 H 0.95143 0.18609 0.2393 0.0
H2599 H 0.95667 0.19181 0.21036 0.0
H2600 H 0.87943 0.19917 0.28315 0.0
H2601 H 0.86095 0.20834 0.21338 0.0
H2602 H 0.92643 0.2294 0.28866 0.0
H2603 H 0.94317 0.20455 0.27633 0.0
H2604 H 0.92021 0.19726 0.29529 0.0
H2605 H 0.90384 0.23942 0.19731 0.0
H2606 H 0.89071 0.21027 0.18608 0.0
H2607 H 0.92126 0.2118 0.19482 0.0
C2608 C 0.00697 0.66423 0.43923 0.0
C2609 C 0.02278 0.67784 0.42655 0.0
C2610 C 0.01353 0.64215 0.44986 0.0
C2611 C 0.03658 0.63332 0.448 0.0
C2612 C 0.05291 0.64738 0.43592 0.0
C2613 C 0.04582 0.66939 0.42531 0.0
C2614 C -0.0045 0.62782 0.46252 0.0
C2615 C 0.07771 0.63881 0.43371 0.0
C2616 C 0.05532 0.58503 0.49054 0.0
C2617 C 0.05129 0.56211 0.47822 0.0
C2618 C 0.05144 0.60834 0.48071 0.0
C2619 C 0.04315 0.60888 0.45804 0.0
C2620 C 0.03969 0.58584 0.44534 0.0
C2621 C 0.04388 0.56281 0.45553 0.0
C2622 C 0.05556 0.63239 0.49483 0.0
C2623 C 0.03076 0.58545 0.42117 0.0
H2624 H 0.98913 0.67043 0.44042 0.0
H2625 H 0.05823 0.67964 0.4156 0.0
H2626 H -0.00759 0.60879 0.45441 0.0
H2627 H 0.00198 0.62515 0.48002 0.0
H2628 H 0.97855 0.6376 0.46307 0.0
H2629 H 0.08871 0.65264 0.42508 0.0
H2630 H 0.08579 0.63573 0.45056 0.0
H2631 H 0.07776 0.62052 0.42401 0.0
H2632 H 0.06112 0.58478 0.50805 0.0
H2633 H 0.04068 0.54528 0.44583 0.0
H2634 H 0.03868 0.64178 0.49741 0.0
H2635 H 0.06692 0.64567 0.48601 0.0
H2636 H 0.06381 0.62894 0.51156 0.0
H2637 H 0.01288 0.5931 0.42032 0.0
H2638 H 0.03019 0.56614 0.41322 0.0
H2639 H 0.042 0.59769 0.4112 0.0
C2640 C 0.61156 0.73475 0.64808 0.0
C2641 C 0.60144 0.71759 0.66245 0.0
C2642 C 0.63397 0.74518 0.65287 0.0
C2643 C 0.6466 0.73806 0.67234 0.0
C2644 C 0.63734 0.71907 0.68575 0.0
C2645 C 0.6148 0.70914 0.6807 0.0
C2646 C 0.64332 0.76518 0.63805 0.0
C2647 C 0.65057 0.71049 0.70636 0.0
C2648 C 0.71023 0.75419 0.68662 0.0
C2649 C 0.70804 0.77263 0.70396 0.0
C2650 C 0.6904 0.74383 0.67485 0.0
C2651 C 0.66802 0.75241 0.68042 0.0
C2652 C 0.66601 0.77293 0.69615 0.0
C2653 C 0.68607 0.78274 0.70781 0.0
C2654 C 0.69331 0.72215 0.65807 0.0
C2655 C 0.64248 0.78307 0.70215 0.0
H2656 H 0.60144 0.74128 0.63381 0.0
H2657 H 0.60724 0.69565 0.69169 0.0
H2658 H 0.64189 0.78397 0.6467 0.0
H2659 H 0.66207 0.76231 0.63486 0.0
H2660 H 0.63346 0.76538 0.62166 0.0
H2661 H 0.64214 0.69372 0.71351 0.0
H2662 H 0.66877 0.70582 0.70227 0.0
H2663 H 0.65147 0.72599 0.71947 0.0
H2664 H 0.72717 0.74625 0.68354 0.0
H2665 H 0.68433 0.79717 0.72103 0.0
H2666 H 0.7115 0.72127 0.65222 0.0
H2667 H 0.68119 0.72357 0.64326 0.0
H2668 H 0.68912 0.70418 0.66609 0.0
H2669 H 0.63176 0.78642 0.68673 0.0
H2670 H 0.64411 0.80095 0.7125 0.0
H2671 H 0.63293 0.76896 0.71182 0.0
C2672 C 0.63136 0.47937 0.67026 0.0
C2673 C 0.61945 0.49898 0.68114 0.0
C2674 C 0.62444 0.47042 0.64848 0.0
C2675 C 0.6053 0.48148 0.63727 0.0
C2676 C 0.59398 0.50212 0.64769 0.0
C2677 C 0.60114 0.51056 0.66954 0.0
C2678 C 0.63694 0.44841 0.6379 0.0
C2679 C 0.57371 0.51469 0.6361 0.0
C2680 C 0.59219 0.4729 0.57457 0.0
C2681 C 0.57264 0.45642 0.57406 0.0
C2682 C 0.60391 0.48022 0.59495 0.0
C2683 C 0.59603 0.47064 0.61524 0.0
C2684 C 0.57762 0.45237 0.6146 0.0
C2685 C 0.56611 0.4455 0.59401 0.0
C2686 C 0.62356 0.49963 0.59489 0.0
C2687 C 0.56896 0.44139 0.63586 0.0
H2688 H 0.64556 0.4703 0.67907 0.0
H2689 H 0.59197 0.52583 0.67775 0.0
H2690 H 0.62499 0.43166 0.63646 0.0
H2691 H 0.64206 0.45267 0.62065 0.0
H2692 H 0.65283 0.44349 0.64789 0.0
H2693 H 0.56783 0.53154 0.64585 0.0
H2694 H 0.57863 0.52053 0.61919 0.0
H2695 H 0.55875 0.50111 0.63369 0.0
H2696 H 0.59745 0.48139 0.55924 0.0
H2697 H 0.55113 0.43265 0.59376 0.0
H2698 H 0.63855 0.49405 0.60575 0.0
H2699 H 0.6174 0.51793 0.60184 0.0
H2700 H 0.62975 0.50246 0.57768 0.0
H2701 H 0.58381 0.43468 0.64631 0.0
H2702 H 0.55633 0.42545 0.63229 0.0
H2703 H 0.56021 0.45623 0.64595 0.0
C2704 C 0.78035 0.35027 0.98984 0.0
C2705 C 0.80131 0.35472 0.00242 0.0
C2706 C 0.78021 0.33816 0.96837 0.0
C2707 C 0.80157 0.33069 0.95908 0.0
C2708 C 0.82274 0.33488 0.97179 0.0
C2709 C 0.82233 0.34663 -0.00668 0.0
C2710 C 0.75722 0.33363 0.95549 0.0
C2711 C 0.84593 0.32759 0.96241 0.0
C2712 C 0.80125 0.28218 0.91013 0.0
C2713 C 0.80265 0.29753 0.89152 0.0
C2714 C 0.80065 0.29269 0.93216 0.0
C2715 C 0.80193 0.3192 0.9358 0.0
C2716 C 0.80384 0.3348 0.9172 0.0
C2717 C 0.80398 0.32383 0.89534 0.0
C2718 C 0.79846 0.2754 0.95153 0.0
C2719 C 0.80557 0.36316 0.92038 0.0
H2720 H 0.76402 0.35635 -0.00327 0.0
H2721 H 0.83868 0.35013 0.00278 0.0
H2722 H 0.75708 0.34438 0.93989 0.0
H2723 H 0.75503 0.31337 0.95035 0.0
H2724 H 0.74206 0.33936 0.96549 0.0
H2725 H 0.86077 0.33164 0.97462 0.0
H2726 H 0.8457 0.3072 0.95752 0.0
H2727 H 0.84905 0.33804 0.94699 0.0
H2728 H 0.80059 0.26187 0.90752 0.0
H2729 H 0.8046 0.33597 0.88118 0.0
H2730 H 0.78273 0.28015 0.96107 0.0
H2731 H 0.81382 0.2781 0.96332 0.0
H2732 H 0.79713 0.25522 0.94584 0.0
H2733 H 0.78963 0.3703 0.92831 0.0
H2734 H 0.80767 0.37261 0.90425 0.0
H2735 H 0.82066 0.36864 0.93187 0.0
C2736 C 0.96222 0.47871 0.18226 0.0
C2737 C 0.93916 0.48637 0.18503 0.0
C2738 C 0.97257 0.47946 0.16138 0.0
C2739 C 0.95955 0.48818 0.14278 0.0
C2740 C 0.93568 0.49413 0.14501 0.0
C2741 C 0.92569 0.49312 0.16622 0.0
C2742 C -0.00207 0.47256 0.15964 0.0
C2743 C 0.92116 0.50299 0.12534 0.0
C2744 C -0.00522 0.52259 0.10039 0.0
C2745 C -0.00307 0.50394 0.08333 0.0
C2746 C 0.9825 0.51768 0.11974 0.0
C2747 C 0.97177 0.49365 0.12188 0.0
C2748 C 0.97385 0.47472 0.1047 0.0
C2749 C 0.98671 0.47998 0.08575 0.0
C2750 C 0.98089 0.53828 0.13785 0.0
C2751 C 0.96236 0.44902 0.10622 0.0
H2752 H 0.97258 0.47304 0.19672 0.0
H2753 H 0.90784 0.49896 0.16831 0.0
H2754 H 0.00013 0.4591 0.14517 0.0
H2755 H 0.00858 0.48972 0.15666 0.0
H2756 H 0.00493 0.46399 0.17513 0.0
H2757 H 0.9023 0.50374 0.12903 0.0
H2758 H 0.92726 0.52214 0.12111 0.0
H2759 H 0.92329 0.49039 0.11025 0.0
H2760 H 0.00249 0.54117 0.0985 0.0
H2761 H 0.98796 0.46559 0.07241 0.0
H2762 H 0.98872 0.53194 0.15391 0.0
H2763 H 0.96229 0.5424 0.14076 0.0
H2764 H -0.01003 0.55601 0.13346 0.0
H2765 H 0.97184 0.43827 0.11913 0.0
H2766 H 0.96234 0.43806 0.08995 0.0
H2767 H 0.94404 0.45073 0.11146 0.0
C2768 C 0.81731 0.67847 0.44514 0.0
C2769 C 0.80494 0.6643 0.4603 0.0
C2770 C 0.80545 0.69236 0.42899 0.0
C2771 C 0.78068 0.69204 0.42808 0.0
C2772 C 0.7682 0.67981 0.44469 0.0
C2773 C 0.78049 0.66605 0.46063 0.0
C2774 C 0.81938 0.70557 0.41171 0.0
C2775 C 0.74182 0.67941 0.44451 0.0
C2776 C 0.7546 0.73519 0.38533 0.0
C2777 C 0.7535 0.71906 0.36601 0.0
C2778 C 0.76197 0.72637 0.40625 0.0
C2779 C 0.76819 0.70084 0.40776 0.0
C2780 C 0.76493 0.684 0.38882 0.0
C2781 C 0.75768 0.69333 0.36816 0.0
C2782 C 0.76483 0.74477 0.42619 0.0
C2783 C 0.77101 0.6565 0.38985 0.0
H2784 H 0.83619 0.6775 0.44495 0.0
H2785 H 0.77076 0.65557 0.4726 0.0
H2786 H 0.81706 0.69518 0.3952 0.0
H2787 H 0.81302 0.72495 0.40957 0.0
H2788 H 0.83834 0.70669 0.41636 0.0
H2789 H 0.73506 0.67357 0.46082 0.0
H2790 H 0.73489 0.6982 0.44077 0.0
H2791 H 0.73494 0.66583 0.43111 0.0
H2792 H 0.75095 0.75502 0.38385 0.0
H2793 H 0.75711 0.68073 0.35336 0.0
H2794 H 0.78357 0.7502 0.42877 0.0
H2795 H 0.75909 0.73613 0.44178 0.0
H2796 H 0.7548 0.76218 0.4236 0.0
H2797 H 0.79022 0.65482 0.39217 0.0
H2798 H 0.76524 0.64547 0.37431 0.0
H2799 H 0.76283 0.64793 0.40441 0.0
C2800 C 0.59268 0.53591 0.80634 0.0
C2801 C 0.61357 0.5226 0.80761 0.0
C2802 C 0.58049 0.54205 0.8258 0.0
C2803 C 0.58946 0.53468 0.84693 0.0
C2804 C 0.61126 0.52267 0.84843 0.0
C2805 C 0.62299 0.51671 0.82875 0.0
C2806 C 0.55735 0.55499 0.82358 0.0
C2807 C 0.62149 0.51461 0.87067 0.0
C2808 C 0.56594 0.55641 0.90311 0.0
C2809 C 0.55246 0.53522 0.90839 0.0
C2810 C 0.5772 0.5572 0.88256 0.0
C2811 C 0.5749 0.53631 0.86704 0.0
C2812 C 0.56038 0.51546 0.87182 0.0
C2813 C 0.54944 0.51513 0.89244 0.0
C2814 C 0.59244 0.5798 0.87794 0.0
C2815 C 0.55746 0.49277 0.85571 0.0
H2816 H 0.58535 0.54065 0.79006 0.0
H2817 H 0.63909 0.50645 0.82995 0.0
H2818 H 0.54297 0.54122 0.82623 0.0
H2819 H 0.55618 0.57042 0.8366 0.0
H2820 H 0.55457 0.56288 0.80673 0.0
H2821 H 0.63968 0.50797 0.86927 0.0
H2822 H 0.62145 0.53043 0.88343 0.0
H2823 H 0.6106 0.49904 0.87694 0.0
H2824 H 0.5681 0.57214 0.91524 0.0
H2825 H 0.53943 0.49848 0.89647 0.0
H2826 H 0.58873 0.58621 0.8607 0.0
H2827 H 0.61107 0.57448 0.87895 0.0
H2828 H 0.58992 0.59578 0.89019 0.0
H2829 H 0.55252 0.49874 0.83858 0.0
H2830 H 0.54396 0.47916 0.86104 0.0
H2831 H 0.5743 0.48291 0.85462 0.0
C2832 C 0.79111 0.34573 0.13066 0.0
C2833 C 0.77689 0.34891 0.11137 0.0
C2834 C 0.78337 0.33141 0.14834 0.0
C2835 C 0.7611 0.31921 0.14645 0.0
C2836 C 0.74686 0.32181 0.12675 0.0
C2837 C 0.75476 0.33701 0.10959 0.0
C2838 C 0.79888 0.32977 0.16927 0.0
C2839 C 0.72334 0.30852 0.12383 0.0
C2840 C 0.75632 0.26685 0.1877 0.0
C2841 C 0.74501 0.27901 0.20547 0.0
C2842 C 0.75996 0.27901 0.16754 0.0
C2843 C 0.75285 0.30423 0.16543 0.0
C2844 C 0.74035 0.3161 0.18289 0.0
C2845 C 0.73628 0.30319 0.20257 0.0
C2846 C 0.77269 0.26537 0.14907 0.0
C2847 C 0.73296 0.34316 0.18165 0.0
H2848 H 0.80811 0.35513 0.13225 0.0
H2849 H 0.74376 0.33934 0.09466 0.0
H2850 H 0.78948 0.3367 0.18421 0.0
H2851 H 0.80333 0.30986 0.17193 0.0
H2852 H 0.8154 0.34098 0.16834 0.0
H2853 H 0.7149 0.31144 0.10708 0.0
H2854 H 0.7253 0.28798 0.1259 0.0
H2855 H 0.71156 0.31546 0.137 0.0
H2856 H 0.76304 0.24812 0.18986 0.0
H2857 H 0.72778 0.31281 0.21636 0.0
H2858 H 0.7908 0.27311 0.14857 0.0
H2859 H 0.764 0.26826 0.13246 0.0
H2860 H 0.77357 0.24481 0.15168 0.0
H2861 H 0.74871 0.35575 0.18284 0.0
H2862 H 0.7213 0.34874 0.19543 0.0
H2863 H 0.72382 0.34631 0.16531 0.0
C2864 C 0.95117 0.48835 0.32079 0.0
C2865 C 0.94545 0.47219 0.3022 0.0
C2866 C 0.96465 0.47999 0.33895 0.0
C2867 C 0.97195 0.45465 0.33872 0.0
C2868 C 0.96544 0.43796 0.32035 0.0
C2869 C 0.95252 0.44707 0.30207 0.0
C2870 C 0.97154 0.49848 0.35814 0.0
C2871 C 0.97224 0.41062 0.31996 0.0
C2872 C 0.02464 0.4464 0.37731 0.0
C2873 C 0.01391 0.44216 0.39769 0.0
C2874 C 0.01125 0.44884 0.3574 0.0
C2875 C 0.98664 0.44608 0.35777 0.0
C2876 C 0.97596 0.43885 0.37761 0.0
C2877 C 0.98966 0.43736 0.39742 0.0
C2878 C 0.02327 0.45673 0.33656 0.0
C2879 C 0.94982 0.43491 0.37847 0.0
H2880 H 0.94581 0.50782 0.3208 0.0
H2881 H 0.9479 0.43452 0.28771 0.0
H2882 H 0.9646 0.49185 0.37407 0.0
H2883 H -0.00913 0.49972 0.3603 0.0
H2884 H 0.96493 0.51768 0.35539 0.0
H2885 H 0.96445 0.39976 0.3051 0.0
H2886 H -0.00848 0.40924 0.31968 0.0
H2887 H 0.96655 0.40169 0.33544 0.0
H2888 H 0.04341 0.4493 0.37713 0.0
H2889 H 0.98095 0.43421 0.41295 0.0
H2890 H 0.01938 0.47674 0.33356 0.0
H2891 H 0.01665 0.44535 0.32156 0.0
H2892 H 0.04254 0.45487 0.33816 0.0
H2893 H 0.94129 0.45348 0.37923 0.0
H2894 H 0.94488 0.42451 0.39347 0.0
H2895 H 0.94282 0.42435 0.36315 0.0
C2896 C 0.82696 0.63713 0.57665 0.0
C2897 C 0.84237 0.64451 0.56023 0.0
C2898 C 0.82572 0.65093 0.59713 0.0
C2899 C 0.84005 0.6728 0.60117 0.0
C2900 C 0.85626 0.67984 0.58504 0.0
C2901 C 0.85732 0.66551 0.56478 0.0
C2902 C 0.80841 0.64264 0.61407 0.0
C2903 C 0.87166 0.70318 0.58869 0.0
C2904 C 0.8139 0.72184 0.64007 0.0
C2905 C 0.82581 0.71787 0.66059 0.0
C2906 C 0.81913 0.70802 0.62043 0.0
C2907 C 0.83644 0.68943 0.62134 0.0
C2908 C 0.84907 0.6858 0.64176 0.0
C2909 C 0.84369 0.70017 0.66115 0.0
C2910 C 0.80539 0.7126 0.5989 0.0
C2911 C 0.86759 0.66606 0.64334 0.0
H2912 H 0.81554 0.62075 0.57337 0.0
H2913 H 0.86928 0.67135 0.55218 0.0
H2914 H 0.81718 0.64148 0.6309 0.0
H2915 H 0.79448 0.65676 0.6156 0.0
H2916 H 0.80009 0.62402 0.60925 0.0
H2917 H 0.88486 0.70471 0.57556 0.0
H2918 H 0.86069 0.72017 0.58845 0.0
H2919 H 0.88084 0.70325 0.60541 0.0
H2920 H 0.79974 0.73504 0.63946 0.0
H2921 H 0.8532 0.69721 0.67684 0.0
H2922 H 0.79433 0.69574 0.59398 0.0
H2923 H 0.81742 0.71573 0.58503 0.0
H2924 H 0.79391 0.72914 0.6006 0.0
H2925 H 0.85937 0.64703 0.64052 0.0
H2926 H 0.87702 0.66687 0.65999 0.0
H2927 H 0.88047 0.66841 0.63006 0.0
C2928 C 0.72616 0.59529 0.5136 0.0
C2929 C 0.73928 0.57758 0.52524 0.0
C2930 C 0.70219 0.5914 0.50905 0.0
C2931 C 0.69111 0.5694 0.51647 0.0
C2932 C 0.70375 0.55274 0.5301 0.0
C2933 C 0.72778 0.55703 0.53432 0.0
C2934 C 0.68921 0.60976 0.49474 0.0
C2935 C 0.69233 0.52932 0.53872 0.0
C2936 C 0.62565 0.55772 0.51262 0.0
C2937 C 0.6236 0.54063 0.49404 0.0
C2938 C 0.64742 0.56843 0.51958 0.0
C2939 C 0.66741 0.56188 0.50754 0.0
C2940 C 0.66507 0.54617 0.48775 0.0
C2941 C 0.64315 0.53561 0.48129 0.0
C2942 C 0.64922 0.58514 0.54072 0.0
C2943 C 0.68596 0.53913 0.47422 0.0
H2944 H 0.73486 0.61151 0.50685 0.0
H2945 H 0.73774 0.54345 0.54356 0.0
H2946 H 0.68604 0.60122 0.47756 0.0
H2947 H 0.67193 0.61394 0.50169 0.0
H2948 H 0.69921 0.62776 0.4934 0.0
H2949 H 0.70373 0.52006 0.55126 0.0
H2950 H 0.67557 0.53395 0.54656 0.0
H2951 H 0.68831 0.51564 0.52445 0.0
H2952 H 0.61054 0.56132 0.52267 0.0
H2953 H 0.64145 0.52241 0.4669 0.0
H2954 H 0.66105 0.6016 0.53857 0.0
H2955 H 0.6567 0.5743 0.5547 0.0
H2956 H 0.63188 0.59204 0.54567 0.0
H2957 H 0.6961 0.55629 0.47018 0.0
H2958 H 0.68084 0.52856 0.45826 0.0
H2959 H 0.69771 0.52722 0.48428 0.0
C2960 C 0.19573 0.93437 0.54912 0.0
C2961 C 0.2008 0.91505 0.53331 0.0
C2962 C 0.17354 0.94497 0.54961 0.0
C2963 C 0.15579 0.93591 0.53408 0.0
C2964 C 0.16059 0.91615 0.51828 0.0
C2965 C 0.1831 0.90603 0.518 0.0
C2966 C 0.16922 0.96617 0.56657 0.0
C2967 C 0.14198 0.90584 0.50161 0.0
C2968 C 0.09302 0.94955 0.54846 0.0
C2969 C 0.08798 0.96978 0.53478 0.0
C2970 C 0.11493 0.93818 0.54824 0.0
C2971 C 0.13233 0.94748 0.53423 0.0
C2972 C 0.12753 0.96826 0.52076 0.0
C2973 C 0.10537 0.97906 0.5211 0.0
C2974 C 0.11935 0.91596 0.56273 0.0
C2975 C 0.14576 0.97899 0.50589 0.0
H2976 H 0.20926 0.94158 0.561 0.0
H2977 H 0.18684 0.8911 0.50578 0.0
H2978 H 0.16401 0.98329 0.55773 0.0
H2979 H 0.1546 0.96092 0.57732 0.0
H2980 H 0.18487 0.97095 0.57759 0.0
H2981 H 0.14828 0.88994 0.4909 0.0
H2982 H 0.12652 0.89923 0.51063 0.0
H2983 H 0.13608 0.92097 0.49057 0.0
H2984 H 0.0796 0.94211 0.55891 0.0
H2985 H 0.10161 -0.00532 0.51046 0.0
H2986 H 0.13437 0.92027 0.57464 0.0
H2987 H 0.12403 0.89934 0.55204 0.0
H2988 H 0.10391 0.91085 0.57251 0.0
H2989 H 0.16158 0.98504 0.51617 0.0
H2990 H 0.13934 -0.00461 0.49664 0.0
H2991 H 0.15115 0.96428 0.49347 0.0
C2992 C 0.33778 0.95973 0.79324 0.0
C2993 C 0.3474 0.96672 0.77294 0.0
C2994 C 0.32535 0.93689 0.79474 0.0
C2995 C 0.32202 0.92071 0.7754 0.0
C2996 C 0.33061 0.92814 0.75458 0.0
C2997 C 0.34337 0.95099 0.75362 0.0
C2998 C 0.3167 0.92958 0.81731 0.0
C2999 C 0.32697 0.91156 0.73349 0.0
C3000 C 0.31383 0.85073 0.78461 0.0
C3001 C 0.28947 0.84763 0.78259 0.0
C3002 C 0.32462 0.87441 0.7823 0.0
C3003 C 0.31074 0.89542 0.7774 0.0
C3004 C 0.28613 0.89239 0.77525 0.0
C3005 C 0.27577 0.86858 0.7781 0.0
C3006 C 0.35089 0.87697 0.78518 0.0
C3007 C 0.27079 0.91423 0.76968 0.0
H3008 H 0.34073 0.97164 0.80833 0.0
H3009 H 0.35062 0.95622 0.73786 0.0
H3010 H 0.29773 0.92489 0.81603 0.0
H3011 H 0.32576 0.91246 0.82275 0.0
H3012 H 0.31978 0.94479 0.83052 0.0
H3013 H 0.33277 0.92105 0.71829 0.0
H3014 H 0.33692 0.89399 0.73519 0.0
H3015 H 0.30824 0.90601 0.73099 0.0
H3016 H 0.3245 0.83459 0.78803 0.0
H3017 H 0.25695 0.86622 0.77617 0.0
H3018 H 0.35561 0.89109 0.79893 0.0
H3019 H 0.35837 0.88388 0.76958 0.0
H3020 H 0.35913 0.85884 0.78913 0.0
H3021 H 0.27297 0.92941 0.78299 0.0
H3022 H 0.252 0.9086 0.768 0.0
H3023 H 0.27612 0.9223 0.7537 0.0
C3024 C 0.35881 -7e-05 0.01296 0.0
C3025 C 0.35226 0.0239 0.00636 0.0
C3026 C 0.3821 -0.00469 0.01937 0.0
C3027 C 0.399 0.01511 0.01895 0.0
C3028 C 0.39186 0.0399 0.0149 0.0
C3029 C 0.3685 0.04399 0.00878 0.0
C3030 C 0.38898 0.96879 0.02441 0.0
C3031 C 0.40927 0.06163 0.01453 0.0
C3032 C 0.46309 0.00918 0.03579 0.0
C3033 C 0.47263 0.0036 0.01484 0.0
C3034 C 0.43889 0.0117 0.03774 0.0
C3035 C 0.42416 0.00934 0.01816 0.0
C3036 C 0.43374 0.00332 -0.00296 0.0
C3037 C 0.45784 0.00025 -0.0043 0.0
C3038 C 0.42923 0.01746 0.0606 0.0
C3039 C 0.41866 0.00097 0.97567 0.0
H3040 H 0.34622 0.98436 0.01148 0.0
H3041 H 0.36339 0.06272 0.00457 0.0
H3042 H 0.39686 0.95988 0.00938 0.0
H3043 H 0.40224 0.96886 0.03846 0.0
H3044 H 0.37365 0.95704 0.02878 0.0
H3045 H 0.40056 0.08013 0.0142 0.0
H3046 H 0.42147 0.06174 0.02941 0.0
H3047 H 0.41984 0.05948 -0.00067 0.0
H3048 H 0.47453 0.01144 0.05067 0.0
H3049 H 0.46519 -0.00407 0.97949 0.0
H3050 H 0.41294 0.00631 0.06287 0.0
H3051 H 0.42483 0.03769 0.06212 0.0
H3052 H 0.44203 0.01348 0.07439 0.0
H3053 H 0.40466 0.98648 0.97729 0.0
H3054 H 0.42885 -0.00426 0.96071 0.0
H3055 H 0.41008 0.01914 0.97269 0.0
C3056 C 0.68319 0.58349 0.74681 0.0
C3057 C 0.69201 0.56954 0.76462 0.0
C3058 C 0.69126 0.60828 0.74386 0.0
C3059 C 0.70862 0.61921 0.75898 0.0
C3060 C 0.71814 0.60491 0.77646 0.0
C3061 C 0.70971 0.5803 0.77908 0.0
C3062 C 0.68076 0.62301 0.72499 0.0
C3063 C 0.73682 0.61583 0.79282 0.0
C3064 C 0.74452 0.67658 0.74419 0.0
C3065 C 0.73387 0.69591 0.75665 0.0
C3066 C 0.73607 0.65162 0.74426 0.0
C3067 C 0.71648 0.64584 0.75708 0.0
C3068 C 0.70533 0.66533 0.76931 0.0
C3069 C 0.71418 0.69015 0.76897 0.0
C3070 C 0.74842 0.63134 0.73103 0.0
C3071 C 0.68436 0.65987 0.78314 0.0
H3072 H 0.66947 0.57536 0.7356 0.0
H3073 H 0.71679 0.56962 0.79278 0.0
H3074 H 0.67139 0.63943 0.73207 0.0
H3075 H 0.69475 0.63052 0.71453 0.0
H3076 H 0.6683 0.61139 0.714 0.0
H3077 H 0.74303 0.60187 0.80495 0.0
H3078 H 0.752 0.62274 0.78357 0.0
H3079 H 0.7299 0.63223 0.80241 0.0
H3080 H 0.75968 0.68088 0.73451 0.0
H3081 H 0.70576 0.705 0.7785 0.0
H3082 H 0.73577 0.62057 0.71962 0.0
H3083 H 0.7562 0.6178 0.74271 0.0
H3084 H 0.76254 0.63918 0.72086 0.0
H3085 H 0.67052 0.64978 0.77257 0.0
H3086 H 0.67694 0.6773 0.79068 0.0
H3087 H 0.68939 0.64735 0.7969 0.0
C3088 C 0.83479 0.46085 0.02218 0.0
C3089 C 0.83453 0.44712 0.04181 0.0
C3090 C 0.85558 0.47195 0.01507 0.0
C3091 C 0.87652 0.46955 0.02805 0.0
C3092 C 0.87636 0.45582 0.04797 0.0
C3093 C 0.85537 0.44464 0.05453 0.0
C3094 C 0.85516 0.48614 -0.0064 0.0
C3095 C 0.89833 0.45305 0.0624 0.0
C3096 C 0.93601 0.4769 0.00279 0.0
C3097 C 0.94312 0.50108 0.01107 0.0
C3098 C 0.91397 0.46679 0.00743 0.0
C3099 C 0.89872 0.48115 0.02078 0.0
C3100 C 0.90532 0.50604 0.02824 0.0
C3101 C 0.92741 0.51579 0.02317 0.0
C3102 C 0.90749 0.44027 -0.00103 0.0
C3103 C 0.88962 0.52184 0.04271 0.0
H3104 H 0.81876 0.46276 0.01223 0.0
H3105 H 0.85525 0.4342 0.06979 0.0
H3106 H 0.86116 0.50595 -0.00285 0.0
H3107 H 0.86741 0.47754 0.98161 0.0
H3108 H 0.83745 0.48618 0.98536 0.0
H3109 H 0.89519 0.44207 0.07753 0.0
H3110 H 0.91185 0.44348 0.05248 0.0
H3111 H 0.90556 0.47193 0.06795 0.0
H3112 H 0.94806 0.46542 -0.00658 0.0
H3113 H 0.93286 0.53439 0.02981 0.0
H3114 H 0.8901 0.43986 0.99012 0.0
H3115 H 0.90626 0.4278 0.0134 0.0
H3116 H 0.9205 0.43239 0.98734 0.0
H3117 H 0.87179 0.52232 0.03486 0.0
H3118 H 0.89642 0.54151 0.04553 0.0
H3119 H 0.88806 0.51326 0.05929 0.0
C3120 C 0.35166 0.09113 0.72942 0.0
C3121 C 0.359 0.0892 0.75202 0.0
C3122 C 0.33993 0.11252 0.72219 0.0
C3123 C 0.33586 0.13259 0.73785 0.0
C3124 C 0.34341 0.13081 0.76063 0.0
C3125 C 0.35467 0.10907 0.76746 0.0
C3126 C 0.33175 0.1136 0.69788 0.0
C3127 C 0.33969 0.15196 0.77783 0.0
C3128 C 0.32473 0.19998 0.72258 0.0
C3129 C 0.30125 0.20214 0.72806 0.0
C3130 C 0.33601 0.17683 0.72413 0.0
C3131 C 0.32329 0.1554 0.73086 0.0
C3132 C 0.299 0.15703 0.73413 0.0
C3133 C 0.28833 0.18048 0.73297 0.0
C3134 C 0.36199 0.176 0.72078 0.0
C3135 C 0.28468 0.13454 0.74083 0.0
H3136 H 0.35489 0.07582 0.71741 0.0
H3137 H 0.36048 0.10786 0.78489 0.0
H3138 H 0.31252 0.11574 0.6968 0.0
H3139 H 0.33968 0.1303 0.69024 0.0
H3140 H 0.33629 0.09643 0.6878 0.0
H3141 H 0.34737 0.14798 0.79468 0.0
H3142 H 0.34764 0.16978 0.77225 0.0
H3143 H 0.32072 0.15506 0.77948 0.0
H3144 H 0.33481 0.2168 0.71909 0.0
H3145 H 0.27014 0.18218 0.7372 0.0
H3146 H 0.36653 0.15878 0.71086 0.0
H3147 H 0.37129 0.17542 0.73742 0.0
H3148 H 0.36849 0.19279 0.71215 0.0
H3149 H 0.28895 0.11745 0.73057 0.0
H3150 H 0.26561 0.13777 0.73895 0.0
H3151 H 0.28884 0.13072 0.7587 0.0
C3152 C 0.21675 0.93441 0.24828 0.0
C3153 C 0.20817 0.93926 0.26972 0.0
C3154 C 0.22923 0.91239 0.24355 0.0
C3155 C 0.23208 0.89447 0.26038 0.0
C3156 C 0.22339 0.89944 0.28205 0.0
C3157 C 0.21197 0.92203 0.28656 0.0
C3158 C 0.23914 0.90817 0.22059 0.0
C3159 C 0.22531 0.8805 0.30026 0.0
C3160 C 0.23752 0.82483 0.24648 0.0
C3161 C 0.2601 0.82055 0.25504 0.0
C3162 C 0.22851 0.84917 0.24692 0.0
C3163 C 0.24282 0.86976 0.25532 0.0
C3164 C 0.26638 0.86574 0.26204 0.0
C3165 C 0.2746 0.84102 0.26235 0.0
C3166 C 0.20306 0.85244 0.24037 0.0
C3167 C 0.28247 0.88733 0.27019 0.0
H3168 H 0.21387 0.9479 0.23533 0.0
H3169 H 0.20508 0.92574 0.30307 0.0
H3170 H 0.25776 0.90288 0.22222 0.0
H3171 H 0.22958 0.89235 0.21137 0.0
H3172 H 0.23787 0.92518 0.21038 0.0
H3173 H 0.21705 0.88706 0.31599 0.0
H3174 H 0.2168 0.86235 0.2943 0.0
H3175 H 0.24393 0.87671 0.30426 0.0
H3176 H 0.22625 0.80891 0.24102 0.0
H3177 H 0.29215 0.83764 0.26882 0.0
H3178 H 0.201 0.86799 0.22865 0.0
H3179 H 0.19329 0.85754 0.25562 0.0
H3180 H 0.19495 0.83499 0.23231 0.0
H3181 H 0.28026 0.90371 0.25938 0.0
H3182 H 0.30109 0.88185 0.27039 0.0
H3183 H 0.27809 0.89348 0.28753 0.0
C3184 C 0.49657 0.32705 0.38979 0.0
C3185 C 0.47211 0.32855 0.39045 0.0
C3186 C 0.51122 0.3422 0.40431 0.0
C3187 C 0.50116 0.35952 0.41959 0.0
C3188 C 0.47668 0.363 0.4187 0.0
C3189 C 0.46242 0.34747 0.4041 0.0
C3190 C 0.53716 0.33769 0.40458 0.0
C3191 C 0.46528 0.38161 0.4345 0.0
C3192 C 0.52562 0.37782 0.47782 0.0
C3193 C 0.53424 0.40222 0.47462 0.0
C3194 C 0.51674 0.36265 0.45952 0.0
C3195 C 0.51569 0.3726 0.43779 0.0
C3196 C 0.52609 0.39639 0.43424 0.0
C3197 C 0.5357 0.41073 0.45267 0.0
C3198 C 0.50689 0.33673 0.46369 0.0
C3199 C 0.5251 0.40768 0.41137 0.0
H3200 H 0.50436 0.31268 0.37916 0.0
H3201 H 0.44359 0.34895 0.40466 0.0
H3202 H 0.54763 0.35473 0.41018 0.0
H3203 H 0.54117 0.3226 0.4164 0.0
H3204 H 0.54276 0.33129 0.38765 0.0
H3205 H 0.46496 0.37393 0.45154 0.0
H3206 H 0.4753 0.39976 0.43594 0.0
H3207 H 0.44701 0.38526 0.42892 0.0
H3208 H 0.52454 0.37119 0.49475 0.0
H3209 H 0.5422 0.42967 0.45007 0.0
H3210 H 0.51279 0.3228 0.45079 0.0
H3211 H 0.48752 0.33696 0.46239 0.0
H3212 H 0.5122 0.33035 0.48063 0.0
H3213 H 0.53167 0.3942 0.39847 0.0
H3214 H 0.53544 0.42559 0.41107 0.0
H3215 H 0.50666 0.41151 0.40655 0.0
C3216 C 0.44931 0.72942 0.20528 0.0
C3217 C 0.4531 0.74661 0.18841 0.0
C3218 C 0.42779 0.72825 0.21614 0.0
C3219 C 0.40978 0.74507 0.21042 0.0
C3220 C 0.41356 0.76239 0.19336 0.0
C3221 C 0.43497 0.76275 0.18245 0.0
C3222 C 0.42435 0.70904 0.23378 0.0
C3223 C 0.39512 0.78098 0.18692 0.0
C3224 C 0.34586 0.73131 0.22289 0.0
C3225 C 0.34285 0.74598 0.24272 0.0
C3226 C 0.36765 0.73022 0.21267 0.0
C3227 C 0.38694 0.74463 0.22211 0.0
C3228 C 0.38403 0.75945 0.24217 0.0
C3229 C 0.36214 0.7597 0.25237 0.0
C3230 C 0.36995 0.71373 0.19163 0.0
C3231 C 0.40391 0.77555 0.25258 0.0
H3232 H 0.46317 0.71689 0.21003 0.0
H3233 H 0.43773 0.77629 0.16962 0.0
H3234 H 0.42139 0.71874 0.25025 0.0
H3235 H 0.40858 0.69713 0.22934 0.0
H3236 H 0.43961 0.69663 0.23568 0.0
H3237 H 0.40089 0.79355 0.17362 0.0
H3238 H 0.37889 0.77078 0.18077 0.0
H3239 H 0.39066 0.7928 0.2019 0.0
H3240 H 0.33116 0.72042 0.21539 0.0
H3241 H 0.35999 0.77114 0.26763 0.0
H3242 H 0.38466 0.70068 0.19386 0.0
H3243 H 0.37399 0.72557 0.17729 0.0
H3244 H 0.35377 0.70245 0.18721 0.0
H3245 H 0.41913 0.76368 0.25642 0.0
H3246 H 0.39898 0.78576 0.26831 0.0
H3247 H 0.4096 0.78956 0.24046 0.0
C3248 C 0.9636 0.76251 -0.00554 0.0
C3249 C 0.97907 0.77344 0.97971 0.0
C3250 C 0.97069 0.74281 0.00786 0.0
C3251 C -0.00612 0.7343 0.0067 0.0
C3252 C 0.01048 0.74819 -0.00508 0.0
C3253 C 0.00281 0.76742 0.98117 0.0
C3254 C 0.95256 0.72891 0.02071 0.0
C3255 C 0.03576 0.74081 -0.00525 0.0
C3256 C 0.00584 0.6746 0.03805 0.0
C3257 C 0.00121 0.65615 0.0208 0.0
C3258 C 0.00489 0.7004 0.03366 0.0
C3259 C -0.00146 0.70771 0.0117 0.0
C3260 C -0.00528 0.68911 -0.00586 0.0
C3261 C -0.00342 0.66372 -0.00115 0.0
C3262 C 0.00997 0.71952 0.05273 0.0
C3263 C 0.98784 0.69587 0.9704 0.0
H3264 H 0.94534 0.76752 -0.00604 0.0
H3265 H 0.01509 0.77645 0.97044 0.0
H3266 H 0.94795 0.71067 0.01169 0.0
H3267 H 0.95957 0.72471 0.0377 0.0
H3268 H 0.93635 0.73985 0.02249 0.0
H3269 H 0.04721 0.75675 0.99004 0.0
H3270 H 0.0417 0.73439 0.01147 0.0
H3271 H 0.03778 0.72497 0.98227 0.0
H3272 H 0.00967 0.66894 0.05504 0.0
H3273 H -0.00596 0.64967 0.98522 0.0
H3274 H -0.00623 0.72271 0.06203 0.0
H3275 H 0.01625 0.73787 0.04668 0.0
H3276 H 0.02328 0.71245 0.06481 0.0
H3277 H 0.97168 0.70706 0.9704 0.0
H3278 H 0.98467 0.67897 0.95899 0.0
H3279 H 0.00183 0.7076 0.96337 0.0
C3280 C 0.10213 0.26798 0.68461 0.0
C3281 C 0.09388 0.24386 0.67714 0.0
C3282 C 0.12538 0.27216 0.69245 0.0
C3283 C 0.14093 0.25177 0.69279 0.0
C3284 C 0.13291 0.2275 0.68477 0.0
C3285 C 0.1095 0.22383 0.67709 0.0
C3286 C 0.13314 0.2983 0.70094 0.0
C3287 C 0.14895 0.20528 0.68474 0.0
C3288 C 0.20644 0.26668 0.69924 0.0
C3289 C 0.21073 0.26344 0.72229 0.0
C3290 C 0.18388 0.26277 0.68933 0.0
C3291 C 0.16513 0.25558 0.70279 0.0
C3292 C 0.16937 0.25236 0.72606 0.0
C3293 C 0.19205 0.25625 0.73547 0.0
C3294 C 0.18011 0.26631 0.66446 0.0
C3295 C 0.1499 0.24488 0.74108 0.0
H3296 H 0.09029 0.28365 0.68469 0.0
H3297 H 0.1034 0.20515 0.67128 0.0
H3298 H 0.13806 0.29808 0.71912 0.0
H3299 H 0.14886 0.30451 0.6921 0.0
H3300 H 0.11928 0.31238 0.69855 0.0
H3301 H 0.14049 0.188 0.67672 0.0
H3302 H 0.16503 0.20974 0.6757 0.0
H3303 H 0.1544 0.20127 0.70228 0.0
H3304 H 0.22074 0.27215 0.6889 0.0
H3305 H 0.1951 0.25369 0.7533 0.0
H3306 H 0.16714 0.28121 0.66168 0.0
H3307 H 0.17287 0.24865 0.65609 0.0
H3308 H 0.19653 0.27164 0.65626 0.0
H3309 H 0.136 0.25913 0.74063 0.0
H3310 H 0.15609 0.24308 0.75882 0.0
H3311 H 0.14184 0.22661 0.73488 0.0
C3312 C 0.52452 0.6777 0.11195 0.0
C3313 C 0.50256 0.68881 0.10941 0.0
C3314 C 0.52932 0.65446 0.10094 0.0
C3315 C 0.51172 0.64179 0.08716 0.0
C3316 C 0.48957 0.65292 0.08449 0.0
C3317 C 0.4853 0.67624 0.09552 0.0
C3318 C 0.55322 0.64339 0.10413 0.0
C3319 C 0.47021 0.64003 0.07014 0.0
C3320 C 0.52658 0.59111 0.04276 0.0
C3321 C 0.5211 0.5688 0.05353 0.0
C3322 C 0.52429 0.61493 0.05371 0.0
C3323 C 0.51616 0.61662 0.07593 0.0
C3324 C 0.51118 0.59416 0.08707 0.0
C3325 C 0.51379 0.57062 0.07581 0.0
C3326 C 0.53001 0.63835 0.04126 0.0
C3327 C 0.50236 0.59497 0.11069 0.0
H3328 H 0.53805 0.68719 0.12252 0.0
H3329 H 0.46826 0.6845 0.09341 0.0
H3330 H 0.55167 0.62489 0.11203 0.0
H3331 H 0.56113 0.63998 0.08757 0.0
H3332 H 0.56522 0.65588 0.11483 0.0
H3333 H 0.45404 0.65123 0.06959 0.0
H3334 H 0.47601 0.63675 0.0527 0.0
H3335 H 0.46597 0.62133 0.07679 0.0
H3336 H 0.53226 0.58999 0.02558 0.0
H3337 H 0.50946 0.55358 0.08435 0.0
H3338 H 0.54255 0.65069 0.05147 0.0
H3339 H 0.51391 0.64925 0.03848 0.0
H3340 H 0.53762 0.63389 0.0247 0.0
H3341 H 0.51455 0.60632 0.12213 0.0
H3342 H 0.50029 0.57587 0.1174 0.0
H3343 H 0.48518 0.60428 0.11091 0.0
C3344 C 0.05596 0.81459 0.88254 0.0
C3345 C 0.03609 0.82509 0.87258 0.0
C3346 C 0.07728 0.8145 0.87164 0.0
C3347 C 0.07859 0.82478 0.85013 0.0
C3348 C 0.05874 0.83597 0.84025 0.0
C3349 C 0.03776 0.83617 0.85169 0.0
C3350 C 0.09824 0.8028 0.88285 0.0
C3351 C 0.05938 0.84678 0.8172 0.0
C3352 C 0.13857 0.83872 0.82784 0.0
C3353 C 0.1426 0.81654 0.81502 0.0
C3354 C 0.11772 0.84181 0.83924 0.0
C3355 C 0.10032 0.82246 0.83742 0.0
C3356 C 0.10387 0.80048 0.82384 0.0
C3357 C 0.12502 0.79769 0.81298 0.0
C3358 C 0.11458 0.86544 0.85369 0.0
C3359 C 0.08554 0.77958 0.82123 0.0
H3360 H 0.05479 0.80617 0.89876 0.0
H3361 H 0.02244 0.84425 0.84385 0.0
H3362 H 0.1032 0.78571 0.87295 0.0
H3363 H 0.11343 0.81615 0.88337 0.0
H3364 H 0.09481 0.79739 0.90028 0.0
H3365 H 0.04282 0.85609 0.81245 0.0
H3366 H 0.074 0.86072 0.81653 0.0
H3367 H 0.06251 0.83149 0.80447 0.0
H3368 H 0.15187 0.85357 0.82923 0.0
H3369 H 0.12805 0.78028 0.80348 0.0
H3370 H 0.11266 0.86044 0.87146 0.0
H3371 H 0.09836 0.87496 0.84836 0.0
H3372 H 0.12955 0.87898 0.85288 0.0
H3373 H 0.08297 0.7711 0.83771 0.0
H3374 H 0.09042 0.76444 0.80895 0.0
H3375 H 0.06854 0.78726 0.81561 0.0
C3376 C 0.00076 0.3237 0.58692 0.0
C3377 C 0.01699 0.31025 0.5997 0.0
C3378 C 0.00775 0.34449 0.5747 0.0
C3379 C 0.03165 0.35192 0.57488 0.0
C3380 C 0.04829 0.33779 0.58691 0.0
C3381 C 0.04076 0.31727 0.5993 0.0
C3382 C 0.98935 0.35913 0.56233 0.0
C3383 C 0.07398 0.34478 0.5872 0.0
C3384 C 0.04834 0.397 0.52948 0.0
C3385 C 0.04826 0.42046 0.54125 0.0
C3386 C 0.0439 0.37444 0.54038 0.0
C3387 C 0.03886 0.37533 0.56353 0.0
C3388 C 0.03928 0.39892 0.57559 0.0
C3389 C 0.04414 0.42112 0.56437 0.0
C3390 C 0.04404 0.34968 0.52699 0.0
C3391 C 0.03374 0.40084 0.6002 0.0
H3392 H 0.98235 0.31861 0.5871 0.0
H3393 H 0.05349 0.307 0.609 0.0
H3394 H 0.98892 0.37865 0.56971 0.0
H3395 H -0.00628 0.3605 0.54442 0.0
H3396 H 0.97163 0.35038 0.56313 0.0
H3397 H 0.08489 0.33062 0.59559 0.0
H3398 H 0.07987 0.34668 0.56978 0.0
H3399 H 0.07703 0.36332 0.59621 0.0
H3400 H 0.05161 0.39627 0.51165 0.0
H3401 H 0.04396 0.43912 0.57363 0.0
H3402 H 0.02613 0.34127 0.52571 0.0
H3403 H 0.05538 0.33614 0.53566 0.0
H3404 H 0.0503 0.35194 0.50972 0.0
H3405 H 0.01551 0.39415 0.6024 0.0
H3406 H 0.03571 0.42045 0.60738 0.0
H3407 H 0.04537 0.38855 0.60998 0.0
C3408 C 0.39676 0.2676 0.32218 0.0
C3409 C 0.41574 0.25158 0.3205 0.0
C3410 C 0.37893 0.2669 0.30542 0.0
C3411 C 0.37981 0.24906 0.28713 0.0
C3412 C 0.39939 0.23345 0.28501 0.0
C3413 C 0.41737 0.23521 0.3016 0.0
C3414 C 0.35871 0.28454 0.30774 0.0
C3415 C 0.40067 0.21384 0.26602 0.0
C3416 C 0.31961 0.22868 0.26466 0.0
C3417 C 0.3177 0.24223 0.2451 0.0
C3418 C 0.3404 0.2295 0.27776 0.0
C3419 C 0.35923 0.24517 0.27154 0.0
C3420 C 0.35758 0.2583 0.25135 0.0
C3421 C 0.33684 0.25631 0.23811 0.0
C3422 C 0.34181 0.21455 0.29878 0.0
C3423 C 0.37692 0.27586 0.24457 0.0
H3424 H 0.39573 0.28047 0.33669 0.0
H3425 H 0.43205 0.22269 0.30045 0.0
H3426 H 0.35515 0.29393 0.2917 0.0
H3427 H 0.34271 0.27365 0.31159 0.0
H3428 H 0.36207 0.29925 0.32135 0.0
H3429 H 0.41789 0.20458 0.26583 0.0
H3430 H 0.38685 0.19916 0.26777 0.0
H3431 H 0.3974 0.22245 0.24957 0.0
H3432 H 0.30461 0.21795 0.27 0.0
H3433 H 0.33504 0.26715 0.22313 0.0
H3434 H 0.34197 0.22758 0.31383 0.0
H3435 H 0.35825 0.20387 0.29948 0.0
H3436 H 0.3268 0.20108 0.29972 0.0
H3437 H 0.37727 0.2931 0.25579 0.0
H3438 H 0.3744 0.28159 0.22693 0.0
H3439 H 0.39421 0.267 0.24648 0.0
C3440 C 0.40179 0.4811 0.38055 0.0
C3441 C 0.41102 0.46811 0.36199 0.0
C3442 C 0.41269 0.48043 0.40198 0.0
C3443 C 0.433 0.46604 0.40494 0.0
C3444 C 0.44114 0.45115 0.38667 0.0
C3445 C 0.43015 0.45251 0.36534 0.0
C3446 C 0.40354 0.49666 0.42099 0.0
C3447 C 0.46226 0.43487 0.38937 0.0
C3448 C 0.48014 0.48808 0.44804 0.0
C3449 C 0.47626 0.47197 0.46564 0.0
C3450 C 0.4657 0.48678 0.4285 0.0
C3451 C 0.44719 0.46861 0.42634 0.0
C3452 C 0.44288 0.45261 0.44424 0.0
C3453 C 0.45733 0.45468 0.46379 0.0
C3454 C 0.47058 0.50452 0.40995 0.0
C3455 C 0.42319 0.43318 0.44276 0.0
H3456 H 0.38698 0.4932 0.37809 0.0
H3457 H 0.43721 0.44223 0.3511 0.0
H3458 H 0.40171 0.48559 0.43623 0.0
H3459 H 0.41621 0.51236 0.42535 0.0
H3460 H 0.38636 0.50481 0.41653 0.0
H3461 H 0.46483 0.42237 0.37427 0.0
H3462 H 0.47815 0.44699 0.39247 0.0
H3463 H 0.46044 0.42304 0.40412 0.0
H3464 H 0.49469 0.50151 0.44941 0.0
H3465 H 0.45425 0.44209 0.47731 0.0
H3466 H 0.45452 0.51473 0.40529 0.0
H3467 H 0.47587 0.49361 0.39474 0.0
H3468 H 0.48467 0.51858 0.41485 0.0
H3469 H 0.42522 0.41892 0.4558 0.0
H3470 H 0.42207 0.42333 0.42595 0.0
H3471 H 0.40636 0.44269 0.44525 0.0
C3472 C 0.2957 0.66048 0.05981 0.0
C3473 C 0.28008 0.64654 0.04523 0.0
C3474 C 0.28889 0.66953 0.081 0.0
C3475 C 0.26582 0.6647 0.08777 0.0
C3476 C 0.24993 0.65064 0.07319 0.0
C3477 C 0.25726 0.64166 0.05212 0.0
C3478 C 0.30642 0.68428 0.09617 0.0
C3479 C 0.22516 0.64522 0.07977 0.0
C3480 C 0.25772 0.67049 0.15074 0.0
C3481 C 0.25035 0.69543 0.15345 0.0
C3482 C 0.26191 0.65985 0.12933 0.0
C3483 C 0.2585 0.67447 0.11017 0.0
C3484 C 0.24988 0.69919 0.1127 0.0
C3485 C 0.24601 0.70942 0.13433 0.0
C3486 C 0.27121 0.63348 0.12736 0.0
C3487 C 0.24573 0.71525 0.09266 0.0
H3488 H 0.31337 0.66429 0.05473 0.0
H3489 H 0.24501 0.63095 0.04099 0.0
H3490 H 0.29988 0.70345 0.1 0.0
H3491 H 0.30871 0.67491 0.11239 0.0
H3492 H 0.32376 0.68612 0.08852 0.0
H3493 H 0.21504 0.63378 0.0666 0.0
H3494 H 0.22521 0.63499 0.09565 0.0
H3495 H 0.21604 0.6632 0.08292 0.0
H3496 H 0.26139 0.65969 0.16547 0.0
H3497 H 0.24011 0.72863 0.13636 0.0
H3498 H 0.2895 0.63427 0.12181 0.0
H3499 H 0.26084 0.62195 0.11448 0.0
H3500 H 0.27092 0.62384 0.14356 0.0
H3501 H 0.26268 0.72001 0.08524 0.0
H3502 H 0.2369 0.73309 0.09723 0.0
H3503 H 0.2349 0.70469 0.07947 0.0
C3504 C 0.11741 0.5305 0.88466 0.0
C3505 C 0.11048 0.53831 0.86331 0.0
C3506 C 0.10284 0.53399 0.90293 0.0
C3507 C 0.08082 0.54521 0.89953 0.0
C3508 C 0.07478 0.55521 0.87856 0.0
C3509 C 0.08978 0.55178 0.8607 0.0
C3510 C 0.11018 0.52376 0.92533 0.0
C3511 C 0.05156 0.56748 0.87437 0.0
C3512 C 0.03427 0.51707 0.93485 0.0
C3513 C 0.03301 0.53536 0.95231 0.0
C3514 C 0.0489 0.52075 0.91689 0.0
C3515 C 0.06292 0.54304 0.91674 0.0
C3516 C 0.06073 0.56221 0.93368 0.0
C3517 C 0.04554 0.55823 0.95121 0.0
C3518 C 0.05036 0.50012 0.89879 0.0
C3519 C 0.07568 0.586 0.9343 0.0
H3520 H 0.13352 0.52037 0.88685 0.0
H3521 H 0.08446 0.55824 0.8443 0.0
H3522 H 0.10557 0.53689 0.93937 0.0
H3523 H 0.10076 0.50559 0.92752 0.0
H3524 H 0.12926 0.52039 0.92653 0.0
H3525 H 0.05101 0.57757 0.85838 0.0
H3526 H 0.03744 0.5528 0.87346 0.0
H3527 H 0.04774 0.58102 0.88837 0.0
H3528 H 0.02459 0.49938 0.93577 0.0
H3529 H 0.04489 0.57224 0.96494 0.0
H3530 H 0.06783 0.49149 0.89983 0.0
H3531 H 0.04824 0.50804 0.8819 0.0
H3532 H 0.03685 0.48503 0.90036 0.0
H3533 H 0.09379 0.58155 0.93981 0.0
H3534 H 0.0691 0.60068 0.94616 0.0
H3535 H 0.07649 0.59384 0.91735 0.0
C3536 C 0.25246 0.40445 0.56152 0.0
C3537 C 0.23372 0.39019 0.55149 0.0
C3538 C 0.26379 0.39695 0.58135 0.0
C3539 C 0.25567 0.37508 0.59172 0.0
C3540 C 0.23588 0.36145 0.58235 0.0
C3541 C 0.22536 0.36899 0.56218 0.0
C3542 C 0.28513 0.41166 0.59049 0.0
C3543 C 0.22631 0.33838 0.59321 0.0
C3544 C 0.29434 0.3351 0.62819 0.0
C3545 C 0.28719 0.34221 0.64975 0.0
C3546 C 0.28526 0.34682 0.60917 0.0
C3547 C 0.26827 0.36564 0.61182 0.0
C3548 C 0.26182 0.37366 0.63365 0.0
C3549 C 0.27151 0.36196 0.65239 0.0
C3550 C 0.29303 0.33826 0.58617 0.0
C3551 C 0.24356 0.39343 0.63715 0.0
H3552 H 0.25907 0.42071 0.5533 0.0
H3553 H 0.21085 0.35797 0.55443 0.0
H3554 H 0.28386 0.41594 0.60879 0.0
H3555 H 0.30086 0.40009 0.58818 0.0
H3556 H 0.28769 0.42963 0.58187 0.0
H3557 H 0.20976 0.33113 0.58479 0.0
H3558 H 0.23932 0.32319 0.59253 0.0
H3559 H 0.22308 0.34276 0.6112 0.0
H3560 H 0.30653 0.31988 0.6262 0.0
H3561 H 0.26573 0.36722 0.66905 0.0
H3562 H 0.29875 0.35474 0.5767 0.0
H3563 H 0.27817 0.32895 0.57642 0.0
H3564 H 0.30759 0.32479 0.58713 0.0
H3565 H 0.24769 0.41037 0.62762 0.0
H3566 H 0.24209 0.39921 0.65517 0.0
H3567 H 0.2263 0.38586 0.63064 0.0
C3568 C 0.41906 0.48459 0.22112 0.0
C3569 C 0.42999 0.47303 0.23931 0.0
C3570 C 0.42793 0.48213 0.19949 0.0
C3571 C 0.44844 0.46821 0.19615 0.0
C3572 C 0.45951 0.45648 0.21445 0.0
C3573 C 0.45002 0.45885 0.23579 0.0
C3574 C 0.41546 0.49456 0.18026 0.0
C3575 C 0.48166 0.4419 0.21161 0.0
C3576 C 0.46304 0.44601 0.13692 0.0
C3577 C 0.47862 0.46513 0.13089 0.0
C3578 C 0.45297 0.44678 0.1581 0.0
C3579 C 0.45894 0.4669 0.17371 0.0
C3580 C 0.47494 0.48598 0.1679 0.0
C3581 C 0.48436 0.48502 0.14652 0.0
C3582 C 0.43575 0.42624 0.16368 0.0
C3583 C 0.48194 0.50761 0.1842 0.0
H3584 H 0.40343 0.49535 0.22374 0.0
H3585 H 0.45856 0.44994 0.24983 0.0
H3586 H 0.42704 0.50918 0.17345 0.0
H3587 H 0.41119 0.48044 0.16639 0.0
H3588 H 0.39904 0.50356 0.18545 0.0
H3589 H 0.48781 0.43346 0.22746 0.0
H3590 H 0.47881 0.42659 0.1985 0.0
H3591 H 0.49569 0.45457 0.20586 0.0
H3592 H 0.45865 0.43045 0.12509 0.0
H3593 H 0.49586 0.50027 0.14191 0.0
H3594 H 0.41875 0.43462 0.16781 0.0
H3595 H 0.44215 0.41648 0.17874 0.0
H3596 H 0.43278 0.41204 0.14959 0.0
H3597 H 0.4664 0.51885 0.18824 0.0
H3598 H 0.49536 0.52034 0.17741 0.0
H3599 H 0.48895 0.50026 0.2002 0.0
C3600 C 0.2826 0.70143 0.94278 0.0
C3601 C 0.2719 0.6774 0.9407 0.0
C3602 C 0.27932 0.71903 0.92605 0.0
C3603 C 0.26546 0.71218 0.90653 0.0
C3604 C 0.25334 0.68858 0.90505 0.0
C3605 C 0.25652 0.67155 0.92231 0.0
C3606 C 0.29202 0.74424 0.92858 0.0
C3607 C 0.2386 0.68042 0.88441 0.0
C3608 C 0.24941 0.75902 0.86198 0.0
C3609 C 0.26657 0.75434 0.84615 0.0
C3610 C 0.24924 0.74616 0.88218 0.0
C3611 C 0.26638 0.72792 0.88641 0.0
C3612 C 0.28419 0.72383 0.87086 0.0
C3613 C 0.28419 0.73723 0.85108 0.0
C3614 C 0.23029 0.75145 0.89859 0.0
C3615 C 0.30274 0.70443 0.8746 0.0
H3616 H 0.29432 0.70615 0.95711 0.0
H3617 H 0.24828 0.65297 0.92056 0.0
H3618 H 0.30707 0.74433 0.91735 0.0
H3619 H 0.28035 0.75962 0.92356 0.0
H3620 H 0.29872 0.74834 0.94612 0.0
H3621 H 0.22818 0.66295 0.88697 0.0
H3622 H 0.22653 0.69551 0.87961 0.0
H3623 H 0.25015 0.67684 0.87009 0.0
H3624 H 0.23573 0.77222 0.85832 0.0
H3625 H 0.29751 0.73341 0.83897 0.0
H3626 H 0.23795 0.75463 0.91588 0.0
H3627 H 0.2182 0.73487 0.89882 0.0
H3628 H 0.21999 0.76815 0.89414 0.0
H3629 H 0.31231 0.70856 0.89089 0.0
H3630 H 0.31558 0.70383 0.86105 0.0
H3631 H 0.29439 0.68545 0.87541 0.0
C3632 C 0.08964 0.5357 0.73371 0.0
C3633 C 0.11148 0.52703 0.74099 0.0
C3634 C 0.08446 0.53873 0.71087 0.0
C3635 C 0.10159 0.53308 0.695 0.0
C3636 C 0.124 0.52537 0.70229 0.0
C3637 C 0.12867 0.52232 0.72526 0.0
C3638 C 0.06028 0.54681 0.70364 0.0
C3639 C 0.14271 0.51934 0.68577 0.0
C3640 C 0.07834 0.50906 0.63795 0.0
C3641 C 0.08013 0.53063 0.62525 0.0
C3642 C 0.08556 0.50963 0.66059 0.0
C3643 C 0.09504 0.53228 0.67074 0.0
C3644 C 0.09745 0.55402 0.65795 0.0
C3645 C 0.08993 0.55294 0.63523 0.0
C3646 C 0.08274 0.48603 0.6737 0.0
C3647 C 0.10763 0.57841 0.66834 0.0
H3648 H 0.07633 0.53953 0.74581 0.0
H3649 H 0.14568 0.51592 0.73084 0.0
H3650 H 0.0614 0.56267 0.69215 0.0
H3651 H 0.05094 0.53093 0.69425 0.0
H3652 H 0.04973 0.5527 0.71818 0.0
H3653 H 0.15995 0.51642 0.6943 0.0
H3654 H 0.13763 0.50193 0.67568 0.0
H3655 H 0.14457 0.53475 0.67388 0.0
H3656 H 0.07138 0.49157 0.63011 0.0
H3657 H 0.09137 0.56959 0.62538 0.0
H3658 H 0.07106 0.48966 0.6879 0.0
H3659 H 0.0999 0.48054 0.68097 0.0
H3660 H 0.07529 0.46988 0.66313 0.0
H3661 H 0.09633 0.5855 0.68186 0.0
H3662 H 0.10937 0.59322 0.65581 0.0
H3663 H 0.1251 0.57519 0.67622 0.0
C3664 C 0.23538 0.37311 0.42444 0.0
C3665 C 0.23347 0.35649 0.44203 0.0
C3666 C 0.23217 0.36448 0.40194 0.0
C3667 C 0.22652 0.33872 0.397 0.0
C3668 C 0.22297 0.32226 0.41473 0.0
C3669 C 0.22671 0.33129 0.43705 0.0
C3670 C 0.2364 0.38254 0.38349 0.0
C3671 C 0.21648 0.29478 0.41012 0.0
C3672 C 0.20788 0.31756 0.33713 0.0
C3673 C 0.22868 0.30754 0.32934 0.0
C3674 C 0.20678 0.32776 0.35921 0.0
C3675 C 0.22711 0.32835 0.37349 0.0
C3676 C 0.24825 0.31867 0.36546 0.0
C3677 C 0.24871 0.3082 0.34353 0.0
C3678 C 0.18388 0.33756 0.36736 0.0
C3679 C 0.27042 0.31935 0.38002 0.0
H3680 H 0.24065 0.39261 0.42817 0.0
H3681 H 0.22492 0.31843 0.45059 0.0
H3682 H 0.25272 0.37752 0.37502 0.0
H3683 H 0.22196 0.38109 0.37057 0.0
H3684 H 0.23812 0.40241 0.39004 0.0
H3685 H 0.21137 0.28536 0.42558 0.0
H3686 H 0.20182 0.29274 0.39744 0.0
H3687 H 0.2316 0.2848 0.40309 0.0
H3688 H 0.19239 0.31694 0.3261 0.0
H3689 H 0.26488 0.30075 0.33734 0.0
H3690 H 0.186 0.35762 0.37316 0.0
H3691 H 0.17839 0.32686 0.38197 0.0
H3692 H 0.16975 0.33596 0.35407 0.0
H3693 H 0.27471 0.339 0.38609 0.0
H3694 H 0.28557 0.31183 0.37092 0.0
H3695 H 0.26789 0.30805 0.39505 0.0
C3696 C 0.31959 0.35674 0.51957 0.0
C3697 C 0.31771 0.37476 0.50302 0.0
C3698 C 0.34153 0.35073 0.52894 0.0
C3699 C 0.36167 0.36387 0.52222 0.0
C3700 C 0.36003 0.37984 0.50373 0.0
C3701 C 0.33805 0.38468 0.49408 0.0
C3702 C 0.34289 0.33187 0.54718 0.0
C3703 C 0.38109 0.3941 0.4957 0.0
C3704 C 0.40704 0.39378 0.56179 0.0
C3705 C 0.42727 0.38471 0.55198 0.0
C3706 C 0.38493 0.38482 0.55409 0.0
C3707 C 0.38321 0.36555 0.53687 0.0
C3708 C 0.40357 0.35306 0.53021 0.0
C3709 C 0.42553 0.3631 0.53756 0.0
C3710 C 0.36368 0.39858 0.56202 0.0
C3711 C 0.40244 0.33108 0.51333 0.0
H3712 H 0.3039 0.3485 0.52618 0.0
H3713 H 0.33673 0.39823 0.48099 0.0
H3714 H 0.3593 0.32116 0.54639 0.0
H3715 H 0.34271 0.34184 0.56388 0.0
H3716 H 0.32775 0.31839 0.54583 0.0
H3717 H 0.37683 0.40533 0.48082 0.0
H3718 H 0.38831 0.40714 0.50939 0.0
H3719 H 0.39501 0.38083 0.49116 0.0
H3720 H 0.40841 0.40982 0.57368 0.0
H3721 H 0.44108 0.35549 0.53021 0.0
H3722 H 0.3499 0.38505 0.56675 0.0
H3723 H 0.35634 0.40972 0.54817 0.0
H3724 H 0.36789 0.41165 0.57672 0.0
H3725 H 0.38543 0.3207 0.5134 0.0
H3726 H 0.41674 0.31781 0.51686 0.0
H3727 H 0.40484 0.33802 0.49622 0.0
C3728 C 0.83743 0.04338 0.50295 0.0
C3729 C 0.83608 0.06965 0.50205 0.0
C3730 C 0.85905 0.03177 0.50604 0.0
C3731 C 0.87968 0.04688 0.50894 0.0
C3732 C 0.87826 0.07348 0.50901 0.0
C3733 C 0.85649 0.08453 0.50525 0.0
C3734 C 0.85991 0.00334 0.50539 0.0
C3735 C 0.89978 0.09027 0.5127 0.0
C3736 C 0.93436 0.01832 0.53433 0.0
C3737 C 0.94788 0.0146 0.51534 0.0
C3738 C 0.91206 0.02871 0.53251 0.0
C3739 C 0.90287 0.03491 0.51111 0.0
C3740 C 0.91615 0.03036 0.49178 0.0
C3741 C 0.93864 0.02058 0.49417 0.0
C3742 C 0.89869 0.03384 0.55357 0.0
C3743 C 0.90671 0.03614 0.4686 0.0
H3744 H 0.82167 0.03182 0.5003 0.0
H3745 H 0.85547 0.10484 0.50486 0.0
H3746 H 0.87037 -0.00329 0.49105 0.0
H3747 H 0.86867 -0.00315 0.52095 0.0
H3748 H 0.84222 -0.00567 0.50357 0.0
H3749 H 0.89547 0.11058 0.51388 0.0
H3750 H 0.90942 0.08543 0.52837 0.0
H3751 H 0.91171 0.08719 0.49862 0.0
H3752 H 0.94155 0.01396 0.55077 0.0
H3753 H 0.94903 0.01761 0.47945 0.0
H3754 H 0.88127 0.02428 0.55207 0.0
H3755 H 0.89573 0.05437 0.55578 0.0
H3756 H 0.90808 0.02738 0.56886 0.0
H3757 H 0.88938 0.02672 0.46531 0.0
H3758 H 0.91858 0.02995 0.45518 0.0
H3759 H 0.90419 0.05673 0.46754 0.0
C3760 C 0.69597 0.08172 0.3195 0.0
C3761 C 0.68209 0.06519 0.30546 0.0
C3762 C 0.70262 0.10566 0.31239 0.0
C3763 C 0.69524 0.11316 0.29074 0.0
C3764 C 0.68107 0.09668 0.2766 0.0
C3765 C 0.6747 0.07295 0.2841 0.0
C3766 C 0.71772 0.12287 0.32796 0.0
C3767 C 0.67285 0.10398 0.25341 0.0
C3768 C 0.69786 0.18315 0.2801 0.0
C3769 C 0.71947 0.18548 0.26989 0.0
C3770 C 0.68946 0.1596 0.28655 0.0
C3771 C 0.70295 0.13793 0.28258 0.0
C3772 C 0.72416 0.13998 0.27122 0.0
C3773 C 0.73216 0.16373 0.26501 0.0
C3774 C 0.66667 0.1581 0.29849 0.0
C3775 C 0.73889 0.11723 0.26646 0.0
H3776 H 0.70169 0.07596 0.33602 0.0
H3777 H 0.66397 0.06039 0.27304 0.0
H3778 H 0.73455 0.12702 0.32005 0.0
H3779 H 0.70898 0.14111 0.3309 0.0
H3780 H 0.72146 0.11451 0.34447 0.0
H3781 H 0.66123 0.08929 0.24481 0.0
H3782 H 0.66326 0.12191 0.25452 0.0
H3783 H 0.68812 0.10719 0.24286 0.0
H3784 H 0.68798 0.19987 0.28401 0.0
H3785 H 0.74885 0.16536 0.25709 0.0
H3786 H 0.67004 0.15239 0.31601 0.0
H3787 H 0.65485 0.14353 0.29007 0.0
H3788 H 0.65757 0.17638 0.299 0.0
H3789 H 0.74515 0.10945 0.28255 0.0
H3790 H 0.7543 0.12181 0.25644 0.0
H3791 H 0.72827 0.1022 0.25721 0.0
C3792 C 0.66644 0.88091 0.03923 0.0
C3793 C 0.69053 0.87939 0.03605 0.0
C3794 C 0.6538 0.90157 0.03197 0.0
C3795 C 0.66552 0.92119 0.02114 0.0
C3796 C 0.68977 0.91978 0.01781 0.0
C3797 C 0.7019 0.8989 0.02541 0.0
C3798 C 0.62785 0.9023 0.0358 0.0
C3799 C 0.70293 0.94027 0.00635 0.0
C3800 C 0.62185 0.95772 0.98767 0.0
C3801 C 0.61549 0.97589 0.00397 0.0
C3802 C 0.63997 0.9411 -0.00785 0.0
C3803 C 0.65199 0.94291 0.01335 0.0
C3804 C 0.64773 0.9633 0.02858 0.0
C3805 C 0.6295 0.97965 0.02368 0.0
C3806 C 0.6444 0.91992 0.97523 0.0
C3807 C 0.66058 0.96622 0.05114 0.0
H3808 H 0.65737 0.86594 0.04747 0.0
H3809 H 0.72021 0.89775 0.02279 0.0
H3810 H 0.62379 0.91948 0.04604 0.0
H3811 H 0.61803 0.9032 0.01947 0.0
H3812 H 0.62143 0.88555 0.04454 0.0
H3813 H 0.72107 0.93482 0.00264 0.0
H3814 H 0.69373 0.94492 0.99039 0.0
H3815 H 0.70375 0.95766 0.01734 0.0
H3816 H 0.61137 0.95494 0.97221 0.0
H3817 H 0.62499 -0.00605 0.03622 0.0
H3818 H 0.66339 0.91672 0.97393 0.0
H3819 H 0.63691 0.92377 0.95828 0.0
H3820 H 0.63621 0.90223 0.98084 0.0
H3821 H 0.65365 0.95203 0.06251 0.0
H3822 H 0.65838 0.98526 0.05913 0.0
H3823 H 0.67949 0.96285 0.04947 0.0
C3824 C 0.34611 0.42698 0.25691 0.0
C3825 C 0.34265 0.42577 0.28009 0.0
C3826 C 0.33619 0.40871 0.24153 0.0
C3827 C 0.32295 0.3884 0.24955 0.0
C3828 C 0.31997 0.38667 0.27299 0.0
C3829 C 0.32958 0.40557 0.28795 0.0
C3830 C 0.33941 0.41144 0.21668 0.0
C3831 C 0.30649 0.3649 0.28227 0.0
C3832 C 0.27532 0.35141 0.21626 0.0
C3833 C 0.28651 0.32877 0.21137 0.0
C3834 C 0.28763 0.37196 0.22689 0.0
C3835 C 0.31143 0.36932 0.23355 0.0
C3836 C 0.32319 0.34708 0.22713 0.0
C3837 C 0.31059 0.32714 0.21581 0.0
C3838 C 0.27461 0.39563 0.23276 0.0
C3839 C 0.34836 0.34313 0.23427 0.0
H3840 H 0.35607 0.44265 0.25069 0.0
H3841 H 0.32703 0.40444 0.30584 0.0
H3842 H 0.34731 0.39424 0.20929 0.0
H3843 H 0.32213 0.41351 0.20799 0.0
H3844 H 0.35069 0.42801 0.2132 0.0
H3845 H 0.30695 0.36554 0.30095 0.0
H3846 H 0.28798 0.36516 0.27615 0.0
H3847 H 0.31377 0.34674 0.27622 0.0
H3848 H 0.25658 0.35241 0.21322 0.0
H3849 H 0.31904 0.30932 0.21259 0.0
H3850 H 0.28522 0.41263 0.22917 0.0
H3851 H 0.27123 0.39644 0.251 0.0
H3852 H 0.25758 0.39628 0.2233 0.0
H3853 H 0.35912 0.36053 0.23274 0.0
H3854 H 0.35614 0.32757 0.22419 0.0
H3855 H 0.34921 0.33816 0.25221 0.0
C3856 C 0.19928 0.56646 0.02494 0.0
C3857 C 0.20455 0.57494 0.00364 0.0
C3858 C 0.1765 0.55877 0.02983 0.0
C3859 C 0.15852 0.55944 0.01297 0.0
C3860 C 0.16365 0.56808 -0.00855 0.0
C3861 C 0.18661 0.57583 0.98706 0.0
C3862 C 0.1717 0.54983 0.05301 0.0
C3863 C 0.14492 0.56893 0.97301 0.0
C3864 C 0.10379 0.51841 0.01737 0.0
C3865 C 0.08758 0.53608 0.02482 0.0
C3866 C 0.12705 0.52566 0.01381 0.0
C3867 C 0.1343 0.55115 0.01788 0.0
C3868 C 0.11826 0.56886 0.02622 0.0
C3869 C 0.09511 0.56112 0.02957 0.0
C3870 C 0.14366 0.50622 0.00493 0.0
C3871 C 0.12536 0.59617 0.03091 0.0
H3872 H 0.213 0.56583 0.03791 0.0
H3873 H 0.19054 0.58229 0.97055 0.0
H3874 H 0.1581 0.56154 0.06081 0.0
H3875 H 0.16483 0.53011 0.05178 0.0
H3876 H 0.18758 0.55067 0.0643 0.0
H3877 H 0.15176 0.57598 0.95715 0.0
H3878 H 0.13717 0.54979 0.9695 0.0
H3879 H 0.13062 0.58128 0.97851 0.0
H3880 H 0.09812 0.49906 0.01353 0.0
H3881 H 0.08272 0.57493 0.03531 0.0
H3882 H 0.15969 0.50603 0.01593 0.0
H3883 H 0.1491 0.5112 0.98794 0.0
H3884 H 0.13567 0.48694 0.00378 0.0
H3885 H 0.14094 0.59761 0.04254 0.0
H3886 H 0.11114 0.60729 0.03841 0.0
H3887 H 0.13025 0.60482 0.01504 0.0
C3888 C 0.73198 0.94093 0.30586 0.0
C3889 C 0.71172 0.94653 0.29326 0.0
C3890 C 0.74602 0.9207 0.29928 0.0
C3891 C 0.73929 0.90542 0.27998 0.0
C3892 C 0.71993 0.9122 0.26628 0.0
C3893 C 0.70656 0.93282 0.27294 0.0
C3894 C 0.76703 0.91457 0.3139 0.0
C3895 C 0.7119 0.89627 0.24574 0.0
C3896 C 0.77505 0.85153 0.25607 0.0
C3897 C 0.7651 0.83093 0.26656 0.0
C3898 C 0.76771 0.87623 0.26106 0.0
C3899 C 0.74956 0.88014 0.27632 0.0
C3900 C 0.73974 0.85937 0.28711 0.0
C3901 C 0.74783 0.83514 0.28232 0.0
C3902 C 0.77904 0.89801 0.24974 0.0
C3903 C 0.72002 0.86256 0.30315 0.0
H3904 H 0.73635 0.95165 0.32138 0.0
H3905 H 0.69108 0.93706 0.26292 0.0
H3906 H 0.76262 0.89842 0.32434 0.0
H3907 H 0.78188 0.90898 0.30345 0.0
H3908 H 0.77268 0.93079 0.32532 0.0
H3909 H 0.69837 0.90572 0.23545 0.0
H3910 H 0.72681 0.8918 0.23501 0.0
H3911 H 0.7044 0.87813 0.25111 0.0
H3912 H 0.78855 0.84836 0.24403 0.0
H3913 H 0.73998 0.81929 0.29042 0.0
H3914 H 0.78392 0.91341 0.26229 0.0
H3915 H 0.76647 0.90577 0.23737 0.0
H3916 H 0.7949 0.89227 0.24078 0.0
H3917 H 0.72543 0.87592 0.31727 0.0
H3918 H 0.71446 0.84445 0.31025 0.0
H3919 H 0.7047 0.87062 0.29431 0.0
C3920 C 0.81333 0.06202 0.80769 0.0
C3921 C 0.83501 0.05841 0.79791 0.0
C3922 C 0.79976 0.08281 0.80249 0.0
C3923 C 0.80836 0.10048 0.78752 0.0
C3924 C 0.82889 0.09538 0.77572 0.0
C3925 C 0.8419 0.0742 0.78093 0.0
C3926 C 0.77745 0.08711 0.81472 0.0
C3927 C 0.83859 0.11374 0.75952 0.0
C3928 C 0.77564 0.15819 0.76968 0.0
C3929 C 0.78546 0.17675 0.78484 0.0
C3930 C 0.78195 0.13287 0.77097 0.0
C3931 C 0.79878 0.12621 0.78751 0.0
C3932 C 0.80798 0.14471 0.80342 0.0
C3933 C 0.80103 0.16972 0.802 0.0
C3934 C 0.77133 0.11355 0.7541 0.0
C3935 C 0.82605 0.13838 0.82131 0.0
H3936 H 0.80766 0.04954 0.82049 0.0
H3937 H 0.85852 0.07141 0.77313 0.0
H3938 H 0.78086 0.10117 0.82882 0.0
H3939 H 0.76379 0.09473 0.80336 0.0
H3940 H 0.77065 0.06947 0.82176 0.0
H3941 H 0.85268 0.10539 0.74946 0.0
H3942 H 0.8246 0.12012 0.74787 0.0
H3943 H 0.84588 0.13065 0.76911 0.0
H3944 H 0.76343 0.1635 0.75647 0.0
H3945 H 0.80865 0.18396 0.81378 0.0
H3946 H 0.76677 0.09582 0.76233 0.0
H3947 H 0.78422 0.10892 0.74117 0.0
H3948 H 0.75539 0.1206 0.74547 0.0
H3949 H 0.81933 0.12305 0.8316 0.0
H3950 H 0.83098 0.15487 0.83271 0.0
H3951 H 0.84204 0.1315 0.81326 0.0
loop_
_geom_bond_atom_site_label_1
_geom_bond_atom_site_label_2
_geom_bond_distance
_geom_bond_site_symmetry_2
_ccdc_geom_bond_type
Mg0 O1 2.028 . S
Mg0 O7 1.986 . S
Mg0 O9 2.114 . S
Mg0 O10 2.251 . S
Mg0 O13 2.010 . S
O1 Mg0 2.028 . S
O1 C4 1.250 . S
O2 Mg3 2.028 . S
O2 C4 1.248 . S
Mg3 O2 2.028 . S
Mg3 O8 2.032 . S
Mg3 O10 2.079 . S
C4 O1 1.250 . S
C4 O2 1.248 . S
C5 O6 1.264 . S
C5 O13 1.249 . S
O6 C5 1.264 . S
O7 Mg0 1.986 . S
O7 C11 1.246 . S
O8 Mg3 2.032 . S
O8 C11 1.259 . S
O9 Mg0 2.114 . S
O9 C12 1.252 . S
O10 Mg0 2.251 . S
O10 Mg3 2.079 . S
O10 C12 1.273 . S
C11 O7 1.246 . S
C11 O8 1.259 . S
C12 O9 1.252 . S
C12 O10 1.273 . S
O13 Mg0 2.010 . S
O13 C5 1.249 . S
Mg14 O15 2.028 . S
Mg14 O21 1.986 . S
Mg14 O23 2.114 . S
Mg14 O24 2.251 1_455 S
Mg14 O27 2.010 . S
O15 Mg14 2.028 . S
O15 C18 1.250 . S
O16 Mg17 2.028 1_455 S
O16 C18 1.248 . S
Mg17 O16 2.028 1_655 S
Mg17 O22 2.032 1_655 S
Mg17 O24 2.079 . S
C18 O15 1.250 . S
C18 O16 1.248 . S
C19 O20 1.264 . S
C19 O27 1.249 . S
O20 C19 1.264 . S
O21 Mg14 1.986 . S
O21 C25 1.246 . S
O22 Mg17 2.032 1_455 S
O22 C25 1.259 . S
O23 Mg14 2.114 . S
O23 C26 1.252 1_455 S
O24 Mg14 2.251 1_655 S
O24 Mg17 2.079 . S
O24 C26 1.273 . S
C25 O21 1.246 . S
C25 O22 1.259 . S
C26 O23 1.252 1_655 S
C26 O24 1.273 . S
O27 Mg14 2.010 . S
O27 C19 1.249 . S
Mg28 O29 2.028 . S
Mg28 O35 1.986 . S
Mg28 O37 2.114 . S
Mg28 O38 2.251 . S
Mg28 O41 2.010 . S
O29 Mg28 2.028 . S
O29 C32 1.250 . S
O30 Mg31 2.028 . S
O30 C32 1.248 . S
Mg31 O30 2.028 . S
Mg31 O36 2.032 . S
Mg31 O38 2.079 . S
C32 O29 1.250 . S
C32 O30 1.248 . S
C33 O34 1.264 . S
C33 O41 1.249 . S
O34 C33 1.264 . S
O35 Mg28 1.986 . S
O35 C39 1.246 . S
O36 Mg31 2.032 . S
O36 C39 1.259 . S
O37 Mg28 2.114 . S
O37 C40 1.252 . S
O38 Mg28 2.251 . S
O38 Mg31 2.079 . S
O38 C40 1.273 . S
C39 O35 1.246 . S
C39 O36 1.259 . S
C40 O37 1.252 . S
C40 O38 1.273 . S
O41 Mg28 2.010 . S
O41 C33 1.249 . S
Mg42 O43 2.028 . S
Mg42 O49 1.986 . S
Mg42 O51 2.114 . S
Mg42 O52 2.251 . S
Mg42 O55 2.010 . S
O43 Mg42 2.028 . S
O43 C46 1.250 . S
O44 Mg45 2.028 . S
O44 C46 1.248 . S
Mg45 O44 2.028 . S
Mg45 O50 2.032 . S
Mg45 O52 2.079 . S
C46 O43 1.250 . S
C46 O44 1.248 . S
C47 O48 1.264 . S
C47 O55 1.249 . S
O48 C47 1.264 . S
O49 Mg42 1.986 . S
O49 C53 1.246 . S
O50 Mg45 2.032 . S
O50 C53 1.259 . S
O51 Mg42 2.114 . S
O51 C54 1.252 . S
O52 Mg42 2.251 . S
O52 Mg45 2.079 . S
O52 C54 1.273 . S
C53 O49 1.246 . S
C53 O50 1.259 . S
C54 O51 1.252 . S
C54 O52 1.273 . S
O55 Mg42 2.010 . S
O55 C47 1.249 . S
Mg56 O57 2.028 . S
Mg56 O63 1.986 1_545 S
Mg56 O65 2.114 . S
Mg56 O66 2.251 . S
Mg56 O69 2.010 . S
O57 Mg56 2.028 . S
O57 C60 1.250 . S
O58 Mg59 2.028 . S
O58 C60 1.248 . S
Mg59 O58 2.028 . S
Mg59 O64 2.032 1_545 S
Mg59 O66 2.079 . S
C60 O57 1.250 . S
C60 O58 1.248 . S
C61 O62 1.264 1_545 S
C61 O69 1.249 . S
O62 C61 1.264 1_565 S
O63 Mg56 1.986 1_565 S
O63 C67 1.246 . S
O64 Mg59 2.032 1_565 S
O64 C67 1.259 . S
O65 Mg56 2.114 . S
O65 C68 1.252 . S
O66 Mg56 2.251 . S
O66 Mg59 2.079 . S
O66 C68 1.273 . S
C67 O63 1.246 . S
C67 O64 1.259 . S
C68 O65 1.252 . S
C68 O66 1.273 . S
O69 Mg56 2.010 . S
O69 C61 1.249 . S
Mg70 O71 2.028 . S
Mg70 O77 1.986 . S
Mg70 O79 2.114 . S
Mg70 O80 2.251 . S
Mg70 O83 2.010 . S
O71 Mg70 2.028 . S
O71 C74 1.250 . S
O72 Mg73 2.028 . S
O72 C74 1.248 . S
Mg73 O72 2.028 . S
Mg73 O78 2.032 . S
Mg73 O80 2.079 . S
C74 O71 1.250 . S
C74 O72 1.248 . S
C75 O76 1.264 . S
C75 O83 1.249 . S
O76 C75 1.264 . S
O77 Mg70 1.986 . S
O77 C81 1.246 . S
O78 Mg73 2.032 . S
O78 C81 1.259 . S
O79 Mg70 2.114 . S
O79 C82 1.252 . S
O80 Mg70 2.251 . S
O80 Mg73 2.079 . S
O80 C82 1.273 . S
C81 O77 1.246 . S
C81 O78 1.259 . S
C82 O79 1.252 . S
C82 O80 1.273 . S
O83 Mg70 2.010 . S
O83 C75 1.249 . S
Mg84 O85 2.028 1_545 S
Mg84 O91 1.986 . S
Mg84 O93 2.114 . S
Mg84 O94 2.251 . S
Mg84 O97 2.010 . S
O85 Mg84 2.028 1_565 S
O85 C88 1.250 . S
O86 Mg87 2.028 1_565 S
O86 C88 1.248 . S
Mg87 O86 2.028 1_545 S
Mg87 O92 2.032 . S
Mg87 O94 2.079 . S
C88 O85 1.250 . S
C88 O86 1.248 . S
C89 O90 1.264 . S
C89 O97 1.249 . S
O90 C89 1.264 . S
O91 Mg84 1.986 . S
O91 C95 1.246 . S
O92 Mg87 2.032 . S
O92 C95 1.259 . S
O93 Mg84 2.114 . S
O93 C96 1.252 . S
O94 Mg84 2.251 . S
O94 Mg87 2.079 . S
O94 C96 1.273 . S
C95 O91 1.246 . S
C95 O92 1.259 . S
C96 O93 1.252 . S
C96 O94 1.273 . S
O97 Mg84 2.010 . S
O97 C89 1.249 . S
Mg98 O99 2.028 . S
Mg98 O105 1.986 1_554 S
Mg98 O107 2.114 . S
Mg98 O108 2.251 . S
Mg98 O111 2.010 . S
O99 Mg98 2.028 . S
O99 C102 1.250 . S
O100 Mg101 2.028 . S
O100 C102 1.248 . S
Mg101 O100 2.028 . S
Mg101 O106 2.053 . S
Mg101 O108 2.079 . S
C102 O99 1.250 . S
C102 O100 1.248 . S
C103 O104 1.264 . S
C103 O111 1.249 . S
O104 C103 1.264 . S
O105 Mg98 1.986 1_556 S
O105 C109 1.246 . S
O106 Mg101 2.053 . S
O106 C109 1.248 1_554 S
O107 Mg98 2.114 . S
O107 C110 1.252 . S
O108 Mg98 2.251 . S
O108 Mg101 2.079 . S
O108 C110 1.273 . S
C109 O105 1.246 . S
C109 O106 1.248 1_556 S
C110 O107 1.252 . S
C110 O108 1.273 . S
O111 Mg98 2.010 . S
O111 C103 1.249 . S
Mg112 O113 2.028 . S
Mg112 O119 1.986 . S
Mg112 O121 2.114 . S
Mg112 O122 2.251 . S
Mg112 O125 2.010 . S
O113 Mg112 2.028 . S
O113 C116 1.250 . S
O114 Mg115 2.028 . S
O114 C116 1.248 . S
Mg115 O114 2.028 . S
Mg115 O120 2.032 . S
Mg115 O122 2.079 . S
C116 O113 1.250 . S
C116 O114 1.248 . S
C117 O118 1.264 . S
C117 O125 1.249 . S
O118 C117 1.264 . S
O119 Mg112 1.986 . S
O119 C123 1.246 . S
O120 Mg115 2.032 . S
O120 C123 1.259 . S
O121 Mg112 2.114 . S
O121 C124 1.252 . S
O122 Mg112 2.251 . S
O122 Mg115 2.079 . S
O122 C124 1.273 . S
C123 O119 1.246 . S
C123 O120 1.259 . S
C124 O121 1.252 . S
C124 O122 1.273 . S
O125 Mg112 2.010 . S
O125 C117 1.249 . S
Mg126 O127 2.028 . S
Mg126 O133 1.986 . S
Mg126 O135 2.114 . S
Mg126 O136 2.251 . S
Mg126 O139 2.010 . S
O127 Mg126 2.028 . S
O127 C130 1.250 . S
O128 Mg129 2.028 . S
O128 C130 1.248 . S
Mg129 O128 2.028 . S
Mg129 O134 2.032 . S
Mg129 O136 2.079 . S
C130 O127 1.250 . S
C130 O128 1.248 . S
C131 O132 1.264 . S
C131 O139 1.249 . S
O132 C131 1.264 . S
O133 Mg126 1.986 . S
O133 C137 1.246 . S
O134 Mg129 2.032 . S
O134 C137 1.259 . S
O135 Mg126 2.114 . S
O135 C138 1.252 . S
O136 Mg126 2.251 . S
O136 Mg129 2.079 . S
O136 C138 1.273 . S
C137 O133 1.246 . S
C137 O134 1.259 . S
C138 O135 1.252 . S
C138 O136 1.273 . S
O139 Mg126 2.010 . S
O139 C131 1.249 . S
Mg140 O141 2.028 . S
Mg140 O147 1.986 . S
Mg140 O149 2.114 . S
Mg140 O150 2.251 . S
Mg140 O153 2.010 . S
O141 Mg140 2.028 . S
O141 C144 1.250 . S
O142 Mg143 2.028 . S
O142 C144 1.248 . S
Mg143 O142 2.028 . S
Mg143 O148 2.032 . S
Mg143 O150 2.079 . S
C144 O141 1.250 . S
C144 O142 1.248 . S
C145 O146 1.264 . S
C145 O153 1.249 . S
O146 C145 1.264 . S
O147 Mg140 1.986 . S
O147 C151 1.246 . S
O148 Mg143 2.032 . S
O148 C151 1.259 . S
O149 Mg140 2.114 . S
O149 C152 1.252 . S
O150 Mg140 2.251 . S
O150 Mg143 2.079 . S
O150 C152 1.273 . S
C151 O147 1.246 . S
C151 O148 1.259 . S
C152 O149 1.252 . S
C152 O150 1.273 . S
O153 Mg140 2.010 . S
O153 C145 1.249 . S
Mg154 O155 2.028 . S
Mg154 O161 1.986 . S
Mg154 O163 2.114 . S
Mg154 O164 2.251 . S
Mg154 O167 2.010 . S
O155 Mg154 2.028 . S
O155 C158 1.250 . S
O156 Mg157 2.028 . S
O156 C158 1.248 . S
Mg157 O156 2.028 . S
Mg157 O162 2.032 . S
Mg157 O164 2.079 . S
C158 O155 1.250 . S
C158 O156 1.248 . S
C159 O160 1.264 . S
C159 O167 1.249 . S
O160 C159 1.264 . S
O161 Mg154 1.986 . S
O161 C165 1.246 . S
O162 Mg157 2.032 . S
O162 C165 1.259 . S
O163 Mg154 2.114 . S
O163 C166 1.252 . S
O164 Mg154 2.251 . S
O164 Mg157 2.079 . S
O164 C166 1.273 . S
C165 O161 1.246 . S
C165 O162 1.259 . S
C166 O163 1.252 . S
C166 O164 1.273 . S
O167 Mg154 2.010 . S
O167 C159 1.249 . S
Mg168 O169 2.023 1_655 S
Mg168 O175 1.979 1_655 S
Mg168 O177 2.136 . S
Mg168 O178 2.291 . S
Mg168 O181 1.974 1_655 S
O169 Mg168 2.023 1_455 S
O169 C172 1.250 1_455 S
O170 Mg171 2.028 . S
O170 C172 1.248 . S
Mg171 O170 2.028 . S
Mg171 O176 2.032 . S
Mg171 O178 2.079 . S
C172 O169 1.250 1_655 S
C172 O170 1.248 . S
C173 O174 1.264 . S
C173 O181 1.249 . S
O174 C173 1.264 . S
O175 Mg168 1.979 1_455 S
O175 C179 1.246 1_455 S
O176 Mg171 2.032 . S
O176 C179 1.259 . S
O177 Mg168 2.136 . S
O177 C180 1.252 . S
O178 Mg168 2.291 . S
O178 Mg171 2.079 . S
O178 C180 1.273 . S
C179 O175 1.246 1_655 S
C179 O176 1.259 . S
C180 O177 1.252 . S
C180 O178 1.273 . S
O181 Mg168 1.974 1_455 S
O181 C173 1.249 . S
Mg182 O183 2.028 . S
Mg182 O189 1.986 . S
Mg182 O191 2.114 . S
Mg182 O192 2.251 1_455 S
Mg182 O195 2.010 . S
O183 Mg182 2.028 . S
O183 C186 1.250 . S
O184 Mg185 2.028 1_455 S
O184 C186 1.248 . S
Mg185 O184 2.028 1_655 S
Mg185 O190 2.032 1_655 S
Mg185 O192 2.079 . S
C186 O183 1.250 . S
C186 O184 1.248 . S
C187 O188 1.264 . S
C187 O195 1.249 . S
O188 C187 1.264 . S
O189 Mg182 1.986 . S
O189 C193 1.246 . S
O190 Mg185 2.032 1_455 S
O190 C193 1.259 . S
O191 Mg182 2.114 . S
O191 C194 1.252 1_455 S
O192 Mg182 2.251 1_655 S
O192 Mg185 2.079 . S
O192 C194 1.273 . S
C193 O189 1.246 . S
C193 O190 1.259 . S
C194 O191 1.252 1_655 S
C194 O192 1.273 . S
O195 Mg182 2.010 . S
O195 C187 1.249 . S
Mg196 O197 2.028 . S
Mg196 O203 1.986 . S
Mg196 O205 2.114 . S
Mg196 O206 2.251 . S
Mg196 O209 2.010 . S
O197 Mg196 2.028 . S
O197 C200 1.250 . S
O198 Mg199 2.028 . S
O198 C200 1.248 . S
Mg199 O198 2.028 . S
Mg199 O204 2.032 . S
Mg199 O206 2.079 . S
C200 O197 1.250 . S
C200 O198 1.248 . S
C201 O202 1.264 . S
C201 O209 1.249 . S
O202 C201 1.264 . S
O203 Mg196 1.986 . S
O203 C207 1.246 . S
O204 Mg199 2.032 . S
O204 C207 1.259 . S
O205 Mg196 2.114 . S
O205 C208 1.252 . S
O206 Mg196 2.251 . S
O206 Mg199 2.079 . S
O206 C208 1.273 . S
C207 O203 1.246 . S
C207 O204 1.259 . S
C208 O205 1.252 . S
C208 O206 1.273 . S
O209 Mg196 2.010 . S
O209 C201 1.249 . S
Mg210 O211 2.028 . S
Mg210 O217 1.986 . S
Mg210 O219 2.114 . S
Mg210 O220 2.251 . S
Mg210 O223 2.010 . S
O211 Mg210 2.028 . S
O211 C214 1.250 . S
O212 Mg213 2.028 . S
O212 C214 1.248 . S
Mg213 O212 2.028 . S
Mg213 O218 2.032 . S
Mg213 O220 2.079 . S
C214 O211 1.250 . S
C214 O212 1.248 . S
C215 O216 1.264 . S
C215 O223 1.249 . S
O216 C215 1.264 . S
O217 Mg210 1.986 . S
O217 C221 1.246 . S
O218 Mg213 2.032 . S
O218 C221 1.259 . S
O219 Mg210 2.114 . S
O219 C222 1.252 . S
O220 Mg210 2.251 . S
O220 Mg213 2.079 . S
O220 C222 1.273 . S
C221 O217 1.246 . S
C221 O218 1.259 . S
C222 O219 1.252 . S
C222 O220 1.273 . S
O223 Mg210 2.010 . S
O223 C215 1.249 . S
Mg224 O225 2.028 1_545 S
Mg224 O231 1.986 . S
Mg224 O233 2.116 . S
Mg224 O234 2.251 . S
Mg224 O237 2.010 . S
O225 Mg224 2.028 1_565 S
O225 C228 1.250 . S
O226 Mg227 2.028 1_565 S
O226 C228 1.248 . S
Mg227 O226 2.028 1_545 S
Mg227 O232 2.032 . S
Mg227 O234 2.079 . S
C228 O225 1.250 . S
C228 O226 1.248 . S
C229 O230 1.264 . S
C229 O237 1.249 . S
O230 C229 1.264 . S
O231 Mg224 1.986 . S
O231 C235 1.246 . S
O232 Mg227 2.032 . S
O232 C235 1.259 . S
O233 Mg224 2.116 . S
O233 C236 1.253 . S
O234 Mg224 2.251 . S
O234 Mg227 2.079 . S
O234 C236 1.273 . S
C235 O231 1.246 . S
C235 O232 1.259 . S
C236 O233 1.253 . S
C236 O234 1.273 . S
O237 Mg224 2.010 . S
O237 C229 1.249 . S
Mg238 O239 2.028 . S
Mg238 O245 1.986 . S
Mg238 O247 2.114 . S
Mg238 O248 2.251 . S
Mg238 O251 2.010 . S
O239 Mg238 2.028 . S
O239 C242 1.250 . S
O240 Mg241 2.028 . S
O240 C242 1.248 . S
Mg241 O240 2.028 . S
Mg241 O246 2.032 . S
Mg241 O248 2.079 . S
C242 O239 1.250 . S
C242 O240 1.248 . S
C243 O244 1.264 . S
C243 O251 1.249 . S
O244 C243 1.264 . S
O245 Mg238 1.986 . S
O245 C249 1.246 . S
O246 Mg241 2.032 . S
O246 C249 1.259 . S
O247 Mg238 2.114 . S
O247 C250 1.252 . S
O248 Mg238 2.251 . S
O248 Mg241 2.079 . S
O248 C250 1.273 . S
C249 O245 1.246 . S
C249 O246 1.259 . S
C250 O247 1.252 . S
C250 O248 1.273 . S
O251 Mg238 2.010 . S
O251 C243 1.249 . S
Mg252 O253 2.028 . S
Mg252 O259 1.986 1_545 S
Mg252 O261 2.114 . S
Mg252 O262 2.251 . S
Mg252 O265 2.010 . S
O253 Mg252 2.028 . S
O253 C256 1.250 . S
O254 Mg255 2.028 . S
O254 C256 1.248 . S
Mg255 O254 2.028 . S
Mg255 O260 2.032 1_545 S
Mg255 O262 2.079 . S
C256 O253 1.250 . S
C256 O254 1.248 . S
C257 O258 1.264 1_545 S
C257 O265 1.249 . S
O258 C257 1.264 1_565 S
O259 Mg252 1.986 1_565 S
O259 C263 1.246 . S
O260 Mg255 2.032 1_565 S
O260 C263 1.259 . S
O261 Mg252 2.114 . S
O261 C264 1.252 . S
O262 Mg252 2.251 . S
O262 Mg255 2.079 . S
O262 C264 1.273 . S
C263 O259 1.246 . S
C263 O260 1.259 . S
C264 O261 1.252 . S
C264 O262 1.273 . S
O265 Mg252 2.010 . S
O265 C257 1.249 . S
Mg266 O267 2.028 . S
Mg266 O273 1.986 . S
Mg266 O275 2.114 . S
Mg266 O276 2.251 . S
Mg266 O279 2.010 . S
O267 Mg266 2.028 . S
O267 C270 1.250 1_554 S
O268 Mg269 2.028 . S
O268 C270 1.248 1_554 S
Mg269 O268 2.028 . S
Mg269 O274 2.032 . S
Mg269 O276 2.079 . S
C270 O267 1.250 1_556 S
C270 O268 1.248 1_556 S
C271 O272 1.264 . S
C271 O279 1.249 . S
O272 C271 1.264 . S
O273 Mg266 1.986 . S
O273 C277 1.246 . S
O274 Mg269 2.032 . S
O274 C277 1.259 . S
O275 Mg266 2.114 . S
O275 C278 1.252 . S
O276 Mg266 2.251 . S
O276 Mg269 2.079 . S
O276 C278 1.273 . S
C277 O273 1.246 . S
C277 O274 1.259 . S
C278 O275 1.252 . S
C278 O276 1.273 . S
O279 Mg266 2.010 . S
O279 C271 1.249 . S
Mg280 O281 2.028 1_556 S
Mg280 O287 1.986 . S
Mg280 O289 2.114 1_556 S
Mg280 O290 2.251 . S
Mg280 O293 2.010 . S
O281 Mg280 2.028 1_554 S
O281 C284 1.250 . S
O282 Mg283 2.004 1_554 S
O282 C284 1.248 . S
Mg283 O282 2.004 1_556 S
Mg283 O288 2.054 . S
Mg283 O290 2.082 . S
C284 O281 1.250 . S
C284 O282 1.248 . S
C285 O286 1.264 . S
C285 O293 1.249 . S
O286 C285 1.264 . S
O287 Mg280 1.986 . S
O287 C291 1.246 . S
O288 Mg283 2.054 . S
O288 C291 1.259 . S
O289 Mg280 2.114 1_554 S
O289 C292 1.252 . S
O290 Mg280 2.251 . S
O290 Mg283 2.082 . S
O290 C292 1.273 1_556 S
C291 O287 1.246 . S
C291 O288 1.259 . S
C292 O289 1.252 . S
C292 O290 1.273 1_554 S
O293 Mg280 2.010 . S
O293 C285 1.249 . S
Mg294 O295 2.028 . S
Mg294 O301 1.986 . S
Mg294 O303 2.114 . S
Mg294 O304 2.251 . S
Mg294 O307 2.010 . S
O295 Mg294 2.028 . S
O295 C298 1.250 . S
O296 Mg297 2.028 . S
O296 C298 1.248 . S
Mg297 O296 2.028 . S
Mg297 O302 2.032 . S
Mg297 O304 2.079 . S
C298 O295 1.250 . S
C298 O296 1.248 . S
C299 O300 1.264 . S
C299 O307 1.249 . S
O300 C299 1.264 . S
O301 Mg294 1.986 . S
O301 C305 1.246 . S
O302 Mg297 2.032 . S
O302 C305 1.259 . S
O303 Mg294 2.114 . S
O303 C306 1.252 . S
O304 Mg294 2.251 . S
O304 Mg297 2.079 . S
O304 C306 1.273 . S
C305 O301 1.246 . S
C305 O302 1.259 . S
C306 O303 1.252 . S
C306 O304 1.273 . S
O307 Mg294 2.010 . S
O307 C299 1.249 . S
Mg308 O309 2.028 . S
Mg308 O315 1.986 . S
Mg308 O317 2.114 . S
Mg308 O318 2.251 . S
Mg308 O321 2.010 . S
O309 Mg308 2.028 . S
O309 C312 1.250 . S
O310 Mg311 2.028 . S
O310 C312 1.248 . S
Mg311 O310 2.028 . S
Mg311 O316 2.032 . S
Mg311 O318 2.079 . S
C312 O309 1.250 . S
C312 O310 1.248 . S
C313 O314 1.264 . S
C313 O321 1.249 . S
O314 C313 1.264 . S
O315 Mg308 1.986 . S
O315 C319 1.246 . S
O316 Mg311 2.032 . S
O316 C319 1.259 . S
O317 Mg308 2.114 . S
O317 C320 1.252 . S
O318 Mg308 2.251 . S
O318 Mg311 2.079 . S
O318 C320 1.273 . S
C319 O315 1.246 . S
C319 O316 1.259 . S
C320 O317 1.252 . S
C320 O318 1.273 . S
O321 Mg308 2.010 . S
O321 C313 1.249 . S
Mg322 O323 2.028 . S
Mg322 O329 1.986 . S
Mg322 O331 2.114 . S
Mg322 O332 2.251 . S
Mg322 O335 2.010 . S
O323 Mg322 2.028 . S
O323 C326 1.250 . S
O324 Mg325 2.028 . S
O324 C326 1.248 . S
Mg325 O324 2.028 . S
Mg325 O330 2.032 . S
Mg325 O332 2.079 . S
C326 O323 1.250 . S
C326 O324 1.248 . S
C327 O328 1.264 . S
C327 O335 1.249 . S
O328 C327 1.264 . S
O329 Mg322 1.986 . S
O329 C333 1.246 . S
O330 Mg325 2.032 . S
O330 C333 1.259 . S
O331 Mg322 2.114 . S
O331 C334 1.252 . S
O332 Mg322 2.251 . S
O332 Mg325 2.079 . S
O332 C334 1.273 . S
C333 O329 1.246 . S
C333 O330 1.259 . S
C334 O331 1.252 . S
C334 O332 1.273 . S
O335 Mg322 2.010 . S
O335 C327 1.249 . S
C336 O352 1.251 1_456 S
C336 O354 1.254 . S
N337 C338 1.333 1_565 S
N337 C342 1.307 . S
N337 Zn343 2.018 1_565 S
C338 N337 1.333 1_545 S
C338 C339 1.379 . S
C338 H356 0.952 . S
C339 C338 1.379 . S
C339 C340 1.390 1_545 S
C339 H366 0.949 . S
C340 C339 1.390 1_565 S
C340 C341 1.357 . S
C341 C340 1.357 . S
C341 C342 1.370 . S
C341 H367 0.950 . S
C342 N337 1.307 . S
C342 C341 1.370 . S
C342 H360 0.948 . S
Zn343 N337 2.018 1_545 S
Zn343 O352 2.039 . S
Zn343 O358 2.034 1_655 S
Zn343 O362 2.026 1_645 S
Zn343 O364 2.025 1_645 S
C344 O363 1.246 . S
C344 O364 1.249 . S
N345 C346 1.307 1_554 S
N345 C347 1.333 . S
N345 Zn351 2.020 . S
C346 N345 1.307 1_556 S
C346 C350 1.370 . S
C346 H357 0.948 . S
C347 N345 1.333 . S
C347 C348 1.379 . S
C347 H355 0.952 . S
C348 C347 1.379 . S
C348 C349 1.390 . S
C348 H368 0.949 . S
C349 C348 1.390 . S
C349 C350 1.357 1_554 S
C350 C346 1.370 . S
C350 C349 1.357 1_556 S
C350 H369 0.950 . S
Zn351 N345 2.020 . S
Zn351 O354 2.025 1_554 S
Zn351 O359 2.024 . S
Zn351 O361 2.039 . S
Zn351 O363 2.034 1_545 S
O352 C336 1.251 1_654 S
O352 Zn343 2.039 . S
C353 O358 1.246 . S
C353 O359 1.249 . S
O354 C336 1.254 . S
O354 Zn351 2.025 1_556 S
H355 C347 0.952 . S
H356 C338 0.952 . S
H357 C346 0.948 . S
O358 Zn343 2.034 1_455 S
O358 C353 1.246 . S
O359 Zn351 2.024 . S
O359 C353 1.249 . S
H360 C342 0.948 . S
O361 Zn351 2.039 . S
O361 C365 1.251 . S
O362 Zn343 2.026 1_465 S
O362 C365 1.254 1_565 S
O363 C344 1.246 . S
O363 Zn351 2.034 1_565 S
O364 Zn343 2.025 1_465 S
O364 C344 1.249 . S
C365 O361 1.251 . S
C365 O362 1.254 1_545 S
H366 C339 0.949 . S
H367 C341 0.950 . S
H368 C348 0.949 . S
H369 C350 0.950 . S
C370 O386 1.251 . S
C370 O388 1.254 . S
N371 C372 1.333 . S
N371 C376 1.307 . S
N371 Zn377 2.020 . S
C372 N371 1.333 . S
C372 C373 1.379 . S
C372 H390 0.952 . S
C373 C372 1.379 . S
C373 C374 1.390 . S
C373 H400 0.949 . S
C374 C373 1.390 . S
C374 C375 1.357 . S
C375 C374 1.357 . S
C375 C376 1.370 . S
C375 H401 0.950 . S
C376 N371 1.307 . S
C376 C375 1.370 . S
C376 H394 0.948 . S
Zn377 N371 2.020 . S
Zn377 O386 2.039 . S
Zn377 O392 2.034 . S
Zn377 O396 2.025 . S
Zn377 O398 2.024 . S
C378 O397 1.246 . S
C378 O398 1.249 . S
N379 C380 1.307 . S
N379 C381 1.333 . S
N379 Zn385 2.020 . S
C380 N379 1.307 . S
C380 C384 1.370 . S
C380 H391 0.948 . S
C381 N379 1.333 . S
C381 C382 1.379 . S
C381 H389 0.952 . S
C382 C381 1.379 . S
C382 C383 1.390 . S
C382 H402 0.949 . S
C383 C382 1.390 . S
C383 C384 1.357 . S
C384 C380 1.370 . S
C384 C383 1.357 . S
C384 H403 0.950 . S
Zn385 N379 2.020 . S
Zn385 O388 2.025 . S
Zn385 O393 2.024 . S
Zn385 O395 2.039 . S
Zn385 O397 2.034 . S
O386 C370 1.251 . S
O386 Zn377 2.039 . S
C387 O392 1.246 . S
C387 O393 1.249 . S
O388 C370 1.254 . S
O388 Zn385 2.025 . S
H389 C381 0.952 . S
H390 C372 0.952 . S
H391 C380 0.948 . S
O392 Zn377 2.034 . S
O392 C387 1.246 . S
O393 Zn385 2.024 . S
O393 C387 1.249 . S
H394 C376 0.948 . S
O395 Zn385 2.039 . S
O395 C399 1.251 . S
O396 Zn377 2.025 . S
O396 C399 1.254 . S
O397 C378 1.246 . S
O397 Zn385 2.034 . S
O398 Zn377 2.024 . S
O398 C378 1.249 . S
C399 O395 1.251 . S
C399 O396 1.254 . S
H400 C373 0.949 . S
H401 C375 0.950 . S
H402 C382 0.949 . S
H403 C384 0.950 . S
C404 O420 1.251 . S
C404 O422 1.254 . S
N405 C406 1.333 . S
N405 C410 1.307 . S
N405 Zn411 2.020 . S
C406 N405 1.333 . S
C406 C407 1.379 . S
C406 H424 0.952 . S
C407 C406 1.379 . S
C407 C408 1.390 . S
C407 H434 0.949 . S
C408 C407 1.390 . S
C408 C409 1.357 . S
C409 C408 1.357 . S
C409 C410 1.370 . S
C409 H435 0.950 . S
C410 N405 1.307 . S
C410 C409 1.370 . S
C410 H428 0.948 . S
Zn411 N405 2.020 . S
Zn411 O420 2.039 1_565 S
Zn411 O426 2.034 1_565 S
Zn411 O430 2.025 . S
Zn411 O432 2.024 . S
C412 O431 1.246 1_565 S
C412 O432 1.249 . S
N413 C414 1.307 . S
N413 C415 1.333 . S
N413 Zn419 2.020 . S
C414 N413 1.307 . S
C414 C418 1.370 . S
C414 H425 0.948 . S
C415 N413 1.333 . S
C415 C416 1.379 . S
C415 H423 0.952 . S
C416 C415 1.379 . S
C416 C417 1.390 . S
C416 H436 0.949 . S
C417 C416 1.390 . S
C417 C418 1.357 . S
C418 C414 1.370 . S
C418 C417 1.357 . S
C418 H437 0.950 . S
Zn419 N413 2.020 . S
Zn419 O422 2.025 . S
Zn419 O427 2.024 . S
Zn419 O429 2.039 . S
Zn419 O431 2.034 . S
O420 C404 1.251 . S
O420 Zn411 2.039 1_545 S
C421 O426 1.246 . S
C421 O427 1.249 . S
O422 C404 1.254 . S
O422 Zn419 2.025 . S
H423 C415 0.952 . S
H424 C406 0.952 . S
H425 C414 0.948 . S
O426 Zn411 2.034 1_545 S
O426 C421 1.246 . S
O427 Zn419 2.024 . S
O427 C421 1.249 . S
H428 C410 0.948 . S
O429 Zn419 2.039 . S
O429 C433 1.251 . S
O430 Zn411 2.025 . S
O430 C433 1.254 1_565 S
O431 C412 1.246 1_545 S
O431 Zn419 2.034 . S
O432 Zn411 2.024 . S
O432 C412 1.249 . S
C433 O429 1.251 . S
C433 O430 1.254 1_545 S
H434 C407 0.949 . S
H435 C409 0.950 . S
H436 C416 0.949 . S
H437 C418 0.950 . S
C438 O454 1.251 . S
C438 O456 1.254 . S
N439 C440 1.333 . S
N439 C444 1.307 . S
N439 Zn445 2.020 . S
C440 N439 1.333 . S
C440 C441 1.379 . S
C440 H458 0.952 . S
C441 C440 1.379 . S
C441 C442 1.390 . S
C441 H468 0.949 . S
C442 C441 1.390 . S
C442 C443 1.357 . S
C443 C442 1.357 . S
C443 C444 1.370 . S
C443 H469 0.950 . S
C444 N439 1.307 . S
C444 C443 1.370 . S
C444 H462 0.948 . S
Zn445 N439 2.020 . S
Zn445 O454 2.039 . S
Zn445 O460 2.034 . S
Zn445 O464 2.025 . S
Zn445 O466 2.024 . S
C446 O465 1.246 . S
C446 O466 1.249 . S
N447 C448 1.307 . S
N447 C449 1.333 . S
N447 Zn453 2.020 . S
C448 N447 1.307 . S
C448 C452 1.370 . S
C448 H459 0.948 . S
C449 N447 1.333 . S
C449 C450 1.379 . S
C449 H457 0.952 . S
C450 C449 1.379 . S
C450 C451 1.390 . S
C450 H470 0.949 . S
C451 C450 1.390 . S
C451 C452 1.357 . S
C452 C448 1.370 . S
C452 C451 1.357 . S
C452 H471 0.950 . S
Zn453 N447 2.020 . S
Zn453 O456 2.025 . S
Zn453 O461 2.024 . S
Zn453 O463 2.039 . S
Zn453 O465 2.034 . S
O454 C438 1.251 . S
O454 Zn445 2.039 . S
C455 O460 1.246 . S
C455 O461 1.249 . S
O456 C438 1.254 . S
O456 Zn453 2.025 . S
H457 C449 0.952 . S
H458 C440 0.952 . S
H459 C448 0.948 . S
O460 Zn445 2.034 . S
O460 C455 1.246 . S
O461 Zn453 2.024 . S
O461 C455 1.249 . S
H462 C444 0.948 . S
O463 Zn453 2.039 . S
O463 C467 1.251 . S
O464 Zn445 2.025 . S
O464 C467 1.254 . S
O465 C446 1.246 . S
O465 Zn453 2.034 . S
O466 Zn445 2.024 . S
O466 C446 1.249 . S
C467 O463 1.251 . S
C467 O464 1.254 . S
H468 C441 0.949 . S
H469 C443 0.950 . S
H470 C450 0.949 . S
H471 C452 0.950 . S
C472 O488 1.251 . S
C472 O490 1.254 . S
N473 C474 1.333 . S
N473 C478 1.307 . S
N473 Zn479 2.020 . S
C474 N473 1.333 . S
C474 C475 1.379 . S
C474 H492 0.952 . S
C475 C474 1.379 . S
C475 C476 1.390 . S
C475 H502 0.949 . S
C476 C475 1.390 . S
C476 C477 1.357 . S
C477 C476 1.357 . S
C477 C478 1.370 . S
C477 H503 0.950 . S
C478 N473 1.307 . S
C478 C477 1.370 . S
C478 H496 0.948 . S
Zn479 N473 2.020 . S
Zn479 O488 2.039 . S
Zn479 O494 2.034 . S
Zn479 O498 2.025 . S
Zn479 O500 2.024 1_545 S
C480 O499 1.246 . S
C480 O500 1.249 . S
N481 C482 1.307 . S
N481 C483 1.333 1_455 S
N481 Zn487 2.020 1_565 S
C482 N481 1.307 . S
C482 C486 1.370 . S
C482 H493 0.948 1_565 S
C483 N481 1.333 1_655 S
C483 C484 1.379 . S
C483 H491 0.952 . S
C484 C483 1.379 . S
C484 C485 1.390 . S
C484 H504 0.949 . S
C485 C484 1.390 . S
C485 C486 1.357 1_655 S
C486 C482 1.370 . S
C486 C485 1.357 1_455 S
C486 H505 0.950 . S
Zn487 N481 2.020 1_545 S
Zn487 O490 2.024 . S
Zn487 O495 2.024 . S
Zn487 O497 2.039 1_455 S
Zn487 O499 2.034 1_545 S
O488 C472 1.251 . S
O488 Zn479 2.039 . S
C489 O494 1.246 . S
C489 O495 1.249 . S
O490 C472 1.254 . S
O490 Zn487 2.024 . S
H491 C483 0.952 . S
H492 C474 0.952 . S
H493 C482 0.948 1_545 S
O494 Zn479 2.034 . S
O494 C489 1.246 . S
O495 Zn487 2.024 . S
O495 C489 1.249 . S
H496 C478 0.948 . S
O497 Zn487 2.039 1_655 S
O497 C501 1.251 . S
O498 Zn479 2.025 . S
O498 C501 1.254 1_455 S
O499 C480 1.246 . S
O499 Zn487 2.034 1_565 S
O500 Zn479 2.024 1_565 S
O500 C480 1.249 . S
C501 O497 1.251 . S
C501 O498 1.254 1_655 S
H502 C475 0.949 . S
H503 C477 0.950 . S
H504 C484 0.949 . S
H505 C486 0.950 . S
C506 O522 1.251 . S
C506 O524 1.254 . S
N507 C508 1.333 . S
N507 C512 1.307 . S
N507 Zn513 2.020 . S
C508 N507 1.333 . S
C508 C509 1.379 . S
C508 H526 0.952 . S
C509 C508 1.379 . S
C509 C510 1.390 . S
C509 H536 0.949 . S
C510 C509 1.390 . S
C510 C511 1.357 . S
C511 C510 1.357 . S
C511 C512 1.370 . S
C511 H537 0.950 . S
C512 N507 1.307 . S
C512 C511 1.370 . S
C512 H530 0.948 . S
Zn513 N507 2.020 . S
Zn513 O522 2.039 . S
Zn513 O528 2.034 . S
Zn513 O532 2.025 . S
Zn513 O534 2.024 . S
C514 O533 1.246 . S
C514 O534 1.249 . S
N515 C516 1.307 . S
N515 C517 1.333 . S
N515 Zn521 2.020 . S
C516 N515 1.307 . S
C516 C520 1.370 . S
C516 H527 0.948 . S
C517 N515 1.333 . S
C517 C518 1.379 . S
C517 H525 0.952 . S
C518 C517 1.379 . S
C518 C519 1.390 . S
C518 H538 0.949 . S
C519 C518 1.390 . S
C519 C520 1.357 . S
C520 C516 1.370 . S
C520 C519 1.357 . S
C520 H539 0.950 . S
Zn521 N515 2.020 . S
Zn521 O524 2.025 . S
Zn521 O529 2.024 . S
Zn521 O531 2.039 . S
Zn521 O533 2.034 . S
O522 C506 1.251 . S
O522 Zn513 2.039 . S
C523 O528 1.246 . S
C523 O529 1.249 . S
O524 C506 1.254 . S
O524 Zn521 2.025 . S
H525 C517 0.952 . S
H526 C508 0.952 . S
H527 C516 0.948 . S
O528 Zn513 2.034 . S
O528 C523 1.246 . S
O529 Zn521 2.024 . S
O529 C523 1.249 . S
H530 C512 0.948 . S
O531 Zn521 2.039 . S
O531 C535 1.251 . S
O532 Zn513 2.025 . S
O532 C535 1.254 . S
O533 C514 1.246 . S
O533 Zn521 2.034 . S
O534 Zn513 2.024 . S
O534 C514 1.249 . S
C535 O531 1.251 . S
C535 O532 1.254 . S
H536 C509 0.949 . S
H537 C511 0.950 . S
H538 C518 0.949 . S
H539 C520 0.950 . S
C540 O556 1.251 . S
C540 O558 1.254 . S
N541 C542 1.333 . S
N541 C546 1.307 . S
N541 Zn547 2.020 . S
C542 N541 1.333 . S
C542 C543 1.379 . S
C542 H560 0.952 . S
C543 C542 1.379 . S
C543 C544 1.390 . S
C543 H570 0.949 . S
C544 C543 1.390 . S
C544 C545 1.357 . S
C545 C544 1.357 . S
C545 C546 1.370 . S
C545 H571 0.950 . S
C546 N541 1.307 . S
C546 C545 1.370 . S
C546 H564 0.948 . S
Zn547 N541 2.020 . S
Zn547 O556 2.039 1_545 S
Zn547 O562 2.034 . S
Zn547 O566 2.025 . S
Zn547 O568 2.024 . S
C548 O567 1.246 1_545 S
C548 O568 1.249 . S
N549 C550 1.307 . S
N549 C551 1.333 1_565 S
N549 Zn555 2.020 1_566 S
C550 N549 1.307 . S
C550 C554 1.370 . S
C550 H561 0.948 . S
C551 N549 1.333 1_545 S
C551 C552 1.379 . S
C551 H559 0.952 . S
C552 C551 1.379 . S
C552 C553 1.390 1_545 S
C552 H572 0.949 . S
C553 C552 1.390 1_565 S
C553 C554 1.357 . S
C554 C550 1.370 . S
C554 C553 1.357 . S
C554 H573 0.950 . S
Zn555 N549 2.020 1_544 S
Zn555 O558 2.025 1_545 S
Zn555 O563 2.024 . S
Zn555 O565 2.039 1_554 S
Zn555 O567 2.034 1_545 S
O556 C540 1.251 . S
O556 Zn547 2.039 1_565 S
C557 O562 1.246 . S
C557 O563 1.249 . S
O558 C540 1.254 . S
O558 Zn555 2.025 1_565 S
H559 C551 0.952 . S
H560 C542 0.952 . S
H561 C550 0.948 . S
O562 Zn547 2.034 . S
O562 C557 1.246 . S
O563 Zn555 2.024 . S
O563 C557 1.249 . S
H564 C546 0.948 . S
O565 Zn555 2.039 1_556 S
O565 C569 1.251 1_556 S
O566 Zn547 2.025 . S
O566 C569 1.254 . S
O567 C548 1.246 1_565 S
O567 Zn555 2.034 1_565 S
O568 Zn547 2.024 . S
O568 C548 1.249 . S
C569 O565 1.251 1_554 S
C569 O566 1.254 . S
H570 C543 0.949 . S
H571 C545 0.950 . S
H572 C552 0.949 . S
H573 C554 0.950 . S
C574 O590 1.251 . S
C574 O592 1.254 . S
N575 C576 1.333 . S
N575 C580 1.307 . S
N575 Zn581 2.020 . S
C576 N575 1.333 . S
C576 C577 1.379 . S
C576 H594 0.952 . S
C577 C576 1.379 . S
C577 C578 1.390 . S
C577 H604 0.949 . S
C578 C577 1.390 . S
C578 C579 1.357 . S
C579 C578 1.357 . S
C579 C580 1.370 . S
C579 H605 0.950 . S
C580 N575 1.307 . S
C580 C579 1.370 . S
C580 H598 0.948 . S
Zn581 N575 2.020 . S
Zn581 O590 2.039 . S
Zn581 O596 2.034 . S
Zn581 O600 2.025 . S
Zn581 O602 2.024 . S
C582 O601 1.246 . S
C582 O602 1.249 . S
N583 C584 1.307 . S
N583 C585 1.333 . S
N583 Zn589 2.020 . S
C584 N583 1.307 . S
C584 C588 1.370 . S
C584 H595 0.948 . S
C585 N583 1.333 . S
C585 C586 1.379 . S
C585 H593 0.952 . S
C586 C585 1.379 . S
C586 C587 1.390 . S
C586 H606 0.949 . S
C587 C586 1.390 . S
C587 C588 1.357 . S
C588 C584 1.370 . S
C588 C587 1.357 . S
C588 H607 0.950 . S
Zn589 N583 2.020 . S
Zn589 O592 2.025 . S
Zn589 O597 2.024 . S
Zn589 O599 2.039 . S
Zn589 O601 2.034 . S
O590 C574 1.251 . S
O590 Zn581 2.039 . S
C591 O596 1.246 . S
C591 O597 1.249 . S
O592 C574 1.254 . S
O592 Zn589 2.025 . S
H593 C585 0.952 . S
H594 C576 0.952 . S
H595 C584 0.948 . S
O596 Zn581 2.034 . S
O596 C591 1.246 . S
O597 Zn589 2.024 . S
O597 C591 1.249 . S
H598 C580 0.948 . S
O599 Zn589 2.039 . S
O599 C603 1.251 . S
O600 Zn581 2.025 . S
O600 C603 1.254 . S
O601 C582 1.246 . S
O601 Zn589 2.034 . S
O602 Zn581 2.024 . S
O602 C582 1.249 . S
C603 O599 1.251 . S
C603 O600 1.254 . S
H604 C577 0.949 . S
H605 C579 0.950 . S
H606 C586 0.949 . S
H607 C588 0.950 . S
C608 O624 1.251 . S
C608 O626 1.254 . S
N609 C610 1.333 . S
N609 C614 1.307 . S
N609 Zn615 2.020 1_556 S
C610 N609 1.333 . S
C610 C611 1.379 . S
C610 H628 0.952 . S
C611 C610 1.379 . S
C611 C612 1.390 . S
C611 H638 0.949 . S
C612 C611 1.390 . S
C612 C613 1.357 . S
C613 C612 1.357 . S
C613 C614 1.370 . S
C613 H639 0.950 . S
C614 N609 1.307 . S
C614 C613 1.370 . S
C614 H632 0.948 . S
Zn615 N609 2.020 1_554 S
Zn615 O624 2.039 . S
Zn615 O630 2.034 . S
Zn615 O634 2.025 1_554 S
Zn615 O636 2.024 1_554 S
C616 O635 1.246 . S
C616 O636 1.249 1_554 S
N617 C618 1.307 . S
N617 C619 1.333 . S
N617 Zn623 2.020 . S
C618 N617 1.307 . S
C618 C622 1.370 . S
C618 H629 0.948 . S
C619 N617 1.333 . S
C619 C620 1.379 . S
C619 H627 0.952 . S
C620 C619 1.379 . S
C620 C621 1.390 . S
C620 H640 0.949 . S
C621 C620 1.390 . S
C621 C622 1.357 . S
C622 C618 1.370 . S
C622 C621 1.357 . S
C622 H641 0.950 . S
Zn623 N617 2.020 . S
Zn623 O626 2.025 . S
Zn623 O631 2.024 . S
Zn623 O633 2.039 . S
Zn623 O635 2.034 . S
O624 C608 1.251 . S
O624 Zn615 2.039 . S
C625 O630 1.246 . S
C625 O631 1.249 . S
O626 C608 1.254 . S
O626 Zn623 2.025 . S
H627 C619 0.952 . S
H628 C610 0.952 . S
H629 C618 0.948 . S
O630 Zn615 2.034 . S
O630 C625 1.246 . S
O631 Zn623 2.024 . S
O631 C625 1.249 . S
H632 C614 0.948 . S
O633 Zn623 2.039 . S
O633 C637 1.251 . S
O634 Zn615 2.025 1_556 S
O634 C637 1.254 1_556 S
O635 C616 1.246 . S
O635 Zn623 2.034 . S
O636 Zn615 2.024 1_556 S
O636 C616 1.249 1_556 S
C637 O633 1.251 . S
C637 O634 1.254 1_554 S
H638 C611 0.949 . S
H639 C613 0.950 . S
H640 C620 0.949 . S
H641 C622 0.950 . S
C642 O658 1.251 . S
C642 O660 1.254 . S
N643 C644 1.333 . S
N643 C648 1.307 . S
N643 Zn649 2.020 . S
C644 N643 1.333 . S
C644 C645 1.379 . S
C644 H662 0.952 . S
C645 C644 1.379 . S
C645 C646 1.390 . S
C645 H672 0.949 . S
C646 C645 1.390 . S
C646 C647 1.357 . S
C647 C646 1.357 . S
C647 C648 1.370 . S
C647 H673 0.950 . S
C648 N643 1.307 . S
C648 C647 1.370 . S
C648 H666 0.948 . S
Zn649 N643 2.020 . S
Zn649 O658 2.039 . S
Zn649 O664 2.034 . S
Zn649 O668 2.025 . S
Zn649 O670 2.024 . S
C650 O669 1.246 . S
C650 O670 1.249 . S
N651 C652 1.307 . S
N651 C653 1.333 . S
N651 Zn657 2.020 . S
C652 N651 1.307 . S
C652 C656 1.370 . S
C652 H663 0.948 . S
C653 N651 1.333 . S
C653 C654 1.379 . S
C653 H661 0.952 . S
C654 C653 1.379 . S
C654 C655 1.390 . S
C654 H674 0.949 . S
C655 C654 1.390 . S
C655 C656 1.357 . S
C656 C652 1.370 . S
C656 C655 1.357 . S
C656 H675 0.950 . S
Zn657 N651 2.020 . S
Zn657 O660 2.025 . S
Zn657 O665 2.024 . S
Zn657 O667 2.039 . S
Zn657 O669 2.034 . S
O658 C642 1.251 . S
O658 Zn649 2.039 . S
C659 O664 1.246 . S
C659 O665 1.249 . S
O660 C642 1.254 . S
O660 Zn657 2.025 . S
H661 C653 0.952 . S
H662 C644 0.952 . S
H663 C652 0.948 . S
O664 Zn649 2.034 . S
O664 C659 1.246 . S
O665 Zn657 2.024 . S
O665 C659 1.249 . S
H666 C648 0.948 . S
O667 Zn657 2.039 . S
O667 C671 1.251 . S
O668 Zn649 2.025 . S
O668 C671 1.254 . S
O669 C650 1.246 . S
O669 Zn657 2.034 . S
O670 Zn649 2.024 . S
O670 C650 1.249 . S
C671 O667 1.251 . S
C671 O668 1.254 . S
H672 C645 0.949 . S
H673 C647 0.950 . S
H674 C654 0.949 . S
H675 C656 0.950 . S
C676 O692 1.251 . S
C676 O694 1.254 . S
N677 C678 1.333 . S
N677 C682 1.307 . S
N677 Zn683 2.020 . S
C678 N677 1.333 . S
C678 C679 1.379 . S
C678 H696 0.952 . S
C679 C678 1.379 . S
C679 C680 1.390 . S
C679 H706 0.949 . S
C680 C679 1.390 . S
C680 C681 1.357 . S
C681 C680 1.357 . S
C681 C682 1.370 . S
C681 H707 0.950 . S
C682 N677 1.307 . S
C682 C681 1.370 . S
C682 H700 0.948 . S
Zn683 N677 2.020 . S
Zn683 O692 2.039 . S
Zn683 O698 2.034 1_455 S
Zn683 O702 2.025 . S
Zn683 O704 2.024 . S
C684 O703 1.246 . S
C684 O704 1.249 . S
N685 C686 1.307 1_455 S
N685 C687 1.333 . S
N685 Zn691 2.020 . S
C686 N685 1.307 1_655 S
C686 C690 1.370 . S
C686 H697 0.948 . S
C687 N685 1.333 . S
C687 C688 1.379 . S
C687 H695 0.952 . S
C688 C687 1.379 . S
C688 C689 1.390 1_455 S
C688 H708 0.949 . S
C689 C688 1.390 1_655 S
C689 C690 1.357 . S
C690 C686 1.370 . S
C690 C689 1.357 . S
C690 H709 0.950 . S
Zn691 N685 2.020 . S
Zn691 O694 2.025 . S
Zn691 O699 2.024 1_455 S
Zn691 O701 2.039 . S
Zn691 O703 2.034 . S
O692 C676 1.251 . S
O692 Zn683 2.039 . S
C693 O698 1.246 . S
C693 O699 1.249 . S
O694 C676 1.254 . S
O694 Zn691 2.025 . S
H695 C687 0.952 . S
H696 C678 0.952 . S
H697 C686 0.948 . S
O698 Zn683 2.034 1_655 S
O698 C693 1.246 . S
O699 Zn691 2.024 1_655 S
O699 C693 1.249 . S
H700 C682 0.948 . S
O701 Zn691 2.039 . S
O701 C705 1.251 . S
O702 Zn683 2.025 . S
O702 C705 1.254 . S
O703 C684 1.246 . S
O703 Zn691 2.034 . S
O704 Zn683 2.024 . S
O704 C684 1.249 . S
C705 O701 1.251 . S
C705 O702 1.254 . S
H706 C679 0.949 . S
H707 C681 0.950 . S
H708 C688 0.949 . S
H709 C690 0.950 . S
C710 O726 1.251 . S
C710 O728 1.254 . S
N711 C712 1.333 . S
N711 C716 1.307 . S
N711 Zn717 2.020 . S
C712 N711 1.333 . S
C712 C713 1.379 . S
C712 H730 0.952 . S
C713 C712 1.379 . S
C713 C714 1.390 . S
C713 H740 0.949 . S
C714 C713 1.390 . S
C714 C715 1.357 . S
C715 C714 1.357 . S
C715 C716 1.370 . S
C715 H741 0.950 . S
C716 N711 1.307 . S
C716 C715 1.370 . S
C716 H734 0.948 . S
Zn717 N711 2.020 . S
Zn717 O726 2.039 . S
Zn717 O732 2.034 . S
Zn717 O736 2.025 . S
Zn717 O738 2.024 . S
C718 O737 1.246 . S
C718 O738 1.249 . S
N719 C720 1.307 . S
N719 C721 1.333 . S
N719 Zn725 2.020 . S
C720 N719 1.307 . S
C720 C724 1.370 . S
C720 H731 0.948 . S
C721 N719 1.333 . S
C721 C722 1.379 . S
C721 H729 0.952 . S
C722 C721 1.379 . S
C722 C723 1.390 . S
C722 H742 0.949 . S
C723 C722 1.390 . S
C723 C724 1.357 . S
C724 C720 1.370 . S
C724 C723 1.357 . S
C724 H743 0.950 . S
Zn725 N719 2.020 . S
Zn725 O728 2.025 . S
Zn725 O733 2.024 . S
Zn725 O735 2.039 . S
Zn725 O737 2.034 . S
O726 C710 1.251 . S
O726 Zn717 2.039 . S
C727 O732 1.246 . S
C727 O733 1.249 . S
O728 C710 1.254 . S
O728 Zn725 2.025 . S
H729 C721 0.952 . S
H730 C712 0.952 . S
H731 C720 0.948 . S
O732 Zn717 2.034 . S
O732 C727 1.246 . S
O733 Zn725 2.024 . S
O733 C727 1.249 . S
H734 C716 0.948 . S
O735 Zn725 2.039 . S
O735 C739 1.251 . S
O736 Zn717 2.025 . S
O736 C739 1.254 . S
O737 C718 1.246 . S
O737 Zn725 2.034 . S
O738 Zn717 2.024 . S
O738 C718 1.249 . S
C739 O735 1.251 . S
C739 O736 1.254 . S
H740 C713 0.949 . S
H741 C715 0.950 . S
H742 C722 0.949 . S
H743 C724 0.950 . S
C744 O760 1.251 . S
C744 O762 1.254 . S
N745 C746 1.333 . S
N745 C750 1.307 . S
N745 Zn751 2.020 . S
C746 N745 1.333 . S
C746 C747 1.379 . S
C746 H764 0.952 . S
C747 C746 1.379 . S
C747 C748 1.390 . S
C747 H774 0.949 . S
C748 C747 1.390 . S
C748 C749 1.357 . S
C749 C748 1.357 . S
C749 C750 1.370 . S
C749 H775 0.950 . S
C750 N745 1.307 . S
C750 C749 1.370 . S
C750 H768 0.948 . S
Zn751 N745 2.020 . S
Zn751 O760 2.039 . S
Zn751 O766 2.034 . S
Zn751 O770 2.025 . S
Zn751 O772 2.024 . S
C752 O771 1.246 . S
C752 O772 1.249 . S
N753 C754 1.307 . S
N753 C755 1.333 . S
N753 Zn759 2.020 . S
C754 N753 1.307 . S
C754 C758 1.370 . S
C754 H765 0.948 . S
C755 N753 1.333 . S
C755 C756 1.379 . S
C755 H763 0.952 . S
C756 C755 1.379 . S
C756 C757 1.390 . S
C756 H776 0.949 . S
C757 C756 1.390 . S
C757 C758 1.357 . S
C758 C754 1.370 . S
C758 C757 1.357 . S
C758 H777 0.950 . S
Zn759 N753 2.020 . S
Zn759 O762 2.025 . S
Zn759 O767 2.024 . S
Zn759 O769 2.039 . S
Zn759 O771 2.034 . S
O760 C744 1.251 . S
O760 Zn751 2.039 . S
C761 O766 1.246 . S
C761 O767 1.249 . S
O762 C744 1.254 . S
O762 Zn759 2.025 . S
H763 C755 0.952 . S
H764 C746 0.952 . S
H765 C754 0.948 . S
O766 Zn751 2.034 . S
O766 C761 1.246 . S
O767 Zn759 2.024 . S
O767 C761 1.249 . S
H768 C750 0.948 . S
O769 Zn759 2.039 . S
O769 C773 1.251 . S
O770 Zn751 2.025 . S
O770 C773 1.254 . S
O771 C752 1.246 . S
O771 Zn759 2.034 . S
O772 Zn751 2.024 . S
O772 C752 1.249 . S
C773 O769 1.251 . S
C773 O770 1.254 . S
H774 C747 0.949 . S
H775 C749 0.950 . S
H776 C756 0.949 . S
H777 C758 0.950 . S
C778 O794 1.251 . S
C778 O796 1.254 . S
N779 C780 1.333 . S
N779 C784 1.307 . S
N779 Zn785 2.020 . S
C780 N779 1.333 . S
C780 C781 1.379 . S
C780 H798 0.952 . S
C781 C780 1.379 . S
C781 C782 1.390 . S
C781 H808 0.949 . S
C782 C781 1.390 . S
C782 C783 1.357 . S
C783 C782 1.357 . S
C783 C784 1.370 . S
C783 H809 0.950 . S
C784 N779 1.307 . S
C784 C783 1.370 . S
C784 H802 0.948 . S
Zn785 N779 2.020 . S
Zn785 O794 2.039 . S
Zn785 O800 2.034 . S
Zn785 O804 2.025 . S
Zn785 O806 2.024 . S
C786 O805 1.246 . S
C786 O806 1.249 . S
N787 C788 1.307 . S
N787 C789 1.333 . S
N787 Zn793 2.020 . S
C788 N787 1.307 . S
C788 C792 1.370 . S
C788 H799 0.948 . S
C789 N787 1.333 . S
C789 C790 1.379 . S
C789 H797 0.952 . S
C790 C789 1.379 . S
C790 C791 1.390 . S
C790 H810 0.949 . S
C791 C790 1.390 . S
C791 C792 1.357 . S
C792 C788 1.370 . S
C792 C791 1.357 . S
C792 H811 0.950 . S
Zn793 N787 2.020 . S
Zn793 O796 2.025 . S
Zn793 O801 2.024 . S
Zn793 O803 2.039 . S
Zn793 O805 2.034 . S
O794 C778 1.251 . S
O794 Zn785 2.039 . S
C795 O800 1.246 . S
C795 O801 1.249 . S
O796 C778 1.254 . S
O796 Zn793 2.025 . S
H797 C789 0.952 . S
H798 C780 0.952 . S
H799 C788 0.948 . S
O800 Zn785 2.034 . S
O800 C795 1.246 . S
O801 Zn793 2.024 . S
O801 C795 1.249 . S
H802 C784 0.948 . S
O803 Zn793 2.039 . S
O803 C807 1.251 . S
O804 Zn785 2.025 . S
O804 C807 1.254 . S
O805 C786 1.246 . S
O805 Zn793 2.034 . S
O806 Zn785 2.024 . S
O806 C786 1.249 . S
C807 O803 1.251 . S
C807 O804 1.254 . S
H808 C781 0.949 . S
H809 C783 0.950 . S
H810 C790 0.949 . S
H811 C792 0.950 . S
C812 O828 1.251 . S
C812 O830 1.254 . S
N813 C814 1.333 . S
N813 C818 1.307 . S
N813 Zn819 2.020 . S
C814 N813 1.333 . S
C814 C815 1.379 . S
C814 H832 0.952 . S
C815 C814 1.379 . S
C815 C816 1.390 . S
C815 H842 0.949 . S
C816 C815 1.390 . S
C816 C817 1.357 . S
C817 C816 1.357 . S
C817 C818 1.370 . S
C817 H843 0.950 . S
C818 N813 1.307 . S
C818 C817 1.370 . S
C818 H836 0.948 . S
Zn819 N813 2.020 . S
Zn819 O828 2.039 . S
Zn819 O834 2.034 . S
Zn819 O838 2.025 . S
Zn819 O840 2.024 . S
C820 O839 1.246 . S
C820 O840 1.249 . S
N821 C822 1.307 . S
N821 C823 1.333 . S
N821 Zn827 2.020 . S
C822 N821 1.307 . S
C822 C826 1.370 . S
C822 H833 0.948 . S
C823 N821 1.333 . S
C823 C824 1.379 . S
C823 H831 0.952 . S
C824 C823 1.379 . S
C824 C825 1.390 . S
C824 H844 0.949 . S
C825 C824 1.390 . S
C825 C826 1.357 . S
C826 C822 1.370 . S
C826 C825 1.357 . S
C826 H845 0.950 . S
Zn827 N821 2.020 . S
Zn827 O830 2.025 . S
Zn827 O835 2.024 . S
Zn827 O837 2.039 . S
Zn827 O839 2.034 . S
O828 C812 1.251 . S
O828 Zn819 2.039 . S
C829 O834 1.246 . S
C829 O835 1.249 . S
O830 C812 1.254 . S
O830 Zn827 2.025 . S
H831 C823 0.952 . S
H832 C814 0.952 . S
H833 C822 0.948 . S
O834 Zn819 2.034 . S
O834 C829 1.246 . S
O835 Zn827 2.024 . S
O835 C829 1.249 . S
H836 C818 0.948 . S
O837 Zn827 2.039 . S
O837 C841 1.251 . S
O838 Zn819 2.025 . S
O838 C841 1.254 . S
O839 C820 1.246 . S
O839 Zn827 2.034 . S
O840 Zn819 2.024 . S
O840 C820 1.249 . S
C841 O837 1.251 . S
C841 O838 1.254 . S
H842 C815 0.949 . S
H843 C817 0.950 . S
H844 C824 0.949 . S
H845 C826 0.950 . S
C846 O862 1.251 . S
C846 O864 1.254 . S
N847 C848 1.333 . S
N847 C852 1.307 . S
N847 Zn853 2.020 . S
C848 N847 1.333 . S
C848 C849 1.379 . S
C848 H866 0.952 . S
C849 C848 1.379 . S
C849 C850 1.390 . S
C849 H876 0.949 . S
C850 C849 1.390 . S
C850 C851 1.357 . S
C851 C850 1.357 . S
C851 C852 1.370 . S
C851 H877 0.950 . S
C852 N847 1.307 . S
C852 C851 1.370 . S
C852 H870 0.948 . S
Zn853 N847 2.020 . S
Zn853 O862 2.039 . S
Zn853 O868 2.034 . S
Zn853 O872 2.025 1_554 S
Zn853 O874 1.979 1_455 S
C854 O873 1.246 . S
C854 O874 1.281 . S
N855 C856 1.307 . S
N855 C857 1.333 1_554 S
N855 Zn861 2.020 . S
C856 N855 1.307 . S
C856 C860 1.370 . S
C856 H867 0.948 . S
C857 N855 1.333 1_556 S
C857 C858 1.379 1_455 S
C857 H865 0.952 . S
C858 C857 1.379 1_655 S
C858 C859 1.390 . S
C858 H878 0.949 . S
C859 C858 1.390 . S
C859 C860 1.357 1_656 S
C860 C856 1.370 . S
C860 C859 1.357 1_454 S
C860 H879 0.950 . S
Zn861 N855 2.020 . S
Zn861 O864 2.025 . S
Zn861 O869 2.024 . S
Zn861 O871 2.039 1_554 S
Zn861 O873 2.034 1_455 S
O862 C846 1.251 . S
O862 Zn853 2.039 . S
C863 O868 1.246 . S
C863 O869 1.249 . S
O864 C846 1.254 . S
O864 Zn861 2.025 . S
H865 C857 0.952 . S
H866 C848 0.952 . S
H867 C856 0.948 . S
O868 Zn853 2.034 . S
O868 C863 1.246 . S
O869 Zn861 2.024 . S
O869 C863 1.249 . S
H870 C852 0.948 . S
O871 Zn861 2.039 1_556 S
O871 C875 1.251 . S
O872 Zn853 2.025 1_556 S
O872 C875 1.254 . S
O873 C854 1.246 . S
O873 Zn861 2.034 1_655 S
O874 Zn853 1.979 1_655 S
O874 C854 1.281 . S
C875 O871 1.251 . S
C875 O872 1.254 . S
H876 C849 0.949 . S
H877 C851 0.950 . S
H878 C858 0.949 . S
H879 C860 0.950 . S
C880 C881 1.391 . S
C880 C882 1.394 . S
C880 H896 0.931 . S
C881 C880 1.391 . S
C881 C885 1.376 . S
C882 C880 1.394 . S
C882 C883 1.369 . S
C882 C886 1.531 . S
C883 C882 1.369 . S
C883 C884 1.410 . S
C883 C891 1.503 . S
C884 C883 1.410 . S
C884 C885 1.392 . S
C884 C887 1.511 . S
C885 C881 1.376 . S
C885 C884 1.392 . S
C885 H897 0.929 . S
C886 C882 1.531 . S
C886 H898 0.960 . S
C886 H899 0.962 . S
C886 H900 0.960 . S
C887 C884 1.511 . S
C887 H901 0.961 . S
C887 H902 0.961 . S
C887 H903 0.961 . S
C888 C889 1.370 . S
C888 C890 1.363 . S
C888 H904 0.931 1_455 S
C889 C888 1.370 . S
C889 C893 1.408 . S
C890 C888 1.363 . S
C890 C891 1.370 . S
C890 C894 1.524 1_455 S
C891 C883 1.503 . S
C891 C890 1.370 . S
C891 C892 1.403 . S
C892 C891 1.403 . S
C892 C893 1.404 . S
C892 C895 1.539 . S
C893 C889 1.408 . S
C893 C892 1.404 . S
C893 H905 0.930 . S
C894 C890 1.524 1_655 S
C894 H906 0.956 . S
C894 H907 0.961 1_655 S
C894 H908 0.961 . S
C895 C892 1.539 . S
C895 H909 0.958 . S
C895 H910 0.961 . S
C895 H911 0.960 . S
H896 C880 0.931 . S
H897 C885 0.929 . S
H898 C886 0.960 . S
H899 C886 0.962 . S
H900 C886 0.960 . S
H901 C887 0.961 . S
H902 C887 0.961 . S
H903 C887 0.961 . S
H904 C888 0.931 1_655 S
H905 C893 0.930 . S
H906 C894 0.956 . S
H907 C894 0.961 1_455 S
H908 C894 0.961 . S
H909 C895 0.958 . S
H910 C895 0.961 . S
H911 C895 0.960 . S
C912 C913 1.391 . S
C912 C914 1.394 . S
C912 H928 0.931 . S
C913 C912 1.391 . S
C913 C917 1.376 . S
C914 C912 1.394 . S
C914 C915 1.369 . S
C914 C918 1.531 . S
C915 C914 1.369 . S
C915 C916 1.410 . S
C915 C923 1.503 . S
C916 C915 1.410 . S
C916 C917 1.392 . S
C916 C919 1.511 . S
C917 C913 1.376 . S
C917 C916 1.392 . S
C917 H929 0.929 . S
C918 C914 1.531 . S
C918 H930 0.960 . S
C918 H931 0.962 . S
C918 H932 0.960 . S
C919 C916 1.511 . S
C919 H933 0.961 . S
C919 H934 0.961 . S
C919 H935 0.961 . S
C920 C921 1.370 . S
C920 C922 1.363 . S
C920 H936 0.931 . S
C921 C920 1.370 . S
C921 C925 1.408 . S
C922 C920 1.363 . S
C922 C923 1.370 . S
C922 C926 1.524 . S
C923 C915 1.503 . S
C923 C922 1.370 . S
C923 C924 1.403 . S
C924 C923 1.403 . S
C924 C925 1.404 . S
C924 C927 1.539 . S
C925 C921 1.408 . S
C925 C924 1.404 . S
C925 H937 0.930 . S
C926 C922 1.524 . S
C926 H938 0.956 . S
C926 H939 0.961 . S
C926 H940 0.961 . S
C927 C924 1.539 . S
C927 H941 0.958 . S
C927 H942 0.961 . S
C927 H943 0.960 . S
H928 C912 0.931 . S
H929 C917 0.929 . S
H930 C918 0.960 . S
H931 C918 0.962 . S
H932 C918 0.960 . S
H933 C919 0.961 . S
H934 C919 0.961 . S
H935 C919 0.961 . S
H936 C920 0.931 . S
H937 C925 0.930 . S
H938 C926 0.956 . S
H939 C926 0.961 . S
H940 C926 0.961 . S
H941 C927 0.958 . S
H942 C927 0.961 . S
H943 C927 0.960 . S
C944 C945 1.391 . S
C944 C946 1.394 . S
C944 H960 0.931 . S
C945 C944 1.391 . S
C945 C949 1.376 . S
C946 C944 1.394 . S
C946 C947 1.369 . S
C946 C950 1.531 . S
C947 C946 1.369 . S
C947 C948 1.410 . S
C947 C955 1.503 . S
C948 C947 1.410 . S
C948 C949 1.392 . S
C948 C951 1.511 . S
C949 C945 1.376 . S
C949 C948 1.392 . S
C949 H961 0.929 . S
C950 C946 1.531 . S
C950 H962 0.960 . S
C950 H963 0.962 . S
C950 H964 0.960 . S
C951 C948 1.511 . S
C951 H965 0.961 . S
C951 H966 0.961 . S
C951 H967 0.961 . S
C952 C953 1.370 . S
C952 C954 1.363 . S
C952 H968 0.931 . S
C953 C952 1.370 . S
C953 C957 1.408 . S
C954 C952 1.363 . S
C954 C955 1.370 . S
C954 C958 1.524 . S
C955 C947 1.503 . S
C955 C954 1.370 . S
C955 C956 1.403 . S
C956 C955 1.403 . S
C956 C957 1.404 . S
C956 C959 1.539 . S
C957 C953 1.408 . S
C957 C956 1.404 . S
C957 H969 0.930 . S
C958 C954 1.524 . S
C958 H970 0.956 . S
C958 H971 0.961 . S
C958 H972 0.961 . S
C959 C956 1.539 . S
C959 H973 0.958 . S
C959 H974 0.961 . S
C959 H975 0.960 . S
H960 C944 0.931 . S
H961 C949 0.929 . S
H962 C950 0.960 . S
H963 C950 0.962 . S
H964 C950 0.960 . S
H965 C951 0.961 . S
H966 C951 0.961 . S
H967 C951 0.961 . S
H968 C952 0.931 . S
H969 C957 0.930 . S
H970 C958 0.956 . S
H971 C958 0.961 . S
H972 C958 0.961 . S
H973 C959 0.958 . S
H974 C959 0.961 . S
H975 C959 0.960 . S
C976 C977 1.391 . S
C976 C978 1.394 . S
C976 H992 0.931 . S
C977 C976 1.391 . S
C977 C981 1.376 . S
C978 C976 1.394 . S
C978 C979 1.369 . S
C978 C982 1.531 . S
C979 C978 1.369 . S
C979 C980 1.410 . S
C979 C987 1.503 . S
C980 C979 1.410 . S
C980 C981 1.392 . S
C980 C983 1.511 . S
C981 C977 1.376 . S
C981 C980 1.392 . S
C981 H993 0.929 . S
C982 C978 1.531 . S
C982 H994 0.960 . S
C982 H995 0.962 . S
C982 H996 0.960 . S
C983 C980 1.511 . S
C983 H997 0.961 . S
C983 H998 0.961 . S
C983 H999 0.961 . S
C984 C985 1.370 . S
C984 C986 1.363 . S
C984 H1000 0.931 . S
C985 C984 1.370 . S
C985 C989 1.408 . S
C986 C984 1.363 . S
C986 C987 1.370 . S
C986 C990 1.524 . S
C987 C979 1.503 . S
C987 C986 1.370 . S
C987 C988 1.403 . S
C988 C987 1.403 . S
C988 C989 1.404 . S
C988 C991 1.539 . S
C989 C985 1.408 . S
C989 C988 1.404 . S
C989 H1001 0.930 . S
C990 C986 1.524 . S
C990 H1002 0.956 . S
C990 H1003 0.961 . S
C990 H1004 0.961 . S
C991 C988 1.539 . S
C991 H1005 0.958 . S
C991 H1006 0.961 . S
C991 H1007 0.960 . S
H992 C976 0.931 . S
H993 C981 0.929 . S
H994 C982 0.960 . S
H995 C982 0.962 . S
H996 C982 0.960 . S
H997 C983 0.961 . S
H998 C983 0.961 . S
H999 C983 0.961 . S
H1000 C984 0.931 . S
H1001 C989 0.930 . S
H1002 C990 0.956 . S
H1003 C990 0.961 . S
H1004 C990 0.961 . S
H1005 C991 0.958 . S
H1006 C991 0.961 . S
H1007 C991 0.960 . S
C1008 C1009 1.391 . S
C1008 C1010 1.394 . S
C1008 H1024 0.931 1_455 S
C1009 C1008 1.391 . S
C1009 C1013 1.376 . S
C1010 C1008 1.394 . S
C1010 C1011 1.369 . S
C1010 C1014 1.531 1_455 S
C1011 C1010 1.369 . S
C1011 C1012 1.410 . S
C1011 C1019 1.503 . S
C1012 C1011 1.410 . S
C1012 C1013 1.392 . S
C1012 C1015 1.511 . S
C1013 C1009 1.376 . S
C1013 C1012 1.392 . S
C1013 H1025 0.929 . S
C1014 C1010 1.531 1_655 S
C1014 H1026 0.960 . S
C1014 H1027 0.962 . S
C1014 H1028 0.960 . S
C1015 C1012 1.511 . S
C1015 H1029 0.961 . S
C1015 H1030 0.961 . S
C1015 H1031 0.961 . S
C1016 C1017 1.370 . S
C1016 C1018 1.363 . S
C1016 H1032 0.931 . S
C1017 C1016 1.370 . S
C1017 C1021 1.408 . S
C1018 C1016 1.363 . S
C1018 C1019 1.370 . S
C1018 C1022 1.524 . S
C1019 C1011 1.503 . S
C1019 C1018 1.370 . S
C1019 C1020 1.403 . S
C1020 C1019 1.403 . S
C1020 C1021 1.404 . S
C1020 C1023 1.539 . S
C1021 C1017 1.408 . S
C1021 C1020 1.404 . S
C1021 H1033 0.930 . S
C1022 C1018 1.524 . S
C1022 H1034 0.956 . S
C1022 H1035 0.961 . S
C1022 H1036 0.961 . S
C1023 C1020 1.539 . S
C1023 H1037 0.958 . S
C1023 H1038 0.961 . S
C1023 H1039 0.960 . S
H1024 C1008 0.931 1_655 S
H1025 C1013 0.929 . S
H1026 C1014 0.960 . S
H1027 C1014 0.962 . S
H1028 C1014 0.960 . S
H1029 C1015 0.961 . S
H1030 C1015 0.961 . S
H1031 C1015 0.961 . S
H1032 C1016 0.931 . S
H1033 C1021 0.930 . S
H1034 C1022 0.956 . S
H1035 C1022 0.961 . S
H1036 C1022 0.961 . S
H1037 C1023 0.958 . S
H1038 C1023 0.961 . S
H1039 C1023 0.960 . S
C1040 C1041 1.391 . S
C1040 C1042 1.394 . S
C1040 H1056 0.931 . S
C1041 C1040 1.391 . S
C1041 C1045 1.376 . S
C1042 C1040 1.394 . S
C1042 C1043 1.369 . S
C1042 C1046 1.531 . S
C1043 C1042 1.369 . S
C1043 C1044 1.410 . S
C1043 C1051 1.503 . S
C1044 C1043 1.410 . S
C1044 C1045 1.392 . S
C1044 C1047 1.511 . S
C1045 C1041 1.376 . S
C1045 C1044 1.392 . S
C1045 H1057 0.929 . S
C1046 C1042 1.531 . S
C1046 H1058 0.960 . S
C1046 H1059 0.962 . S
C1046 H1060 0.960 . S
C1047 C1044 1.511 . S
C1047 H1061 0.961 . S
C1047 H1062 0.961 . S
C1047 H1063 0.961 . S
C1048 C1049 1.370 . S
C1048 C1050 1.363 . S
C1048 H1064 0.931 . S
C1049 C1048 1.370 . S
C1049 C1053 1.408 . S
C1050 C1048 1.363 . S
C1050 C1051 1.370 . S
C1050 C1054 1.524 . S
C1051 C1043 1.503 . S
C1051 C1050 1.370 . S
C1051 C1052 1.403 . S
C1052 C1051 1.403 . S
C1052 C1053 1.404 . S
C1052 C1055 1.539 . S
C1053 C1049 1.408 . S
C1053 C1052 1.404 . S
C1053 H1065 0.930 . S
C1054 C1050 1.524 . S
C1054 H1066 0.956 . S
C1054 H1067 0.961 . S
C1054 H1068 0.961 . S
C1055 C1052 1.539 . S
C1055 H1069 0.958 . S
C1055 H1070 0.961 . S
C1055 H1071 0.960 . S
H1056 C1040 0.931 . S
H1057 C1045 0.929 . S
H1058 C1046 0.960 . S
H1059 C1046 0.962 . S
H1060 C1046 0.960 . S
H1061 C1047 0.961 . S
H1062 C1047 0.961 . S
H1063 C1047 0.961 . S
H1064 C1048 0.931 . S
H1065 C1053 0.930 . S
H1066 C1054 0.956 . S
H1067 C1054 0.961 . S
H1068 C1054 0.961 . S
H1069 C1055 0.958 . S
H1070 C1055 0.961 . S
H1071 C1055 0.960 . S
C1072 C1073 1.391 . S
C1072 C1074 1.394 . S
C1072 H1088 0.931 . S
C1073 C1072 1.391 . S
C1073 C1077 1.376 . S
C1074 C1072 1.394 . S
C1074 C1075 1.369 . S
C1074 C1078 1.531 . S
C1075 C1074 1.369 . S
C1075 C1076 1.410 . S
C1075 C1083 1.503 . S
C1076 C1075 1.410 . S
C1076 C1077 1.392 . S
C1076 C1079 1.511 . S
C1077 C1073 1.376 . S
C1077 C1076 1.392 . S
C1077 H1089 0.929 . S
C1078 C1074 1.531 . S
C1078 H1090 0.960 . S
C1078 H1091 0.962 . S
C1078 H1092 0.960 . S
C1079 C1076 1.511 . S
C1079 H1093 0.961 . S
C1079 H1094 0.961 . S
C1079 H1095 0.961 . S
C1080 C1081 1.370 1_554 S
C1080 C1082 1.363 1_554 S
C1080 H1096 0.931 . S
C1081 C1080 1.370 1_556 S
C1081 C1085 1.408 . S
C1082 C1080 1.363 1_556 S
C1082 C1083 1.370 . S
C1082 C1086 1.524 1_556 S
C1083 C1075 1.503 . S
C1083 C1082 1.370 . S
C1083 C1084 1.403 . S
C1084 C1083 1.403 . S
C1084 C1085 1.404 . S
C1084 C1087 1.539 . S
C1085 C1081 1.408 . S
C1085 C1084 1.404 . S
C1085 H1097 0.930 . S
C1086 C1082 1.524 1_554 S
C1086 H1098 0.956 1_554 S
C1086 H1099 0.961 . S
C1086 H1100 0.961 . S
C1087 C1084 1.539 . S
C1087 H1101 0.958 . S
C1087 H1102 0.961 . S
C1087 H1103 0.960 . S
H1088 C1072 0.931 . S
H1089 C1077 0.929 . S
H1090 C1078 0.960 . S
H1091 C1078 0.962 . S
H1092 C1078 0.960 . S
H1093 C1079 0.961 . S
H1094 C1079 0.961 . S
H1095 C1079 0.961 . S
H1096 C1080 0.931 . S
H1097 C1085 0.930 . S
H1098 C1086 0.956 1_556 S
H1099 C1086 0.961 . S
H1100 C1086 0.961 . S
H1101 C1087 0.958 . S
H1102 C1087 0.961 . S
H1103 C1087 0.960 . S
C1104 C1105 1.391 . S
C1104 C1106 1.394 . S
C1104 H1120 0.931 . S
C1105 C1104 1.391 . S
C1105 C1109 1.376 . S
C1106 C1104 1.394 . S
C1106 C1107 1.369 . S
C1106 C1110 1.531 . S
C1107 C1106 1.369 . S
C1107 C1108 1.410 . S
C1107 C1115 1.503 . S
C1108 C1107 1.410 . S
C1108 C1109 1.392 . S
C1108 C1111 1.511 . S
C1109 C1105 1.376 . S
C1109 C1108 1.392 . S
C1109 H1121 0.929 . S
C1110 C1106 1.531 . S
C1110 H1122 0.960 . S
C1110 H1123 0.962 . S
C1110 H1124 0.960 . S
C1111 C1108 1.511 . S
C1111 H1125 0.961 . S
C1111 H1126 0.961 . S
C1111 H1127 0.961 . S
C1112 C1113 1.370 . S
C1112 C1114 1.363 . S
C1112 H1128 0.931 . S
C1113 C1112 1.370 . S
C1113 C1117 1.408 . S
C1114 C1112 1.363 . S
C1114 C1115 1.370 . S
C1114 C1118 1.524 . S
C1115 C1107 1.503 . S
C1115 C1114 1.370 . S
C1115 C1116 1.403 . S
C1116 C1115 1.403 . S
C1116 C1117 1.404 . S
C1116 C1119 1.539 . S
C1117 C1113 1.408 . S
C1117 C1116 1.404 . S
C1117 H1129 0.930 . S
C1118 C1114 1.524 . S
C1118 H1130 0.956 . S
C1118 H1131 0.961 . S
C1118 H1132 0.961 . S
C1119 C1116 1.539 . S
C1119 H1133 0.958 . S
C1119 H1134 0.961 . S
C1119 H1135 0.960 . S
H1120 C1104 0.931 . S
H1121 C1109 0.929 . S
H1122 C1110 0.960 . S
H1123 C1110 0.962 . S
H1124 C1110 0.960 . S
H1125 C1111 0.961 . S
H1126 C1111 0.961 . S
H1127 C1111 0.961 . S
H1128 C1112 0.931 . S
H1129 C1117 0.930 . S
H1130 C1118 0.956 . S
H1131 C1118 0.961 . S
H1132 C1118 0.961 . S
H1133 C1119 0.958 . S
H1134 C1119 0.961 . S
H1135 C1119 0.960 . S
C1136 C1137 1.391 . S
C1136 C1138 1.394 1_545 S
C1136 H1152 0.931 1_545 S
C1137 C1136 1.391 . S
C1137 C1141 1.376 . S
C1138 C1136 1.394 1_565 S
C1138 C1139 1.369 1_565 S
C1138 C1142 1.531 . S
C1139 C1138 1.369 1_545 S
C1139 C1140 1.410 . S
C1139 C1147 1.503 . S
C1140 C1139 1.410 . S
C1140 C1141 1.392 . S
C1140 C1143 1.511 . S
C1141 C1137 1.376 . S
C1141 C1140 1.392 . S
C1141 H1153 0.929 . S
C1142 C1138 1.531 . S
C1142 H1154 0.960 . S
C1142 H1155 0.962 . S
C1142 H1156 0.960 . S
C1143 C1140 1.511 . S
C1143 H1157 0.961 . S
C1143 H1158 0.961 . S
C1143 H1159 0.961 . S
C1144 C1145 1.366 1_545 S
C1144 C1146 1.363 . S
C1144 H1160 0.931 . S
C1145 C1144 1.366 1_565 S
C1145 C1149 1.412 . S
C1146 C1144 1.363 . S
C1146 C1147 1.370 . S
C1146 C1150 1.524 . S
C1147 C1139 1.503 . S
C1147 C1146 1.370 . S
C1147 C1148 1.403 1_545 S
C1148 C1147 1.403 1_565 S
C1148 C1149 1.404 . S
C1148 C1151 1.539 . S
C1149 C1145 1.412 . S
C1149 C1148 1.404 . S
C1149 H1161 0.930 . S
C1150 C1146 1.524 . S
C1150 H1162 0.956 . S
C1150 H1163 0.961 . S
C1150 H1164 0.961 . S
C1151 C1148 1.539 . S
C1151 H1165 0.958 . S
C1151 H1166 0.961 . S
C1151 H1167 0.960 . S
H1152 C1136 0.931 1_565 S
H1153 C1141 0.929 . S
H1154 C1142 0.960 . S
H1155 C1142 0.962 . S
H1156 C1142 0.960 . S
H1157 C1143 0.961 . S
H1158 C1143 0.961 . S
H1159 C1143 0.961 . S
H1160 C1144 0.931 . S
H1161 C1149 0.930 . S
H1162 C1150 0.956 . S
H1163 C1150 0.961 . S
H1164 C1150 0.961 . S
H1165 C1151 0.958 . S
H1166 C1151 0.961 . S
H1167 C1151 0.960 . S
C1168 C1169 1.391 . S
C1168 C1170 1.394 . S
C1168 H1184 0.931 . S
C1169 C1168 1.391 . S
C1169 C1173 1.376 . S
C1170 C1168 1.394 . S
C1170 C1171 1.369 . S
C1170 C1174 1.531 . S
C1171 C1170 1.369 . S
C1171 C1172 1.410 . S
C1171 C1179 1.503 . S
C1172 C1171 1.410 . S
C1172 C1173 1.392 . S
C1172 C1175 1.511 . S
C1173 C1169 1.376 . S
C1173 C1172 1.392 . S
C1173 H1185 0.929 . S
C1174 C1170 1.531 . S
C1174 H1186 0.960 . S
C1174 H1187 0.962 . S
C1174 H1188 0.960 . S
C1175 C1172 1.511 . S
C1175 H1189 0.961 . S
C1175 H1190 0.961 . S
C1175 H1191 0.961 . S
C1176 C1177 1.370 . S
C1176 C1178 1.363 . S
C1176 H1192 0.931 . S
C1177 C1176 1.370 . S
C1177 C1181 1.408 . S
C1178 C1176 1.363 . S
C1178 C1179 1.370 . S
C1178 C1182 1.524 . S
C1179 C1171 1.503 . S
C1179 C1178 1.370 . S
C1179 C1180 1.403 . S
C1180 C1179 1.403 . S
C1180 C1181 1.404 . S
C1180 C1183 1.539 . S
C1181 C1177 1.408 . S
C1181 C1180 1.404 . S
C1181 H1193 0.930 . S
C1182 C1178 1.524 . S
C1182 H1194 0.956 . S
C1182 H1195 0.961 . S
C1182 H1196 0.961 . S
C1183 C1180 1.539 . S
C1183 H1197 0.958 . S
C1183 H1198 0.961 . S
C1183 H1199 0.960 . S
H1184 C1168 0.931 . S
H1185 C1173 0.929 . S
H1186 C1174 0.960 . S
H1187 C1174 0.962 . S
H1188 C1174 0.960 . S
H1189 C1175 0.961 . S
H1190 C1175 0.961 . S
H1191 C1175 0.961 . S
H1192 C1176 0.931 . S
H1193 C1181 0.930 . S
H1194 C1182 0.956 . S
H1195 C1182 0.961 . S
H1196 C1182 0.961 . S
H1197 C1183 0.958 . S
H1198 C1183 0.961 . S
H1199 C1183 0.960 . S
C1200 C1201 1.391 1_565 S
C1200 C1202 1.394 . S
C1200 H1216 0.931 . S
C1201 C1200 1.391 1_545 S
C1201 C1205 1.376 . S
C1202 C1200 1.394 . S
C1202 C1203 1.369 1_565 S
C1202 C1206 1.531 . S
C1203 C1202 1.369 1_545 S
C1203 C1204 1.410 . S
C1203 C1211 1.503 . S
C1204 C1203 1.410 . S
C1204 C1205 1.392 . S
C1204 C1207 1.511 . S
C1205 C1201 1.376 . S
C1205 C1204 1.392 . S
C1205 H1217 0.929 . S
C1206 C1202 1.531 . S
C1206 H1218 0.960 . S
C1206 H1219 0.962 . S
C1206 H1220 0.960 . S
C1207 C1204 1.511 . S
C1207 H1221 0.961 . S
C1207 H1222 0.961 . S
C1207 H1223 0.961 . S
C1208 C1209 1.370 . S
C1208 C1210 1.363 . S
C1208 H1224 0.931 . S
C1209 C1208 1.370 . S
C1209 C1213 1.408 . S
C1210 C1208 1.363 . S
C1210 C1211 1.370 . S
C1210 C1214 1.524 . S
C1211 C1203 1.503 . S
C1211 C1210 1.370 . S
C1211 C1212 1.403 1_545 S
C1212 C1211 1.403 1_565 S
C1212 C1213 1.404 1_565 S
C1212 C1215 1.539 . S
C1213 C1209 1.408 . S
C1213 C1212 1.404 1_545 S
C1213 H1225 0.930 1_545 S
C1214 C1210 1.524 . S
C1214 H1226 0.956 . S
C1214 H1227 0.961 . S
C1214 H1228 0.961 . S
C1215 C1212 1.539 . S
C1215 H1229 0.958 . S
C1215 H1230 0.961 . S
C1215 H1231 0.960 . S
H1216 C1200 0.931 . S
H1217 C1205 0.929 . S
H1218 C1206 0.960 . S
H1219 C1206 0.962 . S
H1220 C1206 0.960 . S
H1221 C1207 0.961 . S
H1222 C1207 0.961 . S
H1223 C1207 0.961 . S
H1224 C1208 0.931 . S
H1225 C1213 0.930 1_565 S
H1226 C1214 0.956 . S
H1227 C1214 0.961 . S
H1228 C1214 0.961 . S
H1229 C1215 0.958 . S
H1230 C1215 0.961 . S
H1231 C1215 0.960 . S
C1232 C1233 1.391 . S
C1232 C1234 1.394 . S
C1232 H1248 0.931 . S
C1233 C1232 1.391 . S
C1233 C1237 1.376 . S
C1234 C1232 1.394 . S
C1234 C1235 1.369 . S
C1234 C1238 1.531 . S
C1235 C1234 1.369 . S
C1235 C1236 1.410 . S
C1235 C1243 1.503 . S
C1236 C1235 1.410 . S
C1236 C1237 1.392 . S
C1236 C1239 1.511 . S
C1237 C1233 1.376 . S
C1237 C1236 1.392 . S
C1237 H1249 0.929 . S
C1238 C1234 1.531 . S
C1238 H1250 0.960 . S
C1238 H1251 0.962 . S
C1238 H1252 0.960 . S
C1239 C1236 1.511 . S
C1239 H1253 0.961 . S
C1239 H1254 0.961 . S
C1239 H1255 0.961 . S
C1240 C1241 1.370 . S
C1240 C1242 1.363 . S
C1240 H1256 0.931 . S
C1241 C1240 1.370 . S
C1241 C1245 1.408 . S
C1242 C1240 1.363 . S
C1242 C1243 1.370 . S
C1242 C1246 1.524 . S
C1243 C1235 1.503 . S
C1243 C1242 1.370 . S
C1243 C1244 1.403 . S
C1244 C1243 1.403 . S
C1244 C1245 1.404 . S
C1244 C1247 1.539 . S
C1245 C1241 1.408 . S
C1245 C1244 1.404 . S
C1245 H1257 0.930 . S
C1246 C1242 1.524 . S
C1246 H1258 0.956 . S
C1246 H1259 0.961 . S
C1246 H1260 0.961 . S
C1247 C1244 1.539 . S
C1247 H1261 0.958 . S
C1247 H1262 0.961 . S
C1247 H1263 0.960 . S
H1248 C1232 0.931 . S
H1249 C1237 0.929 . S
H1250 C1238 0.960 . S
H1251 C1238 0.962 . S
H1252 C1238 0.960 . S
H1253 C1239 0.961 . S
H1254 C1239 0.961 . S
H1255 C1239 0.961 . S
H1256 C1240 0.931 . S
H1257 C1245 0.930 . S
H1258 C1246 0.956 . S
H1259 C1246 0.961 . S
H1260 C1246 0.961 . S
H1261 C1247 0.958 . S
H1262 C1247 0.961 . S
H1263 C1247 0.960 . S
C1264 C1265 1.391 . S
C1264 C1266 1.394 . S
C1264 H1280 0.931 . S
C1265 C1264 1.391 . S
C1265 C1269 1.376 . S
C1266 C1264 1.394 . S
C1266 C1267 1.369 . S
C1266 C1270 1.531 . S
C1267 C1266 1.369 . S
C1267 C1268 1.410 . S
C1267 C1275 1.503 . S
C1268 C1267 1.410 . S
C1268 C1269 1.392 . S
C1268 C1271 1.511 . S
C1269 C1265 1.376 . S
C1269 C1268 1.392 . S
C1269 H1281 0.929 . S
C1270 C1266 1.531 . S
C1270 H1282 0.960 . S
C1270 H1283 0.962 . S
C1270 H1284 0.960 . S
C1271 C1268 1.511 . S
C1271 H1285 0.961 . S
C1271 H1286 0.961 . S
C1271 H1287 0.961 . S
C1272 C1273 1.370 . S
C1272 C1274 1.363 . S
C1272 H1288 0.931 . S
C1273 C1272 1.370 . S
C1273 C1277 1.408 . S
C1274 C1272 1.363 . S
C1274 C1275 1.370 . S
C1274 C1278 1.524 . S
C1275 C1267 1.503 . S
C1275 C1274 1.370 . S
C1275 C1276 1.403 . S
C1276 C1275 1.403 . S
C1276 C1277 1.404 . S
C1276 C1279 1.539 . S
C1277 C1273 1.408 . S
C1277 C1276 1.404 . S
C1277 H1289 0.930 . S
C1278 C1274 1.524 . S
C1278 H1290 0.956 . S
C1278 H1291 0.961 1_545 S
C1278 H1292 0.961 1_545 S
C1279 C1276 1.539 . S
C1279 H1293 0.958 . S
C1279 H1294 0.961 . S
C1279 H1295 0.960 . S
H1280 C1264 0.931 . S
H1281 C1269 0.929 . S
H1282 C1270 0.960 . S
H1283 C1270 0.962 . S
H1284 C1270 0.960 . S
H1285 C1271 0.961 . S
H1286 C1271 0.961 . S
H1287 C1271 0.961 . S
H1288 C1272 0.931 . S
H1289 C1277 0.930 . S
H1290 C1278 0.956 . S
H1291 C1278 0.961 1_565 S
H1292 C1278 0.961 1_565 S
H1293 C1279 0.958 . S
H1294 C1279 0.961 . S
H1295 C1279 0.960 . S
C1296 C1297 1.391 . S
C1296 C1298 1.394 . S
C1296 H1312 0.931 . S
C1297 C1296 1.391 . S
C1297 C1301 1.376 . S
C1298 C1296 1.394 . S
C1298 C1299 1.369 . S
C1298 C1302 1.531 . S
C1299 C1298 1.369 . S
C1299 C1300 1.410 . S
C1299 C1307 1.503 . S
C1300 C1299 1.410 . S
C1300 C1301 1.392 . S
C1300 C1303 1.511 . S
C1301 C1297 1.376 . S
C1301 C1300 1.392 . S
C1301 H1313 0.929 . S
C1302 C1298 1.531 . S
C1302 H1314 0.960 . S
C1302 H1315 0.962 . S
C1302 H1316 0.960 . S
C1303 C1300 1.511 . S
C1303 H1317 0.961 . S
C1303 H1318 0.961 . S
C1303 H1319 0.961 . S
C1304 C1305 1.370 . S
C1304 C1306 1.363 . S
C1304 H1320 0.931 . S
C1305 C1304 1.370 . S
C1305 C1309 1.408 . S
C1306 C1304 1.363 . S
C1306 C1307 1.370 . S
C1306 C1310 1.524 . S
C1307 C1299 1.503 . S
C1307 C1306 1.370 . S
C1307 C1308 1.403 . S
C1308 C1307 1.403 . S
C1308 C1309 1.404 . S
C1308 C1311 1.539 . S
C1309 C1305 1.408 . S
C1309 C1308 1.404 . S
C1309 H1321 0.930 . S
C1310 C1306 1.524 . S
C1310 H1322 0.956 . S
C1310 H1323 0.961 . S
C1310 H1324 0.961 . S
C1311 C1308 1.539 . S
C1311 H1325 0.958 . S
C1311 H1326 0.961 . S
C1311 H1327 0.960 . S
H1312 C1296 0.931 . S
H1313 C1301 0.929 . S
H1314 C1302 0.960 . S
H1315 C1302 0.962 . S
H1316 C1302 0.960 . S
H1317 C1303 0.961 . S
H1318 C1303 0.961 . S
H1319 C1303 0.961 . S
H1320 C1304 0.931 . S
H1321 C1309 0.930 . S
H1322 C1310 0.956 . S
H1323 C1310 0.961 . S
H1324 C1310 0.961 . S
H1325 C1311 0.958 . S
H1326 C1311 0.961 . S
H1327 C1311 0.960 . S
C1328 C1329 1.391 1_565 S
C1328 C1330 1.394 . S
C1328 H1344 0.931 . S
C1329 C1328 1.391 1_545 S
C1329 C1333 1.376 . S
C1330 C1328 1.394 . S
C1330 C1331 1.369 . S
C1330 C1334 1.531 . S
C1331 C1330 1.369 . S
C1331 C1332 1.410 1_565 S
C1331 C1339 1.503 . S
C1332 C1331 1.410 1_545 S
C1332 C1333 1.392 . S
C1332 C1335 1.511 . S
C1333 C1329 1.376 . S
C1333 C1332 1.392 . S
C1333 H1345 0.929 . S
C1334 C1330 1.531 . S
C1334 H1346 0.960 . S
C1334 H1347 0.962 . S
C1334 H1348 0.960 . S
C1335 C1332 1.511 . S
C1335 H1349 0.961 . S
C1335 H1350 0.961 . S
C1335 H1351 0.961 . S
C1336 C1337 1.370 . S
C1336 C1338 1.363 1_565 S
C1336 H1352 0.931 1_565 S
C1337 C1336 1.370 . S
C1337 C1341 1.408 . S
C1338 C1336 1.363 1_545 S
C1338 C1339 1.370 1_545 S
C1338 C1342 1.524 . S
C1339 C1331 1.503 . S
C1339 C1338 1.370 1_565 S
C1339 C1340 1.403 . S
C1340 C1339 1.403 . S
C1340 C1341 1.404 . S
C1340 C1343 1.539 . S
C1341 C1337 1.408 . S
C1341 C1340 1.404 . S
C1341 H1353 0.930 . S
C1342 C1338 1.524 . S
C1342 H1354 0.956 . S
C1342 H1355 0.961 . S
C1342 H1356 0.961 . S
C1343 C1340 1.539 . S
C1343 H1357 0.958 . S
C1343 H1358 0.961 . S
C1343 H1359 0.960 . S
H1344 C1328 0.931 . S
H1345 C1333 0.929 . S
H1346 C1334 0.960 . S
H1347 C1334 0.962 . S
H1348 C1334 0.960 . S
H1349 C1335 0.961 . S
H1350 C1335 0.961 . S
H1351 C1335 0.961 . S
H1352 C1336 0.931 1_545 S
H1353 C1341 0.930 . S
H1354 C1342 0.956 . S
H1355 C1342 0.961 . S
H1356 C1342 0.961 . S
H1357 C1343 0.958 . S
H1358 C1343 0.961 . S
H1359 C1343 0.960 . S
C1360 C1361 1.391 . S
C1360 C1362 1.394 . S
C1360 H1376 0.931 . S
C1361 C1360 1.391 . S
C1361 C1365 1.376 . S
C1362 C1360 1.394 . S
C1362 C1363 1.369 . S
C1362 C1366 1.531 . S
C1363 C1362 1.369 . S
C1363 C1364 1.410 . S
C1363 C1371 1.503 . S
C1364 C1363 1.410 . S
C1364 C1365 1.392 . S
C1364 C1367 1.511 . S
C1365 C1361 1.376 . S
C1365 C1364 1.392 . S
C1365 H1377 0.929 . S
C1366 C1362 1.531 . S
C1366 H1378 0.960 . S
C1366 H1379 0.962 . S
C1366 H1380 0.960 . S
C1367 C1364 1.511 . S
C1367 H1381 0.961 . S
C1367 H1382 0.961 . S
C1367 H1383 0.961 . S
C1368 C1369 1.370 . S
C1368 C1370 1.363 . S
C1368 H1384 0.931 . S
C1369 C1368 1.370 . S
C1369 C1373 1.408 . S
C1370 C1368 1.363 . S
C1370 C1371 1.370 . S
C1370 C1374 1.524 . S
C1371 C1363 1.503 . S
C1371 C1370 1.370 . S
C1371 C1372 1.403 . S
C1372 C1371 1.403 . S
C1372 C1373 1.404 . S
C1372 C1375 1.539 . S
C1373 C1369 1.408 . S
C1373 C1372 1.404 . S
C1373 H1385 0.930 . S
C1374 C1370 1.524 . S
C1374 H1386 0.956 . S
C1374 H1387 0.961 . S
C1374 H1388 0.961 . S
C1375 C1372 1.539 . S
C1375 H1389 0.958 . S
C1375 H1390 0.961 . S
C1375 H1391 0.960 . S
H1376 C1360 0.931 . S
H1377 C1365 0.929 . S
H1378 C1366 0.960 . S
H1379 C1366 0.962 . S
H1380 C1366 0.960 . S
H1381 C1367 0.961 . S
H1382 C1367 0.961 . S
H1383 C1367 0.961 . S
H1384 C1368 0.931 . S
H1385 C1373 0.930 . S
H1386 C1374 0.956 . S
H1387 C1374 0.961 . S
H1388 C1374 0.961 . S
H1389 C1375 0.958 . S
H1390 C1375 0.961 . S
H1391 C1375 0.960 . S
C1392 C1393 1.391 . S
C1392 C1394 1.394 . S
C1392 H1408 0.931 . S
C1393 C1392 1.391 . S
C1393 C1397 1.376 . S
C1394 C1392 1.394 . S
C1394 C1395 1.369 . S
C1394 C1398 1.531 . S
C1395 C1394 1.369 . S
C1395 C1396 1.410 . S
C1395 C1403 1.503 . S
C1396 C1395 1.410 . S
C1396 C1397 1.392 . S
C1396 C1399 1.511 1_554 S
C1397 C1393 1.376 . S
C1397 C1396 1.392 . S
C1397 H1409 0.929 . S
C1398 C1394 1.531 . S
C1398 H1410 0.960 . S
C1398 H1411 0.962 . S
C1398 H1412 0.960 . S
C1399 C1396 1.511 1_556 S
C1399 H1413 0.975 . S
C1399 H1414 0.961 . S
C1399 H1415 0.961 . S
C1400 C1401 1.370 1_554 S
C1400 C1402 1.363 . S
C1400 H1416 0.931 . S
C1401 C1400 1.370 1_556 S
C1401 C1405 1.408 . S
C1402 C1400 1.363 . S
C1402 C1403 1.370 . S
C1402 C1406 1.524 . S
C1403 C1395 1.503 . S
C1403 C1402 1.370 . S
C1403 C1404 1.403 1_554 S
C1404 C1403 1.403 1_556 S
C1404 C1405 1.404 . S
C1404 C1407 1.539 . S
C1405 C1401 1.408 . S
C1405 C1404 1.404 . S
C1405 H1417 0.930 . S
C1406 C1402 1.524 . S
C1406 H1418 0.956 . S
C1406 H1419 0.961 . S
C1406 H1420 0.961 . S
C1407 C1404 1.539 . S
C1407 H1421 0.958 . S
C1407 H1422 0.961 . S
C1407 H1423 0.960 . S
H1408 C1392 0.931 . S
H1409 C1397 0.929 . S
H1410 C1398 0.960 . S
H1411 C1398 0.962 . S
H1412 C1398 0.960 . S
H1413 C1399 0.975 . S
H1414 C1399 0.961 . S
H1415 C1399 0.961 . S
H1416 C1400 0.931 . S
H1417 C1405 0.930 . S
H1418 C1406 0.956 . S
H1419 C1406 0.961 . S
H1420 C1406 0.961 . S
H1421 C1407 0.958 . S
H1422 C1407 0.961 . S
H1423 C1407 0.960 . S
C1424 C1425 1.391 . S
C1424 C1426 1.394 . S
C1424 H1440 0.931 . S
C1425 C1424 1.391 . S
C1425 C1429 1.376 . S
C1426 C1424 1.394 . S
C1426 C1427 1.369 . S
C1426 C1430 1.531 . S
C1427 C1426 1.369 . S
C1427 C1428 1.410 . S
C1427 C1435 1.503 . S
C1428 C1427 1.410 . S
C1428 C1429 1.392 . S
C1428 C1431 1.511 . S
C1429 C1425 1.376 . S
C1429 C1428 1.392 . S
C1429 H1441 0.929 . S
C1430 C1426 1.531 . S
C1430 H1442 0.960 . S
C1430 H1443 0.962 . S
C1430 H1444 0.960 . S
C1431 C1428 1.511 . S
C1431 H1445 0.961 . S
C1431 H1446 0.961 . S
C1431 H1447 0.961 . S
C1432 C1433 1.370 . S
C1432 C1434 1.363 . S
C1432 H1448 0.931 . S
C1433 C1432 1.370 . S
C1433 C1437 1.408 . S
C1434 C1432 1.363 . S
C1434 C1435 1.370 . S
C1434 C1438 1.524 . S
C1435 C1427 1.503 . S
C1435 C1434 1.370 . S
C1435 C1436 1.403 . S
C1436 C1435 1.403 . S
C1436 C1437 1.404 . S
C1436 C1439 1.539 . S
C1437 C1433 1.408 . S
C1437 C1436 1.404 . S
C1437 H1449 0.930 . S
C1438 C1434 1.524 . S
C1438 H1450 0.956 . S
C1438 H1451 0.961 . S
C1438 H1452 0.961 1_554 S
C1439 C1436 1.539 . S
C1439 H1453 0.958 . S
C1439 H1454 0.961 . S
C1439 H1455 0.960 . S
H1440 C1424 0.931 . S
H1441 C1429 0.929 . S
H1442 C1430 0.960 . S
H1443 C1430 0.962 . S
H1444 C1430 0.960 . S
H1445 C1431 0.961 . S
H1446 C1431 0.961 . S
H1447 C1431 0.961 . S
H1448 C1432 0.931 . S
H1449 C1437 0.930 . S
H1450 C1438 0.956 . S
H1451 C1438 0.961 . S
H1452 C1438 0.961 1_556 S
H1453 C1439 0.958 . S
H1454 C1439 0.961 . S
H1455 C1439 0.960 . S
C1456 C1457 1.391 . S
C1456 C1458 1.394 . S
C1456 H1472 0.931 . S
C1457 C1456 1.391 . S
C1457 C1461 1.376 . S
C1458 C1456 1.394 . S
C1458 C1459 1.369 . S
C1458 C1462 1.531 . S
C1459 C1458 1.369 . S
C1459 C1460 1.410 . S
C1459 C1467 1.503 . S
C1460 C1459 1.410 . S
C1460 C1461 1.392 . S
C1460 C1463 1.511 . S
C1461 C1457 1.376 . S
C1461 C1460 1.392 . S
C1461 H1473 0.929 . S
C1462 C1458 1.531 . S
C1462 H1474 0.960 . S
C1462 H1475 0.962 . S
C1462 H1476 0.960 . S
C1463 C1460 1.511 . S
C1463 H1477 0.961 . S
C1463 H1478 0.961 . S
C1463 H1479 0.961 . S
C1464 C1465 1.370 . S
C1464 C1466 1.363 . S
C1464 H1480 0.931 . S
C1465 C1464 1.370 . S
C1465 C1469 1.408 . S
C1466 C1464 1.363 . S
C1466 C1467 1.370 . S
C1466 C1470 1.524 . S
C1467 C1459 1.503 . S
C1467 C1466 1.370 . S
C1467 C1468 1.403 . S
C1468 C1467 1.403 . S
C1468 C1469 1.404 . S
C1468 C1471 1.539 . S
C1469 C1465 1.408 . S
C1469 C1468 1.404 . S
C1469 H1481 0.930 . S
C1470 C1466 1.524 . S
C1470 H1482 0.956 . S
C1470 H1483 0.961 . S
C1470 H1484 0.961 . S
C1471 C1468 1.539 . S
C1471 H1485 0.958 . S
C1471 H1486 0.961 . S
C1471 H1487 0.960 . S
H1472 C1456 0.931 . S
H1473 C1461 0.929 . S
H1474 C1462 0.960 . S
H1475 C1462 0.962 . S
H1476 C1462 0.960 . S
H1477 C1463 0.961 . S
H1478 C1463 0.961 . S
H1479 C1463 0.961 . S
H1480 C1464 0.931 . S
H1481 C1469 0.930 . S
H1482 C1470 0.956 . S
H1483 C1470 0.961 . S
H1484 C1470 0.961 . S
H1485 C1471 0.958 . S
H1486 C1471 0.961 . S
H1487 C1471 0.960 . S
C1488 C1489 1.391 . S
C1488 C1490 1.394 . S
C1488 H1504 0.931 . S
C1489 C1488 1.391 . S
C1489 C1493 1.376 . S
C1490 C1488 1.394 . S
C1490 C1491 1.369 . S
C1490 C1494 1.531 . S
C1491 C1490 1.369 . S
C1491 C1492 1.410 . S
C1491 C1499 1.503 . S
C1492 C1491 1.410 . S
C1492 C1493 1.392 . S
C1492 C1495 1.511 . S
C1493 C1489 1.376 . S
C1493 C1492 1.392 . S
C1493 H1505 0.929 . S
C1494 C1490 1.531 . S
C1494 H1506 0.960 . S
C1494 H1507 0.962 . S
C1494 H1508 0.960 . S
C1495 C1492 1.511 . S
C1495 H1509 0.961 . S
C1495 H1510 0.961 . S
C1495 H1511 0.961 . S
C1496 C1497 1.370 . S
C1496 C1498 1.363 . S
C1496 H1512 0.931 . S
C1497 C1496 1.370 . S
C1497 C1501 1.408 . S
C1498 C1496 1.363 . S
C1498 C1499 1.370 . S
C1498 C1502 1.524 . S
C1499 C1491 1.503 . S
C1499 C1498 1.370 . S
C1499 C1500 1.403 . S
C1500 C1499 1.403 . S
C1500 C1501 1.404 . S
C1500 C1503 1.539 . S
C1501 C1497 1.408 . S
C1501 C1500 1.404 . S
C1501 H1513 0.930 . S
C1502 C1498 1.524 . S
C1502 H1514 0.956 . S
C1502 H1515 0.961 . S
C1502 H1516 0.961 . S
C1503 C1500 1.539 . S
C1503 H1517 0.958 . S
C1503 H1518 0.961 . S
C1503 H1519 0.960 . S
H1504 C1488 0.931 . S
H1505 C1493 0.929 . S
H1506 C1494 0.960 . S
H1507 C1494 0.962 . S
H1508 C1494 0.960 . S
H1509 C1495 0.961 . S
H1510 C1495 0.961 . S
H1511 C1495 0.961 . S
H1512 C1496 0.931 . S
H1513 C1501 0.930 . S
H1514 C1502 0.956 . S
H1515 C1502 0.961 . S
H1516 C1502 0.961 . S
H1517 C1503 0.958 . S
H1518 C1503 0.961 . S
H1519 C1503 0.960 . S
C1520 C1521 1.391 . S
C1520 C1522 1.394 . S
C1520 H1536 0.931 . S
C1521 C1520 1.391 . S
C1521 C1525 1.376 . S
C1522 C1520 1.394 . S
C1522 C1523 1.369 . S
C1522 C1526 1.531 . S
C1523 C1522 1.369 . S
C1523 C1524 1.410 . S
C1523 C1531 1.503 . S
C1524 C1523 1.410 . S
C1524 C1525 1.392 . S
C1524 C1527 1.511 . S
C1525 C1521 1.376 . S
C1525 C1524 1.392 . S
C1525 H1537 0.929 . S
C1526 C1522 1.531 . S
C1526 H1538 0.960 . S
C1526 H1539 0.962 . S
C1526 H1540 0.960 . S
C1527 C1524 1.511 . S
C1527 H1541 0.961 . S
C1527 H1542 0.961 . S
C1527 H1543 0.961 . S
C1528 C1529 1.370 . S
C1528 C1530 1.363 . S
C1528 H1544 0.931 . S
C1529 C1528 1.370 . S
C1529 C1533 1.408 . S
C1530 C1528 1.363 . S
C1530 C1531 1.370 . S
C1530 C1534 1.524 . S
C1531 C1523 1.503 . S
C1531 C1530 1.370 . S
C1531 C1532 1.403 . S
C1532 C1531 1.403 . S
C1532 C1533 1.404 . S
C1532 C1535 1.539 . S
C1533 C1529 1.408 . S
C1533 C1532 1.404 . S
C1533 H1545 0.930 . S
C1534 C1530 1.524 . S
C1534 H1546 0.956 . S
C1534 H1547 0.961 . S
C1534 H1548 0.961 . S
C1535 C1532 1.539 . S
C1535 H1549 0.958 . S
C1535 H1550 0.961 . S
C1535 H1551 0.960 . S
H1536 C1520 0.931 . S
H1537 C1525 0.929 . S
H1538 C1526 0.960 . S
H1539 C1526 0.962 . S
H1540 C1526 0.960 . S
H1541 C1527 0.961 . S
H1542 C1527 0.961 . S
H1543 C1527 0.961 . S
H1544 C1528 0.931 . S
H1545 C1533 0.930 . S
H1546 C1534 0.956 . S
H1547 C1534 0.961 . S
H1548 C1534 0.961 . S
H1549 C1535 0.958 . S
H1550 C1535 0.961 . S
H1551 C1535 0.960 . S
C1552 C1553 1.391 . S
C1552 C1554 1.394 . S
C1552 H1568 0.931 . S
C1553 C1552 1.391 . S
C1553 C1557 1.376 . S
C1554 C1552 1.394 . S
C1554 C1555 1.369 . S
C1554 C1558 1.531 . S
C1555 C1554 1.369 . S
C1555 C1556 1.410 . S
C1555 C1563 1.503 . S
C1556 C1555 1.410 . S
C1556 C1557 1.392 . S
C1556 C1559 1.511 1_565 S
C1557 C1553 1.376 . S
C1557 C1556 1.392 . S
C1557 H1569 0.929 . S
C1558 C1554 1.531 . S
C1558 H1570 0.960 . S
C1558 H1571 0.962 . S
C1558 H1572 0.960 . S
C1559 C1556 1.511 1_545 S
C1559 H1573 0.961 . S
C1559 H1574 0.961 . S
C1559 H1575 0.961 . S
C1560 C1561 1.370 . S
C1560 C1562 1.363 . S
C1560 H1576 0.931 . S
C1561 C1560 1.370 . S
C1561 C1565 1.408 . S
C1562 C1560 1.363 . S
C1562 C1563 1.370 . S
C1562 C1566 1.524 . S
C1563 C1555 1.503 . S
C1563 C1562 1.370 . S
C1563 C1564 1.403 . S
C1564 C1563 1.403 . S
C1564 C1565 1.404 . S
C1564 C1567 1.539 . S
C1565 C1561 1.408 . S
C1565 C1564 1.404 . S
C1565 H1577 0.930 . S
C1566 C1562 1.524 . S
C1566 H1578 0.956 . S
C1566 H1579 0.961 . S
C1566 H1580 0.961 . S
C1567 C1564 1.539 . S
C1567 H1581 0.958 . S
C1567 H1582 0.961 . S
C1567 H1583 0.960 . S
H1568 C1552 0.931 . S
H1569 C1557 0.929 . S
H1570 C1558 0.960 . S
H1571 C1558 0.962 . S
H1572 C1558 0.960 . S
H1573 C1559 0.961 . S
H1574 C1559 0.961 . S
H1575 C1559 0.961 . S
H1576 C1560 0.931 . S
H1577 C1565 0.930 . S
H1578 C1566 0.956 . S
H1579 C1566 0.961 . S
H1580 C1566 0.961 . S
H1581 C1567 0.958 . S
H1582 C1567 0.961 . S
H1583 C1567 0.960 . S
C1584 C1585 1.391 . S
C1584 C1586 1.394 . S
C1584 H1600 0.931 . S
C1585 C1584 1.391 . S
C1585 C1589 1.376 . S
C1586 C1584 1.394 . S
C1586 C1587 1.369 . S
C1586 C1590 1.531 . S
C1587 C1586 1.369 . S
C1587 C1588 1.410 . S
C1587 C1595 1.503 . S
C1588 C1587 1.410 . S
C1588 C1589 1.392 . S
C1588 C1591 1.511 . S
C1589 C1585 1.376 . S
C1589 C1588 1.392 . S
C1589 H1601 0.929 . S
C1590 C1586 1.531 . S
C1590 H1602 0.960 . S
C1590 H1603 0.962 . S
C1590 H1604 0.960 . S
C1591 C1588 1.511 . S
C1591 H1605 0.961 . S
C1591 H1606 0.961 . S
C1591 H1607 0.961 . S
C1592 C1593 1.370 . S
C1592 C1594 1.363 . S
C1592 H1608 0.931 . S
C1593 C1592 1.370 . S
C1593 C1597 1.408 . S
C1594 C1592 1.363 . S
C1594 C1595 1.370 . S
C1594 C1598 1.524 . S
C1595 C1587 1.503 . S
C1595 C1594 1.370 . S
C1595 C1596 1.403 . S
C1596 C1595 1.403 . S
C1596 C1597 1.404 . S
C1596 C1599 1.539 . S
C1597 C1593 1.408 . S
C1597 C1596 1.404 . S
C1597 H1609 0.930 . S
C1598 C1594 1.524 . S
C1598 H1610 0.956 . S
C1598 H1611 0.961 . S
C1598 H1612 0.961 . S
C1599 C1596 1.539 . S
C1599 H1613 0.958 . S
C1599 H1614 0.961 . S
C1599 H1615 0.960 . S
H1600 C1584 0.931 . S
H1601 C1589 0.929 . S
H1602 C1590 0.960 . S
H1603 C1590 0.962 . S
H1604 C1590 0.960 . S
H1605 C1591 0.961 . S
H1606 C1591 0.961 . S
H1607 C1591 0.961 . S
H1608 C1592 0.931 . S
H1609 C1597 0.930 . S
H1610 C1598 0.956 . S
H1611 C1598 0.961 . S
H1612 C1598 0.961 . S
H1613 C1599 0.958 . S
H1614 C1599 0.961 . S
H1615 C1599 0.960 . S
C1616 C1617 1.391 . S
C1616 C1618 1.394 . S
C1616 H1632 0.931 . S
C1617 C1616 1.391 . S
C1617 C1621 1.376 . S
C1618 C1616 1.394 . S
C1618 C1619 1.369 . S
C1618 C1622 1.531 . S
C1619 C1618 1.369 . S
C1619 C1620 1.410 . S
C1619 C1627 1.503 . S
C1620 C1619 1.410 . S
C1620 C1621 1.392 . S
C1620 C1623 1.511 . S
C1621 C1617 1.376 . S
C1621 C1620 1.392 . S
C1621 H1633 0.929 . S
C1622 C1618 1.531 . S
C1622 H1634 0.960 . S
C1622 H1635 0.962 . S
C1622 H1636 0.960 . S
C1623 C1620 1.511 . S
C1623 H1637 0.961 . S
C1623 H1638 0.961 . S
C1623 H1639 0.961 . S
C1624 C1625 1.370 . S
C1624 C1626 1.363 . S
C1624 H1640 0.931 . S
C1625 C1624 1.370 . S
C1625 C1629 1.408 . S
C1626 C1624 1.363 . S
C1626 C1627 1.370 . S
C1626 C1630 1.524 . S
C1627 C1619 1.503 . S
C1627 C1626 1.370 . S
C1627 C1628 1.403 . S
C1628 C1627 1.403 . S
C1628 C1629 1.404 . S
C1628 C1631 1.539 . S
C1629 C1625 1.408 . S
C1629 C1628 1.404 . S
C1629 H1641 0.930 . S
C1630 C1626 1.524 . S
C1630 H1642 0.956 . S
C1630 H1643 0.961 . S
C1630 H1644 0.961 . S
C1631 C1628 1.539 . S
C1631 H1645 0.958 . S
C1631 H1646 0.961 . S
C1631 H1647 0.960 . S
H1632 C1616 0.931 . S
H1633 C1621 0.929 . S
H1634 C1622 0.960 . S
H1635 C1622 0.962 . S
H1636 C1622 0.960 . S
H1637 C1623 0.961 . S
H1638 C1623 0.961 . S
H1639 C1623 0.961 . S
H1640 C1624 0.931 . S
H1641 C1629 0.930 . S
H1642 C1630 0.956 . S
H1643 C1630 0.961 . S
H1644 C1630 0.961 . S
H1645 C1631 0.958 . S
H1646 C1631 0.961 . S
H1647 C1631 0.960 . S
C1648 C1649 1.391 . S
C1648 C1650 1.394 . S
C1648 H1664 0.931 . S
C1649 C1648 1.391 . S
C1649 C1653 1.376 1_655 S
C1650 C1648 1.394 . S
C1650 C1651 1.369 1_655 S
C1650 C1654 1.531 . S
C1651 C1650 1.369 1_455 S
C1651 C1652 1.410 . S
C1651 C1659 1.503 . S
C1652 C1651 1.410 . S
C1652 C1653 1.392 . S
C1652 C1655 1.511 . S
C1653 C1649 1.376 1_455 S
C1653 C1652 1.392 . S
C1653 H1665 0.929 . S
C1654 C1650 1.531 . S
C1654 H1666 0.960 . S
C1654 H1667 0.962 . S
C1654 H1668 0.960 . S
C1655 C1652 1.511 . S
C1655 H1669 0.961 . S
C1655 H1670 0.961 . S
C1655 H1671 0.961 . S
C1656 C1657 1.375 . S
C1656 C1658 1.363 . S
C1656 H1672 0.931 . S
C1657 C1656 1.375 . S
C1657 C1661 1.407 1_556 S
C1658 C1656 1.363 . S
C1658 C1659 1.370 . S
C1658 C1662 1.524 . S
C1659 C1651 1.503 . S
C1659 C1658 1.370 . S
C1659 C1660 1.416 . S
C1660 C1659 1.416 . S
C1660 C1661 1.409 1_556 S
C1660 C1663 1.521 1_455 S
C1661 C1657 1.407 1_554 S
C1661 C1660 1.409 1_554 S
C1661 H1673 0.930 1_455 S
C1662 C1658 1.524 . S
C1662 H1674 0.956 . S
C1662 H1675 0.961 . S
C1662 H1676 0.961 . S
C1663 C1660 1.521 1_655 S
C1663 H1677 0.958 . S
C1663 H1678 0.961 1_556 S
C1663 H1679 0.960 . S
H1664 C1648 0.931 . S
H1665 C1653 0.929 . S
H1666 C1654 0.960 . S
H1667 C1654 0.962 . S
H1668 C1654 0.960 . S
H1669 C1655 0.961 . S
H1670 C1655 0.961 . S
H1671 C1655 0.961 . S
H1672 C1656 0.931 . S
H1673 C1661 0.930 1_655 S
H1674 C1662 0.956 . S
H1675 C1662 0.961 . S
H1676 C1662 0.961 . S
H1677 C1663 0.958 . S
H1678 C1663 0.961 1_554 S
H1679 C1663 0.960 . S
C1680 C1681 1.391 . S
C1680 C1682 1.394 . S
C1680 H1696 0.931 . S
C1681 C1680 1.391 . S
C1681 C1685 1.376 . S
C1682 C1680 1.394 . S
C1682 C1683 1.369 . S
C1682 C1686 1.531 . S
C1683 C1682 1.369 . S
C1683 C1684 1.410 . S
C1683 C1691 1.503 . S
C1684 C1683 1.410 . S
C1684 C1685 1.392 . S
C1684 C1687 1.511 . S
C1685 C1681 1.376 . S
C1685 C1684 1.392 . S
C1685 H1697 0.929 . S
C1686 C1682 1.531 . S
C1686 H1698 0.960 . S
C1686 H1699 0.962 . S
C1686 H1700 0.960 . S
C1687 C1684 1.511 . S
C1687 H1701 0.961 . S
C1687 H1702 0.961 . S
C1687 H1703 0.961 . S
C1688 C1689 1.370 . S
C1688 C1690 1.363 . S
C1688 H1704 0.931 . S
C1689 C1688 1.370 . S
C1689 C1693 1.408 . S
C1690 C1688 1.363 . S
C1690 C1691 1.370 . S
C1690 C1694 1.524 . S
C1691 C1683 1.503 . S
C1691 C1690 1.370 . S
C1691 C1692 1.403 . S
C1692 C1691 1.403 . S
C1692 C1693 1.404 . S
C1692 C1695 1.539 . S
C1693 C1689 1.408 . S
C1693 C1692 1.404 . S
C1693 H1705 0.930 . S
C1694 C1690 1.524 . S
C1694 H1706 0.956 . S
C1694 H1707 0.961 . S
C1694 H1708 0.961 . S
C1695 C1692 1.539 . S
C1695 H1709 0.958 . S
C1695 H1710 0.961 . S
C1695 H1711 0.960 . S
H1696 C1680 0.931 . S
H1697 C1685 0.929 . S
H1698 C1686 0.960 . S
H1699 C1686 0.962 . S
H1700 C1686 0.960 . S
H1701 C1687 0.961 . S
H1702 C1687 0.961 . S
H1703 C1687 0.961 . S
H1704 C1688 0.931 . S
H1705 C1693 0.930 . S
H1706 C1694 0.956 . S
H1707 C1694 0.961 . S
H1708 C1694 0.961 . S
H1709 C1695 0.958 . S
H1710 C1695 0.961 . S
H1711 C1695 0.960 . S
C1712 C1713 1.391 . S
C1712 C1714 1.394 . S
C1712 H1728 0.931 . S
C1713 C1712 1.391 . S
C1713 C1717 1.376 . S
C1714 C1712 1.394 . S
C1714 C1715 1.369 . S
C1714 C1718 1.531 . S
C1715 C1714 1.369 . S
C1715 C1716 1.410 . S
C1715 C1723 1.503 . S
C1716 C1715 1.410 . S
C1716 C1717 1.392 . S
C1716 C1719 1.511 . S
C1717 C1713 1.376 . S
C1717 C1716 1.392 . S
C1717 H1729 0.929 . S
C1718 C1714 1.531 . S
C1718 H1730 0.960 . S
C1718 H1731 0.962 . S
C1718 H1732 0.960 . S
C1719 C1716 1.511 . S
C1719 H1733 0.961 . S
C1719 H1734 0.961 . S
C1719 H1735 0.961 . S
C1720 C1721 1.370 . S
C1720 C1722 1.363 . S
C1720 H1736 0.931 . S
C1721 C1720 1.370 . S
C1721 C1725 1.408 . S
C1722 C1720 1.363 . S
C1722 C1723 1.370 . S
C1722 C1726 1.524 . S
C1723 C1715 1.503 . S
C1723 C1722 1.370 . S
C1723 C1724 1.403 . S
C1724 C1723 1.403 . S
C1724 C1725 1.404 . S
C1724 C1727 1.539 . S
C1725 C1721 1.408 . S
C1725 C1724 1.404 . S
C1725 H1737 0.930 . S
C1726 C1722 1.524 . S
C1726 H1738 0.956 . S
C1726 H1739 0.961 . S
C1726 H1740 0.961 . S
C1727 C1724 1.539 . S
C1727 H1741 0.958 . S
C1727 H1742 0.961 . S
C1727 H1743 0.960 . S
H1728 C1712 0.931 . S
H1729 C1717 0.929 . S
H1730 C1718 0.960 . S
H1731 C1718 0.962 . S
H1732 C1718 0.960 . S
H1733 C1719 0.961 . S
H1734 C1719 0.961 . S
H1735 C1719 0.961 . S
H1736 C1720 0.931 . S
H1737 C1725 0.930 . S
H1738 C1726 0.956 . S
H1739 C1726 0.961 . S
H1740 C1726 0.961 . S
H1741 C1727 0.958 . S
H1742 C1727 0.961 . S
H1743 C1727 0.960 . S
C1744 C1745 1.391 . S
C1744 C1746 1.394 . S
C1744 H1760 0.931 . S
C1745 C1744 1.391 . S
C1745 C1749 1.376 . S
C1746 C1744 1.394 . S
C1746 C1747 1.369 . S
C1746 C1750 1.531 . S
C1747 C1746 1.369 . S
C1747 C1748 1.410 . S
C1747 C1755 1.503 . S
C1748 C1747 1.410 . S
C1748 C1749 1.392 . S
C1748 C1751 1.511 . S
C1749 C1745 1.376 . S
C1749 C1748 1.392 . S
C1749 H1761 0.929 . S
C1750 C1746 1.531 . S
C1750 H1762 0.960 . S
C1750 H1763 0.962 . S
C1750 H1764 0.960 . S
C1751 C1748 1.511 . S
C1751 H1765 0.961 . S
C1751 H1766 0.961 . S
C1751 H1767 0.961 . S
C1752 C1753 1.370 . S
C1752 C1754 1.363 . S
C1752 H1768 0.931 . S
C1753 C1752 1.370 . S
C1753 C1757 1.408 . S
C1754 C1752 1.363 . S
C1754 C1755 1.370 . S
C1754 C1758 1.524 . S
C1755 C1747 1.503 . S
C1755 C1754 1.370 . S
C1755 C1756 1.403 . S
C1756 C1755 1.403 . S
C1756 C1757 1.404 . S
C1756 C1759 1.539 . S
C1757 C1753 1.408 . S
C1757 C1756 1.404 . S
C1757 H1769 0.930 . S
C1758 C1754 1.524 . S
C1758 H1770 0.956 . S
C1758 H1771 0.961 . S
C1758 H1772 0.961 . S
C1759 C1756 1.539 . S
C1759 H1773 0.958 . S
C1759 H1774 0.961 . S
C1759 H1775 0.960 . S
H1760 C1744 0.931 . S
H1761 C1749 0.929 . S
H1762 C1750 0.960 . S
H1763 C1750 0.962 . S
H1764 C1750 0.960 . S
H1765 C1751 0.961 . S
H1766 C1751 0.961 . S
H1767 C1751 0.961 . S
H1768 C1752 0.931 . S
H1769 C1757 0.930 . S
H1770 C1758 0.956 . S
H1771 C1758 0.961 . S
H1772 C1758 0.961 . S
H1773 C1759 0.958 . S
H1774 C1759 0.961 . S
H1775 C1759 0.960 . S
C1776 C1777 1.391 . S
C1776 C1778 1.394 . S
C1776 H1792 0.931 . S
C1777 C1776 1.391 . S
C1777 C1781 1.376 . S
C1778 C1776 1.394 . S
C1778 C1779 1.369 . S
C1778 C1782 1.534 . S
C1779 C1778 1.369 . S
C1779 C1780 1.410 . S
C1779 C1787 1.503 . S
C1780 C1779 1.410 . S
C1780 C1781 1.392 . S
C1780 C1783 1.511 . S
C1781 C1777 1.376 . S
C1781 C1780 1.392 . S
C1781 H1793 0.929 . S
C1782 C1778 1.534 . S
C1782 H1794 0.963 . S
C1782 H1795 0.957 1_455 S
C1782 H1796 0.959 1_455 S
C1783 C1780 1.511 . S
C1783 H1797 0.961 . S
C1783 H1798 0.961 . S
C1783 H1799 0.961 . S
C1784 C1785 1.370 . S
C1784 C1786 1.363 . S
C1784 H1800 0.931 . S
C1785 C1784 1.370 . S
C1785 C1789 1.408 . S
C1786 C1784 1.363 . S
C1786 C1787 1.370 . S
C1786 C1790 1.524 . S
C1787 C1779 1.503 . S
C1787 C1786 1.370 . S
C1787 C1788 1.403 . S
C1788 C1787 1.403 . S
C1788 C1789 1.404 . S
C1788 C1791 1.539 . S
C1789 C1785 1.408 . S
C1789 C1788 1.404 . S
C1789 H1801 0.930 . S
C1790 C1786 1.524 . S
C1790 H1802 0.956 1_455 S
C1790 H1803 0.961 . S
C1790 H1804 0.961 . S
C1791 C1788 1.539 . S
C1791 H1805 0.958 . S
C1791 H1806 0.961 . S
C1791 H1807 0.960 . S
H1792 C1776 0.931 . S
H1793 C1781 0.929 . S
H1794 C1782 0.963 . S
H1795 C1782 0.957 1_655 S
H1796 C1782 0.959 1_655 S
H1797 C1783 0.961 . S
H1798 C1783 0.961 . S
H1799 C1783 0.961 . S
H1800 C1784 0.931 . S
H1801 C1789 0.930 . S
H1802 C1790 0.956 1_655 S
H1803 C1790 0.961 . S
H1804 C1790 0.961 . S
H1805 C1791 0.958 . S
H1806 C1791 0.961 . S
H1807 C1791 0.960 . S
C1808 C1809 1.391 . S
C1808 C1810 1.394 . S
C1808 H1824 0.931 . S
C1809 C1808 1.391 . S
C1809 C1813 1.376 . S
C1810 C1808 1.394 . S
C1810 C1811 1.369 . S
C1810 C1814 1.531 . S
C1811 C1810 1.369 . S
C1811 C1812 1.410 . S
C1811 C1819 1.503 . S
C1812 C1811 1.410 . S
C1812 C1813 1.392 . S
C1812 C1815 1.511 . S
C1813 C1809 1.376 . S
C1813 C1812 1.392 . S
C1813 H1825 0.929 . S
C1814 C1810 1.531 . S
C1814 H1826 0.960 . S
C1814 H1827 0.962 . S
C1814 H1828 0.960 . S
C1815 C1812 1.511 . S
C1815 H1829 0.961 . S
C1815 H1830 0.961 . S
C1815 H1831 0.961 . S
C1816 C1817 1.370 . S
C1816 C1818 1.363 . S
C1816 H1832 0.931 . S
C1817 C1816 1.370 . S
C1817 C1821 1.408 . S
C1818 C1816 1.363 . S
C1818 C1819 1.370 . S
C1818 C1822 1.524 . S
C1819 C1811 1.503 . S
C1819 C1818 1.370 . S
C1819 C1820 1.403 . S
C1820 C1819 1.403 . S
C1820 C1821 1.404 . S
C1820 C1823 1.539 . S
C1821 C1817 1.408 . S
C1821 C1820 1.404 . S
C1821 H1833 0.930 . S
C1822 C1818 1.524 . S
C1822 H1834 0.956 . S
C1822 H1835 0.961 . S
C1822 H1836 0.961 . S
C1823 C1820 1.539 . S
C1823 H1837 0.958 . S
C1823 H1838 0.961 . S
C1823 H1839 0.960 . S
H1824 C1808 0.931 . S
H1825 C1813 0.929 . S
H1826 C1814 0.960 . S
H1827 C1814 0.962 . S
H1828 C1814 0.960 . S
H1829 C1815 0.961 . S
H1830 C1815 0.961 . S
H1831 C1815 0.961 . S
H1832 C1816 0.931 . S
H1833 C1821 0.930 . S
H1834 C1822 0.956 . S
H1835 C1822 0.961 . S
H1836 C1822 0.961 . S
H1837 C1823 0.958 . S
H1838 C1823 0.961 . S
H1839 C1823 0.960 . S
C1840 C1841 1.391 . S
C1840 C1842 1.394 . S
C1840 H1856 0.931 . S
C1841 C1840 1.391 . S
C1841 C1845 1.376 . S
C1842 C1840 1.394 . S
C1842 C1843 1.369 . S
C1842 C1846 1.531 . S
C1843 C1842 1.369 . S
C1843 C1844 1.410 . S
C1843 C1851 1.503 . S
C1844 C1843 1.410 . S
C1844 C1845 1.392 . S
C1844 C1847 1.511 . S
C1845 C1841 1.376 . S
C1845 C1844 1.392 . S
C1845 H1857 0.929 . S
C1846 C1842 1.531 . S
C1846 H1858 0.960 . S
C1846 H1859 0.962 . S
C1846 H1860 0.960 . S
C1847 C1844 1.511 . S
C1847 H1861 0.961 . S
C1847 H1862 0.961 . S
C1847 H1863 0.961 . S
C1848 C1849 1.370 . S
C1848 C1850 1.363 . S
C1848 H1864 0.931 . S
C1849 C1848 1.370 . S
C1849 C1853 1.408 . S
C1850 C1848 1.363 . S
C1850 C1851 1.370 . S
C1850 C1854 1.524 . S
C1851 C1843 1.503 . S
C1851 C1850 1.370 . S
C1851 C1852 1.403 . S
C1852 C1851 1.403 . S
C1852 C1853 1.404 . S
C1852 C1855 1.539 . S
C1853 C1849 1.408 . S
C1853 C1852 1.404 . S
C1853 H1865 0.930 . S
C1854 C1850 1.524 . S
C1854 H1866 0.956 . S
C1854 H1867 0.961 . S
C1854 H1868 0.961 . S
C1855 C1852 1.539 . S
C1855 H1869 0.958 . S
C1855 H1870 0.961 . S
C1855 H1871 0.960 . S
H1856 C1840 0.931 . S
H1857 C1845 0.929 . S
H1858 C1846 0.960 . S
H1859 C1846 0.962 . S
H1860 C1846 0.960 . S
H1861 C1847 0.961 . S
H1862 C1847 0.961 . S
H1863 C1847 0.961 . S
H1864 C1848 0.931 . S
H1865 C1853 0.930 . S
H1866 C1854 0.956 . S
H1867 C1854 0.961 . S
H1868 C1854 0.961 . S
H1869 C1855 0.958 . S
H1870 C1855 0.961 . S
H1871 C1855 0.960 . S
C1872 C1873 1.391 . S
C1872 C1874 1.394 . S
C1872 H1888 0.931 . S
C1873 C1872 1.391 . S
C1873 C1877 1.376 . S
C1874 C1872 1.394 . S
C1874 C1875 1.369 . S
C1874 C1878 1.531 . S
C1875 C1874 1.369 . S
C1875 C1876 1.410 . S
C1875 C1883 1.503 . S
C1876 C1875 1.410 . S
C1876 C1877 1.392 . S
C1876 C1879 1.511 . S
C1877 C1873 1.376 . S
C1877 C1876 1.392 . S
C1877 H1889 0.929 . S
C1878 C1874 1.531 . S
C1878 H1890 0.960 . S
C1878 H1891 0.962 . S
C1878 H1892 0.960 . S
C1879 C1876 1.511 . S
C1879 H1893 0.961 . S
C1879 H1894 0.961 . S
C1879 H1895 0.961 . S
C1880 C1881 1.370 . S
C1880 C1882 1.363 . S
C1880 H1896 0.931 . S
C1881 C1880 1.370 . S
C1881 C1885 1.408 . S
C1882 C1880 1.363 . S
C1882 C1883 1.370 . S
C1882 C1886 1.524 . S
C1883 C1875 1.503 . S
C1883 C1882 1.370 . S
C1883 C1884 1.403 . S
C1884 C1883 1.403 . S
C1884 C1885 1.404 . S
C1884 C1887 1.539 . S
C1885 C1881 1.408 . S
C1885 C1884 1.404 . S
C1885 H1897 0.930 . S
C1886 C1882 1.524 . S
C1886 H1898 0.956 . S
C1886 H1899 0.961 . S
C1886 H1900 0.961 . S
C1887 C1884 1.539 . S
C1887 H1901 0.958 . S
C1887 H1902 0.961 . S
C1887 H1903 0.960 . S
H1888 C1872 0.931 . S
H1889 C1877 0.929 . S
H1890 C1878 0.960 . S
H1891 C1878 0.962 . S
H1892 C1878 0.960 . S
H1893 C1879 0.961 . S
H1894 C1879 0.961 . S
H1895 C1879 0.961 . S
H1896 C1880 0.931 . S
H1897 C1885 0.930 . S
H1898 C1886 0.956 . S
H1899 C1886 0.961 . S
H1900 C1886 0.961 . S
H1901 C1887 0.958 . S
H1902 C1887 0.961 . S
H1903 C1887 0.960 . S
C1904 C1905 1.391 . S
C1904 C1906 1.394 . S
C1904 H1920 0.931 1_545 S
C1905 C1904 1.391 . S
C1905 C1909 1.376 . S
C1906 C1904 1.394 . S
C1906 C1907 1.369 . S
C1906 C1910 1.531 . S
C1907 C1906 1.369 . S
C1907 C1908 1.410 . S
C1907 C1915 1.503 . S
C1908 C1907 1.410 . S
C1908 C1909 1.392 . S
C1908 C1911 1.495 1_655 S
C1909 C1905 1.376 . S
C1909 C1908 1.392 . S
C1909 H1921 0.929 . S
C1910 C1906 1.531 . S
C1910 H1922 0.960 1_545 S
C1910 H1923 0.962 . S
C1910 H1924 0.960 1_545 S
C1911 C1908 1.495 1_455 S
C1911 H1925 0.965 . S
C1911 H1926 0.965 . S
C1911 H1927 0.969 . S
C1912 C1913 1.370 . S
C1912 C1914 1.363 . S
C1912 H1928 0.931 . S
C1913 C1912 1.370 . S
C1913 C1917 1.408 . S
C1914 C1912 1.363 . S
C1914 C1915 1.370 . S
C1914 C1918 1.524 . S
C1915 C1907 1.503 . S
C1915 C1914 1.370 . S
C1915 C1916 1.403 1_545 S
C1916 C1915 1.403 1_565 S
C1916 C1917 1.404 1_565 S
C1916 C1919 1.539 . S
C1917 C1913 1.408 . S
C1917 C1916 1.404 1_545 S
C1917 H1929 0.930 1_645 S
C1918 C1914 1.524 . S
C1918 H1930 0.956 . S
C1918 H1931 0.961 . S
C1918 H1932 0.961 . S
C1919 C1916 1.539 . S
C1919 H1933 0.958 . S
C1919 H1934 0.952 1_655 S
C1919 H1935 0.960 . S
H1920 C1904 0.931 1_565 S
H1921 C1909 0.929 . S
H1922 C1910 0.960 1_565 S
H1923 C1910 0.962 . S
H1924 C1910 0.960 1_565 S
H1925 C1911 0.965 . S
H1926 C1911 0.965 . S
H1927 C1911 0.969 . S
H1928 C1912 0.931 . S
H1929 C1917 0.930 1_465 S
H1930 C1918 0.956 . S
H1931 C1918 0.961 . S
H1932 C1918 0.961 . S
H1933 C1919 0.958 . S
H1934 C1919 0.952 1_455 S
H1935 C1919 0.960 . S
C1936 C1937 1.391 . S
C1936 C1938 1.394 . S
C1936 H1952 0.931 . S
C1937 C1936 1.391 . S
C1937 C1941 1.376 . S
C1938 C1936 1.394 . S
C1938 C1939 1.369 . S
C1938 C1942 1.531 . S
C1939 C1938 1.369 . S
C1939 C1940 1.410 . S
C1939 C1947 1.503 . S
C1940 C1939 1.410 . S
C1940 C1941 1.392 . S
C1940 C1943 1.511 . S
C1941 C1937 1.376 . S
C1941 C1940 1.392 . S
C1941 H1953 0.929 . S
C1942 C1938 1.531 . S
C1942 H1954 0.960 . S
C1942 H1955 0.962 . S
C1942 H1956 0.960 . S
C1943 C1940 1.511 . S
C1943 H1957 0.961 . S
C1943 H1958 0.961 . S
C1943 H1959 0.961 . S
C1944 C1945 1.370 . S
C1944 C1946 1.363 . S
C1944 H1960 0.931 . S
C1945 C1944 1.370 . S
C1945 C1949 1.408 . S
C1946 C1944 1.363 . S
C1946 C1947 1.370 . S
C1946 C1950 1.524 . S
C1947 C1939 1.503 . S
C1947 C1946 1.370 . S
C1947 C1948 1.403 . S
C1948 C1947 1.403 . S
C1948 C1949 1.404 . S
C1948 C1951 1.539 . S
C1949 C1945 1.408 . S
C1949 C1948 1.404 . S
C1949 H1961 0.930 . S
C1950 C1946 1.524 . S
C1950 H1962 0.956 . S
C1950 H1963 0.961 . S
C1950 H1964 0.961 . S
C1951 C1948 1.539 . S
C1951 H1965 0.958 . S
C1951 H1966 0.961 . S
C1951 H1967 0.960 . S
H1952 C1936 0.931 . S
H1953 C1941 0.929 . S
H1954 C1942 0.960 . S
H1955 C1942 0.962 . S
H1956 C1942 0.960 . S
H1957 C1943 0.961 . S
H1958 C1943 0.961 . S
H1959 C1943 0.961 . S
H1960 C1944 0.931 . S
H1961 C1949 0.930 . S
H1962 C1950 0.956 . S
H1963 C1950 0.961 . S
H1964 C1950 0.961 . S
H1965 C1951 0.958 . S
H1966 C1951 0.961 . S
H1967 C1951 0.960 . S
C1968 C1969 1.391 . S
C1968 C1970 1.394 . S
C1968 H1984 0.931 . S
C1969 C1968 1.391 . S
C1969 C1973 1.376 . S
C1970 C1968 1.394 . S
C1970 C1971 1.369 . S
C1970 C1974 1.531 . S
C1971 C1970 1.369 . S
C1971 C1972 1.410 . S
C1971 C1979 1.503 . S
C1972 C1971 1.410 . S
C1972 C1973 1.392 . S
C1972 C1975 1.511 1_545 S
C1973 C1969 1.376 . S
C1973 C1972 1.392 . S
C1973 H1985 0.929 . S
C1974 C1970 1.531 . S
C1974 H1986 0.960 . S
C1974 H1987 0.962 . S
C1974 H1988 0.960 . S
C1975 C1972 1.511 1_565 S
C1975 H1989 0.961 . S
C1975 H1990 0.961 . S
C1975 H1991 0.961 1_565 S
C1976 C1977 1.370 1_565 S
C1976 C1978 1.363 . S
C1976 H1992 0.931 . S
C1977 C1976 1.370 1_545 S
C1977 C1981 1.408 . S
C1978 C1976 1.363 . S
C1978 C1979 1.370 1_565 S
C1978 C1982 1.524 . S
C1979 C1971 1.503 . S
C1979 C1978 1.370 1_545 S
C1979 C1980 1.403 . S
C1980 C1979 1.403 . S
C1980 C1981 1.404 . S
C1980 C1983 1.539 . S
C1981 C1977 1.408 . S
C1981 C1980 1.404 . S
C1981 H1993 0.930 . S
C1982 C1978 1.524 . S
C1982 H1994 0.956 . S
C1982 H1995 0.961 . S
C1982 H1996 0.961 . S
C1983 C1980 1.539 . S
C1983 H1997 0.958 . S
C1983 H1998 0.961 . S
C1983 H1999 0.960 . S
H1984 C1968 0.931 . S
H1985 C1973 0.929 . S
H1986 C1974 0.960 . S
H1987 C1974 0.962 . S
H1988 C1974 0.960 . S
H1989 C1975 0.961 . S
H1990 C1975 0.961 . S
H1991 C1975 0.961 1_545 S
H1992 C1976 0.931 . S
H1993 C1981 0.930 . S
H1994 C1982 0.956 . S
H1995 C1982 0.961 . S
H1996 C1982 0.961 . S
H1997 C1983 0.958 . S
H1998 C1983 0.961 . S
H1999 C1983 0.960 . S
C2000 C2001 1.391 . S
C2000 C2002 1.394 . S
C2000 H2016 0.931 . S
C2001 C2000 1.391 . S
C2001 C2005 1.376 . S
C2002 C2000 1.394 . S
C2002 C2003 1.369 . S
C2002 C2006 1.531 . S
C2003 C2002 1.369 . S
C2003 C2004 1.410 . S
C2003 C2011 1.503 . S
C2004 C2003 1.410 . S
C2004 C2005 1.392 . S
C2004 C2007 1.511 . S
C2005 C2001 1.376 . S
C2005 C2004 1.392 . S
C2005 H2017 0.929 . S
C2006 C2002 1.531 . S
C2006 H2018 0.960 . S
C2006 H2019 0.962 . S
C2006 H2020 0.960 . S
C2007 C2004 1.511 . S
C2007 H2021 0.961 . S
C2007 H2022 0.961 . S
C2007 H2023 0.961 . S
C2008 C2009 1.370 . S
C2008 C2010 1.363 . S
C2008 H2024 0.931 . S
C2009 C2008 1.370 . S
C2009 C2013 1.408 . S
C2010 C2008 1.363 . S
C2010 C2011 1.370 . S
C2010 C2014 1.524 . S
C2011 C2003 1.503 . S
C2011 C2010 1.370 . S
C2011 C2012 1.403 . S
C2012 C2011 1.403 . S
C2012 C2013 1.404 . S
C2012 C2015 1.539 . S
C2013 C2009 1.408 . S
C2013 C2012 1.404 . S
C2013 H2025 0.930 . S
C2014 C2010 1.524 . S
C2014 H2026 0.956 . S
C2014 H2027 0.961 . S
C2014 H2028 0.961 . S
C2015 C2012 1.539 . S
C2015 H2029 0.958 . S
C2015 H2030 0.961 . S
C2015 H2031 0.960 . S
H2016 C2000 0.931 . S
H2017 C2005 0.929 . S
H2018 C2006 0.960 . S
H2019 C2006 0.962 . S
H2020 C2006 0.960 . S
H2021 C2007 0.961 . S
H2022 C2007 0.961 . S
H2023 C2007 0.961 . S
H2024 C2008 0.931 . S
H2025 C2013 0.930 . S
H2026 C2014 0.956 . S
H2027 C2014 0.961 . S
H2028 C2014 0.961 . S
H2029 C2015 0.958 . S
H2030 C2015 0.961 . S
H2031 C2015 0.960 . S
C2032 C2033 1.385 1_545 S
C2032 C2034 1.394 . S
C2032 H2048 0.931 . S
C2033 C2032 1.385 1_565 S
C2033 C2037 1.383 . S
C2034 C2032 1.394 . S
C2034 C2035 1.369 1_545 S
C2034 C2038 1.531 . S
C2035 C2034 1.369 1_565 S
C2035 C2036 1.410 . S
C2035 C2043 1.503 . S
C2036 C2035 1.410 . S
C2036 C2037 1.392 . S
C2036 C2039 1.511 . S
C2037 C2033 1.383 . S
C2037 C2036 1.392 . S
C2037 H2049 0.929 . S
C2038 C2034 1.531 . S
C2038 H2050 0.960 . S
C2038 H2051 0.962 . S
C2038 H2052 0.960 . S
C2039 C2036 1.511 . S
C2039 H2053 0.961 . S
C2039 H2054 0.961 . S
C2039 H2055 0.961 . S
C2040 C2041 1.370 . S
C2040 C2042 1.364 . S
C2040 H2056 0.931 1_565 S
C2041 C2040 1.370 . S
C2041 C2045 1.408 . S
C2042 C2040 1.364 . S
C2042 C2043 1.374 . S
C2042 C2046 1.520 1_565 S
C2043 C2035 1.503 . S
C2043 C2042 1.374 . S
C2043 C2044 1.403 . S
C2044 C2043 1.403 . S
C2044 C2045 1.404 . S
C2044 C2047 1.539 . S
C2045 C2041 1.408 . S
C2045 C2044 1.404 . S
C2045 H2057 0.930 1_655 S
C2046 C2042 1.520 1_545 S
C2046 H2058 0.956 . S
C2046 H2059 0.961 . S
C2046 H2060 0.961 . S
C2047 C2044 1.539 . S
C2047 H2061 0.958 1_655 S
C2047 H2062 0.961 1_655 S
C2047 H2063 0.960 . S
H2048 C2032 0.931 . S
H2049 C2037 0.929 . S
H2050 C2038 0.960 . S
H2051 C2038 0.962 . S
H2052 C2038 0.960 . S
H2053 C2039 0.961 . S
H2054 C2039 0.961 . S
H2055 C2039 0.961 . S
H2056 C2040 0.931 1_545 S
H2057 C2045 0.930 1_455 S
H2058 C2046 0.956 . S
H2059 C2046 0.961 . S
H2060 C2046 0.961 . S
H2061 C2047 0.958 1_455 S
H2062 C2047 0.961 1_455 S
H2063 C2047 0.960 . S
C2064 C2065 1.391 . S
C2064 C2066 1.394 . S
C2064 H2080 0.931 . S
C2065 C2064 1.391 . S
C2065 C2069 1.376 . S
C2066 C2064 1.394 . S
C2066 C2067 1.369 . S
C2066 C2070 1.531 . S
C2067 C2066 1.369 . S
C2067 C2068 1.410 . S
C2067 C2075 1.503 . S
C2068 C2067 1.410 . S
C2068 C2069 1.392 . S
C2068 C2071 1.511 . S
C2069 C2065 1.376 . S
C2069 C2068 1.392 . S
C2069 H2081 0.929 . S
C2070 C2066 1.531 . S
C2070 H2082 0.960 . S
C2070 H2083 0.962 . S
C2070 H2084 0.960 . S
C2071 C2068 1.511 . S
C2071 H2085 0.961 . S
C2071 H2086 0.961 . S
C2071 H2087 0.961 . S
C2072 C2073 1.370 . S
C2072 C2074 1.363 . S
C2072 H2088 0.931 . S
C2073 C2072 1.370 . S
C2073 C2077 1.408 . S
C2074 C2072 1.363 . S
C2074 C2075 1.370 . S
C2074 C2078 1.524 . S
C2075 C2067 1.503 . S
C2075 C2074 1.370 . S
C2075 C2076 1.403 . S
C2076 C2075 1.403 . S
C2076 C2077 1.404 . S
C2076 C2079 1.539 . S
C2077 C2073 1.408 . S
C2077 C2076 1.404 . S
C2077 H2089 0.930 . S
C2078 C2074 1.524 . S
C2078 H2090 0.956 . S
C2078 H2091 0.961 . S
C2078 H2092 0.961 . S
C2079 C2076 1.539 . S
C2079 H2093 0.958 . S
C2079 H2094 0.961 . S
C2079 H2095 0.960 . S
H2080 C2064 0.931 . S
H2081 C2069 0.929 . S
H2082 C2070 0.960 . S
H2083 C2070 0.962 . S
H2084 C2070 0.960 . S
H2085 C2071 0.961 . S
H2086 C2071 0.961 . S
H2087 C2071 0.961 . S
H2088 C2072 0.931 . S
H2089 C2077 0.930 . S
H2090 C2078 0.956 . S
H2091 C2078 0.961 . S
H2092 C2078 0.961 . S
H2093 C2079 0.958 . S
H2094 C2079 0.961 . S
H2095 C2079 0.960 . S
C2096 C2097 1.391 . S
C2096 C2098 1.394 . S
C2096 H2112 0.931 . S
C2097 C2096 1.391 . S
C2097 C2101 1.376 . S
C2098 C2096 1.394 . S
C2098 C2099 1.369 . S
C2098 C2102 1.531 . S
C2099 C2098 1.369 . S
C2099 C2100 1.410 . S
C2099 C2107 1.503 . S
C2100 C2099 1.410 . S
C2100 C2101 1.392 . S
C2100 C2103 1.511 . S
C2101 C2097 1.376 . S
C2101 C2100 1.392 . S
C2101 H2113 0.929 . S
C2102 C2098 1.531 . S
C2102 H2114 0.960 . S
C2102 H2115 0.962 . S
C2102 H2116 0.960 1_545 S
C2103 C2100 1.511 . S
C2103 H2117 0.961 . S
C2103 H2118 0.961 . S
C2103 H2119 0.961 . S
C2104 C2105 1.370 . S
C2104 C2106 1.363 . S
C2104 H2120 0.931 . S
C2105 C2104 1.370 . S
C2105 C2109 1.408 . S
C2106 C2104 1.363 . S
C2106 C2107 1.370 . S
C2106 C2110 1.524 . S
C2107 C2099 1.503 . S
C2107 C2106 1.370 . S
C2107 C2108 1.403 . S
C2108 C2107 1.403 . S
C2108 C2109 1.404 . S
C2108 C2111 1.539 1_545 S
C2109 C2105 1.408 . S
C2109 C2108 1.404 . S
C2109 H2121 0.930 . S
C2110 C2106 1.524 . S
C2110 H2122 0.956 . S
C2110 H2123 0.961 . S
C2110 H2124 0.961 . S
C2111 C2108 1.539 1_565 S
C2111 H2125 0.958 . S
C2111 H2126 0.961 . S
C2111 H2127 0.960 . S
H2112 C2096 0.931 . S
H2113 C2101 0.929 . S
H2114 C2102 0.960 . S
H2115 C2102 0.962 . S
H2116 C2102 0.960 1_565 S
H2117 C2103 0.961 . S
H2118 C2103 0.961 . S
H2119 C2103 0.961 . S
H2120 C2104 0.931 . S
H2121 C2109 0.930 . S
H2122 C2110 0.956 . S
H2123 C2110 0.961 . S
H2124 C2110 0.961 . S
H2125 C2111 0.958 . S
H2126 C2111 0.961 . S
H2127 C2111 0.960 . S
C2128 C2129 1.391 . S
C2128 C2130 1.394 . S
C2128 H2144 0.931 . S
C2129 C2128 1.391 . S
C2129 C2133 1.376 . S
C2130 C2128 1.394 . S
C2130 C2131 1.369 . S
C2130 C2134 1.531 . S
C2131 C2130 1.369 . S
C2131 C2132 1.410 . S
C2131 C2139 1.503 . S
C2132 C2131 1.410 . S
C2132 C2133 1.392 . S
C2132 C2135 1.511 . S
C2133 C2129 1.376 . S
C2133 C2132 1.392 . S
C2133 H2145 0.908 1_556 S
C2134 C2130 1.531 . S
C2134 H2146 0.960 . S
C2134 H2147 0.962 . S
C2134 H2148 0.960 . S
C2135 C2132 1.511 . S
C2135 H2149 0.961 . S
C2135 H2150 0.961 . S
C2135 H2151 0.961 . S
C2136 C2137 1.370 . S
C2136 C2138 1.363 . S
C2136 H2152 0.931 . S
C2137 C2136 1.370 . S
C2137 C2141 1.408 . S
C2138 C2136 1.363 . S
C2138 C2139 1.370 . S
C2138 C2142 1.524 . S
C2139 C2131 1.503 . S
C2139 C2138 1.370 . S
C2139 C2140 1.403 . S
C2140 C2139 1.403 . S
C2140 C2141 1.404 . S
C2140 C2143 1.539 . S
C2141 C2137 1.408 . S
C2141 C2140 1.404 . S
C2141 H2153 0.930 . S
C2142 C2138 1.524 . S
C2142 H2154 0.956 . S
C2142 H2155 0.961 . S
C2142 H2156 0.961 . S
C2143 C2140 1.539 . S
C2143 H2157 0.958 . S
C2143 H2158 0.961 . S
C2143 H2159 0.960 . S
H2144 C2128 0.931 . S
H2145 C2133 0.908 1_554 S
H2146 C2134 0.960 . S
H2147 C2134 0.962 . S
H2148 C2134 0.960 . S
H2149 C2135 0.961 . S
H2150 C2135 0.961 . S
H2151 C2135 0.961 . S
H2152 C2136 0.931 . S
H2153 C2141 0.930 . S
H2154 C2142 0.956 . S
H2155 C2142 0.961 . S
H2156 C2142 0.961 . S
H2157 C2143 0.958 . S
H2158 C2143 0.961 . S
H2159 C2143 0.960 . S
C2160 C2161 1.391 . S
C2160 C2162 1.394 . S
C2160 H2176 0.931 1_554 S
C2161 C2160 1.391 . S
C2161 C2165 1.376 . S
C2162 C2160 1.394 . S
C2162 C2163 1.369 . S
C2162 C2166 1.537 . S
C2163 C2162 1.369 . S
C2163 C2164 1.410 . S
C2163 C2171 1.503 . S
C2164 C2163 1.410 . S
C2164 C2165 1.392 . S
C2164 C2167 1.511 . S
C2165 C2161 1.376 . S
C2165 C2164 1.392 . S
C2165 H2177 0.929 . S
C2166 C2162 1.537 . S
C2166 H2178 0.960 . S
C2166 H2179 0.966 . S
C2166 H2180 0.950 1_554 S
C2167 C2164 1.511 . S
C2167 H2181 0.961 . S
C2167 H2182 0.961 . S
C2167 H2183 0.961 1_565 S
C2168 C2169 1.370 . S
C2168 C2170 1.363 . S
C2168 H2184 0.931 . S
C2169 C2168 1.370 . S
C2169 C2173 1.408 1_565 S
C2170 C2168 1.363 . S
C2170 C2171 1.370 . S
C2170 C2174 1.524 . S
C2171 C2163 1.503 . S
C2171 C2170 1.370 . S
C2171 C2172 1.403 . S
C2172 C2171 1.403 . S
C2172 C2173 1.404 1_565 S
C2172 C2175 1.539 1_565 S
C2173 C2169 1.408 1_545 S
C2173 C2172 1.404 1_545 S
C2173 H2185 0.930 . S
C2174 C2170 1.524 . S
C2174 H2186 0.956 . S
C2174 H2187 0.961 . S
C2174 H2188 0.961 . S
C2175 C2172 1.539 1_545 S
C2175 H2189 0.988 . S
C2175 H2190 0.961 . S
C2175 H2191 0.960 . S
H2176 C2160 0.931 1_556 S
H2177 C2165 0.929 . S
H2178 C2166 0.960 . S
H2179 C2166 0.966 . S
H2180 C2166 0.950 1_556 S
H2181 C2167 0.961 . S
H2182 C2167 0.961 . S
H2183 C2167 0.961 1_545 S
H2184 C2168 0.931 . S
H2185 C2173 0.930 . S
H2186 C2174 0.956 . S
H2187 C2174 0.961 . S
H2188 C2174 0.961 . S
H2189 C2175 0.988 . S
H2190 C2175 0.961 . S
H2191 C2175 0.960 . S
C2192 C2193 1.391 1_556 S
C2192 C2194 1.394 . S
C2192 H2208 0.931 . S
C2193 C2192 1.391 1_554 S
C2193 C2197 1.376 . S
C2194 C2192 1.394 . S
C2194 C2195 1.369 1_556 S
C2194 C2198 1.531 . S
C2195 C2194 1.369 1_554 S
C2195 C2196 1.410 . S
C2195 C2203 1.503 . S
C2196 C2195 1.410 . S
C2196 C2197 1.392 . S
C2196 C2199 1.511 . S
C2197 C2193 1.376 . S
C2197 C2196 1.392 . S
C2197 H2209 0.929 . S
C2198 C2194 1.531 . S
C2198 H2210 0.960 . S
C2198 H2211 0.962 . S
C2198 H2212 0.960 . S
C2199 C2196 1.511 . S
C2199 H2213 0.961 . S
C2199 H2214 0.961 . S
C2199 H2215 0.961 . S
C2200 C2201 1.370 . S
C2200 C2202 1.363 . S
C2200 H2216 0.931 . S
C2201 C2200 1.370 . S
C2201 C2205 1.408 1_554 S
C2202 C2200 1.363 . S
C2202 C2203 1.370 . S
C2202 C2206 1.524 . S
C2203 C2195 1.503 . S
C2203 C2202 1.370 . S
C2203 C2204 1.403 1_554 S
C2204 C2203 1.403 1_556 S
C2204 C2205 1.404 . S
C2204 C2207 1.539 . S
C2205 C2201 1.408 1_556 S
C2205 C2204 1.404 . S
C2205 H2217 0.930 . S
C2206 C2202 1.524 . S
C2206 H2218 0.956 . S
C2206 H2219 0.961 . S
C2206 H2220 0.961 . S
C2207 C2204 1.539 . S
C2207 H2221 0.958 . S
C2207 H2222 0.961 . S
C2207 H2223 0.960 . S
H2208 C2192 0.931 . S
H2209 C2197 0.929 . S
H2210 C2198 0.960 . S
H2211 C2198 0.962 . S
H2212 C2198 0.960 . S
H2213 C2199 0.961 . S
H2214 C2199 0.961 . S
H2215 C2199 0.961 . S
H2216 C2200 0.931 . S
H2217 C2205 0.930 . S
H2218 C2206 0.956 . S
H2219 C2206 0.961 . S
H2220 C2206 0.961 . S
H2221 C2207 0.958 . S
H2222 C2207 0.961 . S
H2223 C2207 0.960 . S
C2224 C2225 1.391 . S
C2224 C2226 1.394 . S
C2224 H2240 0.931 . S
C2225 C2224 1.391 . S
C2225 C2229 1.376 . S
C2226 C2224 1.394 . S
C2226 C2227 1.369 . S
C2226 C2230 1.531 . S
C2227 C2226 1.369 . S
C2227 C2228 1.410 . S
C2227 C2235 1.503 . S
C2228 C2227 1.410 . S
C2228 C2229 1.392 . S
C2228 C2231 1.511 . S
C2229 C2225 1.376 . S
C2229 C2228 1.392 . S
C2229 H2241 0.929 . S
C2230 C2226 1.531 . S
C2230 H2242 0.960 . S
C2230 H2243 0.962 . S
C2230 H2244 0.960 . S
C2231 C2228 1.511 . S
C2231 H2245 0.961 . S
C2231 H2246 0.961 . S
C2231 H2247 0.961 . S
C2232 C2233 1.370 . S
C2232 C2234 1.363 . S
C2232 H2248 0.931 . S
C2233 C2232 1.370 . S
C2233 C2237 1.408 . S
C2234 C2232 1.363 . S
C2234 C2235 1.370 . S
C2234 C2238 1.524 . S
C2235 C2227 1.503 . S
C2235 C2234 1.370 . S
C2235 C2236 1.403 . S
C2236 C2235 1.403 . S
C2236 C2237 1.404 . S
C2236 C2239 1.539 . S
C2237 C2233 1.408 . S
C2237 C2236 1.404 . S
C2237 H2249 0.930 . S
C2238 C2234 1.524 . S
C2238 H2250 0.956 . S
C2238 H2251 0.961 . S
C2238 H2252 0.961 . S
C2239 C2236 1.539 . S
C2239 H2253 0.958 . S
C2239 H2254 0.961 . S
C2239 H2255 0.960 . S
H2240 C2224 0.931 . S
H2241 C2229 0.929 . S
H2242 C2230 0.960 . S
H2243 C2230 0.962 . S
H2244 C2230 0.960 . S
H2245 C2231 0.961 . S
H2246 C2231 0.961 . S
H2247 C2231 0.961 . S
H2248 C2232 0.931 . S
H2249 C2237 0.930 . S
H2250 C2238 0.956 . S
H2251 C2238 0.961 . S
H2252 C2238 0.961 . S
H2253 C2239 0.958 . S
H2254 C2239 0.961 . S
H2255 C2239 0.960 . S
C2256 C2257 1.391 . S
C2256 C2258 1.394 . S
C2256 H2272 0.931 . S
C2257 C2256 1.391 . S
C2257 C2261 1.376 . S
C2258 C2256 1.394 . S
C2258 C2259 1.369 . S
C2258 C2262 1.531 . S
C2259 C2258 1.369 . S
C2259 C2260 1.410 . S
C2259 C2267 1.503 . S
C2260 C2259 1.410 . S
C2260 C2261 1.392 . S
C2260 C2263 1.511 . S
C2261 C2257 1.376 . S
C2261 C2260 1.392 . S
C2261 H2273 0.929 . S
C2262 C2258 1.531 . S
C2262 H2274 0.960 . S
C2262 H2275 0.962 . S
C2262 H2276 0.960 . S
C2263 C2260 1.511 . S
C2263 H2277 0.961 . S
C2263 H2278 0.961 . S
C2263 H2279 0.961 . S
C2264 C2265 1.370 . S
C2264 C2266 1.363 . S
C2264 H2280 0.931 . S
C2265 C2264 1.370 . S
C2265 C2269 1.408 . S
C2266 C2264 1.363 . S
C2266 C2267 1.370 . S
C2266 C2270 1.524 . S
C2267 C2259 1.503 . S
C2267 C2266 1.370 . S
C2267 C2268 1.403 . S
C2268 C2267 1.403 . S
C2268 C2269 1.404 . S
C2268 C2271 1.539 . S
C2269 C2265 1.408 . S
C2269 C2268 1.404 . S
C2269 H2281 0.930 . S
C2270 C2266 1.524 . S
C2270 H2282 0.956 . S
C2270 H2283 0.961 . S
C2270 H2284 0.961 . S
C2271 C2268 1.539 . S
C2271 H2285 0.958 . S
C2271 H2286 0.961 . S
C2271 H2287 0.960 . S
H2272 C2256 0.931 . S
H2273 C2261 0.929 . S
H2274 C2262 0.960 . S
H2275 C2262 0.962 . S
H2276 C2262 0.960 . S
H2277 C2263 0.961 . S
H2278 C2263 0.961 . S
H2279 C2263 0.961 . S
H2280 C2264 0.931 . S
H2281 C2269 0.930 . S
H2282 C2270 0.956 . S
H2283 C2270 0.961 . S
H2284 C2270 0.961 . S
H2285 C2271 0.958 . S
H2286 C2271 0.961 . S
H2287 C2271 0.960 . S
C2288 C2289 1.391 . S
C2288 C2290 1.394 . S
C2288 H2304 0.931 . S
C2289 C2288 1.391 . S
C2289 C2293 1.376 . S
C2290 C2288 1.394 . S
C2290 C2291 1.369 . S
C2290 C2294 1.531 . S
C2291 C2290 1.369 . S
C2291 C2292 1.410 . S
C2291 C2299 1.503 . S
C2292 C2291 1.410 . S
C2292 C2293 1.392 . S
C2292 C2295 1.511 . S
C2293 C2289 1.376 . S
C2293 C2292 1.392 . S
C2293 H2305 0.929 . S
C2294 C2290 1.531 . S
C2294 H2306 0.960 . S
C2294 H2307 0.962 . S
C2294 H2308 0.960 . S
C2295 C2292 1.511 . S
C2295 H2309 0.961 . S
C2295 H2310 0.961 . S
C2295 H2311 0.961 . S
C2296 C2297 1.370 . S
C2296 C2298 1.363 . S
C2296 H2312 0.931 . S
C2297 C2296 1.370 . S
C2297 C2301 1.408 . S
C2298 C2296 1.363 . S
C2298 C2299 1.370 . S
C2298 C2302 1.524 . S
C2299 C2291 1.503 . S
C2299 C2298 1.370 . S
C2299 C2300 1.403 . S
C2300 C2299 1.403 . S
C2300 C2301 1.404 . S
C2300 C2303 1.539 . S
C2301 C2297 1.408 . S
C2301 C2300 1.404 . S
C2301 H2313 0.930 . S
C2302 C2298 1.524 . S
C2302 H2314 0.956 . S
C2302 H2315 0.961 . S
C2302 H2316 0.961 . S
C2303 C2300 1.539 . S
C2303 H2317 0.958 . S
C2303 H2318 0.961 . S
C2303 H2319 0.960 . S
H2304 C2288 0.931 . S
H2305 C2293 0.929 . S
H2306 C2294 0.960 . S
H2307 C2294 0.962 . S
H2308 C2294 0.960 . S
H2309 C2295 0.961 . S
H2310 C2295 0.961 . S
H2311 C2295 0.961 . S
H2312 C2296 0.931 . S
H2313 C2301 0.930 . S
H2314 C2302 0.956 . S
H2315 C2302 0.961 . S
H2316 C2302 0.961 . S
H2317 C2303 0.958 . S
H2318 C2303 0.961 . S
H2319 C2303 0.960 . S
C2320 C2321 1.391 . S
C2320 C2322 1.394 . S
C2320 H2336 0.931 . S
C2321 C2320 1.391 . S
C2321 C2325 1.376 . S
C2322 C2320 1.394 . S
C2322 C2323 1.369 . S
C2322 C2326 1.531 . S
C2323 C2322 1.369 . S
C2323 C2324 1.410 . S
C2323 C2331 1.503 . S
C2324 C2323 1.410 . S
C2324 C2325 1.392 . S
C2324 C2327 1.511 . S
C2325 C2321 1.376 . S
C2325 C2324 1.392 . S
C2325 H2337 0.929 . S
C2326 C2322 1.531 . S
C2326 H2338 0.960 . S
C2326 H2339 0.962 . S
C2326 H2340 0.960 . S
C2327 C2324 1.511 . S
C2327 H2341 0.961 . S
C2327 H2342 0.961 . S
C2327 H2343 0.961 . S
C2328 C2329 1.370 . S
C2328 C2330 1.363 . S
C2328 H2344 0.931 . S
C2329 C2328 1.370 . S
C2329 C2333 1.408 . S
C2330 C2328 1.363 . S
C2330 C2331 1.370 . S
C2330 C2334 1.524 . S
C2331 C2323 1.503 . S
C2331 C2330 1.370 . S
C2331 C2332 1.403 . S
C2332 C2331 1.403 . S
C2332 C2333 1.404 . S
C2332 C2335 1.539 . S
C2333 C2329 1.408 . S
C2333 C2332 1.404 . S
C2333 H2345 0.930 . S
C2334 C2330 1.524 . S
C2334 H2346 0.956 . S
C2334 H2347 0.961 . S
C2334 H2348 0.961 . S
C2335 C2332 1.539 . S
C2335 H2349 0.958 . S
C2335 H2350 0.961 . S
C2335 H2351 0.960 . S
H2336 C2320 0.931 . S
H2337 C2325 0.929 . S
H2338 C2326 0.960 . S
H2339 C2326 0.962 . S
H2340 C2326 0.960 . S
H2341 C2327 0.961 . S
H2342 C2327 0.961 . S
H2343 C2327 0.961 . S
H2344 C2328 0.931 . S
H2345 C2333 0.930 . S
H2346 C2334 0.956 . S
H2347 C2334 0.961 . S
H2348 C2334 0.961 . S
H2349 C2335 0.958 . S
H2350 C2335 0.961 . S
H2351 C2335 0.960 . S
C2352 C2353 1.391 . S
C2352 C2354 1.394 . S
C2352 H2368 0.931 . S
C2353 C2352 1.391 . S
C2353 C2357 1.376 . S
C2354 C2352 1.394 . S
C2354 C2355 1.369 . S
C2354 C2358 1.531 . S
C2355 C2354 1.369 . S
C2355 C2356 1.410 . S
C2355 C2363 1.503 . S
C2356 C2355 1.410 . S
C2356 C2357 1.392 . S
C2356 C2359 1.511 . S
C2357 C2353 1.376 . S
C2357 C2356 1.392 . S
C2357 H2369 0.929 . S
C2358 C2354 1.531 . S
C2358 H2370 0.960 . S
C2358 H2371 0.962 . S
C2358 H2372 0.960 . S
C2359 C2356 1.511 . S
C2359 H2373 0.961 . S
C2359 H2374 0.961 . S
C2359 H2375 0.961 . S
C2360 C2361 1.370 . S
C2360 C2362 1.363 . S
C2360 H2376 0.931 . S
C2361 C2360 1.370 . S
C2361 C2365 1.408 . S
C2362 C2360 1.363 . S
C2362 C2363 1.370 . S
C2362 C2366 1.524 . S
C2363 C2355 1.503 . S
C2363 C2362 1.370 . S
C2363 C2364 1.403 . S
C2364 C2363 1.403 . S
C2364 C2365 1.404 . S
C2364 C2367 1.539 . S
C2365 C2361 1.408 . S
C2365 C2364 1.404 . S
C2365 H2377 0.930 . S
C2366 C2362 1.524 . S
C2366 H2378 0.956 . S
C2366 H2379 0.961 . S
C2366 H2380 0.961 . S
C2367 C2364 1.539 . S
C2367 H2381 0.958 . S
C2367 H2382 0.961 . S
C2367 H2383 0.960 . S
H2368 C2352 0.931 . S
H2369 C2357 0.929 . S
H2370 C2358 0.960 . S
H2371 C2358 0.962 . S
H2372 C2358 0.960 . S
H2373 C2359 0.961 . S
H2374 C2359 0.961 . S
H2375 C2359 0.961 . S
H2376 C2360 0.931 . S
H2377 C2365 0.930 . S
H2378 C2366 0.956 . S
H2379 C2366 0.961 . S
H2380 C2366 0.961 . S
H2381 C2367 0.958 . S
H2382 C2367 0.961 . S
H2383 C2367 0.960 . S
C2384 C2385 1.391 . S
C2384 C2386 1.394 . S
C2384 H2400 0.931 . S
C2385 C2384 1.391 . S
C2385 C2389 1.376 . S
C2386 C2384 1.394 . S
C2386 C2387 1.369 . S
C2386 C2390 1.531 . S
C2387 C2386 1.369 . S
C2387 C2388 1.410 . S
C2387 C2395 1.503 . S
C2388 C2387 1.410 . S
C2388 C2389 1.392 . S
C2388 C2391 1.511 . S
C2389 C2385 1.376 . S
C2389 C2388 1.392 . S
C2389 H2401 0.929 . S
C2390 C2386 1.531 . S
C2390 H2402 0.960 . S
C2390 H2403 0.962 . S
C2390 H2404 0.960 . S
C2391 C2388 1.511 . S
C2391 H2405 0.961 . S
C2391 H2406 0.961 . S
C2391 H2407 0.961 . S
C2392 C2393 1.370 . S
C2392 C2394 1.363 . S
C2392 H2408 0.931 . S
C2393 C2392 1.370 . S
C2393 C2397 1.408 . S
C2394 C2392 1.363 . S
C2394 C2395 1.370 . S
C2394 C2398 1.524 . S
C2395 C2387 1.503 . S
C2395 C2394 1.370 . S
C2395 C2396 1.403 . S
C2396 C2395 1.403 . S
C2396 C2397 1.404 . S
C2396 C2399 1.539 . S
C2397 C2393 1.408 . S
C2397 C2396 1.404 . S
C2397 H2409 0.930 . S
C2398 C2394 1.524 . S
C2398 H2410 0.956 . S
C2398 H2411 0.961 . S
C2398 H2412 0.961 . S
C2399 C2396 1.539 . S
C2399 H2413 0.958 . S
C2399 H2414 0.961 . S
C2399 H2415 0.960 . S
H2400 C2384 0.931 . S
H2401 C2389 0.929 . S
H2402 C2390 0.960 . S
H2403 C2390 0.962 . S
H2404 C2390 0.960 . S
H2405 C2391 0.961 . S
H2406 C2391 0.961 . S
H2407 C2391 0.961 . S
H2408 C2392 0.931 . S
H2409 C2397 0.930 . S
H2410 C2398 0.956 . S
H2411 C2398 0.961 . S
H2412 C2398 0.961 . S
H2413 C2399 0.958 . S
H2414 C2399 0.961 . S
H2415 C2399 0.960 . S
C2416 C2417 1.391 . S
C2416 C2418 1.394 . S
C2416 H2432 0.931 . S
C2417 C2416 1.391 . S
C2417 C2421 1.376 . S
C2418 C2416 1.394 . S
C2418 C2419 1.369 . S
C2418 C2422 1.531 . S
C2419 C2418 1.369 . S
C2419 C2420 1.410 . S
C2419 C2427 1.503 . S
C2420 C2419 1.410 . S
C2420 C2421 1.392 . S
C2420 C2423 1.511 . S
C2421 C2417 1.376 . S
C2421 C2420 1.392 . S
C2421 H2433 0.929 . S
C2422 C2418 1.531 . S
C2422 H2434 0.960 . S
C2422 H2435 0.962 . S
C2422 H2436 0.960 . S
C2423 C2420 1.511 . S
C2423 H2437 0.961 . S
C2423 H2438 0.961 . S
C2423 H2439 0.961 . S
C2424 C2425 1.370 . S
C2424 C2426 1.363 . S
C2424 H2440 0.931 . S
C2425 C2424 1.370 . S
C2425 C2429 1.408 . S
C2426 C2424 1.363 . S
C2426 C2427 1.370 . S
C2426 C2430 1.524 . S
C2427 C2419 1.503 . S
C2427 C2426 1.370 . S
C2427 C2428 1.403 . S
C2428 C2427 1.403 . S
C2428 C2429 1.404 . S
C2428 C2431 1.539 . S
C2429 C2425 1.408 . S
C2429 C2428 1.404 . S
C2429 H2441 0.930 . S
C2430 C2426 1.524 . S
C2430 H2442 0.956 . S
C2430 H2443 0.961 . S
C2430 H2444 0.961 . S
C2431 C2428 1.539 . S
C2431 H2445 0.958 . S
C2431 H2446 0.961 . S
C2431 H2447 0.960 . S
H2432 C2416 0.931 . S
H2433 C2421 0.929 . S
H2434 C2422 0.960 . S
H2435 C2422 0.962 . S
H2436 C2422 0.960 . S
H2437 C2423 0.961 . S
H2438 C2423 0.961 . S
H2439 C2423 0.961 . S
H2440 C2424 0.931 . S
H2441 C2429 0.930 . S
H2442 C2430 0.956 . S
H2443 C2430 0.961 . S
H2444 C2430 0.961 . S
H2445 C2431 0.958 . S
H2446 C2431 0.961 . S
H2447 C2431 0.960 . S
C2448 C2449 1.391 . S
C2448 C2450 1.394 . S
C2448 H2464 0.931 . S
C2449 C2448 1.391 . S
C2449 C2453 1.376 . S
C2450 C2448 1.394 . S
C2450 C2451 1.369 . S
C2450 C2454 1.531 . S
C2451 C2450 1.369 . S
C2451 C2452 1.410 . S
C2451 C2459 1.503 . S
C2452 C2451 1.410 . S
C2452 C2453 1.392 . S
C2452 C2455 1.511 . S
C2453 C2449 1.376 . S
C2453 C2452 1.392 . S
C2453 H2465 0.929 . S
C2454 C2450 1.531 . S
C2454 H2466 0.960 . S
C2454 H2467 0.962 . S
C2454 H2468 0.960 . S
C2455 C2452 1.511 . S
C2455 H2469 0.961 . S
C2455 H2470 0.961 . S
C2455 H2471 0.961 . S
C2456 C2457 1.370 . S
C2456 C2458 1.363 . S
C2456 H2472 0.931 . S
C2457 C2456 1.370 . S
C2457 C2461 1.408 . S
C2458 C2456 1.363 . S
C2458 C2459 1.370 . S
C2458 C2462 1.524 . S
C2459 C2451 1.503 . S
C2459 C2458 1.370 . S
C2459 C2460 1.403 . S
C2460 C2459 1.403 . S
C2460 C2461 1.404 . S
C2460 C2463 1.539 . S
C2461 C2457 1.408 . S
C2461 C2460 1.404 . S
C2461 H2473 0.930 . S
C2462 C2458 1.524 . S
C2462 H2474 0.956 . S
C2462 H2475 0.961 . S
C2462 H2476 0.961 . S
C2463 C2460 1.539 . S
C2463 H2477 0.958 . S
C2463 H2478 0.961 . S
C2463 H2479 0.960 . S
H2464 C2448 0.931 . S
H2465 C2453 0.929 . S
H2466 C2454 0.960 . S
H2467 C2454 0.962 . S
H2468 C2454 0.960 . S
H2469 C2455 0.961 . S
H2470 C2455 0.961 . S
H2471 C2455 0.961 . S
H2472 C2456 0.931 . S
H2473 C2461 0.930 . S
H2474 C2462 0.956 . S
H2475 C2462 0.961 . S
H2476 C2462 0.961 . S
H2477 C2463 0.958 . S
H2478 C2463 0.961 . S
H2479 C2463 0.960 . S
C2480 C2481 1.391 . S
C2480 C2482 1.394 . S
C2480 H2496 0.931 . S
C2481 C2480 1.391 . S
C2481 C2485 1.376 . S
C2482 C2480 1.394 . S
C2482 C2483 1.369 . S
C2482 C2486 1.531 . S
C2483 C2482 1.369 . S
C2483 C2484 1.410 . S
C2483 C2491 1.503 . S
C2484 C2483 1.410 . S
C2484 C2485 1.392 . S
C2484 C2487 1.511 . S
C2485 C2481 1.376 . S
C2485 C2484 1.392 . S
C2485 H2497 0.929 . S
C2486 C2482 1.531 . S
C2486 H2498 0.960 . S
C2486 H2499 0.962 . S
C2486 H2500 0.960 . S
C2487 C2484 1.511 . S
C2487 H2501 0.961 . S
C2487 H2502 0.961 . S
C2487 H2503 0.961 . S
C2488 C2489 1.370 . S
C2488 C2490 1.363 . S
C2488 H2504 0.931 . S
C2489 C2488 1.370 . S
C2489 C2493 1.408 . S
C2490 C2488 1.363 . S
C2490 C2491 1.370 . S
C2490 C2494 1.524 . S
C2491 C2483 1.503 . S
C2491 C2490 1.370 . S
C2491 C2492 1.403 . S
C2492 C2491 1.403 . S
C2492 C2493 1.404 . S
C2492 C2495 1.539 . S
C2493 C2489 1.408 . S
C2493 C2492 1.404 . S
C2493 H2505 0.930 . S
C2494 C2490 1.524 . S
C2494 H2506 0.956 . S
C2494 H2507 0.961 . S
C2494 H2508 0.961 . S
C2495 C2492 1.539 . S
C2495 H2509 0.958 . S
C2495 H2510 0.961 . S
C2495 H2511 0.960 . S
H2496 C2480 0.931 . S
H2497 C2485 0.929 . S
H2498 C2486 0.960 . S
H2499 C2486 0.962 . S
H2500 C2486 0.960 . S
H2501 C2487 0.961 . S
H2502 C2487 0.961 . S
H2503 C2487 0.961 . S
H2504 C2488 0.931 . S
H2505 C2493 0.930 . S
H2506 C2494 0.956 . S
H2507 C2494 0.961 . S
H2508 C2494 0.961 . S
H2509 C2495 0.958 . S
H2510 C2495 0.961 . S
H2511 C2495 0.960 . S
C2512 C2513 1.391 . S
C2512 C2514 1.394 . S
C2512 H2528 0.931 . S
C2513 C2512 1.391 . S
C2513 C2517 1.376 . S
C2514 C2512 1.394 . S
C2514 C2515 1.369 . S
C2514 C2518 1.531 . S
C2515 C2514 1.369 . S
C2515 C2516 1.410 . S
C2515 C2523 1.503 . S
C2516 C2515 1.410 . S
C2516 C2517 1.392 . S
C2516 C2519 1.511 . S
C2517 C2513 1.376 . S
C2517 C2516 1.392 . S
C2517 H2529 0.929 . S
C2518 C2514 1.531 . S
C2518 H2530 0.960 . S
C2518 H2531 0.962 . S
C2518 H2532 0.960 . S
C2519 C2516 1.511 . S
C2519 H2533 0.961 . S
C2519 H2534 0.961 . S
C2519 H2535 0.961 . S
C2520 C2521 1.370 . S
C2520 C2522 1.363 . S
C2520 H2536 0.931 . S
C2521 C2520 1.370 . S
C2521 C2525 1.408 . S
C2522 C2520 1.363 . S
C2522 C2523 1.370 . S
C2522 C2526 1.524 . S
C2523 C2515 1.503 . S
C2523 C2522 1.370 . S
C2523 C2524 1.403 . S
C2524 C2523 1.403 . S
C2524 C2525 1.404 . S
C2524 C2527 1.539 . S
C2525 C2521 1.408 . S
C2525 C2524 1.404 . S
C2525 H2537 0.930 . S
C2526 C2522 1.524 . S
C2526 H2538 0.956 . S
C2526 H2539 0.961 . S
C2526 H2540 0.961 . S
C2527 C2524 1.539 . S
C2527 H2541 0.958 . S
C2527 H2542 0.961 . S
C2527 H2543 0.960 . S
H2528 C2512 0.931 . S
H2529 C2517 0.929 . S
H2530 C2518 0.960 . S
H2531 C2518 0.962 . S
H2532 C2518 0.960 . S
H2533 C2519 0.961 . S
H2534 C2519 0.961 . S
H2535 C2519 0.961 . S
H2536 C2520 0.931 . S
H2537 C2525 0.930 . S
H2538 C2526 0.956 . S
H2539 C2526 0.961 . S
H2540 C2526 0.961 . S
H2541 C2527 0.958 . S
H2542 C2527 0.961 . S
H2543 C2527 0.960 . S
C2544 C2545 1.391 . S
C2544 C2546 1.394 . S
C2544 H2560 0.931 . S
C2545 C2544 1.391 . S
C2545 C2549 1.376 . S
C2546 C2544 1.394 . S
C2546 C2547 1.369 . S
C2546 C2550 1.531 . S
C2547 C2546 1.369 . S
C2547 C2548 1.410 . S
C2547 C2555 1.503 . S
C2548 C2547 1.410 . S
C2548 C2549 1.392 . S
C2548 C2551 1.511 . S
C2549 C2545 1.376 . S
C2549 C2548 1.392 . S
C2549 H2561 0.929 . S
C2550 C2546 1.531 . S
C2550 H2562 0.960 . S
C2550 H2563 0.962 . S
C2550 H2564 0.960 . S
C2551 C2548 1.511 . S
C2551 H2565 0.961 . S
C2551 H2566 0.961 . S
C2551 H2567 0.961 . S
C2552 C2553 1.370 1_554 S
C2552 C2554 1.363 1_554 S
C2552 H2568 0.931 . S
C2553 C2552 1.370 1_556 S
C2553 C2557 1.408 . S
C2554 C2552 1.363 1_556 S
C2554 C2555 1.370 . S
C2554 C2558 1.524 1_556 S
C2555 C2547 1.503 . S
C2555 C2554 1.370 . S
C2555 C2556 1.403 . S
C2556 C2555 1.403 . S
C2556 C2557 1.404 . S
C2556 C2559 1.539 . S
C2557 C2553 1.408 . S
C2557 C2556 1.404 . S
C2557 H2569 0.930 . S
C2558 C2554 1.524 1_554 S
C2558 H2570 0.956 1_554 S
C2558 H2571 0.956 1_554 S
C2558 H2572 0.961 . S
C2559 C2556 1.539 . S
C2559 H2573 0.958 . S
C2559 H2574 0.961 . S
C2559 H2575 0.960 . S
H2560 C2544 0.931 . S
H2561 C2549 0.929 . S
H2562 C2550 0.960 . S
H2563 C2550 0.962 . S
H2564 C2550 0.960 . S
H2565 C2551 0.961 . S
H2566 C2551 0.961 . S
H2567 C2551 0.961 . S
H2568 C2552 0.931 . S
H2569 C2557 0.930 . S
H2570 C2558 0.956 1_556 S
H2571 C2558 0.956 1_556 S
H2572 C2558 0.961 . S
H2573 C2559 0.958 . S
H2574 C2559 0.961 . S
H2575 C2559 0.960 . S
C2576 C2577 1.391 . S
C2576 C2578 1.394 1_455 S
C2576 H2592 0.931 . S
C2577 C2576 1.391 . S
C2577 C2581 1.376 1_455 S
C2578 C2576 1.394 1_655 S
C2578 C2579 1.369 . S
C2578 C2582 1.531 . S
C2579 C2578 1.369 . S
C2579 C2580 1.410 . S
C2579 C2587 1.503 . S
C2580 C2579 1.410 . S
C2580 C2581 1.392 . S
C2580 C2583 1.511 . S
C2581 C2577 1.376 1_655 S
C2581 C2580 1.392 . S
C2581 H2593 0.929 . S
C2582 C2578 1.531 . S
C2582 H2594 0.960 . S
C2582 H2595 0.962 . S
C2582 H2596 0.960 . S
C2583 C2580 1.511 . S
C2583 H2597 0.961 . S
C2583 H2598 0.961 . S
C2583 H2599 0.961 . S
C2584 C2585 1.370 . S
C2584 C2586 1.363 . S
C2584 H2600 0.931 . S
C2585 C2584 1.370 . S
C2585 C2589 1.408 . S
C2586 C2584 1.363 . S
C2586 C2587 1.370 . S
C2586 C2590 1.524 . S
C2587 C2579 1.503 . S
C2587 C2586 1.370 . S
C2587 C2588 1.403 . S
C2588 C2587 1.403 . S
C2588 C2589 1.404 . S
C2588 C2591 1.539 . S
C2589 C2585 1.408 . S
C2589 C2588 1.404 . S
C2589 H2601 0.930 . S
C2590 C2586 1.524 . S
C2590 H2602 0.956 . S
C2590 H2603 0.961 . S
C2590 H2604 0.961 . S
C2591 C2588 1.539 . S
C2591 H2605 0.958 . S
C2591 H2606 0.961 . S
C2591 H2607 0.960 . S
H2592 C2576 0.931 . S
H2593 C2581 0.929 . S
H2594 C2582 0.960 . S
H2595 C2582 0.962 . S
H2596 C2582 0.960 . S
H2597 C2583 0.961 . S
H2598 C2583 0.961 . S
H2599 C2583 0.961 . S
H2600 C2584 0.931 . S
H2601 C2589 0.930 . S
H2602 C2590 0.956 . S
H2603 C2590 0.961 . S
H2604 C2590 0.961 . S
H2605 C2591 0.958 . S
H2606 C2591 0.961 . S
H2607 C2591 0.960 . S
C2608 C2609 1.391 . S
C2608 C2610 1.394 . S
C2608 H2624 0.931 . S
C2609 C2608 1.391 . S
C2609 C2613 1.376 . S
C2610 C2608 1.394 . S
C2610 C2611 1.369 . S
C2610 C2614 1.531 1_455 S
C2611 C2610 1.369 . S
C2611 C2612 1.410 . S
C2611 C2619 1.503 . S
C2612 C2611 1.410 . S
C2612 C2613 1.392 . S
C2612 C2615 1.511 . S
C2613 C2609 1.376 . S
C2613 C2612 1.392 . S
C2613 H2625 0.929 . S
C2614 C2610 1.531 1_655 S
C2614 H2626 0.960 1_655 S
C2614 H2627 0.962 . S
C2614 H2628 0.960 . S
C2615 C2612 1.511 . S
C2615 H2629 0.961 . S
C2615 H2630 0.961 . S
C2615 H2631 0.961 . S
C2616 C2617 1.370 . S
C2616 C2618 1.363 . S
C2616 H2632 0.931 . S
C2617 C2616 1.370 . S
C2617 C2621 1.408 . S
C2618 C2616 1.363 . S
C2618 C2619 1.370 . S
C2618 C2622 1.524 . S
C2619 C2611 1.503 . S
C2619 C2618 1.370 . S
C2619 C2620 1.403 . S
C2620 C2619 1.403 . S
C2620 C2621 1.404 . S
C2620 C2623 1.539 . S
C2621 C2617 1.408 . S
C2621 C2620 1.404 . S
C2621 H2633 0.930 . S
C2622 C2618 1.524 . S
C2622 H2634 0.956 1_455 S
C2622 H2635 0.961 . S
C2622 H2636 0.961 . S
C2623 C2620 1.539 . S
C2623 H2637 0.958 . S
C2623 H2638 0.961 . S
C2623 H2639 0.960 . S
H2624 C2608 0.931 . S
H2625 C2613 0.929 . S
H2626 C2614 0.960 1_455 S
H2627 C2614 0.962 . S
H2628 C2614 0.960 . S
H2629 C2615 0.961 . S
H2630 C2615 0.961 . S
H2631 C2615 0.961 . S
H2632 C2616 0.931 . S
H2633 C2621 0.930 . S
H2634 C2622 0.956 1_655 S
H2635 C2622 0.961 . S
H2636 C2622 0.961 . S
H2637 C2623 0.958 . S
H2638 C2623 0.961 . S
H2639 C2623 0.960 . S
C2640 C2641 1.391 . S
C2640 C2642 1.394 . S
C2640 H2656 0.931 . S
C2641 C2640 1.391 . S
C2641 C2645 1.376 . S
C2642 C2640 1.394 . S
C2642 C2643 1.369 . S
C2642 C2646 1.531 . S
C2643 C2642 1.369 . S
C2643 C2644 1.410 . S
C2643 C2651 1.503 . S
C2644 C2643 1.410 . S
C2644 C2645 1.392 . S
C2644 C2647 1.511 . S
C2645 C2641 1.376 . S
C2645 C2644 1.392 . S
C2645 H2657 0.929 . S
C2646 C2642 1.531 . S
C2646 H2658 0.960 . S
C2646 H2659 0.962 . S
C2646 H2660 0.960 . S
C2647 C2644 1.511 . S
C2647 H2661 0.961 . S
C2647 H2662 0.961 . S
C2647 H2663 0.961 . S
C2648 C2649 1.370 . S
C2648 C2650 1.363 . S
C2648 H2664 0.931 . S
C2649 C2648 1.370 . S
C2649 C2653 1.408 . S
C2650 C2648 1.363 . S
C2650 C2651 1.370 . S
C2650 C2654 1.524 . S
C2651 C2643 1.503 . S
C2651 C2650 1.370 . S
C2651 C2652 1.403 . S
C2652 C2651 1.403 . S
C2652 C2653 1.404 . S
C2652 C2655 1.539 . S
C2653 C2649 1.408 . S
C2653 C2652 1.404 . S
C2653 H2665 0.930 . S
C2654 C2650 1.524 . S
C2654 H2666 0.956 . S
C2654 H2667 0.961 . S
C2654 H2668 0.961 . S
C2655 C2652 1.539 . S
C2655 H2669 0.958 . S
C2655 H2670 0.961 . S
C2655 H2671 0.960 . S
H2656 C2640 0.931 . S
H2657 C2645 0.929 . S
H2658 C2646 0.960 . S
H2659 C2646 0.962 . S
H2660 C2646 0.960 . S
H2661 C2647 0.961 . S
H2662 C2647 0.961 . S
H2663 C2647 0.961 . S
H2664 C2648 0.931 . S
H2665 C2653 0.930 . S
H2666 C2654 0.956 . S
H2667 C2654 0.961 . S
H2668 C2654 0.961 . S
H2669 C2655 0.958 . S
H2670 C2655 0.961 . S
H2671 C2655 0.960 . S
C2672 C2673 1.391 . S
C2672 C2674 1.394 . S
C2672 H2688 0.931 . S
C2673 C2672 1.391 . S
C2673 C2677 1.376 . S
C2674 C2672 1.394 . S
C2674 C2675 1.369 . S
C2674 C2678 1.531 . S
C2675 C2674 1.369 . S
C2675 C2676 1.410 . S
C2675 C2683 1.503 . S
C2676 C2675 1.410 . S
C2676 C2677 1.392 . S
C2676 C2679 1.511 . S
C2677 C2673 1.376 . S
C2677 C2676 1.392 . S
C2677 H2689 0.929 . S
C2678 C2674 1.531 . S
C2678 H2690 0.960 . S
C2678 H2691 0.962 . S
C2678 H2692 0.960 . S
C2679 C2676 1.511 . S
C2679 H2693 0.961 . S
C2679 H2694 0.961 . S
C2679 H2695 0.961 . S
C2680 C2681 1.370 . S
C2680 C2682 1.363 . S
C2680 H2696 0.931 . S
C2681 C2680 1.370 . S
C2681 C2685 1.408 . S
C2682 C2680 1.363 . S
C2682 C2683 1.370 . S
C2682 C2686 1.524 . S
C2683 C2675 1.503 . S
C2683 C2682 1.370 . S
C2683 C2684 1.403 . S
C2684 C2683 1.403 . S
C2684 C2685 1.404 . S
C2684 C2687 1.539 . S
C2685 C2681 1.408 . S
C2685 C2684 1.404 . S
C2685 H2697 0.930 . S
C2686 C2682 1.524 . S
C2686 H2698 0.956 . S
C2686 H2699 0.961 . S
C2686 H2700 0.961 . S
C2687 C2684 1.539 . S
C2687 H2701 0.958 . S
C2687 H2702 0.961 . S
C2687 H2703 0.960 . S
H2688 C2672 0.931 . S
H2689 C2677 0.929 . S
H2690 C2678 0.960 . S
H2691 C2678 0.962 . S
H2692 C2678 0.960 . S
H2693 C2679 0.961 . S
H2694 C2679 0.961 . S
H2695 C2679 0.961 . S
H2696 C2680 0.931 . S
H2697 C2685 0.930 . S
H2698 C2686 0.956 . S
H2699 C2686 0.961 . S
H2700 C2686 0.961 . S
H2701 C2687 0.958 . S
H2702 C2687 0.961 . S
H2703 C2687 0.960 . S
C2704 C2705 1.391 1_556 S
C2704 C2706 1.394 . S
C2704 H2720 0.931 . S
C2705 C2704 1.391 1_554 S
C2705 C2709 1.373 1_554 S
C2706 C2704 1.394 . S
C2706 C2707 1.369 . S
C2706 C2710 1.531 . S
C2707 C2706 1.369 . S
C2707 C2708 1.410 . S
C2707 C2715 1.503 . S
C2708 C2707 1.410 . S
C2708 C2709 1.408 . S
C2708 C2711 1.511 . S
C2709 C2705 1.373 1_556 S
C2709 C2708 1.408 . S
C2709 H2721 0.916 1_556 S
C2710 C2706 1.531 . S
C2710 H2722 0.960 . S
C2710 H2723 0.962 . S
C2710 H2724 0.960 . S
C2711 C2708 1.511 . S
C2711 H2725 0.961 . S
C2711 H2726 0.961 . S
C2711 H2727 0.961 . S
C2712 C2713 1.370 . S
C2712 C2714 1.363 . S
C2712 H2728 0.931 . S
C2713 C2712 1.370 . S
C2713 C2717 1.408 . S
C2714 C2712 1.363 . S
C2714 C2715 1.370 . S
C2714 C2718 1.524 . S
C2715 C2707 1.503 . S
C2715 C2714 1.370 . S
C2715 C2716 1.403 . S
C2716 C2715 1.403 . S
C2716 C2717 1.404 . S
C2716 C2719 1.539 . S
C2717 C2713 1.408 . S
C2717 C2716 1.404 . S
C2717 H2729 0.930 . S
C2718 C2714 1.524 . S
C2718 H2730 0.956 . S
C2718 H2731 0.961 . S
C2718 H2732 0.961 . S
C2719 C2716 1.539 . S
C2719 H2733 0.958 . S
C2719 H2734 0.961 . S
C2719 H2735 0.960 . S
H2720 C2704 0.931 . S
H2721 C2709 0.916 1_554 S
H2722 C2710 0.960 . S
H2723 C2710 0.962 . S
H2724 C2710 0.960 . S
H2725 C2711 0.961 . S
H2726 C2711 0.961 . S
H2727 C2711 0.961 . S
H2728 C2712 0.931 . S
H2729 C2717 0.930 . S
H2730 C2718 0.956 . S
H2731 C2718 0.961 . S
H2732 C2718 0.961 . S
H2733 C2719 0.958 . S
H2734 C2719 0.961 . S
H2735 C2719 0.960 . S
C2736 C2737 1.391 . S
C2736 C2738 1.394 . S
C2736 H2752 0.931 . S
C2737 C2736 1.391 . S
C2737 C2741 1.376 . S
C2738 C2736 1.394 . S
C2738 C2739 1.369 . S
C2738 C2742 1.531 . S
C2739 C2738 1.369 . S
C2739 C2740 1.410 . S
C2739 C2747 1.503 . S
C2740 C2739 1.410 . S
C2740 C2741 1.392 . S
C2740 C2743 1.511 . S
C2741 C2737 1.376 . S
C2741 C2740 1.392 . S
C2741 H2753 0.929 . S
C2742 C2738 1.531 . S
C2742 H2754 0.960 . S
C2742 H2755 0.962 1_655 S
C2742 H2756 0.960 . S
C2743 C2740 1.511 . S
C2743 H2757 0.961 . S
C2743 H2758 0.961 . S
C2743 H2759 0.961 . S
C2744 C2745 1.370 1_655 S
C2744 C2746 1.363 . S
C2744 H2760 0.931 1_655 S
C2745 C2744 1.370 1_455 S
C2745 C2749 1.408 1_455 S
C2746 C2744 1.363 . S
C2746 C2747 1.370 . S
C2746 C2750 1.524 . S
C2747 C2739 1.503 . S
C2747 C2746 1.370 . S
C2747 C2748 1.403 . S
C2748 C2747 1.403 . S
C2748 C2749 1.404 . S
C2748 C2751 1.539 . S
C2749 C2745 1.408 1_655 S
C2749 C2748 1.404 . S
C2749 H2761 0.930 . S
C2750 C2746 1.524 . S
C2750 H2762 0.956 . S
C2750 H2763 0.961 . S
C2750 H2764 0.961 . S
C2751 C2748 1.539 . S
C2751 H2765 0.958 . S
C2751 H2766 0.961 . S
C2751 H2767 0.960 . S
H2752 C2736 0.931 . S
H2753 C2741 0.929 . S
H2754 C2742 0.960 . S
H2755 C2742 0.962 1_455 S
H2756 C2742 0.960 . S
H2757 C2743 0.961 . S
H2758 C2743 0.961 . S
H2759 C2743 0.961 . S
H2760 C2744 0.931 1_455 S
H2761 C2749 0.930 . S
H2762 C2750 0.956 . S
H2763 C2750 0.961 . S
H2764 C2750 0.961 . S
H2765 C2751 0.958 . S
H2766 C2751 0.961 . S
H2767 C2751 0.960 . S
C2768 C2769 1.391 . S
C2768 C2770 1.394 . S
C2768 H2784 0.931 . S
C2769 C2768 1.391 . S
C2769 C2773 1.376 . S
C2770 C2768 1.394 . S
C2770 C2771 1.369 . S
C2770 C2774 1.531 . S
C2771 C2770 1.369 . S
C2771 C2772 1.410 . S
C2771 C2779 1.503 . S
C2772 C2771 1.410 . S
C2772 C2773 1.392 . S
C2772 C2775 1.511 . S
C2773 C2769 1.376 . S
C2773 C2772 1.392 . S
C2773 H2785 0.929 . S
C2774 C2770 1.531 . S
C2774 H2786 0.960 . S
C2774 H2787 0.962 . S
C2774 H2788 0.960 . S
C2775 C2772 1.511 . S
C2775 H2789 0.961 . S
C2775 H2790 0.961 . S
C2775 H2791 0.961 . S
C2776 C2777 1.370 . S
C2776 C2778 1.363 . S
C2776 H2792 0.931 . S
C2777 C2776 1.370 . S
C2777 C2781 1.408 . S
C2778 C2776 1.363 . S
C2778 C2779 1.370 . S
C2778 C2782 1.524 . S
C2779 C2771 1.503 . S
C2779 C2778 1.370 . S
C2779 C2780 1.403 . S
C2780 C2779 1.403 . S
C2780 C2781 1.404 . S
C2780 C2783 1.539 . S
C2781 C2777 1.408 . S
C2781 C2780 1.404 . S
C2781 H2793 0.930 . S
C2782 C2778 1.524 . S
C2782 H2794 0.956 . S
C2782 H2795 0.961 . S
C2782 H2796 0.961 . S
C2783 C2780 1.539 . S
C2783 H2797 0.958 . S
C2783 H2798 0.961 . S
C2783 H2799 0.960 . S
H2784 C2768 0.931 . S
H2785 C2773 0.929 . S
H2786 C2774 0.960 . S
H2787 C2774 0.962 . S
H2788 C2774 0.960 . S
H2789 C2775 0.961 . S
H2790 C2775 0.961 . S
H2791 C2775 0.961 . S
H2792 C2776 0.931 . S
H2793 C2781 0.930 . S
H2794 C2782 0.956 . S
H2795 C2782 0.961 . S
H2796 C2782 0.961 . S
H2797 C2783 0.958 . S
H2798 C2783 0.961 . S
H2799 C2783 0.960 . S
C2800 C2801 1.391 . S
C2800 C2802 1.394 . S
C2800 H2816 0.931 . S
C2801 C2800 1.391 . S
C2801 C2805 1.376 . S
C2802 C2800 1.394 . S
C2802 C2803 1.369 . S
C2802 C2806 1.531 . S
C2803 C2802 1.369 . S
C2803 C2804 1.410 . S
C2803 C2811 1.503 . S
C2804 C2803 1.410 . S
C2804 C2805 1.392 . S
C2804 C2807 1.511 . S
C2805 C2801 1.376 . S
C2805 C2804 1.392 . S
C2805 H2817 0.929 . S
C2806 C2802 1.531 . S
C2806 H2818 0.960 . S
C2806 H2819 0.962 . S
C2806 H2820 0.960 . S
C2807 C2804 1.511 . S
C2807 H2821 0.961 . S
C2807 H2822 0.961 . S
C2807 H2823 0.961 . S
C2808 C2809 1.370 . S
C2808 C2810 1.363 . S
C2808 H2824 0.931 . S
C2809 C2808 1.370 . S
C2809 C2813 1.408 . S
C2810 C2808 1.363 . S
C2810 C2811 1.370 . S
C2810 C2814 1.524 . S
C2811 C2803 1.503 . S
C2811 C2810 1.370 . S
C2811 C2812 1.403 . S
C2812 C2811 1.403 . S
C2812 C2813 1.404 . S
C2812 C2815 1.539 . S
C2813 C2809 1.408 . S
C2813 C2812 1.404 . S
C2813 H2825 0.930 . S
C2814 C2810 1.524 . S
C2814 H2826 0.956 . S
C2814 H2827 0.961 . S
C2814 H2828 0.961 . S
C2815 C2812 1.539 . S
C2815 H2829 0.958 . S
C2815 H2830 0.961 . S
C2815 H2831 0.960 . S
H2816 C2800 0.931 . S
H2817 C2805 0.929 . S
H2818 C2806 0.960 . S
H2819 C2806 0.962 . S
H2820 C2806 0.960 . S
H2821 C2807 0.961 . S
H2822 C2807 0.961 . S
H2823 C2807 0.961 . S
H2824 C2808 0.931 . S
H2825 C2813 0.930 . S
H2826 C2814 0.956 . S
H2827 C2814 0.961 . S
H2828 C2814 0.961 . S
H2829 C2815 0.958 . S
H2830 C2815 0.961 . S
H2831 C2815 0.960 . S
C2832 C2833 1.391 . S
C2832 C2834 1.394 . S
C2832 H2848 0.931 . S
C2833 C2832 1.391 . S
C2833 C2837 1.376 . S
C2834 C2832 1.394 . S
C2834 C2835 1.369 . S
C2834 C2838 1.531 . S
C2835 C2834 1.369 . S
C2835 C2836 1.410 . S
C2835 C2843 1.503 . S
C2836 C2835 1.410 . S
C2836 C2837 1.392 . S
C2836 C2839 1.511 . S
C2837 C2833 1.376 . S
C2837 C2836 1.392 . S
C2837 H2849 0.929 . S
C2838 C2834 1.531 . S
C2838 H2850 0.960 . S
C2838 H2851 0.962 . S
C2838 H2852 0.960 . S
C2839 C2836 1.511 . S
C2839 H2853 0.961 . S
C2839 H2854 0.961 . S
C2839 H2855 0.961 . S
C2840 C2841 1.370 . S
C2840 C2842 1.363 . S
C2840 H2856 0.931 . S
C2841 C2840 1.370 . S
C2841 C2845 1.408 . S
C2842 C2840 1.363 . S
C2842 C2843 1.370 . S
C2842 C2846 1.524 . S
C2843 C2835 1.503 . S
C2843 C2842 1.370 . S
C2843 C2844 1.403 . S
C2844 C2843 1.403 . S
C2844 C2845 1.404 . S
C2844 C2847 1.539 . S
C2845 C2841 1.408 . S
C2845 C2844 1.404 . S
C2845 H2857 0.930 . S
C2846 C2842 1.524 . S
C2846 H2858 0.956 . S
C2846 H2859 0.961 . S
C2846 H2860 0.961 . S
C2847 C2844 1.539 . S
C2847 H2861 0.958 . S
C2847 H2862 0.961 . S
C2847 H2863 0.960 . S
H2848 C2832 0.931 . S
H2849 C2837 0.929 . S
H2850 C2838 0.960 . S
H2851 C2838 0.962 . S
H2852 C2838 0.960 . S
H2853 C2839 0.961 . S
H2854 C2839 0.961 . S
H2855 C2839 0.961 . S
H2856 C2840 0.931 . S
H2857 C2845 0.930 . S
H2858 C2846 0.956 . S
H2859 C2846 0.961 . S
H2860 C2846 0.961 . S
H2861 C2847 0.958 . S
H2862 C2847 0.961 . S
H2863 C2847 0.960 . S
C2864 C2865 1.391 . S
C2864 C2866 1.394 . S
C2864 H2880 0.931 . S
C2865 C2864 1.391 . S
C2865 C2869 1.376 . S
C2866 C2864 1.394 . S
C2866 C2867 1.369 . S
C2866 C2870 1.531 . S
C2867 C2866 1.369 . S
C2867 C2868 1.410 . S
C2867 C2875 1.503 . S
C2868 C2867 1.410 . S
C2868 C2869 1.392 . S
C2868 C2871 1.511 . S
C2869 C2865 1.376 . S
C2869 C2868 1.392 . S
C2869 H2881 0.929 . S
C2870 C2866 1.531 . S
C2870 H2882 0.960 . S
C2870 H2883 0.962 . S
C2870 H2884 0.960 . S
C2871 C2868 1.511 . S
C2871 H2885 0.961 . S
C2871 H2886 0.961 . S
C2871 H2887 0.961 . S
C2872 C2873 1.370 . S
C2872 C2874 1.363 . S
C2872 H2888 0.902 1_655 S
C2873 C2872 1.370 . S
C2873 C2877 1.408 . S
C2874 C2872 1.363 . S
C2874 C2875 1.370 . S
C2874 C2878 1.524 . S
C2875 C2867 1.503 . S
C2875 C2874 1.370 . S
C2875 C2876 1.403 . S
C2876 C2875 1.403 . S
C2876 C2877 1.404 . S
C2876 C2879 1.539 . S
C2877 C2873 1.408 . S
C2877 C2876 1.404 . S
C2877 H2889 0.930 . S
C2878 C2874 1.524 . S
C2878 H2890 0.956 . S
C2878 H2891 0.961 . S
C2878 H2892 0.961 1_655 S
C2879 C2876 1.539 . S
C2879 H2893 0.958 . S
C2879 H2894 0.961 . S
C2879 H2895 0.960 . S
H2880 C2864 0.931 . S
H2881 C2869 0.929 . S
H2882 C2870 0.960 . S
H2883 C2870 0.962 . S
H2884 C2870 0.960 . S
H2885 C2871 0.961 . S
H2886 C2871 0.961 . S
H2887 C2871 0.961 . S
H2888 C2872 0.902 1_455 S
H2889 C2877 0.930 . S
H2890 C2878 0.956 . S
H2891 C2878 0.961 . S
H2892 C2878 0.961 1_455 S
H2893 C2879 0.958 . S
H2894 C2879 0.961 . S
H2895 C2879 0.960 . S
C2896 C2897 1.391 . S
C2896 C2898 1.394 . S
C2896 H2912 0.931 . S
C2897 C2896 1.391 . S
C2897 C2901 1.376 . S
C2898 C2896 1.394 . S
C2898 C2899 1.369 . S
C2898 C2902 1.531 . S
C2899 C2898 1.369 . S
C2899 C2900 1.410 . S
C2899 C2907 1.503 . S
C2900 C2899 1.410 . S
C2900 C2901 1.392 . S
C2900 C2903 1.511 . S
C2901 C2897 1.376 . S
C2901 C2900 1.392 . S
C2901 H2913 0.929 . S
C2902 C2898 1.531 . S
C2902 H2914 0.960 . S
C2902 H2915 0.962 . S
C2902 H2916 0.960 . S
C2903 C2900 1.511 . S
C2903 H2917 0.961 . S
C2903 H2918 0.961 . S
C2903 H2919 0.961 . S
C2904 C2905 1.370 . S
C2904 C2906 1.363 . S
C2904 H2920 0.931 . S
C2905 C2904 1.370 . S
C2905 C2909 1.408 . S
C2906 C2904 1.363 . S
C2906 C2907 1.370 . S
C2906 C2910 1.524 . S
C2907 C2899 1.503 . S
C2907 C2906 1.370 . S
C2907 C2908 1.403 . S
C2908 C2907 1.403 . S
C2908 C2909 1.404 . S
C2908 C2911 1.539 . S
C2909 C2905 1.408 . S
C2909 C2908 1.404 . S
C2909 H2921 0.930 . S
C2910 C2906 1.524 . S
C2910 H2922 0.956 . S
C2910 H2923 0.961 . S
C2910 H2924 0.961 . S
C2911 C2908 1.539 . S
C2911 H2925 0.958 . S
C2911 H2926 0.961 . S
C2911 H2927 0.960 . S
H2912 C2896 0.931 . S
H2913 C2901 0.929 . S
H2914 C2902 0.960 . S
H2915 C2902 0.962 . S
H2916 C2902 0.960 . S
H2917 C2903 0.961 . S
H2918 C2903 0.961 . S
H2919 C2903 0.961 . S
H2920 C2904 0.931 . S
H2921 C2909 0.930 . S
H2922 C2910 0.956 . S
H2923 C2910 0.961 . S
H2924 C2910 0.961 . S
H2925 C2911 0.958 . S
H2926 C2911 0.961 . S
H2927 C2911 0.960 . S
C2928 C2929 1.391 . S
C2928 C2930 1.394 . S
C2928 H2944 0.931 . S
C2929 C2928 1.391 . S
C2929 C2933 1.376 . S
C2930 C2928 1.394 . S
C2930 C2931 1.369 . S
C2930 C2934 1.531 . S
C2931 C2930 1.369 . S
C2931 C2932 1.410 . S
C2931 C2939 1.503 . S
C2932 C2931 1.410 . S
C2932 C2933 1.392 . S
C2932 C2935 1.511 . S
C2933 C2929 1.376 . S
C2933 C2932 1.392 . S
C2933 H2945 0.929 . S
C2934 C2930 1.531 . S
C2934 H2946 0.960 . S
C2934 H2947 0.962 . S
C2934 H2948 0.960 . S
C2935 C2932 1.511 . S
C2935 H2949 0.961 . S
C2935 H2950 0.961 . S
C2935 H2951 0.961 . S
C2936 C2937 1.370 . S
C2936 C2938 1.363 . S
C2936 H2952 0.931 . S
C2937 C2936 1.370 . S
C2937 C2941 1.408 . S
C2938 C2936 1.363 . S
C2938 C2939 1.370 . S
C2938 C2942 1.524 . S
C2939 C2931 1.503 . S
C2939 C2938 1.370 . S
C2939 C2940 1.403 . S
C2940 C2939 1.403 . S
C2940 C2941 1.404 . S
C2940 C2943 1.539 . S
C2941 C2937 1.408 . S
C2941 C2940 1.404 . S
C2941 H2953 0.930 . S
C2942 C2938 1.524 . S
C2942 H2954 0.956 . S
C2942 H2955 0.961 . S
C2942 H2956 0.961 . S
C2943 C2940 1.539 . S
C2943 H2957 0.958 . S
C2943 H2958 0.961 . S
C2943 H2959 0.960 . S
H2944 C2928 0.931 . S
H2945 C2933 0.929 . S
H2946 C2934 0.960 . S
H2947 C2934 0.962 . S
H2948 C2934 0.960 . S
H2949 C2935 0.961 . S
H2950 C2935 0.961 . S
H2951 C2935 0.961 . S
H2952 C2936 0.931 . S
H2953 C2941 0.930 . S
H2954 C2942 0.956 . S
H2955 C2942 0.961 . S
H2956 C2942 0.961 . S
H2957 C2943 0.958 . S
H2958 C2943 0.961 . S
H2959 C2943 0.960 . S
C2960 C2961 1.391 . S
C2960 C2962 1.394 . S
C2960 H2976 0.931 . S
C2961 C2960 1.391 . S
C2961 C2965 1.376 . S
C2962 C2960 1.394 . S
C2962 C2963 1.369 . S
C2962 C2966 1.531 . S
C2963 C2962 1.369 . S
C2963 C2964 1.410 . S
C2963 C2971 1.503 . S
C2964 C2963 1.410 . S
C2964 C2965 1.392 . S
C2964 C2967 1.511 . S
C2965 C2961 1.376 . S
C2965 C2964 1.392 . S
C2965 H2977 0.929 . S
C2966 C2962 1.531 . S
C2966 H2978 0.960 . S
C2966 H2979 0.962 . S
C2966 H2980 0.960 . S
C2967 C2964 1.511 . S
C2967 H2981 0.961 . S
C2967 H2982 0.961 . S
C2967 H2983 0.961 1_565 S
C2968 C2969 1.370 . S
C2968 C2970 1.363 . S
C2968 H2984 0.931 . S
C2969 C2968 1.370 . S
C2969 C2973 1.408 1_565 S
C2970 C2968 1.363 . S
C2970 C2971 1.370 . S
C2970 C2974 1.524 . S
C2971 C2963 1.503 . S
C2971 C2970 1.370 . S
C2971 C2972 1.403 1_565 S
C2972 C2971 1.403 1_545 S
C2972 C2973 1.404 . S
C2972 C2975 1.539 . S
C2973 C2969 1.408 1_545 S
C2973 C2972 1.404 . S
C2973 H2985 0.930 . S
C2974 C2970 1.524 . S
C2974 H2986 0.956 . S
C2974 H2987 0.961 . S
C2974 H2988 0.961 . S
C2975 C2972 1.539 . S
C2975 H2989 0.958 . S
C2975 H2990 0.961 . S
C2975 H2991 0.960 . S
H2976 C2960 0.931 . S
H2977 C2965 0.929 . S
H2978 C2966 0.960 . S
H2979 C2966 0.962 . S
H2980 C2966 0.960 . S
H2981 C2967 0.961 . S
H2982 C2967 0.961 . S
H2983 C2967 0.961 1_545 S
H2984 C2968 0.931 . S
H2985 C2973 0.930 . S
H2986 C2974 0.956 . S
H2987 C2974 0.961 . S
H2988 C2974 0.961 . S
H2989 C2975 0.958 . S
H2990 C2975 0.961 . S
H2991 C2975 0.960 . S
C2992 C2993 1.391 . S
C2992 C2994 1.394 . S
C2992 H3008 0.931 . S
C2993 C2992 1.391 . S
C2993 C2997 1.376 . S
C2994 C2992 1.394 . S
C2994 C2995 1.369 . S
C2994 C2998 1.531 . S
C2995 C2994 1.369 . S
C2995 C2996 1.410 . S
C2995 C3003 1.503 . S
C2996 C2995 1.410 . S
C2996 C2997 1.392 . S
C2996 C2999 1.511 . S
C2997 C2993 1.376 . S
C2997 C2996 1.392 . S
C2997 H3009 0.929 . S
C2998 C2994 1.531 . S
C2998 H3010 0.960 . S
C2998 H3011 0.962 . S
C2998 H3012 0.960 . S
C2999 C2996 1.511 . S
C2999 H3013 0.961 . S
C2999 H3014 0.961 . S
C2999 H3015 0.961 . S
C3000 C3001 1.370 . S
C3000 C3002 1.363 . S
C3000 H3016 0.931 . S
C3001 C3000 1.370 . S
C3001 C3005 1.408 . S
C3002 C3000 1.363 . S
C3002 C3003 1.370 . S
C3002 C3006 1.524 . S
C3003 C2995 1.503 . S
C3003 C3002 1.370 . S
C3003 C3004 1.403 . S
C3004 C3003 1.403 . S
C3004 C3005 1.404 . S
C3004 C3007 1.539 . S
C3005 C3001 1.408 . S
C3005 C3004 1.404 . S
C3005 H3017 0.930 . S
C3006 C3002 1.524 . S
C3006 H3018 0.956 . S
C3006 H3019 0.961 . S
C3006 H3020 0.961 . S
C3007 C3004 1.539 . S
C3007 H3021 0.958 . S
C3007 H3022 0.961 . S
C3007 H3023 0.960 . S
H3008 C2992 0.931 . S
H3009 C2997 0.929 . S
H3010 C2998 0.960 . S
H3011 C2998 0.962 . S
H3012 C2998 0.960 . S
H3013 C2999 0.961 . S
H3014 C2999 0.961 . S
H3015 C2999 0.961 . S
H3016 C3000 0.931 . S
H3017 C3005 0.930 . S
H3018 C3006 0.956 . S
H3019 C3006 0.961 . S
H3020 C3006 0.961 . S
H3021 C3007 0.958 . S
H3022 C3007 0.961 . S
H3023 C3007 0.960 . S
C3024 C3025 1.391 . S
C3024 C3026 1.394 . S
C3024 H3040 0.931 . S
C3025 C3024 1.391 . S
C3025 C3029 1.376 . S
C3026 C3024 1.394 . S
C3026 C3027 1.369 . S
C3026 C3030 1.531 . S
C3027 C3026 1.369 . S
C3027 C3028 1.410 . S
C3027 C3035 1.503 . S
C3028 C3027 1.410 . S
C3028 C3029 1.392 . S
C3028 C3031 1.511 . S
C3029 C3025 1.376 . S
C3029 C3028 1.392 . S
C3029 H3041 0.929 . S
C3030 C3026 1.531 . S
C3030 H3042 0.960 . S
C3030 H3043 0.962 . S
C3030 H3044 0.960 . S
C3031 C3028 1.511 . S
C3031 H3045 0.961 . S
C3031 H3046 0.961 . S
C3031 H3047 0.961 1_554 S
C3032 C3033 1.370 . S
C3032 C3034 1.363 . S
C3032 H3048 0.931 . S
C3033 C3032 1.370 . S
C3033 C3037 1.408 . S
C3034 C3032 1.363 . S
C3034 C3035 1.370 . S
C3034 C3038 1.524 . S
C3035 C3027 1.503 . S
C3035 C3034 1.370 . S
C3035 C3036 1.403 . S
C3036 C3035 1.403 . S
C3036 C3037 1.404 . S
C3036 C3039 1.539 1_554 S
C3037 C3033 1.408 . S
C3037 C3036 1.404 . S
C3037 H3049 0.930 . S
C3038 C3034 1.524 . S
C3038 H3050 0.956 . S
C3038 H3051 0.961 . S
C3038 H3052 0.961 . S
C3039 C3036 1.539 1_556 S
C3039 H3053 0.958 . S
C3039 H3054 0.961 . S
C3039 H3055 0.960 . S
H3040 C3024 0.931 . S
H3041 C3029 0.929 . S
H3042 C3030 0.960 . S
H3043 C3030 0.962 . S
H3044 C3030 0.960 . S
H3045 C3031 0.961 . S
H3046 C3031 0.961 . S
H3047 C3031 0.961 1_556 S
H3048 C3032 0.931 . S
H3049 C3037 0.930 . S
H3050 C3038 0.956 . S
H3051 C3038 0.961 . S
H3052 C3038 0.961 . S
H3053 C3039 0.958 . S
H3054 C3039 0.961 . S
H3055 C3039 0.960 . S
C3056 C3057 1.391 . S
C3056 C3058 1.394 . S
C3056 H3072 0.931 . S
C3057 C3056 1.391 . S
C3057 C3061 1.376 . S
C3058 C3056 1.394 . S
C3058 C3059 1.369 . S
C3058 C3062 1.531 . S
C3059 C3058 1.369 . S
C3059 C3060 1.410 . S
C3059 C3067 1.503 . S
C3060 C3059 1.410 . S
C3060 C3061 1.392 . S
C3060 C3063 1.511 . S
C3061 C3057 1.376 . S
C3061 C3060 1.392 . S
C3061 H3073 0.929 . S
C3062 C3058 1.531 . S
C3062 H3074 0.960 . S
C3062 H3075 0.962 . S
C3062 H3076 0.960 . S
C3063 C3060 1.511 . S
C3063 H3077 0.961 . S
C3063 H3078 0.961 . S
C3063 H3079 0.961 . S
C3064 C3065 1.370 . S
C3064 C3066 1.363 . S
C3064 H3080 0.931 . S
C3065 C3064 1.370 . S
C3065 C3069 1.408 . S
C3066 C3064 1.363 . S
C3066 C3067 1.370 . S
C3066 C3070 1.524 . S
C3067 C3059 1.503 . S
C3067 C3066 1.370 . S
C3067 C3068 1.403 . S
C3068 C3067 1.403 . S
C3068 C3069 1.404 . S
C3068 C3071 1.539 . S
C3069 C3065 1.408 . S
C3069 C3068 1.404 . S
C3069 H3081 0.930 . S
C3070 C3066 1.524 . S
C3070 H3082 0.956 . S
C3070 H3083 0.961 . S
C3070 H3084 0.961 . S
C3071 C3068 1.539 . S
C3071 H3085 0.958 . S
C3071 H3086 0.961 . S
C3071 H3087 0.960 . S
H3072 C3056 0.931 . S
H3073 C3061 0.929 . S
H3074 C3062 0.960 . S
H3075 C3062 0.962 . S
H3076 C3062 0.960 . S
H3077 C3063 0.961 . S
H3078 C3063 0.961 . S
H3079 C3063 0.961 . S
H3080 C3064 0.931 . S
H3081 C3069 0.930 . S
H3082 C3070 0.956 . S
H3083 C3070 0.961 . S
H3084 C3070 0.961 . S
H3085 C3071 0.958 . S
H3086 C3071 0.961 . S
H3087 C3071 0.960 . S
C3088 C3089 1.391 . S
C3088 C3090 1.394 . S
C3088 H3104 0.931 . S
C3089 C3088 1.391 . S
C3089 C3093 1.376 . S
C3090 C3088 1.394 . S
C3090 C3091 1.369 . S
C3090 C3094 1.531 1_554 S
C3091 C3090 1.369 . S
C3091 C3092 1.410 . S
C3091 C3099 1.503 . S
C3092 C3091 1.410 . S
C3092 C3093 1.392 . S
C3092 C3095 1.511 . S
C3093 C3089 1.376 . S
C3093 C3092 1.392 . S
C3093 H3105 0.929 . S
C3094 C3090 1.531 1_556 S
C3094 H3106 0.960 . S
C3094 H3107 0.962 . S
C3094 H3108 0.960 . S
C3095 C3092 1.511 . S
C3095 H3109 0.961 . S
C3095 H3110 0.961 . S
C3095 H3111 0.961 . S
C3096 C3097 1.370 . S
C3096 C3098 1.363 . S
C3096 H3112 0.931 . S
C3097 C3096 1.370 . S
C3097 C3101 1.408 . S
C3098 C3096 1.363 . S
C3098 C3099 1.370 . S
C3098 C3102 1.524 . S
C3099 C3091 1.503 . S
C3099 C3098 1.370 . S
C3099 C3100 1.403 . S
C3100 C3099 1.403 . S
C3100 C3101 1.404 . S
C3100 C3103 1.539 . S
C3101 C3097 1.408 . S
C3101 C3100 1.404 . S
C3101 H3113 0.930 . S
C3102 C3098 1.524 . S
C3102 H3114 0.956 . S
C3102 H3115 0.961 . S
C3102 H3116 0.961 . S
C3103 C3100 1.539 . S
C3103 H3117 0.958 . S
C3103 H3118 0.961 . S
C3103 H3119 0.960 . S
H3104 C3088 0.931 . S
H3105 C3093 0.929 . S
H3106 C3094 0.960 . S
H3107 C3094 0.962 . S
H3108 C3094 0.960 . S
H3109 C3095 0.961 . S
H3110 C3095 0.961 . S
H3111 C3095 0.961 . S
H3112 C3096 0.931 . S
H3113 C3101 0.930 . S
H3114 C3102 0.956 . S
H3115 C3102 0.961 . S
H3116 C3102 0.961 . S
H3117 C3103 0.958 . S
H3118 C3103 0.961 . S
H3119 C3103 0.960 . S
C3120 C3121 1.391 . S
C3120 C3122 1.394 . S
C3120 H3136 0.931 . S
C3121 C3120 1.391 . S
C3121 C3125 1.376 . S
C3122 C3120 1.394 . S
C3122 C3123 1.369 . S
C3122 C3126 1.531 . S
C3123 C3122 1.369 . S
C3123 C3124 1.410 . S
C3123 C3131 1.503 . S
C3124 C3123 1.410 . S
C3124 C3125 1.392 . S
C3124 C3127 1.511 . S
C3125 C3121 1.376 . S
C3125 C3124 1.392 . S
C3125 H3137 0.929 . S
C3126 C3122 1.531 . S
C3126 H3138 0.960 . S
C3126 H3139 0.962 . S
C3126 H3140 0.960 . S
C3127 C3124 1.511 . S
C3127 H3141 0.961 . S
C3127 H3142 0.961 . S
C3127 H3143 0.961 . S
C3128 C3129 1.370 . S
C3128 C3130 1.363 . S
C3128 H3144 0.931 . S
C3129 C3128 1.370 . S
C3129 C3133 1.408 . S
C3130 C3128 1.363 . S
C3130 C3131 1.370 . S
C3130 C3134 1.524 . S
C3131 C3123 1.503 . S
C3131 C3130 1.370 . S
C3131 C3132 1.403 . S
C3132 C3131 1.403 . S
C3132 C3133 1.404 . S
C3132 C3135 1.539 . S
C3133 C3129 1.408 . S
C3133 C3132 1.404 . S
C3133 H3145 0.930 . S
C3134 C3130 1.524 . S
C3134 H3146 0.956 . S
C3134 H3147 0.961 . S
C3134 H3148 0.961 . S
C3135 C3132 1.539 . S
C3135 H3149 0.958 . S
C3135 H3150 0.961 . S
C3135 H3151 0.960 . S
H3136 C3120 0.931 . S
H3137 C3125 0.929 . S
H3138 C3126 0.960 . S
H3139 C3126 0.962 . S
H3140 C3126 0.960 . S
H3141 C3127 0.961 . S
H3142 C3127 0.961 . S
H3143 C3127 0.961 . S
H3144 C3128 0.931 . S
H3145 C3133 0.930 . S
H3146 C3134 0.956 . S
H3147 C3134 0.961 . S
H3148 C3134 0.961 . S
H3149 C3135 0.958 . S
H3150 C3135 0.961 . S
H3151 C3135 0.960 . S
C3152 C3153 1.391 . S
C3152 C3154 1.394 . S
C3152 H3168 0.931 . S
C3153 C3152 1.391 . S
C3153 C3157 1.376 . S
C3154 C3152 1.394 . S
C3154 C3155 1.369 . S
C3154 C3158 1.531 . S
C3155 C3154 1.369 . S
C3155 C3156 1.410 . S
C3155 C3163 1.503 . S
C3156 C3155 1.410 . S
C3156 C3157 1.392 . S
C3156 C3159 1.511 . S
C3157 C3153 1.376 . S
C3157 C3156 1.392 . S
C3157 H3169 0.929 . S
C3158 C3154 1.531 . S
C3158 H3170 0.960 . S
C3158 H3171 0.962 . S
C3158 H3172 0.960 . S
C3159 C3156 1.511 . S
C3159 H3173 0.961 . S
C3159 H3174 0.961 . S
C3159 H3175 0.961 . S
C3160 C3161 1.370 . S
C3160 C3162 1.363 . S
C3160 H3176 0.931 . S
C3161 C3160 1.370 . S
C3161 C3165 1.408 . S
C3162 C3160 1.363 . S
C3162 C3163 1.370 . S
C3162 C3166 1.524 . S
C3163 C3155 1.503 . S
C3163 C3162 1.370 . S
C3163 C3164 1.403 . S
C3164 C3163 1.403 . S
C3164 C3165 1.404 . S
C3164 C3167 1.539 . S
C3165 C3161 1.408 . S
C3165 C3164 1.404 . S
C3165 H3177 0.930 . S
C3166 C3162 1.524 . S
C3166 H3178 0.956 . S
C3166 H3179 0.961 . S
C3166 H3180 0.961 . S
C3167 C3164 1.539 . S
C3167 H3181 0.958 . S
C3167 H3182 0.961 . S
C3167 H3183 0.960 . S
H3168 C3152 0.931 . S
H3169 C3157 0.929 . S
H3170 C3158 0.960 . S
H3171 C3158 0.962 . S
H3172 C3158 0.960 . S
H3173 C3159 0.961 . S
H3174 C3159 0.961 . S
H3175 C3159 0.961 . S
H3176 C3160 0.931 . S
H3177 C3165 0.930 . S
H3178 C3166 0.956 . S
H3179 C3166 0.961 . S
H3180 C3166 0.961 . S
H3181 C3167 0.958 . S
H3182 C3167 0.961 . S
H3183 C3167 0.960 . S
C3184 C3185 1.391 . S
C3184 C3186 1.394 . S
C3184 H3200 0.931 . S
C3185 C3184 1.391 . S
C3185 C3189 1.376 . S
C3186 C3184 1.394 . S
C3186 C3187 1.369 . S
C3186 C3190 1.531 . S
C3187 C3186 1.369 . S
C3187 C3188 1.410 . S
C3187 C3195 1.503 . S
C3188 C3187 1.410 . S
C3188 C3189 1.392 . S
C3188 C3191 1.511 . S
C3189 C3185 1.376 . S
C3189 C3188 1.392 . S
C3189 H3201 0.929 . S
C3190 C3186 1.531 . S
C3190 H3202 0.960 . S
C3190 H3203 0.962 . S
C3190 H3204 0.960 . S
C3191 C3188 1.511 . S
C3191 H3205 0.961 . S
C3191 H3206 0.961 . S
C3191 H3207 0.961 . S
C3192 C3193 1.370 . S
C3192 C3194 1.363 . S
C3192 H3208 0.931 . S
C3193 C3192 1.370 . S
C3193 C3197 1.408 . S
C3194 C3192 1.363 . S
C3194 C3195 1.370 . S
C3194 C3198 1.524 . S
C3195 C3187 1.503 . S
C3195 C3194 1.370 . S
C3195 C3196 1.403 . S
C3196 C3195 1.403 . S
C3196 C3197 1.404 . S
C3196 C3199 1.539 . S
C3197 C3193 1.408 . S
C3197 C3196 1.404 . S
C3197 H3209 0.930 . S
C3198 C3194 1.524 . S
C3198 H3210 0.956 . S
C3198 H3211 0.961 . S
C3198 H3212 0.961 . S
C3199 C3196 1.539 . S
C3199 H3213 0.958 . S
C3199 H3214 0.961 . S
C3199 H3215 0.960 . S
H3200 C3184 0.931 . S
H3201 C3189 0.929 . S
H3202 C3190 0.960 . S
H3203 C3190 0.962 . S
H3204 C3190 0.960 . S
H3205 C3191 0.961 . S
H3206 C3191 0.961 . S
H3207 C3191 0.961 . S
H3208 C3192 0.931 . S
H3209 C3197 0.930 . S
H3210 C3198 0.956 . S
H3211 C3198 0.961 . S
H3212 C3198 0.961 . S
H3213 C3199 0.958 . S
H3214 C3199 0.961 . S
H3215 C3199 0.960 . S
C3216 C3217 1.391 . S
C3216 C3218 1.394 . S
C3216 H3232 0.931 . S
C3217 C3216 1.391 . S
C3217 C3221 1.376 . S
C3218 C3216 1.394 . S
C3218 C3219 1.369 . S
C3218 C3222 1.531 . S
C3219 C3218 1.369 . S
C3219 C3220 1.410 . S
C3219 C3227 1.503 . S
C3220 C3219 1.410 . S
C3220 C3221 1.392 . S
C3220 C3223 1.511 . S
C3221 C3217 1.376 . S
C3221 C3220 1.392 . S
C3221 H3233 0.929 . S
C3222 C3218 1.531 . S
C3222 H3234 0.960 . S
C3222 H3235 0.962 . S
C3222 H3236 0.960 . S
C3223 C3220 1.511 . S
C3223 H3237 0.961 . S
C3223 H3238 0.961 . S
C3223 H3239 0.961 . S
C3224 C3225 1.370 . S
C3224 C3226 1.363 . S
C3224 H3240 0.931 . S
C3225 C3224 1.370 . S
C3225 C3229 1.408 . S
C3226 C3224 1.363 . S
C3226 C3227 1.370 . S
C3226 C3230 1.524 . S
C3227 C3219 1.503 . S
C3227 C3226 1.370 . S
C3227 C3228 1.403 . S
C3228 C3227 1.403 . S
C3228 C3229 1.404 . S
C3228 C3231 1.539 . S
C3229 C3225 1.408 . S
C3229 C3228 1.404 . S
C3229 H3241 0.930 . S
C3230 C3226 1.524 . S
C3230 H3242 0.956 . S
C3230 H3243 0.961 . S
C3230 H3244 0.961 . S
C3231 C3228 1.539 . S
C3231 H3245 0.958 . S
C3231 H3246 0.961 . S
C3231 H3247 0.960 . S
H3232 C3216 0.931 . S
H3233 C3221 0.929 . S
H3234 C3222 0.960 . S
H3235 C3222 0.962 . S
H3236 C3222 0.960 . S
H3237 C3223 0.961 . S
H3238 C3223 0.961 . S
H3239 C3223 0.961 . S
H3240 C3224 0.931 . S
H3241 C3229 0.930 . S
H3242 C3230 0.956 . S
H3243 C3230 0.961 . S
H3244 C3230 0.961 . S
H3245 C3231 0.958 . S
H3246 C3231 0.961 . S
H3247 C3231 0.960 . S
C3248 C3249 1.391 . S
C3248 C3250 1.394 . S
C3248 H3264 0.931 . S
C3249 C3248 1.391 . S
C3249 C3253 1.376 1_655 S
C3250 C3248 1.394 . S
C3250 C3251 1.369 . S
C3250 C3254 1.531 . S
C3251 C3250 1.369 . S
C3251 C3252 1.410 1_655 S
C3251 C3259 1.503 . S
C3252 C3251 1.410 1_455 S
C3252 C3253 1.392 . S
C3252 C3255 1.511 . S
C3253 C3249 1.376 1_455 S
C3253 C3252 1.392 . S
C3253 H3265 0.929 . S
C3254 C3250 1.531 . S
C3254 H3266 0.960 . S
C3254 H3267 0.962 . S
C3254 H3268 0.960 . S
C3255 C3252 1.511 . S
C3255 H3269 0.961 . S
C3255 H3270 0.961 . S
C3255 H3271 0.961 . S
C3256 C3257 1.370 . S
C3256 C3258 1.363 . S
C3256 H3272 0.931 1_556 S
C3257 C3256 1.370 . S
C3257 C3261 1.408 . S
C3258 C3256 1.363 . S
C3258 C3259 1.370 . S
C3258 C3262 1.524 . S
C3259 C3251 1.503 . S
C3259 C3258 1.370 . S
C3259 C3260 1.403 . S
C3260 C3259 1.403 . S
C3260 C3261 1.404 . S
C3260 C3263 1.539 . S
C3261 C3257 1.408 . S
C3261 C3260 1.404 . S
C3261 H3273 0.930 . S
C3262 C3258 1.524 . S
C3262 H3274 0.956 . S
C3262 H3275 0.961 1_655 S
C3262 H3276 0.961 1_656 S
C3263 C3260 1.539 . S
C3263 H3277 0.958 . S
C3263 H3278 0.974 . S
C3263 H3279 0.955 1_655 S
H3264 C3248 0.931 . S
H3265 C3253 0.929 . S
H3266 C3254 0.960 . S
H3267 C3254 0.962 . S
H3268 C3254 0.960 . S
H3269 C3255 0.961 . S
H3270 C3255 0.961 . S
H3271 C3255 0.961 . S
H3272 C3256 0.931 1_554 S
H3273 C3261 0.930 . S
H3274 C3262 0.956 . S
H3275 C3262 0.961 1_455 S
H3276 C3262 0.961 1_454 S
H3277 C3263 0.958 . S
H3278 C3263 0.974 . S
H3279 C3263 0.955 1_455 S
C3280 C3281 1.391 . S
C3280 C3282 1.394 . S
C3280 H3296 0.931 . S
C3281 C3280 1.391 . S
C3281 C3285 1.376 . S
C3282 C3280 1.394 . S
C3282 C3283 1.369 . S
C3282 C3286 1.531 . S
C3283 C3282 1.369 . S
C3283 C3284 1.410 . S
C3283 C3291 1.503 . S
C3284 C3283 1.410 . S
C3284 C3285 1.392 . S
C3284 C3287 1.511 . S
C3285 C3281 1.376 . S
C3285 C3284 1.392 . S
C3285 H3297 0.929 . S
C3286 C3282 1.531 . S
C3286 H3298 0.960 . S
C3286 H3299 0.962 . S
C3286 H3300 0.960 . S
C3287 C3284 1.511 . S
C3287 H3301 0.961 . S
C3287 H3302 0.961 . S
C3287 H3303 0.961 . S
C3288 C3289 1.370 . S
C3288 C3290 1.363 . S
C3288 H3304 0.931 . S
C3289 C3288 1.370 . S
C3289 C3293 1.408 . S
C3290 C3288 1.363 . S
C3290 C3291 1.370 . S
C3290 C3294 1.524 . S
C3291 C3283 1.503 . S
C3291 C3290 1.370 . S
C3291 C3292 1.403 . S
C3292 C3291 1.403 . S
C3292 C3293 1.404 . S
C3292 C3295 1.539 . S
C3293 C3289 1.408 . S
C3293 C3292 1.404 . S
C3293 H3305 0.930 . S
C3294 C3290 1.524 . S
C3294 H3306 0.956 . S
C3294 H3307 0.961 . S
C3294 H3308 0.961 . S
C3295 C3292 1.539 . S
C3295 H3309 0.958 . S
C3295 H3310 0.961 . S
C3295 H3311 0.960 . S
H3296 C3280 0.931 . S
H3297 C3285 0.929 . S
H3298 C3286 0.960 . S
H3299 C3286 0.962 . S
H3300 C3286 0.960 . S
H3301 C3287 0.961 . S
H3302 C3287 0.961 . S
H3303 C3287 0.961 . S
H3304 C3288 0.931 . S
H3305 C3293 0.930 . S
H3306 C3294 0.956 . S
H3307 C3294 0.961 . S
H3308 C3294 0.961 . S
H3309 C3295 0.958 . S
H3310 C3295 0.961 . S
H3311 C3295 0.960 . S
C3312 C3313 1.391 . S
C3312 C3314 1.394 . S
C3312 H3328 0.931 . S
C3313 C3312 1.391 . S
C3313 C3317 1.376 . S
C3314 C3312 1.394 . S
C3314 C3315 1.369 . S
C3314 C3318 1.531 . S
C3315 C3314 1.369 . S
C3315 C3316 1.410 . S
C3315 C3323 1.503 . S
C3316 C3315 1.410 . S
C3316 C3317 1.392 . S
C3316 C3319 1.511 . S
C3317 C3313 1.376 . S
C3317 C3316 1.392 . S
C3317 H3329 0.929 . S
C3318 C3314 1.531 . S
C3318 H3330 0.960 . S
C3318 H3331 0.962 . S
C3318 H3332 0.960 . S
C3319 C3316 1.511 . S
C3319 H3333 0.961 . S
C3319 H3334 0.961 . S
C3319 H3335 0.961 . S
C3320 C3321 1.370 . S
C3320 C3322 1.363 . S
C3320 H3336 0.931 . S
C3321 C3320 1.370 . S
C3321 C3325 1.408 . S
C3322 C3320 1.363 . S
C3322 C3323 1.370 . S
C3322 C3326 1.524 . S
C3323 C3315 1.503 . S
C3323 C3322 1.370 . S
C3323 C3324 1.403 . S
C3324 C3323 1.403 . S
C3324 C3325 1.404 . S
C3324 C3327 1.539 . S
C3325 C3321 1.408 . S
C3325 C3324 1.404 . S
C3325 H3337 0.930 . S
C3326 C3322 1.524 . S
C3326 H3338 0.956 . S
C3326 H3339 0.961 . S
C3326 H3340 0.961 . S
C3327 C3324 1.539 . S
C3327 H3341 0.958 . S
C3327 H3342 0.961 . S
C3327 H3343 0.960 . S
H3328 C3312 0.931 . S
H3329 C3317 0.929 . S
H3330 C3318 0.960 . S
H3331 C3318 0.962 . S
H3332 C3318 0.960 . S
H3333 C3319 0.961 . S
H3334 C3319 0.961 . S
H3335 C3319 0.961 . S
H3336 C3320 0.931 . S
H3337 C3325 0.930 . S
H3338 C3326 0.956 . S
H3339 C3326 0.961 . S
H3340 C3326 0.961 . S
H3341 C3327 0.958 . S
H3342 C3327 0.961 . S
H3343 C3327 0.960 . S
C3344 C3345 1.391 . S
C3344 C3346 1.394 . S
C3344 H3360 0.931 . S
C3345 C3344 1.391 . S
C3345 C3349 1.376 . S
C3346 C3344 1.394 . S
C3346 C3347 1.369 . S
C3346 C3350 1.531 . S
C3347 C3346 1.369 . S
C3347 C3348 1.410 . S
C3347 C3355 1.503 . S
C3348 C3347 1.410 . S
C3348 C3349 1.392 . S
C3348 C3351 1.511 . S
C3349 C3345 1.376 . S
C3349 C3348 1.392 . S
C3349 H3361 0.929 . S
C3350 C3346 1.531 . S
C3350 H3362 0.960 . S
C3350 H3363 0.962 . S
C3350 H3364 0.960 . S
C3351 C3348 1.511 . S
C3351 H3365 0.961 . S
C3351 H3366 0.961 . S
C3351 H3367 0.961 . S
C3352 C3353 1.370 . S
C3352 C3354 1.363 . S
C3352 H3368 0.931 . S
C3353 C3352 1.370 . S
C3353 C3357 1.408 . S
C3354 C3352 1.363 . S
C3354 C3355 1.370 . S
C3354 C3358 1.524 . S
C3355 C3347 1.503 . S
C3355 C3354 1.370 . S
C3355 C3356 1.403 . S
C3356 C3355 1.403 . S
C3356 C3357 1.404 . S
C3356 C3359 1.539 . S
C3357 C3353 1.408 . S
C3357 C3356 1.404 . S
C3357 H3369 0.930 . S
C3358 C3354 1.524 . S
C3358 H3370 0.956 . S
C3358 H3371 0.961 . S
C3358 H3372 0.961 . S
C3359 C3356 1.539 . S
C3359 H3373 0.958 . S
C3359 H3374 0.961 . S
C3359 H3375 0.960 . S
H3360 C3344 0.931 . S
H3361 C3349 0.929 . S
H3362 C3350 0.960 . S
H3363 C3350 0.962 . S
H3364 C3350 0.960 . S
H3365 C3351 0.961 . S
H3366 C3351 0.961 . S
H3367 C3351 0.961 . S
H3368 C3352 0.931 . S
H3369 C3357 0.930 . S
H3370 C3358 0.956 . S
H3371 C3358 0.961 . S
H3372 C3358 0.961 . S
H3373 C3359 0.958 . S
H3374 C3359 0.961 . S
H3375 C3359 0.960 . S
C3376 C3377 1.391 . S
C3376 C3378 1.394 . S
C3376 H3392 0.931 1_455 S
C3377 C3376 1.391 . S
C3377 C3381 1.376 . S
C3378 C3376 1.394 . S
C3378 C3379 1.369 . S
C3378 C3382 1.531 1_455 S
C3379 C3378 1.369 . S
C3379 C3380 1.410 . S
C3379 C3387 1.503 . S
C3380 C3379 1.410 . S
C3380 C3381 1.392 . S
C3380 C3383 1.511 . S
C3381 C3377 1.376 . S
C3381 C3380 1.392 . S
C3381 H3393 0.929 . S
C3382 C3378 1.531 1_655 S
C3382 H3394 0.960 . S
C3382 H3395 0.962 . S
C3382 H3396 0.960 . S
C3383 C3380 1.511 . S
C3383 H3397 0.961 . S
C3383 H3398 0.961 . S
C3383 H3399 0.961 . S
C3384 C3385 1.370 . S
C3384 C3386 1.363 . S
C3384 H3400 0.931 1_455 S
C3385 C3384 1.370 . S
C3385 C3389 1.408 . S
C3386 C3384 1.363 . S
C3386 C3387 1.370 . S
C3386 C3390 1.514 1_455 S
C3387 C3379 1.503 . S
C3387 C3386 1.370 . S
C3387 C3388 1.403 . S
C3388 C3387 1.403 . S
C3388 C3389 1.404 . S
C3388 C3391 1.539 . S
C3389 C3385 1.408 . S
C3389 C3388 1.404 . S
C3389 H3401 0.930 . S
C3390 C3386 1.514 1_655 S
C3390 H3402 0.982 . S
C3390 H3403 0.936 1_655 S
C3390 H3404 0.971 . S
C3391 C3388 1.539 . S
C3391 H3405 0.958 . S
C3391 H3406 0.961 . S
C3391 H3407 0.960 . S
H3392 C3376 0.931 1_655 S
H3393 C3381 0.929 . S
H3394 C3382 0.960 . S
H3395 C3382 0.962 . S
H3396 C3382 0.960 . S
H3397 C3383 0.961 . S
H3398 C3383 0.961 . S
H3399 C3383 0.961 . S
H3400 C3384 0.931 1_655 S
H3401 C3389 0.930 . S
H3402 C3390 0.982 . S
H3403 C3390 0.936 1_455 S
H3404 C3390 0.971 . S
H3405 C3391 0.958 . S
H3406 C3391 0.961 . S
H3407 C3391 0.960 . S
C3408 C3409 1.391 . S
C3408 C3410 1.394 . S
C3408 H3424 0.931 . S
C3409 C3408 1.391 . S
C3409 C3413 1.376 . S
C3410 C3408 1.394 . S
C3410 C3411 1.369 . S
C3410 C3414 1.531 . S
C3411 C3410 1.369 . S
C3411 C3412 1.410 . S
C3411 C3419 1.503 . S
C3412 C3411 1.410 . S
C3412 C3413 1.392 . S
C3412 C3415 1.511 . S
C3413 C3409 1.376 . S
C3413 C3412 1.392 . S
C3413 H3425 0.929 . S
C3414 C3410 1.531 . S
C3414 H3426 0.960 . S
C3414 H3427 0.962 . S
C3414 H3428 0.960 . S
C3415 C3412 1.511 . S
C3415 H3429 0.961 . S
C3415 H3430 0.961 . S
C3415 H3431 0.961 . S
C3416 C3417 1.370 . S
C3416 C3418 1.363 . S
C3416 H3432 0.931 . S
C3417 C3416 1.370 . S
C3417 C3421 1.408 . S
C3418 C3416 1.363 . S
C3418 C3419 1.370 . S
C3418 C3422 1.524 . S
C3419 C3411 1.503 . S
C3419 C3418 1.370 . S
C3419 C3420 1.403 . S
C3420 C3419 1.403 . S
C3420 C3421 1.404 . S
C3420 C3423 1.539 . S
C3421 C3417 1.408 . S
C3421 C3420 1.404 . S
C3421 H3433 0.930 . S
C3422 C3418 1.524 . S
C3422 H3434 0.956 . S
C3422 H3435 0.961 . S
C3422 H3436 0.961 . S
C3423 C3420 1.539 . S
C3423 H3437 0.958 . S
C3423 H3438 0.961 . S
C3423 H3439 0.960 . S
H3424 C3408 0.931 . S
H3425 C3413 0.929 . S
H3426 C3414 0.960 . S
H3427 C3414 0.962 . S
H3428 C3414 0.960 . S
H3429 C3415 0.961 . S
H3430 C3415 0.961 . S
H3431 C3415 0.961 . S
H3432 C3416 0.931 . S
H3433 C3421 0.930 . S
H3434 C3422 0.956 . S
H3435 C3422 0.961 . S
H3436 C3422 0.961 . S
H3437 C3423 0.958 . S
H3438 C3423 0.961 . S
H3439 C3423 0.960 . S
C3440 C3441 1.391 . S
C3440 C3442 1.394 . S
C3440 H3456 0.931 . S
C3441 C3440 1.391 . S
C3441 C3445 1.376 . S
C3442 C3440 1.394 . S
C3442 C3443 1.369 . S
C3442 C3446 1.531 . S
C3443 C3442 1.369 . S
C3443 C3444 1.410 . S
C3443 C3451 1.503 . S
C3444 C3443 1.410 . S
C3444 C3445 1.392 . S
C3444 C3447 1.511 . S
C3445 C3441 1.376 . S
C3445 C3444 1.392 . S
C3445 H3457 0.929 . S
C3446 C3442 1.531 . S
C3446 H3458 0.960 . S
C3446 H3459 0.962 . S
C3446 H3460 0.960 . S
C3447 C3444 1.511 . S
C3447 H3461 0.961 . S
C3447 H3462 0.961 . S
C3447 H3463 0.961 . S
C3448 C3449 1.370 . S
C3448 C3450 1.363 . S
C3448 H3464 0.931 . S
C3449 C3448 1.370 . S
C3449 C3453 1.408 . S
C3450 C3448 1.363 . S
C3450 C3451 1.370 . S
C3450 C3454 1.524 . S
C3451 C3443 1.503 . S
C3451 C3450 1.370 . S
C3451 C3452 1.403 . S
C3452 C3451 1.403 . S
C3452 C3453 1.404 . S
C3452 C3455 1.539 . S
C3453 C3449 1.408 . S
C3453 C3452 1.404 . S
C3453 H3465 0.930 . S
C3454 C3450 1.524 . S
C3454 H3466 0.956 . S
C3454 H3467 0.961 . S
C3454 H3468 0.961 . S
C3455 C3452 1.539 . S
C3455 H3469 0.958 . S
C3455 H3470 0.961 . S
C3455 H3471 0.960 . S
H3456 C3440 0.931 . S
H3457 C3445 0.929 . S
H3458 C3446 0.960 . S
H3459 C3446 0.962 . S
H3460 C3446 0.960 . S
H3461 C3447 0.961 . S
H3462 C3447 0.961 . S
H3463 C3447 0.961 . S
H3464 C3448 0.931 . S
H3465 C3453 0.930 . S
H3466 C3454 0.956 . S
H3467 C3454 0.961 . S
H3468 C3454 0.961 . S
H3469 C3455 0.958 . S
H3470 C3455 0.961 . S
H3471 C3455 0.960 . S
C3472 C3473 1.391 . S
C3472 C3474 1.394 . S
C3472 H3488 0.931 . S
C3473 C3472 1.391 . S
C3473 C3477 1.376 . S
C3474 C3472 1.394 . S
C3474 C3475 1.369 . S
C3474 C3478 1.531 . S
C3475 C3474 1.369 . S
C3475 C3476 1.410 . S
C3475 C3483 1.503 . S
C3476 C3475 1.410 . S
C3476 C3477 1.392 . S
C3476 C3479 1.511 . S
C3477 C3473 1.376 . S
C3477 C3476 1.392 . S
C3477 H3489 0.929 . S
C3478 C3474 1.531 . S
C3478 H3490 0.960 . S
C3478 H3491 0.962 . S
C3478 H3492 0.960 . S
C3479 C3476 1.511 . S
C3479 H3493 0.961 . S
C3479 H3494 0.961 . S
C3479 H3495 0.961 . S
C3480 C3481 1.370 . S
C3480 C3482 1.363 . S
C3480 H3496 0.931 . S
C3481 C3480 1.370 . S
C3481 C3485 1.408 . S
C3482 C3480 1.363 . S
C3482 C3483 1.370 . S
C3482 C3486 1.524 . S
C3483 C3475 1.503 . S
C3483 C3482 1.370 . S
C3483 C3484 1.403 . S
C3484 C3483 1.403 . S
C3484 C3485 1.404 . S
C3484 C3487 1.539 . S
C3485 C3481 1.408 . S
C3485 C3484 1.404 . S
C3485 H3497 0.930 . S
C3486 C3482 1.524 . S
C3486 H3498 0.956 . S
C3486 H3499 0.961 . S
C3486 H3500 0.961 . S
C3487 C3484 1.539 . S
C3487 H3501 0.958 . S
C3487 H3502 0.961 . S
C3487 H3503 0.960 . S
H3488 C3472 0.931 . S
H3489 C3477 0.929 . S
H3490 C3478 0.960 . S
H3491 C3478 0.962 . S
H3492 C3478 0.960 . S
H3493 C3479 0.961 . S
H3494 C3479 0.961 . S
H3495 C3479 0.961 . S
H3496 C3480 0.931 . S
H3497 C3485 0.930 . S
H3498 C3486 0.956 . S
H3499 C3486 0.961 . S
H3500 C3486 0.961 . S
H3501 C3487 0.958 . S
H3502 C3487 0.961 . S
H3503 C3487 0.960 . S
C3504 C3505 1.391 . S
C3504 C3506 1.394 . S
C3504 H3520 0.931 . S
C3505 C3504 1.391 . S
C3505 C3509 1.376 . S
C3506 C3504 1.394 . S
C3506 C3507 1.369 . S
C3506 C3510 1.531 . S
C3507 C3506 1.369 . S
C3507 C3508 1.410 . S
C3507 C3515 1.503 . S
C3508 C3507 1.410 . S
C3508 C3509 1.392 . S
C3508 C3511 1.511 . S
C3509 C3505 1.376 . S
C3509 C3508 1.392 . S
C3509 H3521 0.929 . S
C3510 C3506 1.531 . S
C3510 H3522 0.960 . S
C3510 H3523 0.962 . S
C3510 H3524 0.960 . S
C3511 C3508 1.511 . S
C3511 H3525 0.961 . S
C3511 H3526 0.961 . S
C3511 H3527 0.961 . S
C3512 C3513 1.370 . S
C3512 C3514 1.363 . S
C3512 H3528 0.931 . S
C3513 C3512 1.370 . S
C3513 C3517 1.408 . S
C3514 C3512 1.363 . S
C3514 C3515 1.370 . S
C3514 C3518 1.524 . S
C3515 C3507 1.503 . S
C3515 C3514 1.370 . S
C3515 C3516 1.403 . S
C3516 C3515 1.403 . S
C3516 C3517 1.404 . S
C3516 C3519 1.539 . S
C3517 C3513 1.408 . S
C3517 C3516 1.404 . S
C3517 H3529 0.930 . S
C3518 C3514 1.524 . S
C3518 H3530 0.956 . S
C3518 H3531 0.961 . S
C3518 H3532 0.961 . S
C3519 C3516 1.539 . S
C3519 H3533 0.958 . S
C3519 H3534 0.961 . S
C3519 H3535 0.960 . S
H3520 C3504 0.931 . S
H3521 C3509 0.929 . S
H3522 C3510 0.960 . S
H3523 C3510 0.962 . S
H3524 C3510 0.960 . S
H3525 C3511 0.961 . S
H3526 C3511 0.961 . S
H3527 C3511 0.961 . S
H3528 C3512 0.931 . S
H3529 C3517 0.930 . S
H3530 C3518 0.956 . S
H3531 C3518 0.961 . S
H3532 C3518 0.961 . S
H3533 C3519 0.958 . S
H3534 C3519 0.961 . S
H3535 C3519 0.960 . S
C3536 C3537 1.391 . S
C3536 C3538 1.394 . S
C3536 H3552 0.931 . S
C3537 C3536 1.391 . S
C3537 C3541 1.376 . S
C3538 C3536 1.394 . S
C3538 C3539 1.369 . S
C3538 C3542 1.531 . S
C3539 C3538 1.369 . S
C3539 C3540 1.410 . S
C3539 C3547 1.503 . S
C3540 C3539 1.410 . S
C3540 C3541 1.392 . S
C3540 C3543 1.511 . S
C3541 C3537 1.376 . S
C3541 C3540 1.392 . S
C3541 H3553 0.929 . S
C3542 C3538 1.531 . S
C3542 H3554 0.960 . S
C3542 H3555 0.962 . S
C3542 H3556 0.960 . S
C3543 C3540 1.511 . S
C3543 H3557 0.961 . S
C3543 H3558 0.961 . S
C3543 H3559 0.961 . S
C3544 C3545 1.370 . S
C3544 C3546 1.363 . S
C3544 H3560 0.931 . S
C3545 C3544 1.370 . S
C3545 C3549 1.408 . S
C3546 C3544 1.363 . S
C3546 C3547 1.370 . S
C3546 C3550 1.524 . S
C3547 C3539 1.503 . S
C3547 C3546 1.370 . S
C3547 C3548 1.403 . S
C3548 C3547 1.403 . S
C3548 C3549 1.404 . S
C3548 C3551 1.539 . S
C3549 C3545 1.408 . S
C3549 C3548 1.404 . S
C3549 H3561 0.930 . S
C3550 C3546 1.524 . S
C3550 H3562 0.956 . S
C3550 H3563 0.961 . S
C3550 H3564 0.961 . S
C3551 C3548 1.539 . S
C3551 H3565 0.958 . S
C3551 H3566 0.961 . S
C3551 H3567 0.960 . S
H3552 C3536 0.931 . S
H3553 C3541 0.929 . S
H3554 C3542 0.960 . S
H3555 C3542 0.962 . S
H3556 C3542 0.960 . S
H3557 C3543 0.961 . S
H3558 C3543 0.961 . S
H3559 C3543 0.961 . S
H3560 C3544 0.931 . S
H3561 C3549 0.930 . S
H3562 C3550 0.956 . S
H3563 C3550 0.961 . S
H3564 C3550 0.961 . S
H3565 C3551 0.958 . S
H3566 C3551 0.961 . S
H3567 C3551 0.960 . S
C3568 C3569 1.391 . S
C3568 C3570 1.394 . S
C3568 H3584 0.931 . S
C3569 C3568 1.391 . S
C3569 C3573 1.376 . S
C3570 C3568 1.394 . S
C3570 C3571 1.369 . S
C3570 C3574 1.531 . S
C3571 C3570 1.369 . S
C3571 C3572 1.410 . S
C3571 C3579 1.503 . S
C3572 C3571 1.410 . S
C3572 C3573 1.392 . S
C3572 C3575 1.511 . S
C3573 C3569 1.376 . S
C3573 C3572 1.392 . S
C3573 H3585 0.929 . S
C3574 C3570 1.531 . S
C3574 H3586 0.960 . S
C3574 H3587 0.962 . S
C3574 H3588 0.960 . S
C3575 C3572 1.511 . S
C3575 H3589 0.961 . S
C3575 H3590 0.961 . S
C3575 H3591 0.961 . S
C3576 C3577 1.370 . S
C3576 C3578 1.363 . S
C3576 H3592 0.931 . S
C3577 C3576 1.370 . S
C3577 C3581 1.408 . S
C3578 C3576 1.363 . S
C3578 C3579 1.370 . S
C3578 C3582 1.524 . S
C3579 C3571 1.503 . S
C3579 C3578 1.370 . S
C3579 C3580 1.403 . S
C3580 C3579 1.403 . S
C3580 C3581 1.404 . S
C3580 C3583 1.539 . S
C3581 C3577 1.408 . S
C3581 C3580 1.404 . S
C3581 H3593 0.930 . S
C3582 C3578 1.524 . S
C3582 H3594 0.956 . S
C3582 H3595 0.961 . S
C3582 H3596 0.961 . S
C3583 C3580 1.539 . S
C3583 H3597 0.958 . S
C3583 H3598 0.961 . S
C3583 H3599 0.960 . S
H3584 C3568 0.931 . S
H3585 C3573 0.929 . S
H3586 C3574 0.960 . S
H3587 C3574 0.962 . S
H3588 C3574 0.960 . S
H3589 C3575 0.961 . S
H3590 C3575 0.961 . S
H3591 C3575 0.961 . S
H3592 C3576 0.931 . S
H3593 C3581 0.930 . S
H3594 C3582 0.956 . S
H3595 C3582 0.961 . S
H3596 C3582 0.961 . S
H3597 C3583 0.958 . S
H3598 C3583 0.961 . S
H3599 C3583 0.960 . S
C3600 C3601 1.391 . S
C3600 C3602 1.394 . S
C3600 H3616 0.931 . S
C3601 C3600 1.391 . S
C3601 C3605 1.376 . S
C3602 C3600 1.394 . S
C3602 C3603 1.369 . S
C3602 C3606 1.531 . S
C3603 C3602 1.369 . S
C3603 C3604 1.410 . S
C3603 C3611 1.503 . S
C3604 C3603 1.410 . S
C3604 C3605 1.392 . S
C3604 C3607 1.511 . S
C3605 C3601 1.376 . S
C3605 C3604 1.392 . S
C3605 H3617 0.929 . S
C3606 C3602 1.531 . S
C3606 H3618 0.960 . S
C3606 H3619 0.962 . S
C3606 H3620 0.960 . S
C3607 C3604 1.511 . S
C3607 H3621 0.961 . S
C3607 H3622 0.961 . S
C3607 H3623 0.961 . S
C3608 C3609 1.370 . S
C3608 C3610 1.363 . S
C3608 H3624 0.931 . S
C3609 C3608 1.370 . S
C3609 C3613 1.408 . S
C3610 C3608 1.363 . S
C3610 C3611 1.370 . S
C3610 C3614 1.524 . S
C3611 C3603 1.503 . S
C3611 C3610 1.370 . S
C3611 C3612 1.403 . S
C3612 C3611 1.403 . S
C3612 C3613 1.404 . S
C3612 C3615 1.539 . S
C3613 C3609 1.408 . S
C3613 C3612 1.404 . S
C3613 H3625 0.930 . S
C3614 C3610 1.524 . S
C3614 H3626 0.956 . S
C3614 H3627 0.961 . S
C3614 H3628 0.961 . S
C3615 C3612 1.539 . S
C3615 H3629 0.958 . S
C3615 H3630 0.961 . S
C3615 H3631 0.960 . S
H3616 C3600 0.931 . S
H3617 C3605 0.929 . S
H3618 C3606 0.960 . S
H3619 C3606 0.962 . S
H3620 C3606 0.960 . S
H3621 C3607 0.961 . S
H3622 C3607 0.961 . S
H3623 C3607 0.961 . S
H3624 C3608 0.931 . S
H3625 C3613 0.930 . S
H3626 C3614 0.956 . S
H3627 C3614 0.961 . S
H3628 C3614 0.961 . S
H3629 C3615 0.958 . S
H3630 C3615 0.961 . S
H3631 C3615 0.960 . S
C3632 C3633 1.391 . S
C3632 C3634 1.394 . S
C3632 H3648 0.931 . S
C3633 C3632 1.391 . S
C3633 C3637 1.376 . S
C3634 C3632 1.394 . S
C3634 C3635 1.369 . S
C3634 C3638 1.531 . S
C3635 C3634 1.369 . S
C3635 C3636 1.410 . S
C3635 C3643 1.503 . S
C3636 C3635 1.410 . S
C3636 C3637 1.392 . S
C3636 C3639 1.511 . S
C3637 C3633 1.376 . S
C3637 C3636 1.392 . S
C3637 H3649 0.929 . S
C3638 C3634 1.531 . S
C3638 H3650 0.960 . S
C3638 H3651 0.962 . S
C3638 H3652 0.960 . S
C3639 C3636 1.511 . S
C3639 H3653 0.961 . S
C3639 H3654 0.961 . S
C3639 H3655 0.961 . S
C3640 C3641 1.370 . S
C3640 C3642 1.363 . S
C3640 H3656 0.931 . S
C3641 C3640 1.370 . S
C3641 C3645 1.408 . S
C3642 C3640 1.363 . S
C3642 C3643 1.370 . S
C3642 C3646 1.524 . S
C3643 C3635 1.503 . S
C3643 C3642 1.370 . S
C3643 C3644 1.403 . S
C3644 C3643 1.403 . S
C3644 C3645 1.404 . S
C3644 C3647 1.539 . S
C3645 C3641 1.408 . S
C3645 C3644 1.404 . S
C3645 H3657 0.930 . S
C3646 C3642 1.524 . S
C3646 H3658 0.956 . S
C3646 H3659 0.961 . S
C3646 H3660 0.961 . S
C3647 C3644 1.539 . S
C3647 H3661 0.958 . S
C3647 H3662 0.961 . S
C3647 H3663 0.960 . S
H3648 C3632 0.931 . S
H3649 C3637 0.929 . S
H3650 C3638 0.960 . S
H3651 C3638 0.962 . S
H3652 C3638 0.960 . S
H3653 C3639 0.961 . S
H3654 C3639 0.961 . S
H3655 C3639 0.961 . S
H3656 C3640 0.931 . S
H3657 C3645 0.930 . S
H3658 C3646 0.956 . S
H3659 C3646 0.961 . S
H3660 C3646 0.961 . S
H3661 C3647 0.958 . S
H3662 C3647 0.961 . S
H3663 C3647 0.960 . S
C3664 C3665 1.391 . S
C3664 C3666 1.394 . S
C3664 H3680 0.931 . S
C3665 C3664 1.391 . S
C3665 C3669 1.376 . S
C3666 C3664 1.394 . S
C3666 C3667 1.369 . S
C3666 C3670 1.531 . S
C3667 C3666 1.369 . S
C3667 C3668 1.410 . S
C3667 C3675 1.503 . S
C3668 C3667 1.410 . S
C3668 C3669 1.392 . S
C3668 C3671 1.511 . S
C3669 C3665 1.376 . S
C3669 C3668 1.392 . S
C3669 H3681 0.929 . S
C3670 C3666 1.531 . S
C3670 H3682 0.960 . S
C3670 H3683 0.962 . S
C3670 H3684 0.960 . S
C3671 C3668 1.511 . S
C3671 H3685 0.961 . S
C3671 H3686 0.961 . S
C3671 H3687 0.961 . S
C3672 C3673 1.370 . S
C3672 C3674 1.363 . S
C3672 H3688 0.931 . S
C3673 C3672 1.370 . S
C3673 C3677 1.408 . S
C3674 C3672 1.363 . S
C3674 C3675 1.370 . S
C3674 C3678 1.524 . S
C3675 C3667 1.503 . S
C3675 C3674 1.370 . S
C3675 C3676 1.403 . S
C3676 C3675 1.403 . S
C3676 C3677 1.404 . S
C3676 C3679 1.539 . S
C3677 C3673 1.408 . S
C3677 C3676 1.404 . S
C3677 H3689 0.930 . S
C3678 C3674 1.524 . S
C3678 H3690 0.956 . S
C3678 H3691 0.961 . S
C3678 H3692 0.961 . S
C3679 C3676 1.539 . S
C3679 H3693 0.958 . S
C3679 H3694 0.961 . S
C3679 H3695 0.960 . S
H3680 C3664 0.931 . S
H3681 C3669 0.929 . S
H3682 C3670 0.960 . S
H3683 C3670 0.962 . S
H3684 C3670 0.960 . S
H3685 C3671 0.961 . S
H3686 C3671 0.961 . S
H3687 C3671 0.961 . S
H3688 C3672 0.931 . S
H3689 C3677 0.930 . S
H3690 C3678 0.956 . S
H3691 C3678 0.961 . S
H3692 C3678 0.961 . S
H3693 C3679 0.958 . S
H3694 C3679 0.961 . S
H3695 C3679 0.960 . S
C3696 C3697 1.391 . S
C3696 C3698 1.394 . S
C3696 H3712 0.931 . S
C3697 C3696 1.391 . S
C3697 C3701 1.376 . S
C3698 C3696 1.394 . S
C3698 C3699 1.369 . S
C3698 C3702 1.531 . S
C3699 C3698 1.369 . S
C3699 C3700 1.410 . S
C3699 C3707 1.503 . S
C3700 C3699 1.410 . S
C3700 C3701 1.392 . S
C3700 C3703 1.511 . S
C3701 C3697 1.376 . S
C3701 C3700 1.392 . S
C3701 H3713 0.929 . S
C3702 C3698 1.531 . S
C3702 H3714 0.960 . S
C3702 H3715 0.962 . S
C3702 H3716 0.960 . S
C3703 C3700 1.511 . S
C3703 H3717 0.961 . S
C3703 H3718 0.961 . S
C3703 H3719 0.961 . S
C3704 C3705 1.370 . S
C3704 C3706 1.363 . S
C3704 H3720 0.931 . S
C3705 C3704 1.370 . S
C3705 C3709 1.408 . S
C3706 C3704 1.363 . S
C3706 C3707 1.370 . S
C3706 C3710 1.524 . S
C3707 C3699 1.503 . S
C3707 C3706 1.370 . S
C3707 C3708 1.403 . S
C3708 C3707 1.403 . S
C3708 C3709 1.404 . S
C3708 C3711 1.539 . S
C3709 C3705 1.408 . S
C3709 C3708 1.404 . S
C3709 H3721 0.930 . S
C3710 C3706 1.524 . S
C3710 H3722 0.956 . S
C3710 H3723 0.961 . S
C3710 H3724 0.961 . S
C3711 C3708 1.539 . S
C3711 H3725 0.958 . S
C3711 H3726 0.961 . S
C3711 H3727 0.960 . S
H3712 C3696 0.931 . S
H3713 C3701 0.929 . S
H3714 C3702 0.960 . S
H3715 C3702 0.962 . S
H3716 C3702 0.960 . S
H3717 C3703 0.961 . S
H3718 C3703 0.961 . S
H3719 C3703 0.961 . S
H3720 C3704 0.931 . S
H3721 C3709 0.930 . S
H3722 C3710 0.956 . S
H3723 C3710 0.961 . S
H3724 C3710 0.961 . S
H3725 C3711 0.958 . S
H3726 C3711 0.961 . S
H3727 C3711 0.960 . S
C3728 C3729 1.391 . S
C3728 C3730 1.394 . S
C3728 H3744 0.931 . S
C3729 C3728 1.391 . S
C3729 C3733 1.376 . S
C3730 C3728 1.394 . S
C3730 C3731 1.369 . S
C3730 C3734 1.531 . S
C3731 C3730 1.369 . S
C3731 C3732 1.410 . S
C3731 C3739 1.503 . S
C3732 C3731 1.410 . S
C3732 C3733 1.392 . S
C3732 C3735 1.511 . S
C3733 C3729 1.376 . S
C3733 C3732 1.392 . S
C3733 H3745 0.929 . S
C3734 C3730 1.531 . S
C3734 H3746 0.960 . S
C3734 H3747 0.962 . S
C3734 H3748 0.960 . S
C3735 C3732 1.511 . S
C3735 H3749 0.961 . S
C3735 H3750 0.961 . S
C3735 H3751 0.961 . S
C3736 C3737 1.370 . S
C3736 C3738 1.363 . S
C3736 H3752 0.931 . S
C3737 C3736 1.370 . S
C3737 C3741 1.408 . S
C3738 C3736 1.363 . S
C3738 C3739 1.370 . S
C3738 C3742 1.524 . S
C3739 C3731 1.503 . S
C3739 C3738 1.370 . S
C3739 C3740 1.403 . S
C3740 C3739 1.403 . S
C3740 C3741 1.404 . S
C3740 C3743 1.539 . S
C3741 C3737 1.408 . S
C3741 C3740 1.404 . S
C3741 H3753 0.930 . S
C3742 C3738 1.524 . S
C3742 H3754 0.956 . S
C3742 H3755 0.961 . S
C3742 H3756 0.961 . S
C3743 C3740 1.539 . S
C3743 H3757 0.958 . S
C3743 H3758 0.961 . S
C3743 H3759 0.960 . S
H3744 C3728 0.931 . S
H3745 C3733 0.929 . S
H3746 C3734 0.960 . S
H3747 C3734 0.962 . S
H3748 C3734 0.960 . S
H3749 C3735 0.961 . S
H3750 C3735 0.961 . S
H3751 C3735 0.961 . S
H3752 C3736 0.931 . S
H3753 C3741 0.930 . S
H3754 C3742 0.956 . S
H3755 C3742 0.961 . S
H3756 C3742 0.961 . S
H3757 C3743 0.958 . S
H3758 C3743 0.961 . S
H3759 C3743 0.960 . S
C3760 C3761 1.391 . S
C3760 C3762 1.394 . S
C3760 H3776 0.931 . S
C3761 C3760 1.391 . S
C3761 C3765 1.376 . S
C3762 C3760 1.394 . S
C3762 C3763 1.369 . S
C3762 C3766 1.531 . S
C3763 C3762 1.369 . S
C3763 C3764 1.410 . S
C3763 C3771 1.503 . S
C3764 C3763 1.410 . S
C3764 C3765 1.392 . S
C3764 C3767 1.511 . S
C3765 C3761 1.376 . S
C3765 C3764 1.392 . S
C3765 H3777 0.929 . S
C3766 C3762 1.531 . S
C3766 H3778 0.960 . S
C3766 H3779 0.962 . S
C3766 H3780 0.960 . S
C3767 C3764 1.511 . S
C3767 H3781 0.961 . S
C3767 H3782 0.961 . S
C3767 H3783 0.961 . S
C3768 C3769 1.370 . S
C3768 C3770 1.363 . S
C3768 H3784 0.931 . S
C3769 C3768 1.370 . S
C3769 C3773 1.408 . S
C3770 C3768 1.363 . S
C3770 C3771 1.370 . S
C3770 C3774 1.524 . S
C3771 C3763 1.503 . S
C3771 C3770 1.370 . S
C3771 C3772 1.403 . S
C3772 C3771 1.403 . S
C3772 C3773 1.404 . S
C3772 C3775 1.539 . S
C3773 C3769 1.408 . S
C3773 C3772 1.404 . S
C3773 H3785 0.930 . S
C3774 C3770 1.524 . S
C3774 H3786 0.956 . S
C3774 H3787 0.961 . S
C3774 H3788 0.961 . S
C3775 C3772 1.539 . S
C3775 H3789 0.958 . S
C3775 H3790 0.961 . S
C3775 H3791 0.960 . S
H3776 C3760 0.931 . S
H3777 C3765 0.929 . S
H3778 C3766 0.960 . S
H3779 C3766 0.962 . S
H3780 C3766 0.960 . S
H3781 C3767 0.961 . S
H3782 C3767 0.961 . S
H3783 C3767 0.961 . S
H3784 C3768 0.931 . S
H3785 C3773 0.930 . S
H3786 C3774 0.956 . S
H3787 C3774 0.961 . S
H3788 C3774 0.961 . S
H3789 C3775 0.958 . S
H3790 C3775 0.961 . S
H3791 C3775 0.960 . S
C3792 C3793 1.391 . S
C3792 C3794 1.394 . S
C3792 H3808 0.931 . S
C3793 C3792 1.391 . S
C3793 C3797 1.376 . S
C3794 C3792 1.394 . S
C3794 C3795 1.369 . S
C3794 C3798 1.531 . S
C3795 C3794 1.369 . S
C3795 C3796 1.410 . S
C3795 C3803 1.503 . S
C3796 C3795 1.410 . S
C3796 C3797 1.392 . S
C3796 C3799 1.511 1_565 S
C3797 C3793 1.376 . S
C3797 C3796 1.392 . S
C3797 H3809 0.929 . S
C3798 C3794 1.531 . S
C3798 H3810 0.960 . S
C3798 H3811 0.962 1_554 S
C3798 H3812 0.960 . S
C3799 C3796 1.511 1_545 S
C3799 H3813 0.961 . S
C3799 H3814 0.961 . S
C3799 H3815 0.961 . S
C3800 C3801 1.370 1_556 S
C3800 C3802 1.366 . S
C3800 H3816 0.940 . S
C3801 C3800 1.370 1_554 S
C3801 C3805 1.408 . S
C3802 C3800 1.366 . S
C3802 C3803 1.350 1_556 S
C3802 C3806 1.543 . S
C3803 C3795 1.503 . S
C3803 C3802 1.350 1_554 S
C3803 C3804 1.403 . S
C3804 C3803 1.403 . S
C3804 C3805 1.404 . S
C3804 C3807 1.539 . S
C3805 C3801 1.408 . S
C3805 C3804 1.404 . S
C3805 H3817 0.930 . S
C3806 C3802 1.543 . S
C3806 H3818 0.956 . S
C3806 H3819 0.961 . S
C3806 H3820 0.961 . S
C3807 C3804 1.539 . S
C3807 H3821 0.958 . S
C3807 H3822 0.961 . S
C3807 H3823 0.960 . S
H3808 C3792 0.931 . S
H3809 C3797 0.929 . S
H3810 C3798 0.960 . S
H3811 C3798 0.962 1_556 S
H3812 C3798 0.960 . S
H3813 C3799 0.961 . S
H3814 C3799 0.961 . S
H3815 C3799 0.961 . S
H3816 C3800 0.940 . S
H3817 C3805 0.930 . S
H3818 C3806 0.956 . S
H3819 C3806 0.961 . S
H3820 C3806 0.961 . S
H3821 C3807 0.958 . S
H3822 C3807 0.961 . S
H3823 C3807 0.960 . S
C3824 C3825 1.391 . S
C3824 C3826 1.394 . S
C3824 H3840 0.931 . S
C3825 C3824 1.391 . S
C3825 C3829 1.376 . S
C3826 C3824 1.394 . S
C3826 C3827 1.369 . S
C3826 C3830 1.531 . S
C3827 C3826 1.369 . S
C3827 C3828 1.410 . S
C3827 C3835 1.503 . S
C3828 C3827 1.410 . S
C3828 C3829 1.392 . S
C3828 C3831 1.511 . S
C3829 C3825 1.376 . S
C3829 C3828 1.392 . S
C3829 H3841 0.929 . S
C3830 C3826 1.531 . S
C3830 H3842 0.960 . S
C3830 H3843 0.962 . S
C3830 H3844 0.960 . S
C3831 C3828 1.511 . S
C3831 H3845 0.961 . S
C3831 H3846 0.961 . S
C3831 H3847 0.961 . S
C3832 C3833 1.370 . S
C3832 C3834 1.363 . S
C3832 H3848 0.931 . S
C3833 C3832 1.370 . S
C3833 C3837 1.408 . S
C3834 C3832 1.363 . S
C3834 C3835 1.370 . S
C3834 C3838 1.524 . S
C3835 C3827 1.503 . S
C3835 C3834 1.370 . S
C3835 C3836 1.403 . S
C3836 C3835 1.403 . S
C3836 C3837 1.404 . S
C3836 C3839 1.539 . S
C3837 C3833 1.408 . S
C3837 C3836 1.404 . S
C3837 H3849 0.930 . S
C3838 C3834 1.524 . S
C3838 H3850 0.956 . S
C3838 H3851 0.961 . S
C3838 H3852 0.961 . S
C3839 C3836 1.539 . S
C3839 H3853 0.958 . S
C3839 H3854 0.961 . S
C3839 H3855 0.960 . S
H3840 C3824 0.931 . S
H3841 C3829 0.929 . S
H3842 C3830 0.960 . S
H3843 C3830 0.962 . S
H3844 C3830 0.960 . S
H3845 C3831 0.961 . S
H3846 C3831 0.961 . S
H3847 C3831 0.961 . S
H3848 C3832 0.931 . S
H3849 C3837 0.930 . S
H3850 C3838 0.956 . S
H3851 C3838 0.961 . S
H3852 C3838 0.961 . S
H3853 C3839 0.958 . S
H3854 C3839 0.961 . S
H3855 C3839 0.960 . S
C3856 C3857 1.391 . S
C3856 C3858 1.394 . S
C3856 H3872 0.931 . S
C3857 C3856 1.391 . S
C3857 C3861 1.376 1_554 S
C3858 C3856 1.394 . S
C3858 C3859 1.369 . S
C3858 C3862 1.531 . S
C3859 C3858 1.369 . S
C3859 C3860 1.410 1_554 S
C3859 C3867 1.503 . S
C3860 C3859 1.410 1_556 S
C3860 C3861 1.392 . S
C3860 C3863 1.511 . S
C3861 C3857 1.376 1_556 S
C3861 C3860 1.392 . S
C3861 H3873 0.929 . S
C3862 C3858 1.531 . S
C3862 H3874 0.960 . S
C3862 H3875 0.962 . S
C3862 H3876 0.960 . S
C3863 C3860 1.511 . S
C3863 H3877 0.961 . S
C3863 H3878 0.961 . S
C3863 H3879 0.961 . S
C3864 C3865 1.370 . S
C3864 C3866 1.363 . S
C3864 H3880 0.931 . S
C3865 C3864 1.370 . S
C3865 C3869 1.408 . S
C3866 C3864 1.363 . S
C3866 C3867 1.370 . S
C3866 C3870 1.524 1_554 S
C3867 C3859 1.503 . S
C3867 C3866 1.370 . S
C3867 C3868 1.403 . S
C3868 C3867 1.403 . S
C3868 C3869 1.404 . S
C3868 C3871 1.539 . S
C3869 C3865 1.408 . S
C3869 C3868 1.404 . S
C3869 H3881 0.930 . S
C3870 C3866 1.524 1_556 S
C3870 H3882 0.956 1_556 S
C3870 H3883 0.961 . S
C3870 H3884 0.961 . S
C3871 C3868 1.539 . S
C3871 H3885 0.958 . S
C3871 H3886 0.961 . S
C3871 H3887 0.960 . S
H3872 C3856 0.931 . S
H3873 C3861 0.929 . S
H3874 C3862 0.960 . S
H3875 C3862 0.962 . S
H3876 C3862 0.960 . S
H3877 C3863 0.961 . S
H3878 C3863 0.961 . S
H3879 C3863 0.961 . S
H3880 C3864 0.931 . S
H3881 C3869 0.930 . S
H3882 C3870 0.956 1_554 S
H3883 C3870 0.961 . S
H3884 C3870 0.961 . S
H3885 C3871 0.958 . S
H3886 C3871 0.961 . S
H3887 C3871 0.960 . S
C3888 C3889 1.391 . S
C3888 C3890 1.394 . S
C3888 H3904 0.931 . S
C3889 C3888 1.391 . S
C3889 C3893 1.376 . S
C3890 C3888 1.394 . S
C3890 C3891 1.369 . S
C3890 C3894 1.531 . S
C3891 C3890 1.369 . S
C3891 C3892 1.410 . S
C3891 C3899 1.503 . S
C3892 C3891 1.410 . S
C3892 C3893 1.392 . S
C3892 C3895 1.511 . S
C3893 C3889 1.376 . S
C3893 C3892 1.392 . S
C3893 H3905 0.929 . S
C3894 C3890 1.531 . S
C3894 H3906 0.960 . S
C3894 H3907 0.962 . S
C3894 H3908 0.960 . S
C3895 C3892 1.511 . S
C3895 H3909 0.961 . S
C3895 H3910 0.961 . S
C3895 H3911 0.961 . S
C3896 C3897 1.370 . S
C3896 C3898 1.363 . S
C3896 H3912 0.931 . S
C3897 C3896 1.370 . S
C3897 C3901 1.408 . S
C3898 C3896 1.363 . S
C3898 C3899 1.370 . S
C3898 C3902 1.524 . S
C3899 C3891 1.503 . S
C3899 C3898 1.370 . S
C3899 C3900 1.403 . S
C3900 C3899 1.403 . S
C3900 C3901 1.404 . S
C3900 C3903 1.539 . S
C3901 C3897 1.408 . S
C3901 C3900 1.404 . S
C3901 H3913 0.930 . S
C3902 C3898 1.524 . S
C3902 H3914 0.956 . S
C3902 H3915 0.961 . S
C3902 H3916 0.961 . S
C3903 C3900 1.539 . S
C3903 H3917 0.958 . S
C3903 H3918 0.961 . S
C3903 H3919 0.960 . S
H3904 C3888 0.931 . S
H3905 C3893 0.929 . S
H3906 C3894 0.960 . S
H3907 C3894 0.962 . S
H3908 C3894 0.960 . S
H3909 C3895 0.961 . S
H3910 C3895 0.961 . S
H3911 C3895 0.961 . S
H3912 C3896 0.931 . S
H3913 C3901 0.930 . S
H3914 C3902 0.956 . S
H3915 C3902 0.961 . S
H3916 C3902 0.961 . S
H3917 C3903 0.958 . S
H3918 C3903 0.961 . S
H3919 C3903 0.960 . S
C3920 C3921 1.391 . S
C3920 C3922 1.394 . S
C3920 H3936 0.931 . S
C3921 C3920 1.391 . S
C3921 C3925 1.376 . S
C3922 C3920 1.394 . S
C3922 C3923 1.369 . S
C3922 C3926 1.531 . S
C3923 C3922 1.369 . S
C3923 C3924 1.410 . S
C3923 C3931 1.503 . S
C3924 C3923 1.410 . S
C3924 C3925 1.392 . S
C3924 C3927 1.511 . S
C3925 C3921 1.376 . S
C3925 C3924 1.392 . S
C3925 H3937 0.929 . S
C3926 C3922 1.531 . S
C3926 H3938 0.960 . S
C3926 H3939 0.962 . S
C3926 H3940 0.960 . S
C3927 C3924 1.511 . S
C3927 H3941 0.961 . S
C3927 H3942 0.961 . S
C3927 H3943 0.961 . S
C3928 C3929 1.370 . S
C3928 C3930 1.363 . S
C3928 H3944 0.931 . S
C3929 C3928 1.370 . S
C3929 C3933 1.408 . S
C3930 C3928 1.363 . S
C3930 C3931 1.370 . S
C3930 C3934 1.524 . S
C3931 C3923 1.503 . S
C3931 C3930 1.370 . S
C3931 C3932 1.403 . S
C3932 C3931 1.403 . S
C3932 C3933 1.404 . S
C3932 C3935 1.539 . S
C3933 C3929 1.408 . S
C3933 C3932 1.404 . S
C3933 H3945 0.930 . S
C3934 C3930 1.524 . S
C3934 H3946 0.956 . S
C3934 H3947 0.961 . S
C3934 H3948 0.961 . S
C3935 C3932 1.539 . S
C3935 H3949 0.958 . S
C3935 H3950 0.961 . S
C3935 H3951 0.960 . S
H3936 C3920 0.931 . S
H3937 C3925 0.929 . S
H3938 C3926 0.960 . S
H3939 C3926 0.962 . S
H3940 C3926 0.960 . S
H3941 C3927 0.961 . S
H3942 C3927 0.961 . S
H3943 C3927 0.961 . S
H3944 C3928 0.931 . S
H3945 C3933 0.930 . S
H3946 C3934 0.956 . S
H3947 C3934 0.961 . S
H3948 C3934 0.961 . S
H3949 C3935 0.958 . S
H3950 C3935 0.961 . S
H3951 C3935 0.960 . S
C889 C353 0.924 . S
C881 C4 0.966 . S
C913 C19 1.414 . S
C921 C399 1.755 . S
C945 C39 0.788 . S
C953 C408 0.790 . S
C985 C446 1.555 . S
C977 C54 1.566 . S
C1009 C18 1.476 . S
C1017 C480 1.519 . S
C1049 C510 0.802 . S
C1041 C40 0.798 . S
C1081 C569 1.476 1_556 S
C1073 C53 1.480 . S
C1105 C5 0.712 . S
C1113 C582 0.891 . S
C1137 C61 0.893 . S
C1145 C365 1.201 1_565 S
C1169 C74 1.119 . S
C1177 C383 1.180 . S
C1209 C404 1.435 . S
C1201 C89 1.233 . S
C1241 C442 0.715 . S
C1233 C109 0.743 . S
C1265 C68 1.163 . S
C1273 C476 1.159 . S
C1305 C506 1.527 . S
C1297 C81 1.529 . S
C1337 C553 1.128 . S
C1329 C96 1.128 . S
C1369 C578 0.703 . S
C1361 C102 0.732 . S
C1401 C349 0.606 1_556 S
C1393 C103 0.631 . S
C1433 C608 1.531 . S
C1425 C117 1.281 . S
C1457 C130 1.301 . S
C1465 C650 1.395 . S
C1497 C693 0.497 . S
C1489 C152 0.449 . S
C1521 C60 1.238 . S
C1529 C574 1.329 . S
C1561 C412 1.395 . S
C1553 C82 1.373 . S
C1585 C137 1.202 . S
C1593 C710 1.244 . S
C1625 C761 1.456 . S
C1617 C165 1.455 . S
C1649 C172 0.926 . S
C1657 C344 0.950 1_556 S
C1689 C744 1.851 . S
C1681 C194 1.859 . S
C1713 C207 0.809 . S
C1721 C417 0.771 . S
C1745 C215 1.383 . S
C1753 C727 1.625 . S
C1785 C489 1.594 . S
C1777 C186 1.583 . S
C1817 C655 0.810 . S
C1809 C201 0.872 . S
C1849 C540 1.523 . S
C1841 C221 1.496 . S
C1881 C795 0.865 . S
C1873 C180 0.877 . S
C1913 C336 1.231 1_655 S
C1905 C236 1.269 . S
C1937 C242 1.250 . S
C1945 C748 1.247 . S
C1977 C433 1.582 . S
C1969 C264 1.616 . S
C2001 C277 0.808 . S
C2009 C723 0.823 . S
C2033 C229 1.004 1_565 S
C2041 C485 1.100 . S
C2065 C249 1.489 . S
C2073 C671 1.526 . S
C2105 C544 1.131 . S
C2097 C257 0.960 . S
C2129 C270 0.670 . S
C2137 C791 0.699 . S
C2161 C278 0.657 . S
C2169 C340 0.586 . S
C2193 C292 1.584 . S
C2201 C637 1.603 . S
C2225 C298 1.537 . S
C2233 C523 1.521 . S
C2257 C313 0.774 . S
C2265 C684 0.555 . S
C2297 C807 1.355 . S
C2289 C228 1.354 . S
C2329 C421 1.410 . S
C2321 C243 1.342 . S
C2361 C467 1.252 . S
C2353 C305 1.230 . S
C2393 C378 1.436 . S
C2385 C333 1.426 . S
C2417 C32 0.940 . S
C2425 C829 0.939 . S
C2457 C773 1.744 . S
C2449 C47 1.509 . S
C2489 C850 0.796 . S
C2481 C11 0.809 . S
C2513 C26 1.565 . S
C2521 C718 1.555 . S
C2545 C46 1.476 . S
C2553 C616 1.510 1_556 S
C2585 C646 0.786 . S
C2577 C12 0.775 . S
C2617 C705 1.478 . S
C2609 C25 1.482 . S
C2649 C786 0.894 . S
C2641 C33 0.669 . S
C2681 C841 1.204 . S
C2673 C159 0.893 . S
C2705 C116 1.122 . S
C2713 C757 1.179 . S
C2737 C131 1.232 . S
C2745 C846 1.436 . S
C2777 C714 0.719 . S
C2769 C151 0.741 . S
C2809 C612 1.138 . S
C2801 C166 1.179 . S
C2833 C123 1.547 . S
C2841 C642 1.533 . S
C2873 C689 1.125 . S
C2865 C138 1.117 . S
C2897 C144 0.705 . S
C2905 C782 0.724 . S
C2937 C825 0.569 . S
C2929 C145 0.740 . S
C2969 C472 1.528 1_565 S
C2961 C75 1.296 . S
C3001 C514 1.401 . S
C2993 C88 1.282 . S
C3025 C110 0.489 . S
C3033 C557 0.448 . S
C3065 C778 1.329 . S
C3057 C158 1.238 . S
C3089 C124 1.407 . S
C3097 C854 1.381 . S
C3129 C438 1.245 . S
C3121 C95 1.246 . S
C3161 C387 1.449 . S
C3153 C67 1.430 . S
C3185 C200 0.989 . S
C3193 C820 0.959 . S
C3225 C370 1.853 . S
C3217 C222 1.856 . S
C3257 C859 0.780 . S
C3249 C179 0.780 . S
C3281 C187 1.363 . S
C3289 C455 1.635 . S
C3313 C214 1.585 . S
C3321 C625 1.579 . S
C3345 C173 0.675 . S
C3353 C519 0.781 . S
C3377 C193 1.517 . S
C3385 C676 1.511 . S
C3409 C208 0.908 . S
C3417 C591 0.870 . S
C3449 C812 1.233 . S
C3441 C334 1.269 . S
C3473 C284 1.247 . S
C3481 C374 1.242 . S
C3513 C875 1.582 . S
C3505 C306 1.616 . S
C3537 C319 0.864 . S
C3545 C451 0.801 . S
C3569 C327 0.929 . S
C3577 C621 1.085 . S
C3609 C535 1.531 . S
C3601 C291 1.498 . S
C3633 C299 1.103 . S
C3641 C680 1.139 . S
C3673 C587 0.699 . S
C3665 C312 0.681 . S
C3705 C816 0.572 . S
C3697 C320 0.630 . S
C3737 C501 1.605 . S
C3729 C250 1.595 . S
C3761 C256 1.535 . S
C3769 C659 1.508 . S
C3801 C548 0.515 1_565 S
C3793 C271 0.576 . S
C3833 C603 1.360 . S
C3825 C326 1.381 . S
C3857 C285 1.343 1_554 S
C3865 C863 1.404 . S
C3897 C739 1.249 . S
C3889 C263 1.233 . S
C3929 C752 1.439 . S
C3921 C235 1.419 . S
