# Generated by pormake.
# Topology zzz, (3,6)-cn, num edge types: 1
# Building blocks:
#     Node 0, Type 0, BuildingBlock: WUSLED_clean_sbu_0, # of connection points: 3
#     Node 1, Type 0, BuildingBlock: WUSLED_clean_sbu_0, # of connection points: 3
#     Node 2, Type 0, BuildingBlock: WUSLED_clean_sbu_0, # of connection points: 3
#     Node 3, Type 0, BuildingBlock: WUSLED_clean_sbu_0, # of connection points: 3
#     Node 4, Type 0, BuildingBlock: WUSLED_clean_sbu_0, # of connection points: 3
#     Node 5, Type 0, BuildingBlock: WUSLED_clean_sbu_0, # of connection points: 3
#     Node 6, Type 0, BuildingBlock: WUSLED_clean_sbu_0, # of connection points: 3
#     Node 7, Type 0, BuildingBlock: WUSLED_clean_sbu_0, # of connection points: 3
#     Node 8, Type 1, BuildingBlock: BETFEN_clean_sbu_0, # of connection points: 6
#     Node 9, Type 1, BuildingBlock: BETFEN_clean_sbu_0, # of connection points: 6
#     Node 10, Type 1, BuildingBlock: BETFEN_clean_sbu_0, # of connection points: 6
#     Node 11, Type 1, BuildingBlock: BETFEN_clean_sbu_0, # of connection points: 6
#     Edge 12, Type (0, 1), BuildingBlock: XIVTED_clean_linker_0, # of connection points: 2
#     Edge 13, Type (0, 1), BuildingBlock: XIVTED_clean_linker_0, # of connection points: 2
#     Edge 14, Type (0, 1), BuildingBlock: XIVTED_clean_linker_0, # of connection points: 2
#     Edge 15, Type (0, 1), BuildingBlock: XIVTED_clean_linker_0, # of connection points: 2
#     Edge 16, Type (0, 1), BuildingBlock: XIVTED_clean_linker_0, # of connection points: 2
#     Edge 17, Type (0, 1), BuildingBlock: XIVTED_clean_linker_0, # of connection points: 2
#     Edge 18, Type (0, 1), BuildingBlock: XIVTED_clean_linker_0, # of connection points: 2
#     Edge 19, Type (0, 1), BuildingBlock: XIVTED_clean_linker_0, # of connection points: 2
#     Edge 20, Type (0, 1), BuildingBlock: XIVTED_clean_linker_0, # of connection points: 2
#     Edge 21, Type (0, 1), BuildingBlock: XIVTED_clean_linker_0, # of connection points: 2
#     Edge 22, Type (0, 1), BuildingBlock: XIVTED_clean_linker_0, # of connection points: 2
#     Edge 23, Type (0, 1), BuildingBlock: XIVTED_clean_linker_0, # of connection points: 2
#     Edge 24, Type (0, 1), BuildingBlock: XIVTED_clean_linker_0, # of connection points: 2
#     Edge 25, Type (0, 1), BuildingBlock: XIVTED_clean_linker_0, # of connection points: 2
#     Edge 26, Type (0, 1), BuildingBlock: XIVTED_clean_linker_0, # of connection points: 2
#     Edge 27, Type (0, 1), BuildingBlock: XIVTED_clean_linker_0, # of connection points: 2
#     Edge 28, Type (0, 1), BuildingBlock: XIVTED_clean_linker_0, # of connection points: 2
#     Edge 29, Type (0, 1), BuildingBlock: XIVTED_clean_linker_0, # of connection points: 2
#     Edge 30, Type (0, 1), BuildingBlock: XIVTED_clean_linker_0, # of connection points: 2
#     Edge 31, Type (0, 1), BuildingBlock: XIVTED_clean_linker_0, # of connection points: 2
#     Edge 32, Type (0, 1), BuildingBlock: XIVTED_clean_linker_0, # of connection points: 2
#     Edge 33, Type (0, 1), BuildingBlock: XIVTED_clean_linker_0, # of connection points: 2
#     Edge 34, Type (0, 1), BuildingBlock: XIVTED_clean_linker_0, # of connection points: 2
#     Edge 35, Type (0, 1), BuildingBlock: XIVTED_clean_linker_0, # of connection points: 2
# Relax obj value: 0.421
# Max RMSD: 0.264
# Mean RMSD: 0.247
data_MOF--net-zzz--node1-WUSLED_clean_sbu_0--node2-BETFEN_clean_sbu_0--edge1-XIVTED_clean_linker_0
_symmetry_space_group_name_H-M    P1
_symmetry_Int_Tables_number       1
_symmetry_cell_setting            triclinic
loop_
_symmetry_equiv_pos_as_xyz
'x, y, z'
_cell_length_a     64.181282
_cell_length_b     64.312774
_cell_length_c     19.589611
_cell_angle_alpha  90.040148
_cell_angle_beta   89.918929
_cell_angle_gamma 89.884411
loop_
_atom_site_label
_atom_site_type_symbol
_atom_site_fract_x
_atom_site_fract_y
_atom_site_fract_z
_atom_type_partial_charge
C0 C 0.7747 0.52648 0.46087 0.0
C1 C 0.78131 0.50967 0.50151 0.0
C2 C 0.81717 0.52274 0.50321 0.0
C3 C 0.80221 0.50781 0.52232 0.0
C4 C 0.8105 0.53959 0.46269 0.0
C5 C 0.78963 0.54148 0.44217 0.0
U6 U 0.73012 0.52201 0.32925 0.0
O7 O 0.70435 0.54365 0.30698 0.0
O8 O 0.69744 0.51174 0.3385 0.0
C9 C 0.68994 0.52934 0.3146 0.0
C10 C 0.75228 0.52869 0.44044 0.0
C11 C 0.67481 0.52762 0.25769 0.0
C12 C 0.64004 0.53408 0.21192 0.0
C13 C 0.65429 0.53477 0.26623 0.0
C14 C 0.66657 0.51878 0.13974 0.0
C15 C 0.64599 0.52624 0.14754 0.0
C16 C 0.68079 0.5195 0.19407 0.0
C17 C 0.7742 0.50298 0.22295 0.0
C18 C 0.8038 0.48767 0.16494 0.0
C19 C 0.80878 0.50624 0.27151 0.0
C20 C 0.78744 0.51006 0.27485 0.0
C21 C 0.8172 0.49516 0.21619 0.0
C22 C 0.7824 0.49158 0.16831 0.0
C23 C 0.7519 0.50754 0.22686 0.0
O24 O 0.74785 0.54325 0.3956 0.0
O25 O 0.74183 0.51142 0.42953 0.0
O26 O 0.74143 0.49547 0.26869 0.0
O27 O 0.74742 0.52737 0.23414 0.0
H28 H 0.77028 0.49791 0.5175 0.0
H29 H 0.80666 0.49451 0.55287 0.0
H30 H 0.82134 0.55162 0.44771 0.0
H31 H 0.78522 0.55481 0.41164 0.0
H32 H 0.6245 0.54019 0.22003 0.0
H33 H 0.64935 0.54118 0.31479 0.0
H34 H 0.67172 0.51229 0.09158 0.0
H35 H 0.69654 0.51386 0.18626 0.0
H36 H 0.80994 0.47929 0.12131 0.0
H37 H 0.8187 0.51203 0.31199 0.0
H38 H 0.78123 0.51876 0.31755 0.0
H39 H 0.77232 0.48596 0.12803 0.0
C40 C 1.01032 0.77198 0.4718 0.0
C41 C 0.01532 0.78791 0.42546 0.0
C42 C 1.01054 0.81441 0.51428 0.0
C43 C 0.01537 0.80884 0.44633 0.0
C44 C 1.00543 0.79834 0.56026 0.0
C45 C 1.00531 0.77745 0.53924 0.0
U46 U 1.00432 0.72867 0.3376 0.0
O47 O 0.02345 0.70059 0.32047 0.0
O48 O 0.99016 0.6975 0.34304 0.0
C49 C 1.00736 0.68801 0.3236 0.0
C50 C 1.01057 0.74968 0.45137 0.0
C51 C 1.00539 0.67307 0.26616 0.0
C52 C 0.01444 0.63965 0.2147 0.0
C53 C 0.01559 0.65376 0.26932 0.0
C54 C 0.99263 0.66386 0.1529 0.0
C55 C 1.00304 0.64451 0.15534 0.0
C56 C 0.99386 0.67797 0.20746 0.0
C57 C 0.99415 0.77467 0.22584 0.0
C58 C 1.00689 0.80614 0.17247 0.0
C59 C 0.9857 0.80843 0.27478 0.0
C60 C 0.98414 0.78677 0.27609 0.0
C61 C 0.99751 0.81821 0.22386 0.0
C62 C 1.00515 0.78454 0.17334 0.0
C63 C 0.99559 0.75196 0.2323 0.0
O64 O 0.99248 0.74151 0.43497 0.0
O65 O 0.02566 0.74389 0.40999 0.0
O66 O 0.01448 0.7451 0.24518 0.0
O67 O 0.98113 0.74296 0.26962 0.0
H68 H 0.01936 0.78417 0.37316 0.0
H69 H 0.01959 0.82061 0.40936 0.0
H70 H 1.00127 0.80187 0.61257 0.0
H71 H 1.00135 0.7655 0.57597 0.0
H72 H 0.02293 0.62513 0.21848 0.0
H73 H 0.02468 0.64966 0.31391 0.0
H74 H 0.98342 0.66814 0.10883 0.0
H75 H 0.98586 0.69278 0.20363 0.0
H76 H 0.01584 0.81342 0.13214 0.0
H77 H 0.97843 0.81746 0.31503 0.0
H78 H 0.97584 0.7795 0.31789 0.0
H79 H 1.01307 0.77549 0.13445 0.0
C80 C 0.75262 1.00488 0.48079 0.0
C81 C 0.73741 0.01304 0.43664 0.0
C82 C 0.70994 1.00645 0.52094 0.0
C83 C 0.71634 0.01374 0.4563 0.0
C84 C 0.72529 0.99828 0.56486 0.0
C85 C 0.74631 0.99747 0.54495 0.0
U86 U 0.79587 1.00158 0.34547 0.0
O87 O 0.82576 0.98451 0.34365 0.0
O88 O 0.82555 0.01852 0.33728 0.0
C89 C 0.83674 1.00142 0.33248 0.0
C90 C 0.77504 1.00415 0.46126 0.0
C91 C 0.85157 1.00048 0.27436 0.0
C92 C 0.88664 0.9938 0.23111 0.0
C93 C 0.87235 0.99455 0.28544 0.0
C94 C 0.85955 1.00493 0.15351 0.0
C95 C 0.88049 0.99898 0.16417 0.0
C96 C 0.84528 1.0056 0.20783 0.0
C97 C 0.74931 0.99959 0.2316 0.0
C98 C 0.71817 0.01464 0.18219 0.0
C99 C 0.71521 0.99036 0.27632 0.0
C100 C 0.73686 0.98838 0.27783 0.0
C101 C 0.7057 1.00371 0.22905 0.0
C102 C 0.7398 0.01256 0.18343 0.0
C103 C 0.77212 0.99951 0.23765 0.0
O104 O 0.7818 0.98646 0.43573 0.0
O105 O 0.78224 0.02043 0.42826 0.0
O106 O 0.78007 0.01707 0.25987 0.0
O107 O 0.7803 0.98296 0.26662 0.0
H108 H 0.74183 0.019 0.38701 0.0
H109 H 0.70514 0.02034 0.42115 0.0
H110 H 0.72105 0.99222 0.61451 0.0
H111 H 0.7577 0.99107 0.57992 0.0
H112 H 0.90245 0.98887 0.24156 0.0
H113 H 0.87756 0.99047 0.33629 0.0
H114 H 0.85418 1.00937 0.10323 0.0
H115 H 0.82933 1.01025 0.19792 0.0
H116 H 0.71117 0.02479 0.14451 0.0
H117 H 0.70595 0.9819 0.31327 0.0
H118 H 0.74385 0.97856 0.31644 0.0
H119 H 0.74915 0.02143 0.14776 0.0
C120 C 0.50924 0.7491 0.45511 0.0
C121 C 0.50414 0.73279 0.41026 0.0
C122 C 0.51134 0.70696 0.49888 0.0
C123 C 0.50524 0.712 0.4318 0.0
C124 C 0.51653 0.72336 0.54344 0.0
C125 C 0.51549 0.74413 0.52179 0.0
U126 U 0.51944 0.79351 0.32792 0.0
O127 O 0.49849 0.81893 0.29682 0.0
O128 O 0.52866 0.8262 0.34318 0.0
C129 C 0.51205 0.8335 0.31192 0.0
C130 C 0.50776 0.77129 0.43409 0.0
C131 C 0.51578 0.84896 0.2574 0.0
C132 C 0.50782 0.88257 0.20611 0.0
C133 C 0.50547 0.86821 0.25942 0.0
C134 C 0.53121 0.85876 0.14846 0.0
C135 C 0.52055 0.87798 0.14939 0.0
C136 C 0.5288 0.8444 0.20174 0.0
C137 C 0.54347 0.75012 0.22776 0.0
C138 C 0.54694 0.71913 0.15832 0.0
C139 C 0.54436 0.7161 0.28142 0.0
C140 C 0.54334 0.73773 0.28673 0.0
C141 C 0.54568 0.70658 0.21702 0.0
C142 C 0.54573 0.74075 0.16369 0.0
C143 C 0.53861 0.77234 0.23251 0.0
O144 O 0.52536 0.78172 0.43211 0.0
O145 O 0.49549 0.77546 0.38216 0.0
O146 O 0.51858 0.77655 0.2306 0.0
O147 O 0.54856 0.7826 0.28048 0.0
H148 H 0.49927 0.73606 0.35845 0.0
H149 H 0.50091 0.69991 0.39608 0.0
H150 H 0.52161 0.72017 0.59507 0.0
H151 H 0.51953 0.75637 0.55741 0.0
H152 H 0.49914 0.89701 0.20848 0.0
H153 H 0.49525 0.87199 0.30173 0.0
H154 H 0.5414 0.85474 0.10636 0.0
H155 H 0.53689 0.82962 0.19907 0.0
H156 H 0.54768 0.71221 0.10794 0.0
H157 H 0.54351 0.70682 0.32747 0.0
H158 H 0.54162 0.74475 0.33668 0.0
H159 H 0.54565 0.7501 0.11769 0.0
C160 C 0.25179 0.5017 0.90448 0.0
C161 C 0.23551 0.49786 0.95078 0.0
C162 C 0.20932 0.50448 0.86217 0.0
C163 C 0.21459 0.49939 0.93014 0.0
C164 C 0.22579 0.50831 0.81605 0.0
C165 C 0.24669 0.50701 0.83703 0.0
U166 U 0.29509 0.50381 0.04002 0.0
O167 O 0.32724 0.51603 0.03677 0.0
O168 O 0.32187 0.48295 0.05635 0.0
C169 C 0.33547 0.49822 0.0558 0.0
C170 C 0.27406 0.49989 0.92512 0.0
C171 C 0.34981 0.4991 0.11519 0.0
C172 C 0.38485 0.50368 0.16125 0.0
C173 C 0.37116 0.50284 0.10537 0.0
C174 C 0.35605 0.49693 0.23776 0.0
C175 C 0.37751 0.5008 0.22847 0.0
C176 C 0.3424 0.49619 0.18197 0.0
C177 C 0.24972 0.51716 0.15188 0.0
C178 C 0.21727 0.50998 0.21033 0.0
C179 C 0.21687 0.52788 0.10144 0.0
C180 C 0.23857 0.52687 0.09904 0.0
C181 C 0.206 0.51917 0.15664 0.0
C182 C 0.23897 0.50896 0.20786 0.0
C183 C 0.27222 0.51359 0.14567 0.0
O184 O 0.28333 0.51723 0.94351 0.0
O185 O 0.27877 0.48416 0.96513 0.0
O186 O 0.27736 0.49432 0.13084 0.0
O187 O 0.28252 0.52747 0.10982 0.0
H188 H 0.23896 0.49357 1.003 0.0
H189 H 0.20257 0.49667 0.96789 0.0
H190 H 0.22262 0.51192 0.76312 0.0
H191 H 0.25893 0.50992 0.80012 0.0
H192 H 0.40113 0.50697 0.15171 0.0
H193 H 0.37725 0.5052 0.05436 0.0
H194 H 0.34974 0.49425 0.28826 0.0
H195 H 0.326 0.49327 0.19104 0.0
H196 H 0.20931 0.50351 0.2542 0.0
H197 H 0.20859 0.53491 0.05916 0.0
H198 H 0.24655 0.53304 0.05473 0.0
H199 H 0.24733 0.50135 0.24889 0.0
C200 C 0.02867 0.24737 0.92753 0.0
C201 C 0.03893 0.23118 0.96246 0.0
C202 C 0.02376 0.20494 0.88643 0.0
C203 C 0.0365 0.21036 0.94232 0.0
C204 C 0.01335 0.22117 0.85196 0.0
C205 C 0.01583 0.24202 0.87207 0.0
U206 U 0.02131 0.296 0.04271 0.0
O207 O 0.01697 0.3294 0.02026 0.0
O208 O 0.04489 0.31887 0.07425 0.0
C209 C 0.03356 0.33489 0.0553 0.0
C210 C 0.03233 0.26975 0.94546 0.0
C211 C 0.03037 0.35088 0.10897 0.0
C212 C 0.03927 0.38448 0.15917 0.0
C213 C 0.04089 0.36998 0.10563 0.0
C214 C 0.01624 0.36112 0.2196 0.0
C215 C 0.02718 0.38012 0.21756 0.0
C216 C 0.01785 0.34669 0.16611 0.0
C217 C 0.9897 0.25932 0.14942 0.0
C218 C 0.97523 0.23405 0.22735 0.0
C219 C 0.99166 0.22261 0.12217 0.0
C220 C 0.99534 0.24328 0.1045 0.0
C221 C 0.9823 0.21778 0.18507 0.0
C222 C 0.97903 0.25471 0.20975 0.0
C223 C 0.9974 0.28036 0.13784 0.0
O224 O 0.01639 0.28256 0.93998 0.0
O225 O 0.04374 0.27354 0.99979 0.0
O226 O 0.0177 0.28204 0.14398 0.0
O227 O 0.98996 0.28986 0.0837 0.0
H228 H 0.04914 0.23457 1.00498 0.0
H229 H 0.0451 0.19854 0.96978 0.0
H230 H 1.00317 0.2178 0.80939 0.0
H231 H 1.00781 0.25404 0.84356 0.0
H232 H 0.04807 0.39879 0.15577 0.0
H233 H 0.05074 0.37351 0.06223 0.0
H234 H 1.00648 0.35729 0.26291 0.0
H235 H 1.0096 0.33205 0.16993 0.0
H236 H 0.96766 0.23076 0.27559 0.0
H237 H 0.99743 0.21045 0.08879 0.0
H238 H 1.00367 0.24669 0.05773 0.0
H239 H 0.97457 0.26699 0.2448 0.0
C240 C 0.27454 0.01851 0.91709 0.0
C241 C 0.28814 0.03503 0.93235 0.0
C242 C 0.31701 0.01757 0.87344 0.0
C243 C 0.30906 0.03451 0.91117 0.0
C244 C 0.30333 1.00109 0.85814 0.0
C245 C 0.28244 1.00157 0.87967 0.0
U246 U 0.23133 0.02098 0.05393 0.0
O247 O 0.20118 0.03741 0.05626 0.0
O248 O 0.20195 1.00341 0.06314 0.0
C249 C 0.19054 0.02033 0.06851 0.0
C250 C 0.2521 0.01883 0.93792 0.0
C251 C 0.17607 0.02104 0.1277 0.0
C252 C 0.14266 1.01186 0.17908 0.0
C253 C 0.15639 1.01166 0.12319 0.0
C254 C 0.16802 0.03103 0.24498 0.0
C255 C 0.14827 0.02148 0.24107 0.0
C256 C 0.18176 0.03073 0.18918 0.0
C257 C 0.27803 0.02309 0.16709 0.0
C258 C 0.3093 1.00754 0.21388 0.0
C259 C 0.31198 0.03266 0.12204 0.0
C260 C 0.29034 0.03469 0.12157 0.0
C261 C 0.32161 0.01886 0.16763 0.0
C262 C 0.28767 1.00967 0.21365 0.0
C263 C 0.25522 0.02312 0.16143 0.0
O264 O 0.24529 1.00235 0.9707 0.0
O265 O 0.24474 0.03632 0.96336 0.0
O266 O 0.24688 0.03965 0.13275 0.0
O267 O 0.24735 1.00554 0.1391 0.0
H268 H 0.28262 0.04849 0.96025 0.0
H269 H 0.31891 0.04765 0.9233 0.0
H270 H 0.30881 0.98764 0.83005 0.0
H271 H 0.27239 0.98863 0.8668 0.0
H272 H 0.1278 1.00408 0.17402 0.0
H273 H 0.15168 1.004 0.07644 0.0
H274 H 0.17289 0.0389 0.29113 0.0
H275 H 0.19687 0.03806 0.19416 0.0
H276 H 0.31642 0.99704 0.25028 0.0
H277 H 0.32113 0.04148 0.08573 0.0
H278 H 0.28323 0.045 0.08466 0.0
H279 H 0.27843 1.00048 0.24874 0.0
C280 C 0.49361 0.27809 0.93689 0.0
C281 C 0.49532 0.29483 0.98279 0.0
C282 C 0.49896 0.31949 0.88827 0.0
C283 C 0.49808 0.31521 0.95884 0.0
C284 C 0.49748 0.30261 0.84257 0.0
C285 C 0.49486 0.28222 0.86662 0.0
U286 U 0.50303 0.23219 0.06 0.0
O287 O 0.50513 0.19829 0.04301 0.0
O288 O 0.47978 0.21117 0.10501 0.0
C289 C 0.48943 0.19428 0.08419 0.0
C290 C 0.48972 0.25648 0.96085 0.0
C291 C 0.49321 0.17853 0.13787 0.0
C292 C 0.48488 0.14503 0.18921 0.0
C293 C 0.48265 0.15946 0.13597 0.0
C294 C 0.50862 0.16843 0.24646 0.0
C295 C 0.49767 0.14943 0.24578 0.0
C296 C 0.50639 0.18281 0.19318 0.0
C297 C 0.53977 0.26979 0.14227 0.0
C298 C 0.5521 0.29909 0.20842 0.0
C299 C 0.54328 0.30366 0.08902 0.0
C300 C 0.53853 0.28254 0.08431 0.0
C301 C 0.54956 0.31222 0.15162 0.0
C302 C 0.5471 0.27801 0.20382 0.0
C303 C 0.53071 0.24891 0.14105 0.0
O304 O 0.50506 0.24309 0.95308 0.0
O305 O 0.48013 0.25454 0.01987 0.0
O306 O 0.51069 0.24855 0.15507 0.0
O307 O 0.53579 0.23734 0.0882 0.0
H308 H 0.49446 0.2922 0.03732 0.0
H309 H 0.49955 0.32761 0.9959 0.0
H310 H 0.4978 0.30516 0.78796 0.0
H311 H 0.49346 0.26964 0.83008 0.0
H312 H 0.47604 0.13072 0.18702 0.0
H313 H 0.4723 0.15589 0.09391 0.0
H314 H 0.51888 0.17226 0.28843 0.0
H315 H 0.51471 0.19744 0.19569 0.0
H316 H 0.5567 0.30534 0.25749 0.0
H317 H 0.54134 0.31343 0.04443 0.0
H318 H 0.53295 0.27636 0.03628 0.0
H319 H 0.54798 0.26839 0.24911 0.0
Pr320 Pr 0.02929 1.00434 0.7699 0.0
Pr321 Pr 0.99928 0.01462 0.63619 0.0
C322 C 0.04186 0.99689 0.89827 0.0
C323 C 0.03449 0.9846 0.95611 0.0
C324 C 0.04516 0.98527 0.01831 0.0
C325 C 0.0392 0.97222 0.07183 0.0
C326 C 0.0225 0.95831 0.06359 0.0
C327 C 1.01126 0.95847 1.00195 0.0
C328 C 0.01723 0.97151 0.94861 0.0
C329 C 0.05364 0.014 0.65395 0.0
C330 C 1.01259 0.96514 0.67003 0.0
C331 C 0.98534 0.02296 0.51001 0.0
C332 C 0.98946 0.03867 0.45795 0.0
C333 C 0.974 0.0435 0.41018 0.0
C334 C 0.97606 0.06103 0.36875 0.0
C335 C 0.99364 0.07391 0.37481 0.0
C336 C 1.00978 0.06808 0.41941 0.0
C337 C 1.0076 0.05071 0.46123 0.0
C338 C 0.97519 1.00434 0.75245 0.0
C339 C 0.01582 0.0539 0.73507 0.0
O340 O 0.03024 0.01286 0.88165 0.0
O341 O 0.04855 0.9862 0.84555 0.0
O342 O 0.03407 0.0137 0.65884 0.0
O343 O 0.06158 1.00952 0.71319 0.0
O344 O 1.00584 0.97889 0.62473 0.0
O345 O 0.01985 0.97069 0.73102 0.0
O346 O 1.00031 1.00956 0.52206 0.0
O347 O 0.97637 0.03006 0.56544 0.0
O348 O 0.99471 1.00509 0.74729 0.0
O349 O 0.96714 1.00862 0.69331 0.0
O350 O 0.02249 0.04014 0.78048 0.0
O351 O 1.00859 0.04834 0.67415 0.0
H352 H 0.05844 0.99546 0.02482 0.0
H353 H 0.04803 0.97258 0.1189 0.0
H354 H 0.99854 0.94774 0.99342 0.0
H355 H 1.00883 0.97088 0.90069 0.0
H356 H 0.95983 0.03441 0.40761 0.0
H357 H 0.96327 0.06522 0.33543 0.0
H358 H 0.02365 0.07753 0.42443 0.0
H359 H 0.01957 0.04733 0.49852 0.0
Pr360 Pr 0.51867 0.02824 0.76607 0.0
Pr361 Pr 0.50849 0.99936 0.62899 0.0
C362 C 0.52533 0.04028 0.89546 0.0
C363 C 0.5379 0.03351 0.95344 0.0
C364 C 0.53658 0.04418 0.01559 0.0
C365 C 0.54996 0.03903 0.06916 0.0
C366 C 0.56482 0.02311 0.06104 0.0
C367 C 0.56535 1.01183 0.99946 0.0
C368 C 0.55202 0.01703 0.94601 0.0
C369 C 0.50925 0.05322 0.65153 0.0
C370 C 0.55814 1.01171 0.66753 0.0
C371 C 0.5021 0.9871 0.49966 0.0
C372 C 0.48973 0.99357 0.44091 0.0
C373 C 0.49107 0.98239 0.37972 0.0
C374 C 0.47784 0.98724 0.32547 0.0
C375 C 0.46316 1.00338 0.33192 0.0
C376 C 0.46263 0.01518 0.39243 0.0
C377 C 0.47577 1.01024 0.44664 0.0
C378 C 0.51789 0.97438 0.74348 0.0
C379 C 0.469 0.01575 0.72791 0.0
O380 O 0.51008 0.02789 0.87786 0.0
O381 O 0.53576 0.04775 0.84338 0.0
O382 O 0.50954 0.0337 0.65533 0.0
O383 O 0.51377 0.06083 0.71118 0.0
O384 O 0.54446 1.00569 0.62091 0.0
O385 O 0.55245 0.01849 0.72895 0.0
O386 O 0.51723 0.99962 0.51735 0.0
O387 O 0.49152 0.97976 0.55162 0.0
O388 O 0.51761 0.9939 0.73969 0.0
O389 O 0.51343 0.96678 0.6838 0.0
O390 O 0.48271 0.02197 0.77414 0.0
O391 O 0.47464 1.0088 0.66659 0.0
H392 H 0.52563 0.05689 0.02198 0.0
H393 H 0.54909 0.04786 0.11617 0.0
H394 H 0.57683 0.99973 0.99109 0.0
H395 H 0.55323 1.00871 0.89805 0.0
H396 H 0.50187 0.96951 0.37469 0.0
H397 H 0.47863 0.97798 0.27933 0.0
H398 H 0.45125 0.02746 0.39944 0.0
H399 H 0.4745 0.01891 0.49391 0.0
Pr400 Pr 0.49525 0.51917 0.7598 0.0
Pr401 Pr 0.52521 0.50721 0.62592 0.0
C402 C 0.48274 0.5286 0.88717 0.0
C403 C 0.48962 0.542 0.94414 0.0
C404 C 0.47843 0.5602 0.95928 0.0
C405 C 0.48579 0.57413 1.00824 0.0
C406 C 0.50453 0.57014 0.04291 0.0
C407 C 0.51518 0.55143 0.03034 0.0
C408 C 0.50765 0.53736 0.98201 0.0
C409 C 0.47099 0.50966 0.64347 0.0
C410 C 0.51288 0.55712 0.65802 0.0
C411 C 0.54 0.49941 0.49998 0.0
C412 C 0.53901 0.48463 0.44338 0.0
C413 C 0.55459 0.48522 0.39335 0.0
C414 C 0.55576 0.46966 0.34388 0.0
C415 C 0.54131 0.45329 0.34377 0.0
C416 C 0.52506 0.45333 0.39213 0.0
C417 C 0.52398 0.46887 0.44191 0.0
C418 C 0.54939 0.51792 0.74142 0.0
C419 C 0.50752 0.46909 0.72744 0.0
O420 O 0.4942 0.51225 0.8728 0.0
O421 O 0.47572 0.5382 0.83276 0.0
O422 O 0.49053 0.50921 0.64926 0.0
O423 O 0.46301 0.51492 0.70208 0.0
O424 O 0.5192 0.54303 0.61305 0.0
O425 O 0.50576 0.55209 0.71952 0.0
O426 O 0.52359 0.51109 0.51121 0.0
O427 O 0.54886 0.49254 0.55578 0.0
O428 O 0.52984 0.51756 0.7363 0.0
O429 O 0.55738 0.51294 0.68275 0.0
O430 O 0.50069 0.48328 0.77132 0.0
O431 O 0.51554 0.47395 0.66684 0.0
H432 H 0.46431 0.564 0.93171 0.0
H433 H 0.47732 0.58849 0.01658 0.0
H434 H 0.52951 0.54787 0.05708 0.0
H435 H 0.51623 0.5231 0.97342 0.0
H436 H 0.56632 0.49732 0.39404 0.0
H437 H 0.56831 0.4701 0.30687 0.0
H438 H 0.51385 0.44077 0.3937 0.0
H439 H 0.51194 0.46817 0.48067 0.0
Pr440 Pr 1.00835 0.4978 0.74837 0.0
Pr441 Pr 0.01791 0.52907 0.61867 0.0
C442 C 1.00235 0.48263 0.87459 0.0
C443 C 0.98908 0.48609 0.9341 0.0
C444 C 0.98914 0.47153 0.98717 0.0
C445 C 0.97471 0.4732 0.04026 0.0
C446 C 0.96006 0.48947 0.04075 0.0
C447 C 0.96083 0.50465 0.9891 0.0
C448 C 0.97521 0.50292 0.93594 0.0
C449 C 0.01803 0.47459 0.62981 0.0
C450 C 0.96844 0.51509 0.65386 0.0
C451 C 0.02425 0.54456 0.49294 0.0
C452 C 0.03696 0.5413 0.43122 0.0
C453 C 0.05189 0.55625 0.41364 0.0
C454 C 0.06531 0.55289 0.3588 0.0
C455 C 0.06399 0.53454 0.32004 0.0
C456 C 0.04826 0.52008 0.33531 0.0
C457 C 0.03479 0.52347 0.39031 0.0
C458 C 1.00821 0.55227 0.73728 0.0
C459 C 0.05792 0.51111 0.71187 0.0
O460 O 0.01602 0.49714 0.86082 0.0
O461 O 0.99292 0.47528 0.82044 0.0
O462 O 0.01749 0.4941 0.63602 0.0
O463 O 0.01365 0.46625 0.68841 0.0
O464 O 0.98206 0.5224 0.60903 0.0
O465 O 0.97424 0.50712 0.71353 0.0
O466 O 1.00973 0.53086 0.50673 0.0
O467 O 0.03413 0.55126 0.5472 0.0
O468 O 1.00881 0.53277 0.73106 0.0
O469 O 1.01242 0.5606 0.67858 0.0
O470 O 0.04439 0.50357 0.75658 0.0
O471 O 0.05202 0.51963 0.65314 0.0
H472 H 0.99983 0.45847 0.98626 0.0
H473 H 0.97454 0.46139 0.07966 0.0
H474 H 0.94955 0.51718 0.98756 0.0
H475 H 0.97495 0.5142 0.89489 0.0
H476 H 0.05364 0.57028 0.44377 0.0
H477 H 0.0774 0.56424 0.34914 0.0
H478 H 0.04669 0.50593 0.30578 0.0
H479 H 0.02304 0.51191 0.4015 0.0
H480 H 0.15843 0.01795 0.37712 0.0
H481 H 0.04089 0.0167 0.51905 0.0
H482 H 0.1051 0.02409 0.24452 0.0
H483 H 0.09568 0.01717 0.64576 0.0
H484 H 0.06337 0.01944 0.41734 0.0
H485 H 0.13515 0.01752 0.47524 0.0
C486 C 0.14185 0.01941 0.36835 0.0
C487 C 0.1339 0.02119 0.30175 0.0
C488 C 0.07044 0.01907 0.46747 0.0
C489 C 0.1068 0.02029 0.41531 0.0
C490 C 0.05758 0.01764 0.5255 0.0
C491 C 0.06636 0.01685 0.59105 0.0
C492 C 0.09226 0.01957 0.47516 0.0
C493 C 0.08816 0.01774 0.59634 0.0
C494 C 0.12847 0.01902 0.42475 0.0
C495 C 0.11207 0.02247 0.2945 0.0
N496 N 0.10028 0.01898 0.53949 0.0
N497 N 0.09933 0.02198 0.35038 0.0
H498 H 0.4991 0.15892 0.38226 0.0
H499 H 0.50578 0.04094 0.51643 0.0
H500 H 0.49882 0.10633 0.24528 0.0
H501 H 0.50597 0.09515 0.64576 0.0
H502 H 0.50223 0.06378 0.41601 0.0
H503 H 0.50113 0.13516 0.47867 0.0
C504 C 0.49965 0.14236 0.37223 0.0
C505 C 0.49896 0.13474 0.30505 0.0
C506 C 0.50297 0.07064 0.46644 0.0
C507 C 0.50097 0.10713 0.41648 0.0
C508 C 0.50488 0.05759 0.52369 0.0
C509 C 0.50609 0.06613 0.58954 0.0
C510 C 0.50234 0.09238 0.47533 0.0
C511 C 0.50511 0.08785 0.59604 0.0
C512 C 0.50064 0.12873 0.42761 0.0
C513 C 0.49919 0.113 0.296 0.0
N514 N 0.50335 0.10014 0.53995 0.0
N515 N 0.50024 0.09998 0.35094 0.0
H516 H 0.36945 0.51685 0.35609 0.0
H517 H 0.48358 0.49781 0.5131 0.0
H518 H 0.4188 0.4881 0.23924 0.0
H519 H 0.42956 0.51622 0.62949 0.0
H520 H 0.46148 0.49552 0.41025 0.0
H521 H 0.39246 0.51825 0.45445 0.0
C522 C 0.38506 0.51064 0.35097 0.0
C523 C 0.39195 0.50213 0.28876 0.0
C524 C 0.45452 0.50004 0.45842 0.0
C525 C 0.41887 0.50409 0.40242 0.0
C526 C 0.46714 0.50138 0.51703 0.0
C527 C 0.45845 0.50731 0.58001 0.0
C528 C 0.43311 0.50481 0.46292 0.0
C529 C 0.437 0.51161 0.5822 0.0
C530 C 0.39832 0.51158 0.40742 0.0
C531 C 0.41272 0.49495 0.28565 0.0
N532 N 0.42518 0.51036 0.52485 0.0
N533 N 0.4254 0.49607 0.34153 0.0
H534 H 0.02726 0.37042 0.3539 0.0
H535 H 0.0221 0.48789 0.49552 0.0
H536 H 0.02629 0.42334 0.21865 0.0
H537 H 0.02091 0.43276 0.6201 0.0
H538 H 0.02511 0.46563 0.39285 0.0
H539 H 0.02605 0.39387 0.45115 0.0
C540 C 0.0266 0.38699 0.3444 0.0
C541 C 0.02664 0.39476 0.27738 0.0
C542 C 0.02425 0.45846 0.44277 0.0
C543 C 0.02559 0.42211 0.39008 0.0
C544 C 0.0226 0.47117 0.5012 0.0
C545 C 0.02119 0.4622 0.56638 0.0
C546 C 0.02453 0.43664 0.44991 0.0
C547 C 0.02188 0.44043 0.57102 0.0
C548 C 0.02607 0.40047 0.40031 0.0
C549 C 0.02637 0.41655 0.26916 0.0
N550 N 0.02344 0.4285 0.51397 0.0
N551 N 0.02578 0.42944 0.3247 0.0
H552 H 0.92258 1.00871 0.16316 0.0
H553 H 0.93418 0.99501 0.75867 0.0
H554 H 0.87337 0.9872 0.03091 0.0
H555 H 0.98714 1.00612 0.88852 0.0
H556 H 0.91203 0.99219 0.8593 0.0
H557 H 0.94664 1.00788 0.06587 0.0
C558 C 0.91679 1.00366 0.11402 0.0
C559 C 0.89569 0.99816 0.10574 0.0
C560 C 0.92851 0.99508 0.86626 0.0
C561 C 0.92332 0.99745 0.99345 0.0
C562 C 0.94121 0.99669 0.80862 0.0
C563 C 0.96258 1.00077 0.81508 0.0
C564 C 0.93707 0.99784 0.93159 0.0
C565 C 0.97078 1.00281 0.88123 0.0
C566 C 0.93059 1.00328 0.05832 0.0
C567 C 0.88925 0.99203 0.04013 0.0
N568 N 0.95798 1.0015 0.93697 0.0
N569 N 0.90292 0.99194 0.98691 0.0
H570 H 0.52252 0.86855 0.01278 0.0
H571 H 0.52054 0.98664 0.87885 0.0
H572 H 0.52152 0.92108 0.15006 0.0
H573 H 0.52118 0.93248 0.74923 0.0
H574 H 0.52272 0.96372 0.97946 0.0
H575 H 0.52386 0.89236 0.91652 0.0
C576 C 0.52282 0.8851 0.02296 0.0
C577 C 0.52197 0.89268 0.09018 0.0
C578 C 0.52249 0.95689 0.92892 0.0
C579 C 0.52313 0.92036 0.97884 0.0
C580 C 0.52135 0.96998 0.87158 0.0
C581 C 0.52068 0.96146 0.8056 0.0
C582 C 0.52293 0.93515 0.91998 0.0
C583 C 0.5216 0.93975 0.79907 0.0
C584 C 0.52343 0.89876 0.96763 0.0
C585 C 0.52191 0.91443 0.09933 0.0
N586 N 0.52261 0.92743 0.85524 0.0
N587 N 0.52245 0.92747 0.04442 0.0
H588 H 0.65435 0.53395 0.01212 0.0
H589 H 0.53706 0.51854 0.87654 0.0
H590 H 0.60336 0.51898 0.14719 0.0
H591 H 0.59093 0.52505 0.74747 0.0
H592 H 0.55981 0.52178 0.97781 0.0
H593 H 0.63033 0.53344 0.91608 0.0
C594 C 0.63814 0.53038 0.02179 0.0
C595 C 0.63108 0.52628 0.08839 0.0
C596 C 0.5666 0.52263 0.92727 0.0
C597 C 0.60308 0.52603 0.9774 0.0
C598 C 0.55359 0.52095 0.86973 0.0
C599 C 0.56207 0.52159 0.80375 0.0
C600 C 0.58826 0.52507 0.91844 0.0
C601 C 0.58367 0.52442 0.79735 0.0
C602 C 0.62432 0.53025 0.96666 0.0
C603 C 0.60962 0.52237 0.09712 0.0
N604 N 0.59594 0.52602 0.85364 0.0
N605 N 0.59643 0.52228 0.04241 0.0
H606 H 1.00211 0.60133 0.15474 0.0
H607 H 1.00334 0.59388 0.74573 0.0
H608 H 1.00304 0.65401 0.01834 0.0
H609 H 1.0064 0.53932 0.87301 0.0
H610 H 1.00102 0.61552 0.84713 0.0
H611 H 1.00212 0.57806 0.05532 0.0
C612 C 1.00236 0.60808 0.10414 0.0
C613 C 1.00253 0.62985 0.09553 0.0
C614 C 1.00212 0.59883 0.85343 0.0
C615 C 1.00229 0.60309 0.98108 0.0
C616 C 1.0034 0.58639 0.79525 0.0
C617 C 1.00511 0.5647 0.80066 0.0
C618 C 1.00261 0.58969 0.91846 0.0
C619 C 1.00504 0.55596 0.86644 0.0
C620 C 1.00224 0.59471 0.04732 0.0
C621 C 1.00253 0.63747 0.02826 0.0
N622 N 1.00392 0.56849 0.92288 0.0
N623 N 1.00244 0.62419 0.97416 0.0
H624 H 0.97347 0.18167 0.11511 0.0
H625 H 1.00618 0.11041 0.43148 0.0
H626 H 0.99255 0.20467 0.31246 0.0
H627 H 0.98081 0.08487 0.2454 0.0
H628 H 1.0035 0.14498 0.38325 0.0
H629 H 0.97732 0.14598 0.15777 0.0
C630 C 0.97831 0.17921 0.16744 0.0
C631 C 0.98251 0.19614 0.21053 0.0
C632 C 0.99859 0.13186 0.35261 0.0
C633 C 0.9871 0.15561 0.25914 0.0
C634 C 1.00037 0.11202 0.37986 0.0
C635 C 0.99383 0.09467 0.34226 0.0
C636 C 0.99009 0.1345 0.28723 0.0
C637 C 0.9859 0.09786 0.27628 0.0
C638 C 0.9805 0.15889 0.19168 0.0
C639 C 0.98871 0.19213 0.27784 0.0
N640 N 0.9842 0.11745 0.25079 0.0
N641 N 0.99088 0.17231 0.29988 0.0
H642 H 0.34386 0.98272 0.16957 0.0
H643 H 0.44728 0.03984 0.28089 0.0
H644 H 0.35122 0.04936 0.16607 0.0
H645 H 0.44084 0.97318 0.26745 0.0
H646 H 0.41466 0.0438 0.2179 0.0
H647 H 0.38139 0.97892 0.18515 0.0
C648 C 0.35347 0.99654 0.17157 0.0
C649 C 0.34448 0.01638 0.16799 0.0
C650 C 0.42061 0.02831 0.22746 0.0
C651 C 0.38736 1.01223 0.18599 0.0
C652 C 0.43919 0.02606 0.26349 0.0
C653 C 0.44654 1.00617 0.28048 0.0
C654 C 0.40922 1.01053 0.20918 0.0
C655 C 0.43572 0.98882 0.25564 0.0
C656 C 0.37489 0.99439 0.18001 0.0
C657 C 0.35758 0.03379 0.16916 0.0
N658 N 0.41739 0.9914 0.22237 0.0
N659 N 0.37837 0.03133 0.17929 0.0
H660 H 0.522 0.34174 0.10853 0.0
H661 H 0.57758 0.43267 0.31721 0.0
H662 H 0.58019 0.33436 0.21598 0.0
H663 H 0.51206 0.43253 0.26792 0.0
H664 H 0.58185 0.40026 0.2536 0.0
H665 H 0.52164 0.37857 0.13988 0.0
C666 C 0.53495 0.34799 0.13739 0.0
C667 C 0.55108 0.335 0.1603 0.0
C668 C 0.5666 0.40747 0.25597 0.0
C669 C 0.55062 0.37693 0.19672 0.0
C670 C 0.56416 0.42602 0.29182 0.0
C671 C 0.54439 0.43519 0.29818 0.0
C672 C 0.54917 0.39806 0.22602 0.0
C673 C 0.52751 0.42578 0.26498 0.0
C674 C 0.53463 0.36894 0.15568 0.0
C675 C 0.56734 0.34383 0.19814 0.0
N676 N 0.53025 0.40762 0.2306 0.0
N677 N 0.56663 0.36425 0.21564 0.0
H678 H 0.18003 0.55145 0.12324 0.0
H679 H 0.08333 0.49716 0.29939 0.0
H680 H 0.17959 0.48791 0.19401 0.0
H681 H 0.08285 0.56065 0.2279 0.0
H682 H 0.11566 0.49123 0.2374 0.0
H683 H 0.14229 0.553 0.13916 0.0
C684 C 0.17194 0.53773 0.14115 0.0
C685 C 0.18297 0.51967 0.15877 0.0
C686 C 0.10832 0.50638 0.23421 0.0
C687 C 0.13991 0.52137 0.17761 0.0
C688 C 0.08971 0.50973 0.26915 0.0
C689 C 0.0806 0.52958 0.27004 0.0
C690 C 0.11801 0.52305 0.20062 0.0
C691 C 0.08969 0.54527 0.23017 0.0
C692 C 0.15041 0.53862 0.15035 0.0
C693 C 0.17174 0.50234 0.1817 0.0
N694 N 0.10813 0.54179 0.1981 0.0
N695 N 0.15085 0.50371 0.19127 0.0
H696 H 0.96801 0.84888 0.2334 0.0
H697 H 0.05112 0.9355 0.1346 0.0
H698 H 0.03427 0.83889 0.21669 0.0
H699 H 0.98478 0.94315 0.10789 0.0
H700 H 0.04473 0.90369 0.19825 0.0
H701 H 0.9737 0.88638 0.21877 0.0
C702 C 0.98376 0.85467 0.22782 0.0
C703 C 1.00068 0.8409 0.22466 0.0
C704 C 0.03154 0.9125 0.1795 0.0
C705 C 1.0073 0.88342 0.20836 0.0
C706 C 0.03516 0.93082 0.14364 0.0
C707 C 0.01846 0.94181 0.11469 0.0
C708 C 1.0111 0.90502 0.18599 0.0
C709 C 0.99813 0.93483 0.12781 0.0
C710 C 0.987 0.87599 0.21939 0.0
C711 C 0.02079 0.84904 0.21776 0.0
N712 N 0.99501 0.91665 0.16155 0.0
N713 N 0.02353 0.86976 0.20915 0.0
H714 H 0.67602 0.97327 0.2337 0.0
H715 H 0.58639 0.05284 0.13087 0.0
H716 H 0.68347 0.03981 0.22192 0.0
H717 H 0.58151 0.9863 0.10674 0.0
H718 H 0.61843 0.04794 0.19533 0.0
H719 H 0.63846 0.97764 0.21673 0.0
C720 C 0.66968 0.98881 0.22868 0.0
C721 C 0.68283 1.00619 0.22772 0.0
C722 C 0.61017 0.03437 0.17697 0.0
C723 C 0.6401 1.0113 0.20825 0.0
C724 C 0.59174 0.03715 0.14065 0.0
C725 C 0.58146 0.01996 0.1123 0.0
C726 C 0.61844 0.01429 0.18459 0.0
C727 C 0.58926 1.0 0.12629 0.0
C728 C 0.64829 0.99129 0.21884 0.0
C729 C 0.67388 0.02599 0.22121 0.0
N730 N 0.60749 0.99772 0.16056 0.0
N731 N 0.65308 0.02799 0.21099 0.0
H732 H 0.51795 0.68117 0.28192 0.0
H733 H 0.54464 0.58407 0.04299 0.0
H734 H 0.56821 0.68019 0.13534 0.0
H735 H 0.48522 0.59341 0.14172 0.0
H736 H 0.55808 0.61481 0.1018 0.0
H737 H 0.51077 0.64469 0.25592 0.0
C738 C 0.52778 0.67314 0.24537 0.0
C739 C 0.54355 0.68376 0.21004 0.0
C740 C 0.54221 0.60992 0.11141 0.0
C741 C 0.53526 0.64218 0.1797 0.0
C742 C 0.53457 0.59232 0.0783 0.0
C743 C 0.51372 0.58638 0.08702 0.0
C744 C 0.52892 0.62156 0.15374 0.0
C745 C 0.5013 0.59771 0.13285 0.0
C746 C 0.52356 0.65239 0.23024 0.0
C747 C 0.55568 0.67265 0.16281 0.0
N748 N 0.50903 0.61489 0.16408 0.0
N749 N 0.55116 0.6525 0.14852 0.0
H750 H 0.83869 0.46006 0.18002 0.0
H751 H 0.94307 0.52223 0.11147 0.0
H752 H 0.84746 0.52423 0.23755 0.0
H753 H 0.93651 0.4562 0.07867 0.0
H754 H 0.90986 0.52234 0.17278 0.0
H755 H 0.87599 0.45725 0.15663 0.0
C756 C 0.84853 0.4735 0.1882 0.0
C757 C 0.83999 0.49247 0.20976 0.0
C758 C 0.91587 0.50775 0.15327 0.0
C759 C 0.88259 0.48944 0.18307 0.0
C760 C 0.93479 0.50771 0.11818 0.0
C761 C 0.94239 0.48924 0.08925 0.0
C762 C 0.90439 0.48924 0.15851 0.0
C763 C 0.93124 0.47079 0.10024 0.0
C764 C 0.86982 0.47188 0.17529 0.0
C765 C 0.85344 0.50931 0.2209 0.0
N766 N 0.91262 0.47133 0.13303 0.0
N767 N 0.87404 0.50749 0.20645 0.0
H768 H 0.02341 0.16935 0.96563 0.0
H769 H 1.00869 0.08879 0.65497 0.0
H770 H 0.01921 0.18904 0.75545 0.0
H771 H 0.02428 0.07074 0.86081 0.0
H772 H 1.01 0.12546 0.69053 0.0
H773 H 0.02135 0.13324 0.92808 0.0
C774 C 0.02218 0.1662 0.9115 0.0
C775 C 0.02166 0.18259 0.86391 0.0
C776 C 1.01314 0.11344 0.72782 0.0
C777 C 0.01888 0.14073 0.82025 0.0
C778 C 1.01236 0.09245 0.70756 0.0
C779 C 0.01642 0.07645 0.75472 0.0
C780 C 0.01783 0.11858 0.79599 0.0
C781 C 0.0211 0.08235 0.82224 0.0
C782 C 0.02087 0.14544 0.89006 0.0
C783 C 0.01946 0.17716 0.79448 0.0
N784 N 0.02162 0.10278 0.84066 0.0
N785 N 0.01818 0.1568 0.77489 0.0
H786 H 0.33327 1.00285 0.75167 0.0
H787 H 0.45176 0.03042 0.84684 0.0
H788 H 0.35208 0.0313 0.94132 0.0
H789 H 0.43437 1.00265 0.65458 0.0
H790 H 0.41527 0.03085 0.8808 0.0
H791 H 0.36977 1.00236 0.7149 0.0
C792 C 0.34502 1.0089 0.78589 0.0
C793 C 0.33935 0.01714 0.84997 0.0
C794 C 0.41935 0.02467 0.8311 0.0
C795 C 0.38147 0.01681 0.80739 0.0
C796 C 0.44031 0.02442 0.81142 0.0
C797 C 0.4464 0.01646 0.74744 0.0
C798 C 0.40403 0.0169 0.78683 0.0
C799 C 0.43057 1.00896 0.7043 0.0
C800 C 0.36591 1.00873 0.76452 0.0
C801 C 0.35545 0.02505 0.89119 0.0
N802 N 0.41018 1.00933 0.72478 0.0
N803 N 0.37563 0.02465 0.86931 0.0
H804 H 0.52029 0.33423 0.77504 0.0
H805 H 0.48885 0.45334 0.84201 0.0
H806 H 0.48166 0.35518 0.94216 0.0
H807 H 0.52285 0.43374 0.66279 0.0
H808 H 0.48704 0.41738 0.87946 0.0
H809 H 0.52222 0.37012 0.73355 0.0
C810 C 0.51213 0.34628 0.80302 0.0
C811 C 0.5008 0.34144 0.86257 0.0
C812 C 0.49489 0.42085 0.83185 0.0
C813 C 0.50318 0.38284 0.81528 0.0
C814 C 0.49596 0.44151 0.81022 0.0
C815 C 0.50606 0.4468 0.74887 0.0
C816 C 0.50403 0.40505 0.79232 0.0
C817 C 0.51488 0.43052 0.71032 0.0
C818 C 0.51334 0.36684 0.77932 0.0
C819 C 0.49089 0.35797 0.89683 0.0
N820 N 0.51371 0.41042 0.73274 0.0
N821 N 0.49232 0.37778 0.87277 0.0
H822 H 0.1759 0.48097 0.90667 0.0
H823 H 0.09169 0.52997 0.64874 0.0
H824 H 0.19102 0.52997 0.7645 0.0
H825 H 0.0761 0.48974 0.81741 0.0
H826 H 0.12845 0.52851 0.68389 0.0
H827 H 0.13973 0.48264 0.86927 0.0
C828 C 0.17172 0.49223 0.86801 0.0
C829 C 0.18688 0.5054 0.83929 0.0
C830 C 0.11695 0.52 0.71308 0.0
C831 C 0.14499 0.50705 0.79463 0.0
C832 C 0.09593 0.52076 0.69287 0.0
C833 C 0.08059 0.51 0.73004 0.0
C834 C 0.12281 0.50825 0.77062 0.0
C835 C 0.0872 0.49839 0.78702 0.0
C836 C 0.15094 0.49305 0.8462 0.0
C837 C 0.18019 0.51925 0.78786 0.0
N838 N 0.10766 0.49782 0.80529 0.0
N839 N 0.15986 0.51968 0.76728 0.0
H840 H 0.99857 0.84952 0.44293 0.0
H841 H 0.02487 0.93053 0.74445 0.0
H842 H 0.0232 0.83069 0.6383 0.0
H843 H 0.99939 0.94811 0.54899 0.0
H844 H 0.02446 0.894 0.70759 0.0
H845 H 0.99916 0.88567 0.4813 0.0
C846 C 1.00423 0.85291 0.49378 0.0
C847 C 1.01083 0.83677 0.5372 0.0
C848 C 0.01893 0.90588 0.67286 0.0
C849 C 1.01133 0.87856 0.58215 0.0
C850 C 0.01915 0.92679 0.69394 0.0
C851 C 1.01215 0.94263 0.65001 0.0
C852 C 1.0117 0.90063 0.60722 0.0
C853 C 1.00495 0.93662 0.58501 0.0
C854 C 1.00443 0.87365 0.51591 0.0
C855 C 0.01765 0.8424 0.60307 0.0
N856 N 1.00494 0.91626 0.56578 0.0
N857 N 0.01774 0.86271 0.62336 0.0
H858 H 0.67478 0.99959 0.44306 0.0
H859 H 0.59274 0.02077 0.74685 0.0
H860 H 0.69343 0.01535 0.64822 0.0
H861 H 0.57548 1.00095 0.54415 0.0
H862 H 0.62953 0.01963 0.71219 0.0
H863 H 0.63834 1.00106 0.47916 0.0
C864 C 0.67129 1.00348 0.49564 0.0
C865 C 0.68743 1.00734 0.54246 0.0
C866 C 0.61767 0.01551 0.67538 0.0
C867 C 0.64532 1.00886 0.58466 0.0
C868 C 0.5966 0.01617 0.69517 0.0
C869 C 0.58078 1.01094 0.64859 0.0
C870 C 0.62308 1.00967 0.60833 0.0
C871 C 0.58695 1.0051 0.58221 0.0
C872 C 0.65038 1.00419 0.51641 0.0
C873 C 0.68167 1.01197 0.61028 0.0
N874 N 0.60746 1.00467 0.56426 0.0
N875 N 0.6612 0.01264 0.62918 0.0
H876 H 0.524 0.67218 0.42721 0.0
H877 H 0.50121 0.59177 0.73243 0.0
H878 H 0.50044 0.69085 0.62449 0.0
H879 H 0.52559 0.57372 0.53558 0.0
H880 H 0.50117 0.6281 0.69477 0.0
H881 H 0.52471 0.63611 0.46638 0.0
C882 C 0.51887 0.66875 0.47868 0.0
C883 C 0.51213 0.68477 0.52242 0.0
C884 C 0.50657 0.61619 0.65989 0.0
C885 C 0.51313 0.64321 0.56813 0.0
C886 C 0.50662 0.59538 0.68142 0.0
C887 C 0.51341 0.57949 0.63729 0.0
C888 C 0.51331 0.62126 0.59358 0.0
C889 C 0.52021 0.5853 0.57166 0.0
C890 C 0.51941 0.64809 0.50121 0.0
C891 C 0.50603 0.6792 0.58903 0.0
N892 N 0.51995 0.6056 0.55192 0.0
N893 N 0.50664 0.65897 0.60967 0.0
H894 H 0.85269 0.53236 0.43057 0.0
H895 H 0.93379 0.50259 0.7285 0.0
H896 H 0.83309 0.50885 0.62662 0.0
H897 H 0.95119 0.5292 0.53445 0.0
H898 H 0.89706 0.50388 0.69293 0.0
H899 H 0.88886 0.53043 0.46825 0.0
C900 C 0.85591 0.5269 0.48176 0.0
C901 C 0.83956 0.52092 0.52541 0.0
C902 C 0.90895 0.50944 0.65825 0.0
C903 C 0.88147 0.51839 0.56908 0.0
C904 C 0.92998 0.50872 0.67857 0.0
C905 C 0.94582 0.51581 0.63467 0.0
C906 C 0.90363 0.51726 0.59341 0.0
C907 C 0.93972 0.52356 0.57046 0.0
C908 C 0.87669 0.52568 0.50321 0.0
C909 C 0.84503 0.51349 0.59071 0.0
N910 N 0.91928 0.52404 0.552 0.0
N911 N 0.86542 0.5125 0.61052 0.0
loop_
_geom_bond_atom_site_label_1
_geom_bond_atom_site_label_2
_geom_bond_distance
_geom_bond_site_symmetry_2
_ccdc_geom_bond_type
C0 C1 1.264 . S
C0 C5 1.479 . S
C0 C10 1.465 . S
C1 C0 1.264 . S
C1 C3 1.339 . S
C1 H28 0.931 . S
C2 C3 1.395 . S
C2 C4 1.320 . S
C3 C1 1.339 . S
C3 C2 1.395 . S
C3 H29 0.929 . S
C4 C2 1.320 . S
C4 C5 1.405 . S
C4 H30 0.930 . S
C5 C0 1.479 . S
C5 C4 1.405 . S
C5 H31 0.931 . S
U6 O7 2.454 . S
U6 O8 2.458 . S
U6 C9 2.984 . S
U6 C10 2.847 . S
U6 C23 2.882 . S
U6 O24 2.441 . S
U6 O25 2.420 . S
U6 O26 2.455 . S
U6 O27 2.449 . S
O7 U6 2.454 . S
O7 C9 1.353 . S
O8 U6 2.458 . S
O8 C9 1.286 . S
C9 U6 2.984 . S
C9 O7 1.353 . S
C9 O8 1.286 . S
C9 C11 1.363 . S
C10 C0 1.465 . S
C10 U6 2.847 . S
C10 O24 1.249 . S
C10 O25 1.202 . S
C11 C9 1.363 . S
C11 C13 1.408 . S
C11 C16 1.342 . S
C12 C13 1.310 . S
C12 C15 1.461 . S
C12 H32 0.932 . S
C13 C11 1.408 . S
C13 C12 1.310 . S
C13 H33 0.930 . S
C14 C15 1.474 . S
C14 C16 1.285 . S
C14 H34 0.929 . S
C15 C12 1.461 . S
C15 C14 1.474 . S
C16 C11 1.342 . S
C16 C14 1.285 . S
C16 H35 0.930 . S
C17 C20 1.424 . S
C17 C22 1.245 . S
C17 C23 1.428 . S
C18 C21 1.260 . S
C18 C22 1.477 . S
C18 H36 0.932 . S
C19 C20 1.384 . S
C19 C21 1.479 . S
C19 H37 0.929 . S
C20 C17 1.424 . S
C20 C19 1.384 . S
C20 H38 0.928 . S
C21 C18 1.260 . S
C21 C19 1.479 . S
C22 C17 1.245 . S
C22 C18 1.477 . S
C22 H39 0.932 . S
C23 U6 2.882 . S
C23 C17 1.428 . S
C23 O26 1.301 . S
C23 O27 1.282 . S
O24 U6 2.441 . S
O24 C10 1.249 . S
O25 U6 2.420 . S
O25 C10 1.202 . S
O26 U6 2.455 . S
O26 C23 1.301 . S
O27 U6 2.449 . S
O27 C23 1.282 . S
H28 C1 0.931 . S
H29 C3 0.929 . S
H30 C4 0.930 . S
H31 C5 0.931 . S
H32 C12 0.932 . S
H33 C13 0.930 . S
H34 C14 0.929 . S
H35 C16 0.930 . S
H36 C18 0.932 . S
H37 C19 0.929 . S
H38 C20 0.928 . S
H39 C22 0.932 . S
C40 C41 1.264 . S
C40 C45 1.479 . S
C40 C50 1.465 . S
C41 C40 1.264 . S
C41 C43 1.339 . S
C41 H68 0.931 . S
C42 C43 1.395 . S
C42 C44 1.320 . S
C43 C41 1.339 . S
C43 C42 1.395 . S
C43 H69 0.929 . S
C44 C42 1.320 . S
C44 C45 1.405 . S
C44 H70 0.921 1_455 S
C45 C40 1.479 . S
C45 C44 1.405 . S
C45 H71 0.931 . S
U46 O47 2.454 . S
U46 O48 2.458 . S
U46 C49 2.984 . S
U46 C50 2.847 . S
U46 C63 2.882 . S
U46 O64 2.441 . S
U46 O65 2.420 . S
U46 O66 2.455 . S
U46 O67 2.449 . S
O47 U46 2.454 . S
O47 C49 1.353 . S
O48 U46 2.458 . S
O48 C49 1.286 . S
C49 U46 2.984 . S
C49 O47 1.353 . S
C49 O48 1.286 . S
C49 C51 1.363 . S
C50 C40 1.465 . S
C50 U46 2.847 . S
C50 O64 1.249 . S
C50 O65 1.202 . S
C51 C49 1.363 . S
C51 C53 1.408 . S
C51 C56 1.342 . S
C52 C53 1.310 . S
C52 C55 1.461 . S
C52 H72 0.932 . S
C53 C51 1.408 . S
C53 C52 1.310 . S
C53 H73 0.930 . S
C54 C55 1.474 1_655 S
C54 C56 1.285 1_655 S
C54 H74 0.930 . S
C55 C52 1.461 . S
C55 C54 1.474 1_455 S
C56 C51 1.342 . S
C56 C54 1.285 1_455 S
C56 H75 0.932 . S
C57 C60 1.424 . S
C57 C62 1.245 . S
C57 C63 1.428 . S
C58 C61 1.260 . S
C58 C62 1.477 . S
C58 H76 0.932 . S
C59 C60 1.384 . S
C59 C61 1.479 . S
C59 H77 0.929 . S
C60 C57 1.424 . S
C60 C59 1.384 . S
C60 H78 0.928 . S
C61 C58 1.260 . S
C61 C59 1.479 . S
C62 C57 1.245 . S
C62 C58 1.477 . S
C62 H79 0.932 . S
C63 U46 2.882 . S
C63 C57 1.428 . S
C63 O66 1.301 . S
C63 O67 1.282 . S
O64 U46 2.441 . S
O64 C50 1.249 . S
O65 U46 2.420 . S
O65 C50 1.202 . S
O66 U46 2.455 . S
O66 C63 1.301 . S
O67 U46 2.449 . S
O67 C63 1.282 . S
H68 C41 0.931 . S
H69 C43 0.929 . S
H70 C44 0.921 1_655 S
H71 C45 0.931 . S
H72 C52 0.932 . S
H73 C53 0.930 . S
H74 C54 0.930 . S
H75 C56 0.932 . S
H76 C58 0.932 . S
H77 C59 0.929 . S
H78 C60 0.928 . S
H79 C62 0.932 . S
C80 C81 1.264 . S
C80 C85 1.479 . S
C80 C90 1.465 . S
C81 C80 1.264 . S
C81 C83 1.339 . S
C81 H108 0.931 . S
C82 C83 1.395 . S
C82 C84 1.320 . S
C83 C81 1.339 . S
C83 C82 1.395 . S
C83 H109 0.929 . S
C84 C82 1.320 . S
C84 C85 1.405 . S
C84 H110 0.921 1_545 S
C85 C80 1.479 . S
C85 C84 1.405 . S
C85 H111 0.931 . S
U86 O87 2.454 . S
U86 O88 2.458 . S
U86 C89 2.984 . S
U86 C90 2.847 . S
U86 C103 2.882 . S
U86 O104 2.441 . S
U86 O105 2.420 . S
U86 O106 2.455 . S
U86 O107 2.449 . S
O87 U86 2.454 . S
O87 C89 1.353 . S
O88 U86 2.458 . S
O88 C89 1.286 . S
C89 U86 2.984 . S
C89 O87 1.353 . S
C89 O88 1.286 . S
C89 C91 1.363 . S
C90 C80 1.465 . S
C90 U86 2.847 . S
C90 O104 1.249 . S
C90 O105 1.202 . S
C91 C89 1.363 . S
C91 C93 1.408 . S
C91 C96 1.342 . S
C92 C93 1.310 . S
C92 C95 1.461 . S
C92 H112 0.932 . S
C93 C91 1.408 . S
C93 C92 1.310 . S
C93 H113 0.930 . S
C94 C95 1.474 1_565 S
C94 C96 1.285 1_565 S
C94 H114 0.930 . S
C95 C92 1.461 . S
C95 C94 1.474 1_545 S
C96 C91 1.342 . S
C96 C94 1.285 1_545 S
C96 H115 0.932 . S
C97 C100 1.424 . S
C97 C102 1.245 . S
C97 C103 1.428 . S
C98 C101 1.260 . S
C98 C102 1.477 . S
C98 H116 0.932 . S
C99 C100 1.384 . S
C99 C101 1.479 . S
C99 H117 0.929 . S
C100 C97 1.424 . S
C100 C99 1.384 . S
C100 H118 0.928 . S
C101 C98 1.260 . S
C101 C99 1.479 . S
C102 C97 1.245 . S
C102 C98 1.477 . S
C102 H119 0.932 . S
C103 U86 2.882 . S
C103 C97 1.428 . S
C103 O106 1.301 . S
C103 O107 1.282 . S
O104 U86 2.441 . S
O104 C90 1.249 . S
O105 U86 2.420 . S
O105 C90 1.202 . S
O106 U86 2.455 . S
O106 C103 1.301 . S
O107 U86 2.449 . S
O107 C103 1.282 . S
H108 C81 0.931 . S
H109 C83 0.929 . S
H110 C84 0.921 1_565 S
H111 C85 0.931 . S
H112 C92 0.932 . S
H113 C93 0.930 . S
H114 C94 0.930 . S
H115 C96 0.932 . S
H116 C98 0.932 . S
H117 C99 0.929 . S
H118 C100 0.928 . S
H119 C102 0.932 . S
C120 C121 1.264 . S
C120 C125 1.479 . S
C120 C130 1.465 . S
C121 C120 1.264 . S
C121 C123 1.339 . S
C121 H148 0.931 . S
C122 C123 1.395 . S
C122 C124 1.320 . S
C123 C121 1.339 . S
C123 C122 1.395 . S
C123 H149 0.929 . S
C124 C122 1.320 . S
C124 C125 1.405 . S
C124 H150 0.930 . S
C125 C120 1.479 . S
C125 C124 1.405 . S
C125 H151 0.931 . S
U126 O127 2.454 . S
U126 O128 2.458 . S
U126 C129 2.984 . S
U126 C130 2.847 . S
U126 C143 2.882 . S
U126 O144 2.441 . S
U126 O145 2.420 . S
U126 O146 2.455 . S
U126 O147 2.449 . S
O127 U126 2.454 . S
O127 C129 1.353 . S
O128 U126 2.458 . S
O128 C129 1.286 . S
C129 U126 2.984 . S
C129 O127 1.353 . S
C129 O128 1.286 . S
C129 C131 1.363 . S
C130 C120 1.465 . S
C130 U126 2.847 . S
C130 O144 1.249 . S
C130 O145 1.202 . S
C131 C129 1.363 . S
C131 C133 1.408 . S
C131 C136 1.342 . S
C132 C133 1.310 . S
C132 C135 1.461 . S
C132 H152 0.932 . S
C133 C131 1.408 . S
C133 C132 1.310 . S
C133 H153 0.930 . S
C134 C135 1.474 . S
C134 C136 1.285 . S
C134 H154 0.929 . S
C135 C132 1.461 . S
C135 C134 1.474 . S
C136 C131 1.342 . S
C136 C134 1.285 . S
C136 H155 0.930 . S
C137 C140 1.424 . S
C137 C142 1.245 . S
C137 C143 1.428 . S
C138 C141 1.260 . S
C138 C142 1.477 . S
C138 H156 0.932 . S
C139 C140 1.384 . S
C139 C141 1.479 . S
C139 H157 0.929 . S
C140 C137 1.424 . S
C140 C139 1.384 . S
C140 H158 0.928 . S
C141 C138 1.260 . S
C141 C139 1.479 . S
C142 C137 1.245 . S
C142 C138 1.477 . S
C142 H159 0.932 . S
C143 U126 2.882 . S
C143 C137 1.428 . S
C143 O146 1.301 . S
C143 O147 1.282 . S
O144 U126 2.441 . S
O144 C130 1.249 . S
O145 U126 2.420 . S
O145 C130 1.202 . S
O146 U126 2.455 . S
O146 C143 1.301 . S
O147 U126 2.449 . S
O147 C143 1.282 . S
H148 C121 0.931 . S
H149 C123 0.929 . S
H150 C124 0.930 . S
H151 C125 0.931 . S
H152 C132 0.932 . S
H153 C133 0.930 . S
H154 C134 0.929 . S
H155 C136 0.930 . S
H156 C138 0.932 . S
H157 C139 0.929 . S
H158 C140 0.928 . S
H159 C142 0.932 . S
C160 C161 1.264 . S
C160 C165 1.479 . S
C160 C170 1.465 . S
C161 C160 1.264 . S
C161 C163 1.339 . S
C161 H188 0.931 . S
C162 C163 1.395 . S
C162 C164 1.320 . S
C163 C161 1.339 . S
C163 C162 1.395 . S
C163 H189 0.929 . S
C164 C162 1.320 . S
C164 C165 1.405 . S
C164 H190 0.930 . S
C165 C160 1.479 . S
C165 C164 1.405 . S
C165 H191 0.931 . S
U166 O167 2.454 . S
U166 O168 2.458 . S
U166 C169 2.984 . S
U166 C170 2.847 1_554 S
U166 C183 2.882 . S
U166 O184 2.441 1_554 S
U166 O185 2.420 1_554 S
U166 O186 2.455 . S
U166 O187 2.449 . S
O167 U166 2.454 . S
O167 C169 1.353 . S
O168 U166 2.458 . S
O168 C169 1.286 . S
C169 U166 2.984 . S
C169 O167 1.353 . S
C169 O168 1.286 . S
C169 C171 1.363 . S
C170 C160 1.465 . S
C170 U166 2.847 1_556 S
C170 O184 1.249 . S
C170 O185 1.202 . S
C171 C169 1.363 . S
C171 C173 1.408 . S
C171 C176 1.342 . S
C172 C173 1.310 . S
C172 C175 1.461 . S
C172 H192 0.932 . S
C173 C171 1.408 . S
C173 C172 1.310 . S
C173 H193 0.930 1_554 S
C174 C175 1.474 . S
C174 C176 1.285 . S
C174 H194 0.929 . S
C175 C172 1.461 . S
C175 C174 1.474 . S
C176 C171 1.342 . S
C176 C174 1.285 . S
C176 H195 0.930 . S
C177 C180 1.424 . S
C177 C182 1.245 . S
C177 C183 1.428 . S
C178 C181 1.260 . S
C178 C182 1.477 . S
C178 H196 0.932 . S
C179 C180 1.384 . S
C179 C181 1.479 . S
C179 H197 0.929 . S
C180 C177 1.424 . S
C180 C179 1.384 . S
C180 H198 0.928 . S
C181 C178 1.260 . S
C181 C179 1.479 . S
C182 C177 1.245 . S
C182 C178 1.477 . S
C182 H199 0.932 . S
C183 U166 2.882 . S
C183 C177 1.428 . S
C183 O186 1.301 . S
C183 O187 1.282 . S
O184 U166 2.441 1_556 S
O184 C170 1.249 . S
O185 U166 2.420 1_556 S
O185 C170 1.202 . S
O186 U166 2.455 . S
O186 C183 1.301 . S
O187 U166 2.449 . S
O187 C183 1.282 . S
H188 C161 0.931 . S
H189 C163 0.929 . S
H190 C164 0.930 . S
H191 C165 0.931 . S
H192 C172 0.932 . S
H193 C173 0.930 1_556 S
H194 C174 0.929 . S
H195 C176 0.930 . S
H196 C178 0.932 . S
H197 C179 0.929 . S
H198 C180 0.928 . S
H199 C182 0.932 . S
C200 C201 1.264 . S
C200 C205 1.479 . S
C200 C210 1.465 . S
C201 C200 1.264 . S
C201 C203 1.339 . S
C201 H228 0.931 . S
C202 C203 1.395 . S
C202 C204 1.320 . S
C203 C201 1.339 . S
C203 C202 1.395 . S
C203 H229 0.929 . S
C204 C202 1.320 . S
C204 C205 1.405 . S
C204 H230 0.923 1_455 S
C205 C200 1.479 . S
C205 C204 1.405 . S
C205 H231 0.931 . S
U206 O207 2.454 . S
U206 O208 2.458 . S
U206 C209 2.984 . S
U206 C210 2.847 1_554 S
U206 C223 2.882 . S
U206 O224 2.441 1_554 S
U206 O225 2.420 1_554 S
U206 O226 2.455 . S
U206 O227 2.449 . S
O207 U206 2.454 . S
O207 C209 1.353 . S
O208 U206 2.458 . S
O208 C209 1.286 . S
C209 U206 2.984 . S
C209 O207 1.353 . S
C209 O208 1.286 . S
C209 C211 1.363 . S
C210 C200 1.465 . S
C210 U206 2.847 1_556 S
C210 O224 1.249 . S
C210 O225 1.202 . S
C211 C209 1.363 . S
C211 C213 1.408 . S
C211 C216 1.342 . S
C212 C213 1.310 . S
C212 C215 1.462 . S
C212 H232 0.932 . S
C213 C211 1.408 . S
C213 C212 1.310 . S
C213 H233 0.930 1_554 S
C214 C215 1.474 1_655 S
C214 C216 1.286 1_655 S
C214 H234 0.929 . S
C215 C212 1.462 . S
C215 C214 1.474 1_455 S
C216 C211 1.342 . S
C216 C214 1.286 1_455 S
C216 H235 0.934 . S
C217 C220 1.424 . S
C217 C222 1.245 . S
C217 C223 1.428 . S
C218 C221 1.260 . S
C218 C222 1.477 . S
C218 H236 0.932 . S
C219 C220 1.384 . S
C219 C221 1.479 . S
C219 H237 0.929 . S
C220 C217 1.424 . S
C220 C219 1.384 . S
C220 H238 0.928 . S
C221 C218 1.260 . S
C221 C219 1.479 . S
C222 C217 1.245 . S
C222 C218 1.477 . S
C222 H239 0.932 . S
C223 U206 2.882 . S
C223 C217 1.428 . S
C223 O226 1.301 . S
C223 O227 1.282 . S
O224 U206 2.441 1_556 S
O224 C210 1.249 . S
O225 U206 2.420 1_556 S
O225 C210 1.202 . S
O226 U206 2.455 . S
O226 C223 1.301 . S
O227 U206 2.449 . S
O227 C223 1.282 . S
H228 C201 0.931 . S
H229 C203 0.929 . S
H230 C204 0.923 1_655 S
H231 C205 0.931 . S
H232 C212 0.932 . S
H233 C213 0.930 1_556 S
H234 C214 0.929 . S
H235 C216 0.934 . S
H236 C218 0.932 . S
H237 C219 0.929 . S
H238 C220 0.928 . S
H239 C222 0.932 . S
C240 C241 1.264 . S
C240 C245 1.479 . S
C240 C250 1.465 . S
C241 C240 1.264 . S
C241 C243 1.339 . S
C241 H268 0.931 . S
C242 C243 1.395 . S
C242 C244 1.320 . S
C243 C241 1.339 . S
C243 C242 1.395 . S
C243 H269 0.929 . S
C244 C242 1.320 . S
C244 C245 1.405 . S
C244 H270 0.923 1_545 S
C245 C240 1.479 . S
C245 C244 1.405 . S
C245 H271 0.931 . S
U246 O247 2.454 . S
U246 O248 2.458 . S
U246 C249 2.984 . S
U246 C250 2.847 1_554 S
U246 C263 2.882 . S
U246 O264 2.441 1_554 S
U246 O265 2.420 1_554 S
U246 O266 2.455 . S
U246 O267 2.449 . S
O247 U246 2.454 . S
O247 C249 1.353 . S
O248 U246 2.458 . S
O248 C249 1.286 . S
C249 U246 2.984 . S
C249 O247 1.353 . S
C249 O248 1.286 . S
C249 C251 1.363 . S
C250 C240 1.465 . S
C250 U246 2.847 1_556 S
C250 O264 1.249 . S
C250 O265 1.202 . S
C251 C249 1.363 . S
C251 C253 1.408 . S
C251 C256 1.342 . S
C252 C253 1.310 . S
C252 C255 1.462 . S
C252 H272 0.932 . S
C253 C251 1.408 . S
C253 C252 1.310 . S
C253 H273 0.930 1_554 S
C254 C255 1.474 1_565 S
C254 C256 1.286 1_565 S
C254 H274 0.929 . S
C255 C252 1.462 . S
C255 C254 1.474 1_545 S
C256 C251 1.342 . S
C256 C254 1.286 1_545 S
C256 H275 0.933 . S
C257 C260 1.424 . S
C257 C262 1.245 . S
C257 C263 1.428 . S
C258 C261 1.260 . S
C258 C262 1.477 . S
C258 H276 0.932 . S
C259 C260 1.384 . S
C259 C261 1.479 . S
C259 H277 0.929 . S
C260 C257 1.424 . S
C260 C259 1.384 . S
C260 H278 0.928 . S
C261 C258 1.260 . S
C261 C259 1.479 . S
C262 C257 1.245 . S
C262 C258 1.477 . S
C262 H279 0.932 . S
C263 U246 2.882 . S
C263 C257 1.428 . S
C263 O266 1.301 . S
C263 O267 1.282 . S
O264 U246 2.441 1_556 S
O264 C250 1.249 . S
O265 U246 2.420 1_556 S
O265 C250 1.202 . S
O266 U246 2.455 . S
O266 C263 1.301 . S
O267 U246 2.449 . S
O267 C263 1.282 . S
H268 C241 0.931 . S
H269 C243 0.929 . S
H270 C244 0.923 1_565 S
H271 C245 0.931 . S
H272 C252 0.932 . S
H273 C253 0.930 1_556 S
H274 C254 0.929 . S
H275 C256 0.933 . S
H276 C258 0.932 . S
H277 C259 0.929 . S
H278 C260 0.928 . S
H279 C262 0.932 . S
C280 C281 1.264 . S
C280 C285 1.479 . S
C280 C290 1.465 . S
C281 C280 1.264 . S
C281 C283 1.339 . S
C281 H308 0.931 . S
C282 C283 1.395 . S
C282 C284 1.320 . S
C283 C281 1.339 . S
C283 C282 1.395 . S
C283 H309 0.929 . S
C284 C282 1.320 . S
C284 C285 1.405 . S
C284 H310 0.930 . S
C285 C280 1.479 . S
C285 C284 1.405 . S
C285 H311 0.931 . S
U286 O287 2.454 . S
U286 O288 2.458 . S
U286 C289 2.984 . S
U286 C290 2.847 1_554 S
U286 C303 2.882 . S
U286 O304 2.441 1_554 S
U286 O305 2.420 1_554 S
U286 O306 2.455 . S
U286 O307 2.449 . S
O287 U286 2.454 . S
O287 C289 1.353 . S
O288 U286 2.458 . S
O288 C289 1.286 . S
C289 U286 2.984 . S
C289 O287 1.353 . S
C289 O288 1.286 . S
C289 C291 1.363 . S
C290 C280 1.465 . S
C290 U286 2.847 1_556 S
C290 O304 1.249 . S
C290 O305 1.202 . S
C291 C289 1.363 . S
C291 C293 1.408 . S
C291 C296 1.342 . S
C292 C293 1.310 . S
C292 C295 1.461 . S
C292 H312 0.932 . S
C293 C291 1.408 . S
C293 C292 1.310 . S
C293 H313 0.930 1_554 S
C294 C295 1.474 . S
C294 C296 1.285 . S
C294 H314 0.929 . S
C295 C292 1.461 . S
C295 C294 1.474 . S
C296 C291 1.342 . S
C296 C294 1.285 . S
C296 H315 0.930 . S
C297 C300 1.424 . S
C297 C302 1.245 . S
C297 C303 1.428 . S
C298 C301 1.260 . S
C298 C302 1.477 . S
C298 H316 0.932 . S
C299 C300 1.384 . S
C299 C301 1.479 . S
C299 H317 0.929 . S
C300 C297 1.424 . S
C300 C299 1.384 . S
C300 H318 0.928 . S
C301 C298 1.260 . S
C301 C299 1.479 . S
C302 C297 1.245 . S
C302 C298 1.477 . S
C302 H319 0.932 . S
C303 U286 2.882 . S
C303 C297 1.428 . S
C303 O306 1.301 . S
C303 O307 1.282 . S
O304 U286 2.441 1_556 S
O304 C290 1.249 . S
O305 U286 2.420 1_556 S
O305 C290 1.202 . S
O306 U286 2.455 . S
O306 C303 1.301 . S
O307 U286 2.449 . S
O307 C303 1.282 . S
H308 C281 0.931 . S
H309 C283 0.929 . S
H310 C284 0.930 . S
H311 C285 0.931 . S
H312 C292 0.932 . S
H313 C293 0.930 1_556 S
H314 C294 0.929 . S
H315 C296 0.930 . S
H316 C298 0.932 . S
H317 C299 0.929 . S
H318 C300 0.928 . S
H319 C302 0.932 . S
Pr320 C322 2.880 . S
Pr320 O340 2.562 . S
Pr320 O341 2.490 . S
Pr320 O342 2.695 1_565 S
Pr320 O343 2.512 . S
Pr320 O345 2.437 . S
Pr320 O348 2.436 1_455 S
Pr320 O350 2.438 1_565 S
Pr321 C331 2.880 . S
Pr321 O342 2.436 1_655 S
Pr321 O344 2.438 1_545 S
Pr321 O346 2.562 . S
Pr321 O347 2.490 . S
Pr321 O348 2.695 1_545 S
Pr321 O349 2.512 . S
Pr321 O351 2.437 . S
C322 Pr320 2.880 . S
C322 C323 1.491 . S
C322 O340 1.254 . S
C322 O341 1.225 . S
C323 C322 1.491 . S
C323 C324 1.392 . S
C323 C328 1.356 . S
C324 C323 1.392 . S
C324 C325 1.368 . S
C324 H352 0.929 . S
C325 C324 1.368 . S
C325 C326 1.386 . S
C325 H353 0.929 . S
C326 C325 1.386 . S
C326 C327 1.373 . S
C327 C326 1.373 . S
C327 C328 1.409 . S
C327 H354 0.931 1_455 S
C328 C323 1.356 . S
C328 C327 1.409 . S
C328 H355 0.930 1_455 S
C329 O342 1.253 1_565 S
C329 O343 1.278 . S
C330 O344 1.267 . S
C330 O345 1.278 1_655 S
C331 Pr321 2.880 . S
C331 C332 1.491 . S
C331 O346 1.254 . S
C331 O347 1.225 . S
C332 C331 1.491 . S
C332 C333 1.392 . S
C332 C337 1.356 . S
C333 C332 1.392 . S
C333 C334 1.368 . S
C333 H356 0.929 . S
C334 C333 1.368 . S
C334 C335 1.386 . S
C334 H357 0.929 . S
C335 C334 1.386 . S
C335 C336 1.373 . S
C336 C335 1.373 . S
C336 C337 1.409 . S
C336 H358 0.931 1_655 S
C337 C332 1.356 . S
C337 C336 1.409 . S
C337 H359 0.930 1_655 S
C338 O348 1.270 1_545 S
C338 O349 1.248 . S
C339 O350 1.267 . S
C339 O351 1.278 1_455 S
O340 Pr320 2.562 . S
O340 C322 1.254 . S
O341 Pr320 2.490 . S
O341 C322 1.225 . S
O342 Pr320 2.695 1_545 S
O342 Pr321 2.436 1_455 S
O342 C329 1.253 1_545 S
O343 Pr320 2.512 . S
O343 C329 1.278 . S
O344 Pr321 2.438 1_565 S
O344 C330 1.267 . S
O345 Pr320 2.437 . S
O345 C330 1.278 1_455 S
O346 Pr321 2.562 . S
O346 C331 1.254 . S
O347 Pr321 2.490 . S
O347 C331 1.225 . S
O348 Pr320 2.436 1_655 S
O348 Pr321 2.695 1_565 S
O348 C338 1.270 1_565 S
O349 Pr321 2.512 . S
O349 C338 1.248 . S
O350 Pr320 2.438 1_545 S
O350 C339 1.267 . S
O351 Pr321 2.437 . S
O351 C339 1.278 1_655 S
H352 C324 0.929 . S
H353 C325 0.929 . S
H354 C327 0.931 1_655 S
H355 C328 0.930 1_655 S
H356 C333 0.929 . S
H357 C334 0.929 . S
H358 C336 0.931 1_455 S
H359 C337 0.930 1_455 S
Pr360 C362 2.880 . S
Pr360 O380 2.562 . S
Pr360 O381 2.490 . S
Pr360 O382 2.695 . S
Pr360 O383 2.512 . S
Pr360 O385 2.437 . S
Pr360 O388 2.436 1_545 S
Pr360 O390 2.438 . S
Pr361 C371 2.880 . S
Pr361 O382 2.436 1_565 S
Pr361 O384 2.438 . S
Pr361 O386 2.562 . S
Pr361 O387 2.490 . S
Pr361 O388 2.695 . S
Pr361 O389 2.512 . S
Pr361 O391 2.437 . S
C362 Pr360 2.880 . S
C362 C363 1.491 . S
C362 O380 1.254 . S
C362 O381 1.225 . S
C363 C362 1.491 . S
C363 C364 1.392 . S
C363 C368 1.356 . S
C364 C363 1.392 . S
C364 C365 1.368 . S
C364 H392 0.929 . S
C365 C364 1.368 . S
C365 C366 1.386 . S
C365 H393 0.929 . S
C366 C365 1.386 . S
C366 C367 1.373 . S
C367 C366 1.373 . S
C367 C368 1.409 . S
C367 H394 0.931 1_545 S
C368 C363 1.356 . S
C368 C367 1.409 . S
C368 H395 0.930 1_545 S
C369 O382 1.270 . S
C369 O383 1.248 . S
C370 O384 1.267 . S
C370 O385 1.278 1_565 S
C371 Pr361 2.880 . S
C371 C372 1.491 . S
C371 O386 1.254 . S
C371 O387 1.225 . S
C372 C371 1.491 . S
C372 C373 1.392 . S
C372 C377 1.356 . S
C373 C372 1.392 . S
C373 C374 1.368 . S
C373 H396 0.929 . S
C374 C373 1.368 . S
C374 C375 1.386 . S
C374 H397 0.929 . S
C375 C374 1.386 . S
C375 C376 1.373 . S
C376 C375 1.373 . S
C376 C377 1.409 . S
C376 H398 0.931 1_565 S
C377 C372 1.356 . S
C377 C376 1.409 . S
C377 H399 0.930 1_565 S
C378 O388 1.270 . S
C378 O389 1.248 . S
C379 O390 1.267 . S
C379 O391 1.278 1_545 S
O380 Pr360 2.562 . S
O380 C362 1.254 . S
O381 Pr360 2.490 . S
O381 C362 1.225 . S
O382 Pr360 2.695 . S
O382 Pr361 2.436 1_545 S
O382 C369 1.270 . S
O383 Pr360 2.512 . S
O383 C369 1.248 . S
O384 Pr361 2.438 . S
O384 C370 1.267 . S
O385 Pr360 2.437 . S
O385 C370 1.278 1_545 S
O386 Pr361 2.562 . S
O386 C371 1.254 . S
O387 Pr361 2.490 . S
O387 C371 1.225 . S
O388 Pr360 2.436 1_565 S
O388 Pr361 2.695 . S
O388 C378 1.270 . S
O389 Pr361 2.512 . S
O389 C378 1.248 . S
O390 Pr360 2.438 . S
O390 C379 1.267 . S
O391 Pr361 2.437 . S
O391 C379 1.278 1_565 S
H392 C364 0.929 . S
H393 C365 0.929 . S
H394 C367 0.931 1_565 S
H395 C368 0.930 1_565 S
H396 C373 0.929 . S
H397 C374 0.929 . S
H398 C376 0.931 1_545 S
H399 C377 0.930 1_545 S
Pr400 C402 2.880 . S
Pr400 O420 2.562 . S
Pr400 O421 2.490 . S
Pr400 O422 2.695 . S
Pr400 O423 2.512 . S
Pr400 O425 2.437 . S
Pr400 O428 2.436 . S
Pr400 O430 2.438 . S
Pr401 C411 2.880 . S
Pr401 O422 2.436 . S
Pr401 O424 2.438 . S
Pr401 O426 2.562 . S
Pr401 O427 2.490 . S
Pr401 O428 2.695 . S
Pr401 O429 2.512 . S
Pr401 O431 2.437 . S
C402 Pr400 2.880 . S
C402 C403 1.491 . S
C402 O420 1.254 . S
C402 O421 1.225 . S
C403 C402 1.491 . S
C403 C404 1.392 . S
C403 C408 1.356 . S
C404 C403 1.392 . S
C404 C405 1.368 . S
C404 H432 0.929 . S
C405 C404 1.368 . S
C405 C406 1.386 . S
C405 H433 0.929 . S
C406 C405 1.386 . S
C406 C407 1.373 . S
C407 C406 1.373 . S
C407 C408 1.409 . S
C407 H434 0.931 . S
C408 C403 1.356 . S
C408 C407 1.409 . S
C408 H435 0.930 . S
C409 O422 1.270 . S
C409 O423 1.248 . S
C410 O424 1.267 . S
C410 O425 1.278 . S
C411 Pr401 2.880 . S
C411 C412 1.491 . S
C411 O426 1.254 . S
C411 O427 1.225 . S
C412 C411 1.491 . S
C412 C413 1.392 . S
C412 C417 1.356 . S
C413 C412 1.392 . S
C413 C414 1.368 . S
C413 H436 0.929 . S
C414 C413 1.368 . S
C414 C415 1.386 . S
C414 H437 0.929 . S
C415 C414 1.386 . S
C415 C416 1.373 . S
C416 C415 1.373 . S
C416 C417 1.409 . S
C416 H438 0.931 . S
C417 C412 1.356 . S
C417 C416 1.409 . S
C417 H439 0.930 . S
C418 O428 1.270 . S
C418 O429 1.248 . S
C419 O430 1.267 . S
C419 O431 1.278 . S
O420 Pr400 2.562 . S
O420 C402 1.254 . S
O421 Pr400 2.490 . S
O421 C402 1.225 . S
O422 Pr400 2.695 . S
O422 Pr401 2.436 . S
O422 C409 1.270 . S
O423 Pr400 2.512 . S
O423 C409 1.248 . S
O424 Pr401 2.438 . S
O424 C410 1.267 . S
O425 Pr400 2.437 . S
O425 C410 1.278 . S
O426 Pr401 2.562 . S
O426 C411 1.254 . S
O427 Pr401 2.490 . S
O427 C411 1.225 . S
O428 Pr400 2.436 . S
O428 Pr401 2.695 . S
O428 C418 1.270 . S
O429 Pr401 2.512 . S
O429 C418 1.248 . S
O430 Pr400 2.438 . S
O430 C419 1.267 . S
O431 Pr401 2.437 . S
O431 C419 1.278 . S
H432 C404 0.929 . S
H433 C405 0.929 . S
H434 C407 0.931 . S
H435 C408 0.930 . S
H436 C413 0.929 . S
H437 C414 0.929 . S
H438 C416 0.931 . S
H439 C417 0.930 . S
Pr440 C442 2.880 . S
Pr440 O460 2.562 . S
Pr440 O461 2.490 . S
Pr440 O462 2.695 1_655 S
Pr440 O463 2.512 . S
Pr440 O465 2.437 . S
Pr440 O468 2.436 . S
Pr440 O470 2.438 1_655 S
Pr441 C451 2.880 . S
Pr441 O462 2.436 . S
Pr441 O464 2.438 1_455 S
Pr441 O466 2.562 . S
Pr441 O467 2.490 . S
Pr441 O468 2.695 1_455 S
Pr441 O469 2.512 . S
Pr441 O471 2.437 . S
C442 Pr440 2.880 . S
C442 C443 1.491 . S
C442 O460 1.254 . S
C442 O461 1.225 . S
C443 C442 1.491 . S
C443 C444 1.392 . S
C443 C448 1.356 . S
C444 C443 1.392 . S
C444 C445 1.368 . S
C444 H472 0.929 . S
C445 C444 1.368 . S
C445 C446 1.386 . S
C445 H473 0.929 . S
C446 C445 1.386 . S
C446 C447 1.373 . S
C447 C446 1.373 . S
C447 C448 1.409 . S
C447 H474 0.931 . S
C448 C443 1.356 . S
C448 C447 1.409 . S
C448 H475 0.930 . S
C449 O462 1.256 1_655 S
C449 O463 1.273 . S
C450 O464 1.267 . S
C450 O465 1.278 . S
C451 Pr441 2.880 . S
C451 C452 1.491 . S
C451 O466 1.254 . S
C451 O467 1.225 . S
C452 C451 1.491 . S
C452 C453 1.392 . S
C452 C457 1.356 . S
C453 C452 1.392 . S
C453 C454 1.368 . S
C453 H476 0.929 . S
C454 C453 1.368 . S
C454 C455 1.386 . S
C454 H477 0.929 . S
C455 C454 1.386 . S
C455 C456 1.373 . S
C456 C455 1.373 . S
C456 C457 1.409 . S
C456 H478 0.931 . S
C457 C452 1.356 . S
C457 C456 1.409 . S
C457 H479 0.930 . S
C458 O468 1.270 1_455 S
C458 O469 1.248 . S
C459 O470 1.267 . S
C459 O471 1.278 . S
O460 Pr440 2.562 . S
O460 C442 1.254 . S
O461 Pr440 2.490 . S
O461 C442 1.225 . S
O462 Pr440 2.695 1_455 S
O462 Pr441 2.436 . S
O462 C449 1.256 1_455 S
O463 Pr440 2.512 . S
O463 C449 1.273 . S
O464 Pr441 2.438 1_655 S
O464 C450 1.267 . S
O465 Pr440 2.437 . S
O465 C450 1.278 . S
O466 Pr441 2.562 . S
O466 C451 1.254 . S
O467 Pr441 2.490 . S
O467 C451 1.225 . S
O468 Pr440 2.436 . S
O468 Pr441 2.695 1_655 S
O468 C458 1.270 1_655 S
O469 Pr441 2.512 . S
O469 C458 1.248 . S
O470 Pr440 2.438 1_455 S
O470 C459 1.267 . S
O471 Pr441 2.437 . S
O471 C459 1.278 . S
H472 C444 0.929 . S
H473 C445 0.929 . S
H474 C447 0.931 . S
H475 C448 0.930 . S
H476 C453 0.929 . S
H477 C454 0.929 . S
H478 C456 0.931 . S
H479 C457 0.930 . S
H480 C486 0.930 . S
H481 C490 0.930 . S
H482 C495 0.929 . S
H483 C493 0.929 . S
H484 C488 0.929 . S
H485 C494 0.929 . S
C486 H480 0.930 . S
C486 C487 1.365 . S
C486 C494 1.378 . S
C487 C486 1.365 . S
C487 C495 1.435 1_565 S
C488 H484 0.929 . S
C488 C490 1.378 . S
C488 C492 1.350 . S
C489 C492 1.462 . S
C489 C494 1.351 1_545 S
C489 N497 1.426 . S
C490 H481 0.930 . S
C490 C488 1.378 . S
C490 C491 1.367 . S
C491 C490 1.367 . S
C491 C493 1.433 1_545 S
C492 C488 1.350 . S
C492 C489 1.462 . S
C492 N496 1.427 1_545 S
C493 H483 0.929 . S
C493 C491 1.433 1_565 S
C493 N496 1.384 . S
C494 H485 0.929 . S
C494 C486 1.378 . S
C494 C489 1.351 1_565 S
C495 H482 0.929 . S
C495 C487 1.435 1_545 S
C495 N497 1.384 . S
N496 C492 1.427 1_565 S
N496 C493 1.384 . S
N497 C489 1.426 . S
N497 C495 1.384 . S
H498 C504 0.930 . S
H499 C508 0.930 . S
H500 C513 0.929 . S
H501 C511 0.929 . S
H502 C506 0.929 . S
H503 C512 0.929 . S
C504 H498 0.930 . S
C504 C505 1.367 . S
C504 C512 1.378 . S
C505 C504 1.367 . S
C505 C513 1.433 . S
C506 H502 0.929 . S
C506 C508 1.378 . S
C506 C510 1.350 . S
C507 C510 1.463 . S
C507 C512 1.350 . S
C507 N515 1.427 . S
C508 H499 0.930 . S
C508 C506 1.378 . S
C508 C509 1.367 . S
C509 C508 1.367 . S
C509 C511 1.433 . S
C510 C506 1.350 . S
C510 C507 1.463 . S
C510 N514 1.427 . S
C511 H501 0.929 . S
C511 C509 1.433 . S
C511 N514 1.384 . S
C512 H503 0.929 . S
C512 C504 1.378 . S
C512 C507 1.350 . S
C513 H500 0.929 . S
C513 C505 1.433 . S
C513 N515 1.384 . S
N514 C510 1.427 . S
N514 C511 1.384 . S
N515 C507 1.427 . S
N515 C513 1.384 . S
H516 C522 0.930 . S
H517 C526 0.930 . S
H518 C531 0.929 . S
H519 C529 0.929 . S
H520 C524 0.929 . S
H521 C530 0.929 . S
C522 H516 0.930 . S
C522 C523 1.367 . S
C522 C530 1.378 . S
C523 C522 1.367 . S
C523 C531 1.433 . S
C524 H520 0.929 . S
C524 C526 1.378 . S
C524 C528 1.350 . S
C525 C528 1.463 . S
C525 C530 1.350 . S
C525 N533 1.427 . S
C526 H517 0.930 . S
C526 C524 1.378 . S
C526 C527 1.367 . S
C527 C526 1.367 . S
C527 C529 1.433 . S
C528 C524 1.350 . S
C528 C525 1.463 . S
C528 N532 1.427 . S
C529 H519 0.929 . S
C529 C527 1.433 . S
C529 N532 1.384 . S
C530 H521 0.929 . S
C530 C522 1.378 . S
C530 C525 1.350 . S
C531 H518 0.929 . S
C531 C523 1.433 . S
C531 N533 1.384 . S
N532 C528 1.427 . S
N532 C529 1.384 . S
N533 C525 1.427 . S
N533 C531 1.384 . S
H534 C540 0.930 . S
H535 C544 0.930 . S
H536 C549 0.929 . S
H537 C547 0.929 . S
H538 C542 0.929 . S
H539 C548 0.929 . S
C540 H534 0.930 . S
C540 C541 1.384 . S
C540 C548 1.378 . S
C541 C540 1.384 . S
C541 C549 1.417 1_455 S
C542 H538 0.929 . S
C542 C544 1.378 . S
C542 C546 1.336 1_655 S
C543 C546 1.463 . S
C543 C548 1.350 . S
C543 N551 1.427 1_455 S
C544 H535 0.930 . S
C544 C542 1.378 . S
C544 C545 1.337 1_655 S
C545 C544 1.337 1_455 S
C545 C547 1.465 . S
C546 C542 1.336 1_455 S
C546 C543 1.463 . S
C546 N550 1.442 . S
C547 H537 0.929 . S
C547 C545 1.465 . S
C547 N550 1.384 . S
C548 H539 0.929 . S
C548 C540 1.378 . S
C548 C543 1.350 . S
C549 H536 0.929 . S
C549 C541 1.417 1_655 S
C549 N551 1.384 . S
N550 C546 1.442 . S
N550 C547 1.384 . S
N551 C543 1.427 1_655 S
N551 C549 1.384 . S
H552 C558 0.930 . S
H553 C562 0.930 . S
H554 C567 0.929 . S
H555 C565 0.929 . S
H556 C560 0.929 . S
H557 C566 0.929 . S
C558 H552 0.930 . S
C558 C559 1.366 . S
C558 C566 1.378 . S
C559 C558 1.366 . S
C559 C567 1.434 1_545 S
C560 H556 0.929 . S
C560 C562 1.378 . S
C560 C564 1.368 . S
C561 C564 1.462 1_554 S
C561 C566 1.348 1_565 S
C561 N569 1.429 . S
C562 H553 0.930 . S
C562 C560 1.378 . S
C562 C563 1.367 . S
C563 C562 1.367 . S
C563 C565 1.433 1_565 S
C564 C560 1.368 . S
C564 C561 1.462 1_556 S
C564 N568 1.410 1_565 S
C565 H555 0.929 . S
C565 C563 1.433 1_545 S
C565 N568 1.384 . S
C566 H557 0.929 . S
C566 C558 1.378 . S
C566 C561 1.348 1_545 S
C567 H554 0.929 . S
C567 C559 1.434 1_565 S
C567 N569 1.384 . S
N568 C564 1.410 1_545 S
N568 C565 1.384 . S
N569 C561 1.429 . S
N569 C567 1.384 . S
H570 C576 0.930 . S
H571 C580 0.930 . S
H572 C585 0.929 . S
H573 C583 0.929 . S
H574 C578 0.929 . S
H575 C584 0.929 . S
C576 H570 0.930 . S
C576 C577 1.367 . S
C576 C584 1.378 . S
C577 C576 1.367 . S
C577 C585 1.433 . S
C578 H574 0.929 . S
C578 C580 1.378 . S
C578 C582 1.350 . S
C579 C582 1.463 1_554 S
C579 C584 1.350 . S
C579 N587 1.427 . S
C580 H571 0.930 . S
C580 C578 1.378 . S
C580 C581 1.367 . S
C581 C580 1.367 . S
C581 C583 1.433 . S
C582 C578 1.350 . S
C582 C579 1.463 1_556 S
C582 N586 1.427 . S
C583 H573 0.929 . S
C583 C581 1.433 . S
C583 N586 1.384 . S
C584 H575 0.929 . S
C584 C576 1.378 . S
C584 C579 1.350 . S
C585 H572 0.929 . S
C585 C577 1.433 . S
C585 N587 1.384 . S
N586 C582 1.427 . S
N586 C583 1.384 . S
N587 C579 1.427 . S
N587 C585 1.384 . S
H588 C594 0.930 . S
H589 C598 0.930 . S
H590 C603 0.929 . S
H591 C601 0.929 . S
H592 C596 0.929 . S
H593 C602 0.929 . S
C594 H588 0.930 . S
C594 C595 1.367 . S
C594 C602 1.378 . S
C595 C594 1.367 . S
C595 C603 1.433 . S
C596 H592 0.929 . S
C596 C598 1.378 . S
C596 C600 1.350 . S
C597 C600 1.463 1_554 S
C597 C602 1.350 . S
C597 N605 1.427 . S
C598 H589 0.930 . S
C598 C596 1.378 . S
C598 C599 1.367 . S
C599 C598 1.367 . S
C599 C601 1.433 . S
C600 C596 1.350 . S
C600 C597 1.463 1_556 S
C600 N604 1.427 . S
C601 H591 0.929 . S
C601 C599 1.433 . S
C601 N604 1.384 . S
C602 H593 0.929 . S
C602 C594 1.378 . S
C602 C597 1.350 . S
C603 H590 0.929 . S
C603 C595 1.433 . S
C603 N605 1.384 . S
N604 C600 1.427 . S
N604 C601 1.384 . S
N605 C597 1.427 . S
N605 C603 1.384 . S
H606 C612 0.930 . S
H607 C616 0.930 . S
H608 C621 0.929 . S
H609 C619 0.929 . S
H610 C614 0.929 . S
H611 C620 0.929 . S
C612 H606 0.930 . S
C612 C613 1.379 . S
C612 C620 1.378 . S
C613 C612 1.379 . S
C613 C621 1.422 1_655 S
C614 H610 0.929 . S
C614 C616 1.378 . S
C614 C618 1.337 1_455 S
C615 C618 1.462 1_554 S
C615 C620 1.375 . S
C615 N623 1.404 1_655 S
C616 H607 0.930 . S
C616 C614 1.378 . S
C616 C617 1.367 1_455 S
C617 C616 1.367 1_655 S
C617 C619 1.433 . S
C618 C614 1.337 1_655 S
C618 C615 1.462 1_556 S
C618 N622 1.441 . S
C619 H609 0.929 . S
C619 C617 1.433 . S
C619 N622 1.384 . S
C620 H611 0.929 . S
C620 C612 1.378 . S
C620 C615 1.375 . S
C621 H608 0.929 . S
C621 C613 1.422 1_455 S
C621 N623 1.384 . S
N622 C618 1.441 . S
N622 C619 1.384 . S
N623 C615 1.404 1_455 S
N623 C621 1.384 . S
H624 C630 0.930 . S
H625 C634 0.930 . S
H626 C639 0.929 . S
H627 C637 0.929 . S
H628 C632 0.929 1_455 S
H629 C638 0.929 . S
C630 H624 0.930 . S
C630 C631 1.367 1_655 S
C630 C638 1.378 . S
C631 C630 1.367 1_455 S
C631 C639 1.433 . S
C632 H628 0.929 1_655 S
C632 C634 1.378 . S
C632 C636 1.350 . S
C633 C636 1.463 . S
C633 C638 1.350 . S
C633 N641 1.427 1_655 S
C634 H625 0.930 . S
C634 C632 1.378 . S
C634 C635 1.367 . S
C635 C634 1.367 . S
C635 C637 1.433 . S
C636 C632 1.350 . S
C636 C633 1.463 . S
C636 N640 1.427 . S
C637 H627 0.929 . S
C637 C635 1.433 . S
C637 N640 1.384 . S
C638 H629 0.929 . S
C638 C630 1.378 . S
C638 C633 1.350 . S
C639 H626 0.929 . S
C639 C631 1.433 . S
C639 N641 1.384 . S
N640 C636 1.427 . S
N640 C637 1.384 . S
N641 C633 1.427 1_455 S
N641 C639 1.384 . S
H642 C648 0.930 . S
H643 C652 0.930 . S
H644 C657 0.929 . S
H645 C655 0.929 . S
H646 C650 0.929 1_545 S
H647 C656 0.929 . S
C648 H642 0.930 . S
C648 C649 1.367 1_565 S
C648 C656 1.378 . S
C649 C648 1.367 1_545 S
C649 C657 1.433 . S
C650 H646 0.929 1_565 S
C650 C652 1.378 . S
C650 C654 1.350 . S
C651 C654 1.463 . S
C651 C656 1.350 . S
C651 N659 1.427 1_565 S
C652 H643 0.930 . S
C652 C650 1.378 . S
C652 C653 1.367 . S
C653 C652 1.367 . S
C653 C655 1.433 . S
C654 C650 1.350 . S
C654 C651 1.463 . S
C654 N658 1.427 . S
C655 H645 0.929 . S
C655 C653 1.433 . S
C655 N658 1.384 . S
C656 H647 0.929 . S
C656 C648 1.378 . S
C656 C651 1.350 . S
C657 H644 0.929 . S
C657 C649 1.433 . S
C657 N659 1.384 . S
N658 C654 1.427 . S
N658 C655 1.384 . S
N659 C651 1.427 1_545 S
N659 C657 1.384 . S
H660 C666 0.930 . S
H661 C670 0.930 . S
H662 C675 0.929 . S
H663 C673 0.929 . S
H664 C668 0.929 . S
H665 C674 0.929 . S
C666 H660 0.930 . S
C666 C667 1.367 . S
C666 C674 1.378 . S
C667 C666 1.367 . S
C667 C675 1.433 . S
C668 H664 0.929 . S
C668 C670 1.378 . S
C668 C672 1.350 . S
C669 C672 1.463 . S
C669 C674 1.350 . S
C669 N677 1.427 . S
C670 H661 0.930 . S
C670 C668 1.378 . S
C670 C671 1.367 . S
C671 C670 1.367 . S
C671 C673 1.433 . S
C672 C668 1.350 . S
C672 C669 1.463 . S
C672 N676 1.427 . S
C673 H663 0.929 . S
C673 C671 1.433 . S
C673 N676 1.384 . S
C674 H665 0.929 . S
C674 C666 1.378 . S
C674 C669 1.350 . S
C675 H662 0.929 . S
C675 C667 1.433 . S
C675 N677 1.384 . S
N676 C672 1.427 . S
N676 C673 1.384 . S
N677 C669 1.427 . S
N677 C675 1.384 . S
H678 C684 0.930 . S
H679 C688 0.930 . S
H680 C693 0.929 . S
H681 C691 0.929 . S
H682 C686 0.929 . S
H683 C692 0.929 . S
C684 H678 0.930 . S
C684 C685 1.367 . S
C684 C692 1.378 . S
C685 C684 1.367 . S
C685 C693 1.433 . S
C686 H682 0.929 . S
C686 C688 1.378 . S
C686 C690 1.350 . S
C687 C690 1.463 . S
C687 C692 1.350 . S
C687 N695 1.427 . S
C688 H679 0.930 . S
C688 C686 1.378 . S
C688 C689 1.367 . S
C689 C688 1.367 . S
C689 C691 1.433 . S
C690 C686 1.350 . S
C690 C687 1.463 . S
C690 N694 1.427 . S
C691 H681 0.929 . S
C691 C689 1.433 . S
C691 N694 1.384 . S
C692 H683 0.929 . S
C692 C684 1.378 . S
C692 C687 1.350 . S
C693 H680 0.929 . S
C693 C685 1.433 . S
C693 N695 1.384 . S
N694 C690 1.427 . S
N694 C691 1.384 . S
N695 C687 1.427 . S
N695 C693 1.384 . S
H696 C702 0.930 . S
H697 C706 0.930 . S
H698 C711 0.929 . S
H699 C709 0.929 . S
H700 C704 0.929 . S
H701 C710 0.945 . S
C702 H696 0.930 . S
C702 C703 1.367 . S
C702 C710 1.397 . S
C703 C702 1.367 . S
C703 C711 1.433 1_654 S
C704 H700 0.929 . S
C704 C706 1.378 . S
C704 C708 1.350 . S
C705 C708 1.463 1_554 S
C705 C710 1.318 1_455 S
C705 N713 1.427 1_554 S
C706 H697 0.930 . S
C706 C704 1.378 . S
C706 C707 1.367 . S
C707 C706 1.367 . S
C707 C709 1.433 . S
C708 C704 1.350 . S
C708 C705 1.463 1_556 S
C708 N712 1.427 1_556 S
C709 H699 0.929 . S
C709 C707 1.433 . S
C709 N712 1.384 1_556 S
C710 H701 0.945 . S
C710 C702 1.397 . S
C710 C705 1.318 1_655 S
C711 H698 0.929 . S
C711 C703 1.433 1_456 S
C711 N713 1.384 . S
N712 C708 1.427 1_554 S
N712 C709 1.384 1_554 S
N713 C705 1.427 1_556 S
N713 C711 1.384 . S
H714 C720 0.930 . S
H715 C724 0.930 . S
H716 C729 0.929 . S
H717 C727 0.929 . S
H718 C722 0.929 . S
H719 C728 0.929 . S
C720 H714 0.930 . S
C720 C721 1.367 . S
C720 C728 1.378 . S
C721 C720 1.367 . S
C721 C729 1.433 1_565 S
C722 H718 0.929 . S
C722 C724 1.378 . S
C722 C726 1.350 . S
C723 C726 1.463 1_554 S
C723 C728 1.350 1_545 S
C723 N731 1.427 1_554 S
C724 H715 0.930 . S
C724 C722 1.378 . S
C724 C725 1.367 . S
C725 C724 1.367 . S
C725 C727 1.433 . S
C726 C722 1.350 . S
C726 C723 1.463 1_556 S
C726 N730 1.427 . S
C727 H717 0.929 . S
C727 C725 1.433 . S
C727 N730 1.384 . S
C728 H719 0.929 . S
C728 C720 1.378 . S
C728 C723 1.350 1_565 S
C729 H716 0.929 . S
C729 C721 1.433 1_545 S
C729 N731 1.384 1_554 S
N730 C726 1.427 . S
N730 C727 1.384 . S
N731 C723 1.427 1_556 S
N731 C729 1.384 1_556 S
H732 C738 0.930 . S
H733 C742 0.930 . S
H734 C747 0.929 . S
H735 C745 0.929 1_554 S
H736 C740 0.929 . S
H737 C746 0.929 . S
C738 H732 0.930 . S
C738 C739 1.367 . S
C738 C746 1.378 . S
C739 C738 1.367 . S
C739 C747 1.433 1_554 S
C740 H736 0.929 . S
C740 C742 1.378 . S
C740 C744 1.350 . S
C741 C744 1.463 1_554 S
C741 C746 1.350 . S
C741 N749 1.427 1_554 S
C742 H733 0.930 . S
C742 C740 1.378 . S
C742 C743 1.367 . S
C743 C742 1.367 . S
C743 C745 1.433 . S
C744 C740 1.350 . S
C744 C741 1.463 1_556 S
C744 N748 1.427 1_556 S
C745 H735 0.929 1_556 S
C745 C743 1.433 . S
C745 N748 1.384 1_556 S
C746 H737 0.929 . S
C746 C738 1.378 . S
C746 C741 1.350 . S
C747 H734 0.929 . S
C747 C739 1.433 1_556 S
C747 N749 1.384 . S
N748 C744 1.427 1_554 S
N748 C745 1.384 1_554 S
N749 C741 1.427 1_556 S
N749 C747 1.384 . S
H750 C756 0.930 . S
H751 C760 0.930 . S
H752 C765 0.929 . S
H753 C763 0.929 . S
H754 C758 0.929 . S
H755 C764 0.929 1_556 S
C756 H750 0.930 . S
C756 C757 1.367 . S
C756 C764 1.378 . S
C757 C756 1.367 . S
C757 C765 1.433 . S
C758 H754 0.929 . S
C758 C760 1.378 . S
C758 C762 1.350 . S
C759 C762 1.463 1_554 S
C759 C764 1.350 . S
C759 N767 1.427 . S
C760 H751 0.930 . S
C760 C758 1.378 . S
C760 C761 1.367 . S
C761 C760 1.367 . S
C761 C763 1.433 . S
C762 C758 1.350 . S
C762 C759 1.463 1_556 S
C762 N766 1.427 . S
C763 H753 0.929 . S
C763 C761 1.433 . S
C763 N766 1.384 . S
C764 H755 0.929 1_554 S
C764 C756 1.378 . S
C764 C759 1.350 . S
C765 H752 0.929 . S
C765 C757 1.433 . S
C765 N767 1.384 . S
N766 C762 1.427 . S
N766 C763 1.384 . S
N767 C759 1.427 . S
N767 C765 1.384 . S
H768 C774 0.930 . S
H769 C778 0.930 . S
H770 C783 0.929 . S
H771 C781 0.926 1_655 S
H772 C776 0.929 . S
H773 C782 0.941 . S
C774 H768 0.930 . S
C774 C775 1.367 1_655 S
C774 C782 1.382 . S
C775 C774 1.367 1_455 S
C775 C783 1.433 . S
C776 H772 0.929 . S
C776 C778 1.378 . S
C776 C780 1.350 . S
C777 C780 1.463 . S
C777 C782 1.337 1_455 S
C777 N785 1.427 . S
C778 H769 0.930 . S
C778 C776 1.378 . S
C778 C779 1.367 . S
C779 C778 1.367 . S
C779 C781 1.433 . S
C780 C776 1.350 . S
C780 C777 1.463 . S
C780 N784 1.427 . S
C781 H771 0.926 1_455 S
C781 C779 1.433 . S
C781 N784 1.384 . S
C782 H773 0.941 . S
C782 C774 1.382 . S
C782 C777 1.337 1_655 S
C783 H770 0.929 . S
C783 C775 1.433 . S
C783 N785 1.384 . S
N784 C780 1.427 . S
N784 C781 1.384 . S
N785 C777 1.427 . S
N785 C783 1.384 . S
H786 C792 0.930 . S
H787 C796 0.930 1_565 S
H788 C801 0.929 . S
H789 C799 0.929 . S
H790 C794 0.929 . S
H791 C800 0.929 . S
C792 H786 0.930 . S
C792 C793 1.367 . S
C792 C800 1.378 . S
C793 C792 1.367 . S
C793 C801 1.433 1_545 S
C794 H790 0.929 . S
C794 C796 1.378 1_565 S
C794 C798 1.349 1_565 S
C795 C798 1.463 . S
C795 C800 1.350 . S
C795 N803 1.427 1_545 S
C796 H787 0.930 1_545 S
C796 C794 1.378 1_545 S
C796 C797 1.367 . S
C797 C796 1.367 . S
C797 C799 1.433 . S
C798 C794 1.349 1_545 S
C798 C795 1.463 . S
C798 N802 1.427 . S
C799 H789 0.929 . S
C799 C797 1.433 . S
C799 N802 1.384 . S
C800 H791 0.929 . S
C800 C792 1.378 . S
C800 C795 1.350 . S
C801 H788 0.929 . S
C801 C793 1.433 1_565 S
C801 N803 1.384 . S
N802 C798 1.427 . S
N802 C799 1.384 . S
N803 C795 1.427 1_565 S
N803 C801 1.384 . S
H804 C810 0.930 . S
H805 C814 0.930 . S
H806 C819 0.929 . S
H807 C817 0.929 . S
H808 C812 0.929 . S
H809 C818 0.929 . S
C810 H804 0.930 . S
C810 C811 1.367 . S
C810 C818 1.378 . S
C811 C810 1.367 . S
C811 C819 1.433 . S
C812 H808 0.929 . S
C812 C814 1.378 . S
C812 C816 1.350 . S
C813 C816 1.463 . S
C813 C818 1.350 . S
C813 N821 1.427 . S
C814 H805 0.930 . S
C814 C812 1.378 . S
C814 C815 1.367 . S
C815 C814 1.367 . S
C815 C817 1.433 . S
C816 C812 1.350 . S
C816 C813 1.463 . S
C816 N820 1.427 . S
C817 H807 0.929 . S
C817 C815 1.433 . S
C817 N820 1.384 . S
C818 H809 0.929 . S
C818 C810 1.378 . S
C818 C813 1.350 . S
C819 H806 0.929 . S
C819 C811 1.433 . S
C819 N821 1.384 . S
N820 C816 1.427 . S
N820 C817 1.384 . S
N821 C813 1.427 . S
N821 C819 1.384 . S
H822 C828 0.930 . S
H823 C832 0.930 . S
H824 C837 0.929 . S
H825 C835 0.929 . S
H826 C830 0.929 . S
H827 C836 0.929 . S
C828 H822 0.930 . S
C828 C829 1.367 . S
C828 C836 1.378 . S
C829 C828 1.367 . S
C829 C837 1.433 . S
C830 H826 0.929 . S
C830 C832 1.378 . S
C830 C834 1.350 . S
C831 C834 1.463 . S
C831 C836 1.350 . S
C831 N839 1.427 . S
C832 H823 0.930 . S
C832 C830 1.378 . S
C832 C833 1.367 . S
C833 C832 1.367 . S
C833 C835 1.433 . S
C834 C830 1.350 . S
C834 C831 1.463 . S
C834 N838 1.427 . S
C835 H825 0.929 . S
C835 C833 1.433 . S
C835 N838 1.384 . S
C836 H827 0.929 . S
C836 C828 1.378 . S
C836 C831 1.350 . S
C837 H824 0.929 . S
C837 C829 1.433 . S
C837 N839 1.384 . S
N838 C834 1.427 . S
N838 C835 1.384 . S
N839 C831 1.427 . S
N839 C837 1.384 . S
H840 C846 0.930 . S
H841 C850 0.930 . S
H842 C855 0.929 . S
H843 C853 0.929 . S
H844 C848 0.929 . S
H845 C854 0.929 . S
C846 H840 0.930 . S
C846 C847 1.367 . S
C846 C854 1.378 . S
C847 C846 1.367 . S
C847 C855 1.433 1_655 S
C848 H844 0.929 . S
C848 C850 1.378 . S
C848 C852 1.350 1_455 S
C849 C852 1.463 . S
C849 C854 1.350 . S
C849 N857 1.427 1_655 S
C850 H841 0.930 . S
C850 C848 1.378 . S
C850 C851 1.367 1_455 S
C851 C850 1.367 1_655 S
C851 C853 1.433 . S
C852 C848 1.350 1_655 S
C852 C849 1.463 . S
C852 N856 1.427 . S
C853 H843 0.929 . S
C853 C851 1.433 . S
C853 N856 1.384 . S
C854 H845 0.929 . S
C854 C846 1.378 . S
C854 C849 1.350 . S
C855 H842 0.929 . S
C855 C847 1.433 1_455 S
C855 N857 1.384 . S
N856 C852 1.427 . S
N856 C853 1.384 . S
N857 C849 1.427 1_455 S
N857 C855 1.384 . S
H858 C864 0.930 . S
H859 C868 0.930 . S
H860 C873 0.929 . S
H861 C871 0.929 . S
H862 C866 0.929 . S
H863 C872 0.929 . S
C864 H858 0.930 . S
C864 C865 1.367 . S
C864 C872 1.378 . S
C865 C864 1.367 . S
C865 C873 1.433 1_565 S
C866 H862 0.929 . S
C866 C868 1.378 . S
C866 C870 1.350 1_545 S
C867 C870 1.463 . S
C867 C872 1.350 . S
C867 N875 1.427 1_565 S
C868 H859 0.930 . S
C868 C866 1.378 . S
C868 C869 1.367 1_545 S
C869 C868 1.367 1_565 S
C869 C871 1.433 . S
C870 C866 1.350 1_565 S
C870 C867 1.463 . S
C870 N874 1.427 . S
C871 H861 0.929 . S
C871 C869 1.433 . S
C871 N874 1.384 . S
C872 H863 0.929 . S
C872 C864 1.378 . S
C872 C867 1.350 . S
C873 H860 0.929 . S
C873 C865 1.433 1_545 S
C873 N875 1.384 . S
N874 C870 1.427 . S
N874 C871 1.384 . S
N875 C867 1.427 1_545 S
N875 C873 1.384 . S
H876 C882 0.930 . S
H877 C886 0.930 . S
H878 C891 0.929 . S
H879 C889 0.929 . S
H880 C884 0.929 . S
H881 C890 0.929 . S
C882 H876 0.930 . S
C882 C883 1.367 . S
C882 C890 1.378 . S
C883 C882 1.367 . S
C883 C891 1.433 . S
C884 H880 0.929 . S
C884 C886 1.378 . S
C884 C888 1.350 . S
C885 C888 1.463 . S
C885 C890 1.350 . S
C885 N893 1.427 . S
C886 H877 0.930 . S
C886 C884 1.378 . S
C886 C887 1.367 . S
C887 C886 1.367 . S
C887 C889 1.433 . S
C888 C884 1.350 . S
C888 C885 1.463 . S
C888 N892 1.427 . S
C889 H879 0.929 . S
C889 C887 1.433 . S
C889 N892 1.384 . S
C890 H881 0.929 . S
C890 C882 1.378 . S
C890 C885 1.350 . S
C891 H878 0.929 . S
C891 C883 1.433 . S
C891 N893 1.384 . S
N892 C888 1.427 . S
N892 C889 1.384 . S
N893 C885 1.427 . S
N893 C891 1.384 . S
H894 C900 0.930 . S
H895 C904 0.930 . S
H896 C909 0.929 . S
H897 C907 0.929 . S
H898 C902 0.929 . S
H899 C908 0.929 . S
C900 H894 0.930 . S
C900 C901 1.367 . S
C900 C908 1.378 . S
C901 C900 1.367 . S
C901 C909 1.433 . S
C902 H898 0.929 . S
C902 C904 1.378 . S
C902 C906 1.350 . S
C903 C906 1.463 . S
C903 C908 1.350 . S
C903 N911 1.427 . S
C904 H895 0.930 . S
C904 C902 1.378 . S
C904 C905 1.367 . S
C905 C904 1.367 . S
C905 C907 1.433 . S
C906 C902 1.350 . S
C906 C903 1.463 . S
C906 N910 1.427 . S
C907 H897 0.929 . S
C907 C905 1.433 . S
C907 N910 1.384 . S
C908 H899 0.929 . S
C908 C900 1.378 . S
C908 C903 1.350 . S
C909 H896 0.929 . S
C909 C901 1.433 . S
C909 N911 1.384 . S
N910 C906 1.427 . S
N910 C907 1.384 . S
N911 C903 1.427 . S
N911 C909 1.384 . S
C487 C255 2.237 1_565 S
C491 C329 2.438 1_545 S
C509 C369 2.445 . S
C505 C295 2.233 . S
C527 C409 2.447 . S
C523 C175 2.238 . S
C545 C449 2.440 1_455 S
C541 C215 2.236 . S
C563 C338 2.446 1_565 S
C559 C95 2.252 . S
C577 C135 2.238 . S
C581 C378 2.450 . S
C595 C15 2.239 . S
C599 C418 2.446 . S
C613 C55 2.248 1_655 S
C617 C458 2.445 1_655 S
C635 C335 0.429 . S
C631 C221 0.405 . S
C653 C375 0.435 . S
C649 C261 0.437 . S
C671 C415 0.453 . S
C667 C301 0.407 . S
C685 C181 0.416 . S
C689 C455 0.417 . S
C703 C61 0.521 1_655 S
C707 C326 0.454 . S
C725 C366 0.466 . S
C721 C101 0.525 1_565 S
C743 C406 0.429 . S
C739 C141 0.494 . S
C757 C21 0.504 . S
C761 C446 0.428 . S
C775 C202 3.143 . S
C779 C339 3.500 . S
C793 C242 3.146 . S
C797 C379 3.500 . S
C815 C419 3.500 . S
C811 C282 3.141 . S
C833 C459 3.501 . S
C829 C162 3.134 . S
C847 C42 3.162 1_655 S
C851 C330 3.511 . S
C869 C370 3.498 . S
C865 C82 3.153 1_565 S
C887 C410 3.497 . S
C883 C122 3.151 . S
C901 C2 3.168 . S
C905 C450 3.509 . S
