# Generated by pormake.
# Topology rtl, (3,6)-cn, num edge types: 1
# Building blocks:
#     Node 0, Type 0, BuildingBlock: OLANEW_clean_sbu_2, # of connection points: 3
#     Node 1, Type 0, BuildingBlock: OLANEW_clean_sbu_2, # of connection points: 3
#     Node 2, Type 0, BuildingBlock: OLANEW_clean_sbu_2, # of connection points: 3
#     Node 3, Type 0, BuildingBlock: OLANEW_clean_sbu_2, # of connection points: 3
#     Node 4, Type 1, BuildingBlock: VOLQOD_clean_sbu_1, # of connection points: 6
#     Node 5, Type 1, BuildingBlock: VOLQOD_clean_sbu_1, # of connection points: 6
#     Edge 6, Type (0, 1), BuildingBlock: ZUJKAS_clean_linker_0, # of connection points: 2
#     Edge 7, Type (0, 1), BuildingBlock: ZUJKAS_clean_linker_0, # of connection points: 2
#     Edge 8, Type (0, 1), BuildingBlock: ZUJKAS_clean_linker_0, # of connection points: 2
#     Edge 9, Type (0, 1), BuildingBlock: ZUJKAS_clean_linker_0, # of connection points: 2
#     Edge 10, Type (0, 1), BuildingBlock: ZUJKAS_clean_linker_0, # of connection points: 2
#     Edge 11, Type (0, 1), BuildingBlock: ZUJKAS_clean_linker_0, # of connection points: 2
#     Edge 12, Type (0, 1), BuildingBlock: ZUJKAS_clean_linker_0, # of connection points: 2
#     Edge 13, Type (0, 1), BuildingBlock: ZUJKAS_clean_linker_0, # of connection points: 2
#     Edge 14, Type (0, 1), BuildingBlock: ZUJKAS_clean_linker_0, # of connection points: 2
#     Edge 15, Type (0, 1), BuildingBlock: ZUJKAS_clean_linker_0, # of connection points: 2
#     Edge 16, Type (0, 1), BuildingBlock: ZUJKAS_clean_linker_0, # of connection points: 2
#     Edge 17, Type (0, 1), BuildingBlock: ZUJKAS_clean_linker_0, # of connection points: 2
# Relax obj value: 0.052
# Max RMSD: 0.146
# Mean RMSD: 0.102
data_MOF--net-rtl--node1-OLANEW_clean_sbu_2--node2-VOLQOD_clean_sbu_1--edge1-ZUJKAS_clean_linker_0
_symmetry_space_group_name_H-M    P1
_symmetry_Int_Tables_number       1
_symmetry_cell_setting            triclinic
loop_
_symmetry_equiv_pos_as_xyz
'x, y, z'
_cell_length_a     51.718087
_cell_length_b     49.066794
_cell_length_c     30.444986
_cell_angle_alpha  87.466013
_cell_angle_beta   92.668886
_cell_angle_gamma 90.146141
loop_
_atom_site_label
_atom_site_type_symbol
_atom_site_fract_x
_atom_site_fract_y
_atom_site_fract_z
_atom_type_partial_charge
O0 O 0.16634 0.76024 0.96421 0.0
Cd1 Cd 0.1803 0.73485 0.03191 0.0
O2 O 0.18619 0.7978 0.98381 0.0
Cd3 Cd 0.19258 0.78394 0.05246 0.0
O4 O 0.17694 0.79629 0.11391 0.0
C5 C 0.15653 0.81059 0.10757 0.0
O6 O 0.1473 0.81518 0.06696 0.0
C7 C 0.17319 0.78468 0.95522 0.0
C8 C 0.22441 0.70405 0.0193 0.0
O9 O 0.2017 0.69426 0.01194 0.0
O10 O 0.22625 0.72839 0.03282 0.0
O11 O 0.66675 0.72865 0.58568 0.0
Cd12 Cd 0.67917 0.75416 0.51893 0.0
O13 O 0.68369 0.69061 0.56441 0.0
Cd14 Cd 0.69302 0.70679 0.49929 0.0
O15 O 0.68149 0.69948 0.43113 0.0
C16 C 0.6572 0.69749 0.42361 0.0
O17 O 0.64177 0.70218 0.45555 0.0
C18 C 0.6719 0.70346 0.59281 0.0
C19 C 0.72451 0.78472 0.52902 0.0
O20 O 0.70236 0.79511 0.53542 0.0
O21 O 0.72525 0.75972 0.51853 0.0
O22 O 0.84151 0.21301 0.08846 0.0
Cd23 Cd 0.82543 0.22912 0.01501 0.0
O24 O 0.8798 0.2318 0.08112 0.0
Cd25 Cd 0.87237 0.24229 0.01144 0.0
O26 O 0.88113 0.22651 0.94801 0.0
C27 C 0.90377 0.21662 0.94707 0.0
O28 O 0.91948 0.21842 0.98203 0.0
C29 C 0.86405 0.21829 0.10443 0.0
C30 C 0.78324 0.26429 0.01663 0.0
O31 O 0.78001 0.23843 0.01516 0.0
O32 O 0.80647 0.2735 0.01765 0.0
O33 O 0.35521 0.26596 0.58896 0.0
Cd34 Cd 0.34295 0.24171 0.52245 0.0
O35 O 0.32881 0.30036 0.57263 0.0
Cd36 Cd 0.32129 0.28779 0.50549 0.0
O37 O 0.33445 0.29861 0.43996 0.0
C38 C 0.3387 0.32399 0.43385 0.0
O39 O 0.33345 0.34037 0.46526 0.0
C40 C 0.34527 0.28839 0.59912 0.0
C41 C 0.29798 0.21038 0.52908 0.0
O42 O 0.32022 0.20037 0.54097 0.0
O43 O 0.29697 0.2353 0.5146 0.0
O44 O 0.95029 0.9788 0.53487 0.0
Zn45 Zn 0.97556 0.01017 0.53344 0.0
O46 O 0.01131 -0.00255 0.53138 0.0
Zn47 Zn 0.0313 0.00873 0.58375 0.0
Zn48 Zn 0.01132 0.9576 0.53014 0.0
Zn49 Zn 0.02692 0.01318 0.47846 0.0
O50 O 0.0614 0.03256 0.56719 0.0
O51 O 0.05834 0.03593 0.49423 0.0
O52 O 0.97081 0.03194 0.58698 0.0
O53 O 0.0093 0.0305 0.62246 0.0
O54 O 0.04595 0.97625 0.61932 0.0
O55 O 0.03193 0.9408 0.58211 0.0
O56 O 0.02768 0.94519 0.47582 0.0
O57 O 0.96582 0.03478 0.48069 0.0
O58 O 0.03851 0.98352 0.43969 0.0
O59 O 0.0016 0.03776 0.44319 0.0
C60 C 0.95287 0.95304 0.53352 0.0
C61 C 0.06971 0.0417 0.53067 0.0
C62 C 0.04466 0.95061 0.61457 0.0
C63 C 0.98578 0.03829 0.61934 0.0
C64 C 0.03766 0.95755 0.44305 0.0
C65 C 0.97808 0.04421 0.44804 0.0
O66 O 0.97511 0.94222 0.53128 0.0
O67 O 0.57004 0.4731 0.00421 0.0
Zn68 Zn 0.54651 0.50581 0.00207 0.0
O69 O 0.5101 0.49521 -0.00012 0.0
Zn70 Zn 0.49284 0.50954 0.94449 0.0
Zn71 Zn 0.50768 0.45536 0.00376 0.0
Zn72 Zn 0.49379 0.51006 0.05024 0.0
O73 O 0.46265 0.534 0.95711 0.0
O74 O 0.46396 0.5341 0.0301 0.0
O75 O 0.5543 0.52957 0.9493 0.0
O76 O 0.51783 0.53195 0.90774 0.0
O77 O 0.47814 0.47867 0.90879 0.0
O78 O 0.48735 0.44172 0.95139 0.0
O79 O 0.48934 0.44204 0.05769 0.0
O80 O 0.55581 0.52802 0.0544 0.0
O81 O 0.47984 0.48019 0.08991 0.0
O82 O 0.51859 0.53261 0.08654 0.0
C83 C 0.56596 0.44747 0.00572 0.0
C84 C 0.45369 0.54179 -0.00719 0.0
C85 C 0.47705 0.45292 0.91633 0.0
C86 C 0.54155 0.5383 0.91479 0.0
C87 C 0.47933 0.45429 0.08876 0.0
C88 C 0.54267 0.5376 0.08448 0.0
O89 O 0.54304 0.43788 0.00583 0.0
H90 H 0.29363 0.1575 0.56042 0.0
H91 H 0.2546 0.12925 0.5612 0.0
H92 H 0.20975 0.19644 0.50229 0.0
H93 H 0.24858 0.225 0.50204 0.0
H94 H 0.18567 0.17 0.57121 0.0
H95 H 0.21912 0.09577 0.4538 0.0
H96 H 0.24092 0.09968 0.50074 0.0
H97 H 0.23514 0.12799 0.46199 0.0
C98 C 0.27546 0.16629 0.54766 0.0
C99 C 0.27425 0.19347 0.53093 0.0
C100 C 0.2532 0.15006 0.54789 0.0
C101 C 0.22937 0.16059 0.53106 0.0
C102 C 0.22798 0.18786 0.5152 0.0
H103 H 0.09201 0.06705 0.45983 0.0
H104 H 0.13021 0.09653 0.46029 0.0
C105 C 0.25021 0.20415 0.51506 0.0
C106 C 0.20582 0.14327 0.53022 0.0
H107 H 0.18038 0.0847 0.48958 0.0
C108 C 0.18447 0.15138 0.55329 0.0
C109 C 0.20418 0.1192 0.50628 0.0
C110 C 0.22595 0.11022 0.47893 0.0
C111 C 0.16164 0.13583 0.55365 0.0
C112 C 0.16033 0.11128 0.53095 0.0
C113 C 0.18153 0.1034 0.5073 0.0
C114 C 0.13706 0.09355 0.53099 0.0
C115 C 0.13899 0.14608 0.57771 0.0
C116 C 0.12842 0.08183 0.57054 0.0
C117 C 0.10654 0.06505 0.57045 0.0
C118 C 0.09298 0.05944 0.5307 0.0
C119 C 0.10192 0.07096 0.49105 0.0
C120 C 0.12377 0.0878 0.49122 0.0
H121 H 0.14054 0.1683 0.58298 0.0
H122 H 0.1204 0.14212 0.55933 0.0
H123 H 0.13852 0.13528 0.61046 0.0
H124 H 0.13872 0.0855 0.60152 0.0
H125 H 0.10035 0.05638 0.60158 0.0
H126 H 0.22681 0.65321 0.9863 0.0
H127 H 0.26547 0.6259 0.97665 0.0
H128 H 0.31348 0.69024 0.02787 0.0
H129 H 0.27497 0.71792 0.03691 0.0
H130 H 0.33272 0.66807 0.95337 0.0
H131 H 0.3076 0.58699 0.07731 0.0
H132 H 0.28312 0.59336 0.03433 0.0
H133 H 0.29118 0.61946 0.07228 0.0
C134 C 0.24559 0.66157 -0.00449 0.0
C135 C 0.24781 0.68766 0.01269 0.0
C136 C 0.26766 0.64588 -0.00988 0.0
C137 C 0.2923 0.65588 0.00219 0.0
C138 C 0.29462 0.68212 0.0185 0.0
H139 H 0.43273 0.56612 0.06175 0.0
H140 H 0.39395 0.59423 0.06081 0.0
C141 C 0.27258 0.69787 0.02375 0.0
C142 C 0.31569 0.6389 -0.0016 0.0
H143 H 0.34446 0.57937 0.03646 0.0
C144 C 0.33531 0.64865 0.97145 0.0
C145 C 0.3191 0.61371 0.0224 0.0
C146 C 0.29927 0.60281 0.05354 0.0
C147 C 0.35831 0.63387 0.9679 0.0
C148 C 0.36152 0.6085 -0.00859 0.0
C149 C 0.34185 0.59874 0.01821 0.0
C150 C 0.38566 0.59232 -0.00929 0.0
C151 C 0.37924 0.64591 0.94007 0.0
C152 C 0.39394 0.58191 0.9515 0.0
C153 C 0.41631 0.56584 0.95184 0.0
C154 C 0.4306 0.55971 -0.0085 0.0
C155 C 0.42222 0.57033 0.0306 0.0
C156 C 0.40001 0.58642 0.03017 0.0
H157 H 0.3763 0.6681 0.93272 0.0
H158 H 0.39863 0.64278 0.95672 0.0
H159 H 0.37901 0.6356 0.90834 0.0
H160 H 0.38288 0.58579 0.9208 0.0
H161 H 0.42212 0.55786 0.9212 0.0
H162 H 0.72879 0.83901 0.54497 0.0
H163 H 0.76811 0.86682 0.54687 0.0
H164 H 0.81368 0.79588 0.52344 0.0
H165 H 0.77441 0.76799 0.52068 0.0
H166 H 0.81258 0.86249 0.60099 0.0
H167 H 0.83523 0.85001 0.42655 0.0
H168 H 0.80431 0.84064 0.44789 0.0
H169 H 0.83176 0.81842 0.45776 0.0
C170 C 0.74717 0.8293 0.54024 0.0
C171 C 0.74844 0.80131 0.53234 0.0
C172 C 0.76963 0.84523 0.54136 0.0
C173 C 0.79375 0.83352 0.5345 0.0
C174 C 0.79518 0.80546 0.52778 0.0
H175 H 0.95035 0.89755 0.52701 0.0
H176 H 0.91187 0.86852 0.52884 0.0
C177 C 0.77273 0.78952 0.5265 0.0
C178 C 0.8174 0.8507 0.53457 0.0
H179 H 0.86688 0.87225 0.47108 0.0
C180 C 0.82442 0.8647 0.57256 0.0
C181 C 0.83279 0.85357 0.49739 0.0
C182 C 0.82557 0.84008 0.45492 0.0
C183 C 0.84664 0.88119 0.57459 0.0
C184 C 0.86202 0.884 0.53745 0.0
C185 C 0.85506 0.86996 0.49953 0.0
C186 C 0.88528 0.90167 0.53707 0.0
C187 C 0.85373 0.89512 0.61669 0.0
C188 C 0.88302 0.92996 0.5406 0.0
C189 C 0.90494 0.94665 0.53948 0.0
C190 C 0.92959 0.93534 0.53467 0.0
C191 C 0.93172 0.90696 0.53089 0.0
C192 C 0.90976 0.89031 0.53189 0.0
H193 H 0.8437 0.88577 0.64513 0.0
H194 H 0.87494 0.89426 0.62414 0.0
H195 H 0.84797 0.9169 0.61292 0.0
H196 H 0.86423 0.93918 0.54381 0.0
H197 H 0.90254 0.96841 0.54232 0.0
H198 H 0.73187 0.25084 0.01556 0.0
H199 H 0.69484 0.2818 0.01431 0.0
H200 H 0.7466 0.35082 0.01586 0.0
H201 H 0.78381 0.32001 0.0177 0.0
H202 H 0.70704 0.35355 0.07541 0.0
H203 H 0.66776 0.32976 0.90859 0.0
H204 H 0.67273 0.30045 0.94544 0.0
H205 H 0.70007 0.32029 0.92844 0.0
C206 C 0.7354 0.27261 0.01559 0.0
C207 C 0.7608 0.28297 0.01652 0.0
C208 C 0.7142 0.29027 0.01461 0.0
C209 C 0.71798 0.3186 0.01424 0.0
C210 C 0.74328 0.32901 0.01587 0.0
H211 H 0.61754 0.46038 0.00737 0.0
H212 H 0.6543 0.42909 0.01028 0.0
C213 C 0.76451 0.31137 0.01688 0.0
C214 C 0.69555 0.3374 0.01285 0.0
H215 H 0.64169 0.3574 0.9507 0.0
C216 C 0.6928 0.3545 0.04809 0.0
C217 C 0.67701 0.33853 0.97715 0.0
C218 C 0.67958 0.32147 0.93754 0.0
C219 C 0.67173 0.37242 0.04894 0.0
C220 C 0.65319 0.37353 0.01326 0.0
C221 C 0.65592 0.35642 0.97804 0.0
C222 C 0.63089 0.39248 0.01164 0.0
C223 C 0.66921 0.38963 0.08839 0.0
C224 C 0.60552 0.38227 0.01042 0.0
C225 C 0.58442 0.40009 0.00855 0.0
C226 C 0.5883 0.42851 0.00755 0.0
C227 C 0.6138 0.43864 0.00832 0.0
C228 C 0.63487 0.42079 0.01024 0.0
H229 H 0.68113 0.3815 0.11733 0.0
H230 H 0.67594 0.41065 0.0802 0.0
H231 H 0.64873 0.39077 0.09761 0.0
H232 H 0.60207 0.36047 0.01121 0.0
H233 H 0.56507 0.39156 0.00787 0.0
H234 H 0.11387 0.84318 0.1026 0.0
H235 H 0.09419 0.86612 0.16209 0.0
H236 H 0.15048 0.82946 0.25548 0.0
H237 H 0.17071 0.80665 0.19576 0.0
H238 H 0.07236 0.84512 0.23726 0.0
H239 H 0.157 0.91091 0.27794 0.0
H240 H 0.15434 0.8921 0.22831 0.0
H241 H 0.16366 0.87495 0.27996 0.0
C242 C 0.12212 0.83991 0.13576 0.0
C243 C 0.14399 0.82321 0.14438 0.0
C244 C 0.11079 0.85303 0.16975 0.0
C245 C 0.1211 0.84982 0.21307 0.0
C246 C 0.14255 0.83264 0.22211 0.0
H247 H 0.04206 0.90199 0.44191 0.0
H248 H 0.06218 0.87532 0.38693 0.0
C249 C 0.15397 0.8195 0.18801 0.0
C250 C 0.10925 0.86466 0.24841 0.0
H251 H 0.12112 0.91373 0.32288 0.0
C252 C 0.08302 0.86006 0.25612 0.0
C253 C 0.12314 0.88442 0.27245 0.0
C254 C 0.15103 0.89115 0.26412 0.0
C255 C 0.07026 0.8747 0.28724 0.0
C256 C 0.08426 0.89411 0.31182 0.0
C257 C 0.11049 0.89872 0.30413 0.0
C258 C 0.07192 0.91027 0.34509 0.0
C259 C 0.04174 0.86978 0.29264 0.0
C260 C 0.07118 0.93884 0.34027 0.0
C261 C 0.05984 0.95423 0.3718 0.0
C262 C 0.04909 0.9413 0.4089 0.0
C263 C 0.04995 0.91264 0.41362 0.0
C264 C 0.06135 0.89731 0.38212 0.0
H265 H 0.03257 0.85965 0.26392 0.0
H266 H 0.03917 0.85629 0.32234 0.0
H267 H 0.03142 0.88922 0.29699 0.0
H268 H 0.07932 0.94924 0.31196 0.0
H269 H 0.05959 0.97624 0.36715 0.0
H270 H 0.64855 0.72395 0.66355 0.0
H271 H 0.62824 0.69799 0.72334 0.0
H272 H 0.65081 0.62279 0.66769 0.0
H273 H 0.67182 0.64838 0.60911 0.0
H274 H 0.58844 0.66376 0.71791 0.0
H275 H 0.67265 0.60736 0.79371 0.0
H276 H 0.67615 0.63565 0.75456 0.0
H277 H 0.66909 0.60196 0.73593 0.0
C278 C 0.64962 0.70189 0.66459 0.0
C279 C 0.66196 0.68827 0.63167 0.0
C280 C 0.63792 0.68708 0.69866 0.0
C281 C 0.6383 0.65842 0.7004 0.0
C282 C 0.65086 0.64485 0.66784 0.0
H283 H 0.52822 0.55002 0.8276 0.0
H284 H 0.55117 0.58012 0.7761 0.0
C285 C 0.66278 0.65958 0.63414 0.0
C286 C 0.62425 0.64256 0.73447 0.0
H287 H 0.63084 0.58933 0.81009 0.0
C288 C 0.59777 0.6477 0.73847 0.0
C289 C 0.63647 0.62182 0.76171 0.0
C290 C 0.66521 0.61658 0.76161 0.0
C291 C 0.58304 0.63221 0.76813 0.0
C292 C 0.59495 0.61041 0.79349 0.0
C293 C 0.62157 0.60575 0.79022 0.0
C294 C 0.58047 0.5925 0.82443 0.0
C295 C 0.55502 0.63971 0.77239 0.0
C296 C 0.58968 0.58875 0.86835 0.0
C297 C 0.57701 0.57109 0.89741 0.0
C298 C 0.55466 0.55694 0.88336 0.0
C299 C 0.54526 0.56082 0.83947 0.0
C300 C 0.55826 0.57819 0.81011 0.0
H301 H 0.55128 0.66136 0.7618 0.0
H302 H 0.54268 0.62681 0.75091 0.0
H303 H 0.54908 0.63642 0.8068 0.0
H304 H 0.60676 0.5995 0.88022 0.0
H305 H 0.58468 0.56873 0.93108 0.0
H306 H 0.91325 0.21776 0.14115 0.0
H307 H 0.92955 0.19063 0.20554 0.0
H308 H 0.85192 0.16383 0.23063 0.0
H309 H 0.83546 0.19032 0.16529 0.0
H310 H 0.921 0.18813 0.29303 0.0
H311 H 0.88859 0.0922 0.21697 0.0
H312 H 0.88815 0.12466 0.18679 0.0
H313 H 0.86303 0.11607 0.22393 0.0
C314 C 0.89954 0.20641 0.16063 0.0
C315 C 0.87308 0.20587 0.14765 0.0
C316 C 0.90892 0.19088 0.19748 0.0
C317 C 0.89204 0.17464 0.22219 0.0
C318 C 0.86538 0.17561 0.21125 0.0
H319 H 0.92645 0.05658 0.43995 0.0
H320 H 0.90479 0.0891 0.38723 0.0
C321 C 0.85598 0.19093 0.1741 0.0
C322 C 0.90271 0.15565 0.25771 0.0
H323 H 0.90832 0.08799 0.28839 0.0
C324 C 0.91814 0.16625 0.2921 0.0
C325 C 0.89914 0.12705 0.25623 0.0
C326 C 0.88404 0.11423 0.21883 0.0
C327 C 0.93012 0.14902 0.325 0.0
C328 C 0.92659 0.12053 0.32331 0.0
C329 C 0.91084 0.10992 0.2895 0.0
C330 C 0.93981 0.10128 0.35557 0.0
C331 C 0.94651 0.1613 0.36135 0.0
C332 C 0.96659 0.09718 0.35464 0.0
C333 C 0.97903 0.07844 0.38438 0.0
C334 C 0.96486 0.06357 0.41572 0.0
C335 C 0.93796 0.06774 0.41637 0.0
C336 C 0.92553 0.08631 0.38634 0.0
H337 H 0.94354 0.18367 0.36248 0.0
H338 H 0.94205 0.15156 0.39376 0.0
H339 H 0.96724 0.15752 0.35592 0.0
H340 H 0.97784 0.10836 0.33069 0.0
H341 H -0.00025 0.07578 0.383 0.0
H342 H 0.32739 0.33552 0.63186 0.0
H343 H 0.34825 0.3623 0.68946 0.0
H344 H 0.40667 0.30021 0.71295 0.0
H345 H 0.386 0.27318 0.65548 0.0
H346 H 0.3641 0.34785 0.78333 0.0
H347 H 0.44525 0.37313 0.67478 0.0
H348 H 0.41447 0.36042 0.6539 0.0
H349 H 0.43732 0.33754 0.6821 0.0
C350 C 0.34442 0.32729 0.64976 0.0
C351 C 0.35516 0.30231 0.63874 0.0
C352 C 0.3563 0.34265 0.68264 0.0
C353 C 0.37917 0.33338 0.70484 0.0
C354 C 0.38916 0.3078 0.69572 0.0
H355 H 0.46621 0.39847 0.92612 0.0
H356 H 0.44178 0.37007 0.87499 0.0
C357 C 0.37724 0.29235 0.66301 0.0
C358 C 0.39343 0.35121 0.73553 0.0
H359 H 0.44867 0.38903 0.74694 0.0
C360 C 0.38259 0.35685 0.7755 0.0
C361 C 0.41735 0.3632 0.72475 0.0
C362 C 0.4293 0.35853 0.68143 0.0
C363 C 0.39537 0.37385 0.80548 0.0
C364 C 0.41957 0.38533 0.79512 0.0
C365 C 0.43017 0.38006 0.7548 0.0
C366 C 0.43435 0.40268 0.82595 0.0
C367 C 0.38279 0.37968 0.84779 0.0
C368 C 0.43872 0.4303 0.81481 0.0
C369 C 0.45271 0.44669 0.84398 0.0
C370 C 0.46281 0.4356 0.88461 0.0
C371 C 0.45871 0.40774 0.89519 0.0
C372 C 0.44461 0.39147 0.86615 0.0
H373 H 0.36192 0.37423 0.84655 0.0
H374 H 0.39255 0.3675 0.87531 0.0
H375 H 0.38481 0.40158 0.85511 0.0
H376 H 0.43108 0.43924 0.78372 0.0
H377 H 0.45555 0.46801 0.83471 0.0
H378 H 0.60651 0.68792 0.40048 0.0
H379 H 0.5893 0.66379 0.33711 0.0
H380 H 0.66617 0.65767 0.2893 0.0
H381 H 0.68373 0.68146 0.35318 0.0
H382 H 0.59124 0.67366 0.24597 0.0
H383 H 0.64259 0.57795 0.30201 0.0
H384 H 0.63985 0.60648 0.33691 0.0
H385 H 0.66291 0.60737 0.29451 0.0
C386 C 0.61979 0.68171 0.37632 0.0
C387 C 0.64655 0.6863 0.38219 0.0
C388 C 0.60988 0.66794 0.34008 0.0
C389 C 0.62653 0.65848 0.30906 0.0
C390 C 0.65308 0.66431 0.31344 0.0
H391 H 0.5938 0.55225 0.09096 0.0
H392 H 0.61467 0.58282 0.1431 0.0
C393 C 0.66305 0.67805 0.3498 0.0
C394 C 0.61605 0.64146 0.27341 0.0
H395 H 0.61737 0.577 0.23564 0.0
C396 C 0.59702 0.65256 0.24354 0.0
C397 C 0.62361 0.61391 0.27049 0.0
C398 C 0.6432 0.60056 0.30285 0.0
C399 C 0.58527 0.63682 0.21078 0.0
C400 C 0.59251 0.60917 0.20838 0.0
C401 C 0.6119 0.59822 0.23766 0.0
C402 C 0.5797 0.59099 0.17651 0.0
C403 C 0.5653 0.64992 0.1789 0.0
C404 C 0.55321 0.58513 0.17859 0.0
C405 C 0.5412 0.56761 0.14896 0.0
C406 C 0.55552 0.55554 0.11678 0.0
C407 C 0.58216 0.56122 0.11523 0.0
C408 C 0.59414 0.57871 0.14494 0.0
H409 H 0.56694 0.67252 0.17761 0.0
H410 H 0.56723 0.64256 0.14523 0.0
H411 H 0.54567 0.64445 0.18965 0.0
H412 H 0.54185 0.59395 0.20337 0.0
H413 H 0.52069 0.56362 0.15123 0.0
H414 H 0.95064 0.19316 0.93656 0.0
H415 H 0.96273 0.16394 0.87805 0.0
H416 H 0.88693 0.17464 0.81456 0.0
H417 H 0.87465 0.20423 0.87292 0.0
H418 H 0.93762 0.11493 0.85739 0.0
H419 H 0.93628 0.18891 0.71355 0.0
H420 H 0.93745 0.19955 0.76964 0.0
H421 H 0.90752 0.18801 0.74454 0.0
C422 C 0.9366 0.18962 0.9099 0.0
C423 C 0.91165 0.201 0.90943 0.0
C424 C 0.94355 0.17287 0.87654 0.0
C425 C 0.9258 0.16729 0.84189 0.0
C426 C 0.90105 0.17906 0.84069 0.0
H427 H 0.93767 0.06136 0.62126 0.0
H428 H 0.92199 0.0917 0.6758 0.0
C429 C 0.89405 0.19587 0.87413 0.0
C430 C 0.93287 0.14788 0.80858 0.0
H431 H 0.94329 0.14255 0.69941 0.0
C432 C 0.93888 0.12095 0.82284 0.0
C433 C 0.93431 0.1558 0.76356 0.0
C434 C 0.92876 0.18468 0.74677 0.0
C435 C 0.94635 0.10167 0.79323 0.0
C436 C 0.94826 0.1097 0.74834 0.0
C437 C 0.94182 0.13651 0.73391 0.0
C438 C 0.95758 0.09076 0.71604 0.0
C439 C 0.95189 0.07281 0.81017 0.0
C440 C 0.98284 0.08032 0.72057 0.0
C441 C 0.99189 0.06298 0.68952 0.0
C442 C 0.97586 0.05584 0.6532 0.0
C443 C 0.95052 0.06633 0.64888 0.0
C444 C 0.94151 0.08373 0.67993 0.0
H445 H 0.94299 0.06822 0.84218 0.0
H446 H 0.9446 0.05786 0.78619 0.0
H447 H 0.97313 0.07001 0.81517 0.0
H448 H 0.99569 0.08591 0.74783 0.0
H449 H 0.01154 0.0554 0.6938 0.0
H450 H 0.34995 0.37704 0.41266 0.0
H451 H 0.37421 0.39497 0.35096 0.0
H452 H 0.38141 0.3138 0.30415 0.0
H453 H 0.35686 0.29554 0.3659 0.0
H454 H 0.42556 0.37914 0.3343 0.0
H455 H 0.35635 0.36032 0.19328 0.0
H456 H 0.34642 0.36038 0.24937 0.0
H457 H 0.36368 0.33172 0.23076 0.0
C458 C 0.35641 0.36296 0.38905 0.0
C459 C 0.35149 0.33484 0.39425 0.0
C460 C 0.37031 0.37327 0.35383 0.0
C461 C 0.37947 0.35574 0.32293 0.0
C462 C 0.37418 0.32771 0.32735 0.0
H463 H 0.47102 0.399 0.09469 0.0
H464 H 0.4484 0.37299 0.15173 0.0
C465 C 0.36023 0.31732 0.36271 0.0
C466 C 0.39567 0.36693 0.28759 0.0
H467 H 0.39657 0.38003 0.1766 0.0
C468 C 0.41929 0.37923 0.29979 0.0
C469 C 0.3875 0.36678 0.24264 0.0
C470 C 0.36203 0.35428 0.22799 0.0
C471 C 0.43481 0.39184 0.26826 0.0
C472 C 0.42623 0.39256 0.22346 0.0
C473 C 0.40302 0.37948 0.21105 0.0
C474 C 0.44039 0.4081 0.1894 0.0
C475 C 0.46024 0.40434 0.28319 0.0
C476 C 0.44315 0.43645 0.19158 0.0
C477 C 0.45602 0.45137 0.15916 0.0
C478 C 0.4663 0.43823 0.12372 0.0
C479 C 0.46345 0.40977 0.12161 0.0
C480 C 0.45049 0.39486 0.15408 0.0
H481 H 0.46737 0.39544 0.3157 0.0
H482 H 0.47526 0.40144 0.25892 0.0
H483 H 0.45756 0.42658 0.2865 0.0
H484 H 0.43507 0.44711 0.21817 0.0
H485 H 0.45773 0.47325 0.16178 0.0
H486 H 0.18037 0.83813 0.92965 0.0
H487 H 0.16006 0.863 0.86604 0.0
H488 H 0.12495 0.78853 0.8223 0.0
H489 H 0.14477 0.76345 0.8865 0.0
H490 H 0.16149 0.85811 0.77595 0.0
H491 H 0.06264 0.83799 0.83423 0.0
H492 H 0.09146 0.83106 0.86851 0.0
H493 H 0.08149 0.80802 0.82665 0.0
C494 C 0.16856 0.82692 0.90632 0.0
C495 C 0.16392 0.79884 0.9135 0.0
C496 C 0.15697 0.8412 0.86994 0.0
C497 C 0.14056 0.82771 0.84002 0.0
C498 C 0.13706 0.79942 0.84562 0.0
H499 H 0.04315 0.89475 0.61949 0.0
H500 H 0.06714 0.86391 0.67191 0.0
C501 C 0.14855 0.7851 0.88217 0.0
C502 C 0.12632 0.84365 0.80423 0.0
H503 H 0.06555 0.86297 0.76669 0.0
C504 C 0.14052 0.85909 0.77379 0.0
C505 C 0.09894 0.84497 0.80164 0.0
C506 C 0.08268 0.82984 0.83467 0.0
C507 C 0.12805 0.8759 0.74086 0.0
C508 C 0.10074 0.87747 0.73871 0.0
C509 C 0.08651 0.86163 0.76851 0.0
C510 C 0.08655 0.89616 0.70671 0.0
C511 C 0.14416 0.89182 0.70858 0.0
C512 C 0.08925 0.92448 0.70949 0.0
C513 C 0.07549 0.94219 0.67981 0.0
C514 C 0.05874 0.93186 0.64678 0.0
C515 C 0.05594 0.90341 0.6444 0.0
C516 C 0.06962 0.88573 0.67427 0.0
H517 H 0.16409 0.88348 0.70792 0.0
H518 H 0.13502 0.89174 0.67485 0.0
H519 H 0.14563 0.91332 0.71832 0.0
H520 H 0.10189 0.93289 0.73484 0.0
H521 H 0.0781 0.96396 0.68267 0.0
loop_
_geom_bond_atom_site_label_1
_geom_bond_atom_site_label_2
_geom_bond_distance
_geom_bond_site_symmetry_2
_ccdc_geom_bond_type
O0 Cd1 2.300 1_556 S
O0 C7 1.275 . S
Cd1 O0 2.300 1_554 S
Cd1 O9 2.381 . S
Cd1 O10 2.378 . S
O2 Cd3 2.385 . S
O2 C7 1.255 1_554 S
Cd3 O2 2.385 . S
Cd3 O4 2.317 . S
O4 Cd3 2.317 . S
O4 C5 1.232 . S
C5 O4 1.232 . S
C5 O6 1.218 . S
O6 C5 1.218 . S
C7 O0 1.275 . S
C7 O2 1.255 1_556 S
C8 O9 1.258 . S
C8 O10 1.256 . S
O9 Cd1 2.381 . S
O9 C8 1.258 . S
O10 Cd1 2.378 . S
O10 C8 1.256 . S
O11 Cd12 2.300 . S
O11 C18 1.275 . S
Cd12 O11 2.300 . S
Cd12 O20 2.381 . S
Cd12 O21 2.378 . S
O13 Cd14 2.385 . S
O13 C18 1.255 . S
Cd14 O13 2.385 . S
Cd14 O15 2.317 . S
O15 Cd14 2.317 . S
O15 C16 1.232 . S
C16 O15 1.232 . S
C16 O17 1.218 . S
O17 C16 1.218 . S
C18 O11 1.275 . S
C18 O13 1.255 . S
C19 O20 1.258 . S
C19 O21 1.256 . S
O20 Cd12 2.381 . S
O20 C19 1.258 . S
O21 Cd12 2.378 . S
O21 C19 1.256 . S
O22 Cd23 2.300 . S
O22 C29 1.275 . S
Cd23 O22 2.300 . S
Cd23 O31 2.381 . S
Cd23 O32 2.378 . S
O24 Cd25 2.385 . S
O24 C29 1.255 . S
Cd25 O24 2.385 . S
Cd25 O26 2.317 1_554 S
O26 Cd25 2.317 1_556 S
O26 C27 1.232 . S
C27 O26 1.232 . S
C27 O28 1.218 . S
O28 C27 1.218 . S
C29 O22 1.275 . S
C29 O24 1.255 . S
C30 O31 1.258 . S
C30 O32 1.256 . S
O31 Cd23 2.381 . S
O31 C30 1.258 . S
O32 Cd23 2.378 . S
O32 C30 1.256 . S
O33 Cd34 2.300 . S
O33 C40 1.275 . S
Cd34 O33 2.300 . S
Cd34 O42 2.381 . S
Cd34 O43 2.378 . S
O35 Cd36 2.385 . S
O35 C40 1.255 . S
Cd36 O35 2.385 . S
Cd36 O37 2.317 . S
O37 Cd36 2.317 . S
O37 C38 1.232 . S
C38 O37 1.232 . S
C38 O39 1.218 . S
O39 C38 1.218 . S
C40 O33 1.275 . S
C40 O35 1.255 . S
C41 O42 1.258 . S
C41 O43 1.256 . S
O42 Cd34 2.381 . S
O42 C41 1.258 . S
O43 Cd34 2.378 . S
O43 C41 1.256 . S
O44 Zn45 1.953 1_565 S
O44 C60 1.225 . S
Zn45 O44 1.953 1_545 S
Zn45 O46 1.949 1_655 S
Zn45 O52 1.919 . S
Zn45 O57 1.924 . S
O46 Zn45 1.949 1_455 S
O46 Zn47 1.923 . S
O46 Zn48 1.950 1_545 S
O46 Zn49 1.945 . S
Zn47 O46 1.923 . S
Zn47 O50 1.933 . S
Zn47 O53 1.941 . S
Zn47 O54 1.965 1_545 S
Zn48 O46 1.950 1_565 S
Zn48 O55 1.938 . S
Zn48 O56 1.906 . S
Zn48 O66 1.953 1_455 S
Zn49 O46 1.945 . S
Zn49 O51 1.932 . S
Zn49 O58 1.977 1_545 S
Zn49 O59 1.910 . S
O50 Zn47 1.933 . S
O50 C61 1.226 . S
O51 Zn49 1.932 . S
O51 C61 1.307 . S
O52 Zn45 1.919 . S
O52 C63 1.253 . S
O53 Zn47 1.941 . S
O53 C63 1.283 1_455 S
O54 Zn47 1.965 1_565 S
O54 C62 1.303 . S
O55 Zn48 1.938 . S
O55 C62 1.247 . S
O56 Zn48 1.906 . S
O56 C64 1.304 . S
O57 Zn45 1.924 . S
O57 C65 1.311 . S
O58 Zn49 1.977 1_565 S
O58 C64 1.272 . S
O59 Zn49 1.910 . S
O59 C65 1.231 1_455 S
C60 O44 1.225 . S
C60 O66 1.298 . S
C61 O50 1.226 . S
C61 O51 1.307 . S
C62 O54 1.303 . S
C62 O55 1.247 . S
C63 O52 1.253 . S
C63 O53 1.283 1_655 S
C64 O56 1.304 . S
C64 O58 1.272 . S
C65 O57 1.311 . S
C65 O59 1.231 1_655 S
O66 Zn48 1.953 1_655 S
O66 C60 1.298 . S
O67 Zn68 1.955 . S
O67 C83 1.230 . S
Zn68 O67 1.955 . S
Zn68 O69 1.949 . S
Zn68 O75 1.919 1_554 S
Zn68 O80 1.924 . S
O69 Zn68 1.949 . S
O69 Zn70 1.923 1_554 S
O69 Zn71 1.950 . S
O69 Zn72 1.945 . S
Zn70 O69 1.923 1_556 S
Zn70 O73 1.933 . S
Zn70 O76 1.941 . S
Zn70 O77 1.965 . S
Zn71 O69 1.950 . S
Zn71 O78 1.938 1_554 S
Zn71 O79 1.906 . S
Zn71 O89 1.953 . S
Zn72 O69 1.945 . S
Zn72 O74 1.932 . S
Zn72 O81 1.977 . S
Zn72 O82 1.910 . S
O73 Zn70 1.933 . S
O73 C84 1.226 1_556 S
O74 Zn72 1.932 . S
O74 C84 1.307 . S
O75 Zn68 1.919 1_556 S
O75 C86 1.253 . S
O76 Zn70 1.941 . S
O76 C86 1.283 . S
O77 Zn70 1.965 . S
O77 C85 1.303 . S
O78 Zn71 1.938 1_556 S
O78 C85 1.247 . S
O79 Zn71 1.906 . S
O79 C87 1.304 . S
O80 Zn68 1.924 . S
O80 C88 1.311 . S
O81 Zn72 1.977 . S
O81 C87 1.272 . S
O82 Zn72 1.910 . S
O82 C88 1.231 . S
C83 O67 1.230 . S
C83 O89 1.298 . S
C84 O73 1.226 1_554 S
C84 O74 1.307 . S
C85 O77 1.303 . S
C85 O78 1.247 . S
C86 O75 1.253 . S
C86 O76 1.283 . S
C87 O79 1.304 . S
C87 O81 1.272 . S
C88 O80 1.311 . S
C88 O82 1.231 . S
O89 Zn71 1.953 . S
O89 C83 1.298 . S
H90 C98 0.929 . S
H91 C100 0.930 . S
H92 C102 0.930 . S
H93 C105 0.929 . S
H94 C108 0.930 . S
H95 C110 0.960 . S
H96 C110 0.960 . S
H97 C110 0.960 . S
C98 H90 0.929 . S
C98 C99 1.377 . S
C98 C100 1.384 . S
C99 C98 1.377 . S
C99 C105 1.390 . S
C100 H91 0.930 . S
C100 C98 1.384 . S
C100 C101 1.372 . S
C101 C100 1.372 . S
C101 C102 1.400 . S
C101 C106 1.490 . S
C102 H92 0.930 . S
C102 C101 1.400 . S
C102 C105 1.386 . S
H103 C119 0.930 . S
H104 C120 0.931 . S
C105 H93 0.929 . S
C105 C99 1.390 . S
C105 C102 1.386 . S
C106 C101 1.490 . S
C106 C108 1.395 . S
C106 C109 1.403 . S
H107 C113 0.930 . S
C108 H94 0.930 . S
C108 C106 1.395 . S
C108 C111 1.403 . S
C109 C106 1.403 . S
C109 C110 1.524 . S
C109 C113 1.400 . S
C110 H95 0.960 . S
C110 H96 0.960 . S
C110 H97 0.960 . S
C110 C109 1.524 . S
C111 C108 1.403 . S
C111 C112 1.392 . S
C111 C115 1.495 . S
C112 C111 1.392 . S
C112 C113 1.385 . S
C112 C114 1.478 . S
C113 H107 0.930 . S
C113 C109 1.400 . S
C113 C112 1.385 . S
C114 C112 1.478 . S
C114 C116 1.381 . S
C114 C120 1.383 . S
C115 C111 1.495 . S
C115 H121 0.959 . S
C115 H122 0.961 . S
C115 H123 0.960 . S
C116 C114 1.381 . S
C116 C117 1.394 . S
C116 H124 0.930 . S
C117 C116 1.394 . S
C117 C118 1.383 . S
C117 H125 0.929 . S
C118 C117 1.383 . S
C118 C119 1.377 . S
C119 H103 0.930 . S
C119 C118 1.377 . S
C119 C120 1.379 . S
C120 H104 0.931 . S
C120 C114 1.383 . S
C120 C119 1.379 . S
H121 C115 0.959 . S
H122 C115 0.961 . S
H123 C115 0.960 . S
H124 C116 0.930 . S
H125 C117 0.929 . S
H126 C134 0.929 . S
H127 C136 0.930 . S
H128 C138 0.930 . S
H129 C141 0.929 . S
H130 C144 0.930 . S
H131 C146 0.960 . S
H132 C146 0.960 . S
H133 C146 0.960 . S
C134 H126 0.929 . S
C134 C135 1.377 . S
C134 C136 1.384 . S
C135 C134 1.377 . S
C135 C141 1.390 . S
C136 H127 0.930 . S
C136 C134 1.384 . S
C136 C137 1.372 . S
C137 C136 1.372 . S
C137 C138 1.400 . S
C137 C142 1.490 . S
C138 H128 0.930 . S
C138 C137 1.400 . S
C138 C141 1.386 . S
H139 C155 0.930 . S
H140 C156 0.931 . S
C141 H129 0.929 . S
C141 C135 1.390 . S
C141 C138 1.386 . S
C142 C137 1.490 . S
C142 C144 1.395 1_554 S
C142 C145 1.403 . S
H143 C149 0.930 . S
C144 H130 0.930 . S
C144 C142 1.395 1_556 S
C144 C147 1.403 . S
C145 C142 1.403 . S
C145 C146 1.524 . S
C145 C149 1.400 . S
C146 H131 0.960 . S
C146 H132 0.960 . S
C146 H133 0.960 . S
C146 C145 1.524 . S
C147 C144 1.403 . S
C147 C148 1.392 1_556 S
C147 C151 1.495 . S
C148 C147 1.392 1_554 S
C148 C149 1.385 . S
C148 C150 1.478 . S
C149 H143 0.930 . S
C149 C145 1.400 . S
C149 C148 1.385 . S
C150 C148 1.478 . S
C150 C152 1.382 . S
C150 C156 1.383 . S
C151 C147 1.495 . S
C151 H157 0.959 . S
C151 H158 0.961 . S
C151 H159 0.960 . S
C152 C150 1.382 . S
C152 C153 1.394 . S
C152 H160 0.930 1_554 S
C153 C152 1.394 . S
C153 C154 1.383 . S
C153 H161 0.929 1_554 S
C154 C153 1.383 . S
C154 C155 1.377 . S
C155 H139 0.930 . S
C155 C154 1.377 . S
C155 C156 1.379 . S
C156 H140 0.931 . S
C156 C150 1.383 . S
C156 C155 1.379 . S
H157 C151 0.959 . S
H158 C151 0.961 . S
H159 C151 0.960 . S
H160 C152 0.930 1_556 S
H161 C153 0.929 1_556 S
H162 C170 0.929 . S
H163 C172 0.930 . S
H164 C174 0.930 . S
H165 C177 0.929 . S
H166 C180 0.930 . S
H167 C182 0.960 . S
H168 C182 0.960 . S
H169 C182 0.960 . S
C170 H162 0.929 . S
C170 C171 1.377 . S
C170 C172 1.384 . S
C171 C170 1.377 . S
C171 C177 1.390 . S
C172 H163 0.930 . S
C172 C170 1.384 . S
C172 C173 1.372 . S
C173 C172 1.372 . S
C173 C174 1.400 . S
C173 C178 1.490 . S
C174 H164 0.930 . S
C174 C173 1.400 . S
C174 C177 1.386 . S
H175 C191 0.930 . S
H176 C192 0.931 . S
C177 H165 0.929 . S
C177 C171 1.390 . S
C177 C174 1.386 . S
C178 C173 1.490 . S
C178 C180 1.395 . S
C178 C181 1.403 . S
H179 C185 0.930 . S
C180 H166 0.930 . S
C180 C178 1.395 . S
C180 C183 1.403 . S
C181 C178 1.403 . S
C181 C182 1.524 . S
C181 C185 1.400 . S
C182 H167 0.960 . S
C182 H168 0.960 . S
C182 H169 0.960 . S
C182 C181 1.524 . S
C183 C180 1.403 . S
C183 C184 1.392 . S
C183 C187 1.495 . S
C184 C183 1.392 . S
C184 C185 1.385 . S
C184 C186 1.478 . S
C185 H179 0.930 . S
C185 C181 1.400 . S
C185 C184 1.385 . S
C186 C184 1.478 . S
C186 C188 1.381 . S
C186 C192 1.383 . S
C187 C183 1.495 . S
C187 H193 0.959 . S
C187 H194 0.961 . S
C187 H195 0.960 . S
C188 C186 1.381 . S
C188 C189 1.394 . S
C188 H196 0.930 . S
C189 C188 1.394 . S
C189 C190 1.383 . S
C189 H197 0.929 . S
C190 C189 1.383 . S
C190 C191 1.377 . S
C191 H175 0.930 . S
C191 C190 1.377 . S
C191 C192 1.379 . S
C192 H176 0.931 . S
C192 C186 1.383 . S
C192 C191 1.379 . S
H193 C187 0.959 . S
H194 C187 0.961 . S
H195 C187 0.960 . S
H196 C188 0.930 . S
H197 C189 0.929 . S
H198 C206 0.929 . S
H199 C208 0.930 . S
H200 C210 0.936 . S
H201 C213 0.929 1_556 S
H202 C216 0.930 . S
H203 C218 0.960 . S
H204 C218 0.960 1_554 S
H205 C218 0.960 . S
C206 H198 0.929 . S
C206 C207 1.377 . S
C206 C208 1.384 . S
C207 C206 1.377 . S
C207 C213 1.390 . S
C208 H199 0.930 . S
C208 C206 1.384 . S
C208 C209 1.372 . S
C209 C208 1.372 . S
C209 C210 1.394 1_554 S
C209 C214 1.490 . S
C210 H200 0.936 . S
C210 C209 1.394 1_556 S
C210 C213 1.386 1_556 S
H211 C227 0.930 . S
H212 C228 0.931 . S
C213 H201 0.929 1_554 S
C213 C207 1.390 . S
C213 C210 1.386 1_554 S
C214 C209 1.490 . S
C214 C216 1.395 . S
C214 C217 1.403 . S
H215 C221 0.930 1_556 S
C216 H202 0.930 . S
C216 C214 1.395 . S
C216 C219 1.403 . S
C217 C214 1.403 . S
C217 C218 1.524 1_554 S
C217 C221 1.400 . S
C218 H203 0.960 . S
C218 H204 0.960 1_556 S
C218 H205 0.960 . S
C218 C217 1.524 1_556 S
C219 C216 1.403 . S
C219 C220 1.392 . S
C219 C223 1.495 . S
C220 C219 1.392 . S
C220 C221 1.385 . S
C220 C222 1.478 . S
C221 H215 0.930 1_554 S
C221 C217 1.400 . S
C221 C220 1.385 . S
C222 C220 1.478 . S
C222 C224 1.381 . S
C222 C228 1.383 1_554 S
C223 C219 1.495 . S
C223 H229 0.959 . S
C223 H230 0.961 . S
C223 H231 0.960 . S
C224 C222 1.381 . S
C224 C225 1.394 . S
C224 H232 0.930 . S
C225 C224 1.394 . S
C225 C226 1.383 . S
C225 H233 0.929 . S
C226 C225 1.383 . S
C226 C227 1.377 1_554 S
C227 H211 0.930 . S
C227 C226 1.377 1_556 S
C227 C228 1.379 . S
C228 H212 0.931 . S
C228 C222 1.383 1_556 S
C228 C227 1.379 . S
H229 C223 0.959 . S
H230 C223 0.961 . S
H231 C223 0.960 . S
H232 C224 0.930 . S
H233 C225 0.929 . S
H234 C242 0.929 . S
H235 C244 0.930 . S
H236 C246 0.930 . S
H237 C249 0.929 . S
H238 C252 0.930 . S
H239 C254 0.960 . S
H240 C254 0.960 . S
H241 C254 0.960 . S
C242 H234 0.929 . S
C242 C243 1.377 . S
C242 C244 1.384 . S
C243 C242 1.377 . S
C243 C249 1.390 . S
C244 H235 0.930 . S
C244 C242 1.384 . S
C244 C245 1.372 . S
C245 C244 1.372 . S
C245 C246 1.400 . S
C245 C250 1.490 . S
C246 H236 0.930 . S
C246 C245 1.400 . S
C246 C249 1.386 . S
H247 C263 0.930 . S
H248 C264 0.931 . S
C249 H237 0.929 . S
C249 C243 1.390 . S
C249 C246 1.386 . S
C250 C245 1.490 . S
C250 C252 1.395 . S
C250 C253 1.403 . S
H251 C257 0.930 . S
C252 H238 0.930 . S
C252 C250 1.395 . S
C252 C255 1.403 . S
C253 C250 1.403 . S
C253 C254 1.524 . S
C253 C257 1.400 . S
C254 H239 0.960 . S
C254 H240 0.960 . S
C254 H241 0.960 . S
C254 C253 1.524 . S
C255 C252 1.403 . S
C255 C256 1.392 . S
C255 C259 1.495 . S
C256 C255 1.392 . S
C256 C257 1.385 . S
C256 C258 1.478 . S
C257 H251 0.930 . S
C257 C253 1.400 . S
C257 C256 1.385 . S
C258 C256 1.478 . S
C258 C260 1.381 . S
C258 C264 1.383 . S
C259 C255 1.495 . S
C259 H265 0.959 . S
C259 H266 0.961 . S
C259 H267 0.960 . S
C260 C258 1.381 . S
C260 C261 1.394 . S
C260 H268 0.930 . S
C261 C260 1.394 . S
C261 C262 1.383 . S
C261 H269 0.929 . S
C262 C261 1.383 . S
C262 C263 1.377 . S
C263 H247 0.930 . S
C263 C262 1.377 . S
C263 C264 1.379 . S
C264 H248 0.931 . S
C264 C258 1.383 . S
C264 C263 1.379 . S
H265 C259 0.959 . S
H266 C259 0.961 . S
H267 C259 0.960 . S
H268 C260 0.930 . S
H269 C261 0.929 . S
H270 C278 0.929 . S
H271 C280 0.930 . S
H272 C282 0.930 . S
H273 C285 0.929 . S
H274 C288 0.930 . S
H275 C290 0.960 . S
H276 C290 0.960 . S
H277 C290 0.960 . S
C278 H270 0.929 . S
C278 C279 1.377 . S
C278 C280 1.384 . S
C279 C278 1.377 . S
C279 C285 1.390 . S
C280 H271 0.930 . S
C280 C278 1.384 . S
C280 C281 1.372 . S
C281 C280 1.372 . S
C281 C282 1.400 . S
C281 C286 1.490 . S
C282 H272 0.930 . S
C282 C281 1.400 . S
C282 C285 1.386 . S
H283 C299 0.930 . S
H284 C300 0.931 . S
C285 H273 0.929 . S
C285 C279 1.390 . S
C285 C282 1.386 . S
C286 C281 1.490 . S
C286 C288 1.395 . S
C286 C289 1.403 . S
H287 C293 0.930 . S
C288 H274 0.930 . S
C288 C286 1.395 . S
C288 C291 1.403 . S
C289 C286 1.403 . S
C289 C290 1.524 . S
C289 C293 1.400 . S
C290 H275 0.960 . S
C290 H276 0.960 . S
C290 H277 0.960 . S
C290 C289 1.524 . S
C291 C288 1.403 . S
C291 C292 1.392 . S
C291 C295 1.495 . S
C292 C291 1.392 . S
C292 C293 1.385 . S
C292 C294 1.478 . S
C293 H287 0.930 . S
C293 C289 1.400 . S
C293 C292 1.385 . S
C294 C292 1.478 . S
C294 C296 1.381 . S
C294 C300 1.383 . S
C295 C291 1.495 . S
C295 H301 0.959 . S
C295 H302 0.961 . S
C295 H303 0.960 . S
C296 C294 1.381 . S
C296 C297 1.394 . S
C296 H304 0.930 . S
C297 C296 1.394 . S
C297 C298 1.383 . S
C297 H305 0.929 . S
C298 C297 1.383 . S
C298 C299 1.377 . S
C299 H283 0.930 . S
C299 C298 1.377 . S
C299 C300 1.379 . S
C300 H284 0.931 . S
C300 C294 1.383 . S
C300 C299 1.379 . S
H301 C295 0.959 . S
H302 C295 0.961 . S
H303 C295 0.960 . S
H304 C296 0.930 . S
H305 C297 0.929 . S
H306 C314 0.929 . S
H307 C316 0.930 . S
H308 C318 0.930 . S
H309 C321 0.929 . S
H310 C324 0.930 . S
H311 C326 0.960 . S
H312 C326 0.960 . S
H313 C326 0.960 . S
C314 H306 0.929 . S
C314 C315 1.377 . S
C314 C316 1.384 . S
C315 C314 1.377 . S
C315 C321 1.390 . S
C316 H307 0.930 . S
C316 C314 1.384 . S
C316 C317 1.372 . S
C317 C316 1.372 . S
C317 C318 1.400 . S
C317 C322 1.490 . S
C318 H308 0.930 . S
C318 C317 1.400 . S
C318 C321 1.386 . S
H319 C335 0.930 . S
H320 C336 0.931 . S
C321 H309 0.929 . S
C321 C315 1.390 . S
C321 C318 1.386 . S
C322 C317 1.490 . S
C322 C324 1.395 . S
C322 C325 1.403 . S
H323 C329 0.930 . S
C324 H310 0.930 . S
C324 C322 1.395 . S
C324 C327 1.403 . S
C325 C322 1.403 . S
C325 C326 1.524 . S
C325 C329 1.400 . S
C326 H311 0.960 . S
C326 H312 0.960 . S
C326 H313 0.960 . S
C326 C325 1.524 . S
C327 C324 1.403 . S
C327 C328 1.392 . S
C327 C331 1.495 . S
C328 C327 1.392 . S
C328 C329 1.385 . S
C328 C330 1.478 . S
C329 H323 0.930 . S
C329 C325 1.400 . S
C329 C328 1.385 . S
C330 C328 1.478 . S
C330 C332 1.381 . S
C330 C336 1.383 . S
C331 C327 1.495 . S
C331 H337 0.959 . S
C331 H338 0.961 . S
C331 H339 0.960 . S
C332 C330 1.381 . S
C332 C333 1.394 . S
C332 H340 0.930 . S
C333 C332 1.394 . S
C333 C334 1.383 . S
C333 H341 0.929 . S
C334 C333 1.383 . S
C334 C335 1.377 . S
C335 H319 0.930 . S
C335 C334 1.377 . S
C335 C336 1.379 . S
C336 H320 0.931 . S
C336 C330 1.383 . S
C336 C335 1.379 . S
H337 C331 0.959 . S
H338 C331 0.961 . S
H339 C331 0.960 . S
H340 C332 0.930 . S
H341 C333 0.929 . S
H342 C350 0.929 . S
H343 C352 0.930 . S
H344 C354 0.930 . S
H345 C357 0.929 . S
H346 C360 0.930 . S
H347 C362 0.960 . S
H348 C362 0.960 . S
H349 C362 0.960 . S
C350 H342 0.929 . S
C350 C351 1.377 . S
C350 C352 1.384 . S
C351 C350 1.377 . S
C351 C357 1.390 . S
C352 H343 0.930 . S
C352 C350 1.384 . S
C352 C353 1.372 . S
C353 C352 1.372 . S
C353 C354 1.400 . S
C353 C358 1.490 . S
C354 H344 0.930 . S
C354 C353 1.400 . S
C354 C357 1.386 . S
H355 C371 0.930 . S
H356 C372 0.931 . S
C357 H345 0.929 . S
C357 C351 1.390 . S
C357 C354 1.386 . S
C358 C353 1.490 . S
C358 C360 1.395 . S
C358 C361 1.403 . S
H359 C365 0.930 . S
C360 H346 0.930 . S
C360 C358 1.395 . S
C360 C363 1.403 . S
C361 C358 1.403 . S
C361 C362 1.524 . S
C361 C365 1.400 . S
C362 H347 0.960 . S
C362 H348 0.960 . S
C362 H349 0.960 . S
C362 C361 1.524 . S
C363 C360 1.403 . S
C363 C364 1.392 . S
C363 C367 1.495 . S
C364 C363 1.392 . S
C364 C365 1.385 . S
C364 C366 1.478 . S
C365 H359 0.930 . S
C365 C361 1.400 . S
C365 C364 1.385 . S
C366 C364 1.478 . S
C366 C368 1.381 . S
C366 C372 1.383 . S
C367 C363 1.495 . S
C367 H373 0.959 . S
C367 H374 0.961 . S
C367 H375 0.960 . S
C368 C366 1.381 . S
C368 C369 1.394 . S
C368 H376 0.930 . S
C369 C368 1.394 . S
C369 C370 1.383 . S
C369 H377 0.929 . S
C370 C369 1.383 . S
C370 C371 1.377 . S
C371 H355 0.930 . S
C371 C370 1.377 . S
C371 C372 1.379 . S
C372 H356 0.931 . S
C372 C366 1.383 . S
C372 C371 1.379 . S
H373 C367 0.959 . S
H374 C367 0.961 . S
H375 C367 0.960 . S
H376 C368 0.930 . S
H377 C369 0.929 . S
H378 C386 0.929 . S
H379 C388 0.930 . S
H380 C390 0.930 . S
H381 C393 0.929 . S
H382 C396 0.930 . S
H383 C398 0.960 . S
H384 C398 0.960 . S
H385 C398 0.960 . S
C386 H378 0.929 . S
C386 C387 1.377 . S
C386 C388 1.384 . S
C387 C386 1.377 . S
C387 C393 1.390 . S
C388 H379 0.930 . S
C388 C386 1.384 . S
C388 C389 1.372 . S
C389 C388 1.372 . S
C389 C390 1.400 . S
C389 C394 1.490 . S
C390 H380 0.930 . S
C390 C389 1.400 . S
C390 C393 1.386 . S
H391 C407 0.930 . S
H392 C408 0.931 . S
C393 H381 0.929 . S
C393 C387 1.390 . S
C393 C390 1.386 . S
C394 C389 1.490 . S
C394 C396 1.395 . S
C394 C397 1.403 . S
H395 C401 0.930 . S
C396 H382 0.930 . S
C396 C394 1.395 . S
C396 C399 1.403 . S
C397 C394 1.403 . S
C397 C398 1.524 . S
C397 C401 1.400 . S
C398 H383 0.960 . S
C398 H384 0.960 . S
C398 H385 0.960 . S
C398 C397 1.524 . S
C399 C396 1.403 . S
C399 C400 1.392 . S
C399 C403 1.495 . S
C400 C399 1.392 . S
C400 C401 1.385 . S
C400 C402 1.478 . S
C401 H395 0.930 . S
C401 C397 1.400 . S
C401 C400 1.385 . S
C402 C400 1.478 . S
C402 C404 1.381 . S
C402 C408 1.383 . S
C403 C399 1.495 . S
C403 H409 0.959 . S
C403 H410 0.961 . S
C403 H411 0.960 . S
C404 C402 1.381 . S
C404 C405 1.394 . S
C404 H412 0.930 . S
C405 C404 1.394 . S
C405 C406 1.383 . S
C405 H413 0.929 . S
C406 C405 1.383 . S
C406 C407 1.377 . S
C407 H391 0.930 . S
C407 C406 1.377 . S
C407 C408 1.379 . S
C408 H392 0.931 . S
C408 C402 1.383 . S
C408 C407 1.379 . S
H409 C403 0.959 . S
H410 C403 0.961 . S
H411 C403 0.960 . S
H412 C404 0.930 . S
H413 C405 0.929 . S
H414 C422 0.929 . S
H415 C424 0.930 . S
H416 C426 0.930 . S
H417 C429 0.929 . S
H418 C432 0.930 . S
H419 C434 0.960 . S
H420 C434 0.960 . S
H421 C434 0.960 . S
C422 H414 0.929 . S
C422 C423 1.377 . S
C422 C424 1.384 . S
C423 C422 1.377 . S
C423 C429 1.390 . S
C424 H415 0.930 . S
C424 C422 1.384 . S
C424 C425 1.372 . S
C425 C424 1.372 . S
C425 C426 1.400 . S
C425 C430 1.490 . S
C426 H416 0.930 . S
C426 C425 1.400 . S
C426 C429 1.386 . S
H427 C443 0.930 . S
H428 C444 0.931 . S
C429 H417 0.929 . S
C429 C423 1.390 . S
C429 C426 1.386 . S
C430 C425 1.490 . S
C430 C432 1.395 . S
C430 C433 1.403 . S
H431 C437 0.930 . S
C432 H418 0.930 . S
C432 C430 1.395 . S
C432 C435 1.403 . S
C433 C430 1.403 . S
C433 C434 1.524 . S
C433 C437 1.400 . S
C434 H419 0.960 . S
C434 H420 0.960 . S
C434 H421 0.960 . S
C434 C433 1.524 . S
C435 C432 1.403 . S
C435 C436 1.392 . S
C435 C439 1.495 . S
C436 C435 1.392 . S
C436 C437 1.385 . S
C436 C438 1.478 . S
C437 H431 0.930 . S
C437 C433 1.400 . S
C437 C436 1.385 . S
C438 C436 1.478 . S
C438 C440 1.381 . S
C438 C444 1.383 . S
C439 C435 1.495 . S
C439 H445 0.959 . S
C439 H446 0.961 . S
C439 H447 0.960 . S
C440 C438 1.381 . S
C440 C441 1.394 . S
C440 H448 0.930 . S
C441 C440 1.394 . S
C441 C442 1.383 . S
C441 H449 0.929 1_655 S
C442 C441 1.383 . S
C442 C443 1.377 . S
C443 H427 0.930 . S
C443 C442 1.377 . S
C443 C444 1.379 . S
C444 H428 0.931 . S
C444 C438 1.383 . S
C444 C443 1.379 . S
H445 C439 0.959 . S
H446 C439 0.961 . S
H447 C439 0.960 . S
H448 C440 0.930 . S
H449 C441 0.929 1_455 S
H450 C458 0.929 . S
H451 C460 0.930 . S
H452 C462 0.930 . S
H453 C465 0.929 . S
H454 C468 0.930 . S
H455 C470 0.960 . S
H456 C470 0.960 . S
H457 C470 0.960 . S
C458 H450 0.929 . S
C458 C459 1.377 . S
C458 C460 1.384 . S
C459 C458 1.377 . S
C459 C465 1.390 . S
C460 H451 0.930 . S
C460 C458 1.384 . S
C460 C461 1.372 . S
C461 C460 1.372 . S
C461 C462 1.400 . S
C461 C466 1.490 . S
C462 H452 0.930 . S
C462 C461 1.400 . S
C462 C465 1.386 . S
H463 C479 0.930 . S
H464 C480 0.931 . S
C465 H453 0.929 . S
C465 C459 1.390 . S
C465 C462 1.386 . S
C466 C461 1.490 . S
C466 C468 1.395 . S
C466 C469 1.403 . S
H467 C473 0.930 . S
C468 H454 0.930 . S
C468 C466 1.395 . S
C468 C471 1.403 . S
C469 C466 1.403 . S
C469 C470 1.524 . S
C469 C473 1.400 . S
C470 H455 0.960 . S
C470 H456 0.960 . S
C470 H457 0.960 . S
C470 C469 1.524 . S
C471 C468 1.403 . S
C471 C472 1.392 . S
C471 C475 1.495 . S
C472 C471 1.392 . S
C472 C473 1.385 . S
C472 C474 1.478 . S
C473 H467 0.930 . S
C473 C469 1.400 . S
C473 C472 1.385 . S
C474 C472 1.478 . S
C474 C476 1.381 . S
C474 C480 1.383 . S
C475 C471 1.495 . S
C475 H481 0.959 . S
C475 H482 0.961 . S
C475 H483 0.960 . S
C476 C474 1.381 . S
C476 C477 1.394 . S
C476 H484 0.930 . S
C477 C476 1.394 . S
C477 C478 1.383 . S
C477 H485 0.929 . S
C478 C477 1.383 . S
C478 C479 1.377 . S
C479 H463 0.930 . S
C479 C478 1.377 . S
C479 C480 1.379 . S
C480 H464 0.931 . S
C480 C474 1.383 . S
C480 C479 1.379 . S
H481 C475 0.959 . S
H482 C475 0.961 . S
H483 C475 0.960 . S
H484 C476 0.930 . S
H485 C477 0.929 . S
H486 C494 0.929 . S
H487 C496 0.930 . S
H488 C498 0.930 . S
H489 C501 0.929 . S
H490 C504 0.930 . S
H491 C506 0.960 . S
H492 C506 0.960 . S
H493 C506 0.960 . S
C494 H486 0.929 . S
C494 C495 1.377 . S
C494 C496 1.384 . S
C495 C494 1.377 . S
C495 C501 1.390 . S
C496 H487 0.930 . S
C496 C494 1.384 . S
C496 C497 1.372 . S
C497 C496 1.372 . S
C497 C498 1.400 . S
C497 C502 1.490 . S
C498 H488 0.930 . S
C498 C497 1.400 . S
C498 C501 1.386 . S
H499 C515 0.930 . S
H500 C516 0.931 . S
C501 H489 0.929 . S
C501 C495 1.390 . S
C501 C498 1.386 . S
C502 C497 1.490 . S
C502 C504 1.395 . S
C502 C505 1.403 . S
H503 C509 0.930 . S
C504 H490 0.930 . S
C504 C502 1.395 . S
C504 C507 1.403 . S
C505 C502 1.403 . S
C505 C506 1.524 . S
C505 C509 1.400 . S
C506 H491 0.960 . S
C506 H492 0.960 . S
C506 H493 0.960 . S
C506 C505 1.524 . S
C507 C504 1.403 . S
C507 C508 1.392 . S
C507 C511 1.495 . S
C508 C507 1.392 . S
C508 C509 1.385 . S
C508 C510 1.478 . S
C509 H503 0.930 . S
C509 C505 1.400 . S
C509 C508 1.385 . S
C510 C508 1.478 . S
C510 C512 1.381 . S
C510 C516 1.383 . S
C511 C507 1.495 . S
C511 H517 0.959 . S
C511 H518 0.961 . S
C511 H519 0.960 . S
C512 C510 1.381 . S
C512 C513 1.394 . S
C512 H520 0.930 . S
C513 C512 1.394 . S
C513 C514 1.383 . S
C513 H521 0.929 . S
C514 C513 1.383 . S
C514 C515 1.377 . S
C515 H499 0.930 . S
C515 C514 1.377 . S
C515 C516 1.379 . S
C516 H500 0.931 . S
C516 C510 1.383 . S
C516 C515 1.379 . S
H517 C511 0.959 . S
H518 C511 0.961 . S
H519 C511 0.960 . S
H520 C512 0.930 . S
H521 C513 0.929 . S
C118 C61 1.518 . S
C99 C41 1.499 . S
C135 C8 1.490 . S
C154 C84 1.507 . S
C171 C19 1.523 . S
C190 C60 1.541 . S
C207 C30 1.558 . S
C226 C83 1.550 . S
C262 C64 1.480 . S
C243 C5 1.263 . S
C298 C86 1.635 . S
C279 C18 1.627 . S
C315 C29 1.569 . S
C334 C65 1.498 . S
C351 C40 1.593 . S
C370 C85 1.567 . S
C406 C88 1.282 . S
C387 C16 1.109 . S
C442 C63 1.360 . S
C423 C27 1.266 . S
C478 C87 1.264 . S
C459 C38 1.083 . S
C495 C7 1.380 . S
C514 C62 1.341 . S
