# Generated by pormake.
# Topology gar, (4,6)-cn, num edge types: 1
# Building blocks:
#     Node 0, Type 0, BuildingBlock: QUQFOY_clean_sbu_1, # of connection points: 4
#     Node 1, Type 0, BuildingBlock: QUQFOY_clean_sbu_1, # of connection points: 4
#     Node 2, Type 0, BuildingBlock: QUQFOY_clean_sbu_1, # of connection points: 4
#     Node 3, Type 0, BuildingBlock: QUQFOY_clean_sbu_1, # of connection points: 4
#     Node 4, Type 0, BuildingBlock: QUQFOY_clean_sbu_1, # of connection points: 4
#     Node 5, Type 0, BuildingBlock: QUQFOY_clean_sbu_1, # of connection points: 4
#     Node 6, Type 0, BuildingBlock: QUQFOY_clean_sbu_1, # of connection points: 4
#     Node 7, Type 0, BuildingBlock: QUQFOY_clean_sbu_1, # of connection points: 4
#     Node 8, Type 0, BuildingBlock: QUQFOY_clean_sbu_1, # of connection points: 4
#     Node 9, Type 0, BuildingBlock: QUQFOY_clean_sbu_1, # of connection points: 4
#     Node 10, Type 0, BuildingBlock: QUQFOY_clean_sbu_1, # of connection points: 4
#     Node 11, Type 0, BuildingBlock: QUQFOY_clean_sbu_1, # of connection points: 4
#     Node 12, Type 0, BuildingBlock: QUQFOY_clean_sbu_1, # of connection points: 4
#     Node 13, Type 0, BuildingBlock: QUQFOY_clean_sbu_1, # of connection points: 4
#     Node 14, Type 0, BuildingBlock: QUQFOY_clean_sbu_1, # of connection points: 4
#     Node 15, Type 0, BuildingBlock: QUQFOY_clean_sbu_1, # of connection points: 4
#     Node 16, Type 0, BuildingBlock: QUQFOY_clean_sbu_1, # of connection points: 4
#     Node 17, Type 0, BuildingBlock: QUQFOY_clean_sbu_1, # of connection points: 4
#     Node 18, Type 0, BuildingBlock: QUQFOY_clean_sbu_1, # of connection points: 4
#     Node 19, Type 0, BuildingBlock: QUQFOY_clean_sbu_1, # of connection points: 4
#     Node 20, Type 0, BuildingBlock: QUQFOY_clean_sbu_1, # of connection points: 4
#     Node 21, Type 0, BuildingBlock: QUQFOY_clean_sbu_1, # of connection points: 4
#     Node 22, Type 0, BuildingBlock: QUQFOY_clean_sbu_1, # of connection points: 4
#     Node 23, Type 0, BuildingBlock: QUQFOY_clean_sbu_1, # of connection points: 4
#     Node 24, Type 1, BuildingBlock: MIFKUJ_clean_sbu_0, # of connection points: 6
#     Node 25, Type 1, BuildingBlock: MIFKUJ_clean_sbu_0, # of connection points: 6
#     Node 26, Type 1, BuildingBlock: MIFKUJ_clean_sbu_0, # of connection points: 6
#     Node 27, Type 1, BuildingBlock: MIFKUJ_clean_sbu_0, # of connection points: 6
#     Node 28, Type 1, BuildingBlock: MIFKUJ_clean_sbu_0, # of connection points: 6
#     Node 29, Type 1, BuildingBlock: MIFKUJ_clean_sbu_0, # of connection points: 6
#     Node 30, Type 1, BuildingBlock: MIFKUJ_clean_sbu_0, # of connection points: 6
#     Node 31, Type 1, BuildingBlock: MIFKUJ_clean_sbu_0, # of connection points: 6
#     Node 32, Type 1, BuildingBlock: MIFKUJ_clean_sbu_0, # of connection points: 6
#     Node 33, Type 1, BuildingBlock: MIFKUJ_clean_sbu_0, # of connection points: 6
#     Node 34, Type 1, BuildingBlock: MIFKUJ_clean_sbu_0, # of connection points: 6
#     Node 35, Type 1, BuildingBlock: MIFKUJ_clean_sbu_0, # of connection points: 6
#     Node 36, Type 1, BuildingBlock: MIFKUJ_clean_sbu_0, # of connection points: 6
#     Node 37, Type 1, BuildingBlock: MIFKUJ_clean_sbu_0, # of connection points: 6
#     Node 38, Type 1, BuildingBlock: MIFKUJ_clean_sbu_0, # of connection points: 6
#     Node 39, Type 1, BuildingBlock: MIFKUJ_clean_sbu_0, # of connection points: 6
#     Edge 40, Type (0, 1), BuildingBlock: KIFKEQ_clean_linker_1, # of connection points: 2
#     Edge 41, Type (0, 1), BuildingBlock: KIFKEQ_clean_linker_1, # of connection points: 2
#     Edge 42, Type (0, 1), BuildingBlock: KIFKEQ_clean_linker_1, # of connection points: 2
#     Edge 43, Type (0, 1), BuildingBlock: KIFKEQ_clean_linker_1, # of connection points: 2
#     Edge 44, Type (0, 1), BuildingBlock: KIFKEQ_clean_linker_1, # of connection points: 2
#     Edge 45, Type (0, 1), BuildingBlock: KIFKEQ_clean_linker_1, # of connection points: 2
#     Edge 46, Type (0, 1), BuildingBlock: KIFKEQ_clean_linker_1, # of connection points: 2
#     Edge 47, Type (0, 1), BuildingBlock: KIFKEQ_clean_linker_1, # of connection points: 2
#     Edge 48, Type (0, 1), BuildingBlock: KIFKEQ_clean_linker_1, # of connection points: 2
#     Edge 49, Type (0, 1), BuildingBlock: KIFKEQ_clean_linker_1, # of connection points: 2
#     Edge 50, Type (0, 1), BuildingBlock: KIFKEQ_clean_linker_1, # of connection points: 2
#     Edge 51, Type (0, 1), BuildingBlock: KIFKEQ_clean_linker_1, # of connection points: 2
#     Edge 52, Type (0, 1), BuildingBlock: KIFKEQ_clean_linker_1, # of connection points: 2
#     Edge 53, Type (0, 1), BuildingBlock: KIFKEQ_clean_linker_1, # of connection points: 2
#     Edge 54, Type (0, 1), BuildingBlock: KIFKEQ_clean_linker_1, # of connection points: 2
#     Edge 55, Type (0, 1), BuildingBlock: KIFKEQ_clean_linker_1, # of connection points: 2
#     Edge 56, Type (0, 1), BuildingBlock: KIFKEQ_clean_linker_1, # of connection points: 2
#     Edge 57, Type (0, 1), BuildingBlock: KIFKEQ_clean_linker_1, # of connection points: 2
#     Edge 58, Type (0, 1), BuildingBlock: KIFKEQ_clean_linker_1, # of connection points: 2
#     Edge 59, Type (0, 1), BuildingBlock: KIFKEQ_clean_linker_1, # of connection points: 2
#     Edge 60, Type (0, 1), BuildingBlock: KIFKEQ_clean_linker_1, # of connection points: 2
#     Edge 61, Type (0, 1), BuildingBlock: KIFKEQ_clean_linker_1, # of connection points: 2
#     Edge 62, Type (0, 1), BuildingBlock: KIFKEQ_clean_linker_1, # of connection points: 2
#     Edge 63, Type (0, 1), BuildingBlock: KIFKEQ_clean_linker_1, # of connection points: 2
#     Edge 64, Type (0, 1), BuildingBlock: KIFKEQ_clean_linker_1, # of connection points: 2
#     Edge 65, Type (0, 1), BuildingBlock: KIFKEQ_clean_linker_1, # of connection points: 2
#     Edge 66, Type (0, 1), BuildingBlock: KIFKEQ_clean_linker_1, # of connection points: 2
#     Edge 67, Type (0, 1), BuildingBlock: KIFKEQ_clean_linker_1, # of connection points: 2
#     Edge 68, Type (0, 1), BuildingBlock: KIFKEQ_clean_linker_1, # of connection points: 2
#     Edge 69, Type (0, 1), BuildingBlock: KIFKEQ_clean_linker_1, # of connection points: 2
#     Edge 70, Type (0, 1), BuildingBlock: KIFKEQ_clean_linker_1, # of connection points: 2
#     Edge 71, Type (0, 1), BuildingBlock: KIFKEQ_clean_linker_1, # of connection points: 2
#     Edge 72, Type (0, 1), BuildingBlock: KIFKEQ_clean_linker_1, # of connection points: 2
#     Edge 73, Type (0, 1), BuildingBlock: KIFKEQ_clean_linker_1, # of connection points: 2
#     Edge 74, Type (0, 1), BuildingBlock: KIFKEQ_clean_linker_1, # of connection points: 2
#     Edge 75, Type (0, 1), BuildingBlock: KIFKEQ_clean_linker_1, # of connection points: 2
#     Edge 76, Type (0, 1), BuildingBlock: KIFKEQ_clean_linker_1, # of connection points: 2
#     Edge 77, Type (0, 1), BuildingBlock: KIFKEQ_clean_linker_1, # of connection points: 2
#     Edge 78, Type (0, 1), BuildingBlock: KIFKEQ_clean_linker_1, # of connection points: 2
#     Edge 79, Type (0, 1), BuildingBlock: KIFKEQ_clean_linker_1, # of connection points: 2
#     Edge 80, Type (0, 1), BuildingBlock: KIFKEQ_clean_linker_1, # of connection points: 2
#     Edge 81, Type (0, 1), BuildingBlock: KIFKEQ_clean_linker_1, # of connection points: 2
#     Edge 82, Type (0, 1), BuildingBlock: KIFKEQ_clean_linker_1, # of connection points: 2
#     Edge 83, Type (0, 1), BuildingBlock: KIFKEQ_clean_linker_1, # of connection points: 2
#     Edge 84, Type (0, 1), BuildingBlock: KIFKEQ_clean_linker_1, # of connection points: 2
#     Edge 85, Type (0, 1), BuildingBlock: KIFKEQ_clean_linker_1, # of connection points: 2
#     Edge 86, Type (0, 1), BuildingBlock: KIFKEQ_clean_linker_1, # of connection points: 2
#     Edge 87, Type (0, 1), BuildingBlock: KIFKEQ_clean_linker_1, # of connection points: 2
#     Edge 88, Type (0, 1), BuildingBlock: KIFKEQ_clean_linker_1, # of connection points: 2
#     Edge 89, Type (0, 1), BuildingBlock: KIFKEQ_clean_linker_1, # of connection points: 2
#     Edge 90, Type (0, 1), BuildingBlock: KIFKEQ_clean_linker_1, # of connection points: 2
#     Edge 91, Type (0, 1), BuildingBlock: KIFKEQ_clean_linker_1, # of connection points: 2
#     Edge 92, Type (0, 1), BuildingBlock: KIFKEQ_clean_linker_1, # of connection points: 2
#     Edge 93, Type (0, 1), BuildingBlock: KIFKEQ_clean_linker_1, # of connection points: 2
#     Edge 94, Type (0, 1), BuildingBlock: KIFKEQ_clean_linker_1, # of connection points: 2
#     Edge 95, Type (0, 1), BuildingBlock: KIFKEQ_clean_linker_1, # of connection points: 2
#     Edge 96, Type (0, 1), BuildingBlock: KIFKEQ_clean_linker_1, # of connection points: 2
#     Edge 97, Type (0, 1), BuildingBlock: KIFKEQ_clean_linker_1, # of connection points: 2
#     Edge 98, Type (0, 1), BuildingBlock: KIFKEQ_clean_linker_1, # of connection points: 2
#     Edge 99, Type (0, 1), BuildingBlock: KIFKEQ_clean_linker_1, # of connection points: 2
#     Edge 100, Type (0, 1), BuildingBlock: KIFKEQ_clean_linker_1, # of connection points: 2
#     Edge 101, Type (0, 1), BuildingBlock: KIFKEQ_clean_linker_1, # of connection points: 2
#     Edge 102, Type (0, 1), BuildingBlock: KIFKEQ_clean_linker_1, # of connection points: 2
#     Edge 103, Type (0, 1), BuildingBlock: KIFKEQ_clean_linker_1, # of connection points: 2
#     Edge 104, Type (0, 1), BuildingBlock: KIFKEQ_clean_linker_1, # of connection points: 2
#     Edge 105, Type (0, 1), BuildingBlock: KIFKEQ_clean_linker_1, # of connection points: 2
#     Edge 106, Type (0, 1), BuildingBlock: KIFKEQ_clean_linker_1, # of connection points: 2
#     Edge 107, Type (0, 1), BuildingBlock: KIFKEQ_clean_linker_1, # of connection points: 2
#     Edge 108, Type (0, 1), BuildingBlock: KIFKEQ_clean_linker_1, # of connection points: 2
#     Edge 109, Type (0, 1), BuildingBlock: KIFKEQ_clean_linker_1, # of connection points: 2
#     Edge 110, Type (0, 1), BuildingBlock: KIFKEQ_clean_linker_1, # of connection points: 2
#     Edge 111, Type (0, 1), BuildingBlock: KIFKEQ_clean_linker_1, # of connection points: 2
#     Edge 112, Type (0, 1), BuildingBlock: KIFKEQ_clean_linker_1, # of connection points: 2
#     Edge 113, Type (0, 1), BuildingBlock: KIFKEQ_clean_linker_1, # of connection points: 2
#     Edge 114, Type (0, 1), BuildingBlock: KIFKEQ_clean_linker_1, # of connection points: 2
#     Edge 115, Type (0, 1), BuildingBlock: KIFKEQ_clean_linker_1, # of connection points: 2
#     Edge 116, Type (0, 1), BuildingBlock: KIFKEQ_clean_linker_1, # of connection points: 2
#     Edge 117, Type (0, 1), BuildingBlock: KIFKEQ_clean_linker_1, # of connection points: 2
#     Edge 118, Type (0, 1), BuildingBlock: KIFKEQ_clean_linker_1, # of connection points: 2
#     Edge 119, Type (0, 1), BuildingBlock: KIFKEQ_clean_linker_1, # of connection points: 2
#     Edge 120, Type (0, 1), BuildingBlock: KIFKEQ_clean_linker_1, # of connection points: 2
#     Edge 121, Type (0, 1), BuildingBlock: KIFKEQ_clean_linker_1, # of connection points: 2
#     Edge 122, Type (0, 1), BuildingBlock: KIFKEQ_clean_linker_1, # of connection points: 2
#     Edge 123, Type (0, 1), BuildingBlock: KIFKEQ_clean_linker_1, # of connection points: 2
#     Edge 124, Type (0, 1), BuildingBlock: KIFKEQ_clean_linker_1, # of connection points: 2
#     Edge 125, Type (0, 1), BuildingBlock: KIFKEQ_clean_linker_1, # of connection points: 2
#     Edge 126, Type (0, 1), BuildingBlock: KIFKEQ_clean_linker_1, # of connection points: 2
#     Edge 127, Type (0, 1), BuildingBlock: KIFKEQ_clean_linker_1, # of connection points: 2
#     Edge 128, Type (0, 1), BuildingBlock: KIFKEQ_clean_linker_1, # of connection points: 2
#     Edge 129, Type (0, 1), BuildingBlock: KIFKEQ_clean_linker_1, # of connection points: 2
#     Edge 130, Type (0, 1), BuildingBlock: KIFKEQ_clean_linker_1, # of connection points: 2
#     Edge 131, Type (0, 1), BuildingBlock: KIFKEQ_clean_linker_1, # of connection points: 2
#     Edge 132, Type (0, 1), BuildingBlock: KIFKEQ_clean_linker_1, # of connection points: 2
#     Edge 133, Type (0, 1), BuildingBlock: KIFKEQ_clean_linker_1, # of connection points: 2
#     Edge 134, Type (0, 1), BuildingBlock: KIFKEQ_clean_linker_1, # of connection points: 2
#     Edge 135, Type (0, 1), BuildingBlock: KIFKEQ_clean_linker_1, # of connection points: 2
# Relax obj value: 0.116
# Max RMSD: 0.291
# Mean RMSD: 0.169
data_MOF--net-gar--node1-QUQFOY_clean_sbu_1--node2-MIFKUJ_clean_sbu_0--edge1-KIFKEQ_clean_linker_1
_symmetry_space_group_name_H-M    P1
_symmetry_Int_Tables_number       1
_symmetry_cell_setting            triclinic
loop_
_symmetry_equiv_pos_as_xyz
'x, y, z'
_cell_length_a     58.521453
_cell_length_b     58.493357
_cell_length_c     56.278639
_cell_angle_alpha  95.094404
_cell_angle_beta   95.04301
_cell_angle_gamma 101.69882
loop_
_atom_site_label
_atom_site_type_symbol
_atom_site_fract_x
_atom_site_fract_y
_atom_site_fract_z
_atom_type_partial_charge
O0 O 0.01682 0.22313 0.3995 0.0
Cd1 Cd 0.02 0.24874 0.37654 0.0
Cd2 Cd 0.00811 0.27453 0.41899 0.0
O3 O 0.01158 0.24364 0.43273 0.0
O4 O 0.03696 0.23683 0.3505 0.0
O5 O 0.05206 0.26865 0.3757 0.0
C6 C 0.05452 0.25384 0.35812 0.0
C7 C 0.01636 0.30855 0.44639 0.0
C8 C 0.01433 0.22461 0.42175 0.0
C9 C 0.97635 0.26746 0.37101 0.0
O10 O 0.98072 0.27469 0.39324 0.0
O11 O 0.99012 0.25686 0.36037 0.0
O12 O 0.99818 0.29207 0.44681 0.0
O13 O 0.03062 0.30546 0.43073 0.0
O14 O 0.98522 0.70216 0.6358 0.0
Cd15 Cd 0.99363 0.73138 0.66098 0.0
Cd16 Cd 0.01065 0.7531 0.62399 0.0
O17 O 0.99732 0.72051 0.60517 0.0
O18 O 0.97196 0.72706 0.68649 0.0
O19 O 0.97294 0.7549 0.66215 0.0
C20 C 0.96386 0.74463 0.67958 0.0
C21 C 0.00609 0.78652 0.60578 0.0
C22 C 0.98837 0.70174 0.61369 0.0
C23 C 0.04515 0.74988 0.66637 0.0
O24 O 0.04162 0.75659 0.64574 0.0
O25 O 0.02802 0.73964 0.67661 0.0
O26 O 0.0199 0.77352 0.59841 0.0
O27 O 0.99433 0.78029 0.62336 0.0
O28 O 0.56915 0.76332 0.88791 0.0
Cd29 Cd 0.54737 0.76532 0.91474 0.0
Cd30 Cd 0.52171 0.78138 0.87707 0.0
O31 O 0.54756 0.77263 0.85761 0.0
O32 O 0.55994 0.7473 0.93925 0.0
O33 O 0.5238 0.7367 0.92083 0.0
C34 C 0.53998 0.73266 0.93604 0.0
C35 C 0.4829 0.77251 0.85926 0.0
C36 C 0.56591 0.76623 0.86584 0.0
C37 C 0.5388 0.81386 0.92341 0.0
O38 O 0.52947 0.81082 0.90178 0.0
O39 O 0.54665 0.79754 0.93259 0.0
O40 O 0.49831 0.78926 0.85294 0.0
O41 O 0.48974 0.76012 0.8753 0.0
O42 O 0.48688 0.19686 0.1301 0.0
Cd43 Cd 0.49575 0.22776 0.15319 0.0
Cd44 Cd 0.5119 0.24508 0.11409 0.0
O45 O 0.4952 0.21272 0.09694 0.0
O46 O 0.47605 0.22461 0.18045 0.0
O47 O 0.47359 0.2499 0.15379 0.0
C48 C 0.46642 0.2409 0.17267 0.0
C49 C 0.50727 0.27953 0.09807 0.0
C50 C 0.48753 0.19481 0.10746 0.0
C51 C 0.54752 0.24335 0.15549 0.0
O52 O 0.54369 0.24623 0.1335 0.0
O53 O 0.53047 0.23766 0.16783 0.0
O54 O 0.51934 0.26585 0.0883 0.0
O55 O 0.49722 0.2733 0.11671 0.0
O56 O 0.01953 0.73229 0.14387 0.0
Cd57 Cd 0.02317 0.76377 0.16485 0.0
Cd58 Cd 0.04386 0.78035 0.12717 0.0
O59 O 0.03528 0.7457 0.11232 0.0
O60 O 0.00332 0.75537 0.19105 0.0
O61 O 0.99599 0.78001 0.16524 0.0
C62 C 0.99015 0.7689 0.18336 0.0
C63 C 0.02994 0.80931 0.10804 0.0
C64 C 0.0256 0.72862 0.12297 0.0
C65 C 0.07434 0.78724 0.1739 0.0
O66 O 0.07357 0.78972 0.15162 0.0
O67 O 0.05586 0.77815 0.18283 0.0
O68 O 0.04688 0.8006 0.10041 0.0
O69 O 0.02072 0.80139 0.12653 0.0
O70 O 0.54765 0.74811 0.38227 0.0
Cd71 Cd 0.51906 0.74364 0.40179 0.0
Cd72 Cd 0.49948 0.75785 0.35935 0.0
O73 O 0.52998 0.7522 0.34711 0.0
O74 O 0.52923 0.72766 0.42941 0.0
O75 O 0.49983 0.71111 0.40183 0.0
C76 C 0.5131 0.7096 0.42099 0.0
C77 C 0.46526 0.74879 0.33267 0.0
C78 C 0.54817 0.75006 0.35999 0.0
C79 C 0.50333 0.78896 0.40583 0.0
O80 O 0.50112 0.78711 0.38307 0.0
O81 O 0.50847 0.7725 0.41708 0.0
O82 O 0.48221 0.76605 0.33051 0.0
O83 O 0.46808 0.7358 0.34964 0.0
O84 O 0.52611 0.2386 0.65324 0.0
Cd85 Cd 0.52889 0.27041 0.67337 0.0
Cd86 Cd 0.54752 0.28593 0.63457 0.0
O87 O 0.5359 0.25176 0.61926 0.0
O88 O 0.51003 0.26217 0.70041 0.0
O89 O 0.50053 0.28509 0.67368 0.0
C90 C 0.49572 0.27444 0.69235 0.0
C91 C 0.53558 0.31645 0.61664 0.0
C92 C 0.52905 0.23475 0.63126 0.0
C93 C 0.58013 0.2919 0.67982 0.0
O94 O 0.57849 0.2926 0.65721 0.0
O95 O 0.56181 0.28559 0.69022 0.0
O96 O 0.55099 0.30614 0.60788 0.0
O97 O 0.52682 0.30932 0.63567 0.0
O98 O 0.01279 0.20941 0.88641 0.0
Cd99 Cd 0.01118 0.2366 0.8658 0.0
Cd100 Cd 0.99437 0.25376 0.90589 0.0
O101 O 0.0057 0.22642 0.92078 0.0
O102 O 0.03018 0.23134 0.83905 0.0
O103 O 0.04019 0.26202 0.8667 0.0
C104 C 0.04487 0.25038 0.84778 0.0
C105 C 0.00407 0.2918 0.92541 0.0
C106 C 0.01132 0.20932 0.90881 0.0
C107 C 0.96181 0.24262 0.85986 0.0
O108 O 0.96389 0.24695 0.88258 0.0
O109 O 0.97927 0.23929 0.84919 0.0
O110 O 0.98839 0.27581 0.93257 0.0
O111 O 0.0151 0.28584 0.90772 0.0
O112 O 0.40051 0.02124 0.23859 0.0
Cd113 Cd 0.37689 0.02158 0.26337 0.0
Cd114 Cd 0.41521 0.01325 0.29354 0.0
O115 O 0.43093 0.01654 0.26229 0.0
O116 O 0.35135 0.03398 0.24671 0.0
O117 O 0.37332 0.05232 0.27961 0.0
C118 C 0.35663 0.05184 0.26281 0.0
C119 C 0.43941 0.02836 0.32916 0.0
C120 C 0.42174 0.01924 0.24172 0.0
C121 C 0.3693 0.97687 0.28648 0.0
O122 O 0.39057 0.98293 0.29563 0.0
O123 O 0.36033 0.99012 0.27345 0.0
O124 O 0.44204 0.00997 0.31629 0.0
O125 O 0.42292 0.03856 0.32179 0.0
O126 O 0.27405 0.1451 0.53559 0.0
Cd127 Cd 0.2699 0.11973 0.50675 0.0
Cd128 Cd 0.24962 0.15442 0.4858 0.0
O129 O 0.25823 0.17236 0.51994 0.0
O130 O 0.28795 0.09715 0.51969 0.0
O131 O 0.29722 0.11574 0.48831 0.0
C132 C 0.30173 0.10131 0.50326 0.0
C133 C 0.25674 0.17479 0.45209 0.0
C134 C 0.26809 0.16485 0.53783 0.0
C135 C 0.21879 0.10606 0.48776 0.0
O136 O 0.22073 0.12677 0.48174 0.0
O137 O 0.2365 0.09953 0.49746 0.0
O138 O 0.23973 0.17711 0.46454 0.0
O139 O 0.27024 0.16115 0.45903 0.0
O140 O 0.13544 0.00063 0.74415 0.0
Cd141 Cd 0.16052 0.00495 0.77325 0.0
Cd142 Cd 0.12433 0.02368 0.79444 0.0
O143 O 0.10703 0.01428 0.7601 0.0
O144 O 0.18418 0.98828 0.76009 0.0
O145 O 0.16488 0.97686 0.79037 0.0
C146 C 0.17976 0.97341 0.77549 0.0
C147 C 0.10349 0.01475 0.82759 0.0
C148 C 0.11518 0.00545 0.74205 0.0
C149 C 0.17177 0.05632 0.79298 0.0
O150 O 0.15084 0.05365 0.79858 0.0
O151 O 0.1792 0.03895 0.78365 0.0
O152 O 0.09974 0.03108 0.81478 0.0
O153 O 0.11911 0.00321 0.82154 0.0
O154 O 0.24257 0.875 0.04661 0.0
Cd155 Cd 0.24671 0.89778 0.02065 0.0
Cd156 Cd 0.25219 0.85783 0.99424 0.0
O157 O 0.24278 0.84233 0.02392 0.0
O158 O 0.23588 0.92553 0.03481 0.0
O159 O 0.21792 0.90313 0.00199 0.0
C160 C 0.21871 0.92067 0.01794 0.0
C161 C 0.2367 0.83737 0.95724 0.0
C162 C 0.24074 0.8529 0.044 0.0
C163 C 0.29353 0.8985 0.00318 0.0
O164 O 0.28605 0.8768 0.9962 0.0
O165 O 0.28007 0.91072 0.01202 0.0
O166 O 0.2514 0.82989 0.97132 0.0
O167 O 0.23044 0.8566 0.96418 0.0
O168 O 0.256 0.3808 0.07911 0.0
Cd169 Cd 0.26011 0.40518 0.05446 0.0
Cd170 Cd 0.27156 0.36771 0.02648 0.0
O171 O 0.26119 0.35036 0.0556 0.0
O172 O 0.24188 0.42951 0.0631 0.0
O173 O 0.23306 0.40496 0.02973 0.0
C174 C 0.22844 0.42208 0.04335 0.0
C175 C 0.26293 0.34792 0.98767 0.0
C176 C 0.25648 0.35911 0.07565 0.0
C177 C 0.30835 0.41349 0.03953 0.0
O178 O 0.30276 0.39231 0.03001 0.0
O179 O 0.29367 0.42267 0.05027 0.0
O180 O 0.27823 0.34283 0.00305 0.0
O181 O 0.25148 0.36351 0.99473 0.0
O182 O 0.7942 0.14122 0.07289 0.0
Cd183 Cd 0.78252 0.11588 0.04414 0.0
Cd184 Cd 0.76949 0.15114 0.0217 0.0
O185 O 0.78275 0.16937 0.05457 0.0
O186 O 0.80085 0.0909 0.04559 0.0
O187 O 0.80183 0.11442 0.01668 0.0
C188 C 0.80885 0.09725 0.02598 0.0
C189 C 0.77572 0.17306 0.98935 0.0
C190 C 0.79211 0.16244 0.07305 0.0
C191 C 0.732 0.1084 0.02732 0.0
O192 O 0.73765 0.12778 0.01858 0.0
O193 O 0.74739 0.10022 0.03918 0.0
O194 O 0.76113 0.17684 0.00427 0.0
O195 O 0.78694 0.15655 0.99269 0.0
O196 O 0.12855 0.47703 0.21617 0.0
Cd197 Cd 0.15483 0.48894 0.24393 0.0
Cd198 Cd 0.12051 0.5027 0.26763 0.0
O199 O 0.10122 0.48921 0.23532 0.0
O200 O 0.17968 0.47073 0.24105 0.0
O201 O 0.15768 0.46975 0.27129 0.0
C202 C 0.17436 0.46278 0.26099 0.0
C203 C 0.09944 0.49855 0.30081 0.0
C204 C 0.10749 0.47944 0.21665 0.0
C205 C 0.16324 0.53948 0.26015 0.0
O206 O 0.14431 0.53408 0.26972 0.0
O207 O 0.17082 0.52392 0.24787 0.0
O208 O 0.09577 0.5127 0.28539 0.0
O209 O 0.11525 0.48644 0.29741 0.0
O210 O 0.75965 0.87841 0.58452 0.0
Cd211 Cd 0.76416 0.9017 0.55892 0.0
Cd212 Cd 0.77712 0.86395 0.53375 0.0
O213 O 0.76788 0.84771 0.56391 0.0
O214 O 0.74537 0.92574 0.56645 0.0
O215 O 0.73735 0.9004 0.53365 0.0
C216 C 0.73216 0.91755 0.54672 0.0
C217 C 0.76675 0.8439 0.49521 0.0
C218 C 0.76162 0.85708 0.58289 0.0
C219 C 0.81265 0.91059 0.54453 0.0
O220 O 0.80774 0.88914 0.53588 0.0
O221 O 0.7976 0.91961 0.55481 0.0
O222 O 0.78276 0.83891 0.50985 0.0
O223 O 0.75558 0.8595 0.50296 0.0
O224 O 0.8935 0.01818 0.20293 0.0
Cd225 Cd 0.86916 0.01352 0.22773 0.0
Cd226 Cd 0.90686 0.00109 0.25469 0.0
O227 O 0.92338 0.00943 0.22447 0.0
O228 O 0.84481 0.03196 0.2196 0.0
O229 O 0.86951 0.04041 0.25281 0.0
C230 C 0.85237 0.04525 0.23943 0.0
C231 C 0.92735 0.0115 0.2931 0.0
C232 C 0.91471 0.01576 0.20521 0.0
C233 C 0.86041 0.96518 0.24327 0.0
O234 O 0.88155 0.97064 0.25284 0.0
O235 O 0.85159 0.97974 0.23191 0.0
O236 O 0.93181 0.99514 0.2785 0.0
O237 O 0.91197 0.02293 0.28543 0.0
O238 O 0.29394 0.64157 0.57296 0.0
Cd239 Cd 0.2834 0.61424 0.5457 0.0
Cd240 Cd 0.27234 0.64825 0.5188 0.0
O241 O 0.28604 0.66851 0.5504 0.0
O242 O 0.30143 0.58932 0.55009 0.0
O243 O 0.30395 0.61094 0.51957 0.0
C244 C 0.31029 0.59429 0.53047 0.0
C245 C 0.27691 0.66811 0.48471 0.0
C246 C 0.2934 0.66287 0.57047 0.0
C247 C 0.23346 0.60724 0.52682 0.0
O248 O 0.24005 0.62615 0.51752 0.0
O249 O 0.2482 0.59875 0.53929 0.0
O250 O 0.2634 0.67304 0.50031 0.0
O251 O 0.28823 0.65176 0.48844 0.0
O252 O 0.39678 0.52124 0.70477 0.0
Cd253 Cd 0.37243 0.51608 0.72961 0.0
Cd254 Cd 0.40944 0.50319 0.75505 0.0
O255 O 0.42752 0.5156 0.72733 0.0
O256 O 0.34751 0.53358 0.72055 0.0
O257 O 0.37158 0.54305 0.75414 0.0
C258 C 0.35445 0.54723 0.74025 0.0
C259 C 0.4262 0.51312 0.79486 0.0
C260 C 0.41856 0.52099 0.70775 0.0
C261 C 0.36507 0.46608 0.74056 0.0
O262 O 0.3867 0.47086 0.74854 0.0
O263 O 0.35526 0.48206 0.73325 0.0
O264 O 0.43397 0.49896 0.78032 0.0
O265 O 0.4093 0.52238 0.78656 0.0
O266 O 0.62974 0.9833 0.71024 0.0
Cd267 Cd 0.65572 0.9925 0.73893 0.0
Cd268 Cd 0.62002 0.00514 0.76222 0.0
O269 O 0.60101 0.99215 0.72967 0.0
O270 O 0.68047 0.97457 0.73302 0.0
O271 O 0.65937 0.97049 0.76378 0.0
C272 C 0.67586 0.96474 0.75219 0.0
C273 C 0.60023 0.9989 0.79609 0.0
C274 C 0.6083 0.98448 0.71056 0.0
C275 C 0.66334 0.04277 0.75748 0.0
O276 O 0.64327 0.03704 0.76484 0.0
O277 O 0.67222 0.02741 0.74641 0.0
O278 O 0.59572 0.01374 0.78175 0.0
O279 O 0.6159 0.98709 0.79102 0.0
O280 O 0.77484 0.63748 0.04473 0.0
Cd281 Cd 0.77098 0.61292 0.01518 0.0
Cd282 Cd 0.75227 0.6494 0.99465 0.0
O283 O 0.76088 0.66595 0.02928 0.0
O284 O 0.78802 0.58937 0.02784 0.0
O285 O 0.79904 0.60922 0.99777 0.0
C286 C 0.80271 0.59415 0.01234 0.0
C287 C 0.76095 0.67179 0.9626 0.0
C288 C 0.76971 0.65761 0.04717 0.0
C289 C 0.72007 0.60134 0.99439 0.0
O290 O 0.72274 0.62244 0.98931 0.0
O291 O 0.73728 0.59392 0.00401 0.0
O292 O 0.74414 0.67428 0.97526 0.0
O293 O 0.77309 0.65651 0.96817 0.0
O294 O 0.89323 0.52903 0.73808 0.0
Cd295 Cd 0.87059 0.52655 0.76425 0.0
Cd296 Cd 0.91081 0.51976 0.79127 0.0
O297 O 0.92527 0.52573 0.76009 0.0
O298 O 0.84392 0.53911 0.75023 0.0
O299 O 0.86694 0.556 0.78308 0.0
C300 C 0.84966 0.55622 0.76717 0.0
C301 C 0.93573 0.53414 0.82644 0.0
C302 C 0.9149 0.52855 0.74018 0.0
C303 C 0.86739 0.48049 0.78408 0.0
O304 O 0.88895 0.48758 0.79185 0.0
O305 O 0.85622 0.49377 0.77337 0.0
O306 O 0.93901 0.517 0.81213 0.0
O307 O 0.91808 0.54347 0.82079 0.0
O308 O 0.74779 0.37707 0.55544 0.0
Cd309 Cd 0.74899 0.40141 0.53106 0.0
Cd310 Cd 0.75756 0.36261 0.50049 0.0
O311 O 0.75305 0.34708 0.53142 0.0
O312 O 0.7371 0.42751 0.54754 0.0
O313 O 0.71914 0.40635 0.51405 0.0
C314 C 0.71979 0.42312 0.53084 0.0
C315 C 0.74398 0.33736 0.46534 0.0
C316 C 0.74965 0.3558 0.55191 0.0
C317 C 0.79432 0.40805 0.50838 0.0
O318 O 0.78821 0.38684 0.49906 0.0
O319 O 0.78099 0.41714 0.52123 0.0
O320 O 0.76201 0.33536 0.47912 0.0
O321 O 0.73336 0.35394 0.47143 0.0
O322 O 0.63727 0.49871 0.24542 0.0
Cd323 Cd 0.66192 0.50275 0.27491 0.0
Cd324 Cd 0.62539 0.52146 0.29573 0.0
O325 O 0.60874 0.51247 0.26109 0.0
O326 O 0.68602 0.48598 0.26297 0.0
O327 O 0.66515 0.47449 0.29221 0.0
C328 C 0.68082 0.47114 0.27825 0.0
C329 C 0.60306 0.51427 0.32822 0.0
C330 C 0.61705 0.50366 0.24313 0.0
C331 C 0.67339 0.5538 0.29542 0.0
O332 O 0.65235 0.55106 0.30066 0.0
O333 O 0.68084 0.53657 0.28587 0.0
O334 O 0.60114 0.53095 0.3152 0.0
O335 O 0.61753 0.50118 0.32262 0.0
Zn336 Zn 0.03554 0.00277 0.03152 0.0
Zn337 Zn 0.99106 0.02162 0.00231 0.0
C338 C 0.01045 0.96029 0.04828 0.0
O339 O 0.0093 0.9749 0.067 0.0
C340 C 0.01271 0.05843 0.97728 0.0
O341 O 0.00415 0.04196 0.95952 0.0
O342 O 0.06928 0.00103 0.04063 0.0
O343 O 0.03774 0.01444 0.9987 0.0
O344 O 0.00285 0.99782 0.98084 0.0
C345 C 0.07536 0.98813 0.0239 0.0
O346 O 0.05964 0.97803 0.00596 0.0
O347 O 0.01909 0.96836 0.02996 0.0
C348 C 0.95335 0.04312 0.99763 0.0
O349 O 0.9692 0.05829 0.01222 0.0
O350 O 0.95822 0.02381 0.98968 0.0
O351 O 0.98777 0.01789 0.03725 0.0
O352 O 0.02278 0.02157 0.05739 0.0
O353 O 0.0106 0.05376 0.99872 0.0
C354 C 0.02488 0.00364 0.98011 0.0
C355 C 0.00096 0.02146 0.057 0.0
Zn356 Zn 0.26054 0.7562 0.28781 0.0
Zn357 Zn 0.26689 0.76364 0.23877 0.0
C358 C 0.22963 0.71269 0.27818 0.0
O359 O 0.21725 0.72515 0.29019 0.0
C360 C 0.29759 0.80771 0.25248 0.0
O361 O 0.31001 0.7975 0.23818 0.0
O362 O 0.26097 0.75341 0.3232 0.0
O363 O 0.29465 0.76685 0.28266 0.0
O364 O 0.29099 0.74494 0.24819 0.0
C365 C 0.2759 0.74166 0.33017 0.0
O366 O 0.28885 0.73407 0.31459 0.0
O367 O 0.24998 0.72252 0.27378 0.0
C368 C 0.25508 0.78523 0.20012 0.0
O369 O 0.24667 0.79563 0.21799 0.0
O370 O 0.26581 0.76886 0.20401 0.0
O371 O 0.23346 0.75082 0.24275 0.0
O372 O 0.23593 0.77414 0.27581 0.0
O373 O 0.27753 0.79646 0.2563 0.0
C374 C 0.30339 0.75462 0.26751 0.0
C375 C 0.22445 0.76451 0.25595 0.0
Zn376 Zn 0.49151 0.02585 0.52919 0.0
Zn377 Zn 0.54061 0.98983 0.50813 0.0
C378 C 0.50031 0.06624 0.55892 0.0
O379 O 0.48458 0.05122 0.56819 0.0
C380 C 0.51014 0.94345 0.49954 0.0
O381 O 0.50823 0.94651 0.52262 0.0
O382 O 0.45706 0.02708 0.52216 0.0
O383 O 0.50397 0.01075 0.50113 0.0
O384 O 0.5373 0.01498 0.48646 0.0
C385 C 0.45376 0.04508 0.51223 0.0
O386 O 0.47204 0.05967 0.50634 0.0
O387 O 0.50833 0.05928 0.53991 0.0
C388 C 0.57758 0.96658 0.5201 0.0
O389 O 0.55912 0.95013 0.52199 0.0
O390 O 0.57453 0.98658 0.51493 0.0
O391 O 0.52529 0.99448 0.53871 0.0
O392 O 0.49882 0.0085 0.55756 0.0
O393 O 0.52258 0.95961 0.48969 0.0
C394 C 0.51778 0.02112 0.48744 0.0
C395 C 0.51553 0.9975 0.55774 0.0
Zn396 Zn 0.29016 0.25402 0.75462 0.0
Zn397 Zn 0.24333 0.26701 0.76792 0.0
C398 C 0.27427 0.22565 0.71134 0.0
O399 O 0.28097 0.21093 0.72543 0.0
C400 C 0.25705 0.29653 0.81102 0.0
O401 O 0.24896 0.31037 0.79676 0.0
O402 O 0.32334 0.25093 0.75054 0.0
O403 O 0.29279 0.28807 0.76623 0.0
O404 O 0.25927 0.29104 0.74734 0.0
C405 C 0.34155 0.2644 0.76192 0.0
O406 O 0.33922 0.27973 0.77958 0.0
O407 O 0.275 0.24659 0.72023 0.0
C408 C 0.20166 0.26059 0.78839 0.0
O409 O 0.21416 0.24822 0.80035 0.0
O410 O 0.21011 0.27079 0.77105 0.0
O411 O 0.24004 0.23218 0.75889 0.0
O412 O 0.27491 0.22922 0.77463 0.0
O413 O 0.25843 0.27611 0.80223 0.0
C414 C 0.28044 0.30024 0.75536 0.0
C415 C 0.25315 0.22039 0.76933 0.0
Zn416 Zn 0.02247 0.98598 0.52632 0.0
Zn417 Zn 0.01089 0.03466 0.51379 0.0
C418 C 0.05142 0.9995 0.56924 0.0
O419 O 0.06511 0.99167 0.55461 0.0
C420 C 0.98229 0.02521 0.47003 0.0
O421 O 0.96896 0.03367 0.48466 0.0
O422 O 0.02346 0.95206 0.52929 0.0
O423 O 0.98886 0.98483 0.51433 0.0
O424 O 0.98543 0.01851 0.53262 0.0
C425 C 0.00875 0.94297 0.54299 0.0
O426 O 0.99539 0.95593 0.55267 0.0
O427 O 0.03076 0.00049 0.5609 0.0
C428 C 0.02429 0.0788 0.4999 0.0
O429 O 0.03821 0.06661 0.49003 0.0
O430 O 0.00959 0.0688 0.51309 0.0
O431 O 0.04513 0.03516 0.52397 0.0
O432 O 0.0474 0.00072 0.50642 0.0
O433 O 0.00219 0.02221 0.47865 0.0
C434 C 0.97663 0.99709 0.52523 0.0
C435 C 0.0566 0.02226 0.51269 0.0
Zn436 Zn 0.25613 0.78185 0.7521 0.0
Zn437 Zn 0.27124 0.73328 0.76613 0.0
C438 C 0.21598 0.76198 0.71939 0.0
O439 O 0.22968 0.7733 0.70505 0.0
C440 C 0.31112 0.74859 0.79931 0.0
O441 O 0.2963 0.73633 0.81204 0.0
O442 O 0.25123 0.81553 0.75086 0.0
O443 O 0.26395 0.77964 0.7869 0.0
O444 O 0.24904 0.74219 0.78913 0.0
C445 C 0.23146 0.81875 0.75677 0.0
O446 O 0.21612 0.80063 0.76181 0.0
O447 O 0.22425 0.76116 0.74087 0.0
C448 C 0.29289 0.69566 0.75747 0.0
O449 O 0.3054 0.7127 0.74742 0.0
O450 O 0.27494 0.69944 0.7672 0.0
O451 O 0.26341 0.73627 0.73114 0.0
O452 O 0.27938 0.77368 0.72995 0.0
O453 O 0.30389 0.75183 0.77814 0.0
C454 C 0.25215 0.76367 0.79744 0.0
C455 C 0.2751 0.75242 0.72071 0.0
Zn456 Zn 0.51592 0.00649 0.99621 0.0
Zn457 Zn 0.51013 0.99752 0.04671 0.0
C458 C 0.55914 0.03761 0.00612 0.0
O459 O 0.54628 0.04975 0.99429 0.0
C460 C 0.46582 0.96629 0.03408 0.0
O461 O 0.4776 0.95167 0.04322 0.0
O462 O 0.51862 0.00665 0.96075 0.0
O463 O 0.5041 0.97258 7e-05 0.0
O464 O 0.52754 0.97346 0.0329 0.0
C465 C 0.53302 0.99414 0.95454 0.0
O466 O 0.54249 0.98305 0.97077 0.0
O467 O 0.5497 0.01708 0.01048 0.0
C468 C 0.49668 0.01165 0.08954 0.0
O469 O 0.487 0.023 0.07371 0.0
O470 O 0.50896 0.9973 0.08238 0.0
O471 O 0.52118 0.03171 0.04239 0.0
O472 O 0.49806 0.0303 0.00922 0.0
O473 O 0.47606 0.98749 0.03328 0.0
C474 C 0.51704 0.96259 0.0131 0.0
C475 C 0.50768 0.04117 0.02934 0.0
Zn476 Zn 0.2732 0.23404 0.24598 0.0
Zn477 Zn 0.2499 0.27885 0.27376 0.0
C478 C 0.31745 0.26402 0.23665 0.0
O479 O 0.30408 0.27315 0.22188 0.0
C480 C 0.21495 0.26322 0.3034 0.0
O481 O 0.23227 0.27465 0.31921 0.0
O482 O 0.27509 0.2002 0.23808 0.0
O483 O 0.25777 0.23308 0.2769 0.0
O484 O 0.27505 0.26792 0.29419 0.0
C485 C 0.28555 0.19355 0.25619 0.0
O486 O 0.29283 0.2086 0.27541 0.0
O487 O 0.3079 0.2496 0.25039 0.0
C488 C 0.22942 0.31709 0.27776 0.0
O489 O 0.21364 0.30091 0.26419 0.0
O490 O 0.24905 0.31239 0.2848 0.0
O491 O 0.24958 0.27798 0.23774 0.0
O492 O 0.25765 0.24657 0.21804 0.0
O493 O 0.21859 0.2607 0.28147 0.0
C494 C 0.26817 0.24612 0.29554 0.0
C495 C 0.25116 0.26606 0.21816 0.0
Zn496 Zn 0.52145 0.48327 0.02778 0.0
Zn497 Zn 0.51007 0.53363 0.01571 0.0
C498 C 0.55104 0.49577 0.07046 0.0
O499 O 0.56436 0.4879 0.05544 0.0
C500 C 0.48281 0.53004 0.97193 0.0
O501 O 0.47181 0.5414 0.9868 0.0
O502 O 0.52244 0.44912 0.02976 0.0
O503 O 0.48772 0.48256 0.01657 0.0
O504 O 0.48446 0.51681 0.03389 0.0
C505 C 0.50806 0.43943 0.04345 0.0
O506 O 0.49463 0.45193 0.05376 0.0
O507 O 0.53036 0.49711 0.06254 0.0
C508 C 0.52615 0.58143 0.0095 0.0
O509 O 0.54367 0.57253 0.00269 0.0
O510 O 0.50898 0.5682 0.0172 0.0
O511 O 0.54425 0.53291 0.02539 0.0
O512 O 0.54619 0.49834 0.0078 0.0
O513 O 0.5007 0.5228 0.98026 0.0
C514 C 0.47553 0.49534 0.02681 0.0
C515 C 0.55566 0.51977 0.01435 0.0
Zn516 Zn 0.75686 0.28071 0.25682 0.0
Zn517 Zn 0.76995 0.23165 0.27186 0.0
C518 C 0.71693 0.26915 0.22452 0.0
O519 O 0.73239 0.28231 0.21314 0.0
C520 C 0.81046 0.25112 0.30303 0.0
O521 O 0.79663 0.23969 0.31721 0.0
O522 O 0.75555 0.31519 0.25603 0.0
O523 O 0.76457 0.27777 0.29185 0.0
O524 O 0.74887 0.24092 0.29581 0.0
C525 C 0.74104 0.32099 0.26985 0.0
O526 O 0.7295 0.30493 0.28179 0.0
O527 O 0.72353 0.26404 0.24515 0.0
C528 C 0.79315 0.19471 0.26355 0.0
O529 O 0.80587 0.21208 0.25412 0.0
O530 O 0.77486 0.19812 0.27289 0.0
O531 O 0.75897 0.23408 0.23783 0.0
O532 O 0.7782 0.26958 0.23385 0.0
O533 O 0.80245 0.25178 0.28142 0.0
C534 C 0.75305 0.26262 0.30359 0.0
C535 C 0.77251 0.2478 0.22641 0.0
Zn536 Zn 0.0143 0.51306 0.49732 0.0
Zn537 Zn 0.00955 0.50854 0.54698 0.0
C538 C 0.06017 0.53827 0.49734 0.0
O539 O 0.04848 0.54809 0.4816 0.0
C540 C 0.96314 0.48201 0.5364 0.0
O541 O 0.97136 0.47035 0.55287 0.0
O542 O 0.01316 0.51146 0.46137 0.0
O543 O 0.00248 0.47942 0.50377 0.0
O544 O 0.02587 0.48243 0.53709 0.0
C545 C 0.02144 0.49464 0.45216 0.0
O546 O 0.02778 0.47962 0.46605 0.0
O547 O 0.04901 0.5221 0.50816 0.0
C548 C 0.98922 0.52199 0.58631 0.0
O549 O 0.98012 0.53203 0.56891 0.0
O550 O 0.00456 0.51002 0.58197 0.0
O551 O 0.02448 0.5415 0.54237 0.0
O552 O 0.99959 0.53965 0.51066 0.0
O553 O 0.97633 0.49996 0.53009 0.0
C554 C 0.01471 0.47011 0.51832 0.0
C555 C 0.01104 0.55126 0.52971 0.0
Zn556 Zn 0.79114 0.75338 0.26242 0.0
Zn557 Zn 0.74327 0.76371 0.27394 0.0
C558 C 0.77843 0.72366 0.2198 0.0
O559 O 0.78671 0.71042 0.23462 0.0
C560 C 0.75408 0.79226 0.31771 0.0
O561 O 0.74493 0.80554 0.30358 0.0
O562 O 0.82515 0.75274 0.26002 0.0
O563 O 0.79183 0.78736 0.27319 0.0
O564 O 0.75789 0.78941 0.25456 0.0
C565 C 0.83442 0.76762 0.24659 0.0
O566 O 0.82155 0.78099 0.23679 0.0
O567 O 0.77705 0.74432 0.22781 0.0
C568 C 0.70094 0.74998 0.29095 0.0
O569 O 0.71448 0.73723 0.30078 0.0
O570 O 0.70931 0.76417 0.27646 0.0
O571 O 0.74264 0.72962 0.26325 0.0
O572 O 0.7765 0.72825 0.28245 0.0
O573 O 0.7571 0.77249 0.30869 0.0
C574 C 0.7791 0.799 0.26201 0.0
C575 C 0.75531 0.71845 0.27518 0.0
Zn576 Zn 0.76637 0.25975 0.79411 0.0
Zn577 Zn 0.77141 0.26279 0.74268 0.0
C578 C 0.74073 0.21406 0.79336 0.0
O579 O 0.73092 0.22604 0.80888 0.0
C580 C 0.7996 0.30886 0.75256 0.0
O581 O 0.81449 0.29828 0.74222 0.0
O582 O 0.76792 0.2609 0.83006 0.0
O583 O 0.79929 0.27287 0.78766 0.0
O584 O 0.79783 0.24798 0.75581 0.0
C585 C 0.78465 0.25251 0.83927 0.0
O586 O 0.79954 0.24596 0.82534 0.0
O587 O 0.75744 0.22496 0.78301 0.0
C588 C 0.75474 0.27466 0.69998 0.0
O589 O 0.74291 0.28334 0.716 0.0
O590 O 0.77014 0.26344 0.70691 0.0
O591 O 0.7382 0.24932 0.749 0.0
O592 O 0.74048 0.27463 0.78064 0.0
O593 O 0.77934 0.29725 0.75519 0.0
C594 C 0.80931 0.25992 0.77466 0.0
C595 C 0.72875 0.2631 0.76172 0.0
Zn596 Zn 0.7718 0.74349 0.75937 0.0
Zn597 Zn 0.75538 0.78754 0.78629 0.0
C598 C 0.81029 0.76065 0.73514 0.0
O599 O 0.79382 0.75091 0.71772 0.0
C600 C 0.70581 0.77567 0.77536 0.0
O601 O 0.7106 0.79427 0.76371 0.0
O602 O 0.77455 0.71024 0.7491 0.0
O603 O 0.76457 0.74042 0.79363 0.0
O604 O 0.7753 0.77633 0.81202 0.0
C605 C 0.79183 0.70606 0.76216 0.0
O606 O 0.80361 0.7226 0.77861 0.0
O607 O 0.80493 0.76169 0.75662 0.0
C608 C 0.76166 0.83827 0.79071 0.0
O609 O 0.78012 0.83726 0.77926 0.0
O610 O 0.75015 0.81957 0.79745 0.0
O611 O 0.76587 0.79082 0.75337 0.0
O612 O 0.74987 0.75542 0.73585 0.0
O613 O 0.72274 0.76759 0.78458 0.0
C614 C 0.77158 0.75425 0.81274 0.0
C615 C 0.75587 0.77743 0.73475 0.0
Zn616 Zn 0.53955 0.51015 0.53397 0.0
Zn617 Zn 0.49163 0.51414 0.50794 0.0
C618 C 0.5242 0.46921 0.55609 0.0
O619 O 0.5306 0.48501 0.57482 0.0
C620 C 0.50254 0.55219 0.48262 0.0
O621 O 0.49163 0.53477 0.46665 0.0
O622 O 0.57392 0.51118 0.54377 0.0
O623 O 0.53892 0.51904 0.4999 0.0
O624 O 0.50642 0.4943 0.48474 0.0
C625 C 0.58202 0.49966 0.52741 0.0
O626 O 0.56801 0.4898 0.50814 0.0
O627 O 0.52548 0.47563 0.53512 0.0
C628 C 0.45159 0.53058 0.50919 0.0
O629 O 0.46691 0.54388 0.52582 0.0
O630 O 0.45738 0.51336 0.49748 0.0
O631 O 0.4911 0.50738 0.54237 0.0
O632 O 0.52505 0.52903 0.5584 0.0
O633 O 0.50645 0.54808 0.50428 0.0
C634 C 0.52693 0.50554 0.48223 0.0
C635 C 0.50369 0.51996 0.56024 0.0
Zn636 Zn 0.99334 0.51749 0.03216 0.0
Zn637 Zn 0.04178 0.50375 0.01654 0.0
C638 C 0.01122 0.5582 0.06441 0.0
O639 O 0.00125 0.54375 0.0789 0.0
C640 C 0.02497 0.46343 0.98421 0.0
O641 O 0.03651 0.47798 0.97073 0.0
O642 O 0.95947 0.52092 0.03332 0.0
O643 O 0.99567 0.50901 0.9973 0.0
O644 O 0.03225 0.52587 0.99397 0.0
C645 C 0.95545 0.53816 0.02244 0.0
O646 O 0.9726 0.55051 0.01241 0.0
O647 O 0.01193 0.55041 0.04274 0.0
C648 C 0.07915 0.48155 0.02405 0.0
O649 O 0.06213 0.46882 0.03393 0.0
O650 O 0.0754 0.49975 0.01476 0.0
O651 O 0.03969 0.51271 0.05124 0.0
O652 O 0.00333 0.49563 0.0551 0.0
O653 O 0.02268 0.47105 0.00555 0.0
C654 C 0.01057 0.52172 0.98625 0.0
C655 C 0.0251 0.49995 0.06253 0.0
H656 H 0.01101 0.16567 0.88756 0.0
H657 H 0.0213 0.20655 0.9569 0.0
H658 H 0.01602 0.13126 0.9066 0.0
H659 H 0.02764 0.1722 0.97615 0.0
H660 H 0.00418 0.09799 0.00096 0.0
H661 H 0.00732 0.13616 0.98591 0.0
H662 H 0.04151 0.11203 0.92631 0.0
H663 H 0.03675 0.07343 0.94064 0.0
C664 C 0.01477 0.16739 0.90691 0.0
C665 C 0.01565 0.18881 0.92072 0.0
C666 C 0.01791 0.14765 0.9179 0.0
C667 C 0.02247 0.14884 0.94301 0.0
C668 C 0.02387 0.17047 0.95682 0.0
C669 C 0.02032 0.1902 0.94579 0.0
C670 C 0.01285 0.10111 0.98496 0.0
C671 C 0.02002 0.0828 0.97178 0.0
C672 C 0.01471 0.12303 0.97629 0.0
C673 C 0.0242 0.12714 0.95452 0.0
C674 C 0.03334 0.10932 0.94265 0.0
C675 C 0.03092 0.08728 0.95098 0.0
H676 H 0.11809 0.80181 0.15991 0.0
H677 H 0.08262 0.78267 0.22175 0.0
H678 H 0.15552 0.8008 0.18205 0.0
H679 H 0.12012 0.78148 0.24374 0.0
H680 H 0.19743 0.79153 0.27864 0.0
H681 H 0.16205 0.80299 0.2608 0.0
H682 H 0.16761 0.76411 0.19343 0.0
H683 H 0.20224 0.75264 0.21089 0.0
C684 C 0.11829 0.79791 0.17838 0.0
C685 C 0.09728 0.79185 0.18887 0.0
C686 C 0.13974 0.79725 0.19103 0.0
C687 C 0.14064 0.79062 0.21445 0.0
C688 C 0.11995 0.78664 0.22572 0.0
C689 C 0.09845 0.78721 0.21303 0.0
C690 C 0.19099 0.78545 0.26005 0.0
C691 C 0.20262 0.77112 0.24625 0.0
C692 C 0.17084 0.79204 0.24986 0.0
C693 C 0.16233 0.78474 0.22562 0.0
C694 C 0.17401 0.77044 0.21198 0.0
C695 C 0.19376 0.76363 0.22215 0.0
H696 H 0.51361 0.83288 0.3924 0.0
H697 H 0.48665 0.79408 0.4493 0.0
H698 H 0.51111 0.86936 0.41504 0.0
H699 H 0.48235 0.83046 0.47146 0.0
H700 H 0.50884 0.9016 0.51715 0.0
H701 H 0.50405 0.86349 0.49421 0.0
H702 H 0.48842 0.89412 0.42899 0.0
H703 H 0.49512 0.93259 0.45203 0.0
C704 C 0.50668 0.83219 0.40962 0.0
C705 C 0.50048 0.81077 0.41922 0.0
C706 C 0.50498 0.85311 0.42256 0.0
C707 C 0.4964 0.85304 0.44517 0.0
C708 C 0.48948 0.83137 0.45438 0.0
C709 C 0.49181 0.81048 0.44167 0.0
C710 C 0.50397 0.90003 0.49795 0.0
C711 C 0.50254 0.91996 0.48626 0.0
C712 C 0.50111 0.87812 0.48473 0.0
C713 C 0.49619 0.87561 0.45957 0.0
C714 C 0.49298 0.89541 0.4482 0.0
C715 C 0.49652 0.91743 0.46137 0.0
H716 H 0.45569 0.28609 0.67286 0.0
H717 H 0.48645 0.26387 0.73716 0.0
H718 H 0.41854 0.28361 0.69042 0.0
H719 H 0.44946 0.26172 0.75474 0.0
H720 H 0.38489 0.28602 0.78456 0.0
H721 H 0.42274 0.2897 0.76824 0.0
H722 H 0.38828 0.24883 0.70252 0.0
H723 H 0.35055 0.24484 0.71879 0.0
C724 C 0.45461 0.28099 0.69083 0.0
C725 C 0.47395 0.27514 0.70362 0.0
C726 C 0.43334 0.27941 0.70079 0.0
C727 C 0.43115 0.27238 0.72389 0.0
C728 C 0.45071 0.26729 0.73696 0.0
C729 C 0.47183 0.26846 0.72685 0.0
C730 C 0.38543 0.27764 0.76672 0.0
C731 C 0.36473 0.26509 0.75301 0.0
C732 C 0.40707 0.27976 0.75741 0.0
C733 C 0.40836 0.26973 0.73406 0.0
C734 C 0.38773 0.25698 0.72046 0.0
C735 C 0.36617 0.25453 0.72989 0.0
H736 H 0.02311 0.8001 0.56452 0.0
H737 H 0.9861 0.82232 0.6225 0.0
H738 H 0.02256 0.83676 0.54736 0.0
H739 H 0.98633 0.85943 0.6059 0.0
H740 H 0.97233 0.91563 0.56062 0.0
H741 H 0.97031 0.87696 0.574 0.0
H742 H 0.04009 0.87737 0.55409 0.0
H743 H 0.04163 0.91581 0.53978 0.0
C744 C 0.01486 0.81285 0.57362 0.0
C745 C 0.00462 0.80832 0.59486 0.0
C746 C 0.0147 0.83397 0.56387 0.0
C747 C 0.0045 0.85117 0.57525 0.0
C748 C 0.99402 0.84647 0.5964 0.0
C749 C 0.99397 0.82523 0.60601 0.0
C750 C 0.98717 0.90737 0.55893 0.0
C751 C 0.00719 0.91876 0.54925 0.0
C752 C 0.98609 0.88525 0.56677 0.0
C753 C 0.00513 0.87408 0.56542 0.0
C754 C 0.02497 0.88529 0.55517 0.0
C755 C 0.02592 0.90736 0.54703 0.0
H756 H 0.46352 0.79763 0.8274 0.0
H757 H 0.44588 0.73879 0.86854 0.0
H758 H 0.42225 0.79332 0.81306 0.0
H759 H 0.40457 0.73406 0.85366 0.0
H760 H 0.34829 0.76295 0.77383 0.0
H761 H 0.38997 0.76832 0.78753 0.0
H762 H 0.37271 0.75384 0.85855 0.0
H763 H 0.33114 0.74792 0.84472 0.0
C764 C 0.45085 0.78359 0.83319 0.0
C765 C 0.45799 0.76859 0.8492 0.0
C766 C 0.42717 0.78107 0.82486 0.0
C767 C 0.41003 0.76345 0.83231 0.0
C768 C 0.41725 0.74812 0.84792 0.0
C769 C 0.44096 0.75068 0.8563 0.0
C770 C 0.35343 0.76123 0.79244 0.0
C771 C 0.33641 0.75495 0.80817 0.0
C772 C 0.37733 0.76429 0.80031 0.0
C773 C 0.38471 0.76123 0.82409 0.0
C774 C 0.36765 0.75578 0.83998 0.0
C775 C 0.34381 0.75262 0.8321 0.0
H776 H 0.47708 0.15218 0.12497 0.0
H777 H 0.48807 0.18375 0.05916 0.0
H778 H 0.47832 0.11406 0.10442 0.0
H779 H 0.48949 0.14556 0.03874 0.0
H780 H 0.47886 0.06704 0.0078 0.0
H781 H 0.46862 0.10312 0.02532 0.0
H782 H 0.51355 0.10158 0.09 0.0
H783 H 0.52384 0.06609 0.07274 0.0
C784 C 0.47923 0.15095 0.10601 0.0
C785 C 0.48289 0.17113 0.09385 0.0
C786 C 0.48008 0.12911 0.09428 0.0
C787 C 0.48447 0.12695 0.07011 0.0
C788 C 0.4861 0.1467 0.05738 0.0
C789 C 0.48536 0.1686 0.06914 0.0
C790 C 0.48659 0.07451 0.0257 0.0
C791 C 0.50213 0.06364 0.03885 0.0
C792 C 0.48069 0.09509 0.03573 0.0
C793 C 0.48999 0.10494 0.05917 0.0
C794 C 0.50567 0.09415 0.07212 0.0
C795 C 0.51175 0.07388 0.06207 0.0
H796 H 0.09564 0.28562 0.37225 0.0
H797 H 0.06489 0.22504 0.32145 0.0
H798 H 0.13386 0.28576 0.35813 0.0
H799 H 0.10325 0.22501 0.30758 0.0
H800 H 0.20214 0.26375 0.34871 0.0
H801 H 0.1628 0.26081 0.36075 0.0
H802 H 0.13384 0.24795 0.28633 0.0
H803 H 0.17332 0.25061 0.27421 0.0
C804 C 0.097 0.27242 0.35798 0.0
C805 C 0.07724 0.25528 0.34806 0.0
C806 C 0.11894 0.27236 0.35003 0.0
C807 C 0.12164 0.25518 0.33197 0.0
C808 C 0.10174 0.2385 0.32148 0.0
C809 C 0.07977 0.23851 0.32948 0.0
C810 C 0.18738 0.26001 0.3349 0.0
C811 C 0.19087 0.25763 0.3105 0.0
C812 C 0.16485 0.25852 0.3418 0.0
C813 C 0.14526 0.25463 0.32448 0.0
C814 C 0.14859 0.25097 0.3001 0.0
C815 C 0.1712 0.25246 0.29317 0.0
H816 H 0.95609 0.00215 0.19868 0.0
H817 H 0.90611 0.03809 0.16571 0.0
H818 H 0.97809 0.00574 0.16388 0.0
H819 H 0.92858 0.04262 0.13143 0.0
H820 H 0.95461 0.01889 0.06171 0.0
H821 H 0.93544 0.01936 0.098 0.0
H822 H 0.00268 0.03011 0.14055 0.0
H823 H 0.02198 0.02866 0.10375 0.0
C824 C 0.94998 0.01114 0.18416 0.0
C825 C 0.92916 0.01959 0.1849 0.0
C826 C 0.96271 0.01335 0.16422 0.0
C827 C 0.95509 0.02429 0.1446 0.0
C828 C 0.93475 0.03356 0.14585 0.0
C829 C 0.92188 0.03109 0.16562 0.0
C830 C 0.96545 0.02149 0.07875 0.0
C831 C 0.98992 0.02368 0.0797 0.0
C832 C 0.95439 0.02196 0.09971 0.0
C833 C 0.96741 0.02488 0.12239 0.0
C834 C 0.99199 0.02754 0.12343 0.0
C835 C 0.00311 0.02689 0.10233 0.0
H836 H 0.29663 0.65697 0.44407 0.0
H837 H 0.26096 0.70754 0.47659 0.0
H838 H 0.29705 0.67659 0.40758 0.0
H839 H 0.2621 0.72761 0.44058 0.0
H840 H 0.24297 0.73903 0.36201 0.0
H841 H 0.24422 0.72213 0.40013 0.0
H842 H 0.31419 0.71162 0.39144 0.0
H843 H 0.31252 0.72767 0.35308 0.0
C844 C 0.28917 0.67245 0.44353 0.0
C845 C 0.2787 0.68066 0.46312 0.0
C846 C 0.2895 0.68378 0.42268 0.0
C847 C 0.27956 0.70369 0.42113 0.0
C848 C 0.26953 0.71212 0.44099 0.0
C849 C 0.26903 0.70068 0.4617 0.0
C850 C 0.25869 0.73338 0.36847 0.0
C851 C 0.27757 0.73451 0.35458 0.0
C852 C 0.25946 0.72373 0.3903 0.0
C853 C 0.27924 0.71529 0.39873 0.0
C854 C 0.29848 0.71742 0.38522 0.0
C855 C 0.29759 0.7268 0.36334 0.0
H856 H 0.61933 0.97792 0.66459 0.0
H857 H 0.56059 0.9794 0.70572 0.0
H858 H 0.59379 0.9762 0.62774 0.0
H859 H 0.53478 0.97681 0.66877 0.0
H860 H 0.50879 0.01169 0.60364 0.0
H861 H 0.52884 0.00329 0.64052 0.0
H862 H 0.56236 0.95601 0.59945 0.0
H863 H 0.54298 0.96525 0.56253 0.0
C864 C 0.60084 0.97728 0.66573 0.0
C865 C 0.59209 0.97918 0.68811 0.0
C866 C 0.5861 0.97617 0.64455 0.0
C867 C 0.5622 0.97667 0.64523 0.0
C868 C 0.55317 0.97695 0.66757 0.0
C869 C 0.56796 0.97829 0.68877 0.0
C870 C 0.52011 0.99918 0.60252 0.0
C871 C 0.52452 0.98935 0.58016 0.0
C872 C 0.53156 0.99424 0.62371 0.0
C873 C 0.54747 0.97913 0.62302 0.0
C874 C 0.55067 0.96814 0.60066 0.0
C875 C 0.53945 0.97332 0.57948 0.0
H876 H 0.28558 0.31563 0.96786 0.0
H877 H 0.23465 0.35723 0.94994 0.0
H878 H 0.28517 0.30254 0.92546 0.0
H879 H 0.23389 0.34374 0.90754 0.0
H880 H 0.26142 0.26855 0.84713 0.0
H881 H 0.26168 0.27928 0.89018 0.0
H882 H 0.26063 0.35074 0.87707 0.0
H883 H 0.25996 0.33998 0.83424 0.0
C884 C 0.27401 0.32171 0.9549 0.0
C885 C 0.26025 0.33763 0.96228 0.0
C886 C 0.27375 0.31414 0.93058 0.0
C887 C 0.25975 0.32233 0.91306 0.0
C888 C 0.24527 0.33749 0.92054 0.0
C889 C 0.24552 0.34505 0.94487 0.0
C890 C 0.26157 0.28661 0.85351 0.0
C891 C 0.26055 0.30339 0.83726 0.0
C892 C 0.26167 0.29275 0.87817 0.0
C893 C 0.26076 0.31579 0.88705 0.0
C894 C 0.2607 0.33271 0.87081 0.0
C895 C 0.26056 0.32658 0.84625 0.0
H896 H 0.95834 0.98838 0.31445 0.0
H897 H 0.92052 0.04337 0.32909 0.0
H898 H 0.97237 0.99142 0.35688 0.0
H899 H 0.93506 0.04684 0.37152 0.0
H900 H 0.00872 0.0172 0.43335 0.0
H901 H 0.99729 0.01547 0.39025 0.0
H902 H 0.92796 0.02388 0.40459 0.0
H903 H 0.93948 0.0261 0.44741 0.0
C904 C 0.95331 0.0014 0.32666 0.0
C905 C 0.93816 0.01553 0.31837 0.0
C906 C 0.96145 0.00319 0.35103 0.0
C907 C 0.95466 0.01919 0.36772 0.0
C908 C 0.94025 0.03397 0.35925 0.0
C909 C 0.93207 0.03215 0.33488 0.0
C910 C 0.99099 0.01848 0.42725 0.0
C911 C 0.97504 0.02186 0.44383 0.0
C912 C 0.98443 0.0175 0.40254 0.0
C913 C 0.96178 0.01984 0.39392 0.0
C914 C 0.94572 0.0226 0.41056 0.0
C915 C 0.95227 0.02364 0.43516 0.0
H916 H 0.31108 0.65894 0.61651 0.0
H917 H 0.28643 0.70762 0.57213 0.0
H918 H 0.31147 0.68634 0.65222 0.0
H919 H 0.28636 0.73438 0.60781 0.0
H920 H 0.24566 0.73318 0.68141 0.0
H921 H 0.256 0.7159 0.64369 0.0
H922 H 0.32952 0.73789 0.66965 0.0
H923 H 0.3191 0.75609 0.70731 0.0
C924 C 0.30631 0.67564 0.61429 0.0
C925 C 0.29838 0.68091 0.59151 0.0
C926 C 0.30668 0.69132 0.63468 0.0
C927 C 0.29891 0.71231 0.63255 0.0
C928 C 0.29251 0.7183 0.60975 0.0
C929 C 0.2925 0.70288 0.58939 0.0
C930 C 0.26402 0.73497 0.67869 0.0
C931 C 0.28165 0.74618 0.69687 0.0
C932 C 0.26992 0.72507 0.65726 0.0
C933 C 0.29351 0.72569 0.65397 0.0
C934 C 0.31124 0.73739 0.6719 0.0
C935 C 0.30532 0.74788 0.69321 0.0
H936 H 0.57587 0.02879 0.81673 0.0
H937 H 0.59751 0.96332 0.82488 0.0
H938 H 0.55793 0.02623 0.85395 0.0
H939 H 0.57847 0.96005 0.86166 0.0
H940 H 0.5702 0.97753 0.94037 0.0
H941 H 0.58462 0.97735 0.90141 0.0
H942 H 0.52711 0.00729 0.87413 0.0
H943 H 0.51324 0.00849 0.91387 0.0
C944 C 0.57646 0.01362 0.82632 0.0
C945 C 0.58823 0.99632 0.81799 0.0
C946 C 0.56598 0.01206 0.84761 0.0
C947 C 0.56673 0.99295 0.86092 0.0
C948 C 0.57793 0.97526 0.85215 0.0
C949 C 0.58875 0.97703 0.83101 0.0
C950 C 0.5605 0.98399 0.92606 0.0
C951 C 0.5406 0.99312 0.93021 0.0
C952 C 0.5687 0.98369 0.90357 0.0
C953 C 0.55703 0.99221 0.88449 0.0
C954 C 0.53676 0.0009 0.8885 0.0
C955 C 0.52871 0.0015 0.91121 0.0
H956 H 0.25534 0.37315 0.12309 0.0
H957 H 0.24873 0.31107 0.07317 0.0
H958 H 0.25146 0.34898 0.15603 0.0
H959 H 0.24388 0.28666 0.10609 0.0
H960 H 0.26661 0.25515 0.17481 0.0
H961 H 0.26563 0.27654 0.1396 0.0
H962 H 0.22582 0.32169 0.17475 0.0
H963 H 0.22766 0.30092 0.21019 0.0
C964 C 0.25269 0.35429 0.11908 0.0
C965 C 0.25245 0.34409 0.09546 0.0
C966 C 0.25029 0.34034 0.13801 0.0
C967 C 0.2473 0.31576 0.13384 0.0
C968 C 0.24652 0.30552 0.1101 0.0
C969 C 0.24917 0.31952 0.09117 0.0
C970 C 0.25734 0.26941 0.17485 0.0
C971 C 0.2474 0.27644 0.19539 0.0
C972 C 0.25672 0.28169 0.15461 0.0
C973 C 0.24591 0.30113 0.15434 0.0
C974 C 0.23485 0.30725 0.17446 0.0
C975 C 0.23572 0.29519 0.19475 0.0
H976 H 0.17822 0.91224 0.98765 0.0
H977 H 0.21638 0.95903 0.04838 0.0
H978 H 0.14562 0.93202 0.9897 0.0
H979 H 0.1839 0.97932 0.05004 0.0
H980 H 0.10695 0.98597 0.06231 0.0
H981 H 0.14376 0.97226 0.06053 0.0
H982 H 0.13438 0.9681 0.98308 0.0
H983 H 0.09752 0.98078 0.98492 0.0
C984 C 0.1798 0.927 0.00119 0.0
C985 C 0.19986 0.93405 0.01783 0.0
C986 C 0.16115 0.93845 0.00232 0.0
C987 C 0.16218 0.95734 0.02001 0.0
C988 C 0.18246 0.96469 0.03638 0.0
C989 C 0.20111 0.95316 0.0353 0.0
C990 C 0.11308 0.98247 0.04501 0.0
C991 C 0.09932 0.98404 0.02376 0.0
C992 C 0.13412 0.97467 0.04395 0.0
C993 C 0.14175 0.96863 0.02161 0.0
C994 C 0.12868 0.97191 0.00053 0.0
C995 C 0.10764 0.97933 0.00159 0.0
H996 H 0.67887 0.6129 0.97837 0.0
H997 H 0.70671 0.55582 0.00493 0.0
H998 H 0.63917 0.5912 0.98092 0.0
H999 H 0.66672 0.53409 0.00735 0.0
H1000 H 0.58612 0.49779 0.99091 0.0
H1001 H 0.62601 0.51535 0.98254 0.0
H1002 H 0.62015 0.5816 0.01912 0.0
H1003 H 0.58099 0.56423 0.02801 0.0
C1004 C 0.67657 0.59556 0.98434 0.0
C1005 C 0.69607 0.58629 0.99178 0.0
C1006 C 0.65379 0.58317 0.98589 0.0
C1007 C 0.6499 0.56113 0.99468 0.0
C1008 C 0.66923 0.55106 0.00051 0.0
C1009 C 0.69212 0.56355 -0.00084 0.0
C1010 C 0.5934 0.51608 0.99721 0.0
C1011 C 0.58015 0.52967 0.00981 0.0
C1012 C 0.61621 0.52609 0.99241 0.0
C1013 C 0.62599 0.54993 -0.00018 0.0
C1014 C 0.61287 0.56332 0.01271 0.0
C1015 C 0.59038 0.5533 0.01781 0.0
H1016 H 0.667 0.43154 0.30026 0.0
H1017 H 0.71946 0.46389 0.25724 0.0
H1018 H 0.68336 0.39643 0.29858 0.0
H1019 H 0.73661 0.42924 0.25643 0.0
H1020 H 0.74397 0.35294 0.23671 0.0
H1021 H 0.73066 0.39002 0.23959 0.0
H1022 H 0.71451 0.38006 0.31199 0.0
H1023 H 0.72663 0.34268 0.30849 0.0
C1024 C 0.68229 0.4313 0.29078 0.0
C1025 C 0.69188 0.45049 0.27887 0.0
C1026 C 0.69182 0.41118 0.2899 0.0
C1027 C 0.71144 0.40985 0.27737 0.0
C1028 C 0.7213 0.42934 0.26589 0.0
C1029 C 0.71157 0.44933 0.26652 0.0
C1030 C 0.73779 0.35889 0.25328 0.0
C1031 C 0.73612 0.34486 0.27227 0.0
C1032 C 0.7302 0.38019 0.25501 0.0
C1033 C 0.72114 0.38805 0.27595 0.0
C1034 C 0.72066 0.37439 0.29532 0.0
C1035 C 0.72783 0.353 0.29341 0.0
H1036 H 0.83137 0.39152 0.4927 0.0
H1037 H 0.81095 0.4554 0.51873 0.0
H1038 H 0.8719 0.41271 0.49495 0.0
H1039 H 0.85149 0.47681 0.52023 0.0
H1040 H 0.92729 0.49151 0.55934 0.0
H1041 H 0.88549 0.47647 0.54741 0.0
H1042 H 0.90148 0.44244 0.48133 0.0
H1043 H 0.94354 0.45752 0.49374 0.0
C1044 C 0.83543 0.41022 0.49833 0.0
C1045 C 0.81803 0.4217 0.50595 0.0
C1046 C 0.85869 0.42242 0.49947 0.0
C1047 C 0.86499 0.44641 0.50804 0.0
C1048 C 0.84727 0.45823 0.51402 0.0
C1049 C 0.82404 0.44598 0.5131 0.0
C1050 C 0.92171 0.4812 0.54208 0.0
C1051 C 0.93828 0.4756 0.52737 0.0
C1052 C 0.89783 0.4727 0.53512 0.0
C1053 C 0.89012 0.45822 0.51339 0.0
C1054 C 0.90687 0.45339 0.49825 0.0
C1055 C 0.93083 0.46207 0.50521 0.0
H1056 H 0.31969 0.05468 0.23074 0.0
H1057 H 0.36561 0.09319 0.29189 0.0
H1058 H 0.29951 0.0872 0.22838 0.0
H1059 H 0.34586 0.12581 0.28917 0.0
H1060 H 0.29355 0.17079 0.29466 0.0
H1061 H 0.3085 0.13508 0.29584 0.0
H1062 H 0.30617 0.12795 0.21851 0.0
H1063 H 0.29047 0.1637 0.21733 0.0
C1064 C 0.32548 0.07008 0.24367 0.0
C1065 C 0.34417 0.07134 0.26161 0.0
C1066 C 0.314 0.08874 0.24221 0.0
C1067 C 0.32098 0.109 0.25866 0.0
C1068 C 0.33974 0.11025 0.27651 0.0
C1069 C 0.35116 0.0916 0.27801 0.0
C1070 C 0.29595 0.16145 0.27786 0.0
C1071 C 0.29114 0.17012 0.25591 0.0
C1072 C 0.30466 0.14107 0.27856 0.0
C1073 C 0.30901 0.12898 0.25733 0.0
C1074 C 0.30298 0.13689 0.23519 0.0
C1075 C 0.29401 0.15732 0.23447 0.0
H1076 H 0.33232 0.10324 0.46896 0.0
H1077 H 0.31809 0.07484 0.5357 0.0
H1078 H 0.36753 0.08695 0.46887 0.0
H1079 H 0.35363 0.0593 0.53609 0.0
H1080 H 0.44302 0.08345 0.49382 0.0
H1081 H 0.40552 0.09496 0.49023 0.0
H1082 H 0.37325 0.0311 0.51813 0.0
H1083 H 0.41136 0.01987 0.52253 0.0
C1084 C 0.33668 0.0935 0.48359 0.0
C1085 C 0.32245 0.09044 0.50237 0.0
C1086 C 0.35694 0.08425 0.48363 0.0
C1087 C 0.36356 0.0719 0.50257 0.0
C1088 C 0.34897 0.0684 0.52105 0.0
C1089 C 0.32864 0.07748 0.5209 0.0
C1090 C 0.42795 0.07171 0.49907 0.0
C1091 C 0.43024 0.05074 0.50855 0.0
C1092 C 0.40631 0.07826 0.49681 0.0
C1093 C 0.38625 0.06396 0.50379 0.0
C1094 C 0.38839 0.04269 0.51283 0.0
C1095 C 0.41018 0.03616 0.51522 0.0
H1096 H 0.66243 0.59487 0.3131 0.0
H1097 H 0.71807 0.56749 0.28278 0.0
H1098 H 0.68392 0.63473 0.31085 0.0
H1099 H 0.73949 0.60755 0.28042 0.0
H1100 H 0.7777 0.68636 0.29504 0.0
H1101 H 0.75987 0.64662 0.30358 0.0
H1102 H 0.69188 0.65643 0.27551 0.0
H1103 H 0.70944 0.6957 0.26699 0.0
C1104 C 0.6794 0.5973 0.30628 0.0
C1105 C 0.68834 0.57788 0.29783 0.0
C1106 C 0.69166 0.62019 0.30487 0.0
C1107 C 0.71323 0.62429 0.29509 0.0
C1108 C 0.72294 0.60497 0.28808 0.0
C1109 C 0.7106 0.582 0.28938 0.0
C1110 C 0.75895 0.68 0.29075 0.0
C1111 C 0.74503 0.69426 0.28036 0.0
C1112 C 0.74876 0.65724 0.29558 0.0
C1113 C 0.72443 0.64847 0.29044 0.0
C1114 C 0.7106 0.66278 0.28009 0.0
C1115 C 0.72075 0.68529 0.27503 0.0
H1116 H 0.82047 0.4612 0.78296 0.0
H1117 H 0.88889 0.44386 0.78711 0.0
H1118 H 0.80213 0.41957 0.78064 0.0
H1119 H 0.87092 0.40259 0.78298 0.0
H1120 H 0.8374 0.32865 0.78396 0.0
H1121 H 0.85166 0.37021 0.79762 0.0
H1122 H 0.79337 0.38623 0.75396 0.0
H1123 H 0.77823 0.34435 0.74235 0.0
C1124 C 0.83155 0.44846 0.78344 0.0
C1125 C 0.85608 0.45573 0.78518 0.0
C1126 C 0.82108 0.42456 0.78189 0.0
C1127 C 0.83492 0.40744 0.78139 0.0
C1128 C 0.85952 0.415 0.78384 0.0
C1129 C 0.86993 0.43881 0.78603 0.0
C1130 C 0.82756 0.34119 0.77772 0.0
C1131 C 0.80694 0.33362 0.76205 0.0
C1132 C 0.83578 0.36503 0.78531 0.0
C1133 C 0.82404 0.38188 0.77654 0.0
C1134 C 0.80283 0.37397 0.76143 0.0
C1135 C 0.7942 0.35 0.75453 0.0
H1136 H 0.01065 0.84381 0.12854 0.0
H1137 H 0.03181 0.8182 0.06145 0.0
H1138 H 0.00214 0.87798 0.11087 0.0
H1139 H 0.02166 0.85143 0.04299 0.0
H1140 H 0.03431 0.92901 0.02909 0.0
H1141 H 0.03566 0.89056 0.04144 0.0
H1142 H 0.97987 0.89569 0.08602 0.0
H1143 H 0.97995 0.93499 0.07484 0.0
C1144 C 0.01291 0.84524 0.10979 0.0
C1145 C 0.02211 0.82851 0.09644 0.0
C1146 C 0.00784 0.86479 0.09949 0.0
C1147 C 0.01127 0.8678 0.07536 0.0
C1148 C 0.01935 0.85025 0.06174 0.0
C1149 C 0.02501 0.83103 0.07225 0.0
C1150 C 0.02198 0.92165 0.04109 0.0
C1151 C 0.00712 0.93501 0.05111 0.0
C1152 C 0.02268 0.89947 0.04822 0.0
C1153 C 0.00813 0.88989 0.06515 0.0
C1154 C 0.99192 0.90264 0.0736 0.0
C1155 C 0.99168 0.92507 0.06694 0.0
H1156 H 0.95086 0.23467 0.81096 0.0
H1157 H 0.92167 0.25091 0.87682 0.0
H1158 H 0.91463 0.23841 0.78784 0.0
H1159 H 0.88567 0.25442 0.85375 0.0
H1160 H 0.83997 0.28974 0.8079 0.0
H1161 H 0.87695 0.2841 0.82688 0.0
H1162 H 0.87044 0.21994 0.7801 0.0
H1163 H 0.83297 0.22562 0.76079 0.0
C1164 C 0.93668 0.2388 0.82052 0.0
C1165 C 0.93926 0.24274 0.84576 0.0
C1166 C 0.91594 0.24085 0.80725 0.0
C1167 C 0.89752 0.24703 0.819 0.0
C1168 C 0.89979 0.25009 0.84421 0.0
C1169 C 0.92039 0.24795 0.85743 0.0
C1170 C 0.84645 0.27451 0.80142 0.0
C1171 C 0.83339 0.25793 0.78306 0.0
C1172 C 0.8676 0.27123 0.81242 0.0
C1173 C 0.87628 0.25133 0.80532 0.0
C1174 C 0.86404 0.23541 0.78596 0.0
C1175 C 0.84268 0.23867 0.7749 0.0
H1176 H 0.5267 0.21885 0.58352 0.0
H1177 H 0.52458 0.19531 0.65411 0.0
H1178 H 0.52142 0.17815 0.56581 0.0
H1179 H 0.52025 0.15507 0.63664 0.0
H1180 H 0.48285 0.08538 0.59708 0.0
H1181 H 0.49051 0.12607 0.61364 0.0
H1182 H 0.53982 0.14428 0.56199 0.0
H1183 H 0.53142 0.10311 0.54464 0.0
C1184 C 0.52521 0.20503 0.59524 0.0
C1185 C 0.52574 0.21027 0.62018 0.0
C1186 C 0.52242 0.18175 0.58512 0.0
C1187 C 0.52027 0.16334 0.59979 0.0
C1188 C 0.52133 0.16875 0.62475 0.0
C1189 C 0.52385 0.19187 0.63479 0.0
C1190 C 0.49543 0.09795 0.58923 0.0
C1191 C 0.50655 0.09099 0.56953 0.0
C1192 C 0.49994 0.12134 0.59887 0.0
C1193 C 0.5159 0.13845 0.58926 0.0
C1194 C 0.52726 0.13153 0.56965 0.0
C1195 C 0.5226 0.10797 0.55984 0.0
H1196 H 0.55579 0.75437 0.31316 0.0
H1197 H 0.5904 0.7458 0.38192 0.0
H1198 H 0.59207 0.75395 0.29501 0.0
H1199 H 0.62664 0.74575 0.36381 0.0
H1200 H 0.67851 0.7196 0.31934 0.0
H1201 H 0.64117 0.71954 0.33503 0.0
H1202 H 0.6325 0.77811 0.29601 0.0
H1203 H 0.67003 0.77805 0.27993 0.0
C1204 C 0.57112 0.75246 0.32442 0.0
C1205 C 0.57017 0.75 0.34898 0.0
C1206 C 0.59192 0.75236 0.31403 0.0
C1207 C 0.61212 0.74971 0.32796 0.0
C1208 C 0.61122 0.74745 0.35254 0.0
C1209 C 0.59048 0.74759 0.36294 0.0
C1210 C 0.66863 0.73242 0.31395 0.0
C1211 C 0.67729 0.74897 0.29853 0.0
C1212 C 0.64729 0.73245 0.32307 0.0
C1213 C 0.63408 0.74901 0.317 0.0
C1214 C 0.6423 0.76508 0.30092 0.0
C1215 C 0.66377 0.76508 0.29176 0.0
H1216 H 0.00532 0.21901 0.46822 0.0
H1217 H 0.02572 0.18359 0.4053 0.0
H1218 H 0.00843 0.18522 0.49014 0.0
H1219 H 0.02866 0.1501 0.42708 0.0
H1220 H 0.05741 0.10603 0.47792 0.0
H1221 H 0.05516 0.14248 0.46114 0.0
H1222 H 0.9887 0.14193 0.48913 0.0
H1223 H 0.991 0.10524 0.50625 0.0
C1224 C 0.0104 0.20405 0.45906 0.0
C1225 C 0.01536 0.20404 0.43503 0.0
C1226 C 0.01209 0.18471 0.47159 0.0
C1227 C 0.01902 0.16517 0.46038 0.0
C1228 C 0.02368 0.16509 0.43631 0.0
C1229 C 0.02182 0.18425 0.42378 0.0
C1230 C 0.04241 0.11376 0.48076 0.0
C1231 C 0.02421 0.1026 0.49312 0.0
C1232 C 0.0411 0.1346 0.47106 0.0
C1233 C 0.02156 0.14478 0.47345 0.0
C1234 C 0.00397 0.13443 0.48703 0.0
C1235 C 0.00528 0.11346 0.4968 0.0
H1236 H 0.56478 0.25072 0.20319 0.0
H1237 H 0.58545 0.24031 0.13188 0.0
H1238 H 0.60561 0.25511 0.22014 0.0
H1239 H 0.62573 0.24358 0.14866 0.0
H1240 H 0.69813 0.28042 0.18244 0.0
H1241 H 0.65722 0.27324 0.16671 0.0
H1242 H 0.63792 0.23584 0.2273 0.0
H1243 H 0.67928 0.2439 0.24366 0.0
C1244 C 0.57801 0.24919 0.19118 0.0
C1245 C 0.57198 0.24554 0.16619 0.0
C1246 C 0.60136 0.2515 0.20087 0.0
C1247 C 0.61906 0.24992 0.18577 0.0
C1248 C 0.61274 0.24552 0.16084 0.0
C1249 C 0.58958 0.24358 0.15119 0.0
C1250 C 0.68525 0.27053 0.19241 0.0
C1251 C 0.69201 0.26274 0.21432 0.0
C1252 C 0.6617 0.26626 0.18327 0.0
C1253 C 0.64417 0.25385 0.19565 0.0
C1254 C 0.65092 0.24568 0.21744 0.0
C1255 C 0.67462 0.25011 0.2267 0.0
H1256 H 0.52761 0.85345 0.9081 0.0
H1257 H 0.55013 0.82479 0.9722 0.0
H1258 H 0.52343 0.88849 0.9323 0.0
H1259 H 0.54558 0.86013 0.99661 0.0
H1260 H 0.55343 0.94103 0.02534 0.0
H1261 H 0.56072 0.90461 0.00506 0.0
H1262 H 0.49481 0.89504 0.96051 0.0
H1263 H 0.48773 0.93111 0.9803 0.0
C1264 C 0.5318 0.85465 0.92737 0.0
C1265 C 0.53892 0.83615 0.93822 0.0
C1266 C 0.52927 0.87472 0.94126 0.0
C1267 C 0.53372 0.87684 0.96639 0.0
C1268 C 0.54199 0.85892 0.97727 0.0
C1269 C 0.54454 0.83871 0.9633 0.0
C1270 C 0.54039 0.93086 0.01148 0.0
C1271 C 0.52021 0.93906 0.00413 0.0
C1272 C 0.54456 0.91008 -0.00012 0.0
C1273 C 0.52858 0.89731 0.98083 0.0
C1274 C 0.50777 0.90485 0.97465 0.0
C1275 C 0.50366 0.92547 0.98609 0.0
H1276 H 0.94188 0.72679 0.71686 0.0
H1277 H 0.94097 0.77917 0.66749 0.0
H1278 H 0.90706 0.73613 0.73265 0.0
H1279 H 0.90625 0.78881 0.68362 0.0
H1280 H 0.82609 0.76801 0.69195 0.0
H1281 H 0.8654 0.7685 0.6809 0.0
H1282 H 0.88995 0.76515 0.75493 0.0
H1283 H 0.85026 0.76428 0.76596 0.0
C1284 C 0.93446 0.74055 0.7096 0.0
C1285 C 0.94408 0.75205 0.69072 0.0
C1286 C 0.91457 0.74606 0.71882 0.0
C1287 C 0.90378 0.76319 0.70938 0.0
C1288 C 0.91396 0.77534 0.69112 0.0
C1289 C 0.93391 0.76986 0.68192 0.0
C1290 C 0.83997 0.76786 0.70598 0.0
C1291 C 0.83502 0.76592 0.72979 0.0
C1292 C 0.86258 0.76827 0.69965 0.0
C1293 C 0.88083 0.76664 0.71698 0.0
C1294 C 0.8762 0.76611 0.74109 0.0
C1295 C 0.85353 0.76586 0.74746 0.0
H1296 H 0.0642 0.02975 0.8391 0.0
H1297 H 0.11355 0.9891 0.86419 0.0
H1298 H 0.04417 0.02411 0.87507 0.0
H1299 H 0.09351 0.9836 0.90035 0.0
H1300 H 0.07133 0.01125 0.97371 0.0
H1301 H 0.0891 0.01098 0.93623 0.0
H1302 H 0.02027 0.99247 0.89644 0.0
H1303 H 0.00229 0.99235 0.93418 0.0
C1304 C 0.07069 0.01946 0.85222 0.0
C1305 C 0.09056 0.00996 0.84881 0.0
C1306 C 0.05909 0.0161 0.87276 0.0
C1307 C 0.06725 0.00342 0.89057 0.0
C1308 C 0.08689 0.99358 0.887 0.0
C1309 C 0.09831 0.99665 0.86626 0.0
C1310 C 0.0599 0.00679 0.95702 0.0
C1311 C 0.03533 0.0018 0.95702 0.0
C1312 C 0.07014 0.00656 0.93551 0.0
C1313 C 0.05612 0.00171 0.91335 0.0
C1314 C 0.03154 0.9964 0.91325 0.0
C1315 C 0.02125 0.99623 0.93486 0.0
H1316 H 0.76019 0.31242 0.55284 0.0
H1317 H 0.73684 0.36612 0.59641 0.0
H1318 H 0.75962 0.28881 0.58655 0.0
H1319 H 0.73642 0.34258 0.62997 0.0
H1320 H 0.71701 0.28776 0.6786 0.0
H1321 H 0.71407 0.30458 0.64073 0.0
H1322 H 0.78243 0.29225 0.62765 0.0
H1323 H 0.78533 0.27508 0.66569 0.0
C1324 C 0.75481 0.31913 0.56954 0.0
C1325 C 0.74854 0.34115 0.57198 0.0
C1326 C 0.75461 0.30565 0.58882 0.0
C1327 C 0.74787 0.31382 0.61076 0.0
C1328 C 0.74136 0.33569 0.61311 0.0
C1329 C 0.74174 0.34925 0.59394 0.0
C1330 C 0.73128 0.2883 0.66748 0.0
C1331 C 0.75158 0.2805 0.6752 0.0
C1332 C 0.7296 0.29799 0.64587 0.0
C1333 C 0.74821 0.30012 0.63156 0.0
C1334 C 0.76783 0.29078 0.63839 0.0
C1335 C 0.7695 0.28098 0.66011 0.0
H1336 H 0.43055 0.05619 0.36767 0.0
H1337 H 0.48148 0.01814 0.34288 0.0
H1338 H 0.45201 0.06324 0.40799 0.0
H1339 H 0.5028 0.02523 0.3828 0.0
H1340 H 0.54215 0.04482 0.45454 0.0
H1341 H 0.52558 0.05478 0.41634 0.0
H1342 H 0.45575 0.03278 0.43676 0.0
H1343 H 0.4721 0.0221 0.47424 0.0
C1344 C 0.4466 0.04985 0.37068 0.0
C1345 C 0.45417 0.03633 0.35225 0.0
C1346 C 0.45884 0.05384 0.39372 0.0
C1347 C 0.47904 0.04474 0.39855 0.0
C1348 C 0.48747 0.03271 0.37962 0.0
C1349 C 0.47511 0.02845 0.35678 0.0
C1350 C 0.52329 0.04277 0.45116 0.0
C1351 C 0.50846 0.03277 0.46754 0.0
C1352 C 0.51383 0.04845 0.42929 0.0
C1353 C 0.48937 0.04447 0.42354 0.0
C1354 C 0.47466 0.03638 0.44078 0.0
C1355 C 0.48409 0.03037 0.46242 0.0
H1356 H 0.75067 0.69493 0.06235 0.0
H1357 H 0.79458 0.6489 0.08734 0.0
H1358 H 0.75097 0.71201 0.10371 0.0
H1359 H 0.79534 0.66626 0.12829 0.0
H1360 H 0.77674 0.74973 0.18161 0.0
H1361 H 0.77501 0.73558 0.13902 0.0
H1362 H 0.76744 0.66444 0.15733 0.0
H1363 H 0.76978 0.67856 0.19956 0.0
C1364 C 0.7607 0.68873 0.07659 0.0
C1365 C 0.77237 0.67034 0.07157 0.0
C1366 C 0.76087 0.69853 0.10028 0.0
C1367 C 0.77277 0.69017 0.11937 0.0
C1368 C 0.78541 0.67265 0.11411 0.0
C1369 C 0.78514 0.66281 0.09057 0.0
C1370 C 0.77436 0.73105 0.17641 0.0
C1371 C 0.77367 0.71527 0.19391 0.0
C1372 C 0.77339 0.72295 0.15204 0.0
C1373 C 0.77162 0.69893 0.14481 0.0
C1374 C 0.76955 0.68312 0.16231 0.0
C1375 C 0.77069 0.6912 0.18653 0.0
H1376 H 0.07791 0.02468 0.72709 0.0
H1377 H 0.12333 0.98018 0.70187 0.0
H1378 H 0.06107 0.02483 0.6857 0.0
H1379 H 0.10628 0.97994 0.66091 0.0
H1380 H 0.09613 0.00781 0.59044 0.0
H1381 H 0.10929 0.00905 0.63276 0.0
H1382 H 0.03767 0.00115 0.64956 0.0
H1383 H 0.02445 0.0004 0.60685 0.0
C1384 C 0.08398 0.01458 0.71281 0.0
C1385 C 0.10219 0.00268 0.71776 0.0
C1386 C 0.07434 0.01468 0.6891 0.0
C1387 C 0.08271 0.00284 0.66995 0.0
C1388 C 0.09991 0.98983 0.67515 0.0
C1389 C 0.10958 0.98981 0.6987 0.0
C1390 C 0.08317 0.0066 0.60315 0.0
C1391 C 0.05924 0.00378 0.59528 0.0
C1392 C 0.0907 0.00711 0.62742 0.0
C1393 C 0.07448 0.00461 0.64451 0.0
C1394 C 0.05061 0.00305 0.63684 0.0
C1395 C 0.04304 0.00267 0.61241 0.0
H1396 H 0.75554 0.29542 0.45362 0.0
H1397 H 0.71715 0.3447 0.42555 0.0
H1398 H 0.75127 0.27393 0.41383 0.0
H1399 H 0.71289 0.32308 0.38556 0.0
H1400 H 0.75712 0.30777 0.3225 0.0
H1401 H 0.74722 0.32208 0.36103 0.0
H1402 H 0.72419 0.25082 0.37727 0.0
H1403 H 0.73364 0.23612 0.33785 0.0
C1404 C 0.74571 0.30134 0.43903 0.0
C1405 C 0.73707 0.32199 0.44254 0.0
C1406 C 0.74308 0.28888 0.4163 0.0
C1407 C 0.73197 0.297 0.39663 0.0
C1408 C 0.7217 0.31659 0.40048 0.0
C1409 C 0.7241 0.32893 0.42332 0.0
C1410 C 0.74952 0.29499 0.33395 0.0
C1411 C 0.74611 0.27073 0.327 0.0
C1412 C 0.74368 0.30328 0.35603 0.0
C1413 C 0.73467 0.28757 0.37201 0.0
C1414 C 0.73099 0.26327 0.36515 0.0
C1415 C 0.73646 0.2549 0.34268 0.0
H1416 H 0.46498 0.00834 0.23934 0.0
H1417 H 0.40972 0.03062 0.19714 0.0
H1418 H 0.4871 0.00792 0.2044 0.0
H1419 H 0.43165 0.03002 0.16251 0.0
H1420 H 0.48361 0.04915 0.1114 0.0
H1421 H 0.4686 0.05244 0.15018 0.0
H1422 H 0.4826 0.98462 0.16311 0.0
H1423 H 0.49807 0.98143 0.12407 0.0
C1424 C 0.45762 0.01326 0.2227 0.0
C1425 C 0.43562 0.01958 0.22102 0.0
C1426 C 0.47023 0.01288 0.20272 0.0
C1427 C 0.46117 0.0191 0.18086 0.0
C1428 C 0.43926 0.02552 0.17927 0.0
C1429 C 0.42662 0.02572 0.19908 0.0
C1430 C 0.4838 0.03505 0.12264 0.0
C1431 C 0.49159 0.01483 0.11461 0.0
C1432 C 0.47516 0.03693 0.1448 0.0
C1433 C 0.474 0.01858 0.15939 0.0
C1434 C 0.48331 0.99902 0.15216 0.0
C1435 C 0.49212 0.99718 0.12988 0.0
H1436 H 0.74109 0.70795 0.94992 0.0
H1437 H 0.79125 0.66722 0.92876 0.0
H1438 H 0.74667 0.7294 0.91497 0.0
H1439 H 0.79698 0.6889 0.89379 0.0
H1440 H 0.773 0.70894 0.819 0.0
H1441 H 0.77308 0.69069 0.85613 0.0
H1442 H 0.77515 0.7577 0.8962 0.0
H1443 H 0.77486 0.7761 0.85874 0.0
C1444 C 0.75348 0.7037 0.93792 0.0
C1445 C 0.76562 0.68574 0.94208 0.0
C1446 C 0.75681 0.71616 0.91796 0.0
C1447 C 0.77225 0.71088 0.90154 0.0
C1448 C 0.78479 0.69325 0.90597 0.0
C1449 C 0.78158 0.68088 0.92606 0.0
C1450 C 0.77365 0.7199 0.83571 0.0
C1451 C 0.77376 0.744 0.83585 0.0
C1452 C 0.77388 0.70942 0.85706 0.0
C1453 C 0.77409 0.72269 0.87916 0.0
C1454 C 0.77478 0.74693 0.87943 0.0
C1455 C 0.77475 0.75751 0.858 0.0
H1456 H 0.82406 0.05878 0.0395 0.0
H1457 H 0.83318 0.10966 0.98807 0.0
H1458 H 0.85625 0.04274 0.02525 0.0
H1459 H 0.86538 0.09338 0.97365 0.0
H1460 H 0.94329 0.08577 0.99436 0.0
H1461 H 0.90506 0.09595 0.99478 0.0
H1462 H 0.87212 0.02242 0.99115 0.0
H1463 H 0.91077 0.0122 0.99065 0.0
C1464 C 0.83267 0.06629 0.02486 0.0
C1465 C 0.82633 0.08574 0.01517 0.0
C1466 C 0.85096 0.05691 0.01652 0.0
C1467 C 0.86338 0.06686 0.99839 0.0
C1468 C 0.85621 0.08549 0.98778 0.0
C1469 C 0.83779 0.0948 0.99604 0.0
C1470 C 0.92782 0.07174 0.99304 0.0
C1471 C 0.92991 0.04824 0.99269 0.0
C1472 C 0.90589 0.07755 0.99311 0.0
C1473 C 0.88561 0.05999 0.99315 0.0
C1474 C 0.88752 0.03631 0.99128 0.0
C1475 C 0.90955 0.03045 0.99084 0.0
H1476 H 0.33831 0.40429 0.00758 0.0
H1477 H 0.33209 0.45414 0.06679 0.0
H1478 H 0.37783 0.42564 0.00463 0.0
H1479 H 0.3724 0.47521 0.0645 0.0
H1480 H 0.44012 0.51766 0.03842 0.0
H1481 H 0.39906 0.4993 0.04144 0.0
H1482 H 0.41498 0.43081 0.02637 0.0
H1483 H 0.45515 0.44896 0.0223 0.0
C1484 C 0.34548 0.41975 0.02014 0.0
C1485 C 0.33216 0.42734 0.03762 0.0
C1486 C 0.36825 0.43197 0.01853 0.0
C1487 C 0.37855 0.45193 0.03463 0.0
C1488 C 0.36501 0.45997 0.05176 0.0
C1489 C 0.34197 0.44784 0.05316 0.0
C1490 C 0.43474 0.49869 0.03577 0.0
C1491 C 0.45088 0.4848 0.02993 0.0
C1492 C 0.41126 0.48816 0.03761 0.0
C1493 C 0.40357 0.46356 0.03381 0.0
C1494 C 0.42001 0.4498 0.02873 0.0
C1495 C 0.44321 0.46026 0.0266 0.0
H1496 H 0.313 0.55526 0.72002 0.0
H1497 H 0.37137 0.58521 0.77362 0.0
H1498 H 0.2967 0.59027 0.72726 0.0
H1499 H 0.35514 0.62031 0.78062 0.0
H1500 H 0.33688 0.68871 0.75412 0.0
H1501 H 0.3503 0.65193 0.75297 0.0
H1502 H 0.28018 0.61455 0.76047 0.0
H1503 H 0.26663 0.65178 0.762 0.0
C1504 C 0.32224 0.56921 0.73351 0.0
C1505 C 0.34357 0.56754 0.74614 0.0
C1506 C 0.3128 0.58917 0.73776 0.0
C1507 C 0.32468 0.60802 0.75445 0.0
C1508 C 0.34568 0.60607 0.76755 0.0
C1509 C 0.35493 0.58597 0.76358 0.0
C1510 C 0.32428 0.6727 0.75568 0.0
C1511 C 0.30065 0.67312 0.75805 0.0
C1512 C 0.33205 0.65165 0.7552 0.0
C1513 C 0.31632 0.63039 0.7567 0.0
C1514 C 0.29266 0.63071 0.75924 0.0
C1515 C 0.28494 0.65197 0.7602 0.0
H1516 H 0.19769 0.62387 0.50547 0.0
H1517 H 0.21227 0.56435 0.53983 0.0
H1518 H 0.15644 0.60551 0.49895 0.0
H1519 H 0.17052 0.54545 0.53257 0.0
H1520 H 0.08922 0.53366 0.53683 0.0
H1521 H 0.13174 0.54885 0.54433 0.0
H1522 H 0.13138 0.57351 0.47415 0.0
H1523 H 0.08917 0.55928 0.46717 0.0
C1524 C 0.19213 0.60673 0.51149 0.0
C1525 C 0.20834 0.59553 0.52306 0.0
C1526 C 0.16841 0.59611 0.50759 0.0
C1527 C 0.16021 0.57385 0.51493 0.0
C1528 C 0.1763 0.56265 0.52679 0.0
C1529 C 0.2002 0.57342 0.53084 0.0
C1530 C 0.09836 0.54226 0.52305 0.0
C1531 C 0.08592 0.54569 0.50161 0.0
C1532 C 0.12267 0.55082 0.52726 0.0
C1533 C 0.13488 0.56271 0.50998 0.0
C1534 C 0.12244 0.56504 0.48812 0.0
C1535 C 0.09824 0.55683 0.48408 0.0
H1536 H 0.70923 0.94762 0.72977 0.0
H1537 H 0.67313 0.94307 0.79349 0.0
H1538 H 0.73129 0.91919 0.74277 0.0
H1539 H 0.6958 0.91489 0.80692 0.0
H1540 H 0.71859 0.84281 0.80337 0.0
H1541 H 0.69888 0.87483 0.79651 0.0
H1542 H 0.76163 0.91378 0.77181 0.0
H1543 H 0.78115 0.88139 0.77799 0.0
C1544 C 0.70613 0.94069 0.74669 0.0
C1545 C 0.68935 0.94757 0.76055 0.0
C1546 C 0.71898 0.92451 0.75428 0.0
C1547 C 0.7155 0.91485 0.77602 0.0
C1548 C 0.6988 0.92185 0.79 0.0
C1549 C 0.68585 0.93803 0.78234 0.0
C1550 C 0.72837 0.85838 0.7969 0.0
C1551 C 0.75139 0.85943 0.79098 0.0
C1552 C 0.71704 0.87681 0.79302 0.0
C1553 C 0.72853 0.89676 0.78326 0.0
C1554 C 0.75207 0.89843 0.77882 0.0
C1555 C 0.76335 0.87994 0.78256 0.0
H1556 H 0.72027 0.95709 0.56704 0.0
H1557 H 0.69639 0.89924 0.5113 0.0
H1558 H 0.68382 0.97054 0.55863 0.0
H1559 H 0.65995 0.91276 0.50292 0.0
H1560 H 0.5878 0.9236 0.52303 0.0
H1561 H 0.62609 0.91353 0.52701 0.0
H1562 H 0.65946 0.98646 0.52689 0.0
H1563 H 0.62076 0.99673 0.52283 0.0
C1564 C 0.70736 0.94739 0.55281 0.0
C1565 C 0.71112 0.92696 0.53998 0.0
C1566 C 0.68656 0.95521 0.54791 0.0
C1567 C 0.66898 0.94261 0.53024 0.0
C1568 C 0.6731 0.92267 0.51683 0.0
C1569 C 0.694 0.91498 0.52156 0.0
C1570 C 0.60323 0.93758 0.52382 0.0
C1571 C 0.6012 0.96101 0.52267 0.0
C1572 C 0.6252 0.93173 0.52588 0.0
C1573 C 0.64577 0.94916 0.52707 0.0
C1574 C 0.64387 0.97267 0.52605 0.0
C1575 C 0.62175 0.97853 0.5237 0.0
H1576 H 0.31707 0.45048 0.73572 0.0
H1577 H 0.38214 0.42658 0.74497 0.0
H1578 H 0.29515 0.41067 0.73886 0.0
H1579 H 0.36043 0.38701 0.74726 0.0
H1580 H 0.32005 0.32703 0.78024 0.0
H1581 H 0.33887 0.36704 0.77573 0.0
H1582 H 0.28389 0.37008 0.72032 0.0
H1583 H 0.26443 0.32982 0.72548 0.0
C1584 C 0.32668 0.4367 0.73813 0.0
C1585 C 0.35137 0.44177 0.74042 0.0
C1586 C 0.31411 0.41388 0.73984 0.0
C1587 C 0.32602 0.39568 0.74372 0.0
C1588 C 0.35067 0.40068 0.74497 0.0
C1589 C 0.36316 0.42341 0.74351 0.0
C1590 C 0.31188 0.33617 0.76709 0.0
C1591 C 0.29085 0.32513 0.75302 0.0
C1592 C 0.32278 0.35914 0.76439 0.0
C1593 C 0.31319 0.3717 0.74732 0.0
C1594 C 0.29175 0.36094 0.73368 0.0
C1595 C 0.28064 0.33787 0.73656 0.0
H1596 H 0.15798 0.57428 0.29303 0.0
H1597 H 0.19651 0.56075 0.23306 0.0
H1598 H 0.17514 0.61587 0.29525 0.0
H1599 H 0.21339 0.60287 0.23495 0.0
H1600 H 0.18455 0.68893 0.27633 0.0
H1601 H 0.16995 0.64666 0.27042 0.0
H1602 H 0.23973 0.63663 0.26019 0.0
H1603 H 0.25431 0.67925 0.26549 0.0
C1604 C 0.17013 0.58021 0.28029 0.0
C1605 C 0.17566 0.5643 0.26266 0.0
C1606 C 0.17985 0.60408 0.28147 0.0
C1607 C 0.19517 0.61268 0.26492 0.0
C1608 C 0.20157 0.59671 0.2479 0.0
C1609 C 0.19191 0.57265 0.24681 0.0
C1610 C 0.19675 0.67774 0.2726 0.0
C1611 C 0.2206 0.68732 0.27172 0.0
C1612 C 0.18842 0.65353 0.26934 0.0
C1613 C 0.20381 0.63834 0.2654 0.0
C1614 C 0.22748 0.64793 0.26323 0.0
C1615 C 0.23581 0.67228 0.26631 0.0
H1616 H 0.48273 0.66776 0.40622 0.0
H1617 H 0.53855 0.70145 0.46129 0.0
H1618 H 0.48145 0.63051 0.42282 0.0
H1619 H 0.53749 0.66402 0.47766 0.0
H1620 H 0.51052 0.59418 0.51131 0.0
H1621 H 0.51283 0.63328 0.49789 0.0
H1622 H 0.50792 0.60302 0.42427 0.0
H1623 H 0.50535 0.56428 0.43753 0.0
C1624 C 0.49463 0.66725 0.42194 0.0
C1625 C 0.51085 0.68751 0.4323 0.0
C1626 C 0.49402 0.64588 0.43136 0.0
C1627 C 0.50962 0.64428 0.45134 0.0
C1628 C 0.52523 0.66472 0.4623 0.0
C1629 C 0.52587 0.68612 0.45284 0.0
C1630 C 0.51031 0.59603 0.49232 0.0
C1631 C 0.50751 0.5762 0.47544 0.0
C1632 C 0.51157 0.61836 0.48463 0.0
C1633 C 0.51006 0.62112 0.45999 0.0
C1634 C 0.50847 0.60138 0.44332 0.0
C1635 C 0.50717 0.5792 0.45095 0.0
H1636 H 0.6227 0.29567 0.66228 0.0
H1637 H 0.59035 0.29345 0.72845 0.0
H1638 H 0.65926 0.29102 0.68367 0.0
H1639 H 0.62699 0.28874 0.74974 0.0
H1640 H 0.7053 0.29544 0.78077 0.0
H1641 H 0.67054 0.30693 0.76197 0.0
H1642 H 0.66737 0.25493 0.70165 0.0
H1643 H 0.70163 0.24328 0.72031 0.0
C1644 C 0.62351 0.29476 0.68147 0.0
C1645 C 0.60347 0.2946 0.69358 0.0
C1646 C 0.64441 0.2919 0.69367 0.0
C1647 C 0.64578 0.28906 0.71826 0.0
C1648 C 0.6264 0.29084 0.73078 0.0
C1649 C 0.60541 0.2935 0.71854 0.0
C1650 C 0.697 0.2863 0.76363 0.0
C1651 C 0.70631 0.26851 0.75202 0.0
C1652 C 0.67719 0.29295 0.75286 0.0
C1653 C 0.66656 0.28211 0.73017 0.0
C1654 C 0.67552 0.26395 0.7189 0.0
C1655 C 0.69502 0.25712 0.72975 0.0
H1656 H 0.03605 0.32957 0.91492 0.0
H1657 H 0.9806 0.31004 0.95981 0.0
H1658 H 0.03992 0.37072 0.92988 0.0
H1659 H 0.98403 0.35124 0.97429 0.0
H1660 H 0.023 0.4426 0.93868 0.0
H1661 H 0.01791 0.40094 0.92561 0.0
H1662 H 0.00892 0.38499 0.99817 0.0
H1663 H 0.01346 0.42678 0.01115 0.0
C1664 C 0.02476 0.33404 0.92806 0.0
C1665 C 0.00797 0.31653 0.93609 0.0
C1666 C 0.02681 0.35766 0.93648 0.0
C1667 C 0.01205 0.36434 0.95305 0.0
C1668 C 0.99576 0.34673 0.96164 0.0
C1669 C 0.99376 0.3231 0.95328 0.0
C1670 C 0.01966 0.43019 0.95181 0.0
C1671 C 0.0187 0.438 0.97596 0.0
C1672 C 0.01698 0.40631 0.94436 0.0
C1673 C 0.01342 0.38962 0.9609 0.0
C1674 C 0.01155 0.39735 0.98492 0.0
C1675 C 0.01412 0.4213 0.99237 0.0
H1676 H 0.97698 0.75257 0.22504 0.0
H1677 H 0.95452 0.78914 0.16683 0.0
H1678 H 0.9406 0.75367 0.24258 0.0
H1679 H 0.91772 0.78949 0.18386 0.0
H1680 H 0.86202 0.80415 0.22938 0.0
H1681 H 0.90072 0.80604 0.21611 0.0
H1682 H 0.89987 0.73608 0.23577 0.0
H1683 H 0.86141 0.73465 0.24994 0.0
C1684 C 0.96425 0.76085 0.21598 0.0
C1685 C 0.9686 0.77077 0.19454 0.0
C1686 C 0.94331 0.76133 0.22596 0.0
C1687 C 0.92614 0.77157 0.21462 0.0
C1688 C 0.93068 0.78178 0.19331 0.0
C1689 C 0.95173 0.78149 0.18345 0.0
C1690 C 0.8702 0.78925 0.23106 0.0
C1691 C 0.85868 0.7692 0.24058 0.0
C1692 C 0.89233 0.79027 0.22329 0.0
C1693 C 0.90335 0.77112 0.22458 0.0
C1694 C 0.89205 0.75127 0.23475 0.0
C1695 C 0.86997 0.75039 0.24281 0.0
H1696 H 0.49013 0.31567 0.11884 0.0
H1697 H 0.52159 0.29454 0.05615 0.0
H1698 H 0.49015 0.35374 0.10452 0.0
H1699 H 0.52084 0.3323 0.04133 0.0
H1700 H 0.54019 0.41193 0.03629 0.0
H1701 H 0.53936 0.37285 0.0488 0.0
H1702 H 0.47204 0.3726 0.07498 0.0
H1703 H 0.47334 0.41181 0.06331 0.0
C1704 C 0.49675 0.31904 0.10183 0.0
C1705 C 0.50585 0.30209 0.08864 0.0
C1706 C 0.49667 0.34086 0.09353 0.0
C1707 C 0.50548 0.34616 0.07171 0.0
C1708 C 0.51426 0.32901 0.05837 0.0
C1709 C 0.51452 0.30727 0.06678 0.0
C1710 C 0.52517 0.4034 0.04457 0.0
C1711 C 0.50693 0.415 0.04896 0.0
C1712 C 0.52463 0.38097 0.05167 0.0
C1713 C 0.5057 0.36958 0.06311 0.0
C1714 C 0.48715 0.38099 0.06676 0.0
C1715 C 0.48782 0.40344 0.0599 0.0
H1716 H 0.95505 0.24587 0.32702 0.0
H1717 H 0.94751 0.29586 0.3856 0.0
H1718 H 0.91588 0.24687 0.30872 0.0
H1719 H 0.90873 0.29721 0.36708 0.0
H1720 H 0.83059 0.25991 0.34907 0.0
H1721 H 0.87214 0.26815 0.36319 0.0
H1722 H 0.88913 0.26987 0.2901 0.0
H1723 H 0.84717 0.2613 0.27585 0.0
C1724 C 0.94526 0.25742 0.33573 0.0
C1725 C 0.95421 0.27044 0.35799 0.0
C1726 C 0.92286 0.2581 0.32517 0.0
C1727 C 0.90908 0.2719 0.33662 0.0
C1728 C 0.91872 0.28605 0.35806 0.0
C1729 C 0.94097 0.28529 0.36865 0.0
C1730 C 0.84316 0.26243 0.33601 0.0
C1731 C 0.83563 0.25985 0.31137 0.0
C1732 C 0.86702 0.2673 0.34411 0.0
C1733 C 0.88396 0.26961 0.32776 0.0
C1734 C 0.87647 0.26799 0.30311 0.0
C1735 C 0.85249 0.26329 0.29498 0.0
H1736 H 0.9762 0.65765 0.6276 0.0
H1737 H 0.99324 0.69405 0.56579 0.0
H1738 H 0.97875 0.62076 0.60528 0.0
H1739 H 0.9958 0.657 0.54355 0.0
H1740 H 0.98404 0.5789 0.5083 0.0
H1741 H 0.97387 0.61468 0.5268 0.0
H1742 H 0.0158 0.60951 0.59235 0.0
H1743 H 0.02612 0.57438 0.57413 0.0
C1744 C 0.97997 0.65775 0.6091 0.0
C1745 C 0.98488 0.6789 0.59863 0.0
C1746 C 0.98155 0.63661 0.59637 0.0
C1747 C 0.98787 0.63612 0.57283 0.0
C1748 C 0.99091 0.65689 0.56166 0.0
C1749 C 0.9895 0.6781 0.57447 0.0
C1750 C 0.99118 0.58555 0.52659 0.0
C1751 C 0.00591 0.57378 0.53969 0.0
C1752 C 0.98532 0.60595 0.53717 0.0
C1753 C 0.99375 0.61462 0.56112 0.0
C1754 C 0.00866 0.60298 0.57402 0.0
C1755 C 0.01477 0.58295 0.56343 0.0
H1756 H 0.60912 0.75714 0.87832 0.0
H1757 H 0.56396 0.76784 0.81715 0.0
H1758 H 0.6402 0.75488 0.85291 0.0
H1759 H 0.59495 0.76486 0.79148 0.0
H1760 H 0.66765 0.79494 0.76599 0.0
H1761 H 0.63183 0.78874 0.78547 0.0
H1762 H 0.65389 0.73313 0.82112 0.0
H1763 H 0.69021 0.73987 0.80214 0.0
C1764 C 0.60567 0.75866 0.85936 0.0
C1765 C 0.58409 0.76292 0.84986 0.0
C1766 C 0.62348 0.75714 0.84469 0.0
C1767 C 0.62014 0.7597 0.82009 0.0
C1768 C 0.59825 0.76313 0.81041 0.0
C1769 C 0.58045 0.76477 0.82512 0.0
C1770 C 0.66469 0.78104 0.77758 0.0
C1771 C 0.682 0.76816 0.7828 0.0
C1772 C 0.64402 0.77741 0.78872 0.0
C1773 C 0.6401 0.76069 0.80522 0.0
C1774 C 0.6566 0.74655 0.80896 0.0
C1775 C 0.67734 0.75027 0.79791 0.0
H1776 H 0.46537 0.52052 0.70707 0.0
H1777 H 0.40495 0.53102 0.66277 0.0
H1778 H 0.488 0.52296 0.67243 0.0
H1779 H 0.42759 0.53322 0.62835 0.0
H1780 H 0.52121 0.55003 0.60147 0.0
H1781 H 0.50231 0.55346 0.6387 0.0
H1782 H 0.44436 0.49769 0.60806 0.0
H1783 H 0.46291 0.49405 0.57142 0.0
C1784 C 0.457 0.52372 0.6901 0.0
C1785 C 0.43321 0.52532 0.68767 0.0
C1786 C 0.47003 0.52522 0.67034 0.0
C1787 C 0.45946 0.52815 0.64778 0.0
C1788 C 0.43607 0.53079 0.64557 0.0
C1789 C 0.42312 0.52952 0.6653 0.0
C1790 C 0.50452 0.53844 0.60281 0.0
C1791 C 0.49348 0.52194 0.58337 0.0
C1792 C 0.49375 0.54041 0.62405 0.0
C1793 C 0.47175 0.52604 0.62601 0.0
C1794 C 0.46108 0.50929 0.60681 0.0
C1795 C 0.4718 0.50722 0.58582 0.0
H1796 H 0.75838 0.21184 0.98158 0.0
H1797 H 0.80043 0.16626 0.9512 0.0
H1798 H 0.76244 0.23463 0.94751 0.0
H1799 H 0.80392 0.18867 0.91668 0.0
H1800 H 0.82161 0.24284 0.86619 0.0
H1801 H 0.82115 0.22611 0.90429 0.0
H1802 H 0.74826 0.22996 0.90565 0.0
H1803 H 0.74898 0.24735 0.86787 0.0
C1804 C 0.7685 0.20667 0.96759 0.0
C1805 C 0.77904 0.1872 0.96901 0.0
C1806 C 0.77073 0.21969 0.94803 0.0
C1807 C 0.78345 0.21346 0.92936 0.0
C1808 C 0.7943 0.19417 0.93095 0.0
C1809 C 0.79218 0.18122 0.95063 0.0
C1810 C 0.80561 0.24049 0.87487 0.0
C1811 C 0.78528 0.24625 0.86404 0.0
C1812 C 0.8053 0.23072 0.89658 0.0
C1813 C 0.78458 0.22635 0.90781 0.0
C1814 C 0.76457 0.23326 0.89757 0.0
C1815 C 0.76496 0.24323 0.87592 0.0
H1816 H 0.06364 0.48876 0.20958 0.0
H1817 H 0.11361 0.45684 0.1737 0.0
H1818 H 0.04033 0.48733 0.17133 0.0
H1819 H 0.08981 0.45478 0.13548 0.0
H1820 H 0.07047 0.50054 0.07733 0.0
H1821 H 0.08649 0.48823 0.11382 0.0
H1822 H 0.01657 0.46632 0.13428 0.0
H1823 H 0.00022 0.479 0.09717 0.0
C1824 C 0.06932 0.48081 0.19363 0.0
C1825 C 0.09084 0.47351 0.19457 0.0
C1826 C 0.05581 0.47983 0.1717 0.0
C1827 C 0.06349 0.47139 0.15034 0.0
C1828 C 0.08375 0.46188 0.15162 0.0
C1829 C 0.09736 0.46302 0.17352 0.0
C1830 C 0.05836 0.49291 0.0894 0.0
C1831 C 0.03404 0.49093 0.08442 0.0
C1832 C 0.06759 0.48555 0.11026 0.0
C1833 C 0.05281 0.47608 0.12687 0.0
C1834 C 0.02838 0.47357 0.12177 0.0
C1835 C 0.01904 0.4808 0.10059 0.0
H1836 H 0.73568 0.85192 0.45917 0.0
H1837 H 0.78959 0.81277 0.47359 0.0
H1838 H 0.73276 0.83828 0.41656 0.0
H1839 H 0.78711 0.79964 0.43098 0.0
H1840 H 0.75428 0.83504 0.3411 0.0
H1841 H 0.7564 0.84583 0.38407 0.0
H1842 H 0.76328 0.77567 0.39692 0.0
H1843 H 0.76169 0.765 0.3537 0.0
C1844 C 0.74677 0.84026 0.45329 0.0
C1845 C 0.76293 0.83353 0.46979 0.0
C1846 C 0.74527 0.83261 0.42882 0.0
C1847 C 0.75994 0.81811 0.42025 0.0
C1848 C 0.77545 0.81066 0.43691 0.0
C1849 C 0.77691 0.81827 0.46138 0.0
C1850 C 0.75642 0.82193 0.35307 0.0
C1851 C 0.75778 0.79915 0.34396 0.0
C1852 C 0.7574 0.82806 0.37774 0.0
C1853 C 0.75963 0.81153 0.394 0.0
C1854 C 0.76165 0.78888 0.38493 0.0
C1855 C 0.76077 0.78276 0.36016 0.0
H1856 H 0.40561 0.52967 0.83258 0.0
H1857 H 0.4678 0.50569 0.81515 0.0
H1858 H 0.41934 0.53317 0.87508 0.0
H1859 H 0.48231 0.5104 0.85758 0.0
H1860 H 0.49085 0.49798 0.93659 0.0
H1861 H 0.47741 0.49431 0.89377 0.0
H1862 H 0.44591 0.55459 0.9058 0.0
H1863 H 0.45817 0.55727 0.94841 0.0
C1864 C 0.42246 0.52558 0.83784 0.0
C1865 C 0.43561 0.51741 0.82052 0.0
C1866 C 0.43044 0.52767 0.86226 0.0
C1867 C 0.45203 0.52206 0.86999 0.0
C1868 C 0.46541 0.51442 0.8525 0.0
C1869 C 0.4572 0.51194 0.8281 0.0
C1870 C 0.48098 0.51034 0.92997 0.0
C1871 C 0.47536 0.52773 0.94586 0.0
C1872 C 0.47339 0.50839 0.90539 0.0
C1873 C 0.46041 0.5241 0.89613 0.0
C1874 C 0.45529 0.54176 0.91215 0.0
C1875 C 0.46246 0.5434 0.93667 0.0
H1876 H 0.81146 0.15398 0.11667 0.0
H1877 H 0.78613 0.20755 0.0803 0.0
H1878 H 0.81372 0.17774 0.155 0.0
H1879 H 0.78774 0.23086 0.11859 0.0
H1880 H 0.79642 0.27103 0.19248 0.0
H1881 H 0.80886 0.25318 0.15598 0.0
H1882 H 0.7808 0.18419 0.17592 0.0
H1883 H 0.76881 0.2017 0.21191 0.0
C1884 C 0.80677 0.17097 0.11678 0.0
C1885 C 0.79807 0.17859 0.0955 0.0
C1886 C 0.80801 0.18456 0.13874 0.0
C1887 C 0.80042 0.20594 0.13986 0.0
C1888 C 0.79375 0.21451 0.11837 0.0
C1889 C 0.79264 0.201 0.09641 0.0
C1890 C 0.7932 0.25207 0.18909 0.0
C1891 C 0.78143 0.23781 0.20494 0.0
C1892 C 0.8003 0.24187 0.16825 0.0
C1893 C 0.79595 0.21726 0.16314 0.0
C1894 C 0.78488 0.20316 0.17948 0.0
C1895 C 0.77769 0.21327 0.20003 0.0
H1896 H 0.10556 0.474 0.33921 0.0
H1897 H 0.0629 0.51914 0.30971 0.0
H1898 H 0.08394 0.4724 0.37437 0.0
H1899 H 0.0409 0.517 0.34443 0.0
H1900 H 0.02887 0.53081 0.42428 0.0
H1901 H 0.04641 0.53095 0.38652 0.0
H1902 H 0.04597 0.45696 0.38668 0.0
H1903 H 0.02914 0.45705 0.42472 0.0
C1904 C 0.09143 0.48337 0.34013 0.0
C1905 C 0.08596 0.4967 0.32174 0.0
C1906 C 0.07893 0.48235 0.36018 0.0
C1907 C 0.06063 0.49453 0.36214 0.0
C1908 C 0.05505 0.50766 0.3436 0.0
C1909 C 0.0676 0.50876 0.32365 0.0
C1910 C 0.03208 0.5145 0.41595 0.0
C1911 C 0.0278 0.49395 0.42744 0.0
C1912 C 0.04216 0.51456 0.39435 0.0
C1913 C 0.04789 0.49402 0.38378 0.0
C1914 C 0.0423 0.47319 0.39466 0.0
C1915 C 0.03246 0.47319 0.41632 0.0
H1916 H 0.74241 0.86937 0.62338 0.0
H1917 H 0.77104 0.81379 0.58953 0.0
H1918 H 0.73786 0.84855 0.65875 0.0
H1919 H 0.76711 0.79322 0.62536 0.0
H1920 H 0.74224 0.75446 0.68912 0.0
H1921 H 0.74073 0.77221 0.6513 0.0
H1922 H 0.76398 0.84114 0.69066 0.0
H1923 H 0.76487 0.82367 0.72801 0.0
C1924 C 0.74773 0.85268 0.62345 0.0
C1925 C 0.75735 0.84341 0.60368 0.0
C1926 C 0.7452 0.84076 0.64382 0.0
C1927 C 0.75241 0.81933 0.64509 0.0
C1928 C 0.76122 0.80959 0.62496 0.0
C1929 C 0.76361 0.82147 0.60446 0.0
C1930 C 0.74679 0.7734 0.68963 0.0
C1931 C 0.75372 0.7876 0.71162 0.0
C1932 C 0.74608 0.78357 0.66797 0.0
C1933 C 0.75216 0.80814 0.66789 0.0
C1934 C 0.75877 0.82222 0.68996 0.0
C1935 C 0.75948 0.81212 0.71146 0.0
H1936 H 0.71627 0.45896 0.56412 0.0
H1937 H 0.68123 0.41828 0.49838 0.0
H1938 H 0.68548 0.4816 0.56455 0.0
H1939 H 0.65036 0.44052 0.49907 0.0
H1940 H 0.60938 0.49529 0.49203 0.0
H1941 H 0.64487 0.47966 0.49369 0.0
H1942 H 0.64339 0.47673 0.57002 0.0
H1943 H 0.60797 0.49319 0.56836 0.0
C1944 C 0.70201 0.45485 0.54977 0.0
C1945 C 0.70122 0.43689 0.53113 0.0
C1946 C 0.68434 0.46776 0.5501 0.0
C1947 C 0.66561 0.46302 0.53176 0.0
C1948 C 0.66482 0.44497 0.51322 0.0
C1949 C 0.68243 0.43208 0.51289 0.0
C1950 C 0.61695 0.49179 0.50926 0.0
C1951 C 0.60591 0.49521 0.53004 0.0
C1952 C 0.63715 0.48265 0.51018 0.0
C1953 C 0.64658 0.47638 0.53186 0.0
C1954 C 0.63651 0.48138 0.55304 0.0
C1955 C 0.61631 0.49084 0.55214 0.0
H1956 H 0.17698 0.11499 0.46968 0.0
H1957 H 0.20686 0.06201 0.50239 0.0
H1958 H 0.13773 0.09277 0.47327 0.0
H1959 H 0.16738 0.03984 0.50603 0.0
H1960 H 0.08869 -0.00012 0.49286 0.0
H1961 H 0.12796 0.01792 0.48326 0.0
H1962 H 0.11774 0.08605 0.51051 0.0
H1963 H 0.079 0.0683 0.52026 0.0
C1964 C 0.17522 0.09843 0.47729 0.0
C1965 C 0.19514 0.09049 0.48606 0.0
C1966 C 0.1527 0.08576 0.47945 0.0
C1967 C 0.14951 0.06478 0.49029 0.0
C1968 C 0.16931 0.05595 0.49758 0.0
C1969 C 0.19192 0.06871 0.49554 0.0
C1970 C 0.09487 0.0187 0.49679 0.0
C1971 C 0.08061 0.03264 0.5072 0.0
C1972 C 0.11734 0.029 0.49132 0.0
C1973 C 0.12578 0.05342 0.49584 0.0
C1974 C 0.11156 0.06724 0.50637 0.0
C1975 C 0.08935 0.05699 0.51209 0.0
H1976 H 0.17352 0.93813 0.80477 0.0
H1977 H 0.20988 0.96096 0.74469 0.0
H1978 H 0.18815 0.9019 0.80126 0.0
H1979 H 0.22405 0.92453 0.74083 0.0
H1980 H 0.25949 0.86196 0.75235 0.0
H1981 H 0.24928 0.90056 0.75873 0.0
H1982 H 0.17985 0.86697 0.77321 0.0
H1983 H 0.19002 0.82894 0.76731 0.0
C1984 C 0.18476 0.93551 0.79092 0.0
C1985 C 0.19038 0.95239 0.77493 0.0
C1986 C 0.19304 0.91466 0.78879 0.0
C1987 C 0.20708 0.91015 0.77056 0.0
C1988 C 0.21344 0.92746 0.75517 0.0
C1989 C 0.20518 0.94832 0.75732 0.0
C1990 C 0.24206 0.8629 0.75685 0.0
C1991 C 0.22564 0.84234 0.75937 0.0
C1992 C 0.23619 0.88499 0.76049 0.0
C1993 C 0.2138 0.88692 0.76679 0.0
C1994 C 0.19741 0.86627 0.76897 0.0
C1995 C 0.20323 0.84436 0.76534 0.0
H1996 H 0.31375 0.94443 4e-05 0.0
H1997 H 0.32979 0.87624 0.00637 0.0
H1998 H 0.35558 0.96189 0.00266 0.0
H1999 H 0.37131 0.89359 0.01086 0.0
H2000 H 0.44574 0.92518 0.0075 0.0
H2001 H 0.40417 0.90997 0.99479 0.0
H2002 H 0.38846 0.97313 0.02976 0.0
H2003 H 0.4303 0.98891 0.04045 0.0
C2004 C 0.32629 0.93322 0.00201 0.0
C2005 C 0.3186 0.90902 0.00297 0.0
C2006 C 0.35028 0.94321 0.00373 0.0
C2007 C 0.36708 0.92928 0.00713 0.0
C2008 C 0.35915 0.90495 0.00767 0.0
C2009 C 0.33523 0.89493 0.00528 0.0
C2010 C 0.43328 0.93583 0.01209 0.0
C2011 C 0.44097 0.95804 0.02505 0.0
C2012 C 0.40943 0.92709 0.00504 0.0
C2013 C 0.39267 0.94003 0.01161 0.0
C2014 C 0.40066 0.96268 0.02401 0.0
C2015 C 0.42463 0.97172 0.03036 0.0
H2016 H 0.85567 0.59356 0.80149 0.0
H2017 H 0.81709 0.56427 0.73285 0.0
H2018 H 0.83954 0.62864 0.79944 0.0
H2019 H 0.80152 0.59973 0.73044 0.0
H2020 H 0.76478 0.66248 0.74514 0.0
H2021 H 0.77645 0.62457 0.74698 0.0
H2022 H 0.84659 0.661 0.77581 0.0
H2023 H 0.83484 0.69831 0.77459 0.0
C2024 C 0.84364 0.59455 0.78604 0.0
C2025 C 0.83785 0.57627 0.76725 0.0
C2026 C 0.83451 0.61472 0.78476 0.0
C2027 C 0.81959 0.61716 0.76454 0.0
C2028 C 0.81291 0.59838 0.74627 0.0
C2029 C 0.82193 0.57811 0.74763 0.0
C2030 C 0.78271 0.66224 0.75161 0.0
C2031 C 0.79884 0.68323 0.75999 0.0
C2032 C 0.78939 0.64061 0.75272 0.0
C2033 C 0.81231 0.63978 0.76208 0.0
C2034 C 0.8286 0.66095 0.76928 0.0
C2035 C 0.82191 0.68236 0.76838 0.0
H2036 H 0.83494 0.59705 0.97963 0.0
H2037 H 0.81798 0.56725 0.04503 0.0
H2038 H 0.8706 0.58148 0.98109 0.0
H2039 H 0.85401 0.55246 0.04704 0.0
H2040 H 0.91328 0.51374 0.0344 0.0
H2041 H 0.87523 0.5252 0.03037 0.0
H2042 H 0.9078 0.5896 0.00363 0.0
H2043 H 0.9452 0.57787 0.00685 0.0
C2044 C 0.8388 0.58716 0.99431 0.0
C2045 C 0.82365 0.5835 0.01225 0.0
C2046 C 0.85935 0.57835 0.99527 0.0
C2047 C 0.8654 0.56587 0.01434 0.0
C2048 C 0.84988 0.56172 0.03194 0.0
C2049 C 0.82924 0.57035 0.03086 0.0
C2050 C 0.91221 0.5303 0.02763 0.0
C2051 C 0.93226 0.54481 0.02086 0.0
C2052 C 0.89043 0.53694 0.02538 0.0
C2053 C 0.88831 0.55828 0.01645 0.0
C2054 C 0.90851 0.57279 0.00998 0.0
C2055 C 0.9301 0.56611 0.01205 0.0
H2056 H 0.16155 0.09757 0.8113 0.0
H2057 H 0.21549 0.06978 0.77807 0.0
H2058 H 0.18282 0.13735 0.80819 0.0
H2059 H 0.23657 0.10966 0.77467 0.0
H2060 H 0.27588 0.18738 0.78656 0.0
H2061 H 0.25816 0.14797 0.79587 0.0
H2062 H 0.18931 0.1599 0.77401 0.0
H2063 H 0.20682 0.19905 0.76502 0.0
C2064 C 0.17809 0.0999 0.80361 0.0
C2065 C 0.18663 0.08039 0.79469 0.0
C2066 C 0.19021 0.12274 0.80168 0.0
C2067 C 0.2112 0.1267 0.7908 0.0
C2068 C 0.22049 0.10726 0.7832 0.0
C2069 C 0.20834 0.08436 0.7851 0.0
C2070 C 0.25696 0.18158 0.78382 0.0
C2071 C 0.2428 0.1964 0.77501 0.0
C2072 C 0.24682 0.15898 0.78908 0.0
C2073 C 0.2223 0.15083 0.78587 0.0
C2074 C 0.20822 0.16573 0.77713 0.0
C2075 C 0.21831 0.18815 0.77174 0.0
H2076 H 0.3832 0.94326 0.31163 0.0
H2077 H 0.32462 0.95653 0.26649 0.0
H2078 H 0.3639 0.90196 0.30917 0.0
H2079 H 0.30553 0.91517 0.26392 0.0
H2080 H 0.27289 0.83895 0.27082 0.0
H2081 H 0.28813 0.88051 0.2853 0.0
H2082 H 0.35808 0.8726 0.27295 0.0
H2083 H 0.34296 0.83138 0.25857 0.0
C2084 C 0.36604 0.93749 0.30155 0.0
C2085 C 0.35568 0.9531 0.28884 0.0
C2086 C 0.35502 0.91383 0.30013 0.0
C2087 C 0.33342 0.90533 0.28606 0.0
C2088 C 0.32215 0.92126 0.27497 0.0
C2089 C 0.33319 0.94493 0.27634 0.0
C2090 C 0.29156 0.84608 0.27156 0.0
C2091 C 0.30675 0.83206 0.26338 0.0
C2092 C 0.30024 0.86982 0.27977 0.0
C2093 C 0.32427 0.87974 0.28029 0.0
C2094 C 0.33952 0.86538 0.27306 0.0
C2095 C 0.33083 0.84183 0.26459 0.0
H2096 H 0.53386 0.32381 0.56949 0.0
H2097 H 0.52262 0.35421 0.63901 0.0
H2098 H 0.52543 0.35799 0.55158 0.0
H2099 H 0.51613 0.38927 0.62181 0.0
H2100 H 0.49662 0.44836 0.5876 0.0
H2101 H 0.49424 0.409 0.59952 0.0
H2102 H 0.54156 0.39588 0.54735 0.0
H2103 H 0.54202 0.43447 0.53428 0.0
C2104 C 0.52964 0.33793 0.58093 0.0
C2105 C 0.52894 0.33646 0.60562 0.0
C2106 C 0.525 0.35769 0.57073 0.0
C2107 C 0.52028 0.3768 0.58513 0.0
C2108 C 0.51915 0.37492 0.60985 0.0
C2109 C 0.52308 0.35485 0.61987 0.0
C2110 C 0.50589 0.43665 0.57829 0.0
C2111 C 0.51939 0.44425 0.56 0.0
C2112 C 0.50488 0.41419 0.58534 0.0
C2113 C 0.51813 0.39914 0.57489 0.0
C2114 C 0.5308 0.40657 0.55574 0.0
C2115 C 0.53116 0.42878 0.54818 0.0
H2116 H 0.42543 0.71439 0.33212 0.0
H2117 H 0.4538 0.77668 0.2994 0.0
H2118 H 0.38643 0.71385 0.31183 0.0
H2119 H 0.41498 0.77619 0.27965 0.0
H2120 H 0.33893 0.787 0.29239 0.0
H2121 H 0.37893 0.78284 0.30383 0.0
H2122 H 0.36306 0.71285 0.26645 0.0
H2123 H 0.32282 0.71721 0.2544 0.0
C2124 C 0.42347 0.72764 0.32027 0.0
C2125 C 0.44263 0.74573 0.31759 0.0
C2126 C 0.40122 0.72725 0.30861 0.0
C2127 C 0.39784 0.74509 0.29439 0.0
C2128 C 0.41721 0.76234 0.29064 0.0
C2129 C 0.43941 0.76257 0.30198 0.0
C2130 C 0.34404 0.77081 0.28639 0.0
C2131 C 0.32789 0.75242 0.27252 0.0
C2132 C 0.3669 0.76848 0.29285 0.0
C2133 C 0.37395 0.74755 0.28596 0.0
C2134 C 0.35792 0.72914 0.27193 0.0
C2135 C 0.33507 0.73169 0.26496 0.0
H2136 H 0.04598 0.71265 0.08449 0.0
H2137 H 0.99926 0.68912 0.13688 0.0
H2138 H 0.04493 0.67183 0.06979 0.0
H2139 H 0.99766 0.64856 0.1218 0.0
H2140 H 0.01709 0.5943 0.03616 0.0
H2141 H 0.02063 0.63598 0.04898 0.0
H2142 H 0.02299 0.62129 0.12298 0.0
H2143 H 0.01869 0.57968 0.11011 0.0
C2144 C 0.03521 0.69879 0.09262 0.0
C2145 C 0.02288 0.70413 0.11201 0.0
C2146 C 0.0346 0.67539 0.08418 0.0
C2147 C 0.02156 0.65689 0.0949 0.0
C2148 C 0.00845 0.66234 0.11359 0.0
C2149 C 0.00919 0.68563 0.1221 0.0
C2150 C 0.01875 0.60006 0.05518 0.0
C2151 C 0.0174 0.5837 0.07214 0.0
C2152 C 0.02077 0.62396 0.06253 0.0
C2153 C 0.02164 0.63194 0.08699 0.0
C2154 C 0.02167 0.61567 0.10395 0.0
C2155 C 0.01944 0.59184 0.09661 0.0
H2156 H 0.05486 0.23607 0.80323 0.0
H2157 H 0.08514 0.2804 0.86853 0.0
H2158 H 0.09307 0.24306 0.7878 0.0
H2159 H 0.12348 0.28721 0.85307 0.0
H2160 H 0.1872 0.25479 0.83225 0.0
H2161 H 0.14922 0.25729 0.84542 0.0
H2162 H 0.12632 0.27496 0.77565 0.0
H2163 H 0.16478 0.27271 0.76238 0.0
C2164 C 0.06961 0.24763 0.81411 0.0
C2165 C 0.06709 0.25752 0.83718 0.0
C2166 C 0.09143 0.25174 0.80519 0.0
C2167 C 0.11121 0.26556 0.8193 0.0
C2168 C 0.10849 0.27638 0.8419 0.0
C2169 C 0.08656 0.27254 0.8507 0.0
C2170 C 0.17415 0.25937 0.81972 0.0
C2171 C 0.17886 0.26336 0.79621 0.0
C2172 C 0.15249 0.26103 0.82737 0.0
C2173 C 0.13489 0.26642 0.81159 0.0
C2174 C 0.13964 0.27078 0.78814 0.0
C2175 C 0.16158 0.26951 0.78058 0.0
H2176 H 0.49879 0.70767 0.94878 0.0
H2177 H 0.57315 0.70996 0.95215 0.0
H2178 H 0.49365 0.6731 0.97081 0.0
H2179 H 0.56809 0.67477 0.97235 0.0
H2180 H 0.56021 0.62049 0.02146 0.0
H2181 H 0.56186 0.65874 0.00707 0.0
H2182 H 0.49258 0.63336 0.96868 0.0
H2183 H 0.49045 0.59581 0.98501 0.0
C2184 C 0.51398 0.70062 0.95408 0.0
C2185 C 0.53637 0.71153 0.94893 0.0
C2186 C 0.51107 0.68073 0.96661 0.0
C2187 C 0.53046 0.67103 0.97371 0.0
C2188 C 0.55277 0.68196 0.96807 0.0
C2189 C 0.55571 0.70209 0.95618 0.0
C2190 C 0.54512 0.62347 0.01052 0.0
C2191 C 0.52518 0.60544 0.00443 0.0
C2192 C 0.54614 0.64525 0.00188 0.0
C2193 C 0.52762 0.64917 0.98606 0.0
C2194 C 0.50716 0.63128 0.98093 0.0
C2195 C 0.50587 0.6097 0.99025 0.0
H2196 H 0.06135 0.72688 0.70266 0.0
H2197 H 0.08439 0.77805 0.6542 0.0
H2198 H 0.1023 0.72692 0.716 0.0
H2199 H 0.12501 0.77855 0.6679 0.0
H2200 H 0.18077 0.75319 0.74853 0.0
H2201 H 0.13888 0.75001 0.73733 0.0
H2202 H 0.15151 0.75248 0.663 0.0
H2203 H 0.19333 0.75636 0.67427 0.0
C2204 C 0.07513 0.73843 0.69518 0.0
C2205 C 0.06963 0.75227 0.67718 0.0
C2206 C 0.09858 0.73843 0.70279 0.0
C2207 C 0.11694 0.75234 0.69262 0.0
C2208 C 0.11133 0.76705 0.67556 0.0
C2209 C 0.088 0.76694 0.66787 0.0
C2210 C 0.17452 0.75261 0.72974 0.0
C2211 C 0.19038 0.75531 0.71229 0.0
C2212 C 0.1505 0.75082 0.72334 0.0
C2213 C 0.1419 0.75153 0.69935 0.0
C2214 C 0.15763 0.7526 0.68175 0.0
C2215 C 0.18159 0.75458 0.68816 0.0
H2216 H 0.98688 0.32006 0.47798 0.0
H2217 H 0.05227 0.34764 0.45017 0.0
H2218 H 0.98811 0.35836 0.49938 0.0
H2219 H 0.05349 0.38617 0.47201 0.0
H2220 H 0.051 0.44859 0.53036 0.0
H2221 H 0.05389 0.40826 0.51643 0.0
H2222 H 0.98404 0.396 0.47929 0.0
H2223 H 0.9813 0.43598 0.4927 0.0
C2224 C 0.00177 0.33417 0.47676 0.0
C2225 C 0.01935 0.33087 0.4621 0.0
C2226 C 0.00242 0.3561 0.48904 0.0
C2227 C 0.02079 0.37519 0.48718 0.0
C2228 C 0.03919 0.37165 0.4738 0.0
C2229 C 0.03843 0.34966 0.46124 0.0
C2230 C 0.0362 0.43708 0.51951 0.0
C2231 C 0.01592 0.44532 0.51261 0.0
C2232 C 0.03792 0.41417 0.51143 0.0
C2233 C 0.01916 0.3991 0.49687 0.0
C2234 C 0.99867 0.40719 0.49068 0.0
C2235 C 0.99714 0.43009 0.4983 0.0
H2236 H 0.43285 0.26251 0.15382 0.0
H2237 H 0.45664 0.23611 0.21867 0.0
H2238 H 0.39913 0.27129 0.17235 0.0
H2239 H 0.42374 0.24613 0.23785 0.0
H2240 H 0.34615 0.23524 0.25107 0.0
H2241 H 0.38377 0.23253 0.23752 0.0
H2242 H 0.38342 0.29394 0.20008 0.0
H2243 H 0.34499 0.29581 0.2127 0.0
C2244 C 0.4311 0.25903 0.17223 0.0
C2245 C 0.44724 0.2484 0.1847 0.0
C2246 C 0.41182 0.26424 0.183 0.0
C2247 C 0.40846 0.25934 0.20669 0.0
C2248 C 0.42531 0.24966 0.21944 0.0
C2249 C 0.4443 0.24403 0.2085 0.0
C2250 C 0.35429 0.24847 0.24035 0.0
C2251 C 0.34245 0.26564 0.23282 0.0
C2252 C 0.37603 0.24697 0.23257 0.0
C2253 C 0.38672 0.26283 0.21736 0.0
C2254 C 0.37554 0.281 0.21121 0.0
C2255 C 0.3536 0.28227 0.21869 0.0
H2256 H 0.57878 0.54439 0.34882 0.0
H2257 H 0.59705 0.47713 0.35557 0.0
H2258 H 0.55866 0.54089 0.38484 0.0
H2259 H 0.57645 0.47356 0.39172 0.0
H2260 H 0.51592 0.47122 0.44372 0.0
H2261 H 0.53302 0.47164 0.40525 0.0
H2262 H 0.57542 0.54061 0.42903 0.0
H2263 H 0.55886 0.5401 0.46719 0.0
C2264 C 0.57832 0.52872 0.35783 0.0
C2265 C 0.58967 0.51109 0.34936 0.0
C2266 C 0.5668 0.52676 0.37851 0.0
C2267 C 0.56603 0.50698 0.39109 0.0
C2268 C 0.57666 0.48892 0.38226 0.0
C2269 C 0.58856 0.49105 0.36168 0.0
C2270 C 0.52883 0.48645 0.44061 0.0
C2271 C 0.53607 0.50559 0.45848 0.0
C2272 C 0.53869 0.48663 0.41871 0.0
C2273 C 0.55551 0.50618 0.41418 0.0
C2274 C 0.5624 0.52537 0.43195 0.0
C2275 C 0.55296 0.52501 0.45386 0.0
H2276 H 0.2193 0.86229 0.0836 0.0
H2277 H 0.25784 0.81411 0.05169 0.0
H2278 H 0.22003 0.84322 0.12032 0.0
H2279 H 0.26011 0.79605 0.08885 0.0
H2280 H 0.25003 0.75947 0.15625 0.0
H2281 H 0.24261 0.77326 0.11707 0.0
H2282 H 0.24803 0.84343 0.15204 0.0
H2283 H 0.25387 0.82926 0.19076 0.0
C2284 C 0.22787 0.84757 0.0845 0.0
C2285 C 0.23866 0.83975 0.06501 0.0
C2286 C 0.22852 0.83676 0.10557 0.0
C2287 C 0.24061 0.81841 0.10779 0.0
C2288 C 0.25047 0.80996 0.08779 0.0
C2289 C 0.24928 0.82038 0.0665 0.0
C2290 C 0.24961 0.77781 0.15534 0.0
C2291 C 0.25238 0.79333 0.17635 0.0
C2292 C 0.24539 0.78574 0.13298 0.0
C2293 C 0.24439 0.80943 0.13135 0.0
C2294 C 0.24785 0.82493 0.15253 0.0
C2295 C 0.2515 0.8169 0.17476 0.0
H2296 H 0.97839 0.52423 0.83811 0.0
H2297 H 0.92724 0.55996 0.86649 0.0
H2298 H 0.9996 0.52846 0.87789 0.0
H2299 H 0.94874 0.56442 0.90652 0.0
H2300 H 0.96547 0.52079 0.96947 0.0
H2301 H 0.95086 0.53197 0.93162 0.0
H2302 H 0.02191 0.55348 0.91409 0.0
H2303 H 0.03679 0.54224 0.95249 0.0
C2304 C 0.97199 0.53351 0.85278 0.0
C2305 C 0.95088 0.54132 0.84934 0.0
C2306 C 0.98431 0.53614 0.87555 0.0
C2307 C 0.97567 0.54651 0.89535 0.0
C2308 C 0.95562 0.5561 0.89156 0.0
C2309 C 0.94335 0.55361 0.86868 0.0
C2310 C 0.97809 0.52821 0.95778 0.0
C2311 C 0.00231 0.53037 0.96387 0.0
C2312 C 0.96968 0.53489 0.93615 0.0
C2313 C 0.98523 0.54369 0.91992 0.0
C2314 C 0.00953 0.54669 0.9263 0.0
C2315 C 0.01803 0.54022 0.9482 0.0
H2316 H 0.29364 0.15691 0.57787 0.0
H2317 H 0.24831 0.20176 0.5531 0.0
H2318 H 0.29345 0.17341 0.61894 0.0
H2319 H 0.24796 0.2182 0.59468 0.0
H2320 H 0.26402 0.1813 0.68884 0.0
H2321 H 0.26254 0.16913 0.64623 0.0
H2322 H 0.27295 0.24154 0.63162 0.0
H2323 H 0.27413 0.25384 0.67464 0.0
C2324 C 0.28377 0.17046 0.58114 0.0
C2325 C 0.27073 0.17777 0.56217 0.0
C2326 C 0.28353 0.1798 0.60475 0.0
C2327 C 0.27022 0.19669 0.61012 0.0
C2328 C 0.25829 0.20512 0.5911 0.0
C2329 C 0.25853 0.19572 0.56731 0.0
C2330 C 0.26572 0.19466 0.67657 0.0
C2331 C 0.2695 0.21855 0.68516 0.0
C2332 C 0.26503 0.18769 0.65214 0.0
C2333 C 0.26822 0.20441 0.63562 0.0
C2334 C 0.27054 0.22826 0.64394 0.0
C2335 C 0.27118 0.23528 0.66855 0.0
H2336 H 0.62527 0.4782 0.20307 0.0
H2337 H 0.57983 0.52282 0.22796 0.0
H2338 H 0.60778 0.47722 0.16214 0.0
H2339 H 0.56262 0.52231 0.18662 0.0
H2340 H 0.52494 0.4974 0.10871 0.0
H2341 H 0.5389 0.49856 0.15127 0.0
H2342 H 0.60994 0.50495 0.133 0.0
H2343 H 0.59601 0.50323 0.09082 0.0
C2344 C 0.61146 0.48775 0.19982 0.0
C2345 C 0.60415 0.5008 0.21879 0.0
C2346 C 0.60153 0.48734 0.17628 0.0
C2347 C 0.58416 0.50014 0.17098 0.0
C2348 C 0.57598 0.51228 0.19006 0.0
C2349 C 0.58585 0.51258 0.21375 0.0
C2350 C 0.54356 0.49938 0.11391 0.0
C2351 C 0.55935 0.49998 0.09641 0.0
C2352 C 0.55156 0.50001 0.13827 0.0
C2353 C 0.57548 0.50134 0.14551 0.0
C2354 C 0.59131 0.5032 0.12802 0.0
C2355 C 0.58334 0.50242 0.10382 0.0
H2356 H 0.23723 0.85707 0.91569 0.0
H2357 H 0.2213 0.79057 0.9446 0.0
H2358 H 0.2357 0.83695 0.87592 0.0
H2359 H 0.21742 0.76993 0.90437 0.0
H2360 H 0.25148 0.74341 0.83939 0.0
H2361 H 0.24139 0.75983 0.87742 0.0
H2362 H 0.21866 0.81534 0.84175 0.0
H2363 H 0.23139 0.80033 0.80494 0.0
C2364 C 0.23233 0.83805 0.91322 0.0
C2365 C 0.2295 0.82529 0.933 0.0
C2366 C 0.23132 0.82635 0.89033 0.0
C2367 C 0.22672 0.80157 0.88667 0.0
C2368 C 0.22179 0.78893 0.90643 0.0
C2369 C 0.22364 0.8007 0.92945 0.0
C2370 C 0.24408 0.75897 0.83983 0.0
C2371 C 0.24234 0.77074 0.81938 0.0
C2372 C 0.23806 0.76837 0.86159 0.0
C2373 C 0.22949 0.78932 0.86301 0.0
C2374 C 0.22598 0.79978 0.84182 0.0
C2375 C 0.2329 0.79094 0.82048 0.0
H2376 H 0.90668 0.55074 0.70083 0.0
H2377 H 0.95223 0.5091 0.73177 0.0
H2378 H 0.92666 0.55086 0.66472 0.0
H2379 H 0.97121 0.5077 0.69508 0.0
H2380 H 0.01219 0.52271 0.63101 0.0
H2381 H 0.99597 0.52671 0.66944 0.0
H2382 H 0.92807 0.52564 0.63142 0.0
H2383 H 0.94475 0.52345 0.59367 0.0
C2384 C 0.92092 0.54152 0.69979 0.0
C2385 C 0.92786 0.52983 0.71895 0.0
C2386 C 0.93227 0.54138 0.67904 0.0
C2387 C 0.95034 0.52893 0.67672 0.0
C2388 C 0.95761 0.51771 0.69624 0.0
C2389 C 0.94664 0.51838 0.71724 0.0
C2390 C 0.99384 0.5234 0.6311 0.0
C2391 C 0.97972 0.52298 0.60955 0.0
C2392 C 0.98448 0.5256 0.65303 0.0
C2393 C 0.96071 0.5268 0.65364 0.0
C2394 C 0.94659 0.5256 0.63184 0.0
C2395 C 0.95607 0.52406 0.61012 0.0
H2396 H 0.22449 0.19309 0.42653 0.0
H2397 H 0.29581 0.18342 0.42771 0.0
H2398 H 0.22835 0.21124 0.38927 0.0
H2399 H 0.29977 0.20224 0.39048 0.0
H2400 H 0.29735 0.26251 0.33714 0.0
H2401 H 0.29609 0.24595 0.37584 0.0
H2402 H 0.2359 0.19245 0.34577 0.0
H2403 H 0.23745 0.2084 0.30722 0.0
C2404 C 0.24109 0.19506 0.41899 0.0
C2405 C 0.25983 0.18676 0.43006 0.0
C2406 C 0.24325 0.20541 0.39763 0.0
C2407 C 0.26435 0.20814 0.38708 0.0
C2408 C 0.28336 0.20044 0.39838 0.0
C2409 C 0.28105 0.18959 0.41957 0.0
C2410 C 0.2839 0.24721 0.33886 0.0
C2411 C 0.26751 0.23677 0.31916 0.0
C2412 C 0.28327 0.23769 0.3609 0.0
C2413 C 0.26588 0.21796 0.36371 0.0
C2414 C 0.24943 0.20771 0.34408 0.0
C2415 C 0.25038 0.21683 0.32201 0.0
H2416 H 0.33723 0.60465 0.4939 0.0
H2417 H 0.32274 0.55528 0.5462 0.0
H2418 H 0.36888 0.58613 0.48177 0.0
H2419 H 0.35435 0.5369 0.53411 0.0
H2420 H 0.40774 0.50179 0.50108 0.0
H2421 H 0.37013 0.51456 0.50046 0.0
H2422 H 0.40737 0.58689 0.50554 0.0
H2423 H 0.44448 0.57419 0.5064 0.0
C2424 C 0.34056 0.58966 0.50256 0.0
C2425 C 0.32773 0.58166 0.52126 0.0
C2426 C 0.35864 0.57905 0.49559 0.0
C2427 C 0.36409 0.56011 0.50703 0.0
C2428 C 0.35038 0.55128 0.52477 0.0
C2429 C 0.33245 0.562 0.53188 0.0
C2430 C 0.40767 0.52032 0.5014 0.0
C2431 C 0.42884 0.53706 0.50394 0.0
C2432 C 0.38626 0.52763 0.50119 0.0
C2433 C 0.38586 0.55172 0.50301 0.0
C2434 C 0.40706 0.56823 0.50386 0.0
C2435 C 0.42831 0.56097 0.50451 0.0
H2436 H 0.83629 0.95153 0.57135 0.0
H2437 H 0.84138 0.90251 0.51098 0.0
H2438 H 0.87577 0.97376 0.56735 0.0
H2439 H 0.87991 0.92508 0.50619 0.0
H2440 H 0.95716 0.9505 0.51972 0.0
H2441 H 0.91784 0.93125 0.5255 0.0
H2442 H 0.90074 0.9987 0.54389 0.0
H2443 H 0.94113 0.01816 0.53933 0.0
C2444 C 0.84574 0.94566 0.5571 0.0
C2445 C 0.83592 0.92506 0.54174 0.0
C2446 C 0.86829 0.95847 0.5547 0.0
C2447 C 0.88127 0.95104 0.53669 0.0
C2448 C 0.87086 0.93096 0.52077 0.0
C2449 C 0.84864 0.91803 0.52343 0.0
C2450 C 0.94515 0.96135 0.52512 0.0
C2451 C 0.95233 0.98592 0.52901 0.0
C2452 C 0.9224 0.95025 0.52822 0.0
C2453 C 0.90586 0.96337 0.53475 0.0
C2454 C 0.91304 0.98801 0.53897 0.0
C2455 C 0.93612 0.99919 0.53623 0.0
H2456 H 0.81121 0.05474 0.2202 0.0
H2457 H 0.87028 0.0823 0.27369 0.0
H2458 H 0.79565 0.08994 0.22907 0.0
H2459 H 0.85476 0.11759 0.28236 0.0
H2460 H 0.83708 0.18763 0.25997 0.0
H2461 H 0.8501 0.15064 0.25698 0.0
H2462 H 0.77965 0.11316 0.26299 0.0
H2463 H 0.7665 0.15058 0.26631 0.0
C2464 C 0.82077 0.06822 0.23399 0.0
C2465 C 0.84208 0.06579 0.24613 0.0
C2466 C 0.81175 0.08829 0.23917 0.0
C2467 C 0.82401 0.10653 0.25636 0.0
C2468 C 0.84501 0.10386 0.26892 0.0
C2469 C 0.85385 0.08363 0.26399 0.0
C2470 C 0.82434 0.17155 0.26085 0.0
C2471 C 0.80073 0.17202 0.26331 0.0
C2472 C 0.83187 0.15036 0.2593 0.0
C2473 C 0.81593 0.12901 0.25981 0.0
C2474 C 0.7923 0.12939 0.26249 0.0
C2475 C 0.78481 0.15076 0.2645 0.0
H2476 H 0.69708 0.11582 0.99575 0.0
H2477 H 0.71069 0.07292 0.05188 0.0
H2478 H 0.65564 0.09769 0.99221 0.0
H2479 H 0.66878 0.05514 0.0488 0.0
H2480 H 0.5937 0.01376 0.01725 0.0
H2481 H 0.63608 0.02968 0.02289 0.0
H2482 H 0.6236 0.0992 0.01558 0.0
H2483 H 0.58159 0.08325 0.00923 0.0
C2484 C 0.6912 0.10253 0.0074 0.0
C2485 C 0.70713 0.09597 0.02426 0.0
C2486 C 0.66739 0.09224 0.00549 0.0
C2487 C 0.65883 0.0753 0.02056 0.0
C2488 C 0.67484 0.06812 0.03692 0.0
C2489 C 0.69881 0.07833 0.03871 0.0
C2490 C 0.60009 0.03247 0.01712 0.0
C2491 C 0.58443 0.04725 0.0125 0.0
C2492 C 0.62432 0.04159 0.02038 0.0
C2493 C 0.63321 0.06564 0.01924 0.0
C2494 C 0.61737 0.08049 0.01587 0.0
C2495 C 0.59328 0.07139 0.01239 0.0
H2496 H 0.16198 0.43589 0.29709 0.0
H2497 H 0.21387 0.45008 0.24722 0.0
H2498 H 0.17859 0.40294 0.30898 0.0
H2499 H 0.23027 0.41721 0.25898 0.0
H2500 H 0.26018 0.35968 0.2881 0.0
H2501 H 0.24995 0.39845 0.29133 0.0
H2502 H 0.17636 0.36502 0.28395 0.0
H2503 H 0.18651 0.3267 0.28073 0.0
C2504 C 0.17719 0.43227 0.28902 0.0
C2505 C 0.18636 0.44526 0.27091 0.0
C2506 C 0.18668 0.41344 0.29583 0.0
C2507 C 0.20562 0.40744 0.28479 0.0
C2508 C 0.21583 0.42153 0.26797 0.0
C2509 C 0.20625 0.44021 0.26104 0.0
C2510 C 0.24189 0.36075 0.28774 0.0
C2511 C 0.2241 0.34031 0.28378 0.0
C2512 C 0.23604 0.38285 0.28952 0.0
C2513 C 0.21236 0.38472 0.28779 0.0
C2514 C 0.19475 0.36418 0.28559 0.0
C2515 C 0.20056 0.34222 0.28348 0.0
H2516 H 0.21976 0.46361 0.06255 0.0
H2517 H 0.19068 0.40401 0.01004 0.0
H2518 H 0.1845 0.47928 0.05461 0.0
H2519 H 0.15531 0.41964 0.00231 0.0
H2520 H 0.08645 0.43771 0.02774 0.0
H2521 H 0.1234 0.42466 0.02928 0.0
H2522 H 0.16021 0.49486 0.02113 0.0
H2523 H 0.12282 0.50805 0.01929 0.0
C2524 C 0.20593 0.45396 0.04916 0.0
C2525 C 0.20792 0.43247 0.03705 0.0
C2526 C 0.18583 0.46304 0.0445 0.0
C2527 C 0.16716 0.45065 0.0279 0.0
C2528 C 0.16941 0.42949 0.0153 0.0
C2529 C 0.18966 0.42058 0.01969 0.0
C2530 C 0.10237 0.4504 0.0261 0.0
C2531 C 0.10175 0.47395 0.02349 0.0
C2532 C 0.12352 0.44284 0.0268 0.0
C2533 C 0.14467 0.45871 0.02525 0.0
C2534 C 0.14413 0.48228 0.0224 0.0
C2535 C 0.12278 0.48979 0.02127 0.0
H2536 H 0.82077 0.93994 0.21517 0.0
H2537 H 0.86778 0.93751 0.27805 0.0
H2538 H 0.79964 0.8999 0.21897 0.0
H2539 H 0.84634 0.89841 0.28248 0.0
H2540 H 0.82515 0.82063 0.26878 0.0
H2541 H 0.84291 0.86052 0.26322 0.0
H2542 H 0.77448 0.87392 0.24193 0.0
H2543 H 0.75657 0.83303 0.24649 0.0
C2544 C 0.8264 0.93098 0.22993 0.0
C2545 C 0.8462 0.94172 0.24606 0.0
C2546 C 0.81425 0.90809 0.23219 0.0
C2547 C 0.82153 0.89567 0.25078 0.0
C2548 C 0.84065 0.90702 0.26747 0.0
C2549 C 0.85291 0.92958 0.26501 0.0
C2550 C 0.81377 0.83194 0.26283 0.0
C2551 C 0.78937 0.82359 0.2582 0.0
C2552 C 0.824 0.85501 0.25983 0.0
C2553 C 0.81015 0.8707 0.25255 0.0
C2554 C 0.78571 0.86232 0.24749 0.0
C2555 C 0.77542 0.83894 0.25022 0.0
H2556 H 0.64691 0.08 0.77608 0.0
H2557 H 0.7085 0.06186 0.74886 0.0
H2558 H 0.66726 0.1207 0.78413 0.0
H2559 H 0.72926 0.10299 0.7576 0.0
H2560 H 0.74719 0.18478 0.75469 0.0
H2561 H 0.72978 0.14275 0.7455 0.0
H2562 H 0.69836 0.14372 0.81217 0.0
H2563 H 0.71498 0.18544 0.82087 0.0
C2564 C 0.66489 0.08466 0.77193 0.0
C2565 C 0.67611 0.0676 0.76196 0.0
C2566 C 0.67663 0.10805 0.77669 0.0
C2567 C 0.70001 0.11506 0.77182 0.0
C2568 C 0.71122 0.09814 0.76147 0.0
C2569 C 0.69937 0.07459 0.75657 0.0
C2570 C 0.73666 0.17589 0.76737 0.0
C2571 C 0.73211 0.18842 0.78829 0.0
C2572 C 0.72679 0.15184 0.76218 0.0
C2573 C 0.71237 0.13999 0.77793 0.0
C2574 C 0.70883 0.15243 0.79934 0.0
C2575 C 0.71844 0.17636 0.80437 0.0
loop_
_geom_bond_atom_site_label_1
_geom_bond_atom_site_label_2
_geom_bond_distance
_geom_bond_site_symmetry_2
_ccdc_geom_bond_type
O0 Cd1 2.223 . S
O0 C8 1.315 . S
Cd1 O0 2.223 . S
Cd1 O4 2.297 . S
Cd1 O5 2.439 . S
Cd1 O11 2.240 1_455 S
Cd2 O3 2.240 . S
Cd2 O10 2.223 1_455 S
Cd2 O12 2.297 . S
Cd2 O13 2.439 . S
O3 Cd2 2.240 . S
O3 C8 1.279 . S
O4 Cd1 2.297 . S
O4 C6 1.247 . S
O5 Cd1 2.439 . S
O5 C6 1.208 . S
C6 O4 1.247 . S
C6 O5 1.208 . S
C7 O12 1.247 . S
C7 O13 1.208 . S
C8 O0 1.315 . S
C8 O3 1.279 . S
C9 O10 1.315 . S
C9 O11 1.279 . S
O10 Cd2 2.223 1_655 S
O10 C9 1.315 . S
O11 Cd1 2.240 1_655 S
O11 C9 1.279 . S
O12 Cd2 2.297 . S
O12 C7 1.247 . S
O13 Cd2 2.439 . S
O13 C7 1.208 . S
O14 Cd15 2.223 1_455 S
O14 C22 1.315 1_455 S
Cd15 O14 2.223 1_655 S
Cd15 O18 2.297 . S
Cd15 O19 2.439 . S
Cd15 O25 2.240 1_655 S
Cd16 O17 2.240 1_455 S
Cd16 O24 2.223 . S
Cd16 O26 2.297 . S
Cd16 O27 2.439 . S
O17 Cd16 2.240 1_655 S
O17 C22 1.279 . S
O18 Cd15 2.297 . S
O18 C20 1.247 . S
O19 Cd15 2.439 . S
O19 C20 1.208 . S
C20 O18 1.247 . S
C20 O19 1.208 . S
C21 O26 1.247 . S
C21 O27 1.208 . S
C22 O14 1.315 1_655 S
C22 O17 1.279 . S
C23 O24 1.315 . S
C23 O25 1.279 . S
O24 Cd16 2.223 . S
O24 C23 1.315 . S
O25 Cd15 2.240 1_455 S
O25 C23 1.279 . S
O26 Cd16 2.297 . S
O26 C21 1.247 . S
O27 Cd16 2.439 . S
O27 C21 1.208 . S
O28 Cd29 2.223 . S
O28 C36 1.315 . S
Cd29 O28 2.223 . S
Cd29 O32 2.297 . S
Cd29 O33 2.439 . S
Cd29 O39 2.240 . S
Cd30 O31 2.240 . S
Cd30 O38 2.223 . S
Cd30 O40 2.297 . S
Cd30 O41 2.439 . S
O31 Cd30 2.240 . S
O31 C36 1.279 . S
O32 Cd29 2.297 . S
O32 C34 1.247 . S
O33 Cd29 2.439 . S
O33 C34 1.208 . S
C34 O32 1.247 . S
C34 O33 1.208 . S
C35 O40 1.247 . S
C35 O41 1.208 . S
C36 O28 1.315 . S
C36 O31 1.279 . S
C37 O38 1.315 . S
C37 O39 1.279 . S
O38 Cd30 2.223 . S
O38 C37 1.315 . S
O39 Cd29 2.240 . S
O39 C37 1.279 . S
O40 Cd30 2.297 . S
O40 C35 1.247 . S
O41 Cd30 2.439 . S
O41 C35 1.208 . S
O42 Cd43 2.223 . S
O42 C50 1.315 . S
Cd43 O42 2.223 . S
Cd43 O46 2.297 . S
Cd43 O47 2.439 . S
Cd43 O53 2.240 . S
Cd44 O45 2.240 . S
Cd44 O52 2.223 . S
Cd44 O54 2.297 . S
Cd44 O55 2.439 . S
O45 Cd44 2.240 . S
O45 C50 1.279 . S
O46 Cd43 2.297 . S
O46 C48 1.247 . S
O47 Cd43 2.439 . S
O47 C48 1.208 . S
C48 O46 1.247 . S
C48 O47 1.208 . S
C49 O54 1.247 . S
C49 O55 1.208 . S
C50 O42 1.315 . S
C50 O45 1.279 . S
C51 O52 1.315 . S
C51 O53 1.279 . S
O52 Cd44 2.223 . S
O52 C51 1.315 . S
O53 Cd43 2.240 . S
O53 C51 1.279 . S
O54 Cd44 2.297 . S
O54 C49 1.247 . S
O55 Cd44 2.439 . S
O55 C49 1.208 . S
O56 Cd57 2.223 . S
O56 C64 1.315 . S
Cd57 O56 2.223 . S
Cd57 O60 2.297 1_455 S
Cd57 O61 2.439 1_455 S
Cd57 O67 2.240 . S
Cd58 O59 2.240 . S
Cd58 O66 2.223 . S
Cd58 O68 2.297 . S
Cd58 O69 2.439 . S
O59 Cd58 2.240 . S
O59 C64 1.279 . S
O60 Cd57 2.297 1_655 S
O60 C62 1.247 . S
O61 Cd57 2.439 1_655 S
O61 C62 1.208 . S
C62 O60 1.247 . S
C62 O61 1.208 . S
C63 O68 1.247 . S
C63 O69 1.208 . S
C64 O56 1.315 . S
C64 O59 1.279 . S
C65 O66 1.315 . S
C65 O67 1.279 . S
O66 Cd58 2.223 . S
O66 C65 1.315 . S
O67 Cd57 2.240 . S
O67 C65 1.279 . S
O68 Cd58 2.297 . S
O68 C63 1.247 . S
O69 Cd58 2.439 . S
O69 C63 1.208 . S
O70 Cd71 2.223 . S
O70 C78 1.315 . S
Cd71 O70 2.223 . S
Cd71 O74 2.297 . S
Cd71 O75 2.439 . S
Cd71 O81 2.240 . S
Cd72 O73 2.240 . S
Cd72 O80 2.223 . S
Cd72 O82 2.297 . S
Cd72 O83 2.439 . S
O73 Cd72 2.240 . S
O73 C78 1.279 . S
O74 Cd71 2.297 . S
O74 C76 1.247 . S
O75 Cd71 2.439 . S
O75 C76 1.208 . S
C76 O74 1.247 . S
C76 O75 1.208 . S
C77 O82 1.247 . S
C77 O83 1.208 . S
C78 O70 1.315 . S
C78 O73 1.279 . S
C79 O80 1.315 . S
C79 O81 1.279 . S
O80 Cd72 2.223 . S
O80 C79 1.315 . S
O81 Cd71 2.240 . S
O81 C79 1.279 . S
O82 Cd72 2.297 . S
O82 C77 1.247 . S
O83 Cd72 2.439 . S
O83 C77 1.208 . S
O84 Cd85 2.223 . S
O84 C92 1.315 . S
Cd85 O84 2.223 . S
Cd85 O88 2.297 . S
Cd85 O89 2.439 . S
Cd85 O95 2.240 . S
Cd86 O87 2.240 . S
Cd86 O94 2.223 . S
Cd86 O96 2.297 . S
Cd86 O97 2.439 . S
O87 Cd86 2.240 . S
O87 C92 1.279 . S
O88 Cd85 2.297 . S
O88 C90 1.247 . S
O89 Cd85 2.439 . S
O89 C90 1.208 . S
C90 O88 1.247 . S
C90 O89 1.208 . S
C91 O96 1.247 . S
C91 O97 1.208 . S
C92 O84 1.315 . S
C92 O87 1.279 . S
C93 O94 1.315 . S
C93 O95 1.279 . S
O94 Cd86 2.223 . S
O94 C93 1.315 . S
O95 Cd85 2.240 . S
O95 C93 1.279 . S
O96 Cd86 2.297 . S
O96 C91 1.247 . S
O97 Cd86 2.439 . S
O97 C91 1.208 . S
O98 Cd99 2.223 1_655 S
O98 C106 1.315 . S
Cd99 O98 2.223 1_455 S
Cd99 O102 2.297 . S
Cd99 O103 2.439 . S
Cd99 O109 2.240 1_455 S
Cd100 O101 2.240 1_655 S
Cd100 O108 2.223 . S
Cd100 O110 2.297 . S
Cd100 O111 2.439 1_655 S
O101 Cd100 2.240 1_455 S
O101 C106 1.279 1_455 S
O102 Cd99 2.297 . S
O102 C104 1.247 . S
O103 Cd99 2.439 . S
O103 C104 1.208 . S
C104 O102 1.247 . S
C104 O103 1.208 . S
C105 O110 1.231 1_455 S
C105 O111 1.224 . S
C106 O98 1.315 . S
C106 O101 1.279 1_655 S
C107 O108 1.315 . S
C107 O109 1.279 . S
O108 Cd100 2.223 . S
O108 C107 1.315 . S
O109 Cd99 2.240 1_655 S
O109 C107 1.279 . S
O110 Cd100 2.297 . S
O110 C105 1.231 1_655 S
O111 Cd100 2.439 1_455 S
O111 C105 1.224 . S
O112 Cd113 2.223 . S
O112 C120 1.315 . S
Cd113 O112 2.223 . S
Cd113 O116 2.297 . S
Cd113 O117 2.439 . S
Cd113 O123 2.215 1_545 S
Cd114 O115 2.240 . S
Cd114 O122 2.223 1_545 S
Cd114 O124 2.297 . S
Cd114 O125 2.439 . S
O115 Cd114 2.240 . S
O115 C120 1.279 . S
O116 Cd113 2.297 . S
O116 C118 1.247 . S
O117 Cd113 2.439 . S
O117 C118 1.208 . S
C118 O116 1.247 . S
C118 O117 1.208 . S
C119 O124 1.247 . S
C119 O125 1.208 . S
C120 O112 1.315 . S
C120 O115 1.279 . S
C121 O122 1.315 . S
C121 O123 1.306 . S
O122 Cd114 2.223 1_565 S
O122 C121 1.315 . S
O123 Cd113 2.215 1_565 S
O123 C121 1.306 . S
O124 Cd114 2.297 . S
O124 C119 1.247 . S
O125 Cd114 2.439 . S
O125 C119 1.208 . S
O126 Cd127 2.223 . S
O126 C134 1.315 . S
Cd127 O126 2.223 . S
Cd127 O130 2.297 . S
Cd127 O131 2.439 . S
Cd127 O137 2.240 . S
Cd128 O129 2.240 . S
Cd128 O136 2.223 . S
Cd128 O138 2.297 . S
Cd128 O139 2.439 . S
O129 Cd128 2.240 . S
O129 C134 1.279 . S
O130 Cd127 2.297 . S
O130 C132 1.247 . S
O131 Cd127 2.439 . S
O131 C132 1.208 . S
C132 O130 1.247 . S
C132 O131 1.208 . S
C133 O138 1.247 . S
C133 O139 1.208 . S
C134 O126 1.315 . S
C134 O129 1.279 . S
C135 O136 1.315 . S
C135 O137 1.279 . S
O136 Cd128 2.223 . S
O136 C135 1.315 . S
O137 Cd127 2.240 . S
O137 C135 1.279 . S
O138 Cd128 2.297 . S
O138 C133 1.247 . S
O139 Cd128 2.439 . S
O139 C133 1.208 . S
O140 Cd141 2.223 . S
O140 C148 1.315 . S
Cd141 O140 2.223 . S
Cd141 O144 2.297 1_545 S
Cd141 O145 2.439 1_545 S
Cd141 O151 2.240 . S
Cd142 O143 2.240 1_545 S
Cd142 O150 2.223 . S
Cd142 O152 2.297 . S
Cd142 O153 2.439 . S
O143 Cd142 2.240 1_565 S
O143 C148 1.279 1_565 S
O144 Cd141 2.297 1_565 S
O144 C146 1.247 . S
O145 Cd141 2.439 1_565 S
O145 C146 1.208 . S
C146 O144 1.247 . S
C146 O145 1.208 . S
C147 O152 1.247 . S
C147 O153 1.208 . S
C148 O140 1.315 . S
C148 O143 1.279 1_545 S
C149 O150 1.315 . S
C149 O151 1.279 . S
O150 Cd142 2.223 . S
O150 C149 1.315 . S
O151 Cd141 2.240 . S
O151 C149 1.279 . S
O152 Cd142 2.297 . S
O152 C147 1.247 . S
O153 Cd142 2.439 . S
O153 C147 1.208 . S
O154 Cd155 2.223 . S
O154 C162 1.315 . S
Cd155 O154 2.223 . S
Cd155 O158 2.297 . S
Cd155 O159 2.439 1_554 S
Cd155 O165 2.255 . S
Cd156 O157 2.240 1_556 S
Cd156 O164 2.223 1_556 S
Cd156 O166 2.297 . S
Cd156 O167 2.439 . S
O157 Cd156 2.240 1_554 S
O157 C162 1.279 . S
O158 Cd155 2.297 . S
O158 C160 1.247 . S
O159 Cd155 2.439 1_556 S
O159 C160 1.208 1_556 S
C160 O158 1.247 . S
C160 O159 1.208 1_554 S
C161 O166 1.247 . S
C161 O167 1.208 . S
C162 O154 1.315 . S
C162 O157 1.279 . S
C163 O164 1.315 . S
C163 O165 1.288 . S
O164 Cd156 2.223 1_554 S
O164 C163 1.315 . S
O165 Cd155 2.255 . S
O165 C163 1.288 . S
O166 Cd156 2.297 . S
O166 C161 1.247 . S
O167 Cd156 2.439 . S
O167 C161 1.208 . S
O168 Cd169 2.223 . S
O168 C176 1.315 . S
Cd169 O168 2.223 . S
Cd169 O172 2.297 . S
Cd169 O173 2.439 . S
Cd169 O179 2.240 . S
Cd170 O171 2.240 . S
Cd170 O178 2.223 . S
Cd170 O180 2.297 1_554 S
Cd170 O181 2.439 1_554 S
O171 Cd170 2.240 . S
O171 C176 1.279 . S
O172 Cd169 2.297 . S
O172 C174 1.247 . S
O173 Cd169 2.439 . S
O173 C174 1.208 . S
C174 O172 1.247 . S
C174 O173 1.208 . S
C175 O180 1.247 . S
C175 O181 1.208 . S
C176 O168 1.315 . S
C176 O171 1.279 . S
C177 O178 1.315 . S
C177 O179 1.279 . S
O178 Cd170 2.223 . S
O178 C177 1.315 . S
O179 Cd169 2.240 . S
O179 C177 1.279 . S
O180 Cd170 2.297 1_556 S
O180 C175 1.247 . S
O181 Cd170 2.439 1_556 S
O181 C175 1.208 . S
O182 Cd183 2.223 . S
O182 C190 1.315 . S
Cd183 O182 2.223 . S
Cd183 O186 2.297 . S
Cd183 O187 2.439 . S
Cd183 O193 2.240 . S
Cd184 O185 2.240 . S
Cd184 O192 2.223 . S
Cd184 O194 2.297 1_554 S
Cd184 O195 2.439 1_554 S
O185 Cd184 2.240 . S
O185 C190 1.279 . S
O186 Cd183 2.297 . S
O186 C188 1.247 . S
O187 Cd183 2.439 . S
O187 C188 1.208 . S
C188 O186 1.247 . S
C188 O187 1.208 . S
C189 O194 1.247 . S
C189 O195 1.208 . S
C190 O182 1.315 . S
C190 O185 1.279 . S
C191 O192 1.315 . S
C191 O193 1.279 . S
O192 Cd184 2.223 . S
O192 C191 1.315 . S
O193 Cd183 2.240 . S
O193 C191 1.279 . S
O194 Cd184 2.297 1_556 S
O194 C189 1.247 . S
O195 Cd184 2.439 1_556 S
O195 C189 1.208 . S
O196 Cd197 2.223 . S
O196 C204 1.315 . S
Cd197 O196 2.223 . S
Cd197 O200 2.297 . S
Cd197 O201 2.439 . S
Cd197 O207 2.240 . S
Cd198 O199 2.240 . S
Cd198 O206 2.223 . S
Cd198 O208 2.297 . S
Cd198 O209 2.439 . S
O199 Cd198 2.240 . S
O199 C204 1.279 . S
O200 Cd197 2.297 . S
O200 C202 1.247 . S
O201 Cd197 2.439 . S
O201 C202 1.208 . S
C202 O200 1.247 . S
C202 O201 1.208 . S
C203 O208 1.247 . S
C203 O209 1.208 . S
C204 O196 1.315 . S
C204 O199 1.279 . S
C205 O206 1.315 . S
C205 O207 1.279 . S
O206 Cd198 2.223 . S
O206 C205 1.315 . S
O207 Cd197 2.240 . S
O207 C205 1.279 . S
O208 Cd198 2.297 . S
O208 C203 1.247 . S
O209 Cd198 2.439 . S
O209 C203 1.208 . S
O210 Cd211 2.223 . S
O210 C218 1.315 . S
Cd211 O210 2.223 . S
Cd211 O214 2.297 . S
Cd211 O215 2.439 . S
Cd211 O221 2.240 . S
Cd212 O213 2.240 . S
Cd212 O220 2.223 . S
Cd212 O222 2.297 . S
Cd212 O223 2.439 . S
O213 Cd212 2.240 . S
O213 C218 1.279 . S
O214 Cd211 2.297 . S
O214 C216 1.247 . S
O215 Cd211 2.439 . S
O215 C216 1.208 . S
C216 O214 1.247 . S
C216 O215 1.208 . S
C217 O222 1.247 . S
C217 O223 1.208 . S
C218 O210 1.315 . S
C218 O213 1.279 . S
C219 O220 1.315 . S
C219 O221 1.279 . S
O220 Cd212 2.223 . S
O220 C219 1.315 . S
O221 Cd211 2.240 . S
O221 C219 1.279 . S
O222 Cd212 2.297 . S
O222 C217 1.247 . S
O223 Cd212 2.439 . S
O223 C217 1.208 . S
O224 Cd225 2.223 1_565 S
O224 C232 1.315 1_565 S
Cd225 O224 2.223 1_545 S
Cd225 O228 2.297 . S
Cd225 O229 2.439 . S
Cd225 O235 2.240 1_545 S
Cd226 O227 2.239 1_565 S
Cd226 O234 2.224 . S
Cd226 O236 2.298 . S
Cd226 O237 2.438 1_565 S
O227 Cd226 2.239 1_545 S
O227 C232 1.279 . S
O228 Cd225 2.297 . S
O228 C230 1.247 . S
O229 Cd225 2.439 . S
O229 C230 1.208 . S
C230 O228 1.247 . S
C230 O229 1.208 . S
C231 O236 1.247 1_545 S
C231 O237 1.208 . S
C232 O224 1.315 1_545 S
C232 O227 1.279 . S
C233 O234 1.315 . S
C233 O235 1.279 . S
O234 Cd226 2.224 . S
O234 C233 1.315 . S
O235 Cd225 2.240 1_565 S
O235 C233 1.279 . S
O236 Cd226 2.298 . S
O236 C231 1.247 1_565 S
O237 Cd226 2.438 1_545 S
O237 C231 1.208 . S
O238 Cd239 2.223 . S
O238 C246 1.315 . S
Cd239 O238 2.223 . S
Cd239 O242 2.297 . S
Cd239 O243 2.439 . S
Cd239 O249 2.240 . S
Cd240 O241 2.240 . S
Cd240 O248 2.223 . S
Cd240 O250 2.297 . S
Cd240 O251 2.439 . S
O241 Cd240 2.240 . S
O241 C246 1.279 . S
O242 Cd239 2.297 . S
O242 C244 1.247 . S
O243 Cd239 2.439 . S
O243 C244 1.208 . S
C244 O242 1.247 . S
C244 O243 1.208 . S
C245 O250 1.247 . S
C245 O251 1.208 . S
C246 O238 1.315 . S
C246 O241 1.279 . S
C247 O248 1.315 . S
C247 O249 1.279 . S
O248 Cd240 2.223 . S
O248 C247 1.315 . S
O249 Cd239 2.240 . S
O249 C247 1.279 . S
O250 Cd240 2.297 . S
O250 C245 1.247 . S
O251 Cd240 2.439 . S
O251 C245 1.208 . S
O252 Cd253 2.223 . S
O252 C260 1.315 . S
Cd253 O252 2.223 . S
Cd253 O256 2.297 . S
Cd253 O257 2.439 . S
Cd253 O263 2.240 . S
Cd254 O255 2.240 . S
Cd254 O262 2.223 . S
Cd254 O264 2.297 . S
Cd254 O265 2.439 . S
O255 Cd254 2.240 . S
O255 C260 1.279 . S
O256 Cd253 2.297 . S
O256 C258 1.247 . S
O257 Cd253 2.439 . S
O257 C258 1.208 . S
C258 O256 1.247 . S
C258 O257 1.208 . S
C259 O264 1.247 . S
C259 O265 1.208 . S
C260 O252 1.315 . S
C260 O255 1.279 . S
C261 O262 1.315 . S
C261 O263 1.279 . S
O262 Cd254 2.223 . S
O262 C261 1.315 . S
O263 Cd253 2.240 . S
O263 C261 1.279 . S
O264 Cd254 2.297 . S
O264 C259 1.247 . S
O265 Cd254 2.439 . S
O265 C259 1.208 . S
O266 Cd267 2.223 1_545 S
O266 C274 1.315 1_545 S
Cd267 O266 2.223 1_565 S
Cd267 O270 2.297 . S
Cd267 O271 2.439 . S
Cd267 O277 2.240 1_565 S
Cd268 O269 2.240 1_545 S
Cd268 O276 2.223 . S
Cd268 O278 2.297 . S
Cd268 O279 2.439 1_545 S
O269 Cd268 2.240 1_565 S
O269 C274 1.279 . S
O270 Cd267 2.297 . S
O270 C272 1.247 . S
O271 Cd267 2.439 . S
O271 C272 1.208 . S
C272 O270 1.247 . S
C272 O271 1.208 . S
C273 O278 1.247 . S
C273 O279 1.208 1_545 S
C274 O266 1.315 1_565 S
C274 O269 1.279 . S
C275 O276 1.315 . S
C275 O277 1.279 . S
O276 Cd268 2.223 . S
O276 C275 1.315 . S
O277 Cd267 2.240 1_545 S
O277 C275 1.279 . S
O278 Cd268 2.297 . S
O278 C273 1.247 . S
O279 Cd268 2.439 1_565 S
O279 C273 1.208 1_565 S
O280 Cd281 2.223 . S
O280 C288 1.315 . S
Cd281 O280 2.223 . S
Cd281 O284 2.297 . S
Cd281 O285 2.439 1_554 S
Cd281 O291 2.240 1_554 S
Cd282 O283 2.240 1_556 S
Cd282 O290 2.223 1_556 S
Cd282 O292 2.297 . S
Cd282 O293 2.439 . S
O283 Cd282 2.240 1_554 S
O283 C288 1.279 . S
O284 Cd281 2.297 . S
O284 C286 1.247 . S
O285 Cd281 2.439 1_556 S
O285 C286 1.208 1_556 S
C286 O284 1.247 . S
C286 O285 1.208 1_554 S
C287 O292 1.247 . S
C287 O293 1.208 . S
C288 O280 1.315 . S
C288 O283 1.279 . S
C289 O290 1.315 1_556 S
C289 O291 1.279 . S
O290 Cd282 2.223 1_554 S
O290 C289 1.315 1_554 S
O291 Cd281 2.240 1_556 S
O291 C289 1.279 . S
O292 Cd282 2.297 . S
O292 C287 1.247 . S
O293 Cd282 2.439 . S
O293 C287 1.208 . S
O294 Cd295 2.223 . S
O294 C302 1.315 . S
Cd295 O294 2.223 . S
Cd295 O298 2.297 . S
Cd295 O299 2.439 . S
Cd295 O305 2.240 . S
Cd296 O297 2.240 . S
Cd296 O304 2.223 . S
Cd296 O306 2.297 . S
Cd296 O307 2.439 . S
O297 Cd296 2.240 . S
O297 C302 1.279 . S
O298 Cd295 2.297 . S
O298 C300 1.247 . S
O299 Cd295 2.439 . S
O299 C300 1.208 . S
C300 O298 1.247 . S
C300 O299 1.208 . S
C301 O306 1.247 . S
C301 O307 1.208 . S
C302 O294 1.315 . S
C302 O297 1.279 . S
C303 O304 1.315 . S
C303 O305 1.279 . S
O304 Cd296 2.223 . S
O304 C303 1.315 . S
O305 Cd295 2.240 . S
O305 C303 1.279 . S
O306 Cd296 2.297 . S
O306 C301 1.247 . S
O307 Cd296 2.439 . S
O307 C301 1.208 . S
O308 Cd309 2.223 . S
O308 C316 1.315 . S
Cd309 O308 2.223 . S
Cd309 O312 2.297 . S
Cd309 O313 2.439 . S
Cd309 O319 2.240 . S
Cd310 O311 2.240 . S
Cd310 O318 2.223 . S
Cd310 O320 2.297 . S
Cd310 O321 2.439 . S
O311 Cd310 2.240 . S
O311 C316 1.279 . S
O312 Cd309 2.297 . S
O312 C314 1.247 . S
O313 Cd309 2.439 . S
O313 C314 1.208 . S
C314 O312 1.247 . S
C314 O313 1.208 . S
C315 O320 1.247 . S
C315 O321 1.208 . S
C316 O308 1.315 . S
C316 O311 1.279 . S
C317 O318 1.315 . S
C317 O319 1.279 . S
O318 Cd310 2.223 . S
O318 C317 1.315 . S
O319 Cd309 2.240 . S
O319 C317 1.279 . S
O320 Cd310 2.297 . S
O320 C315 1.247 . S
O321 Cd310 2.439 . S
O321 C315 1.208 . S
O322 Cd323 2.223 . S
O322 C330 1.315 . S
Cd323 O322 2.223 . S
Cd323 O326 2.297 . S
Cd323 O327 2.439 . S
Cd323 O333 2.240 . S
Cd324 O325 2.240 . S
Cd324 O332 2.223 . S
Cd324 O334 2.297 . S
Cd324 O335 2.439 . S
O325 Cd324 2.240 . S
O325 C330 1.279 . S
O326 Cd323 2.297 . S
O326 C328 1.247 . S
O327 Cd323 2.439 . S
O327 C328 1.208 . S
C328 O326 1.247 . S
C328 O327 1.208 . S
C329 O334 1.247 . S
C329 O335 1.208 . S
C330 O322 1.315 . S
C330 O325 1.279 . S
C331 O332 1.315 . S
C331 O333 1.279 . S
O332 Cd324 2.223 . S
O332 C331 1.315 . S
O333 Cd323 2.240 . S
O333 C331 1.279 . S
O334 Cd324 2.297 . S
O334 C329 1.247 . S
O335 Cd324 2.439 . S
O335 C329 1.208 . S
Zn336 O342 1.969 1_565 S
Zn336 O343 1.965 1_565 S
Zn336 O347 2.024 . S
Zn336 O352 1.969 1_565 S
Zn337 O344 1.969 1_654 S
Zn337 O350 1.969 1_554 S
Zn337 O351 1.965 . S
Zn337 O353 2.024 1_655 S
C338 O339 1.229 . S
C338 O347 1.058 . S
O339 C338 1.229 . S
C340 O341 1.251 1_554 S
C340 O353 1.058 . S
O341 C340 1.251 1_556 S
O342 Zn336 1.969 1_545 S
O342 C345 1.267 1_545 S
O343 Zn336 1.965 1_545 S
O343 C354 1.260 1_554 S
O344 Zn337 1.969 1_456 S
O344 C354 1.258 . S
C345 O342 1.267 1_565 S
C345 O346 1.228 . S
O346 C345 1.228 . S
O347 Zn336 2.024 . S
O347 C338 1.058 . S
C348 O349 1.228 . S
C348 O350 1.267 1_554 S
O349 C348 1.228 . S
O350 Zn337 1.969 1_556 S
O350 C348 1.267 1_556 S
O351 Zn337 1.965 . S
O351 C355 1.260 1_655 S
O352 Zn336 1.969 1_545 S
O352 C355 1.258 . S
O353 Zn337 2.024 1_455 S
O353 C340 1.058 . S
C354 O343 1.260 1_556 S
C354 O344 1.258 . S
C355 O351 1.260 1_455 S
C355 O352 1.258 . S
Zn356 O362 1.969 . S
Zn356 O363 1.965 . S
Zn356 O367 2.024 . S
Zn356 O372 1.969 . S
Zn357 O364 1.969 . S
Zn357 O370 1.969 . S
Zn357 O371 1.965 . S
Zn357 O373 2.024 . S
C358 O359 1.229 . S
C358 O367 1.058 . S
O359 C358 1.229 . S
C360 O361 1.229 . S
C360 O373 1.058 . S
O361 C360 1.229 . S
O362 Zn356 1.969 . S
O362 C365 1.267 . S
O363 Zn356 1.965 . S
O363 C374 1.260 . S
O364 Zn357 1.969 . S
O364 C374 1.258 . S
C365 O362 1.267 . S
C365 O366 1.228 . S
O366 C365 1.228 . S
O367 Zn356 2.024 . S
O367 C358 1.058 . S
C368 O369 1.228 . S
C368 O370 1.267 . S
O369 C368 1.228 . S
O370 Zn357 1.969 . S
O370 C368 1.267 . S
O371 Zn357 1.965 . S
O371 C375 1.260 . S
O372 Zn356 1.969 . S
O372 C375 1.258 . S
O373 Zn357 2.024 . S
O373 C360 1.058 . S
C374 O363 1.260 . S
C374 O364 1.258 . S
C375 O371 1.260 . S
C375 O372 1.258 . S
Zn376 O382 1.969 . S
Zn376 O383 1.965 . S
Zn376 O387 2.024 . S
Zn376 O392 1.969 . S
Zn377 O384 1.969 . S
Zn377 O390 1.969 . S
Zn377 O391 1.965 1_565 S
Zn377 O393 2.024 . S
C378 O379 1.229 . S
C378 O387 1.058 . S
O379 C378 1.229 . S
C380 O381 1.229 . S
C380 O393 1.058 . S
O381 C380 1.229 . S
O382 Zn376 1.969 . S
O382 C385 1.267 . S
O383 Zn376 1.965 . S
O383 C394 1.260 . S
O384 Zn377 1.969 . S
O384 C394 1.258 1_565 S
C385 O382 1.267 . S
C385 O386 1.228 . S
O386 C385 1.228 . S
O387 Zn376 2.024 . S
O387 C378 1.058 . S
C388 O389 1.228 . S
C388 O390 1.267 . S
O389 C388 1.228 . S
O390 Zn377 1.969 . S
O390 C388 1.267 . S
O391 Zn377 1.965 1_545 S
O391 C395 1.260 . S
O392 Zn376 1.969 . S
O392 C395 1.258 . S
O393 Zn377 2.024 . S
O393 C380 1.058 . S
C394 O383 1.260 . S
C394 O384 1.258 1_545 S
C395 O391 1.260 . S
C395 O392 1.258 . S
Zn396 O402 1.969 . S
Zn396 O403 1.965 . S
Zn396 O407 2.024 . S
Zn396 O412 1.969 . S
Zn397 O404 1.969 . S
Zn397 O410 1.969 . S
Zn397 O411 1.965 . S
Zn397 O413 2.024 . S
C398 O399 1.229 . S
C398 O407 1.058 . S
O399 C398 1.229 . S
C400 O401 1.229 . S
C400 O413 1.058 . S
O401 C400 1.229 . S
O402 Zn396 1.969 . S
O402 C405 1.267 . S
O403 Zn396 1.965 . S
O403 C414 1.260 . S
O404 Zn397 1.969 . S
O404 C414 1.258 . S
C405 O402 1.267 . S
C405 O406 1.228 . S
O406 C405 1.228 . S
O407 Zn396 2.024 . S
O407 C398 1.058 . S
C408 O409 1.228 . S
C408 O410 1.267 . S
O409 C408 1.228 . S
O410 Zn397 1.969 . S
O410 C408 1.267 . S
O411 Zn397 1.965 . S
O411 C415 1.260 . S
O412 Zn396 1.969 . S
O412 C415 1.258 . S
O413 Zn397 2.024 . S
O413 C400 1.058 . S
C414 O403 1.260 . S
C414 O404 1.258 . S
C415 O411 1.260 . S
C415 O412 1.258 . S
Zn416 O422 1.969 . S
Zn416 O423 1.965 . S
Zn416 O427 2.024 1_565 S
Zn416 O432 1.969 1_565 S
Zn417 O424 1.969 1_455 S
Zn417 O430 1.969 . S
Zn417 O431 1.965 . S
Zn417 O433 2.024 . S
C418 O419 1.229 1_545 S
C418 O427 1.058 . S
O419 C418 1.229 1_565 S
C420 O421 1.229 . S
C420 O433 1.058 1_655 S
O421 C420 1.229 . S
O422 Zn416 1.969 . S
O422 C425 1.267 . S
O423 Zn416 1.965 . S
O423 C434 1.286 1_455 S
O424 Zn417 1.969 1_655 S
O424 C434 1.226 1_545 S
C425 O422 1.267 . S
C425 O426 1.228 . S
O426 C425 1.228 . S
O427 Zn416 2.024 1_545 S
O427 C418 1.058 . S
C428 O429 1.228 . S
C428 O430 1.267 . S
O429 C428 1.228 . S
O430 Zn417 1.969 . S
O430 C428 1.267 . S
O431 Zn417 1.965 . S
O431 C435 1.260 . S
O432 Zn416 1.969 1_545 S
O432 C435 1.258 . S
O433 Zn417 2.024 . S
O433 C420 1.058 1_455 S
C434 O423 1.286 1_655 S
C434 O424 1.226 1_565 S
C435 O431 1.260 . S
C435 O432 1.258 . S
Zn436 O442 1.969 . S
Zn436 O443 1.965 . S
Zn436 O447 2.024 . S
Zn436 O452 1.969 . S
Zn437 O444 1.969 . S
Zn437 O450 1.969 . S
Zn437 O451 1.965 . S
Zn437 O453 2.024 . S
C438 O439 1.229 . S
C438 O447 1.058 . S
O439 C438 1.229 . S
C440 O441 1.229 . S
C440 O453 1.058 . S
O441 C440 1.229 . S
O442 Zn436 1.969 . S
O442 C445 1.267 . S
O443 Zn436 1.965 . S
O443 C454 1.260 . S
O444 Zn437 1.969 . S
O444 C454 1.258 . S
C445 O442 1.267 . S
C445 O446 1.228 . S
O446 C445 1.228 . S
O447 Zn436 2.024 . S
O447 C438 1.058 . S
C448 O449 1.228 . S
C448 O450 1.267 . S
O449 C448 1.228 . S
O450 Zn437 1.969 . S
O450 C448 1.267 . S
O451 Zn437 1.965 . S
O451 C455 1.260 . S
O452 Zn436 1.969 . S
O452 C455 1.258 . S
O453 Zn437 2.024 . S
O453 C440 1.058 . S
C454 O443 1.260 . S
C454 O444 1.258 . S
C455 O451 1.260 . S
C455 O452 1.258 . S
Zn456 O462 1.969 1_554 S
Zn456 O463 1.965 1_545 S
Zn456 O467 2.024 . S
Zn456 O472 1.969 . S
Zn457 O464 1.969 . S
Zn457 O470 1.969 . S
Zn457 O471 1.965 1_565 S
Zn457 O473 2.024 . S
C458 O459 1.229 . S
C458 O467 1.058 . S
O459 C458 1.229 . S
C460 O461 1.229 . S
C460 O473 1.058 . S
O461 C460 1.229 . S
O462 Zn456 1.969 1_556 S
O462 C465 1.267 . S
O463 Zn456 1.965 1_565 S
O463 C474 1.260 . S
O464 Zn457 1.969 . S
O464 C474 1.258 . S
C465 O462 1.267 . S
C465 O466 1.228 . S
O466 C465 1.228 . S
O467 Zn456 2.024 . S
O467 C458 1.058 . S
C468 O469 1.228 1_565 S
C468 O470 1.267 . S
O469 C468 1.228 1_545 S
O470 Zn457 1.969 . S
O470 C468 1.267 . S
O471 Zn457 1.965 1_545 S
O471 C475 1.260 . S
O472 Zn456 1.969 . S
O472 C475 1.258 . S
O473 Zn457 2.024 . S
O473 C460 1.058 . S
C474 O463 1.260 . S
C474 O464 1.258 . S
C475 O471 1.260 . S
C475 O472 1.258 . S
Zn476 O482 1.969 . S
Zn476 O483 1.965 . S
Zn476 O487 2.024 . S
Zn476 O492 1.969 . S
Zn477 O484 1.969 . S
Zn477 O490 1.969 . S
Zn477 O491 1.965 . S
Zn477 O493 2.024 . S
C478 O479 1.229 . S
C478 O487 1.058 . S
O479 C478 1.229 . S
C480 O481 1.229 . S
C480 O493 1.058 . S
O481 C480 1.229 . S
O482 Zn476 1.969 . S
O482 C485 1.267 . S
O483 Zn476 1.965 . S
O483 C494 1.260 . S
O484 Zn477 1.969 . S
O484 C494 1.258 . S
C485 O482 1.267 . S
C485 O486 1.228 . S
O486 C485 1.228 . S
O487 Zn476 2.024 . S
O487 C478 1.058 . S
C488 O489 1.228 . S
C488 O490 1.267 . S
O489 C488 1.228 . S
O490 Zn477 1.969 . S
O490 C488 1.267 . S
O491 Zn477 1.965 . S
O491 C495 1.260 . S
O492 Zn476 1.969 . S
O492 C495 1.258 . S
O493 Zn477 2.024 . S
O493 C480 1.058 . S
C494 O483 1.260 . S
C494 O484 1.258 . S
C495 O491 1.260 . S
C495 O492 1.258 . S
Zn496 O502 1.969 . S
Zn496 O503 1.965 . S
Zn496 O507 2.024 . S
Zn496 O512 1.969 . S
Zn497 O504 1.969 1_556 S
Zn497 O510 1.969 1_556 S
Zn497 O511 1.965 1_556 S
Zn497 O513 2.024 . S
C498 O499 1.229 . S
C498 O507 1.058 . S
O499 C498 1.229 . S
C500 O501 1.229 . S
C500 O513 1.058 . S
O501 C500 1.229 . S
O502 Zn496 1.969 . S
O502 C505 1.267 . S
O503 Zn496 1.965 . S
O503 C514 1.260 . S
O504 Zn497 1.969 1_554 S
O504 C514 1.258 . S
C505 O502 1.267 . S
C505 O506 1.228 . S
O506 C505 1.228 . S
O507 Zn496 2.024 . S
O507 C498 1.058 . S
C508 O509 1.228 . S
C508 O510 1.267 1_556 S
O509 C508 1.228 . S
O510 Zn497 1.969 1_554 S
O510 C508 1.267 1_554 S
O511 Zn497 1.965 1_554 S
O511 C515 1.260 . S
O512 Zn496 1.969 . S
O512 C515 1.258 . S
O513 Zn497 2.024 . S
O513 C500 1.058 . S
C514 O503 1.260 . S
C514 O504 1.258 . S
C515 O511 1.260 . S
C515 O512 1.258 . S
Zn516 O522 1.969 . S
Zn516 O523 1.965 . S
Zn516 O527 2.024 . S
Zn516 O532 1.969 . S
Zn517 O524 1.969 . S
Zn517 O530 1.969 . S
Zn517 O531 1.965 . S
Zn517 O533 2.024 . S
C518 O519 1.229 . S
C518 O527 1.058 . S
O519 C518 1.229 . S
C520 O521 1.229 . S
C520 O533 1.058 . S
O521 C520 1.229 . S
O522 Zn516 1.969 . S
O522 C525 1.267 . S
O523 Zn516 1.965 . S
O523 C534 1.260 . S
O524 Zn517 1.969 . S
O524 C534 1.258 . S
C525 O522 1.267 . S
C525 O526 1.228 . S
O526 C525 1.228 . S
O527 Zn516 2.024 . S
O527 C518 1.058 . S
C528 O529 1.228 . S
C528 O530 1.267 . S
O529 C528 1.228 . S
O530 Zn517 1.969 . S
O530 C528 1.267 . S
O531 Zn517 1.965 . S
O531 C535 1.260 . S
O532 Zn516 1.969 . S
O532 C535 1.258 . S
O533 Zn517 2.024 . S
O533 C520 1.058 . S
C534 O523 1.260 . S
C534 O524 1.258 . S
C535 O531 1.260 . S
C535 O532 1.258 . S
Zn536 O542 1.969 . S
Zn536 O543 1.965 . S
Zn536 O547 2.024 . S
Zn536 O552 1.969 . S
Zn537 O544 1.969 . S
Zn537 O550 1.969 . S
Zn537 O551 1.965 1_655 S
Zn537 O553 2.024 . S
C538 O539 1.229 . S
C538 O547 1.058 . S
O539 C538 1.229 . S
C540 O541 1.229 . S
C540 O553 1.058 . S
O541 C540 1.229 . S
O542 Zn536 1.969 . S
O542 C545 1.267 . S
O543 Zn536 1.965 . S
O543 C554 1.260 . S
O544 Zn537 1.969 . S
O544 C554 1.258 1_655 S
C545 O542 1.267 . S
C545 O546 1.228 . S
O546 C545 1.228 . S
O547 Zn536 2.024 . S
O547 C538 1.058 . S
C548 O549 1.228 . S
C548 O550 1.267 . S
O549 C548 1.228 . S
O550 Zn537 1.969 . S
O550 C548 1.267 . S
O551 Zn537 1.965 1_455 S
O551 C555 1.260 . S
O552 Zn536 1.969 . S
O552 C555 1.258 . S
O553 Zn537 2.024 . S
O553 C540 1.058 . S
C554 O543 1.260 . S
C554 O544 1.258 1_455 S
C555 O551 1.260 . S
C555 O552 1.258 . S
Zn556 O562 1.969 . S
Zn556 O563 1.965 . S
Zn556 O567 2.024 . S
Zn556 O572 1.969 . S
Zn557 O564 1.969 . S
Zn557 O570 1.969 . S
Zn557 O571 1.965 . S
Zn557 O573 2.024 . S
C558 O559 1.229 . S
C558 O567 1.058 . S
O559 C558 1.229 . S
C560 O561 1.229 . S
C560 O573 1.058 . S
O561 C560 1.229 . S
O562 Zn556 1.969 . S
O562 C565 1.267 . S
O563 Zn556 1.965 . S
O563 C574 1.260 . S
O564 Zn557 1.969 . S
O564 C574 1.258 . S
C565 O562 1.267 . S
C565 O566 1.228 . S
O566 C565 1.228 . S
O567 Zn556 2.024 . S
O567 C558 1.058 . S
C568 O569 1.228 . S
C568 O570 1.267 . S
O569 C568 1.228 . S
O570 Zn557 1.969 . S
O570 C568 1.267 . S
O571 Zn557 1.965 . S
O571 C575 1.260 . S
O572 Zn556 1.969 . S
O572 C575 1.258 . S
O573 Zn557 2.024 . S
O573 C560 1.058 . S
C574 O563 1.260 . S
C574 O564 1.258 . S
C575 O571 1.260 . S
C575 O572 1.258 . S
Zn576 O582 1.969 . S
Zn576 O583 1.965 . S
Zn576 O587 2.024 . S
Zn576 O592 1.969 . S
Zn577 O584 1.969 . S
Zn577 O590 1.969 . S
Zn577 O591 1.965 . S
Zn577 O593 2.024 . S
C578 O579 1.229 . S
C578 O587 1.058 . S
O579 C578 1.229 . S
C580 O581 1.229 . S
C580 O593 1.058 . S
O581 C580 1.229 . S
O582 Zn576 1.969 . S
O582 C585 1.267 . S
O583 Zn576 1.965 . S
O583 C594 1.260 . S
O584 Zn577 1.969 . S
O584 C594 1.258 . S
C585 O582 1.267 . S
C585 O586 1.228 . S
O586 C585 1.228 . S
O587 Zn576 2.024 . S
O587 C578 1.058 . S
C588 O589 1.228 . S
C588 O590 1.267 . S
O589 C588 1.228 . S
O590 Zn577 1.969 . S
O590 C588 1.267 . S
O591 Zn577 1.965 . S
O591 C595 1.260 . S
O592 Zn576 1.969 . S
O592 C595 1.258 . S
O593 Zn577 2.024 . S
O593 C580 1.058 . S
C594 O583 1.260 . S
C594 O584 1.258 . S
C595 O591 1.260 . S
C595 O592 1.258 . S
Zn596 O602 1.969 . S
Zn596 O603 1.965 . S
Zn596 O607 2.024 . S
Zn596 O612 1.969 . S
Zn597 O604 1.969 . S
Zn597 O610 1.969 . S
Zn597 O611 1.965 . S
Zn597 O613 2.024 . S
C598 O599 1.229 . S
C598 O607 1.058 . S
O599 C598 1.229 . S
C600 O601 1.229 . S
C600 O613 1.058 . S
O601 C600 1.229 . S
O602 Zn596 1.969 . S
O602 C605 1.267 . S
O603 Zn596 1.965 . S
O603 C614 1.260 . S
O604 Zn597 1.969 . S
O604 C614 1.258 . S
C605 O602 1.267 . S
C605 O606 1.228 . S
O606 C605 1.228 . S
O607 Zn596 2.024 . S
O607 C598 1.058 . S
C608 O609 1.228 . S
C608 O610 1.267 . S
O609 C608 1.228 . S
O610 Zn597 1.969 . S
O610 C608 1.267 . S
O611 Zn597 1.965 . S
O611 C615 1.260 . S
O612 Zn596 1.969 . S
O612 C615 1.258 . S
O613 Zn597 2.024 . S
O613 C600 1.058 . S
C614 O603 1.260 . S
C614 O604 1.258 . S
C615 O611 1.260 . S
C615 O612 1.258 . S
Zn616 O622 1.969 . S
Zn616 O623 1.965 . S
Zn616 O627 2.024 . S
Zn616 O632 1.969 . S
Zn617 O624 1.969 . S
Zn617 O630 1.969 . S
Zn617 O631 1.965 . S
Zn617 O633 2.024 . S
C618 O619 1.229 . S
C618 O627 1.058 . S
O619 C618 1.229 . S
C620 O621 1.229 . S
C620 O633 1.058 . S
O621 C620 1.229 . S
O622 Zn616 1.969 . S
O622 C625 1.267 . S
O623 Zn616 1.965 . S
O623 C634 1.260 . S
O624 Zn617 1.969 . S
O624 C634 1.258 . S
C625 O622 1.267 . S
C625 O626 1.228 . S
O626 C625 1.228 . S
O627 Zn616 2.024 . S
O627 C618 1.058 . S
C628 O629 1.228 . S
C628 O630 1.267 . S
O629 C628 1.228 . S
O630 Zn617 1.969 . S
O630 C628 1.267 . S
O631 Zn617 1.965 . S
O631 C635 1.260 . S
O632 Zn616 1.969 . S
O632 C635 1.258 . S
O633 Zn617 2.024 . S
O633 C620 1.058 . S
C634 O623 1.260 . S
C634 O624 1.258 . S
C635 O631 1.260 . S
C635 O632 1.258 . S
Zn636 O642 1.969 . S
Zn636 O643 1.965 . S
Zn636 O647 2.024 1_655 S
Zn636 O652 1.969 1_655 S
Zn637 O644 1.986 . S
Zn637 O650 1.969 . S
Zn637 O651 1.965 . S
Zn637 O653 2.024 . S
C638 O639 1.229 . S
C638 O647 1.058 . S
O639 C638 1.229 . S
C640 O641 1.229 1_554 S
C640 O653 1.058 . S
O641 C640 1.229 1_556 S
O642 Zn636 1.969 . S
O642 C645 1.267 . S
O643 Zn636 1.965 . S
O643 C654 1.260 1_655 S
O644 Zn637 1.986 . S
O644 C654 1.260 . S
C645 O642 1.267 . S
C645 O646 1.228 . S
O646 C645 1.228 . S
O647 Zn636 2.024 1_455 S
O647 C638 1.058 . S
C648 O649 1.228 . S
C648 O650 1.267 . S
O649 C648 1.228 . S
O650 Zn637 1.969 . S
O650 C648 1.267 . S
O651 Zn637 1.965 . S
O651 C655 1.260 . S
O652 Zn636 1.969 1_455 S
O652 C655 1.258 . S
O653 Zn637 2.024 . S
O653 C640 1.058 . S
C654 O643 1.260 1_455 S
C654 O644 1.260 . S
C655 O651 1.260 . S
C655 O652 1.258 . S
H656 C664 0.950 . S
H657 C669 0.950 . S
H658 C666 0.950 . S
H659 C668 0.950 . S
H660 C670 0.950 . S
H661 C672 0.950 . S
H662 C674 0.950 . S
H663 C675 0.950 . S
C664 H656 0.950 . S
C664 C665 1.386 1_455 S
C664 C666 1.391 . S
C665 C664 1.386 1_655 S
C665 C669 1.393 . S
C666 H658 0.950 . S
C666 C664 1.391 . S
C666 C667 1.400 . S
C667 C666 1.400 . S
C667 C668 1.398 . S
C667 C673 1.491 . S
C668 H659 0.950 . S
C668 C667 1.398 . S
C668 C669 1.391 1_455 S
C669 H657 0.950 . S
C669 C665 1.393 . S
C669 C668 1.391 1_655 S
C670 H660 0.950 . S
C670 C671 1.386 1_554 S
C670 C672 1.391 1_554 S
C671 C670 1.386 1_556 S
C671 C675 1.393 . S
C672 H661 0.950 . S
C672 C670 1.391 1_556 S
C672 C673 1.400 . S
C673 C667 1.491 . S
C673 C672 1.400 . S
C673 C674 1.398 . S
C674 H662 0.950 . S
C674 C673 1.398 . S
C674 C675 1.391 . S
C675 H663 0.950 . S
C675 C671 1.393 . S
C675 C674 1.391 . S
H676 C684 0.950 . S
H677 C689 0.950 . S
H678 C686 0.950 . S
H679 C688 0.950 . S
H680 C690 0.950 . S
H681 C692 0.950 . S
H682 C694 0.950 . S
H683 C695 0.950 . S
C684 H676 0.950 . S
C684 C685 1.386 . S
C684 C686 1.391 . S
C685 C684 1.386 . S
C685 C689 1.393 . S
C686 H678 0.950 . S
C686 C684 1.391 . S
C686 C687 1.400 . S
C687 C686 1.400 . S
C687 C688 1.398 . S
C687 C693 1.491 . S
C688 H679 0.950 . S
C688 C687 1.398 . S
C688 C689 1.391 . S
C689 H677 0.950 . S
C689 C685 1.393 . S
C689 C688 1.391 . S
C690 H680 0.950 . S
C690 C691 1.386 . S
C690 C692 1.391 . S
C691 C690 1.386 . S
C691 C695 1.393 . S
C692 H681 0.950 . S
C692 C690 1.391 . S
C692 C693 1.400 . S
C693 C687 1.491 . S
C693 C692 1.400 . S
C693 C694 1.398 . S
C694 H682 0.950 . S
C694 C693 1.398 . S
C694 C695 1.391 . S
C695 H683 0.950 . S
C695 C691 1.393 . S
C695 C694 1.391 . S
H696 C704 0.950 . S
H697 C709 0.950 . S
H698 C706 0.950 . S
H699 C708 0.950 . S
H700 C710 0.950 . S
H701 C712 0.950 . S
H702 C714 0.950 . S
H703 C715 0.950 . S
C704 H696 0.950 . S
C704 C705 1.386 . S
C704 C706 1.391 . S
C705 C704 1.386 . S
C705 C709 1.393 . S
C706 H698 0.950 . S
C706 C704 1.391 . S
C706 C707 1.400 . S
C707 C706 1.400 . S
C707 C708 1.398 . S
C707 C713 1.491 . S
C708 H699 0.950 . S
C708 C707 1.398 . S
C708 C709 1.391 . S
C709 H697 0.950 . S
C709 C705 1.393 . S
C709 C708 1.391 . S
C710 H700 0.950 . S
C710 C711 1.386 . S
C710 C712 1.391 . S
C711 C710 1.386 . S
C711 C715 1.393 . S
C712 H701 0.950 . S
C712 C710 1.391 . S
C712 C713 1.400 . S
C713 C707 1.491 . S
C713 C712 1.400 . S
C713 C714 1.398 . S
C714 H702 0.950 . S
C714 C713 1.398 . S
C714 C715 1.391 . S
C715 H703 0.950 . S
C715 C711 1.393 . S
C715 C714 1.391 . S
H716 C724 0.950 . S
H717 C729 0.950 . S
H718 C726 0.950 . S
H719 C728 0.950 . S
H720 C730 0.950 . S
H721 C732 0.950 . S
H722 C734 0.950 . S
H723 C735 0.950 . S
C724 H716 0.950 . S
C724 C725 1.386 . S
C724 C726 1.391 . S
C725 C724 1.386 . S
C725 C729 1.393 . S
C726 H718 0.950 . S
C726 C724 1.391 . S
C726 C727 1.400 . S
C727 C726 1.400 . S
C727 C728 1.398 . S
C727 C733 1.491 . S
C728 H719 0.950 . S
C728 C727 1.398 . S
C728 C729 1.391 . S
C729 H717 0.950 . S
C729 C725 1.393 . S
C729 C728 1.391 . S
C730 H720 0.950 . S
C730 C731 1.386 . S
C730 C732 1.391 . S
C731 C730 1.386 . S
C731 C735 1.393 . S
C732 H721 0.950 . S
C732 C730 1.391 . S
C732 C733 1.400 . S
C733 C727 1.491 . S
C733 C732 1.400 . S
C733 C734 1.398 . S
C734 H722 0.950 . S
C734 C733 1.398 . S
C734 C735 1.391 . S
C735 H723 0.950 . S
C735 C731 1.393 . S
C735 C734 1.391 . S
H736 C744 0.950 . S
H737 C749 0.950 . S
H738 C746 0.950 . S
H739 C748 0.950 . S
H740 C750 0.950 1_655 S
H741 C752 0.950 1_655 S
H742 C754 0.950 . S
H743 C755 0.950 . S
C744 H736 0.950 . S
C744 C745 1.386 . S
C744 C746 1.391 . S
C745 C744 1.386 . S
C745 C749 1.393 1_455 S
C746 H738 0.950 . S
C746 C744 1.391 . S
C746 C747 1.400 . S
C747 C746 1.400 . S
C747 C748 1.398 1_455 S
C747 C753 1.491 . S
C748 H739 0.950 . S
C748 C747 1.398 1_655 S
C748 C749 1.391 . S
C749 H737 0.950 . S
C749 C745 1.393 1_655 S
C749 C748 1.391 . S
C750 H740 0.950 1_455 S
C750 C751 1.386 . S
C750 C752 1.391 . S
C751 C750 1.386 . S
C751 C755 1.393 . S
C752 H741 0.950 1_455 S
C752 C750 1.391 . S
C752 C753 1.400 . S
C753 C747 1.491 . S
C753 C752 1.400 . S
C753 C754 1.398 . S
C754 H742 0.950 . S
C754 C753 1.398 . S
C754 C755 1.391 . S
C755 H743 0.950 . S
C755 C751 1.393 . S
C755 C754 1.391 . S
H756 C764 0.950 . S
H757 C769 0.950 . S
H758 C766 0.950 . S
H759 C768 0.950 . S
H760 C770 0.950 . S
H761 C772 0.950 . S
H762 C774 0.950 . S
H763 C775 0.950 . S
C764 H756 0.950 . S
C764 C765 1.386 . S
C764 C766 1.391 . S
C765 C764 1.386 . S
C765 C769 1.393 . S
C766 H758 0.950 . S
C766 C764 1.391 . S
C766 C767 1.400 . S
C767 C766 1.400 . S
C767 C768 1.398 . S
C767 C773 1.491 . S
C768 H759 0.950 . S
C768 C767 1.398 . S
C768 C769 1.391 . S
C769 H757 0.950 . S
C769 C765 1.393 . S
C769 C768 1.391 . S
C770 H760 0.950 . S
C770 C771 1.386 . S
C770 C772 1.391 . S
C771 C770 1.386 . S
C771 C775 1.393 . S
C772 H761 0.950 . S
C772 C770 1.391 . S
C772 C773 1.400 . S
C773 C767 1.491 . S
C773 C772 1.400 . S
C773 C774 1.398 . S
C774 H762 0.950 . S
C774 C773 1.398 . S
C774 C775 1.391 . S
C775 H763 0.950 . S
C775 C771 1.393 . S
C775 C774 1.391 . S
H776 C784 0.950 . S
H777 C789 0.950 . S
H778 C786 0.950 . S
H779 C788 0.950 . S
H780 C790 0.950 . S
H781 C792 0.950 . S
H782 C794 0.950 . S
H783 C795 0.950 . S
C784 H776 0.950 . S
C784 C785 1.386 . S
C784 C786 1.391 . S
C785 C784 1.386 . S
C785 C789 1.393 . S
C786 H778 0.950 . S
C786 C784 1.391 . S
C786 C787 1.400 . S
C787 C786 1.400 . S
C787 C788 1.398 . S
C787 C793 1.491 . S
C788 H779 0.950 . S
C788 C787 1.398 . S
C788 C789 1.391 . S
C789 H777 0.950 . S
C789 C785 1.393 . S
C789 C788 1.391 . S
C790 H780 0.950 . S
C790 C791 1.386 . S
C790 C792 1.391 . S
C791 C790 1.386 . S
C791 C795 1.393 . S
C792 H781 0.950 . S
C792 C790 1.391 . S
C792 C793 1.400 . S
C793 C787 1.491 . S
C793 C792 1.400 . S
C793 C794 1.398 . S
C794 H782 0.950 . S
C794 C793 1.398 . S
C794 C795 1.391 . S
C795 H783 0.950 . S
C795 C791 1.393 . S
C795 C794 1.391 . S
H796 C804 0.950 . S
H797 C809 0.950 . S
H798 C806 0.950 . S
H799 C808 0.950 . S
H800 C810 0.950 . S
H801 C812 0.950 . S
H802 C814 0.950 . S
H803 C815 0.950 . S
C804 H796 0.950 . S
C804 C805 1.386 . S
C804 C806 1.391 . S
C805 C804 1.386 . S
C805 C809 1.393 . S
C806 H798 0.950 . S
C806 C804 1.391 . S
C806 C807 1.400 . S
C807 C806 1.400 . S
C807 C808 1.398 . S
C807 C813 1.491 . S
C808 H799 0.950 . S
C808 C807 1.398 . S
C808 C809 1.391 . S
C809 H797 0.950 . S
C809 C805 1.393 . S
C809 C808 1.391 . S
C810 H800 0.950 . S
C810 C811 1.386 . S
C810 C812 1.391 . S
C811 C810 1.386 . S
C811 C815 1.393 . S
C812 H801 0.950 . S
C812 C810 1.391 . S
C812 C813 1.400 . S
C813 C807 1.491 . S
C813 C812 1.400 . S
C813 C814 1.398 . S
C814 H802 0.950 . S
C814 C813 1.398 . S
C814 C815 1.391 . S
C815 H803 0.950 . S
C815 C811 1.393 . S
C815 C814 1.391 . S
H816 C824 0.950 . S
H817 C829 0.950 . S
H818 C826 0.950 . S
H819 C828 0.950 . S
H820 C830 0.950 . S
H821 C832 0.950 . S
H822 C834 0.950 1_565 S
H823 C835 0.950 1_565 S
C824 H816 0.950 . S
C824 C825 1.386 1_565 S
C824 C826 1.391 . S
C825 C824 1.386 1_545 S
C825 C829 1.393 . S
C826 H818 0.950 . S
C826 C824 1.391 . S
C826 C827 1.400 1_565 S
C827 C826 1.400 1_545 S
C827 C828 1.398 . S
C827 C833 1.491 . S
C828 H819 0.950 . S
C828 C827 1.398 . S
C828 C829 1.391 . S
C829 H817 0.950 . S
C829 C825 1.393 . S
C829 C828 1.391 . S
C830 H820 0.950 . S
C830 C831 1.386 . S
C830 C832 1.391 . S
C831 C830 1.386 . S
C831 C835 1.393 . S
C832 H821 0.950 . S
C832 C830 1.391 . S
C832 C833 1.400 . S
C833 C827 1.491 . S
C833 C832 1.400 . S
C833 C834 1.398 . S
C834 H822 0.950 1_545 S
C834 C833 1.398 . S
C834 C835 1.391 . S
C835 H823 0.950 1_545 S
C835 C831 1.393 . S
C835 C834 1.391 . S
H836 C844 0.950 . S
H837 C849 0.950 . S
H838 C846 0.950 . S
H839 C848 0.950 . S
H840 C850 0.950 . S
H841 C852 0.950 . S
H842 C854 0.950 . S
H843 C855 0.950 . S
C844 H836 0.950 . S
C844 C845 1.386 . S
C844 C846 1.391 . S
C845 C844 1.386 . S
C845 C849 1.393 . S
C846 H838 0.950 . S
C846 C844 1.391 . S
C846 C847 1.400 . S
C847 C846 1.400 . S
C847 C848 1.398 . S
C847 C853 1.491 . S
C848 H839 0.950 . S
C848 C847 1.398 . S
C848 C849 1.391 . S
C849 H837 0.950 . S
C849 C845 1.393 . S
C849 C848 1.391 . S
C850 H840 0.950 . S
C850 C851 1.386 . S
C850 C852 1.391 . S
C851 C850 1.386 . S
C851 C855 1.393 . S
C852 H841 0.950 . S
C852 C850 1.391 . S
C852 C853 1.400 . S
C853 C847 1.491 . S
C853 C852 1.400 . S
C853 C854 1.398 . S
C854 H842 0.950 . S
C854 C853 1.398 . S
C854 C855 1.391 . S
C855 H843 0.950 . S
C855 C851 1.393 . S
C855 C854 1.391 . S
H856 C864 0.950 . S
H857 C869 0.950 . S
H858 C866 0.950 . S
H859 C868 0.950 . S
H860 C870 0.950 . S
H861 C872 0.950 . S
H862 C874 0.950 . S
H863 C875 0.950 . S
C864 H856 0.950 . S
C864 C865 1.411 . S
C864 C866 1.391 . S
C865 C864 1.411 . S
C865 C869 1.360 1_565 S
C866 H858 0.950 . S
C866 C864 1.391 . S
C866 C867 1.386 1_565 S
C867 C866 1.386 1_545 S
C867 C868 1.409 . S
C867 C873 1.495 . S
C868 H859 0.950 . S
C868 C867 1.409 . S
C868 C869 1.391 . S
C869 H857 0.950 . S
C869 C865 1.360 1_545 S
C869 C868 1.391 . S
C870 H860 0.950 . S
C870 C871 1.386 . S
C870 C872 1.391 . S
C871 C870 1.386 . S
C871 C875 1.393 1_545 S
C872 H861 0.950 . S
C872 C870 1.391 . S
C872 C873 1.400 . S
C873 C867 1.495 . S
C873 C872 1.400 . S
C873 C874 1.398 1_545 S
C874 H862 0.950 . S
C874 C873 1.398 1_565 S
C874 C875 1.391 . S
C875 H863 0.950 . S
C875 C871 1.393 1_565 S
C875 C874 1.391 . S
H876 C884 0.950 . S
H877 C889 0.950 . S
H878 C886 0.950 . S
H879 C888 0.950 . S
H880 C890 0.950 . S
H881 C892 0.950 . S
H882 C894 0.950 . S
H883 C895 0.950 . S
C884 H876 0.950 . S
C884 C885 1.386 . S
C884 C886 1.391 . S
C885 C884 1.386 . S
C885 C889 1.393 . S
C886 H878 0.950 . S
C886 C884 1.391 . S
C886 C887 1.400 . S
C887 C886 1.400 . S
C887 C888 1.398 . S
C887 C893 1.491 . S
C888 H879 0.950 . S
C888 C887 1.398 . S
C888 C889 1.391 . S
C889 H877 0.950 . S
C889 C885 1.393 . S
C889 C888 1.391 . S
C890 H880 0.950 . S
C890 C891 1.386 . S
C890 C892 1.391 . S
C891 C890 1.386 . S
C891 C895 1.393 . S
C892 H881 0.950 . S
C892 C890 1.391 . S
C892 C893 1.400 . S
C893 C887 1.491 . S
C893 C892 1.400 . S
C893 C894 1.398 . S
C894 H882 0.950 . S
C894 C893 1.398 . S
C894 C895 1.391 . S
C895 H883 0.950 . S
C895 C891 1.393 . S
C895 C894 1.391 . S
H896 C904 0.950 . S
H897 C909 0.950 . S
H898 C906 0.950 . S
H899 C908 0.950 . S
H900 C910 0.950 1_455 S
H901 C912 0.950 . S
H902 C914 0.950 . S
H903 C915 0.950 . S
C904 H896 0.950 . S
C904 C905 1.386 1_565 S
C904 C906 1.391 . S
C905 C904 1.386 1_545 S
C905 C909 1.393 . S
C906 H898 0.950 . S
C906 C904 1.391 . S
C906 C907 1.400 1_565 S
C907 C906 1.400 1_545 S
C907 C908 1.398 . S
C907 C913 1.491 . S
C908 H899 0.950 . S
C908 C907 1.398 . S
C908 C909 1.391 . S
C909 H897 0.950 . S
C909 C905 1.393 . S
C909 C908 1.391 . S
C910 H900 0.950 1_655 S
C910 C911 1.386 . S
C910 C912 1.391 . S
C911 C910 1.386 . S
C911 C915 1.393 1_545 S
C912 H901 0.950 . S
C912 C910 1.391 . S
C912 C913 1.400 . S
C913 C907 1.491 . S
C913 C912 1.400 . S
C913 C914 1.398 1_545 S
C914 H902 0.950 . S
C914 C913 1.398 1_565 S
C914 C915 1.391 . S
C915 H903 0.950 . S
C915 C911 1.393 1_565 S
C915 C914 1.391 . S
H916 C924 0.950 . S
H917 C929 0.950 . S
H918 C926 0.950 . S
H919 C928 0.950 . S
H920 C930 0.950 . S
H921 C932 0.950 . S
H922 C934 0.950 . S
H923 C935 0.950 . S
C924 H916 0.950 . S
C924 C925 1.386 . S
C924 C926 1.391 . S
C925 C924 1.386 . S
C925 C929 1.393 . S
C926 H918 0.950 . S
C926 C924 1.391 . S
C926 C927 1.400 . S
C927 C926 1.400 . S
C927 C928 1.398 . S
C927 C933 1.491 . S
C928 H919 0.950 . S
C928 C927 1.398 . S
C928 C929 1.391 . S
C929 H917 0.950 . S
C929 C925 1.393 . S
C929 C928 1.391 . S
C930 H920 0.950 . S
C930 C931 1.386 . S
C930 C932 1.391 . S
C931 C930 1.386 . S
C931 C935 1.393 . S
C932 H921 0.950 . S
C932 C930 1.391 . S
C932 C933 1.400 . S
C933 C927 1.491 . S
C933 C932 1.400 . S
C933 C934 1.398 . S
C934 H922 0.950 . S
C934 C933 1.398 . S
C934 C935 1.391 . S
C935 H923 0.950 . S
C935 C931 1.393 . S
C935 C934 1.391 . S
H936 C944 0.950 . S
H937 C949 0.950 . S
H938 C946 0.950 . S
H939 C948 0.950 . S
H940 C950 0.924 1_565 S
H941 C952 0.950 1_565 S
H942 C954 0.950 . S
H943 C955 0.950 . S
C944 H936 0.950 . S
C944 C945 1.386 . S
C944 C946 1.391 . S
C945 C944 1.386 . S
C945 C949 1.393 1_545 S
C946 H938 0.950 . S
C946 C944 1.391 . S
C946 C947 1.400 . S
C947 C946 1.400 . S
C947 C948 1.398 1_545 S
C947 C953 1.491 . S
C948 H939 0.950 . S
C948 C947 1.398 1_565 S
C948 C949 1.391 . S
C949 H937 0.950 . S
C949 C945 1.393 1_565 S
C949 C948 1.391 . S
C950 H940 0.924 1_545 S
C950 C951 1.386 . S
C950 C952 1.391 . S
C951 C950 1.386 . S
C951 C955 1.393 . S
C952 H941 0.950 1_545 S
C952 C950 1.391 . S
C952 C953 1.400 . S
C953 C947 1.491 . S
C953 C952 1.400 . S
C953 C954 1.398 . S
C954 H942 0.950 . S
C954 C953 1.398 . S
C954 C955 1.391 . S
C955 H943 0.950 . S
C955 C951 1.393 . S
C955 C954 1.391 . S
H956 C964 0.950 . S
H957 C969 0.950 . S
H958 C966 0.950 . S
H959 C968 0.950 . S
H960 C970 0.950 . S
H961 C972 0.950 . S
H962 C974 0.950 . S
H963 C975 0.950 . S
C964 H956 0.950 . S
C964 C965 1.386 . S
C964 C966 1.391 . S
C965 C964 1.386 . S
C965 C969 1.393 . S
C966 H958 0.950 . S
C966 C964 1.391 . S
C966 C967 1.400 . S
C967 C966 1.400 . S
C967 C968 1.398 . S
C967 C973 1.491 . S
C968 H959 0.950 . S
C968 C967 1.398 . S
C968 C969 1.391 . S
C969 H957 0.950 . S
C969 C965 1.393 . S
C969 C968 1.391 . S
C970 H960 0.950 . S
C970 C971 1.386 . S
C970 C972 1.391 . S
C971 C970 1.386 . S
C971 C975 1.393 . S
C972 H961 0.950 . S
C972 C970 1.391 . S
C972 C973 1.400 . S
C973 C967 1.491 . S
C973 C972 1.400 . S
C973 C974 1.398 . S
C974 H962 0.950 . S
C974 C973 1.398 . S
C974 C975 1.391 . S
C975 H963 0.950 . S
C975 C971 1.393 . S
C975 C974 1.391 . S
H976 C984 0.950 . S
H977 C989 0.950 . S
H978 C986 0.950 1_556 S
H979 C988 0.950 . S
H980 C990 0.950 . S
H981 C992 0.950 . S
H982 C994 0.950 . S
H983 C995 0.950 . S
C984 H976 0.950 . S
C984 C985 1.386 1_556 S
C984 C986 1.391 1_556 S
C985 C984 1.386 1_554 S
C985 C989 1.393 . S
C986 H978 0.950 1_554 S
C986 C984 1.391 1_554 S
C986 C987 1.400 . S
C987 C986 1.400 . S
C987 C988 1.398 . S
C987 C993 1.491 . S
C988 H979 0.950 . S
C988 C987 1.398 . S
C988 C989 1.391 . S
C989 H977 0.950 . S
C989 C985 1.393 . S
C989 C988 1.391 . S
C990 H980 0.950 . S
C990 C991 1.386 . S
C990 C992 1.391 . S
C991 C990 1.386 . S
C991 C995 1.393 . S
C992 H981 0.950 . S
C992 C990 1.391 . S
C992 C993 1.400 . S
C993 C987 1.491 . S
C993 C992 1.400 . S
C993 C994 1.398 . S
C994 H982 0.950 . S
C994 C993 1.398 . S
C994 C995 1.391 . S
C995 H983 0.950 . S
C995 C991 1.393 . S
C995 C994 1.391 . S
H996 C1004 0.950 . S
H997 C1009 0.945 1_556 S
H998 C1006 0.950 . S
H999 C1008 0.950 . S
H1000 C1010 0.950 . S
H1001 C1012 0.950 . S
H1002 C1014 0.950 . S
H1003 C1015 0.950 . S
C1004 H996 0.950 . S
C1004 C1005 1.386 . S
C1004 C1006 1.391 . S
C1005 C1004 1.386 . S
C1005 C1009 1.390 . S
C1006 H998 0.950 . S
C1006 C1004 1.391 . S
C1006 C1007 1.400 . S
C1007 C1006 1.400 . S
C1007 C1008 1.398 . S
C1007 C1013 1.491 . S
C1008 H999 0.950 . S
C1008 C1007 1.398 . S
C1008 C1009 1.400 . S
C1009 H997 0.945 1_554 S
C1009 C1005 1.390 . S
C1009 C1008 1.400 . S
C1010 H1000 0.950 . S
C1010 C1011 1.386 . S
C1010 C1012 1.391 . S
C1011 C1010 1.386 . S
C1011 C1015 1.393 . S
C1012 H1001 0.950 . S
C1012 C1010 1.391 . S
C1012 C1013 1.400 . S
C1013 C1007 1.491 . S
C1013 C1012 1.400 . S
C1013 C1014 1.398 . S
C1014 H1002 0.950 . S
C1014 C1013 1.398 . S
C1014 C1015 1.391 . S
C1015 H1003 0.950 . S
C1015 C1011 1.393 . S
C1015 C1014 1.391 . S
H1016 C1024 0.950 . S
H1017 C1029 0.950 . S
H1018 C1026 0.950 . S
H1019 C1028 0.950 . S
H1020 C1030 0.950 . S
H1021 C1032 0.950 . S
H1022 C1034 0.950 . S
H1023 C1035 0.950 . S
C1024 H1016 0.950 . S
C1024 C1025 1.386 . S
C1024 C1026 1.391 . S
C1025 C1024 1.386 . S
C1025 C1029 1.393 . S
C1026 H1018 0.950 . S
C1026 C1024 1.391 . S
C1026 C1027 1.400 . S
C1027 C1026 1.400 . S
C1027 C1028 1.398 . S
C1027 C1033 1.491 . S
C1028 H1019 0.950 . S
C1028 C1027 1.398 . S
C1028 C1029 1.391 . S
C1029 H1017 0.950 . S
C1029 C1025 1.393 . S
C1029 C1028 1.391 . S
C1030 H1020 0.950 . S
C1030 C1031 1.386 . S
C1030 C1032 1.391 . S
C1031 C1030 1.386 . S
C1031 C1035 1.393 . S
C1032 H1021 0.950 . S
C1032 C1030 1.391 . S
C1032 C1033 1.400 . S
C1033 C1027 1.491 . S
C1033 C1032 1.400 . S
C1033 C1034 1.398 . S
C1034 H1022 0.950 . S
C1034 C1033 1.398 . S
C1034 C1035 1.391 . S
C1035 H1023 0.950 . S
C1035 C1031 1.393 . S
C1035 C1034 1.391 . S
H1036 C1044 0.950 . S
H1037 C1049 0.950 . S
H1038 C1046 0.950 . S
H1039 C1048 0.950 . S
H1040 C1050 0.950 . S
H1041 C1052 0.950 . S
H1042 C1054 0.950 . S
H1043 C1055 0.950 . S
C1044 H1036 0.950 . S
C1044 C1045 1.386 . S
C1044 C1046 1.391 . S
C1045 C1044 1.386 . S
C1045 C1049 1.393 . S
C1046 H1038 0.950 . S
C1046 C1044 1.391 . S
C1046 C1047 1.400 . S
C1047 C1046 1.400 . S
C1047 C1048 1.398 . S
C1047 C1053 1.491 . S
C1048 H1039 0.950 . S
C1048 C1047 1.398 . S
C1048 C1049 1.391 . S
C1049 H1037 0.950 . S
C1049 C1045 1.393 . S
C1049 C1048 1.391 . S
C1050 H1040 0.950 . S
C1050 C1051 1.386 . S
C1050 C1052 1.391 . S
C1051 C1050 1.386 . S
C1051 C1055 1.393 . S
C1052 H1041 0.950 . S
C1052 C1050 1.391 . S
C1052 C1053 1.400 . S
C1053 C1047 1.491 . S
C1053 C1052 1.400 . S
C1053 C1054 1.398 . S
C1054 H1042 0.950 . S
C1054 C1053 1.398 . S
C1054 C1055 1.391 . S
C1055 H1043 0.950 . S
C1055 C1051 1.393 . S
C1055 C1054 1.391 . S
H1056 C1064 0.950 . S
H1057 C1069 0.950 . S
H1058 C1066 0.950 . S
H1059 C1068 0.950 . S
H1060 C1070 0.950 . S
H1061 C1072 0.950 . S
H1062 C1074 0.950 . S
H1063 C1075 0.950 . S
C1064 H1056 0.950 . S
C1064 C1065 1.386 . S
C1064 C1066 1.391 . S
C1065 C1064 1.386 . S
C1065 C1069 1.393 . S
C1066 H1058 0.950 . S
C1066 C1064 1.391 . S
C1066 C1067 1.400 . S
C1067 C1066 1.400 . S
C1067 C1068 1.398 . S
C1067 C1073 1.491 . S
C1068 H1059 0.950 . S
C1068 C1067 1.398 . S
C1068 C1069 1.391 . S
C1069 H1057 0.950 . S
C1069 C1065 1.393 . S
C1069 C1068 1.391 . S
C1070 H1060 0.950 . S
C1070 C1071 1.386 . S
C1070 C1072 1.391 . S
C1071 C1070 1.386 . S
C1071 C1075 1.393 . S
C1072 H1061 0.950 . S
C1072 C1070 1.391 . S
C1072 C1073 1.400 . S
C1073 C1067 1.491 . S
C1073 C1072 1.400 . S
C1073 C1074 1.398 . S
C1074 H1062 0.950 . S
C1074 C1073 1.398 . S
C1074 C1075 1.391 . S
C1075 H1063 0.950 . S
C1075 C1071 1.393 . S
C1075 C1074 1.391 . S
H1076 C1084 0.950 . S
H1077 C1089 0.950 . S
H1078 C1086 0.950 . S
H1079 C1088 0.950 . S
H1080 C1090 0.950 . S
H1081 C1092 0.950 . S
H1082 C1094 0.950 . S
H1083 C1095 0.950 . S
C1084 H1076 0.950 . S
C1084 C1085 1.386 . S
C1084 C1086 1.391 . S
C1085 C1084 1.386 . S
C1085 C1089 1.393 . S
C1086 H1078 0.950 . S
C1086 C1084 1.391 . S
C1086 C1087 1.400 . S
C1087 C1086 1.400 . S
C1087 C1088 1.398 . S
C1087 C1093 1.491 . S
C1088 H1079 0.950 . S
C1088 C1087 1.398 . S
C1088 C1089 1.391 . S
C1089 H1077 0.950 . S
C1089 C1085 1.393 . S
C1089 C1088 1.391 . S
C1090 H1080 0.950 . S
C1090 C1091 1.386 . S
C1090 C1092 1.391 . S
C1091 C1090 1.386 . S
C1091 C1095 1.393 . S
C1092 H1081 0.950 . S
C1092 C1090 1.391 . S
C1092 C1093 1.400 . S
C1093 C1087 1.491 . S
C1093 C1092 1.400 . S
C1093 C1094 1.398 . S
C1094 H1082 0.950 . S
C1094 C1093 1.398 . S
C1094 C1095 1.391 . S
C1095 H1083 0.950 . S
C1095 C1091 1.393 . S
C1095 C1094 1.391 . S
H1096 C1104 0.950 . S
H1097 C1109 0.950 . S
H1098 C1106 0.950 . S
H1099 C1108 0.950 . S
H1100 C1110 0.950 . S
H1101 C1112 0.950 . S
H1102 C1114 0.950 . S
H1103 C1115 0.950 . S
C1104 H1096 0.950 . S
C1104 C1105 1.386 . S
C1104 C1106 1.391 . S
C1105 C1104 1.386 . S
C1105 C1109 1.393 . S
C1106 H1098 0.950 . S
C1106 C1104 1.391 . S
C1106 C1107 1.400 . S
C1107 C1106 1.400 . S
C1107 C1108 1.398 . S
C1107 C1113 1.491 . S
C1108 H1099 0.950 . S
C1108 C1107 1.398 . S
C1108 C1109 1.391 . S
C1109 H1097 0.950 . S
C1109 C1105 1.393 . S
C1109 C1108 1.391 . S
C1110 H1100 0.950 . S
C1110 C1111 1.386 . S
C1110 C1112 1.391 . S
C1111 C1110 1.386 . S
C1111 C1115 1.393 . S
C1112 H1101 0.950 . S
C1112 C1110 1.391 . S
C1112 C1113 1.400 . S
C1113 C1107 1.491 . S
C1113 C1112 1.400 . S
C1113 C1114 1.398 . S
C1114 H1102 0.950 . S
C1114 C1113 1.398 . S
C1114 C1115 1.391 . S
C1115 H1103 0.950 . S
C1115 C1111 1.393 . S
C1115 C1114 1.391 . S
H1116 C1124 0.950 . S
H1117 C1129 0.950 . S
H1118 C1126 0.950 . S
H1119 C1128 0.950 . S
H1120 C1130 0.950 . S
H1121 C1132 0.950 . S
H1122 C1134 0.950 . S
H1123 C1135 0.950 . S
C1124 H1116 0.950 . S
C1124 C1125 1.386 . S
C1124 C1126 1.391 . S
C1125 C1124 1.386 . S
C1125 C1129 1.393 . S
C1126 H1118 0.950 . S
C1126 C1124 1.391 . S
C1126 C1127 1.400 . S
C1127 C1126 1.400 . S
C1127 C1128 1.398 . S
C1127 C1133 1.491 . S
C1128 H1119 0.950 . S
C1128 C1127 1.398 . S
C1128 C1129 1.391 . S
C1129 H1117 0.950 . S
C1129 C1125 1.393 . S
C1129 C1128 1.391 . S
C1130 H1120 0.950 . S
C1130 C1131 1.386 . S
C1130 C1132 1.391 . S
C1131 C1130 1.386 . S
C1131 C1135 1.393 . S
C1132 H1121 0.950 . S
C1132 C1130 1.391 . S
C1132 C1133 1.400 . S
C1133 C1127 1.491 . S
C1133 C1132 1.400 . S
C1133 C1134 1.398 . S
C1134 H1122 0.950 . S
C1134 C1133 1.398 . S
C1134 C1135 1.391 . S
C1135 H1123 0.950 . S
C1135 C1131 1.393 . S
C1135 C1134 1.391 . S
H1136 C1144 0.950 . S
H1137 C1149 0.950 . S
H1138 C1146 0.950 . S
H1139 C1148 0.950 . S
H1140 C1150 0.950 . S
H1141 C1152 0.950 . S
H1142 C1154 0.950 . S
H1143 C1155 0.950 . S
C1144 H1136 0.950 . S
C1144 C1145 1.386 . S
C1144 C1146 1.391 . S
C1145 C1144 1.386 . S
C1145 C1149 1.393 . S
C1146 H1138 0.950 . S
C1146 C1144 1.391 . S
C1146 C1147 1.400 . S
C1147 C1146 1.400 . S
C1147 C1148 1.398 . S
C1147 C1153 1.491 . S
C1148 H1139 0.950 . S
C1148 C1147 1.398 . S
C1148 C1149 1.391 . S
C1149 H1137 0.950 . S
C1149 C1145 1.393 . S
C1149 C1148 1.391 . S
C1150 H1140 0.950 . S
C1150 C1151 1.386 . S
C1150 C1152 1.391 . S
C1151 C1150 1.386 . S
C1151 C1155 1.393 . S
C1152 H1141 0.950 . S
C1152 C1150 1.391 . S
C1152 C1153 1.400 . S
C1153 C1147 1.491 . S
C1153 C1152 1.400 . S
C1153 C1154 1.398 . S
C1154 H1142 0.950 . S
C1154 C1153 1.398 . S
C1154 C1155 1.391 . S
C1155 H1143 0.950 . S
C1155 C1151 1.393 . S
C1155 C1154 1.391 . S
H1156 C1164 0.950 . S
H1157 C1169 0.950 . S
H1158 C1166 0.950 . S
H1159 C1168 0.950 . S
H1160 C1170 0.950 . S
H1161 C1172 0.950 . S
H1162 C1174 0.950 . S
H1163 C1175 0.950 . S
C1164 H1156 0.950 . S
C1164 C1165 1.386 . S
C1164 C1166 1.391 . S
C1165 C1164 1.386 . S
C1165 C1169 1.393 . S
C1166 H1158 0.950 . S
C1166 C1164 1.391 . S
C1166 C1167 1.400 . S
C1167 C1166 1.400 . S
C1167 C1168 1.398 . S
C1167 C1173 1.491 . S
C1168 H1159 0.950 . S
C1168 C1167 1.398 . S
C1168 C1169 1.391 . S
C1169 H1157 0.950 . S
C1169 C1165 1.393 . S
C1169 C1168 1.391 . S
C1170 H1160 0.950 . S
C1170 C1171 1.386 . S
C1170 C1172 1.391 . S
C1171 C1170 1.386 . S
C1171 C1175 1.393 . S
C1172 H1161 0.950 . S
C1172 C1170 1.391 . S
C1172 C1173 1.400 . S
C1173 C1167 1.491 . S
C1173 C1172 1.400 . S
C1173 C1174 1.398 . S
C1174 H1162 0.950 . S
C1174 C1173 1.398 . S
C1174 C1175 1.391 . S
C1175 H1163 0.950 . S
C1175 C1171 1.393 . S
C1175 C1174 1.391 . S
H1176 C1184 0.950 . S
H1177 C1189 0.950 . S
H1178 C1186 0.950 . S
H1179 C1188 0.950 . S
H1180 C1190 0.950 . S
H1181 C1192 0.950 . S
H1182 C1194 0.950 . S
H1183 C1195 0.950 . S
C1184 H1176 0.950 . S
C1184 C1185 1.386 . S
C1184 C1186 1.391 . S
C1185 C1184 1.386 . S
C1185 C1189 1.393 . S
C1186 H1178 0.950 . S
C1186 C1184 1.391 . S
C1186 C1187 1.400 . S
C1187 C1186 1.400 . S
C1187 C1188 1.398 . S
C1187 C1193 1.491 . S
C1188 H1179 0.950 . S
C1188 C1187 1.398 . S
C1188 C1189 1.391 . S
C1189 H1177 0.950 . S
C1189 C1185 1.393 . S
C1189 C1188 1.391 . S
C1190 H1180 0.950 . S
C1190 C1191 1.386 . S
C1190 C1192 1.391 . S
C1191 C1190 1.386 . S
C1191 C1195 1.393 . S
C1192 H1181 0.950 . S
C1192 C1190 1.391 . S
C1192 C1193 1.400 . S
C1193 C1187 1.491 . S
C1193 C1192 1.400 . S
C1193 C1194 1.398 . S
C1194 H1182 0.950 . S
C1194 C1193 1.398 . S
C1194 C1195 1.391 . S
C1195 H1183 0.950 . S
C1195 C1191 1.393 . S
C1195 C1194 1.391 . S
H1196 C1204 0.950 . S
H1197 C1209 0.950 . S
H1198 C1206 0.950 . S
H1199 C1208 0.950 . S
H1200 C1210 0.950 . S
H1201 C1212 0.950 . S
H1202 C1214 0.950 . S
H1203 C1215 0.950 . S
C1204 H1196 0.950 . S
C1204 C1205 1.386 . S
C1204 C1206 1.391 . S
C1205 C1204 1.386 . S
C1205 C1209 1.393 . S
C1206 H1198 0.950 . S
C1206 C1204 1.391 . S
C1206 C1207 1.400 . S
C1207 C1206 1.400 . S
C1207 C1208 1.398 . S
C1207 C1213 1.491 . S
C1208 H1199 0.950 . S
C1208 C1207 1.398 . S
C1208 C1209 1.391 . S
C1209 H1197 0.950 . S
C1209 C1205 1.393 . S
C1209 C1208 1.391 . S
C1210 H1200 0.950 . S
C1210 C1211 1.386 . S
C1210 C1212 1.391 . S
C1211 C1210 1.386 . S
C1211 C1215 1.393 . S
C1212 H1201 0.950 . S
C1212 C1210 1.391 . S
C1212 C1213 1.400 . S
C1213 C1207 1.491 . S
C1213 C1212 1.400 . S
C1213 C1214 1.398 . S
C1214 H1202 0.950 . S
C1214 C1213 1.398 . S
C1214 C1215 1.391 . S
C1215 H1203 0.950 . S
C1215 C1211 1.393 . S
C1215 C1214 1.391 . S
H1216 C1224 0.950 . S
H1217 C1229 0.950 . S
H1218 C1226 0.950 . S
H1219 C1228 0.950 . S
H1220 C1230 0.950 . S
H1221 C1232 0.950 . S
H1222 C1234 0.950 . S
H1223 C1235 0.950 . S
C1224 H1216 0.950 . S
C1224 C1225 1.386 1_655 S
C1224 C1226 1.391 . S
C1225 C1224 1.386 1_455 S
C1225 C1229 1.393 . S
C1226 H1218 0.950 . S
C1226 C1224 1.391 . S
C1226 C1227 1.400 1_655 S
C1227 C1226 1.400 1_455 S
C1227 C1228 1.398 . S
C1227 C1233 1.491 . S
C1228 H1219 0.950 . S
C1228 C1227 1.398 . S
C1228 C1229 1.391 . S
C1229 H1217 0.950 . S
C1229 C1225 1.393 . S
C1229 C1228 1.391 . S
C1230 H1220 0.950 . S
C1230 C1231 1.386 . S
C1230 C1232 1.391 . S
C1231 C1230 1.386 . S
C1231 C1235 1.393 1_455 S
C1232 H1221 0.950 . S
C1232 C1230 1.391 . S
C1232 C1233 1.400 . S
C1233 C1227 1.491 . S
C1233 C1232 1.400 . S
C1233 C1234 1.398 1_455 S
C1234 H1222 0.950 . S
C1234 C1233 1.398 1_655 S
C1234 C1235 1.391 . S
C1235 H1223 0.950 . S
C1235 C1231 1.393 1_655 S
C1235 C1234 1.391 . S
H1236 C1244 0.950 . S
H1237 C1249 0.950 . S
H1238 C1246 0.950 . S
H1239 C1248 0.950 . S
H1240 C1250 0.950 . S
H1241 C1252 0.950 . S
H1242 C1254 0.950 . S
H1243 C1255 0.950 . S
C1244 H1236 0.950 . S
C1244 C1245 1.386 . S
C1244 C1246 1.391 . S
C1245 C1244 1.386 . S
C1245 C1249 1.393 . S
C1246 H1238 0.950 . S
C1246 C1244 1.391 . S
C1246 C1247 1.400 . S
C1247 C1246 1.400 . S
C1247 C1248 1.398 . S
C1247 C1253 1.491 . S
C1248 H1239 0.950 . S
C1248 C1247 1.398 . S
C1248 C1249 1.391 . S
C1249 H1237 0.950 . S
C1249 C1245 1.393 . S
C1249 C1248 1.391 . S
C1250 H1240 0.950 . S
C1250 C1251 1.386 . S
C1250 C1252 1.391 . S
C1251 C1250 1.386 . S
C1251 C1255 1.393 . S
C1252 H1241 0.950 . S
C1252 C1250 1.391 . S
C1252 C1253 1.400 . S
C1253 C1247 1.491 . S
C1253 C1252 1.400 . S
C1253 C1254 1.398 . S
C1254 H1242 0.950 . S
C1254 C1253 1.398 . S
C1254 C1255 1.391 . S
C1255 H1243 0.950 . S
C1255 C1251 1.393 . S
C1255 C1254 1.391 . S
H1256 C1264 0.950 . S
H1257 C1269 0.950 . S
H1258 C1266 0.950 . S
H1259 C1268 0.950 . S
H1260 C1270 0.950 1_554 S
H1261 C1272 0.950 . S
H1262 C1274 0.950 . S
H1263 C1275 0.950 . S
C1264 H1256 0.950 . S
C1264 C1265 1.386 . S
C1264 C1266 1.391 . S
C1265 C1264 1.386 . S
C1265 C1269 1.393 . S
C1266 H1258 0.950 . S
C1266 C1264 1.391 . S
C1266 C1267 1.400 . S
C1267 C1266 1.400 . S
C1267 C1268 1.398 . S
C1267 C1273 1.491 . S
C1268 H1259 0.950 . S
C1268 C1267 1.398 . S
C1268 C1269 1.391 . S
C1269 H1257 0.950 . S
C1269 C1265 1.393 . S
C1269 C1268 1.391 . S
C1270 H1260 0.950 1_556 S
C1270 C1271 1.386 . S
C1270 C1272 1.391 . S
C1271 C1270 1.386 . S
C1271 C1275 1.393 . S
C1272 H1261 0.950 . S
C1272 C1270 1.391 . S
C1272 C1273 1.400 . S
C1273 C1267 1.491 . S
C1273 C1272 1.400 . S
C1273 C1274 1.398 . S
C1274 H1262 0.950 . S
C1274 C1273 1.398 . S
C1274 C1275 1.391 . S
C1275 H1263 0.950 . S
C1275 C1271 1.393 . S
C1275 C1274 1.391 . S
H1276 C1284 0.950 . S
H1277 C1289 0.950 . S
H1278 C1286 0.950 . S
H1279 C1288 0.950 . S
H1280 C1290 0.950 . S
H1281 C1292 0.950 . S
H1282 C1294 0.950 . S
H1283 C1295 0.950 . S
C1284 H1276 0.950 . S
C1284 C1285 1.386 . S
C1284 C1286 1.391 . S
C1285 C1284 1.386 . S
C1285 C1289 1.393 . S
C1286 H1278 0.950 . S
C1286 C1284 1.391 . S
C1286 C1287 1.400 . S
C1287 C1286 1.400 . S
C1287 C1288 1.398 . S
C1287 C1293 1.491 . S
C1288 H1279 0.950 . S
C1288 C1287 1.398 . S
C1288 C1289 1.391 . S
C1289 H1277 0.950 . S
C1289 C1285 1.393 . S
C1289 C1288 1.391 . S
C1290 H1280 0.950 . S
C1290 C1291 1.386 . S
C1290 C1292 1.391 . S
C1291 C1290 1.386 . S
C1291 C1295 1.393 . S
C1292 H1281 0.950 . S
C1292 C1290 1.391 . S
C1292 C1293 1.400 . S
C1293 C1287 1.491 . S
C1293 C1292 1.400 . S
C1293 C1294 1.398 . S
C1294 H1282 0.950 . S
C1294 C1293 1.398 . S
C1294 C1295 1.391 . S
C1295 H1283 0.950 . S
C1295 C1291 1.393 . S
C1295 C1294 1.391 . S
H1296 C1304 0.950 . S
H1297 C1309 0.950 1_565 S
H1298 C1306 0.950 . S
H1299 C1308 0.950 1_565 S
H1300 C1310 0.950 1_565 S
H1301 C1312 0.950 1_565 S
H1302 C1314 0.950 . S
H1303 C1315 0.950 . S
C1304 H1296 0.950 . S
C1304 C1305 1.386 . S
C1304 C1306 1.391 . S
C1305 C1304 1.386 . S
C1305 C1309 1.393 . S
C1306 H1298 0.950 . S
C1306 C1304 1.391 . S
C1306 C1307 1.400 . S
C1307 C1306 1.400 . S
C1307 C1308 1.398 . S
C1307 C1313 1.491 . S
C1308 H1299 0.950 1_545 S
C1308 C1307 1.398 . S
C1308 C1309 1.391 . S
C1309 H1297 0.950 1_545 S
C1309 C1305 1.393 . S
C1309 C1308 1.391 . S
C1310 H1300 0.950 1_545 S
C1310 C1311 1.386 . S
C1310 C1312 1.391 . S
C1311 C1310 1.386 . S
C1311 C1315 1.393 . S
C1312 H1301 0.950 1_545 S
C1312 C1310 1.391 . S
C1312 C1313 1.400 . S
C1313 C1307 1.491 . S
C1313 C1312 1.400 . S
C1313 C1314 1.398 . S
C1314 H1302 0.950 . S
C1314 C1313 1.398 . S
C1314 C1315 1.391 . S
C1315 H1303 0.950 . S
C1315 C1311 1.393 . S
C1315 C1314 1.391 . S
H1316 C1324 0.950 . S
H1317 C1329 0.950 . S
H1318 C1326 0.950 . S
H1319 C1328 0.950 . S
H1320 C1330 0.950 . S
H1321 C1332 0.950 . S
H1322 C1334 0.950 . S
H1323 C1335 0.950 . S
C1324 H1316 0.950 . S
C1324 C1325 1.386 . S
C1324 C1326 1.391 . S
C1325 C1324 1.386 . S
C1325 C1329 1.393 . S
C1326 H1318 0.950 . S
C1326 C1324 1.391 . S
C1326 C1327 1.400 . S
C1327 C1326 1.400 . S
C1327 C1328 1.398 . S
C1327 C1333 1.491 . S
C1328 H1319 0.950 . S
C1328 C1327 1.398 . S
C1328 C1329 1.391 . S
C1329 H1317 0.950 . S
C1329 C1325 1.393 . S
C1329 C1328 1.391 . S
C1330 H1320 0.950 . S
C1330 C1331 1.386 . S
C1330 C1332 1.391 . S
C1331 C1330 1.386 . S
C1331 C1335 1.393 . S
C1332 H1321 0.950 . S
C1332 C1330 1.391 . S
C1332 C1333 1.400 . S
C1333 C1327 1.491 . S
C1333 C1332 1.400 . S
C1333 C1334 1.398 . S
C1334 H1322 0.950 . S
C1334 C1333 1.398 . S
C1334 C1335 1.391 . S
C1335 H1323 0.950 . S
C1335 C1331 1.393 . S
C1335 C1334 1.391 . S
H1336 C1344 0.950 . S
H1337 C1349 0.950 1_565 S
H1338 C1346 0.950 . S
H1339 C1348 0.950 1_565 S
H1340 C1350 0.998 . S
H1341 C1352 0.948 . S
H1342 C1354 0.950 . S
H1343 C1355 0.950 . S
C1344 H1336 0.950 . S
C1344 C1345 1.386 . S
C1344 C1346 1.391 . S
C1345 C1344 1.386 . S
C1345 C1349 1.393 . S
C1346 H1338 0.950 . S
C1346 C1344 1.391 . S
C1346 C1347 1.400 . S
C1347 C1346 1.400 . S
C1347 C1348 1.398 . S
C1347 C1353 1.491 . S
C1348 H1339 0.950 1_545 S
C1348 C1347 1.398 . S
C1348 C1349 1.391 . S
C1349 H1337 0.950 1_545 S
C1349 C1345 1.393 . S
C1349 C1348 1.391 . S
C1350 H1340 0.998 . S
C1350 C1351 1.350 1_565 S
C1350 C1352 1.380 . S
C1351 C1350 1.350 1_545 S
C1351 C1355 1.393 . S
C1352 H1341 0.948 . S
C1352 C1350 1.380 . S
C1352 C1353 1.403 1_565 S
C1353 C1347 1.491 . S
C1353 C1352 1.403 1_545 S
C1353 C1354 1.398 . S
C1354 H1342 0.950 . S
C1354 C1353 1.398 . S
C1354 C1355 1.391 . S
C1355 H1343 0.950 . S
C1355 C1351 1.393 . S
C1355 C1354 1.391 . S
H1356 C1364 0.950 . S
H1357 C1369 0.950 . S
H1358 C1366 0.950 . S
H1359 C1368 0.950 . S
H1360 C1370 0.950 . S
H1361 C1372 0.950 . S
H1362 C1374 0.950 . S
H1363 C1375 0.950 . S
C1364 H1356 0.950 . S
C1364 C1365 1.386 . S
C1364 C1366 1.391 . S
C1365 C1364 1.386 . S
C1365 C1369 1.393 . S
C1366 H1358 0.950 . S
C1366 C1364 1.391 . S
C1366 C1367 1.400 . S
C1367 C1366 1.400 . S
C1367 C1368 1.398 . S
C1367 C1373 1.491 . S
C1368 H1359 0.950 . S
C1368 C1367 1.398 . S
C1368 C1369 1.391 . S
C1369 H1357 0.950 . S
C1369 C1365 1.393 . S
C1369 C1368 1.391 . S
C1370 H1360 0.950 . S
C1370 C1371 1.386 . S
C1370 C1372 1.391 . S
C1371 C1370 1.386 . S
C1371 C1375 1.393 . S
C1372 H1361 0.950 . S
C1372 C1370 1.391 . S
C1372 C1373 1.400 . S
C1373 C1367 1.491 . S
C1373 C1372 1.400 . S
C1373 C1374 1.398 . S
C1374 H1362 0.950 . S
C1374 C1373 1.398 . S
C1374 C1375 1.391 . S
C1375 H1363 0.950 . S
C1375 C1371 1.393 . S
C1375 C1374 1.391 . S
H1376 C1384 0.950 . S
H1377 C1389 0.950 . S
H1378 C1386 0.950 . S
H1379 C1388 0.950 . S
H1380 C1390 0.950 . S
H1381 C1392 0.950 . S
H1382 C1394 0.950 . S
H1383 C1395 0.950 . S
C1384 H1376 0.950 . S
C1384 C1385 1.386 . S
C1384 C1386 1.391 . S
C1385 C1384 1.386 . S
C1385 C1389 1.393 . S
C1386 H1378 0.950 . S
C1386 C1384 1.391 . S
C1386 C1387 1.400 . S
C1387 C1386 1.400 . S
C1387 C1388 1.398 . S
C1387 C1393 1.491 . S
C1388 H1379 0.950 . S
C1388 C1387 1.398 . S
C1388 C1389 1.391 . S
C1389 H1377 0.950 . S
C1389 C1385 1.393 . S
C1389 C1388 1.391 . S
C1390 H1380 0.950 . S
C1390 C1391 1.386 . S
C1390 C1392 1.391 . S
C1391 C1390 1.386 . S
C1391 C1395 1.393 . S
C1392 H1381 0.950 . S
C1392 C1390 1.391 . S
C1392 C1393 1.400 . S
C1393 C1387 1.491 . S
C1393 C1392 1.400 . S
C1393 C1394 1.398 . S
C1394 H1382 0.950 . S
C1394 C1393 1.398 . S
C1394 C1395 1.391 . S
C1395 H1383 0.950 . S
C1395 C1391 1.393 . S
C1395 C1394 1.391 . S
H1396 C1404 0.950 . S
H1397 C1409 0.950 . S
H1398 C1406 0.950 . S
H1399 C1408 0.950 . S
H1400 C1410 0.950 . S
H1401 C1412 0.950 . S
H1402 C1414 0.950 . S
H1403 C1415 0.950 . S
C1404 H1396 0.950 . S
C1404 C1405 1.386 . S
C1404 C1406 1.391 . S
C1405 C1404 1.386 . S
C1405 C1409 1.393 . S
C1406 H1398 0.950 . S
C1406 C1404 1.391 . S
C1406 C1407 1.400 . S
C1407 C1406 1.400 . S
C1407 C1408 1.398 . S
C1407 C1413 1.491 . S
C1408 H1399 0.950 . S
C1408 C1407 1.398 . S
C1408 C1409 1.391 . S
C1409 H1397 0.950 . S
C1409 C1405 1.393 . S
C1409 C1408 1.391 . S
C1410 H1400 0.950 . S
C1410 C1411 1.386 . S
C1410 C1412 1.391 . S
C1411 C1410 1.386 . S
C1411 C1415 1.393 . S
C1412 H1401 0.950 . S
C1412 C1410 1.391 . S
C1412 C1413 1.400 . S
C1413 C1407 1.491 . S
C1413 C1412 1.400 . S
C1413 C1414 1.398 . S
C1414 H1402 0.950 . S
C1414 C1413 1.398 . S
C1414 C1415 1.391 . S
C1415 H1403 0.950 . S
C1415 C1411 1.393 . S
C1415 C1414 1.391 . S
H1416 C1424 0.950 1_565 S
H1417 C1429 0.950 . S
H1418 C1426 0.952 . S
H1419 C1428 0.950 . S
H1420 C1430 0.950 . S
H1421 C1432 0.950 . S
H1422 C1434 0.950 . S
H1423 C1435 0.950 . S
C1424 H1416 0.950 1_545 S
C1424 C1425 1.386 . S
C1424 C1426 1.391 1_545 S
C1425 C1424 1.386 . S
C1425 C1429 1.393 . S
C1426 H1418 0.952 . S
C1426 C1424 1.391 1_565 S
C1426 C1427 1.398 1_565 S
C1427 C1426 1.398 1_545 S
C1427 C1428 1.398 . S
C1427 C1433 1.491 . S
C1428 H1419 0.950 . S
C1428 C1427 1.398 . S
C1428 C1429 1.391 . S
C1429 H1417 0.950 . S
C1429 C1425 1.393 . S
C1429 C1428 1.391 . S
C1430 H1420 0.950 . S
C1430 C1431 1.386 1_545 S
C1430 C1432 1.391 . S
C1431 C1430 1.386 1_565 S
C1431 C1435 1.393 . S
C1432 H1421 0.950 . S
C1432 C1430 1.391 . S
C1432 C1433 1.400 . S
C1433 C1427 1.491 . S
C1433 C1432 1.400 . S
C1433 C1434 1.398 1_545 S
C1434 H1422 0.950 . S
C1434 C1433 1.398 1_565 S
C1434 C1435 1.391 . S
C1435 H1423 0.950 . S
C1435 C1431 1.393 . S
C1435 C1434 1.391 . S
H1436 C1444 0.950 . S
H1437 C1449 0.950 . S
H1438 C1446 0.950 . S
H1439 C1448 0.950 . S
H1440 C1450 0.950 . S
H1441 C1452 0.950 . S
H1442 C1454 0.950 . S
H1443 C1455 0.950 . S
C1444 H1436 0.950 . S
C1444 C1445 1.386 . S
C1444 C1446 1.391 . S
C1445 C1444 1.386 . S
C1445 C1449 1.393 . S
C1446 H1438 0.950 . S
C1446 C1444 1.391 . S
C1446 C1447 1.400 . S
C1447 C1446 1.400 . S
C1447 C1448 1.398 . S
C1447 C1453 1.491 . S
C1448 H1439 0.950 . S
C1448 C1447 1.398 . S
C1448 C1449 1.391 . S
C1449 H1437 0.950 . S
C1449 C1445 1.393 . S
C1449 C1448 1.391 . S
C1450 H1440 0.950 . S
C1450 C1451 1.386 . S
C1450 C1452 1.391 . S
C1451 C1450 1.386 . S
C1451 C1455 1.393 . S
C1452 H1441 0.950 . S
C1452 C1450 1.391 . S
C1452 C1453 1.400 . S
C1453 C1447 1.491 . S
C1453 C1452 1.400 . S
C1453 C1454 1.398 . S
C1454 H1442 0.950 . S
C1454 C1453 1.398 . S
C1454 C1455 1.391 . S
C1455 H1443 0.950 . S
C1455 C1451 1.393 . S
C1455 C1454 1.391 . S
H1456 C1464 0.950 . S
H1457 C1469 0.950 1_556 S
H1458 C1466 0.950 . S
H1459 C1468 0.950 1_556 S
H1460 C1470 0.950 . S
H1461 C1472 0.950 . S
H1462 C1474 0.950 . S
H1463 C1475 0.950 . S
C1464 H1456 0.950 . S
C1464 C1465 1.386 . S
C1464 C1466 1.391 . S
C1465 C1464 1.386 . S
C1465 C1469 1.393 . S
C1466 H1458 0.950 . S
C1466 C1464 1.391 . S
C1466 C1467 1.400 . S
C1467 C1466 1.400 . S
C1467 C1468 1.398 . S
C1467 C1473 1.491 . S
C1468 H1459 0.950 1_554 S
C1468 C1467 1.398 . S
C1468 C1469 1.391 . S
C1469 H1457 0.950 1_554 S
C1469 C1465 1.393 . S
C1469 C1468 1.391 . S
C1470 H1460 0.950 . S
C1470 C1471 1.386 1_556 S
C1470 C1472 1.391 . S
C1471 C1470 1.386 1_554 S
C1471 C1475 1.393 . S
C1472 H1461 0.950 . S
C1472 C1470 1.391 . S
C1472 C1473 1.400 1_556 S
C1473 C1467 1.491 . S
C1473 C1472 1.400 1_554 S
C1473 C1474 1.398 . S
C1474 H1462 0.950 . S
C1474 C1473 1.398 . S
C1474 C1475 1.391 . S
C1475 H1463 0.950 . S
C1475 C1471 1.393 . S
C1475 C1474 1.391 . S
H1476 C1484 0.950 . S
H1477 C1489 0.950 . S
H1478 C1486 0.950 . S
H1479 C1488 0.950 . S
H1480 C1490 0.950 . S
H1481 C1492 0.950 . S
H1482 C1494 0.950 . S
H1483 C1495 0.950 . S
C1484 H1476 0.950 . S
C1484 C1485 1.386 . S
C1484 C1486 1.391 . S
C1485 C1484 1.386 . S
C1485 C1489 1.393 . S
C1486 H1478 0.950 . S
C1486 C1484 1.391 . S
C1486 C1487 1.400 . S
C1487 C1486 1.400 . S
C1487 C1488 1.398 . S
C1487 C1493 1.491 . S
C1488 H1479 0.950 . S
C1488 C1487 1.398 . S
C1488 C1489 1.391 . S
C1489 H1477 0.950 . S
C1489 C1485 1.393 . S
C1489 C1488 1.391 . S
C1490 H1480 0.950 . S
C1490 C1491 1.386 . S
C1490 C1492 1.391 . S
C1491 C1490 1.386 . S
C1491 C1495 1.393 . S
C1492 H1481 0.950 . S
C1492 C1490 1.391 . S
C1492 C1493 1.400 . S
C1493 C1487 1.491 . S
C1493 C1492 1.400 . S
C1493 C1494 1.398 . S
C1494 H1482 0.950 . S
C1494 C1493 1.398 . S
C1494 C1495 1.391 . S
C1495 H1483 0.950 . S
C1495 C1491 1.393 . S
C1495 C1494 1.391 . S
H1496 C1504 0.950 . S
H1497 C1509 0.950 . S
H1498 C1506 0.950 . S
H1499 C1508 0.950 . S
H1500 C1510 0.950 . S
H1501 C1512 0.950 . S
H1502 C1514 0.950 . S
H1503 C1515 0.950 . S
C1504 H1496 0.950 . S
C1504 C1505 1.386 . S
C1504 C1506 1.391 . S
C1505 C1504 1.386 . S
C1505 C1509 1.393 . S
C1506 H1498 0.950 . S
C1506 C1504 1.391 . S
C1506 C1507 1.400 . S
C1507 C1506 1.400 . S
C1507 C1508 1.398 . S
C1507 C1513 1.491 . S
C1508 H1499 0.950 . S
C1508 C1507 1.398 . S
C1508 C1509 1.391 . S
C1509 H1497 0.950 . S
C1509 C1505 1.393 . S
C1509 C1508 1.391 . S
C1510 H1500 0.950 . S
C1510 C1511 1.386 . S
C1510 C1512 1.391 . S
C1511 C1510 1.386 . S
C1511 C1515 1.393 . S
C1512 H1501 0.950 . S
C1512 C1510 1.391 . S
C1512 C1513 1.400 . S
C1513 C1507 1.491 . S
C1513 C1512 1.400 . S
C1513 C1514 1.398 . S
C1514 H1502 0.950 . S
C1514 C1513 1.398 . S
C1514 C1515 1.391 . S
C1515 H1503 0.950 . S
C1515 C1511 1.393 . S
C1515 C1514 1.391 . S
H1516 C1524 0.950 . S
H1517 C1529 0.950 . S
H1518 C1526 0.950 . S
H1519 C1528 0.950 . S
H1520 C1530 0.950 . S
H1521 C1532 0.950 . S
H1522 C1534 0.950 . S
H1523 C1535 0.950 . S
C1524 H1516 0.950 . S
C1524 C1525 1.386 . S
C1524 C1526 1.391 . S
C1525 C1524 1.386 . S
C1525 C1529 1.393 . S
C1526 H1518 0.950 . S
C1526 C1524 1.391 . S
C1526 C1527 1.400 . S
C1527 C1526 1.400 . S
C1527 C1528 1.398 . S
C1527 C1533 1.491 . S
C1528 H1519 0.950 . S
C1528 C1527 1.398 . S
C1528 C1529 1.391 . S
C1529 H1517 0.950 . S
C1529 C1525 1.393 . S
C1529 C1528 1.391 . S
C1530 H1520 0.950 . S
C1530 C1531 1.386 . S
C1530 C1532 1.391 . S
C1531 C1530 1.386 . S
C1531 C1535 1.393 . S
C1532 H1521 0.950 . S
C1532 C1530 1.391 . S
C1532 C1533 1.400 . S
C1533 C1527 1.491 . S
C1533 C1532 1.400 . S
C1533 C1534 1.398 . S
C1534 H1522 0.950 . S
C1534 C1533 1.398 . S
C1534 C1535 1.391 . S
C1535 H1523 0.950 . S
C1535 C1531 1.393 . S
C1535 C1534 1.391 . S
H1536 C1544 0.950 . S
H1537 C1549 0.950 . S
H1538 C1546 0.950 . S
H1539 C1548 0.950 . S
H1540 C1550 0.950 . S
H1541 C1552 0.950 . S
H1542 C1554 0.950 . S
H1543 C1555 0.950 . S
C1544 H1536 0.950 . S
C1544 C1545 1.386 . S
C1544 C1546 1.391 . S
C1545 C1544 1.386 . S
C1545 C1549 1.393 . S
C1546 H1538 0.950 . S
C1546 C1544 1.391 . S
C1546 C1547 1.400 . S
C1547 C1546 1.400 . S
C1547 C1548 1.398 . S
C1547 C1553 1.491 . S
C1548 H1539 0.950 . S
C1548 C1547 1.398 . S
C1548 C1549 1.391 . S
C1549 H1537 0.950 . S
C1549 C1545 1.393 . S
C1549 C1548 1.391 . S
C1550 H1540 0.950 . S
C1550 C1551 1.386 . S
C1550 C1552 1.391 . S
C1551 C1550 1.386 . S
C1551 C1555 1.393 . S
C1552 H1541 0.950 . S
C1552 C1550 1.391 . S
C1552 C1553 1.400 . S
C1553 C1547 1.491 . S
C1553 C1552 1.400 . S
C1553 C1554 1.398 . S
C1554 H1542 0.950 . S
C1554 C1553 1.398 . S
C1554 C1555 1.391 . S
C1555 H1543 0.950 . S
C1555 C1551 1.393 . S
C1555 C1554 1.391 . S
H1556 C1564 0.950 . S
H1557 C1569 0.950 . S
H1558 C1566 0.950 . S
H1559 C1568 0.950 . S
H1560 C1570 0.950 . S
H1561 C1572 0.950 . S
H1562 C1574 0.950 . S
H1563 C1575 0.950 1_545 S
C1564 H1556 0.950 . S
C1564 C1565 1.386 . S
C1564 C1566 1.391 . S
C1565 C1564 1.386 . S
C1565 C1569 1.393 . S
C1566 H1558 0.950 . S
C1566 C1564 1.391 . S
C1566 C1567 1.400 . S
C1567 C1566 1.400 . S
C1567 C1568 1.398 . S
C1567 C1573 1.491 . S
C1568 H1559 0.950 . S
C1568 C1567 1.398 . S
C1568 C1569 1.391 . S
C1569 H1557 0.950 . S
C1569 C1565 1.393 . S
C1569 C1568 1.391 . S
C1570 H1560 0.950 . S
C1570 C1571 1.386 . S
C1570 C1572 1.391 . S
C1571 C1570 1.386 . S
C1571 C1575 1.393 . S
C1572 H1561 0.950 . S
C1572 C1570 1.391 . S
C1572 C1573 1.400 . S
C1573 C1567 1.491 . S
C1573 C1572 1.400 . S
C1573 C1574 1.398 . S
C1574 H1562 0.950 . S
C1574 C1573 1.398 . S
C1574 C1575 1.391 . S
C1575 H1563 0.950 1_565 S
C1575 C1571 1.393 . S
C1575 C1574 1.391 . S
H1576 C1584 0.950 . S
H1577 C1589 0.950 . S
H1578 C1586 0.950 . S
H1579 C1588 0.950 . S
H1580 C1590 0.950 . S
H1581 C1592 0.950 . S
H1582 C1594 0.950 . S
H1583 C1595 0.950 . S
C1584 H1576 0.950 . S
C1584 C1585 1.386 . S
C1584 C1586 1.391 . S
C1585 C1584 1.386 . S
C1585 C1589 1.393 . S
C1586 H1578 0.950 . S
C1586 C1584 1.391 . S
C1586 C1587 1.400 . S
C1587 C1586 1.400 . S
C1587 C1588 1.398 . S
C1587 C1593 1.491 . S
C1588 H1579 0.950 . S
C1588 C1587 1.398 . S
C1588 C1589 1.391 . S
C1589 H1577 0.950 . S
C1589 C1585 1.393 . S
C1589 C1588 1.391 . S
C1590 H1580 0.950 . S
C1590 C1591 1.386 . S
C1590 C1592 1.391 . S
C1591 C1590 1.386 . S
C1591 C1595 1.393 . S
C1592 H1581 0.950 . S
C1592 C1590 1.391 . S
C1592 C1593 1.400 . S
C1593 C1587 1.491 . S
C1593 C1592 1.400 . S
C1593 C1594 1.398 . S
C1594 H1582 0.950 . S
C1594 C1593 1.398 . S
C1594 C1595 1.391 . S
C1595 H1583 0.950 . S
C1595 C1591 1.393 . S
C1595 C1594 1.391 . S
H1596 C1604 0.950 . S
H1597 C1609 0.950 . S
H1598 C1606 0.950 . S
H1599 C1608 0.950 . S
H1600 C1610 0.950 . S
H1601 C1612 0.950 . S
H1602 C1614 0.950 . S
H1603 C1615 0.950 . S
C1604 H1596 0.950 . S
C1604 C1605 1.386 . S
C1604 C1606 1.391 . S
C1605 C1604 1.386 . S
C1605 C1609 1.393 . S
C1606 H1598 0.950 . S
C1606 C1604 1.391 . S
C1606 C1607 1.400 . S
C1607 C1606 1.400 . S
C1607 C1608 1.398 . S
C1607 C1613 1.491 . S
C1608 H1599 0.950 . S
C1608 C1607 1.398 . S
C1608 C1609 1.391 . S
C1609 H1597 0.950 . S
C1609 C1605 1.393 . S
C1609 C1608 1.391 . S
C1610 H1600 0.950 . S
C1610 C1611 1.386 . S
C1610 C1612 1.391 . S
C1611 C1610 1.386 . S
C1611 C1615 1.393 . S
C1612 H1601 0.950 . S
C1612 C1610 1.391 . S
C1612 C1613 1.400 . S
C1613 C1607 1.491 . S
C1613 C1612 1.400 . S
C1613 C1614 1.398 . S
C1614 H1602 0.950 . S
C1614 C1613 1.398 . S
C1614 C1615 1.391 . S
C1615 H1603 0.950 . S
C1615 C1611 1.393 . S
C1615 C1614 1.391 . S
H1616 C1624 0.950 . S
H1617 C1629 0.950 . S
H1618 C1626 0.950 . S
H1619 C1628 0.950 . S
H1620 C1630 0.950 . S
H1621 C1632 0.950 . S
H1622 C1634 0.950 . S
H1623 C1635 0.950 . S
C1624 H1616 0.950 . S
C1624 C1625 1.386 . S
C1624 C1626 1.391 . S
C1625 C1624 1.386 . S
C1625 C1629 1.393 . S
C1626 H1618 0.950 . S
C1626 C1624 1.391 . S
C1626 C1627 1.400 . S
C1627 C1626 1.400 . S
C1627 C1628 1.398 . S
C1627 C1633 1.491 . S
C1628 H1619 0.950 . S
C1628 C1627 1.398 . S
C1628 C1629 1.391 . S
C1629 H1617 0.950 . S
C1629 C1625 1.393 . S
C1629 C1628 1.391 . S
C1630 H1620 0.950 . S
C1630 C1631 1.386 . S
C1630 C1632 1.391 . S
C1631 C1630 1.386 . S
C1631 C1635 1.393 . S
C1632 H1621 0.950 . S
C1632 C1630 1.391 . S
C1632 C1633 1.400 . S
C1633 C1627 1.491 . S
C1633 C1632 1.400 . S
C1633 C1634 1.398 . S
C1634 H1622 0.950 . S
C1634 C1633 1.398 . S
C1634 C1635 1.391 . S
C1635 H1623 0.950 . S
C1635 C1631 1.393 . S
C1635 C1634 1.391 . S
H1636 C1644 0.950 . S
H1637 C1649 0.950 . S
H1638 C1646 0.950 . S
H1639 C1648 0.950 . S
H1640 C1650 0.950 . S
H1641 C1652 0.950 . S
H1642 C1654 0.950 . S
H1643 C1655 0.950 . S
C1644 H1636 0.950 . S
C1644 C1645 1.386 . S
C1644 C1646 1.391 . S
C1645 C1644 1.386 . S
C1645 C1649 1.393 . S
C1646 H1638 0.950 . S
C1646 C1644 1.391 . S
C1646 C1647 1.400 . S
C1647 C1646 1.400 . S
C1647 C1648 1.398 . S
C1647 C1653 1.491 . S
C1648 H1639 0.950 . S
C1648 C1647 1.398 . S
C1648 C1649 1.391 . S
C1649 H1637 0.950 . S
C1649 C1645 1.393 . S
C1649 C1648 1.391 . S
C1650 H1640 0.950 . S
C1650 C1651 1.386 . S
C1650 C1652 1.391 . S
C1651 C1650 1.386 . S
C1651 C1655 1.393 . S
C1652 H1641 0.950 . S
C1652 C1650 1.391 . S
C1652 C1653 1.400 . S
C1653 C1647 1.491 . S
C1653 C1652 1.400 . S
C1653 C1654 1.398 . S
C1654 H1642 0.950 . S
C1654 C1653 1.398 . S
C1654 C1655 1.391 . S
C1655 H1643 0.950 . S
C1655 C1651 1.393 . S
C1655 C1654 1.391 . S
H1656 C1664 0.950 . S
H1657 C1669 0.950 . S
H1658 C1666 0.950 . S
H1659 C1668 0.950 . S
H1660 C1670 0.950 . S
H1661 C1672 0.950 . S
H1662 C1674 0.938 1_554 S
H1663 C1675 0.950 . S
C1664 H1656 0.950 . S
C1664 C1665 1.386 . S
C1664 C1666 1.391 . S
C1665 C1664 1.386 . S
C1665 C1669 1.393 1_455 S
C1666 H1658 0.950 . S
C1666 C1664 1.391 . S
C1666 C1667 1.400 . S
C1667 C1666 1.400 . S
C1667 C1668 1.398 1_455 S
C1667 C1673 1.491 . S
C1668 H1659 0.950 . S
C1668 C1667 1.398 1_655 S
C1668 C1669 1.391 . S
C1669 H1657 0.950 . S
C1669 C1665 1.393 1_655 S
C1669 C1668 1.391 . S
C1670 H1660 0.950 . S
C1670 C1671 1.386 1_656 S
C1670 C1672 1.391 . S
C1671 C1670 1.386 1_454 S
C1671 C1675 1.393 . S
C1672 H1661 0.950 . S
C1672 C1670 1.391 . S
C1672 C1673 1.400 1_655 S
C1673 C1667 1.491 . S
C1673 C1672 1.400 1_455 S
C1673 C1674 1.438 . S
C1674 H1662 0.938 1_556 S
C1674 C1673 1.438 . S
C1674 C1675 1.365 1_556 S
C1675 H1663 0.950 . S
C1675 C1671 1.393 . S
C1675 C1674 1.365 1_554 S
H1676 C1684 0.950 . S
H1677 C1689 0.950 . S
H1678 C1686 0.950 . S
H1679 C1688 0.950 . S
H1680 C1690 0.950 . S
H1681 C1692 0.950 . S
H1682 C1694 0.950 . S
H1683 C1695 0.950 . S
C1684 H1676 0.950 . S
C1684 C1685 1.386 . S
C1684 C1686 1.391 . S
C1685 C1684 1.386 . S
C1685 C1689 1.393 . S
C1686 H1678 0.950 . S
C1686 C1684 1.391 . S
C1686 C1687 1.400 . S
C1687 C1686 1.400 . S
C1687 C1688 1.398 . S
C1687 C1693 1.491 . S
C1688 H1679 0.950 . S
C1688 C1687 1.398 . S
C1688 C1689 1.391 . S
C1689 H1677 0.950 . S
C1689 C1685 1.393 . S
C1689 C1688 1.391 . S
C1690 H1680 0.950 . S
C1690 C1691 1.386 . S
C1690 C1692 1.391 . S
C1691 C1690 1.386 . S
C1691 C1695 1.393 . S
C1692 H1681 0.950 . S
C1692 C1690 1.391 . S
C1692 C1693 1.400 . S
C1693 C1687 1.491 . S
C1693 C1692 1.400 . S
C1693 C1694 1.398 . S
C1694 H1682 0.950 . S
C1694 C1693 1.398 . S
C1694 C1695 1.391 . S
C1695 H1683 0.950 . S
C1695 C1691 1.393 . S
C1695 C1694 1.391 . S
H1696 C1704 0.950 . S
H1697 C1709 0.950 . S
H1698 C1706 0.950 . S
H1699 C1708 0.950 . S
H1700 C1710 0.950 . S
H1701 C1712 0.950 . S
H1702 C1714 0.950 . S
H1703 C1715 0.950 . S
C1704 H1696 0.950 . S
C1704 C1705 1.386 . S
C1704 C1706 1.391 . S
C1705 C1704 1.386 . S
C1705 C1709 1.393 . S
C1706 H1698 0.950 . S
C1706 C1704 1.391 . S
C1706 C1707 1.400 . S
C1707 C1706 1.400 . S
C1707 C1708 1.398 . S
C1707 C1713 1.491 . S
C1708 H1699 0.950 . S
C1708 C1707 1.398 . S
C1708 C1709 1.391 . S
C1709 H1697 0.950 . S
C1709 C1705 1.393 . S
C1709 C1708 1.391 . S
C1710 H1700 0.950 . S
C1710 C1711 1.386 . S
C1710 C1712 1.391 . S
C1711 C1710 1.386 . S
C1711 C1715 1.393 . S
C1712 H1701 0.950 . S
C1712 C1710 1.391 . S
C1712 C1713 1.400 . S
C1713 C1707 1.491 . S
C1713 C1712 1.400 . S
C1713 C1714 1.398 . S
C1714 H1702 0.950 . S
C1714 C1713 1.398 . S
C1714 C1715 1.391 . S
C1715 H1703 0.950 . S
C1715 C1711 1.393 . S
C1715 C1714 1.391 . S
H1716 C1724 0.950 . S
H1717 C1729 0.950 . S
H1718 C1726 0.950 . S
H1719 C1728 0.950 . S
H1720 C1730 0.950 . S
H1721 C1732 0.950 . S
H1722 C1734 0.950 . S
H1723 C1735 0.950 . S
C1724 H1716 0.950 . S
C1724 C1725 1.386 . S
C1724 C1726 1.391 . S
C1725 C1724 1.386 . S
C1725 C1729 1.393 . S
C1726 H1718 0.950 . S
C1726 C1724 1.391 . S
C1726 C1727 1.400 . S
C1727 C1726 1.400 . S
C1727 C1728 1.398 . S
C1727 C1733 1.491 . S
C1728 H1719 0.950 . S
C1728 C1727 1.398 . S
C1728 C1729 1.391 . S
C1729 H1717 0.950 . S
C1729 C1725 1.393 . S
C1729 C1728 1.391 . S
C1730 H1720 0.950 . S
C1730 C1731 1.386 . S
C1730 C1732 1.391 . S
C1731 C1730 1.386 . S
C1731 C1735 1.393 . S
C1732 H1721 0.950 . S
C1732 C1730 1.391 . S
C1732 C1733 1.400 . S
C1733 C1727 1.491 . S
C1733 C1732 1.400 . S
C1733 C1734 1.398 . S
C1734 H1722 0.950 . S
C1734 C1733 1.398 . S
C1734 C1735 1.391 . S
C1735 H1723 0.950 . S
C1735 C1731 1.393 . S
C1735 C1734 1.391 . S
H1736 C1744 0.950 . S
H1737 C1749 0.950 . S
H1738 C1746 0.950 . S
H1739 C1748 0.950 . S
H1740 C1750 0.950 . S
H1741 C1752 0.950 . S
H1742 C1754 0.950 . S
H1743 C1755 0.950 . S
C1744 H1736 0.950 . S
C1744 C1745 1.386 1_455 S
C1744 C1746 1.391 . S
C1745 C1744 1.386 1_655 S
C1745 C1749 1.393 . S
C1746 H1738 0.950 . S
C1746 C1744 1.391 . S
C1746 C1747 1.416 . S
C1747 C1746 1.416 . S
C1747 C1748 1.374 1_455 S
C1747 C1753 1.499 . S
C1748 H1739 0.950 . S
C1748 C1747 1.374 1_655 S
C1748 C1749 1.391 . S
C1749 H1737 0.950 . S
C1749 C1745 1.393 . S
C1749 C1748 1.391 . S
C1750 H1740 0.950 . S
C1750 C1751 1.386 1_655 S
C1750 C1752 1.391 . S
C1751 C1750 1.386 1_455 S
C1751 C1755 1.393 . S
C1752 H1741 0.950 . S
C1752 C1750 1.391 . S
C1752 C1753 1.400 1_655 S
C1753 C1747 1.499 . S
C1753 C1752 1.400 1_455 S
C1753 C1754 1.398 . S
C1754 H1742 0.950 . S
C1754 C1753 1.398 . S
C1754 C1755 1.391 . S
C1755 H1743 0.950 . S
C1755 C1751 1.393 . S
C1755 C1754 1.391 . S
H1756 C1764 0.950 . S
H1757 C1769 0.950 . S
H1758 C1766 0.950 . S
H1759 C1768 0.950 . S
H1760 C1770 0.950 . S
H1761 C1772 0.950 . S
H1762 C1774 0.950 . S
H1763 C1775 0.950 . S
C1764 H1756 0.950 . S
C1764 C1765 1.386 . S
C1764 C1766 1.391 . S
C1765 C1764 1.386 . S
C1765 C1769 1.393 . S
C1766 H1758 0.950 . S
C1766 C1764 1.391 . S
C1766 C1767 1.400 . S
C1767 C1766 1.400 . S
C1767 C1768 1.398 . S
C1767 C1773 1.491 . S
C1768 H1759 0.950 . S
C1768 C1767 1.398 . S
C1768 C1769 1.391 . S
C1769 H1757 0.950 . S
C1769 C1765 1.393 . S
C1769 C1768 1.391 . S
C1770 H1760 0.950 . S
C1770 C1771 1.386 . S
C1770 C1772 1.391 . S
C1771 C1770 1.386 . S
C1771 C1775 1.393 . S
C1772 H1761 0.950 . S
C1772 C1770 1.391 . S
C1772 C1773 1.400 . S
C1773 C1767 1.491 . S
C1773 C1772 1.400 . S
C1773 C1774 1.398 . S
C1774 H1762 0.950 . S
C1774 C1773 1.398 . S
C1774 C1775 1.391 . S
C1775 H1763 0.950 . S
C1775 C1771 1.393 . S
C1775 C1774 1.391 . S
H1776 C1784 0.950 . S
H1777 C1789 0.950 . S
H1778 C1786 0.950 . S
H1779 C1788 0.950 . S
H1780 C1790 0.950 . S
H1781 C1792 0.950 . S
H1782 C1794 0.950 . S
H1783 C1795 0.950 . S
C1784 H1776 0.950 . S
C1784 C1785 1.386 . S
C1784 C1786 1.391 . S
C1785 C1784 1.386 . S
C1785 C1789 1.393 . S
C1786 H1778 0.950 . S
C1786 C1784 1.391 . S
C1786 C1787 1.400 . S
C1787 C1786 1.400 . S
C1787 C1788 1.398 . S
C1787 C1793 1.491 . S
C1788 H1779 0.950 . S
C1788 C1787 1.398 . S
C1788 C1789 1.391 . S
C1789 H1777 0.950 . S
C1789 C1785 1.393 . S
C1789 C1788 1.391 . S
C1790 H1780 0.950 . S
C1790 C1791 1.386 . S
C1790 C1792 1.391 . S
C1791 C1790 1.386 . S
C1791 C1795 1.393 . S
C1792 H1781 0.950 . S
C1792 C1790 1.391 . S
C1792 C1793 1.400 . S
C1793 C1787 1.491 . S
C1793 C1792 1.400 . S
C1793 C1794 1.398 . S
C1794 H1782 0.950 . S
C1794 C1793 1.398 . S
C1794 C1795 1.391 . S
C1795 H1783 0.950 . S
C1795 C1791 1.393 . S
C1795 C1794 1.391 . S
H1796 C1804 0.950 . S
H1797 C1809 0.950 . S
H1798 C1806 0.950 . S
H1799 C1808 0.950 . S
H1800 C1810 0.950 . S
H1801 C1812 0.950 . S
H1802 C1814 0.950 . S
H1803 C1815 0.950 . S
C1804 H1796 0.950 . S
C1804 C1805 1.386 . S
C1804 C1806 1.391 . S
C1805 C1804 1.386 . S
C1805 C1809 1.393 . S
C1806 H1798 0.950 . S
C1806 C1804 1.391 . S
C1806 C1807 1.400 . S
C1807 C1806 1.400 . S
C1807 C1808 1.398 . S
C1807 C1813 1.491 . S
C1808 H1799 0.950 . S
C1808 C1807 1.398 . S
C1808 C1809 1.391 . S
C1809 H1797 0.950 . S
C1809 C1805 1.393 . S
C1809 C1808 1.391 . S
C1810 H1800 0.950 . S
C1810 C1811 1.386 . S
C1810 C1812 1.391 . S
C1811 C1810 1.386 . S
C1811 C1815 1.393 . S
C1812 H1801 0.950 . S
C1812 C1810 1.391 . S
C1812 C1813 1.400 . S
C1813 C1807 1.491 . S
C1813 C1812 1.400 . S
C1813 C1814 1.398 . S
C1814 H1802 0.950 . S
C1814 C1813 1.398 . S
C1814 C1815 1.391 . S
C1815 H1803 0.950 . S
C1815 C1811 1.393 . S
C1815 C1814 1.391 . S
H1816 C1824 0.950 . S
H1817 C1829 0.950 . S
H1818 C1826 0.950 . S
H1819 C1828 0.950 . S
H1820 C1830 0.950 . S
H1821 C1832 0.950 . S
H1822 C1834 0.950 . S
H1823 C1835 0.950 . S
C1824 H1816 0.950 . S
C1824 C1825 1.386 . S
C1824 C1826 1.391 . S
C1825 C1824 1.386 . S
C1825 C1829 1.393 . S
C1826 H1818 0.950 . S
C1826 C1824 1.391 . S
C1826 C1827 1.400 . S
C1827 C1826 1.400 . S
C1827 C1828 1.398 . S
C1827 C1833 1.491 . S
C1828 H1819 0.950 . S
C1828 C1827 1.398 . S
C1828 C1829 1.391 . S
C1829 H1817 0.950 . S
C1829 C1825 1.393 . S
C1829 C1828 1.391 . S
C1830 H1820 0.950 . S
C1830 C1831 1.386 . S
C1830 C1832 1.391 . S
C1831 C1830 1.386 . S
C1831 C1835 1.393 . S
C1832 H1821 0.950 . S
C1832 C1830 1.391 . S
C1832 C1833 1.400 . S
C1833 C1827 1.491 . S
C1833 C1832 1.400 . S
C1833 C1834 1.398 . S
C1834 H1822 0.950 . S
C1834 C1833 1.398 . S
C1834 C1835 1.391 . S
C1835 H1823 0.950 . S
C1835 C1831 1.393 . S
C1835 C1834 1.391 . S
H1836 C1844 0.950 . S
H1837 C1849 0.950 . S
H1838 C1846 0.950 . S
H1839 C1848 0.950 . S
H1840 C1850 0.950 . S
H1841 C1852 0.950 . S
H1842 C1854 0.950 . S
H1843 C1855 0.950 . S
C1844 H1836 0.950 . S
C1844 C1845 1.386 . S
C1844 C1846 1.391 . S
C1845 C1844 1.386 . S
C1845 C1849 1.393 . S
C1846 H1838 0.950 . S
C1846 C1844 1.391 . S
C1846 C1847 1.400 . S
C1847 C1846 1.400 . S
C1847 C1848 1.398 . S
C1847 C1853 1.491 . S
C1848 H1839 0.950 . S
C1848 C1847 1.398 . S
C1848 C1849 1.391 . S
C1849 H1837 0.950 . S
C1849 C1845 1.393 . S
C1849 C1848 1.391 . S
C1850 H1840 0.950 . S
C1850 C1851 1.386 . S
C1850 C1852 1.391 . S
C1851 C1850 1.386 . S
C1851 C1855 1.393 . S
C1852 H1841 0.950 . S
C1852 C1850 1.391 . S
C1852 C1853 1.400 . S
C1853 C1847 1.491 . S
C1853 C1852 1.400 . S
C1853 C1854 1.398 . S
C1854 H1842 0.950 . S
C1854 C1853 1.398 . S
C1854 C1855 1.391 . S
C1855 H1843 0.950 . S
C1855 C1851 1.393 . S
C1855 C1854 1.391 . S
H1856 C1864 0.950 . S
H1857 C1869 0.950 . S
H1858 C1866 0.950 . S
H1859 C1868 0.950 . S
H1860 C1870 0.950 . S
H1861 C1872 0.950 . S
H1862 C1874 0.950 . S
H1863 C1875 0.950 . S
C1864 H1856 0.950 . S
C1864 C1865 1.386 . S
C1864 C1866 1.391 . S
C1865 C1864 1.386 . S
C1865 C1869 1.393 . S
C1866 H1858 0.950 . S
C1866 C1864 1.391 . S
C1866 C1867 1.400 . S
C1867 C1866 1.400 . S
C1867 C1868 1.398 . S
C1867 C1873 1.491 . S
C1868 H1859 0.950 . S
C1868 C1867 1.398 . S
C1868 C1869 1.391 . S
C1869 H1857 0.950 . S
C1869 C1865 1.393 . S
C1869 C1868 1.391 . S
C1870 H1860 0.950 . S
C1870 C1871 1.386 . S
C1870 C1872 1.391 . S
C1871 C1870 1.386 . S
C1871 C1875 1.393 . S
C1872 H1861 0.950 . S
C1872 C1870 1.391 . S
C1872 C1873 1.400 . S
C1873 C1867 1.491 . S
C1873 C1872 1.400 . S
C1873 C1874 1.398 . S
C1874 H1862 0.950 . S
C1874 C1873 1.398 . S
C1874 C1875 1.391 . S
C1875 H1863 0.950 . S
C1875 C1871 1.393 . S
C1875 C1874 1.391 . S
H1876 C1884 0.950 . S
H1877 C1889 0.950 . S
H1878 C1886 0.950 . S
H1879 C1888 0.950 . S
H1880 C1890 0.950 . S
H1881 C1892 0.950 . S
H1882 C1894 0.950 . S
H1883 C1895 0.950 . S
C1884 H1876 0.950 . S
C1884 C1885 1.386 . S
C1884 C1886 1.391 . S
C1885 C1884 1.386 . S
C1885 C1889 1.393 . S
C1886 H1878 0.950 . S
C1886 C1884 1.391 . S
C1886 C1887 1.400 . S
C1887 C1886 1.400 . S
C1887 C1888 1.398 . S
C1887 C1893 1.491 . S
C1888 H1879 0.950 . S
C1888 C1887 1.398 . S
C1888 C1889 1.391 . S
C1889 H1877 0.950 . S
C1889 C1885 1.393 . S
C1889 C1888 1.391 . S
C1890 H1880 0.950 . S
C1890 C1891 1.386 . S
C1890 C1892 1.391 . S
C1891 C1890 1.386 . S
C1891 C1895 1.393 . S
C1892 H1881 0.950 . S
C1892 C1890 1.391 . S
C1892 C1893 1.400 . S
C1893 C1887 1.491 . S
C1893 C1892 1.400 . S
C1893 C1894 1.398 . S
C1894 H1882 0.950 . S
C1894 C1893 1.398 . S
C1894 C1895 1.391 . S
C1895 H1883 0.950 . S
C1895 C1891 1.393 . S
C1895 C1894 1.391 . S
H1896 C1904 0.950 . S
H1897 C1909 0.950 . S
H1898 C1906 0.950 . S
H1899 C1908 0.950 . S
H1900 C1910 0.950 . S
H1901 C1912 0.950 . S
H1902 C1914 0.950 . S
H1903 C1915 0.950 . S
C1904 H1896 0.950 . S
C1904 C1905 1.386 . S
C1904 C1906 1.391 . S
C1905 C1904 1.386 . S
C1905 C1909 1.393 . S
C1906 H1898 0.950 . S
C1906 C1904 1.391 . S
C1906 C1907 1.400 . S
C1907 C1906 1.400 . S
C1907 C1908 1.398 . S
C1907 C1913 1.491 . S
C1908 H1899 0.950 . S
C1908 C1907 1.398 . S
C1908 C1909 1.391 . S
C1909 H1897 0.950 . S
C1909 C1905 1.393 . S
C1909 C1908 1.391 . S
C1910 H1900 0.950 . S
C1910 C1911 1.386 . S
C1910 C1912 1.391 . S
C1911 C1910 1.386 . S
C1911 C1915 1.393 . S
C1912 H1901 0.950 . S
C1912 C1910 1.391 . S
C1912 C1913 1.400 . S
C1913 C1907 1.491 . S
C1913 C1912 1.400 . S
C1913 C1914 1.398 . S
C1914 H1902 0.950 . S
C1914 C1913 1.398 . S
C1914 C1915 1.391 . S
C1915 H1903 0.950 . S
C1915 C1911 1.393 . S
C1915 C1914 1.391 . S
H1916 C1924 0.950 . S
H1917 C1929 0.950 . S
H1918 C1926 0.950 . S
H1919 C1928 0.950 . S
H1920 C1930 0.950 . S
H1921 C1932 0.950 . S
H1922 C1934 0.950 . S
H1923 C1935 0.950 . S
C1924 H1916 0.950 . S
C1924 C1925 1.386 . S
C1924 C1926 1.391 . S
C1925 C1924 1.386 . S
C1925 C1929 1.393 . S
C1926 H1918 0.950 . S
C1926 C1924 1.391 . S
C1926 C1927 1.400 . S
C1927 C1926 1.400 . S
C1927 C1928 1.398 . S
C1927 C1933 1.491 . S
C1928 H1919 0.950 . S
C1928 C1927 1.398 . S
C1928 C1929 1.391 . S
C1929 H1917 0.950 . S
C1929 C1925 1.393 . S
C1929 C1928 1.391 . S
C1930 H1920 0.950 . S
C1930 C1931 1.386 . S
C1930 C1932 1.391 . S
C1931 C1930 1.386 . S
C1931 C1935 1.393 . S
C1932 H1921 0.950 . S
C1932 C1930 1.391 . S
C1932 C1933 1.400 . S
C1933 C1927 1.491 . S
C1933 C1932 1.400 . S
C1933 C1934 1.398 . S
C1934 H1922 0.950 . S
C1934 C1933 1.398 . S
C1934 C1935 1.391 . S
C1935 H1923 0.950 . S
C1935 C1931 1.393 . S
C1935 C1934 1.391 . S
H1936 C1944 0.950 . S
H1937 C1949 0.950 . S
H1938 C1946 0.950 . S
H1939 C1948 0.950 . S
H1940 C1950 0.950 . S
H1941 C1952 0.950 . S
H1942 C1954 0.950 . S
H1943 C1955 0.950 . S
C1944 H1936 0.950 . S
C1944 C1945 1.386 . S
C1944 C1946 1.391 . S
C1945 C1944 1.386 . S
C1945 C1949 1.393 . S
C1946 H1938 0.950 . S
C1946 C1944 1.391 . S
C1946 C1947 1.400 . S
C1947 C1946 1.400 . S
C1947 C1948 1.398 . S
C1947 C1953 1.491 . S
C1948 H1939 0.950 . S
C1948 C1947 1.398 . S
C1948 C1949 1.391 . S
C1949 H1937 0.950 . S
C1949 C1945 1.393 . S
C1949 C1948 1.391 . S
C1950 H1940 0.950 . S
C1950 C1951 1.386 . S
C1950 C1952 1.391 . S
C1951 C1950 1.386 . S
C1951 C1955 1.393 . S
C1952 H1941 0.950 . S
C1952 C1950 1.391 . S
C1952 C1953 1.400 . S
C1953 C1947 1.491 . S
C1953 C1952 1.400 . S
C1953 C1954 1.398 . S
C1954 H1942 0.950 . S
C1954 C1953 1.398 . S
C1954 C1955 1.391 . S
C1955 H1943 0.950 . S
C1955 C1951 1.393 . S
C1955 C1954 1.391 . S
H1956 C1964 0.950 . S
H1957 C1969 0.950 . S
H1958 C1966 0.950 . S
H1959 C1968 0.950 . S
H1960 C1970 0.950 . S
H1961 C1972 0.950 . S
H1962 C1974 0.950 . S
H1963 C1975 0.950 . S
C1964 H1956 0.950 . S
C1964 C1965 1.386 . S
C1964 C1966 1.391 . S
C1965 C1964 1.386 . S
C1965 C1969 1.393 . S
C1966 H1958 0.950 . S
C1966 C1964 1.391 . S
C1966 C1967 1.400 . S
C1967 C1966 1.400 . S
C1967 C1968 1.398 . S
C1967 C1973 1.491 . S
C1968 H1959 0.950 . S
C1968 C1967 1.398 . S
C1968 C1969 1.391 . S
C1969 H1957 0.950 . S
C1969 C1965 1.393 . S
C1969 C1968 1.391 . S
C1970 H1960 0.950 . S
C1970 C1971 1.386 . S
C1970 C1972 1.391 . S
C1971 C1970 1.386 . S
C1971 C1975 1.393 . S
C1972 H1961 0.950 . S
C1972 C1970 1.391 . S
C1972 C1973 1.400 . S
C1973 C1967 1.491 . S
C1973 C1972 1.400 . S
C1973 C1974 1.398 . S
C1974 H1962 0.950 . S
C1974 C1973 1.398 . S
C1974 C1975 1.391 . S
C1975 H1963 0.950 . S
C1975 C1971 1.393 . S
C1975 C1974 1.391 . S
H1976 C1984 0.950 . S
H1977 C1989 0.950 . S
H1978 C1986 0.950 . S
H1979 C1988 0.950 . S
H1980 C1990 0.950 . S
H1981 C1992 0.950 . S
H1982 C1994 0.950 . S
H1983 C1995 0.950 . S
C1984 H1976 0.950 . S
C1984 C1985 1.386 . S
C1984 C1986 1.391 . S
C1985 C1984 1.386 . S
C1985 C1989 1.393 . S
C1986 H1978 0.950 . S
C1986 C1984 1.391 . S
C1986 C1987 1.400 . S
C1987 C1986 1.400 . S
C1987 C1988 1.398 . S
C1987 C1993 1.491 . S
C1988 H1979 0.950 . S
C1988 C1987 1.398 . S
C1988 C1989 1.391 . S
C1989 H1977 0.950 . S
C1989 C1985 1.393 . S
C1989 C1988 1.391 . S
C1990 H1980 0.950 . S
C1990 C1991 1.386 . S
C1990 C1992 1.391 . S
C1991 C1990 1.386 . S
C1991 C1995 1.393 . S
C1992 H1981 0.950 . S
C1992 C1990 1.391 . S
C1992 C1993 1.400 . S
C1993 C1987 1.491 . S
C1993 C1992 1.400 . S
C1993 C1994 1.398 . S
C1994 H1982 0.950 . S
C1994 C1993 1.398 . S
C1994 C1995 1.391 . S
C1995 H1983 0.950 . S
C1995 C1991 1.393 . S
C1995 C1994 1.391 . S
H1996 C2004 0.950 . S
H1997 C2009 0.950 . S
H1998 C2006 0.950 . S
H1999 C2008 0.950 . S
H2000 C2010 0.950 . S
H2001 C2012 0.950 . S
H2002 C2014 0.950 . S
H2003 C2015 0.916 1_545 S
C2004 H1996 0.950 . S
C2004 C2005 1.386 . S
C2004 C2006 1.391 . S
C2005 C2004 1.386 . S
C2005 C2009 1.393 . S
C2006 H1998 0.950 . S
C2006 C2004 1.391 . S
C2006 C2007 1.400 . S
C2007 C2006 1.400 . S
C2007 C2008 1.398 . S
C2007 C2013 1.491 . S
C2008 H1999 0.950 . S
C2008 C2007 1.398 . S
C2008 C2009 1.391 . S
C2009 H1997 0.950 . S
C2009 C2005 1.393 . S
C2009 C2008 1.391 . S
C2010 H2000 0.950 . S
C2010 C2011 1.386 . S
C2010 C2012 1.391 . S
C2011 C2010 1.386 . S
C2011 C2015 1.393 . S
C2012 H2001 0.950 . S
C2012 C2010 1.391 . S
C2012 C2013 1.400 . S
C2013 C2007 1.491 . S
C2013 C2012 1.400 . S
C2013 C2014 1.398 . S
C2014 H2002 0.950 . S
C2014 C2013 1.398 . S
C2014 C2015 1.391 . S
C2015 H2003 0.916 1_565 S
C2015 C2011 1.393 . S
C2015 C2014 1.391 . S
H2016 C2024 0.950 . S
H2017 C2029 0.950 . S
H2018 C2026 0.950 . S
H2019 C2028 0.950 . S
H2020 C2030 0.950 . S
H2021 C2032 0.950 . S
H2022 C2034 0.950 . S
H2023 C2035 0.950 . S
C2024 H2016 0.950 . S
C2024 C2025 1.386 . S
C2024 C2026 1.391 . S
C2025 C2024 1.386 . S
C2025 C2029 1.393 . S
C2026 H2018 0.950 . S
C2026 C2024 1.391 . S
C2026 C2027 1.400 . S
C2027 C2026 1.400 . S
C2027 C2028 1.398 . S
C2027 C2033 1.491 . S
C2028 H2019 0.950 . S
C2028 C2027 1.398 . S
C2028 C2029 1.391 . S
C2029 H2017 0.950 . S
C2029 C2025 1.393 . S
C2029 C2028 1.391 . S
C2030 H2020 0.950 . S
C2030 C2031 1.386 . S
C2030 C2032 1.391 . S
C2031 C2030 1.386 . S
C2031 C2035 1.393 . S
C2032 H2021 0.950 . S
C2032 C2030 1.391 . S
C2032 C2033 1.400 . S
C2033 C2027 1.491 . S
C2033 C2032 1.400 . S
C2033 C2034 1.398 . S
C2034 H2022 0.950 . S
C2034 C2033 1.398 . S
C2034 C2035 1.391 . S
C2035 H2023 0.950 . S
C2035 C2031 1.393 . S
C2035 C2034 1.391 . S
H2036 C2044 0.950 . S
H2037 C2049 0.950 . S
H2038 C2046 0.950 . S
H2039 C2048 0.950 . S
H2040 C2050 0.950 . S
H2041 C2052 0.950 . S
H2042 C2054 0.950 . S
H2043 C2055 0.950 . S
C2044 H2036 0.950 . S
C2044 C2045 1.386 . S
C2044 C2046 1.391 . S
C2045 C2044 1.386 . S
C2045 C2049 1.393 . S
C2046 H2038 0.950 . S
C2046 C2044 1.391 . S
C2046 C2047 1.400 . S
C2047 C2046 1.400 . S
C2047 C2048 1.398 . S
C2047 C2053 1.491 . S
C2048 H2039 0.950 . S
C2048 C2047 1.398 . S
C2048 C2049 1.391 . S
C2049 H2037 0.950 . S
C2049 C2045 1.393 . S
C2049 C2048 1.391 . S
C2050 H2040 0.950 . S
C2050 C2051 1.386 . S
C2050 C2052 1.391 . S
C2051 C2050 1.386 . S
C2051 C2055 1.393 . S
C2052 H2041 0.950 . S
C2052 C2050 1.391 . S
C2052 C2053 1.400 . S
C2053 C2047 1.491 . S
C2053 C2052 1.400 . S
C2053 C2054 1.398 . S
C2054 H2042 0.950 . S
C2054 C2053 1.398 . S
C2054 C2055 1.391 . S
C2055 H2043 0.950 . S
C2055 C2051 1.393 . S
C2055 C2054 1.391 . S
H2056 C2064 0.950 . S
H2057 C2069 0.950 . S
H2058 C2066 0.950 . S
H2059 C2068 0.950 . S
H2060 C2070 0.950 . S
H2061 C2072 0.950 . S
H2062 C2074 0.950 . S
H2063 C2075 0.950 . S
C2064 H2056 0.950 . S
C2064 C2065 1.386 . S
C2064 C2066 1.391 . S
C2065 C2064 1.386 . S
C2065 C2069 1.393 . S
C2066 H2058 0.950 . S
C2066 C2064 1.391 . S
C2066 C2067 1.400 . S
C2067 C2066 1.400 . S
C2067 C2068 1.398 . S
C2067 C2073 1.491 . S
C2068 H2059 0.950 . S
C2068 C2067 1.398 . S
C2068 C2069 1.391 . S
C2069 H2057 0.950 . S
C2069 C2065 1.393 . S
C2069 C2068 1.391 . S
C2070 H2060 0.950 . S
C2070 C2071 1.386 . S
C2070 C2072 1.391 . S
C2071 C2070 1.386 . S
C2071 C2075 1.393 . S
C2072 H2061 0.950 . S
C2072 C2070 1.391 . S
C2072 C2073 1.400 . S
C2073 C2067 1.491 . S
C2073 C2072 1.400 . S
C2073 C2074 1.398 . S
C2074 H2062 0.950 . S
C2074 C2073 1.398 . S
C2074 C2075 1.391 . S
C2075 H2063 0.950 . S
C2075 C2071 1.393 . S
C2075 C2074 1.391 . S
H2076 C2084 0.950 . S
H2077 C2089 0.950 . S
H2078 C2086 0.950 . S
H2079 C2088 0.950 . S
H2080 C2090 0.950 . S
H2081 C2092 0.950 . S
H2082 C2094 0.950 . S
H2083 C2095 0.950 . S
C2084 H2076 0.950 . S
C2084 C2085 1.386 . S
C2084 C2086 1.391 . S
C2085 C2084 1.386 . S
C2085 C2089 1.393 . S
C2086 H2078 0.950 . S
C2086 C2084 1.391 . S
C2086 C2087 1.400 . S
C2087 C2086 1.400 . S
C2087 C2088 1.398 . S
C2087 C2093 1.491 . S
C2088 H2079 0.950 . S
C2088 C2087 1.398 . S
C2088 C2089 1.391 . S
C2089 H2077 0.950 . S
C2089 C2085 1.393 . S
C2089 C2088 1.391 . S
C2090 H2080 0.950 . S
C2090 C2091 1.386 . S
C2090 C2092 1.391 . S
C2091 C2090 1.386 . S
C2091 C2095 1.393 . S
C2092 H2081 0.950 . S
C2092 C2090 1.391 . S
C2092 C2093 1.400 . S
C2093 C2087 1.491 . S
C2093 C2092 1.400 . S
C2093 C2094 1.398 . S
C2094 H2082 0.950 . S
C2094 C2093 1.398 . S
C2094 C2095 1.391 . S
C2095 H2083 0.950 . S
C2095 C2091 1.393 . S
C2095 C2094 1.391 . S
H2096 C2104 0.950 . S
H2097 C2109 0.950 . S
H2098 C2106 0.950 . S
H2099 C2108 0.950 . S
H2100 C2110 0.950 . S
H2101 C2112 0.950 . S
H2102 C2114 0.950 . S
H2103 C2115 0.950 . S
C2104 H2096 0.950 . S
C2104 C2105 1.386 . S
C2104 C2106 1.391 . S
C2105 C2104 1.386 . S
C2105 C2109 1.393 . S
C2106 H2098 0.950 . S
C2106 C2104 1.391 . S
C2106 C2107 1.400 . S
C2107 C2106 1.400 . S
C2107 C2108 1.398 . S
C2107 C2113 1.491 . S
C2108 H2099 0.950 . S
C2108 C2107 1.398 . S
C2108 C2109 1.391 . S
C2109 H2097 0.950 . S
C2109 C2105 1.393 . S
C2109 C2108 1.391 . S
C2110 H2100 0.950 . S
C2110 C2111 1.386 . S
C2110 C2112 1.391 . S
C2111 C2110 1.386 . S
C2111 C2115 1.393 . S
C2112 H2101 0.950 . S
C2112 C2110 1.391 . S
C2112 C2113 1.400 . S
C2113 C2107 1.491 . S
C2113 C2112 1.400 . S
C2113 C2114 1.398 . S
C2114 H2102 0.950 . S
C2114 C2113 1.398 . S
C2114 C2115 1.391 . S
C2115 H2103 0.950 . S
C2115 C2111 1.393 . S
C2115 C2114 1.391 . S
H2116 C2124 0.950 . S
H2117 C2129 0.950 . S
H2118 C2126 0.950 . S
H2119 C2128 0.950 . S
H2120 C2130 0.950 . S
H2121 C2132 0.950 . S
H2122 C2134 0.950 . S
H2123 C2135 0.950 . S
C2124 H2116 0.950 . S
C2124 C2125 1.386 . S
C2124 C2126 1.391 . S
C2125 C2124 1.386 . S
C2125 C2129 1.393 . S
C2126 H2118 0.950 . S
C2126 C2124 1.391 . S
C2126 C2127 1.400 . S
C2127 C2126 1.400 . S
C2127 C2128 1.398 . S
C2127 C2133 1.491 . S
C2128 H2119 0.950 . S
C2128 C2127 1.398 . S
C2128 C2129 1.391 . S
C2129 H2117 0.950 . S
C2129 C2125 1.393 . S
C2129 C2128 1.391 . S
C2130 H2120 0.950 . S
C2130 C2131 1.386 . S
C2130 C2132 1.391 . S
C2131 C2130 1.386 . S
C2131 C2135 1.393 . S
C2132 H2121 0.950 . S
C2132 C2130 1.391 . S
C2132 C2133 1.400 . S
C2133 C2127 1.491 . S
C2133 C2132 1.400 . S
C2133 C2134 1.398 . S
C2134 H2122 0.950 . S
C2134 C2133 1.398 . S
C2134 C2135 1.391 . S
C2135 H2123 0.950 . S
C2135 C2131 1.393 . S
C2135 C2134 1.391 . S
H2136 C2144 0.950 . S
H2137 C2149 0.950 1_655 S
H2138 C2146 0.950 . S
H2139 C2148 0.950 1_655 S
H2140 C2150 0.950 1_655 S
H2141 C2152 0.950 1_655 S
H2142 C2154 0.950 . S
H2143 C2155 0.950 . S
C2144 H2136 0.950 . S
C2144 C2145 1.386 . S
C2144 C2146 1.391 . S
C2145 C2144 1.386 . S
C2145 C2149 1.393 . S
C2146 H2138 0.950 . S
C2146 C2144 1.391 . S
C2146 C2147 1.400 . S
C2147 C2146 1.400 . S
C2147 C2148 1.398 . S
C2147 C2153 1.491 . S
C2148 H2139 0.950 1_455 S
C2148 C2147 1.398 . S
C2148 C2149 1.391 . S
C2149 H2137 0.950 1_455 S
C2149 C2145 1.393 . S
C2149 C2148 1.391 . S
C2150 H2140 0.950 1_455 S
C2150 C2151 1.386 . S
C2150 C2152 1.391 . S
C2151 C2150 1.386 . S
C2151 C2155 1.393 . S
C2152 H2141 0.950 1_455 S
C2152 C2150 1.391 . S
C2152 C2153 1.400 . S
C2153 C2147 1.491 . S
C2153 C2152 1.400 . S
C2153 C2154 1.398 . S
C2154 H2142 0.950 . S
C2154 C2153 1.398 . S
C2154 C2155 1.391 . S
C2155 H2143 0.950 . S
C2155 C2151 1.393 . S
C2155 C2154 1.391 . S
H2156 C2164 0.950 . S
H2157 C2169 0.950 . S
H2158 C2166 0.950 . S
H2159 C2168 0.950 . S
H2160 C2170 0.950 . S
H2161 C2172 0.950 . S
H2162 C2174 0.950 . S
H2163 C2175 0.950 . S
C2164 H2156 0.950 . S
C2164 C2165 1.386 . S
C2164 C2166 1.391 . S
C2165 C2164 1.386 . S
C2165 C2169 1.393 . S
C2166 H2158 0.950 . S
C2166 C2164 1.391 . S
C2166 C2167 1.400 . S
C2167 C2166 1.400 . S
C2167 C2168 1.398 . S
C2167 C2173 1.491 . S
C2168 H2159 0.950 . S
C2168 C2167 1.398 . S
C2168 C2169 1.391 . S
C2169 H2157 0.950 . S
C2169 C2165 1.393 . S
C2169 C2168 1.391 . S
C2170 H2160 0.950 . S
C2170 C2171 1.386 . S
C2170 C2172 1.391 . S
C2171 C2170 1.386 . S
C2171 C2175 1.393 . S
C2172 H2161 0.950 . S
C2172 C2170 1.391 . S
C2172 C2173 1.400 . S
C2173 C2167 1.491 . S
C2173 C2172 1.400 . S
C2173 C2174 1.398 . S
C2174 H2162 0.950 . S
C2174 C2173 1.398 . S
C2174 C2175 1.391 . S
C2175 H2163 0.950 . S
C2175 C2171 1.393 . S
C2175 C2174 1.391 . S
H2176 C2184 0.950 . S
H2177 C2189 0.950 . S
H2178 C2186 0.950 . S
H2179 C2188 0.950 . S
H2180 C2190 0.950 . S
H2181 C2192 0.950 . S
H2182 C2194 0.950 . S
H2183 C2195 0.950 . S
C2184 H2176 0.950 . S
C2184 C2185 1.386 . S
C2184 C2186 1.391 . S
C2185 C2184 1.386 . S
C2185 C2189 1.393 . S
C2186 H2178 0.950 . S
C2186 C2184 1.391 . S
C2186 C2187 1.400 . S
C2187 C2186 1.400 . S
C2187 C2188 1.398 . S
C2187 C2193 1.491 . S
C2188 H2179 0.950 . S
C2188 C2187 1.398 . S
C2188 C2189 1.391 . S
C2189 H2177 0.950 . S
C2189 C2185 1.393 . S
C2189 C2188 1.391 . S
C2190 H2180 0.950 . S
C2190 C2191 1.386 . S
C2190 C2192 1.391 . S
C2191 C2190 1.386 . S
C2191 C2195 1.393 . S
C2192 H2181 0.950 . S
C2192 C2190 1.391 . S
C2192 C2193 1.400 . S
C2193 C2187 1.491 . S
C2193 C2192 1.400 . S
C2193 C2194 1.398 . S
C2194 H2182 0.950 . S
C2194 C2193 1.398 . S
C2194 C2195 1.391 . S
C2195 H2183 0.950 . S
C2195 C2191 1.393 . S
C2195 C2194 1.391 . S
H2196 C2204 0.950 . S
H2197 C2209 0.950 . S
H2198 C2206 0.950 . S
H2199 C2208 0.950 . S
H2200 C2210 0.950 . S
H2201 C2212 0.950 . S
H2202 C2214 0.950 . S
H2203 C2215 0.950 . S
C2204 H2196 0.950 . S
C2204 C2205 1.386 . S
C2204 C2206 1.391 . S
C2205 C2204 1.386 . S
C2205 C2209 1.393 . S
C2206 H2198 0.950 . S
C2206 C2204 1.391 . S
C2206 C2207 1.400 . S
C2207 C2206 1.400 . S
C2207 C2208 1.398 . S
C2207 C2213 1.491 . S
C2208 H2199 0.950 . S
C2208 C2207 1.398 . S
C2208 C2209 1.391 . S
C2209 H2197 0.950 . S
C2209 C2205 1.393 . S
C2209 C2208 1.391 . S
C2210 H2200 0.950 . S
C2210 C2211 1.386 . S
C2210 C2212 1.391 . S
C2211 C2210 1.386 . S
C2211 C2215 1.393 . S
C2212 H2201 0.950 . S
C2212 C2210 1.391 . S
C2212 C2213 1.400 . S
C2213 C2207 1.491 . S
C2213 C2212 1.400 . S
C2213 C2214 1.398 . S
C2214 H2202 0.950 . S
C2214 C2213 1.398 . S
C2214 C2215 1.391 . S
C2215 H2203 0.950 . S
C2215 C2211 1.393 . S
C2215 C2214 1.391 . S
H2216 C2224 0.921 1_655 S
H2217 C2229 0.950 . S
H2218 C2226 0.947 . S
H2219 C2228 0.950 . S
H2220 C2230 0.950 . S
H2221 C2232 0.950 . S
H2222 C2234 0.950 . S
H2223 C2235 0.950 . S
C2224 H2216 0.921 1_455 S
C2224 C2225 1.427 . S
C2224 C2226 1.381 1_455 S
C2225 C2224 1.427 . S
C2225 C2229 1.393 . S
C2226 H2218 0.947 . S
C2226 C2224 1.381 1_655 S
C2226 C2227 1.402 1_655 S
C2227 C2226 1.402 1_455 S
C2227 C2228 1.398 . S
C2227 C2233 1.491 . S
C2228 H2219 0.950 . S
C2228 C2227 1.398 . S
C2228 C2229 1.391 . S
C2229 H2217 0.950 . S
C2229 C2225 1.393 . S
C2229 C2228 1.391 . S
C2230 H2220 0.950 . S
C2230 C2231 1.386 . S
C2230 C2232 1.391 . S
C2231 C2230 1.386 . S
C2231 C2235 1.393 1_455 S
C2232 H2221 0.950 . S
C2232 C2230 1.391 . S
C2232 C2233 1.400 . S
C2233 C2227 1.491 . S
C2233 C2232 1.400 . S
C2233 C2234 1.398 1_455 S
C2234 H2222 0.950 . S
C2234 C2233 1.398 1_655 S
C2234 C2235 1.391 . S
C2235 H2223 0.950 . S
C2235 C2231 1.393 1_655 S
C2235 C2234 1.391 . S
H2236 C2244 0.950 . S
H2237 C2249 0.950 . S
H2238 C2246 0.950 . S
H2239 C2248 0.950 . S
H2240 C2250 0.950 . S
H2241 C2252 0.950 . S
H2242 C2254 0.950 . S
H2243 C2255 0.950 . S
C2244 H2236 0.950 . S
C2244 C2245 1.386 . S
C2244 C2246 1.391 . S
C2245 C2244 1.386 . S
C2245 C2249 1.393 . S
C2246 H2238 0.950 . S
C2246 C2244 1.391 . S
C2246 C2247 1.400 . S
C2247 C2246 1.400 . S
C2247 C2248 1.398 . S
C2247 C2253 1.491 . S
C2248 H2239 0.950 . S
C2248 C2247 1.398 . S
C2248 C2249 1.391 . S
C2249 H2237 0.950 . S
C2249 C2245 1.393 . S
C2249 C2248 1.391 . S
C2250 H2240 0.950 . S
C2250 C2251 1.386 . S
C2250 C2252 1.391 . S
C2251 C2250 1.386 . S
C2251 C2255 1.393 . S
C2252 H2241 0.950 . S
C2252 C2250 1.391 . S
C2252 C2253 1.400 . S
C2253 C2247 1.491 . S
C2253 C2252 1.400 . S
C2253 C2254 1.398 . S
C2254 H2242 0.950 . S
C2254 C2253 1.398 . S
C2254 C2255 1.391 . S
C2255 H2243 0.950 . S
C2255 C2251 1.393 . S
C2255 C2254 1.391 . S
H2256 C2264 0.950 . S
H2257 C2269 0.950 . S
H2258 C2266 0.950 . S
H2259 C2268 0.950 . S
H2260 C2270 0.950 . S
H2261 C2272 0.950 . S
H2262 C2274 0.950 . S
H2263 C2275 0.950 . S
C2264 H2256 0.950 . S
C2264 C2265 1.386 . S
C2264 C2266 1.391 . S
C2265 C2264 1.386 . S
C2265 C2269 1.393 . S
C2266 H2258 0.950 . S
C2266 C2264 1.391 . S
C2266 C2267 1.400 . S
C2267 C2266 1.400 . S
C2267 C2268 1.398 . S
C2267 C2273 1.491 . S
C2268 H2259 0.950 . S
C2268 C2267 1.398 . S
C2268 C2269 1.391 . S
C2269 H2257 0.950 . S
C2269 C2265 1.393 . S
C2269 C2268 1.391 . S
C2270 H2260 0.950 . S
C2270 C2271 1.386 . S
C2270 C2272 1.391 . S
C2271 C2270 1.386 . S
C2271 C2275 1.393 . S
C2272 H2261 0.950 . S
C2272 C2270 1.391 . S
C2272 C2273 1.400 . S
C2273 C2267 1.491 . S
C2273 C2272 1.400 . S
C2273 C2274 1.398 . S
C2274 H2262 0.950 . S
C2274 C2273 1.398 . S
C2274 C2275 1.391 . S
C2275 H2263 0.950 . S
C2275 C2271 1.393 . S
C2275 C2274 1.391 . S
H2276 C2284 0.950 . S
H2277 C2289 0.950 . S
H2278 C2286 0.950 . S
H2279 C2288 0.950 . S
H2280 C2290 0.950 . S
H2281 C2292 0.950 . S
H2282 C2294 0.950 . S
H2283 C2295 0.950 . S
C2284 H2276 0.950 . S
C2284 C2285 1.386 . S
C2284 C2286 1.391 . S
C2285 C2284 1.386 . S
C2285 C2289 1.393 . S
C2286 H2278 0.950 . S
C2286 C2284 1.391 . S
C2286 C2287 1.400 . S
C2287 C2286 1.400 . S
C2287 C2288 1.398 . S
C2287 C2293 1.491 . S
C2288 H2279 0.950 . S
C2288 C2287 1.398 . S
C2288 C2289 1.391 . S
C2289 H2277 0.950 . S
C2289 C2285 1.393 . S
C2289 C2288 1.391 . S
C2290 H2280 0.950 . S
C2290 C2291 1.386 . S
C2290 C2292 1.391 . S
C2291 C2290 1.386 . S
C2291 C2295 1.393 . S
C2292 H2281 0.950 . S
C2292 C2290 1.391 . S
C2292 C2293 1.400 . S
C2293 C2287 1.491 . S
C2293 C2292 1.400 . S
C2293 C2294 1.398 . S
C2294 H2282 0.950 . S
C2294 C2293 1.398 . S
C2294 C2295 1.391 . S
C2295 H2283 0.950 . S
C2295 C2291 1.393 . S
C2295 C2294 1.391 . S
H2296 C2304 0.950 . S
H2297 C2309 0.950 . S
H2298 C2306 0.950 . S
H2299 C2308 0.950 . S
H2300 C2310 0.950 . S
H2301 C2312 0.950 . S
H2302 C2314 0.950 1_455 S
H2303 C2315 0.950 . S
C2304 H2296 0.950 . S
C2304 C2305 1.386 . S
C2304 C2306 1.391 . S
C2305 C2304 1.386 . S
C2305 C2309 1.393 . S
C2306 H2298 0.950 . S
C2306 C2304 1.391 . S
C2306 C2307 1.400 . S
C2307 C2306 1.400 . S
C2307 C2308 1.398 . S
C2307 C2313 1.491 . S
C2308 H2299 0.950 . S
C2308 C2307 1.398 . S
C2308 C2309 1.391 . S
C2309 H2297 0.950 . S
C2309 C2305 1.393 . S
C2309 C2308 1.391 . S
C2310 H2300 0.950 . S
C2310 C2311 1.386 . S
C2310 C2312 1.391 . S
C2311 C2310 1.386 . S
C2311 C2315 1.393 1_655 S
C2312 H2301 0.950 . S
C2312 C2310 1.391 . S
C2312 C2313 1.400 . S
C2313 C2307 1.491 . S
C2313 C2312 1.400 . S
C2313 C2314 1.398 . S
C2314 H2302 0.950 1_655 S
C2314 C2313 1.398 . S
C2314 C2315 1.391 1_655 S
C2315 H2303 0.950 . S
C2315 C2311 1.393 1_455 S
C2315 C2314 1.391 1_455 S
H2316 C2324 0.950 . S
H2317 C2329 0.950 . S
H2318 C2326 0.950 . S
H2319 C2328 0.950 . S
H2320 C2330 0.950 . S
H2321 C2332 0.950 . S
H2322 C2334 0.950 . S
H2323 C2335 0.950 . S
C2324 H2316 0.950 . S
C2324 C2325 1.386 . S
C2324 C2326 1.391 . S
C2325 C2324 1.386 . S
C2325 C2329 1.393 . S
C2326 H2318 0.950 . S
C2326 C2324 1.391 . S
C2326 C2327 1.400 . S
C2327 C2326 1.400 . S
C2327 C2328 1.398 . S
C2327 C2333 1.491 . S
C2328 H2319 0.950 . S
C2328 C2327 1.398 . S
C2328 C2329 1.391 . S
C2329 H2317 0.950 . S
C2329 C2325 1.393 . S
C2329 C2328 1.391 . S
C2330 H2320 0.950 . S
C2330 C2331 1.386 . S
C2330 C2332 1.391 . S
C2331 C2330 1.386 . S
C2331 C2335 1.393 . S
C2332 H2321 0.950 . S
C2332 C2330 1.391 . S
C2332 C2333 1.400 . S
C2333 C2327 1.491 . S
C2333 C2332 1.400 . S
C2333 C2334 1.398 . S
C2334 H2322 0.950 . S
C2334 C2333 1.398 . S
C2334 C2335 1.391 . S
C2335 H2323 0.950 . S
C2335 C2331 1.393 . S
C2335 C2334 1.391 . S
H2336 C2344 0.950 . S
H2337 C2349 0.950 . S
H2338 C2346 0.950 . S
H2339 C2348 0.950 . S
H2340 C2350 0.950 . S
H2341 C2352 0.950 . S
H2342 C2354 0.950 . S
H2343 C2355 0.950 . S
C2344 H2336 0.950 . S
C2344 C2345 1.386 . S
C2344 C2346 1.391 . S
C2345 C2344 1.386 . S
C2345 C2349 1.393 . S
C2346 H2338 0.950 . S
C2346 C2344 1.391 . S
C2346 C2347 1.400 . S
C2347 C2346 1.400 . S
C2347 C2348 1.398 . S
C2347 C2353 1.491 . S
C2348 H2339 0.950 . S
C2348 C2347 1.398 . S
C2348 C2349 1.391 . S
C2349 H2337 0.950 . S
C2349 C2345 1.393 . S
C2349 C2348 1.391 . S
C2350 H2340 0.950 . S
C2350 C2351 1.386 . S
C2350 C2352 1.391 . S
C2351 C2350 1.386 . S
C2351 C2355 1.393 . S
C2352 H2341 0.950 . S
C2352 C2350 1.391 . S
C2352 C2353 1.400 . S
C2353 C2347 1.491 . S
C2353 C2352 1.400 . S
C2353 C2354 1.398 . S
C2354 H2342 0.950 . S
C2354 C2353 1.398 . S
C2354 C2355 1.391 . S
C2355 H2343 0.950 . S
C2355 C2351 1.393 . S
C2355 C2354 1.391 . S
H2356 C2364 0.950 . S
H2357 C2369 0.950 . S
H2358 C2366 0.950 . S
H2359 C2368 0.950 . S
H2360 C2370 0.950 . S
H2361 C2372 0.950 . S
H2362 C2374 0.950 . S
H2363 C2375 0.950 . S
C2364 H2356 0.950 . S
C2364 C2365 1.386 . S
C2364 C2366 1.391 . S
C2365 C2364 1.386 . S
C2365 C2369 1.393 . S
C2366 H2358 0.950 . S
C2366 C2364 1.391 . S
C2366 C2367 1.400 . S
C2367 C2366 1.400 . S
C2367 C2368 1.398 . S
C2367 C2373 1.491 . S
C2368 H2359 0.950 . S
C2368 C2367 1.398 . S
C2368 C2369 1.391 . S
C2369 H2357 0.950 . S
C2369 C2365 1.393 . S
C2369 C2368 1.391 . S
C2370 H2360 0.950 . S
C2370 C2371 1.386 . S
C2370 C2372 1.391 . S
C2371 C2370 1.386 . S
C2371 C2375 1.393 . S
C2372 H2361 0.950 . S
C2372 C2370 1.391 . S
C2372 C2373 1.400 . S
C2373 C2367 1.491 . S
C2373 C2372 1.400 . S
C2373 C2374 1.398 . S
C2374 H2362 0.950 . S
C2374 C2373 1.398 . S
C2374 C2375 1.391 . S
C2375 H2363 0.950 . S
C2375 C2371 1.393 . S
C2375 C2374 1.391 . S
H2376 C2384 0.950 . S
H2377 C2389 0.950 . S
H2378 C2386 0.950 . S
H2379 C2388 0.950 . S
H2380 C2390 0.986 . S
H2381 C2392 0.950 . S
H2382 C2394 0.950 . S
H2383 C2395 0.950 . S
C2384 H2376 0.950 . S
C2384 C2385 1.386 . S
C2384 C2386 1.391 . S
C2385 C2384 1.386 . S
C2385 C2389 1.393 . S
C2386 H2378 0.950 . S
C2386 C2384 1.391 . S
C2386 C2387 1.400 . S
C2387 C2386 1.400 . S
C2387 C2388 1.398 . S
C2387 C2393 1.491 . S
C2388 H2379 0.950 . S
C2388 C2387 1.398 . S
C2388 C2389 1.391 . S
C2389 H2377 0.950 . S
C2389 C2385 1.393 . S
C2389 C2388 1.391 . S
C2390 H2380 0.986 . S
C2390 C2391 1.386 . S
C2390 C2392 1.391 . S
C2391 C2390 1.386 . S
C2391 C2395 1.393 . S
C2392 H2381 0.950 . S
C2392 C2390 1.391 . S
C2392 C2393 1.400 . S
C2393 C2387 1.491 . S
C2393 C2392 1.400 . S
C2393 C2394 1.398 . S
C2394 H2382 0.950 . S
C2394 C2393 1.398 . S
C2394 C2395 1.391 . S
C2395 H2383 0.950 . S
C2395 C2391 1.393 . S
C2395 C2394 1.391 . S
H2396 C2404 0.950 . S
H2397 C2409 0.950 . S
H2398 C2406 0.950 . S
H2399 C2408 0.950 . S
H2400 C2410 0.950 . S
H2401 C2412 0.950 . S
H2402 C2414 0.950 . S
H2403 C2415 0.950 . S
C2404 H2396 0.950 . S
C2404 C2405 1.386 . S
C2404 C2406 1.391 . S
C2405 C2404 1.386 . S
C2405 C2409 1.393 . S
C2406 H2398 0.950 . S
C2406 C2404 1.391 . S
C2406 C2407 1.400 . S
C2407 C2406 1.400 . S
C2407 C2408 1.398 . S
C2407 C2413 1.491 . S
C2408 H2399 0.950 . S
C2408 C2407 1.398 . S
C2408 C2409 1.391 . S
C2409 H2397 0.950 . S
C2409 C2405 1.393 . S
C2409 C2408 1.391 . S
C2410 H2400 0.950 . S
C2410 C2411 1.386 . S
C2410 C2412 1.391 . S
C2411 C2410 1.386 . S
C2411 C2415 1.393 . S
C2412 H2401 0.950 . S
C2412 C2410 1.391 . S
C2412 C2413 1.400 . S
C2413 C2407 1.491 . S
C2413 C2412 1.400 . S
C2413 C2414 1.398 . S
C2414 H2402 0.950 . S
C2414 C2413 1.398 . S
C2414 C2415 1.391 . S
C2415 H2403 0.950 . S
C2415 C2411 1.393 . S
C2415 C2414 1.391 . S
H2416 C2424 0.950 . S
H2417 C2429 0.950 . S
H2418 C2426 0.950 . S
H2419 C2428 0.950 . S
H2420 C2430 0.950 . S
H2421 C2432 0.950 . S
H2422 C2434 0.950 . S
H2423 C2435 0.950 . S
C2424 H2416 0.950 . S
C2424 C2425 1.386 . S
C2424 C2426 1.391 . S
C2425 C2424 1.386 . S
C2425 C2429 1.393 . S
C2426 H2418 0.950 . S
C2426 C2424 1.391 . S
C2426 C2427 1.400 . S
C2427 C2426 1.400 . S
C2427 C2428 1.398 . S
C2427 C2433 1.491 . S
C2428 H2419 0.950 . S
C2428 C2427 1.398 . S
C2428 C2429 1.391 . S
C2429 H2417 0.950 . S
C2429 C2425 1.393 . S
C2429 C2428 1.391 . S
C2430 H2420 0.950 . S
C2430 C2431 1.386 . S
C2430 C2432 1.391 . S
C2431 C2430 1.386 . S
C2431 C2435 1.393 . S
C2432 H2421 0.950 . S
C2432 C2430 1.391 . S
C2432 C2433 1.400 . S
C2433 C2427 1.491 . S
C2433 C2432 1.400 . S
C2433 C2434 1.398 . S
C2434 H2422 0.950 . S
C2434 C2433 1.398 . S
C2434 C2435 1.391 . S
C2435 H2423 0.950 . S
C2435 C2431 1.393 . S
C2435 C2434 1.391 . S
H2436 C2444 0.950 . S
H2437 C2449 0.950 . S
H2438 C2446 0.950 . S
H2439 C2448 0.950 . S
H2440 C2450 0.950 . S
H2441 C2452 0.950 . S
H2442 C2454 0.950 . S
H2443 C2455 0.950 1_545 S
C2444 H2436 0.950 . S
C2444 C2445 1.386 . S
C2444 C2446 1.391 . S
C2445 C2444 1.386 . S
C2445 C2449 1.393 . S
C2446 H2438 0.950 . S
C2446 C2444 1.391 . S
C2446 C2447 1.400 . S
C2447 C2446 1.400 . S
C2447 C2448 1.398 . S
C2447 C2453 1.491 . S
C2448 H2439 0.950 . S
C2448 C2447 1.398 . S
C2448 C2449 1.391 . S
C2449 H2437 0.950 . S
C2449 C2445 1.393 . S
C2449 C2448 1.391 . S
C2450 H2440 0.950 . S
C2450 C2451 1.386 . S
C2450 C2452 1.391 . S
C2451 C2450 1.386 . S
C2451 C2455 1.393 . S
C2452 H2441 0.950 . S
C2452 C2450 1.391 . S
C2452 C2453 1.400 . S
C2453 C2447 1.491 . S
C2453 C2452 1.400 . S
C2453 C2454 1.398 . S
C2454 H2442 0.950 . S
C2454 C2453 1.398 . S
C2454 C2455 1.391 . S
C2455 H2443 0.950 1_565 S
C2455 C2451 1.393 . S
C2455 C2454 1.391 . S
H2456 C2464 0.950 . S
H2457 C2469 0.950 . S
H2458 C2466 0.950 . S
H2459 C2468 0.950 . S
H2460 C2470 0.950 . S
H2461 C2472 0.950 . S
H2462 C2474 0.950 . S
H2463 C2475 0.950 . S
C2464 H2456 0.950 . S
C2464 C2465 1.386 . S
C2464 C2466 1.391 . S
C2465 C2464 1.386 . S
C2465 C2469 1.393 . S
C2466 H2458 0.950 . S
C2466 C2464 1.391 . S
C2466 C2467 1.400 . S
C2467 C2466 1.400 . S
C2467 C2468 1.398 . S
C2467 C2473 1.491 . S
C2468 H2459 0.950 . S
C2468 C2467 1.398 . S
C2468 C2469 1.391 . S
C2469 H2457 0.950 . S
C2469 C2465 1.393 . S
C2469 C2468 1.391 . S
C2470 H2460 0.950 . S
C2470 C2471 1.386 . S
C2470 C2472 1.391 . S
C2471 C2470 1.386 . S
C2471 C2475 1.393 . S
C2472 H2461 0.950 . S
C2472 C2470 1.391 . S
C2472 C2473 1.400 . S
C2473 C2467 1.491 . S
C2473 C2472 1.400 . S
C2473 C2474 1.398 . S
C2474 H2462 0.950 . S
C2474 C2473 1.398 . S
C2474 C2475 1.391 . S
C2475 H2463 0.950 . S
C2475 C2471 1.393 . S
C2475 C2474 1.391 . S
H2476 C2484 0.950 . S
H2477 C2489 0.950 . S
H2478 C2486 0.950 . S
H2479 C2488 0.950 . S
H2480 C2490 0.950 . S
H2481 C2492 0.950 . S
H2482 C2494 0.950 . S
H2483 C2495 0.950 . S
C2484 H2476 0.950 . S
C2484 C2485 1.386 . S
C2484 C2486 1.391 . S
C2485 C2484 1.386 . S
C2485 C2489 1.393 . S
C2486 H2478 0.950 . S
C2486 C2484 1.391 . S
C2486 C2487 1.400 . S
C2487 C2486 1.400 . S
C2487 C2488 1.398 . S
C2487 C2493 1.491 . S
C2488 H2479 0.950 . S
C2488 C2487 1.398 . S
C2488 C2489 1.391 . S
C2489 H2477 0.950 . S
C2489 C2485 1.393 . S
C2489 C2488 1.391 . S
C2490 H2480 0.950 . S
C2490 C2491 1.386 . S
C2490 C2492 1.391 . S
C2491 C2490 1.386 . S
C2491 C2495 1.393 . S
C2492 H2481 0.950 . S
C2492 C2490 1.391 . S
C2492 C2493 1.400 . S
C2493 C2487 1.491 . S
C2493 C2492 1.400 . S
C2493 C2494 1.398 . S
C2494 H2482 0.950 . S
C2494 C2493 1.398 . S
C2494 C2495 1.391 . S
C2495 H2483 0.950 . S
C2495 C2491 1.393 . S
C2495 C2494 1.391 . S
H2496 C2504 0.950 . S
H2497 C2509 0.950 . S
H2498 C2506 0.950 . S
H2499 C2508 0.950 . S
H2500 C2510 0.950 . S
H2501 C2512 0.950 . S
H2502 C2514 0.950 . S
H2503 C2515 0.950 . S
C2504 H2496 0.950 . S
C2504 C2505 1.386 . S
C2504 C2506 1.391 . S
C2505 C2504 1.386 . S
C2505 C2509 1.393 . S
C2506 H2498 0.950 . S
C2506 C2504 1.391 . S
C2506 C2507 1.400 . S
C2507 C2506 1.400 . S
C2507 C2508 1.398 . S
C2507 C2513 1.491 . S
C2508 H2499 0.950 . S
C2508 C2507 1.398 . S
C2508 C2509 1.391 . S
C2509 H2497 0.950 . S
C2509 C2505 1.393 . S
C2509 C2508 1.391 . S
C2510 H2500 0.950 . S
C2510 C2511 1.386 . S
C2510 C2512 1.391 . S
C2511 C2510 1.386 . S
C2511 C2515 1.393 . S
C2512 H2501 0.950 . S
C2512 C2510 1.391 . S
C2512 C2513 1.400 . S
C2513 C2507 1.491 . S
C2513 C2512 1.400 . S
C2513 C2514 1.398 . S
C2514 H2502 0.950 . S
C2514 C2513 1.398 . S
C2514 C2515 1.391 . S
C2515 H2503 0.950 . S
C2515 C2511 1.393 . S
C2515 C2514 1.391 . S
H2516 C2524 0.950 . S
H2517 C2529 0.950 . S
H2518 C2526 0.950 . S
H2519 C2528 0.950 . S
H2520 C2530 0.950 . S
H2521 C2532 0.950 . S
H2522 C2534 0.950 . S
H2523 C2535 0.950 . S
C2524 H2516 0.950 . S
C2524 C2525 1.386 . S
C2524 C2526 1.391 . S
C2525 C2524 1.386 . S
C2525 C2529 1.393 . S
C2526 H2518 0.950 . S
C2526 C2524 1.391 . S
C2526 C2527 1.400 . S
C2527 C2526 1.400 . S
C2527 C2528 1.398 . S
C2527 C2533 1.491 . S
C2528 H2519 0.950 . S
C2528 C2527 1.398 . S
C2528 C2529 1.391 . S
C2529 H2517 0.950 . S
C2529 C2525 1.393 . S
C2529 C2528 1.391 . S
C2530 H2520 0.950 . S
C2530 C2531 1.386 . S
C2530 C2532 1.391 . S
C2531 C2530 1.386 . S
C2531 C2535 1.393 . S
C2532 H2521 0.950 . S
C2532 C2530 1.391 . S
C2532 C2533 1.400 . S
C2533 C2527 1.491 . S
C2533 C2532 1.400 . S
C2533 C2534 1.398 . S
C2534 H2522 0.950 . S
C2534 C2533 1.398 . S
C2534 C2535 1.391 . S
C2535 H2523 0.950 . S
C2535 C2531 1.393 . S
C2535 C2534 1.391 . S
H2536 C2544 0.950 . S
H2537 C2549 0.950 . S
H2538 C2546 0.950 . S
H2539 C2548 0.950 . S
H2540 C2550 0.950 . S
H2541 C2552 0.950 . S
H2542 C2554 0.950 . S
H2543 C2555 0.950 . S
C2544 H2536 0.950 . S
C2544 C2545 1.386 . S
C2544 C2546 1.391 . S
C2545 C2544 1.386 . S
C2545 C2549 1.393 . S
C2546 H2538 0.950 . S
C2546 C2544 1.391 . S
C2546 C2547 1.400 . S
C2547 C2546 1.400 . S
C2547 C2548 1.398 . S
C2547 C2553 1.491 . S
C2548 H2539 0.950 . S
C2548 C2547 1.398 . S
C2548 C2549 1.391 . S
C2549 H2537 0.950 . S
C2549 C2545 1.393 . S
C2549 C2548 1.391 . S
C2550 H2540 0.950 . S
C2550 C2551 1.386 . S
C2550 C2552 1.391 . S
C2551 C2550 1.386 . S
C2551 C2555 1.393 . S
C2552 H2541 0.950 . S
C2552 C2550 1.391 . S
C2552 C2553 1.400 . S
C2553 C2547 1.491 . S
C2553 C2552 1.400 . S
C2553 C2554 1.398 . S
C2554 H2542 0.950 . S
C2554 C2553 1.398 . S
C2554 C2555 1.391 . S
C2555 H2543 0.950 . S
C2555 C2551 1.393 . S
C2555 C2554 1.391 . S
H2556 C2564 0.950 . S
H2557 C2569 0.950 . S
H2558 C2566 0.950 . S
H2559 C2568 0.950 . S
H2560 C2570 0.950 . S
H2561 C2572 0.950 . S
H2562 C2574 0.950 . S
H2563 C2575 0.950 . S
C2564 H2556 0.950 . S
C2564 C2565 1.386 . S
C2564 C2566 1.391 . S
C2565 C2564 1.386 . S
C2565 C2569 1.393 . S
C2566 H2558 0.950 . S
C2566 C2564 1.391 . S
C2566 C2567 1.400 . S
C2567 C2566 1.400 . S
C2567 C2568 1.398 . S
C2567 C2573 1.491 . S
C2568 H2559 0.950 . S
C2568 C2567 1.398 . S
C2568 C2569 1.391 . S
C2569 H2557 0.950 . S
C2569 C2565 1.393 . S
C2569 C2568 1.391 . S
C2570 H2560 0.950 . S
C2570 C2571 1.386 . S
C2570 C2572 1.391 . S
C2571 C2570 1.386 . S
C2571 C2575 1.393 . S
C2572 H2561 0.950 . S
C2572 C2570 1.391 . S
C2572 C2573 1.400 . S
C2573 C2567 1.491 . S
C2573 C2572 1.400 . S
C2573 C2574 1.398 . S
C2574 H2562 0.950 . S
C2574 C2573 1.398 . S
C2574 C2575 1.391 . S
C2575 H2563 0.950 . S
C2575 C2571 1.393 . S
C2575 C2574 1.391 . S
C665 C106 1.776 . S
C671 C340 1.529 1_556 S
C685 C65 1.470 . S
C691 C375 1.432 . S
C705 C79 1.470 . S
C711 C380 1.320 . S
C731 C405 1.146 . S
C725 C90 1.196 . S
C745 C21 1.226 . S
C751 C425 1.175 . S
C771 C440 1.002 . S
C765 C35 1.075 . S
C791 C475 1.500 . S
C785 C50 1.537 . S
C805 C6 1.418 . S
C811 C480 1.279 . S
C831 C355 1.751 1_655 S
C825 C232 1.846 . S
C845 C245 1.020 . S
C851 C365 0.993 . S
C871 C395 1.443 . S
C865 C274 1.509 . S
C891 C400 1.117 . S
C885 C175 1.180 . S
C905 C231 1.027 . S
C911 C420 0.974 . S
C931 C455 1.360 . S
C925 C246 1.417 . S
C951 C465 0.861 . S
C945 C273 0.878 . S
C971 C495 1.664 . S
C965 C176 1.776 . S
C991 C345 1.360 . S
C985 C160 1.452 . S
C1005 C289 1.738 1_554 S
C1011 C515 1.689 . S
C1031 C525 1.464 . S
C1025 C328 1.518 . S
C1051 C540 1.118 . S
C1045 C317 1.230 . S
C1065 C118 1.392 . S
C1071 C485 1.288 . S
C1085 C132 1.518 . S
C1091 C385 1.464 . S
C1105 C331 1.811 . S
C1111 C575 1.772 . S
C1131 C580 1.204 . S
C1125 C303 1.277 . S
C1151 C338 1.208 . S
C1145 C63 1.339 . S
C1171 C594 1.812 . S
C1165 C107 1.821 . S
C1185 C92 1.237 . S
C1191 C378 1.127 . S
C1205 C78 1.752 . S
C1211 C568 1.668 . S
C1231 C428 1.684 . S
C1225 C8 1.743 . S
C1245 C51 1.244 . S
C1251 C518 1.112 . S
C1271 C474 1.807 1_556 S
C1265 C37 1.821 . S
C1291 C598 1.165 . S
C1285 C20 1.320 . S
C1311 C354 1.509 . S
C1305 C147 1.538 . S
C1331 C588 1.157 . S
C1325 C316 1.209 . S
C1345 C119 1.403 . S
C1351 C394 1.406 . S
C1365 C288 1.336 . S
C1371 C558 1.240 . S
C1385 C148 1.341 . S
C1391 C418 1.215 . S
C1411 C534 1.385 . S
C1405 C315 1.390 . S
C1425 C120 1.210 . S
C1431 C468 1.143 . S
C1445 C287 1.543 . S
C1451 C614 1.515 . S
C1465 C188 1.283 . S
C1471 C348 1.198 . S
C1485 C177 2.013 . S
C1491 C514 2.023 . S
C1505 C258 1.607 . S
C1511 C448 1.528 . S
C1525 C247 1.274 . S
C1531 C538 1.145 . S
C1551 C608 1.196 . S
C1545 C272 1.291 . S
C1565 C216 1.405 . S
C1571 C388 1.330 . S
C1591 C414 2.018 . S
C1585 C261 2.016 . S
C1611 C358 1.136 . S
C1605 C205 1.274 . S
C1625 C76 1.388 . S
C1631 C620 1.233 . S
C1651 C595 1.491 . S
C1645 C93 1.542 . S
C1665 C105 1.111 . S
C1671 C640 1.057 . S
C1685 C62 1.226 . S
C1691 C565 1.173 . S
C1705 C49 1.208 . S
C1711 C505 1.165 . S
C1731 C520 1.348 . S
C1725 C9 1.479 . S
C1751 C555 1.436 . S
C1745 C22 1.469 . S
C1771 C600 1.535 . S
C1765 C36 1.776 . S
C1791 C635 1.689 . S
C1785 C260 1.783 . S
C1805 C189 0.862 . S
C1811 C585 0.838 . S
C1831 C655 1.383 . S
C1825 C204 1.414 . S
C1851 C560 1.010 . S
C1845 C217 1.059 . S
C1871 C500 1.119 . S
C1865 C259 1.197 . S
C1885 C190 1.495 . S
C1891 C535 1.453 . S
C1911 C545 1.010 . S
C1905 C203 1.032 . S
C1925 C218 1.840 . S
C1931 C615 1.730 . S
C1951 C625 1.275 . S
C1945 C314 1.384 . S
C1965 C135 1.815 . S
C1971 C435 1.770 . S
C1991 C445 1.369 . S
C1985 C146 1.434 . S
C2011 C460 1.201 . S
C2005 C163 1.279 . S
C2031 C605 1.319 . S
C2025 C300 1.424 . S
C2045 C286 1.434 . S
C2051 C645 1.369 . S
C2071 C415 1.690 . S
C2065 C149 1.739 . S
C2091 C360 1.126 . S
C2085 C121 1.236 . S
C2105 C91 1.295 . S
C2111 C618 1.142 . S
C2131 C374 1.433 . S
C2125 C77 1.435 . S
C2145 C64 1.198 . S
C2151 C638 1.119 . S
C2165 C104 1.422 . S
C2171 C408 1.368 . S
C2185 C34 1.424 . S
C2191 C508 1.376 . S
C2211 C438 1.126 . S
C2205 C23 1.197 . S
C2225 C7 1.409 . S
C2231 C554 1.427 . S
C2245 C48 1.293 . S
C2251 C478 1.171 . S
C2271 C634 1.509 . S
C2265 C329 1.519 . S
C2285 C162 1.216 . S
C2291 C368 1.141 . S
C2311 C654 1.392 1_656 S
C2305 C301 1.406 . S
C2325 C134 1.347 . S
C2331 C398 1.224 . S
C2345 C330 1.343 . S
C2351 C498 1.246 . S
C2371 C454 1.407 . S
C2365 C161 1.389 . S
C2385 C302 1.216 . S
C2391 C548 1.141 . S
C2411 C494 1.507 . S
C2405 C133 1.520 . S
C2431 C628 1.419 . S
C2425 C244 1.495 . S
C2451 C434 2.002 . S
C2445 C219 1.992 . S
C2465 C230 1.397 . S
C2471 C528 1.319 . S
C2491 C458 1.147 . S
C2485 C191 1.260 . S
C2505 C202 1.482 . S
C2511 C488 1.405 . S
C2525 C174 1.609 . S
C2531 C648 1.533 . S
C2551 C574 1.989 . S
C2545 C233 1.991 . S
C2571 C578 1.133 . S
C2565 C275 1.257 . S
