# Generated by pormake.
# Topology zzz, (3,6)-cn, num edge types: 1
# Building blocks:
#     Node 0, Type 0, BuildingBlock: OLANEW_clean_sbu_2, # of connection points: 3
#     Node 1, Type 0, BuildingBlock: OLANEW_clean_sbu_2, # of connection points: 3
#     Node 2, Type 0, BuildingBlock: OLANEW_clean_sbu_2, # of connection points: 3
#     Node 3, Type 0, BuildingBlock: OLANEW_clean_sbu_2, # of connection points: 3
#     Node 4, Type 0, BuildingBlock: OLANEW_clean_sbu_2, # of connection points: 3
#     Node 5, Type 0, BuildingBlock: OLANEW_clean_sbu_2, # of connection points: 3
#     Node 6, Type 0, BuildingBlock: OLANEW_clean_sbu_2, # of connection points: 3
#     Node 7, Type 0, BuildingBlock: OLANEW_clean_sbu_2, # of connection points: 3
#     Node 8, Type 1, BuildingBlock: BETDIP_clean_sbu_0, # of connection points: 6
#     Node 9, Type 1, BuildingBlock: BETDIP_clean_sbu_0, # of connection points: 6
#     Node 10, Type 1, BuildingBlock: BETDIP_clean_sbu_0, # of connection points: 6
#     Node 11, Type 1, BuildingBlock: BETDIP_clean_sbu_0, # of connection points: 6
#     Edge 12, Type (0, 1), BuildingBlock: AJUNOK_clean_linker_0, # of connection points: 2
#     Edge 13, Type (0, 1), BuildingBlock: AJUNOK_clean_linker_0, # of connection points: 2
#     Edge 14, Type (0, 1), BuildingBlock: AJUNOK_clean_linker_0, # of connection points: 2
#     Edge 15, Type (0, 1), BuildingBlock: AJUNOK_clean_linker_0, # of connection points: 2
#     Edge 16, Type (0, 1), BuildingBlock: AJUNOK_clean_linker_0, # of connection points: 2
#     Edge 17, Type (0, 1), BuildingBlock: AJUNOK_clean_linker_0, # of connection points: 2
#     Edge 18, Type (0, 1), BuildingBlock: AJUNOK_clean_linker_0, # of connection points: 2
#     Edge 19, Type (0, 1), BuildingBlock: AJUNOK_clean_linker_0, # of connection points: 2
#     Edge 20, Type (0, 1), BuildingBlock: AJUNOK_clean_linker_0, # of connection points: 2
#     Edge 21, Type (0, 1), BuildingBlock: AJUNOK_clean_linker_0, # of connection points: 2
#     Edge 22, Type (0, 1), BuildingBlock: AJUNOK_clean_linker_0, # of connection points: 2
#     Edge 23, Type (0, 1), BuildingBlock: AJUNOK_clean_linker_0, # of connection points: 2
#     Edge 24, Type (0, 1), BuildingBlock: AJUNOK_clean_linker_0, # of connection points: 2
#     Edge 25, Type (0, 1), BuildingBlock: AJUNOK_clean_linker_0, # of connection points: 2
#     Edge 26, Type (0, 1), BuildingBlock: AJUNOK_clean_linker_0, # of connection points: 2
#     Edge 27, Type (0, 1), BuildingBlock: AJUNOK_clean_linker_0, # of connection points: 2
#     Edge 28, Type (0, 1), BuildingBlock: AJUNOK_clean_linker_0, # of connection points: 2
#     Edge 29, Type (0, 1), BuildingBlock: AJUNOK_clean_linker_0, # of connection points: 2
#     Edge 30, Type (0, 1), BuildingBlock: AJUNOK_clean_linker_0, # of connection points: 2
#     Edge 31, Type (0, 1), BuildingBlock: AJUNOK_clean_linker_0, # of connection points: 2
#     Edge 32, Type (0, 1), BuildingBlock: AJUNOK_clean_linker_0, # of connection points: 2
#     Edge 33, Type (0, 1), BuildingBlock: AJUNOK_clean_linker_0, # of connection points: 2
#     Edge 34, Type (0, 1), BuildingBlock: AJUNOK_clean_linker_0, # of connection points: 2
#     Edge 35, Type (0, 1), BuildingBlock: AJUNOK_clean_linker_0, # of connection points: 2
# Relax obj value: 0.297
# Max RMSD: 0.187
# Mean RMSD: 0.160
data_MOF--net-zzz--node1-OLANEW_clean_sbu_2--node2-BETDIP_clean_sbu_0--edge1-AJUNOK_clean_linker_0
_symmetry_space_group_name_H-M    P1
_symmetry_Int_Tables_number       1
_symmetry_cell_setting            triclinic
loop_
_symmetry_equiv_pos_as_xyz
'x, y, z'
_cell_length_a     42.515521
_cell_length_b     42.613081
_cell_length_c     11.835564
_cell_angle_alpha  88.886799
_cell_angle_beta   89.954991
_cell_angle_gamma 89.976966
loop_
_atom_site_label
_atom_site_type_symbol
_atom_site_fract_x
_atom_site_fract_y
_atom_site_fract_z
_atom_type_partial_charge
O0 O 0.72923 0.47252 0.32115 0.0
Cd1 Cd 0.67947 0.47913 0.42141 0.0
O2 O 0.75052 0.47893 0.4865 0.0
Cd3 Cd 0.78643 0.4908 0.60921 0.0
O4 O 0.78812 0.52577 0.75229 0.0
C5 C 0.81169 0.5432 0.77447 0.0
O6 O 0.787 0.52595 0.75546 0.0
C7 C 0.75377 0.47518 0.381 0.0
C8 C 0.63231 0.49222 0.26557 0.0
O9 O 0.64983 0.51416 0.30279 0.0
O10 O 0.63656 0.46427 0.30463 0.0
O11 O 0.97364 0.71796 0.2806 0.0
Cd12 Cd 0.96797 0.66763 0.38039 0.0
O13 O 0.01463 0.72554 0.38867 0.0
Cd14 Cd 0.04483 0.76139 0.45707 0.0
O15 O 0.03227 0.809 0.50023 0.0
C16 C 0.01592 0.81257 0.58883 0.0
O17 O 0.0098 0.78814 0.6546 0.0
C18 C 0.99656 0.73501 0.30968 0.0
C19 C 0.97809 0.6212 0.22374 0.0
O20 O 0.9505 0.63216 0.24175 0.0
O21 O 1.00086 0.63146 0.28351 0.0
O22 O 0.77435 0.97461 0.30697 0.0
Cd23 Cd 0.82611 0.96388 0.38883 0.0
O24 O 0.77332 0.01795 0.40313 0.0
Cd25 Cd 0.74541 0.05431 0.48025 0.0
O26 O 0.69732 0.04685 0.53289 0.0
C27 C 0.69244 0.02273 0.59521 0.0
O28 O 0.71648 0.00577 0.63007 0.0
C29 C 0.76005 0.99942 0.33497 0.0
C30 C 0.87196 0.97225 0.22369 0.0
O31 O 0.85812 0.94578 0.2384 0.0
O32 O 0.86462 0.99465 0.28953 0.0
O33 O 0.51898 0.76704 0.29323 0.0
Cd34 Cd 0.53095 0.81939 0.3618 0.0
O35 O 0.4763 0.76719 0.39735 0.0
Cd36 Cd 0.43977 0.73947 0.4783 0.0
O37 O 0.44542 0.69274 0.54957 0.0
C38 C 0.46917 0.68766 0.61253 0.0
O39 O 0.48699 0.7114 0.6411 0.0
C40 C 0.49439 0.75326 0.3291 0.0
C41 C 0.52088 0.86481 0.19379 0.0
O42 O 0.54709 0.85006 0.20164 0.0
O43 O 0.49935 0.85819 0.26627 0.0
O44 O 0.28232 0.54601 0.2033 0.0
Cd45 Cd 0.33341 0.53006 0.13034 0.0
O46 O 0.27336 0.49741 0.15954 0.0
Cd47 Cd 0.24234 0.45909 0.1174 0.0
O48 O 0.1986 0.45254 0.02873 0.0
C49 C 0.19212 0.47417 0.95709 0.0
O50 O 0.21251 0.49697 0.94083 0.0
C51 C 0.26321 0.52325 0.19753 0.0
C52 C 0.37247 0.51064 0.30565 0.0
O53 O 0.37476 0.5382 0.26121 0.0
O54 O 0.35177 0.49191 0.26669 0.0
O55 O 0.97205 0.27874 0.15835 0.0
Cd56 Cd 0.98324 0.33069 0.07935 0.0
O57 O 0.02215 0.27104 0.12946 0.0
Cd58 Cd 0.06268 0.24076 0.10737 0.0
O59 O 0.0674 0.19358 0.04618 0.0
C60 C 0.05314 0.18857 0.95404 0.0
O61 O 0.03955 0.21228 0.90085 0.0
C62 C 0.99568 0.26059 0.1637 0.0
C63 C 0.99117 0.3722 0.25474 0.0
O64 O 0.96447 0.36899 0.20614 0.0
O65 O 0.01439 0.35599 0.21892 0.0
O66 O 0.22503 0.96962 0.18103 0.0
Cd67 Cd 0.17168 0.97978 0.11646 0.0
O68 O 0.2299 0.0196 0.13992 0.0
Cd69 Cd 0.2596 0.05985 0.10257 0.0
O70 O 0.30629 0.06346 0.03154 0.0
C71 C 0.31152 0.04504 0.95051 0.0
O72 O 0.28834 0.02764 0.91355 0.0
C73 C 0.24193 0.99414 0.17767 0.0
C74 C 0.13394 0.98882 0.30424 0.0
O75 O 0.13506 0.96221 0.25567 0.0
O76 O 0.15019 0.01152 0.26231 0.0
O77 O 0.54257 0.23467 0.18948 0.0
Cd78 Cd 0.52731 0.18324 0.12118 0.0
O79 O 0.51118 0.25314 0.0595 0.0
Cd80 Cd 0.48001 0.28311 0.95839 0.0
O81 O 0.43848 0.28803 0.85142 0.0
C82 C 0.42794 0.31377 0.81123 0.0
O83 O 0.40116 0.31387 0.756 0.0
C84 C 0.52908 0.25819 0.14327 0.0
C85 C 0.51636 0.14236 0.30362 0.0
O86 O 0.54278 0.14265 0.25133 0.0
O87 O 0.49479 0.16116 0.26864 0.0
Tb88 Tb 0.02071 0.9899 0.88395 0.0
Tb89 Tb 0.98849 0.01186 0.66606 0.0
C90 C 0.03042 0.96122 0.06772 0.0
C91 C 0.02406 0.92847 0.10363 0.0
C92 C 0.99693 0.91281 0.06699 0.0
C93 C 0.99279 0.88082 0.0909 0.0
C94 C 0.01533 0.8639 0.15416 0.0
C95 C 0.04178 0.88008 0.19496 0.0
C96 C 0.04628 0.91191 0.16858 0.0
C97 C 0.05715 0.9981 0.70649 0.0
C98 C 0.99091 0.94018 0.71376 0.0
C99 C 0.9766 0.03858 0.47969 0.0
C100 C 0.97877 0.07096 0.43204 0.0
C101 C 0.00329 0.07904 0.35713 0.0
C102 C 0.00562 0.10949 0.31157 0.0
C103 C 0.98321 0.13237 0.3386 0.0
C104 C 0.95857 0.12432 0.41278 0.0
C105 C 0.95634 0.09394 0.45899 0.0
C106 C 0.95176 0.00118 0.83947 0.0
C107 C 0.02211 0.0609 0.83288 0.0
O108 O 0.00575 0.97904 0.04891 0.0
O109 O 0.05191 0.96474 0.98917 0.0
O110 O 0.02987 0.98716 0.70888 0.0
O111 O 0.06651 0.003 0.80919 0.0
O112 O 0.99874 0.94727 0.81856 0.0
O113 O 0.98887 0.96205 0.63317 0.0
O114 O 0.00331 0.02441 0.50227 0.0
O115 O 0.95543 0.03331 0.55838 0.0
O116 O 0.97845 0.01382 0.84154 0.0
O117 O 0.94367 0.99571 0.736 0.0
O118 O 0.01098 0.05443 0.73108 0.0
O119 O 0.02473 0.03928 0.91383 0.0
H120 H 0.97923 0.92505 0.01731 0.0
H121 H 0.97207 0.86927 0.05855 0.0
H122 H 0.05892 0.86829 0.24838 0.0
H123 H 0.0673 0.92354 0.19806 0.0
H124 H 0.02074 0.06179 0.33382 0.0
H125 H 0.02478 0.1151 0.25432 0.0
H126 H 0.94126 0.14168 0.43631 0.0
H127 H 0.93708 0.08857 0.51608 0.0
Tb128 Tb 0.511 0.01977 0.86739 0.0
Tb129 Tb 0.49152 0.9902 0.64596 0.0
C130 C 0.5365 0.02814 0.05587 0.0
C131 C 0.56911 0.02596 0.0982 0.0
C132 C 0.57511 0.01049 0.20164 0.0
C133 C 0.60598 0.00687 0.24073 0.0
C134 C 0.63141 0.01915 0.17809 0.0
C135 C 0.62533 0.03464 0.07437 0.0
C136 C 0.59451 0.03787 0.03448 0.0
C137 C 0.50383 0.05843 0.693 0.0
C138 C 0.56302 0.99357 0.69702 0.0
C139 C 0.46652 0.98037 0.45745 0.0
C140 C 0.43419 0.98198 0.41058 0.0
C141 C 0.4245 0.00852 0.3472 0.0
C142 C 0.3939 0.01057 0.30449 0.0
C143 C 0.3724 0.98602 0.32355 0.0
C144 C 0.3823 0.95905 0.38361 0.0
C145 C 0.41286 0.95705 0.42693 0.0
C146 C 0.50021 0.95138 0.81694 0.0
C147 C 0.44011 0.01966 0.81498 0.0
O148 O 0.52367 0.00154 0.02704 0.0
O149 O 0.53033 0.05093 0.9833 0.0
O150 O 0.51523 0.03137 0.69316 0.0
O151 O 0.49792 0.06622 0.79645 0.0
O152 O 0.55514 1.00026 0.80222 0.0
O153 O 0.5418 0.992 0.61547 0.0
O154 O 0.47939 0.00715 0.48435 0.0
O155 O 0.47234 0.95816 0.5327 0.0
O156 O 0.48757 0.97801 0.82022 0.0
O157 O 0.50714 0.94468 0.71334 0.0
O158 O 0.4476 0.01071 0.71142 0.0
O159 O 0.46117 0.02128 0.89654 0.0
H160 H 0.55592 0.00084 0.25161 0.0
H161 H 0.60998 0.99446 0.32005 0.0
H162 H 0.64447 0.04354 0.02253 0.0
H163 H 0.59062 0.04932 0.95318 0.0
H164 H 0.44054 0.02785 0.33114 0.0
H165 H 0.387 0.03137 0.25659 0.0
H166 H 0.36615 0.9398 0.39938 0.0
H167 H 0.41963 0.93606 0.47387 0.0
Tb168 Tb 0.47903 0.50567 0.89157 0.0
Tb169 Tb 0.52063 0.49066 0.69084 0.0
C170 C 0.46087 0.53037 0.07057 0.0
C171 C 0.46541 0.56237 0.11435 0.0
C172 C 0.49556 0.57574 0.12205 0.0
C173 C 0.49928 0.60667 0.15729 0.0
C174 C 0.47299 0.62505 0.18514 0.0
C175 C 0.44286 0.61157 0.1773 0.0
C176 C 0.43916 0.58061 0.14222 0.0
C177 C 0.44879 0.49336 0.70384 0.0
C178 C 0.5064 0.56069 0.7332 0.0
C179 C 0.54476 0.46944 0.51356 0.0
C180 C 0.54323 0.43997 0.44979 0.0
C181 C 0.51544 0.43054 0.39545 0.0
C182 C 0.51432 0.40207 0.33875 0.0
C183 C 0.54083 0.38246 0.33607 0.0
C184 C 0.56885 0.39235 0.38702 0.0
C185 C 0.57006 0.42088 0.44301 0.0
C186 C 0.5495 0.50357 0.88063 0.0
C187 C 0.48525 0.43599 0.83357 0.0
O188 O 0.48596 0.51251 0.06473 0.0
O189 O 0.44323 0.52857 0.98025 0.0
O190 O 0.47434 0.50796 0.71288 0.0
O191 O 0.43746 0.48778 0.8043 0.0
O192 O 0.49724 0.55172 0.8356 0.0
O193 O 0.51411 0.54024 0.65545 0.0
O194 O 0.51937 0.48679 0.51479 0.0
O195 O 0.55836 0.46775 0.61269 0.0
O196 O 0.52499 0.48759 0.86953 0.0
O197 O 0.55994 0.51187 0.78149 0.0
O198 O 0.49878 0.44536 0.73743 0.0
O199 O 0.47825 0.45545 0.9155 0.0
H200 H 0.51632 0.56252 0.09932 0.0
H201 H 0.52279 0.61637 0.16095 0.0
H202 H 0.42211 0.62466 0.20074 0.0
H203 H 0.41569 0.57098 0.13582 0.0
H204 H 0.4944 0.44484 0.3981 0.0
H205 H 0.49245 0.39488 0.30009 0.0
H206 H 0.58973 0.37779 0.38463 0.0
H207 H 0.5919 0.42784 0.48242 0.0
Tb208 Tb 0.99375 0.47809 0.84027 0.0
Tb209 Tb 0.01106 0.51939 0.63716 0.0
C210 C 0.96793 0.45875 0.01853 0.0
C211 C 0.93597 0.46257 0.06579 0.0
C212 C 0.92436 0.49229 0.09498 0.0
C213 C 0.8944 0.49527 0.14233 0.0
C214 C 0.87563 0.46862 0.16196 0.0
C215 C 0.88686 0.43907 0.13055 0.0
C216 C 0.91668 0.43612 0.08198 0.0
C217 C 0.0034 0.44902 0.65062 0.0
C218 C 0.9405 0.51386 0.69357 0.0
C219 C 0.03627 0.53751 0.45543 0.0
C220 C 0.06895 0.53707 0.41099 0.0
C221 C 0.07897 0.51271 0.34097 0.0
C222 C 0.11003 0.51158 0.30214 0.0
C223 C 0.13174 0.53488 0.33176 0.0
C224 C 0.12162 0.55952 0.4001 0.0
C225 C 0.09056 0.56069 0.43889 0.0
C226 C 1.00056 0.54878 0.82451 0.0
C227 C 0.06446 0.48548 0.79251 0.0
O228 O 0.9857 0.4839 0.01311 0.0
O229 O 0.96994 0.44191 0.92738 0.0
O230 O 0.98987 0.47493 0.66266 0.0
O231 O 0.01053 0.43708 0.74909 0.0
O232 O 0.94925 0.50009 0.7897 0.0
O233 O 0.96056 0.52141 0.61207 0.0
O234 O 0.0224 0.51017 0.46852 0.0
O235 O 0.0307 0.5561 0.54012 0.0
O236 O 0.01446 0.52295 0.81512 0.0
O237 O 0.9939 0.56059 0.72541 0.0
O238 O 0.05654 0.50004 0.69631 0.0
O239 O 0.04349 0.47676 0.86902 0.0
H240 H 0.93845 0.51324 0.08232 0.0
H241 H 0.88615 0.51828 0.16611 0.0
H242 H 0.87266 0.41826 0.14453 0.0
H243 H 0.92498 0.41302 0.0595 0.0
H244 H 0.06283 0.49438 0.31656 0.0
H245 H 0.1171 0.49245 0.24872 0.0
H246 H 0.13794 0.57752 0.42603 0.0
H247 H 0.08368 0.57989 0.49221 0.0
C248 C 0.08803 0.97353 0.42293 0.0
C249 C 0.11444 0.99284 0.40619 0.0
C250 C 0.06953 0.97586 0.51992 0.0
C251 C 0.07715 0.99709 0.60519 0.0
H252 H 0.08147 0.95652 0.36041 0.0
H253 H 0.0494 0.96042 0.52889 0.0
S254 S 0.1435 0.05331 0.60214 0.0
N255 N 0.14692 0.03454 0.48185 0.0
N256 N 0.11233 0.0382 0.66652 0.0
C257 C 0.10336 0.01664 0.58993 0.0
C258 C 0.12194 0.01474 0.48964 0.0
C259 C 0.52936 0.0934 0.41186 0.0
C260 C 0.51129 0.12093 0.4018 0.0
C261 C 0.52615 0.07313 0.50545 0.0
C262 C 0.50527 0.07992 0.59396 0.0
H263 H 0.54613 0.08737 0.34679 0.0
H264 H 0.54068 0.05228 0.50934 0.0
S265 S 0.45168 0.14825 0.60725 0.0
N266 N 0.47075 0.15332 0.48656 0.0
N267 N 0.46546 0.11536 0.66448 0.0
C268 C 0.48676 0.10708 0.58481 0.0
C269 C 0.48955 0.12752 0.4881 0.0
C270 C 0.42395 0.51189 0.40392 0.0
C271 C 0.39268 0.50145 0.4016 0.0
C272 C 0.44263 0.507 0.49976 0.0
C273 C 0.43039 0.4926 0.59818 0.0
H274 H 0.43387 0.52452 0.33195 0.0
H275 H 0.46642 0.51588 0.4981 0.0
S276 S 0.35094 0.45769 0.63016 0.0
N277 N 0.35116 0.47297 0.50079 0.0
N278 N 0.38606 0.46488 0.6833 0.0
C279 C 0.39974 0.48034 0.59462 0.0
C280 C 0.38089 0.48461 0.49568 0.0
C281 C 0.02048 0.38921 0.42647 0.0
C282 C 0.99483 0.39314 0.35212 0.0
C283 C 0.02333 0.40748 0.52328 0.0
C284 C 1.00109 0.43078 0.547 0.0
H285 H 0.03806 0.37136 0.41147 0.0
H286 H 0.04301 0.40338 0.57979 0.0
S287 S 0.92995 0.45081 0.38029 0.0
N288 N 0.94675 0.4221 0.31065 0.0
N289 N 0.95289 0.4571 0.48954 0.0
C290 C 0.97583 0.43547 0.47245 0.0
C291 C 0.97248 0.41645 0.37575 0.0
C292 C 0.91398 0.00418 0.1281 0.0
C293 C 0.89443 0.97748 0.12956 0.0
C294 C 0.9334 0.01117 0.03521 0.0
C295 C 0.93333 0.99211 0.93983 0.0
H296 H 0.91399 0.02006 0.19849 0.0
H297 H 0.94773 0.03219 0.03645 0.0
S298 S 0.88929 0.91798 0.90497 0.0
N299 N 0.87848 0.9305 0.03034 0.0
N300 N 0.91439 0.94434 0.85495 0.0
C301 C 0.91489 0.96486 0.94143 0.0
C302 C 0.89561 0.95733 0.03669 0.0
C303 C 0.53432 0.88694 0.00318 0.0
C304 C 0.51549 0.88795 0.10095 0.0
C305 C 0.52912 0.90757 0.91159 0.0
C306 C 0.50534 0.93036 0.91532 0.0
H307 H 0.55289 0.86967 0.99623 0.0
H308 H 0.54396 0.90575 0.83752 0.0
S309 S 0.44986 0.94348 0.15149 0.0
N310 N 0.47213 0.91397 0.19591 0.0
N311 N 0.46289 0.95316 0.0241 0.0
C312 C 0.48665 0.9321 0.01289 0.0
C313 C 0.49157 0.91075 0.10563 0.0
C314 C 0.58369 0.47761 0.1615 0.0
C315 C 0.60908 0.49833 0.17499 0.0
C316 C 0.56344 0.48055 0.06873 0.0
C317 C 0.56834 0.50386 0.98487 0.0
H318 H 0.57981 0.45852 0.22169 0.0
H319 H 0.54469 0.46354 0.0602 0.0
S320 S 0.62957 0.56567 0.98519 0.0
N321 N 0.63646 0.54454 0.10104 0.0
N322 N 0.59874 0.54943 0.92489 0.0
C323 C 0.59273 0.52554 0.99954 0.0
C324 C 0.61302 0.52296 0.09521 0.0
C325 C 0.95985 0.59533 0.04861 0.0
C326 C 0.98366 0.5995 0.12964 0.0
C327 C 0.96543 0.57839 0.95065 0.0
C328 C 0.99471 0.56443 0.93151 0.0
H329 H 0.93699 0.60618 0.05853 0.0
H330 H 0.94675 0.57635 0.88925 0.0
S331 S 0.06452 0.56661 0.11776 0.0
N332 N 0.0376 0.58716 0.18475 0.0
N333 N 0.04748 0.55444 0.00122 0.0
C334 C 0.01832 0.56702 0.01334 0.0
C335 C 0.01295 0.58482 0.11236 0.0
C336 C 0.017 0.21258 0.2631 0.0
C337 C 0.99211 0.22769 0.20552 0.0
C338 C 0.01412 0.1816 0.30398 0.0
C339 C 0.98595 0.16478 0.29138 0.0
H340 H 0.03865 0.225 0.27958 0.0
H341 H 0.03384 0.17098 0.34825 0.0
S342 S 0.91368 0.19333 0.14747 0.0
N343 N 0.93835 0.22319 0.1375 0.0
N344 N 0.93276 0.1652 0.21662 0.0
C345 C 0.96076 0.1796 0.23508 0.0
C346 C 0.96382 0.21102 0.1921 0.0
C347 C 0.29407 0.96687 0.18569 0.0
C348 C 0.27526 0.99277 0.21337 0.0
C349 C 0.32561 0.96496 0.22044 0.0
C350 C 0.33938 0.98889 0.28407 0.0
H351 H 0.2844 0.94803 0.13632 0.0
H352 H 0.33936 0.94468 0.19707 0.0
S353 S 0.29911 0.05975 0.38953 0.0
N354 N 0.27186 0.04139 0.31667 0.0
N355 N 0.33126 0.03825 0.37909 0.0
C356 C 0.32067 0.01467 0.31347 0.0
C357 C 0.28856 0.01647 0.27901 0.0
C358 C 0.52578 0.31723 0.12775 0.0
C359 C 0.53283 0.28991 0.19183 0.0
C360 C 0.52841 0.34718 0.17452 0.0
C361 C 0.53869 0.35088 0.28638 0.0
H362 H 0.51855 0.31565 0.04054 0.0
H363 H 0.52266 0.36759 0.12253 0.0
S364 S 0.55937 0.28733 0.49127 0.0
N365 N 0.55 0.26888 0.37468 0.0
N366 N 0.55531 0.32506 0.4608 0.0
C367 C 0.54604 0.32393 0.35104 0.0
C368 C 0.5431 0.29351 0.30417 0.0
C369 C 0.21328 0.5015 0.27927 0.0
C370 C 0.22973 0.52696 0.23021 0.0
C371 C 0.1816 0.50422 0.31057 0.0
C372 C 0.16515 0.53264 0.29524 0.0
H373 H 0.22512 0.47941 0.2961 0.0
H374 H 0.17005 0.48405 0.34925 0.0
S375 S 0.19722 0.60625 0.1685 0.0
N376 N 0.22711 0.5815 0.16682 0.0
N377 N 0.16752 0.58664 0.22565 0.0
C378 C 0.18132 0.55836 0.2467 0.0
C379 C 0.21362 0.55555 0.21454 0.0
C380 C 0.97571 0.78778 0.252 0.0
C381 C 1.00098 0.76665 0.25913 0.0
C382 C 0.98034 0.81889 0.21449 0.0
C383 C 0.01042 0.82996 0.18259 0.0
H384 H 0.95247 0.78059 0.27972 0.0
H385 H 0.96039 0.83468 0.21522 0.0
S386 S 0.08296 0.78166 0.16652 0.0
N387 N 0.05613 0.75741 0.21873 0.0
N388 N 0.06487 0.81559 0.1461 0.0
C389 C 0.03543 0.80827 0.18274 0.0
C390 C 0.03069 0.77671 0.22152 0.0
C391 C 0.7058 0.98027 0.29272 0.0
C392 C 0.72744 0.0052 0.29556 0.0
C393 C 0.67474 0.98508 0.25605 0.0
C394 C 0.66425 0.01491 0.21935 0.0
H395 H 0.71285 0.9569 0.31997 0.0
H396 H 0.65894 0.96515 0.25479 0.0
S397 S 0.71198 0.08779 0.20765 0.0
N398 N 0.73657 0.06057 0.25507 0.0
N399 N 0.67802 0.06981 0.18921 0.0
C400 C 0.68572 0.04001 0.22149 0.0
C401 C 0.71734 0.03511 0.25884 0.0
C402 C 0.50683 0.69601 0.33477 0.0
C403 C 0.48772 0.72078 0.29567 0.0
C404 C 0.50153 0.66512 0.30019 0.0
C405 C 0.47726 0.65796 0.22362 0.0
H406 H 0.52591 0.70053 0.39284 0.0
H407 H 0.51655 0.64668 0.33401 0.0
S408 S 0.4217 0.71541 0.09329 0.0
N409 N 0.44388 0.73666 0.17703 0.0
N410 N 0.43464 0.67899 0.10739 0.0
C411 C 0.45806 0.6828 0.18398 0.0
C412 C 0.46315 0.71412 0.22101 0.0
C413 C 0.80981 0.45764 0.37595 0.0
C414 C 0.78512 0.47519 0.3274 0.0
C415 C 0.83903 0.45545 0.32141 0.0
C416 C 0.84473 0.47146 0.21831 0.0
H417 H 0.80622 0.4448 0.45482 0.0
H418 H 0.8573 0.4412 0.36021 0.0
S419 S 0.78844 0.52212 0.06058 0.0
N420 N 0.7685 0.50955 0.1724 0.0
N421 N 0.8238 0.50628 0.07199 0.0
C422 C 0.82054 0.48981 0.17076 0.0
C423 C 0.79061 0.49143 0.2248 0.0
C424 C 0.05075 0.13112 0.99543 0.0
C425 C 0.04776 0.15611 0.91696 0.0
C426 C 0.0427 0.1005 0.9668 0.0
C427 C 0.03152 0.09352 0.85816 0.0
H428 H 0.05846 0.13531 0.08105 0.0
H429 H 0.04488 0.08231 0.0315 0.0
S430 S 0.02205 0.15039 0.61839 0.0
N431 N 0.03463 0.17179 0.72397 0.0
N432 N 0.01971 0.11413 0.66925 0.0
C433 C 0.02943 0.11819 0.77741 0.0
C434 C 0.03749 0.14949 0.80704 0.0
C435 C 0.36946 0.04951 0.97548 0.0
C436 C 0.34389 0.04037 0.90855 0.0
C437 C 0.40037 0.04301 0.94339 0.0
C438 C 0.40706 0.02735 0.8425 0.0
H439 H 0.36562 0.06102 0.05515 0.0
H440 H 0.41914 0.05016 0.99912 0.0
S441 S 0.34845 0.9998 0.63417 0.0
N442 N 0.32718 0.01582 0.73458 0.0
N443 N 0.38544 0.00374 0.67364 0.0
C444 C 0.38175 0.01881 0.77296 0.0
C445 C 0.35014 0.02525 0.80624 0.0
C446 C 0.42749 0.36949 0.86795 0.0
C447 C 0.44449 0.34355 0.82944 0.0
C448 C 0.44165 0.39901 0.87559 0.0
C449 C 0.47299 0.40375 0.84154 0.0
H450 H 0.4029 0.36704 0.89058 0.0
H451 H 0.42746 0.4186 0.90284 0.0
S452 S 0.5278 0.34324 0.73705 0.0
N453 N 0.49463 0.32403 0.76124 0.0
N454 N 0.52094 0.38005 0.77104 0.0
C455 C 0.49045 0.37791 0.80479 0.0
C456 C 0.47627 0.3476 0.80005 0.0
C457 C 0.13704 0.45485 0.94121 0.0
C458 C 0.16077 0.47544 0.90296 0.0
C459 C 0.10624 0.45759 0.90133 0.0
C460 C 0.09795 0.48082 0.82077 0.0
H461 H 0.14193 0.43708 0.0055 0.0
H462 H 0.08862 0.44175 0.93598 0.0
S463 S 0.15174 0.53899 0.68591 0.0
N464 N 0.1743 0.5187 0.77426 0.0
N465 N 0.11623 0.52368 0.69887 0.0
C466 C 0.12167 0.50062 0.77743 0.0
C467 C 0.15312 0.49801 0.8188 0.0
C468 C 0.00724 0.85301 0.73377 0.0
C469 C 0.00532 0.84403 0.62073 0.0
C470 C 1.00057 0.88384 0.76433 0.0
C471 C 0.99118 0.90665 0.68332 0.0
H472 H 0.01551 0.83658 0.79821 0.0
H473 H 0.00441 0.89004 0.85119 0.0
S474 S 0.97588 0.89263 0.38026 0.0
N475 N 0.98929 0.85872 0.43016 0.0
N476 N 0.97567 0.91654 0.4881 0.0
C477 C 0.98661 0.89711 0.57156 0.0
C478 C 0.99403 0.86584 0.54009 0.0
C479 C 0.63614 0.01901 0.54147 0.0
C480 C 0.66005 0.0126 0.62043 0.0
C481 C 0.60497 0.01045 0.56367 0.0
C482 C 0.59652 0.99581 0.66671 0.0
H483 H 0.64147 0.03102 0.46223 0.0
H484 H 0.5872 0.01686 0.50193 0.0
S485 S 0.65059 0.97242 0.89921 0.0
N486 N 0.67361 0.98916 0.80302 0.0
N487 N 0.61466 0.97392 0.84638 0.0
C488 C 0.62033 0.98844 0.74515 0.0
C489 C 0.65222 0.99661 0.72155 0.0
C490 C 0.49903 0.6493 0.73482 0.0
C491 C 0.4787 0.65521 0.64275 0.0
C492 C 0.50877 0.61863 0.76314 0.0
C493 C 0.49945 0.59318 0.69749 0.0
H494 H 0.507 0.66841 0.78663 0.0
H495 H 0.52353 0.61478 0.83671 0.0
S496 S 0.44518 0.5956 0.45287 0.0
N497 N 0.44852 0.63256 0.48987 0.0
N498 N 0.4679 0.57549 0.54065 0.0
C499 C 0.47938 0.59881 0.60532 0.0
C500 C 0.46871 0.62969 0.5785 0.0
C501 C 0.8529 0.50482 0.71266 0.0
C502 C 0.84313 0.53595 0.72973 0.0
C503 C 0.88457 0.49794 0.69104 0.0
C504 C 0.90714 0.52196 0.6831 0.0
H505 H 0.83658 0.48552 0.72405 0.0
H506 H 0.89176 0.47359 0.68659 0.0
S507 S 0.89309 0.60705 0.71374 0.0
N508 N 0.85817 0.59081 0.73345 0.0
N509 N 0.91745 0.57789 0.68711 0.0
C510 C 0.89732 0.55316 0.69278 0.0
C511 C 0.86532 0.56011 0.71787 0.0
loop_
_geom_bond_atom_site_label_1
_geom_bond_atom_site_label_2
_geom_bond_distance
_geom_bond_site_symmetry_2
_ccdc_geom_bond_type
O0 Cd1 2.300 . S
O0 C7 1.275 . S
Cd1 O0 2.300 . S
Cd1 O9 2.381 . S
Cd1 O10 2.378 . S
O2 Cd3 2.385 . S
O2 C7 1.255 . S
Cd3 O2 2.385 . S
Cd3 O4 2.317 . S
O4 Cd3 2.317 . S
O4 C5 1.232 . S
C5 O4 1.232 . S
C5 O6 1.218 . S
O6 C5 1.218 . S
C7 O0 1.275 . S
C7 O2 1.255 . S
C8 O9 1.258 . S
C8 O10 1.256 . S
O9 Cd1 2.381 . S
O9 C8 1.258 . S
O10 Cd1 2.378 . S
O10 C8 1.256 . S
O11 Cd12 2.300 1_655 S
O11 C18 1.275 1_655 S
Cd12 O11 2.300 1_455 S
Cd12 O20 2.381 1_455 S
Cd12 O21 2.378 . S
O13 Cd14 2.385 . S
O13 C18 1.255 . S
Cd14 O13 2.385 . S
Cd14 O15 2.317 . S
O15 Cd14 2.317 . S
O15 C16 1.232 . S
C16 O15 1.232 . S
C16 O17 1.218 . S
O17 C16 1.218 . S
C18 O11 1.275 1_455 S
C18 O13 1.255 . S
C19 O20 1.258 1_455 S
C19 O21 1.256 . S
O20 Cd12 2.381 1_655 S
O20 C19 1.258 1_655 S
O21 Cd12 2.378 . S
O21 C19 1.256 . S
O22 Cd23 2.300 1_565 S
O22 C29 1.275 1_565 S
Cd23 O22 2.300 1_545 S
Cd23 O31 2.381 1_545 S
Cd23 O32 2.378 . S
O24 Cd25 2.385 . S
O24 C29 1.255 . S
Cd25 O24 2.385 . S
Cd25 O26 2.317 . S
O26 Cd25 2.317 . S
O26 C27 1.232 . S
C27 O26 1.232 . S
C27 O28 1.218 . S
O28 C27 1.218 . S
C29 O22 1.275 1_545 S
C29 O24 1.255 . S
C30 O31 1.258 1_545 S
C30 O32 1.256 . S
O31 Cd23 2.381 1_565 S
O31 C30 1.258 1_565 S
O32 Cd23 2.378 . S
O32 C30 1.256 . S
O33 Cd34 2.300 . S
O33 C40 1.275 . S
Cd34 O33 2.300 . S
Cd34 O42 2.381 . S
Cd34 O43 2.378 . S
O35 Cd36 2.385 . S
O35 C40 1.255 . S
Cd36 O35 2.385 . S
Cd36 O37 2.317 . S
O37 Cd36 2.317 . S
O37 C38 1.232 . S
C38 O37 1.232 . S
C38 O39 1.218 . S
O39 C38 1.218 . S
C40 O33 1.275 . S
C40 O35 1.255 . S
C41 O42 1.258 . S
C41 O43 1.256 . S
O42 Cd34 2.381 . S
O42 C41 1.258 . S
O43 Cd34 2.378 . S
O43 C41 1.256 . S
O44 Cd45 2.300 . S
O44 C51 1.275 . S
Cd45 O44 2.300 . S
Cd45 O53 2.381 . S
Cd45 O54 2.378 . S
O46 Cd47 2.385 1_554 S
O46 C51 1.255 . S
Cd47 O46 2.385 1_556 S
Cd47 O48 2.317 . S
O48 Cd47 2.317 . S
O48 C49 1.232 . S
C49 O48 1.232 . S
C49 O50 1.218 . S
O50 C49 1.218 . S
C51 O44 1.275 . S
C51 O46 1.255 . S
C52 O53 1.258 . S
C52 O54 1.256 . S
O53 Cd45 2.381 . S
O53 C52 1.258 . S
O54 Cd45 2.378 . S
O54 C52 1.256 . S
O55 Cd56 2.300 1_655 S
O55 C62 1.275 1_655 S
Cd56 O55 2.300 1_455 S
Cd56 O64 2.381 1_455 S
Cd56 O65 2.378 . S
O57 Cd58 2.385 1_554 S
O57 C62 1.255 . S
Cd58 O57 2.385 1_556 S
Cd58 O59 2.317 . S
O59 Cd58 2.317 . S
O59 C60 1.232 . S
C60 O59 1.232 . S
C60 O61 1.218 . S
O61 C60 1.218 . S
C62 O55 1.275 1_455 S
C62 O57 1.255 . S
C63 O64 1.258 1_455 S
C63 O65 1.256 . S
O64 Cd56 2.381 1_655 S
O64 C63 1.258 1_655 S
O65 Cd56 2.378 . S
O65 C63 1.256 . S
O66 Cd67 2.300 1_565 S
O66 C73 1.275 1_565 S
Cd67 O66 2.300 1_545 S
Cd67 O75 2.381 1_545 S
Cd67 O76 2.378 . S
O68 Cd69 2.385 1_554 S
O68 C73 1.255 . S
Cd69 O68 2.385 1_556 S
Cd69 O70 2.317 . S
O70 Cd69 2.317 . S
O70 C71 1.232 . S
C71 O70 1.232 . S
C71 O72 1.218 . S
O72 C71 1.218 . S
C73 O66 1.275 1_545 S
C73 O68 1.255 . S
C74 O75 1.258 1_545 S
C74 O76 1.256 . S
O75 Cd67 2.381 1_565 S
O75 C74 1.258 1_565 S
O76 Cd67 2.378 . S
O76 C74 1.256 . S
O77 Cd78 2.300 . S
O77 C84 1.275 . S
Cd78 O77 2.300 . S
Cd78 O86 2.381 . S
Cd78 O87 2.378 . S
O79 Cd80 2.385 1_554 S
O79 C84 1.255 . S
Cd80 O79 2.385 1_556 S
Cd80 O81 2.317 . S
O81 Cd80 2.317 . S
O81 C82 1.232 . S
C82 O81 1.232 . S
C82 O83 1.218 . S
O83 C82 1.218 . S
C84 O77 1.275 . S
C84 O79 1.255 . S
C85 O86 1.258 . S
C85 O87 1.256 . S
O86 Cd78 2.381 . S
O86 C85 1.258 . S
O87 Cd78 2.378 . S
O87 C85 1.256 . S
Tb88 C90 2.809 . S
Tb88 O108 2.484 . S
Tb88 O109 2.440 . S
Tb88 O110 2.658 1_565 S
Tb88 O111 2.409 . S
Tb88 O112 2.378 . S
Tb88 O116 2.325 1_455 S
Tb88 O119 2.341 1_565 S
Tb89 C99 2.809 . S
Tb89 O110 2.325 1_655 S
Tb89 O113 2.341 1_545 S
Tb89 O114 2.484 . S
Tb89 O115 2.440 . S
Tb89 O116 2.658 1_545 S
Tb89 O117 2.409 . S
Tb89 O118 2.378 . S
C90 Tb88 2.809 . S
C90 C91 1.514 1_556 S
C90 O108 1.248 . S
C90 O109 1.266 . S
C91 C90 1.514 1_554 S
C91 C92 1.359 . S
C91 C96 1.348 . S
C92 C91 1.359 . S
C92 C93 1.380 . S
C92 H120 0.929 1_455 S
C93 C92 1.380 . S
C93 C94 1.347 . S
C93 H121 0.931 1_455 S
C94 C93 1.347 . S
C94 C95 1.369 . S
C95 C94 1.369 . S
C95 C96 1.408 . S
C95 H122 0.930 . S
C96 C91 1.348 . S
C96 C95 1.408 . S
C96 H123 0.930 . S
C97 O110 1.281 1_565 S
C97 O111 1.254 . S
C98 O112 1.236 1_655 S
C98 O113 1.266 . S
C99 Tb89 2.809 . S
C99 C100 1.514 . S
C99 O114 1.248 . S
C99 O115 1.266 . S
C100 C99 1.514 . S
C100 C101 1.359 . S
C100 C105 1.348 . S
C101 C100 1.359 . S
C101 C102 1.380 . S
C101 H124 0.929 1_655 S
C102 C101 1.380 . S
C102 C103 1.347 . S
C102 H125 0.931 1_655 S
C103 C102 1.347 . S
C103 C104 1.369 . S
C104 C103 1.369 . S
C104 C105 1.408 . S
C104 H126 0.930 . S
C105 C100 1.348 . S
C105 C104 1.408 . S
C105 H127 0.930 . S
C106 O116 1.281 1_545 S
C106 O117 1.254 . S
C107 O118 1.236 1_455 S
C107 O119 1.266 . S
O108 Tb88 2.484 . S
O108 C90 1.248 . S
O109 Tb88 2.440 . S
O109 C90 1.266 . S
O110 Tb88 2.658 1_545 S
O110 Tb89 2.325 1_455 S
O110 C97 1.281 1_545 S
O111 Tb88 2.409 . S
O111 C97 1.254 . S
O112 Tb88 2.378 . S
O112 C98 1.236 1_455 S
O113 Tb89 2.341 1_565 S
O113 C98 1.266 . S
O114 Tb89 2.484 . S
O114 C99 1.248 . S
O115 Tb89 2.440 . S
O115 C99 1.266 . S
O116 Tb88 2.325 1_655 S
O116 Tb89 2.658 1_565 S
O116 C106 1.281 1_565 S
O117 Tb89 2.409 . S
O117 C106 1.254 . S
O118 Tb89 2.378 . S
O118 C107 1.236 1_655 S
O119 Tb88 2.341 1_545 S
O119 C107 1.266 . S
H120 C92 0.929 1_655 S
H121 C93 0.931 1_655 S
H122 C95 0.930 . S
H123 C96 0.930 . S
H124 C101 0.929 1_455 S
H125 C102 0.931 1_455 S
H126 C104 0.930 . S
H127 C105 0.930 . S
Tb128 C130 2.809 . S
Tb128 O148 2.484 . S
Tb128 O149 2.440 . S
Tb128 O150 2.658 . S
Tb128 O151 2.409 . S
Tb128 O152 2.378 . S
Tb128 O156 2.325 1_545 S
Tb128 O159 2.341 . S
Tb129 C139 2.809 . S
Tb129 O150 2.325 1_565 S
Tb129 O153 2.341 . S
Tb129 O154 2.484 . S
Tb129 O155 2.440 . S
Tb129 O156 2.658 . S
Tb129 O157 2.409 . S
Tb129 O158 2.378 . S
C130 Tb128 2.809 . S
C130 C131 1.514 1_556 S
C130 O148 1.248 . S
C130 O149 1.266 . S
C131 C130 1.514 1_554 S
C131 C132 1.359 . S
C131 C136 1.348 . S
C132 C131 1.359 . S
C132 C133 1.380 . S
C132 H160 0.929 1_545 S
C133 C132 1.380 . S
C133 C134 1.347 . S
C133 H161 0.931 1_545 S
C134 C133 1.347 . S
C134 C135 1.369 . S
C135 C134 1.369 . S
C135 C136 1.408 . S
C135 H162 0.930 . S
C136 C131 1.348 . S
C136 C135 1.408 . S
C136 H163 0.930 . S
C137 O150 1.281 . S
C137 O151 1.254 . S
C138 O152 1.236 1_565 S
C138 O153 1.266 . S
C139 Tb129 2.809 . S
C139 C140 1.514 . S
C139 O154 1.248 . S
C139 O155 1.266 . S
C140 C139 1.514 . S
C140 C141 1.359 . S
C140 C145 1.348 . S
C141 C140 1.359 . S
C141 C142 1.380 . S
C141 H164 0.929 1_565 S
C142 C141 1.380 . S
C142 C143 1.347 . S
C142 H165 0.931 1_565 S
C143 C142 1.347 . S
C143 C144 1.369 . S
C144 C143 1.369 . S
C144 C145 1.408 . S
C144 H166 0.930 . S
C145 C140 1.348 . S
C145 C144 1.408 . S
C145 H167 0.930 . S
C146 O156 1.281 . S
C146 O157 1.254 . S
C147 O158 1.236 1_545 S
C147 O159 1.266 . S
O148 Tb128 2.484 . S
O148 C130 1.248 . S
O149 Tb128 2.440 . S
O149 C130 1.266 . S
O150 Tb128 2.658 . S
O150 Tb129 2.325 1_545 S
O150 C137 1.281 . S
O151 Tb128 2.409 . S
O151 C137 1.254 . S
O152 Tb128 2.378 . S
O152 C138 1.236 1_545 S
O153 Tb129 2.341 . S
O153 C138 1.266 . S
O154 Tb129 2.484 . S
O154 C139 1.248 . S
O155 Tb129 2.440 . S
O155 C139 1.266 . S
O156 Tb128 2.325 1_565 S
O156 Tb129 2.658 . S
O156 C146 1.281 . S
O157 Tb129 2.409 . S
O157 C146 1.254 . S
O158 Tb129 2.378 . S
O158 C147 1.236 1_565 S
O159 Tb128 2.341 . S
O159 C147 1.266 . S
H160 C132 0.929 1_565 S
H161 C133 0.931 1_565 S
H162 C135 0.930 . S
H163 C136 0.930 . S
H164 C141 0.929 1_545 S
H165 C142 0.931 1_545 S
H166 C144 0.930 . S
H167 C145 0.930 . S
Tb168 C170 2.809 . S
Tb168 O188 2.484 . S
Tb168 O189 2.440 . S
Tb168 O190 2.658 . S
Tb168 O191 2.409 . S
Tb168 O192 2.378 . S
Tb168 O196 2.325 . S
Tb168 O199 2.341 . S
Tb169 C179 2.809 . S
Tb169 O190 2.325 . S
Tb169 O193 2.341 . S
Tb169 O194 2.484 . S
Tb169 O195 2.440 . S
Tb169 O196 2.658 . S
Tb169 O197 2.409 . S
Tb169 O198 2.378 . S
C170 Tb168 2.809 . S
C170 C171 1.514 1_556 S
C170 O188 1.248 . S
C170 O189 1.266 . S
C171 C170 1.514 1_554 S
C171 C172 1.359 . S
C171 C176 1.348 . S
C172 C171 1.359 . S
C172 C173 1.380 . S
C172 H200 0.929 . S
C173 C172 1.380 . S
C173 C174 1.347 . S
C173 H201 0.931 . S
C174 C173 1.347 . S
C174 C175 1.369 . S
C175 C174 1.369 . S
C175 C176 1.408 . S
C175 H202 0.930 . S
C176 C171 1.348 . S
C176 C175 1.408 . S
C176 H203 0.930 . S
C177 O190 1.281 . S
C177 O191 1.254 . S
C178 O192 1.236 . S
C178 O193 1.266 . S
C179 Tb169 2.809 . S
C179 C180 1.514 . S
C179 O194 1.248 . S
C179 O195 1.266 . S
C180 C179 1.514 . S
C180 C181 1.359 . S
C180 C185 1.348 . S
C181 C180 1.359 . S
C181 C182 1.380 . S
C181 H204 0.929 . S
C182 C181 1.380 . S
C182 C183 1.347 . S
C182 H205 0.931 . S
C183 C182 1.347 . S
C183 C184 1.369 . S
C184 C183 1.369 . S
C184 C185 1.408 . S
C184 H206 0.930 . S
C185 C180 1.348 . S
C185 C184 1.408 . S
C185 H207 0.930 . S
C186 O196 1.281 . S
C186 O197 1.254 . S
C187 O198 1.236 . S
C187 O199 1.266 . S
O188 Tb168 2.484 . S
O188 C170 1.248 . S
O189 Tb168 2.440 . S
O189 C170 1.266 . S
O190 Tb168 2.658 . S
O190 Tb169 2.325 . S
O190 C177 1.281 . S
O191 Tb168 2.409 . S
O191 C177 1.254 . S
O192 Tb168 2.378 . S
O192 C178 1.236 . S
O193 Tb169 2.341 . S
O193 C178 1.266 . S
O194 Tb169 2.484 . S
O194 C179 1.248 . S
O195 Tb169 2.440 . S
O195 C179 1.266 . S
O196 Tb168 2.325 . S
O196 Tb169 2.658 . S
O196 C186 1.281 . S
O197 Tb169 2.409 . S
O197 C186 1.254 . S
O198 Tb169 2.378 . S
O198 C187 1.236 . S
O199 Tb168 2.341 . S
O199 C187 1.266 . S
H200 C172 0.929 . S
H201 C173 0.931 . S
H202 C175 0.930 . S
H203 C176 0.930 . S
H204 C181 0.929 . S
H205 C182 0.931 . S
H206 C184 0.930 . S
H207 C185 0.930 . S
Tb208 C210 2.809 . S
Tb208 O228 2.484 . S
Tb208 O229 2.440 . S
Tb208 O230 2.658 1_655 S
Tb208 O231 2.409 . S
Tb208 O232 2.378 . S
Tb208 O236 2.325 . S
Tb208 O239 2.341 1_655 S
Tb209 C219 2.809 . S
Tb209 O230 2.325 . S
Tb209 O233 2.341 1_455 S
Tb209 O234 2.484 . S
Tb209 O235 2.440 . S
Tb209 O236 2.658 1_455 S
Tb209 O237 2.409 . S
Tb209 O238 2.378 . S
C210 Tb208 2.809 . S
C210 C211 1.514 1_556 S
C210 O228 1.248 . S
C210 O229 1.266 . S
C211 C210 1.514 1_554 S
C211 C212 1.359 . S
C211 C216 1.348 . S
C212 C211 1.359 . S
C212 C213 1.380 . S
C212 H240 0.929 . S
C213 C212 1.380 . S
C213 C214 1.347 . S
C213 H241 0.931 . S
C214 C213 1.347 . S
C214 C215 1.369 . S
C215 C214 1.369 . S
C215 C216 1.408 . S
C215 H242 0.930 . S
C216 C211 1.348 . S
C216 C215 1.408 . S
C216 H243 0.930 . S
C217 O230 1.277 1_655 S
C217 O231 1.259 . S
C218 O232 1.236 . S
C218 O233 1.266 . S
C219 Tb209 2.809 . S
C219 C220 1.514 . S
C219 O234 1.248 . S
C219 O235 1.266 . S
C220 C219 1.514 . S
C220 C221 1.359 . S
C220 C225 1.348 . S
C221 C220 1.359 . S
C221 C222 1.380 . S
C221 H244 0.929 . S
C222 C221 1.380 . S
C222 C223 1.347 . S
C222 H245 0.931 . S
C223 C222 1.347 . S
C223 C224 1.369 . S
C224 C223 1.369 . S
C224 C225 1.408 . S
C224 H246 0.930 . S
C225 C220 1.348 . S
C225 C224 1.408 . S
C225 H247 0.930 . S
C226 O236 1.274 1_455 S
C226 O237 1.263 . S
C227 O238 1.236 . S
C227 O239 1.266 . S
O228 Tb208 2.484 . S
O228 C210 1.248 . S
O229 Tb208 2.440 . S
O229 C210 1.266 . S
O230 Tb208 2.658 1_455 S
O230 Tb209 2.325 . S
O230 C217 1.277 1_455 S
O231 Tb208 2.409 . S
O231 C217 1.259 . S
O232 Tb208 2.378 . S
O232 C218 1.236 . S
O233 Tb209 2.341 1_655 S
O233 C218 1.266 . S
O234 Tb209 2.484 . S
O234 C219 1.248 . S
O235 Tb209 2.440 . S
O235 C219 1.266 . S
O236 Tb208 2.325 . S
O236 Tb209 2.658 1_655 S
O236 C226 1.274 1_655 S
O237 Tb209 2.409 . S
O237 C226 1.263 . S
O238 Tb209 2.378 . S
O238 C227 1.236 . S
O239 Tb208 2.341 1_455 S
O239 C227 1.266 . S
H240 C212 0.929 . S
H241 C213 0.931 . S
H242 C215 0.930 . S
H243 C216 0.930 . S
H244 C221 0.929 . S
H245 C222 0.931 . S
H246 C224 0.930 . S
H247 C225 0.930 . S
C248 C249 1.368 1_565 S
C248 C250 1.419 . S
C248 H252 0.930 . S
C249 C248 1.368 1_545 S
C249 C258 1.430 . S
C250 C248 1.419 . S
C250 C251 1.365 1_565 S
C250 H253 0.929 . S
C251 C250 1.365 1_545 S
C251 C257 1.427 . S
H252 C248 0.930 . S
H253 C250 0.929 . S
S254 N255 1.613 . S
S254 N256 1.610 . S
N255 S254 1.613 . S
N255 C258 1.350 . S
N256 S254 1.610 . S
N256 C257 1.351 . S
C257 C251 1.427 . S
C257 N256 1.351 . S
C257 C258 1.434 . S
C258 C249 1.430 . S
C258 N255 1.350 . S
C258 C257 1.434 . S
C259 C260 1.369 . S
C259 C261 1.419 . S
C259 H263 0.930 . S
C260 C259 1.369 . S
C260 C269 1.429 . S
C261 C259 1.419 . S
C261 C262 1.363 . S
C261 H264 0.929 . S
C262 C261 1.363 . S
C262 C268 1.428 . S
H263 C259 0.930 . S
H264 C261 0.929 . S
S265 N266 1.613 . S
S265 N267 1.610 . S
N266 S265 1.613 . S
N266 C269 1.350 . S
N267 S265 1.610 . S
N267 C268 1.351 . S
C268 C262 1.428 . S
C268 N267 1.351 . S
C268 C269 1.434 . S
C269 C260 1.429 . S
C269 N266 1.350 . S
C269 C268 1.434 . S
C270 C271 1.369 . S
C270 C272 1.419 . S
C270 H274 0.930 . S
C271 C270 1.369 . S
C271 C280 1.429 . S
C272 C270 1.419 . S
C272 C273 1.363 . S
C272 H275 0.929 . S
C273 C272 1.363 . S
C273 C279 1.428 . S
H274 C270 0.930 . S
H275 C272 0.929 . S
S276 N277 1.613 . S
S276 N278 1.610 . S
N277 S276 1.613 . S
N277 C280 1.350 . S
N278 S276 1.610 . S
N278 C279 1.351 . S
C279 C273 1.428 . S
C279 N278 1.351 . S
C279 C280 1.434 . S
C280 C271 1.429 . S
C280 N277 1.350 . S
C280 C279 1.434 . S
C281 C282 1.375 . S
C281 C283 1.419 . S
C281 H285 0.930 . S
C282 C281 1.375 . S
C282 C291 1.424 1_455 S
C283 C281 1.419 . S
C283 C284 1.363 . S
C283 H286 0.929 . S
C284 C283 1.363 . S
C284 C290 1.428 1_455 S
H285 C281 0.930 . S
H286 C283 0.929 . S
S287 N288 1.613 . S
S287 N289 1.610 . S
N288 S287 1.613 . S
N288 C291 1.350 . S
N289 S287 1.610 . S
N289 C290 1.351 . S
C290 C284 1.428 1_655 S
C290 N289 1.351 . S
C290 C291 1.434 . S
C291 C282 1.424 1_655 S
C291 N288 1.350 . S
C291 C290 1.434 . S
C292 C293 1.364 1_545 S
C292 C294 1.419 . S
C292 H296 0.930 . S
C293 C292 1.364 1_565 S
C293 C302 1.434 . S
C294 C292 1.419 . S
C294 C295 1.365 1_545 S
C294 H297 0.929 . S
C295 C294 1.365 1_565 S
C295 C301 1.426 . S
H296 C292 0.930 . S
H297 C294 0.929 . S
S298 N299 1.613 . S
S298 N300 1.610 . S
N299 S298 1.613 . S
N299 C302 1.350 . S
N300 S298 1.610 . S
N300 C301 1.351 . S
C301 C295 1.426 . S
C301 N300 1.351 . S
C301 C302 1.434 . S
C302 C293 1.434 . S
C302 N299 1.350 . S
C302 C301 1.434 . S
C303 C304 1.369 . S
C303 C305 1.419 . S
C303 H307 0.930 . S
C304 C303 1.369 . S
C304 C313 1.429 . S
C305 C303 1.419 . S
C305 C306 1.363 . S
C305 H308 0.929 . S
C306 C305 1.363 . S
C306 C312 1.428 . S
H307 C303 0.930 . S
H308 C305 0.929 . S
S309 N310 1.613 . S
S309 N311 1.610 1_554 S
N310 S309 1.613 . S
N310 C313 1.350 . S
N311 S309 1.610 1_556 S
N311 C312 1.351 1_556 S
C312 C306 1.428 . S
C312 N311 1.351 1_554 S
C312 C313 1.434 . S
C313 C304 1.429 . S
C313 N310 1.350 . S
C313 C312 1.434 . S
C314 C315 1.369 . S
C314 C316 1.419 . S
C314 H318 0.930 . S
C315 C314 1.369 . S
C315 C324 1.429 . S
C316 C314 1.419 . S
C316 C317 1.363 . S
C316 H319 0.929 . S
C317 C316 1.363 . S
C317 C323 1.428 . S
H318 C314 0.930 . S
H319 C316 0.929 . S
S320 N321 1.613 . S
S320 N322 1.610 1_554 S
N321 S320 1.613 . S
N321 C324 1.350 . S
N322 S320 1.610 1_556 S
N322 C323 1.351 1_556 S
C323 C317 1.428 . S
C323 N322 1.351 1_554 S
C323 C324 1.434 . S
C324 C315 1.429 . S
C324 N321 1.350 . S
C324 C323 1.434 . S
C325 C326 1.375 . S
C325 C327 1.419 . S
C325 H329 0.930 . S
C326 C325 1.375 . S
C326 C335 1.423 1_655 S
C327 C325 1.419 . S
C327 C328 1.363 . S
C327 H330 0.929 . S
C328 C327 1.363 . S
C328 C334 1.428 1_655 S
H329 C325 0.930 . S
H330 C327 0.929 . S
S331 N332 1.613 . S
S331 N333 1.610 1_554 S
N332 S331 1.613 . S
N332 C335 1.350 . S
N333 S331 1.610 1_556 S
N333 C334 1.351 1_556 S
C334 C328 1.428 1_455 S
C334 N333 1.351 1_554 S
C334 C335 1.434 . S
C335 C326 1.423 1_455 S
C335 N332 1.350 . S
C335 C334 1.434 . S
C336 C337 1.369 1_455 S
C336 C338 1.419 1_455 S
C336 H340 0.930 . S
C337 C336 1.369 1_655 S
C337 C346 1.429 . S
C338 C336 1.419 1_655 S
C338 C339 1.363 . S
C338 H341 0.929 . S
C339 C338 1.363 . S
C339 C345 1.428 . S
H340 C336 0.930 . S
H341 C338 0.929 . S
S342 N343 1.613 . S
S342 N344 1.610 . S
N343 S342 1.613 . S
N343 C346 1.350 . S
N344 S342 1.610 . S
N344 C345 1.351 . S
C345 C339 1.428 . S
C345 N344 1.351 . S
C345 C346 1.434 . S
C346 C337 1.429 . S
C346 N343 1.350 . S
C346 C345 1.434 . S
C347 C348 1.369 . S
C347 C349 1.419 . S
C347 H351 0.930 . S
C348 C347 1.369 . S
C348 C357 1.429 1_565 S
C349 C347 1.419 . S
C349 C350 1.363 . S
C349 H352 0.929 . S
C350 C349 1.363 . S
C350 C356 1.428 . S
H351 C347 0.930 . S
H352 C349 0.929 . S
S353 N354 1.613 . S
S353 N355 1.610 . S
N354 S353 1.613 . S
N354 C357 1.350 . S
N355 S353 1.610 . S
N355 C356 1.351 1_545 S
C356 C350 1.428 . S
C356 N355 1.351 1_565 S
C356 C357 1.434 1_565 S
C357 C348 1.429 1_545 S
C357 N354 1.350 . S
C357 C356 1.434 1_545 S
C358 C359 1.369 . S
C358 C360 1.419 . S
C358 H362 0.930 . S
C359 C358 1.369 . S
C359 C368 1.429 . S
C360 C358 1.419 . S
C360 C361 1.363 . S
C360 H363 0.929 . S
C361 C360 1.363 . S
C361 C367 1.428 . S
H362 C358 0.930 . S
H363 C360 0.929 . S
S364 N365 1.613 . S
S364 N366 1.610 . S
N365 S364 1.613 . S
N365 C368 1.350 . S
N366 S364 1.610 . S
N366 C367 1.351 . S
C367 C361 1.428 . S
C367 N366 1.351 . S
C367 C368 1.434 . S
C368 C359 1.429 . S
C368 N365 1.350 . S
C368 C367 1.434 . S
C369 C370 1.369 . S
C369 C371 1.419 . S
C369 H373 0.930 . S
C370 C369 1.369 . S
C370 C379 1.429 . S
C371 C369 1.419 . S
C371 C372 1.363 . S
C371 H374 0.929 . S
C372 C371 1.363 . S
C372 C378 1.428 . S
H373 C369 0.930 . S
H374 C371 0.929 . S
S375 N376 1.613 . S
S375 N377 1.610 . S
N376 S375 1.613 . S
N376 C379 1.350 . S
N377 S375 1.610 . S
N377 C378 1.351 . S
C378 C372 1.428 . S
C378 N377 1.351 . S
C378 C379 1.434 . S
C379 C370 1.429 . S
C379 N376 1.350 . S
C379 C378 1.434 . S
C380 C381 1.369 1_655 S
C380 C382 1.419 1_655 S
C380 H384 0.930 . S
C381 C380 1.369 1_455 S
C381 C390 1.429 . S
C382 C380 1.419 1_455 S
C382 C383 1.363 . S
C382 H385 0.929 . S
C383 C382 1.363 . S
C383 C389 1.428 . S
H384 C380 0.930 . S
H385 C382 0.929 . S
S386 N387 1.613 . S
S386 N388 1.610 . S
N387 S386 1.613 . S
N387 C390 1.350 . S
N388 S386 1.610 . S
N388 C389 1.351 . S
C389 C383 1.428 . S
C389 N388 1.351 . S
C389 C390 1.434 . S
C390 C381 1.429 . S
C390 N387 1.350 . S
C390 C389 1.434 . S
C391 C392 1.369 1_565 S
C391 C393 1.419 1_565 S
C391 H395 0.930 . S
C392 C391 1.369 1_545 S
C392 C401 1.429 . S
C393 C391 1.419 1_545 S
C393 C394 1.363 . S
C393 H396 0.928 . S
C394 C393 1.363 . S
C394 C400 1.428 . S
H395 C391 0.930 . S
H396 C393 0.928 . S
S397 N398 1.613 . S
S397 N399 1.610 . S
N398 S397 1.613 . S
N398 C401 1.350 . S
N399 S397 1.610 . S
N399 C400 1.351 . S
C400 C394 1.428 . S
C400 N399 1.351 . S
C400 C401 1.434 . S
C401 C392 1.429 . S
C401 N398 1.350 . S
C401 C400 1.434 . S
C402 C403 1.369 . S
C402 C404 1.419 . S
C402 H406 0.930 . S
C403 C402 1.369 . S
C403 C412 1.429 . S
C404 C402 1.419 . S
C404 C405 1.363 . S
C404 H407 0.929 . S
C405 C404 1.363 . S
C405 C411 1.428 . S
H406 C402 0.930 . S
H407 C404 0.929 . S
S408 N409 1.613 . S
S408 N410 1.610 . S
N409 S408 1.613 . S
N409 C412 1.350 . S
N410 S408 1.610 . S
N410 C411 1.351 . S
C411 C405 1.428 . S
C411 N410 1.351 . S
C411 C412 1.434 . S
C412 C403 1.429 . S
C412 N409 1.350 . S
C412 C411 1.434 . S
C413 C414 1.369 . S
C413 C415 1.419 . S
C413 H417 0.930 . S
C414 C413 1.369 . S
C414 C423 1.429 . S
C415 C413 1.419 . S
C415 C416 1.363 . S
C415 H418 0.929 . S
C416 C415 1.363 . S
C416 C422 1.428 . S
H417 C413 0.930 . S
H418 C415 0.929 . S
S419 N420 1.613 . S
S419 N421 1.610 . S
N420 S419 1.613 . S
N420 C423 1.350 . S
N421 S419 1.610 . S
N421 C422 1.351 . S
C422 C416 1.428 . S
C422 N421 1.351 . S
C422 C423 1.434 . S
C423 C414 1.429 . S
C423 N420 1.350 . S
C423 C422 1.434 . S
C424 C425 1.369 1_655 S
C424 C426 1.419 . S
C424 H428 0.930 . S
C425 C424 1.369 1_455 S
C425 C434 1.429 . S
C426 C424 1.419 . S
C426 C427 1.363 1_655 S
C426 H429 0.929 . S
C427 C426 1.363 1_455 S
C427 C433 1.428 . S
H428 C424 0.930 . S
H429 C426 0.929 . S
S430 N431 1.613 . S
S430 N432 1.610 . S
N431 S430 1.613 . S
N431 C434 1.350 . S
N432 S430 1.610 . S
N432 C433 1.351 . S
C433 C427 1.428 . S
C433 N432 1.351 . S
C433 C434 1.434 . S
C434 C425 1.429 . S
C434 N431 1.350 . S
C434 C433 1.434 . S
C435 C436 1.369 . S
C435 C437 1.419 . S
C435 H439 0.930 . S
C436 C435 1.369 . S
C436 C445 1.429 . S
C437 C435 1.419 . S
C437 C438 1.363 . S
C437 H440 0.929 . S
C438 C437 1.363 . S
C438 C444 1.428 . S
H439 C435 0.930 . S
H440 C437 0.929 . S
S441 N442 1.613 . S
S441 N443 1.610 1_565 S
N442 S441 1.613 . S
N442 C445 1.350 1_565 S
N443 S441 1.610 1_545 S
N443 C444 1.351 . S
C444 C438 1.428 . S
C444 N443 1.351 . S
C444 C445 1.434 . S
C445 C436 1.429 . S
C445 N442 1.350 1_545 S
C445 C444 1.434 . S
C446 C447 1.369 . S
C446 C448 1.419 . S
C446 H450 0.930 . S
C447 C446 1.369 . S
C447 C456 1.429 . S
C448 C446 1.419 . S
C448 C449 1.363 . S
C448 H451 0.929 . S
C449 C448 1.363 . S
C449 C455 1.428 . S
H450 C446 0.930 . S
H451 C448 0.929 . S
S452 N453 1.613 . S
S452 N454 1.610 . S
N453 S452 1.613 . S
N453 C456 1.350 . S
N454 S452 1.610 . S
N454 C455 1.351 . S
C455 C449 1.428 . S
C455 N454 1.351 . S
C455 C456 1.434 . S
C456 C447 1.429 . S
C456 N453 1.350 . S
C456 C455 1.434 . S
C457 C458 1.369 . S
C457 C459 1.419 . S
C457 H461 0.930 . S
C458 C457 1.369 . S
C458 C467 1.429 . S
C459 C457 1.419 . S
C459 C460 1.363 . S
C459 H462 0.929 . S
C460 C459 1.363 . S
C460 C466 1.428 . S
H461 C457 0.930 . S
H462 C459 0.929 . S
S463 N464 1.613 . S
S463 N465 1.610 . S
N464 S463 1.613 . S
N464 C467 1.350 . S
N465 S463 1.610 . S
N465 C466 1.351 . S
C466 C460 1.428 . S
C466 N465 1.351 . S
C466 C467 1.434 . S
C467 C458 1.429 . S
C467 N464 1.350 . S
C467 C466 1.434 . S
C468 C469 1.369 1_455 S
C468 C470 1.419 . S
C468 H472 0.930 . S
C469 C468 1.369 1_655 S
C469 C478 1.429 . S
C470 C468 1.419 . S
C470 C471 1.363 1_455 S
C470 H473 0.929 . S
C471 C470 1.363 1_655 S
C471 C477 1.428 . S
H472 C468 0.930 . S
H473 C470 0.929 . S
S474 N475 1.613 . S
S474 N476 1.610 . S
N475 S474 1.613 . S
N475 C478 1.350 . S
N476 S474 1.610 . S
N476 C477 1.351 . S
C477 C471 1.428 . S
C477 N476 1.351 . S
C477 C478 1.434 . S
C478 C469 1.429 . S
C478 N475 1.350 . S
C478 C477 1.434 . S
C479 C480 1.369 . S
C479 C481 1.419 . S
C479 H483 0.930 . S
C480 C479 1.369 . S
C480 C489 1.431 . S
C481 C479 1.419 . S
C481 C482 1.363 . S
C481 H484 0.929 . S
C482 C481 1.363 . S
C482 C488 1.428 . S
H483 C479 0.930 . S
H484 C481 0.929 . S
S485 N486 1.613 1_554 S
S485 N487 1.606 1_544 S
N486 S485 1.613 1_556 S
N486 C489 1.346 1_545 S
N487 S485 1.606 1_566 S
N487 C488 1.354 . S
C488 C482 1.428 . S
C488 N487 1.354 . S
C488 C489 1.436 . S
C489 C480 1.431 . S
C489 N486 1.346 1_565 S
C489 C488 1.436 . S
C490 C491 1.369 . S
C490 C492 1.419 . S
C490 H494 0.930 . S
C491 C490 1.369 . S
C491 C500 1.429 . S
C492 C490 1.419 . S
C492 C493 1.363 . S
C492 H495 0.929 . S
C493 C492 1.363 . S
C493 C499 1.428 . S
H494 C490 0.930 . S
H495 C492 0.929 . S
S496 N497 1.613 . S
S496 N498 1.610 . S
N497 S496 1.613 . S
N497 C500 1.350 . S
N498 S496 1.610 . S
N498 C499 1.351 . S
C499 C493 1.428 . S
C499 N498 1.351 . S
C499 C500 1.434 . S
C500 C491 1.429 . S
C500 N497 1.350 . S
C500 C499 1.434 . S
C501 C502 1.369 . S
C501 C503 1.419 . S
C501 H505 0.930 . S
C502 C501 1.369 . S
C502 C511 1.429 . S
C503 C501 1.419 . S
C503 C504 1.363 . S
C503 H506 0.929 . S
C504 C503 1.363 . S
C504 C510 1.428 . S
H505 C501 0.930 . S
H506 C503 0.929 . S
S507 N508 1.613 . S
S507 N509 1.610 . S
N508 S507 1.613 . S
N508 C511 1.350 . S
N509 S507 1.610 . S
N509 C510 1.351 . S
C510 C504 1.428 . S
C510 N509 1.351 . S
C510 C511 1.434 . S
C511 C502 1.429 . S
C511 N508 1.350 . S
C511 C510 1.434 . S
C249 C74 1.912 . S
C251 C97 2.121 1_545 S
C262 C137 2.142 . S
C260 C85 1.920 . S
C273 C177 2.151 . S
C271 C52 1.933 . S
C284 C217 2.130 1_455 S
C282 C63 1.934 . S
C295 C106 2.123 1_564 S
C293 C30 1.921 1_565 S
C304 C41 1.944 . S
C306 C146 2.143 1_554 S
C315 C8 1.959 . S
C317 C186 2.151 1_554 S
C326 C19 1.923 1_655 S
C328 C226 2.130 1_654 S
C339 C103 0.841 . S
C337 C62 0.849 1_655 S
C350 C143 0.826 . S
C348 C73 0.861 1_565 S
C361 C183 0.826 . S
C359 C84 0.841 . S
C370 C51 0.836 . S
C372 C223 0.825 . S
C381 C18 0.804 . S
C383 C94 0.844 . S
C394 C134 0.842 . S
C392 C29 0.806 . S
C405 C174 0.831 . S
C403 C40 0.803 . S
C414 C7 0.823 . S
C416 C214 0.815 . S
C425 C60 1.939 . S
C427 C107 2.559 . S
C436 C71 1.900 . S
C438 C147 2.522 . S
C449 C187 2.507 . S
C447 C82 1.851 . S
C460 C227 2.548 . S
C458 C49 1.886 . S
C469 C16 2.035 1_655 S
C471 C98 2.569 . S
C482 C138 2.523 . S
C480 C27 2.006 1_565 S
C493 C178 2.508 . S
C491 C38 2.027 . S
C502 C5 2.070 . S
C504 C218 2.555 . S
