# Generated by pormake.
# Topology tsx, (6,3)-cn, num edge types: 1
# Building blocks:
#     Node 0, Type 0, BuildingBlock: JUFBIX_clean_sbu_0, # of connection points: 6
#     Node 1, Type 0, BuildingBlock: JUFBIX_clean_sbu_0, # of connection points: 6
#     Node 2, Type 1, BuildingBlock: OLANEW_clean_sbu_2, # of connection points: 3
#     Node 3, Type 1, BuildingBlock: OLANEW_clean_sbu_2, # of connection points: 3
#     Node 4, Type 1, BuildingBlock: OLANEW_clean_sbu_2, # of connection points: 3
#     Node 5, Type 1, BuildingBlock: OLANEW_clean_sbu_2, # of connection points: 3
#     Edge 6, Type (0, 1), BuildingBlock: FUNLAD_clean_linker_1, # of connection points: 2
#     Edge 7, Type (0, 1), BuildingBlock: FUNLAD_clean_linker_1, # of connection points: 2
#     Edge 8, Type (0, 1), BuildingBlock: FUNLAD_clean_linker_1, # of connection points: 2
#     Edge 9, Type (0, 1), BuildingBlock: FUNLAD_clean_linker_1, # of connection points: 2
#     Edge 10, Type (0, 1), BuildingBlock: FUNLAD_clean_linker_1, # of connection points: 2
#     Edge 11, Type (0, 1), BuildingBlock: FUNLAD_clean_linker_1, # of connection points: 2
#     Edge 12, Type (0, 1), BuildingBlock: FUNLAD_clean_linker_1, # of connection points: 2
#     Edge 13, Type (0, 1), BuildingBlock: FUNLAD_clean_linker_1, # of connection points: 2
#     Edge 14, Type (0, 1), BuildingBlock: FUNLAD_clean_linker_1, # of connection points: 2
#     Edge 15, Type (0, 1), BuildingBlock: FUNLAD_clean_linker_1, # of connection points: 2
#     Edge 16, Type (0, 1), BuildingBlock: FUNLAD_clean_linker_1, # of connection points: 2
#     Edge 17, Type (0, 1), BuildingBlock: FUNLAD_clean_linker_1, # of connection points: 2
# Relax obj value: 0.062
# Max RMSD: 0.104
# Mean RMSD: 0.074
data_MOF--net-tsx--node1-JUFBIX_clean_sbu_0--node2-OLANEW_clean_sbu_2--edge1-FUNLAD_clean_linker_1
_symmetry_space_group_name_H-M    P1
_symmetry_Int_Tables_number       1
_symmetry_cell_setting            triclinic
loop_
_symmetry_equiv_pos_as_xyz
'x, y, z'
_cell_length_a     22.938235
_cell_length_b     26.719832
_cell_length_c     34.855996
_cell_angle_alpha  97.767294
_cell_angle_beta   89.22213
_cell_angle_gamma 98.240488
loop_
_atom_site_label
_atom_site_type_symbol
_atom_site_fract_x
_atom_site_fract_y
_atom_site_fract_z
_atom_type_partial_charge
Co0 Co 0.00857 0.96226 0.99364 0.0
C1 C 0.95871 0.99757 0.93202 0.0
Co2 Co 0.94998 0.02039 0.01146 0.0
C3 C 0.10911 0.90751 0.99313 0.0
C4 C 0.04434 0.87287 0.95035 0.0
N5 N 0.0566 0.91299 0.97832 0.0
N6 N 0.12978 0.86535 0.97577 0.0
C7 C 0.08918 0.84355 0.94865 0.0
H8 H 0.13138 0.93354 0.01666 0.0
H9 H 0.00494 0.86513 0.93258 0.0
C10 C 1.00093 0.98598 0.07309 0.0
N11 N 0.90087 0.06894 0.0269 0.0
C12 C 0.8945 0.11159 0.0114 0.0
C13 C 0.86069 0.06694 0.05547 0.0
N14 N 0.85136 0.13572 0.02877 0.0
C15 C 0.83021 0.10788 0.05672 0.0
C16 C 0.89185 0.92121 0.00394 0.0
O17 O 0.02495 0.95882 0.04645 0.0
O18 O 0.96627 0.01579 0.06422 0.0
O19 O 0.88486 0.96774 0.0119 0.0
O20 O 0.94273 0.90998 0.9949 0.0
O21 O 0.93448 0.02448 0.95872 0.0
H22 H 0.85341 0.03714 0.07386 0.0
H23 H 0.91999 0.12406 0.98718 0.0
O24 O 0.99229 0.96683 0.94082 0.0
O25 O 0.07353 0.01474 0.99274 0.0
O26 O 0.01582 0.07261 0.01078 0.0
C27 C 0.0666 0.06127 0.00129 0.0
H28 H 0.09137 0.80904 0.92886 0.0
H29 H 0.79534 0.11632 0.07671 0.0
Co30 Co 0.53941 0.49004 0.5076 0.0
C31 C 0.50327 0.53107 0.44427 0.0
Co32 Co 0.4868 0.55341 0.5228 0.0
C33 C 0.63153 0.42571 0.5084 0.0
C34 C 0.56477 0.39606 0.46572 0.0
N35 N 0.58085 0.4356 0.49361 0.0
N36 N 0.6474 0.38141 0.49102 0.0
C37 C 0.60547 0.36276 0.464 0.0
H38 H 0.65625 0.45042 0.53161 0.0
H39 H 0.52585 0.39175 0.44772 0.0
C40 C 0.5243 0.51254 0.58598 0.0
N41 N 0.44464 0.60758 0.53654 0.0
C42 C 0.39728 0.61878 0.5185 0.0
C43 C 0.45576 0.64512 0.5666 0.0
N44 N 0.37851 0.66177 0.53599 0.0
C45 C 0.41527 0.6785 0.56636 0.0
C46 C 0.41798 0.45961 0.51197 0.0
O47 O 0.54838 0.48394 0.56038 0.0
O48 O 0.4945 0.54534 0.57592 0.0
O49 O 0.41598 0.50713 0.51958 0.0
O50 O 0.46745 0.44384 0.50572 0.0
O51 O 0.47995 0.56064 0.46964 0.0
H52 H 0.49145 0.64831 0.58716 0.0
H53 H 0.37719 0.59606 0.49271 0.0
O54 O 0.53065 0.49704 0.45474 0.0
O55 O 0.61039 0.53672 0.51009 0.0
O56 O 0.55834 0.59935 0.52607 0.0
C57 C 0.60793 0.58406 0.51945 0.0
H58 H 0.60425 0.32797 0.44401 0.0
H59 H 0.41385 0.71261 0.58674 0.0
O60 O 0.99512 0.96333 0.39295 0.0
Cd61 Cd 0.00585 0.9702 0.4634 0.0
O62 O 0.04456 0.03921 0.38772 0.0
Cd63 Cd 0.03331 0.07044 0.44824 0.0
O64 O 0.98347 0.12841 0.47771 0.0
C65 C 0.93082 0.1149 0.48799 0.0
O66 O 0.90969 0.06615 0.48409 0.0
C67 C 0.01936 0.99587 0.3721 0.0
C68 C 0.09065 0.91218 0.48306 0.0
O69 O 0.03685 0.89192 0.47722 0.0
O70 O 0.10433 0.95963 0.47993 0.0
O71 O 0.98207 0.08858 0.63755 0.0
Cd72 Cd 0.9768 0.11198 0.57237 0.0
O73 O 0.01814 0.02062 0.61102 0.0
Cd74 Cd 0.04069 0.94435 0.61252 0.0
O75 O 0.01134 0.86251 0.6017 0.0
C76 C 0.97421 0.8497 0.57422 0.0
O77 O 0.96031 0.88506 0.55461 0.0
C78 C 1.00076 0.04686 0.64098 0.0
C79 C 0.0807 0.16872 0.5515 0.0
O80 O 0.03854 0.19076 0.56723 0.0
O81 O 0.07385 0.11988 0.54561 0.0
O82 O 0.5193 0.49247 0.90466 0.0
Cd83 Cd 0.54198 0.50025 0.9735 0.0
O84 O 0.5736 0.56579 0.89827 0.0
Cd85 Cd 0.55976 0.59707 0.95823 0.0
O86 O 0.4992 0.64907 0.98281 0.0
C87 C 0.4468 0.63034 0.9902 0.0
O88 O 0.43255 0.58056 0.98662 0.0
C89 C 0.54475 0.52367 0.88322 0.0
C90 C 0.59805 0.41853 0.98852 0.0
O91 O 0.54197 0.41614 0.9903 0.0
O92 O 0.62814 0.45948 0.97953 0.0
O93 O 0.51669 0.51638 0.12906 0.0
Cd94 Cd 0.51585 0.51699 0.0591 0.0
O95 O 0.53841 0.4381 0.12467 0.0
Cd96 Cd 0.50665 0.4172 0.06532 0.0
O97 O 0.43277 0.36707 0.03536 0.0
C98 C 0.38382 0.38348 0.03278 0.0
O99 O 0.3802 0.43163 0.04486 0.0
C100 C 0.53159 0.47999 0.14498 0.0
C101 C 0.60573 0.59098 0.03926 0.0
O102 O 0.55396 0.60201 0.04717 0.0
O103 O 0.61504 0.54513 0.04049 0.0
H104 H 0.16091 0.08933 0.995 0.0
C105 C 0.11783 0.10126 0.00041 0.0
H106 H 0.07064 0.16385 0.01261 0.0
H107 H 0.29462 0.30897 0.08796 0.0
H108 H 0.23354 0.29762 0.1442 0.0
H109 H 0.14092 0.23746 0.13899 0.0
H110 H 0.10904 0.1881 0.07749 0.0
C111 C 0.11315 0.15125 0.00624 0.0
C112 C 0.16651 0.19048 0.00819 0.0
C113 C 0.18371 0.22008 0.04417 0.0
C114 C 0.23674 0.25525 0.04705 0.0
C115 C 0.25411 0.28263 0.08377 0.0
C116 C 0.2196 0.27627 0.11642 0.0
C117 C 0.16749 0.24237 0.1135 0.0
C118 C 0.14966 0.21435 0.07795 0.0
H119 H 0.28816 0.36345 0.02228 0.0
C120 C 0.3294 0.34783 0.0222 0.0
H121 H 0.3691 0.28048 0.0167 0.0
H122 H 0.14292 0.14392 0.93394 0.0
H123 H 0.2042 0.15522 0.87759 0.0
H124 H 0.29691 0.21527 0.88285 0.0
H125 H 0.32897 0.26451 0.94457 0.0
C126 C 0.32843 0.29696 0.01697 0.0
C127 C 0.27189 0.2615 0.01372 0.0
C128 C 0.25418 0.23255 0.97763 0.0
C129 C 0.20113 0.19734 0.97474 0.0
C130 C 0.18359 0.17012 0.93804 0.0
C131 C 0.21812 0.17653 0.90538 0.0
C132 C 0.27032 0.21038 0.90834 0.0
C133 C 0.28827 0.2383 0.94393 0.0
H134 H 0.21512 0.87351 0.00484 0.0
C135 C 0.18411 0.84826 0.98516 0.0
H136 H 0.16729 0.77621 0.95076 0.0
H137 H 0.42519 0.73256 0.92366 0.0
H138 H 0.40436 0.75891 0.86208 0.0
H139 H 0.31541 0.79822 0.8531 0.0
H140 H 0.24654 0.81113 0.90571 0.0
C141 C 0.19716 0.80189 0.97074 0.0
C142 C 0.25448 0.78496 0.97848 0.0
C143 C 0.29503 0.77866 0.94775 0.0
C144 C 0.34678 0.75671 0.95313 0.0
C145 C 0.38557 0.74962 0.92148 0.0
C146 C 0.37412 0.76451 0.88587 0.0
C147 C 0.32401 0.78657 0.8808 0.0
C148 C 0.28476 0.79362 0.91123 0.0
H149 H 0.35514 0.64418 0.00027 0.0
C150 C 0.39978 0.66291 0.99656 0.0
H151 H 0.45284 0.73166 0.9877 0.0
H152 H 0.18623 0.79171 0.04366 0.0
H153 H 0.20959 0.76938 0.10625 0.0
H154 H 0.30195 0.73557 0.11646 0.0
H155 H 0.37118 0.72321 0.06387 0.0
C156 C 0.40883 0.71297 0.99318 0.0
C157 C 0.35804 0.74117 0.98934 0.0
C158 C 0.31912 0.75002 0.02071 0.0
C159 C 0.26681 0.77122 0.01514 0.0
C160 C 0.22734 0.77714 0.04647 0.0
C161 C 0.24011 0.76428 0.08255 0.0
C162 C 0.29205 0.74512 0.08828 0.0
C163 C 0.33123 0.73795 0.05782 0.0
H164 H 0.79917 0.893 0.01587 0.0
C165 C 0.84141 0.88111 0.00736 0.0
H166 H 0.88811 0.8184 0.99342 0.0
H167 H 0.66583 0.72324 0.09845 0.0
H168 H 0.71374 0.78087 0.15223 0.0
H169 H 0.80084 0.84309 0.14163 0.0
H170 H 0.84016 0.84844 0.07725 0.0
C171 C 0.84664 0.83119 0.00268 0.0
C172 C 0.79589 0.79198 0.00957 0.0
C173 C 0.77405 0.78885 0.04761 0.0
C174 C 0.72462 0.75221 0.05386 0.0
C175 C 0.70337 0.75023 0.09206 0.0
C176 C 0.73052 0.78301 0.12323 0.0
C177 C 0.77948 0.8181 0.11725 0.0
C178 C 0.80133 0.82102 0.08002 0.0
H179 H 0.69675 0.61779 0.02236 0.0
C180 C 0.65402 0.6297 0.02925 0.0
H181 H 0.60549 0.69181 0.03751 0.0
H182 H 0.82767 0.78687 0.93336 0.0
H183 H 0.78069 0.72811 0.87975 0.0
H184 H 0.69508 0.66447 0.89067 0.0
H185 H 0.65609 0.65911 0.95525 0.0
C186 C 0.64729 0.67885 0.02938 0.0
C187 C 0.69814 0.71779 0.0223 0.0
C188 C 0.72041 0.72046 0.98436 0.0
C189 C 0.76951 0.75744 0.97803 0.0
C190 C 0.79061 0.75945 0.93982 0.0
C191 C 0.764 0.72601 0.90878 0.0
C192 C 0.71582 0.69016 0.91492 0.0
C193 C 0.69401 0.68733 0.95218 0.0
H194 H 0.86073 0.2049 0.00089 0.0
C195 C 0.83202 0.1812 0.01842 0.0
H196 H 0.74937 0.17038 0.04576 0.0
H197 H 0.69174 0.39375 0.0671 0.0
H198 H 0.70901 0.38164 0.1335 0.0
H199 H 0.74963 0.3057 0.14821 0.0
H200 H 0.7731 0.24136 0.09667 0.0
C201 C 0.77857 0.19384 0.02846 0.0
C202 C 0.75805 0.24124 0.0188 0.0
C203 C 0.74473 0.27869 0.0493 0.0
C204 C 0.72138 0.32257 0.04086 0.0
C205 C 0.70891 0.35944 0.07189 0.0
C206 C 0.71885 0.35308 0.11015 0.0
C207 C 0.7417 0.31032 0.11843 0.0
C208 C 0.75475 0.27354 0.08852 0.0
H209 H 0.59874 0.34291 0.00713 0.0
C210 C 0.62647 0.37507 0.99715 0.0
H211 H 0.71293 0.40486 0.98203 0.0
H212 H 0.77308 0.17496 0.95309 0.0
H213 H 0.75784 0.18851 0.88693 0.0
H214 H 0.72224 0.2668 0.87245 0.0
H215 H 0.7009 0.33178 0.9243 0.0
C216 C 0.68463 0.37387 0.99306 0.0
C217 C 0.71142 0.32909 0.00193 0.0
C218 C 0.72598 0.29241 0.97138 0.0
C219 C 0.74826 0.24795 0.97975 0.0
C220 C 0.75852 0.21043 0.94858 0.0
C221 C 0.74941 0.2175 0.91036 0.0
C222 C 0.72924 0.26153 0.90221 0.0
C223 C 0.71727 0.29854 0.93224 0.0
H224 H 0.65634 0.66166 0.53093 0.0
C225 C 0.6617 0.62162 0.52425 0.0
H226 H 0.72284 0.56889 0.5156 0.0
H227 H 0.92466 0.74567 0.47682 0.0
H228 H 0.91444 0.69007 0.41539 0.0
H229 H 0.83722 0.61499 0.40589 0.0
H230 H 0.77002 0.59478 0.45784 0.0
C231 C 0.71616 0.60851 0.52281 0.0
C232 C 0.76835 0.64862 0.53032 0.0
C233 C 0.80754 0.65946 0.49983 0.0
C234 C 0.8515 0.70313 0.50514 0.0
C235 C 0.88994 0.71336 0.47413 0.0
C236 C 0.88467 0.68169 0.43878 0.0
C237 C 0.84122 0.63938 0.43345 0.0
C238 C 0.80292 0.62824 0.46349 0.0
H239 H 0.95327 0.76945 0.5852 0.0
C240 C 0.94184 0.79747 0.56778 0.0
H241 H 0.884 0.81322 0.52578 0.0
H242 H 0.7098 0.63128 0.59723 0.0
H243 H 0.71881 0.68693 0.65858 0.0
H244 H 0.78873 0.76694 0.66631 0.0
H245 H 0.85075 0.7911 0.61331 0.0
C246 C 0.89508 0.78572 0.54379 0.0
C247 C 0.85589 0.73595 0.54083 0.0
C248 C 0.81859 0.72355 0.57207 0.0
C249 C 0.77599 0.67893 0.56706 0.0
C250 C 0.74107 0.66594 0.59906 0.0
C251 C 0.74607 0.69734 0.6345 0.0
C252 C 0.78559 0.74225 0.63888 0.0
C253 C 0.82135 0.75549 0.60815 0.0
H254 H 0.73282 0.38324 0.51872 0.0
C255 C 0.69945 0.36013 0.49952 0.0
H256 H 0.67552 0.2891 0.46478 0.0
H257 H 0.92377 0.22831 0.42837 0.0
H258 H 0.90472 0.26171 0.36928 0.0
H259 H 0.82156 0.30985 0.3648 0.0
H260 H 0.75673 0.32465 0.41945 0.0
C261 C 0.70787 0.31267 0.48429 0.0
C262 C 0.76338 0.29161 0.48995 0.0
C263 C 0.8018 0.28428 0.45813 0.0
C264 C 0.85026 0.25715 0.46094 0.0
C265 C 0.88673 0.24915 0.42817 0.0
C266 C 0.87626 0.26808 0.39396 0.0
C267 C 0.8294 0.29512 0.39142 0.0
C268 C 0.79244 0.30319 0.42298 0.0
H269 H 0.84439 0.13853 0.503 0.0
C270 C 0.89028 0.15287 0.49802 0.0
H271 H 0.95133 0.21752 0.48993 0.0
H272 H 0.69978 0.30056 0.557 0.0
H273 H 0.72199 0.27129 0.61736 0.0
H274 H 0.80878 0.22783 0.62314 0.0
H275 H 0.8735 0.21274 0.56832 0.0
C276 C 0.90607 0.203 0.49639 0.0
C277 C 0.86032 0.23737 0.49568 0.0
C278 C 0.82421 0.24765 0.52835 0.0
C279 C 0.7752 0.2742 0.52535 0.0
C280 C 0.7383 0.28167 0.55788 0.0
C281 C 0.75048 0.26496 0.5927 0.0
C282 C 0.79927 0.24037 0.59593 0.0
C283 C 0.83586 0.2317 0.56422 0.0
H284 H 0.32234 0.43917 0.51899 0.0
C285 C 0.36322 0.42353 0.5128 0.0
H286 H 0.40355 0.35662 0.5044 0.0
H287 H 0.20765 0.2403 0.6033 0.0
H288 H 0.29289 0.25147 0.64558 0.0
H289 H 0.38612 0.3024 0.62935 0.0
H290 H 0.39464 0.34242 0.57075 0.0
C291 C 0.36274 0.37279 0.50893 0.0
C292 C 0.30808 0.33838 0.51649 0.0
C293 C 0.30434 0.31425 0.55044 0.0
C294 C 0.2507 0.28465 0.55969 0.0
C295 C 0.24756 0.26246 0.59448 0.0
C296 C 0.29611 0.26877 0.61914 0.0
C297 C 0.34858 0.29745 0.61001 0.0
C298 C 0.35287 0.32015 0.5762 0.0
H299 H 0.17193 0.17773 0.52975 0.0
C300 C 0.13635 0.19835 0.54085 0.0
H301 H 0.10874 0.27076 0.55483 0.0
H302 H 0.30267 0.37458 0.44697 0.0
H303 H 0.21743 0.36314 0.40451 0.0
H304 H 0.12378 0.31319 0.42122 0.0
H305 H 0.11491 0.27409 0.48038 0.0
C306 C 0.14437 0.24955 0.54493 0.0
C307 C 0.20119 0.2788 0.5347 0.0
C308 C 0.20533 0.30201 0.50036 0.0
C309 C 0.25902 0.33145 0.49102 0.0
C310 C 0.26249 0.35294 0.45594 0.0
C311 C 0.214 0.34639 0.43119 0.0
C312 C 0.16129 0.31821 0.44057 0.0
C313 C 0.15677 0.29607 0.47466 0.0
H314 H 0.30725 0.66691 0.49642 0.0
C315 C 0.33045 0.68479 0.52287 0.0
H316 H 0.33479 0.74563 0.56887 0.0
H317 H 0.19592 0.83751 0.43398 0.0
H318 H 0.28649 0.83649 0.39743 0.0
H319 H 0.36908 0.79862 0.42068 0.0
H320 H 0.36114 0.76059 0.48013 0.0
C321 C 0.31403 0.72794 0.54168 0.0
C322 C 0.26477 0.75171 0.52752 0.0
C323 C 0.27108 0.77558 0.4934 0.0
C324 C 0.22456 0.79979 0.481 0.0
C325 C 0.23081 0.82074 0.4457 0.0
C326 C 0.28241 0.82005 0.42424 0.0
C327 C 0.32882 0.79855 0.43725 0.0
C328 C 0.32351 0.77656 0.47139 0.0
H329 H 0.18024 0.90252 0.50004 0.0
C330 C 0.13635 0.88224 0.49297 0.0
H331 H 0.08202 0.81078 0.48663 0.0
H332 H 0.2372 0.7078 0.59315 0.0
H333 H 0.1471 0.71007 0.63023 0.0
H334 H 0.06795 0.75455 0.60995 0.0
H335 H 0.07836 0.79682 0.55244 0.0
C336 C 0.12599 0.83135 0.49285 0.0
C337 C 0.17291 0.8023 0.5037 0.0
C338 C 0.16618 0.77757 0.53736 0.0
C339 C 0.21211 0.75234 0.54927 0.0
C340 C 0.20404 0.72799 0.58301 0.0
C341 C 0.15247 0.72889 0.60453 0.0
C342 C 0.1079 0.75388 0.5931 0.0
C343 C 0.11445 0.77802 0.55998 0.0
H344 H 0.05501 0.96883 0.12015 0.0
C345 C 0.01513 0.9839 0.11388 0.0
H346 H 0.94062 0.015 0.13663 0.0
H347 H 0.06275 0.91904 0.28067 0.0
H348 H 0.04824 0.83732 0.23973 0.0
H349 H 0.00574 0.82922 0.17416 0.0
H350 H 0.97983 0.90311 0.14866 0.0
C351 C 0.98039 0.99983 0.14302 0.0
C352 C 0.99749 1.00224 0.18447 0.0
C353 C 0.00794 0.95777 0.19996 0.0
C354 C 0.02761 0.96159 0.23896 0.0
C355 C 0.04375 0.91767 0.25227 0.0
C356 C 0.03623 0.87059 0.22891 0.0
C357 C 0.01265 0.86609 0.19192 0.0
C358 C 0.99853 0.90899 0.17748 0.0
H359 H 0.97783 0.95528 0.31786 0.0
C360 C 0.01281 0.98504 0.32961 0.0
H361 H 0.08053 0.04262 0.31762 0.0
H362 H 0.9838 0.09545 0.16382 0.0
H363 H 0.99088 0.17566 0.20616 0.0
H364 H 0.01421 0.18051 0.27552 0.0
H365 H 0.03175 0.10546 0.30275 0.0
C366 C 0.04583 0.01276 0.30565 0.0
C367 C 0.03115 0.00885 0.26361 0.0
C368 C 0.01913 0.05303 0.24837 0.0
C369 C 1.00345 0.04989 0.20866 0.0
C370 C 0.99421 0.09512 0.19395 0.0
C371 C 0.99833 0.14161 0.21792 0.0
C372 C 0.01161 0.14436 0.25692 0.0
C373 C 0.02185 0.10081 0.27214 0.0
H374 H 0.92317 0.03328 0.88573 0.0
C375 C 0.9516 0.00588 0.89151 0.0
H376 H 0.0119 0.9574 0.86746 0.0
H377 H 0.91094 0.96048 0.6972 0.0
H378 H 0.86545 0.87639 0.70892 0.0
H379 H 0.87322 0.84804 0.7729 0.0
H380 H 0.92627 0.90397 0.8257 0.0
C381 C 0.98331 0.98501 0.86251 0.0
C382 C 0.98219 1.00089 0.82325 0.0
C383 C 0.95261 0.96731 0.79241 0.0
C384 C 0.94938 0.98328 0.75524 0.0
C385 C 0.91676 0.94982 0.72558 0.0
C386 C 0.88993 0.90152 0.73201 0.0
C387 C 0.89421 0.88559 0.76806 0.0
C388 C 0.92486 0.91803 0.79807 0.0
H389 H 0.02235 0.99481 0.68117 0.0
C390 C 1.00071 0.02791 0.67886 0.0
H391 H 0.9537 0.08366 0.70831 0.0
H392 H 0.04707 0.07301 0.87533 0.0
H393 H 0.09349 0.15681 0.86365 0.0
H394 H 0.08839 0.18449 0.79925 0.0
H395 H 0.03633 0.12867 0.74622 0.0
C396 C 0.97447 0.04996 0.71012 0.0
C397 C 0.97737 0.03239 0.74877 0.0
C398 C 0.00768 0.06569 0.77958 0.0
C399 C 0.01041 0.04983 0.81678 0.0
C400 C 0.04234 0.08342 0.84672 0.0
C401 C 0.0697 0.13155 0.84035 0.0
C402 C 0.06677 0.14714 0.80411 0.0
C403 C 0.03647 0.11472 0.77394 0.0
H404 H 0.57111 0.49079 0.63435 0.0
C405 C 0.53426 0.50925 0.62702 0.0
H406 H 0.46369 0.54751 0.64794 0.0
H407 H 0.57564 0.44219 0.7915 0.0
H408 H 0.55018 0.3605 0.75158 0.0
H409 H 0.50381 0.35507 0.68739 0.0
H410 H 0.48514 0.43155 0.66218 0.0
C411 C 0.50033 0.52877 0.65521 0.0
C412 C 0.5157 0.53032 0.69677 0.0
C413 C 0.52149 0.48481 0.71231 0.0
C414 C 0.54322 0.48751 0.75065 0.0
C415 C 0.55516 0.44204 0.76372 0.0
C416 C 0.54136 0.3949 0.74092 0.0
C417 C 0.51562 0.39187 0.7047 0.0
C418 C 0.50569 0.43616 0.69042 0.0
H419 H 0.49745 0.48593 0.83028 0.0
C420 C 0.53536 0.5132 0.84108 0.0
H421 H 0.60737 0.5658 0.82736 0.0
H422 H 0.51027 0.62513 0.67597 0.0
H423 H 0.52723 0.70585 0.71771 0.0
H424 H 0.55392 0.70966 0.78644 0.0
H425 H 0.56503 0.63294 0.81356 0.0
C426 C 0.56972 0.53839 0.81635 0.0
C427 C 0.553 0.53521 0.77482 0.0
C428 C 0.54476 0.58052 0.75976 0.0
C429 C 0.52722 0.57816 0.72051 0.0
C430 C 0.52197 0.6243 0.7058 0.0
C431 C 0.53174 0.67108 0.72943 0.0
C432 C 0.5469 0.67324 0.76808 0.0
C433 C 0.55335 0.62871 0.78324 0.0
H434 H 0.47536 0.56634 0.39505 0.0
C435 C 0.49946 0.53708 0.40308 0.0
H436 H 0.54893 0.47785 0.383 0.0
H437 H 0.43041 0.45012 0.21598 0.0
H438 H 0.36772 0.38338 0.24372 0.0
H439 H 0.37478 0.37517 0.31311 0.0
H440 H 0.44424 0.43408 0.35521 0.0
C441 C 0.52564 0.50794 0.37562 0.0
C442 C 0.52109 0.51374 0.33413 0.0
C443 C 0.48126 0.47834 0.30984 0.0
C444 C 0.47826 0.48233 0.26972 0.0
C445 C 0.43616 0.44778 0.24639 0.0
C446 C 0.39949 0.40952 0.26202 0.0
C447 C 0.40339 0.40495 0.30109 0.0
C448 C 0.44355 0.43895 0.3249 0.0
H449 H 0.55215 0.45269 0.19934 0.0
C450 C 0.53673 0.48399 0.18733 0.0
H451 H 0.50244 0.55378 0.2001 0.0
H452 H 0.60161 0.58826 0.37311 0.0
H453 H 0.66356 0.65574 0.34557 0.0
H454 H 0.65883 0.66237 0.27578 0.0
H455 H 0.59217 0.60145 0.23309 0.0
C456 C 0.51778 0.52193 0.21132 0.0
C457 C 0.51657 0.52078 0.25383 0.0
C458 C 0.55498 0.55723 0.27839 0.0
C459 C 0.55745 0.55359 0.31864 0.0
C460 C 0.59742 0.58961 0.34241 0.0
C461 C 0.63336 0.62845 0.32695 0.0
C462 C 0.63072 0.63217 0.28765 0.0
C463 C 0.59223 0.59698 0.26348 0.0
loop_
_geom_bond_atom_site_label_1
_geom_bond_atom_site_label_2
_geom_bond_distance
_geom_bond_site_symmetry_2
_ccdc_geom_bond_type
Co0 N5 2.052 1_554 S
Co0 O17 2.021 . S
Co0 O20 2.062 1_455 S
Co0 O24 2.117 1_554 S
Co0 O25 2.020 1_565 S
C1 O21 1.259 . S
C1 O24 1.258 1_645 S
Co2 N11 2.057 . S
Co2 O18 2.117 . S
Co2 O19 2.020 1_545 S
Co2 O21 2.021 1_554 S
Co2 O26 2.062 1_655 S
C3 N5 1.296 1_554 S
C3 N6 1.347 . S
C3 H8 0.931 . S
C4 N5 1.401 . S
C4 C7 1.350 . S
C4 H9 0.930 . S
N5 Co0 2.052 1_556 S
N5 C3 1.296 1_556 S
N5 C4 1.401 . S
N6 C3 1.347 . S
N6 C7 1.373 1_554 S
C7 C4 1.350 . S
C7 N6 1.373 1_556 S
C7 H28 0.931 . S
H8 C3 0.931 . S
H9 C4 0.930 . S
C10 O17 1.259 1_545 S
C10 O18 1.258 1_455 S
N11 Co2 2.057 . S
N11 C12 1.316 . S
N11 C13 1.375 . S
C12 N11 1.316 . S
C12 N14 1.347 . S
C12 H23 0.931 1_554 S
C13 N11 1.375 . S
C13 C15 1.350 . S
C13 H22 0.930 . S
N14 C12 1.347 . S
N14 C15 1.373 . S
C15 C13 1.350 . S
C15 N14 1.373 . S
C15 H29 0.931 . S
C16 O19 1.256 . S
C16 O20 1.255 . S
O17 Co0 2.021 . S
O17 C10 1.259 1_565 S
O18 Co2 2.117 . S
O18 C10 1.258 1_655 S
O19 Co2 2.020 1_565 S
O19 C16 1.256 . S
O20 Co0 2.062 1_655 S
O20 C16 1.255 . S
O21 C1 1.259 . S
O21 Co2 2.021 1_556 S
H22 C13 0.930 . S
H23 C12 0.931 1_556 S
O24 Co0 2.117 1_556 S
O24 C1 1.258 1_465 S
O25 Co0 2.020 1_545 S
O25 C27 1.256 . S
O26 Co2 2.062 1_455 S
O26 C27 1.255 . S
C27 O25 1.256 . S
C27 O26 1.255 . S
H28 C7 0.931 . S
H29 C15 0.931 . S
Co30 N35 2.057 . S
Co30 O47 2.021 . S
Co30 O50 2.062 . S
Co30 O54 2.117 . S
Co30 O55 2.020 . S
C31 O51 1.259 . S
C31 O54 1.258 . S
Co32 N41 2.057 . S
Co32 O48 2.117 . S
Co32 O49 2.020 . S
Co32 O51 2.021 . S
Co32 O56 2.062 . S
C33 N35 1.316 . S
C33 N36 1.347 . S
C33 H38 0.931 . S
C34 N35 1.375 . S
C34 C37 1.350 . S
C34 H39 0.930 . S
N35 Co30 2.057 . S
N35 C33 1.316 . S
N35 C34 1.375 . S
N36 C33 1.347 . S
N36 C37 1.373 . S
C37 C34 1.350 . S
C37 N36 1.373 . S
C37 H58 0.931 . S
H38 C33 0.931 . S
H39 C34 0.930 . S
C40 O47 1.259 . S
C40 O48 1.258 . S
N41 Co32 2.057 . S
N41 C42 1.316 . S
N41 C43 1.375 . S
C42 N41 1.316 . S
C42 N44 1.347 . S
C42 H53 0.931 . S
C43 N41 1.375 . S
C43 C45 1.350 . S
C43 H52 0.930 . S
N44 C42 1.347 . S
N44 C45 1.373 . S
C45 C43 1.350 . S
C45 N44 1.373 . S
C45 H59 0.931 . S
C46 O49 1.256 . S
C46 O50 1.255 . S
O47 Co30 2.021 . S
O47 C40 1.259 . S
O48 Co32 2.117 . S
O48 C40 1.258 . S
O49 Co32 2.020 . S
O49 C46 1.256 . S
O50 Co30 2.062 . S
O50 C46 1.255 . S
O51 C31 1.259 . S
O51 Co32 2.021 . S
H52 C43 0.930 . S
H53 C42 0.931 . S
O54 Co30 2.117 . S
O54 C31 1.258 . S
O55 Co30 2.020 . S
O55 C57 1.256 . S
O56 Co32 2.062 . S
O56 C57 1.255 . S
C57 O55 1.256 . S
C57 O56 1.255 . S
H58 C37 0.931 . S
H59 C45 0.931 . S
O60 Cd61 2.303 . S
O60 C67 1.275 1_565 S
Cd61 O60 2.303 . S
Cd61 O69 2.404 . S
Cd61 O70 2.390 . S
O62 Cd63 2.385 . S
O62 C67 1.255 . S
Cd63 O62 2.385 . S
Cd63 O64 2.317 1_455 S
O64 Cd63 2.317 1_655 S
O64 C65 1.232 . S
C65 O64 1.232 . S
C65 O66 1.218 . S
O66 C65 1.218 . S
C67 O60 1.275 1_545 S
C67 O62 1.255 . S
C68 O69 1.258 . S
C68 O70 1.256 . S
O69 Cd61 2.404 . S
O69 C68 1.258 . S
O70 Cd61 2.390 . S
O70 C68 1.256 . S
O71 Cd72 2.300 . S
O71 C78 1.275 1_545 S
Cd72 O71 2.300 . S
Cd72 O80 2.381 . S
Cd72 O81 2.378 . S
O73 Cd74 2.385 . S
O73 C78 1.255 . S
Cd74 O73 2.385 . S
Cd74 O75 2.317 1_455 S
O75 Cd74 2.317 1_655 S
O75 C76 1.232 . S
C76 O75 1.232 . S
C76 O77 1.218 . S
O77 C76 1.218 . S
C78 O71 1.275 1_565 S
C78 O73 1.255 . S
C79 O80 1.258 . S
C79 O81 1.256 . S
O80 Cd72 2.381 . S
O80 C79 1.258 . S
O81 Cd72 2.378 . S
O81 C79 1.256 . S
O82 Cd83 2.300 . S
O82 C89 1.275 . S
Cd83 O82 2.300 . S
Cd83 O91 2.381 . S
Cd83 O92 2.378 1_556 S
O84 Cd85 2.385 . S
O84 C89 1.255 . S
Cd85 O84 2.385 . S
Cd85 O86 2.317 . S
O86 Cd85 2.317 . S
O86 C87 1.232 . S
C87 O86 1.232 . S
C87 O88 1.218 . S
O88 C87 1.218 . S
C89 O82 1.275 . S
C89 O84 1.255 . S
C90 O91 1.258 . S
C90 O92 1.256 1_556 S
O91 Cd83 2.381 . S
O91 C90 1.258 . S
O92 Cd83 2.378 1_554 S
O92 C90 1.256 1_554 S
O93 Cd94 2.300 . S
O93 C100 1.275 . S
Cd94 O93 2.300 . S
Cd94 O102 2.381 . S
Cd94 O103 2.378 . S
O95 Cd96 2.385 . S
O95 C100 1.255 . S
Cd96 O95 2.385 . S
Cd96 O97 2.317 . S
O97 Cd96 2.317 . S
O97 C98 1.232 . S
C98 O97 1.232 . S
C98 O99 1.218 . S
O99 C98 1.218 . S
C100 O93 1.275 . S
C100 O95 1.255 . S
C101 O102 1.258 . S
C101 O103 1.256 . S
O102 Cd94 2.381 . S
O102 C101 1.258 . S
O103 Cd94 2.378 . S
O103 C101 1.256 . S
H104 C105 0.951 . S
C105 H104 0.951 . S
C105 C111 1.265 . S
H106 C111 0.950 . S
H107 C115 0.949 . S
H108 C116 0.950 . S
H109 C117 0.951 . S
H110 C118 0.951 . S
C111 C105 1.265 . S
C111 H106 0.950 . S
C111 C112 1.478 . S
C112 C111 1.478 . S
C112 C113 1.397 . S
C112 C129 1.394 1_554 S
C113 C112 1.397 . S
C113 C114 1.438 . S
C113 C118 1.429 . S
C114 C113 1.438 . S
C114 C115 1.428 . S
C114 C127 1.394 . S
C115 H107 0.949 . S
C115 C114 1.428 . S
C115 C116 1.345 . S
C116 H108 0.950 . S
C116 C115 1.345 . S
C116 C117 1.424 . S
C117 H109 0.951 . S
C117 C116 1.424 . S
C117 C118 1.347 . S
C118 H110 0.951 . S
C118 C113 1.429 . S
C118 C117 1.347 . S
H119 C120 0.951 . S
C120 H119 0.951 . S
C120 C126 1.265 . S
H121 C126 0.950 . S
H122 C130 0.949 . S
H123 C131 0.950 . S
H124 C132 0.951 . S
H125 C133 0.951 . S
C126 C120 1.265 . S
C126 H121 0.950 . S
C126 C127 1.478 . S
C127 C114 1.394 . S
C127 C126 1.478 . S
C127 C128 1.397 1_554 S
C128 C127 1.397 1_556 S
C128 C129 1.438 . S
C128 C133 1.429 . S
C129 C112 1.394 1_556 S
C129 C128 1.438 . S
C129 C130 1.428 . S
C130 H122 0.949 . S
C130 C129 1.428 . S
C130 C131 1.345 . S
C131 H123 0.950 . S
C131 C130 1.345 . S
C131 C132 1.424 . S
C132 H124 0.951 . S
C132 C131 1.424 . S
C132 C133 1.347 . S
C133 H125 0.951 . S
C133 C128 1.429 . S
C133 C132 1.347 . S
H134 C135 0.951 . S
C135 H134 0.951 . S
C135 C141 1.263 1_554 S
H136 C141 0.954 . S
H137 C145 0.949 . S
H138 C146 0.950 . S
H139 C147 0.951 . S
H140 C148 0.951 . S
C141 C135 1.263 1_556 S
C141 H136 0.954 . S
C141 C142 1.477 . S
C142 C141 1.477 . S
C142 C143 1.397 . S
C142 C159 1.394 1_556 S
C143 C142 1.397 . S
C143 C144 1.438 . S
C143 C148 1.429 . S
C144 C143 1.438 . S
C144 C145 1.428 . S
C144 C157 1.394 . S
C145 H137 0.949 . S
C145 C144 1.428 . S
C145 C146 1.345 . S
C146 H138 0.950 . S
C146 C145 1.345 . S
C146 C147 1.424 . S
C147 H139 0.951 . S
C147 C146 1.424 . S
C147 C148 1.347 . S
C148 H140 0.951 . S
C148 C143 1.429 . S
C148 C147 1.347 . S
H149 C150 0.951 . S
C150 H149 0.951 . S
C150 C156 1.265 . S
H151 C156 0.950 . S
H152 C160 0.949 . S
H153 C161 0.950 . S
H154 C162 0.951 . S
H155 C163 0.951 . S
C156 C150 1.265 . S
C156 H151 0.950 . S
C156 C157 1.478 . S
C157 C144 1.394 . S
C157 C156 1.478 . S
C157 C158 1.397 1_556 S
C158 C157 1.397 1_554 S
C158 C159 1.438 . S
C158 C163 1.429 . S
C159 C142 1.394 1_554 S
C159 C158 1.438 . S
C159 C160 1.428 . S
C160 H152 0.949 . S
C160 C159 1.428 . S
C160 C161 1.345 . S
C161 H153 0.950 . S
C161 C160 1.345 . S
C161 C162 1.424 . S
C162 H154 0.951 . S
C162 C161 1.424 . S
C162 C163 1.347 . S
C163 H155 0.951 . S
C163 C158 1.429 . S
C163 C162 1.347 . S
H164 C165 0.951 1_556 S
C165 H164 0.951 1_554 S
C165 C171 1.265 . S
H166 C171 0.950 . S
H167 C175 0.949 . S
H168 C176 0.950 . S
H169 C177 0.951 . S
H170 C178 0.951 . S
C171 C165 1.265 . S
C171 H166 0.950 . S
C171 C172 1.478 . S
C172 C171 1.478 . S
C172 C173 1.397 . S
C172 C189 1.394 1_554 S
C173 C172 1.397 . S
C173 C174 1.438 . S
C173 C178 1.429 . S
C174 C173 1.438 . S
C174 C175 1.428 . S
C174 C187 1.394 . S
C175 H167 0.949 . S
C175 C174 1.428 . S
C175 C176 1.345 . S
C176 H168 0.950 . S
C176 C175 1.345 . S
C176 C177 1.424 . S
C177 H169 0.951 . S
C177 C176 1.424 . S
C177 C178 1.347 . S
C178 H170 0.951 . S
C178 C173 1.429 . S
C178 C177 1.347 . S
H179 C180 0.951 . S
C180 H179 0.951 . S
C180 C186 1.265 . S
H181 C186 0.950 1_556 S
H182 C190 0.949 . S
H183 C191 0.950 . S
H184 C192 0.951 . S
H185 C193 0.951 . S
C186 C180 1.265 . S
C186 H181 0.950 1_554 S
C186 C187 1.478 . S
C187 C174 1.394 . S
C187 C186 1.478 . S
C187 C188 1.397 1_554 S
C188 C187 1.397 1_556 S
C188 C189 1.438 . S
C188 C193 1.429 . S
C189 C172 1.394 1_556 S
C189 C188 1.438 . S
C189 C190 1.428 . S
C190 H182 0.949 . S
C190 C189 1.428 . S
C190 C191 1.345 . S
C191 H183 0.950 . S
C191 C190 1.345 . S
C191 C192 1.424 . S
C192 H184 0.951 . S
C192 C191 1.424 . S
C192 C193 1.347 . S
C193 H185 0.951 . S
C193 C188 1.429 . S
C193 C192 1.347 . S
H194 C195 0.951 . S
C195 H194 0.951 . S
C195 C201 1.265 . S
H196 C201 0.950 . S
H197 C205 0.949 . S
H198 C206 0.950 . S
H199 C207 0.951 . S
H200 C208 0.951 . S
C201 C195 1.265 . S
C201 H196 0.950 . S
C201 C202 1.478 . S
C202 C201 1.478 . S
C202 C203 1.397 . S
C202 C219 1.394 1_554 S
C203 C202 1.397 . S
C203 C204 1.438 . S
C203 C208 1.429 . S
C204 C203 1.438 . S
C204 C205 1.428 . S
C204 C217 1.394 . S
C205 H197 0.949 . S
C205 C204 1.428 . S
C205 C206 1.345 . S
C206 H198 0.950 . S
C206 C205 1.345 . S
C206 C207 1.424 . S
C207 H199 0.951 . S
C207 C206 1.424 . S
C207 C208 1.347 . S
C208 H200 0.951 . S
C208 C203 1.429 . S
C208 C207 1.347 . S
H209 C210 0.955 . S
C210 H209 0.955 . S
C210 C216 1.265 . S
H211 C216 0.950 . S
H212 C220 0.949 . S
H213 C221 0.950 . S
H214 C222 0.951 . S
H215 C223 0.951 . S
C216 C210 1.265 . S
C216 H211 0.950 . S
C216 C217 1.478 1_556 S
C217 C204 1.394 . S
C217 C216 1.478 1_554 S
C217 C218 1.397 1_554 S
C218 C217 1.397 1_556 S
C218 C219 1.438 . S
C218 C223 1.429 . S
C219 C202 1.394 1_556 S
C219 C218 1.438 . S
C219 C220 1.428 . S
C220 H212 0.949 . S
C220 C219 1.428 . S
C220 C221 1.345 . S
C221 H213 0.950 . S
C221 C220 1.345 . S
C221 C222 1.424 . S
C222 H214 0.951 . S
C222 C221 1.424 . S
C222 C223 1.347 . S
C223 H215 0.951 . S
C223 C218 1.429 . S
C223 C222 1.347 . S
H224 C225 0.951 . S
C225 H224 0.951 . S
C225 C231 1.265 . S
H226 C231 0.950 . S
H227 C235 0.949 . S
H228 C236 0.950 . S
H229 C237 0.951 . S
H230 C238 0.951 . S
C231 C225 1.265 . S
C231 H226 0.950 . S
C231 C232 1.478 . S
C232 C231 1.478 . S
C232 C233 1.397 . S
C232 C249 1.394 . S
C233 C232 1.397 . S
C233 C234 1.438 . S
C233 C238 1.429 . S
C234 C233 1.438 . S
C234 C235 1.428 . S
C234 C247 1.394 . S
C235 H227 0.949 . S
C235 C234 1.428 . S
C235 C236 1.345 . S
C236 H228 0.950 . S
C236 C235 1.345 . S
C236 C237 1.424 . S
C237 H229 0.951 . S
C237 C236 1.424 . S
C237 C238 1.347 . S
C238 H230 0.951 . S
C238 C233 1.429 . S
C238 C237 1.347 . S
H239 C240 0.951 . S
C240 H239 0.951 . S
C240 C246 1.265 . S
H241 C246 0.950 . S
H242 C250 0.949 . S
H243 C251 0.950 . S
H244 C252 0.951 . S
H245 C253 0.951 . S
C246 C240 1.265 . S
C246 H241 0.950 . S
C246 C247 1.478 . S
C247 C234 1.394 . S
C247 C246 1.478 . S
C247 C248 1.397 . S
C248 C247 1.397 . S
C248 C249 1.438 . S
C248 C253 1.429 . S
C249 C232 1.394 . S
C249 C248 1.438 . S
C249 C250 1.428 . S
C250 H242 0.949 . S
C250 C249 1.428 . S
C250 C251 1.345 . S
C251 H243 0.950 . S
C251 C250 1.345 . S
C251 C252 1.424 . S
C252 H244 0.951 . S
C252 C251 1.424 . S
C252 C253 1.347 . S
C253 H245 0.951 . S
C253 C248 1.429 . S
C253 C252 1.347 . S
H254 C255 0.951 . S
C255 H254 0.951 . S
C255 C261 1.265 . S
H256 C261 0.950 . S
H257 C265 0.949 . S
H258 C266 0.950 . S
H259 C267 0.951 . S
H260 C268 0.951 . S
C261 C255 1.265 . S
C261 H256 0.950 . S
C261 C262 1.478 . S
C262 C261 1.478 . S
C262 C263 1.397 . S
C262 C279 1.394 . S
C263 C262 1.397 . S
C263 C264 1.438 . S
C263 C268 1.429 . S
C264 C263 1.438 . S
C264 C265 1.428 . S
C264 C277 1.394 . S
C265 H257 0.949 . S
C265 C264 1.428 . S
C265 C266 1.345 . S
C266 H258 0.950 . S
C266 C265 1.345 . S
C266 C267 1.424 . S
C267 H259 0.951 . S
C267 C266 1.424 . S
C267 C268 1.347 . S
C268 H260 0.951 . S
C268 C263 1.429 . S
C268 C267 1.347 . S
H269 C270 0.951 . S
C270 H269 0.951 . S
C270 C276 1.265 . S
H271 C276 0.950 . S
H272 C280 0.949 . S
H273 C281 0.950 . S
H274 C282 0.951 . S
H275 C283 0.951 . S
C276 C270 1.265 . S
C276 H271 0.950 . S
C276 C277 1.478 . S
C277 C264 1.394 . S
C277 C276 1.478 . S
C277 C278 1.397 . S
C278 C277 1.397 . S
C278 C279 1.438 . S
C278 C283 1.429 . S
C279 C262 1.394 . S
C279 C278 1.438 . S
C279 C280 1.428 . S
C280 H272 0.949 . S
C280 C279 1.428 . S
C280 C281 1.345 . S
C281 H273 0.950 . S
C281 C280 1.345 . S
C281 C282 1.424 . S
C282 H274 0.951 . S
C282 C281 1.424 . S
C282 C283 1.347 . S
C283 H275 0.951 . S
C283 C278 1.429 . S
C283 C282 1.347 . S
H284 C285 0.951 . S
C285 H284 0.951 . S
C285 C291 1.265 . S
H286 C291 0.950 . S
H287 C295 0.949 . S
H288 C296 0.950 . S
H289 C297 0.951 . S
H290 C298 0.951 . S
C291 C285 1.265 . S
C291 H286 0.950 . S
C291 C292 1.478 . S
C292 C291 1.478 . S
C292 C293 1.397 . S
C292 C309 1.394 . S
C293 C292 1.397 . S
C293 C294 1.438 . S
C293 C298 1.429 . S
C294 C293 1.438 . S
C294 C295 1.428 . S
C294 C307 1.394 . S
C295 H287 0.949 . S
C295 C294 1.428 . S
C295 C296 1.345 . S
C296 H288 0.950 . S
C296 C295 1.345 . S
C296 C297 1.424 . S
C297 H289 0.951 . S
C297 C296 1.424 . S
C297 C298 1.347 . S
C298 H290 0.951 . S
C298 C293 1.429 . S
C298 C297 1.347 . S
H299 C300 0.951 . S
C300 H299 0.951 . S
C300 C306 1.265 . S
H301 C306 0.950 . S
H302 C310 0.949 . S
H303 C311 0.950 . S
H304 C312 0.951 . S
H305 C313 0.951 . S
C306 C300 1.265 . S
C306 H301 0.950 . S
C306 C307 1.478 . S
C307 C294 1.394 . S
C307 C306 1.478 . S
C307 C308 1.397 . S
C308 C307 1.397 . S
C308 C309 1.438 . S
C308 C313 1.429 . S
C309 C292 1.394 . S
C309 C308 1.438 . S
C309 C310 1.428 . S
C310 H302 0.949 . S
C310 C309 1.428 . S
C310 C311 1.345 . S
C311 H303 0.950 . S
C311 C310 1.345 . S
C311 C312 1.424 . S
C312 H304 0.951 . S
C312 C311 1.424 . S
C312 C313 1.347 . S
C313 H305 0.951 . S
C313 C308 1.429 . S
C313 C312 1.347 . S
H314 C315 0.951 . S
C315 H314 0.951 . S
C315 C321 1.265 . S
H316 C321 0.950 . S
H317 C325 0.949 . S
H318 C326 0.950 . S
H319 C327 0.951 . S
H320 C328 0.951 . S
C321 C315 1.265 . S
C321 H316 0.950 . S
C321 C322 1.478 . S
C322 C321 1.478 . S
C322 C323 1.397 . S
C322 C339 1.394 . S
C323 C322 1.397 . S
C323 C324 1.438 . S
C323 C328 1.429 . S
C324 C323 1.438 . S
C324 C325 1.428 . S
C324 C337 1.394 . S
C325 H317 0.949 . S
C325 C324 1.428 . S
C325 C326 1.345 . S
C326 H318 0.950 . S
C326 C325 1.345 . S
C326 C327 1.424 . S
C327 H319 0.951 . S
C327 C326 1.424 . S
C327 C328 1.347 . S
C328 H320 0.951 . S
C328 C323 1.429 . S
C328 C327 1.347 . S
H329 C330 0.951 . S
C330 H329 0.951 . S
C330 C336 1.265 . S
H331 C336 0.950 . S
H332 C340 0.949 . S
H333 C341 0.950 . S
H334 C342 0.951 . S
H335 C343 0.951 . S
C336 C330 1.265 . S
C336 H331 0.950 . S
C336 C337 1.478 . S
C337 C324 1.394 . S
C337 C336 1.478 . S
C337 C338 1.397 . S
C338 C337 1.397 . S
C338 C339 1.438 . S
C338 C343 1.429 . S
C339 C322 1.394 . S
C339 C338 1.438 . S
C339 C340 1.428 . S
C340 H332 0.949 . S
C340 C339 1.428 . S
C340 C341 1.345 . S
C341 H333 0.950 . S
C341 C340 1.345 . S
C341 C342 1.424 . S
C342 H334 0.951 . S
C342 C341 1.424 . S
C342 C343 1.347 . S
C343 H335 0.951 . S
C343 C338 1.429 . S
C343 C342 1.347 . S
H344 C345 0.951 . S
C345 H344 0.951 . S
C345 C351 1.265 1_455 S
H346 C351 0.950 1_565 S
H347 C355 0.949 . S
H348 C356 0.950 . S
H349 C357 0.951 . S
H350 C358 0.951 . S
C351 C345 1.265 1_655 S
C351 H346 0.950 1_545 S
C351 C352 1.478 . S
C352 C351 1.478 . S
C352 C353 1.397 1_545 S
C352 C369 1.394 1_655 S
C353 C352 1.397 1_565 S
C353 C354 1.438 . S
C353 C358 1.429 . S
C354 C353 1.438 . S
C354 C355 1.428 . S
C354 C367 1.394 1_665 S
C355 H347 0.949 . S
C355 C354 1.428 . S
C355 C356 1.345 . S
C356 H348 0.950 . S
C356 C355 1.345 . S
C356 C357 1.424 . S
C357 H349 0.951 . S
C357 C356 1.424 . S
C357 C358 1.347 . S
C358 H350 0.951 . S
C358 C353 1.429 . S
C358 C357 1.347 . S
H359 C360 0.951 . S
C360 H359 0.951 . S
C360 C366 1.265 1_655 S
H361 C366 0.950 . S
H362 C370 0.949 . S
H363 C371 0.950 . S
H364 C372 0.951 . S
H365 C373 0.951 . S
C366 C360 1.265 1_455 S
C366 H361 0.950 . S
C366 C367 1.478 . S
C367 C354 1.394 1_445 S
C367 C366 1.478 . S
C367 C368 1.397 . S
C368 C367 1.397 . S
C368 C369 1.438 . S
C368 C373 1.429 . S
C369 C352 1.394 1_455 S
C369 C368 1.438 . S
C369 C370 1.428 . S
C370 H362 0.949 . S
C370 C369 1.428 . S
C370 C371 1.345 . S
C371 H363 0.950 . S
C371 C370 1.345 . S
C371 C372 1.424 . S
C372 H364 0.951 . S
C372 C371 1.424 . S
C372 C373 1.347 . S
C373 H365 0.951 . S
C373 C368 1.429 . S
C373 C372 1.347 . S
H374 C375 0.952 . S
C375 H374 0.952 . S
C375 C381 1.264 1_645 S
H376 C381 0.950 . S
H377 C385 0.949 . S
H378 C386 0.950 . S
H379 C387 0.951 . S
H380 C388 0.951 . S
C381 C375 1.264 1_465 S
C381 H376 0.950 . S
C381 C382 1.478 . S
C382 C381 1.478 . S
C382 C383 1.397 . S
C382 C399 1.394 1_465 S
C383 C382 1.397 . S
C383 C384 1.438 . S
C383 C388 1.429 . S
C384 C383 1.438 . S
C384 C385 1.428 . S
C384 C397 1.394 1_455 S
C385 H377 0.949 . S
C385 C384 1.428 . S
C385 C386 1.345 . S
C386 H378 0.950 . S
C386 C385 1.345 . S
C386 C387 1.424 . S
C387 H379 0.951 . S
C387 C386 1.424 . S
C387 C388 1.347 . S
C388 H380 0.951 . S
C388 C383 1.429 . S
C388 C387 1.347 . S
H389 C390 0.951 . S
C390 H389 0.951 . S
C390 C396 1.265 1_455 S
H391 C396 0.950 1_545 S
H392 C400 0.949 . S
H393 C401 0.950 . S
H394 C402 0.951 . S
H395 C403 0.951 . S
C396 C390 1.265 1_655 S
C396 H391 0.950 1_565 S
C396 C397 1.478 . S
C397 C384 1.394 1_655 S
C397 C396 1.478 . S
C397 C398 1.397 1_565 S
C398 C397 1.397 1_545 S
C398 C399 1.438 . S
C398 C403 1.429 . S
C399 C382 1.394 1_645 S
C399 C398 1.438 . S
C399 C400 1.428 . S
C400 H392 0.949 . S
C400 C399 1.428 . S
C400 C401 1.345 . S
C401 H393 0.950 . S
C401 C400 1.345 . S
C401 C402 1.424 . S
C402 H394 0.951 . S
C402 C401 1.424 . S
C402 C403 1.347 . S
C403 H395 0.951 . S
C403 C398 1.429 . S
C403 C402 1.347 . S
H404 C405 0.951 . S
C405 H404 0.951 . S
C405 C411 1.265 . S
H406 C411 0.950 . S
H407 C415 0.949 . S
H408 C416 0.950 . S
H409 C417 0.951 . S
H410 C418 0.951 . S
C411 C405 1.265 . S
C411 H406 0.950 . S
C411 C412 1.478 . S
C412 C411 1.478 . S
C412 C413 1.397 . S
C412 C429 1.394 . S
C413 C412 1.397 . S
C413 C414 1.438 . S
C413 C418 1.429 . S
C414 C413 1.438 . S
C414 C415 1.428 . S
C414 C427 1.394 . S
C415 H407 0.949 . S
C415 C414 1.428 . S
C415 C416 1.345 . S
C416 H408 0.950 . S
C416 C415 1.345 . S
C416 C417 1.424 . S
C417 H409 0.951 . S
C417 C416 1.424 . S
C417 C418 1.347 . S
C418 H410 0.951 . S
C418 C413 1.429 . S
C418 C417 1.347 . S
H419 C420 0.951 . S
C420 H419 0.951 . S
C420 C426 1.265 . S
H421 C426 0.950 . S
H422 C430 0.949 . S
H423 C431 0.950 . S
H424 C432 0.951 . S
H425 C433 0.951 . S
C426 C420 1.265 . S
C426 H421 0.950 . S
C426 C427 1.478 . S
C427 C414 1.394 . S
C427 C426 1.478 . S
C427 C428 1.397 . S
C428 C427 1.397 . S
C428 C429 1.438 . S
C428 C433 1.429 . S
C429 C412 1.394 . S
C429 C428 1.438 . S
C429 C430 1.428 . S
C430 H422 0.949 . S
C430 C429 1.428 . S
C430 C431 1.345 . S
C431 H423 0.950 . S
C431 C430 1.345 . S
C431 C432 1.424 . S
C432 H424 0.951 . S
C432 C431 1.424 . S
C432 C433 1.347 . S
C433 H425 0.951 . S
C433 C428 1.429 . S
C433 C432 1.347 . S
H434 C435 0.951 . S
C435 H434 0.951 . S
C435 C441 1.265 . S
H436 C441 0.950 . S
H437 C445 0.949 . S
H438 C446 0.950 . S
H439 C447 0.951 . S
H440 C448 0.951 . S
C441 C435 1.265 . S
C441 H436 0.950 . S
C441 C442 1.478 . S
C442 C441 1.478 . S
C442 C443 1.397 . S
C442 C459 1.394 . S
C443 C442 1.397 . S
C443 C444 1.438 . S
C443 C448 1.429 . S
C444 C443 1.438 . S
C444 C445 1.428 . S
C444 C457 1.394 . S
C445 H437 0.949 . S
C445 C444 1.428 . S
C445 C446 1.345 . S
C446 H438 0.950 . S
C446 C445 1.345 . S
C446 C447 1.424 . S
C447 H439 0.951 . S
C447 C446 1.424 . S
C447 C448 1.347 . S
C448 H440 0.951 . S
C448 C443 1.429 . S
C448 C447 1.347 . S
H449 C450 0.951 . S
C450 H449 0.951 . S
C450 C456 1.265 . S
H451 C456 0.950 . S
H452 C460 0.949 . S
H453 C461 0.950 . S
H454 C462 0.951 . S
H455 C463 0.951 . S
C456 C450 1.265 . S
C456 H451 0.950 . S
C456 C457 1.478 . S
C457 C444 1.394 . S
C457 C456 1.478 . S
C457 C458 1.397 . S
C458 C457 1.397 . S
C458 C459 1.438 . S
C458 C463 1.429 . S
C459 C442 1.394 . S
C459 C458 1.438 . S
C459 C460 1.428 . S
C460 H452 0.949 . S
C460 C459 1.428 . S
C460 C461 1.345 . S
C461 H453 0.950 . S
C461 C460 1.345 . S
C461 C462 1.424 . S
C462 H454 0.951 . S
C462 C461 1.424 . S
C462 C463 1.347 . S
C463 H455 0.951 . S
C463 C458 1.429 . S
C463 C462 1.347 . S
C120 C98 1.326 . S
C105 C27 1.463 . S
C135 N6 1.380 . S
C150 C87 1.308 . S
C165 C16 1.444 . S
C180 C101 1.364 . S
C195 N14 1.420 . S
C210 C90 1.411 . S
C225 C57 1.468 . S
C240 C76 1.153 . S
C255 N36 1.377 . S
C270 C65 1.312 . S
C300 C79 1.384 . S
C285 C46 1.436 . S
C330 C68 1.374 . S
C315 N44 1.385 . S
C345 C10 1.431 . S
C360 C67 1.445 1_655 S
C375 C1 1.507 . S
C390 C78 1.429 . S
C420 C89 1.445 . S
C405 C40 1.431 . S
C435 C31 1.507 . S
C450 C100 1.429 . S
