# Generated by pormake.
# Topology dag, (6,3)-cn, num edge types: 1
# Building blocks:
#     Node 0, Type 0, BuildingBlock: OJICUG_clean_sbu_0, # of connection points: 6
#     Node 1, Type 0, BuildingBlock: OJICUG_clean_sbu_0, # of connection points: 6
#     Node 2, Type 0, BuildingBlock: OJICUG_clean_sbu_0, # of connection points: 6
#     Node 3, Type 0, BuildingBlock: OJICUG_clean_sbu_0, # of connection points: 6
#     Node 4, Type 1, BuildingBlock: WUSLED_clean_sbu_0, # of connection points: 3
#     Node 5, Type 1, BuildingBlock: WUSLED_clean_sbu_0, # of connection points: 3
#     Node 6, Type 1, BuildingBlock: WUSLED_clean_sbu_0, # of connection points: 3
#     Node 7, Type 1, BuildingBlock: WUSLED_clean_sbu_0, # of connection points: 3
#     Node 8, Type 1, BuildingBlock: WUSLED_clean_sbu_0, # of connection points: 3
#     Node 9, Type 1, BuildingBlock: WUSLED_clean_sbu_0, # of connection points: 3
#     Node 10, Type 1, BuildingBlock: WUSLED_clean_sbu_0, # of connection points: 3
#     Node 11, Type 1, BuildingBlock: WUSLED_clean_sbu_0, # of connection points: 3
#     Edge 12, Type (0, 1), None
#     Edge 13, Type (0, 1), None
#     Edge 14, Type (0, 1), None
#     Edge 15, Type (0, 1), None
#     Edge 16, Type (0, 1), None
#     Edge 17, Type (0, 1), None
#     Edge 18, Type (0, 1), None
#     Edge 19, Type (0, 1), None
#     Edge 20, Type (0, 1), None
#     Edge 21, Type (0, 1), None
#     Edge 22, Type (0, 1), None
#     Edge 23, Type (0, 1), None
#     Edge 24, Type (0, 1), None
#     Edge 25, Type (0, 1), None
#     Edge 26, Type (0, 1), None
#     Edge 27, Type (0, 1), None
#     Edge 28, Type (0, 1), None
#     Edge 29, Type (0, 1), None
#     Edge 30, Type (0, 1), None
#     Edge 31, Type (0, 1), None
#     Edge 32, Type (0, 1), None
#     Edge 33, Type (0, 1), None
#     Edge 34, Type (0, 1), None
#     Edge 35, Type (0, 1), None
# Relax obj value: 0.244
# Max RMSD: 0.202
# Mean RMSD: 0.165
data_MOF--net-dag--node1-OJICUG_clean_sbu_0--node2-WUSLED_clean_sbu_0--edge1-none
_symmetry_space_group_name_H-M    P1
_symmetry_Int_Tables_number       1
_symmetry_cell_setting            triclinic
loop_
_symmetry_equiv_pos_as_xyz
'x, y, z'
_cell_length_a     28.828314
_cell_length_b     27.617696
_cell_length_c     28.555904
_cell_angle_alpha  90.142206
_cell_angle_beta   95.789642
_cell_angle_gamma 90.075889
loop_
_atom_site_label
_atom_site_type_symbol
_atom_site_fract_x
_atom_site_fract_y
_atom_site_fract_z
_atom_type_partial_charge
Sc0 Sc 0.08031 0.92151 0.99652 0.0
Sc1 Sc 0.11668 0.81064 0.94986 0.0
Sc2 Sc 0.2001 0.89487 0.99733 0.0
O3 O 0.13227 0.87568 0.98127 0.0
C4 C 0.15322 0.99344 0.95607 0.0
C5 C 0.0382 0.87699 0.89738 0.0
C6 C 0.20385 0.84356 0.89738 0.0
C7 C 0.04032 0.81945 0.02401 0.0
C8 C 0.15514 0.93721 0.0863 0.0
C9 C 0.20178 0.78268 0.02532 0.0
O10 O 0.11212 0.98194 0.96449 0.0
O11 O 0.06558 0.84102 0.89897 0.0
O12 O 0.21966 0.8716 0.9305 0.0
O13 O 0.04344 0.86516 0.02871 0.0
O14 O 0.18881 0.92091 0.06568 0.0
O15 O 0.16596 0.77259 0.99738 0.0
O16 O 0.11388 0.94037 0.06593 0.0
O17 O 0.06422 0.79525 0.99694 0.0
O18 O 0.2184 0.82542 0.03 0.0
O19 O 0.03879 0.90846 0.93008 0.0
O20 O 0.18843 0.96622 0.96667 0.0
O21 O 0.16687 0.81873 0.89893 0.0
Sc22 Sc 0.70034 0.60906 0.49762 0.0
Sc23 Sc 0.61666 0.69248 0.45005 0.0
Sc24 Sc 0.58059 0.58184 0.49703 0.0
O25 O 0.63244 0.62779 0.48163 0.0
C26 C 0.65351 0.51015 0.45634 0.0
C27 C 0.70409 0.66001 0.39774 0.0
C28 C 0.53835 0.62551 0.39775 0.0
C29 C 0.70165 0.72143 0.52538 0.0
C30 C 0.65575 0.56659 0.58661 0.0
C31 C 0.54036 0.68379 0.52436 0.0
O32 O 0.68871 0.53749 0.46706 0.0
O33 O 0.66705 0.68462 0.3993 0.0
O34 O 0.53871 0.59456 0.43075 0.0
O35 O 0.71849 0.67885 0.53008 0.0
O36 O 0.61447 0.56311 0.56629 0.0
O37 O 0.56394 0.70779 0.4969 0.0
O38 O 0.68927 0.58328 0.56602 0.0
O39 O 0.66566 0.73108 0.4976 0.0
O40 O 0.54385 0.63818 0.52953 0.0
O41 O 0.71987 0.63207 0.43078 0.0
O42 O 0.61237 0.52154 0.46469 0.0
O43 O 0.56596 0.66137 0.39905 0.0
Sc44 Sc 0.87823 0.19332 0.09444 0.0
Sc45 Sc 0.7948 0.10909 0.04699 0.0
Sc46 Sc 0.91459 0.08246 0.04776 0.0
O47 O 0.86264 0.12828 0.06302 0.0
C48 C 0.95457 0.18452 0.02027 0.0
C49 C 0.79312 0.22128 0.01901 0.0
C50 C 0.83973 0.06674 0.958 0.0
C51 C 0.79108 0.16038 0.14695 0.0
C52 C 0.95673 0.12697 0.14689 0.0
C53 C 0.84169 0.01052 0.08823 0.0
O54 O 0.93069 0.20871 0.04736 0.0
O55 O 0.77649 0.17855 0.01433 0.0
O56 O 0.88099 0.06358 0.97836 0.0
O57 O 0.82805 0.18523 0.14538 0.0
O58 O 0.95613 0.09551 0.11418 0.0
O59 O 0.80649 0.03773 0.07763 0.0
O60 O 0.92933 0.16293 0.14532 0.0
O61 O 0.77526 0.13235 0.11383 0.0
O62 O 0.88279 0.02203 0.07981 0.0
O63 O 0.82895 0.23138 0.04693 0.0
O64 O 0.95144 0.13881 0.01555 0.0
O65 O 0.80606 0.08305 0.97863 0.0
Sc66 Sc 0.41432 0.42204 0.54727 0.0
Sc67 Sc 0.29457 0.39482 0.54671 0.0
Sc68 Sc 0.37824 0.31139 0.59425 0.0
O69 O 0.36246 0.37609 0.56268 0.0
C70 C 0.45451 0.32008 0.51992 0.0
C71 C 0.33914 0.43731 0.45771 0.0
C72 C 0.29323 0.28246 0.51894 0.0
C73 C 0.34141 0.49373 0.588 0.0
C74 C 0.45657 0.37834 0.64653 0.0
C75 C 0.29083 0.34388 0.64659 0.0
O76 O 0.45104 0.36569 0.51476 0.0
O77 O 0.30562 0.42062 0.4783 0.0
O78 O 0.32921 0.2728 0.54671 0.0
O79 O 0.38254 0.48234 0.57963 0.0
O80 O 0.42897 0.34249 0.64523 0.0
O81 O 0.27505 0.37181 0.61355 0.0
O82 O 0.45621 0.40931 0.61355 0.0
O83 O 0.30621 0.46639 0.57727 0.0
O84 O 0.32788 0.31927 0.64502 0.0
O85 O 0.38042 0.44078 0.47802 0.0
O86 O 0.43093 0.29608 0.54737 0.0
O87 O 0.2764 0.32504 0.51424 0.0
C88 C 0.06744 0.13354 0.25851 0.0
C89 C 0.07409 0.10934 0.21643 0.0
C90 C 0.99348 0.12485 0.18677 0.0
C91 C 0.03722 0.10453 0.18096 0.0
C92 C 0.98683 0.14819 0.22942 0.0
C93 C 0.02347 0.15221 0.2651 0.0
U94 U 0.18454 0.09505 0.32042 0.0
O95 O 0.24471 0.13864 0.34799 0.0
O96 O 0.20887 0.09326 0.39632 0.0
C97 C 0.24137 0.12591 0.39181 0.0
C98 C 0.10595 0.13996 0.29568 0.0
C99 C 0.24634 0.16534 0.42679 0.0
C100 C 0.24435 0.25105 0.44696 0.0
C101 C 0.23146 0.21284 0.41583 0.0
C102 C 0.28469 0.19411 0.5011 0.0
C103 C 0.27252 0.24222 0.48923 0.0
C104 C 0.27175 0.15617 0.4702 0.0
C105 C 0.19069 0.99542 0.22538 0.0
C106 C 0.2123 0.95336 0.15632 0.0
C107 C 0.1316 0.97545 0.16115 0.0
C108 C 0.1439 0.9953 0.20605 0.0
C109 C 0.16595 0.95501 0.13538 0.0
C110 C 0.22444 0.97349 0.20059 0.0
C111 C 0.20683 0.02122 0.26911 0.0
O112 O 0.10999 0.10565 0.32763 0.0
O113 O 0.14603 0.15333 0.2815 0.0
O114 O 0.18231 0.01659 0.30529 0.0
O115 O 0.22127 0.06565 0.26311 0.0
H116 H 0.10807 0.09533 0.21057 0.0
H117 H 0.04357 0.08697 0.14825 0.0
H118 H 0.95349 0.16419 0.23488 0.0
H119 H 0.01773 0.1708 0.29747 0.0
H120 H 0.23433 0.28762 0.4368 0.0
H121 H 0.21171 0.22069 0.38242 0.0
H122 H 0.30585 0.18583 0.53362 0.0
H123 H 0.28354 0.11983 0.4793 0.0
H124 H 0.2398 0.93766 0.13802 0.0
H125 H 0.09554 0.97697 0.14634 0.0
H126 H 0.1172 0.01133 0.22516 0.0
H127 H 0.2607 0.97311 0.21499 0.0
C128 C 0.32217 0.6287 0.65991 0.0
C129 C 0.36716 0.61083 0.65585 0.0
C130 C 0.33462 0.54049 0.61223 0.0
C131 C 0.37334 0.56741 0.63199 0.0
C132 C 0.2896 0.55837 0.61668 0.0
C133 C 0.2835 0.6021 0.64016 0.0
U134 U 0.34787 0.7631 0.68756 0.0
O135 O 0.29887 0.82191 0.6997 0.0
O136 O 0.35393 0.80179 0.75504 0.0
C137 C 0.3172 0.82881 0.74328 0.0
C138 C 0.31455 0.67446 0.68491 0.0
C139 C 0.2849 0.83318 0.77952 0.0
C140 C 0.22349 0.80161 0.82334 0.0
C141 C 0.25097 0.79789 0.78566 0.0
C142 C 0.26368 0.8759 0.84833 0.0
C143 C 0.23018 0.8403 0.85555 0.0
C144 C 0.29064 0.87235 0.81068 0.0
C145 C 0.44431 0.75887 0.60415 0.0
C146 C 0.50972 0.76042 0.55697 0.0
C147 C 0.47139 0.68439 0.57116 0.0
C148 C 0.44023 0.7088 0.59724 0.0
C149 C 0.5068 0.70989 0.55112 0.0
C150 C 0.47883 0.78464 0.58356 0.0
C151 C 0.41543 0.78408 0.63578 0.0
O152 O 0.34848 0.68916 0.716 0.0
O153 O 0.29567 0.70973 0.65869 0.0
O154 O 0.42243 0.77061 0.67998 0.0
O155 O 0.37105 0.78922 0.62081 0.0
H156 H 0.39764 0.63026 0.67124 0.0
H157 H 0.40854 0.55469 0.62958 0.0
H158 H 0.259 0.53868 0.60198 0.0
H159 H 0.24846 0.61509 0.64307 0.0
H160 H 0.19801 0.77362 0.82797 0.0
H161 H 0.24641 0.76716 0.76198 0.0
H162 H 0.26949 0.90644 0.87209 0.0
H163 H 0.31681 0.89979 0.80647 0.0
H164 H 0.5365 0.78111 0.54196 0.0
H165 H 0.46775 0.64555 0.56681 0.0
H166 H 0.41349 0.68862 0.61269 0.0
H167 H 0.4825 0.82338 0.58882 0.0
C168 C 0.82265 0.87574 0.16011 0.0
C169 C 0.86763 0.8934 0.1554 0.0
C170 C 0.83497 0.96379 0.11241 0.0
C171 C 0.87373 0.93675 0.13154 0.0
C172 C 0.78997 0.94608 0.11747 0.0
C173 C 0.78394 0.90244 0.14096 0.0
U174 U 0.84838 0.74157 0.18817 0.0
O175 O 0.85449 0.70348 0.2558 0.0
O176 O 0.79942 0.68271 0.20052 0.0
C177 C 0.81785 0.67615 0.24408 0.0
C178 C 0.81511 0.83014 0.18524 0.0
C179 C 0.78565 0.67152 0.28037 0.0
C180 C 0.72346 0.70199 0.32379 0.0
C181 C 0.75106 0.7061 0.28625 0.0
C182 C 0.76486 0.62876 0.34917 0.0
C183 C 0.73064 0.66361 0.35609 0.0
C184 C 0.79196 0.63269 0.31168 0.0
C185 C 0.94459 0.74497 0.10447 0.0
C186 C 0.01034 0.74318 0.05775 0.0
C187 C 0.97098 0.81899 0.07025 0.0
C188 C 0.93994 0.79479 0.09657 0.0
C189 C 0.00684 0.7935 0.05093 0.0
C190 C 0.97957 0.71918 0.08459 0.0
C191 C 0.91577 0.72012 0.13632 0.0
O192 O 0.79618 0.7946 0.15917 0.0
O193 O 0.84909 0.81578 0.21631 0.0
O194 O 0.87137 0.7148 0.12148 0.0
O195 O 0.9229 0.73411 0.18043 0.0
H196 H 0.89815 0.87388 0.17031 0.0
H197 H 0.90893 0.94931 0.12865 0.0
H198 H 0.75933 0.96585 0.10327 0.0
H199 H 0.74891 0.8896 0.14437 0.0
H200 H 0.69743 0.72943 0.32818 0.0
H201 H 0.74603 0.73655 0.26244 0.0
H202 H 0.77111 0.59849 0.37302 0.0
H203 H 0.81863 0.60579 0.30766 0.0
H204 H 0.03749 0.72251 0.04331 0.0
H205 H 0.9669 0.85767 0.06514 0.0
H206 H 0.91283 0.81496 0.11144 0.0
H207 H 0.98367 0.68063 0.09062 0.0
C208 C 0.69208 0.50723 0.72484 0.0
C209 C 0.64518 0.5076 0.70587 0.0
C210 C 0.66683 0.54846 0.63548 0.0
C211 C 0.63262 0.52784 0.66128 0.0
C212 C 0.71333 0.54985 0.65608 0.0
C213 C 0.72572 0.5293 0.70003 0.0
U214 U 0.68523 0.40789 0.8196 0.0
O215 O 0.71013 0.40967 0.89539 0.0
O216 O 0.74463 0.36325 0.84677 0.0
C217 C 0.74192 0.37637 0.89065 0.0
C218 C 0.70836 0.4812 0.76829 0.0
C219 C 0.74664 0.33726 0.92584 0.0
C220 C 0.7843 0.30944 0.00069 0.0
C221 C 0.77153 0.347 0.96947 0.0
C222 C 0.74481 0.25171 0.94641 0.0
C223 C 0.77247 0.26113 0.98895 0.0
C224 C 0.7321 0.28953 0.91497 0.0
C225 C 0.56715 0.37149 0.75813 0.0
C226 C 0.4861 0.35862 0.72942 0.0
C227 C 0.53754 0.3997 0.68026 0.0
C228 C 0.57435 0.3946 0.71572 0.0
C229 C 0.4933 0.38073 0.68641 0.0
C230 C 0.52268 0.35434 0.76508 0.0
C231 C 0.60562 0.36446 0.79519 0.0
O232 O 0.68444 0.48634 0.80485 0.0
O233 O 0.72187 0.43651 0.76193 0.0
O234 O 0.61055 0.39882 0.82724 0.0
O235 O 0.64534 0.35015 0.78084 0.0
H236 H 0.61856 0.49149 0.72502 0.0
H237 H 0.59647 0.52649 0.64674 0.0
H238 H 0.74074 0.56564 0.63774 0.0
H239 H 0.76206 0.52951 0.71414 0.0
H240 H 0.80509 0.31818 0.03337 0.0
H241 H 0.78308 0.3835 0.97853 0.0
H242 H 0.73507 0.21497 0.93632 0.0
H243 H 0.71277 0.28118 0.8814 0.0
H244 H 0.45236 0.34368 0.73513 0.0
H245 H 0.54429 0.41627 0.64727 0.0
H246 H 0.60869 0.40746 0.70958 0.0
H247 H 0.51651 0.33662 0.7977 0.0
C248 C 0.55055 0.245 0.4401 0.0
C249 C 0.55467 0.29506 0.44707 0.0
C250 C 0.48806 0.29398 0.49314 0.0
C251 C 0.52351 0.31948 0.47315 0.0
C252 C 0.4851 0.24346 0.48723 0.0
C253 C 0.51599 0.21924 0.46064 0.0
U254 U 0.64704 0.24078 0.35675 0.0
O255 O 0.64101 0.2021 0.28926 0.0
O256 O 0.69605 0.18195 0.34464 0.0
C257 C 0.67774 0.17508 0.30105 0.0
C258 C 0.57945 0.21979 0.40849 0.0
C259 C 0.71006 0.17071 0.26482 0.0
C260 C 0.73137 0.12796 0.19607 0.0
C261 C 0.7044 0.13149 0.23372 0.0
C262 C 0.77138 0.20237 0.22094 0.0
C263 C 0.76477 0.16362 0.18879 0.0
C264 C 0.74391 0.20608 0.25862 0.0
C265 C 0.67277 0.37517 0.38445 0.0
C266 C 0.70533 0.4455 0.42767 0.0
C267 C 0.62159 0.43645 0.41236 0.0
C268 C 0.62777 0.39303 0.3885 0.0
C269 C 0.6603 0.46338 0.43212 0.0
C270 C 0.71143 0.40177 0.4042 0.0
C271 C 0.68039 0.32941 0.35945 0.0
O272 O 0.57247 0.23329 0.36429 0.0
O273 O 0.62381 0.21464 0.42348 0.0
O274 O 0.64647 0.31472 0.32834 0.0
O275 O 0.69924 0.29412 0.38567 0.0
H276 H 0.58144 0.31523 0.43167 0.0
H277 H 0.52719 0.35831 0.47754 0.0
H278 H 0.45829 0.22278 0.5022 0.0
H279 H 0.51229 0.18051 0.45533 0.0
H280 H 0.72562 0.09737 0.17236 0.0
H281 H 0.6783 0.10399 0.23798 0.0
H282 H 0.79679 0.23042 0.21626 0.0
H283 H 0.74839 0.23685 0.28225 0.0
H284 H 0.73592 0.4652 0.44237 0.0
H285 H 0.58638 0.44917 0.41476 0.0
H286 H 0.5973 0.3736 0.37311 0.0
H287 H 0.74648 0.38878 0.40129 0.0
C288 C 0.05035 0.259 0.93986 0.0
C289 C 0.05494 0.20916 0.94768 0.0
C290 C 0.98806 0.21046 0.99336 0.0
C291 C 0.02388 0.18496 0.97399 0.0
C292 C 0.98462 0.2608 0.98662 0.0
C293 C 0.01541 0.2848 0.9598 0.0
U294 U 0.14658 0.26242 0.85619 0.0
O295 O 0.14048 0.30052 0.78857 0.0
O296 O 0.19555 0.32126 0.84385 0.0
C297 C 0.17713 0.32784 0.8003 0.0
C298 C 0.07918 0.28386 0.90803 0.0
C299 C 0.20933 0.33245 0.764 0.0
C300 C 0.23013 0.37519 0.69519 0.0
C301 C 0.20303 0.37128 0.7327 0.0
C302 C 0.27148 0.30192 0.72056 0.0
C303 C 0.26431 0.3403 0.68825 0.0
C304 C 0.24389 0.29784 0.75811 0.0
C305 C 0.17228 0.12823 0.88421 0.0
C306 C 0.20496 0.0579 0.92688 0.0
C307 C 0.1212 0.0672 0.91273 0.0
C308 C 0.1273 0.11055 0.88888 0.0
C309 C 0.15995 0.04017 0.9319 0.0
C310 C 0.21099 0.10154 0.9034 0.0
C311 C 0.17984 0.17384 0.8591 0.0
O312 O 0.12358 0.28917 0.92289 0.0
O313 O 0.07206 0.26989 0.86391 0.0
O314 O 0.19877 0.20937 0.88518 0.0
O315 O 0.14586 0.18821 0.82803 0.0
H316 H 0.08202 0.18898 0.93276 0.0
H317 H 0.02792 0.14627 0.97903 0.0
H318 H 0.9575 0.28147 0.0011 0.0
H319 H 0.01136 0.32337 0.95383 0.0
H320 H 0.22389 0.40546 0.67134 0.0
H321 H 0.17639 0.3982 0.73673 0.0
H322 H 0.29748 0.27446 0.71615 0.0
H323 H 0.24891 0.26739 0.78191 0.0
H324 H 0.23559 0.03814 0.94111 0.0
H325 H 0.08599 0.05462 0.91559 0.0
H326 H 0.09679 0.13005 0.87395 0.0
H327 H 0.24602 0.1144 0.90002 0.0
C328 C 0.30277 0.49674 0.31951 0.0
C329 C 0.34968 0.49633 0.33845 0.0
C330 C 0.32804 0.45546 0.40885 0.0
C331 C 0.36225 0.47607 0.38304 0.0
C332 C 0.28154 0.45412 0.38828 0.0
C333 C 0.26914 0.47469 0.34434 0.0
U334 U 0.30965 0.59606 0.22474 0.0
O335 O 0.25027 0.64076 0.1976 0.0
O336 O 0.28471 0.5943 0.14896 0.0
C337 C 0.25295 0.62762 0.15372 0.0
C338 C 0.28649 0.52278 0.27608 0.0
C339 C 0.24823 0.66673 0.11852 0.0
C340 C 0.21059 0.69452 0.04365 0.0
C341 C 0.22335 0.65698 0.07489 0.0
C342 C 0.25007 0.75227 0.09793 0.0
C343 C 0.22242 0.74284 0.05539 0.0
C344 C 0.26277 0.71446 0.12939 0.0
C345 C 0.42778 0.63237 0.28616 0.0
C346 C 0.50884 0.6452 0.31485 0.0
C347 C 0.45738 0.60417 0.36403 0.0
C348 C 0.42057 0.60928 0.32857 0.0
C349 C 0.50163 0.62311 0.35787 0.0
C350 C 0.47225 0.64949 0.2792 0.0
C351 C 0.3893 0.63943 0.2491 0.0
O352 O 0.27303 0.56749 0.28245 0.0
O353 O 0.31038 0.51762 0.2395 0.0
O354 O 0.34961 0.65378 0.26347 0.0
O355 O 0.38433 0.60507 0.21706 0.0
H356 H 0.3763 0.51242 0.31929 0.0
H357 H 0.39841 0.47739 0.39756 0.0
H358 H 0.25412 0.43835 0.40663 0.0
H359 H 0.23278 0.47451 0.33025 0.0
H360 H 0.18981 0.68578 0.01097 0.0
H361 H 0.2118 0.62047 0.06583 0.0
H362 H 0.25981 0.78901 0.10801 0.0
H363 H 0.28209 0.72281 0.16296 0.0
H364 H 0.54259 0.66013 0.30914 0.0
H365 H 0.45063 0.58761 0.39703 0.0
H366 H 0.38623 0.59645 0.33472 0.0
H367 H 0.47843 0.6672 0.24657 0.0
C368 C 0.80415 0.00845 0.81896 0.0
C369 C 0.85096 0.00871 0.83822 0.0
C370 C 0.8289 0.0489 0.90894 0.0
C371 C 0.86327 0.02859 0.88312 0.0
C372 C 0.78252 0.05041 0.88807 0.0
C373 C 0.77038 0.03026 0.8438 0.0
U374 U 0.81035 0.90885 0.72389 0.0
O375 O 0.78599 0.91065 0.648 0.0
O376 O 0.7502 0.86523 0.69633 0.0
C377 C 0.75351 0.87797 0.65251 0.0
C378 C 0.78802 0.98265 0.77522 0.0
C379 C 0.74854 0.83855 0.61752 0.0
C380 C 0.71015 0.80978 0.54323 0.0
C381 C 0.7231 0.84772 0.57414 0.0
C382 C 0.75055 0.75285 0.59734 0.0
C383 C 0.72235 0.76167 0.55508 0.0
C384 C 0.76345 0.79106 0.62846 0.0
C385 C 0.9275 0.87042 0.78575 0.0
C386 C 0.00808 0.85568 0.81487 0.0
C387 C 0.95775 0.89951 0.86325 0.0
C388 C 0.92087 0.89471 0.82778 0.0
C389 C 0.00146 0.8791 0.85749 0.0
C390 C 0.97144 0.85167 0.7792 0.0
C391 C 0.88899 0.864 0.74858 0.0
O392 O 0.81253 0.98732 0.73904 0.0
O393 O 0.77363 0.9382 0.78122 0.0
O394 O 0.88491 0.89832 0.71665 0.0
O395 O 0.84891 0.85059 0.76278 0.0
H396 H 0.87768 0.99279 0.81906 0.0
H397 H 0.89935 0.02718 0.89788 0.0
H398 H 0.755 0.06601 0.90641 0.0
H399 H 0.7341 0.03053 0.82946 0.0
H400 H 0.68896 0.81806 0.51073 0.0
H401 H 0.71128 0.88405 0.56505 0.0
H402 H 0.7606 0.71628 0.60748 0.0
H403 H 0.78323 0.7832 0.66187 0.0
H404 H 0.04139 0.83961 0.80945 0.0
H405 H 0.95141 0.91714 0.89593 0.0
H406 H 0.88691 0.90879 0.83361 0.0
H407 H 0.97717 0.83301 0.74685 0.0
loop_
_geom_bond_atom_site_label_1
_geom_bond_atom_site_label_2
_geom_bond_distance
_geom_bond_site_symmetry_2
_ccdc_geom_bond_type
Sc0 O3 2.025 . S
Sc0 O10 2.105 1_554 S
Sc0 O13 2.105 . S
Sc0 O16 2.105 . S
Sc0 O19 2.105 1_554 S
Sc1 O3 2.025 1_556 S
Sc1 O11 2.105 . S
Sc1 O15 2.105 1_556 S
Sc1 O17 2.105 1_556 S
Sc1 O21 2.105 . S
Sc2 O3 2.025 . S
Sc2 O12 2.105 1_554 S
Sc2 O14 2.105 . S
Sc2 O18 2.105 . S
Sc2 O20 2.105 1_554 S
O3 Sc0 2.025 . S
O3 Sc1 2.025 1_554 S
O3 Sc2 2.025 . S
C4 O10 1.268 . S
C4 O20 1.268 . S
C5 O11 1.268 . S
C5 O19 1.268 . S
C6 O12 1.268 . S
C6 O21 1.268 . S
C7 O13 1.268 . S
C7 O17 1.268 . S
C8 O14 1.268 . S
C8 O16 1.268 . S
C9 O15 1.268 . S
C9 O18 1.268 . S
O10 Sc0 2.105 1_556 S
O10 C4 1.268 . S
O11 Sc1 2.105 . S
O11 C5 1.268 . S
O12 Sc2 2.105 1_556 S
O12 C6 1.268 . S
O13 Sc0 2.105 . S
O13 C7 1.268 . S
O14 Sc2 2.105 . S
O14 C8 1.268 . S
O15 Sc1 2.105 1_554 S
O15 C9 1.268 . S
O16 Sc0 2.105 . S
O16 C8 1.268 . S
O17 Sc1 2.105 1_554 S
O17 C7 1.268 . S
O18 Sc2 2.105 . S
O18 C9 1.268 . S
O19 Sc0 2.105 1_556 S
O19 C5 1.268 . S
O20 Sc2 2.105 1_556 S
O20 C4 1.268 . S
O21 Sc1 2.105 . S
O21 C6 1.268 . S
Sc22 O25 2.025 . S
Sc22 O32 2.105 . S
Sc22 O35 2.105 . S
Sc22 O38 2.105 . S
Sc22 O41 2.105 . S
Sc23 O25 2.025 . S
Sc23 O33 2.105 . S
Sc23 O37 2.105 . S
Sc23 O39 2.105 . S
Sc23 O43 2.105 . S
Sc24 O25 2.025 . S
Sc24 O34 2.105 . S
Sc24 O36 2.105 . S
Sc24 O40 2.105 . S
Sc24 O42 2.105 . S
O25 Sc22 2.025 . S
O25 Sc23 2.025 . S
O25 Sc24 2.025 . S
C26 O32 1.268 . S
C26 O42 1.268 . S
C27 O33 1.268 . S
C27 O41 1.268 . S
C28 O34 1.268 . S
C28 O43 1.268 . S
C29 O35 1.268 . S
C29 O39 1.268 . S
C30 O36 1.268 . S
C30 O38 1.268 . S
C31 O37 1.268 . S
C31 O40 1.268 . S
O32 Sc22 2.105 . S
O32 C26 1.268 . S
O33 Sc23 2.105 . S
O33 C27 1.268 . S
O34 Sc24 2.105 . S
O34 C28 1.268 . S
O35 Sc22 2.105 . S
O35 C29 1.268 . S
O36 Sc24 2.105 . S
O36 C30 1.268 . S
O37 Sc23 2.105 . S
O37 C31 1.268 . S
O38 Sc22 2.105 . S
O38 C30 1.268 . S
O39 Sc23 2.105 . S
O39 C29 1.268 . S
O40 Sc24 2.105 . S
O40 C31 1.268 . S
O41 Sc22 2.105 . S
O41 C27 1.268 . S
O42 Sc24 2.105 . S
O42 C26 1.268 . S
O43 Sc23 2.105 . S
O43 C28 1.268 . S
Sc44 O47 2.025 . S
Sc44 O54 2.105 . S
Sc44 O57 2.105 . S
Sc44 O60 2.105 . S
Sc44 O63 2.105 . S
Sc45 O47 2.025 . S
Sc45 O55 2.105 1_554 S
Sc45 O59 2.105 . S
Sc45 O61 2.105 . S
Sc45 O65 2.105 1_554 S
Sc46 O47 2.025 . S
Sc46 O56 2.105 1_554 S
Sc46 O58 2.105 . S
Sc46 O62 2.105 . S
Sc46 O64 2.105 . S
O47 Sc44 2.025 . S
O47 Sc45 2.025 . S
O47 Sc46 2.025 . S
C48 O54 1.268 . S
C48 O64 1.268 . S
C49 O55 1.268 . S
C49 O63 1.268 1_556 S
C50 O56 1.268 . S
C50 O65 1.268 . S
C51 O57 1.268 . S
C51 O61 1.268 . S
C52 O58 1.268 . S
C52 O60 1.268 . S
C53 O59 1.268 . S
C53 O62 1.268 . S
O54 Sc44 2.105 . S
O54 C48 1.268 . S
O55 Sc45 2.105 1_556 S
O55 C49 1.268 . S
O56 Sc46 2.105 1_556 S
O56 C50 1.268 . S
O57 Sc44 2.105 . S
O57 C51 1.268 . S
O58 Sc46 2.105 . S
O58 C52 1.268 . S
O59 Sc45 2.105 . S
O59 C53 1.268 . S
O60 Sc44 2.105 . S
O60 C52 1.268 . S
O61 Sc45 2.105 . S
O61 C51 1.268 . S
O62 Sc46 2.105 . S
O62 C53 1.268 . S
O63 Sc44 2.105 . S
O63 C49 1.268 1_554 S
O64 Sc46 2.105 . S
O64 C48 1.268 . S
O65 Sc45 2.105 1_556 S
O65 C50 1.268 . S
Sc66 O69 2.025 . S
Sc66 O76 2.105 . S
Sc66 O79 2.105 . S
Sc66 O82 2.105 . S
Sc66 O85 2.105 . S
Sc67 O69 2.025 . S
Sc67 O77 2.105 . S
Sc67 O81 2.105 . S
Sc67 O83 2.105 . S
Sc67 O87 2.105 . S
Sc68 O69 2.025 . S
Sc68 O78 2.105 . S
Sc68 O80 2.105 . S
Sc68 O84 2.105 . S
Sc68 O86 2.105 . S
O69 Sc66 2.025 . S
O69 Sc67 2.025 . S
O69 Sc68 2.025 . S
C70 O76 1.268 . S
C70 O86 1.268 . S
C71 O77 1.268 . S
C71 O85 1.268 . S
C72 O78 1.268 . S
C72 O87 1.268 . S
C73 O79 1.268 . S
C73 O83 1.268 . S
C74 O80 1.268 . S
C74 O82 1.268 . S
C75 O81 1.268 . S
C75 O84 1.268 . S
O76 Sc66 2.105 . S
O76 C70 1.268 . S
O77 Sc67 2.105 . S
O77 C71 1.268 . S
O78 Sc68 2.105 . S
O78 C72 1.268 . S
O79 Sc66 2.105 . S
O79 C73 1.268 . S
O80 Sc68 2.105 . S
O80 C74 1.268 . S
O81 Sc67 2.105 . S
O81 C75 1.268 . S
O82 Sc66 2.105 . S
O82 C74 1.268 . S
O83 Sc67 2.105 . S
O83 C73 1.268 . S
O84 Sc68 2.105 . S
O84 C75 1.268 . S
O85 Sc66 2.105 . S
O85 C71 1.268 . S
O86 Sc68 2.105 . S
O86 C70 1.268 . S
O87 Sc67 2.105 . S
O87 C72 1.268 . S
C88 C89 1.264 . S
C88 C93 1.479 . S
C88 C98 1.465 1_655 S
C89 C88 1.264 . S
C89 C91 1.339 . S
C89 H116 0.931 . S
C90 C91 1.395 . S
C90 C92 1.320 . S
C91 C89 1.339 . S
C91 C90 1.395 . S
C91 H117 0.929 . S
C92 C90 1.320 . S
C92 C93 1.405 . S
C92 H118 0.930 . S
C93 C88 1.479 . S
C93 C92 1.405 . S
C93 H119 0.931 . S
U94 O95 2.454 . S
U94 O96 2.458 . S
U94 C97 2.984 . S
U94 C98 2.847 . S
U94 C111 2.882 . S
U94 O112 2.441 . S
U94 O113 2.420 . S
U94 O114 2.455 . S
U94 O115 2.449 . S
O95 U94 2.454 . S
O95 C97 1.353 . S
O96 U94 2.458 . S
O96 C97 1.286 . S
C97 U94 2.984 . S
C97 O95 1.353 . S
C97 O96 1.286 . S
C97 C99 1.363 . S
C98 C88 1.465 1_455 S
C98 U94 2.847 . S
C98 O112 1.249 . S
C98 O113 1.202 . S
C99 C97 1.363 . S
C99 C101 1.408 . S
C99 C104 1.342 . S
C100 C101 1.310 . S
C100 C103 1.461 . S
C100 H120 0.932 . S
C101 C99 1.408 . S
C101 C100 1.310 . S
C101 H121 0.930 . S
C102 C103 1.474 . S
C102 C104 1.285 . S
C102 H122 0.929 . S
C103 C100 1.461 . S
C103 C102 1.474 . S
C104 C99 1.342 . S
C104 C102 1.285 . S
C104 H123 0.930 . S
C105 C108 1.424 . S
C105 C110 1.245 . S
C105 C111 1.428 1_565 S
C106 C109 1.260 . S
C106 C110 1.477 . S
C106 H124 0.932 . S
C107 C108 1.384 . S
C107 C109 1.479 . S
C107 H125 0.929 . S
C108 C105 1.424 . S
C108 C107 1.384 . S
C108 H126 0.928 . S
C109 C106 1.260 . S
C109 C107 1.479 . S
C110 C105 1.245 . S
C110 C106 1.477 . S
C110 H127 0.932 . S
C111 U94 2.882 . S
C111 C105 1.428 1_545 S
C111 O114 1.301 . S
C111 O115 1.282 . S
O112 U94 2.441 . S
O112 C98 1.249 . S
O113 U94 2.420 . S
O113 C98 1.202 . S
O114 U94 2.455 . S
O114 C111 1.301 . S
O115 U94 2.449 . S
O115 C111 1.282 . S
H116 C89 0.931 . S
H117 C91 0.929 . S
H118 C92 0.930 . S
H119 C93 0.931 . S
H120 C100 0.932 . S
H121 C101 0.930 . S
H122 C102 0.929 . S
H123 C104 0.930 . S
H124 C106 0.932 . S
H125 C107 0.929 . S
H126 C108 0.928 . S
H127 C110 0.932 . S
C128 C129 1.264 . S
C128 C133 1.479 . S
C128 C138 1.465 . S
C129 C128 1.264 . S
C129 C131 1.339 . S
C129 H156 0.931 . S
C130 C131 1.395 . S
C130 C132 1.320 . S
C131 C129 1.339 . S
C131 C130 1.395 . S
C131 H157 0.929 . S
C132 C130 1.320 . S
C132 C133 1.405 . S
C132 H158 0.930 . S
C133 C128 1.479 . S
C133 C132 1.405 . S
C133 H159 0.931 . S
U134 O135 2.454 . S
U134 O136 2.458 . S
U134 C137 2.984 . S
U134 C138 2.847 . S
U134 C151 2.882 . S
U134 O152 2.441 . S
U134 O153 2.420 . S
U134 O154 2.455 . S
U134 O155 2.449 . S
O135 U134 2.454 . S
O135 C137 1.353 . S
O136 U134 2.458 . S
O136 C137 1.286 . S
C137 U134 2.984 . S
C137 O135 1.353 . S
C137 O136 1.286 . S
C137 C139 1.363 . S
C138 C128 1.465 . S
C138 U134 2.847 . S
C138 O152 1.249 . S
C138 O153 1.202 . S
C139 C137 1.363 . S
C139 C141 1.408 . S
C139 C144 1.342 . S
C140 C141 1.310 . S
C140 C143 1.461 . S
C140 H160 0.932 . S
C141 C139 1.408 . S
C141 C140 1.310 . S
C141 H161 0.930 . S
C142 C143 1.474 . S
C142 C144 1.285 . S
C142 H162 0.929 . S
C143 C140 1.461 . S
C143 C142 1.474 . S
C144 C139 1.342 . S
C144 C142 1.285 . S
C144 H163 0.930 . S
C145 C148 1.424 . S
C145 C150 1.245 . S
C145 C151 1.428 . S
C146 C149 1.260 . S
C146 C150 1.477 . S
C146 H164 0.932 . S
C147 C148 1.384 . S
C147 C149 1.479 . S
C147 H165 0.929 . S
C148 C145 1.424 . S
C148 C147 1.384 . S
C148 H166 0.928 . S
C149 C146 1.260 . S
C149 C147 1.479 . S
C150 C145 1.245 . S
C150 C146 1.477 . S
C150 H167 0.932 . S
C151 U134 2.882 . S
C151 C145 1.428 . S
C151 O154 1.301 . S
C151 O155 1.282 . S
O152 U134 2.441 . S
O152 C138 1.249 . S
O153 U134 2.420 . S
O153 C138 1.202 . S
O154 U134 2.455 . S
O154 C151 1.301 . S
O155 U134 2.449 . S
O155 C151 1.282 . S
H156 C129 0.931 . S
H157 C131 0.929 . S
H158 C132 0.930 . S
H159 C133 0.931 . S
H160 C140 0.932 . S
H161 C141 0.930 . S
H162 C142 0.929 . S
H163 C144 0.930 . S
H164 C146 0.932 . S
H165 C147 0.929 . S
H166 C148 0.928 . S
H167 C150 0.932 . S
C168 C169 1.264 . S
C168 C173 1.479 . S
C168 C178 1.465 . S
C169 C168 1.264 . S
C169 C171 1.339 . S
C169 H196 0.931 . S
C170 C171 1.395 . S
C170 C172 1.320 . S
C171 C169 1.339 . S
C171 C170 1.395 . S
C171 H197 0.929 . S
C172 C170 1.320 . S
C172 C173 1.405 . S
C172 H198 0.930 . S
C173 C168 1.479 . S
C173 C172 1.405 . S
C173 H199 0.931 . S
U174 O175 2.454 . S
U174 O176 2.458 . S
U174 C177 2.984 . S
U174 C178 2.847 . S
U174 C191 2.882 . S
U174 O192 2.441 . S
U174 O193 2.420 . S
U174 O194 2.455 . S
U174 O195 2.449 . S
O175 U174 2.454 . S
O175 C177 1.353 . S
O176 U174 2.458 . S
O176 C177 1.286 . S
C177 U174 2.984 . S
C177 O175 1.353 . S
C177 O176 1.286 . S
C177 C179 1.363 . S
C178 C168 1.465 . S
C178 U174 2.847 . S
C178 O192 1.249 . S
C178 O193 1.202 . S
C179 C177 1.363 . S
C179 C181 1.408 . S
C179 C184 1.342 . S
C180 C181 1.310 . S
C180 C183 1.461 . S
C180 H200 0.932 . S
C181 C179 1.408 . S
C181 C180 1.310 . S
C181 H201 0.930 . S
C182 C183 1.474 . S
C182 C184 1.285 . S
C182 H202 0.929 . S
C183 C180 1.461 . S
C183 C182 1.474 . S
C184 C179 1.342 . S
C184 C182 1.285 . S
C184 H203 0.930 . S
C185 C188 1.424 . S
C185 C190 1.245 . S
C185 C191 1.428 . S
C186 C189 1.260 . S
C186 C190 1.477 1_455 S
C186 H204 0.932 . S
C187 C188 1.384 1_455 S
C187 C189 1.479 . S
C187 H205 0.929 . S
C188 C185 1.424 . S
C188 C187 1.384 1_655 S
C188 H206 0.928 . S
C189 C186 1.260 . S
C189 C187 1.479 . S
C190 C185 1.245 . S
C190 C186 1.477 1_655 S
C190 H207 0.932 . S
C191 U174 2.882 . S
C191 C185 1.428 . S
C191 O194 1.301 . S
C191 O195 1.282 . S
O192 U174 2.441 . S
O192 C178 1.249 . S
O193 U174 2.420 . S
O193 C178 1.202 . S
O194 U174 2.455 . S
O194 C191 1.301 . S
O195 U174 2.449 . S
O195 C191 1.282 . S
H196 C169 0.931 . S
H197 C171 0.929 . S
H198 C172 0.930 . S
H199 C173 0.931 . S
H200 C180 0.932 . S
H201 C181 0.930 . S
H202 C182 0.929 . S
H203 C184 0.930 . S
H204 C186 0.932 . S
H205 C187 0.929 . S
H206 C188 0.928 . S
H207 C190 0.932 . S
C208 C209 1.264 . S
C208 C213 1.479 . S
C208 C218 1.465 . S
C209 C208 1.264 . S
C209 C211 1.339 . S
C209 H236 0.931 . S
C210 C211 1.395 . S
C210 C212 1.320 . S
C211 C209 1.339 . S
C211 C210 1.395 . S
C211 H237 0.929 . S
C212 C210 1.320 . S
C212 C213 1.405 . S
C212 H238 0.930 . S
C213 C208 1.479 . S
C213 C212 1.405 . S
C213 H239 0.931 . S
U214 O215 2.454 . S
U214 O216 2.458 . S
U214 C217 2.984 . S
U214 C218 2.847 . S
U214 C231 2.882 . S
U214 O232 2.441 . S
U214 O233 2.420 . S
U214 O234 2.455 . S
U214 O235 2.449 . S
O215 U214 2.454 . S
O215 C217 1.353 . S
O216 U214 2.458 . S
O216 C217 1.286 . S
C217 U214 2.984 . S
C217 O215 1.353 . S
C217 O216 1.286 . S
C217 C219 1.363 . S
C218 C208 1.465 . S
C218 U214 2.847 . S
C218 O232 1.249 . S
C218 O233 1.202 . S
C219 C217 1.363 . S
C219 C221 1.408 . S
C219 C224 1.342 . S
C220 C221 1.310 . S
C220 C223 1.461 1_556 S
C220 H240 0.932 . S
C221 C219 1.408 . S
C221 C220 1.310 . S
C221 H241 0.930 . S
C222 C223 1.474 1_556 S
C222 C224 1.285 . S
C222 H242 0.929 1_556 S
C223 C220 1.461 1_554 S
C223 C222 1.474 1_554 S
C224 C219 1.342 . S
C224 C222 1.285 . S
C224 H243 0.930 . S
C225 C228 1.424 . S
C225 C230 1.245 . S
C225 C231 1.428 . S
C226 C229 1.260 . S
C226 C230 1.477 . S
C226 H244 0.932 . S
C227 C228 1.384 . S
C227 C229 1.479 . S
C227 H245 0.929 . S
C228 C225 1.424 . S
C228 C227 1.384 . S
C228 H246 0.928 . S
C229 C226 1.260 . S
C229 C227 1.479 . S
C230 C225 1.245 . S
C230 C226 1.477 . S
C230 H247 0.932 . S
C231 U214 2.882 . S
C231 C225 1.428 . S
C231 O234 1.301 . S
C231 O235 1.282 . S
O232 U214 2.441 . S
O232 C218 1.249 . S
O233 U214 2.420 . S
O233 C218 1.202 . S
O234 U214 2.455 . S
O234 C231 1.301 . S
O235 U214 2.449 . S
O235 C231 1.282 . S
H236 C209 0.931 . S
H237 C211 0.929 . S
H238 C212 0.930 . S
H239 C213 0.931 . S
H240 C220 0.932 . S
H241 C221 0.930 . S
H242 C222 0.929 1_554 S
H243 C224 0.930 . S
H244 C226 0.932 . S
H245 C227 0.929 . S
H246 C228 0.928 . S
H247 C230 0.932 . S
C248 C249 1.264 . S
C248 C253 1.479 . S
C248 C258 1.465 . S
C249 C248 1.264 . S
C249 C251 1.339 . S
C249 H276 0.931 . S
C250 C251 1.395 . S
C250 C252 1.320 . S
C251 C249 1.339 . S
C251 C250 1.395 . S
C251 H277 0.929 . S
C252 C250 1.320 . S
C252 C253 1.405 . S
C252 H278 0.930 . S
C253 C248 1.479 . S
C253 C252 1.405 . S
C253 H279 0.931 . S
U254 O255 2.454 . S
U254 O256 2.458 . S
U254 C257 2.984 . S
U254 C258 2.847 . S
U254 C271 2.882 . S
U254 O272 2.441 . S
U254 O273 2.420 . S
U254 O274 2.455 . S
U254 O275 2.449 . S
O255 U254 2.454 . S
O255 C257 1.353 . S
O256 U254 2.458 . S
O256 C257 1.286 . S
C257 U254 2.984 . S
C257 O255 1.353 . S
C257 O256 1.286 . S
C257 C259 1.363 . S
C258 C248 1.465 . S
C258 U254 2.847 . S
C258 O272 1.249 . S
C258 O273 1.202 . S
C259 C257 1.363 . S
C259 C261 1.408 . S
C259 C264 1.342 . S
C260 C261 1.310 . S
C260 C263 1.461 . S
C260 H280 0.932 . S
C261 C259 1.408 . S
C261 C260 1.310 . S
C261 H281 0.930 . S
C262 C263 1.474 . S
C262 C264 1.285 . S
C262 H282 0.929 . S
C263 C260 1.461 . S
C263 C262 1.474 . S
C264 C259 1.342 . S
C264 C262 1.285 . S
C264 H283 0.930 . S
C265 C268 1.424 . S
C265 C270 1.245 . S
C265 C271 1.428 . S
C266 C269 1.260 . S
C266 C270 1.477 . S
C266 H284 0.932 . S
C267 C268 1.384 . S
C267 C269 1.479 . S
C267 H285 0.929 . S
C268 C265 1.424 . S
C268 C267 1.384 . S
C268 H286 0.928 . S
C269 C266 1.260 . S
C269 C267 1.479 . S
C270 C265 1.245 . S
C270 C266 1.477 . S
C270 H287 0.932 . S
C271 U254 2.882 . S
C271 C265 1.428 . S
C271 O274 1.301 . S
C271 O275 1.282 . S
O272 U254 2.441 . S
O272 C258 1.249 . S
O273 U254 2.420 . S
O273 C258 1.202 . S
O274 U254 2.455 . S
O274 C271 1.301 . S
O275 U254 2.449 . S
O275 C271 1.282 . S
H276 C249 0.931 . S
H277 C251 0.929 . S
H278 C252 0.930 . S
H279 C253 0.931 . S
H280 C260 0.932 . S
H281 C261 0.930 . S
H282 C262 0.929 . S
H283 C264 0.930 . S
H284 C266 0.932 . S
H285 C267 0.929 . S
H286 C268 0.928 . S
H287 C270 0.932 . S
C288 C289 1.264 . S
C288 C293 1.479 . S
C288 C298 1.465 . S
C289 C288 1.264 . S
C289 C291 1.339 1_455 S
C289 H316 0.931 . S
C290 C291 1.395 . S
C290 C292 1.320 . S
C291 C289 1.339 1_655 S
C291 C290 1.395 . S
C291 H317 0.929 1_556 S
C292 C290 1.320 . S
C292 C293 1.405 1_655 S
C292 H318 0.930 . S
C293 C288 1.479 . S
C293 C292 1.405 1_455 S
C293 H319 0.931 . S
U294 O295 2.454 . S
U294 O296 2.458 . S
U294 C297 2.984 . S
U294 C298 2.847 . S
U294 C311 2.882 . S
U294 O312 2.441 . S
U294 O313 2.420 . S
U294 O314 2.455 . S
U294 O315 2.449 . S
O295 U294 2.454 . S
O295 C297 1.353 . S
O296 U294 2.458 . S
O296 C297 1.286 . S
C297 U294 2.984 . S
C297 O295 1.353 . S
C297 O296 1.286 . S
C297 C299 1.363 . S
C298 C288 1.465 . S
C298 U294 2.847 . S
C298 O312 1.249 . S
C298 O313 1.202 . S
C299 C297 1.363 . S
C299 C301 1.408 . S
C299 C304 1.342 . S
C300 C301 1.310 . S
C300 C303 1.461 . S
C300 H320 0.932 . S
C301 C299 1.408 . S
C301 C300 1.310 . S
C301 H321 0.930 . S
C302 C303 1.474 . S
C302 C304 1.285 . S
C302 H322 0.929 . S
C303 C300 1.461 . S
C303 C302 1.474 . S
C304 C299 1.342 . S
C304 C302 1.285 . S
C304 H323 0.930 . S
C305 C308 1.424 . S
C305 C310 1.245 . S
C305 C311 1.428 . S
C306 C309 1.260 . S
C306 C310 1.477 . S
C306 H324 0.932 . S
C307 C308 1.384 . S
C307 C309 1.479 . S
C307 H325 0.929 1_556 S
C308 C305 1.424 . S
C308 C307 1.384 . S
C308 H326 0.928 . S
C309 C306 1.260 . S
C309 C307 1.479 . S
C310 C305 1.245 . S
C310 C306 1.477 . S
C310 H327 0.932 . S
C311 U294 2.882 . S
C311 C305 1.428 . S
C311 O314 1.301 . S
C311 O315 1.282 . S
O312 U294 2.441 . S
O312 C298 1.249 . S
O313 U294 2.420 . S
O313 C298 1.202 . S
O314 U294 2.455 . S
O314 C311 1.301 . S
O315 U294 2.449 . S
O315 C311 1.282 . S
H316 C289 0.931 . S
H317 C291 0.929 1_554 S
H318 C292 0.930 . S
H319 C293 0.931 . S
H320 C300 0.932 . S
H321 C301 0.930 . S
H322 C302 0.929 . S
H323 C304 0.930 . S
H324 C306 0.932 . S
H325 C307 0.929 1_554 S
H326 C308 0.928 . S
H327 C310 0.932 . S
C328 C329 1.264 . S
C328 C333 1.479 . S
C328 C338 1.465 . S
C329 C328 1.264 . S
C329 C331 1.339 . S
C329 H356 0.931 . S
C330 C331 1.395 . S
C330 C332 1.320 . S
C331 C329 1.339 . S
C331 C330 1.395 . S
C331 H357 0.929 . S
C332 C330 1.320 . S
C332 C333 1.405 . S
C332 H358 0.930 . S
C333 C328 1.479 . S
C333 C332 1.405 . S
C333 H359 0.931 . S
U334 O335 2.454 . S
U334 O336 2.458 . S
U334 C337 2.984 . S
U334 C338 2.847 . S
U334 C351 2.882 . S
U334 O352 2.441 . S
U334 O353 2.420 . S
U334 O354 2.455 . S
U334 O355 2.449 . S
O335 U334 2.454 . S
O335 C337 1.353 . S
O336 U334 2.458 . S
O336 C337 1.286 . S
C337 U334 2.984 . S
C337 O335 1.353 . S
C337 O336 1.286 . S
C337 C339 1.363 . S
C338 C328 1.465 . S
C338 U334 2.847 . S
C338 O352 1.249 . S
C338 O353 1.202 . S
C339 C337 1.363 . S
C339 C341 1.408 . S
C339 C344 1.342 . S
C340 C341 1.310 . S
C340 C343 1.461 . S
C340 H360 0.932 . S
C341 C339 1.408 . S
C341 C340 1.310 . S
C341 H361 0.930 . S
C342 C343 1.474 . S
C342 C344 1.285 . S
C342 H362 0.929 . S
C343 C340 1.461 . S
C343 C342 1.474 . S
C344 C339 1.342 . S
C344 C342 1.285 . S
C344 H363 0.930 . S
C345 C348 1.424 . S
C345 C350 1.245 . S
C345 C351 1.428 . S
C346 C349 1.260 . S
C346 C350 1.477 . S
C346 H364 0.932 . S
C347 C348 1.384 . S
C347 C349 1.479 . S
C347 H365 0.929 . S
C348 C345 1.424 . S
C348 C347 1.384 . S
C348 H366 0.928 . S
C349 C346 1.260 . S
C349 C347 1.479 . S
C350 C345 1.245 . S
C350 C346 1.477 . S
C350 H367 0.932 . S
C351 U334 2.882 . S
C351 C345 1.428 . S
C351 O354 1.301 . S
C351 O355 1.282 . S
O352 U334 2.441 . S
O352 C338 1.249 . S
O353 U334 2.420 . S
O353 C338 1.202 . S
O354 U334 2.455 . S
O354 C351 1.301 . S
O355 U334 2.449 . S
O355 C351 1.282 . S
H356 C329 0.931 . S
H357 C331 0.929 . S
H358 C332 0.930 . S
H359 C333 0.931 . S
H360 C340 0.932 . S
H361 C341 0.930 . S
H362 C342 0.929 . S
H363 C344 0.930 . S
H364 C346 0.932 . S
H365 C347 0.929 . S
H366 C348 0.928 . S
H367 C350 0.932 . S
C368 C369 1.264 . S
C368 C373 1.479 . S
C368 C378 1.465 . S
C369 C368 1.264 . S
C369 C371 1.339 . S
C369 H396 0.931 . S
C370 C371 1.395 . S
C370 C372 1.320 . S
C371 C369 1.339 . S
C371 C370 1.395 . S
C371 H397 0.929 . S
C372 C370 1.320 . S
C372 C373 1.405 . S
C372 H398 0.930 . S
C373 C368 1.479 . S
C373 C372 1.405 . S
C373 H399 0.931 . S
U374 O375 2.454 . S
U374 O376 2.458 . S
U374 C377 2.984 . S
U374 C378 2.847 1_565 S
U374 C391 2.882 . S
U374 O392 2.441 . S
U374 O393 2.420 . S
U374 O394 2.455 . S
U374 O395 2.449 . S
O375 U374 2.454 . S
O375 C377 1.353 . S
O376 U374 2.458 . S
O376 C377 1.286 . S
C377 U374 2.984 . S
C377 O375 1.353 . S
C377 O376 1.286 . S
C377 C379 1.363 . S
C378 C368 1.465 . S
C378 U374 2.847 1_545 S
C378 O392 1.249 1_545 S
C378 O393 1.202 1_545 S
C379 C377 1.363 . S
C379 C381 1.408 . S
C379 C384 1.342 . S
C380 C381 1.310 . S
C380 C383 1.461 . S
C380 H400 0.932 . S
C381 C379 1.408 . S
C381 C380 1.310 . S
C381 H401 0.930 . S
C382 C383 1.474 . S
C382 C384 1.285 . S
C382 H402 0.929 . S
C383 C380 1.461 . S
C383 C382 1.474 . S
C384 C379 1.342 . S
C384 C382 1.285 . S
C384 H403 0.930 . S
C385 C388 1.413 1_655 S
C385 C390 1.232 1_655 S
C385 C391 1.450 . S
C386 C389 1.260 . S
C386 C390 1.477 . S
C386 H404 0.932 . S
C387 C388 1.384 . S
C387 C389 1.479 . S
C387 H405 0.929 . S
C388 C385 1.413 1_455 S
C388 C387 1.384 . S
C388 H406 0.928 . S
C389 C386 1.260 . S
C389 C387 1.479 . S
C390 C385 1.232 1_455 S
C390 C386 1.477 . S
C390 H407 0.932 . S
C391 U374 2.882 . S
C391 C385 1.450 . S
C391 O394 1.301 . S
C391 O395 1.282 . S
O392 U374 2.441 . S
O392 C378 1.249 1_565 S
O393 U374 2.420 . S
O393 C378 1.202 1_565 S
O394 U374 2.455 . S
O394 C391 1.301 . S
O395 U374 2.449 . S
O395 C391 1.282 . S
H396 C369 0.931 . S
H397 C371 0.929 . S
H398 C372 0.930 . S
H399 C373 0.931 . S
H400 C380 0.932 . S
H401 C381 0.930 . S
H402 C382 0.929 . S
H403 C384 0.930 . S
H404 C386 0.932 . S
H405 C387 0.929 . S
H406 C388 0.928 . S
H407 C390 0.932 . S
C8 C109 3.203 . S
C31 C149 3.686 . S
C53 C170 2.183 1_545 S
C229 C74 2.764 . S
C269 C26 2.391 . S
C48 C290 3.537 1_554 S
C71 C330 3.536 . S
C5 C389 2.869 . S
C50 C370 3.233 . S
C250 C70 3.673 . S
C309 C4 2.197 1_545 S
C28 C349 3.077 . S
C130 C73 2.343 . S
C7 C189 3.519 . S
C210 C30 3.279 . S
C90 C52 2.856 . S
C343 C9 2.208 . S
C383 C29 2.148 . S
C51 C263 2.994 . S
C303 C75 3.012 . S
C183 C27 3.068 . S
C49 C223 2.139 1_556 S
C103 C72 2.202 . S
C143 C6 3.045 . S
