# Generated by pormake.
# Topology myd, (4,6)-cn, num edge types: 1
# Building blocks:
#     Node 0, Type 0, BuildingBlock: NAWXER_clean_sbu_0, # of connection points: 4
#     Node 1, Type 0, BuildingBlock: NAWXER_clean_sbu_0, # of connection points: 4
#     Node 2, Type 0, BuildingBlock: NAWXER_clean_sbu_0, # of connection points: 4
#     Node 3, Type 0, BuildingBlock: NAWXER_clean_sbu_0, # of connection points: 4
#     Node 4, Type 0, BuildingBlock: NAWXER_clean_sbu_0, # of connection points: 4
#     Node 5, Type 0, BuildingBlock: NAWXER_clean_sbu_0, # of connection points: 4
#     Node 6, Type 0, BuildingBlock: NAWXER_clean_sbu_0, # of connection points: 4
#     Node 7, Type 0, BuildingBlock: NAWXER_clean_sbu_0, # of connection points: 4
#     Node 8, Type 0, BuildingBlock: NAWXER_clean_sbu_0, # of connection points: 4
#     Node 9, Type 0, BuildingBlock: NAWXER_clean_sbu_0, # of connection points: 4
#     Node 10, Type 0, BuildingBlock: NAWXER_clean_sbu_0, # of connection points: 4
#     Node 11, Type 0, BuildingBlock: NAWXER_clean_sbu_0, # of connection points: 4
#     Node 12, Type 1, BuildingBlock: FUNLAD_clean_sbu_0, # of connection points: 6
#     Node 13, Type 1, BuildingBlock: FUNLAD_clean_sbu_0, # of connection points: 6
#     Node 14, Type 1, BuildingBlock: FUNLAD_clean_sbu_0, # of connection points: 6
#     Node 15, Type 1, BuildingBlock: FUNLAD_clean_sbu_0, # of connection points: 6
#     Node 16, Type 1, BuildingBlock: FUNLAD_clean_sbu_0, # of connection points: 6
#     Node 17, Type 1, BuildingBlock: FUNLAD_clean_sbu_0, # of connection points: 6
#     Node 18, Type 1, BuildingBlock: FUNLAD_clean_sbu_0, # of connection points: 6
#     Node 19, Type 1, BuildingBlock: FUNLAD_clean_sbu_0, # of connection points: 6
#     Edge 20, Type (0, 1), None
#     Edge 21, Type (0, 1), None
#     Edge 22, Type (0, 1), None
#     Edge 23, Type (0, 1), None
#     Edge 24, Type (0, 1), None
#     Edge 25, Type (0, 1), None
#     Edge 26, Type (0, 1), None
#     Edge 27, Type (0, 1), None
#     Edge 28, Type (0, 1), None
#     Edge 29, Type (0, 1), None
#     Edge 30, Type (0, 1), None
#     Edge 31, Type (0, 1), None
#     Edge 32, Type (0, 1), None
#     Edge 33, Type (0, 1), None
#     Edge 34, Type (0, 1), None
#     Edge 35, Type (0, 1), None
#     Edge 36, Type (0, 1), None
#     Edge 37, Type (0, 1), None
#     Edge 38, Type (0, 1), None
#     Edge 39, Type (0, 1), None
#     Edge 40, Type (0, 1), None
#     Edge 41, Type (0, 1), None
#     Edge 42, Type (0, 1), None
#     Edge 43, Type (0, 1), None
#     Edge 44, Type (0, 1), None
#     Edge 45, Type (0, 1), None
#     Edge 46, Type (0, 1), None
#     Edge 47, Type (0, 1), None
#     Edge 48, Type (0, 1), None
#     Edge 49, Type (0, 1), None
#     Edge 50, Type (0, 1), None
#     Edge 51, Type (0, 1), None
#     Edge 52, Type (0, 1), None
#     Edge 53, Type (0, 1), None
#     Edge 54, Type (0, 1), None
#     Edge 55, Type (0, 1), None
#     Edge 56, Type (0, 1), None
#     Edge 57, Type (0, 1), None
#     Edge 58, Type (0, 1), None
#     Edge 59, Type (0, 1), None
#     Edge 60, Type (0, 1), None
#     Edge 61, Type (0, 1), None
#     Edge 62, Type (0, 1), None
#     Edge 63, Type (0, 1), None
#     Edge 64, Type (0, 1), None
#     Edge 65, Type (0, 1), None
#     Edge 66, Type (0, 1), None
#     Edge 67, Type (0, 1), None
# Relax obj value: 0.443
# Max RMSD: 0.297
# Mean RMSD: 0.168
data_MOF--net-myd--node1-NAWXER_clean_sbu_0--node2-FUNLAD_clean_sbu_0--edge1-none
_symmetry_space_group_name_H-M    P1
_symmetry_Int_Tables_number       1
_symmetry_cell_setting            triclinic
loop_
_symmetry_equiv_pos_as_xyz
'x, y, z'
_cell_length_a     20.846394
_cell_length_b     20.004244
_cell_length_c     25.233927
_cell_angle_alpha  81.357263
_cell_angle_beta   77.699759
_cell_angle_gamma 86.063467
loop_
_atom_site_label
_atom_site_type_symbol
_atom_site_fract_x
_atom_site_fract_y
_atom_site_fract_z
_atom_type_partial_charge
C0 C 0.95611 0.22786 0.31761 0.0
C1 C 0.02433 0.36333 0.4423 0.0
O2 O 1.01748 0.22769 0.31709 0.0
Zn3 Zn 0.08493 0.26233 0.35966 0.0
O4 O 0.91415 0.25475 0.35403 0.0
Zn5 Zn 0.98232 0.27723 0.39214 0.0
O6 O 0.0264 0.34744 0.32643 0.0
O7 O 0.13015 0.31632 0.29427 0.0
O8 O 0.96976 0.33439 0.44962 0.0
O9 O 0.07482 0.33885 0.41218 0.0
O10 O 0.11952 0.17588 0.38698 0.0
O11 O 1.01182 0.17634 0.41554 0.0
C12 C 0.0799 0.356 0.29103 0.0
C13 C 0.06691 0.14412 0.40653 0.0
C14 C 0.96158 0.80801 0.25678 0.0
C15 C 0.04454 0.68034 0.09983 0.0
O16 O 1.02213 0.796 0.23939 0.0
Zn17 Zn 0.09392 0.75181 0.18821 0.0
O18 O 0.91791 0.78221 0.23778 0.0
Zn19 Zn 0.98882 0.74009 0.18413 0.0
O20 O 1.01924 0.66755 0.25055 0.0
O21 O 0.11932 0.69001 0.25518 0.0
O22 O 0.98458 0.69326 0.12098 0.0
O23 O 0.08923 0.69564 0.12342 0.0
O24 O 0.12014 0.84575 0.15257 0.0
O25 O 1.01803 0.839 0.14346 0.0
C26 C 0.06705 0.65732 0.27627 0.0
C27 C 0.06831 0.8742 0.13803 0.0
C28 C 0.41118 1.02358 0.12013 0.0
C29 C 0.28085 0.97577 0.31499 0.0
O30 O 0.41601 0.9665 0.15005 0.0
Zn31 Zn 0.36102 0.98727 0.22194 0.0
O32 O 0.3859 0.07474 0.14279 0.0
Zn33 Zn 0.33075 0.09451 0.2197 0.0
O34 O 0.38128 0.1498 0.25406 0.0
O35 O 0.4172 0.04326 0.25896 0.0
O36 O 0.28296 1.03628 0.29085 0.0
O37 O 0.31471 0.92959 0.29012 0.0
O38 O 0.27927 1.01178 0.18722 0.0
O39 O 0.25274 0.12043 0.19083 0.0
C40 C 0.41926 0.10269 0.2714 0.0
C41 C 0.24397 0.06389 0.17586 0.0
C42 C 0.84081 0.54016 0.12445 0.0
C43 C 0.73495 0.48202 0.31762 0.0
O44 O 0.84238 0.48528 0.15718 0.0
Zn45 Zn 0.79018 0.51177 0.221 0.0
O46 O 0.803 0.58994 0.14028 0.0
Zn47 Zn 0.73166 0.60226 0.2179 0.0
O48 O 0.76067 0.67242 0.25546 0.0
O49 O 0.83665 0.60237 0.22241 0.0
O50 O 0.7083 0.5336 0.29271 0.0
O51 O 0.78649 0.45399 0.29238 0.0
O52 O 0.70157 0.50598 0.19655 0.0
O53 O 0.65321 0.60851 0.19035 0.0
C54 C 0.81465 0.63975 0.25872 0.0
C55 C 0.65738 0.5472 0.18122 0.0
C56 C 0.21795 0.44277 0.97704 0.0
C57 C 0.39712 0.26304 0.96298 0.0
O58 O 0.24789 0.42709 0.93074 0.0
Zn59 Zn 0.30914 0.35666 0.96177 0.0
O60 O 0.23916 0.41698 0.02024 0.0
Zn61 Zn 0.30558 0.3419 0.05046 0.0
O62 O 0.38043 0.38557 0.07258 0.0
O63 O 0.38423 0.40494 0.98388 0.0
O64 O 0.37357 0.27343 0.01183 0.0
O65 O 0.37017 0.29353 0.92445 0.0
O66 O 0.24026 0.28471 1.00198 0.0
O67 O 0.23576 0.27487 0.09049 0.0
C68 C 0.41152 0.40768 0.02432 0.0
C69 C 0.2142 0.25879 0.05029 0.0
C70 C 0.246 0.79266 0.4593 0.0
C71 C 0.45074 0.66407 0.50222 0.0
O72 O 0.29078 0.77394 0.42038 0.0
Zn73 Zn 0.36449 0.73874 0.46287 0.0
O74 O 0.26011 0.79196 0.50597 0.0
Zn75 Zn 0.32753 0.75306 0.55216 0.0
O76 O 0.37038 0.82923 0.57022 0.0
O77 O 0.4085 0.82313 0.48239 0.0
O78 O 0.40886 0.69152 0.53745 0.0
O79 O 0.44619 0.67526 0.45175 0.0
O80 O 0.30284 0.66651 0.51108 0.0
O81 O 0.26567 0.68527 0.59653 0.0
C82 C 0.40958 0.84981 0.52527 0.0
C83 C 0.26606 0.65028 0.55779 0.0
C84 C 0.71796 0.94277 0.47703 0.0
C85 C 0.89712 0.76304 0.46297 0.0
O86 O 0.74789 0.92709 0.43073 0.0
Zn87 Zn 0.80914 0.85666 0.46176 0.0
O88 O 0.73916 0.91698 0.52023 0.0
Zn89 Zn 0.80559 0.8419 0.55045 0.0
O90 O 0.88043 0.88556 0.57258 0.0
O91 O 0.88423 0.90494 0.48387 0.0
O92 O 0.87358 0.77343 0.51182 0.0
O93 O 0.87017 0.79353 0.42444 0.0
O94 O 0.74026 0.78472 0.50197 0.0
O95 O 0.73576 0.77487 0.59048 0.0
C96 C 0.91153 0.90768 0.52431 0.0
C97 C 0.71421 0.7588 0.55028 0.0
C98 C 0.57989 0.856 0.79103 0.0
C99 C 0.56688 0.64412 0.90653 0.0
O100 O 0.52639 0.84744 0.82642 0.0
Zn101 Zn 0.4823 0.77723 0.89214 0.0
O102 O 0.63014 0.81632 0.79427 0.0
Zn103 Zn 0.58492 0.76233 0.85966 0.0
O104 O 0.51747 0.72769 0.81709 0.0
O105 O 0.41413 0.75476 0.85401 0.0
O106 O 0.6195 0.67588 0.88698 0.0
O107 O 0.5118 0.67634 0.91554 0.0
O108 O 0.46974 0.8344 0.94962 0.0
O109 O 0.57479 0.83885 0.91218 0.0
C110 C 0.4561 0.72786 0.8176 0.0
C111 C 0.5243 0.86333 0.9423 0.0
C112 C 0.56705 0.15733 0.77627 0.0
C113 C 0.56832 0.3742 0.63803 0.0
O114 O 0.51924 0.16756 0.75055 0.0
Zn115 Zn 0.48883 0.24009 0.68413 0.0
O116 O 0.61932 0.19001 0.75519 0.0
Zn117 Zn 0.59392 0.25181 0.68821 0.0
O118 O 0.52213 0.296 0.73939 0.0
O119 O 0.41792 0.28222 0.73778 0.0
O120 O 0.62015 0.34575 0.65258 0.0
O121 O 0.51805 0.339 0.64346 0.0
O122 O 0.48459 0.19326 0.62098 0.0
O123 O 0.58924 0.19564 0.62342 0.0
C124 C 0.46158 0.30802 0.75678 0.0
C125 C 0.54454 0.18034 0.59983 0.0
C126 C 0.74399 0.56391 0.67584 0.0
C127 C 0.91929 0.60271 0.77138 0.0
O128 O 0.75277 0.62045 0.69081 0.0
Zn129 Zn 0.83077 0.59453 0.71969 0.0
O130 O 0.77928 0.5118 0.68721 0.0
Zn131 Zn 0.86103 0.48728 0.72194 0.0
O132 O 0.81469 0.42961 0.79012 0.0
O133 O 0.78295 0.53632 0.79083 0.0
O134 O 0.91721 0.54327 0.75896 0.0
O135 O 0.8813 0.64981 0.75405 0.0
O136 O 0.88593 0.57474 0.64278 0.0
O137 O 0.91602 0.4665 0.65006 0.0
C138 C 0.78082 0.47581 0.81497 0.0
C139 C 0.91119 0.52358 0.62013 0.0
C140 C 0.34082 0.04016 0.62445 0.0
C141 C 0.23495 0.98203 0.81762 0.0
O142 O 0.3424 0.98529 0.65719 0.0
Zn143 Zn 0.29019 1.01178 0.721 0.0
O144 O 0.30301 0.08995 0.64028 0.0
Zn145 Zn 0.23167 0.10226 0.7179 0.0
O146 O 0.26066 0.17243 0.75546 0.0
O147 O 0.33665 0.10239 0.7224 0.0
O148 O 0.2083 1.03361 0.79271 0.0
O149 O 0.2865 0.95401 0.79238 0.0
O150 O 0.20158 1.00598 0.69655 0.0
O151 O 0.15322 0.10851 0.69035 0.0
C152 C 0.31465 0.13977 0.75871 0.0
C153 C 0.15739 0.04719 0.68122 0.0
C154 C 0.76604 0.15031 0.05775 0.0
C155 C 0.90958 0.3498 0.02527 0.0
O156 O 0.76566 0.18526 0.09651 0.0
Zn157 Zn 0.82752 0.25306 0.05216 0.0
O158 O 0.80284 0.16652 0.01106 0.0
Zn159 Zn 0.8645 0.23875 0.96286 0.0
O160 O 0.9462 0.17527 0.95175 0.0
O161 O 0.90886 0.19153 0.03744 0.0
O162 O 0.9085 0.32314 0.98239 0.0
O163 O 0.87037 0.32923 0.07023 0.0
O164 O 0.76011 0.29197 1.00596 0.0
O165 O 0.79079 0.27396 0.92037 0.0
C166 C 0.95075 0.16409 1.00221 0.0
C167 C 0.746 0.29266 0.95929 0.0
C168 C 0.19272 0.05768 0.14643 0.0
N169 N 0.17648 1.01574 0.97806 0.0
C170 C 0.23721 0.98557 0.96433 0.0
C171 C 0.2554 0.9586 0.91417 0.0
C172 C 0.21189 0.9675 0.87776 0.0
C173 C 0.14652 0.98347 0.89888 0.0
C174 C 0.12957 1.0037 0.95031 0.0
Zn175 Zn 0.13311 0.06597 0.04597 0.0
C176 C 0.06446 0.94806 0.11808 0.0
N177 N 1.0046 0.13573 0.18419 0.0
C178 C 0.98553 0.09629 0.23297 0.0
C179 C 0.98381 0.20193 0.17695 0.0
C180 C 0.9507 0.23284 0.22178 0.0
C181 C 0.93972 0.19529 0.2743 0.0
C182 C 0.95189 0.125 0.27877 0.0
Zn183 Zn 0.07004 0.0971 0.12172 0.0
O184 O 0.20476 0.03793 0.09875 0.0
C185 C 0.16788 0.20304 0.05618 0.0
O186 O 0.13673 0.08038 0.16703 0.0
H187 H 0.99742 0.23224 0.1373 0.0
H188 H 0.27203 0.98456 0.99071 0.0
H189 H 1.00137 0.04387 0.23708 0.0
O190 O 0.18176 0.15912 0.02307 0.0
O191 O 0.11738 0.19553 0.09538 0.0
H192 H 0.07802 1.00967 0.96712 0.0
O193 O 0.99747 0.11978 0.07651 0.0
O194 O 0.05912 0.10965 0.99725 0.0
O195 O 0.03948 0.99161 0.14969 0.0
O196 O 0.09529 0.96892 0.07062 0.0
C197 C 1.00415 0.12602 0.0251 0.0
H198 H 0.30387 0.93607 0.90233 0.0
H199 H 0.1094 0.98462 0.87447 0.0
H200 H 0.94273 0.2873 0.21657 0.0
H201 H 0.945 0.09449 0.31871 0.0
C202 C 0.90154 0.55366 0.08467 0.0
N203 N 0.99351 0.58158 0.91693 0.0
C204 C 0.9454 0.62994 0.91009 0.0
C205 C 0.92512 0.64469 0.85959 0.0
C206 C 0.95429 0.60887 0.81604 0.0
C207 C 1.0074 0.56372 0.82312 0.0
C208 C 0.02598 0.5506 0.87386 0.0
Zn209 Zn 1.01058 0.53724 0.99361 0.0
C210 C 0.06101 0.63271 0.05843 0.0
N211 N 0.05275 0.45595 0.13962 0.0
C212 C 1.00029 0.43662 0.17911 0.0
C213 C 0.11525 0.44957 0.14877 0.0
C214 C 0.12683 0.41893 0.19931 0.0
C215 C 0.07297 0.39832 0.2404 0.0
C216 C 1.00896 0.40977 0.23036 0.0
Zn217 Zn 0.03387 0.49618 0.06821 0.0
O218 O 0.9077 0.55094 0.03368 0.0
C219 C 0.95725 0.40305 0.02285 0.0
O220 O 0.95175 0.54561 0.10566 0.0
H221 H 0.15623 0.46685 0.11663 0.0
H222 H 0.91932 0.65351 0.94478 0.0
H223 H 0.95173 0.44056 0.17057 0.0
O224 O 0.98084 0.44067 0.97822 0.0
O225 O 0.97257 0.4141 0.0668 0.0
H226 H 0.06296 0.51128 0.87987 0.0
O227 O 0.11522 0.44601 0.03368 0.0
O228 O 0.12099 0.51551 0.95786 0.0
O229 O 0.08878 0.57723 0.07366 0.0
O230 O 0.02819 0.63417 0.02072 0.0
C231 C 0.14852 0.46976 0.98794 0.0
H232 H 0.883 0.67878 0.85652 0.0
H233 H 0.03078 0.53424 0.7911 0.0
H234 H 0.17662 0.4105 0.20583 0.0
H235 H 0.96547 0.39397 0.26054 0.0
C236 C 0.07074 0.07118 0.4212 0.0
N237 N 0.04053 0.89326 0.3553 0.0
C238 C 1.005 0.93559 0.32404 0.0
C239 C 0.96019 0.90958 0.29859 0.0
C240 C 0.95179 0.83949 0.30609 0.0
C241 C 0.98252 0.79926 0.34465 0.0
C242 C 0.02828 0.82635 0.36722 0.0
Zn243 Zn 0.09289 0.92616 0.40514 0.0
C244 C 0.2227 0.96068 0.35922 0.0
N245 N 0.15443 0.97485 0.53708 0.0
C246 C 0.1253 0.93888 0.58539 0.0
C247 C 0.17895 0.0366 0.53503 0.0
C248 C 0.17053 0.06631 0.58252 0.0
C249 C 0.13936 1.03076 0.63263 0.0
C250 C 0.1174 0.96599 0.63396 0.0
Zn251 Zn 0.12415 0.95134 0.47241 0.0
O252 O 0.04551 1.02932 0.3984 0.0
C253 C 0.98505 0.91216 0.50789 0.0
O254 O 0.10917 0.04969 0.45193 0.0
H255 H 0.20168 0.0645 0.49621 0.0
H256 H 1.01218 0.98911 0.31847 0.0
H257 H 0.10452 0.89067 0.58603 0.0
O258 O 1.0113 0.88842 0.46452 0.0
O259 O 1.02085 0.94751 0.52671 0.0
H260 H 0.05352 0.79365 0.39492 0.0
O261 O 0.14824 0.8504 0.49471 0.0
O262 O 0.15757 0.83272 0.41044 0.0
O263 O 0.22226 0.95929 0.41073 0.0
O264 O 0.1688 0.9587 0.34395 0.0
C265 C 0.17855 0.8211 0.45492 0.0
H266 H 0.9384 0.94257 0.26852 0.0
H267 H 0.98047 0.74482 0.34917 0.0
H268 H 0.19201 0.11467 0.58063 0.0
H269 H 0.09671 0.93579 0.67244 0.0
C270 C 0.93991 0.70281 0.45437 0.0
N271 N 0.11401 0.59511 0.4955 0.0
C272 C 0.09997 0.63363 0.53721 0.0
C273 C 0.1471 0.64281 0.56712 0.0
C274 C 0.20962 0.612 0.55425 0.0
C275 C 0.22023 0.566 0.51563 0.0
C276 C 0.1719 0.55895 0.4861 0.0
Zn277 Zn 0.03675 0.58018 0.45976 0.0
C278 C 0.93466 0.53384 0.55968 0.0
N279 N 0.86483 0.55651 0.40917 0.0
C280 C 0.81691 0.60692 0.41007 0.0
C281 C 0.88696 0.52611 0.36399 0.0
C282 C 0.87268 0.55518 0.31486 0.0
C283 C 0.82909 0.61208 0.31249 0.0
C284 C 0.79813 0.63597 0.36136 0.0
Zn285 Zn 0.94546 0.56707 0.43826 0.0
O286 O 0.98936 0.68368 0.47626 0.0
C287 C 0.05298 0.6187 0.33478 0.0
O288 O 0.91905 0.66313 0.42959 0.0
H289 H 0.92446 0.48608 0.36356 0.0
H290 H 0.05218 0.65824 0.54739 0.0
H291 H 0.79969 0.63038 0.44674 0.0
O292 O 0.0844 0.6262 0.37194 0.0
O293 O 0.99934 0.58798 0.3511 0.0
H294 H 0.18124 0.52583 0.45493 0.0
O295 O 0.96578 0.46522 0.4466 0.0
O296 O 0.07005 0.47301 0.44586 0.0
O297 O 0.89578 0.55059 0.52626 0.0
O298 O 0.99549 0.53794 0.54118 0.0
C299 C 1.02094 0.43624 0.44831 0.0
H300 H 0.13676 0.67928 0.59583 0.0
H301 H 0.26821 0.5417 0.50394 0.0
H302 H 0.89733 0.53327 0.27879 0.0
H303 H 0.7629 0.67835 0.3615 0.0
C304 C 0.40155 0.05366 0.58467 0.0
N305 N 0.49351 0.08159 0.41693 0.0
C306 C 0.44539 0.12995 0.41009 0.0
C307 C 0.42511 0.14469 0.3596 0.0
C308 C 0.45428 0.10887 0.31605 0.0
C309 C 0.5074 0.06373 0.32312 0.0
C310 C 0.52598 0.05061 0.37386 0.0
Zn311 Zn 0.51059 0.03725 0.4936 0.0
C312 C 0.56102 0.13271 0.55843 0.0
N313 N 0.55276 0.95595 0.63961 0.0
C314 C 0.50029 0.93661 0.67909 0.0
C315 C 0.61526 0.94957 0.64877 0.0
C316 C 0.62684 0.91893 0.69931 0.0
C317 C 0.57297 0.89831 0.74039 0.0
C318 C 0.50896 0.90976 0.73035 0.0
Zn319 Zn 0.53388 0.99618 0.56821 0.0
O320 O 0.40771 0.05095 0.53368 0.0
C321 C 0.45725 0.90305 0.52285 0.0
O322 O 0.45176 0.04561 0.60566 0.0
H323 H 0.65624 0.96685 0.61663 0.0
H324 H 0.41931 0.15351 0.44478 0.0
H325 H 0.45174 0.94054 0.67055 0.0
O326 O 0.48084 0.94067 0.47822 0.0
O327 O 0.47258 0.9141 0.56679 0.0
H328 H 0.56297 1.0113 0.37986 0.0
O329 O 0.61523 0.94602 0.53368 0.0
O330 O 0.62099 1.01551 0.45785 0.0
O331 O 0.58879 0.07723 0.57366 0.0
O332 O 0.5282 0.13417 0.52072 0.0
C333 C 0.64853 0.96977 0.48794 0.0
H334 H 0.38298 0.17877 0.35653 0.0
H335 H 0.53078 1.03425 0.2911 0.0
H336 H 0.67662 0.9105 0.70584 0.0
H337 H 0.46547 0.89395 0.76052 0.0
C338 C 0.69274 0.55769 0.64642 0.0
N339 N 0.67648 0.51573 0.47806 0.0
C340 C 0.73721 0.48557 0.46432 0.0
C341 C 0.75539 0.45859 0.41417 0.0
C342 C 0.71189 0.46749 0.37775 0.0
C343 C 0.64652 0.48346 0.39888 0.0
C344 C 0.62957 0.50369 0.45031 0.0
Zn345 Zn 0.63312 0.56597 0.54596 0.0
C346 C 0.56448 0.44806 0.61808 0.0
N347 N 0.50461 0.63573 0.68419 0.0
C348 C 0.48554 0.59629 0.73296 0.0
C349 C 0.48381 0.70192 0.67694 0.0
C350 C 0.4507 0.73284 0.72177 0.0
C351 C 0.43971 0.69529 0.77429 0.0
C352 C 0.45189 0.625 0.77876 0.0
Zn353 Zn 0.57005 0.5971 0.62171 0.0
O354 O 0.70477 0.53794 0.59873 0.0
C355 C 0.66788 0.70304 0.55617 0.0
O356 O 0.63675 0.58039 0.66702 0.0
H357 H 0.49743 0.73224 0.63729 0.0
H358 H 0.77203 0.48456 0.49071 0.0
H359 H 0.50138 0.54387 0.73707 0.0
O360 O 0.68176 0.65912 0.52306 0.0
O361 O 0.61738 0.69553 0.59537 0.0
H362 H 0.57801 0.50967 0.46712 0.0
O363 O 0.49747 0.61977 0.57651 0.0
O364 O 0.55911 0.60964 0.49725 0.0
O365 O 0.53949 0.49161 0.64969 0.0
O366 O 0.5953 0.46892 0.57062 0.0
C367 C 0.50415 0.62601 0.5251 0.0
H368 H 0.80387 0.43606 0.40232 0.0
H369 H 0.6094 0.4846 0.37447 0.0
H370 H 0.44272 0.7873 0.71656 0.0
H371 H 0.445 0.59449 0.8187 0.0
C372 C 0.57072 0.57119 0.92121 0.0
N373 N 0.54052 0.39326 0.8553 0.0
C374 C 0.50498 0.43559 0.82404 0.0
C375 C 0.46018 0.40959 0.79859 0.0
C376 C 0.45179 0.33949 0.80609 0.0
C377 C 0.48251 0.29927 0.84465 0.0
C378 C 0.52827 0.32636 0.86723 0.0
Zn379 Zn 0.59288 0.42617 0.90514 0.0
C380 C 0.72268 0.4607 0.85922 0.0
N381 N 0.65443 0.47487 0.03707 0.0
C382 C 0.62529 0.43889 0.08538 0.0
C383 C 0.67895 0.53662 0.03503 0.0
C384 C 0.67052 0.56632 0.08252 0.0
C385 C 0.63935 0.53077 0.13263 0.0
C386 C 0.61739 0.466 0.13396 0.0
Zn387 Zn 0.62415 0.45136 0.9724 0.0
O388 O 0.54548 0.52932 0.89841 0.0
C389 C 0.48505 0.41216 1.0079 0.0
O390 O 0.60916 0.5497 0.95193 0.0
H391 H 0.70167 0.56453 0.99621 0.0
H392 H 0.51217 0.48911 0.81847 0.0
H393 H 0.60452 0.39068 0.08602 0.0
O394 O 0.5113 0.3884 0.96453 0.0
O395 O 0.52085 0.44752 0.02671 0.0
H396 H 0.5535 0.29366 0.89493 0.0
O397 O 0.64825 0.35042 0.9947 0.0
O398 O 0.65757 0.33273 0.91044 0.0
O399 O 0.72225 0.45931 0.91072 0.0
O400 O 0.66878 0.45872 0.84396 0.0
C401 C 0.67856 0.32112 0.95491 0.0
H402 H 0.43839 0.44257 0.76852 0.0
H403 H 0.48046 0.24482 0.84917 0.0
H404 H 0.69199 0.61468 0.08063 0.0
H405 H 0.59671 0.43579 0.17243 0.0
C406 C 0.43991 0.20281 0.95438 0.0
N407 N 0.614 0.09509 0.99551 0.0
C408 C 0.59995 0.13359 0.03723 0.0
C409 C 0.64708 0.14276 0.06714 0.0
C410 C 0.7096 0.11198 0.05426 0.0
C411 C 0.72022 0.06599 0.01563 0.0
C412 C 0.67189 0.05894 0.9861 0.0
Zn413 Zn 0.53674 0.08017 0.95977 0.0
C414 C 0.43465 1.03384 0.05968 0.0
N415 N 0.36482 0.05653 0.90917 0.0
C416 C 0.3169 0.10694 0.91007 0.0
C417 C 0.38695 1.02612 0.86399 0.0
C418 C 0.37267 0.0552 0.81486 0.0
C419 C 0.32909 0.1121 0.81249 0.0
C420 C 0.29812 0.13599 0.86136 0.0
Zn421 Zn 0.44545 0.06708 0.93826 0.0
O422 O 0.48935 0.18368 0.97627 0.0
C423 C 0.55297 0.1187 0.83478 0.0
O424 O 0.41906 0.16314 0.92959 0.0
H425 H 0.42444 0.9861 0.86356 0.0
H426 H 0.55215 0.15819 0.04743 0.0
H427 H 0.29968 0.1304 0.94674 0.0
O428 O 0.5844 0.1262 0.87195 0.0
O429 O 0.49934 0.08798 0.8511 0.0
H430 H 0.68123 1.02583 0.95493 0.0
O431 O 0.46576 0.96522 0.94661 0.0
O432 O 0.57004 0.97301 0.94586 0.0
O433 O 0.39576 0.05061 0.02626 0.0
O434 O 0.49548 0.03793 0.04118 0.0
C435 C 0.52092 0.93624 0.94831 0.0
H436 H 0.63674 0.17922 0.09586 0.0
H437 H 0.76821 0.04171 1.00393 0.0
H438 H 0.39733 1.03328 0.77879 0.0
H439 H 0.2629 0.17837 0.8615 0.0
loop_
_geom_bond_atom_site_label_1
_geom_bond_atom_site_label_2
_geom_bond_distance
_geom_bond_site_symmetry_2
_ccdc_geom_bond_type
C0 O2 1.247 . S
C0 O4 1.258 1_455 S
C1 O8 1.247 . S
C1 O9 1.258 1_655 S
O2 C0 1.247 . S
O2 Zn3 2.028 . S
Zn3 O2 2.028 . S
Zn3 O7 2.035 . S
Zn3 O9 2.035 . S
Zn3 O10 2.028 . S
O4 C0 1.258 1_655 S
O4 Zn5 2.035 . S
Zn5 O4 2.035 . S
Zn5 O6 2.028 . S
Zn5 O8 2.028 . S
Zn5 O11 2.035 . S
O6 Zn5 2.028 . S
O6 C12 1.247 . S
O7 Zn3 2.035 . S
O7 C12 1.258 1_455 S
O8 C1 1.247 . S
O8 Zn5 2.028 . S
O9 C1 1.258 1_455 S
O9 Zn3 2.035 . S
O10 Zn3 2.028 . S
O10 C13 1.247 . S
O11 Zn5 2.035 . S
O11 C13 1.258 1_655 S
C12 O6 1.247 . S
C12 O7 1.258 1_655 S
C13 O10 1.247 . S
C13 O11 1.258 1_455 S
C14 O16 1.247 . S
C14 O18 1.258 1_455 S
C15 O22 1.247 1_455 S
C15 O23 1.258 . S
O16 C14 1.247 . S
O16 Zn17 2.028 . S
Zn17 O16 2.028 . S
Zn17 O21 2.035 . S
Zn17 O23 2.035 . S
Zn17 O24 2.028 . S
O18 C14 1.258 1_655 S
O18 Zn19 2.035 . S
Zn19 O18 2.035 . S
Zn19 O20 2.028 . S
Zn19 O22 2.028 . S
Zn19 O25 2.035 . S
O20 Zn19 2.028 . S
O20 C26 1.247 1_655 S
O21 Zn17 2.035 . S
O21 C26 1.258 . S
O22 C15 1.247 1_655 S
O22 Zn19 2.028 . S
O23 C15 1.258 . S
O23 Zn17 2.035 . S
O24 Zn17 2.028 . S
O24 C27 1.247 . S
O25 Zn19 2.035 . S
O25 C27 1.258 1_655 S
C26 O20 1.247 1_455 S
C26 O21 1.258 . S
C27 O24 1.247 . S
C27 O25 1.258 1_455 S
C28 O30 1.247 1_545 S
C28 O32 1.258 . S
C29 O36 1.231 1_565 S
C29 O37 1.273 . S
O30 C28 1.247 1_565 S
O30 Zn31 2.028 . S
Zn31 O30 2.028 . S
Zn31 O35 2.035 . S
Zn31 O37 2.035 . S
Zn31 O38 2.028 . S
O32 C28 1.258 . S
O32 Zn33 2.035 . S
Zn33 O32 2.035 . S
Zn33 O34 2.028 . S
Zn33 O36 2.028 . S
Zn33 O39 2.035 . S
O34 Zn33 2.028 . S
O34 C40 1.247 . S
O35 Zn31 2.035 . S
O35 C40 1.258 1_565 S
O36 C29 1.231 1_545 S
O36 Zn33 2.028 . S
O37 C29 1.273 . S
O37 Zn31 2.035 . S
O38 Zn31 2.028 . S
O38 C41 1.247 1_565 S
O39 Zn33 2.035 . S
O39 C41 1.258 . S
C40 O34 1.247 . S
C40 O35 1.258 1_545 S
C41 O38 1.247 1_545 S
C41 O39 1.258 . S
C42 O44 1.247 . S
C42 O46 1.258 . S
C43 O50 1.247 . S
C43 O51 1.258 . S
O44 C42 1.247 . S
O44 Zn45 2.028 . S
Zn45 O44 2.028 . S
Zn45 O49 2.035 . S
Zn45 O51 2.035 . S
Zn45 O52 2.028 . S
O46 C42 1.258 . S
O46 Zn47 2.035 . S
Zn47 O46 2.035 . S
Zn47 O48 2.028 . S
Zn47 O50 2.028 . S
Zn47 O53 2.035 . S
O48 Zn47 2.028 . S
O48 C54 1.247 . S
O49 Zn45 2.035 . S
O49 C54 1.258 . S
O50 C43 1.247 . S
O50 Zn47 2.028 . S
O51 C43 1.258 . S
O51 Zn45 2.035 . S
O52 Zn45 2.028 . S
O52 C55 1.247 . S
O53 Zn47 2.035 . S
O53 C55 1.258 . S
C54 O48 1.247 . S
C54 O49 1.258 . S
C55 O52 1.247 . S
C55 O53 1.258 . S
C56 O58 1.247 1_554 S
C56 O60 1.258 . S
C57 O64 1.247 1_556 S
C57 O65 1.258 . S
O58 C56 1.247 1_556 S
O58 Zn59 2.028 . S
Zn59 O58 2.028 . S
Zn59 O63 2.035 . S
Zn59 O65 2.035 . S
Zn59 O66 2.028 . S
O60 C56 1.258 . S
O60 Zn61 2.035 . S
Zn61 O60 2.035 . S
Zn61 O62 2.028 . S
Zn61 O64 2.028 . S
Zn61 O67 2.035 . S
O62 Zn61 2.028 . S
O62 C68 1.247 1_554 S
O63 Zn59 2.035 . S
O63 C68 1.258 . S
O64 C57 1.247 1_554 S
O64 Zn61 2.028 . S
O65 C57 1.258 . S
O65 Zn59 2.035 . S
O66 Zn59 2.028 . S
O66 C69 1.247 1_556 S
O67 Zn61 2.035 . S
O67 C69 1.258 . S
C68 O62 1.247 1_556 S
C68 O63 1.258 . S
C69 O66 1.247 1_554 S
C69 O67 1.258 . S
C70 O72 1.247 . S
C70 O74 1.258 . S
C71 O78 1.247 . S
C71 O79 1.258 . S
O72 C70 1.247 . S
O72 Zn73 2.028 . S
Zn73 O72 2.028 . S
Zn73 O77 2.035 . S
Zn73 O79 2.035 . S
Zn73 O80 2.028 . S
O74 C70 1.258 . S
O74 Zn75 2.035 . S
Zn75 O74 2.035 . S
Zn75 O76 2.028 . S
Zn75 O78 2.028 . S
Zn75 O81 2.035 . S
O76 Zn75 2.028 . S
O76 C82 1.247 . S
O77 Zn73 2.035 . S
O77 C82 1.258 . S
O78 C71 1.247 . S
O78 Zn75 2.028 . S
O79 C71 1.258 . S
O79 Zn73 2.035 . S
O80 Zn73 2.028 . S
O80 C83 1.247 . S
O81 Zn75 2.035 . S
O81 C83 1.258 . S
C82 O76 1.247 . S
C82 O77 1.258 . S
C83 O80 1.247 . S
C83 O81 1.258 . S
C84 O86 1.247 . S
C84 O88 1.258 . S
C85 O92 1.247 . S
C85 O93 1.258 . S
O86 C84 1.247 . S
O86 Zn87 2.028 . S
Zn87 O86 2.028 . S
Zn87 O91 2.035 . S
Zn87 O93 2.035 . S
Zn87 O94 2.028 . S
O88 C84 1.258 . S
O88 Zn89 2.035 . S
Zn89 O88 2.035 . S
Zn89 O90 2.028 . S
Zn89 O92 2.028 . S
Zn89 O95 2.035 . S
O90 Zn89 2.028 . S
O90 C96 1.247 . S
O91 Zn87 2.035 . S
O91 C96 1.258 . S
O92 C85 1.247 . S
O92 Zn89 2.028 . S
O93 C85 1.258 . S
O93 Zn87 2.035 . S
O94 Zn87 2.028 . S
O94 C97 1.247 . S
O95 Zn89 2.035 . S
O95 C97 1.258 . S
C96 O90 1.247 . S
C96 O91 1.258 . S
C97 O94 1.247 . S
C97 O95 1.258 . S
C98 O100 1.247 . S
C98 O102 1.258 . S
C99 O106 1.247 . S
C99 O107 1.258 . S
O100 C98 1.247 . S
O100 Zn101 2.028 . S
Zn101 O100 2.028 . S
Zn101 O105 2.035 . S
Zn101 O107 2.035 . S
Zn101 O108 2.028 . S
O102 C98 1.258 . S
O102 Zn103 2.035 . S
Zn103 O102 2.035 . S
Zn103 O104 2.028 . S
Zn103 O106 2.028 . S
Zn103 O109 2.035 . S
O104 Zn103 2.028 . S
O104 C110 1.247 . S
O105 Zn101 2.035 . S
O105 C110 1.258 . S
O106 C99 1.247 . S
O106 Zn103 2.028 . S
O107 C99 1.258 . S
O107 Zn101 2.035 . S
O108 Zn101 2.028 . S
O108 C111 1.247 . S
O109 Zn103 2.035 . S
O109 C111 1.258 . S
C110 O104 1.247 . S
C110 O105 1.258 . S
C111 O108 1.247 . S
C111 O109 1.258 . S
C112 O114 1.247 . S
C112 O116 1.258 . S
C113 O120 1.247 . S
C113 O121 1.258 . S
O114 C112 1.247 . S
O114 Zn115 2.028 . S
Zn115 O114 2.028 . S
Zn115 O119 2.035 . S
Zn115 O121 2.035 . S
Zn115 O122 2.028 . S
O116 C112 1.258 . S
O116 Zn117 2.035 . S
Zn117 O116 2.035 . S
Zn117 O118 2.028 . S
Zn117 O120 2.028 . S
Zn117 O123 2.035 . S
O118 Zn117 2.028 . S
O118 C124 1.247 . S
O119 Zn115 2.035 . S
O119 C124 1.258 . S
O120 C113 1.247 . S
O120 Zn117 2.028 . S
O121 C113 1.258 . S
O121 Zn115 2.035 . S
O122 Zn115 2.028 . S
O122 C125 1.247 . S
O123 Zn117 2.035 . S
O123 C125 1.258 . S
C124 O118 1.247 . S
C124 O119 1.258 . S
C125 O122 1.247 . S
C125 O123 1.258 . S
C126 O128 1.247 . S
C126 O130 1.258 . S
C127 O134 1.247 . S
C127 O135 1.258 . S
O128 C126 1.247 . S
O128 Zn129 2.028 . S
Zn129 O128 2.028 . S
Zn129 O133 2.035 . S
Zn129 O135 2.035 . S
Zn129 O136 2.028 . S
O130 C126 1.258 . S
O130 Zn131 2.035 . S
Zn131 O130 2.035 . S
Zn131 O132 2.028 . S
Zn131 O134 2.028 . S
Zn131 O137 2.035 . S
O132 Zn131 2.028 . S
O132 C138 1.247 . S
O133 Zn129 2.035 . S
O133 C138 1.258 . S
O134 C127 1.247 . S
O134 Zn131 2.028 . S
O135 C127 1.258 . S
O135 Zn129 2.035 . S
O136 Zn129 2.028 . S
O136 C139 1.247 . S
O137 Zn131 2.035 . S
O137 C139 1.258 . S
C138 O132 1.247 . S
C138 O133 1.258 . S
C139 O136 1.247 . S
C139 O137 1.258 . S
C140 O142 1.247 1_545 S
C140 O144 1.258 . S
C141 O148 1.247 . S
C141 O149 1.258 1_545 S
O142 C140 1.247 1_565 S
O142 Zn143 2.028 . S
Zn143 O142 2.028 . S
Zn143 O147 2.035 . S
Zn143 O149 2.035 . S
Zn143 O150 2.028 . S
O144 C140 1.258 . S
O144 Zn145 2.035 . S
Zn145 O144 2.035 . S
Zn145 O146 2.028 . S
Zn145 O148 2.028 . S
Zn145 O151 2.035 . S
O146 Zn145 2.028 . S
O146 C152 1.247 . S
O147 Zn143 2.035 . S
O147 C152 1.258 1_565 S
O148 C141 1.247 . S
O148 Zn145 2.028 . S
O149 C141 1.258 1_565 S
O149 Zn143 2.035 . S
O150 Zn143 2.028 . S
O150 C153 1.247 1_565 S
O151 Zn145 2.035 . S
O151 C153 1.258 . S
C152 O146 1.247 . S
C152 O147 1.258 1_545 S
C153 O150 1.247 1_545 S
C153 O151 1.258 . S
C154 O156 1.247 . S
C154 O158 1.258 1_554 S
C155 O162 1.247 1_554 S
C155 O163 1.258 . S
O156 C154 1.247 . S
O156 Zn157 2.028 . S
Zn157 O156 2.028 . S
Zn157 O161 2.035 . S
Zn157 O163 2.035 . S
Zn157 O164 2.028 . S
O158 C154 1.258 1_556 S
O158 Zn159 2.035 . S
Zn159 O158 2.035 . S
Zn159 O160 2.028 . S
Zn159 O162 2.028 . S
Zn159 O165 2.035 . S
O160 Zn159 2.028 . S
O160 C166 1.247 1_556 S
O161 Zn157 2.035 . S
O161 C166 1.258 . S
O162 C155 1.247 1_556 S
O162 Zn159 2.028 . S
O163 C155 1.258 . S
O163 Zn157 2.035 . S
O164 Zn157 2.028 . S
O164 C167 1.247 1_554 S
O165 Zn159 2.035 . S
O165 C167 1.258 . S
C166 O160 1.247 1_554 S
C166 O161 1.258 . S
C167 O164 1.247 1_556 S
C167 O165 1.258 . S
C168 O184 1.251 . S
C168 O186 1.254 1_565 S
N169 C170 1.333 . S
N169 C174 1.307 . S
N169 Zn175 2.020 1_566 S
C170 N169 1.333 . S
C170 C171 1.379 . S
C170 H188 0.952 . S
C171 C170 1.379 . S
C171 C172 1.390 . S
C171 H198 0.949 . S
C172 C171 1.390 . S
C172 C173 1.357 . S
C173 C172 1.357 . S
C173 C174 1.370 . S
C173 H199 0.950 . S
C174 N169 1.307 . S
C174 C173 1.370 . S
C174 H192 0.948 . S
Zn175 N169 2.020 1_544 S
Zn175 O184 2.039 1_545 S
Zn175 O190 2.034 . S
Zn175 O194 2.025 1_455 S
Zn175 O196 2.024 1_545 S
C176 O195 1.246 . S
C176 O196 1.249 . S
N177 C178 1.307 . S
N177 C179 1.333 1_455 S
N177 Zn183 2.020 . S
C178 N177 1.307 . S
C178 C182 1.370 . S
C178 H189 0.948 . S
C179 N177 1.333 1_655 S
C179 C180 1.379 . S
C179 H187 0.952 . S
C180 C179 1.379 . S
C180 C181 1.390 . S
C180 H200 0.949 . S
C181 C180 1.390 . S
C181 C182 1.357 1_655 S
C182 C178 1.370 . S
C182 C181 1.357 1_455 S
C182 H201 0.950 . S
Zn183 N177 2.020 . S
Zn183 O186 2.025 . S
Zn183 O191 2.024 . S
Zn183 O193 2.039 1_455 S
Zn183 O195 2.034 1_545 S
O184 C168 1.251 . S
O184 Zn175 2.039 1_565 S
C185 O190 1.246 . S
C185 O191 1.249 . S
O186 C168 1.254 1_545 S
O186 Zn183 2.025 . S
H187 C179 0.952 . S
H188 C170 0.952 . S
H189 C178 0.948 . S
O190 Zn175 2.034 . S
O190 C185 1.246 . S
O191 Zn183 2.024 . S
O191 C185 1.249 . S
H192 C174 0.948 . S
O193 Zn183 2.039 1_655 S
O193 C197 1.251 . S
O194 Zn175 2.025 1_655 S
O194 C197 1.254 . S
O195 C176 1.246 . S
O195 Zn183 2.034 1_565 S
O196 Zn175 2.024 1_565 S
O196 C176 1.249 . S
C197 O193 1.251 . S
C197 O194 1.254 . S
H198 C171 0.949 . S
H199 C173 0.950 . S
H200 C180 0.949 . S
H201 C182 0.950 . S
C202 O218 1.251 . S
C202 O220 1.254 . S
N203 C204 1.333 . S
N203 C208 1.307 1_655 S
N203 Zn209 2.020 . S
C204 N203 1.333 . S
C204 C205 1.379 . S
C204 H222 0.952 . S
C205 C204 1.379 . S
C205 C206 1.390 . S
C205 H232 0.949 . S
C206 C205 1.390 . S
C206 C207 1.357 1_655 S
C207 C206 1.357 1_455 S
C207 C208 1.370 . S
C207 H233 0.950 . S
C208 N203 1.307 1_455 S
C208 C207 1.370 . S
C208 H226 0.948 . S
Zn209 N203 2.020 . S
Zn209 O218 2.039 1_556 S
Zn209 O224 2.034 . S
Zn209 O228 2.025 1_655 S
Zn209 O230 2.024 1_656 S
C210 O229 1.246 . S
C210 O230 1.249 . S
N211 C212 1.307 1_455 S
N211 C213 1.333 . S
N211 Zn217 2.024 . S
C212 N211 1.307 1_655 S
C212 C216 1.370 . S
C212 H223 0.948 . S
C213 N211 1.333 . S
C213 C214 1.379 . S
C213 H221 0.952 . S
C214 C213 1.379 . S
C214 C215 1.390 . S
C214 H234 0.949 . S
C215 C214 1.390 . S
C215 C216 1.357 1_455 S
C216 C212 1.370 . S
C216 C215 1.357 1_655 S
C216 H235 0.950 . S
Zn217 N211 2.024 . S
Zn217 O220 2.014 1_455 S
Zn217 O225 2.017 1_455 S
Zn217 O227 2.049 . S
Zn217 O229 2.040 . S
O218 C202 1.251 . S
O218 Zn209 2.039 1_554 S
C219 O224 1.246 1_554 S
C219 O225 1.249 . S
O220 C202 1.254 . S
O220 Zn217 2.014 1_655 S
H221 C213 0.952 . S
H222 C204 0.952 . S
H223 C212 0.948 . S
O224 Zn209 2.034 . S
O224 C219 1.246 1_556 S
O225 Zn217 2.017 1_655 S
O225 C219 1.249 . S
H226 C208 0.948 . S
O227 Zn217 2.049 . S
O227 C231 1.251 1_554 S
O228 Zn209 2.025 1_455 S
O228 C231 1.254 . S
O229 C210 1.246 . S
O229 Zn217 2.040 . S
O230 Zn209 2.024 1_454 S
O230 C210 1.249 . S
C231 O227 1.251 1_556 S
C231 O228 1.254 . S
H232 C205 0.949 . S
H233 C207 0.950 . S
H234 C214 0.949 . S
H235 C216 0.950 . S
C236 O252 1.251 1_545 S
C236 O254 1.254 . S
N237 C238 1.333 1_455 S
N237 C242 1.307 . S
N237 Zn243 2.020 . S
C238 N237 1.333 1_655 S
C238 C239 1.379 . S
C238 H256 0.952 . S
C239 C238 1.379 . S
C239 C240 1.390 1_655 S
C239 H266 0.949 . S
C240 C239 1.390 1_455 S
C240 C241 1.357 . S
C241 C240 1.357 . S
C241 C242 1.370 . S
C241 H267 0.950 . S
C242 N237 1.307 . S
C242 C241 1.370 . S
C242 H260 0.948 . S
Zn243 N237 2.020 . S
Zn243 O252 2.039 . S
Zn243 O258 2.034 1_455 S
Zn243 O262 2.025 . S
Zn243 O264 2.024 . S
C244 O263 1.246 . S
C244 O264 1.249 . S
N245 C246 1.307 . S
N245 C247 1.333 1_545 S
N245 Zn251 2.020 1_545 S
C246 N245 1.307 . S
C246 C250 1.370 . S
C246 H257 0.948 . S
C247 N245 1.333 1_565 S
C247 C248 1.379 . S
C247 H255 0.952 . S
C248 C247 1.379 . S
C248 C249 1.390 1_565 S
C248 H268 0.949 . S
C249 C248 1.390 1_545 S
C249 C250 1.357 . S
C250 C246 1.370 . S
C250 C249 1.357 . S
C250 H269 0.950 . S
Zn251 N245 2.020 1_565 S
Zn251 O254 2.025 1_565 S
Zn251 O259 2.024 . S
Zn251 O261 2.039 . S
Zn251 O263 2.034 . S
O252 C236 1.251 1_565 S
O252 Zn243 2.039 . S
C253 O258 1.246 . S
C253 O259 1.249 1_655 S
O254 C236 1.254 . S
O254 Zn251 2.025 1_545 S
H255 C247 0.952 . S
H256 C238 0.952 . S
H257 C246 0.948 . S
O258 Zn243 2.034 1_655 S
O258 C253 1.246 . S
O259 Zn251 2.024 . S
O259 C253 1.249 1_455 S
H260 C242 0.948 . S
O261 Zn251 2.039 . S
O261 C265 1.251 . S
O262 Zn243 2.025 . S
O262 C265 1.254 . S
O263 C244 1.246 . S
O263 Zn251 2.034 . S
O264 Zn243 2.024 . S
O264 C244 1.249 . S
C265 O261 1.251 . S
C265 O262 1.254 . S
H266 C239 0.949 . S
H267 C241 0.950 . S
H268 C248 0.949 . S
H269 C250 0.950 . S
C270 O286 1.251 . S
C270 O288 1.254 . S
N271 C272 1.333 . S
N271 C276 1.307 . S
N271 Zn277 2.020 . S
C272 N271 1.333 . S
C272 C273 1.379 . S
C272 H290 0.952 . S
C273 C272 1.379 . S
C273 C274 1.390 . S
C273 H300 0.949 . S
C274 C273 1.390 . S
C274 C275 1.357 . S
C275 C274 1.357 . S
C275 C276 1.370 . S
C275 H301 0.950 . S
C276 N271 1.307 . S
C276 C275 1.370 . S
C276 H294 0.948 . S
Zn277 N271 2.020 . S
Zn277 O286 2.039 1_455 S
Zn277 O292 2.034 . S
Zn277 O296 2.025 . S
Zn277 O298 2.024 1_455 S
C278 O297 1.246 . S
C278 O298 1.249 . S
N279 C280 1.307 . S
N279 C281 1.333 . S
N279 Zn285 2.020 . S
C280 N279 1.307 . S
C280 C284 1.370 . S
C280 H291 0.948 . S
C281 N279 1.333 . S
C281 C282 1.379 . S
C281 H289 0.952 . S
C282 C281 1.379 . S
C282 C283 1.390 . S
C282 H302 0.949 . S
C283 C282 1.390 . S
C283 C284 1.357 . S
C284 C280 1.370 . S
C284 C283 1.357 . S
C284 H303 0.950 . S
Zn285 N279 2.020 . S
Zn285 O288 2.025 . S
Zn285 O293 2.024 . S
Zn285 O295 2.039 . S
Zn285 O297 2.034 . S
O286 C270 1.251 . S
O286 Zn277 2.039 1_655 S
C287 O292 1.246 . S
C287 O293 1.249 1_455 S
O288 C270 1.254 . S
O288 Zn285 2.025 . S
H289 C281 0.952 . S
H290 C272 0.952 . S
H291 C280 0.948 . S
O292 Zn277 2.034 . S
O292 C287 1.246 . S
O293 Zn285 2.024 . S
O293 C287 1.249 1_655 S
H294 C276 0.948 . S
O295 Zn285 2.039 . S
O295 C299 1.251 1_655 S
O296 Zn277 2.025 . S
O296 C299 1.254 . S
O297 C278 1.246 . S
O297 Zn285 2.034 . S
O298 Zn277 2.024 1_655 S
O298 C278 1.249 . S
C299 O295 1.251 1_455 S
C299 O296 1.254 . S
H300 C273 0.949 . S
H301 C275 0.950 . S
H302 C282 0.949 . S
H303 C284 0.950 . S
C304 O320 1.251 . S
C304 O322 1.254 1_545 S
N305 C306 1.333 . S
N305 C310 1.307 . S
N305 Zn311 2.020 . S
C306 N305 1.333 . S
C306 C307 1.379 . S
C306 H324 0.952 . S
C307 C306 1.379 . S
C307 C308 1.390 . S
C307 H334 0.949 . S
C308 C307 1.390 . S
C308 C309 1.357 . S
C309 C308 1.357 . S
C309 C310 1.370 . S
C309 H335 0.950 . S
C310 N305 1.307 . S
C310 C309 1.370 . S
C310 H328 0.948 . S
Zn311 N305 2.020 . S
Zn311 O320 2.039 . S
Zn311 O326 2.034 1_545 S
Zn311 O330 2.025 1_545 S
Zn311 O332 2.024 . S
C312 O331 1.246 . S
C312 O332 1.249 . S
N313 C314 1.307 . S
N313 C315 1.333 . S
N313 Zn319 2.020 . S
C314 N313 1.307 . S
C314 C318 1.370 . S
C314 H325 0.948 . S
C315 N313 1.333 . S
C315 C316 1.379 . S
C315 H323 0.952 . S
C316 C315 1.379 . S
C316 C317 1.390 . S
C316 H336 0.949 . S
C317 C316 1.390 . S
C317 C318 1.357 . S
C318 C314 1.370 . S
C318 C317 1.357 . S
C318 H337 0.950 . S
Zn319 N313 2.020 . S
Zn319 O322 2.025 . S
Zn319 O327 2.024 . S
Zn319 O329 2.039 . S
Zn319 O331 2.034 1_565 S
O320 C304 1.251 . S
O320 Zn311 2.039 . S
C321 O326 1.246 . S
C321 O327 1.249 . S
O322 C304 1.254 1_565 S
O322 Zn319 2.025 . S
H323 C315 0.952 . S
H324 C306 0.952 . S
H325 C314 0.948 . S
O326 Zn311 2.034 1_565 S
O326 C321 1.246 . S
O327 Zn319 2.024 . S
O327 C321 1.249 . S
H328 C310 0.948 . S
O329 Zn319 2.039 . S
O329 C333 1.251 . S
O330 Zn311 2.025 1_565 S
O330 C333 1.254 . S
O331 C312 1.246 . S
O331 Zn319 2.034 1_545 S
O332 Zn311 2.024 . S
O332 C312 1.249 . S
C333 O329 1.251 . S
C333 O330 1.254 . S
H334 C307 0.949 . S
H335 C309 0.950 . S
H336 C316 0.949 . S
H337 C318 0.950 . S
C338 O354 1.251 . S
C338 O356 1.254 . S
N339 C340 1.333 . S
N339 C344 1.307 . S
N339 Zn345 2.020 . S
C340 N339 1.333 . S
C340 C341 1.379 . S
C340 H358 0.952 . S
C341 C340 1.379 . S
C341 C342 1.390 . S
C341 H368 0.949 . S
C342 C341 1.390 . S
C342 C343 1.357 . S
C343 C342 1.357 . S
C343 C344 1.370 . S
C343 H369 0.950 . S
C344 N339 1.307 . S
C344 C343 1.370 . S
C344 H362 0.948 . S
Zn345 N339 2.020 . S
Zn345 O354 2.039 . S
Zn345 O360 2.034 . S
Zn345 O364 2.025 . S
Zn345 O366 2.024 . S
C346 O365 1.246 . S
C346 O366 1.249 . S
N347 C348 1.307 . S
N347 C349 1.333 . S
N347 Zn353 2.020 . S
C348 N347 1.307 . S
C348 C352 1.370 . S
C348 H359 0.948 . S
C349 N347 1.333 . S
C349 C350 1.379 . S
C349 H357 0.952 . S
C350 C349 1.379 . S
C350 C351 1.390 . S
C350 H370 0.949 . S
C351 C350 1.390 . S
C351 C352 1.357 . S
C352 C348 1.370 . S
C352 C351 1.357 . S
C352 H371 0.950 . S
Zn353 N347 2.020 . S
Zn353 O356 2.025 . S
Zn353 O361 2.024 . S
Zn353 O363 2.039 . S
Zn353 O365 2.034 . S
O354 C338 1.251 . S
O354 Zn345 2.039 . S
C355 O360 1.246 . S
C355 O361 1.249 . S
O356 C338 1.254 . S
O356 Zn353 2.025 . S
H357 C349 0.952 . S
H358 C340 0.952 . S
H359 C348 0.948 . S
O360 Zn345 2.034 . S
O360 C355 1.246 . S
O361 Zn353 2.024 . S
O361 C355 1.249 . S
H362 C344 0.948 . S
O363 Zn353 2.039 . S
O363 C367 1.251 . S
O364 Zn345 2.025 . S
O364 C367 1.254 . S
O365 C346 1.246 . S
O365 Zn353 2.034 . S
O366 Zn345 2.024 . S
O366 C346 1.249 . S
C367 O363 1.251 . S
C367 O364 1.254 . S
H368 C341 0.949 . S
H369 C343 0.950 . S
H370 C350 0.949 . S
H371 C352 0.950 . S
C372 O388 1.251 . S
C372 O390 1.254 . S
N373 C374 1.333 . S
N373 C378 1.307 . S
N373 Zn379 2.020 . S
C374 N373 1.333 . S
C374 C375 1.379 . S
C374 H392 0.952 . S
C375 C374 1.379 . S
C375 C376 1.390 . S
C375 H402 0.949 . S
C376 C375 1.390 . S
C376 C377 1.357 . S
C377 C376 1.357 . S
C377 C378 1.370 . S
C377 H403 0.950 . S
C378 N373 1.307 . S
C378 C377 1.370 . S
C378 H396 0.948 . S
Zn379 N373 2.020 . S
Zn379 O388 2.039 . S
Zn379 O394 2.034 . S
Zn379 O398 2.025 . S
Zn379 O400 2.024 . S
C380 O399 1.246 . S
C380 O400 1.249 . S
N381 C382 1.307 . S
N381 C383 1.333 . S
N381 Zn387 2.020 1_554 S
C382 N381 1.307 . S
C382 C386 1.370 . S
C382 H393 0.948 . S
C383 N381 1.333 . S
C383 C384 1.379 . S
C383 H391 0.952 . S
C384 C383 1.379 . S
C384 C385 1.390 . S
C384 H404 0.949 . S
C385 C384 1.390 . S
C385 C386 1.357 . S
C386 C382 1.370 . S
C386 C385 1.357 . S
C386 H405 0.950 . S
Zn387 N381 2.020 1_556 S
Zn387 O390 2.025 . S
Zn387 O395 2.024 1_556 S
Zn387 O397 2.039 . S
Zn387 O399 2.034 . S
O388 C372 1.251 . S
O388 Zn379 2.039 . S
C389 O394 1.246 . S
C389 O395 1.249 1_556 S
O390 C372 1.254 . S
O390 Zn387 2.025 . S
H391 C383 0.952 . S
H392 C374 0.952 . S
H393 C382 0.948 . S
O394 Zn379 2.034 . S
O394 C389 1.246 . S
O395 Zn387 2.024 1_554 S
O395 C389 1.249 1_554 S
H396 C378 0.948 . S
O397 Zn387 2.039 . S
O397 C401 1.251 . S
O398 Zn379 2.025 . S
O398 C401 1.254 . S
O399 C380 1.246 . S
O399 Zn387 2.034 . S
O400 Zn379 2.024 . S
O400 C380 1.249 . S
C401 O397 1.251 . S
C401 O398 1.254 . S
H402 C375 0.949 . S
H403 C377 0.950 . S
H404 C384 0.949 . S
H405 C386 0.950 . S
C406 O422 1.251 . S
C406 O424 1.254 . S
N407 C408 1.333 . S
N407 C412 1.307 1_556 S
N407 Zn413 2.020 . S
C408 N407 1.333 . S
C408 C409 1.379 . S
C408 H426 0.952 . S
C409 C408 1.379 . S
C409 C410 1.390 1_556 S
C409 H436 0.949 . S
C410 C409 1.390 1_554 S
C410 C411 1.357 . S
C411 C410 1.357 . S
C411 C412 1.370 . S
C411 H437 0.950 . S
C412 N407 1.307 1_554 S
C412 C411 1.370 . S
C412 H430 0.948 1_545 S
Zn413 N407 2.020 . S
Zn413 O422 2.039 . S
Zn413 O428 2.034 . S
Zn413 O432 2.025 1_545 S
Zn413 O434 2.024 1_546 S
C414 O433 1.246 1_554 S
C414 O434 1.249 . S
N415 C416 1.307 1_565 S
N415 C417 1.333 . S
N415 Zn421 2.020 1_565 S
C416 N415 1.307 1_545 S
C416 C420 1.370 . S
C416 H427 0.948 . S
C417 N415 1.333 . S
C417 C418 1.379 . S
C417 H425 0.952 . S
C418 C417 1.379 . S
C418 C419 1.390 . S
C418 H438 0.949 . S
C419 C418 1.390 . S
C419 C420 1.357 1_565 S
C420 C416 1.370 . S
C420 C419 1.357 1_545 S
C420 H439 0.950 . S
Zn421 N415 2.020 1_545 S
Zn421 O424 2.025 . S
Zn421 O429 2.024 . S
Zn421 O431 2.039 1_545 S
Zn421 O433 2.034 1_545 S
O422 C406 1.251 . S
O422 Zn413 2.039 . S
C423 O428 1.246 . S
C423 O429 1.249 . S
O424 C406 1.254 . S
O424 Zn421 2.025 . S
H425 C417 0.952 . S
H426 C408 0.952 . S
H427 C416 0.948 . S
O428 Zn413 2.034 . S
O428 C423 1.246 . S
O429 Zn421 2.024 . S
O429 C423 1.249 . S
H430 C412 0.948 1_565 S
O431 Zn421 2.039 1_565 S
O431 C435 1.251 . S
O432 Zn413 2.025 1_565 S
O432 C435 1.254 . S
O433 C414 1.246 1_556 S
O433 Zn421 2.034 1_565 S
O434 Zn413 2.024 1_564 S
O434 C414 1.249 . S
C435 O431 1.251 . S
C435 O432 1.254 . S
H436 C409 0.949 . S
H437 C411 0.950 . S
H438 C418 0.949 . S
H439 C420 0.950 . S
C13 C236 2.566 . S
C299 C1 2.614 1_455 S
C176 C27 2.546 . S
C15 C210 2.194 . S
C28 C414 2.517 1_545 S
C55 C385 1.133 . S
C308 C40 3.438 . S
C43 C342 2.084 . S
C231 C56 2.579 1_556 S
C274 C83 1.432 . S
C96 C253 2.636 . S
C71 C367 1.777 . S
C372 C99 2.566 . S
C435 C111 2.616 . S
C113 C346 2.546 . S
C312 C125 2.194 . S
C139 C278 2.523 . S
C153 C249 1.133 . S
C206 C127 3.445 . S
C141 C172 2.084 1_545 S
C333 C84 2.579 . S
C410 C154 1.429 . S
C68 C389 2.636 . S
C166 C197 1.774 . S
C181 C0 1.781 1_655 S
C12 C215 1.502 1_655 S
C240 C14 1.107 . S
C287 C26 2.732 . S
C41 C168 2.145 1_545 S
C42 C202 1.495 . S
C244 C29 2.142 . S
C54 C283 2.822 . S
C69 C185 2.186 . S
C265 C70 2.587 . S
C85 C270 1.933 . S
C82 C321 1.832 . S
C351 C110 1.779 . S
C98 C317 1.504 . S
C124 C376 1.107 . S
C112 C423 2.732 . S
C126 C338 2.149 . S
C304 C140 1.495 . S
C138 C380 2.142 . S
C419 C152 2.822 1_565 S
C355 C97 2.186 . S
C401 C167 2.587 . S
C406 C57 1.933 . S
C155 C219 1.830 . S
