# Generated by pormake.
# Topology ssa, (4,4)-cn, num edge types: 1
# Building blocks:
#     Node 0, Type 0, BuildingBlock: ESEHIV_clean_sbu_0, # of connection points: 4
#     Node 1, Type 0, BuildingBlock: ESEHIV_clean_sbu_0, # of connection points: 4
#     Node 2, Type 0, BuildingBlock: ESEHIV_clean_sbu_0, # of connection points: 4
#     Node 3, Type 0, BuildingBlock: ESEHIV_clean_sbu_0, # of connection points: 4
#     Node 4, Type 0, BuildingBlock: ESEHIV_clean_sbu_0, # of connection points: 4
#     Node 5, Type 0, BuildingBlock: ESEHIV_clean_sbu_0, # of connection points: 4
#     Node 6, Type 1, BuildingBlock: KOZSID_clean_sbu_0, # of connection points: 4
#     Node 7, Type 1, BuildingBlock: KOZSID_clean_sbu_0, # of connection points: 4
#     Node 8, Type 1, BuildingBlock: KOZSID_clean_sbu_0, # of connection points: 4
#     Node 9, Type 1, BuildingBlock: KOZSID_clean_sbu_0, # of connection points: 4
#     Node 10, Type 1, BuildingBlock: KOZSID_clean_sbu_0, # of connection points: 4
#     Node 11, Type 1, BuildingBlock: KOZSID_clean_sbu_0, # of connection points: 4
#     Edge 12, Type (0, 1), BuildingBlock: KIFKEQ_clean_linker_1, # of connection points: 2
#     Edge 13, Type (0, 1), BuildingBlock: KIFKEQ_clean_linker_1, # of connection points: 2
#     Edge 14, Type (0, 1), BuildingBlock: KIFKEQ_clean_linker_1, # of connection points: 2
#     Edge 15, Type (0, 1), BuildingBlock: KIFKEQ_clean_linker_1, # of connection points: 2
#     Edge 16, Type (0, 1), BuildingBlock: KIFKEQ_clean_linker_1, # of connection points: 2
#     Edge 17, Type (0, 1), BuildingBlock: KIFKEQ_clean_linker_1, # of connection points: 2
#     Edge 18, Type (0, 1), BuildingBlock: KIFKEQ_clean_linker_1, # of connection points: 2
#     Edge 19, Type (0, 1), BuildingBlock: KIFKEQ_clean_linker_1, # of connection points: 2
#     Edge 20, Type (0, 1), BuildingBlock: KIFKEQ_clean_linker_1, # of connection points: 2
#     Edge 21, Type (0, 1), BuildingBlock: KIFKEQ_clean_linker_1, # of connection points: 2
#     Edge 22, Type (0, 1), BuildingBlock: KIFKEQ_clean_linker_1, # of connection points: 2
#     Edge 23, Type (0, 1), BuildingBlock: KIFKEQ_clean_linker_1, # of connection points: 2
#     Edge 24, Type (0, 1), BuildingBlock: KIFKEQ_clean_linker_1, # of connection points: 2
#     Edge 25, Type (0, 1), BuildingBlock: KIFKEQ_clean_linker_1, # of connection points: 2
#     Edge 26, Type (0, 1), BuildingBlock: KIFKEQ_clean_linker_1, # of connection points: 2
#     Edge 27, Type (0, 1), BuildingBlock: KIFKEQ_clean_linker_1, # of connection points: 2
#     Edge 28, Type (0, 1), BuildingBlock: KIFKEQ_clean_linker_1, # of connection points: 2
#     Edge 29, Type (0, 1), BuildingBlock: KIFKEQ_clean_linker_1, # of connection points: 2
#     Edge 30, Type (0, 1), BuildingBlock: KIFKEQ_clean_linker_1, # of connection points: 2
#     Edge 31, Type (0, 1), BuildingBlock: KIFKEQ_clean_linker_1, # of connection points: 2
#     Edge 32, Type (0, 1), BuildingBlock: KIFKEQ_clean_linker_1, # of connection points: 2
#     Edge 33, Type (0, 1), BuildingBlock: KIFKEQ_clean_linker_1, # of connection points: 2
#     Edge 34, Type (0, 1), BuildingBlock: KIFKEQ_clean_linker_1, # of connection points: 2
#     Edge 35, Type (0, 1), BuildingBlock: KIFKEQ_clean_linker_1, # of connection points: 2
# Relax obj value: 0.016
# Max RMSD: 0.106
# Mean RMSD: 0.057
data_MOF--net-ssa--node1-ESEHIV_clean_sbu_0--node2-KOZSID_clean_sbu_0--edge1-KIFKEQ_clean_linker_1
_symmetry_space_group_name_H-M    P1
_symmetry_Int_Tables_number       1
_symmetry_cell_setting            triclinic
loop_
_symmetry_equiv_pos_as_xyz
'x, y, z'
_cell_length_a     54.563497
_cell_length_b     57.985512
_cell_length_c     39.586336
_cell_angle_alpha  91.364675
_cell_angle_beta   94.071664
_cell_angle_gamma 122.21869
loop_
_atom_site_label
_atom_site_type_symbol
_atom_site_fract_x
_atom_site_fract_y
_atom_site_fract_z
_atom_type_partial_charge
Cu0 Cu 0.99827 0.50701 0.01883 0.0
N1 N 0.9662 0.47704 0.03469 0.0
N2 N 0.92739 0.43434 0.02917 0.0
C3 C 0.95401 0.4519 0.01947 0.0
C4 C 0.92269 0.44906 0.05177 0.0
C5 C 0.9468 0.4755 0.05521 0.0
O6 O 0.98145 0.50789 0.97285 0.0
C7 C 0.05691 0.51469 0.02449 0.0
O8 O 0.06669 0.53772 0.00982 0.0
H9 H 0.96333 0.44737 0.99903 0.0
H10 H 0.94901 0.4927 0.06958 0.0
N11 N 1.00905 0.53851 0.04579 0.0
N12 N 0.03705 0.57776 0.07765 0.0
C13 C 0.03562 0.5562 0.06179 0.0
C14 C 0.99288 0.54903 0.05223 0.0
C15 C 0.01012 0.57328 0.07198 0.0
C16 C 0.98171 0.52853 0.96147 0.0
O17 O 1.00013 0.5529 0.97656 0.0
H18 H 0.05355 0.55326 0.06225 0.0
H19 H 0.97033 0.53998 0.0426 0.0
O20 O 0.02951 0.49901 0.02644 0.0
H21 H 0.90265 0.44171 0.06336 0.0
H22 H 1.00357 0.58686 0.08073 0.0
Cu23 Cu 0.52375 0.00825 0.51792 0.0
N24 N 0.5364 1.00168 0.47764 0.0
N25 N 0.54531 0.9783 0.43927 0.0
C26 C 0.53474 0.97809 0.46933 0.0
C27 C 0.55391 1.00324 0.42834 0.0
C28 C 0.54837 0.01751 0.45191 0.0
O29 O 0.488 0.97353 0.52209 0.0
C30 C 0.57967 0.03263 0.55131 0.0
O31 O 0.58707 0.03626 0.52013 0.0
H32 H 0.52567 0.96106 0.48522 0.0
H33 H 0.55307 0.03808 0.45053 0.0
N34 N 0.51779 0.03755 0.51866 0.0
N35 N 0.51396 0.07163 0.5407 0.0
C36 C 0.51815 0.05104 0.54726 0.0
C37 C 0.51328 0.05001 0.49295 0.0
C38 C 0.51088 0.0709 0.50639 0.0
C39 C 0.46324 0.96921 0.51151 0.0
O40 O 0.46086 0.99007 0.50503 0.0
H41 H 0.52129 0.04562 0.57244 0.0
H42 H 0.51195 0.04441 0.46633 0.0
O43 O 0.55281 0.01815 0.55595 0.0
H44 H 0.56393 0.01101 0.4052 0.0
H45 H 0.5076 0.08472 0.49178 0.0
Cu46 Cu 0.52406 0.51462 0.01156 0.0
N47 N 0.52796 0.48412 0.0114 0.0
N48 N 0.52895 0.44839 0.98948 0.0
C49 C 0.52149 0.46693 0.98375 0.0
C50 C 0.54052 0.45422 0.02224 0.0
C51 C 0.53992 0.47618 0.03561 0.0
O52 O 0.53639 0.52859 0.96782 0.0
C53 C 0.47508 0.49286 0.04467 0.0
O54 O 0.49161 0.48771 0.06469 0.0
H55 H 0.51246 0.46874 0.95946 0.0
H56 H 0.54823 0.48604 0.06095 0.0
N57 N 0.54647 0.54198 0.04717 0.0
N58 N 0.56031 0.57823 0.0835 0.0
C59 C 0.53909 0.55885 0.06072 0.0
C60 C 0.57323 0.55083 0.06218 0.0
C61 C 0.58185 0.57322 0.08443 0.0
C62 C 0.56076 0.55036 0.96464 0.0
O63 O 0.57362 0.56896 0.99025 0.0
H64 H 0.51896 0.55759 0.05296 0.0
H65 H 0.58594 0.54218 0.05655 0.0
O66 O 0.48418 0.50326 0.01678 0.0
H67 H 0.549 0.44351 0.0357 0.0
H68 H 0.6025 0.58502 0.09988 0.0
Cu69 Cu 0.99838 0.49257 0.51148 0.0
N70 N 1.00085 0.47018 0.47902 0.0
N71 N 0.02032 0.45552 0.44313 0.0
C72 C 0.0253 0.47206 0.47073 0.0
C73 C 0.99148 0.44252 0.43375 0.0
C74 C 0.97951 0.45159 0.45601 0.0
O75 O 0.03142 0.5307 0.50693 0.0
C76 C 0.98177 0.45066 0.55915 0.0
O77 O 0.98598 0.43787 0.53465 0.0
H78 H 0.0466 0.48633 0.48347 0.0
H79 H 0.95707 0.44587 0.45471 0.0
N80 N 0.96564 0.49347 0.49786 0.0
N81 N 0.92525 0.49352 0.503 0.0
C82 C 0.94324 0.48614 0.51645 0.0
C83 C 0.96162 0.5057 0.47148 0.0
C84 C 0.93668 0.50588 0.47468 0.0
C85 C 0.05884 0.54061 0.51001 0.0
O86 O 0.06861 0.52651 0.52449 0.0
H87 H 0.94146 0.47758 0.5408 0.0
H88 H 0.97668 0.51525 0.45248 0.0
O89 O 0.9892 0.47551 0.55597 0.0
H90 H 0.97999 0.42807 0.4119 0.0
H91 H 0.9284 0.51547 0.45842 0.0
Cu92 Cu 0.51548 0.01736 0.04897 0.0
N93 N 0.50461 0.043 0.04957 0.0
N94 N 0.502 0.07844 0.03364 0.0
C95 C 0.51505 0.06439 0.03012 0.0
C96 C 0.48286 0.06567 0.05679 0.0
C97 C 0.48478 0.04397 0.06689 0.0
O98 O 0.53981 0.02517 0.01055 0.0
C99 C 0.45545 0.97046 0.05617 0.0
O100 O 0.44537 0.98443 0.04206 0.0
H101 H 0.53127 0.06909 0.01278 0.0
H102 H 0.47216 0.0296 0.08501 0.0
N103 N 0.54152 0.02503 0.08684 0.0
N104 N 0.56258 0.01307 0.12717 0.0
C105 C 0.53783 1.00593 0.108 0.0
C106 C 0.56966 0.0454 0.093 0.0
C107 C 0.58278 0.03804 0.11795 0.0
C108 C 0.53454 0.02926 0.98001 0.0
O109 O 0.50799 0.0223 0.96922 0.0
H110 H 0.5183 0.98578 0.10644 0.0
H111 H 0.58046 0.06305 0.07825 0.0
O112 O 0.48264 0.97954 0.05643 0.0
H113 H 0.46832 0.07138 0.06547 0.0
H114 H 0.60573 0.04924 0.12672 0.0
Cu115 Cu 0.50316 0.48972 0.49014 0.0
N116 N 0.52872 0.51442 0.46162 0.0
N117 N 0.54983 0.55227 0.43364 0.0
C118 C 0.5307 0.53807 0.45616 0.0
C119 C 0.56018 0.53674 0.42424 0.0
C120 C 0.54711 0.5133 0.44173 0.0
O121 O 0.46731 0.49062 0.47938 0.0
C122 C 0.54964 0.51914 0.54533 0.0
O123 O 0.5623 0.53859 0.52451 0.0
H124 H 0.51766 0.54434 0.46797 0.0
H125 H 0.55048 0.49656 0.43979 0.0
N126 N 0.4965 0.45508 0.48018 0.0
N127 N 0.49594 0.41731 0.49151 0.0
C128 C 0.50028 0.44103 0.50425 0.0
C129 C 0.48944 0.43964 0.45086 0.0
C130 C 0.48875 0.41598 0.45791 0.0
C131 C 0.44327 0.47064 0.46454 0.0
O132 O 0.43938 0.44625 0.46235 0.0
H133 H 0.50607 0.44802 0.53082 0.0
H134 H 0.48544 0.44529 0.42619 0.0
O135 O 0.52332 0.49929 0.53713 0.0
H136 H 0.57596 0.54189 0.40609 0.0
H137 H 0.48416 0.39956 0.43978 0.0
C138 C 0.2286 0.51893 0.19373 0.0
C139 C 0.23443 0.54483 0.18795 0.0
C140 C 0.25875 0.56292 0.20882 0.0
C141 C 0.26644 0.54719 0.22619 0.0
N142 N 0.24856 0.5201 0.21769 0.0
Co143 Co 0.2524 0.49036 0.23736 0.0
N144 N 0.2863 0.51686 0.27077 0.0
C145 C 0.29755 0.54401 0.27519 0.0
C146 C 0.31973 0.55707 0.30078 0.0
C147 C 0.32295 0.53709 0.31357 0.0
C148 C 0.3027 0.51288 0.2947 0.0
N149 N 0.25714 0.4608 0.25597 0.0
C150 C 0.27715 0.46205 0.27999 0.0
C151 C 0.27357 0.43662 0.28273 0.0
C152 C 0.25051 0.41873 0.26015 0.0
C153 C 0.24143 0.43412 0.24457 0.0
N154 N 0.21749 0.4637 0.20524 0.0
C155 C 0.20491 0.43628 0.20239 0.0
C156 C 0.1805 0.4229 0.17968 0.0
C157 C 0.17696 0.4429 0.16758 0.0
C158 C 0.1995 0.46749 0.18364 0.0
N159 N 0.27931 0.49517 0.20289 0.0
C160 C 0.32005 0.5 0.15894 0.0
C161 C 0.29297 0.47573 0.15882 0.0
C162 C 0.27314 0.47377 0.18077 0.0
C163 C 0.32586 0.52228 0.18021 0.0
C164 C 0.30522 0.51954 0.20154 0.0
N165 N 0.22543 0.48533 0.27158 0.0
C166 C 0.18402 0.45511 0.30152 0.0
C167 C 0.18252 0.47699 0.31405 0.0
C168 C 0.20379 0.50332 0.30629 0.0
C169 C 0.22498 0.50701 0.28529 0.0
C170 C 0.2055 0.4597 0.28063 0.0
H171 H 0.24036 0.52751 0.2799 0.0
H172 H 0.20517 0.44209 0.27161 0.0
H173 H 0.25326 0.45446 0.17981 0.0
H174 H 0.31097 0.53728 0.21712 0.0
C175 C 0.28811 0.5569 0.25332 0.0
C176 C 0.20307 0.49387 0.17697 0.0
C177 C 0.3002 0.48677 0.30039 0.0
C178 C 0.21732 0.42392 0.22046 0.0
H179 H 0.22197 0.55012 0.17108 0.0
H180 H 0.26895 0.58487 0.21191 0.0
H181 H 0.33234 0.57863 0.30887 0.0
H182 H 0.33862 0.54013 0.33432 0.0
H183 H 0.28638 0.43147 0.2992 0.0
H184 H 0.24139 0.39702 0.25568 0.0
H185 H 0.16696 0.40118 0.17264 0.0
H186 H 0.15977 0.43976 0.14892 0.0
H187 H 0.28749 0.45785 0.14287 0.0
H188 H 0.34639 0.54169 0.18069 0.0
H189 H 0.16852 0.4344 0.30757 0.0
H190 H 0.2036 0.52097 0.31544 0.0
C191 C 0.71779 0.21372 0.71882 0.0
C192 C 0.69532 0.21486 0.70198 0.0
C193 C 0.69578 0.23645 0.71728 0.0
C194 C 0.71834 0.24712 0.74251 0.0
N195 N 0.73273 0.23403 0.74382 0.0
Co196 Co 0.76515 0.24104 0.77827 0.0
N197 N 0.76273 0.26979 0.80428 0.0
C198 C 0.7452 0.27908 0.79571 0.0
C199 C 0.74886 0.29936 0.81798 0.0
C200 C 0.77004 0.30335 0.84226 0.0
C201 C 0.77798 0.28504 0.83346 0.0
N202 N 0.79704 0.24745 0.8131 0.0
C203 C 0.80845 0.26419 0.84196 0.0
C204 C 0.82946 0.26141 0.8599 0.0
C205 C 0.8317 0.24258 0.84147 0.0
C206 C 0.81188 0.23477 0.81362 0.0
N207 N 0.76778 0.21254 0.75207 0.0
C208 C 0.78734 0.20525 0.75832 0.0
C209 C 0.78303 0.18443 0.73649 0.0
C210 C 0.7589 0.17762 0.71541 0.0
C211 C 0.74988 0.19474 0.72581 0.0
N212 N 0.79482 0.2702 0.75062 0.0
C213 C 0.8374 0.31227 0.71242 0.0
C214 C 0.84129 0.29216 0.72609 0.0
C215 C 0.82024 0.27183 0.74499 0.0
C216 C 0.81141 0.31053 0.71841 0.0
C217 C 0.79072 0.2896 0.73696 0.0
N218 N 0.73564 0.21213 0.80571 0.0
C219 C 0.71664 0.16967 0.83365 0.0
C220 C 0.69309 0.17071 0.84359 0.0
C221 C 0.69135 0.19295 0.83414 0.0
C222 C 0.71236 0.21299 0.81507 0.0
C223 C 0.73766 0.19055 0.81534 0.0
H224 H 0.70923 0.22896 0.80797 0.0
H225 H 0.7554 0.18881 0.80917 0.0
H226 H 0.82514 0.25766 0.7548 0.0
H227 H 0.7716 0.28975 0.74002 0.0
C228 C 0.72491 0.26777 0.7671 0.0
C229 C 0.72315 0.19213 0.71154 0.0
C230 C 0.80051 0.28331 0.8532 0.0
C231 C 0.80688 0.21574 0.78753 0.0
H232 H 0.6797 0.20103 0.68146 0.0
H233 H 0.6807 0.24288 0.7116 0.0
H234 H 0.73744 0.30994 0.81676 0.0
H235 H 0.7787 0.31816 0.86391 0.0
H236 H 0.84194 0.27196 0.88381 0.0
H237 H 0.84606 0.2354 0.84766 0.0
H238 H 0.79506 0.17443 0.73697 0.0
H239 H 0.74845 0.16125 0.69548 0.0
H240 H 0.86043 0.29168 0.72208 0.0
H241 H 0.80693 0.32548 0.7093 0.0
H242 H 0.71917 0.15302 0.84052 0.0
H243 H 0.67344 0.19464 0.84088 0.0
C244 C 0.53525 0.73291 0.21222 0.0
C245 C 0.50885 0.71276 0.19515 0.0
C246 C 0.48788 0.71561 0.20775 0.0
C247 C 0.50259 0.73743 0.23145 0.0
N248 N 0.53177 0.74907 0.23427 0.0
Co249 Co 0.56114 0.78109 0.2661 0.0
N250 N 0.52995 0.78244 0.28846 0.0
C251 C 0.50088 0.76466 0.28207 0.0
C252 C 0.48478 0.77113 0.30058 0.0
C253 C 0.5047 0.79477 0.31941 0.0
C254 C 0.53193 0.80152 0.31106 0.0
N255 N 0.59049 0.81381 0.29719 0.0
C256 C 0.58682 0.83059 0.31798 0.0
C257 C 0.61337 0.85288 0.33184 0.0
C258 C 0.63448 0.85036 0.31911 0.0
C259 C 0.61977 0.82688 0.29807 0.0
N260 N 0.59226 0.77901 0.24447 0.0
C261 C 0.62131 0.79558 0.25272 0.0
C262 C 0.63733 0.78758 0.23676 0.0
C263 C 0.61735 0.76413 0.2177 0.0
C264 C 0.59008 0.75923 0.2228 0.0
N265 N 0.56221 0.8067 0.23299 0.0
C266 C 0.56575 0.85144 0.20209 0.0
C267 C 0.59047 0.85012 0.20859 0.0
C268 C 0.58819 0.82761 0.22369 0.0
C269 C 0.53882 0.82859 0.208 0.0
C270 C 0.53753 0.80641 0.22278 0.0
N271 N 0.5603 0.75571 0.29938 0.0
C272 C 0.58642 0.74081 0.33487 0.0
C273 C 0.56097 0.71534 0.3367 0.0
C274 C 0.53483 0.71113 0.32161 0.0
C275 C 0.53497 0.7315 0.30336 0.0
C276 C 0.58554 0.76065 0.31654 0.0
H277 H 0.51447 0.72682 0.29172 0.0
H278 H 0.60572 0.77951 0.31581 0.0
H279 H 0.60792 0.82818 0.22888 0.0
H280 H 0.51646 0.78987 0.22728 0.0
C281 C 0.48947 0.74486 0.25479 0.0
C282 C 0.56273 0.73478 0.20806 0.0
C283 C 0.5588 0.82716 0.32352 0.0
C284 C 0.63274 0.81747 0.27724 0.0
H285 H 0.50501 0.69698 0.17644 0.0
H286 H 0.46457 0.70244 0.20164 0.0
H287 H 0.46131 0.76079 0.29909 0.0
H288 H 0.49973 0.80636 0.3363 0.0
H289 H 0.6172 0.86978 0.34849 0.0
H290 H 0.6578 0.86455 0.32358 0.0
H291 H 0.66072 0.79704 0.23974 0.0
H292 H 0.62245 0.75165 0.20276 0.0
H293 H 0.61168 0.86671 0.20301 0.0
H294 H 0.51886 0.82824 0.203 0.0
H295 H 0.60705 0.74529 0.3471 0.0
H296 H 0.51447 0.69178 0.32259 0.0
C297 C 0.73006 0.54269 0.71656 0.0
C298 C 0.73598 0.5677 0.70603 0.0
C299 C 0.76267 0.58718 0.72156 0.0
C300 C 0.77174 0.57312 0.74043 0.0
N301 N 0.7527 0.54573 0.73753 0.0
Co302 Co 0.75773 0.51808 0.76157 0.0
N303 N 0.7973 0.54686 0.78416 0.0
C304 C 0.81131 0.57402 0.78049 0.0
C305 C 0.83828 0.58891 0.79827 0.0
C306 C 0.84208 0.57013 0.81382 0.0
C307 C 0.81717 0.54466 0.80444 0.0
N308 N 0.7624 0.49055 0.78654 0.0
C309 C 0.78536 0.49341 0.80672 0.0
C310 C 0.77936 0.46834 0.81715 0.0
C311 C 0.75184 0.44917 0.80351 0.0
C312 C 0.74255 0.46336 0.78531 0.0
N313 N 0.71863 0.48915 0.73804 0.0
C314 C 0.70502 0.46194 0.74112 0.0
C315 C 0.67803 0.44696 0.72343 0.0
C316 C 0.67402 0.46567 0.70808 0.0
C317 C 0.69903 0.49119 0.71703 0.0
N318 N 0.77675 0.51387 0.72309 0.0
C319 C 0.80392 0.5082 0.66827 0.0
C320 C 0.78487 0.48559 0.68553 0.0
C321 C 0.77149 0.48882 0.71246 0.0
C322 C 0.8089 0.53363 0.6789 0.0
C323 C 0.79545 0.53602 0.70625 0.0
N324 N 0.7383 0.52242 0.79961 0.0
C325 C 0.69478 0.50384 0.82865 0.0
C326 C 0.70221 0.53009 0.83971 0.0
C327 C 0.72951 0.55213 0.83334 0.0
C328 C 0.74714 0.54785 0.81359 0.0
C329 C 0.71326 0.5005 0.80932 0.0
H330 H 0.76729 0.56557 0.80897 0.0
H331 H 0.70617 0.48004 0.80128 0.0
H332 H 0.75711 0.47078 0.72438 0.0
H333 H 0.80057 0.55604 0.71326 0.0
C334 C 0.79839 0.58493 0.76032 0.0
C335 C 0.70254 0.51675 0.70601 0.0
C336 C 0.81364 0.51908 0.81546 0.0
C337 C 0.71685 0.45137 0.76359 0.0
H338 H 0.72244 0.57158 0.68888 0.0
H339 H 0.77415 0.60902 0.71926 0.0
H340 H 0.85346 0.61082 0.79964 0.0
H341 H 0.86113 0.57474 0.83014 0.0
H342 H 0.79362 0.46405 0.83216 0.0
H343 H 0.74045 0.42729 0.80539 0.0
H344 H 0.66261 0.42512 0.72282 0.0
H345 H 0.65445 0.46094 0.69282 0.0
H346 H 0.78056 0.46546 0.67876 0.0
H347 H 0.82303 0.55178 0.66613 0.0
H348 H 0.67416 0.48592 0.83334 0.0
H349 H 0.73701 0.57276 0.84276 0.0
C350 C 0.28674 0.81293 0.347 0.0
C351 C 0.28197 0.83189 0.36217 0.0
C352 C 0.25473 0.82507 0.34982 0.0
C353 C 0.24455 0.80269 0.32756 0.0
N354 N 0.26374 0.79502 0.32479 0.0
Co355 Co 0.25823 0.76454 0.29409 0.0
N356 N 0.22433 0.76175 0.26726 0.0
C357 C 0.20979 0.77345 0.27618 0.0
C358 C 0.18739 0.76811 0.25265 0.0
C359 C 0.18743 0.75165 0.22744 0.0
C360 C 0.20987 0.74775 0.23719 0.0
N361 N 0.25254 0.73385 0.2636 0.0
C362 C 0.23529 0.7219 0.2341 0.0
C363 C 0.23737 0.70045 0.22171 0.0
C364 C 0.25614 0.69858 0.24456 0.0
C365 C 0.26447 0.71892 0.26949 0.0
N366 N 0.29215 0.76747 0.32097 0.0
C367 C 0.29939 0.7486 0.32077 0.0
C368 C 0.32353 0.75588 0.3425 0.0
C369 C 0.33199 0.78086 0.35756 0.0
C370 C 0.31248 0.78743 0.34401 0.0
N371 N 0.23164 0.73765 0.32498 0.0
C372 C 0.19422 0.69788 0.36843 0.0
C373 C 0.22012 0.72216 0.38145 0.0
C374 C 0.23837 0.7416 0.3595 0.0
C375 C 0.18765 0.69438 0.33298 0.0
C376 C 0.20635 0.71431 0.31201 0.0
N377 N 0.28483 0.79126 0.26306 0.0
C378 C 0.32343 0.80599 0.22603 0.0
C379 C 0.32211 0.82874 0.21718 0.0
C380 C 0.30152 0.83208 0.2325 0.0
C381 C 0.28314 0.81321 0.25484 0.0
C382 C 0.30504 0.78789 0.24899 0.0
H383 H 0.26751 0.8165 0.26544 0.0
H384 H 0.30712 0.77097 0.25509 0.0
H385 H 0.25804 0.75981 0.37061 0.0
H386 H 0.20033 0.71053 0.28512 0.0
C387 C 0.21961 0.79155 0.30488 0.0
C388 C 0.31249 0.81158 0.35582 0.0
C389 C 0.21375 0.72759 0.21958 0.0
C390 C 0.28541 0.72621 0.29688 0.0
H391 H 0.29659 0.84895 0.38021 0.0
H392 H 0.24416 0.83591 0.35528 0.0
H393 H 0.17298 0.77557 0.25352 0.0
H394 H 0.1721 0.74278 0.20493 0.0
H395 H 0.2258 0.68703 0.19904 0.0
H396 H 0.26303 0.68423 0.24303 0.0
H397 H 0.33413 0.74469 0.34636 0.0
H398 H 0.35019 0.79268 0.37667 0.0
H399 H 0.2263 0.72639 0.40854 0.0
H400 H 0.16837 0.67603 0.32111 0.0
H401 H 0.33826 0.80167 0.215 0.0
H402 H 0.29956 0.84934 0.2277 0.0
C403 C 0.48645 0.28169 0.80518 0.0
C404 C 0.45974 0.27747 0.81164 0.0
C405 C 0.43889 0.25351 0.79406 0.0
C406 C 0.45393 0.24444 0.77785 0.0
N407 N 0.48316 0.26112 0.78406 0.0
Co408 Co 0.51291 0.25567 0.76448 0.0
N409 N 0.48219 0.21931 0.74076 0.0
C410 C 0.45316 0.20638 0.74262 0.0
C411 C 0.43735 0.18156 0.72431 0.0
C412 C 0.45746 0.17834 0.70994 0.0
C413 C 0.48454 0.20149 0.72031 0.0
N414 N 0.54263 0.25094 0.74358 0.0
C415 C 0.53935 0.23082 0.72162 0.0
C416 C 0.56601 0.23631 0.7127 0.0
C417 C 0.5868 0.26078 0.7292 0.0
C418 C 0.57178 0.26886 0.74724 0.0
N419 N 0.5437 0.29133 0.78965 0.0
C420 C 0.57282 0.3033 0.78982 0.0
C421 C 0.58875 0.32711 0.81016 0.0
C422 C 0.56863 0.33048 0.82417 0.0
C423 C 0.54144 0.30844 0.81151 0.0
N424 N 0.51445 0.23632 0.80456 0.0
C425 C 0.51594 0.2076 0.86042 0.0
C426 C 0.54119 0.22501 0.84502 0.0
C427 C 0.54 0.23918 0.81747 0.0
C428 C 0.49006 0.20509 0.84762 0.0
C429 C 0.48979 0.21943 0.81992 0.0
N430 N 0.5112 0.27492 0.72427 0.0
C431 C 0.53459 0.31191 0.68731 0.0
C432 C 0.5084 0.30195 0.66691 0.0
C433 C 0.48374 0.27808 0.6758 0.0
C434 C 0.48554 0.26522 0.70438 0.0
C435 C 0.53554 0.29811 0.7154 0.0
H436 H 0.46577 0.2474 0.70974 0.0
H437 H 0.55622 0.30669 0.72961 0.0
H438 H 0.56001 0.25226 0.80697 0.0
H439 H 0.46924 0.21628 0.81124 0.0
C440 C 0.44133 0.21924 0.75926 0.0
C441 C 0.51423 0.30507 0.82066 0.0
C442 C 0.51166 0.206 0.70893 0.0
C443 C 0.58448 0.29236 0.76927 0.0
H444 H 0.45573 0.29016 0.82786 0.0
H445 H 0.41552 0.24351 0.79384 0.0
H446 H 0.41393 0.16776 0.72107 0.0
H447 H 0.45267 0.16111 0.6932 0.0
H448 H 0.57005 0.22381 0.69616 0.0
H449 H 0.61013 0.27128 0.72846 0.0
H450 H 0.6122 0.34056 0.81407 0.0
H451 H 0.57344 0.34738 0.84158 0.0
H452 H 0.56185 0.22785 0.8543 0.0
H453 H 0.46984 0.1916 0.8584 0.0
H454 H 0.55432 0.33055 0.68207 0.0
H455 H 0.46297 0.26905 0.66069 0.0
H456 H 0.11677 0.54636 0.03082 0.0
H457 H 0.04535 0.47126 0.06274 0.0
H458 H 0.15108 0.54052 0.06637 0.0
H459 H 0.0798 0.46497 0.09777 0.0
H460 H 0.14676 0.47739 0.18635 0.0
H461 H 0.11159 0.48105 0.14857 0.0
H462 H 0.17467 0.51671 0.07522 0.0
H463 H 0.2098 0.51351 0.11361 0.0
C464 C 0.10831 0.5283 0.04498 0.0
C465 C 0.07805 0.50929 0.0436 0.0
C466 C 0.12816 0.52487 0.06546 0.0
C467 C 0.11857 0.50226 0.08539 0.0
C468 C 0.08828 0.48292 0.08343 0.0
C469 C 0.0684 0.48637 0.06293 0.0
C470 C 0.15298 0.48593 0.16207 0.0
C471 C 0.18111 0.49527 0.15307 0.0
C472 C 0.13274 0.48791 0.14019 0.0
C473 C 0.13997 0.49927 0.10848 0.0
C474 C 0.16816 0.50827 0.09946 0.0
C475 C 0.18836 0.50631 0.12139 0.0
H476 H 0.63857 0.06284 0.55095 0.0
H477 H 0.57012 0.04413 0.61485 0.0
H478 H 0.67371 0.09996 0.5919 0.0
H479 H 0.60533 0.08158 0.65566 0.0
H480 H 0.68382 0.14233 0.73209 0.0
H481 H 0.64973 0.10034 0.69624 0.0
H482 H 0.68075 0.14473 0.60672 0.0
H483 H 0.71483 0.18637 0.64274 0.0
C484 C 0.63111 0.06633 0.57403 0.0
C485 C 0.60151 0.05071 0.57948 0.0
C486 C 0.65121 0.08775 0.59734 0.0
C487 C 0.64217 0.09405 0.62662 0.0
C488 C 0.61296 0.07721 0.63333 0.0
C489 C 0.59279 0.0557 0.60996 0.0
C490 C 0.68303 0.1429 0.70471 0.0
C491 C 0.70151 0.16731 0.68988 0.0
C492 C 0.66364 0.11902 0.68426 0.0
C493 C 0.66272 0.11919 0.64868 0.0
C494 C 0.68129 0.14383 0.63404 0.0
C495 C 0.70053 0.16768 0.65449 0.0
H496 H 0.6068 0.62956 0.10096 0.0
H497 H 0.51431 0.57751 0.10696 0.0
H498 H 0.60718 0.66724 0.13082 0.0
H499 H 0.51471 0.61517 0.13716 0.0
H500 H 0.537 0.68171 0.22462 0.0
H501 H 0.53575 0.64357 0.19441 0.0
H502 H 0.58674 0.69751 0.11963 0.0
H503 H 0.58712 0.73535 0.14931 0.0
C504 C 0.58657 0.6261 0.10885 0.0
C505 C 0.56053 0.60044 0.10155 0.0
C506 C 0.58674 0.64778 0.12574 0.0
C507 C 0.56098 0.6443 0.13642 0.0
C508 C 0.53498 0.61855 0.12948 0.0
C509 C 0.5347 0.59701 0.11198 0.0
C510 C 0.54785 0.68534 0.20166 0.0
C511 C 0.56249 0.71163 0.18961 0.0
C512 C 0.54708 0.6635 0.1843 0.0
C513 C 0.56129 0.66746 0.15465 0.0
C514 C 0.57589 0.69379 0.1426 0.0
C515 C 0.57617 0.71549 0.15961 0.0
H516 H 0.88708 0.45388 0.53999 0.0
H517 H 0.91305 0.53298 0.505 0.0
H518 H 0.85421 0.45666 0.57644 0.0
H519 H 0.88026 0.53585 0.5415 0.0
H520 H 0.85939 0.54467 0.65267 0.0
H521 H 0.88446 0.54003 0.60719 0.0
H522 H 0.80876 0.46048 0.57504 0.0
H523 H 0.78287 0.46545 0.61972 0.0
C524 C 0.88529 0.4716 0.53967 0.0
C525 C 0.90261 0.49324 0.51983 0.0
C526 C 0.86644 0.47314 0.56035 0.0
C527 C 0.86491 0.49655 0.56188 0.0
C528 C 0.88122 0.51766 0.54086 0.0
C529 C 0.89975 0.51592 0.5198 0.0
C530 C 0.8477 0.52643 0.63552 0.0
C531 C 0.81899 0.50546 0.63997 0.0
C532 C 0.86216 0.52378 0.60948 0.0
C533 C 0.84846 0.49996 0.58756 0.0
C534 C 0.8198 0.47901 0.59174 0.0
C535 C 0.80512 0.48181 0.61751 0.0
H536 H 0.39565 0.93956 0.05136 0.0
H537 H 0.4707 0.94774 0.10779 0.0
H538 H 0.36396 0.90463 0.08761 0.0
H539 H 0.43944 0.91426 0.14571 0.0
H540 H 0.37682 0.84135 0.20132 0.0
H541 H 0.40723 0.87182 0.1607 0.0
H542 H 0.34451 0.89443 0.1375 0.0
H543 H 0.31281 0.86195 0.17543 0.0
C544 C 0.40548 0.93391 0.07156 0.0
C545 C 0.43596 0.94671 0.07635 0.0
C546 C 0.38719 0.91396 0.09295 0.0
C547 C 0.39861 0.90637 0.12061 0.0
C548 C 0.42919 0.91883 0.1248 0.0
C549 C 0.44743 0.93837 0.10292 0.0
C550 C 0.36897 0.85225 0.18716 0.0
C551 C 0.34175 0.84856 0.19232 0.0
C552 C 0.38698 0.87043 0.16394 0.0
C553 C 0.37892 0.8862 0.14515 0.0
C554 C 0.3518 0.88264 0.15052 0.0
C555 C 0.33357 0.86411 0.17324 0.0
H556 H 0.54052 0.42994 0.53763 0.0
H557 H 0.45912 0.36246 0.48954 0.0
H558 H 0.5439 0.39941 0.5765 0.0
H559 H 0.46214 0.33165 0.52898 0.0
H560 H 0.46269 0.30648 0.64275 0.0
H561 H 0.46025 0.33121 0.59518 0.0
H562 H 0.54784 0.35659 0.57658 0.0
H563 H 0.55004 0.33072 0.62315 0.0
C564 C 0.52358 0.40841 0.53516 0.0
C565 C 0.49954 0.39844 0.51076 0.0
C566 C 0.52556 0.39095 0.55724 0.0
C567 C 0.50325 0.36321 0.55578 0.0
C568 C 0.47959 0.353 0.53065 0.0
C569 C 0.47793 0.37047 0.50801 0.0
C570 C 0.48125 0.31667 0.62812 0.0
C571 C 0.50662 0.31651 0.63709 0.0
C572 C 0.4798 0.33091 0.60084 0.0
C573 C 0.50381 0.34573 0.58218 0.0
C574 C 0.52905 0.34541 0.5907 0.0
C575 C 0.53036 0.33078 0.61763 0.0
H576 H 0.53828 0.93228 0.4663 0.0
H577 H 0.55666 0.97428 0.37381 0.0
H578 H 0.54093 0.89609 0.43842 0.0
H579 H 0.56069 0.93867 0.34652 0.0
H580 H 0.53817 0.85693 0.29563 0.0
H581 H 0.5343 0.89291 0.3233 0.0
H582 H 0.57278 0.88449 0.41773 0.0
H583 H 0.57548 0.84783 0.39 0.0
C584 C 0.54292 0.93402 0.44007 0.0
C585 C 0.54719 0.95663 0.42262 0.0
C586 C 0.54481 0.9132 0.42407 0.0
C587 C 0.55114 0.91422 0.39004 0.0
C588 C 0.5554 0.93678 0.37256 0.0
C589 C 0.55341 0.95756 0.38851 0.0
C590 C 0.54577 0.86287 0.32231 0.0
C591 C 0.55735 0.84976 0.3406 0.0
C592 C 0.54377 0.88365 0.33821 0.0
C593 C 0.5533 0.89193 0.37294 0.0
C594 C 0.56484 0.87862 0.39115 0.0
C595 C 0.5667 0.85776 0.37523 0.0
H596 H 0.6145 0.592 0.95047 0.0
H597 H 0.54764 0.50791 0.91952 0.0
H598 H 0.64825 0.58794 0.91725 0.0
H599 H 0.58146 0.50397 0.88665 0.0
H600 H 0.66293 0.49796 0.88399 0.0
H601 H 0.62673 0.50406 0.90807 0.0
H602 H 0.65773 0.57859 0.85761 0.0
H603 H 0.69335 0.57213 0.83239 0.0
C604 C 0.60676 0.57289 0.93593 0.0
C605 C 0.57847 0.55021 0.93803 0.0
C606 C 0.62611 0.57058 0.91694 0.0
C607 C 0.61761 0.54548 0.89996 0.0
C608 C 0.58873 0.52341 0.90004 0.0
C609 C 0.56928 0.52579 0.91864 0.0
C610 C 0.66189 0.5155 0.87762 0.0
C611 C 0.68117 0.53452 0.85617 0.0
C612 C 0.64111 0.51897 0.89143 0.0
C613 C 0.63928 0.54169 0.88445 0.0
C614 C 0.65875 0.56096 0.86351 0.0
C615 C 0.67932 0.55732 0.84933 0.0
H616 H 0.04705 0.57542 0.47636 0.0
H617 H 0.11706 0.56319 0.50369 0.0
H618 H 0.0794 0.61418 0.44462 0.0
H619 H 0.14907 0.60114 0.4711 0.0
H620 H 0.20875 0.68322 0.4293 0.0
H621 H 0.17694 0.64806 0.46534 0.0
H622 H 0.10263 0.62675 0.39484 0.0
H623 H 0.13415 0.66297 0.35996 0.0
C624 C 0.06938 0.58104 0.47582 0.0
C625 C 0.07926 0.56601 0.49293 0.0
C626 C 0.08801 0.60323 0.45718 0.0
C627 C 0.11717 0.61112 0.45476 0.0
C628 C 0.12709 0.59631 0.47248 0.0
C629 C 0.10854 0.57427 0.49123 0.0
C630 C 0.18559 0.67142 0.42161 0.0
C631 C 0.1744 0.67629 0.39126 0.0
C632 C 0.16721 0.65078 0.44223 0.0
C633 C 0.13686 0.63405 0.43331 0.0
C634 C 0.12566 0.63914 0.40315 0.0
C635 C 0.14401 0.65985 0.38265 0.0
H636 H 0.4611 0.08949 0.0131 0.0
H637 H 0.55133 0.1168 0.00824 0.0
H638 H 0.466 0.12292 0.97342 0.0
H639 H 0.55652 0.15058 0.96909 0.0
H640 H 0.54345 0.17976 0.86645 0.0
H641 H 0.54137 0.15087 0.91122 0.0
H642 H 0.48709 0.1702 0.96391 0.0
H643 H 0.48883 0.19877 0.91868 0.0
C644 C 0.48214 0.10305 1.00413 0.0
C645 C 0.50575 0.10034 0.01359 0.0
C646 C 0.485 0.12225 0.98135 0.0
C647 C 0.51161 0.13932 0.96771 0.0
C648 C 0.53553 0.13737 0.97842 0.0
C649 C 0.5326 0.11807 1.00097 0.0
C650 C 0.53141 0.17814 0.88782 0.0
C651 C 0.51624 0.19149 0.88894 0.0
C652 C 0.53024 0.1616 0.91358 0.0
C653 C 0.51402 0.15813 0.94126 0.0
C654 C 0.49938 0.17201 0.94273 0.0
C655 C 0.50042 0.18843 0.91685 0.0
H656 H 0.45053 0.51837 0.44113 0.0
H657 H 0.38644 0.43223 0.44269 0.0
H658 H 0.41625 0.52328 0.40315 0.0
H659 H 0.35239 0.43707 0.405 0.0
H660 H 0.28807 0.4584 0.358 0.0
H661 H 0.32178 0.45594 0.3999 0.0
H662 H 0.39365 0.51026 0.34381 0.0
H663 H 0.35973 0.51239 0.30184 0.0
C664 C 0.42899 0.50056 0.43393 0.0
C665 C 0.42136 0.47491 0.4453 0.0
C666 C 0.40937 0.5033 0.41176 0.0
C667 C 0.38136 0.48056 0.40063 0.0
C668 C 0.3735 0.45516 0.41304 0.0
C669 C 0.39318 0.45236 0.43474 0.0
C670 C 0.31107 0.46973 0.3546 0.0
C671 C 0.32112 0.48549 0.32642 0.0
C672 C 0.33048 0.46833 0.37863 0.0
C673 C 0.36068 0.4829 0.37553 0.0
C674 C 0.37072 0.49899 0.34751 0.0
C675 C 0.35124 0.50013 0.32327 0.0
H676 H 0.9389 0.39812 1.00335 0.0
H677 H 0.86911 0.41119 0.01549 0.0
H678 H 0.90654 0.35858 0.96376 0.0
H679 H 0.83658 0.37144 0.97595 0.0
H680 H 0.78284 0.28656 0.91505 0.0
H681 H 0.81199 0.32006 0.96333 0.0
H682 H 0.88618 0.35804 0.90481 0.0
H683 H 0.85699 0.32481 0.8569 0.0
C684 C 0.91648 0.39221 0.99798 0.0
C685 C 0.90667 0.40796 0.0121 0.0
C686 C 0.898 0.36966 0.97529 0.0
C687 C 0.86923 0.36228 0.96632 0.0
C688 C 0.85866 0.37667 0.98247 0.0
C689 C 0.87725 0.39936 1.00519 0.0
C690 C 0.8054 0.30215 0.91279 0.0
C691 C 0.81787 0.3033 0.88257 0.0
C692 C 0.82201 0.32123 0.94024 0.0
C693 C 0.8514 0.34145 0.93791 0.0
C694 C 0.86374 0.34238 0.90757 0.0
C695 C 0.84709 0.32355 0.88013 0.0
H696 H 0.92619 0.48332 0.94594 0.0
H697 H 0.98313 0.56616 0.91962 0.0
H698 H 0.88579 0.48024 0.91011 0.0
H699 H 0.943 0.56287 0.8833 0.0
H700 H 0.86813 0.53633 0.79659 0.0
H701 H 0.90884 0.53755 0.82925 0.0
H702 H 0.85605 0.50298 0.91219 0.0
H703 H 0.81579 0.50278 0.87998 0.0
C704 C 0.93032 0.50068 0.93195 0.0
C705 C 0.95815 0.52494 0.93562 0.0
C706 C 0.90702 0.49901 0.91165 0.0
C707 C 0.91096 0.52134 0.89378 0.0
C708 C 0.93907 0.54519 0.89643 0.0
C709 C 0.96216 0.54707 0.9173 0.0
C710 C 0.86527 0.52909 0.82185 0.0
C711 C 0.83854 0.51931 0.8355 0.0
C712 C 0.88862 0.52977 0.84061 0.0
C713 C 0.88582 0.52019 0.8734 0.0
C714 C 0.85898 0.51018 0.88691 0.0
C715 C 0.83586 0.51007 0.86844 0.0
H716 H 0.4052 0.94928 0.49983 0.0
H717 H 0.46866 0.92726 0.48967 0.0
H718 H 0.36849 0.90745 0.4658 0.0
H719 H 0.4321 0.88587 0.45497 0.0
H720 H 0.36983 0.8486 0.35001 0.0
H721 H 0.4062 0.88322 0.39353 0.0
H722 H 0.34186 0.85297 0.46558 0.0
H723 H 0.30588 0.8178 0.4224 0.0
C724 C 0.41111 0.93521 0.491 0.0
C725 C 0.43978 0.94155 0.49745 0.0
C726 C 0.39013 0.91132 0.47154 0.0
C727 C 0.39762 0.89365 0.45759 0.0
C728 C 0.42588 0.89928 0.46532 0.0
C729 C 0.44669 0.92286 0.48542 0.0
C730 C 0.36372 0.84921 0.37532 0.0
C731 C 0.33508 0.8311 0.38283 0.0
C732 C 0.38443 0.86884 0.40017 0.0
C733 C 0.37668 0.87079 0.43276 0.0
C734 C 0.34826 0.85199 0.44057 0.0
C735 C 0.32776 0.83202 0.41594 0.0
H736 H 0.49094 0.42433 0.93244 0.0
H737 H 0.56103 0.42497 0.99115 0.0
H738 H 0.48647 0.3895 0.89218 0.0
H739 H 0.55698 0.39056 0.95074 0.0
H740 H 0.52637 0.31048 0.88963 0.0
H741 H 0.52904 0.34432 0.93043 0.0
H742 H 0.50774 0.38032 0.84816 0.0
H743 H 0.50425 0.34575 0.80782 0.0
C744 C 0.50561 0.41727 0.9367 0.0
C745 C 0.52631 0.42762 0.96536 0.0
C746 C 0.50309 0.39721 0.91343 0.0
C747 C 0.52129 0.38688 0.91789 0.0
C748 C 0.54208 0.39737 0.94652 0.0
C749 C 0.54448 0.41731 0.96985 0.0
C750 C 0.5221 0.32558 0.88045 0.0
C751 C 0.51499 0.32544 0.84562 0.0
C752 C 0.52387 0.3452 0.90377 0.0
C753 C 0.51875 0.36542 0.89291 0.0
C754 C 0.51144 0.36502 0.85785 0.0
C755 C 0.50957 0.34529 0.83458 0.0
H756 H 0.07212 0.46511 0.47023 0.0
H757 H 0.01833 0.44523 0.37546 0.0
H758 H 0.11118 0.46885 0.43966 0.0
H759 H 0.05741 0.44908 0.3448 0.0
H760 H 0.12506 0.43613 0.30287 0.0
H761 H 0.08522 0.42838 0.33509 0.0
H762 H 0.14519 0.49998 0.40172 0.0
H763 H 0.18527 0.5071 0.3703 0.0
C764 C 0.06864 0.46152 0.44286 0.0
C765 C 0.04218 0.45504 0.42527 0.0
C766 C 0.09104 0.46373 0.42533 0.0
C767 C 0.08752 0.45952 0.38977 0.0
C768 C 0.06073 0.45218 0.37224 0.0
C769 C 0.03828 0.44992 0.38981 0.0
C770 C 0.12983 0.45 0.32471 0.0
C771 C 0.15839 0.4722 0.33409 0.0
C772 C 0.10692 0.44572 0.34292 0.0
C773 C 0.112 0.46356 0.37096 0.0
C774 C 0.14058 0.48566 0.38049 0.0
C775 C 0.16351 0.48995 0.36225 0.0
H776 H 0.53333 0.0323 0.91068 0.0
H777 H 0.5914 0.068 1.00273 0.0
H778 H 0.57216 0.06531 0.87785 0.0
H779 H 0.62984 0.10146 0.97001 0.0
H780 H 0.67233 0.17722 0.90193 0.0
H781 H 0.63544 0.14189 0.93458 0.0
H782 H 0.62512 0.07942 0.86296 0.0
H783 H 0.66266 0.1148 0.83075 0.0
C784 C 0.55445 0.04695 0.9239 0.0
C785 C 0.55917 0.04719 0.95941 0.0
C786 C 0.57673 0.06591 0.90505 0.0
C787 C 0.60416 0.0862 0.92124 0.0
C788 C 0.60898 0.08625 0.95669 0.0
C789 C 0.58697 0.06686 0.97542 0.0
C790 C 0.66227 0.15596 0.89317 0.0
C791 C 0.67058 0.14894 0.86367 0.0
C792 C 0.64121 0.13567 0.91201 0.0
C793 C 0.62725 0.10773 0.90149 0.0
C794 C 0.63533 0.1007 0.87179 0.0
C795 C 0.65696 0.12098 0.85341 0.0
H796 H 0.54805 0.59207 0.46799 0.0
H797 H 0.56567 0.57056 0.3715 0.0
H798 H 0.5529 0.63288 0.44563 0.0
H799 H 0.57072 0.61168 0.34905 0.0
H800 H 0.60029 0.70047 0.33025 0.0
H801 H 0.60079 0.66254 0.3551 0.0
H802 H 0.52351 0.64118 0.40341 0.0
H803 H 0.52341 0.67945 0.37925 0.0
C804 C 0.55297 0.59607 0.44197 0.0
C805 C 0.55603 0.57785 0.42134 0.0
C806 C 0.55575 0.61946 0.42918 0.0
C807 C 0.56179 0.62529 0.39547 0.0
C808 C 0.56619 0.60778 0.37521 0.0
C809 C 0.56334 0.58426 0.38805 0.0
C810 C 0.58366 0.68789 0.34658 0.0
C811 C 0.56185 0.69298 0.35292 0.0
C812 C 0.58378 0.66602 0.36048 0.0
C813 C 0.56222 0.64891 0.3812 0.0
C814 C 0.54062 0.6542 0.38784 0.0
C815 C 0.54039 0.67595 0.37378 0.0
H816 H 0.49162 0.10351 0.5293 0.0
H817 H 0.53449 0.08317 0.60804 0.0
H818 H 0.49073 0.13533 0.56957 0.0
H819 H 0.53339 0.11494 0.64834 0.0
H820 H 0.50136 0.15524 0.72019 0.0
H821 H 0.50146 0.12246 0.67992 0.0
H822 H 0.52178 0.17885 0.60151 0.0
H823 H 0.52122 0.21124 0.64188 0.0
C824 C 0.50108 0.10585 0.55505 0.0
C825 C 0.51318 0.0905 0.565 0.0
C826 C 0.50056 0.12424 0.57831 0.0
C827 C 0.51202 0.12792 0.61243 0.0
C828 C 0.52396 0.11249 0.6225 0.0
C829 C 0.52459 0.09414 0.5992 0.0
C830 C 0.50572 0.16046 0.69428 0.0
C831 C 0.51118 0.18571 0.6841 0.0
C832 C 0.50601 0.1418 0.6712 0.0
C833 C 0.51164 0.14784 0.63723 0.0
C834 C 0.51697 0.17318 0.62719 0.0
C835 C 0.5168 0.19186 0.65033 0.0
H836 H 0.43821 0.50653 0.01351 0.0
H837 H 0.45433 0.47619 0.10572 0.0
H838 H 0.40006 0.50928 0.03901 0.0
H839 H 0.41668 0.47914 0.13088 0.0
H840 H 0.37725 0.52169 0.18001 0.0
H841 H 0.4134 0.51948 0.14966 0.0
H842 H 0.35012 0.47814 0.06261 0.0
H843 H 0.31383 0.48056 0.09295 0.0
C844 C 0.43339 0.50012 0.03896 0.0
C845 C 0.44946 0.4913 0.05763 0.0
C846 C 0.41161 0.50173 0.05353 0.0
C847 C 0.4058 0.49485 0.08711 0.0
C848 C 0.4211 0.48508 0.10519 0.0
C849 C 0.44255 0.48322 0.09061 0.0
C850 C 0.37117 0.51258 0.15418 0.0
C851 C 0.34268 0.50123 0.1389 0.0
C852 C 0.39177 0.51106 0.13694 0.0
C853 C 0.38443 0.49835 0.10394 0.0
C854 C 0.35634 0.48804 0.08802 0.0
C855 C 0.33557 0.4893 0.10544 0.0
H856 H 0.94422 0.45713 0.59604 0.0
H857 H 0.97866 0.40587 0.58438 0.0
H858 H 0.91016 0.42525 0.63437 0.0
H859 H 0.94522 0.37446 0.62292 0.0
H860 H 0.89734 0.33533 0.71679 0.0
H861 H 0.9331 0.36997 0.68323 0.0
H862 H 0.86587 0.37649 0.62929 0.0
H863 H 0.82963 0.34088 0.66152 0.0
C864 C 0.94505 0.43945 0.60221 0.0
C865 C 0.96445 0.43429 0.58713 0.0
C866 C 0.92525 0.42095 0.62394 0.0
C867 C 0.9247 0.39705 0.63182 0.0
C868 C 0.94499 0.39262 0.61781 0.0
C869 C 0.96427 0.41073 0.59562 0.0
C870 C 0.88977 0.34364 0.69752 0.0
C871 C 0.85998 0.33461 0.69225 0.0
C872 C 0.91056 0.36386 0.67832 0.0
C873 C 0.90259 0.37628 0.65344 0.0
C874 C 0.87304 0.36778 0.6485 0.0
C875 C 0.85213 0.34722 0.66729 0.0
H876 H 0.52341 0.9719 0.16163 0.0
H877 H 0.61131 0.01092 0.13368 0.0
H878 H 0.52617 0.9337 0.1811 0.0
H879 H 0.61427 0.97284 0.15398 0.0
H880 H 0.60897 0.90451 0.222 0.0
H881 H 0.61091 0.94617 0.20774 0.0
H882 H 0.52936 0.89788 0.14505 0.0
H883 H 0.52778 0.85629 0.15807 0.0
C884 C 0.54351 0.97254 0.16022 0.0
C885 C 0.56696 0.99422 0.14561 0.0
C886 C 0.54504 0.95065 0.17125 0.0
C887 C 0.57021 0.95012 0.16836 0.0
C888 C 0.59457 0.97277 0.15637 0.0
C889 C 0.59294 0.99464 0.14497 0.0
C890 C 0.59173 0.90274 0.20457 0.0
C891 C 0.56813 0.87693 0.19128 0.0
C892 C 0.5928 0.92663 0.19667 0.0
C893 C 0.5701 0.92516 0.17573 0.0
C894 C 0.54687 0.89951 0.16184 0.0
C895 C 0.54597 0.87569 0.16935 0.0
H896 H 0.54566 0.47392 0.57217 0.0
H897 H 0.5969 0.56202 0.58296 0.0
H898 H 0.58149 0.47275 0.61189 0.0
H899 H 0.63214 0.5608 0.62366 0.0
H900 H 0.6732 0.54187 0.72031 0.0
H901 H 0.63472 0.54225 0.68453 0.0
H902 H 0.63783 0.49034 0.60742 0.0
H903 H 0.67729 0.49112 0.64245 0.0
C904 C 0.56409 0.49303 0.58364 0.0
C905 C 0.56816 0.51806 0.57435 0.0
C906 C 0.58482 0.49236 0.60622 0.0
C907 C 0.60982 0.5167 0.62091 0.0
C908 C 0.61314 0.54168 0.61296 0.0
C909 C 0.59285 0.54236 0.58966 0.0
C910 C 0.66578 0.53068 0.69562 0.0
C911 C 0.67836 0.51643 0.68431 0.0
C912 C 0.64369 0.53085 0.67516 0.0
C913 C 0.63299 0.51616 0.64316 0.0
C914 C 0.64527 0.5016 0.63206 0.0
C915 C 0.6679 0.50205 0.65213 0.0
H916 H 0.03857 0.60864 0.13112 0.0
H917 H 0.09318 0.59932 0.06562 0.0
H918 H 0.08192 0.64632 0.16394 0.0
H919 H 0.13645 0.6365 0.0988 0.0
H920 H 0.20675 0.72193 0.15011 0.0
H921 H 0.16348 0.68676 0.11368 0.0
H922 H 0.12127 0.64971 0.20305 0.0
H923 H 0.16415 0.68479 0.23891 0.0
C924 C 0.0598 0.61477 0.12361 0.0
C925 C 0.06246 0.60085 0.09603 0.0
C926 C 0.08461 0.63617 0.14252 0.0
C927 C 0.11259 0.64423 0.13407 0.0
C928 C 0.11522 0.63086 0.10584 0.0
C929 C 0.09043 0.60935 0.0871 0.0
C930 C 0.18817 0.7061 0.16166 0.0
C931 C 0.18856 0.70584 0.19706 0.0
C932 C 0.1635 0.68605 0.14099 0.0
C933 C 0.13889 0.66563 0.15556 0.0
C934 C 0.13964 0.66542 0.19108 0.0
C935 C 0.16423 0.6853 0.2116 0.0
loop_
_geom_bond_atom_site_label_1
_geom_bond_atom_site_label_2
_geom_bond_distance
_geom_bond_site_symmetry_2
_ccdc_geom_bond_type
Cu0 N1 1.999 1_454 S
Cu0 O6 1.974 1_454 S
Cu0 N11 1.985 . S
Cu0 O20 1.959 . S
N1 Cu0 1.999 1_656 S
N1 C3 1.263 . S
N1 C5 1.389 1_556 S
N2 C3 1.358 . S
N2 C4 1.400 . S
C3 N1 1.263 . S
C3 N2 1.358 . S
C3 H9 0.930 . S
C4 N2 1.400 . S
C4 C5 1.351 1_556 S
C4 H21 0.930 . S
C5 N1 1.389 1_554 S
C5 C4 1.351 1_554 S
C5 H10 0.930 . S
O6 Cu0 1.974 1_656 S
O6 C16 1.282 . S
C7 O8 1.258 . S
C7 O20 1.251 . S
O8 C7 1.258 . S
H9 C3 0.930 . S
H10 C5 0.930 . S
N11 Cu0 1.985 . S
N11 C13 1.335 . S
N11 C14 1.390 . S
N12 C13 1.345 . S
N12 C15 1.336 . S
C13 N11 1.335 . S
C13 N12 1.345 . S
C13 H18 0.930 . S
C14 N11 1.390 . S
C14 C15 1.346 . S
C14 H19 0.930 1_554 S
C15 N12 1.336 . S
C15 C14 1.346 . S
C15 H22 0.929 . S
C16 O6 1.282 . S
C16 O17 1.216 1_655 S
O17 C16 1.216 1_455 S
H18 C13 0.930 . S
H19 C14 0.930 1_556 S
O20 Cu0 1.959 . S
O20 C7 1.251 . S
H21 C4 0.930 . S
H22 C15 0.929 . S
Cu23 N24 1.999 . S
Cu23 O29 1.974 . S
Cu23 N34 1.985 1_565 S
Cu23 O43 1.959 1_565 S
N24 Cu23 1.999 . S
N24 C26 1.263 . S
N24 C28 1.389 . S
N25 C26 1.358 . S
N25 C27 1.400 . S
C26 N24 1.263 . S
C26 N25 1.358 . S
C26 H32 0.930 . S
C27 N25 1.400 . S
C27 C28 1.351 . S
C27 H44 0.930 . S
C28 N24 1.389 . S
C28 C27 1.351 . S
C28 H33 0.930 . S
O29 Cu23 1.974 . S
O29 C39 1.282 . S
C30 O31 1.261 . S
C30 O43 1.251 . S
O31 C30 1.261 . S
H32 C26 0.930 . S
H33 C28 0.930 . S
N34 Cu23 1.985 1_545 S
N34 C36 1.335 . S
N34 C37 1.390 . S
N35 C36 1.345 . S
N35 C38 1.336 . S
C36 N34 1.335 . S
C36 N35 1.345 . S
C36 H41 0.930 . S
C37 N34 1.390 . S
C37 C38 1.346 . S
C37 H42 0.930 . S
C38 N35 1.336 . S
C38 C37 1.346 . S
C38 H45 0.929 . S
C39 O29 1.282 . S
C39 O40 1.216 . S
O40 C39 1.216 . S
H41 C36 0.930 . S
H42 C37 0.930 . S
O43 Cu23 1.959 1_545 S
O43 C30 1.251 . S
H44 C27 0.930 . S
H45 C38 0.929 . S
Cu46 N47 1.999 1_554 S
Cu46 O52 1.974 1_554 S
Cu46 N57 1.985 . S
Cu46 O66 1.959 . S
N47 Cu46 1.999 1_556 S
N47 C49 1.263 . S
N47 C51 1.389 . S
N48 C49 1.358 . S
N48 C50 1.400 . S
C49 N47 1.263 . S
C49 N48 1.358 . S
C49 H55 0.930 . S
C50 N48 1.400 . S
C50 C51 1.351 . S
C50 H67 0.930 . S
C51 N47 1.389 . S
C51 C50 1.351 . S
C51 H56 0.930 . S
O52 Cu46 1.974 1_556 S
O52 C62 1.282 . S
C53 O54 1.261 . S
C53 O66 1.251 . S
O54 C53 1.261 . S
H55 C49 0.930 . S
H56 C51 0.930 . S
N57 Cu46 1.985 . S
N57 C59 1.335 . S
N57 C60 1.390 . S
N58 C59 1.345 . S
N58 C61 1.336 . S
C59 N57 1.335 . S
C59 N58 1.345 . S
C59 H64 0.930 . S
C60 N57 1.390 . S
C60 C61 1.346 . S
C60 H65 0.930 . S
C61 N58 1.336 . S
C61 C60 1.346 . S
C61 H68 0.929 . S
C62 O52 1.282 . S
C62 O63 1.216 1_556 S
O63 C62 1.216 1_554 S
H64 C59 0.930 . S
H65 C60 0.930 . S
O66 Cu46 1.959 . S
O66 C53 1.251 . S
H67 C50 0.930 . S
H68 C61 0.929 . S
Cu69 N70 1.999 1_655 S
Cu69 O75 1.974 1_655 S
Cu69 N80 1.985 . S
Cu69 O89 1.959 . S
N70 Cu69 1.999 1_455 S
N70 C72 1.263 . S
N70 C74 1.389 1_455 S
N71 C72 1.358 . S
N71 C73 1.400 . S
C72 N70 1.263 . S
C72 N71 1.358 . S
C72 H78 0.930 . S
C73 N71 1.400 . S
C73 C74 1.351 1_455 S
C73 H90 0.930 . S
C74 N70 1.389 1_655 S
C74 C73 1.351 1_655 S
C74 H79 0.930 . S
O75 Cu69 1.974 1_455 S
O75 C85 1.282 . S
C76 O77 1.261 1_655 S
C76 O89 1.251 . S
O77 C76 1.261 1_455 S
H78 C72 0.930 . S
H79 C74 0.930 . S
N80 Cu69 1.985 . S
N80 C82 1.335 . S
N80 C83 1.390 . S
N81 C82 1.345 . S
N81 C84 1.336 . S
C82 N80 1.335 . S
C82 N81 1.345 . S
C82 H87 0.930 . S
C83 N80 1.390 . S
C83 C84 1.346 . S
C83 H88 0.930 1_655 S
C84 N81 1.336 . S
C84 C83 1.346 . S
C84 H91 0.929 . S
C85 O75 1.282 . S
C85 O86 1.216 . S
O86 C85 1.216 . S
H87 C82 0.930 . S
H88 C83 0.930 1_455 S
O89 Cu69 1.959 . S
O89 C76 1.251 . S
H90 C73 0.930 . S
H91 C84 0.929 . S
Cu92 N93 1.999 . S
Cu92 O98 1.974 1_554 S
Cu92 N103 1.985 1_545 S
Cu92 O112 1.959 1_545 S
N93 Cu92 1.999 . S
N93 C95 1.263 1_554 S
N93 C97 1.389 . S
N94 C95 1.358 . S
N94 C96 1.400 1_556 S
C95 N93 1.263 1_556 S
C95 N94 1.358 . S
C95 H101 0.930 . S
C96 N94 1.400 1_554 S
C96 C97 1.351 . S
C96 H113 0.930 . S
C97 N93 1.389 . S
C97 C96 1.351 . S
C97 H102 0.930 . S
O98 Cu92 1.974 1_556 S
O98 C108 1.282 . S
C99 O100 1.261 . S
C99 O112 1.251 . S
O100 C99 1.261 . S
H101 C95 0.930 . S
H102 C97 0.930 . S
N103 Cu92 1.985 1_565 S
N103 C105 1.335 . S
N103 C106 1.390 . S
N104 C105 1.345 . S
N104 C107 1.336 . S
C105 N103 1.335 . S
C105 N104 1.345 . S
C105 H110 0.930 . S
C106 N103 1.390 . S
C106 C107 1.346 . S
C106 H111 0.930 . S
C107 N104 1.336 . S
C107 C106 1.346 . S
C107 H114 0.929 . S
C108 O98 1.282 . S
C108 O109 1.216 . S
O109 C108 1.216 . S
H110 C105 0.930 . S
H111 C106 0.930 . S
O112 Cu92 1.959 1_565 S
O112 C99 1.251 . S
H113 C96 0.930 . S
H114 C107 0.929 . S
Cu115 N116 1.999 . S
Cu115 O121 1.974 . S
Cu115 N126 1.985 . S
Cu115 O135 1.959 . S
N116 Cu115 1.999 . S
N116 C118 1.263 . S
N116 C120 1.389 . S
N117 C118 1.358 . S
N117 C119 1.400 . S
C118 N116 1.263 . S
C118 N117 1.358 . S
C118 H124 0.930 . S
C119 N117 1.400 . S
C119 C120 1.351 . S
C119 H136 0.930 . S
C120 N116 1.389 . S
C120 C119 1.351 . S
C120 H125 0.930 . S
O121 Cu115 1.974 . S
O121 C131 1.282 . S
C122 O123 1.261 . S
C122 O135 1.251 . S
O123 C122 1.261 . S
H124 C118 0.930 . S
H125 C120 0.930 . S
N126 Cu115 1.985 . S
N126 C128 1.335 . S
N126 C129 1.390 . S
N127 C128 1.345 . S
N127 C130 1.336 . S
C128 N126 1.335 . S
C128 N127 1.345 . S
C128 H133 0.930 . S
C129 N126 1.390 . S
C129 C130 1.346 . S
C129 H134 0.930 . S
C130 N127 1.336 . S
C130 C129 1.346 . S
C130 H137 0.929 . S
C131 O121 1.282 . S
C131 O132 1.216 . S
O132 C131 1.216 . S
H133 C128 0.930 . S
H134 C129 0.930 . S
O135 Cu115 1.959 . S
O135 C122 1.251 . S
H136 C119 0.930 . S
H137 C130 0.929 . S
C138 C139 1.443 . S
C138 N142 1.376 . S
C138 C176 1.389 . S
C139 C138 1.443 . S
C139 C140 1.340 . S
C139 H179 0.951 . S
C140 C139 1.340 . S
C140 C141 1.439 . S
C140 H180 0.950 . S
C141 C140 1.439 . S
C141 N142 1.374 . S
C141 C175 1.395 . S
N142 C138 1.376 . S
N142 C141 1.374 . S
N142 Co143 2.008 . S
Co143 N142 2.008 . S
Co143 N144 1.995 . S
Co143 N149 2.008 . S
Co143 N154 1.995 . S
Co143 N159 2.282 . S
Co143 N165 2.282 . S
N144 Co143 1.995 . S
N144 C145 1.376 . S
N144 C148 1.383 . S
C145 N144 1.376 . S
C145 C146 1.446 . S
C145 C175 1.391 . S
C146 C145 1.446 . S
C146 C147 1.339 . S
C146 H181 0.949 . S
C147 C146 1.339 . S
C147 C148 1.439 . S
C147 H182 0.950 . S
C148 N144 1.383 . S
C148 C147 1.439 . S
C148 C177 1.392 . S
N149 Co143 2.008 . S
N149 C150 1.376 . S
N149 C153 1.374 . S
C150 N149 1.376 . S
C150 C151 1.443 . S
C150 C177 1.389 . S
C151 C150 1.443 . S
C151 C152 1.340 . S
C151 H183 0.951 . S
C152 C151 1.340 . S
C152 C153 1.439 . S
C152 H184 0.950 . S
C153 N149 1.374 . S
C153 C152 1.439 . S
C153 C178 1.395 . S
N154 Co143 1.995 . S
N154 C155 1.376 . S
N154 C158 1.383 . S
C155 N154 1.376 . S
C155 C156 1.446 . S
C155 C178 1.391 . S
C156 C155 1.446 . S
C156 C157 1.339 . S
C156 H185 0.949 . S
C157 C156 1.339 . S
C157 C158 1.439 . S
C157 H186 0.950 . S
C158 N154 1.383 . S
C158 C157 1.439 . S
C158 C176 1.392 . S
N159 Co143 2.282 . S
N159 C162 1.332 . S
N159 C164 1.332 . S
C160 C161 1.386 . S
C160 C163 1.388 . S
C161 C160 1.386 . S
C161 C162 1.382 . S
C161 H187 0.950 . S
C162 N159 1.332 . S
C162 C161 1.382 . S
C162 H173 0.952 . S
C163 C160 1.388 . S
C163 C164 1.382 . S
C163 H188 0.950 . S
C164 N159 1.332 . S
C164 C163 1.382 . S
C164 H174 0.948 . S
N165 Co143 2.282 . S
N165 C169 1.332 . S
N165 C170 1.332 . S
C166 C167 1.388 . S
C166 C170 1.382 . S
C166 H189 0.950 . S
C167 C166 1.388 . S
C167 C168 1.386 . S
C168 C167 1.386 . S
C168 C169 1.382 . S
C168 H190 0.950 . S
C169 N165 1.332 . S
C169 C168 1.382 . S
C169 H171 0.952 . S
C170 N165 1.332 . S
C170 C166 1.382 . S
C170 H172 0.948 . S
H171 C169 0.952 . S
H172 C170 0.948 . S
H173 C162 0.952 . S
H174 C164 0.948 . S
C175 C141 1.395 . S
C175 C145 1.391 . S
C176 C138 1.389 . S
C176 C158 1.392 . S
C177 C148 1.392 . S
C177 C150 1.389 . S
C178 C153 1.395 . S
C178 C155 1.391 . S
H179 C139 0.951 . S
H180 C140 0.950 . S
H181 C146 0.949 . S
H182 C147 0.950 . S
H183 C151 0.951 . S
H184 C152 0.950 . S
H185 C156 0.949 . S
H186 C157 0.950 . S
H187 C161 0.950 . S
H188 C163 0.950 . S
H189 C166 0.950 . S
H190 C168 0.950 . S
C191 C192 1.443 . S
C191 N195 1.376 . S
C191 C229 1.389 . S
C192 C191 1.443 . S
C192 C193 1.340 . S
C192 H232 0.951 . S
C193 C192 1.340 . S
C193 C194 1.439 . S
C193 H233 0.950 . S
C194 C193 1.439 . S
C194 N195 1.374 . S
C194 C228 1.395 . S
N195 C191 1.376 . S
N195 C194 1.374 . S
N195 Co196 2.008 . S
Co196 N195 2.008 . S
Co196 N197 1.995 . S
Co196 N202 2.008 . S
Co196 N207 1.995 . S
Co196 N212 2.282 . S
Co196 N218 2.282 . S
N197 Co196 1.995 . S
N197 C198 1.376 . S
N197 C201 1.383 . S
C198 N197 1.376 . S
C198 C199 1.446 . S
C198 C228 1.391 . S
C199 C198 1.446 . S
C199 C200 1.339 . S
C199 H234 0.949 . S
C200 C199 1.339 . S
C200 C201 1.439 . S
C200 H235 0.950 . S
C201 N197 1.383 . S
C201 C200 1.439 . S
C201 C230 1.392 . S
N202 Co196 2.008 . S
N202 C203 1.376 . S
N202 C206 1.374 . S
C203 N202 1.376 . S
C203 C204 1.443 . S
C203 C230 1.389 . S
C204 C203 1.443 . S
C204 C205 1.340 . S
C204 H236 0.951 . S
C205 C204 1.340 . S
C205 C206 1.439 . S
C205 H237 0.950 . S
C206 N202 1.374 . S
C206 C205 1.439 . S
C206 C231 1.395 . S
N207 Co196 1.995 . S
N207 C208 1.376 . S
N207 C211 1.383 . S
C208 N207 1.376 . S
C208 C209 1.446 . S
C208 C231 1.391 . S
C209 C208 1.446 . S
C209 C210 1.339 . S
C209 H238 0.949 . S
C210 C209 1.339 . S
C210 C211 1.439 . S
C210 H239 0.950 . S
C211 N207 1.383 . S
C211 C210 1.439 . S
C211 C229 1.392 . S
N212 Co196 2.282 . S
N212 C215 1.332 . S
N212 C217 1.332 . S
C213 C214 1.386 . S
C213 C216 1.388 . S
C214 C213 1.386 . S
C214 C215 1.382 . S
C214 H240 0.950 . S
C215 N212 1.332 . S
C215 C214 1.382 . S
C215 H226 0.952 . S
C216 C213 1.388 . S
C216 C217 1.382 . S
C216 H241 0.950 . S
C217 N212 1.332 . S
C217 C216 1.382 . S
C217 H227 0.948 . S
N218 Co196 2.282 . S
N218 C222 1.332 . S
N218 C223 1.332 . S
C219 C220 1.388 . S
C219 C223 1.382 . S
C219 H242 0.950 . S
C220 C219 1.388 . S
C220 C221 1.386 . S
C221 C220 1.386 . S
C221 C222 1.382 . S
C221 H243 0.950 . S
C222 N218 1.332 . S
C222 C221 1.382 . S
C222 H224 0.952 . S
C223 N218 1.332 . S
C223 C219 1.382 . S
C223 H225 0.948 . S
H224 C222 0.952 . S
H225 C223 0.948 . S
H226 C215 0.952 . S
H227 C217 0.948 . S
C228 C194 1.395 . S
C228 C198 1.391 . S
C229 C191 1.389 . S
C229 C211 1.392 . S
C230 C201 1.392 . S
C230 C203 1.389 . S
C231 C206 1.395 . S
C231 C208 1.391 . S
H232 C192 0.951 . S
H233 C193 0.950 . S
H234 C199 0.949 . S
H235 C200 0.950 . S
H236 C204 0.951 . S
H237 C205 0.950 . S
H238 C209 0.949 . S
H239 C210 0.950 . S
H240 C214 0.950 . S
H241 C216 0.950 . S
H242 C219 0.950 . S
H243 C221 0.950 . S
C244 C245 1.443 . S
C244 N248 1.376 . S
C244 C282 1.389 . S
C245 C244 1.443 . S
C245 C246 1.340 . S
C245 H285 0.951 . S
C246 C245 1.340 . S
C246 C247 1.439 . S
C246 H286 0.950 . S
C247 C246 1.439 . S
C247 N248 1.374 . S
C247 C281 1.395 . S
N248 C244 1.376 . S
N248 C247 1.374 . S
N248 Co249 2.008 . S
Co249 N248 2.008 . S
Co249 N250 1.995 . S
Co249 N255 2.008 . S
Co249 N260 1.995 . S
Co249 N265 2.282 . S
Co249 N271 2.282 . S
N250 Co249 1.995 . S
N250 C251 1.376 . S
N250 C254 1.383 . S
C251 N250 1.376 . S
C251 C252 1.446 . S
C251 C281 1.391 . S
C252 C251 1.446 . S
C252 C253 1.339 . S
C252 H287 0.949 . S
C253 C252 1.339 . S
C253 C254 1.439 . S
C253 H288 0.950 . S
C254 N250 1.383 . S
C254 C253 1.439 . S
C254 C283 1.392 . S
N255 Co249 2.008 . S
N255 C256 1.376 . S
N255 C259 1.374 . S
C256 N255 1.376 . S
C256 C257 1.443 . S
C256 C283 1.389 . S
C257 C256 1.443 . S
C257 C258 1.340 . S
C257 H289 0.951 . S
C258 C257 1.340 . S
C258 C259 1.439 . S
C258 H290 0.950 . S
C259 N255 1.374 . S
C259 C258 1.439 . S
C259 C284 1.395 . S
N260 Co249 1.995 . S
N260 C261 1.376 . S
N260 C264 1.383 . S
C261 N260 1.376 . S
C261 C262 1.446 . S
C261 C284 1.391 . S
C262 C261 1.446 . S
C262 C263 1.339 . S
C262 H291 0.949 . S
C263 C262 1.339 . S
C263 C264 1.439 . S
C263 H292 0.950 . S
C264 N260 1.383 . S
C264 C263 1.439 . S
C264 C282 1.392 . S
N265 Co249 2.282 . S
N265 C268 1.332 . S
N265 C270 1.332 . S
C266 C267 1.386 . S
C266 C269 1.388 . S
C267 C266 1.386 . S
C267 C268 1.382 . S
C267 H293 0.950 . S
C268 N265 1.332 . S
C268 C267 1.382 . S
C268 H279 0.952 . S
C269 C266 1.388 . S
C269 C270 1.382 . S
C269 H294 0.950 . S
C270 N265 1.332 . S
C270 C269 1.382 . S
C270 H280 0.948 . S
N271 Co249 2.282 . S
N271 C275 1.332 . S
N271 C276 1.332 . S
C272 C273 1.388 . S
C272 C276 1.382 . S
C272 H295 0.950 . S
C273 C272 1.388 . S
C273 C274 1.386 . S
C274 C273 1.386 . S
C274 C275 1.382 . S
C274 H296 0.950 . S
C275 N271 1.332 . S
C275 C274 1.382 . S
C275 H277 0.952 . S
C276 N271 1.332 . S
C276 C272 1.382 . S
C276 H278 0.948 . S
H277 C275 0.952 . S
H278 C276 0.948 . S
H279 C268 0.952 . S
H280 C270 0.948 . S
C281 C247 1.395 . S
C281 C251 1.391 . S
C282 C244 1.389 . S
C282 C264 1.392 . S
C283 C254 1.392 . S
C283 C256 1.389 . S
C284 C259 1.395 . S
C284 C261 1.391 . S
H285 C245 0.951 . S
H286 C246 0.950 . S
H287 C252 0.949 . S
H288 C253 0.950 . S
H289 C257 0.951 . S
H290 C258 0.950 . S
H291 C262 0.949 . S
H292 C263 0.950 . S
H293 C267 0.950 . S
H294 C269 0.950 . S
H295 C272 0.950 . S
H296 C274 0.950 . S
C297 C298 1.443 . S
C297 N301 1.376 . S
C297 C335 1.389 . S
C298 C297 1.443 . S
C298 C299 1.340 . S
C298 H338 0.951 . S
C299 C298 1.340 . S
C299 C300 1.439 . S
C299 H339 0.950 . S
C300 C299 1.439 . S
C300 N301 1.374 . S
C300 C334 1.395 . S
N301 C297 1.376 . S
N301 C300 1.374 . S
N301 Co302 2.008 . S
Co302 N301 2.008 . S
Co302 N303 1.995 . S
Co302 N308 2.008 . S
Co302 N313 1.995 . S
Co302 N318 2.282 . S
Co302 N324 2.282 . S
N303 Co302 1.995 . S
N303 C304 1.376 . S
N303 C307 1.383 . S
C304 N303 1.376 . S
C304 C305 1.446 . S
C304 C334 1.391 . S
C305 C304 1.446 . S
C305 C306 1.339 . S
C305 H340 0.949 . S
C306 C305 1.339 . S
C306 C307 1.439 . S
C306 H341 0.950 . S
C307 N303 1.383 . S
C307 C306 1.439 . S
C307 C336 1.392 . S
N308 Co302 2.008 . S
N308 C309 1.376 . S
N308 C312 1.374 . S
C309 N308 1.376 . S
C309 C310 1.443 . S
C309 C336 1.389 . S
C310 C309 1.443 . S
C310 C311 1.340 . S
C310 H342 0.951 . S
C311 C310 1.340 . S
C311 C312 1.439 . S
C311 H343 0.950 . S
C312 N308 1.374 . S
C312 C311 1.439 . S
C312 C337 1.395 . S
N313 Co302 1.995 . S
N313 C314 1.376 . S
N313 C317 1.383 . S
C314 N313 1.376 . S
C314 C315 1.446 . S
C314 C337 1.391 . S
C315 C314 1.446 . S
C315 C316 1.339 . S
C315 H344 0.949 . S
C316 C315 1.339 . S
C316 C317 1.439 . S
C316 H345 0.950 . S
C317 N313 1.383 . S
C317 C316 1.439 . S
C317 C335 1.392 . S
N318 Co302 2.282 . S
N318 C321 1.332 . S
N318 C323 1.332 . S
C319 C320 1.386 . S
C319 C322 1.388 . S
C320 C319 1.386 . S
C320 C321 1.382 . S
C320 H346 0.950 . S
C321 N318 1.332 . S
C321 C320 1.382 . S
C321 H332 0.952 . S
C322 C319 1.388 . S
C322 C323 1.382 . S
C322 H347 0.950 . S
C323 N318 1.332 . S
C323 C322 1.382 . S
C323 H333 0.948 . S
N324 Co302 2.282 . S
N324 C328 1.332 . S
N324 C329 1.332 . S
C325 C326 1.388 . S
C325 C329 1.382 . S
C325 H348 0.950 . S
C326 C325 1.388 . S
C326 C327 1.386 . S
C327 C326 1.386 . S
C327 C328 1.382 . S
C327 H349 0.950 . S
C328 N324 1.332 . S
C328 C327 1.382 . S
C328 H330 0.952 . S
C329 N324 1.332 . S
C329 C325 1.382 . S
C329 H331 0.948 . S
H330 C328 0.952 . S
H331 C329 0.948 . S
H332 C321 0.952 . S
H333 C323 0.948 . S
C334 C300 1.395 . S
C334 C304 1.391 . S
C335 C297 1.389 . S
C335 C317 1.392 . S
C336 C307 1.392 . S
C336 C309 1.389 . S
C337 C312 1.395 . S
C337 C314 1.391 . S
H338 C298 0.951 . S
H339 C299 0.950 . S
H340 C305 0.949 . S
H341 C306 0.950 . S
H342 C310 0.951 . S
H343 C311 0.950 . S
H344 C315 0.949 . S
H345 C316 0.950 . S
H346 C320 0.950 . S
H347 C322 0.950 . S
H348 C325 0.950 . S
H349 C327 0.950 . S
C350 C351 1.443 . S
C350 N354 1.376 . S
C350 C388 1.389 . S
C351 C350 1.443 . S
C351 C352 1.340 . S
C351 H391 0.951 . S
C352 C351 1.340 . S
C352 C353 1.439 . S
C352 H392 0.950 . S
C353 C352 1.439 . S
C353 N354 1.374 . S
C353 C387 1.395 . S
N354 C350 1.376 . S
N354 C353 1.374 . S
N354 Co355 2.008 . S
Co355 N354 2.008 . S
Co355 N356 1.995 . S
Co355 N361 2.008 . S
Co355 N366 1.995 . S
Co355 N371 2.282 . S
Co355 N377 2.282 . S
N356 Co355 1.995 . S
N356 C357 1.376 . S
N356 C360 1.383 . S
C357 N356 1.376 . S
C357 C358 1.446 . S
C357 C387 1.391 . S
C358 C357 1.446 . S
C358 C359 1.339 . S
C358 H393 0.949 . S
C359 C358 1.339 . S
C359 C360 1.439 . S
C359 H394 0.950 . S
C360 N356 1.383 . S
C360 C359 1.439 . S
C360 C389 1.392 . S
N361 Co355 2.008 . S
N361 C362 1.376 . S
N361 C365 1.374 . S
C362 N361 1.376 . S
C362 C363 1.443 . S
C362 C389 1.389 . S
C363 C362 1.443 . S
C363 C364 1.340 . S
C363 H395 0.951 . S
C364 C363 1.340 . S
C364 C365 1.439 . S
C364 H396 0.950 . S
C365 N361 1.374 . S
C365 C364 1.439 . S
C365 C390 1.395 . S
N366 Co355 1.995 . S
N366 C367 1.376 . S
N366 C370 1.383 . S
C367 N366 1.376 . S
C367 C368 1.446 . S
C367 C390 1.391 . S
C368 C367 1.446 . S
C368 C369 1.339 . S
C368 H397 0.949 . S
C369 C368 1.339 . S
C369 C370 1.439 . S
C369 H398 0.950 . S
C370 N366 1.383 . S
C370 C369 1.439 . S
C370 C388 1.392 . S
N371 Co355 2.282 . S
N371 C374 1.332 . S
N371 C376 1.332 . S
C372 C373 1.386 . S
C372 C375 1.388 . S
C373 C372 1.386 . S
C373 C374 1.382 . S
C373 H399 0.950 . S
C374 N371 1.332 . S
C374 C373 1.382 . S
C374 H385 0.952 . S
C375 C372 1.388 . S
C375 C376 1.382 . S
C375 H400 0.950 . S
C376 N371 1.332 . S
C376 C375 1.382 . S
C376 H386 0.948 . S
N377 Co355 2.282 . S
N377 C381 1.332 . S
N377 C382 1.332 . S
C378 C379 1.388 . S
C378 C382 1.382 . S
C378 H401 0.950 . S
C379 C378 1.388 . S
C379 C380 1.386 . S
C380 C379 1.386 . S
C380 C381 1.382 . S
C380 H402 0.950 . S
C381 N377 1.332 . S
C381 C380 1.382 . S
C381 H383 0.952 . S
C382 N377 1.332 . S
C382 C378 1.382 . S
C382 H384 0.948 . S
H383 C381 0.952 . S
H384 C382 0.948 . S
H385 C374 0.952 . S
H386 C376 0.948 . S
C387 C353 1.395 . S
C387 C357 1.391 . S
C388 C350 1.389 . S
C388 C370 1.392 . S
C389 C360 1.392 . S
C389 C362 1.389 . S
C390 C365 1.395 . S
C390 C367 1.391 . S
H391 C351 0.951 . S
H392 C352 0.950 . S
H393 C358 0.949 . S
H394 C359 0.950 . S
H395 C363 0.951 . S
H396 C364 0.950 . S
H397 C368 0.949 . S
H398 C369 0.950 . S
H399 C373 0.950 . S
H400 C375 0.950 . S
H401 C378 0.950 . S
H402 C380 0.950 . S
C403 C404 1.443 . S
C403 N407 1.376 . S
C403 C441 1.389 . S
C404 C403 1.443 . S
C404 C405 1.340 . S
C404 H444 0.951 . S
C405 C404 1.340 . S
C405 C406 1.439 . S
C405 H445 0.950 . S
C406 C405 1.439 . S
C406 N407 1.374 . S
C406 C440 1.395 . S
N407 C403 1.376 . S
N407 C406 1.374 . S
N407 Co408 2.008 . S
Co408 N407 2.008 . S
Co408 N409 1.995 . S
Co408 N414 2.008 . S
Co408 N419 1.995 . S
Co408 N424 2.282 . S
Co408 N430 2.282 . S
N409 Co408 1.995 . S
N409 C410 1.376 . S
N409 C413 1.383 . S
C410 N409 1.376 . S
C410 C411 1.446 . S
C410 C440 1.391 . S
C411 C410 1.446 . S
C411 C412 1.339 . S
C411 H446 0.949 . S
C412 C411 1.339 . S
C412 C413 1.439 . S
C412 H447 0.950 . S
C413 N409 1.383 . S
C413 C412 1.439 . S
C413 C442 1.392 . S
N414 Co408 2.008 . S
N414 C415 1.376 . S
N414 C418 1.374 . S
C415 N414 1.376 . S
C415 C416 1.443 . S
C415 C442 1.389 . S
C416 C415 1.443 . S
C416 C417 1.340 . S
C416 H448 0.951 . S
C417 C416 1.340 . S
C417 C418 1.439 . S
C417 H449 0.950 . S
C418 N414 1.374 . S
C418 C417 1.439 . S
C418 C443 1.395 . S
N419 Co408 1.995 . S
N419 C420 1.376 . S
N419 C423 1.383 . S
C420 N419 1.376 . S
C420 C421 1.446 . S
C420 C443 1.391 . S
C421 C420 1.446 . S
C421 C422 1.339 . S
C421 H450 0.949 . S
C422 C421 1.339 . S
C422 C423 1.439 . S
C422 H451 0.950 . S
C423 N419 1.383 . S
C423 C422 1.439 . S
C423 C441 1.392 . S
N424 Co408 2.282 . S
N424 C427 1.332 . S
N424 C429 1.332 . S
C425 C426 1.386 . S
C425 C428 1.388 . S
C426 C425 1.386 . S
C426 C427 1.382 . S
C426 H452 0.950 . S
C427 N424 1.332 . S
C427 C426 1.382 . S
C427 H438 0.952 . S
C428 C425 1.388 . S
C428 C429 1.382 . S
C428 H453 0.950 . S
C429 N424 1.332 . S
C429 C428 1.382 . S
C429 H439 0.948 . S
N430 Co408 2.282 . S
N430 C434 1.332 . S
N430 C435 1.332 . S
C431 C432 1.388 . S
C431 C435 1.382 . S
C431 H454 0.950 . S
C432 C431 1.388 . S
C432 C433 1.386 . S
C433 C432 1.386 . S
C433 C434 1.382 . S
C433 H455 0.950 . S
C434 N430 1.332 . S
C434 C433 1.382 . S
C434 H436 0.952 . S
C435 N430 1.332 . S
C435 C431 1.382 . S
C435 H437 0.948 . S
H436 C434 0.952 . S
H437 C435 0.948 . S
H438 C427 0.952 . S
H439 C429 0.948 . S
C440 C406 1.395 . S
C440 C410 1.391 . S
C441 C403 1.389 . S
C441 C423 1.392 . S
C442 C413 1.392 . S
C442 C415 1.389 . S
C443 C418 1.395 . S
C443 C420 1.391 . S
H444 C404 0.951 . S
H445 C405 0.950 . S
H446 C411 0.949 . S
H447 C412 0.950 . S
H448 C416 0.951 . S
H449 C417 0.950 . S
H450 C421 0.949 . S
H451 C422 0.950 . S
H452 C426 0.950 . S
H453 C428 0.950 . S
H454 C431 0.950 . S
H455 C433 0.950 . S
H456 C464 0.950 . S
H457 C469 0.950 . S
H458 C466 0.950 . S
H459 C468 0.950 . S
H460 C470 0.950 . S
H461 C472 0.950 . S
H462 C474 0.950 . S
H463 C475 0.950 . S
C464 H456 0.950 . S
C464 C465 1.386 . S
C464 C466 1.391 . S
C465 C464 1.386 . S
C465 C469 1.393 . S
C466 H458 0.950 . S
C466 C464 1.391 . S
C466 C467 1.400 . S
C467 C466 1.400 . S
C467 C468 1.398 . S
C467 C473 1.491 . S
C468 H459 0.950 . S
C468 C467 1.398 . S
C468 C469 1.391 . S
C469 H457 0.950 . S
C469 C465 1.393 . S
C469 C468 1.391 . S
C470 H460 0.950 . S
C470 C471 1.386 . S
C470 C472 1.391 . S
C471 C470 1.386 . S
C471 C475 1.393 . S
C472 H461 0.950 . S
C472 C470 1.391 . S
C472 C473 1.400 . S
C473 C467 1.491 . S
C473 C472 1.400 . S
C473 C474 1.398 . S
C474 H462 0.950 . S
C474 C473 1.398 . S
C474 C475 1.391 . S
C475 H463 0.950 . S
C475 C471 1.393 . S
C475 C474 1.391 . S
H476 C484 0.950 . S
H477 C489 0.950 . S
H478 C486 0.950 . S
H479 C488 0.950 . S
H480 C490 0.950 . S
H481 C492 0.950 . S
H482 C494 0.950 . S
H483 C495 0.950 . S
C484 H476 0.950 . S
C484 C485 1.386 . S
C484 C486 1.391 . S
C485 C484 1.386 . S
C485 C489 1.393 . S
C486 H478 0.950 . S
C486 C484 1.391 . S
C486 C487 1.400 . S
C487 C486 1.400 . S
C487 C488 1.398 . S
C487 C493 1.491 . S
C488 H479 0.950 . S
C488 C487 1.398 . S
C488 C489 1.391 . S
C489 H477 0.950 . S
C489 C485 1.393 . S
C489 C488 1.391 . S
C490 H480 0.950 . S
C490 C491 1.386 . S
C490 C492 1.391 . S
C491 C490 1.386 . S
C491 C495 1.393 . S
C492 H481 0.950 . S
C492 C490 1.391 . S
C492 C493 1.400 . S
C493 C487 1.491 . S
C493 C492 1.400 . S
C493 C494 1.398 . S
C494 H482 0.950 . S
C494 C493 1.398 . S
C494 C495 1.391 . S
C495 H483 0.950 . S
C495 C491 1.393 . S
C495 C494 1.391 . S
H496 C504 0.950 . S
H497 C509 0.950 . S
H498 C506 0.950 . S
H499 C508 0.950 . S
H500 C510 0.950 . S
H501 C512 0.950 . S
H502 C514 0.950 . S
H503 C515 0.950 . S
C504 H496 0.950 . S
C504 C505 1.386 . S
C504 C506 1.391 . S
C505 C504 1.386 . S
C505 C509 1.393 . S
C506 H498 0.950 . S
C506 C504 1.391 . S
C506 C507 1.400 . S
C507 C506 1.400 . S
C507 C508 1.398 . S
C507 C513 1.491 . S
C508 H499 0.950 . S
C508 C507 1.398 . S
C508 C509 1.391 . S
C509 H497 0.950 . S
C509 C505 1.393 . S
C509 C508 1.391 . S
C510 H500 0.950 . S
C510 C511 1.386 . S
C510 C512 1.391 . S
C511 C510 1.386 . S
C511 C515 1.393 . S
C512 H501 0.950 . S
C512 C510 1.391 . S
C512 C513 1.400 . S
C513 C507 1.491 . S
C513 C512 1.400 . S
C513 C514 1.398 . S
C514 H502 0.950 . S
C514 C513 1.398 . S
C514 C515 1.391 . S
C515 H503 0.950 . S
C515 C511 1.393 . S
C515 C514 1.391 . S
H516 C524 0.950 . S
H517 C529 0.950 . S
H518 C526 0.950 . S
H519 C528 0.950 . S
H520 C530 0.950 . S
H521 C532 0.950 . S
H522 C534 0.950 . S
H523 C535 0.950 . S
C524 H516 0.950 . S
C524 C525 1.386 . S
C524 C526 1.391 . S
C525 C524 1.386 . S
C525 C529 1.393 . S
C526 H518 0.950 . S
C526 C524 1.391 . S
C526 C527 1.400 . S
C527 C526 1.400 . S
C527 C528 1.398 . S
C527 C533 1.491 . S
C528 H519 0.950 . S
C528 C527 1.398 . S
C528 C529 1.391 . S
C529 H517 0.950 . S
C529 C525 1.393 . S
C529 C528 1.391 . S
C530 H520 0.950 . S
C530 C531 1.386 . S
C530 C532 1.391 . S
C531 C530 1.386 . S
C531 C535 1.393 . S
C532 H521 0.950 . S
C532 C530 1.391 . S
C532 C533 1.400 . S
C533 C527 1.491 . S
C533 C532 1.400 . S
C533 C534 1.398 . S
C534 H522 0.950 . S
C534 C533 1.398 . S
C534 C535 1.391 . S
C535 H523 0.950 . S
C535 C531 1.393 . S
C535 C534 1.391 . S
H536 C544 0.950 . S
H537 C549 0.950 . S
H538 C546 0.950 . S
H539 C548 0.950 . S
H540 C550 0.950 . S
H541 C552 0.950 . S
H542 C554 0.950 . S
H543 C555 0.950 . S
C544 H536 0.950 . S
C544 C545 1.386 . S
C544 C546 1.391 . S
C545 C544 1.386 . S
C545 C549 1.393 . S
C546 H538 0.950 . S
C546 C544 1.391 . S
C546 C547 1.400 . S
C547 C546 1.400 . S
C547 C548 1.398 . S
C547 C553 1.491 . S
C548 H539 0.950 . S
C548 C547 1.398 . S
C548 C549 1.391 . S
C549 H537 0.950 . S
C549 C545 1.393 . S
C549 C548 1.391 . S
C550 H540 0.950 . S
C550 C551 1.386 . S
C550 C552 1.391 . S
C551 C550 1.386 . S
C551 C555 1.393 . S
C552 H541 0.950 . S
C552 C550 1.391 . S
C552 C553 1.400 . S
C553 C547 1.491 . S
C553 C552 1.400 . S
C553 C554 1.398 . S
C554 H542 0.950 . S
C554 C553 1.398 . S
C554 C555 1.391 . S
C555 H543 0.950 . S
C555 C551 1.393 . S
C555 C554 1.391 . S
H556 C564 0.950 . S
H557 C569 0.950 . S
H558 C566 0.950 . S
H559 C568 0.950 . S
H560 C570 0.950 . S
H561 C572 0.950 . S
H562 C574 0.950 . S
H563 C575 0.950 . S
C564 H556 0.950 . S
C564 C565 1.386 . S
C564 C566 1.391 . S
C565 C564 1.386 . S
C565 C569 1.393 . S
C566 H558 0.950 . S
C566 C564 1.391 . S
C566 C567 1.400 . S
C567 C566 1.400 . S
C567 C568 1.398 . S
C567 C573 1.491 . S
C568 H559 0.950 . S
C568 C567 1.398 . S
C568 C569 1.391 . S
C569 H557 0.950 . S
C569 C565 1.393 . S
C569 C568 1.391 . S
C570 H560 0.950 . S
C570 C571 1.386 . S
C570 C572 1.391 . S
C571 C570 1.386 . S
C571 C575 1.393 . S
C572 H561 0.950 . S
C572 C570 1.391 . S
C572 C573 1.400 . S
C573 C567 1.491 . S
C573 C572 1.400 . S
C573 C574 1.398 . S
C574 H562 0.950 . S
C574 C573 1.398 . S
C574 C575 1.391 . S
C575 H563 0.950 . S
C575 C571 1.393 . S
C575 C574 1.391 . S
H576 C584 0.950 . S
H577 C589 0.950 . S
H578 C586 0.950 . S
H579 C588 0.950 . S
H580 C590 0.950 . S
H581 C592 0.950 . S
H582 C594 0.950 . S
H583 C595 0.950 . S
C584 H576 0.950 . S
C584 C585 1.386 . S
C584 C586 1.391 . S
C585 C584 1.386 . S
C585 C589 1.393 . S
C586 H578 0.950 . S
C586 C584 1.391 . S
C586 C587 1.400 . S
C587 C586 1.400 . S
C587 C588 1.398 . S
C587 C593 1.491 . S
C588 H579 0.950 . S
C588 C587 1.398 . S
C588 C589 1.391 . S
C589 H577 0.950 . S
C589 C585 1.393 . S
C589 C588 1.391 . S
C590 H580 0.950 . S
C590 C591 1.386 . S
C590 C592 1.391 . S
C591 C590 1.386 . S
C591 C595 1.393 . S
C592 H581 0.950 . S
C592 C590 1.391 . S
C592 C593 1.400 . S
C593 C587 1.491 . S
C593 C592 1.400 . S
C593 C594 1.398 . S
C594 H582 0.950 . S
C594 C593 1.398 . S
C594 C595 1.391 . S
C595 H583 0.950 . S
C595 C591 1.393 . S
C595 C594 1.391 . S
H596 C604 0.950 . S
H597 C609 0.950 . S
H598 C606 0.950 . S
H599 C608 0.950 . S
H600 C610 0.950 . S
H601 C612 0.950 . S
H602 C614 0.950 . S
H603 C615 0.950 . S
C604 H596 0.950 . S
C604 C605 1.386 . S
C604 C606 1.391 . S
C605 C604 1.386 . S
C605 C609 1.393 . S
C606 H598 0.950 . S
C606 C604 1.391 . S
C606 C607 1.400 . S
C607 C606 1.400 . S
C607 C608 1.398 . S
C607 C613 1.491 . S
C608 H599 0.950 . S
C608 C607 1.398 . S
C608 C609 1.391 . S
C609 H597 0.950 . S
C609 C605 1.393 . S
C609 C608 1.391 . S
C610 H600 0.950 . S
C610 C611 1.386 . S
C610 C612 1.391 . S
C611 C610 1.386 . S
C611 C615 1.393 . S
C612 H601 0.950 . S
C612 C610 1.391 . S
C612 C613 1.400 . S
C613 C607 1.491 . S
C613 C612 1.400 . S
C613 C614 1.398 . S
C614 H602 0.950 . S
C614 C613 1.398 . S
C614 C615 1.391 . S
C615 H603 0.950 . S
C615 C611 1.393 . S
C615 C614 1.391 . S
H616 C624 0.950 . S
H617 C629 0.950 . S
H618 C626 0.950 . S
H619 C628 0.950 . S
H620 C630 0.950 . S
H621 C632 0.950 . S
H622 C634 0.950 . S
H623 C635 0.950 . S
C624 H616 0.950 . S
C624 C625 1.386 . S
C624 C626 1.391 . S
C625 C624 1.386 . S
C625 C629 1.393 . S
C626 H618 0.950 . S
C626 C624 1.391 . S
C626 C627 1.400 . S
C627 C626 1.400 . S
C627 C628 1.398 . S
C627 C633 1.491 . S
C628 H619 0.950 . S
C628 C627 1.398 . S
C628 C629 1.391 . S
C629 H617 0.950 . S
C629 C625 1.393 . S
C629 C628 1.391 . S
C630 H620 0.950 . S
C630 C631 1.386 . S
C630 C632 1.391 . S
C631 C630 1.386 . S
C631 C635 1.393 . S
C632 H621 0.950 . S
C632 C630 1.391 . S
C632 C633 1.400 . S
C633 C627 1.491 . S
C633 C632 1.400 . S
C633 C634 1.398 . S
C634 H622 0.950 . S
C634 C633 1.398 . S
C634 C635 1.391 . S
C635 H623 0.950 . S
C635 C631 1.393 . S
C635 C634 1.391 . S
H636 C644 0.950 . S
H637 C649 0.950 . S
H638 C646 0.950 . S
H639 C648 0.950 . S
H640 C650 0.950 . S
H641 C652 0.950 . S
H642 C654 0.950 . S
H643 C655 0.950 . S
C644 H636 0.950 . S
C644 C645 1.386 . S
C644 C646 1.391 . S
C645 C644 1.386 . S
C645 C649 1.393 . S
C646 H638 0.950 . S
C646 C644 1.391 . S
C646 C647 1.400 . S
C647 C646 1.400 . S
C647 C648 1.398 . S
C647 C653 1.491 . S
C648 H639 0.950 . S
C648 C647 1.398 . S
C648 C649 1.391 . S
C649 H637 0.950 . S
C649 C645 1.393 . S
C649 C648 1.391 . S
C650 H640 0.950 . S
C650 C651 1.386 . S
C650 C652 1.391 . S
C651 C650 1.386 . S
C651 C655 1.393 . S
C652 H641 0.950 . S
C652 C650 1.391 . S
C652 C653 1.400 . S
C653 C647 1.491 . S
C653 C652 1.400 . S
C653 C654 1.398 . S
C654 H642 0.950 . S
C654 C653 1.398 . S
C654 C655 1.391 . S
C655 H643 0.950 . S
C655 C651 1.393 . S
C655 C654 1.391 . S
H656 C664 0.950 . S
H657 C669 0.950 . S
H658 C666 0.950 . S
H659 C668 0.950 . S
H660 C670 0.950 . S
H661 C672 0.950 . S
H662 C674 0.950 . S
H663 C675 0.950 . S
C664 H656 0.950 . S
C664 C665 1.386 . S
C664 C666 1.391 . S
C665 C664 1.386 . S
C665 C669 1.393 . S
C666 H658 0.950 . S
C666 C664 1.391 . S
C666 C667 1.400 . S
C667 C666 1.400 . S
C667 C668 1.398 . S
C667 C673 1.491 . S
C668 H659 0.950 . S
C668 C667 1.398 . S
C668 C669 1.391 . S
C669 H657 0.950 . S
C669 C665 1.393 . S
C669 C668 1.391 . S
C670 H660 0.950 . S
C670 C671 1.386 . S
C670 C672 1.391 . S
C671 C670 1.386 . S
C671 C675 1.393 . S
C672 H661 0.950 . S
C672 C670 1.391 . S
C672 C673 1.400 . S
C673 C667 1.491 . S
C673 C672 1.400 . S
C673 C674 1.398 . S
C674 H662 0.950 . S
C674 C673 1.398 . S
C674 C675 1.391 . S
C675 H663 0.950 . S
C675 C671 1.393 . S
C675 C674 1.391 . S
H676 C684 0.950 . S
H677 C689 0.950 . S
H678 C686 0.950 . S
H679 C688 0.950 . S
H680 C690 0.950 . S
H681 C692 0.950 . S
H682 C694 0.950 . S
H683 C695 0.950 . S
C684 H676 0.950 . S
C684 C685 1.386 . S
C684 C686 1.391 . S
C685 C684 1.386 . S
C685 C689 1.393 . S
C686 H678 0.950 . S
C686 C684 1.391 . S
C686 C687 1.400 . S
C687 C686 1.400 . S
C687 C688 1.398 . S
C687 C693 1.491 . S
C688 H679 0.950 . S
C688 C687 1.398 . S
C688 C689 1.391 . S
C689 H677 0.950 . S
C689 C685 1.393 . S
C689 C688 1.391 . S
C690 H680 0.950 . S
C690 C691 1.386 . S
C690 C692 1.391 . S
C691 C690 1.386 . S
C691 C695 1.393 . S
C692 H681 0.950 . S
C692 C690 1.391 . S
C692 C693 1.400 . S
C693 C687 1.491 . S
C693 C692 1.400 . S
C693 C694 1.398 . S
C694 H682 0.950 . S
C694 C693 1.398 . S
C694 C695 1.391 . S
C695 H683 0.950 . S
C695 C691 1.393 . S
C695 C694 1.391 . S
H696 C704 0.950 . S
H697 C709 0.950 . S
H698 C706 0.950 . S
H699 C708 0.950 . S
H700 C710 0.950 . S
H701 C712 0.950 . S
H702 C714 0.950 . S
H703 C715 0.950 . S
C704 H696 0.950 . S
C704 C705 1.386 . S
C704 C706 1.391 . S
C705 C704 1.386 . S
C705 C709 1.393 . S
C706 H698 0.950 . S
C706 C704 1.391 . S
C706 C707 1.400 . S
C707 C706 1.400 . S
C707 C708 1.398 . S
C707 C713 1.491 . S
C708 H699 0.950 . S
C708 C707 1.398 . S
C708 C709 1.391 . S
C709 H697 0.950 . S
C709 C705 1.393 . S
C709 C708 1.391 . S
C710 H700 0.950 . S
C710 C711 1.386 . S
C710 C712 1.391 . S
C711 C710 1.386 . S
C711 C715 1.393 . S
C712 H701 0.950 . S
C712 C710 1.391 . S
C712 C713 1.400 . S
C713 C707 1.491 . S
C713 C712 1.400 . S
C713 C714 1.398 . S
C714 H702 0.950 . S
C714 C713 1.398 . S
C714 C715 1.391 . S
C715 H703 0.950 . S
C715 C711 1.393 . S
C715 C714 1.391 . S
H716 C724 0.950 . S
H717 C729 0.950 . S
H718 C726 0.950 . S
H719 C728 0.950 . S
H720 C730 0.950 . S
H721 C732 0.950 . S
H722 C734 0.950 . S
H723 C735 0.950 . S
C724 H716 0.950 . S
C724 C725 1.386 . S
C724 C726 1.391 . S
C725 C724 1.386 . S
C725 C729 1.393 . S
C726 H718 0.950 . S
C726 C724 1.391 . S
C726 C727 1.400 . S
C727 C726 1.400 . S
C727 C728 1.398 . S
C727 C733 1.491 . S
C728 H719 0.950 . S
C728 C727 1.398 . S
C728 C729 1.391 . S
C729 H717 0.950 . S
C729 C725 1.393 . S
C729 C728 1.391 . S
C730 H720 0.950 . S
C730 C731 1.386 . S
C730 C732 1.391 . S
C731 C730 1.386 . S
C731 C735 1.393 . S
C732 H721 0.950 . S
C732 C730 1.391 . S
C732 C733 1.400 . S
C733 C727 1.491 . S
C733 C732 1.400 . S
C733 C734 1.398 . S
C734 H722 0.950 . S
C734 C733 1.398 . S
C734 C735 1.391 . S
C735 H723 0.950 . S
C735 C731 1.393 . S
C735 C734 1.391 . S
H736 C744 0.950 . S
H737 C749 0.950 . S
H738 C746 0.950 . S
H739 C748 0.950 . S
H740 C750 0.950 . S
H741 C752 0.950 . S
H742 C754 0.950 . S
H743 C755 0.950 . S
C744 H736 0.950 . S
C744 C745 1.386 . S
C744 C746 1.391 . S
C745 C744 1.386 . S
C745 C749 1.393 . S
C746 H738 0.950 . S
C746 C744 1.391 . S
C746 C747 1.400 . S
C747 C746 1.400 . S
C747 C748 1.398 . S
C747 C753 1.491 . S
C748 H739 0.950 . S
C748 C747 1.398 . S
C748 C749 1.391 . S
C749 H737 0.950 . S
C749 C745 1.393 . S
C749 C748 1.391 . S
C750 H740 0.950 . S
C750 C751 1.386 . S
C750 C752 1.391 . S
C751 C750 1.386 . S
C751 C755 1.393 . S
C752 H741 0.950 . S
C752 C750 1.391 . S
C752 C753 1.400 . S
C753 C747 1.491 . S
C753 C752 1.400 . S
C753 C754 1.398 . S
C754 H742 0.950 . S
C754 C753 1.398 . S
C754 C755 1.391 . S
C755 H743 0.950 . S
C755 C751 1.393 . S
C755 C754 1.391 . S
H756 C764 0.950 . S
H757 C769 0.950 . S
H758 C766 0.950 . S
H759 C768 0.950 . S
H760 C770 0.950 . S
H761 C772 0.950 . S
H762 C774 0.950 . S
H763 C775 0.950 . S
C764 H756 0.950 . S
C764 C765 1.386 . S
C764 C766 1.391 . S
C765 C764 1.386 . S
C765 C769 1.393 . S
C766 H758 0.950 . S
C766 C764 1.391 . S
C766 C767 1.400 . S
C767 C766 1.400 . S
C767 C768 1.398 . S
C767 C773 1.491 . S
C768 H759 0.950 . S
C768 C767 1.398 . S
C768 C769 1.391 . S
C769 H757 0.950 . S
C769 C765 1.393 . S
C769 C768 1.391 . S
C770 H760 0.950 . S
C770 C771 1.386 . S
C770 C772 1.391 . S
C771 C770 1.386 . S
C771 C775 1.393 . S
C772 H761 0.950 . S
C772 C770 1.391 . S
C772 C773 1.400 . S
C773 C767 1.491 . S
C773 C772 1.400 . S
C773 C774 1.398 . S
C774 H762 0.950 . S
C774 C773 1.398 . S
C774 C775 1.391 . S
C775 H763 0.950 . S
C775 C771 1.393 . S
C775 C774 1.391 . S
H776 C784 0.950 . S
H777 C789 0.950 . S
H778 C786 0.950 . S
H779 C788 0.950 . S
H780 C790 0.950 . S
H781 C792 0.950 . S
H782 C794 0.950 . S
H783 C795 0.950 . S
C784 H776 0.950 . S
C784 C785 1.386 . S
C784 C786 1.391 . S
C785 C784 1.386 . S
C785 C789 1.393 . S
C786 H778 0.950 . S
C786 C784 1.391 . S
C786 C787 1.400 . S
C787 C786 1.400 . S
C787 C788 1.398 . S
C787 C793 1.491 . S
C788 H779 0.950 . S
C788 C787 1.398 . S
C788 C789 1.391 . S
C789 H777 0.950 . S
C789 C785 1.393 . S
C789 C788 1.391 . S
C790 H780 0.950 . S
C790 C791 1.386 . S
C790 C792 1.391 . S
C791 C790 1.386 . S
C791 C795 1.393 . S
C792 H781 0.950 . S
C792 C790 1.391 . S
C792 C793 1.400 . S
C793 C787 1.491 . S
C793 C792 1.400 . S
C793 C794 1.398 . S
C794 H782 0.950 . S
C794 C793 1.398 . S
C794 C795 1.391 . S
C795 H783 0.950 . S
C795 C791 1.393 . S
C795 C794 1.391 . S
H796 C804 0.950 . S
H797 C809 0.950 . S
H798 C806 0.950 . S
H799 C808 0.950 . S
H800 C810 0.950 . S
H801 C812 0.950 . S
H802 C814 0.950 . S
H803 C815 0.950 . S
C804 H796 0.950 . S
C804 C805 1.386 . S
C804 C806 1.391 . S
C805 C804 1.386 . S
C805 C809 1.393 . S
C806 H798 0.950 . S
C806 C804 1.391 . S
C806 C807 1.400 . S
C807 C806 1.400 . S
C807 C808 1.398 . S
C807 C813 1.491 . S
C808 H799 0.950 . S
C808 C807 1.398 . S
C808 C809 1.391 . S
C809 H797 0.950 . S
C809 C805 1.393 . S
C809 C808 1.391 . S
C810 H800 0.950 . S
C810 C811 1.386 . S
C810 C812 1.391 . S
C811 C810 1.386 . S
C811 C815 1.393 . S
C812 H801 0.950 . S
C812 C810 1.391 . S
C812 C813 1.400 . S
C813 C807 1.491 . S
C813 C812 1.400 . S
C813 C814 1.398 . S
C814 H802 0.950 . S
C814 C813 1.398 . S
C814 C815 1.391 . S
C815 H803 0.950 . S
C815 C811 1.393 . S
C815 C814 1.391 . S
H816 C824 0.950 . S
H817 C829 0.950 . S
H818 C826 0.950 . S
H819 C828 0.950 . S
H820 C830 0.950 . S
H821 C832 0.950 . S
H822 C834 0.950 . S
H823 C835 0.950 . S
C824 H816 0.950 . S
C824 C825 1.386 . S
C824 C826 1.391 . S
C825 C824 1.386 . S
C825 C829 1.393 . S
C826 H818 0.950 . S
C826 C824 1.391 . S
C826 C827 1.400 . S
C827 C826 1.400 . S
C827 C828 1.398 . S
C827 C833 1.491 . S
C828 H819 0.950 . S
C828 C827 1.398 . S
C828 C829 1.391 . S
C829 H817 0.950 . S
C829 C825 1.393 . S
C829 C828 1.391 . S
C830 H820 0.950 . S
C830 C831 1.386 . S
C830 C832 1.391 . S
C831 C830 1.386 . S
C831 C835 1.393 . S
C832 H821 0.950 . S
C832 C830 1.391 . S
C832 C833 1.400 . S
C833 C827 1.491 . S
C833 C832 1.400 . S
C833 C834 1.398 . S
C834 H822 0.950 . S
C834 C833 1.398 . S
C834 C835 1.391 . S
C835 H823 0.950 . S
C835 C831 1.393 . S
C835 C834 1.391 . S
H836 C844 0.950 . S
H837 C849 0.950 . S
H838 C846 0.950 . S
H839 C848 0.950 . S
H840 C850 0.950 . S
H841 C852 0.950 . S
H842 C854 0.950 . S
H843 C855 0.950 . S
C844 H836 0.950 . S
C844 C845 1.386 . S
C844 C846 1.391 . S
C845 C844 1.386 . S
C845 C849 1.393 . S
C846 H838 0.950 . S
C846 C844 1.391 . S
C846 C847 1.400 . S
C847 C846 1.400 . S
C847 C848 1.398 . S
C847 C853 1.491 . S
C848 H839 0.950 . S
C848 C847 1.398 . S
C848 C849 1.391 . S
C849 H837 0.950 . S
C849 C845 1.393 . S
C849 C848 1.391 . S
C850 H840 0.950 . S
C850 C851 1.386 . S
C850 C852 1.391 . S
C851 C850 1.386 . S
C851 C855 1.393 . S
C852 H841 0.950 . S
C852 C850 1.391 . S
C852 C853 1.400 . S
C853 C847 1.491 . S
C853 C852 1.400 . S
C853 C854 1.398 . S
C854 H842 0.950 . S
C854 C853 1.398 . S
C854 C855 1.391 . S
C855 H843 0.950 . S
C855 C851 1.393 . S
C855 C854 1.391 . S
H856 C864 0.950 . S
H857 C869 0.950 . S
H858 C866 0.950 . S
H859 C868 0.950 . S
H860 C870 0.950 . S
H861 C872 0.950 . S
H862 C874 0.950 . S
H863 C875 0.950 . S
C864 H856 0.950 . S
C864 C865 1.386 . S
C864 C866 1.391 . S
C865 C864 1.386 . S
C865 C869 1.393 . S
C866 H858 0.950 . S
C866 C864 1.391 . S
C866 C867 1.400 . S
C867 C866 1.400 . S
C867 C868 1.398 . S
C867 C873 1.491 . S
C868 H859 0.950 . S
C868 C867 1.398 . S
C868 C869 1.391 . S
C869 H857 0.950 . S
C869 C865 1.393 . S
C869 C868 1.391 . S
C870 H860 0.950 . S
C870 C871 1.386 . S
C870 C872 1.391 . S
C871 C870 1.386 . S
C871 C875 1.393 . S
C872 H861 0.950 . S
C872 C870 1.391 . S
C872 C873 1.400 . S
C873 C867 1.491 . S
C873 C872 1.400 . S
C873 C874 1.398 . S
C874 H862 0.950 . S
C874 C873 1.398 . S
C874 C875 1.391 . S
C875 H863 0.950 . S
C875 C871 1.393 . S
C875 C874 1.391 . S
H876 C884 0.950 . S
H877 C889 0.950 . S
H878 C886 0.950 . S
H879 C888 0.950 . S
H880 C890 0.950 . S
H881 C892 0.950 . S
H882 C894 0.950 . S
H883 C895 0.950 . S
C884 H876 0.950 . S
C884 C885 1.386 . S
C884 C886 1.391 . S
C885 C884 1.386 . S
C885 C889 1.393 . S
C886 H878 0.950 . S
C886 C884 1.391 . S
C886 C887 1.400 . S
C887 C886 1.400 . S
C887 C888 1.398 . S
C887 C893 1.491 . S
C888 H879 0.950 . S
C888 C887 1.398 . S
C888 C889 1.391 . S
C889 H877 0.950 . S
C889 C885 1.393 . S
C889 C888 1.391 . S
C890 H880 0.950 . S
C890 C891 1.386 . S
C890 C892 1.391 . S
C891 C890 1.386 . S
C891 C895 1.393 . S
C892 H881 0.950 . S
C892 C890 1.391 . S
C892 C893 1.400 . S
C893 C887 1.491 . S
C893 C892 1.400 . S
C893 C894 1.398 . S
C894 H882 0.950 . S
C894 C893 1.398 . S
C894 C895 1.391 . S
C895 H883 0.950 . S
C895 C891 1.393 . S
C895 C894 1.391 . S
H896 C904 0.950 . S
H897 C909 0.950 . S
H898 C906 0.950 . S
H899 C908 0.950 . S
H900 C910 0.950 . S
H901 C912 0.950 . S
H902 C914 0.950 . S
H903 C915 0.950 . S
C904 H896 0.950 . S
C904 C905 1.386 . S
C904 C906 1.391 . S
C905 C904 1.386 . S
C905 C909 1.393 . S
C906 H898 0.950 . S
C906 C904 1.391 . S
C906 C907 1.400 . S
C907 C906 1.400 . S
C907 C908 1.398 . S
C907 C913 1.491 . S
C908 H899 0.950 . S
C908 C907 1.398 . S
C908 C909 1.391 . S
C909 H897 0.950 . S
C909 C905 1.393 . S
C909 C908 1.391 . S
C910 H900 0.950 . S
C910 C911 1.386 . S
C910 C912 1.391 . S
C911 C910 1.386 . S
C911 C915 1.393 . S
C912 H901 0.950 . S
C912 C910 1.391 . S
C912 C913 1.400 . S
C913 C907 1.491 . S
C913 C912 1.400 . S
C913 C914 1.398 . S
C914 H902 0.950 . S
C914 C913 1.398 . S
C914 C915 1.391 . S
C915 H903 0.950 . S
C915 C911 1.393 . S
C915 C914 1.391 . S
H916 C924 0.950 . S
H917 C929 0.950 . S
H918 C926 0.950 . S
H919 C928 0.950 . S
H920 C930 0.950 . S
H921 C932 0.950 . S
H922 C934 0.950 . S
H923 C935 0.950 . S
C924 H916 0.950 . S
C924 C925 1.386 . S
C924 C926 1.391 . S
C925 C924 1.386 . S
C925 C929 1.393 . S
C926 H918 0.950 . S
C926 C924 1.391 . S
C926 C927 1.400 . S
C927 C926 1.400 . S
C927 C928 1.398 . S
C927 C933 1.491 . S
C928 H919 0.950 . S
C928 C927 1.398 . S
C928 C929 1.391 . S
C929 H917 0.950 . S
C929 C925 1.393 . S
C929 C928 1.391 . S
C930 H920 0.950 . S
C930 C931 1.386 . S
C930 C932 1.391 . S
C931 C930 1.386 . S
C931 C935 1.393 . S
C932 H921 0.950 . S
C932 C930 1.391 . S
C932 C933 1.400 . S
C933 C927 1.491 . S
C933 C932 1.400 . S
C933 C934 1.398 . S
C934 H922 0.950 . S
C934 C933 1.398 . S
C934 C935 1.391 . S
C935 H923 0.950 . S
C935 C931 1.393 . S
C935 C934 1.391 . S
C465 C7 2.068 . S
C471 C176 2.045 . S
C485 C30 1.534 . S
C491 C229 1.517 . S
C511 C282 1.824 . S
C505 N58 1.802 . S
C531 C319 1.277 . S
C525 N81 1.255 . S
C551 C379 1.799 . S
C545 C99 1.820 . S
C571 C432 1.380 . S
C565 N127 1.361 . S
C585 N25 1.880 . S
C591 C283 1.911 . S
C605 C62 1.482 . S
C611 C326 1.467 . S
C631 C372 1.834 . S
C625 C85 1.838 . S
C651 C425 1.312 . S
C645 N94 1.291 . S
C665 C131 1.917 . S
C671 C177 1.893 . S
C691 C230 1.392 . S
C685 N2 1.363 . S
C711 C336 2.001 . S
C705 C16 2.014 . S
C725 C39 1.492 . S
C731 C388 1.491 . S
C751 C441 1.826 . S
C745 N48 1.794 . S
C765 N71 1.240 . S
C771 C167 1.260 . S
C785 C108 1.813 . S
C791 C220 1.810 . S
C805 N117 1.330 . S
C811 C273 1.362 . S
C825 N35 1.871 . S
C831 C442 1.898 . S
C851 C160 1.462 . S
C845 C53 1.485 . S
C865 C76 1.878 . S
C871 C213 1.857 . S
C885 N104 1.259 . S
C891 C266 1.279 . S
C905 C122 1.882 . S
C911 C335 1.867 . S
C925 N12 1.348 . S
C931 C389 1.381 . S
