# Generated by pormake.
# Topology csq, (4,8)-cn, num edge types: 1
# Building blocks:
#     Node 0, Type 0, BuildingBlock: KOZSID_clean_sbu_0, # of connection points: 4
#     Node 1, Type 0, BuildingBlock: KOZSID_clean_sbu_0, # of connection points: 4
#     Node 2, Type 0, BuildingBlock: KOZSID_clean_sbu_0, # of connection points: 4
#     Node 3, Type 0, BuildingBlock: KOZSID_clean_sbu_0, # of connection points: 4
#     Node 4, Type 0, BuildingBlock: KOZSID_clean_sbu_0, # of connection points: 4
#     Node 5, Type 0, BuildingBlock: KOZSID_clean_sbu_0, # of connection points: 4
#     Node 6, Type 1, BuildingBlock: TAGTUT_clean_sbu_3, # of connection points: 8
#     Node 7, Type 1, BuildingBlock: TAGTUT_clean_sbu_3, # of connection points: 8
#     Node 8, Type 1, BuildingBlock: TAGTUT_clean_sbu_3, # of connection points: 8
#     Edge 9, Type (0, 1), BuildingBlock: AJUNOK_clean_linker_0, # of connection points: 2
#     Edge 10, Type (0, 1), BuildingBlock: AJUNOK_clean_linker_0, # of connection points: 2
#     Edge 11, Type (0, 1), BuildingBlock: AJUNOK_clean_linker_0, # of connection points: 2
#     Edge 12, Type (0, 1), BuildingBlock: AJUNOK_clean_linker_0, # of connection points: 2
#     Edge 13, Type (0, 1), BuildingBlock: AJUNOK_clean_linker_0, # of connection points: 2
#     Edge 14, Type (0, 1), BuildingBlock: AJUNOK_clean_linker_0, # of connection points: 2
#     Edge 15, Type (0, 1), BuildingBlock: AJUNOK_clean_linker_0, # of connection points: 2
#     Edge 16, Type (0, 1), BuildingBlock: AJUNOK_clean_linker_0, # of connection points: 2
#     Edge 17, Type (0, 1), BuildingBlock: AJUNOK_clean_linker_0, # of connection points: 2
#     Edge 18, Type (0, 1), BuildingBlock: AJUNOK_clean_linker_0, # of connection points: 2
#     Edge 19, Type (0, 1), BuildingBlock: AJUNOK_clean_linker_0, # of connection points: 2
#     Edge 20, Type (0, 1), BuildingBlock: AJUNOK_clean_linker_0, # of connection points: 2
#     Edge 21, Type (0, 1), BuildingBlock: AJUNOK_clean_linker_0, # of connection points: 2
#     Edge 22, Type (0, 1), BuildingBlock: AJUNOK_clean_linker_0, # of connection points: 2
#     Edge 23, Type (0, 1), BuildingBlock: AJUNOK_clean_linker_0, # of connection points: 2
#     Edge 24, Type (0, 1), BuildingBlock: AJUNOK_clean_linker_0, # of connection points: 2
#     Edge 25, Type (0, 1), BuildingBlock: AJUNOK_clean_linker_0, # of connection points: 2
#     Edge 26, Type (0, 1), BuildingBlock: AJUNOK_clean_linker_0, # of connection points: 2
#     Edge 27, Type (0, 1), BuildingBlock: AJUNOK_clean_linker_0, # of connection points: 2
#     Edge 28, Type (0, 1), BuildingBlock: AJUNOK_clean_linker_0, # of connection points: 2
#     Edge 29, Type (0, 1), BuildingBlock: AJUNOK_clean_linker_0, # of connection points: 2
#     Edge 30, Type (0, 1), BuildingBlock: AJUNOK_clean_linker_0, # of connection points: 2
#     Edge 31, Type (0, 1), BuildingBlock: AJUNOK_clean_linker_0, # of connection points: 2
#     Edge 32, Type (0, 1), BuildingBlock: AJUNOK_clean_linker_0, # of connection points: 2
# Relax obj value: 0.035
# Max RMSD: 0.126
# Mean RMSD: 0.042
data_MOF--net-csq--node1-KOZSID_clean_sbu_0--node2-TAGTUT_clean_sbu_3--edge1-AJUNOK_clean_linker_0
_symmetry_space_group_name_H-M    P1
_symmetry_Int_Tables_number       1
_symmetry_cell_setting            triclinic
loop_
_symmetry_equiv_pos_as_xyz
'x, y, z'
_cell_length_a     44.269271
_cell_length_b     43.695572
_cell_length_c     15.840372
_cell_angle_alpha  86.636031
_cell_angle_beta   99.016149
_cell_angle_gamma 120.00096
loop_
_atom_site_label
_atom_site_type_symbol
_atom_site_fract_x
_atom_site_fract_y
_atom_site_fract_z
_atom_type_partial_charge
C0 C 0.31771 0.52833 0.30581 0.0
C1 C 0.33978 0.56465 0.3122 0.0
C2 C 0.32061 0.57932 0.26987 0.0
C3 C 0.28811 0.55124 0.23948 0.0
N4 N 0.28581 0.52003 0.26084 0.0
Co5 Co 0.24671 0.47257 0.22012 0.0
N6 N 0.22836 0.49232 0.12271 0.0
C7 C 0.23661 0.52647 0.11593 0.0
C8 C 0.21817 0.53235 0.04513 0.0
C9 C 0.1964 0.49982 0.00607 0.0
C10 C 0.20276 0.47561 0.0552 0.0
N11 N 0.20822 0.42452 0.18069 0.0
C12 C 0.18624 0.41353 0.10561 0.0
C13 C 0.16439 0.37705 0.10294 0.0
C14 C 0.17176 0.36507 0.18079 0.0
C15 C 0.19799 0.39468 0.22597 0.0
N16 N 0.26447 0.45294 0.31788 0.0
C17 C 0.24652 0.42137 0.35341 0.0
C18 C 0.26627 0.41616 0.42268 0.0
C19 C 0.29871 0.44629 0.43024 0.0
C20 C 0.29675 0.46792 0.36444 0.0
N21 N 0.21609 0.477 0.29153 0.0
C22 C 0.17244 0.48574 0.38894 0.0
C23 C 0.16039 0.47277 0.30455 0.0
C24 C 0.18243 0.46861 0.25761 0.0
C25 C 0.20727 0.49483 0.42319 0.0
C26 C 0.22858 0.4903 0.37362 0.0
N27 N 0.27793 0.46949 0.14846 0.0
C28 C 0.30762 0.44078 0.10306 0.0
C29 C 0.32845 0.47067 0.0573 0.0
C30 C 0.32258 0.49929 0.05623 0.0
C31 C 0.29731 0.4981 0.10127 0.0
C32 C 0.2825 0.44072 0.14833 0.0
H33 H 0.29422 0.52102 0.09928 0.0
H34 H 0.26746 0.41783 0.18484 0.0
H35 H 0.17224 0.45893 0.19327 0.0
H36 H 0.25529 0.49783 0.40153 0.0
C37 C 0.26375 0.55254 0.17325 0.0
C38 C 0.3262 0.50154 0.34377 0.0
C39 C 0.17982 0.43685 0.04447 0.0
C40 C 0.21538 0.39495 0.30794 0.0
H41 H 0.36699 0.57912 0.34179 0.0
H42 H 0.33027 0.60703 0.2569 0.0
H43 H 0.22016 0.55727 0.02449 0.0
H44 H 0.17703 0.49453 0.94985 0.0
H45 H 0.14368 0.36113 0.052 0.0
H46 H 0.15937 0.33805 0.20197 0.0
H47 H 0.25893 0.39238 0.45925 0.0
H48 H 0.32156 0.45122 0.47633 0.0
H49 H 0.13375 0.46521 0.27515 0.0
H50 H 0.21813 0.50557 0.48769 0.0
H51 H 0.31096 0.41783 0.10459 0.0
H52 H 0.33783 0.52283 0.02141 0.0
C53 C 0.82921 0.27318 0.99397 0.0
C54 C 0.85667 0.26963 0.97291 0.0
C55 C 0.85995 0.24565 0.0274 0.0
C56 C 0.83446 0.23579 0.07863 0.0
N57 N 0.81465 0.25139 0.05861 0.0
Co58 Co 0.77639 0.24539 0.12128 0.0
N59 N 0.77394 0.20307 0.18043 0.0
C60 C 0.79872 0.19344 0.18893 0.0
C61 C 0.78845 0.16161 0.22837 0.0
C62 C 0.75507 0.1505 0.24524 0.0
C63 C 0.74692 0.17642 0.21556 0.0
N64 N 0.73817 0.23898 0.18388 0.0
C65 C 0.71415 0.20936 0.2188 0.0
C66 C 0.69096 0.21573 0.25395 0.0
C67 C 0.70075 0.25055 0.2394 0.0
C68 C 0.72934 0.26346 0.19659 0.0
N69 N 0.77867 0.288 0.06289 0.0
C70 C 0.76444 0.30663 0.08636 0.0
C71 C 0.77151 0.33587 0.03783 0.0
C72 C 0.79217 0.33623 0.98147 0.0
C73 C 0.79681 0.30722 0.9992 0.0
N74 N 0.7408 0.2149 0.02939 0.0
C75 C 0.68219 0.16051 0.93198 0.0
C76 C 0.68114 0.18996 0.9582 0.0
C77 C 0.71094 0.21715 0.00567 0.0
C78 C 0.71424 0.16056 0.9487 0.0
C79 C 0.74313 0.18784 0.99799 0.0
N80 N 0.81166 0.27573 0.2146 0.0
C81 C 0.82915 0.29313 0.36382 0.0
C82 C 0.85761 0.32496 0.34304 0.0
C83 C 0.86413 0.33048 0.25866 0.0
C84 C 0.8409 0.30576 0.19574 0.0
C85 C 0.80644 0.26858 0.29817 0.0
H86 H 0.84614 0.31195 0.13149 0.0
H87 H 0.78397 0.24451 0.31449 0.0
H88 H 0.70906 0.23892 0.02761 0.0
H89 H 0.76671 0.18602 0.01434 0.0
C90 C 0.82668 0.21013 0.14154 0.0
C91 C 0.82276 0.30221 0.96307 0.0
C92 C 0.71374 0.17552 0.22238 0.0
C93 C 0.74292 0.29475 0.15074 0.0
H94 H 0.87381 0.28414 0.92603 0.0
H95 H 0.87886 0.2367 0.02974 0.0
H96 H 0.80244 0.14696 0.23813 0.0
H97 H 0.73845 0.12578 0.2741 0.0
H98 H 0.66902 0.19706 0.28554 0.0
H99 H 0.68724 0.26411 0.25358 0.0
H100 H 0.76289 0.35481 0.04312 0.0
H101 H 0.80383 0.35642 0.93508 0.0
H102 H 0.65713 0.19141 0.94512 0.0
H103 H 0.71686 0.13928 0.92559 0.0
H104 H 0.82371 0.28799 0.42907 0.0
H105 H 0.88635 0.35464 0.24077 0.0
C106 C 0.57573 0.7414 0.1571 0.0
C107 C 0.60842 0.74682 0.19612 0.0
C108 C 0.63307 0.77895 0.17067 0.0
C109 C 0.61424 0.7913 0.11716 0.0
N110 N 0.57902 0.76879 0.10599 0.0
Co111 Co 0.54216 0.77679 0.0335 0.0
N112 N 0.57838 0.82494 0.99886 0.0
C113 C 0.61375 0.84067 0.02228 0.0
C114 C 0.63208 0.8731 0.98699 0.0
C115 C 0.60701 0.87845 0.93766 0.0
C116 C 0.57462 0.84894 0.946 0.0
N117 N 0.50517 0.78496 0.96225 0.0
C118 C 0.5081 0.81292 0.91411 0.0
C119 C 0.47523 0.80788 0.87769 0.0
C120 C 0.4508 0.77555 0.90228 0.0
C121 C 0.46992 0.76277 0.9527 0.0
N122 N 0.5059 0.72837 0.06665 0.0
C123 C 0.47068 0.71216 0.04042 0.0
C124 C 0.45206 0.67999 0.07625 0.0
C125 C 0.47674 0.67524 0.12896 0.0
C126 C 0.5093 0.70483 0.12178 0.0
N127 N 0.53768 0.7978 0.13472 0.0
C128 C 0.53179 0.8296 0.27549 0.0
C129 C 0.50263 0.79956 0.23469 0.0
C130 C 0.50595 0.78474 0.16357 0.0
C131 C 0.56438 0.84176 0.24867 0.0
C132 C 0.56678 0.82528 0.17966 0.0
N133 N 0.54699 0.75558 0.93322 0.0
C134 C 0.52105 0.70836 0.82778 0.0
C135 C 0.55448 0.71447 0.81856 0.0
C136 C 0.58395 0.74413 0.8589 0.0
C137 C 0.57962 0.76426 0.91553 0.0
C138 C 0.51796 0.72961 0.88424 0.0
H139 H 0.60319 0.78539 0.94745 0.0
H140 H 0.4919 0.72326 0.89084 0.0
H141 H 0.48235 0.76319 0.13233 0.0
H142 H 0.5924 0.83588 0.16294 0.0
C143 C 0.62884 0.82405 0.07737 0.0
C144 C 0.5424 0.70986 0.17115 0.0
C145 C 0.54117 0.84487 0.90133 0.0
C146 C 0.45556 0.72952 0.98925 0.0
H147 H 0.61393 0.72944 0.23905 0.0
H148 H 0.66136 0.7919 0.18947 0.0
H149 H 0.66035 0.89064 0.99558 0.0
H150 H 0.61201 0.90138 0.89929 0.0
H151 H 0.46938 0.82565 0.83734 0.0
H152 H 0.42244 0.76276 0.88495 0.0
H153 H 0.42375 0.66268 0.06772 0.0
H154 H 0.47109 0.65287 0.16983 0.0
H155 H 0.47699 0.78837 0.25507 0.0
H156 H 0.58782 0.86499 0.27799 0.0
H157 H 0.49737 0.68565 0.79739 0.0
H158 H 0.61033 0.75015 0.85194 0.0
C159 C 0.8646 0.59684 0.16447 0.0
C160 C 0.89195 0.63163 0.1689 0.0
C161 C 0.88041 0.65007 0.11387 0.0
C162 C 0.84692 0.6256 0.07877 0.0
N163 N 0.83598 0.59275 0.10967 0.0
Co164 Co 0.79085 0.54843 0.06947 0.0
N165 N 0.77608 0.57449 0.97912 0.0
C166 C 0.79452 0.6092 0.96106 0.0
C167 C 0.77649 0.62002 0.90004 0.0
C168 C 0.74422 0.59074 0.87945 0.0
C169 C 0.74448 0.56362 0.92932 0.0
N170 N 0.74567 0.50416 0.02888 0.0
C171 C 0.71689 0.50013 0.9746 0.0
C172 C 0.68991 0.46523 0.96803 0.0
C173 C 0.70169 0.4466 0.02184 0.0
C174 C 0.73507 0.47112 0.05794 0.0
N175 N 0.80536 0.52232 0.15986 0.0
C176 C 0.78687 0.4876 0.17768 0.0
C177 C 0.8046 0.47693 0.24007 0.0
C178 C 0.83668 0.50637 0.26182 0.0
C179 C 0.83669 0.53332 0.21071 0.0
N180 N 0.76627 0.55806 0.15048 0.0
C181 C 0.72775 0.57037 0.25671 0.0
C182 C 0.72588 0.5376 0.25455 0.0
C183 C 0.74504 0.53198 0.20105 0.0
C184 C 0.74972 0.59713 0.20645 0.0
C185 C 0.769 0.59062 0.15516 0.0
N186 N 0.81621 0.53907 0.9899 0.0
C187 C 0.84258 0.50483 0.95769 0.0
C188 C 0.86797 0.53371 0.9183 0.0
C189 C 0.86437 0.56375 0.9069 0.0
C190 C 0.83843 0.56577 0.94236 0.0
C191 C 0.81678 0.50791 0.99177 0.0
H192 H 0.83788 0.58982 0.93347 0.0
H193 H 0.79855 0.48526 0.02257 0.0
H194 H 0.74164 0.50609 0.20031 0.0
H195 H 0.78544 0.61218 0.11873 0.0
C196 C 0.82698 0.63171 0.00957 0.0
C197 C 0.86791 0.56803 0.20767 0.0
C198 C 0.71327 0.52889 0.93231 0.0
C199 C 0.75483 0.46497 0.12763 0.0
H200 H 0.91811 0.64232 0.20509 0.0
H201 H 0.89541 0.6776 0.0977 0.0
H202 H 0.78508 0.64648 0.87678 0.0
H203 H 0.72246 0.58988 0.8355 0.0
H204 H 0.66393 0.45466 0.93081 0.0
H205 H 0.68689 0.41889 0.03663 0.0
H206 H 0.79598 0.4505 0.26365 0.0
H207 H 0.85818 0.50748 0.30734 0.0
H208 H 0.70868 0.51595 0.29163 0.0
H209 H 0.75182 0.62293 0.20624 0.0
H210 H 0.84344 0.48046 0.96539 0.0
H211 H 0.88208 0.58608 0.87231 0.0
C212 C 0.28544 0.8344 0.22035 0.0
C213 C 0.27824 0.8582 0.25458 0.0
C214 C 0.24228 0.84283 0.24545 0.0
C215 C 0.2295 0.81073 0.20571 0.0
N216 N 0.25514 0.80502 0.18854 0.0
Co217 Co 0.24806 0.76252 0.12897 0.0
N218 N 0.19767 0.74716 0.08557 0.0
C219 C 0.17843 0.75938 0.11406 0.0
C220 C 0.14431 0.74388 0.0732 0.0
C221 C 0.14159 0.7199 0.01641 0.0
C222 C 0.17427 0.72189 0.02635 0.0
N223 N 0.24133 0.72021 0.06881 0.0
C224 C 0.21436 0.69735 0.01054 0.0
C225 C 0.22023 0.67068 0.98791 0.0
C226 C 0.25148 0.67669 0.0345 0.0
C227 C 0.263 0.70654 0.08277 0.0
N228 N 0.29819 0.77748 0.17343 0.0
C229 C 0.31299 0.75686 0.1781 0.0
C230 C 0.34761 0.7736 0.21545 0.0
C231 C 0.35511 0.80686 0.23609 0.0
C232 C 0.32463 0.80863 0.20943 0.0
N233 N 0.23373 0.73506 0.23199 0.0
C234 C 0.20569 0.69939 0.37713 0.0
C235 C 0.23527 0.7332 0.38507 0.0
C236 C 0.24937 0.75034 0.31164 0.0
C237 C 0.19149 0.6831 0.2962 0.0
C238 C 0.20574 0.70138 0.22467 0.0
N239 N 0.26218 0.79054 0.02704 0.0
C240 C 0.30183 0.81544 0.92274 0.0
C241 C 0.29032 0.83985 0.90068 0.0
C242 C 0.26296 0.83759 0.93884 0.0
C243 C 0.24899 0.81252 1.00103 0.0
C244 C 0.28738 0.79093 0.98627 0.0
H245 H 0.22875 0.81232 0.03107 0.0
H246 H 0.29778 0.77351 0.00527 0.0
H247 H 0.27209 0.77648 0.31927 0.0
H248 H 0.19305 0.68865 0.16328 0.0
C249 C 0.19434 0.78817 0.1715 0.0
C250 C 0.3211 0.83921 0.22643 0.0
C251 C 0.18053 0.69653 0.98583 0.0
C252 C 0.29521 0.72397 0.13631 0.0
H253 H 0.29698 0.88387 0.28383 0.0
H254 H 0.2273 0.85428 0.26289 0.0
H255 H 0.12398 0.7497 0.08255 0.0
H256 H 0.11796 0.70221 0.97419 0.0
H257 H 0.20311 0.64832 0.94486 0.0
H258 H 0.26425 0.66113 0.03325 0.0
H259 H 0.36549 0.76319 0.22483 0.0
H260 H 0.37992 0.82725 0.26878 0.0
H261 H 0.24695 0.74645 0.44701 0.0
H262 H 0.16839 0.65696 0.28779 0.0
H263 H 0.32327 0.81669 0.89497 0.0
H264 H 0.25344 0.85606 0.92327 0.0
C265 C 0.50748 0.20995 0.3117 0.0
C266 C 0.53992 0.21574 0.35404 0.0
C267 C 0.5649 0.24713 0.32651 0.0
C268 C 0.54652 0.25857 0.26849 0.0
N269 N 0.51117 0.23667 0.25811 0.0
Co270 Co 0.47503 0.2413 0.17272 0.0
N271 N 0.51222 0.28526 0.12485 0.0
C272 C 0.54734 0.30197 0.15252 0.0
C273 C 0.56643 0.33129 0.10693 0.0
C274 C 0.54208 0.33368 0.04683 0.0
C275 C 0.50932 0.30566 0.05951 0.0
N276 N 0.43891 0.24531 0.0857 0.0
C277 C 0.44286 0.26944 0.02389 0.0
C278 C 0.41056 0.26245 0.97806 0.0
C279 C 0.38539 0.23281 0.01139 0.0
C280 C 0.40355 0.22343 0.07568 0.0
N281 N 0.43779 0.19771 0.2214 0.0
C282 C 0.40246 0.1827 0.199 0.0
C283 C 0.38357 0.15291 0.2435 0.0
C284 C 0.4083 0.1483 0.29676 0.0
C285 C 0.44096 0.17556 0.28119 0.0
N286 N 0.47074 0.27095 0.25551 0.0
C287 C 0.46587 0.3181 0.3588 0.0
C288 C 0.43569 0.29071 0.31307 0.0
C289 C 0.43868 0.26749 0.26258 0.0
C290 C 0.49819 0.32016 0.35661 0.0
C291 C 0.50002 0.29652 0.30498 0.0
N292 N 0.47938 0.21189 0.09041 0.0
C293 C 0.45227 0.16208 0.99186 0.0
C294 C 0.48522 0.16959 0.97438 0.0
C295 C 0.51526 0.19833 0.01654 0.0
C296 C 0.51176 0.21909 0.07373 0.0
C297 C 0.44996 0.18346 0.0494 0.0
H298 H 0.5356 0.24075 0.10375 0.0
H299 H 0.42412 0.17638 0.06015 0.0
H300 H 0.41475 0.24765 0.22823 0.0
H301 H 0.5256 0.30028 0.30429 0.0
C302 C 0.5618 0.28847 0.21864 0.0
C303 C 0.4741 0.17792 0.32106 0.0
C304 C 0.47634 0.30007 0.00838 0.0
C305 C 0.38804 0.1952 0.13028 0.0
H306 H 0.54527 0.19871 0.39843 0.0
H307 H 0.59321 0.2595 0.34431 0.0
H308 H 0.59474 0.34862 0.1157 0.0
H309 H 0.54779 0.35378 0.9989 0.0
H310 H 0.40555 0.27747 0.92662 0.0
H311 H 0.35713 0.21996 0.99202 0.0
H312 H 0.35523 0.13584 0.23587 0.0
H313 H 0.40302 0.12676 0.34038 0.0
H314 H 0.41001 0.28793 0.31403 0.0
H315 H 0.52231 0.34113 0.39102 0.0
H316 H 0.42831 0.13946 0.96208 0.0
H317 H 0.5413 0.20491 0.00496 0.0
C318 C 0.06549 0.47925 0.57721 0.0
C319 C 0.05053 0.42131 0.87302 0.0
C320 C 0.94756 0.41492 0.83486 0.0
Mg321 Mg 0.0315 0.52771 0.48725 0.0
Mg322 Mg 0.02336 0.58078 0.61125 0.0
O323 O 0.0104 0.53403 0.58322 0.0
Mg324 Mg 0.02133 0.50583 0.67247 0.0
O325 O 0.03175 0.47543 0.75661 0.0
Mg326 Mg 1.0038 0.42833 0.69364 0.0
Mg327 Mg 0.0241 0.47583 0.86984 0.0
C328 C 0.98014 0.53792 0.76219 0.0
O329 O 0.06433 0.55441 0.75549 0.0
O330 O 1.00086 0.55265 0.40375 0.0
O331 O 0.0549 0.53382 0.88848 0.0
O332 O 0.08091 0.58127 0.51252 0.0
O333 O 0.99559 0.58701 0.49414 0.0
O334 O 0.0796 0.61521 0.60979 0.0
O335 O 0.97842 0.45509 0.60194 0.0
O336 O 0.98244 0.47321 0.46774 0.0
C337 C 0.96769 0.44946 0.52192 0.0
C338 C 0.98921 0.57317 0.41971 0.0
O339 O 0.98283 0.51068 0.74803 0.0
O340 O 0.03535 0.4108 0.79593 0.0
O341 O 0.99673 0.56755 0.72486 0.0
O342 O 0.95758 0.40673 0.77265 0.0
O343 O 0.04892 0.44511 0.91268 0.0
O344 O 0.9682 0.44332 0.87917 0.0
O345 O 0.05901 0.50428 0.5871 0.0
O346 O 0.04891 0.44964 0.61336 0.0
C347 C 0.09594 0.60929 0.55902 0.0
C348 C 0.07001 0.55927 0.83723 0.0
C349 C 0.48755 0.05675 0.44219 0.0
C350 C 0.60007 0.05626 0.37322 0.0
C351 C 0.53967 0.94439 0.44942 0.0
Mg352 Mg 0.43716 0.01092 0.58615 0.0
Mg353 Mg 0.47346 0.99111 0.76096 0.0
O354 O 0.4616 0.98487 0.64159 0.0
Mg355 Mg 0.50186 0.00343 0.57637 0.0
O356 O 0.54065 0.02324 0.50621 0.0
Mg357 Mg 0.51316 0.00346 0.39082 0.0
Mg358 Mg 0.57841 0.01487 0.54246 0.0
C359 C 0.51662 0.95385 0.72882 0.0
O360 O 0.54262 0.04146 0.68285 0.0
O361 O 0.39192 0.97254 0.66426 0.0
O362 O 0.59015 0.03615 0.67183 0.0
O363 O 0.4599 0.05313 0.69314 0.0
O364 O 0.42009 0.96189 0.78412 0.0
O365 O 0.49414 0.04502 0.79934 0.0
O366 O 0.46403 0.96702 0.46111 0.0
O367 O 0.41648 0.96996 0.47939 0.0
C368 C 0.43137 0.95796 0.43902 0.0
C369 C 0.39193 0.95755 0.73684 0.0
O370 O 0.51536 0.96113 0.64824 0.0
O371 O 0.5673 0.04248 0.33979 0.0
O372 O 0.50541 0.96589 0.78113 0.0
O373 O 0.52503 0.95892 0.40062 0.0
O374 O 0.60945 0.0483 0.44823 0.0
O375 O 0.56083 0.96004 0.51707 0.0
O376 O 0.48637 0.04443 0.51793 0.0
O377 O 0.49847 0.04649 0.38576 0.0
C378 C 0.48084 0.06336 0.76365 0.0
C379 C 0.57405 0.04753 0.71027 0.0
C380 C 0.54549 0.58478 0.73908 0.0
C381 C 0.43477 0.47902 0.8627 0.0
C382 C 0.47943 0.41685 0.80254 0.0
Mg383 Mg 0.5867 0.58483 0.58563 0.0
Mg384 Mg 0.54089 0.52939 0.42557 0.0
O385 O 0.55625 0.53452 0.54382 0.0
Mg386 Mg 0.52037 0.51532 0.62512 0.0
O387 O 0.48663 0.4988 0.71043 0.0
Mg388 Mg 0.51824 0.5063 0.82116 0.0
Mg389 Mg 0.44546 0.45447 0.69243 0.0
C390 C 0.49377 0.45054 0.48772 0.0
O391 O 0.47655 0.51591 0.52976 0.0
O392 O 0.62629 0.58776 0.49736 0.0
O393 O 0.42864 0.46556 0.56188 0.0
O394 O 0.5641 0.60934 0.47481 0.0
O395 O 0.59204 0.54787 0.39048 0.0
O396 O 0.52631 0.56821 0.37698 0.0
O397 O 0.56094 0.51349 0.7341 0.0
O398 O 0.60842 0.56078 0.69388 0.0
C399 C 0.59441 0.53479 0.74375 0.0
C400 C 0.62227 0.5712 0.42802 0.0
O401 O 0.50015 0.45982 0.56722 0.0
O402 O 0.46854 0.49613 0.88766 0.0
O403 O 0.50387 0.47288 0.42725 0.0
O404 O 0.50031 0.44746 0.83672 0.0
O405 O 0.42128 0.4619 0.7911 0.0
O406 O 0.45731 0.41253 0.73541 0.0
O407 O 0.54213 0.57182 0.66612 0.0
O408 O 0.5367 0.56532 0.80448 0.0
C409 C 0.54251 0.60017 0.40478 0.0
C410 C 0.44364 0.49282 0.51538 0.0
C411 C 0.12624 0.50213 0.40777 0.0
C412 C 0.14792 0.48774 0.44125 0.0
C413 C 0.10072 0.50113 0.45333 0.0
C414 C 0.09536 0.48494 0.53324 0.0
H415 H 0.12875 0.51392 0.34533 0.0
H416 H 0.08421 0.5118 0.42435 0.0
S417 S 0.14616 0.44505 0.65127 0.0
N418 N 0.16291 0.45821 0.56127 0.0
N419 N 0.11534 0.45616 0.64592 0.0
C420 C 0.11757 0.47149 0.56828 0.0
C421 C 0.1437 0.47293 0.52269 0.0
C422 C 0.68944 0.13475 0.34212 0.0
C423 C 0.68448 0.14396 0.25692 0.0
C424 C 0.66229 0.10585 0.37729 0.0
C425 C 0.62856 0.08509 0.32938 0.0
H426 H 0.71455 0.15026 0.38225 0.0
H427 H 0.66779 0.10037 0.44374 0.0
S428 S 0.60233 0.09898 0.1021 0.0
N429 N 0.64389 0.13061 0.12457 0.0
N430 N 0.59223 0.07638 0.19064 0.0
C431 C 0.62328 0.09425 0.24359 0.0
C432 C 0.6513 0.1237 0.20756 0.0
C433 C 0.53038 0.64774 0.20319 0.0
C434 C 0.54207 0.68217 0.23288 0.0
C435 C 0.52908 0.62117 0.2597 0.0
C436 C 0.54027 0.628 0.34845 0.0
H437 H 0.52216 0.64131 0.13545 0.0
H438 H 0.52023 0.5953 0.23289 0.0
S439 S 0.57315 0.71412 0.45855 0.0
N440 N 0.56406 0.72152 0.35683 0.0
N441 N 0.56362 0.67241 0.46265 0.0
C442 C 0.55219 0.66251 0.37881 0.0
C443 C 0.55268 0.68933 0.32127 0.0
C444 C 0.91718 0.59382 0.32915 0.0
C445 C 0.90253 0.57401 0.25252 0.0
C446 C 0.94702 0.59561 0.3791 0.0
C447 C 0.96299 0.57699 0.35531 0.0
H448 H 0.90461 0.60686 0.35232 0.0
H449 H 0.95638 0.61027 0.43927 0.0
S450 S 0.93616 0.52446 0.15371 0.0
N451 N 0.90738 0.53824 0.14985 0.0
N452 N 0.96321 0.54066 0.24442 0.0
C453 C 0.94956 0.55868 0.27573 0.0
C454 C 0.91929 0.55728 0.22441 0.0
C455 C 0.35104 0.87061 0.36722 0.0
C456 C 0.35124 0.86925 0.27904 0.0
C457 C 0.37829 0.89872 0.41859 0.0
C458 C 0.40719 0.92627 0.38427 0.0
H459 H 0.32922 0.85009 0.39635 0.0
H460 H 0.37634 0.89934 0.48575 0.0
S461 S 0.42179 0.93327 0.15846 0.0
N462 N 0.38367 0.89637 0.16008 0.0
N463 N 0.43543 0.9494 0.25763 0.0
C464 C 0.40871 0.92437 0.29704 0.0
C465 C 0.38059 0.89575 0.24418 0.0
C466 C 0.48179 0.35892 0.48318 0.0
C467 C 0.46486 0.34722 0.39908 0.0
C468 C 0.488 0.39113 0.51539 0.0
C469 C 0.47814 0.41291 0.46367 0.0
H470 H 0.4919 0.34397 0.5226 0.0
H471 H 0.50308 0.40026 0.57845 0.0
S472 S 0.42918 0.39208 0.24304 0.0
N473 N 0.43514 0.35809 0.26821 0.0
N474 N 0.44715 0.41867 0.32817 0.0
C475 C 0.45878 0.40013 0.38203 0.0
C476 C 0.45208 0.36724 0.34979 0.0
C477 C 0.54763 0.90544 0.89581 0.0
C478 C 0.54013 0.87488 0.85192 0.0
C479 C 0.54223 0.93187 0.85359 0.0
C480 C 0.52901 0.92897 0.76546 0.0
H481 H 0.55637 0.90825 0.96416 0.0
H482 H 0.54719 0.95423 0.89139 0.0
S483 S 0.5078 0.85507 0.62023 0.0
N484 N 0.52121 0.84413 0.71448 0.0
N485 N 0.51059 0.89358 0.63505 0.0
C486 C 0.52325 0.89937 0.71983 0.0
C487 C 0.52882 0.87238 0.76309 0.0
C488 C 0.66982 0.51686 0.79984 0.0
C489 C 0.67842 0.52299 0.88859 0.0
C490 C 0.64062 0.51807 0.75444 0.0
C491 C 0.61881 0.52505 0.79629 0.0
H492 H 0.68694 0.51315 0.76482 0.0
H493 H 0.6361 0.51533 0.68534 0.0
S494 S 0.62882 0.5403 0.0289 0.0
N495 N 0.66203 0.53432 0.01766 0.0
N496 N 0.60668 0.53617 0.93196 0.0
C497 C 0.62594 0.52916 0.88561 0.0
C498 C 0.65593 0.52822 0.93191 0.0
C499 C 0.14642 0.65451 0.85977 0.0
C500 C 0.1497 0.6631 0.94606 0.0
C501 C 0.12006 0.62127 0.82453 0.0
C502 C 0.09593 0.59534 0.87424 0.0
H503 H 0.16508 0.67322 0.82006 0.0
H504 H 0.11945 0.61552 0.75856 0.0
S505 S 0.09256 0.60603 0.10319 0.0
N506 N 0.12632 0.64374 0.07995 0.0
N507 N 0.07628 0.58187 0.01399 0.0
C508 C 0.0984 0.60427 0.96018 0.0
C509 C 0.12536 0.63796 0.99595 0.0
C510 C 0.50956 0.13181 0.93971 0.0
C511 C 0.48792 0.14671 0.91426 0.0
C512 C 0.50864 0.10622 0.88833 0.0
C513 C 0.48602 0.09464 0.80969 0.0
H514 H 0.52606 0.13874 0.00154 0.0
H515 H 0.52474 0.09446 0.91217 0.0
S516 S 0.42777 0.12957 0.70978 0.0
N517 N 0.44649 0.15145 0.80188 0.0
N518 N 0.44373 0.10278 0.70597 0.0
C519 C 0.46585 0.1111 0.78147 0.0
C520 C 0.46702 0.13723 0.83365 0.0
C521 C 0.38504 0.47004 0.04921 0.0
C522 C 0.35554 0.47234 0.00823 0.0
C523 C 0.41166 0.47376 0.00331 0.0
C524 C 0.40942 0.47938 0.91452 0.0
H525 H 0.38777 0.46579 0.11731 0.0
H526 H 0.43355 0.47127 0.03703 0.0
S527 S 0.33797 0.48822 0.77788 0.0
N528 N 0.32633 0.48137 0.87427 0.0
N529 N 0.3755 0.48791 0.78842 0.0
C530 C 0.38014 0.48198 0.87346 0.0
C531 C 0.35348 0.47859 0.92007 0.0
C532 C 0.87623 0.36305 0.97559 0.0
C533 C 0.85142 0.33317 0.92427 0.0
C534 C 0.90617 0.39039 0.94459 0.0
C535 C 0.91274 0.3888 0.86117 0.0
H536 H 0.87313 0.36471 0.04137 0.0
H537 H 0.92511 0.41209 0.98789 0.0
S538 S 0.85349 0.31773 0.69846 0.0
N539 N 0.83364 0.30483 0.78434 0.0
N540 N 0.88974 0.35586 0.72537 0.0
C541 C 0.88702 0.35978 0.80785 0.0
C542 C 0.85646 0.33208 0.83955 0.0
C543 C 0.8923 0.50384 0.84088 0.0
C544 C 0.89801 0.53289 0.88893 0.0
C545 C 0.91976 0.50454 0.80492 0.0
C546 C 0.95383 0.53441 0.81524 0.0
H547 H 0.86609 0.48109 0.82763 0.0
H548 H 0.91376 0.48241 0.7647 0.0
S549 S 0.98427 0.61408 0.94948 0.0
N550 N 0.94177 0.58986 0.95601 0.0
N551 N 0.99285 0.59156 0.88617 0.0
C552 C 0.96042 0.56249 0.86787 0.0
C553 C 0.93268 0.56163 0.90525 0.0
C554 C 0.3273 0.90474 0.886 0.0
C555 C 0.31022 0.87067 0.84845 0.0
C556 C 0.35154 0.93403 0.84495 0.0
C557 C 0.35873 0.93035 0.76412 0.0
H558 H 0.32378 0.90838 0.95011 0.0
H559 H 0.36641 0.95931 0.87894 0.0
S560 S 0.31831 0.84753 0.63504 0.0
N561 N 0.30022 0.83525 0.72363 0.0
N562 N 0.34524 0.89069 0.6453 0.0
C563 C 0.33994 0.89693 0.72321 0.0
C564 C 0.31582 0.86692 0.7658 0.0
C565 C 0.4859 0.3613 0.99029 0.0
C566 C 0.47652 0.32894 0.95242 0.0
C567 C 0.48707 0.38932 0.94058 0.0
C568 C 0.47839 0.38611 0.8507 0.0
H569 H 0.49245 0.36498 0.05915 0.0
H570 H 0.49433 0.41364 0.97344 0.0
S571 S 0.4527 0.30677 0.72026 0.0
N572 N 0.45926 0.29522 0.81979 0.0
N573 N 0.46031 0.34775 0.72597 0.0
C574 C 0.46868 0.35372 0.81187 0.0
C575 C 0.46808 0.32522 0.86278 0.0
C576 C 0.13744 0.42456 0.90851 0.0
C577 C 0.14329 0.42303 0.99796 0.0
C578 C 0.10478 0.41903 0.86585 0.0
C579 C 0.07738 0.41231 0.91165 0.0
H580 H 0.15891 0.43249 0.87217 0.0
H581 H 0.10213 0.42342 0.7979 0.0
S582 S 0.07662 0.39741 0.14369 0.0
N583 N 0.11654 0.40727 0.12869 0.0
N584 N 0.05601 0.39865 0.04834 0.0
C585 C 0.08168 0.40699 0.99959 0.0
C586 C 0.11452 0.41194 0.04289 0.0
C587 C 0.62885 0.1363 0.81963 0.0
C588 C 0.65035 0.13021 0.88576 0.0
C589 C 0.60155 0.10842 0.76756 0.0
C590 C 0.59527 0.07375 0.77928 0.0
H591 H 0.63437 0.16296 0.80474 0.0
H592 H 0.58703 0.11443 0.71393 0.0
S593 S 0.63878 0.04258 0.95322 0.0
N594 N 0.65913 0.08584 0.96907 0.0
N595 N 0.60903 0.0338 0.86729 0.0
C596 C 0.61465 0.06683 0.84853 0.0
C597 C 0.64192 0.09502 0.90283 0.0
C598 C 0.57841 0.6737 0.83743 0.0
C599 C 0.55844 0.68622 0.78441 0.0
C600 C 0.57601 0.64169 0.81895 0.0
C601 C 0.55414 0.62156 0.74611 0.0
H602 H 0.59385 0.68726 0.89726 0.0
H603 H 0.58988 0.6317 0.86425 0.0
S604 S 0.49926 0.64426 0.58239 0.0
N605 N 0.51836 0.67752 0.65262 0.0
N606 N 0.5142 0.6172 0.61701 0.0
C607 C 0.53619 0.63499 0.68888 0.0
C608 C 0.53822 0.66741 0.70839 0.0
C609 C 0.46413 0.11714 0.30198 0.0
C610 C 0.47394 0.14556 0.3573 0.0
C611 C 0.46661 0.08754 0.33173 0.0
C612 C 0.47892 0.08512 0.41811 0.0
H613 H 0.4556 0.11835 0.2345 0.0
H614 H 0.45992 0.06685 0.28589 0.0
S615 S 0.50654 0.1522 0.58935 0.0
N616 N 0.4945 0.16893 0.50309 0.0
N617 N 0.50012 0.11357 0.55907 0.0
C618 C 0.48737 0.11275 0.47496 0.0
C619 C 0.48468 0.14293 0.44448 0.0
C620 C 0.38642 0.53155 0.43106 0.0
C621 C 0.36233 0.50669 0.36713 0.0
C622 C 0.41551 0.52911 0.47279 0.0
C623 C 0.42053 0.50106 0.45383 0.0
H624 H 0.38113 0.55084 0.45484 0.0
H625 H 0.43218 0.54724 0.52575 0.0
S626 S 0.36665 0.43076 0.28874 0.0
N627 N 0.34758 0.4552 0.28221 0.0
N628 N 0.40097 0.44959 0.36461 0.0
C629 C 0.39805 0.47743 0.38715 0.0
C630 C 0.36926 0.48056 0.34273 0.0
C631 C 0.90426 0.35253 0.46996 0.0
C632 C 0.87957 0.35433 0.40523 0.0
C633 C 0.93188 0.38345 0.51285 0.0
C634 C 0.93555 0.41664 0.49056 0.0
H635 H 0.90363 0.32763 0.48315 0.0
H636 H 0.95171 0.38165 0.55907 0.0
S637 S 0.87411 0.43417 0.33633 0.0
N638 N 0.85759 0.39097 0.32995 0.0
N639 N 0.90979 0.44896 0.40876 0.0
C640 C 0.90935 0.41822 0.43116 0.0
C641 C 0.88118 0.38698 0.38893 0.0
C642 C 0.55458 0.86938 0.40535 0.0
C643 C 0.52793 0.85173 0.33559 0.0
C644 C 0.55692 0.89794 0.44769 0.0
C645 C 0.53243 0.90938 0.42198 0.0
H646 H 0.57512 0.86263 0.42353 0.0
H647 H 0.5793 0.91252 0.49656 0.0
S648 S 0.45405 0.86807 0.25385 0.0
N649 N 0.47442 0.84545 0.24951 0.0
N650 N 0.47728 0.89712 0.33288 0.0
C651 C 0.50336 0.88927 0.35927 0.0
C652 C 0.50144 0.86087 0.31508 0.0
C653 C 0.6794 0.5837 0.26095 0.0
C654 C 0.70449 0.57551 0.30517 0.0
C655 C 0.65389 0.58411 0.30257 0.0
C656 C 0.65324 0.57741 0.39037 0.0
H657 H 0.67844 0.58812 0.1928 0.0
H658 H 0.63383 0.58863 0.26524 0.0
S659 S 0.7146 0.55702 0.53623 0.0
N660 N 0.72806 0.56195 0.44217 0.0
N661 N 0.68069 0.5639 0.52104 0.0
C662 C 0.67925 0.57099 0.4363 0.0
C663 C 0.70473 0.5697 0.39348 0.0
C664 C 0.16703 0.69374 0.48251 0.0
C665 C 0.18704 0.68152 0.45014 0.0
C666 C 0.13969 0.67137 0.52907 0.0
C667 C 0.13173 0.63625 0.54387 0.0
H668 H 0.1702 0.71939 0.46463 0.0
H669 H 0.12249 0.68038 0.54528 0.0
S670 S 0.18173 0.59472 0.48884 0.0
N671 N 0.20104 0.63456 0.44816 0.0
N672 N 0.15008 0.59262 0.53624 0.0
C673 C 0.15448 0.62545 0.52093 0.0
C674 C 0.18204 0.64807 0.47354 0.0
loop_
_geom_bond_atom_site_label_1
_geom_bond_atom_site_label_2
_geom_bond_distance
_geom_bond_site_symmetry_2
_ccdc_geom_bond_type
C0 C1 1.443 . S
C0 N4 1.376 . S
C0 C38 1.389 . S
C1 C0 1.443 . S
C1 C2 1.340 . S
C1 H41 0.951 . S
C2 C1 1.340 . S
C2 C3 1.439 . S
C2 H42 0.950 . S
C3 C2 1.439 . S
C3 N4 1.374 . S
C3 C37 1.395 . S
N4 C0 1.376 . S
N4 C3 1.374 . S
N4 Co5 2.008 . S
Co5 N4 2.008 . S
Co5 N6 1.995 . S
Co5 N11 2.008 . S
Co5 N16 1.995 . S
Co5 N21 2.282 . S
Co5 N27 2.282 . S
N6 Co5 1.995 . S
N6 C7 1.376 . S
N6 C10 1.383 . S
C7 N6 1.376 . S
C7 C8 1.446 . S
C7 C37 1.391 . S
C8 C7 1.446 . S
C8 C9 1.339 . S
C8 H43 0.949 . S
C9 C8 1.339 . S
C9 C10 1.439 . S
C9 H44 0.950 . S
C10 N6 1.383 . S
C10 C9 1.439 . S
C10 C39 1.392 . S
N11 Co5 2.008 . S
N11 C12 1.376 . S
N11 C15 1.374 . S
C12 N11 1.376 . S
C12 C13 1.443 . S
C12 C39 1.389 . S
C13 C12 1.443 . S
C13 C14 1.340 . S
C13 H45 0.951 . S
C14 C13 1.340 . S
C14 C15 1.439 . S
C14 H46 0.950 . S
C15 N11 1.374 . S
C15 C14 1.439 . S
C15 C40 1.395 . S
N16 Co5 1.995 . S
N16 C17 1.376 . S
N16 C20 1.383 . S
C17 N16 1.376 . S
C17 C18 1.446 . S
C17 C40 1.391 . S
C18 C17 1.446 . S
C18 C19 1.339 . S
C18 H47 0.949 . S
C19 C18 1.339 . S
C19 C20 1.439 . S
C19 H48 0.950 . S
C20 N16 1.383 . S
C20 C19 1.439 . S
C20 C38 1.392 . S
N21 Co5 2.282 . S
N21 C24 1.332 . S
N21 C26 1.332 . S
C22 C23 1.386 . S
C22 C25 1.388 . S
C23 C22 1.386 . S
C23 C24 1.382 . S
C23 H49 0.950 . S
C24 N21 1.332 . S
C24 C23 1.382 . S
C24 H35 0.952 . S
C25 C22 1.388 . S
C25 C26 1.382 . S
C25 H50 0.950 . S
C26 N21 1.332 . S
C26 C25 1.382 . S
C26 H36 0.948 . S
N27 Co5 2.282 . S
N27 C31 1.332 . S
N27 C32 1.332 . S
C28 C29 1.388 . S
C28 C32 1.382 . S
C28 H51 0.950 . S
C29 C28 1.388 . S
C29 C30 1.386 . S
C30 C29 1.386 . S
C30 C31 1.382 . S
C30 H52 0.950 . S
C31 N27 1.332 . S
C31 C30 1.382 . S
C31 H33 0.952 . S
C32 N27 1.332 . S
C32 C28 1.382 . S
C32 H34 0.948 . S
H33 C31 0.952 . S
H34 C32 0.948 . S
H35 C24 0.952 . S
H36 C26 0.948 . S
C37 C3 1.395 . S
C37 C7 1.391 . S
C38 C0 1.389 . S
C38 C20 1.392 . S
C39 C10 1.392 . S
C39 C12 1.389 . S
C40 C15 1.395 . S
C40 C17 1.391 . S
H41 C1 0.951 . S
H42 C2 0.950 . S
H43 C8 0.949 . S
H44 C9 0.950 . S
H45 C13 0.951 . S
H46 C14 0.950 . S
H47 C18 0.949 . S
H48 C19 0.950 . S
H49 C23 0.950 . S
H50 C25 0.950 . S
H51 C28 0.950 . S
H52 C30 0.950 . S
C53 C54 1.443 . S
C53 N57 1.376 . S
C53 C91 1.389 . S
C54 C53 1.443 . S
C54 C55 1.340 . S
C54 H94 0.951 . S
C55 C54 1.340 . S
C55 C56 1.439 . S
C55 H95 0.950 . S
C56 C55 1.439 . S
C56 N57 1.374 . S
C56 C90 1.395 . S
N57 C53 1.376 . S
N57 C56 1.374 . S
N57 Co58 2.008 . S
Co58 N57 2.008 . S
Co58 N59 1.995 . S
Co58 N64 2.008 . S
Co58 N69 1.995 . S
Co58 N74 2.282 . S
Co58 N80 2.282 . S
N59 Co58 1.995 . S
N59 C60 1.376 . S
N59 C63 1.383 . S
C60 N59 1.376 . S
C60 C61 1.446 . S
C60 C90 1.391 . S
C61 C60 1.446 . S
C61 C62 1.339 . S
C61 H96 0.949 . S
C62 C61 1.339 . S
C62 C63 1.439 . S
C62 H97 0.950 . S
C63 N59 1.383 . S
C63 C62 1.439 . S
C63 C92 1.392 . S
N64 Co58 2.008 . S
N64 C65 1.376 . S
N64 C68 1.374 . S
C65 N64 1.376 . S
C65 C66 1.443 . S
C65 C92 1.389 . S
C66 C65 1.443 . S
C66 C67 1.340 . S
C66 H98 0.951 . S
C67 C66 1.340 . S
C67 C68 1.439 . S
C67 H99 0.950 . S
C68 N64 1.374 . S
C68 C67 1.439 . S
C68 C93 1.395 . S
N69 Co58 1.995 . S
N69 C70 1.376 . S
N69 C73 1.383 . S
C70 N69 1.376 . S
C70 C71 1.446 . S
C70 C93 1.391 . S
C71 C70 1.446 . S
C71 C72 1.339 1_554 S
C71 H100 0.949 1_554 S
C72 C71 1.339 1_556 S
C72 C73 1.439 1_556 S
C72 H101 0.950 . S
C73 N69 1.383 . S
C73 C72 1.439 1_554 S
C73 C91 1.392 . S
N74 Co58 2.282 . S
N74 C77 1.332 1_554 S
N74 C79 1.332 . S
C75 C76 1.386 . S
C75 C78 1.388 . S
C76 C75 1.386 . S
C76 C77 1.382 . S
C76 H102 0.950 . S
C77 N74 1.332 1_556 S
C77 C76 1.382 . S
C77 H88 0.952 . S
C78 C75 1.388 . S
C78 C79 1.382 1_556 S
C78 H103 0.950 . S
C79 N74 1.332 . S
C79 C78 1.382 1_554 S
C79 H89 0.948 . S
N80 Co58 2.282 . S
N80 C84 1.332 . S
N80 C85 1.332 . S
C81 C82 1.388 . S
C81 C85 1.382 . S
C81 H104 0.950 . S
C82 C81 1.388 . S
C82 C83 1.386 . S
C83 C82 1.386 . S
C83 C84 1.382 . S
C83 H105 0.950 . S
C84 N80 1.332 . S
C84 C83 1.382 . S
C84 H86 0.952 . S
C85 N80 1.332 . S
C85 C81 1.382 . S
C85 H87 0.948 . S
H86 C84 0.952 . S
H87 C85 0.948 . S
H88 C77 0.952 . S
H89 C79 0.948 . S
C90 C56 1.395 . S
C90 C60 1.391 . S
C91 C53 1.389 . S
C91 C73 1.392 . S
C92 C63 1.392 . S
C92 C65 1.389 . S
C93 C68 1.395 . S
C93 C70 1.391 . S
H94 C54 0.951 . S
H95 C55 0.950 . S
H96 C61 0.949 . S
H97 C62 0.950 . S
H98 C66 0.951 . S
H99 C67 0.950 . S
H100 C71 0.949 1_556 S
H101 C72 0.950 . S
H102 C76 0.950 . S
H103 C78 0.950 . S
H104 C81 0.950 . S
H105 C83 0.950 . S
C106 C107 1.443 . S
C106 N110 1.376 . S
C106 C144 1.389 . S
C107 C106 1.443 . S
C107 C108 1.340 . S
C107 H147 0.951 . S
C108 C107 1.340 . S
C108 C109 1.439 . S
C108 H148 0.950 . S
C109 C108 1.439 . S
C109 N110 1.374 . S
C109 C143 1.395 . S
N110 C106 1.376 . S
N110 C109 1.374 . S
N110 Co111 2.008 . S
Co111 N110 2.008 . S
Co111 N112 1.995 1_554 S
Co111 N117 2.008 1_554 S
Co111 N122 1.995 . S
Co111 N127 2.282 . S
Co111 N133 2.282 1_554 S
N112 Co111 1.995 1_556 S
N112 C113 1.376 1_556 S
N112 C116 1.383 . S
C113 N112 1.376 1_554 S
C113 C114 1.443 1_554 S
C113 C143 1.394 . S
C114 C113 1.443 1_556 S
C114 C115 1.339 . S
C114 H149 0.949 . S
C115 C114 1.339 . S
C115 C116 1.439 . S
C115 H150 0.950 . S
C116 N112 1.383 . S
C116 C115 1.439 . S
C116 C145 1.392 . S
N117 Co111 2.008 1_556 S
N117 C118 1.376 . S
N117 C121 1.374 . S
C118 N117 1.376 . S
C118 C119 1.443 . S
C118 C145 1.389 . S
C119 C118 1.443 . S
C119 C120 1.340 . S
C119 H151 0.951 . S
C120 C119 1.340 . S
C120 C121 1.439 . S
C120 H152 0.950 . S
C121 N117 1.374 . S
C121 C120 1.439 . S
C121 C146 1.395 1_556 S
N122 Co111 1.995 . S
N122 C123 1.376 . S
N122 C126 1.383 . S
C123 N122 1.376 . S
C123 C124 1.446 . S
C123 C146 1.391 . S
C124 C123 1.446 . S
C124 C125 1.339 . S
C124 H153 0.949 . S
C125 C124 1.339 . S
C125 C126 1.439 . S
C125 H154 0.950 . S
C126 N122 1.383 . S
C126 C125 1.439 . S
C126 C144 1.392 . S
N127 Co111 2.282 . S
N127 C130 1.332 . S
N127 C132 1.332 . S
C128 C129 1.386 . S
C128 C131 1.388 . S
C129 C128 1.386 . S
C129 C130 1.382 . S
C129 H155 0.950 . S
C130 N127 1.332 . S
C130 C129 1.382 . S
C130 H141 0.952 . S
C131 C128 1.388 . S
C131 C132 1.382 . S
C131 H156 0.950 . S
C132 N127 1.332 . S
C132 C131 1.382 . S
C132 H142 0.948 . S
N133 Co111 2.282 1_556 S
N133 C137 1.332 . S
N133 C138 1.332 . S
C134 C135 1.388 . S
C134 C138 1.382 . S
C134 H157 0.950 . S
C135 C134 1.388 . S
C135 C136 1.386 . S
C136 C135 1.386 . S
C136 C137 1.382 . S
C136 H158 0.950 . S
C137 N133 1.332 . S
C137 C136 1.382 . S
C137 H139 0.952 . S
C138 N133 1.332 . S
C138 C134 1.382 . S
C138 H140 0.948 . S
H139 C137 0.952 . S
H140 C138 0.948 . S
H141 C130 0.952 . S
H142 C132 0.948 . S
C143 C109 1.395 . S
C143 C113 1.394 . S
C144 C106 1.389 . S
C144 C126 1.392 . S
C145 C116 1.392 . S
C145 C118 1.389 . S
C146 C121 1.395 1_554 S
C146 C123 1.391 . S
H147 C107 0.951 . S
H148 C108 0.950 . S
H149 C114 0.949 . S
H150 C115 0.950 . S
H151 C119 0.951 . S
H152 C120 0.950 . S
H153 C124 0.949 . S
H154 C125 0.950 . S
H155 C129 0.950 . S
H156 C131 0.950 . S
H157 C134 0.950 . S
H158 C136 0.950 . S
C159 C160 1.443 . S
C159 N163 1.376 . S
C159 C197 1.389 . S
C160 C159 1.443 . S
C160 C161 1.340 . S
C160 H200 0.951 . S
C161 C160 1.340 . S
C161 C162 1.439 . S
C161 H201 0.950 . S
C162 C161 1.439 . S
C162 N163 1.374 . S
C162 C196 1.395 . S
N163 C159 1.376 . S
N163 C162 1.374 . S
N163 Co164 2.008 . S
Co164 N163 2.008 . S
Co164 N165 1.995 1_554 S
Co164 N170 2.008 1_554 S
Co164 N175 1.995 . S
Co164 N180 2.282 . S
Co164 N186 2.282 1_554 S
N165 Co164 1.995 1_556 S
N165 C166 1.376 . S
N165 C169 1.383 . S
C166 N165 1.376 . S
C166 C167 1.446 . S
C166 C196 1.391 1_556 S
C167 C166 1.446 . S
C167 C168 1.339 . S
C167 H202 0.949 . S
C168 C167 1.339 . S
C168 C169 1.439 . S
C168 H203 0.950 . S
C169 N165 1.383 . S
C169 C168 1.439 . S
C169 C198 1.392 . S
N170 Co164 2.008 1_556 S
N170 C171 1.376 . S
N170 C174 1.374 . S
C171 N170 1.376 . S
C171 C172 1.443 . S
C171 C198 1.389 . S
C172 C171 1.443 . S
C172 C173 1.340 . S
C172 H204 0.951 . S
C173 C172 1.340 . S
C173 C174 1.439 . S
C173 H205 0.950 . S
C174 N170 1.374 . S
C174 C173 1.439 . S
C174 C199 1.395 1_556 S
N175 Co164 1.995 . S
N175 C176 1.376 . S
N175 C179 1.383 . S
C176 N175 1.376 . S
C176 C177 1.446 . S
C176 C199 1.391 . S
C177 C176 1.446 . S
C177 C178 1.339 . S
C177 H206 0.949 . S
C178 C177 1.339 . S
C178 C179 1.439 . S
C178 H207 0.950 . S
C179 N175 1.383 . S
C179 C178 1.439 . S
C179 C197 1.392 . S
N180 Co164 2.282 . S
N180 C183 1.332 . S
N180 C185 1.332 . S
C181 C182 1.386 . S
C181 C184 1.388 . S
C182 C181 1.386 . S
C182 C183 1.382 . S
C182 H208 0.950 . S
C183 N180 1.332 . S
C183 C182 1.382 . S
C183 H194 0.952 . S
C184 C181 1.388 . S
C184 C185 1.382 . S
C184 H209 0.950 . S
C185 N180 1.332 . S
C185 C184 1.382 . S
C185 H195 0.948 . S
N186 Co164 2.282 1_556 S
N186 C190 1.332 . S
N186 C191 1.332 . S
C187 C188 1.388 . S
C187 C191 1.382 . S
C187 H210 0.950 . S
C188 C187 1.388 . S
C188 C189 1.386 . S
C189 C188 1.386 . S
C189 C190 1.382 . S
C189 H211 0.950 . S
C190 N186 1.332 . S
C190 C189 1.382 . S
C190 H192 0.952 . S
C191 N186 1.332 . S
C191 C187 1.382 . S
C191 H193 0.948 . S
H192 C190 0.952 . S
H193 C191 0.948 . S
H194 C183 0.952 . S
H195 C185 0.948 . S
C196 C162 1.395 . S
C196 C166 1.391 1_554 S
C197 C159 1.389 . S
C197 C179 1.392 . S
C198 C169 1.392 . S
C198 C171 1.389 . S
C199 C174 1.395 1_554 S
C199 C176 1.391 . S
H200 C160 0.951 . S
H201 C161 0.950 . S
H202 C167 0.949 . S
H203 C168 0.950 . S
H204 C172 0.951 . S
H205 C173 0.950 . S
H206 C177 0.949 . S
H207 C178 0.950 . S
H208 C182 0.950 . S
H209 C184 0.950 . S
H210 C187 0.950 . S
H211 C189 0.950 . S
C212 C213 1.443 . S
C212 N216 1.376 . S
C212 C250 1.389 . S
C213 C212 1.443 . S
C213 C214 1.340 . S
C213 H253 0.951 . S
C214 C213 1.340 . S
C214 C215 1.439 . S
C214 H254 0.950 . S
C215 C214 1.439 . S
C215 N216 1.374 . S
C215 C249 1.395 . S
N216 C212 1.376 . S
N216 C215 1.374 . S
N216 Co217 2.008 . S
Co217 N216 2.008 . S
Co217 N218 1.995 . S
Co217 N223 2.008 . S
Co217 N228 1.995 . S
Co217 N233 2.282 . S
Co217 N239 2.282 . S
N218 Co217 1.995 . S
N218 C219 1.376 . S
N218 C222 1.383 1_554 S
C219 N218 1.376 . S
C219 C220 1.446 1_554 S
C219 C249 1.391 . S
C220 C219 1.446 1_556 S
C220 C221 1.339 . S
C220 H255 0.949 . S
C221 C220 1.339 . S
C221 C222 1.439 . S
C221 H256 0.950 . S
C222 N218 1.383 1_556 S
C222 C221 1.439 . S
C222 C251 1.392 . S
N223 Co217 2.008 . S
N223 C224 1.376 . S
N223 C227 1.374 . S
C224 N223 1.376 . S
C224 C225 1.443 . S
C224 C251 1.389 1_554 S
C225 C224 1.443 . S
C225 C226 1.340 . S
C225 H257 0.951 1_554 S
C226 C225 1.340 . S
C226 C227 1.439 . S
C226 H258 0.950 . S
C227 N223 1.374 . S
C227 C226 1.439 . S
C227 C252 1.395 . S
N228 Co217 1.995 . S
N228 C229 1.376 . S
N228 C232 1.383 . S
C229 N228 1.376 . S
C229 C230 1.446 . S
C229 C252 1.391 . S
C230 C229 1.446 . S
C230 C231 1.339 . S
C230 H259 0.949 . S
C231 C230 1.339 . S
C231 C232 1.439 . S
C231 H260 0.950 . S
C232 N228 1.383 . S
C232 C231 1.439 . S
C232 C250 1.392 . S
N233 Co217 2.282 . S
N233 C236 1.332 . S
N233 C238 1.332 . S
C234 C235 1.386 . S
C234 C237 1.388 . S
C235 C234 1.386 . S
C235 C236 1.382 . S
C235 H261 0.950 . S
C236 N233 1.332 . S
C236 C235 1.382 . S
C236 H247 0.952 . S
C237 C234 1.388 . S
C237 C238 1.382 . S
C237 H262 0.950 . S
C238 N233 1.332 . S
C238 C237 1.382 . S
C238 H248 0.948 . S
N239 Co217 2.282 . S
N239 C243 1.332 1_554 S
N239 C244 1.332 . S
C240 C241 1.388 . S
C240 C244 1.382 1_556 S
C240 H263 0.950 . S
C241 C240 1.388 . S
C241 C242 1.386 . S
C242 C241 1.386 . S
C242 C243 1.382 . S
C242 H264 0.950 . S
C243 N239 1.332 1_556 S
C243 C242 1.382 . S
C243 H245 0.952 . S
C244 N239 1.332 . S
C244 C240 1.382 1_554 S
C244 H246 0.948 . S
H245 C243 0.952 . S
H246 C244 0.948 . S
H247 C236 0.952 . S
H248 C238 0.948 . S
C249 C215 1.395 . S
C249 C219 1.391 . S
C250 C212 1.389 . S
C250 C232 1.392 . S
C251 C222 1.392 . S
C251 C224 1.389 1_556 S
C252 C227 1.395 . S
C252 C229 1.391 . S
H253 C213 0.951 . S
H254 C214 0.950 . S
H255 C220 0.949 . S
H256 C221 0.950 . S
H257 C225 0.951 1_556 S
H258 C226 0.950 . S
H259 C230 0.949 . S
H260 C231 0.950 . S
H261 C235 0.950 . S
H262 C237 0.950 . S
H263 C240 0.950 . S
H264 C242 0.950 . S
C265 C266 1.443 . S
C265 N269 1.376 . S
C265 C303 1.389 . S
C266 C265 1.443 . S
C266 C267 1.340 . S
C266 H306 0.951 . S
C267 C266 1.340 . S
C267 C268 1.439 . S
C267 H307 0.950 . S
C268 C267 1.439 . S
C268 N269 1.374 . S
C268 C302 1.395 . S
N269 C265 1.376 . S
N269 C268 1.374 . S
N269 Co270 2.008 . S
Co270 N269 2.008 . S
Co270 N271 1.995 . S
Co270 N276 2.008 . S
Co270 N281 1.995 . S
Co270 N286 2.282 . S
Co270 N292 2.282 . S
N271 Co270 1.995 . S
N271 C272 1.376 . S
N271 C275 1.383 . S
C272 N271 1.376 . S
C272 C273 1.446 . S
C272 C302 1.391 . S
C273 C272 1.446 . S
C273 C274 1.339 . S
C273 H308 0.949 . S
C274 C273 1.339 . S
C274 C275 1.439 . S
C274 H309 0.950 . S
C275 N271 1.383 . S
C275 C274 1.439 . S
C275 C304 1.392 . S
N276 Co270 2.008 . S
N276 C277 1.376 . S
N276 C280 1.374 . S
C277 N276 1.376 . S
C277 C278 1.443 . S
C277 C304 1.389 . S
C278 C277 1.443 . S
C278 C279 1.340 . S
C278 H310 0.955 . S
C279 C278 1.340 . S
C279 C280 1.439 . S
C279 H311 0.950 . S
C280 N276 1.374 . S
C280 C279 1.439 . S
C280 C305 1.395 . S
N281 Co270 1.995 . S
N281 C282 1.376 . S
N281 C285 1.383 . S
C282 N281 1.376 . S
C282 C283 1.446 . S
C282 C305 1.391 . S
C283 C282 1.446 . S
C283 C284 1.339 . S
C283 H312 0.949 . S
C284 C283 1.339 . S
C284 C285 1.439 . S
C284 H313 0.950 . S
C285 N281 1.383 . S
C285 C284 1.439 . S
C285 C303 1.392 . S
N286 Co270 2.282 . S
N286 C289 1.332 . S
N286 C291 1.332 . S
C287 C288 1.386 . S
C287 C290 1.388 . S
C288 C287 1.386 . S
C288 C289 1.382 . S
C288 H314 0.950 . S
C289 N286 1.332 . S
C289 C288 1.382 . S
C289 H300 0.952 . S
C290 C287 1.388 . S
C290 C291 1.382 . S
C290 H315 0.950 . S
C291 N286 1.332 . S
C291 C290 1.382 . S
C291 H301 0.948 . S
N292 Co270 2.282 . S
N292 C296 1.332 . S
N292 C297 1.332 . S
C293 C294 1.388 1_554 S
C293 C297 1.382 . S
C293 H316 0.950 1_554 S
C294 C293 1.388 1_556 S
C294 C295 1.386 1_556 S
C295 C294 1.386 1_554 S
C295 C296 1.382 . S
C295 H317 0.950 1_554 S
C296 N292 1.332 . S
C296 C295 1.382 . S
C296 H298 0.952 . S
C297 N292 1.332 . S
C297 C293 1.382 . S
C297 H299 0.948 . S
H298 C296 0.952 . S
H299 C297 0.948 . S
H300 C289 0.952 . S
H301 C291 0.948 . S
C302 C268 1.395 . S
C302 C272 1.391 . S
C303 C265 1.389 . S
C303 C285 1.392 . S
C304 C275 1.392 . S
C304 C277 1.389 . S
C305 C280 1.395 . S
C305 C282 1.391 . S
H306 C266 0.951 . S
H307 C267 0.950 . S
H308 C273 0.949 . S
H309 C274 0.950 . S
H310 C278 0.955 . S
H311 C279 0.950 . S
H312 C283 0.949 . S
H313 C284 0.950 . S
H314 C288 0.950 . S
H315 C290 0.950 . S
H316 C293 0.950 1_556 S
H317 C295 0.950 1_556 S
C318 O345 1.312 . S
C318 O346 1.208 . S
C319 O340 1.331 . S
C319 O343 1.244 . S
C320 O342 1.264 . S
C320 O344 1.273 . S
Mg321 O323 1.936 1_455 S
Mg321 O330 2.081 1_455 S
Mg321 O332 2.023 . S
Mg321 O336 2.031 1_455 S
Mg321 O345 2.291 . S
Mg322 O323 1.963 . S
Mg322 O333 1.942 . S
Mg322 O334 1.955 1_655 S
Mg322 O341 1.986 . S
O323 Mg321 1.936 1_655 S
O323 Mg322 1.963 . S
O323 Mg324 1.915 1_655 S
Mg324 O323 1.915 1_455 S
Mg324 O325 1.915 . S
Mg324 O329 2.013 . S
Mg324 O335 2.114 1_455 S
Mg324 O339 2.013 1_455 S
Mg324 O345 2.114 . S
O325 Mg324 1.915 . S
O325 Mg326 1.936 . S
O325 Mg327 1.963 . S
Mg326 O325 1.936 . S
Mg326 O335 2.291 1_455 S
Mg326 O340 2.081 . S
Mg326 O342 2.023 1_455 S
Mg326 O346 2.031 . S
Mg327 O325 1.963 . S
Mg327 O331 1.986 . S
Mg327 O343 1.942 . S
Mg327 O344 1.955 1_455 S
C328 O339 1.191 . S
C328 O341 1.307 . S
O329 Mg324 2.013 . S
O329 C348 1.191 . S
O330 Mg321 2.081 1_655 S
O330 C338 1.331 . S
O331 Mg327 1.986 . S
O331 C348 1.307 . S
O332 Mg321 2.023 . S
O332 C347 1.264 . S
O333 Mg322 1.942 . S
O333 C338 1.244 . S
O334 Mg322 1.955 1_455 S
O334 C347 1.273 . S
O335 Mg324 2.114 1_655 S
O335 Mg326 2.291 1_655 S
O335 C337 1.312 . S
O336 Mg321 2.031 1_655 S
O336 C337 1.208 . S
C337 O335 1.312 . S
C337 O336 1.208 . S
C338 O330 1.331 . S
C338 O333 1.244 . S
O339 Mg324 2.013 1_655 S
O339 C328 1.191 . S
O340 C319 1.331 . S
O340 Mg326 2.081 . S
O341 Mg322 1.986 . S
O341 C328 1.307 . S
O342 C320 1.264 . S
O342 Mg326 2.023 1_655 S
O343 C319 1.244 . S
O343 Mg327 1.942 . S
O344 C320 1.273 . S
O344 Mg327 1.955 1_655 S
O345 C318 1.312 . S
O345 Mg321 2.291 . S
O345 Mg324 2.114 . S
O346 C318 1.208 . S
O346 Mg326 2.031 . S
C347 O332 1.264 . S
C347 O334 1.273 . S
C348 O329 1.191 . S
C348 O331 1.307 . S
C349 O376 1.312 . S
C349 O377 1.208 . S
C350 O371 1.331 . S
C350 O374 1.244 . S
C351 O373 1.264 . S
C351 O375 1.273 . S
Mg352 O354 1.936 1_545 S
Mg352 O361 2.081 1_545 S
Mg352 O363 2.023 . S
Mg352 O367 2.031 1_545 S
Mg352 O376 2.291 . S
Mg353 O354 1.963 . S
Mg353 O364 1.942 . S
Mg353 O365 1.955 1_565 S
Mg353 O372 1.986 . S
O354 Mg352 1.936 1_565 S
O354 Mg353 1.963 . S
O354 Mg355 1.915 1_565 S
Mg355 O354 1.915 1_545 S
Mg355 O356 1.915 . S
Mg355 O360 2.013 . S
Mg355 O366 2.114 1_545 S
Mg355 O370 2.013 1_545 S
Mg355 O376 2.114 . S
O356 Mg355 1.915 . S
O356 Mg357 1.936 . S
O356 Mg358 1.963 . S
Mg357 O356 1.936 . S
Mg357 O366 2.291 1_545 S
Mg357 O371 2.081 . S
Mg357 O373 2.023 1_545 S
Mg357 O377 2.031 . S
Mg358 O356 1.963 . S
Mg358 O362 1.986 . S
Mg358 O374 1.942 . S
Mg358 O375 1.955 1_545 S
C359 O370 1.191 . S
C359 O372 1.307 . S
O360 Mg355 2.013 . S
O360 C379 1.191 . S
O361 Mg352 2.081 1_565 S
O361 C369 1.331 . S
O362 Mg358 1.986 . S
O362 C379 1.307 . S
O363 Mg352 2.023 . S
O363 C378 1.264 . S
O364 Mg353 1.942 . S
O364 C369 1.244 . S
O365 Mg353 1.955 1_545 S
O365 C378 1.273 . S
O366 Mg355 2.114 1_565 S
O366 Mg357 2.291 1_565 S
O366 C368 1.312 . S
O367 Mg352 2.031 1_565 S
O367 C368 1.208 . S
C368 O366 1.312 . S
C368 O367 1.208 . S
C369 O361 1.331 . S
C369 O364 1.244 . S
O370 Mg355 2.013 1_565 S
O370 C359 1.191 . S
O371 C350 1.331 . S
O371 Mg357 2.081 . S
O372 Mg353 1.986 . S
O372 C359 1.307 . S
O373 C351 1.264 . S
O373 Mg357 2.023 1_565 S
O374 C350 1.244 . S
O374 Mg358 1.942 . S
O375 C351 1.273 . S
O375 Mg358 1.955 1_565 S
O376 C349 1.312 . S
O376 Mg352 2.291 . S
O376 Mg355 2.114 . S
O377 C349 1.208 . S
O377 Mg357 2.031 . S
C378 O363 1.264 . S
C378 O365 1.273 . S
C379 O360 1.191 . S
C379 O362 1.307 . S
C380 O407 1.312 . S
C380 O408 1.208 . S
C381 O402 1.331 . S
C381 O405 1.244 . S
C382 O404 1.264 . S
C382 O406 1.273 . S
Mg383 O385 1.936 . S
Mg383 O392 2.081 . S
Mg383 O394 2.023 . S
Mg383 O398 2.031 . S
Mg383 O407 2.291 . S
Mg384 O385 1.963 . S
Mg384 O395 1.942 . S
Mg384 O396 1.955 . S
Mg384 O403 1.986 . S
O385 Mg383 1.936 . S
O385 Mg384 1.963 . S
O385 Mg386 1.915 . S
Mg386 O385 1.915 . S
Mg386 O387 1.915 . S
Mg386 O391 2.013 . S
Mg386 O397 2.114 . S
Mg386 O401 2.013 . S
Mg386 O407 2.114 . S
O387 Mg386 1.915 . S
O387 Mg388 1.936 . S
O387 Mg389 1.963 . S
Mg388 O387 1.936 . S
Mg388 O397 2.291 . S
Mg388 O402 2.081 . S
Mg388 O404 2.023 . S
Mg388 O408 2.031 . S
Mg389 O387 1.963 . S
Mg389 O393 1.986 . S
Mg389 O405 1.942 . S
Mg389 O406 1.955 . S
C390 O401 1.191 . S
C390 O403 1.307 . S
O391 Mg386 2.013 . S
O391 C410 1.191 . S
O392 Mg383 2.081 . S
O392 C400 1.331 . S
O393 Mg389 1.986 . S
O393 C410 1.307 . S
O394 Mg383 2.023 . S
O394 C409 1.264 . S
O395 Mg384 1.942 . S
O395 C400 1.244 . S
O396 Mg384 1.955 . S
O396 C409 1.273 . S
O397 Mg386 2.114 . S
O397 Mg388 2.291 . S
O397 C399 1.312 . S
O398 Mg383 2.031 . S
O398 C399 1.208 . S
C399 O397 1.312 . S
C399 O398 1.208 . S
C400 O392 1.331 . S
C400 O395 1.244 . S
O401 Mg386 2.013 . S
O401 C390 1.191 . S
O402 C381 1.331 . S
O402 Mg388 2.081 . S
O403 Mg384 1.986 . S
O403 C390 1.307 . S
O404 C382 1.264 . S
O404 Mg388 2.023 . S
O405 C381 1.244 . S
O405 Mg389 1.942 . S
O406 C382 1.273 . S
O406 Mg389 1.955 . S
O407 C380 1.312 . S
O407 Mg383 2.291 . S
O407 Mg386 2.114 . S
O408 C380 1.208 . S
O408 Mg388 2.031 . S
C409 O394 1.264 . S
C409 O396 1.273 . S
C410 O391 1.191 . S
C410 O393 1.307 . S
C411 C412 1.369 . S
C411 C413 1.419 . S
C411 H415 0.930 . S
C412 C411 1.369 . S
C412 C421 1.429 . S
C413 C411 1.419 . S
C413 C414 1.363 . S
C413 H416 0.929 . S
C414 C413 1.363 . S
C414 C420 1.428 . S
H415 C411 0.930 . S
H416 C413 0.929 . S
S417 N418 1.613 . S
S417 N419 1.610 . S
N418 S417 1.613 . S
N418 C421 1.350 . S
N419 S417 1.610 . S
N419 C420 1.351 . S
C420 C414 1.428 . S
C420 N419 1.351 . S
C420 C421 1.434 . S
C421 C412 1.429 . S
C421 N418 1.350 . S
C421 C420 1.434 . S
C422 C423 1.369 . S
C422 C424 1.419 . S
C422 H426 0.930 . S
C423 C422 1.369 . S
C423 C432 1.429 . S
C424 C422 1.419 . S
C424 C425 1.363 . S
C424 H427 0.929 . S
C425 C424 1.363 . S
C425 C431 1.428 . S
H426 C422 0.930 . S
H427 C424 0.929 . S
S428 N429 1.613 . S
S428 N430 1.610 . S
N429 S428 1.613 . S
N429 C432 1.350 . S
N430 S428 1.610 . S
N430 C431 1.351 . S
C431 C425 1.428 . S
C431 N430 1.351 . S
C431 C432 1.434 . S
C432 C423 1.429 . S
C432 N429 1.350 . S
C432 C431 1.434 . S
C433 C434 1.369 . S
C433 C435 1.419 . S
C433 H437 0.930 . S
C434 C433 1.369 . S
C434 C443 1.429 . S
C435 C433 1.419 . S
C435 C436 1.363 . S
C435 H438 0.929 . S
C436 C435 1.363 . S
C436 C442 1.428 . S
H437 C433 0.930 . S
H438 C435 0.929 . S
S439 N440 1.613 . S
S439 N441 1.610 . S
N440 S439 1.613 . S
N440 C443 1.350 . S
N441 S439 1.610 . S
N441 C442 1.351 . S
C442 C436 1.428 . S
C442 N441 1.351 . S
C442 C443 1.434 . S
C443 C434 1.429 . S
C443 N440 1.350 . S
C443 C442 1.434 . S
C444 C445 1.369 . S
C444 C446 1.419 . S
C444 H448 0.930 . S
C445 C444 1.369 . S
C445 C454 1.429 . S
C446 C444 1.419 . S
C446 C447 1.363 . S
C446 H449 0.929 . S
C447 C446 1.363 . S
C447 C453 1.428 . S
H448 C444 0.930 . S
H449 C446 0.929 . S
S450 N451 1.613 . S
S450 N452 1.610 . S
N451 S450 1.613 . S
N451 C454 1.350 . S
N452 S450 1.610 . S
N452 C453 1.351 . S
C453 C447 1.428 . S
C453 N452 1.351 . S
C453 C454 1.434 . S
C454 C445 1.429 . S
C454 N451 1.350 . S
C454 C453 1.434 . S
C455 C456 1.369 . S
C455 C457 1.419 . S
C455 H459 0.930 . S
C456 C455 1.369 . S
C456 C465 1.429 . S
C457 C455 1.419 . S
C457 C458 1.363 . S
C457 H460 0.929 . S
C458 C457 1.363 . S
C458 C464 1.428 . S
H459 C455 0.930 . S
H460 C457 0.929 . S
S461 N462 1.613 . S
S461 N463 1.610 . S
N462 S461 1.613 . S
N462 C465 1.350 . S
N463 S461 1.610 . S
N463 C464 1.351 . S
C464 C458 1.428 . S
C464 N463 1.351 . S
C464 C465 1.434 . S
C465 C456 1.429 . S
C465 N462 1.350 . S
C465 C464 1.434 . S
C466 C467 1.369 . S
C466 C468 1.419 . S
C466 H470 0.930 . S
C467 C466 1.369 . S
C467 C476 1.429 . S
C468 C466 1.419 . S
C468 C469 1.363 . S
C468 H471 0.929 . S
C469 C468 1.363 . S
C469 C475 1.428 . S
H470 C466 0.930 . S
H471 C468 0.929 . S
S472 N473 1.613 . S
S472 N474 1.610 . S
N473 S472 1.613 . S
N473 C476 1.350 . S
N474 S472 1.610 . S
N474 C475 1.351 . S
C475 C469 1.428 . S
C475 N474 1.351 . S
C475 C476 1.434 . S
C476 C467 1.429 . S
C476 N473 1.350 . S
C476 C475 1.434 . S
C477 C478 1.369 . S
C477 C479 1.419 . S
C477 H481 0.930 . S
C478 C477 1.369 . S
C478 C487 1.429 . S
C479 C477 1.419 . S
C479 C480 1.363 . S
C479 H482 0.929 . S
C480 C479 1.363 . S
C480 C486 1.428 . S
H481 C477 0.930 . S
H482 C479 0.929 . S
S483 N484 1.613 . S
S483 N485 1.610 . S
N484 S483 1.613 . S
N484 C487 1.350 . S
N485 S483 1.610 . S
N485 C486 1.351 . S
C486 C480 1.428 . S
C486 N485 1.351 . S
C486 C487 1.434 . S
C487 C478 1.429 . S
C487 N484 1.350 . S
C487 C486 1.434 . S
C488 C489 1.369 . S
C488 C490 1.419 . S
C488 H492 0.930 . S
C489 C488 1.369 . S
C489 C498 1.429 . S
C490 C488 1.419 . S
C490 C491 1.363 . S
C490 H493 0.929 . S
C491 C490 1.363 . S
C491 C497 1.428 . S
H492 C488 0.930 . S
H493 C490 0.929 . S
S494 N495 1.613 . S
S494 N496 1.610 . S
N495 S494 1.613 . S
N495 C498 1.350 . S
N496 S494 1.610 . S
N496 C497 1.351 . S
C497 C491 1.428 . S
C497 N496 1.351 . S
C497 C498 1.434 . S
C498 C489 1.429 . S
C498 N495 1.350 . S
C498 C497 1.434 . S
C499 C500 1.369 . S
C499 C501 1.419 . S
C499 H503 0.930 . S
C500 C499 1.369 . S
C500 C509 1.429 . S
C501 C499 1.419 . S
C501 C502 1.363 . S
C501 H504 0.929 . S
C502 C501 1.363 . S
C502 C508 1.428 . S
H503 C499 0.930 . S
H504 C501 0.929 . S
S505 N506 1.613 . S
S505 N507 1.610 1_554 S
N506 S505 1.613 . S
N506 C509 1.350 1_554 S
N507 S505 1.610 1_556 S
N507 C508 1.351 . S
C508 C502 1.428 . S
C508 N507 1.351 . S
C508 C509 1.434 . S
C509 C500 1.429 . S
C509 N506 1.350 1_556 S
C509 C508 1.434 . S
C510 C511 1.369 . S
C510 C512 1.419 . S
C510 H514 0.930 . S
C511 C510 1.369 . S
C511 C520 1.429 . S
C512 C510 1.419 . S
C512 C513 1.363 . S
C512 H515 0.929 . S
C513 C512 1.363 . S
C513 C519 1.428 . S
H514 C510 0.930 . S
H515 C512 0.929 . S
S516 N517 1.613 . S
S516 N518 1.610 . S
N517 S516 1.613 . S
N517 C520 1.350 . S
N518 S516 1.610 . S
N518 C519 1.351 . S
C519 C513 1.428 . S
C519 N518 1.351 . S
C519 C520 1.434 . S
C520 C511 1.429 . S
C520 N517 1.350 . S
C520 C519 1.434 . S
C521 C522 1.369 . S
C521 C523 1.419 1_554 S
C521 H525 0.930 . S
C522 C521 1.369 . S
C522 C531 1.429 1_554 S
C523 C521 1.419 1_556 S
C523 C524 1.363 . S
C523 H526 0.929 . S
C524 C523 1.363 . S
C524 C530 1.428 . S
H525 C521 0.930 . S
H526 C523 0.929 . S
S527 N528 1.613 . S
S527 N529 1.610 . S
N528 S527 1.613 . S
N528 C531 1.350 . S
N529 S527 1.610 . S
N529 C530 1.351 . S
C530 C524 1.428 . S
C530 N529 1.351 . S
C530 C531 1.434 . S
C531 C522 1.429 1_556 S
C531 N528 1.350 . S
C531 C530 1.434 . S
C532 C533 1.369 . S
C532 C534 1.419 . S
C532 H536 0.930 1_556 S
C533 C532 1.369 . S
C533 C542 1.429 . S
C534 C532 1.419 . S
C534 C535 1.363 . S
C534 H537 0.929 . S
C535 C534 1.363 . S
C535 C541 1.428 . S
H536 C532 0.930 1_554 S
H537 C534 0.929 . S
S538 N539 1.613 . S
S538 N540 1.610 . S
N539 S538 1.613 . S
N539 C542 1.350 . S
N540 S538 1.610 . S
N540 C541 1.351 . S
C541 C535 1.428 . S
C541 N540 1.351 . S
C541 C542 1.434 . S
C542 C533 1.429 . S
C542 N539 1.350 . S
C542 C541 1.434 . S
C543 C544 1.369 . S
C543 C545 1.419 . S
C543 H547 0.930 . S
C544 C543 1.369 . S
C544 C553 1.429 . S
C545 C543 1.419 . S
C545 C546 1.363 . S
C545 H548 0.929 . S
C546 C545 1.363 . S
C546 C552 1.428 . S
H547 C543 0.930 . S
H548 C545 0.929 . S
S549 N550 1.613 . S
S549 N551 1.610 . S
N550 S549 1.613 . S
N550 C553 1.350 . S
N551 S549 1.610 . S
N551 C552 1.351 . S
C552 C546 1.428 . S
C552 N551 1.351 . S
C552 C553 1.434 . S
C553 C544 1.429 . S
C553 N550 1.350 . S
C553 C552 1.434 . S
C554 C555 1.369 . S
C554 C556 1.419 . S
C554 H558 0.930 . S
C555 C554 1.369 . S
C555 C564 1.429 . S
C556 C554 1.419 . S
C556 C557 1.363 . S
C556 H559 0.929 . S
C557 C556 1.363 . S
C557 C563 1.428 . S
H558 C554 0.930 . S
H559 C556 0.929 . S
S560 N561 1.613 . S
S560 N562 1.610 . S
N561 S560 1.613 . S
N561 C564 1.350 . S
N562 S560 1.610 . S
N562 C563 1.351 . S
C563 C557 1.428 . S
C563 N562 1.351 . S
C563 C564 1.434 . S
C564 C555 1.429 . S
C564 N561 1.350 . S
C564 C563 1.434 . S
C565 C566 1.369 . S
C565 C567 1.419 . S
C565 H569 0.930 1_556 S
C566 C565 1.369 . S
C566 C575 1.429 . S
C567 C565 1.419 . S
C567 C568 1.363 . S
C567 H570 0.929 . S
C568 C567 1.363 . S
C568 C574 1.428 . S
H569 C565 0.930 1_554 S
H570 C567 0.929 . S
S571 N572 1.613 . S
S571 N573 1.610 . S
N572 S571 1.613 . S
N572 C575 1.350 . S
N573 S571 1.610 . S
N573 C574 1.351 . S
C574 C568 1.428 . S
C574 N573 1.351 . S
C574 C575 1.434 . S
C575 C566 1.429 . S
C575 N572 1.350 . S
C575 C574 1.434 . S
C576 C577 1.369 1_556 S
C576 C578 1.419 . S
C576 H580 0.930 . S
C577 C576 1.369 1_554 S
C577 C586 1.429 . S
C578 C576 1.419 . S
C578 C579 1.363 . S
C578 H581 0.929 . S
C579 C578 1.363 . S
C579 C585 1.428 1_556 S
H580 C576 0.930 . S
H581 C578 0.929 . S
S582 N583 1.613 . S
S582 N584 1.610 . S
N583 S582 1.613 . S
N583 C586 1.350 . S
N584 S582 1.610 . S
N584 C585 1.351 . S
C585 C579 1.428 1_554 S
C585 N584 1.351 . S
C585 C586 1.434 . S
C586 C577 1.429 . S
C586 N583 1.350 . S
C586 C585 1.434 . S
C587 C588 1.369 . S
C587 C589 1.419 . S
C587 H591 0.930 . S
C588 C587 1.369 . S
C588 C597 1.429 . S
C589 C587 1.419 . S
C589 C590 1.363 . S
C589 H592 0.929 . S
C590 C589 1.363 . S
C590 C596 1.428 . S
H591 C587 0.930 . S
H592 C589 0.929 . S
S593 N594 1.613 . S
S593 N595 1.610 . S
N594 S593 1.613 . S
N594 C597 1.350 . S
N595 S593 1.610 . S
N595 C596 1.351 . S
C596 C590 1.428 . S
C596 N595 1.351 . S
C596 C597 1.434 . S
C597 C588 1.429 . S
C597 N594 1.350 . S
C597 C596 1.434 . S
C598 C599 1.369 . S
C598 C600 1.419 . S
C598 H602 0.930 . S
C599 C598 1.369 . S
C599 C608 1.429 . S
C600 C598 1.419 . S
C600 C601 1.363 . S
C600 H603 0.929 . S
C601 C600 1.363 . S
C601 C607 1.428 . S
H602 C598 0.930 . S
H603 C600 0.929 . S
S604 N605 1.613 . S
S604 N606 1.610 . S
N605 S604 1.613 . S
N605 C608 1.350 . S
N606 S604 1.610 . S
N606 C607 1.351 . S
C607 C601 1.428 . S
C607 N606 1.351 . S
C607 C608 1.434 . S
C608 C599 1.429 . S
C608 N605 1.350 . S
C608 C607 1.434 . S
C609 C610 1.369 . S
C609 C611 1.419 . S
C609 H613 0.930 . S
C610 C609 1.369 . S
C610 C619 1.429 . S
C611 C609 1.419 . S
C611 C612 1.363 . S
C611 H614 0.929 . S
C612 C611 1.363 . S
C612 C618 1.428 . S
H613 C609 0.930 . S
H614 C611 0.929 . S
S615 N616 1.613 . S
S615 N617 1.610 . S
N616 S615 1.613 . S
N616 C619 1.350 . S
N617 S615 1.610 . S
N617 C618 1.351 . S
C618 C612 1.428 . S
C618 N617 1.351 . S
C618 C619 1.434 . S
C619 C610 1.429 . S
C619 N616 1.350 . S
C619 C618 1.434 . S
C620 C621 1.369 . S
C620 C622 1.419 . S
C620 H624 0.930 . S
C621 C620 1.369 . S
C621 C630 1.429 . S
C622 C620 1.419 . S
C622 C623 1.363 . S
C622 H625 0.929 . S
C623 C622 1.363 . S
C623 C629 1.428 . S
H624 C620 0.930 . S
H625 C622 0.929 . S
S626 N627 1.613 . S
S626 N628 1.610 . S
N627 S626 1.613 . S
N627 C630 1.350 . S
N628 S626 1.610 . S
N628 C629 1.351 . S
C629 C623 1.428 . S
C629 N628 1.351 . S
C629 C630 1.434 . S
C630 C621 1.429 . S
C630 N627 1.350 . S
C630 C629 1.434 . S
C631 C632 1.369 . S
C631 C633 1.419 . S
C631 H635 0.930 . S
C632 C631 1.369 . S
C632 C641 1.429 . S
C633 C631 1.419 . S
C633 C634 1.363 . S
C633 H636 0.929 . S
C634 C633 1.363 . S
C634 C640 1.428 . S
H635 C631 0.930 . S
H636 C633 0.929 . S
S637 N638 1.613 . S
S637 N639 1.610 . S
N638 S637 1.613 . S
N638 C641 1.350 . S
N639 S637 1.610 . S
N639 C640 1.351 . S
C640 C634 1.428 . S
C640 N639 1.351 . S
C640 C641 1.434 . S
C641 C632 1.429 . S
C641 N638 1.350 . S
C641 C640 1.434 . S
C642 C643 1.369 . S
C642 C644 1.419 . S
C642 H646 0.930 . S
C643 C642 1.369 . S
C643 C652 1.429 . S
C644 C642 1.419 . S
C644 C645 1.363 . S
C644 H647 0.929 . S
C645 C644 1.363 . S
C645 C651 1.428 . S
H646 C642 0.930 . S
H647 C644 0.929 . S
S648 N649 1.613 . S
S648 N650 1.610 . S
N649 S648 1.613 . S
N649 C652 1.350 . S
N650 S648 1.610 . S
N650 C651 1.351 . S
C651 C645 1.428 . S
C651 N650 1.351 . S
C651 C652 1.434 . S
C652 C643 1.429 . S
C652 N649 1.350 . S
C652 C651 1.434 . S
C653 C654 1.369 . S
C653 C655 1.419 . S
C653 H657 0.930 . S
C654 C653 1.369 . S
C654 C663 1.429 . S
C655 C653 1.419 . S
C655 C656 1.363 . S
C655 H658 0.929 . S
C656 C655 1.363 . S
C656 C662 1.428 . S
H657 C653 0.930 . S
H658 C655 0.929 . S
S659 N660 1.613 . S
S659 N661 1.610 . S
N660 S659 1.613 . S
N660 C663 1.350 . S
N661 S659 1.610 . S
N661 C662 1.351 . S
C662 C656 1.428 . S
C662 N661 1.351 . S
C662 C663 1.434 . S
C663 C654 1.429 . S
C663 N660 1.350 . S
C663 C662 1.434 . S
C664 C665 1.369 . S
C664 C666 1.419 . S
C664 H668 0.930 . S
C665 C664 1.369 . S
C665 C674 1.429 . S
C666 C664 1.419 . S
C666 C667 1.363 . S
C666 H669 0.929 . S
C667 C666 1.363 . S
C667 C673 1.428 . S
H668 C664 0.930 . S
H669 C666 0.929 . S
S670 N671 1.613 . S
S670 N672 1.610 . S
N671 S670 1.613 . S
N671 C674 1.350 . S
N672 S670 1.610 . S
N672 C673 1.351 . S
C673 C667 1.428 . S
C673 N672 1.351 . S
C673 C674 1.434 . S
C674 C665 1.429 . S
C674 N671 1.350 . S
C674 C673 1.434 . S
C412 C22 1.831 . S
C414 C318 1.735 . S
C423 C92 1.759 . S
C425 C350 1.728 . S
C436 C409 1.940 . S
C434 C144 2.002 . S
C447 C338 1.530 . S
C445 C197 1.567 . S
C456 C250 1.934 . S
C458 C368 1.832 . S
C469 C390 1.381 . S
C467 C287 1.379 . S
C480 C359 1.875 . S
C478 C145 1.891 . S
C489 C198 1.550 . S
C491 C399 1.471 . S
C502 C348 1.879 . S
C500 C251 1.889 . S
C511 C294 1.500 . S
C513 C378 1.445 . S
C522 C29 1.740 . S
C524 C381 1.698 . S
C535 C320 1.821 . S
C533 C91 1.837 1_556 S
C546 C328 1.527 . S
C544 C188 1.595 . S
C557 C369 1.250 . S
C555 C241 1.279 . S
C568 C382 1.778 . S
C566 C304 1.831 1_556 S
C579 C319 1.379 . S
C577 C39 1.408 . S
C590 C379 1.386 . S
C588 C75 1.443 . S
C599 C135 1.230 . S
C601 C380 1.218 . S
C612 C349 1.649 . S
C610 C303 1.685 . S
C623 C410 1.257 . S
C621 C38 1.316 . S
C634 C337 1.388 . S
C632 C82 1.472 . S
C645 C351 1.323 . S
C643 C128 1.358 . S
C654 C181 1.590 . S
C656 C400 1.554 . S
C665 C234 1.380 . S
C667 C347 1.354 . S
