# Generated by pormake.
# Topology gar, (4,6)-cn, num edge types: 1
# Building blocks:
#     Node 0, Type 0, BuildingBlock: TATPOV_clean_sbu_0, # of connection points: 4
#     Node 1, Type 0, BuildingBlock: TATPOV_clean_sbu_0, # of connection points: 4
#     Node 2, Type 0, BuildingBlock: TATPOV_clean_sbu_0, # of connection points: 4
#     Node 3, Type 0, BuildingBlock: TATPOV_clean_sbu_0, # of connection points: 4
#     Node 4, Type 0, BuildingBlock: TATPOV_clean_sbu_0, # of connection points: 4
#     Node 5, Type 0, BuildingBlock: TATPOV_clean_sbu_0, # of connection points: 4
#     Node 6, Type 0, BuildingBlock: TATPOV_clean_sbu_0, # of connection points: 4
#     Node 7, Type 0, BuildingBlock: TATPOV_clean_sbu_0, # of connection points: 4
#     Node 8, Type 0, BuildingBlock: TATPOV_clean_sbu_0, # of connection points: 4
#     Node 9, Type 0, BuildingBlock: TATPOV_clean_sbu_0, # of connection points: 4
#     Node 10, Type 0, BuildingBlock: TATPOV_clean_sbu_0, # of connection points: 4
#     Node 11, Type 0, BuildingBlock: TATPOV_clean_sbu_0, # of connection points: 4
#     Node 12, Type 0, BuildingBlock: TATPOV_clean_sbu_0, # of connection points: 4
#     Node 13, Type 0, BuildingBlock: TATPOV_clean_sbu_0, # of connection points: 4
#     Node 14, Type 0, BuildingBlock: TATPOV_clean_sbu_0, # of connection points: 4
#     Node 15, Type 0, BuildingBlock: TATPOV_clean_sbu_0, # of connection points: 4
#     Node 16, Type 0, BuildingBlock: TATPOV_clean_sbu_0, # of connection points: 4
#     Node 17, Type 0, BuildingBlock: TATPOV_clean_sbu_0, # of connection points: 4
#     Node 18, Type 0, BuildingBlock: TATPOV_clean_sbu_0, # of connection points: 4
#     Node 19, Type 0, BuildingBlock: TATPOV_clean_sbu_0, # of connection points: 4
#     Node 20, Type 0, BuildingBlock: TATPOV_clean_sbu_0, # of connection points: 4
#     Node 21, Type 0, BuildingBlock: TATPOV_clean_sbu_0, # of connection points: 4
#     Node 22, Type 0, BuildingBlock: TATPOV_clean_sbu_0, # of connection points: 4
#     Node 23, Type 0, BuildingBlock: TATPOV_clean_sbu_0, # of connection points: 4
#     Node 24, Type 1, BuildingBlock: BETFAJ_clean_sbu_0, # of connection points: 6
#     Node 25, Type 1, BuildingBlock: BETFAJ_clean_sbu_0, # of connection points: 6
#     Node 26, Type 1, BuildingBlock: BETFAJ_clean_sbu_0, # of connection points: 6
#     Node 27, Type 1, BuildingBlock: BETFAJ_clean_sbu_0, # of connection points: 6
#     Node 28, Type 1, BuildingBlock: BETFAJ_clean_sbu_0, # of connection points: 6
#     Node 29, Type 1, BuildingBlock: BETFAJ_clean_sbu_0, # of connection points: 6
#     Node 30, Type 1, BuildingBlock: BETFAJ_clean_sbu_0, # of connection points: 6
#     Node 31, Type 1, BuildingBlock: BETFAJ_clean_sbu_0, # of connection points: 6
#     Node 32, Type 1, BuildingBlock: BETFAJ_clean_sbu_0, # of connection points: 6
#     Node 33, Type 1, BuildingBlock: BETFAJ_clean_sbu_0, # of connection points: 6
#     Node 34, Type 1, BuildingBlock: BETFAJ_clean_sbu_0, # of connection points: 6
#     Node 35, Type 1, BuildingBlock: BETFAJ_clean_sbu_0, # of connection points: 6
#     Node 36, Type 1, BuildingBlock: BETFAJ_clean_sbu_0, # of connection points: 6
#     Node 37, Type 1, BuildingBlock: BETFAJ_clean_sbu_0, # of connection points: 6
#     Node 38, Type 1, BuildingBlock: BETFAJ_clean_sbu_0, # of connection points: 6
#     Node 39, Type 1, BuildingBlock: BETFAJ_clean_sbu_0, # of connection points: 6
#     Edge 40, Type (0, 1), BuildingBlock: TEMPAE_clean_linker_10, # of connection points: 2
#     Edge 41, Type (0, 1), BuildingBlock: TEMPAE_clean_linker_10, # of connection points: 2
#     Edge 42, Type (0, 1), BuildingBlock: TEMPAE_clean_linker_10, # of connection points: 2
#     Edge 43, Type (0, 1), BuildingBlock: TEMPAE_clean_linker_10, # of connection points: 2
#     Edge 44, Type (0, 1), BuildingBlock: TEMPAE_clean_linker_10, # of connection points: 2
#     Edge 45, Type (0, 1), BuildingBlock: TEMPAE_clean_linker_10, # of connection points: 2
#     Edge 46, Type (0, 1), BuildingBlock: TEMPAE_clean_linker_10, # of connection points: 2
#     Edge 47, Type (0, 1), BuildingBlock: TEMPAE_clean_linker_10, # of connection points: 2
#     Edge 48, Type (0, 1), BuildingBlock: TEMPAE_clean_linker_10, # of connection points: 2
#     Edge 49, Type (0, 1), BuildingBlock: TEMPAE_clean_linker_10, # of connection points: 2
#     Edge 50, Type (0, 1), BuildingBlock: TEMPAE_clean_linker_10, # of connection points: 2
#     Edge 51, Type (0, 1), BuildingBlock: TEMPAE_clean_linker_10, # of connection points: 2
#     Edge 52, Type (0, 1), BuildingBlock: TEMPAE_clean_linker_10, # of connection points: 2
#     Edge 53, Type (0, 1), BuildingBlock: TEMPAE_clean_linker_10, # of connection points: 2
#     Edge 54, Type (0, 1), BuildingBlock: TEMPAE_clean_linker_10, # of connection points: 2
#     Edge 55, Type (0, 1), BuildingBlock: TEMPAE_clean_linker_10, # of connection points: 2
#     Edge 56, Type (0, 1), BuildingBlock: TEMPAE_clean_linker_10, # of connection points: 2
#     Edge 57, Type (0, 1), BuildingBlock: TEMPAE_clean_linker_10, # of connection points: 2
#     Edge 58, Type (0, 1), BuildingBlock: TEMPAE_clean_linker_10, # of connection points: 2
#     Edge 59, Type (0, 1), BuildingBlock: TEMPAE_clean_linker_10, # of connection points: 2
#     Edge 60, Type (0, 1), BuildingBlock: TEMPAE_clean_linker_10, # of connection points: 2
#     Edge 61, Type (0, 1), BuildingBlock: TEMPAE_clean_linker_10, # of connection points: 2
#     Edge 62, Type (0, 1), BuildingBlock: TEMPAE_clean_linker_10, # of connection points: 2
#     Edge 63, Type (0, 1), BuildingBlock: TEMPAE_clean_linker_10, # of connection points: 2
#     Edge 64, Type (0, 1), BuildingBlock: TEMPAE_clean_linker_10, # of connection points: 2
#     Edge 65, Type (0, 1), BuildingBlock: TEMPAE_clean_linker_10, # of connection points: 2
#     Edge 66, Type (0, 1), BuildingBlock: TEMPAE_clean_linker_10, # of connection points: 2
#     Edge 67, Type (0, 1), BuildingBlock: TEMPAE_clean_linker_10, # of connection points: 2
#     Edge 68, Type (0, 1), BuildingBlock: TEMPAE_clean_linker_10, # of connection points: 2
#     Edge 69, Type (0, 1), BuildingBlock: TEMPAE_clean_linker_10, # of connection points: 2
#     Edge 70, Type (0, 1), BuildingBlock: TEMPAE_clean_linker_10, # of connection points: 2
#     Edge 71, Type (0, 1), BuildingBlock: TEMPAE_clean_linker_10, # of connection points: 2
#     Edge 72, Type (0, 1), BuildingBlock: TEMPAE_clean_linker_10, # of connection points: 2
#     Edge 73, Type (0, 1), BuildingBlock: TEMPAE_clean_linker_10, # of connection points: 2
#     Edge 74, Type (0, 1), BuildingBlock: TEMPAE_clean_linker_10, # of connection points: 2
#     Edge 75, Type (0, 1), BuildingBlock: TEMPAE_clean_linker_10, # of connection points: 2
#     Edge 76, Type (0, 1), BuildingBlock: TEMPAE_clean_linker_10, # of connection points: 2
#     Edge 77, Type (0, 1), BuildingBlock: TEMPAE_clean_linker_10, # of connection points: 2
#     Edge 78, Type (0, 1), BuildingBlock: TEMPAE_clean_linker_10, # of connection points: 2
#     Edge 79, Type (0, 1), BuildingBlock: TEMPAE_clean_linker_10, # of connection points: 2
#     Edge 80, Type (0, 1), BuildingBlock: TEMPAE_clean_linker_10, # of connection points: 2
#     Edge 81, Type (0, 1), BuildingBlock: TEMPAE_clean_linker_10, # of connection points: 2
#     Edge 82, Type (0, 1), BuildingBlock: TEMPAE_clean_linker_10, # of connection points: 2
#     Edge 83, Type (0, 1), BuildingBlock: TEMPAE_clean_linker_10, # of connection points: 2
#     Edge 84, Type (0, 1), BuildingBlock: TEMPAE_clean_linker_10, # of connection points: 2
#     Edge 85, Type (0, 1), BuildingBlock: TEMPAE_clean_linker_10, # of connection points: 2
#     Edge 86, Type (0, 1), BuildingBlock: TEMPAE_clean_linker_10, # of connection points: 2
#     Edge 87, Type (0, 1), BuildingBlock: TEMPAE_clean_linker_10, # of connection points: 2
#     Edge 88, Type (0, 1), BuildingBlock: TEMPAE_clean_linker_10, # of connection points: 2
#     Edge 89, Type (0, 1), BuildingBlock: TEMPAE_clean_linker_10, # of connection points: 2
#     Edge 90, Type (0, 1), BuildingBlock: TEMPAE_clean_linker_10, # of connection points: 2
#     Edge 91, Type (0, 1), BuildingBlock: TEMPAE_clean_linker_10, # of connection points: 2
#     Edge 92, Type (0, 1), BuildingBlock: TEMPAE_clean_linker_10, # of connection points: 2
#     Edge 93, Type (0, 1), BuildingBlock: TEMPAE_clean_linker_10, # of connection points: 2
#     Edge 94, Type (0, 1), BuildingBlock: TEMPAE_clean_linker_10, # of connection points: 2
#     Edge 95, Type (0, 1), BuildingBlock: TEMPAE_clean_linker_10, # of connection points: 2
#     Edge 96, Type (0, 1), BuildingBlock: TEMPAE_clean_linker_10, # of connection points: 2
#     Edge 97, Type (0, 1), BuildingBlock: TEMPAE_clean_linker_10, # of connection points: 2
#     Edge 98, Type (0, 1), BuildingBlock: TEMPAE_clean_linker_10, # of connection points: 2
#     Edge 99, Type (0, 1), BuildingBlock: TEMPAE_clean_linker_10, # of connection points: 2
#     Edge 100, Type (0, 1), BuildingBlock: TEMPAE_clean_linker_10, # of connection points: 2
#     Edge 101, Type (0, 1), BuildingBlock: TEMPAE_clean_linker_10, # of connection points: 2
#     Edge 102, Type (0, 1), BuildingBlock: TEMPAE_clean_linker_10, # of connection points: 2
#     Edge 103, Type (0, 1), BuildingBlock: TEMPAE_clean_linker_10, # of connection points: 2
#     Edge 104, Type (0, 1), BuildingBlock: TEMPAE_clean_linker_10, # of connection points: 2
#     Edge 105, Type (0, 1), BuildingBlock: TEMPAE_clean_linker_10, # of connection points: 2
#     Edge 106, Type (0, 1), BuildingBlock: TEMPAE_clean_linker_10, # of connection points: 2
#     Edge 107, Type (0, 1), BuildingBlock: TEMPAE_clean_linker_10, # of connection points: 2
#     Edge 108, Type (0, 1), BuildingBlock: TEMPAE_clean_linker_10, # of connection points: 2
#     Edge 109, Type (0, 1), BuildingBlock: TEMPAE_clean_linker_10, # of connection points: 2
#     Edge 110, Type (0, 1), BuildingBlock: TEMPAE_clean_linker_10, # of connection points: 2
#     Edge 111, Type (0, 1), BuildingBlock: TEMPAE_clean_linker_10, # of connection points: 2
#     Edge 112, Type (0, 1), BuildingBlock: TEMPAE_clean_linker_10, # of connection points: 2
#     Edge 113, Type (0, 1), BuildingBlock: TEMPAE_clean_linker_10, # of connection points: 2
#     Edge 114, Type (0, 1), BuildingBlock: TEMPAE_clean_linker_10, # of connection points: 2
#     Edge 115, Type (0, 1), BuildingBlock: TEMPAE_clean_linker_10, # of connection points: 2
#     Edge 116, Type (0, 1), BuildingBlock: TEMPAE_clean_linker_10, # of connection points: 2
#     Edge 117, Type (0, 1), BuildingBlock: TEMPAE_clean_linker_10, # of connection points: 2
#     Edge 118, Type (0, 1), BuildingBlock: TEMPAE_clean_linker_10, # of connection points: 2
#     Edge 119, Type (0, 1), BuildingBlock: TEMPAE_clean_linker_10, # of connection points: 2
#     Edge 120, Type (0, 1), BuildingBlock: TEMPAE_clean_linker_10, # of connection points: 2
#     Edge 121, Type (0, 1), BuildingBlock: TEMPAE_clean_linker_10, # of connection points: 2
#     Edge 122, Type (0, 1), BuildingBlock: TEMPAE_clean_linker_10, # of connection points: 2
#     Edge 123, Type (0, 1), BuildingBlock: TEMPAE_clean_linker_10, # of connection points: 2
#     Edge 124, Type (0, 1), BuildingBlock: TEMPAE_clean_linker_10, # of connection points: 2
#     Edge 125, Type (0, 1), BuildingBlock: TEMPAE_clean_linker_10, # of connection points: 2
#     Edge 126, Type (0, 1), BuildingBlock: TEMPAE_clean_linker_10, # of connection points: 2
#     Edge 127, Type (0, 1), BuildingBlock: TEMPAE_clean_linker_10, # of connection points: 2
#     Edge 128, Type (0, 1), BuildingBlock: TEMPAE_clean_linker_10, # of connection points: 2
#     Edge 129, Type (0, 1), BuildingBlock: TEMPAE_clean_linker_10, # of connection points: 2
#     Edge 130, Type (0, 1), BuildingBlock: TEMPAE_clean_linker_10, # of connection points: 2
#     Edge 131, Type (0, 1), BuildingBlock: TEMPAE_clean_linker_10, # of connection points: 2
#     Edge 132, Type (0, 1), BuildingBlock: TEMPAE_clean_linker_10, # of connection points: 2
#     Edge 133, Type (0, 1), BuildingBlock: TEMPAE_clean_linker_10, # of connection points: 2
#     Edge 134, Type (0, 1), BuildingBlock: TEMPAE_clean_linker_10, # of connection points: 2
#     Edge 135, Type (0, 1), BuildingBlock: TEMPAE_clean_linker_10, # of connection points: 2
# Relax obj value: 0.213
# Max RMSD: 0.313
# Mean RMSD: 0.177
data_MOF--net-gar--node1-TATPOV_clean_sbu_0--node2-BETFAJ_clean_sbu_0--edge1-TEMPAE_clean_linker_10
_symmetry_space_group_name_H-M    P1
_symmetry_Int_Tables_number       1
_symmetry_cell_setting            triclinic
loop_
_symmetry_equiv_pos_as_xyz
'x, y, z'
_cell_length_a     63.074755
_cell_length_b     57.947827
_cell_length_c     58.482958
_cell_angle_alpha  99.49592
_cell_angle_beta   96.109122
_cell_angle_gamma 105.19686
loop_
_atom_site_label
_atom_site_type_symbol
_atom_site_fract_x
_atom_site_fract_y
_atom_site_fract_z
_atom_type_partial_charge
Zn0 Zn 0.08518 0.34025 0.40991 0.0
Zn1 Zn 0.11411 0.33872 0.38915 0.0
O2 O 0.12353 0.37458 0.40739 0.0
O3 O 0.08931 0.37526 0.40979 0.0
O4 O 0.13896 0.33455 0.37183 0.0
O5 O 0.09593 0.32882 0.43788 0.0
O6 O 0.11068 0.31259 0.4094 0.0
C7 C 0.10961 0.38654 0.41158 0.0
C8 C 0.0671 0.31772 0.36553 0.0
O9 O 0.08661 0.32961 0.36343 0.0
O10 O 0.06257 0.31577 0.38574 0.0
C11 C 0.13794 0.33615 0.35037 0.0
O12 O 0.12132 0.3424 0.34016 0.0
C13 C 0.10404 0.31222 0.4292 0.0
Zn14 Zn 0.98799 0.69734 0.66987 0.0
Zn15 Zn 0.99986 0.73884 0.65015 0.0
O16 O 0.9732 0.74319 0.66443 0.0
O17 O 0.96309 0.71015 0.67963 0.0
O18 O 0.01068 0.76703 0.63443 0.0
O19 O 0.01848 0.71017 0.6898 0.0
O20 O 0.0258 0.74362 0.6751 0.0
C21 C 0.96036 0.73002 0.67553 0.0
C22 C 0.98864 0.68637 0.62094 0.0
O23 O 0.99471 0.70952 0.6237 0.0
O24 O 0.9842 0.67628 0.63814 0.0
C25 C 1.00209 0.78437 0.63315 0.0
O26 O 0.98409 0.78463 0.64248 0.0
C27 C 0.03115 0.73095 0.68924 0.0
Zn28 Zn 0.57987 0.82771 0.89363 0.0
Zn29 Zn 0.61592 0.83371 0.88602 0.0
O30 O 0.61935 0.86756 0.90553 0.0
O31 O 0.58396 0.86344 0.89497 0.0
O32 O 0.64474 0.83421 0.87493 0.0
O33 O 0.58385 0.81544 0.92268 0.0
O34 O 0.60888 0.80482 0.90336 0.0
C35 C 0.60333 0.87701 0.90362 0.0
C36 C 0.5759 0.81281 0.84858 0.0
O37 O 0.59473 0.82857 0.85512 0.0
O38 O 0.56641 0.80284 0.8638 0.0
C39 C 0.64825 0.84363 0.85708 0.0
O40 O 0.63454 0.85497 0.84889 0.0
C41 C 0.5962 0.80173 0.91883 0.0
Zn42 Zn 0.49163 0.20716 0.17907 0.0
Zn43 Zn 0.50024 0.24439 0.15384 0.0
O44 O 0.47283 0.24833 0.16638 0.0
O45 O 0.46406 0.21679 0.18392 0.0
O46 O 0.50981 0.27061 0.13604 0.0
O47 O 0.52047 0.22558 0.20097 0.0
O48 O 0.52645 0.25323 0.17896 0.0
C49 C 0.46 0.23521 0.17752 0.0
C50 C 0.49318 0.19131 0.13043 0.0
O51 O 0.49641 0.21379 0.12997 0.0
O52 O 0.49119 0.1838 0.14944 0.0
C53 C 0.49726 0.27679 0.1213 0.0
O54 O 0.47577 0.26588 0.11733 0.0
C55 C 0.53244 0.24514 0.19666 0.0
Zn56 Zn 0.12915 0.81918 0.09344 0.0
Zn57 Zn 0.09382 0.80909 0.11544 0.0
O58 O 0.09151 0.8399 0.10139 0.0
O59 O 0.12001 0.84714 0.08235 0.0
O60 O 0.0658 0.80056 0.13096 0.0
O61 O 0.11867 0.78474 0.07399 0.0
O62 O 0.08845 0.77755 0.09056 0.0
C63 C 0.10283 0.85236 0.08835 0.0
C64 C 0.14237 0.81787 0.14136 0.0
O65 O 0.12127 0.81195 0.14113 0.0
O66 O 0.15032 0.82357 0.12341 0.0
C67 C 0.06254 0.81287 0.14971 0.0
O68 O 0.07827 0.83253 0.16072 0.0
C69 C 0.1003 0.77048 0.0761 0.0
Zn70 Zn 0.48352 0.75579 0.44176 0.0
Zn71 Zn 0.51231 0.76122 0.41218 0.0
O72 O 0.52155 0.79439 0.43554 0.0
O73 O 0.49798 0.78947 0.46069 0.0
O74 O 0.53844 0.76466 0.39346 0.0
O75 O 0.49126 0.72731 0.45232 0.0
O76 O 0.51421 0.73034 0.42643 0.0
C77 C 0.51413 0.80292 0.45356 0.0
C78 C 0.46308 0.75672 0.395 0.0
O79 O 0.48286 0.75957 0.39017 0.0
O80 O 0.45915 0.753 0.41511 0.0
C81 C 0.54769 0.78317 0.38521 0.0
O82 O 0.53911 0.80161 0.38659 0.0
C83 C 0.50561 0.71977 0.44218 0.0
Zn84 Zn 0.62496 0.31621 0.59011 0.0
Zn85 Zn 0.59305 0.30992 0.61711 0.0
O86 O 0.59044 0.34001 0.60196 0.0
O87 O 0.6171 0.34506 0.5803 0.0
O88 O 0.5657 0.30244 0.63362 0.0
O89 O 0.61173 0.28222 0.57038 0.0
O90 O 0.58689 0.27707 0.59427 0.0
C91 C 0.60103 0.35155 0.58784 0.0
C92 C 0.64178 0.3176 0.63891 0.0
O93 O 0.62139 0.31426 0.64167 0.0
O94 O 0.64731 0.31993 0.61901 0.0
C95 C 0.56303 0.31361 0.65326 0.0
O96 O 0.57938 0.33211 0.66532 0.0
C97 C 0.59516 0.26878 0.57688 0.0
Zn98 Zn 0.98478 0.25669 0.9419 0.0
Zn99 Zn 0.01369 0.26394 0.91277 0.0
O100 O 0.02203 0.29688 0.93629 0.0
O101 O 1.00027 0.28969 0.96284 0.0
O102 O 0.03833 0.26924 0.89204 0.0
O103 O 0.99083 0.22572 0.94857 0.0
O104 O 0.01763 0.23365 0.92733 0.0
C105 C 0.01531 0.30427 0.95522 0.0
C106 C 0.96399 0.25944 0.89635 0.0
O107 O 0.98354 0.26128 0.89117 0.0
O108 O 0.96028 0.25643 0.91668 0.0
C109 C 0.05857 0.27774 0.90203 0.0
O110 O 0.06274 0.28271 0.92509 0.0
C111 C 0.00723 0.22055 0.94054 0.0
Zn112 Zn 0.48671 1.00408 0.2916 0.0
Zn113 Zn 0.45601 0.04486 0.28324 0.0
O114 O 0.45385 0.05078 0.31755 0.0
O115 O 0.47217 0.02383 0.3125 0.0
O116 O 0.44084 0.06676 0.26842 0.0
O117 O 0.50853 0.02394 0.27352 0.0
O118 O 0.48839 0.04817 0.28173 0.0
C119 C 0.46303 0.03625 0.32574 0.0
C120 C 0.43895 0.98771 0.26842 0.0
O121 O 0.43837 0.0098 0.27196 0.0
O122 O 0.4567 0.98164 0.27337 0.0
C123 C 0.42048 0.06175 0.27113 0.0
O124 O 0.41264 0.04372 0.28172 0.0
C125 C 0.49833 0.03839 0.26683 0.0
Zn126 Zn 0.25931 0.21829 0.49494 0.0
Zn127 Zn 0.28628 0.19003 0.49606 0.0
O128 O 0.29059 0.2054 0.4658 0.0
O129 O 0.26867 0.22931 0.46597 0.0
O130 O 0.312 0.17449 0.49915 0.0
O131 O 0.27222 0.2382 0.5276 0.0
O132 O 0.29186 0.21206 0.52912 0.0
C133 C 0.28242 0.22019 0.45626 0.0
C134 C 0.23641 0.16652 0.49132 0.0
O135 O 0.25588 0.16355 0.49295 0.0
O136 O 0.23389 0.18751 0.49129 0.0
C137 C 0.31082 0.15201 0.49773 0.0
O138 O 0.29116 0.13583 0.49327 0.0
C139 C 0.28578 0.23002 0.53904 0.0
Zn140 Zn 0.14892 0.03773 0.77436 0.0
Zn141 Zn 0.17578 0.01099 0.77369 0.0
O142 O 0.15818 0.01024 0.80761 0.0
O143 O 0.13462 0.03168 0.80305 0.0
O144 O 0.19525 0.98114 0.77019 0.0
O145 O 0.13162 0.02748 0.74137 0.0
O146 O 0.15571 0.00626 0.73692 0.0
C147 C 0.14286 0.01945 0.81569 0.0
C148 C 0.19432 0.06909 0.77784 0.0
O149 O 0.19928 0.04855 0.77674 0.0
O150 O 0.17416 0.06866 0.77808 0.0
C151 C 0.19801 0.96518 0.78293 0.0
O152 O 0.18856 0.96539 0.80189 0.0
C153 C 0.13983 0.01414 0.7277 0.0
Zn154 Zn 0.33476 0.90461 0.01242 0.0
Zn155 Zn 0.30489 0.92125 0.00557 0.0
O156 O 0.3024 0.89843 0.974 0.0
O157 O 0.33849 0.90419 0.97921 0.0
O158 O 0.2803 0.93654 0.00503 0.0
O159 O 0.31314 0.87472 0.01854 0.0
O160 O 0.3044 0.90631 0.03524 0.0
C161 C 0.32003 0.89689 0.96574 0.0
C162 C 0.34868 0.95259 0.02577 0.0
O163 O 0.3332 0.94915 0.00876 0.0
O164 O 0.34739 0.936 0.03747 0.0
C165 C 0.28347 0.95426 0.02219 0.0
O166 O 0.30171 0.96023 0.03763 0.0
C167 C 0.30777 0.88583 0.03636 0.0
Zn168 Zn 0.34458 0.3533 0.03731 0.0
Zn169 Zn 0.31913 0.38408 0.03495 0.0
O170 O 0.31329 0.36182 0.00204 0.0
O171 O 0.33161 0.33453 0.00398 0.0
O172 O 0.29667 0.40399 0.0316 0.0
O173 O 0.33244 0.34259 0.06569 0.0
O174 O 0.31303 0.36916 0.06525 0.0
C175 C 0.319 0.34356 0.99217 0.0
C176 C 0.3695 0.40452 0.0404 0.0
O177 O 0.35037 0.40822 0.03798 0.0
O178 O 0.37133 0.38344 0.04153 0.0
C179 C 0.27787 0.39443 0.01836 0.0
O180 O 0.273 0.37159 0.00733 0.0
C181 C 0.31924 0.35312 0.07475 0.0
Zn182 Zn 0.75279 0.18652 0.03936 0.0
Zn183 Zn 0.80424 0.14591 0.03138 0.0
O184 O 0.80213 0.16391 0.00373 0.0
O185 O 0.7788 0.17597 0.02384 0.0
O186 O 0.82648 0.12782 0.02651 0.0
O187 O 0.78299 0.17744 0.04949 0.0
O188 O 0.81262 0.16938 0.06415 0.0
C189 C 0.78694 0.17449 0.00471 0.0
C190 C 0.75864 0.13235 0.03086 0.0
O191 O 0.77319 0.12096 0.02844 0.0
O192 O 0.76563 0.15561 0.03554 0.0
C193 C 0.82793 0.12009 0.0053 0.0
O194 O 0.81456 0.12369 0.98831 0.0
C195 C 0.79831 0.18103 0.06704 0.0
Zn196 Zn 0.13301 0.55689 0.25025 0.0
Zn197 Zn 0.15978 0.53111 0.24272 0.0
O198 O 0.15239 0.5352 0.27591 0.0
O199 O 0.1209 0.54387 0.27712 0.0
O200 O 0.17893 0.50931 0.24326 0.0
O201 O 0.11751 0.54516 0.21815 0.0
O202 O 0.13918 0.52141 0.21138 0.0
C203 C 0.13743 0.53925 0.28745 0.0
C204 C 0.17921 0.58309 0.24953 0.0
O205 O 0.18128 0.56216 0.24209 0.0
O206 O 0.16106 0.58565 0.25549 0.0
C207 C 0.19381 0.51657 0.26135 0.0
O208 O 0.19499 0.53649 0.27647 0.0
C209 C 0.12417 0.53061 0.2041 0.0
Zn210 Zn 0.8466 0.85618 0.53839 0.0
Zn211 Zn 0.81819 0.88235 0.53495 0.0
O212 O 0.8123 0.85906 0.50199 0.0
O213 O 0.8366 0.83812 0.50511 0.0
O214 O 0.79428 0.90109 0.53284 0.0
O215 O 0.83463 0.84241 0.56523 0.0
O216 O 0.81292 0.86659 0.56512 0.0
C217 C 0.82155 0.84344 0.49274 0.0
C218 C 0.86898 0.90657 0.54089 0.0
O219 O 0.84911 0.90829 0.53754 0.0
O220 O 0.87241 0.88648 0.54325 0.0
C221 C 0.77983 0.89784 0.51464 0.0
O222 O 0.78023 0.88224 0.49578 0.0
C223 C 0.82022 0.85094 0.57422 0.0
Zn224 Zn 0.96107 0.03465 0.25371 0.0
Zn225 Zn 0.93513 0.06251 0.255 0.0
O226 O 0.95509 0.06726 0.29187 0.0
O227 O 0.97971 0.04703 0.28587 0.0
O228 O 0.91616 0.09262 0.25525 0.0
O229 O 0.97468 0.03922 0.22425 0.0
O230 O 0.95288 0.06286 0.22129 0.0
C231 C 0.97151 0.05968 0.30027 0.0
C232 C 0.91548 1.00482 0.25269 0.0
O233 O 0.911 0.02542 0.25227 0.0
O234 O 0.93549 1.00442 0.2528 0.0
C235 C 0.91727 0.11234 0.27059 0.0
O236 O 0.93124 0.11666 0.29018 0.0
C237 C 0.96737 0.05277 0.2125 0.0
Zn238 Zn 0.26127 0.65027 0.5379 0.0
Zn239 Zn 0.29335 0.64166 0.52735 0.0
O240 O 0.28301 0.65615 0.50004 0.0
O241 O 0.24801 0.64186 0.50379 0.0
O242 O 0.32079 0.63226 0.52067 0.0
O243 O 0.27614 0.6849 0.55099 0.0
O244 O 0.30158 0.66681 0.55934 0.0
C245 C 0.26238 0.65126 0.49192 0.0
C246 C 0.25664 0.60814 0.54172 0.0
O247 O 0.26855 0.60979 0.52561 0.0
O248 O 0.2625 0.62569 0.55908 0.0
C249 C 0.31849 0.61226 0.50662 0.0
O250 O 0.29843 0.59886 0.49659 0.0
C251 C 0.29323 0.68456 0.56406 0.0
Zn252 Zn 0.46222 0.53555 0.75453 0.0
Zn253 Zn 0.43638 0.56403 0.75608 0.0
O254 O 0.45636 0.56816 0.79278 0.0
O255 O 0.48078 0.54767 0.78685 0.0
O256 O 0.4201 0.59641 0.75727 0.0
O257 O 0.47595 0.54049 0.72503 0.0
O258 O 0.45377 0.56382 0.72227 0.0
C259 C 0.47266 0.56043 0.80123 0.0
C260 C 0.41582 0.5067 0.75332 0.0
O261 O 0.41164 0.5275 0.75313 0.0
O262 O 0.43574 0.50591 0.75345 0.0
C263 C 0.40377 0.6019 0.76696 0.0
O264 O 0.39329 0.58633 0.77883 0.0
C265 C 0.4683 0.55389 0.71336 0.0
Zn266 Zn 0.65211 0.05771 0.72185 0.0
Zn267 Zn 0.66982 0.0306 0.73525 0.0
O268 O 0.6546 0.04103 0.763 0.0
O269 O 0.65412 0.07607 0.75369 0.0
O270 O 0.68711 0.00957 0.74609 0.0
O271 O 0.62464 0.03073 0.70848 0.0
O272 O 0.65015 0.012 0.70391 0.0
C273 C 0.65249 0.06244 0.76852 0.0
C274 C 0.69398 0.07315 0.71703 0.0
O275 O 0.69394 0.05981 0.73214 0.0
O276 O 0.67614 0.07028 0.70336 0.0
C277 C 0.69797 0.01682 0.76673 0.0
O278 O 0.69662 0.03678 0.78008 0.0
C279 C 0.63073 0.01355 0.6976 0.0
Zn280 Zn 0.75896 0.7194 0.99589 0.0
Zn281 Zn 0.78516 0.69003 0.99646 0.0
O282 O 0.79054 0.70501 0.966 0.0
O283 O 0.76884 0.72922 0.96652 0.0
O284 O 0.80714 0.66991 0.99979 0.0
O285 O 0.77311 0.73889 0.0286 0.0
O286 O 0.79225 0.71223 0.02952 0.0
C287 C 0.78239 0.71991 0.95658 0.0
C288 C 0.73486 0.66865 0.99254 0.0
O289 O 0.75417 0.66543 0.99372 0.0
O290 O 0.73243 0.68968 0.99267 0.0
C291 C 0.82754 0.67801 0.99779 0.0
O292 O 0.83442 0.69941 0.99204 0.0
C293 C 0.78653 0.73031 0.0398 0.0
Zn294 Zn 0.98228 0.49868 0.77805 0.0
Zn295 Zn 0.9577 0.53752 0.7751 0.0
O296 O 0.95923 0.53963 0.80983 0.0
O297 O 0.97985 0.51385 0.81097 0.0
O298 O 0.94365 0.5624 0.76542 0.0
O299 O 0.00585 0.51461 0.75916 0.0
O300 O 0.98845 0.54099 0.76877 0.0
C301 C 0.96962 0.52784 0.82105 0.0
C302 C 0.93466 0.48289 0.75735 0.0
O303 O 0.93581 0.50541 0.76085 0.0
O304 O 0.95175 0.47583 0.76229 0.0
C305 C 0.9246 0.55956 0.77172 0.0
O306 O 0.91782 0.54281 0.78409 0.0
C307 C 0.99374 0.52726 0.75256 0.0
Zn308 Zn 0.8371 0.40305 0.51149 0.0
Zn309 Zn 0.80728 0.41941 0.50695 0.0
O310 O 0.80689 0.40087 0.47371 0.0
O311 O 0.84316 0.40835 0.47994 0.0
O312 O 0.78157 0.4337 0.50754 0.0
O313 O 0.81649 0.37082 0.51378 0.0
O314 O 0.80575 0.39963 0.53335 0.0
C315 C 0.82511 0.40163 0.46577 0.0
C316 C 0.8511 0.44909 0.53122 0.0
O317 O 0.83579 0.44787 0.51474 0.0
O318 O 0.84997 0.43043 0.53999 0.0
C319 C 0.78511 0.45665 0.50993 0.0
O320 O 0.80523 0.47046 0.50981 0.0
C321 C 0.81017 0.37931 0.53225 0.0
Zn322 Zn 0.65067 0.54017 0.2793 0.0
Zn323 Zn 0.67505 0.51013 0.27389 0.0
O324 O 0.65819 0.50891 0.3081 0.0
O325 O 0.63566 0.53219 0.30736 0.0
O326 O 0.69342 0.47933 0.26937 0.0
O327 O 0.63402 0.53185 0.24594 0.0
O328 O 0.65388 0.50639 0.23798 0.0
C329 C 0.64366 0.51822 0.31789 0.0
C330 C 0.69629 0.56875 0.28119 0.0
O331 O 0.69928 0.54718 0.27676 0.0
O332 O 0.6772 0.5703 0.28476 0.0
C333 C 0.70091 0.46747 0.28415 0.0
O334 O 0.69823 0.47355 0.30608 0.0
C335 C 0.63956 0.51728 0.23064 0.0
Sm336 Sm 0.03912 0.02389 1.00104 0.0
Sm337 Sm 0.07251 0.05077 0.02838 0.0
C338 C 0.99903 1.00503 0.97575 0.0
C339 C 0.97959 0.01414 0.97687 0.0
C340 C 0.97769 0.02856 0.99788 0.0
C341 C 0.96126 0.04049 0.99841 0.0
C342 C 0.94657 0.03838 0.97789 0.0
C343 C 0.94818 0.02352 0.95695 0.0
C344 C 0.96471 0.01152 0.95643 0.0
C345 C 0.07411 0.02332 0.97408 0.0
C346 C 0.04801 0.08162 0.00283 0.0
C347 C 0.11264 0.0703 0.05356 0.0
C348 C 0.13303 0.06342 0.05066 0.0
C349 C 0.13561 0.05216 0.02838 0.0
C350 C 0.15327 0.04229 0.02583 0.0
C351 C 0.16844 0.04322 0.04555 0.0
C352 C 0.16602 0.05472 0.06782 0.0
C353 C 0.14839 0.06484 0.07035 0.0
C354 C 0.03729 0.05095 0.05514 0.0
C355 C 0.06398 0.99276 0.02607 0.0
O356 O 0.00555 0.99713 0.99412 0.0
O357 O 0.01544 0.0193 0.96858 0.0
O358 O 0.0721 0.04216 0.98774 0.0
O359 O 0.05891 1.00446 0.97673 0.0
O360 O 0.03211 0.06146 1.00159 0.0
O361 O 0.06825 0.08209 0.01072 0.0
O362 O 0.10492 0.07967 0.03687 0.0
O363 O 0.09719 0.05371 0.05956 0.0
O364 O 0.03975 0.03225 0.0417 0.0
O365 O 0.05226 0.06998 0.05242 0.0
O366 O 0.07962 0.01343 0.02856 0.0
O367 O 0.0439 0.99165 0.01681 0.0
H368 H 0.98934 0.03118 0.01377 0.0
H369 H 0.96015 0.05154 0.01485 0.0
H370 H 0.93709 0.02177 0.94088 0.0
H371 H 0.96632 1.00088 0.93998 0.0
H372 H 0.12353 0.05025 0.01304 0.0
H373 H 0.15462 0.03312 0.00855 0.0
H374 H 0.17759 0.0556 0.08324 0.0
H375 H 0.14632 0.07304 0.08771 0.0
Sm376 Sm 0.31014 0.78803 0.2508 0.0
Sm377 Sm 0.29404 0.79939 0.29811 0.0
C378 C 0.32483 0.7875 0.21051 0.0
C379 C 0.33656 0.80734 0.20001 0.0
C380 C 0.32898 0.82796 0.19942 0.0
C381 C 0.34031 0.84651 0.1891 0.0
C382 C 0.35938 0.84468 0.17931 0.0
C383 C 0.36814 0.82525 0.18217 0.0
C384 C 0.35664 0.80654 0.19222 0.0
C385 C 0.33645 0.78211 0.28862 0.0
C386 C 0.31939 0.84458 0.27737 0.0
C387 C 0.2883 0.80357 0.34234 0.0
C388 C 0.27233 0.78808 0.35386 0.0
C389 C 0.26496 0.76286 0.3451 0.0
C390 C 0.25304 0.74733 0.35794 0.0
C391 C 0.24779 0.75681 0.37964 0.0
C392 C 0.2529 0.78237 0.38693 0.0
C393 C 0.26538 0.79792 0.37424 0.0
C394 C 0.2596 0.79604 0.2623 0.0
C395 C 0.28299 0.74316 0.26913 0.0
O396 O 0.30389 0.78546 0.21227 0.0
O397 O 0.3363 0.78491 0.22932 0.0
O398 O 0.32839 0.80008 0.28861 0.0
O399 O 0.33013 0.76677 0.26875 0.0
O400 O 0.31671 0.82935 0.25728 0.0
O401 O 0.31475 0.83744 0.29688 0.0
O402 O 0.30286 0.7935 0.33377 0.0
O403 O 0.28007 0.81544 0.32819 0.0
O404 O 0.27847 0.79337 0.26011 0.0
O405 O 0.25805 0.79993 0.28438 0.0
O406 O 0.28735 0.7578 0.28994 0.0
O407 O 0.28602 0.7514 0.24972 0.0
H408 H 0.31393 0.82939 0.20617 0.0
H409 H 0.33302 0.86117 0.18703 0.0
H410 H 0.38293 0.82358 0.17497 0.0
H411 H 0.36312 0.79113 0.19337 0.0
H412 H 0.26967 0.75502 0.32904 0.0
H413 H 0.24964 0.72788 0.35162 0.0
H414 H 0.24846 0.79033 0.40316 0.0
H415 H 0.27044 0.81745 0.38088 0.0
Sm416 Sm 0.57743 0.03934 0.51471 0.0
Sm417 Sm 0.52521 0.03244 0.51458 0.0
C418 C 0.61872 0.0361 0.52316 0.0
C419 C 0.63217 0.01847 0.51959 0.0
C420 C 0.63423 1.00329 0.53567 0.0
C421 C 0.64868 0.98856 0.53347 0.0
C422 C 0.66158 0.98868 0.51521 0.0
C423 C 0.65902 1.00339 0.49879 0.0
C424 C 0.64461 0.01812 0.501 0.0
C425 C 0.55414 0.04076 0.47349 0.0
C426 C 0.54114 0.9838 0.50274 0.0
C427 C 0.48324 0.03363 0.51376 0.0
C428 C 0.46902 0.05025 0.51335 0.0
C429 C 0.47429 0.07102 0.50324 0.0
C430 C 0.46027 0.08633 0.50343 0.0
C431 C 0.44088 0.08128 0.51395 0.0
C432 C 0.43597 0.06059 0.52426 0.0
C433 C 0.44985 0.04531 0.52394 0.0
C434 C 0.54964 0.02894 0.55431 0.0
C435 C 0.56072 0.08769 0.52316 0.0
O436 O 0.6048 0.03344 0.53831 0.0
O437 O 0.61104 0.04323 0.50467 0.0
O438 O 0.54698 0.02719 0.48735 0.0
O439 O 0.5752 0.05208 0.4795 0.0
O440 O 0.5618 0.99779 0.51019 0.0
O441 O 0.52401 0.99281 0.49962 0.0
O442 O 0.49145 0.02743 0.49481 0.0
O443 O 0.49721 0.03723 0.53306 0.0
O444 O 0.55578 0.04453 0.54197 0.0
O445 O 0.5298 0.01464 0.54612 0.0
O446 O 0.54012 0.07355 0.51552 0.0
O447 O 0.57791 0.07904 0.52734 0.0
H448 H 0.6251 1.0032 0.55034 0.0
H449 H 0.65031 0.97773 0.54662 0.0
H450 H 0.66833 1.00372 0.48426 0.0
H451 H 0.64358 0.02966 0.48835 0.0
H452 H 0.48918 0.07539 0.49524 0.0
H453 H 0.46469 0.1022 0.49549 0.0
H454 H 0.42106 0.05584 0.53217 0.0
H455 H 0.44551 0.02946 0.53193 0.0
Sm456 Sm 0.27914 0.29356 0.76287 0.0
Sm457 Sm 0.32795 0.28355 0.76807 0.0
C458 C 0.23597 0.28886 0.76261 0.0
C459 C 0.21971 0.29004 0.77902 0.0
C460 C 0.22011 0.27972 0.79915 0.0
C461 C 0.20389 0.28032 0.81376 0.0
C462 C 0.18698 0.29137 0.80866 0.0
C463 C 0.18703 0.30218 0.7888 0.0
C464 C 0.20316 0.30147 0.77418 0.0
C465 C 0.31276 0.33698 0.76298 0.0
C466 C 0.30773 0.29997 0.81574 0.0
C467 C 0.371 0.28842 0.76749 0.0
C468 C 0.3869 0.28693 0.75057 0.0
C469 C 0.39907 0.30809 0.74386 0.0
C470 C 0.41541 0.30711 0.72955 0.0
C471 C 0.42013 0.28497 0.72162 0.0
C472 C 0.40762 0.26369 0.72794 0.0
C473 C 0.39127 0.26467 0.74226 0.0
C474 C 0.29447 0.24041 0.76868 0.0
C475 C 0.299 0.27615 0.71514 0.0
O476 O 0.24443 0.27039 0.76081 0.0
O477 O 0.25053 0.30938 0.76205 0.0
O478 O 0.31503 0.31599 0.76448 0.0
O479 O 0.2917 0.3351 0.76191 0.0
O480 O 0.28847 0.29744 0.80264 0.0
O481 O 0.32577 0.29782 0.80677 0.0
O482 O 0.36249 0.30686 0.76928 0.0
O483 O 0.35668 0.26808 0.76908 0.0
O484 O 0.29218 0.26121 0.76643 0.0
O485 O 0.31565 0.24256 0.77132 0.0
O486 O 0.318 0.27759 0.72815 0.0
O487 O 0.28146 0.28001 0.7241 0.0
H488 H 0.23285 0.27103 0.80348 0.0
H489 H 0.20461 0.27214 0.82909 0.0
H490 H 0.17421 0.31063 0.78415 0.0
H491 H 0.20252 0.30961 0.75881 0.0
H492 H 0.39637 0.32559 0.75012 0.0
H493 H 0.4249 0.32396 0.72541 0.0
H494 H 0.41059 0.24627 0.72199 0.0
H495 H 0.38234 0.248 0.74717 0.0
Sm496 Sm 0.05215 0.06101 0.52648 0.0
Sm497 Sm 0.05397 0.00683 0.5015 0.0
C498 C 0.06039 0.10843 0.53974 0.0
C499 C 0.06499 0.12806 0.52651 0.0
C500 C 0.0796 0.12833 0.50997 0.0
C501 C 0.08229 0.14577 0.49595 0.0
C502 C 0.07002 0.16276 0.49791 0.0
C503 C 0.05505 0.1622 0.51403 0.0
C504 C 0.05265 0.145 0.52837 0.0
C505 C 0.01374 0.02532 0.5284 0.0
C506 C 0.03471 0.04091 0.46742 0.0
C507 C 0.04479 0.95903 0.48954 0.0
C508 C 0.04441 0.94067 0.50404 0.0
C509 C 0.04141 0.94589 0.52755 0.0
C510 C 0.04241 0.9292 0.54195 0.0
C511 C 0.04674 0.90709 0.53319 0.0
C512 C 0.0502 0.90213 0.50971 0.0
C513 C 0.04905 0.91885 0.49524 0.0
C514 C 0.09199 0.04221 0.49797 0.0
C515 C 0.0725 0.02768 0.56054 0.0
O516 O 0.07574 0.09719 0.54277 0.0
O517 O 0.04022 0.09362 0.53392 0.0
O518 O 0.03088 0.02286 0.52033 0.0
O519 O 0.01681 0.04833 0.53662 0.0
O520 O 0.04151 0.05961 0.4859 0.0
O521 O 0.03627 0.01867 0.46944 0.0
O522 O 0.02929 0.97029 0.4911 0.0
O523 O 0.06455 0.9738 0.49012 0.0
O524 O 0.07562 0.04522 0.50755 0.0
O525 O 0.08795 0.01923 0.48876 0.0
O526 O 0.06813 0.00963 0.5416 0.0
O527 O 0.06823 0.04889 0.55914 0.0
H528 H 0.08872 0.11494 0.50761 0.0
H529 H 0.0939 0.146 0.48354 0.0
H530 H 0.04561 0.17539 0.51586 0.0
H531 H 0.04093 0.14468 0.54067 0.0
H532 H 0.03839 0.96294 0.53483 0.0
H533 H 0.03934 0.93344 0.55982 0.0
H534 H 0.05383 0.88537 0.50257 0.0
H535 H 0.05197 0.91486 0.47728 0.0
Sm536 Sm 0.33093 0.8101 0.77008 0.0
Sm537 Sm 0.28803 0.76999 0.76253 0.0
C538 C 0.37065 0.84015 0.78714 0.0
C539 C 0.3932 0.83798 0.78686 0.0
C540 C 0.4085 0.84612 0.80767 0.0
C541 C 0.42904 0.84133 0.8086 0.0
C542 C 0.43457 0.82837 0.7887 0.0
C543 C 0.41954 0.82098 0.76761 0.0
C544 C 0.39889 0.8256 0.76673 0.0
C545 C 0.31608 0.78741 0.72434 0.0
C546 C 0.3332 0.7506 0.768 0.0
C547 C 0.24813 0.74092 0.74557 0.0
C548 C 0.22653 0.74557 0.74577 0.0
C549 C 0.21024 0.73589 0.72588 0.0
C550 C 0.19081 0.74302 0.72443 0.0
C551 C 0.18748 0.75991 0.7429 0.0
C552 C 0.20359 0.76921 0.76305 0.0
C553 C 0.22314 0.76225 0.7644 0.0
C554 C 0.30384 0.7928 0.80804 0.0
C555 C 0.28505 0.82911 0.76499 0.0
O556 O 0.35877 0.82642 0.79957 0.0
O557 O 0.35956 0.84041 0.76696 0.0
O558 O 0.3158 0.77737 0.74174 0.0
O559 O 0.32545 0.81079 0.73053 0.0
O560 O 0.34385 0.77465 0.77461 0.0
O561 O 0.31136 0.744 0.76056 0.0
O562 O 0.26073 0.75329 0.73269 0.0
O563 O 0.25876 0.74062 0.766 0.0
O564 O 0.30339 0.80256 0.79057 0.0
O565 O 0.29407 0.76944 0.8023 0.0
O566 O 0.27453 0.80505 0.75891 0.0
O567 O 0.30707 0.83585 0.77165 0.0
H568 H 0.40427 0.85551 0.82338 0.0
H569 H 0.44052 0.84747 0.82499 0.0
H570 H 0.42343 0.81086 0.75211 0.0
H571 H 0.38715 0.81882 0.75055 0.0
H572 H 0.21281 0.72332 0.71124 0.0
H573 H 0.17835 0.73529 0.70889 0.0
H574 H 0.20125 0.78221 0.77746 0.0
H575 H 0.23584 0.77035 0.7797 0.0
Sm576 Sm 0.55725 0.04196 0.03523 0.0
Sm577 Sm 0.54395 0.03808 0.98401 0.0
C578 C 0.55555 0.04243 0.0797 0.0
C579 C 0.53536 0.03423 0.08985 0.0
C580 C 0.5159 0.04008 0.08205 0.0
C581 C 0.49634 0.0311 0.09075 0.0
C582 C 0.496 0.01624 0.10741 0.0
C583 C 0.51509 0.00915 0.11402 0.0
C584 C 0.53465 0.01812 0.1053 0.0
C585 C 0.57112 0.00821 0.00766 0.0
C586 C 0.50706 0.01119 0.00899 0.0
C587 C 0.54242 0.03822 0.93939 0.0
C588 C 0.55594 0.0573 0.92925 0.0
C589 C 0.57921 0.06479 0.93532 0.0
C590 C 0.59202 0.08201 0.92468 0.0
C591 C 0.58166 0.09125 0.90738 0.0
C592 C 0.55845 0.08683 0.9042 0.0
C593 C 0.54558 0.06957 0.91487 0.0
C594 C 0.53159 0.07349 0.01124 0.0
C595 C 0.59462 0.07023 0.01096 0.0
O596 O 0.55762 0.06219 0.07097 0.0
O597 O 0.56051 0.02495 0.06614 0.0
O598 O 0.55192 0.01099 0.00423 0.0
O599 O 0.58357 0.02293 0.02614 0.0
O600 O 0.51949 0.02607 0.02785 0.0
O601 O 0.51443 0.00838 0.98886 0.0
O602 O 0.55294 0.025 0.94963 0.0
O603 O 0.52809 0.04516 0.95134 0.0
O604 O 0.5502 0.0694 0.0148 0.0
O605 O 0.51908 0.05927 0.99262 0.0
O606 O 0.58158 0.05817 0.99109 0.0
O607 O 0.58775 0.07045 0.03139 0.0
H608 H 0.51584 0.05194 0.06955 0.0
H609 H 0.48187 0.03692 0.08557 0.0
H610 H 0.51541 0.99812 0.12726 0.0
H611 H 0.54933 0.01286 0.11093 0.0
H612 H 0.58766 0.05636 0.94715 0.0
H613 H 0.60992 0.0853 0.92751 0.0
H614 H 0.55024 0.09406 0.891 0.0
H615 H 0.52761 0.06485 0.91091 0.0
Sm616 Sm 0.31111 0.31142 0.27453 0.0
Sm617 Sm 0.28838 0.25574 0.25374 0.0
C618 C 0.32863 0.35888 0.28055 0.0
C619 C 0.31916 0.37889 0.27802 0.0
C620 C 0.3027 0.37642 0.25895 0.0
C621 C 0.29007 0.39284 0.25947 0.0
C622 C 0.2935 0.41164 0.27921 0.0
C623 C 0.3107 0.41473 0.29775 0.0
C624 C 0.32353 0.39849 0.29708 0.0
C625 C 0.31326 0.28524 0.31022 0.0
C626 C 0.25728 0.291 0.27037 0.0
C627 C 0.27229 0.20784 0.24463 0.0
C628 C 0.28469 0.18928 0.24366 0.0
C629 C 0.29197 0.18236 0.26438 0.0
C630 C 0.3071 0.16859 0.26447 0.0
C631 C 0.3152 0.16123 0.24384 0.0
C632 C 0.30691 0.16681 0.22281 0.0
C633 C 0.29181 0.1807 0.22271 0.0
C634 C 0.29773 0.28486 0.22105 0.0
C635 C 0.34095 0.27659 0.25829 0.0
O636 O 0.32895 0.34377 0.26131 0.0
O637 O 0.32197 0.3479 0.29741 0.0
O638 O 0.30503 0.27697 0.28897 0.0
O639 O 0.32145 0.30861 0.31311 0.0
O640 O 0.27475 0.31033 0.27366 0.0
O641 O 0.2583 0.26837 0.26379 0.0
O642 O 0.27365 0.22128 0.26536 0.0
O643 O 0.274 0.22064 0.22809 0.0
O644 O 0.28985 0.2905 0.23958 0.0
O645 O 0.30024 0.26314 0.21915 0.0
O646 O 0.32522 0.25786 0.26143 0.0
O647 O 0.3382 0.29837 0.25921 0.0
H648 H 0.29884 0.3612 0.24419 0.0
H649 H 0.27719 0.39039 0.24472 0.0
H650 H 0.31356 0.42895 0.31324 0.0
H651 H 0.33593 0.40034 0.31212 0.0
H652 H 0.28669 0.18841 0.28079 0.0
H653 H 0.31277 0.16405 0.28085 0.0
H654 H 0.31281 0.16131 0.20662 0.0
H655 H 0.28645 0.18558 0.20641 0.0
Sm656 Sm 0.55279 0.56136 0.02802 0.0
Sm657 Sm 0.55386 0.5073 0.00232 0.0
C658 C 0.56002 0.60861 0.04176 0.0
C659 C 0.5623 0.6279 0.02817 0.0
C660 C 0.57397 0.62747 0.00908 0.0
C661 C 0.57386 0.64402 0.99442 0.0
C662 C 0.56148 0.66083 0.99812 0.0
C663 C 0.54936 0.66087 0.01698 0.0
C664 C 0.54992 0.64462 0.032 0.0
C665 C 0.51433 0.52612 0.03102 0.0
C666 C 0.53492 0.54209 0.96891 0.0
C667 C 0.54606 0.45993 0.98802 0.0
C668 C 0.54366 0.43995 1.00082 0.0
C669 C 0.53279 0.44018 0.02051 0.0
C670 C 0.53314 0.42305 0.03452 0.0
C671 C 0.54484 0.40573 0.02948 0.0
C672 C 0.55572 0.40553 0.00971 0.0
C673 C 0.55506 0.42249 0.99544 0.0
C674 C 0.59228 0.54263 0.99945 0.0
C675 C 0.57262 0.52731 0.06123 0.0
O676 O 0.57608 0.59811 0.04303 0.0
O677 O 0.54016 0.59315 0.0376 0.0
O678 O 0.53072 0.52309 0.02161 0.0
O679 O 0.51857 0.54902 0.04035 0.0
O680 O 0.54174 0.56059 0.98759 0.0
O681 O 0.53637 0.51978 0.97066 0.0
O682 O 0.53018 0.47072 0.98744 0.0
O683 O 0.56601 0.47522 0.99231 0.0
O684 O 0.5758 0.54547 0.00876 0.0
O685 O 0.5883 0.51971 0.99029 0.0
O686 O 0.56518 0.50845 0.04289 0.0
O687 O 0.57138 0.54961 0.05932 0.0
H688 H 0.58282 0.61408 0.00509 0.0
H689 H 0.58365 0.6437 0.9803 0.0
H690 H 0.5393 0.67328 0.02002 0.0
H691 H 0.54018 0.64462 0.04618 0.0
H692 H 0.52448 0.45393 0.02546 0.0
H693 H 0.52418 0.42342 0.04932 0.0
H694 H 0.56508 0.39259 0.0055 0.0
H695 H 0.56404 0.42249 0.98064 0.0
Sm696 Sm 0.82911 0.30829 0.26516 0.0
Sm697 Sm 0.78805 0.26989 0.2681 0.0
C698 C 0.8697 0.33803 0.2736 0.0
C699 C 0.89159 0.33359 0.27528 0.0
C700 C 0.89685 0.31807 0.28969 0.0
C701 C 0.91725 0.31305 0.29041 0.0
C702 C 0.93265 0.32343 0.27676 0.0
C703 C 0.92753 0.33889 0.26233 0.0
C704 C 0.90698 0.34382 0.26147 0.0
C705 C 0.80543 0.2836 0.22277 0.0
C706 C 0.83292 0.25003 0.26795 0.0
C707 C 0.74771 0.23961 0.25898 0.0
C708 C 0.72574 0.24355 0.25422 0.0
C709 C 0.7163 0.242 0.23096 0.0
C710 C 0.69679 0.24839 0.22628 0.0
C711 C 0.68614 0.25603 0.24475 0.0
C712 C 0.69524 0.25711 0.26799 0.0
C713 C 0.7149 0.25088 0.27271 0.0
C714 C 0.81142 0.29624 0.31031 0.0
C715 C 0.78375 0.32777 0.2654 0.0
O716 O 0.85817 0.33238 0.29027 0.0
O717 O 0.85776 0.33133 0.25264 0.0
O718 O 0.80935 0.27428 0.24015 0.0
O719 O 0.81497 0.30701 0.2271 0.0
O720 O 0.84341 0.27363 0.26857 0.0
O721 O 0.81095 0.2436 0.26709 0.0
O722 O 0.76033 0.24377 0.24288 0.0
O723 O 0.75858 0.24811 0.28039 0.0
O724 O 0.80727 0.30435 0.2923 0.0
O725 O 0.80212 0.27282 0.30696 0.0
O726 O 0.77328 0.3039 0.26342 0.0
O727 O 0.80591 0.33455 0.26772 0.0
H728 H 0.88524 0.30978 0.30043 0.0
H729 H 0.92123 0.30151 0.30205 0.0
H730 H 0.93945 0.3472 0.2519 0.0
H731 H 0.90309 0.35559 0.25006 0.0
H732 H 0.72425 0.23636 0.21634 0.0
H733 H 0.69011 0.2475 0.20821 0.0
H734 H 0.68701 0.26246 0.28246 0.0
H735 H 0.72172 0.25212 0.29081 0.0
Sm736 Sm 0.05459 0.55359 0.52656 0.0
Sm737 Sm 0.04194 0.5404 0.47361 0.0
C738 C 0.05221 0.56268 0.57137 0.0
C739 C 0.0369 0.54704 0.58362 0.0
C740 C 0.01892 0.55438 0.5913 0.0
C741 C 1.00322 0.53895 0.60119 0.0
C742 C 0.0055 0.5161 0.60393 0.0
C743 C 0.02303 0.50834 0.59559 0.0
C744 C 0.03855 0.52361 0.58538 0.0
C745 C 0.06392 0.51212 0.50637 0.0
C746 C 1.00308 0.5239 0.50198 0.0
C747 C 0.04342 0.53311 0.42877 0.0
C748 C 0.06023 0.54995 0.41899 0.0
C749 C 0.08235 0.54916 0.42222 0.0
C750 C 0.09933 0.56822 0.41848 0.0
C751 C 0.09475 0.58849 0.41083 0.0
C752 C 0.07256 0.58922 0.4074 0.0
C753 C 0.05547 0.57011 0.41135 0.0
C754 C 0.03435 0.58287 0.4943 0.0
C755 C 0.09361 0.57036 0.49938 0.0
O756 O 0.04264 0.57269 0.55638 0.0
O757 O 0.06782 0.55411 0.56339 0.0
O758 O 0.04633 0.51767 0.5003 0.0
O759 O 0.07579 0.5273 0.52487 0.0
O760 O 0.01696 0.53941 0.51955 0.0
O761 O 0.00957 0.51696 0.48191 0.0
O762 O 0.05096 0.52009 0.44224 0.0
O763 O 0.02875 0.54266 0.43763 0.0
O764 O 0.05142 0.57626 0.49963 0.0
O765 O 0.02115 0.56744 0.47675 0.0
O766 O 0.08054 0.55455 0.48119 0.0
O767 O 0.08577 0.57802 0.51828 0.0
H768 H 0.01719 0.57218 0.5899 0.0
H769 H 0.99014 0.54554 0.60809 0.0
H770 H 0.02528 0.49094 0.59801 0.0
H771 H 0.05194 0.51713 0.57917 0.0
H772 H 0.08677 0.53414 0.42839 0.0
H773 H 0.11603 0.56647 0.42092 0.0
H774 H 0.06835 0.60443 0.40146 0.0
H775 H 0.03861 0.57149 0.40913 0.0
Sm776 Sm 0.77999 0.79136 0.26445 0.0
Sm777 Sm 0.82958 0.78301 0.26893 0.0
C778 C 0.73681 0.78569 0.26538 0.0
C779 C 0.72059 0.78634 0.28214 0.0
C780 C 0.70757 0.76457 0.2871 0.0
C781 C 0.6907 0.76482 0.30087 0.0
C782 C 0.68629 0.78684 0.31002 0.0
C783 C 0.69977 0.80871 0.30567 0.0
C784 C 0.7166 0.80846 0.29183 0.0
C785 C 0.8129 0.83522 0.26382 0.0
C786 C 0.80997 0.79972 0.31674 0.0
C787 C 0.87265 0.78884 0.26744 0.0
C788 C 0.8882 0.78696 0.25017 0.0
C789 C 0.89954 0.80772 0.24225 0.0
C790 C 0.9156 0.8065 0.22763 0.0
C791 C 0.92088 0.7845 0.22057 0.0
C792 C 0.90918 0.76359 0.22808 0.0
C793 C 0.89311 0.76481 0.24272 0.0
C794 C 0.79722 0.73922 0.2706 0.0
C795 C 0.79971 0.77486 0.21631 0.0
O796 O 0.74557 0.76745 0.26304 0.0
O797 O 0.75096 0.80635 0.26432 0.0
O798 O 0.81539 0.81437 0.26536 0.0
O799 O 0.79181 0.83306 0.26308 0.0
O800 O 0.79016 0.7958 0.30423 0.0
O801 O 0.82803 0.79835 0.30751 0.0
O802 O 0.86358 0.80682 0.26858 0.0
O803 O 0.85896 0.76857 0.27016 0.0
O804 O 0.7941 0.75965 0.26812 0.0
O805 O 0.81853 0.74223 0.27263 0.0
O806 O 0.81906 0.77731 0.22916 0.0
O807 O 0.78189 0.77745 0.22553 0.0
H808 H 0.71006 0.7472 0.27988 0.0
H809 H 0.68088 0.74766 0.30411 0.0
H810 H 0.69674 0.82598 0.3122 0.0
H811 H 0.7261 0.82559 0.28823 0.0
H812 H 0.89642 0.82514 0.24782 0.0
H813 H 0.92446 0.8231 0.22256 0.0
H814 H 0.91258 0.74627 0.22283 0.0
H815 H 0.88483 0.74845 0.24856 0.0
Sm816 Sm 0.8101 0.29278 0.75445 0.0
Sm817 Sm 0.79396 0.30273 0.79652 0.0
C818 C 0.82795 0.2935 0.71579 0.0
C819 C 0.83966 0.31343 0.70528 0.0
C820 C 0.83038 0.33228 0.70158 0.0
C821 C 0.84097 0.34993 0.68985 0.0
C822 C 0.86105 0.34906 0.68183 0.0
C823 C 0.87144 0.33177 0.68789 0.0
C824 C 0.86068 0.3139 0.69934 0.0
C825 C 0.83635 0.28546 0.79175 0.0
C826 C 0.81771 0.349 0.77845 0.0
C827 C 0.78113 0.3036 0.83816 0.0
C828 C 0.76879 0.28542 0.8501 0.0
C829 C 0.76919 0.26105 0.84469 0.0
C830 C 0.75946 0.24454 0.85802 0.0
C831 C 0.74925 0.25226 0.87689 0.0
C832 C 0.74716 0.2761 0.88084 0.0
C833 C 0.75698 0.29263 0.86755 0.0
C834 C 0.7657 0.30766 0.75941 0.0
C835 C 0.77993 0.24654 0.76621 0.0
O836 O 0.80666 0.29032 0.71592 0.0
O837 O 0.83847 0.29165 0.73547 0.0
O838 O 0.8295 0.30421 0.79188 0.0
O839 O 0.82795 0.26945 0.77257 0.0
O840 O 0.81309 0.33316 0.75862 0.0
O841 O 0.8157 0.34157 0.79833 0.0
O842 O 0.80079 0.30205 0.83432 0.0
O843 O 0.76967 0.30786 0.8203 0.0
O844 O 0.77443 0.29031 0.75923 0.0
O845 O 0.77209 0.32311 0.77924 0.0
O846 O 0.78427 0.26017 0.78754 0.0
O847 O 0.78545 0.25618 0.74826 0.0
H848 H 0.81446 0.33275 0.7067 0.0
H849 H 0.83238 0.36281 0.68518 0.0
H850 H 0.88699 0.33086 0.68204 0.0
H851 H 0.86836 0.29986 0.70273 0.0
H852 H 0.77801 0.25511 0.83102 0.0
H853 H 0.76152 0.22636 0.85475 0.0
H854 H 0.73923 0.28238 0.89522 0.0
H855 H 0.7562 0.3113 0.8716 0.0
Sm856 Sm 0.81393 0.81012 0.77244 0.0
Sm857 Sm 0.78908 0.75422 0.75261 0.0
C858 C 0.82805 0.8573 0.77377 0.0
C859 C 0.81849 0.87742 0.78055 0.0
C860 C 0.81264 0.88966 0.76319 0.0
C861 C 0.79942 0.90519 0.76741 0.0
C862 C 0.79222 0.90905 0.78919 0.0
C863 C 0.79909 0.89806 0.80712 0.0
C864 C 0.81204 0.8821 0.80277 0.0
C865 C 0.81036 0.7858 0.80968 0.0
C866 C 0.76013 0.78924 0.77139 0.0
C867 C 0.77762 0.70615 0.74115 0.0
C868 C 0.79059 0.68842 0.74216 0.0
C869 C 0.80234 0.68724 0.76353 0.0
C870 C 0.8168 0.67273 0.76388 0.0
C871 C 0.82003 0.65926 0.74289 0.0
C872 C 0.8077 0.6598 0.72159 0.0
C873 C 0.79307 0.67421 0.72126 0.0
C874 C 0.79047 0.78494 0.72102 0.0
C875 C 0.84385 0.77496 0.75845 0.0
O876 O 0.8168 0.84145 0.75499 0.0
O877 O 0.83498 0.84716 0.79044 0.0
O878 O 0.80344 0.77678 0.78818 0.0
O879 O 0.81981 0.80904 0.81211 0.0
O880 O 0.77701 0.80785 0.77011 0.0
O881 O 0.76126 0.76651 0.76823 0.0
O882 O 0.7748 0.71797 0.7612 0.0
O883 O 0.78237 0.72017 0.72592 0.0
O884 O 0.80613 0.78549 0.73663 0.0
O885 O 0.77294 0.76729 0.72151 0.0
O886 O 0.82637 0.75593 0.75707 0.0
O887 O 0.84302 0.79763 0.76254 0.0
H888 H 0.81731 0.88618 0.74591 0.0
H889 H 0.79433 0.91374 0.75346 0.0
H890 H 0.79362 0.90097 0.82403 0.0
H891 H 0.81615 0.87269 0.81639 0.0
H892 H 0.80084 0.69799 0.77997 0.0
H893 H 0.82565 0.67227 0.78064 0.0
H894 H 0.80989 0.64973 0.70512 0.0
H895 H 0.78427 0.67491 0.70455 0.0
Sm896 Sm 0.53791 0.52317 0.50158 0.0
Sm897 Sm 0.57222 0.5504 0.52834 0.0
C898 C 0.49699 0.50562 0.47795 0.0
C899 C 0.47829 0.51573 0.48119 0.0
C900 C 0.4795 0.53239 0.50197 0.0
C901 C 0.46329 0.5445 0.50448 0.0
C902 C 0.44535 0.54 0.48633 0.0
C903 C 0.44401 0.52301 0.46561 0.0
C904 C 0.46046 0.51104 0.46301 0.0
C905 C 0.57292 0.52334 0.47423 0.0
C906 C 0.54702 0.58086 0.50349 0.0
C907 C 0.61298 0.56929 0.55227 0.0
C908 C 0.6324 0.56065 0.54871 0.0
C909 C 0.63199 0.54529 0.52736 0.0
C910 C 0.64897 0.53445 0.52434 0.0
C911 C 0.66672 0.53876 0.54263 0.0
C912 C 0.66717 0.55423 0.56404 0.0
C913 C 0.65003 0.56511 0.56707 0.0
C914 C 0.53748 0.55054 0.55578 0.0
C915 C 0.56318 0.49217 0.5259 0.0
O916 O 0.50411 0.49686 0.49544 0.0
O917 O 0.51319 0.51959 0.47017 0.0
O918 O 0.57007 0.54187 0.4875 0.0
O919 O 0.5582 0.50411 0.47704 0.0
O920 O 0.5313 0.56104 0.50383 0.0
O921 O 0.56749 0.58111 0.51012 0.0
O922 O 0.60527 0.57822 0.53523 0.0
O923 O 0.5973 0.55402 0.55943 0.0
O924 O 0.54 0.53186 0.5424 0.0
O925 O 0.55223 0.56967 0.55282 0.0
O926 O 0.57885 0.51276 0.528 0.0
O927 O 0.54295 0.491 0.5171 0.0
H928 H 0.49332 0.53647 0.51613 0.0
H929 H 0.46505 0.55775 0.52047 0.0
H930 H 0.43023 0.51895 0.45143 0.0
H931 H 0.45946 0.49846 0.44676 0.0
H932 H 0.61819 0.54115 0.51316 0.0
H933 H 0.64794 0.52223 0.50784 0.0
H934 H 0.68073 0.55789 0.57838 0.0
H935 H 0.65032 0.57656 0.5838 0.0
Sm936 Sm 0.07787 0.53846 0.00973 0.0
Sm937 Sm 0.02642 0.53548 0.01299 0.0
C938 C 0.11902 0.53419 0.0151 0.0
C939 C 0.13247 0.51656 0.01289 0.0
C940 C 0.14261 0.51143 0.03329 0.0
C941 C 0.15701 0.49672 0.03195 0.0
C942 C 0.16178 0.48673 0.01014 0.0
C943 C 0.15137 0.49156 0.98965 0.0
C944 C 0.13691 0.50633 0.991 0.0
C945 C 0.05021 0.5327 0.96866 0.0
C946 C 0.04067 0.48502 0.0069 0.0
C947 C 0.98558 0.54002 0.00539 0.0
C948 C 0.97106 0.55622 0.00963 0.0
C949 C 0.96409 0.56658 0.99113 0.0
C950 C 0.94854 0.57972 0.99336 0.0
C951 C 0.93951 0.58296 0.01418 0.0
C952 C 0.94697 0.57341 0.03311 0.0
C953 C 0.9625 0.55996 0.03079 0.0
C954 C 0.05267 0.53885 0.05377 0.0
C955 C 0.06455 0.5894 0.01813 0.0
O956 O 0.10673 0.53369 0.03174 0.0
O957 O 0.1096 0.53884 0.99599 0.0
O958 O 0.04541 0.52304 0.98573 0.0
O959 O 0.07112 0.54495 0.97195 0.0
O960 O 0.06164 0.49865 0.013 0.0
O961 O 0.02409 0.49456 0.00213 0.0
O962 O 1.00071 0.5463 0.99215 0.0
O963 O 0.99221 0.52997 0.02232 0.0
O964 O 0.05856 0.54963 0.03754 0.0
O965 O 0.03139 0.528 0.05007 0.0
O966 O 0.04336 0.57646 0.0145 0.0
O967 O 0.08123 0.57949 0.01947 0.0
H968 H 0.13981 0.51929 0.05044 0.0
H969 H 0.16495 0.4938 0.04815 0.0
H970 H 0.15444 0.48398 0.97254 0.0
H971 H 0.12952 0.51001 0.97492 0.0
H972 H 0.97027 0.56402 0.97458 0.0
H973 H 0.94332 0.58713 0.9786 0.0
H974 H 0.94023 0.57562 0.04934 0.0
H975 H 0.96739 0.55208 0.04533 0.0
C976 C 0.03697 0.20164 0.95385 0.0
C977 C 0.0144 0.19979 0.94753 0.0
C978 C 0.04358 0.18317 0.96325 0.0
C979 C 0.02727 0.16192 0.96568 0.0
C980 C 0.0045 0.1597 0.95859 0.0
C981 C 0.99837 0.17876 0.95002 0.0
C982 C 0.06797 0.18672 0.9712 0.0
C983 C 0.98652 0.13724 0.96025 0.0
C984 C 0.04291 0.10303 0.96985 0.0
C985 C 0.04334 0.10252 0.99375 0.0
C986 C 0.03825 0.12247 0.96061 0.0
C987 C 0.03383 0.14195 0.97562 0.0
C988 C 0.03459 0.14162 0.99994 0.0
C989 C 0.03933 0.12191 0.0087 0.0
C990 C 0.03763 0.12192 0.93465 0.0
C991 C 0.03015 0.16196 0.01667 0.0
H992 H 0.04943 0.21801 0.95237 0.0
H993 H 0.9809 0.17721 0.94521 0.0
H994 H 0.07087 0.18633 0.99017 0.0
H995 H 0.0733 0.17155 0.96166 0.0
H996 H 0.07858 0.20427 0.96832 0.0
H997 H 0.96969 0.13775 0.95294 0.0
H998 H 0.98976 0.12064 0.95066 0.0
H999 H 0.9866 0.13549 0.97886 0.0
H1000 H 0.04612 0.08806 0.95832 0.0
H1001 H 0.03974 0.12154 0.02722 0.0
H1002 H 0.04927 0.13881 0.93175 0.0
H1003 H 0.0207 0.12128 0.92657 0.0
H1004 H 0.04215 0.10593 0.92546 0.0
H1005 H 0.04132 0.17982 0.01529 0.0
H1006 H 0.03258 0.15974 0.03519 0.0
H1007 H 0.01281 0.16251 0.01191 0.0
C1008 C 0.16293 0.7913 0.15728 0.0
C1009 C 0.15758 0.81351 0.16029 0.0
C1010 C 0.17949 0.78739 0.1731 0.0
C1011 C 0.19118 0.80623 0.19247 0.0
C1012 C 0.1857 0.82871 0.19562 0.0
C1013 C 0.16904 0.83212 0.17944 0.0
C1014 C 0.18465 0.76317 0.16891 0.0
C1015 C 0.19773 0.84934 0.2159 0.0
C1016 C 0.21981 0.79097 0.24665 0.0
C1017 C 0.24215 0.79659 0.24329 0.0
C1018 C 0.20307 0.7933 0.22996 0.0
C1019 C 0.2088 0.80227 0.20964 0.0
C1020 C 0.23136 0.80769 0.20602 0.0
C1021 C 0.2477 0.80447 0.22272 0.0
C1022 C 0.17925 0.78645 0.23424 0.0
C1023 C 0.23837 0.81762 0.18485 0.0
H1024 H 0.15442 0.77708 0.14215 0.0
H1025 H 0.16528 0.84949 0.18148 0.0
H1026 H 0.20229 0.76598 0.16651 0.0
H1027 H 0.18234 0.75459 0.18442 0.0
H1028 H 0.17393 0.75032 0.15318 0.0
H1029 H 0.19165 0.86567 0.21591 0.0
H1030 H 0.19558 0.84328 0.23275 0.0
H1031 H 0.21583 0.85461 0.2151 0.0
H1032 H 0.2154 0.78476 0.26248 0.0
H1033 H 0.26497 0.80906 0.22014 0.0
H1034 H 0.16851 0.77295 0.21897 0.0
H1035 H 0.17307 0.80281 0.23618 0.0
H1036 H 0.17734 0.77858 0.25024 0.0
H1037 H 0.22878 0.80498 0.16851 0.0
H1038 H 0.25641 0.82041 0.18427 0.0
H1039 H 0.23466 0.83533 0.1851 0.0
C1040 C 0.51294 0.83855 0.48342 0.0
C1041 C 0.52201 0.82931 0.46422 0.0
C1042 C 0.517 0.86374 0.49123 0.0
C1043 C 0.5305 0.88012 0.47963 0.0
C1044 C 0.54076 0.87101 0.46113 0.0
C1045 C 0.5364 0.84568 0.45364 0.0
C1046 C 0.50596 0.87276 0.51119 0.0
C1047 C 0.55545 0.88797 0.44849 0.0
C1048 C 0.51979 0.94181 0.48085 0.0
C1049 C 0.53763 0.95715 0.49747 0.0
C1050 C 0.51735 0.91667 0.4748 0.0
C1051 C 0.53289 0.90668 0.48599 0.0
C1052 C 0.55059 0.92203 0.50324 0.0
C1053 C 0.55286 0.94712 0.50862 0.0
C1054 C 0.49834 0.90085 0.45617 0.0
C1055 C 0.5672 0.91201 0.51593 0.0
H1056 H 0.5019 0.82608 0.49182 0.0
H1057 H 0.54349 0.83873 0.43883 0.0
H1058 H 0.51838 0.88697 0.52469 0.0
H1059 H 0.49337 0.88128 0.50449 0.0
H1060 H 0.49757 0.85781 0.51967 0.0
H1061 H 0.56345 0.87811 0.43566 0.0
H1062 H 0.54539 0.89755 0.43899 0.0
H1063 H 0.56864 0.90212 0.46127 0.0
H1064 H 0.50809 0.94955 0.47212 0.0
H1065 H 0.56657 0.9589 0.52168 0.0
H1066 H 0.48777 0.88623 0.46351 0.0
H1067 H 0.50494 0.89181 0.44145 0.0
H1068 H 0.48776 0.91145 0.4491 0.0
H1069 H 0.55845 0.89756 0.52472 0.0
H1070 H 0.57967 0.92635 0.52933 0.0
H1071 H 0.5761 0.90348 0.50315 0.0
C1072 C 0.52361 0.28686 0.64904 0.0
C1073 C 0.54138 0.3063 0.66206 0.0
C1074 C 0.50288 0.2804 0.65687 0.0
C1075 C 0.49971 0.29379 0.67816 0.0
C1076 C 0.51769 0.31311 0.69155 0.0
C1077 C 0.53823 0.3191 0.68338 0.0
C1078 C 0.48427 0.25958 0.64206 0.0
C1079 C 0.51512 0.32777 0.71443 0.0
C1080 C 0.44308 0.29907 0.69111 0.0
C1081 C 0.43889 0.28452 0.70802 0.0
C1082 C 0.46217 0.30115 0.68025 0.0
C1083 C 0.47755 0.28837 0.68637 0.0
C1084 C 0.47269 0.2724 0.70225 0.0
C1085 C 0.45351 0.27074 0.71293 0.0
C1086 C 0.4664 0.31796 0.66303 0.0
C1087 C 0.48831 0.25797 0.70887 0.0
H1088 H 0.52581 0.27678 0.63256 0.0
H1089 H 0.55179 0.33406 0.69366 0.0
H1090 H 0.47593 0.24724 0.65309 0.0
H1091 H 0.47156 0.26696 0.63367 0.0
H1092 H 0.49028 0.24872 0.62803 0.0
H1093 H 0.53079 0.3419 0.72302 0.0
H1094 H 0.50198 0.33691 0.71126 0.0
H1095 H 0.5098 0.31549 0.72672 0.0
H1096 H 0.43163 0.3093 0.68669 0.0
H1097 H 0.45054 0.25945 0.72596 0.0
H1098 H 0.47025 0.30838 0.64664 0.0
H1099 H 0.48108 0.33381 0.67067 0.0
H1100 H 0.45195 0.32485 0.65852 0.0
H1101 H 0.49305 0.24858 0.69293 0.0
H1102 H 0.48085 0.24412 0.71899 0.0
H1103 H 0.5038 0.27056 0.71971 0.0
C1104 C 1.00083 0.82049 0.61542 0.0
C1105 C 0.01205 0.8036 0.6205 0.0
C1106 C 0.00949 0.83783 0.60219 0.0
C1107 C 0.02992 0.83837 0.59401 0.0
C1108 C 0.04176 0.82199 0.59981 0.0
C1109 C 0.03263 0.80471 0.61292 0.0
C1110 C 0.99641 0.85508 0.59633 0.0
C1111 C 0.06375 0.82232 0.59167 0.0
C1112 C 0.03443 0.86416 0.53893 0.0
C1113 C 0.04598 0.88869 0.54815 0.0
C1114 C 0.03034 0.84718 0.55357 0.0
C1115 C 0.03789 0.85498 0.57801 0.0
C1116 C 0.05096 0.87931 0.5872 0.0
C1117 C 0.05487 0.89591 0.57212 0.0
C1118 C 0.01657 0.8213 0.54306 0.0
C1119 C 0.05963 0.88822 0.61312 0.0
H1120 H 0.98498 0.8198 0.62128 0.0
H1121 H 0.04154 0.79188 0.617 0.0
H1122 H 0.00692 0.87426 0.60208 0.0
H1123 H 0.99138 0.85181 0.57703 0.0
H1124 H 0.98121 0.85289 0.60474 0.0
H1125 H 0.0714 0.80919 0.5987 0.0
H1126 H 0.06136 0.8177 0.57222 0.0
H1127 H 0.07555 0.84089 0.59723 0.0
H1128 H 0.02743 0.85848 0.52047 0.0
H1129 H 0.06426 0.91476 0.57924 0.0
H1130 H 0.99999 0.81806 0.54873 0.0
H1131 H 0.02456 0.80809 0.54935 0.0
H1132 H 0.01416 0.81751 0.52356 0.0
H1133 H 0.04563 0.88997 0.62263 0.0
H1134 H 0.07235 0.90629 0.61684 0.0
H1135 H 0.06697 0.87497 0.62026 0.0
C1136 C 0.55625 0.83673 0.82905 0.0
C1137 C 0.56139 0.81461 0.82827 0.0
C1138 C 0.53604 0.83735 0.81727 0.0
C1139 C 0.52144 0.81551 0.80331 0.0
C1140 C 0.5282 0.79392 0.79973 0.0
C1141 C 0.54792 0.79349 0.81296 0.0
C1142 C 0.52906 0.86047 0.8226 0.0
C1143 C 0.51356 0.77066 0.78398 0.0
C1144 C 0.46206 0.81212 0.8094 0.0
C1145 C 0.45569 0.82192 0.79037 0.0
C1146 C 0.48303 0.80836 0.81293 0.0
C1147 C 0.49786 0.8144 0.79684 0.0
C1148 C 0.49091 0.82261 0.77665 0.0
C1149 C 0.46981 0.8264 0.77367 0.0
C1150 C 0.48979 0.79953 0.83476 0.0
C1151 C 0.50618 0.82867 0.75895 0.0
H1152 H 0.56658 0.8529 0.84136 0.0
H1153 H 0.55196 0.77638 0.81263 0.0
H1154 H 0.52203 0.86492 0.80626 0.0
H1155 H 0.51588 0.85775 0.83387 0.0
H1156 H 0.54313 0.87635 0.83194 0.0
H1157 H 0.5234 0.75805 0.77819 0.0
H1158 H 0.50088 0.76123 0.79367 0.0
H1159 H 0.50471 0.77455 0.76827 0.0
H1160 H 0.45081 0.80806 0.82195 0.0
H1161 H 0.46477 0.83385 0.75885 0.0
H1162 H 0.50364 0.81402 0.84639 0.0
H1163 H 0.49585 0.78333 0.83006 0.0
H1164 H 0.47585 0.79458 0.84481 0.0
H1165 H 0.51908 0.84624 0.76629 0.0
H1166 H 0.49702 0.8304 0.74231 0.0
H1167 H 0.51487 0.81447 0.75504 0.0
C1168 C 0.50324 0.18332 0.09056 0.0
C1169 C 0.4939 0.1743 0.10916 0.0
C1170 C 0.50756 0.16757 0.07201 0.0
C1171 C 0.50215 0.14234 0.07213 0.0
C1172 C 0.49107 0.13292 0.08983 0.0
C1173 C 0.48714 0.14911 0.10828 0.0
C1174 C 0.51938 0.17813 0.05331 0.0
C1175 C 0.48474 0.10595 0.09015 0.0
C1176 C 0.50423 0.09626 0.01949 0.0
C1177 C 0.52482 0.09231 0.02599 0.0
C1178 C 0.49686 0.11322 0.034 0.0
C1179 C 0.51039 0.12615 0.05547 0.0
C1180 C 0.53146 0.12267 0.06181 0.0
C1181 C 0.53849 0.10578 0.04685 0.0
C1182 C 0.47442 0.11678 0.0267 0.0
C1183 C 0.54626 0.13624 0.08469 0.0
H1184 H 0.50835 0.20281 0.09112 0.0
H1185 H 0.47956 0.14209 0.12246 0.0
H1186 H 0.53683 0.17728 0.05581 0.0
H1187 H 0.51136 0.16734 0.03558 0.0
H1188 H 0.51961 0.19746 0.05395 0.0
H1189 H 0.47415 0.10138 0.10371 0.0
H1190 H 0.4757 0.09513 0.07278 0.0
H1191 H 0.50002 0.10022 0.09383 0.0
H1192 H 0.49374 0.08585 0.00321 0.0
H1193 H 0.55447 0.10275 0.0517 0.0
H1194 H 0.47594 0.13645 0.02774 0.0
H1195 H 0.46296 0.11025 0.03891 0.0
H1196 H 0.46682 0.10676 0.00857 0.0
H1197 H 0.54932 0.15621 0.08614 0.0
H1198 H 0.56254 0.13215 0.08644 0.0
H1199 H 0.53786 0.13118 0.09963 0.0
C1200 C 0.1746 0.32808 0.34774 0.0
C1201 C 0.15411 0.32883 0.33651 0.0
C1202 C 0.18984 0.32049 0.33475 0.0
C1203 C 0.18421 0.31311 0.31004 0.0
C1204 C 0.1634 0.31344 0.29865 0.0
C1205 C 0.14866 0.32157 0.31203 0.0
C1206 C 0.21205 0.32063 0.34743 0.0
C1207 C 0.15674 0.3052 0.27238 0.0
C1208 C 0.23385 0.31883 0.27853 0.0
C1209 C 0.2363 0.29524 0.27621 0.0
C1210 C 0.21624 0.3246 0.28846 0.0
C1211 C 0.20067 0.30626 0.29613 0.0
C1212 C 0.2021 0.28198 0.29227 0.0
C1213 C 0.21997 0.27672 0.28229 0.0
C1214 C 0.21521 0.35069 0.29221 0.0
C1215 C 0.18564 0.26191 0.30005 0.0
H1216 H 0.17883 0.33366 0.36667 0.0
H1217 H 0.13268 0.3218 0.30334 0.0
H1218 H 0.21424 0.30206 0.34378 0.0
H1219 H 0.22571 0.33291 0.34091 0.0
H1220 H 0.21378 0.32679 0.36673 0.0
H1221 H 0.13955 0.30558 0.26637 0.0
H1222 H 0.16837 0.31713 0.26337 0.0
H1223 H 0.15787 0.28635 0.26685 0.0
H1224 H 0.24628 0.33315 0.27353 0.0
H1225 H 0.22181 0.25845 0.28053 0.0
H1226 H 0.21896 0.35878 0.31127 0.0
H1227 H 0.19826 0.35142 0.28575 0.0
H1228 H 0.22727 0.36214 0.2832 0.0
H1229 H 0.18908 0.26432 0.31944 0.0
H1230 H 0.18672 0.24353 0.29217 0.0
H1231 H 0.16838 0.26272 0.29533 0.0
C1232 C 0.96539 0.06078 0.16898 0.0
C1233 C 0.97656 0.05545 0.18892 0.0
C1234 C 0.9738 0.06015 0.14684 0.0
C1235 C 0.9942 0.05425 0.14376 0.0
C1236 C 0.00564 0.04946 0.164 0.0
C1237 C 0.99683 0.04994 0.18562 0.0
C1238 C 0.96047 0.0654 0.12641 0.0
C1239 C 0.02748 0.0436 0.16288 0.0
C1240 C 0.01027 0.03043 0.08213 0.0
C1241 C 0.02507 0.05128 0.07704 0.0
C1242 C 0.99978 0.03125 0.10292 0.0
C1243 C 1.00393 0.05338 0.12001 0.0
C1244 C 0.01876 0.07443 0.1148 0.0
C1245 C 0.02876 0.07317 0.09384 0.0
C1246 C 0.98423 0.00808 0.1067 0.0
C1247 C 0.02455 0.09856 0.13181 0.0
H1248 H 0.9497 0.0648 0.17039 0.0
H1249 H 0.00612 0.04575 0.20027 0.0
H1250 H 0.97074 0.081 0.12004 0.0
H1251 H 0.95575 0.04936 0.11167 0.0
H1252 H 0.94513 0.06973 0.13107 0.0
H1253 H 0.03482 0.04077 0.17996 0.0
H1254 H 0.02507 0.02684 0.14942 0.0
H1255 H 0.03957 0.05864 0.15753 0.0
H1256 H 0.00687 0.01325 0.06983 0.0
H1257 H 0.03997 0.08966 0.0908 0.0
H1258 H 0.96802 0.0111 0.10979 0.0
H1259 H 0.99125 1.0028 0.12259 0.0
H1260 H 0.9813 0.99272 0.09151 0.0
H1261 H 0.00918 0.10365 0.13494 0.0
H1262 H 0.03578 0.11349 0.12539 0.0
H1263 H 0.0328 0.09693 0.14896 0.0
C1264 C 0.23438 0.66589 0.46999 0.0
C1265 C 0.25506 0.66091 0.47172 0.0
C1266 C 0.22879 0.67964 0.45403 0.0
C1267 C 0.24394 0.68785 0.439 0.0
C1268 C 0.26401 0.68114 0.43931 0.0
C1269 C 0.2695 0.66799 0.45597 0.0
C1270 C 0.20758 0.68705 0.45466 0.0
C1271 C 0.28032 0.68914 0.42304 0.0
C1272 C 0.22908 0.71569 0.38773 0.0
C1273 C 0.24126 0.74028 0.39617 0.0
C1274 C 0.22883 0.69831 0.40183 0.0
C1275 C 0.24033 0.70596 0.42509 0.0
C1276 C 0.25036 0.73106 0.43454 0.0
C1277 C 0.25093 0.74788 0.4199 0.0
C1278 C 0.218 0.67163 0.3912 0.0
C1279 C 0.26221 0.74 0.45958 0.0
H1280 H 0.22317 0.66054 0.48223 0.0
H1281 H 0.28539 0.66399 0.4572 0.0
H1282 H 0.21175 0.70697 0.46169 0.0
H1283 H 0.19813 0.68345 0.43672 0.0
H1284 H 0.19668 0.67732 0.46586 0.0
H1285 H 0.29369 0.67991 0.42351 0.0
H1286 H 0.27157 0.68525 0.40473 0.0
H1287 H 0.28816 0.70914 0.4282 0.0
H1288 H 0.22096 0.70973 0.36962 0.0
H1289 H 0.26053 0.76669 0.42673 0.0
H1290 H 0.20774 0.6625 0.40319 0.0
H1291 H 0.23111 0.66234 0.38845 0.0
H1292 H 0.20735 0.66899 0.37403 0.0
H1293 H 0.25196 0.73127 0.4718 0.0
H1294 H 0.26613 0.76014 0.46515 0.0
H1295 H 0.27805 0.73501 0.46126 0.0
C1296 C 0.63152 1.0044 0.65525 0.0
C1297 C 0.61908 1.00296 0.67372 0.0
C1298 C 0.62187 0.00622 0.63318 0.0
C1299 C 0.59932 0.00607 0.62973 0.0
C1300 C 0.58614 1.00185 0.64757 0.0
C1301 C 0.59621 1.00009 0.66939 0.0
C1302 C 0.63632 0.0109 0.61448 0.0
C1303 C 0.56203 1.00185 0.64451 0.0
C1304 C 0.57836 0.04247 0.58947 0.0
C1305 C 0.56467 0.02362 0.57188 0.0
C1306 C 0.59075 0.03713 0.60813 0.0
C1307 C 0.58978 0.01245 0.60839 0.0
C1308 C 0.57738 0.99364 0.5895 0.0
C1309 C 0.56451 0.99943 0.5716 0.0
C1310 C 0.60343 0.05768 0.62828 0.0
C1311 C 0.5767 0.96731 0.58888 0.0
H1312 H 0.64932 0.00703 0.65874 0.0
H1313 H 0.58675 0.99919 0.68383 0.0
H1314 H 0.62777 0.99939 0.59719 0.0
H1315 H 0.63951 0.03024 0.61273 0.0
H1316 H 0.65259 0.00731 0.61877 0.0
H1317 H 0.55377 0.99653 0.65947 0.0
H1318 H 0.56099 0.02039 0.64305 0.0
H1319 H 0.55268 0.98914 0.6281 0.0
H1320 H 0.57834 0.06116 0.58934 0.0
H1321 H 0.55406 0.98502 0.55755 0.0
H1322 H 0.62032 0.05614 0.63364 0.0
H1323 H 0.59457 0.05658 0.64365 0.0
H1324 H 0.605 0.0759 0.62379 0.0
H1325 H 0.59377 0.96568 0.593 0.0
H1326 H 0.56877 0.95548 0.5715 0.0
H1327 H 0.56715 0.96043 0.60244 0.0
C1328 C 0.31174 0.31136 0.95555 0.0
C1329 C 0.31405 0.33556 0.96628 0.0
C1330 C 0.30959 0.30442 0.93099 0.0
C1331 C 0.31067 0.32231 0.91694 0.0
C1332 C 0.31281 0.34673 0.92773 0.0
C1333 C 0.31409 0.35296 0.9522 0.0
C1334 C 0.30653 0.27803 0.92011 0.0
C1335 C 0.31458 0.3665 0.91353 0.0
C1336 C 0.32891 0.31111 0.85694 0.0
C1337 C 0.30868 0.30519 0.8417 0.0
C1338 C 0.32978 0.31647 0.88146 0.0
C1339 C 0.30992 0.31568 0.89101 0.0
C1340 C 0.28941 0.30933 0.87574 0.0
C1341 C 0.28905 0.30428 0.85136 0.0
C1342 C 0.35201 0.32339 0.89714 0.0
C1343 C 0.26782 0.30801 0.88514 0.0
H1344 H 0.31175 0.29788 0.9664 0.0
H1345 H 0.31625 0.37178 0.96044 0.0
H1346 H 0.2918 0.27133 0.90607 0.0
H1347 H 0.32121 0.27634 0.91182 0.0
H1348 H 0.30433 0.26608 0.93322 0.0
H1349 H 0.31612 0.38459 0.92456 0.0
H1350 H 0.32934 0.36804 0.90447 0.0
H1351 H 0.29976 0.36175 0.89977 0.0
H1352 H 0.34416 0.31187 0.84973 0.0
H1353 H 0.27325 0.29955 0.83985 0.0
H1354 H 0.35175 0.31076 0.90951 0.0
H1355 H 0.35539 0.34203 0.90782 0.0
H1356 H 0.36589 0.32294 0.88701 0.0
H1357 H 0.26558 0.29536 0.89759 0.0
H1358 H 0.25317 0.30173 0.87097 0.0
H1359 H 0.26826 0.32624 0.895 0.0
C1360 C 0.967 0.06057 0.34426 0.0
C1361 C 0.98059 0.06262 0.32655 0.0
C1362 C 0.97507 0.05801 0.3674 0.0
C1363 C 0.99752 0.05761 0.37377 0.0
C1364 C 0.01141 0.06062 0.35618 0.0
C1365 C 1.00289 0.06279 0.33325 0.0
C1366 C 0.95918 0.05475 0.38489 0.0
C1367 C 0.03542 0.06084 0.36133 0.0
C1368 C 0.02534 0.06877 0.43969 0.0
C1369 C 0.02496 0.04517 0.4435 0.0
C1370 C 0.01647 0.07301 0.41765 0.0
C1371 C 0.00639 0.05331 0.39819 0.0
C1372 C 0.0058 0.02944 0.40199 0.0
C1373 C 0.015 0.02574 0.42413 0.0
C1374 C 0.01816 0.09888 0.41514 0.0
C1375 C 0.99541 0.00754 0.38246 0.0
H1376 H 0.94966 0.05972 0.33972 0.0
H1377 H 0.01382 0.06404 0.32013 0.0
H1378 H 0.95669 0.03636 0.38916 0.0
H1379 H 0.96629 0.06831 0.40148 0.0
H1380 H 0.94274 0.05673 0.37815 0.0
H1381 H 0.04466 0.06514 0.3467 0.0
H1382 H 0.04389 0.07449 0.37752 0.0
H1383 H 0.0363 0.04273 0.36447 0.0
H1384 H 0.03285 0.08424 0.454 0.0
H1385 H 0.01427 0.00734 0.42625 0.0
H1386 H 1.00135 0.10071 0.40984 0.0
H1387 H 0.02803 0.1035 0.40106 0.0
H1388 H 0.02609 0.11232 0.43166 0.0
H1389 H 0.97807 0.00706 0.37603 0.0
H1390 H 0.99523 0.9901 0.38809 0.0
H1391 H 0.00473 0.00893 0.36745 0.0
C1392 C 0.28053 0.70318 0.59877 0.0
C1393 C 0.2984 0.70024 0.58741 0.0
C1394 C 0.28408 0.71789 0.62098 0.0
C1395 C 0.3061 0.73032 0.63189 0.0
C1396 C 0.32432 0.72741 0.62061 0.0
C1397 C 0.32024 0.712 0.59842 0.0
C1398 C 0.26426 0.71986 0.63282 0.0
C1399 C 0.34798 0.74058 0.63199 0.0
C1400 C 0.31217 0.78413 0.68102 0.0
C1401 C 0.31357 0.7733 0.70055 0.0
C1402 C 0.31007 0.77039 0.65837 0.0
C1403 C 0.30984 0.74556 0.65556 0.0
C1404 C 0.31145 0.73468 0.67533 0.0
C1405 C 0.31311 0.74866 0.69759 0.0
C1406 C 0.30765 0.78221 0.63747 0.0
C1407 C 0.31108 0.70819 0.67297 0.0
H1408 H 0.26361 0.69355 0.59037 0.0
H1409 H 0.33396 0.70953 0.58954 0.0
H1410 H 0.26541 0.71344 0.64964 0.0
H1411 H 0.26414 0.7392 0.63703 0.0
H1412 H 0.2482 0.70895 0.62175 0.0
H1413 H 0.36024 0.73676 0.6207 0.0
H1414 H 0.35027 0.76056 0.63593 0.0
H1415 H 0.35156 0.73506 0.64895 0.0
H1416 H 0.31243 0.80316 0.68343 0.0
H1417 H 0.3143 0.74027 0.71274 0.0
H1418 H 0.2914 0.77268 0.62616 0.0
H1419 H 0.32083 0.78049 0.6267 0.0
H1420 H 0.30867 0.80183 0.64272 0.0
H1421 H 0.29523 0.69625 0.66229 0.0
H1422 H 0.31287 0.70272 0.69025 0.0
H1423 H 0.32476 0.70477 0.66371 0.0
C1424 C 0.63559 0.08936 0.7928 0.0
C1425 C 0.64657 0.07119 0.79116 0.0
C1426 C 0.62805 0.09697 0.81343 0.0
C1427 C 0.63197 0.08638 0.83294 0.0
C1428 C 0.64439 0.06922 0.83199 0.0
C1429 C 0.65139 0.06154 0.81084 0.0
C1430 C 0.61414 0.11462 0.81362 0.0
C1431 C 0.64894 0.05785 0.85274 0.0
C1432 C 0.61435 0.1107 0.88966 0.0
C1433 C 0.59303 0.09456 0.88717 0.0
C1434 C 0.62743 0.10856 0.87193 0.0
C1435 C 0.61904 0.08938 0.85204 0.0
C1436 C 0.59741 0.07332 0.84946 0.0
C1437 C 0.58454 0.07646 0.86686 0.0
C1438 C 0.65038 0.1261 0.87478 0.0
C1439 C 0.58808 0.05221 0.82875 0.0
H1440 H 0.63183 0.09682 0.77754 0.0
H1441 H 0.66023 0.04777 0.80957 0.0
H1442 H 0.59649 0.10471 0.81357 0.0
H1443 H 0.61961 0.12906 0.82978 0.0
H1444 H 0.61497 0.1234 0.7981 0.0
H1445 H 0.66103 0.04712 0.85006 0.0
H1446 H 0.6555 0.07216 0.8689 0.0
H1447 H 0.6332 0.04552 0.8557 0.0
H1448 H 0.621 0.12421 0.90576 0.0
H1449 H 0.56836 0.06338 0.8654 0.0
H1450 H 0.65238 0.1343 0.85899 0.0
H1451 H 0.66306 0.11611 0.87647 0.0
H1452 H 0.65376 0.14101 0.89048 0.0
H1453 H 0.58749 0.05909 0.81216 0.0
H1454 H 0.57105 0.04118 0.82985 0.0
H1455 H 0.59899 0.03998 0.82778 0.0
C1456 C 0.29626 0.32586 0.09745 0.0
C1457 C 0.31254 0.34752 0.09725 0.0
C1458 C 0.29265 0.31788 0.11862 0.0
C1459 C 0.30605 0.33158 0.14012 0.0
C1460 C 0.32206 0.35391 0.14 0.0
C1461 C 0.32506 0.36162 0.1186 0.0
C1462 C 0.27525 0.29413 0.11778 0.0
C1463 C 0.33702 0.36892 0.16227 0.0
C1464 C 0.28919 0.31568 0.19818 0.0
C1465 C 0.30109 0.29896 0.20195 0.0
C1466 C 0.29073 0.32667 0.17829 0.0
C1467 C 0.30489 0.32124 0.16211 0.0
C1468 C 0.31763 0.30516 0.16656 0.0
C1469 C 0.31536 0.29406 0.18615 0.0
C1470 C 0.27663 0.34341 0.17416 0.0
C1471 C 0.33342 0.29925 0.15034 0.0
H1472 H 0.28685 0.31471 0.08091 0.0
H1473 H 0.33801 0.3781 0.11841 0.0
H1474 H 0.28349 0.28015 0.12156 0.0
H1475 H 0.26459 0.29644 0.13141 0.0
H1476 H 0.2645 0.28718 0.10036 0.0
H1477 H 0.34706 0.3869 0.15971 0.0
H1478 H 0.32707 0.372 0.17641 0.0
H1479 H 0.34852 0.35883 0.16836 0.0
H1480 H 0.27803 0.31943 0.21023 0.0
H1481 H 0.32471 0.28125 0.18903 0.0
H1482 H 0.26451 0.33522 0.15777 0.0
H1483 H 0.28717 0.36117 0.17174 0.0
H1484 H 0.26735 0.3468 0.18888 0.0
H1485 H 0.32394 0.28951 0.13279 0.0
H1486 H 0.34317 0.28767 0.15705 0.0
H1487 H 0.34518 0.31632 0.14795 0.0
C1488 C 0.27232 0.98984 0.04139 0.0
C1489 C 0.26687 0.96774 0.0251 0.0
C1490 C 0.25663 1.00272 0.04477 0.0
C1491 C 0.23497 0.99304 0.03173 0.0
C1492 C 0.22937 0.9708 0.01517 0.0
C1493 C 0.24549 0.95844 0.01194 0.0
C1494 C 0.26318 0.02657 0.06238 0.0
C1495 C 0.20632 0.95991 1.00111 0.0
C1496 C 0.18882 0.01429 0.05659 0.0
C1497 C 0.18613 0.0312 0.04279 0.0
C1498 C 0.20463 1.00156 0.05307 0.0
C1499 C 0.21812 0.00619 0.03555 0.0
C1500 C 0.21563 0.02348 0.02177 0.0
C1501 C 0.19952 0.03572 0.02548 0.0
C1502 C 0.20671 0.98297 0.06784 0.0
C1503 C 0.22992 0.02899 0.00308 0.0
H1504 H 0.2889 0.99716 0.05148 0.0
H1505 H 0.24122 0.9413 0.99938 0.0
H1506 H 0.25997 0.04131 0.05382 0.0
H1507 H 0.25291 0.02499 0.07662 0.0
H1508 H 0.281 0.03206 0.07035 0.0
H1509 H 0.20485 0.94272 0.98857 0.0
H1510 H 0.19396 0.956 0.01314 0.0
H1511 H 0.20189 0.97312 0.99112 0.0
H1512 H 0.17817 0.01059 0.06972 0.0
H1513 H 0.19739 0.04889 0.0149 0.0
H1514 H 0.22383 0.98803 0.07772 0.0
H1515 H 0.20375 0.9648 0.05636 0.0
H1516 H 0.19476 0.98136 0.08055 0.0
H1517 H 0.24774 0.03542 0.01104 0.0
H1518 H 0.22594 0.04311 0.99404 0.0
H1519 H 0.2276 0.01214 0.98978 0.0
C1520 C 0.71371 0.63716 0.01226 0.0
C1521 C 0.71514 0.64845 0.99286 0.0
C1522 C 0.69382 0.62028 0.01441 0.0
C1523 C 0.67522 0.61409 0.99637 0.0
C1524 C 0.6769 0.625 0.97641 0.0
C1525 C 0.69674 0.64242 0.97512 0.0
C1526 C 0.69253 0.60953 0.03622 0.0
C1527 C 0.6577 0.61843 0.95651 0.0
C1528 C 0.63057 0.55384 0.98958 0.0
C1529 C 0.61347 0.56122 0.99942 0.0
C1530 C 0.65088 0.57078 0.98896 0.0
C1531 C 0.65411 0.59584 0.99807 0.0
C1532 C 0.637 0.60339 0.00828 0.0
C1533 C 0.61699 0.58588 0.00909 0.0
C1534 C 0.6688 0.56186 0.97832 0.0
C1535 C 0.63969 0.62997 0.01805 0.0
H1536 H 0.72786 0.64232 0.02621 0.0
H1537 H 0.69789 0.65141 0.96025 0.0
H1538 H 0.67908 0.61402 0.04526 0.0
H1539 H 0.6883 0.58935 0.03141 0.0
H1540 H 0.70839 0.61643 0.04874 0.0
H1541 H 0.66192 0.62805 0.94194 0.0
H1542 H 0.65259 0.59846 0.94944 0.0
H1543 H 0.64316 0.62309 0.96304 0.0
H1544 H 0.6281 0.5347 0.98232 0.0
H1545 H 0.6041 0.59144 0.01719 0.0
H1546 H 0.68433 0.56752 0.99125 0.0
H1547 H 0.67265 0.57024 0.96296 0.0
H1548 H 0.66388 0.54168 0.97256 0.0
H1549 H 0.65525 0.63791 0.03088 0.0
H1550 H 0.62547 0.63266 0.02678 0.0
H1551 H 0.64105 0.64029 0.00363 0.0
C1552 C 0.71552 0.43569 0.25593 0.0
C1553 C 0.71276 0.44677 0.27853 0.0
C1554 C 0.72624 0.4163 0.25227 0.0
C1555 C 0.7349 0.40695 0.27142 0.0
C1556 C 0.73215 0.41816 0.29409 0.0
C1557 C 0.72144 0.43726 0.29723 0.0
C1558 C 0.72819 0.40562 0.22758 0.0
C1559 C 0.74068 0.40993 0.31552 0.0
C1560 C 0.74733 0.34226 0.26464 0.0
C1561 C 0.77078 0.34764 0.2659 0.0
C1562 C 0.73565 0.36075 0.26576 0.0
C1563 C 0.7471 0.38617 0.26827 0.0
C1564 C 0.77071 0.39161 0.26929 0.0
C1565 C 0.78194 0.37281 0.26815 0.0
C1566 C 0.71075 0.35293 0.26454 0.0
C1567 C 0.78444 0.41772 0.27191 0.0
H1568 H 0.70919 0.44201 0.24092 0.0
H1569 H 0.71991 0.44489 0.31496 0.0
H1570 H 0.74589 0.4073 0.22608 0.0
H1571 H 0.71914 0.38586 0.22331 0.0
H1572 H 0.72135 0.41471 0.21446 0.0
H1573 H 0.73738 0.41996 0.33202 0.0
H1574 H 0.73275 0.39013 0.31401 0.0
H1575 H 0.75888 0.41265 0.31673 0.0
H1576 H 0.73789 0.32335 0.26295 0.0
H1577 H 0.79987 0.37807 0.26921 0.0
H1578 H 0.70279 0.36035 0.25072 0.0
H1579 H 0.70632 0.36046 0.28148 0.0
H1580 H 0.70377 0.33275 0.26077 0.0
H1581 H 0.77809 0.42587 0.2577 0.0
H1582 H 0.80231 0.41936 0.27138 0.0
H1583 H 0.78291 0.42858 0.28883 0.0
C1584 C 0.87559 0.48694 0.52263 0.0
C1585 C 0.87319 0.46602 0.53232 0.0
C1586 C 0.89631 0.4992 0.51756 0.0
C1587 C 0.91453 0.48966 0.52158 0.0
C1588 C 0.91242 0.46933 0.53247 0.0
C1589 C 0.8919 0.45817 0.53829 0.0
C1590 C 0.89851 0.52169 0.5071 0.0
C1591 C 0.93148 0.45846 0.53678 0.0
C1592 C 0.96313 0.49984 0.48821 0.0
C1593 C 0.97979 0.51585 0.50566 0.0
C1594 C 0.94119 0.49219 0.49262 0.0
C1595 C 0.93612 0.50089 0.51491 0.0
C1596 C 0.95267 0.51787 0.53212 0.0
C1597 C 0.97428 0.52504 0.52734 0.0
C1598 C 0.92373 0.47394 0.47393 0.0
C1599 C 0.94791 0.52751 0.55611 0.0
H1600 H 0.86113 0.49303 0.51808 0.0
H1601 H 0.8902 0.44198 0.54576 0.0
H1602 H 0.91281 0.53681 0.51718 0.0
H1603 H 0.90186 0.51783 0.48883 0.0
H1604 H 0.88325 0.52786 0.50689 0.0
H1605 H 0.92678 0.44214 0.54483 0.0
H1606 H 0.93724 0.45308 0.51995 0.0
H1607 H 0.94576 0.4722 0.54855 0.0
H1608 H 0.96728 0.49297 0.47139 0.0
H1609 H 0.98693 0.53767 0.54099 0.0
H1610 H 0.9086 0.48016 0.47136 0.0
H1611 H 0.91878 0.45621 0.47964 0.0
H1612 H 0.92978 0.47095 0.45683 0.0
H1613 H 0.96165 0.54343 0.566 0.0
H1614 H 0.94566 0.51294 0.56653 0.0
H1615 H 0.9323 0.53296 0.55458 0.0
C1616 C 0.38524 0.07344 0.2718 0.0
C1617 C 0.40597 0.07661 0.26415 0.0
C1618 C 0.37145 0.08787 0.26656 0.0
C1619 C 0.37837 0.10578 0.25303 0.0
C1620 C 0.39902 0.10875 0.24472 0.0
C1621 C 0.41269 0.0942 0.25051 0.0
C1622 C 0.34967 0.08429 0.27599 0.0
C1623 C 0.40677 0.12748 0.23 0.0
C1624 C 0.33099 0.12761 0.22755 0.0
C1625 C 0.33265 0.14834 0.2446 0.0
C1626 C 0.34656 0.11427 0.2293 0.0
C1627 C 0.36414 0.12188 0.24856 0.0
C1628 C 0.36653 0.14353 0.26513 0.0
C1629 C 0.35078 0.15649 0.26293 0.0
C1630 C 0.34353 0.09137 0.2112 0.0
C1631 C 0.38506 0.15233 0.28588 0.0
H1632 H 0.3799 0.05994 0.28239 0.0
H1633 H 0.42863 0.09664 0.24444 0.0
H1634 H 0.34967 0.10136 0.28783 0.0
H1635 H 0.33566 0.08018 0.26137 0.0
H1636 H 0.34655 0.06925 0.28589 0.0
H1637 H 0.42259 0.1265 0.22371 0.0
H1638 H 0.39388 0.12484 0.21458 0.0
H1639 H 0.4093 0.14607 0.24042 0.0
H1640 H 0.31703 0.12125 0.21334 0.0
H1641 H 0.35243 0.17287 0.27583 0.0
H1642 H 0.338 0.07517 0.21921 0.0
H1643 H 0.35953 0.09099 0.20513 0.0
H1644 H 0.33097 0.08975 0.19574 0.0
H1645 H 0.38243 0.13933 0.29799 0.0
H1646 H 0.38591 0.17072 0.29579 0.0
H1647 H 0.40133 0.15299 0.28004 0.0
C1648 C 0.33025 0.11923 0.49678 0.0
C1649 C 0.33146 0.14412 0.50122 0.0
C1650 C 0.34946 0.11135 0.49983 0.0
C1651 C 0.37055 0.12872 0.50771 0.0
C1652 C 0.37192 0.1539 0.51253 0.0
C1653 C 0.35241 0.1613 0.50911 0.0
C1654 C 0.34718 0.08433 0.49449 0.0
C1655 C 0.39397 0.17302 0.52129 0.0
C1656 C 0.41475 0.10188 0.53298 0.0
C1657 C 0.42518 0.09668 0.51346 0.0
C1658 C 0.39783 0.11357 0.53181 0.0
C1659 C 0.391 0.12022 0.51057 0.0
C1660 C 0.40239 0.11638 0.49128 0.0
C1661 C 0.4193 0.10469 0.49295 0.0
C1662 C 0.38655 0.11773 0.553 0.0
C1663 C 0.39588 0.12341 0.46839 0.0
H1664 H 0.31423 0.10577 0.49071 0.0
H1665 H 0.35357 0.18058 0.51276 0.0
H1666 H 0.35725 0.08025 0.48072 0.0
H1667 H 0.35368 0.07868 0.5104 0.0
H1668 H 0.32965 0.07314 0.4884 0.0
H1669 H 0.39218 0.19179 0.52487 0.0
H1670 H 0.40206 0.16951 0.53765 0.0
H1671 H 0.4053 0.17204 0.50813 0.0
H1672 H 0.41951 0.09631 0.54911 0.0
H1673 H 0.42716 0.10076 0.47774 0.0
H1674 H 0.36937 0.10526 0.54947 0.0
H1675 H 0.38526 0.13667 0.55661 0.0
H1676 H 0.39554 0.11439 0.56895 0.0
H1677 H 0.3791 0.11151 0.46 0.0
H1678 H 0.40777 0.12162 0.45596 0.0
H1679 H 0.39496 0.1425 0.47155 0.0
C1680 C 0.71289 0.61446 0.2959 0.0
C1681 C 0.71367 0.59284 0.28118 0.0
C1682 C 0.72577 0.63808 0.29418 0.0
C1683 C 0.73991 0.64105 0.27687 0.0
C1684 C 0.74103 0.61931 0.26203 0.0
C1685 C 0.72815 0.5957 0.26442 0.0
C1686 C 0.72401 0.66002 0.31096 0.0
C1687 C 0.75544 0.62102 0.24306 0.0
C1688 C 0.75909 0.70584 0.26103 0.0
C1689 C 0.78105 0.71533 0.27315 0.0
C1690 C 0.74573 0.68183 0.26169 0.0
C1691 C 0.75407 0.6667 0.27518 0.0
C1692 C 0.77599 0.67664 0.28787 0.0
C1693 C 0.78906 0.70025 0.28643 0.0
C1694 C 0.72275 0.67239 0.24746 0.0
C1695 C 0.78582 0.66226 0.30316 0.0
H1696 H 0.70173 0.61294 0.3088 0.0
H1697 H 0.72871 0.57956 0.25243 0.0
H1698 H 0.74073 0.67075 0.32062 0.0
H1699 H 0.71754 0.67214 0.30104 0.0
H1700 H 0.71287 0.65487 0.32391 0.0
H1701 H 0.7544 0.60281 0.23261 0.0
H1702 H 0.75033 0.63226 0.23107 0.0
H1703 H 0.77304 0.63029 0.25095 0.0
H1704 H 0.75259 0.71679 0.25033 0.0
H1705 H 0.80591 0.70701 0.2959 0.0
H1706 H 0.71018 0.66785 0.25914 0.0
H1707 H 0.72144 0.6553 0.23488 0.0
H1708 H 0.71864 0.68582 0.23752 0.0
H1709 H 0.77498 0.65724 0.31638 0.0
H1710 H 0.80279 0.67259 0.3125 0.0
H1711 H 0.78669 0.64502 0.29232 0.0
C1712 C 0.91032 0.44031 0.75107 0.0
C1713 C 0.91244 0.46527 0.75354 0.0
C1714 C 0.89075 0.42427 0.75473 0.0
C1715 C 0.87311 0.4336 0.7612 0.0
C1716 C 0.87439 0.45833 0.7617 0.0
C1717 C 0.894 0.47387 0.75752 0.0
C1718 C 0.88952 0.39762 0.75313 0.0
C1719 C 0.85595 0.46889 0.7686 0.0
C1720 C 0.82241 0.3815 0.75562 0.0
C1721 C 0.82633 0.37473 0.77729 0.0
C1722 C 0.83626 0.40254 0.75075 0.0
C1723 C 0.8539 0.41727 0.76827 0.0
C1724 C 0.85552 0.41266 0.79137 0.0
C1725 C 0.84167 0.3911 0.79563 0.0
C1726 C 0.83388 0.40708 0.72603 0.0
C1727 C 0.87359 0.42877 0.81077 0.0
H1728 H 0.92441 0.43356 0.74773 0.0
H1729 H 0.89541 0.49315 0.75931 0.0
H1730 H 0.88884 0.393 0.77077 0.0
H1731 H 0.87415 0.38589 0.74139 0.0
H1732 H 0.90406 0.3931 0.7464 0.0
H1733 H 0.85774 0.48706 0.76394 0.0
H1734 H 0.83939 0.45655 0.76015 0.0
H1735 H 0.85639 0.47108 0.78787 0.0
H1736 H 0.8099 0.36914 0.74165 0.0
H1737 H 0.84436 0.38604 0.81252 0.0
H1738 H 0.84748 0.40255 0.71731 0.0
H1739 H 0.8354 0.4266 0.72615 0.0
H1740 H 0.81773 0.39581 0.71538 0.0
H1741 H 0.8894 0.42421 0.80872 0.0
H1742 H 0.86951 0.4261 0.82835 0.0
H1743 H 0.87633 0.44831 0.80994 0.0
C1744 C 0.10867 0.88559 0.06485 0.0
C1745 C 0.09594 0.87258 0.07944 0.0
C1746 C 0.10259 0.90441 0.05581 0.0
C1747 C 0.0833 0.91076 0.06146 0.0
C1748 C 0.07024 0.89766 0.07606 0.0
C1749 C 0.07667 0.87875 0.08482 0.0
C1750 C 0.11695 0.91759 0.04018 0.0
C1751 C 0.04959 0.90382 0.08264 0.0
C1752 C 0.0831 0.9756 0.05604 0.0
C1753 C 0.06878 0.97166 0.03483 0.0
C1754 C 0.08715 0.95593 0.06533 0.0
C1755 C 0.0774 0.93164 0.05268 0.0
C1756 C 0.06307 0.9276 0.03107 0.0
C1757 C 0.05858 0.94761 0.02267 0.0
C1758 C 0.1019 0.96119 0.08876 0.0
C1759 C 0.0529 0.9022 0.01653 0.0
H1760 H 0.12353 0.88106 0.06039 0.0
H1761 H 0.06661 0.86884 0.09592 0.0
H1762 H 0.10671 0.91678 0.02326 0.0
H1763 H 0.12412 0.93713 0.04862 0.0
H1764 H 0.13081 0.90974 0.03649 0.0
H1765 H 0.04105 0.89179 0.09384 0.0
H1766 H 0.05403 0.92306 0.0922 0.0
H1767 H 0.03776 0.90213 0.06658 0.0
H1768 H 0.09074 0.99413 0.06571 0.0
H1769 H 0.04749 0.94447 0.00627 0.0
H1770 H 0.11717 0.95556 0.08645 0.0
H1771 H 0.09318 0.95043 0.10078 0.0
H1772 H 0.10686 0.98084 0.09722 0.0
H1773 H 0.06628 0.89426 0.01127 0.0
H1774 H 0.04173 0.90202 1.00044 0.0
H1775 H 0.04328 0.89019 0.02705 0.0
C1776 C 0.94777 0.2654 0.85672 0.0
C1777 C 0.94582 0.26336 0.88006 0.0
C1778 C 0.93075 0.27025 0.84212 0.0
C1779 C 0.91143 0.2735 0.8511 0.0
C1780 C 0.90957 0.27178 0.87469 0.0
C1781 C 0.92658 0.26662 0.88871 0.0
C1782 C 0.93337 0.27181 0.81703 0.0
C1783 C 0.88946 0.27523 0.88517 0.0
C1784 C 0.87202 0.30365 0.82073 0.0
C1785 C 0.85507 0.28322 0.80816 0.0
C1786 C 0.8908 0.30086 0.83429 0.0
C1787 C 0.89242 0.2771 0.83566 0.0
C1788 C 0.87508 0.25653 0.82326 0.0
C1789 C 0.85683 0.25985 0.80955 0.0
C1790 C 0.90899 0.32329 0.84697 0.0
C1791 C 0.8757 0.23089 0.82454 0.0
H1792 H 0.96256 0.26316 0.84985 0.0
H1793 H 0.92483 0.26547 0.90675 0.0
H1794 H 0.91943 0.25794 0.8049 0.0
H1795 H 0.93265 0.28997 0.81388 0.0
H1796 H 0.9493 0.2689 0.81264 0.0
H1797 H 0.89077 0.27398 0.90399 0.0
H1798 H 0.88729 0.29332 0.88356 0.0
H1799 H 0.87424 0.26118 0.87539 0.0
H1800 H 0.87092 0.32176 0.81941 0.0
H1801 H 0.84379 0.24398 0.79985 0.0
H1802 H 0.92501 0.32274 0.84103 0.0
H1803 H 0.91115 0.32366 0.86611 0.0
H1804 H 0.90542 0.34043 0.84394 0.0
H1805 H 0.89098 0.2277 0.81851 0.0
H1806 H 0.86101 0.21682 0.81369 0.0
H1807 H 0.87628 0.22846 0.843 0.0
C1808 C 0.598 0.22774 0.57962 0.0
C1809 C 0.58851 0.24242 0.56757 0.0
C1810 C 0.59268 0.20254 0.57115 0.0
C1811 C 0.57741 0.19183 0.55014 0.0
C1812 C 0.56764 0.20666 0.53797 0.0
C1813 C 0.57341 0.23196 0.54684 0.0
C1814 C 0.60346 0.1874 0.58466 0.0
C1815 C 0.55124 0.19583 0.51559 0.0
C1816 C 0.58177 0.13 0.52113 0.0
C1817 C 0.56421 0.11421 0.52857 0.0
C1818 C 0.58546 0.15538 0.52686 0.0
C1819 C 0.57179 0.16506 0.54116 0.0
C1820 C 0.55387 0.14906 0.54848 0.0
C1821 C 0.55005 0.12377 0.5417 0.0
C1822 C 0.60428 0.17186 0.51811 0.0
C1823 C 0.53937 0.15862 0.56435 0.0
H1824 H 0.60976 0.2361 0.59564 0.0
H1825 H 0.56618 0.24353 0.53763 0.0
H1826 H 0.5905 0.17276 0.58947 0.0
H1827 H 0.61334 0.1784 0.5735 0.0
H1828 H 0.61462 0.19852 0.60094 0.0
H1829 H 0.54507 0.20983 0.50834 0.0
H1830 H 0.55916 0.18665 0.5022 0.0
H1831 H 0.5368 0.18173 0.51883 0.0
H1832 H 0.5925 0.12246 0.5107 0.0
H1833 H 0.53651 0.11143 0.54749 0.0
H1834 H 0.61739 0.18235 0.53312 0.0
H1835 H 0.59823 0.18525 0.50969 0.0
H1836 H 0.61186 0.16145 0.50526 0.0
H1837 H 0.54952 0.16816 0.58166 0.0
H1838 H 0.52526 0.1438 0.56718 0.0
H1839 H 0.53265 0.17212 0.55689 0.0
C1840 C 0.57512 0.79991 0.3596 0.0
C1841 C 0.56879 0.78459 0.37544 0.0
C1842 C 0.59495 0.8013 0.35013 0.0
C1843 C 0.60917 0.78754 0.35708 0.0
C1844 C 0.60327 0.77277 0.37378 0.0
C1845 C 0.58304 0.7712 0.38247 0.0
C1846 C 0.60041 0.81708 0.33222 0.0
C1847 C 0.61828 0.75851 0.38238 0.0
C1848 C 0.64633 0.76924 0.31426 0.0
C1849 C 0.66691 0.78679 0.32279 0.0
C1850 C 0.62759 0.7693 0.32532 0.0
C1851 C 0.62934 0.78721 0.34564 0.0
C1852 C 0.65016 0.80479 0.35463 0.0
C1853 C 0.66861 0.8045 0.343 0.0
C1854 C 0.60575 0.75035 0.31496 0.0
C1855 C 0.65294 0.824 0.37644 0.0
H1856 H 0.56429 0.81043 0.35418 0.0
H1857 H 0.57853 0.7597 0.39507 0.0
H1858 H 0.61689 0.83073 0.33829 0.0
H1859 H 0.60144 0.80563 0.31542 0.0
H1860 H 0.5878 0.82688 0.32885 0.0
H1861 H 0.61217 0.74936 0.39666 0.0
H1862 H 0.61951 0.74442 0.36765 0.0
H1863 H 0.63533 0.77082 0.38895 0.0
H1864 H 0.64469 0.75572 0.29849 0.0
H1865 H 0.68445 0.81803 0.34986 0.0
H1866 H 0.59294 0.75946 0.31029 0.0
H1867 H 0.59985 0.7394 0.32811 0.0
H1868 H 0.60708 0.73775 0.29901 0.0
H1869 H 0.64338 0.8369 0.37277 0.0
H1870 H 0.67063 0.83457 0.38265 0.0
H1871 H 0.64622 0.81547 0.39079 0.0
C1872 C 0.10306 0.26858 0.42559 0.0
C1873 C 0.10052 0.28989 0.43887 0.0
C1874 C 0.09625 0.2462 0.43261 0.0
C1875 C 0.08712 0.2453 0.45359 0.0
C1876 C 0.08445 0.26668 0.46705 0.0
C1877 C 0.09128 0.28878 0.45957 0.0
C1878 C 0.0988 0.22353 0.4176 0.0
C1879 C 0.07457 0.26626 0.48946 0.0
C1880 C 0.05717 0.18604 0.46978 0.0
C1881 C 0.07436 0.18244 0.48471 0.0
C1882 C 0.06122 0.20594 0.45848 0.0
C1883 C 0.08275 0.2227 0.46296 0.0
C1884 C 0.10017 0.21874 0.4777 0.0
C1885 C 0.09578 0.19844 0.48822 0.0
C1886 C 0.04241 0.20937 0.44238 0.0
C1887 C 0.12323 0.23648 0.48314 0.0
H1888 H 0.10977 0.26921 0.40931 0.0
H1889 H 0.08895 0.30511 0.46972 0.0
H1890 H 0.11111 0.21661 0.42731 0.0
H1891 H 0.08277 0.2089 0.41365 0.0
H1892 H 0.1044 0.22698 0.40078 0.0
H1893 H 0.07266 0.28429 0.49725 0.0
H1894 H 0.05801 0.25256 0.48607 0.0
H1895 H 0.08535 0.26076 0.50254 0.0
H1896 H 0.04063 0.1734 0.46711 0.0
H1897 H 0.10892 0.19554 0.49997 0.0
H1898 H 0.04795 0.21363 0.42579 0.0
H1899 H 0.03709 0.22502 0.45091 0.0
H1900 H 0.02777 0.19291 0.4381 0.0
H1901 H 0.12994 0.23894 0.46665 0.0
H1902 H 0.13501 0.23034 0.49452 0.0
H1903 H 0.12246 0.2546 0.49214 0.0
C1904 C 0.56996 0.27444 0.2015 0.0
C1905 C 0.55468 0.25711 0.2103 0.0
C1906 C 0.59262 0.28116 0.21041 0.0
C1907 C 0.59986 0.27048 0.22865 0.0
C1908 C 0.58418 0.2559 0.23986 0.0
C1909 C 0.56164 0.24918 0.23037 0.0
C1910 C 0.60883 0.29687 0.19807 0.0
C1911 C 0.59138 0.24472 0.25981 0.0
C1912 C 0.64839 0.24527 0.22195 0.0
C1913 C 0.6648 0.26133 0.2396 0.0
C1914 C 0.62745 0.24878 0.21765 0.0
C1915 C 0.62282 0.26879 0.23153 0.0
C1916 C 0.63956 0.28568 0.24877 0.0
C1917 C 0.66048 0.28167 0.2527 0.0
C1918 C 0.61004 0.23048 0.19882 0.0
C1919 C 0.63518 0.3074 0.26348 0.0
H1920 H 0.56459 0.28113 0.18628 0.0
H1921 H 0.54975 0.23634 0.23763 0.0
H1922 H 0.62372 0.3086 0.2105 0.0
H1923 H 0.61451 0.28492 0.18468 0.0
H1924 H 0.60096 0.30863 0.18897 0.0
H1925 H 0.57751 0.23829 0.26956 0.0
H1926 H 0.59709 0.22883 0.25266 0.0
H1927 H 0.60546 0.25799 0.27226 0.0
H1928 H 0.65169 0.22941 0.212 0.0
H1929 H 0.67337 0.29426 0.26615 0.0
H1930 H 0.60305 0.23995 0.18622 0.0
H1931 H 0.59614 0.22067 0.20691 0.0
H1932 H 0.61684 0.21675 0.18885 0.0
H1933 H 0.62707 0.31728 0.25221 0.0
H1934 H 0.6507 0.32036 0.27401 0.0
H1935 H 0.62359 0.30107 0.27564 0.0
C1936 C 0.58937 0.91324 0.90714 0.0
C1937 C 0.6059 0.90261 0.91413 0.0
C1938 C 0.58729 0.93435 0.92094 0.0
C1939 C 0.60223 0.94506 0.9421 0.0
C1940 C 0.62064 0.9362 0.9477 0.0
C1941 C 0.62228 0.9149 0.93354 0.0
C1942 C 0.56752 0.94335 0.91426 0.0
C1943 C 0.63714 0.94755 0.96992 0.0
C1944 C 0.59443 1.00243 0.97709 0.0
C1945 C 0.57946 0.99238 0.99127 0.0
C1946 C 0.60253 0.98733 0.96117 0.0
C1947 C 0.59587 0.96185 0.96015 0.0
C1948 C 0.58134 0.95187 0.97522 0.0
C1949 C 0.57305 0.96734 0.99044 0.0
C1950 C 0.61767 0.99849 0.94512 0.0
C1951 C 0.57419 0.9248 0.97494 0.0
H1952 H 0.57697 0.904 0.89179 0.0
H1953 H 0.63522 0.90681 0.93882 0.0
H1954 H 0.55482 0.93779 0.92558 0.0
H1955 H 0.57242 0.96356 0.91705 0.0
H1956 H 0.55973 0.93568 0.89566 0.0
H1957 H 0.65272 0.94207 0.96921 0.0
H1958 H 0.64134 0.96775 0.97322 0.0
H1959 H 0.62968 0.94147 0.98504 0.0
H1960 H 0.59945 0.02199 0.97814 0.0
H1961 H 0.56169 0.95993 1.00184 0.0
H1962 H 0.60935 0.99184 0.92661 0.0
H1963 H 0.63313 0.99276 0.94663 0.0
H1964 H 0.62219 0.01876 0.94907 0.0
H1965 H 0.56432 0.91481 0.95763 0.0
H1966 H 0.56395 0.9203 0.9888 0.0
H1967 H 0.58899 0.91802 0.97754 0.0
C1968 C 0.92166 0.7285 0.67962 0.0
C1969 C 0.94435 0.73952 0.68702 0.0
C1970 C 0.90622 0.73553 0.69256 0.0
C1971 C 0.914 0.75321 0.71367 0.0
C1972 C 0.93702 0.76448 0.72105 0.0
C1973 C 0.95201 0.75765 0.70735 0.0
C1974 C 0.88167 0.72393 0.68379 0.0
C1975 C 0.94576 0.78306 0.74372 0.0
C1976 C 0.87351 0.78561 0.73503 0.0
C1977 C 0.86369 0.77087 0.74997 0.0
C1978 C 0.89031 0.78033 0.72342 0.0
C1979 C 0.89791 0.76034 0.72761 0.0
C1980 C 0.88896 0.74621 0.74376 0.0
C1981 C 0.87142 0.75133 0.75444 0.0
C1982 C 0.89883 0.79514 0.70558 0.0
C1983 C 0.89735 0.72525 0.74911 0.0
H1984 H 0.91608 0.71429 0.6639 0.0
H1985 H 0.96977 0.76568 0.713 0.0
H1986 H 0.87407 0.71319 0.69639 0.0
H1987 H 0.87314 0.73827 0.68254 0.0
H1988 H 0.87849 0.71164 0.66631 0.0
H1989 H 0.9642 0.79008 0.74682 0.0
H1990 H 0.93877 0.79872 0.74358 0.0
H1991 H 0.94037 0.7747 0.75867 0.0
H1992 H 0.86711 0.80045 0.73126 0.0
H1993 H 0.86365 0.74001 0.76601 0.0
H1994 H 0.89436 0.78329 0.68781 0.0
H1995 H 0.91722 0.80226 0.70927 0.0
H1996 H 0.89179 0.81079 0.70528 0.0
H1997 H 0.89216 0.70997 0.73363 0.0
H1998 H 0.89081 0.71838 0.76437 0.0
H1999 H 0.91581 0.73095 0.75279 0.0
C2000 C 0.11573 0.02689 0.8443 0.0
C2001 C 0.13408 0.01782 0.8397 0.0
C2002 C 0.10722 0.0278 0.86608 0.0
C2003 C 0.11684 0.01953 0.88516 0.0
C2004 C 0.13528 0.01009 0.88082 0.0
C2005 C 0.14355 0.00934 0.85858 0.0
C2006 C 0.0876 0.03782 0.8686 0.0
C2007 C 0.14652 1.00087 0.89994 0.0
C2008 C 0.10327 0.04255 0.94836 0.0
C2009 C 0.08606 0.02283 0.95197 0.0
C2010 C 0.11377 0.04147 0.92757 0.0
C2011 C 0.10708 0.02034 0.90891 0.0
C2012 C 0.08971 1.00049 0.91256 0.0
C2013 C 0.07986 1.00186 0.93361 0.0
C2014 C 0.13216 0.06329 0.92554 0.0
C2015 C 0.08101 0.97762 0.89378 0.0
H2016 H 0.10772 0.03363 0.83057 0.0
H2017 H 0.15769 1.00239 0.85619 0.0
H2018 H 0.07365 0.02386 0.87288 0.0
H2019 H 0.09219 0.05385 0.88333 0.0
H2020 H 0.08165 0.04345 0.85242 0.0
H2021 H 0.16069 0.99443 0.89454 0.0
H2022 H 0.15269 0.0156 0.91584 0.0
H2023 H 0.13435 0.9856 0.90487 0.0
H2024 H 0.10869 0.05898 0.96191 0.0
H2025 H 0.06671 0.98627 0.93545 0.0
H2026 H 0.12681 0.07133 0.91077 0.0
H2027 H 0.14706 0.05756 0.92155 0.0
H2028 H 0.1369 0.07758 0.94184 0.0
H2029 H 0.07369 0.98205 0.87754 0.0
H2030 H 0.06812 0.96334 0.89919 0.0
H2031 H 0.09485 0.97007 0.88939 0.0
C2032 C 0.81025 0.36906 0.57198 0.0
C2033 C 0.82168 0.3762 0.55406 0.0
C2034 C 0.82207 0.36827 0.59342 0.0
C2035 C 0.84572 0.37649 0.59725 0.0
C2036 C 0.8572 0.38479 0.57944 0.0
C2037 C 0.84504 0.38337 0.55768 0.0
C2038 C 0.80929 0.35828 0.61177 0.0
C2039 C 0.88222 0.3951 0.58302 0.0
C2040 C 0.86477 0.38426 0.66158 0.0
C2041 C 0.86704 0.36091 0.66207 0.0
C2042 C 0.86058 0.39115 0.64008 0.0
C2043 C 0.85814 0.37399 0.61907 0.0
C2044 C 0.86395 0.35213 0.61962 0.0
C2045 C 0.86868 0.346 0.64126 0.0
C2046 C 0.85651 0.41563 0.63986 0.0
C2047 C 0.86217 0.33365 0.59749 0.0
H2048 H 0.79221 0.36373 0.56908 0.0
H2049 H 0.85394 0.38875 0.54367 0.0
H2050 H 0.81512 0.34309 0.61689 0.0
H2051 H 0.81232 0.3727 0.62776 0.0
H2052 H 0.79109 0.35143 0.60547 0.0
H2053 H 0.88714 0.40953 0.57265 0.0
H2054 H 0.88936 0.40298 0.60173 0.0
H2055 H 0.88975 0.38043 0.5767 0.0
H2056 H 0.86416 0.3961 0.67777 0.0
H2057 H 0.87068 0.32802 0.64154 0.0
H2058 H 0.83835 0.41334 0.63698 0.0
H2059 H 0.86357 0.42355 0.62532 0.0
H2060 H 0.8639 0.42867 0.65674 0.0
H2061 H 0.84445 0.32591 0.58929 0.0
H2062 H 0.86886 0.31842 0.60096 0.0
H2063 H 0.87133 0.34245 0.58461 0.0
C2064 C 0.46903 0.0154 0.35754 0.0
C2065 C 0.46838 0.0372 0.3505 0.0
C2066 C 0.48284 0.01582 0.37793 0.0
C2067 C 0.4963 0.03861 0.39109 0.0
C2068 C 0.49472 0.06065 0.38466 0.0
C2069 C 0.48028 0.05967 0.36453 0.0
C2070 C 0.48391 0.99201 0.38466 0.0
C2071 C 0.50942 0.08517 0.39804 0.0
C2072 C 0.51923 0.04431 0.45406 0.0
C2073 C 0.54047 0.04204 0.45243 0.0
C2074 C 0.50439 0.04244 0.43403 0.0
C2075 C 0.51166 0.03956 0.41204 0.0
C2076 C 0.53362 0.03847 0.4103 0.0
C2077 C 0.54789 0.0396 0.43075 0.0
C2078 C 0.48093 0.04324 0.43631 0.0
C2079 C 0.54188 0.03586 0.38696 0.0
H2080 H 0.46012 0.99803 0.34606 0.0
H2081 H 0.48019 0.07633 0.35841 0.0
H2082 H 0.50075 0.98974 0.38382 0.0
H2083 H 0.48087 0.99212 0.40301 0.0
H2084 H 0.47157 0.97597 0.37296 0.0
H2085 H 0.50629 0.10051 0.39037 0.0
H2086 H 0.5067 0.08796 0.41659 0.0
H2087 H 0.52715 0.08577 0.39803 0.0
H2088 H 0.51443 0.04787 0.4711 0.0
H2089 H 0.56454 0.03801 0.42977 0.0
H2090 H 0.46884 0.02642 0.42557 0.0
H2091 H 0.47761 0.05894 0.42952 0.0
H2092 H 0.4778 0.04481 0.45474 0.0
H2093 H 0.53233 0.01809 0.37557 0.0
H2094 H 0.55983 0.03684 0.38894 0.0
H2095 H 0.53921 0.0504 0.37777 0.0
C2096 C 0.79486 0.76264 0.07642 0.0
C2097 C 0.79218 0.73836 0.06564 0.0
C2098 C 0.79726 0.7696 0.101 0.0
C2099 C 0.79602 0.75166 0.11502 0.0
C2100 C 0.79359 0.72718 0.10418 0.0
C2101 C 0.79209 0.72093 0.07968 0.0
C2102 C 0.8007 0.79605 0.11193 0.0
C2103 C 0.79165 0.70737 0.11835 0.0
C2104 C 0.81799 0.76974 0.18051 0.0
C2105 C 0.79849 0.76927 0.19032 0.0
C2106 C 0.81746 0.76447 0.15611 0.0
C2107 C 0.79692 0.75833 0.14097 0.0
C2108 C 0.77718 0.75792 0.15067 0.0
C2109 C 0.7782 0.7635 0.17521 0.0
C2110 C 0.83893 0.76537 0.14656 0.0
C2111 C 0.7549 0.75124 0.13511 0.0
H2112 H 0.79488 0.77613 0.0656 0.0
H2113 H 0.78961 0.70205 0.07139 0.0
H2114 H 0.78614 0.798 0.12034 0.0
H2115 H 0.81551 0.80254 0.12588 0.0
H2116 H 0.80299 0.808 0.09883 0.0
H2117 H 0.78999 0.68926 0.10729 0.0
H2118 H 0.80646 0.71198 0.13211 0.0
H2119 H 0.7769 0.70595 0.1274 0.0
H2120 H 0.83384 0.77433 0.1919 0.0
H2121 H 0.76306 0.76308 0.18253 0.0
H2122 H 0.84128 0.77796 0.13406 0.0
H2123 H 0.83823 0.74703 0.13673 0.0
H2124 H 0.85365 0.77149 0.16065 0.0
H2125 H 0.75524 0.76391 0.12277 0.0
H2126 H 0.74111 0.75184 0.14533 0.0
H2127 H 0.75133 0.73258 0.12438 0.0
C2128 C 0.11569 0.99291 0.68713 0.0
C2129 C 0.13302 0.01233 0.70123 0.0
C2130 C 0.10606 0.99407 0.66408 0.0
C2131 C 0.1134 0.01533 0.65431 0.0
C2132 C 0.1311 0.03477 0.66841 0.0
C2133 C 0.14034 0.03312 0.6913 0.0
C2134 C 0.08727 0.97274 0.6505 0.0
C2135 C 0.14001 0.05789 0.65956 0.0
C2136 C 0.09953 0.01221 0.58643 0.0
C2137 C 0.08263 0.024 0.58443 0.0
C2138 C 0.10964 0.00951 0.60861 0.0
C2139 C 0.10234 0.0177 0.62998 0.0
C2140 C 0.08481 0.02898 0.62792 0.0
C2141 C 0.07568 0.03242 0.60564 0.0
C2142 C 0.12863 0.99824 0.60918 0.0
C2143 C 0.07545 0.03738 0.64941 0.0
H2144 H 0.10902 0.97703 0.69448 0.0
H2145 H 0.15305 0.04873 0.70192 0.0
H2146 H 0.07189 0.9785 0.64791 0.0
H2147 H 0.09109 0.96654 0.63283 0.0
H2148 H 0.084 0.95708 0.6596 0.0
H2149 H 0.15483 0.07062 0.67148 0.0
H2150 H 0.14455 0.05349 0.64187 0.0
H2151 H 0.12694 0.06738 0.65785 0.0
H2152 H 0.10541 0.00566 0.57056 0.0
H2153 H 0.06262 0.04136 0.60479 0.0
H2154 H 0.12424 0.98153 0.61664 0.0
H2155 H 0.14354 0.01116 0.62079 0.0
H2156 H 0.13301 0.9934 0.59147 0.0
H2157 H 0.07016 0.02206 0.65865 0.0
H2158 H 0.06099 0.0443 0.64505 0.0
H2159 H 0.08848 0.0521 0.6618 0.0
C2160 C 0.80569 0.38139 0.4252 0.0
C2161 C 0.8254 0.3908 0.44131 0.0
C2162 C 0.8055 0.36735 0.40324 0.0
C2163 C 0.8254 0.36246 0.39766 0.0
C2164 C 0.84555 0.37305 0.41329 0.0
C2165 C 0.84536 0.38736 0.43487 0.0
C2166 C 0.78386 0.35688 0.38643 0.0
C2167 C 0.86706 0.36816 0.40783 0.0
C2168 C 0.81643 0.30379 0.35394 0.0
C2169 C 0.81872 0.31265 0.33326 0.0
C2170 C 0.81955 0.32002 0.37541 0.0
C2171 C 0.82488 0.34542 0.37584 0.0
C2172 C 0.82857 0.35444 0.3552 0.0
C2173 C 0.82557 0.33788 0.33412 0.0
C2174 C 0.81608 0.30998 0.3974 0.0
C2175 C 0.83431 0.38142 0.35505 0.0
H2176 H 0.79032 0.38424 0.43005 0.0
H2177 H 0.86075 0.39478 0.44717 0.0
H2178 H 0.78609 0.36119 0.36889 0.0
H2179 H 0.77859 0.33671 0.38422 0.0
H2180 H 0.77033 0.36402 0.39268 0.0
H2181 H 0.8816 0.37949 0.42102 0.0
H2182 H 0.86583 0.34864 0.40746 0.0
H2183 H 0.87013 0.37174 0.39024 0.0
H2184 H 0.81125 0.28427 0.35321 0.0
H2185 H 0.8275 0.34474 0.31808 0.0
H2186 H 0.80113 0.31369 0.40383 0.0
H2187 H 0.83049 0.3192 0.41149 0.0
H2188 H 0.8138 0.28999 0.39438 0.0
H2189 H 0.81977 0.38816 0.35839 0.0
H2190 H 0.83891 0.38546 0.33801 0.0
H2191 H 0.84829 0.39185 0.36923 0.0
C2192 C 0.46805 0.03134 0.23293 0.0
C2193 C 0.49008 0.03314 0.24166 0.0
C2194 C 0.46 0.02384 0.20888 0.0
C2195 C 0.47475 0.01931 0.19333 0.0
C2196 C 0.4971 0.02111 0.20214 0.0
C2197 C 0.50432 0.02764 0.22626 0.0
C2198 C 0.43571 0.02027 0.20025 0.0
C2199 C 0.51371 0.01689 0.18621 0.0
C2200 C 0.47104 0.99247 0.13077 0.0
C2201 C 0.479 0.0142 0.12285 0.0
C2202 C 0.46513 0.99326 0.15323 0.0
C2203 C 0.46836 0.01629 0.16785 0.0
C2204 C 0.47246 0.03763 0.15828 0.0
C2205 C 0.4771 0.03612 0.13542 0.0
C2206 C 0.45892 0.96997 0.16246 0.0
C2207 C 0.4764 0.06266 0.17338 0.0
H2208 H 0.45691 0.0352 0.24471 0.0
H2209 H 0.52132 0.02879 0.23314 0.0
H2210 H 0.43349 0.02866 0.18477 0.0
H2211 H 0.42726 1.00042 0.19461 0.0
H2212 H 0.42729 0.02796 0.21412 0.0
H2213 H 0.53075 0.02084 0.19605 0.0
H2214 H 0.50856 0.99761 0.17672 0.0
H2215 H 0.51441 0.02858 0.17292 0.0
H2216 H 0.47199 0.97539 0.12068 0.0
H2217 H 0.48298 0.0529 0.12911 0.0
H2218 H 0.4482 0.97136 0.17621 0.0
H2219 H 0.4742 0.96632 0.17034 0.0
H2220 H 0.45011 0.95419 0.14806 0.0
H2221 H 0.46331 0.06284 0.18456 0.0
H2222 H 0.47688 0.0769 0.16269 0.0
H2223 H 0.49261 0.06764 0.18519 0.0
C2224 C 0.80601 0.72204 0.92391 0.0
C2225 C 0.7874 0.72588 0.93344 0.0
C2226 C 0.81081 0.729 0.9025 0.0
C2227 C 0.79654 0.73976 0.89021 0.0
C2228 C 0.77732 0.74271 0.89936 0.0
C2229 C 0.7731 0.73591 0.92076 0.0
C2230 C 0.83151 0.72558 0.89344 0.0
C2231 C 0.76146 0.75385 0.88692 0.0
C2232 C 0.81721 0.78606 0.85253 0.0
C2233 C 0.8082 0.77283 0.82967 0.0
C2234 C 0.81453 0.77514 0.87217 0.0
C2235 C 0.80248 0.75021 0.86908 0.0
C2236 C 0.79407 0.73643 0.84594 0.0
C2237 C 0.797 0.74791 0.8265 0.0
C2238 C 0.82381 0.79065 0.89637 0.0
C2239 C 0.78126 0.70979 0.84176 0.0
H2240 H 0.81711 0.71421 0.93345 0.0
H2241 H 0.75845 0.73863 0.92764 0.0
H2242 H 0.82749 0.71631 0.87469 0.0
H2243 H 0.84357 0.74367 0.89456 0.0
H2244 H 0.83964 0.71476 0.90359 0.0
H2245 H 0.74644 0.75327 0.8954 0.0
H2246 H 0.77003 0.77317 0.88683 0.0
H2247 H 0.75608 0.74411 0.86836 0.0
H2248 H 0.82605 0.80529 0.85517 0.0
H2249 H 0.79012 0.73752 0.8089 0.0
H2250 H 0.83382 0.78163 0.90666 0.0
H2251 H 0.80994 0.7928 0.90591 0.0
H2252 H 0.83441 0.8091 0.89575 0.0
H2253 H 0.79039 0.69985 0.85191 0.0
H2254 H 0.77817 0.70093 0.82288 0.0
H2255 H 0.76499 0.70797 0.84797 0.0
C2256 C 0.8542 0.11057 0.9791 0.0
C2257 C 0.84521 0.10841 0.99979 0.0
C2258 C 0.87129 0.10027 0.97398 0.0
C2259 C 0.879 0.08704 0.98965 0.0
C2260 C 0.86976 0.08457 0.01045 0.0
C2261 C 0.8531 0.0956 0.01542 0.0
C2262 C 0.88124 0.10375 0.95197 0.0
C2263 C 0.87744 0.07025 0.02738 0.0
C2264 C 0.90747 0.03958 0.96872 0.0
C2265 C 0.92962 0.05167 0.97863 0.0
C2266 C 0.89084 0.05126 0.97144 0.0
C2267 C 0.89664 0.07553 0.98433 0.0
C2268 C 0.91912 0.08821 0.99344 0.0
C2269 C 0.9354 0.07608 0.99046 0.0
C2270 C 0.86696 0.03729 0.96149 0.0
C2271 C 0.92588 0.11421 0.00707 0.0
H2272 H 0.84821 0.12079 0.96719 0.0
H2273 H 0.84601 0.09392 0.03138 0.0
H2274 H 0.89939 0.11283 0.9566 0.0
H2275 H 0.87908 0.08576 0.94051 0.0
H2276 H 0.87355 0.11492 0.94185 0.0
H2277 H 0.86808 0.06958 0.04243 0.0
H2278 H 0.87537 0.05128 0.01814 0.0
H2279 H 0.89539 0.07857 0.0343 0.0
H2280 H 0.90303 0.02067 0.95967 0.0
H2281 H 0.95264 0.08554 0.99774 0.0
H2282 H 0.85929 0.04788 0.95068 0.0
H2283 H 0.85726 0.03446 0.97606 0.0
H2284 H 0.86547 0.01919 0.95052 0.0
H2285 H 0.9187 0.12585 0.99714 0.0
H2286 H 0.94424 0.12216 0.01099 0.0
H2287 H 0.91925 0.11481 0.02392 0.0
C2288 C 0.39114 0.435 0.01985 0.0
C2289 C 0.38971 0.42395 0.03943 0.0
C2290 C 0.4113 0.45096 0.01698 0.0
C2291 C 0.43025 0.45658 0.03452 0.0
C2292 C 0.42861 0.44595 0.05466 0.0
C2293 C 0.40848 0.42937 0.05663 0.0
C2294 C 0.41248 0.46137 0.99497 0.0
C2295 C 0.44814 0.45208 0.07414 0.0
C2296 C 0.48888 0.48305 0.02155 0.0
C2297 C 0.49288 0.50787 0.031 0.0
C2298 C 0.46845 0.46608 0.02222 0.0
C2299 C 0.45158 0.47427 0.03236 0.0
C2300 C 0.45539 0.49947 0.04133 0.0
C2301 C 0.47597 0.51587 0.04063 0.0
C2302 C 0.46503 0.43939 0.01234 0.0
C2303 C 0.43787 0.5091 0.05205 0.0
H2304 H 0.37672 0.43032 0.00628 0.0
H2305 H 0.40737 0.42061 0.07165 0.0
H2306 H 0.41758 0.4816 0.99955 0.0
H2307 H 0.42527 0.45591 0.98547 0.0
H2308 H 0.39632 0.45508 0.98295 0.0
H2309 H 0.44401 0.44266 0.08885 0.0
H2310 H 0.46229 0.44686 0.06721 0.0
H2311 H 0.45378 0.47207 0.08111 0.0
H2312 H 0.50171 0.47692 0.0138 0.0
H2313 H 0.47881 0.53511 0.04774 0.0
H2314 H 0.44972 0.43217 0.99908 0.0
H2315 H 0.4627 0.42886 0.02655 0.0
H2316 H 0.47932 0.43612 0.00407 0.0
H2317 H 0.42227 0.50374 0.03926 0.0
H2318 H 0.44324 0.5293 0.05766 0.0
H2319 H 0.43394 0.50098 0.06754 0.0
C2320 C 0.37668 0.62774 0.7765 0.0
C2321 C 0.39543 0.62517 0.76586 0.0
C2322 C 0.36789 0.64827 0.77674 0.0
C2323 C 0.37754 0.66808 0.76601 0.0
C2324 C 0.39652 0.66584 0.75516 0.0
C2325 C 0.4051 0.6449 0.75522 0.0
C2326 C 0.34798 0.6487 0.7888 0.0
C2327 C 0.4079 0.68575 0.74328 0.0
C2328 C 0.33861 0.70874 0.74966 0.0
C2329 C 0.34566 0.73037 0.76728 0.0
C2330 C 0.34922 0.68947 0.74849 0.0
C2331 C 0.36734 0.69033 0.76589 0.0
C2332 C 0.37448 0.71208 0.78386 0.0
C2333 C 0.3641 0.73161 0.78407 0.0
C2334 C 0.34082 0.66786 0.72833 0.0
C2335 C 0.39294 0.71454 0.80349 0.0
H2336 H 0.36849 0.61333 0.78496 0.0
H2337 H 0.41949 0.64409 0.74687 0.0
H2338 H 0.35191 0.66557 0.80251 0.0
H2339 H 0.33385 0.64899 0.77593 0.0
H2340 H 0.34258 0.63267 0.7971 0.0
H2341 H 0.42176 0.68147 0.73486 0.0
H2342 H 0.39569 0.68869 0.72975 0.0
H2343 H 0.41461 0.70315 0.75632 0.0
H2344 H 0.32466 0.70691 0.73629 0.0
H2345 H 0.37007 0.74765 0.79803 0.0
H2346 H 0.333 0.65131 0.73497 0.0
H2347 H 0.3549 0.66436 0.71983 0.0
H2348 H 0.3284 0.67063 0.71488 0.0
H2349 H 0.38809 0.69943 0.81308 0.0
H2350 H 0.39695 0.73219 0.81615 0.0
H2351 H 0.40816 0.71299 0.79621 0.0
C2352 C 0.21931 0.61442 0.53788 0.0
C2353 C 0.23252 0.59859 0.53336 0.0
C2354 C 0.19726 0.60823 0.52722 0.0
C2355 C 0.18746 0.5848 0.51307 0.0
C2356 C 0.20053 0.56859 0.50828 0.0
C2357 C 0.22319 0.57593 0.51813 0.0
C2358 C 0.18431 0.62671 0.53157 0.0
C2359 C 0.19049 0.54335 0.49343 0.0
C2360 C 0.12805 0.56878 0.52191 0.0
C2361 C 0.11754 0.57342 0.5016 0.0
C2362 C 0.15046 0.5696 0.52444 0.0
C2363 C 0.16298 0.57665 0.50681 0.0
C2364 C 0.15227 0.58052 0.48577 0.0
C2365 C 0.12939 0.57838 0.48324 0.0
C2366 C 0.161 0.56429 0.54669 0.0
C2367 C 0.16486 0.58834 0.46652 0.0
H2368 H 0.22642 0.63229 0.54912 0.0
H2369 H 0.23351 0.56395 0.51419 0.0
H2370 H 0.1749 0.6278 0.51482 0.0
H2371 H 0.17213 0.62098 0.54336 0.0
H2372 H 0.1953 0.64524 0.53983 0.0
H2373 H 0.20343 0.5354 0.48681 0.0
H2374 H 0.18144 0.5313 0.50428 0.0
H2375 H 0.17838 0.54353 0.47828 0.0
H2376 H 0.11859 0.56399 0.53573 0.0
H2377 H 0.12101 0.58147 0.46736 0.0
H2378 H 0.17105 0.58169 0.55839 0.0
H2379 H 0.1723 0.55289 0.54265 0.0
H2380 H 0.14835 0.55473 0.5564 0.0
H2381 H 0.1678 0.6083 0.46787 0.0
H2382 H 0.15486 0.57911 0.44905 0.0
H2383 H 0.18117 0.58437 0.46745 0.0
C2384 C 0.73026 1.00099 0.76309 0.0
C2385 C 0.71277 1.00349 0.77509 0.0
C2386 C 0.74361 0.98662 0.76959 0.0
C2387 C 0.73865 0.97391 0.78796 0.0
C2388 C 0.72131 0.97701 0.80056 0.0
C2389 C 0.7087 0.9922 0.79414 0.0
C2390 C 0.76235 0.98421 0.75614 0.0
C2391 C 0.71525 0.96321 0.81978 0.0
C2392 C 0.75617 0.91644 0.77778 0.0
C2393 C 0.77674 0.92378 0.79244 0.0
C2394 C 0.74262 0.932 0.77762 0.0
C2395 C 0.75024 0.95558 0.7921 0.0
C2396 C 0.77039 0.96244 0.80804 0.0
C2397 C 0.78343 0.94625 0.80814 0.0
C2398 C 0.72103 0.92387 0.76066 0.0
C2399 C 0.7791 0.98754 0.82351 0.0
H2400 H 0.73332 0.01007 0.74845 0.0
H2401 H 0.69498 0.99429 0.80321 0.0
H2402 H 0.77788 0.98699 0.76843 0.0
H2403 H 0.75813 0.96552 0.74531 0.0
H2404 H 0.7656 0.99751 0.74435 0.0
H2405 H 0.70305 0.96972 0.82953 0.0
H2406 H 0.70788 0.94352 0.81197 0.0
H2407 H 0.73029 0.96493 0.83237 0.0
H2408 H 0.75115 0.89892 0.76571 0.0
H2409 H 0.79946 0.95174 0.81937 0.0
H2410 H 0.72305 0.9333 0.74565 0.0
H2411 H 0.70751 0.92878 0.76924 0.0
H2412 H 0.71584 0.90386 0.75366 0.0
H2413 H 0.7858 1.00095 0.81268 0.0
H2414 H 0.79262 0.9884 0.83773 0.0
H2415 H 0.7656 0.99316 0.83151 0.0
C2416 C 0.74706 0.90745 0.49399 0.0
C2417 C 0.76232 0.91097 0.51452 0.0
C2418 C 0.73024 0.91934 0.49337 0.0
C2419 C 0.72847 0.93524 0.51378 0.0
C2420 C 0.74374 0.93883 0.53459 0.0
C2421 C 0.76045 0.92672 0.53471 0.0
C2422 C 0.71444 0.91496 0.47077 0.0
C2423 C 0.74243 0.95555 0.55677 0.0
C2424 C 0.69923 0.98447 0.50774 0.0
C2425 C 0.67831 0.97442 0.51389 0.0
C2426 C 0.71549 0.97181 0.50731 0.0
C2427 C 0.71092 0.94847 0.51329 0.0
C2428 C 0.68973 0.938 0.5191 0.0
C2429 C 0.67374 0.95106 0.51935 0.0
C2430 C 0.73773 0.98363 0.50078 0.0
C2431 C 0.68397 0.91304 0.52526 0.0
H2432 H 0.74824 0.89535 0.47824 0.0
H2433 H 0.77203 0.92956 0.55069 0.0
H2434 H 0.697 0.90823 0.47375 0.0
H2435 H 0.71607 0.93237 0.46463 0.0
H2436 H 0.71758 0.9015 0.45663 0.0
H2437 H 0.7553 0.95621 0.57158 0.0
H2438 H 0.74453 0.97431 0.55359 0.0
H2439 H 0.72578 0.94935 0.56199 0.0
H2440 H 0.70316 1.00259 0.50377 0.0
H2441 H 0.65756 0.94287 0.52375 0.0
H2442 H 0.74128 0.97143 0.48588 0.0
H2443 H 0.75112 0.98655 0.51579 0.0
H2444 H 0.73845 1.00147 0.4958 0.0
H2445 H 0.68612 0.89934 0.5107 0.0
H2446 H 0.66662 0.90716 0.52882 0.0
H2447 H 0.69547 0.9131 0.54102 0.0
C2448 C 0.37822 0.4725 0.74127 0.0
C2449 C 0.39899 0.48317 0.75581 0.0
C2450 C 0.36471 0.44855 0.74195 0.0
C2451 C 0.37163 0.43465 0.75785 0.0
C2452 C 0.39229 0.44576 0.77292 0.0
C2453 C 0.40558 0.46928 0.77148 0.0
C2454 C 0.34318 0.43779 0.72513 0.0
C2455 C 0.40056 0.43272 0.79073 0.0
C2456 C 0.32704 0.383 0.77552 0.0
C2457 C 0.33 0.36119 0.76339 0.0
C2458 C 0.34048 0.40651 0.77417 0.0
C2459 C 0.35717 0.40908 0.75947 0.0
C2460 C 0.36032 0.38707 0.74712 0.0
C2461 C 0.34703 0.36362 0.74942 0.0
C2462 C 0.33668 0.42875 0.78859 0.0
C2463 C 0.37736 0.38828 0.73081 0.0
H2464 H 0.37289 0.48242 0.72868 0.0
H2465 H 0.42155 0.4769 0.78279 0.0
H2466 H 0.34339 0.42029 0.71419 0.0
H2467 H 0.32905 0.43365 0.73502 0.0
H2468 H 0.3402 0.45025 0.7134 0.0
H2469 H 0.4164 0.44406 0.80194 0.0
H2470 H 0.38789 0.42762 0.80219 0.0
H2471 H 0.40324 0.41558 0.78165 0.0
H2472 H 0.31392 0.38168 0.78621 0.0
H2473 H 0.34932 0.3472 0.73942 0.0
H2474 H 0.33122 0.43999 0.77686 0.0
H2475 H 0.35246 0.44023 0.79977 0.0
H2476 H 0.32393 0.4239 0.80006 0.0
H2477 H 0.37346 0.39818 0.71694 0.0
H2478 H 0.37791 0.36987 0.72232 0.0
H2479 H 0.39411 0.39868 0.74056 0.0
C2480 C 0.21982 0.60227 0.25744 0.0
C2481 C 0.19829 0.60428 0.25187 0.0
C2482 C 0.23829 0.62266 0.26061 0.0
C2483 C 0.23486 0.64517 0.25773 0.0
C2484 C 0.21316 0.64702 0.25127 0.0
C2485 C 0.19503 0.62649 0.2487 0.0
C2486 C 0.26121 0.62028 0.26779 0.0
C2487 C 0.20902 0.67079 0.24752 0.0
C2488 C 0.26833 0.70768 0.28722 0.0
C2489 C 0.27519 0.71682 0.26769 0.0
C2490 C 0.25735 0.68302 0.28499 0.0
C2491 C 0.25348 0.66746 0.26274 0.0
C2492 C 0.26321 0.6759 0.24391 0.0
C2493 C 0.27387 0.70073 0.24655 0.0
C2494 C 0.2475 0.67445 0.30561 0.0
C2495 C 0.2601 0.65946 0.22019 0.0
H2496 H 0.22215 0.58492 0.25999 0.0
H2497 H 0.1783 0.62773 0.24409 0.0
H2498 H 0.27331 0.62987 0.25759 0.0
H2499 H 0.26707 0.62891 0.28658 0.0
H2500 H 0.26132 0.60088 0.26539 0.0
H2501 H 0.19119 0.66868 0.24149 0.0
H2502 H 0.21453 0.68459 0.26413 0.0
H2503 H 0.21879 0.67802 0.23425 0.0
H2504 H 0.27015 0.71992 0.30386 0.0
H2505 H 0.28009 0.70762 0.23168 0.0
H2506 H 0.24872 0.65588 0.30658 0.0
H2507 H 0.22959 0.67362 0.3034 0.0
H2508 H 0.25582 0.68704 0.32249 0.0
H2509 H 0.26006 0.64067 0.2219 0.0
H2510 H 0.27335 0.66664 0.20998 0.0
H2511 H 0.24383 0.65841 0.2101 0.0
C2512 C 0.5195 0.70178 0.4745 0.0
C2513 C 0.51346 0.70007 0.45037 0.0
C2514 C 0.52601 0.68304 0.4832 0.0
C2515 C 0.52572 0.66153 0.46746 0.0
C2516 C 0.5197 0.65974 0.44298 0.0
C2517 C 0.51399 0.67923 0.43469 0.0
C2518 C 0.53298 0.68619 0.5093 0.0
C2519 C 0.51875 0.637 0.42562 0.0
C2520 C 0.5584 0.62007 0.48889 0.0
C2521 C 0.5417 0.6019 0.49505 0.0
C2522 C 0.55342 0.63936 0.47966 0.0
C2523 C 0.53123 0.64078 0.47673 0.0
C2524 C 0.51434 0.62263 0.48322 0.0
C2525 C 0.51975 0.60338 0.49211 0.0
C2526 C 0.57194 0.65819 0.47296 0.0
C2527 C 0.49052 0.62354 0.48075 0.0
H2528 H 0.51926 0.71798 0.48665 0.0
H2529 H 0.50917 0.67779 0.41604 0.0
H2530 H 0.52125 0.67215 0.51623 0.0
H2531 H 0.54971 0.68353 0.51289 0.0
H2532 H 0.53344 0.70452 0.51904 0.0
H2533 H 0.51402 0.63851 0.4072 0.0
H2534 H 0.53515 0.63324 0.42735 0.0
H2535 H 0.50647 0.62108 0.42945 0.0
H2536 H 0.57537 0.61899 0.49088 0.0
H2537 H 0.50672 0.58946 0.49683 0.0
H2538 H 0.57318 0.67663 0.48298 0.0
H2539 H 0.56824 0.65852 0.45406 0.0
H2540 H 0.58831 0.65455 0.47631 0.0
H2541 H 0.48951 0.64073 0.49158 0.0
H2542 H 0.4793 0.6079 0.48626 0.0
H2543 H 0.4844 0.6235 0.46224 0.0
C2544 C 0.65352 0.30683 0.6776 0.0
C2545 C 0.65916 0.31671 0.65795 0.0
C2546 C 0.67001 0.30382 0.69425 0.0
C2547 C 0.69271 0.31105 0.69135 0.0
C2548 C 0.69846 0.32119 0.67166 0.0
C2549 C 0.68171 0.32384 0.65529 0.0
C2550 C 0.66314 0.29269 0.71486 0.0
C2551 C 0.72239 0.32927 0.66783 0.0
C2552 C 0.73862 0.3283 0.74428 0.0
C2553 C 0.74692 0.30796 0.74191 0.0
C2554 C 0.72073 0.32924 0.72828 0.0
C2555 C 0.7107 0.30929 0.70937 0.0
C2556 C 0.71884 0.28851 0.70701 0.0
C2557 C 0.73691 0.28813 0.72326 0.0
C2558 C 0.71283 0.35185 0.7314 0.0
C2559 C 0.70858 0.26677 0.68723 0.0
H2560 H 0.63618 0.30092 0.6797 0.0
H2561 H 0.68636 0.33142 0.64018 0.0
H2562 H 0.66895 0.27622 0.71507 0.0
H2563 H 0.6711 0.30582 0.73151 0.0
H2564 H 0.64482 0.28746 0.71437 0.0
H2565 H 0.72411 0.33655 0.65149 0.0
H2566 H 0.73235 0.34364 0.68291 0.0
H2567 H 0.72964 0.31371 0.66684 0.0
H2568 H 0.74625 0.3437 0.75864 0.0
H2569 H 0.74315 0.27228 0.72142 0.0
H2570 H 0.69481 0.34689 0.73252 0.0
H2571 H 0.71513 0.36052 0.71593 0.0
H2572 H 0.72192 0.36548 0.74742 0.0
H2573 H 0.6905 0.25973 0.68756 0.0
H2574 H 0.71633 0.25175 0.68824 0.0
H2575 H 0.71041 0.27233 0.67011 0.0
C2576 C 0.01458 0.33881 0.9869 0.0
C2577 C 0.02251 0.3306 0.96643 0.0
C2578 C 0.01807 0.36382 0.99556 0.0
C2579 C 0.02969 0.3811 0.98343 0.0
C2580 C 0.03867 0.37302 0.96343 0.0
C2581 C 0.03504 0.34789 0.95523 0.0
C2582 C 0.00852 0.37171 0.01714 0.0
C2583 C 0.05126 0.39087 0.95006 0.0
C2584 C 0.01756 0.44255 0.98789 0.0
C2585 C 0.03652 0.45817 0.00286 0.0
C2586 C 0.01498 0.41735 0.98171 0.0
C2587 C 0.0316 0.40752 0.99097 0.0
C2588 C 0.05032 0.42308 0.00683 0.0
C2589 C 0.05261 0.4482 0.01249 0.0
C2590 C 0.99482 0.40137 0.96462 0.0
C2591 C 0.06825 0.4133 0.01736 0.0
H2592 H 0.00494 0.32564 0.99577 0.0
H2593 H 0.04123 0.34178 0.9394 0.0
H2594 H 0.02152 0.38583 0.03014 0.0
H2595 H 0.99514 0.38 0.01227 0.0
H2596 H 1.00148 0.35621 0.02562 0.0
H2597 H 0.05825 0.38178 0.93567 0.0
H2598 H 0.03998 0.40038 0.94236 0.0
H2599 H 0.06507 0.40501 0.96209 0.0
H2600 H 0.00515 0.45012 0.98026 0.0
H2601 H 0.06724 0.46013 0.02423 0.0
H2602 H 0.98585 0.38613 0.97238 0.0
H2603 H 1.00015 0.39317 0.94849 0.0
H2604 H 0.98308 0.41166 0.95957 0.0
H2605 H 0.06083 0.39818 0.02608 0.0
H2606 H 0.08114 0.42759 0.03038 0.0
H2607 H 0.07646 0.40573 0.00327 0.0
C2608 C 0.02343 0.78548 0.14648 0.0
C2609 C 0.04097 0.80561 0.15874 0.0
C2610 C 1.00282 0.77907 0.15461 0.0
C2611 C 0.99957 0.79317 0.17548 0.0
C2612 C 0.01733 0.81324 0.18807 0.0
C2613 C 0.03771 0.81919 0.17959 0.0
C2614 C 0.98442 0.75749 0.14063 0.0
C2615 C 0.01471 0.82869 0.21048 0.0
C2616 C 0.94279 0.79753 0.18889 0.0
C2617 C 0.93941 0.78391 0.20662 0.0
C2618 C 0.96163 0.79951 0.17761 0.0
C2619 C 0.97761 0.7876 0.18414 0.0
C2620 C 0.97359 0.77254 0.20092 0.0
C2621 C 0.95463 0.77094 0.21199 0.0
C2622 C 0.96496 0.81535 0.15948 0.0
C2623 C 0.98989 0.75908 0.20809 0.0
H2624 H 0.0257 0.77482 0.13035 0.0
H2625 H 0.05109 0.83471 0.18929 0.0
H2626 H 0.97686 0.74543 0.15227 0.0
H2627 H 0.97109 0.76403 0.13227 0.0
H2628 H 0.99042 0.74655 0.12664 0.0
H2629 H 0.03019 0.84342 0.21844 0.0
H2630 H 1.00114 0.83714 0.2069 0.0
H2631 H 0.00997 0.81708 0.22348 0.0
H2632 H 0.93088 0.8071 0.18412 0.0
H2633 H 0.95233 0.76039 0.22567 0.0
H2634 H 0.96887 0.80535 0.14335 0.0
H2635 H 0.97933 0.83175 0.16643 0.0
H2636 H 0.95008 0.82144 0.15469 0.0
H2637 H 0.99461 0.74926 0.19238 0.0
H2638 H 0.98304 0.74573 0.21895 0.0
H2639 H 0.00531 0.77238 0.21838 0.0
C2640 C 0.53039 0.30399 0.10983 0.0
C2641 C 0.50718 0.29582 0.10852 0.0
C2642 C 0.54019 0.32193 0.09774 0.0
C2643 C 0.52643 0.33215 0.08436 0.0
C2644 C 0.50301 0.32407 0.08303 0.0
C2645 C 0.49364 0.30585 0.09503 0.0
C2646 C 0.5652 0.32998 0.09939 0.0
C2647 C 0.48785 0.33477 0.069 0.0
C2648 C 0.54551 0.394 0.06874 0.0
C2649 C 0.54475 0.38742 0.04441 0.0
C2650 C 0.54106 0.37619 0.08246 0.0
C2651 C 0.53621 0.35133 0.07159 0.0
C2652 C 0.5378 0.3448 0.04757 0.0
C2653 C 0.54183 0.36294 0.03417 0.0
C2654 C 0.53978 0.38389 0.10811 0.0
C2655 C 0.53356 0.31849 0.03561 0.0
H2656 H 0.54097 0.29624 0.12018 0.0
H2657 H 0.47573 0.29965 0.09402 0.0
H2658 H 0.56997 0.32978 0.08165 0.0
H2659 H 0.57188 0.34902 0.10946 0.0
H2660 H 0.57327 0.31821 0.10823 0.0
H2661 H 0.47003 0.3267 0.07003 0.0
H2662 H 0.49223 0.35479 0.0755 0.0
H2663 H 0.49011 0.33167 0.0503 0.0
H2664 H 0.54857 0.41302 0.07691 0.0
H2665 H 0.54134 0.3577 0.01541 0.0
H2666 H 0.54854 0.37425 0.11902 0.0
H2667 H 0.52209 0.3789 0.1107 0.0
H2668 H 0.54704 0.40388 0.11454 0.0
H2669 H 0.54221 0.30882 0.04663 0.0
H2670 H 0.53914 0.31687 0.01818 0.0
H2671 H 0.51548 0.3091 0.03308 0.0
C2672 C 0.05248 0.31348 0.3231 0.0
C2673 C 0.04876 0.31009 0.34567 0.0
C2674 C 0.03459 0.31148 0.30573 0.0
C2675 C 0.01287 0.30685 0.31155 0.0
C2676 C 0.00893 0.3013 0.33366 0.0
C2677 C 0.02691 0.30243 0.35024 0.0
C2678 C 0.03911 0.31618 0.28186 0.0
C2679 C 0.98611 0.29691 0.34093 0.0
C2680 C 0.97264 0.33974 0.29193 0.0
C2681 C 0.95489 0.32007 0.2799 0.0
C2682 C 0.99264 0.33596 0.30075 0.0
C2683 C 0.99491 0.31198 0.29673 0.0
C2684 C 0.97776 0.29248 0.28246 0.0
C2685 C 0.95762 0.29668 0.27455 0.0
C2686 C 0.01026 0.35711 0.31657 0.0
C2687 C 0.97999 0.26692 0.27723 0.0
H2688 H 0.06935 0.31891 0.31936 0.0
H2689 H 0.02388 0.29931 0.36753 0.0
H2690 H 0.02585 0.30378 0.26786 0.0
H2691 H 0.03932 0.33519 0.28089 0.0
H2692 H 0.05545 0.31377 0.27835 0.0
H2693 H 0.98577 0.29134 0.35821 0.0
H2694 H 0.98092 0.3139 0.34215 0.0
H2695 H 0.97359 0.28255 0.32771 0.0
H2696 H 0.97019 0.35771 0.29618 0.0
H2697 H 0.94367 0.28155 0.26522 0.0
H2698 H 0.02674 0.35855 0.31104 0.0
H2699 H 0.01153 0.35401 0.33484 0.0
H2700 H 0.00647 0.37479 0.31659 0.0
H2701 H 0.99661 0.26722 0.27244 0.0
H2702 H 0.96694 0.25491 0.26277 0.0
H2703 H 0.9785 0.2588 0.29309 0.0
C2704 C 0.98396 0.64583 0.59561 0.0
C2705 C 0.98974 0.67132 0.59846 0.0
C2706 C 0.98919 0.6316 0.5765 0.0
C2707 C 1.0004 0.64324 0.55997 0.0
C2708 C 0.00462 0.6687 0.5617 0.0
C2709 C 0.99918 0.68249 0.58097 0.0
C2710 C 0.98423 0.60439 0.57496 0.0
C2711 C 0.01625 0.68157 0.54411 0.0
C2712 C 0.04 0.61334 0.53126 0.0
C2713 C 0.02681 0.60054 0.5099 0.0
C2714 C 0.03153 0.62734 0.54778 0.0
C2715 C 0.00969 0.62918 0.5423 0.0
C2716 C 0.99672 0.61727 0.52025 0.0
C2717 C 0.00542 0.60292 0.50431 0.0
C2718 C 0.04562 0.63938 0.57142 0.0
C2719 C 0.97349 0.61917 0.51378 0.0
H2720 H 0.97637 0.63706 0.60892 0.0
H2721 H 1.00349 0.70217 0.58295 0.0
H2722 H 0.97519 0.59434 0.55734 0.0
H2723 H 1.0001 0.59963 0.57743 0.0
H2724 H 0.97422 0.59798 0.58842 0.0
H2725 H 0.01582 0.70085 0.54631 0.0
H2726 H 0.0339 0.6814 0.54627 0.0
H2727 H 0.00851 0.67194 0.52593 0.0
H2728 H 0.05659 0.61158 0.53545 0.0
H2729 H 0.99524 0.59307 0.48768 0.0
H2730 H 0.03713 0.63209 0.58549 0.0
H2731 H 0.04776 0.65933 0.57474 0.0
H2732 H 0.06233 0.63629 0.57277 0.0
H2733 H 0.96254 0.61084 0.52565 0.0
H2734 H 0.96612 0.60989 0.49539 0.0
H2735 H 0.97369 0.63862 0.51606 0.0
C2736 C 0.68498 0.83685 0.85287 0.0
C2737 C 0.66386 0.83652 0.84257 0.0
C2738 C 0.69934 0.82836 0.8392 0.0
C2739 C 0.69189 0.81851 0.81495 0.0
C2740 C 0.67039 0.81783 0.80458 0.0
C2741 C 0.65673 0.82729 0.8185 0.0
C2742 C 0.72243 0.82992 0.85065 0.0
C2743 C 0.66172 0.80671 0.77896 0.0
C2744 C 0.73769 0.81826 0.77865 0.0
C2745 C 0.74015 0.7949 0.77868 0.0
C2746 C 0.72127 0.82581 0.78947 0.0
C2747 C 0.70693 0.80951 0.80042 0.0
C2748 C 0.70825 0.78532 0.79906 0.0
C2749 C 0.72494 0.77827 0.78817 0.0
C2750 C 0.72031 0.85175 0.79052 0.0
C2751 C 0.69293 0.76737 0.81029 0.0
H2752 H 0.69026 0.84389 0.87156 0.0
H2753 H 0.64011 0.82659 0.81076 0.0
H2754 H 0.72462 0.81137 0.849 0.0
H2755 H 0.73504 0.84054 0.84159 0.0
H2756 H 0.7258 0.83871 0.86955 0.0
H2757 H 0.64437 0.8071 0.77379 0.0
H2758 H 0.67248 0.81666 0.76782 0.0
H2759 H 0.66224 0.78748 0.7752 0.0
H2760 H 0.74922 0.8311 0.77103 0.0
H2761 H 0.72676 0.76018 0.78819 0.0
H2762 H 0.72591 0.8622 0.80883 0.0
H2763 H 0.70302 0.85214 0.78524 0.0
H2764 H 0.73105 0.86117 0.77902 0.0
H2765 H 0.69742 0.77278 0.82966 0.0
H2766 H 0.69403 0.74848 0.80482 0.0
H2767 H 0.67543 0.76746 0.80572 0.0
C2768 C 0.46404 0.55645 0.66844 0.0
C2769 C 0.47725 0.55688 0.68977 0.0
C2770 C 0.47238 0.55523 0.64629 0.0
C2771 C 0.49481 0.55474 0.6446 0.0
C2772 C 0.50824 0.55588 0.66621 0.0
C2773 C 0.49943 0.55658 0.68785 0.0
C2774 C 0.45684 0.55381 0.62436 0.0
C2775 C 0.53222 0.55605 0.66653 0.0
C2776 C 0.51436 0.52962 0.58547 0.0
C2777 C 0.5252 0.55086 0.57761 0.0
C2778 C 0.50424 0.53055 0.60648 0.0
C2779 C 0.50442 0.55325 0.62078 0.0
C2780 C 0.51505 0.57465 0.61264 0.0
C2781 C 0.52509 0.57321 0.5917 0.0
C2782 C 0.4935 0.50693 0.61362 0.0
C2783 C 0.51622 0.59947 0.62641 0.0
H2784 H 0.44683 0.55607 0.66882 0.0
H2785 H 0.51018 0.55669 0.70363 0.0
H2786 H 0.46397 0.56893 0.61551 0.0
H2787 H 0.4549 0.53646 0.61191 0.0
H2788 H 0.44015 0.55476 0.62809 0.0
H2789 H 0.54096 0.5579 0.68455 0.0
H2790 H 0.53314 0.53891 0.65555 0.0
H2791 H 0.54119 0.57138 0.65886 0.0
H2792 H 0.51407 0.51208 0.57536 0.0
H2793 H 0.53318 0.59 0.58643 0.0
H2794 H 0.47605 0.50591 0.6159 0.0
H2795 H 0.50243 0.50626 0.63079 0.0
H2796 H 0.49357 0.49072 0.60053 0.0
H2797 H 0.49926 0.60052 0.62881 0.0
H2798 H 0.52409 0.61444 0.61768 0.0
H2799 H 0.52592 0.60243 0.64415 0.0
C2800 C 0.78719 0.18279 0.96435 0.0
C2801 C 0.77641 0.18071 0.9839 0.0
C2802 C 0.77757 0.18982 0.94494 0.0
C2803 C 0.75674 0.19473 0.94527 0.0
C2804 C 0.7449 0.19041 0.96403 0.0
C2805 C 0.75498 0.18363 0.98328 0.0
C2806 C 0.79044 0.19371 0.92488 0.0
C2807 C 0.72225 0.19449 0.96447 0.0
C2808 C 0.75577 0.24883 0.91831 0.0
C2809 C 0.74573 0.23763 0.89522 0.0
C2810 C 0.75816 0.23493 0.93518 0.0
C2811 C 0.74996 0.2092 0.92885 0.0
C2812 C 0.73784 0.19785 0.90622 0.0
C2813 C 0.73614 0.21227 0.88944 0.0
C2814 C 0.77127 0.24775 0.95916 0.0
C2815 C 0.72807 0.17053 0.89914 0.0
H2816 H 0.80348 0.17982 0.96458 0.0
H2817 H 0.74612 0.18091 0.99793 0.0
H2818 H 0.77959 0.18466 0.90786 0.0
H2819 H 0.79628 0.21353 0.92491 0.0
H2820 H 0.80513 0.18654 0.92613 0.0
H2821 H 0.71352 0.1858 0.97775 0.0
H2822 H 0.72412 0.21437 0.96882 0.0
H2823 H 0.71172 0.18716 0.94698 0.0
H2824 H 0.76348 0.26839 0.92274 0.0
H2825 H 0.72824 0.20365 0.87157 0.0
H2826 H 0.78703 0.24267 0.9616 0.0
H2827 H 0.76174 0.24199 0.97313 0.0
H2828 H 0.77543 0.26794 0.96157 0.0
H2829 H 0.74087 0.16231 0.89262 0.0
H2830 H 0.71367 0.16557 0.88478 0.0
H2831 H 0.72262 0.16236 0.91417 0.0
C2832 C 0.11097 0.54876 0.17237 0.0
C2833 C 0.11858 0.52979 0.17897 0.0
C2834 C 0.10651 0.54999 0.14895 0.0
C2835 C 0.10929 0.53143 0.13161 0.0
C2836 C 0.11893 0.51351 0.138 0.0
C2837 C 0.12344 0.51279 0.16185 0.0
C2838 C 0.09753 0.5704 0.14288 0.0
C2839 C 0.12369 0.49476 0.11968 0.0
C2840 C 0.06024 0.51763 0.08542 0.0
C2841 C 0.06817 0.53473 0.07186 0.0
C2842 C 0.0744 0.51429 0.10372 0.0
C2843 C 0.09712 0.52797 0.10794 0.0
C2844 C 0.10562 0.54346 0.09275 0.0
C2845 C 0.09078 0.54744 0.07538 0.0
C2846 C 0.06447 0.49814 0.12 0.0
C2847 C 0.12994 0.55728 0.09573 0.0
H2848 H 0.10844 0.56287 0.18555 0.0
H2849 H 0.1304 0.49885 0.16701 0.0
H2850 H 0.10847 0.58091 0.13227 0.0
H2851 H 0.08068 0.5628 0.13227 0.0
H2852 H 0.09644 0.58333 0.15871 0.0
H2853 H 0.13599 0.48633 0.12725 0.0
H2854 H 0.10811 0.48008 0.11215 0.0
H2855 H 0.13006 0.50314 0.10508 0.0
H2856 H 0.04273 0.50764 0.08244 0.0
H2857 H 0.09682 0.56088 0.06494 0.0
H2858 H 0.06525 0.50952 0.13749 0.0
H2859 H 0.07406 0.485 0.12249 0.0
H2860 H 0.04682 0.48772 0.11332 0.0
H2861 H 0.13243 0.57663 0.10407 0.0
H2862 H 0.13543 0.55723 0.07829 0.0
H2863 H 0.14065 0.54945 0.1066 0.0
C2864 C 0.83463 0.82784 0.45617 0.0
C2865 C 0.81758 0.83434 0.46693 0.0
C2866 C 0.8328 0.82182 0.43168 0.0
C2867 C 0.81316 0.82162 0.41741 0.0
C2868 C 0.79551 0.82732 0.42812 0.0
C2869 C 0.79806 0.834 0.45278 0.0
C2870 C 0.85223 0.81642 0.42107 0.0
C2871 C 0.77408 0.8267 0.4135 0.0
C2872 C 0.81905 0.82948 0.35477 0.0
C2873 C 0.81152 0.8053 0.34243 0.0
C2874 C 0.8191 0.83512 0.37912 0.0
C2875 C 0.81158 0.81605 0.39132 0.0
C2876 C 0.80387 0.79156 0.37875 0.0
C2877 C 0.80379 0.7865 0.35438 0.0
C2878 C 0.82736 0.86146 0.39181 0.0
C2879 C 0.79588 0.7707 0.39106 0.0
H2880 H 0.84994 0.8284 0.4669 0.0
H2881 H 0.78484 0.83902 0.46096 0.0
H2882 H 0.84689 0.79809 0.40944 0.0
H2883 H 0.85839 0.82989 0.41009 0.0
H2884 H 0.86625 0.81708 0.43462 0.0
H2885 H 0.76154 0.83036 0.42448 0.0
H2886 H 0.77742 0.84052 0.40229 0.0
H2887 H 0.76692 0.8086 0.40162 0.0
H2888 H 0.82464 0.84398 0.34531 0.0
H2889 H 0.79771 0.76782 0.34462 0.0
H2890 H 0.84211 0.86403 0.40515 0.0
H2891 H 0.81435 0.86647 0.40125 0.0
H2892 H 0.83199 0.87416 0.37967 0.0
H2893 H 0.80968 0.76986 0.40405 0.0
H2894 H 0.78961 0.75281 0.37863 0.0
H2895 H 0.7824 0.7737 0.40087 0.0
C2896 C 0.46805 0.56177 0.84524 0.0
C2897 C 0.48167 0.56346 0.82754 0.0
C2898 C 0.47604 0.55945 0.86851 0.0
C2899 C 0.49844 0.55898 0.87502 0.0
C2900 C 0.51238 0.56164 0.85744 0.0
C2901 C 0.50393 0.56354 0.83437 0.0
C2902 C 0.46011 0.55654 0.88597 0.0
C2903 C 0.53635 0.56179 0.86274 0.0
C2904 C 0.52594 0.57017 0.94113 0.0
C2905 C 0.5253 0.54653 0.94501 0.0
C2906 C 0.51725 0.57444 0.91901 0.0
C2907 C 0.50714 0.55474 0.89954 0.0
C2908 C 0.5063 0.53085 0.90343 0.0
C2909 C 0.5153 0.52712 0.92564 0.0
C2910 C 0.51929 0.60036 0.91641 0.0
C2911 C 0.49587 0.50893 0.88391 0.0
H2912 H 0.45076 0.56103 0.84063 0.0
H2913 H 0.51488 0.56453 0.82127 0.0
H2914 H 0.45751 0.53824 0.89048 0.0
H2915 H 0.46724 0.57027 0.90245 0.0
H2916 H 0.44371 0.55855 0.8791 0.0
H2917 H 0.54565 0.56588 0.8481 0.0
H2918 H 0.54481 0.57555 0.87886 0.0
H2919 H 0.53714 0.54372 0.86609 0.0
H2920 H 0.53354 0.58563 0.95544 0.0
H2921 H 0.51439 0.50869 0.92779 0.0
H2922 H 0.50284 0.60213 0.90951 0.0
H2923 H 0.53053 0.60525 0.90351 0.0
H2924 H 0.52598 0.61363 0.93329 0.0
H2925 H 0.47862 0.50861 0.87732 0.0
H2926 H 0.49547 0.49148 0.88962 0.0
H2927 H 0.50533 0.51016 0.86899 0.0
C2928 C 0.77756 0.20132 0.09351 0.0
C2929 C 0.79738 0.19569 0.08969 0.0
C2930 C 0.77602 0.2153 0.11477 0.0
C2931 C 0.7948 0.22387 0.13252 0.0
C2932 C 0.81478 0.21794 0.12898 0.0
C2933 C 0.81581 0.20376 0.10751 0.0
C2934 C 0.75435 0.22093 0.1182 0.0
C2935 C 0.83507 0.22675 0.1478 0.0
C2936 C 0.80236 0.27953 0.17958 0.0
C2937 C 0.7985 0.26878 0.19903 0.0
C2938 C 0.80016 0.26499 0.15737 0.0
C2939 C 0.79374 0.23928 0.15481 0.0
C2940 C 0.78801 0.2284 0.17405 0.0
C2941 C 0.79058 0.24336 0.19606 0.0
C2942 C 0.80613 0.27709 0.13703 0.0
C2943 C 0.78061 0.20102 0.1718 0.0
H2944 H 0.76307 0.19457 0.08 0.0
H2945 H 0.83106 0.19924 0.10458 0.0
H2946 H 0.7486 0.2149 0.13411 0.0
H2947 H 0.75686 0.24093 0.121 0.0
H2948 H 0.74101 0.21193 0.10292 0.0
H2949 H 0.84925 0.22042 0.14226 0.0
H2950 H 0.84037 0.24699 0.15232 0.0
H2951 H 0.831 0.22012 0.164 0.0
H2952 H 0.80835 0.29922 0.18192 0.0
H2953 H 0.78746 0.23508 0.21115 0.0
H2954 H 0.79279 0.26933 0.12161 0.0
H2955 H 0.82156 0.27353 0.13179 0.0
H2956 H 0.80888 0.29716 0.14149 0.0
H2957 H 0.76775 0.19231 0.1561 0.0
H2958 H 0.77381 0.19565 0.18752 0.0
H2959 H 0.79499 0.19367 0.16955 0.0
C2960 C 0.13239 0.54324 0.32899 0.0
C2961 C 0.14466 0.55113 0.312 0.0
C2962 C 0.13441 0.55902 0.35043 0.0
C2963 C 0.14783 0.58368 0.35398 0.0
C2964 C 0.16212 0.59072 0.3378 0.0
C2965 C 0.16069 0.57401 0.31707 0.0
C2966 C 0.12021 0.54991 0.36806 0.0
C2967 C 0.17745 0.61632 0.34131 0.0
C2968 C 0.10735 0.60959 0.37918 0.0
C2969 C 0.11243 0.60537 0.40178 0.0
C2970 C 0.12224 0.60824 0.36328 0.0
C2971 C 0.14195 0.60233 0.37059 0.0
C2972 C 0.14977 0.6061 0.3948 0.0
C2973 C 0.13483 0.60837 0.41055 0.0
C2974 C 0.1145 0.60739 0.33775 0.0
C2975 C 0.17193 0.60292 0.40355 0.0
H2976 H 0.12022 0.52543 0.32492 0.0
H2977 H 0.17036 0.57983 0.30371 0.0
H2978 H 0.13006 0.55578 0.38591 0.0
H2979 H 0.1058 0.55751 0.36773 0.0
H2980 H 0.11368 0.52968 0.36423 0.0
H2981 H 0.18415 0.62008 0.32506 0.0
H2982 H 0.16886 0.63018 0.34714 0.0
H2983 H 0.19169 0.61869 0.35521 0.0
H2984 H 0.09057 0.60928 0.37248 0.0
H2985 H 0.13943 0.60759 0.42873 0.0
H2986 H 0.10644 0.58813 0.32873 0.0
H2987 H 0.12871 0.61492 0.3289 0.0
H2988 H 0.10214 0.6178 0.33579 0.0
H2989 H 0.17005 0.58327 0.40319 0.0
H2990 H 0.17819 0.61306 0.42192 0.0
H2991 H 0.18438 0.60932 0.39225 0.0
C2992 C 0.81165 0.81867 0.59814 0.0
C2993 C 0.81253 0.84253 0.5955 0.0
C2994 C 0.80679 0.81062 0.6189 0.0
C2995 C 0.80317 0.82695 0.63794 0.0
C2996 C 0.80362 0.85099 0.63527 0.0
C2997 C 0.80805 0.85842 0.61398 0.0
C2998 C 0.80605 0.7847 0.62061 0.0
C2999 C 0.80018 0.8691 0.65519 0.0
C3000 C 0.77514 0.79664 0.68458 0.0
C3001 C 0.79346 0.79798 0.70114 0.0
C3002 C 0.77794 0.80702 0.66452 0.0
C3003 C 0.79962 0.81881 0.66071 0.0
C3004 C 0.81812 0.82086 0.6778 0.0
C3005 C 0.8148 0.81058 0.69783 0.0
C3006 C 0.75773 0.80451 0.64695 0.0
C3007 C 0.84154 0.83305 0.67449 0.0
H3008 H 0.81499 0.80623 0.58391 0.0
H3009 H 0.80895 0.87696 0.61218 0.0
H3010 H 0.81947 0.78476 0.63454 0.0
H3011 H 0.78999 0.77537 0.62559 0.0
H3012 H 0.80809 0.77392 0.60385 0.0
H3013 H 0.80002 0.88669 0.65007 0.0
H3014 H 0.78428 0.86143 0.66136 0.0
H3015 H 0.81371 0.87276 0.67024 0.0
H3016 H 0.75859 0.78705 0.68707 0.0
H3017 H 0.82906 0.81168 0.71051 0.0
H3018 H 0.75818 0.79238 0.63032 0.0
H3019 H 0.75777 0.82253 0.64283 0.0
H3020 H 0.74196 0.7968 0.6534 0.0
H3021 H 0.84589 0.8223 0.65909 0.0
H3022 H 0.85396 0.83471 0.69009 0.0
H3023 H 0.8428 0.85152 0.67087 0.0
C3024 C 0.77318 0.49268 0.52632 0.0
C3025 C 0.76746 0.46802 0.51531 0.0
C3026 C 0.75682 0.50379 0.53234 0.0
C3027 C 0.73419 0.49 0.52678 0.0
C3028 C 0.72827 0.46504 0.51579 0.0
C3029 C 0.74505 0.45425 0.51034 0.0
C3030 C 0.76374 0.53035 0.54443 0.0
C3031 C 0.70424 0.44992 0.50937 0.0
C3032 C 0.69221 0.5155 0.55635 0.0
C3033 C 0.68448 0.52683 0.53913 0.0
C3034 C 0.70833 0.50319 0.55255 0.0
C3035 C 0.71675 0.50225 0.53103 0.0
C3036 C 0.70903 0.51372 0.51365 0.0
C3037 C 0.69307 0.52598 0.51797 0.0
C3038 C 0.71632 0.49119 0.57147 0.0
C3039 C 0.71767 0.51309 0.49049 0.0
H3040 H 0.79052 0.50328 0.53053 0.0
H3041 H 0.74062 0.43515 0.50188 0.0
H3042 H 0.75715 0.5412 0.533 0.0
H3043 H 0.7566 0.53253 0.56092 0.0
H3044 H 0.7821 0.53808 0.54869 0.0
H3045 H 0.70249 0.43054 0.50164 0.0
H3046 H 0.69589 0.45055 0.52513 0.0
H3047 H 0.69534 0.45761 0.49651 0.0
H3048 H 0.68537 0.51588 0.5726 0.0
H3049 H 0.68731 0.535 0.50476 0.0
H3050 H 0.73457 0.49891 0.57686 0.0
H3051 H 0.71302 0.47136 0.56458 0.0
H3052 H 0.70811 0.49367 0.58722 0.0
H3053 H 0.73583 0.52215 0.49358 0.0
H3054 H 0.7094 0.52232 0.47858 0.0
H3055 H 0.71503 0.49391 0.48151 0.0
C3056 C 0.19649 0.14474 0.47655 0.0
C3057 C 0.21632 0.1462 0.49082 0.0
C3058 C 0.17635 0.12785 0.47788 0.0
C3059 C 0.17582 0.11248 0.49441 0.0
C3060 C 0.19585 0.11379 0.50883 0.0
C3061 C 0.21596 0.13043 0.50663 0.0
C3062 C 0.15558 0.12665 0.46172 0.0
C3063 C 0.19594 0.09809 0.527 0.0
C3064 C 0.11912 0.08425 0.51121 0.0
C3065 C 0.11303 0.0608 0.4972 0.0
C3066 C 0.13957 0.10129 0.51067 0.0
C3067 C 0.15437 0.09454 0.49597 0.0
C3068 C 0.14833 0.07074 0.482 0.0
C3069 C 0.12781 0.05424 0.48278 0.0
C3070 C 0.14534 0.12648 0.52586 0.0
C3071 C 0.16348 0.06272 0.46601 0.0
H3072 H 0.19673 0.15704 0.46441 0.0
H3073 H 0.23118 0.13191 0.51803 0.0
H3074 H 0.14815 0.10783 0.45133 0.0
H3075 H 0.14301 0.13118 0.47219 0.0
H3076 H 0.15892 0.13939 0.44941 0.0
H3077 H 0.21282 0.10148 0.53701 0.0
H3078 H 0.18461 0.10173 0.53953 0.0
H3079 H 0.18963 0.07851 0.51844 0.0
H3080 H 0.1081 0.08913 0.52285 0.0
H3081 H 0.12332 0.03605 0.472 0.0
H3082 H 0.14768 0.14042 0.51472 0.0
H3083 H 0.16129 0.13016 0.53776 0.0
H3084 H 0.13224 0.12875 0.5366 0.0
H3085 H 0.16649 0.07463 0.45295 0.0
H3086 H 0.15646 0.04348 0.45647 0.0
H3087 H 0.17987 0.06462 0.47634 0.0
C3088 C 0.22016 0.9399 0.75711 0.0
C3089 C 0.21143 0.94585 0.77799 0.0
C3090 C 0.23166 0.9212 0.75365 0.0
C3091 C 0.23516 0.90739 0.7713 0.0
C3092 C 0.22648 0.9135 0.79231 0.0
C3093 C 0.21504 0.93197 0.79523 0.0
C3094 C 0.24001 0.91603 0.73072 0.0
C3095 C 0.22932 0.90037 0.81215 0.0
C3096 C 0.24875 0.84337 0.75864 0.0
C3097 C 0.27208 0.84899 0.76571 0.0
C3098 C 0.23689 0.8617 0.75978 0.0
C3099 C 0.24801 0.88717 0.76839 0.0
C3100 C 0.27153 0.89288 0.77553 0.0
C3101 C 0.28296 0.87425 0.77407 0.0
C3102 C 0.21212 0.85359 0.75177 0.0
C3103 C 0.28485 0.91903 0.78519 0.0
H3104 H 0.21785 0.94969 0.74322 0.0
H3105 H 0.20881 0.93558 0.81161 0.0
H3106 H 0.25824 0.9188 0.73399 0.0
H3107 H 0.23219 0.89665 0.722 0.0
H3108 H 0.23636 0.92787 0.71862 0.0
H3109 H 0.22191 0.90687 0.82747 0.0
H3110 H 0.22143 0.88048 0.80601 0.0
H3111 H 0.24727 0.90301 0.81799 0.0
H3112 H 0.23951 0.82437 0.75217 0.0
H3113 H 0.30077 0.87967 0.77986 0.0
H3114 H 0.20785 0.86328 0.73787 0.0
H3115 H 0.20349 0.85846 0.76662 0.0
H3116 H 0.20567 0.83359 0.74483 0.0
H3117 H 0.28245 0.9305 0.77226 0.0
H3118 H 0.30291 0.92108 0.78954 0.0
H3119 H 0.27884 0.92615 0.8013 0.0
C3120 C 0.38176 0.98918 0.0321 0.0
C3121 C 0.37103 0.96466 0.02236 0.0
C3122 C 0.40412 0.99911 0.0299 0.0
C3123 C 0.41535 0.98396 0.01766 0.0
C3124 C 0.4042 0.95935 0.00746 0.0
C3125 C 0.38223 0.95001 0.01015 0.0
C3126 C 0.41585 0.02545 0.04098 0.0
C3127 C 0.41568 0.94255 0.99446 0.0
C3128 C 0.46796 0.00556 0.993 0.0
C3129 C 0.48353 1.00215 0.01001 0.0
C3130 C 0.44571 1.00132 0.9961 0.0
C3131 C 0.43911 0.99292 0.01633 0.0
C3132 C 0.45487 0.98941 0.03352 0.0
C3133 C 0.47706 0.99438 0.03023 0.0
C3134 C 0.42923 0.00545 0.97763 0.0
C3135 C 0.44825 0.97989 0.05505 0.0
H3136 H 0.37292 1.00023 0.04176 0.0
H3137 H 0.37393 0.93087 0.00325 0.0
H3138 H 0.43002 0.02654 0.05449 0.0
H3139 H 0.42282 0.03533 0.02752 0.0
H3140 H 0.40457 0.0349 0.04934 0.0
H3141 H 0.4042 0.92408 0.98691 0.0
H3142 H 0.42286 0.95039 0.97997 0.0
H3143 H 0.42959 0.94059 0.00657 0.0
H3144 H 0.47335 0.01245 0.97779 0.0
H3145 H 0.48943 0.99231 0.04351 0.0
H3146 H 0.41935 0.0168 0.98593 0.0
H3147 H 0.4174 0.98769 0.96853 0.0
H3148 H 0.4375 0.01454 0.96431 0.0
H3149 H 0.44016 0.99212 0.0652 0.0
H3150 H 0.46271 0.97841 0.06675 0.0
H3151 H 0.43598 0.96157 0.04974 0.0
C3152 C 0.91392 0.58776 0.74739 0.0
C3153 C 0.90981 0.5741 0.76495 0.0
C3154 C 0.89956 0.60123 0.74081 0.0
C3155 C 0.88096 0.60131 0.75238 0.0
C3156 C 0.8766 0.58728 0.76988 0.0
C3157 C 0.891 0.57375 0.77584 0.0
C3158 C 0.90437 0.61555 0.72168 0.0
C3159 C 0.85701 0.58699 0.78274 0.0
C3160 C 0.85697 0.65494 0.75841 0.0
C3161 C 0.83654 0.64513 0.74338 0.0
C3162 C 0.87202 0.64119 0.76074 0.0
C3163 C 0.86668 0.61715 0.74742 0.0
C3164 C 0.84668 0.6076 0.73118 0.0
C3165 C 0.83175 0.62167 0.72946 0.0
C3166 C 0.89313 0.65199 0.77833 0.0
C3167 C 0.8406 0.58217 0.71639 0.0
H3168 H 0.92827 0.58779 0.73869 0.0
H3169 H 0.88767 0.56314 0.78937 0.0
H3170 H 0.88936 0.61106 0.70819 0.0
H3171 H 0.90872 0.63537 0.72918 0.0
H3172 H 0.91831 0.61184 0.713 0.0
H3173 H 0.85566 0.57461 0.79547 0.0
H3174 H 0.8586 0.60569 0.79238 0.0
H3175 H 0.84132 0.58108 0.77005 0.0
H3176 H 0.86107 0.67332 0.76871 0.0
H3177 H 0.81599 0.61395 0.71781 0.0
H3178 H 0.90779 0.65047 0.76991 0.0
H3179 H 0.89262 0.64161 0.7927 0.0
H3180 H 0.89552 0.67149 0.78612 0.0
H3181 H 0.85498 0.57895 0.70834 0.0
H3182 H 0.8263 0.5789 0.70223 0.0
H3183 H 0.83607 0.56858 0.72767 0.0
C3184 C 0.83869 0.64533 0.01547 0.0
C3185 C 0.84358 0.66393 0.00254 0.0
C3186 C 0.85394 0.63214 0.02021 0.0
C3187 C 0.87441 0.63733 0.01145 0.0
C3188 C 0.87951 0.65627 0.99862 0.0
C3189 C 0.86415 0.66943 0.9945 0.0
C3190 C 0.84805 0.61247 0.03437 0.0
C3191 C 0.90101 0.66225 0.98873 0.0
C3192 C 0.9234 0.61528 0.03346 0.0
C3193 C 0.9217 0.59544 0.01532 0.0
C3194 C 0.90769 0.62867 0.03296 0.0
C3195 C 0.8898 0.62187 0.014 0.0
C3196 C 0.88748 0.60107 0.99634 0.0
C3197 C 0.90347 0.58823 0.99717 0.0
C3198 C 0.91077 0.65066 0.05218 0.0
C3199 C 0.86857 0.59291 0.97598 0.0
H3200 H 0.82297 0.64119 0.02205 0.0
H3201 H 0.86811 0.68378 0.98454 0.0
H3202 H 0.84689 0.59447 0.02346 0.0
H3203 H 0.86133 0.61586 0.0496 0.0
H3204 H 0.832 0.61147 0.04092 0.0
H3205 H 0.90285 0.67803 0.97984 0.0
H3206 H 0.91539 0.66644 0.00295 0.0
H3207 H 0.90172 0.64619 0.97587 0.0
H3208 H 0.93749 0.62091 0.04751 0.0
H3209 H 0.90193 0.57266 0.98331 0.0
H3210 H 0.89499 0.65 0.05918 0.0
H3211 H 0.91532 0.6675 0.04492 0.0
H3212 H 0.924 0.65199 0.06689 0.0
H3213 H 0.8524 0.5906 0.9825 0.0
H3214 H 0.86827 0.57543 0.9646 0.0
H3215 H 0.87013 0.6071 0.96513 0.0
C3216 C 0.23253 0.0977 0.77296 0.0
C3217 C 0.21057 0.09405 0.77774 0.0
C3218 C 0.24613 0.1213 0.7713 0.0
C3219 C 0.23788 0.1422 0.77438 0.0
C3220 C 0.21587 0.13854 0.7794 0.0
C3221 C 0.20281 0.11504 0.78103 0.0
C3222 C 0.26938 0.12384 0.76596 0.0
C3223 C 0.20586 0.15962 0.78294 0.0
C3224 C 0.27804 0.20831 0.79162 0.0
C3225 C 0.27729 0.21709 0.77055 0.0
C3226 C 0.26545 0.18443 0.7931 0.0
C3227 C 0.25198 0.16791 0.77282 0.0
C3228 C 0.2512 0.17669 0.75142 0.0
C3229 C 0.26369 0.20091 0.75056 0.0
C3230 C 0.2668 0.17676 0.8165 0.0
C3231 C 0.23752 0.16021 0.72914 0.0
H3232 H 0.23902 0.08208 0.77014 0.0
H3233 H 0.18605 0.11318 0.78475 0.0
H3234 H 0.27118 0.13086 0.74951 0.0
H3235 H 0.28157 0.13734 0.78021 0.0
H3236 H 0.27359 0.10624 0.76401 0.0
H3237 H 0.1886 0.15406 0.78682 0.0
H3238 H 0.2162 0.17421 0.79764 0.0
H3239 H 0.20566 0.16761 0.76697 0.0
H3240 H 0.28891 0.22014 0.80709 0.0
H3241 H 0.26349 0.20685 0.73393 0.0
H3242 H 0.27333 0.16067 0.81529 0.0
H3243 H 0.24993 0.17123 0.82137 0.0
H3244 H 0.27767 0.19158 0.83073 0.0
H3245 H 0.24327 0.14366 0.7252 0.0
H3246 H 0.23861 0.16937 0.71388 0.0
H3247 H 0.21982 0.15404 0.73144 0.0
C3248 C 0.41348 0.94643 0.25087 0.0
C3249 C 0.41765 0.96923 0.26552 0.0
C3250 C 0.39435 0.92775 0.25133 0.0
C3251 C 0.37999 0.932 0.26759 0.0
C3252 C 0.38374 0.95533 0.28171 0.0
C3253 C 0.40245 0.97381 0.28026 0.0
C3254 C 0.39029 0.90309 0.23557 0.0
C3255 C 0.36903 0.96024 0.29962 0.0
C3256 C 0.32622 0.88264 0.26227 0.0
C3257 C 0.33236 0.86946 0.2785 0.0
C3258 C 0.34124 0.90404 0.25936 0.0
C3259 C 0.36298 0.91134 0.27224 0.0
C3260 C 0.3689 0.89843 0.28926 0.0
C3261 C 0.35324 0.87776 0.29249 0.0
C3262 C 0.33427 0.91799 0.24171 0.0
C3263 C 0.39214 0.9055 0.30298 0.0
H3264 H 0.42539 0.9431 0.2396 0.0
H3265 H 0.40602 0.99144 0.29194 0.0
H3266 H 0.39356 0.88989 0.24625 0.0
H3267 H 0.37268 0.89603 0.22693 0.0
H3268 H 0.40116 0.90381 0.22178 0.0
H3269 H 0.3728 0.98001 0.30728 0.0
H3270 H 0.35124 0.9532 0.2916 0.0
H3271 H 0.37147 0.95054 0.31411 0.0
H3272 H 0.31001 0.87572 0.25133 0.0
H3273 H 0.35792 0.86696 0.3046 0.0
H3274 H 0.34224 0.91477 0.22592 0.0
H3275 H 0.33981 0.9379 0.24905 0.0
H3276 H 0.31595 0.91226 0.23617 0.0
H3277 H 0.40418 0.90375 0.29073 0.0
H3278 H 0.39369 0.89388 0.31604 0.0
H3279 H 0.39695 0.92483 0.31232 0.0
C3280 C 0.60778 0.38551 0.56541 0.0
C3281 C 0.59462 0.3722 0.57947 0.0
C3282 C 0.60204 0.40458 0.55659 0.0
C3283 C 0.5826 0.41079 0.5619 0.0
C3284 C 0.56919 0.3975 0.57609 0.0
C3285 C 0.57535 0.3784 0.58472 0.0
C3286 C 0.61684 0.4181 0.54151 0.0
C3287 C 0.54837 0.40354 0.58225 0.0
C3288 C 0.58209 0.47537 0.55621 0.0
C3289 C 0.56814 0.47125 0.53473 0.0
C3290 C 0.58614 0.45582 0.56568 0.0
C3291 C 0.57676 0.43153 0.55292 0.0
C3292 C 0.56286 0.42733 0.53101 0.0
C3293 C 0.55834 0.4472 0.52244 0.0
C3294 C 0.60045 0.46118 0.58939 0.0
C3295 C 0.55316 0.4019 0.51639 0.0
H3296 H 0.62272 0.38102 0.56118 0.0
H3297 H 0.56498 0.36824 0.59544 0.0
H3298 H 0.60702 0.4172 0.52431 0.0
H3299 H 0.62362 0.43765 0.55005 0.0
H3300 H 0.63099 0.41056 0.53835 0.0
H3301 H 0.53972 0.39157 0.59344 0.0
H3302 H 0.55258 0.42282 0.59164 0.0
H3303 H 0.53669 0.40161 0.566 0.0
H3304 H 0.58941 0.49393 0.56595 0.0
H3305 H 0.54754 0.44398 0.50582 0.0
H3306 H 0.61585 0.45568 0.58753 0.0
H3307 H 0.59148 0.45038 0.60122 0.0
H3308 H 0.60519 0.48084 0.59781 0.0
H3309 H 0.56679 0.39412 0.51169 0.0
H3310 H 0.54239 0.40162 0.49997 0.0
H3311 H 0.54322 0.38982 0.52663 0.0
C3312 C 0.44806 0.76654 0.35677 0.0
C3313 C 0.44483 0.7605 0.37869 0.0
C3314 C 0.4311 0.77185 0.3425 0.0
C3315 C 0.41047 0.77137 0.35037 0.0
C3316 C 0.40724 0.76549 0.37252 0.0
C3317 C 0.42427 0.76004 0.38623 0.0
C3318 C 0.4352 0.77788 0.31893 0.0
C3319 C 0.38563 0.76477 0.38173 0.0
C3320 C 0.36928 0.80054 0.32142 0.0
C3321 C 0.35448 0.78015 0.30609 0.0
C3322 C 0.38783 0.79815 0.33573 0.0
C3323 C 0.39149 0.77483 0.33479 0.0
C3324 C 0.37624 0.75425 0.31962 0.0
C3325 C 0.35809 0.75718 0.30551 0.0
C3326 C 0.40368 0.82059 0.35161 0.0
C3327 C 0.37912 0.729 0.31816 0.0
H3328 H 0.46387 0.76727 0.35081 0.0
H3329 H 0.42145 0.75567 0.40317 0.0
H3330 H 0.4227 0.76458 0.30479 0.0
H3331 H 0.43322 0.79622 0.31816 0.0
H3332 H 0.45209 0.77765 0.31532 0.0
H3333 H 0.38598 0.76073 0.39966 0.0
H3334 H 0.38197 0.78253 0.38213 0.0
H3335 H 0.37172 0.75061 0.36983 0.0
H3336 H 0.36675 0.81837 0.32171 0.0
H3337 H 0.34669 0.74132 0.29372 0.0
H3338 H 0.42059 0.82327 0.34683 0.0
H3339 H 0.40483 0.81815 0.37008 0.0
H3340 H 0.39847 0.83731 0.35051 0.0
H3341 H 0.39548 0.72877 0.31296 0.0
H3342 H 0.36587 0.71491 0.30533 0.0
H3343 H 0.37889 0.72392 0.33563 0.0
C3344 C 0.07334 0.73199 0.05229 0.0
C3345 C 0.09459 0.74452 0.06467 0.0
C3346 C 0.06792 0.70691 0.04243 0.0
C3347 C 0.08382 0.694 0.04613 0.0
C3348 C 0.10526 0.70669 0.05882 0.0
C3349 C 0.11051 0.73189 0.06748 0.0
C3350 C 0.04516 0.69419 0.02833 0.0
C3351 C 0.12237 0.69351 0.06409 0.0
C3352 C 0.06329 0.62615 0.04552 0.0
C3353 C 0.06939 0.61604 0.0247 0.0
C3354 C 0.06772 0.65149 0.05259 0.0
C3355 C 0.07782 0.66701 0.03803 0.0
C3356 C 0.08338 0.65672 0.01655 0.0
C3357 C 0.07943 0.63127 0.0103 0.0
C3358 C 0.06215 0.66165 0.07595 0.0
C3359 C 0.09349 0.6726 1.00022 0.0
H3360 H 0.06107 0.74184 0.05015 0.0
H3361 H 0.12685 0.74159 0.07741 0.0
H3362 H 0.04664 0.68328 0.0114 0.0
H3363 H 0.03538 0.68135 0.03804 0.0
H3364 H 0.03578 0.70729 0.02466 0.0
H3365 H 0.1382 0.70606 0.07436 0.0
H3366 H 0.11571 0.67934 0.07419 0.0
H3367 H 0.12603 0.68406 0.04753 0.0
H3368 H 0.05547 0.61417 0.05654 0.0
H3369 H 0.08384 0.62324 0.99405 0.0
H3370 H 0.05035 0.67254 0.0734 0.0
H3371 H 0.07745 0.67407 0.08732 0.0
H3372 H 0.05465 0.64707 0.0853 0.0
H3373 H 0.08302 0.6846 0.99633 0.0
H3374 H 0.09525 0.66167 0.98341 0.0
H3375 H 0.11015 0.68461 0.00877 0.0
C3376 C 0.07368 0.27628 0.86362 0.0
C3377 C 0.07742 0.28159 0.88827 0.0
C3378 C 0.09157 0.27916 0.85075 0.0
C3379 C 0.11379 0.28748 0.86273 0.0
C3380 C 0.11764 0.2934 0.88758 0.0
C3381 C 0.09949 0.2904 0.89999 0.0
C3382 C 0.0867 0.2729 0.82428 0.0
C3383 C 0.14098 0.30251 0.90114 0.0
C3384 C 0.15896 0.2696 0.83134 0.0
C3385 C 0.16887 0.29086 0.82339 0.0
C3386 C 0.14118 0.26835 0.84418 0.0
C3387 C 0.13298 0.28887 0.84937 0.0
C3388 C 0.14316 0.31056 0.84179 0.0
C3389 C 0.16088 0.31127 0.82886 0.0
C3390 C 0.13094 0.24489 0.85196 0.0
C3391 C 0.13521 0.33299 0.84715 0.0
H3392 H 0.05675 0.26962 0.85435 0.0
H3393 H 0.10268 0.29473 0.91901 0.0
H3394 H 0.09516 0.28871 0.81694 0.0
H3395 H 0.09335 0.25756 0.81769 0.0
H3396 H 0.0686 0.26762 0.81754 0.0
H3397 H 0.1412 0.30733 0.92038 0.0
H3398 H 0.14971 0.28827 0.89766 0.0
H3399 H 0.15058 0.31883 0.89526 0.0
H3400 H 0.16476 0.25363 0.82701 0.0
H3401 H 0.16856 0.32791 0.82311 0.0
H3402 H 0.11312 0.23762 0.84406 0.0
H3403 H 0.13172 0.24839 0.87131 0.0
H3404 H 0.13942 0.2307 0.84689 0.0
H3405 H 0.11774 0.32895 0.83854 0.0
H3406 H 0.14555 0.34878 0.84105 0.0
H3407 H 0.13547 0.33826 0.86632 0.0
C3408 C 0.607 0.76948 0.93677 0.0
C3409 C 0.59064 0.77869 0.92689 0.0
C3410 C 0.60084 0.74801 0.94561 0.0
C3411 C 0.57795 0.73558 0.94384 0.0
C3412 C 0.56156 0.744 0.93228 0.0
C3413 C 0.56813 0.76567 0.92418 0.0
C3414 C 0.61867 0.73929 0.95786 0.0
C3415 C 0.53705 0.73095 0.9296 0.0
C3416 C 0.56365 0.67313 0.9592 0.0
C3417 C 0.56247 0.67918 0.9832 0.0
C3418 C 0.56815 0.69124 0.94581 0.0
C3419 C 0.57109 0.71575 0.95669 0.0
C3420 C 0.56823 0.72169 0.98038 0.0
C3421 C 0.56418 0.70334 0.99344 0.0
C3422 C 0.57073 0.68428 0.92043 0.0
C3423 C 0.57046 0.74762 0.99227 0.0
H3424 H 0.62439 0.77953 0.93844 0.0
H3425 H 0.55557 0.77261 0.91583 0.0
H3426 H 0.61736 0.74111 0.97682 0.0
H3427 H 0.61628 0.71968 0.95064 0.0
H3428 H 0.63566 0.74983 0.95609 0.0
H3429 H 0.52692 0.73746 0.91671 0.0
H3430 H 0.53387 0.71096 0.92391 0.0
H3431 H 0.53128 0.73421 0.9468 0.0
H3432 H 0.56169 0.65433 0.95103 0.0
H3433 H 0.56341 0.70821 0.01197 0.0
H3434 H 0.58855 0.6907 0.91866 0.0
H3435 H 0.56151 0.6932 0.90914 0.0
H3436 H 0.56477 0.66421 0.9138 0.0
H3437 H 0.58783 0.75902 0.99343 0.0
H3438 H 0.56611 0.7488 0.01026 0.0
H3439 H 0.55951 0.75555 0.98183 0.0
C3440 C 0.06232 0.76427 0.71378 0.0
C3441 C 0.05332 0.73958 0.70316 0.0
C3442 C 0.08457 0.77323 0.72462 0.0
C3443 C 0.09805 0.75719 0.72376 0.0
C3444 C 0.08879 0.73211 0.71339 0.0
C3445 C 0.06633 0.72352 0.70361 0.0
C3446 C 0.09381 0.79986 0.73619 0.0
C3447 C 0.10283 0.71456 0.71146 0.0
C3448 C 0.15873 0.77304 0.72052 0.0
C3449 C 0.1666 0.7667 0.74117 0.0
C3450 C 0.13655 0.77297 0.71569 0.0
C3451 C 0.1222 0.76642 0.73204 0.0
C3452 C 0.13086 0.76322 0.75424 0.0
C3453 C 0.15313 0.76332 0.75856 0.0
C3454 C 0.12801 0.7767 0.69185 0.0
C3455 C 0.11605 0.7568 0.77225 0.0
H3456 H 0.05202 0.77658 0.71333 0.0
H3457 H 0.05927 0.70451 0.69502 0.0
H3458 H 0.10323 0.80183 0.75389 0.0
H3459 H 0.1056 0.80942 0.7257 0.0
H3460 H 0.08051 0.80907 0.7379 0.0
H3461 H 0.09293 0.69565 0.70293 0.0
H3462 H 0.11619 0.72069 0.70103 0.0
H3463 H 0.11096 0.71424 0.72913 0.0
H3464 H 0.16947 0.77622 0.70737 0.0
H3465 H 0.15938 0.75863 0.77465 0.0
H3466 H 0.11571 0.78726 0.6931 0.0
H3467 H 0.11954 0.75864 0.68033 0.0
H3468 H 0.14172 0.78633 0.68338 0.0
H3469 H 0.10384 0.76752 0.77301 0.0
H3470 H 0.12586 0.76006 0.79002 0.0
H3471 H 0.10657 0.73719 0.76725 0.0
C3472 C 0.11661 0.41336 0.44947 0.0
C3473 C 0.11642 0.41132 0.4253 0.0
C3474 C 0.11049 0.43239 0.46243 0.0
C3475 C 0.10546 0.45049 0.45105 0.0
C3476 C 0.10857 0.45041 0.42742 0.0
C3477 C 0.11349 0.43032 0.41454 0.0
C3478 C 0.10664 0.43126 0.48734 0.0
C3479 C 0.1046 0.47022 0.41518 0.0
C3480 C 0.06094 0.47656 0.47429 0.0
C3481 C 0.07398 0.4969 0.49085 0.0
C3482 C 0.07103 0.4615 0.46066 0.0
C3483 C 0.09461 0.46764 0.4632 0.0
C3484 C 0.10771 0.48894 0.47899 0.0
C3485 C 0.09724 0.50301 0.49298 0.0
C3486 C 0.05652 0.43848 0.44436 0.0
C3487 C 0.1328 0.49658 0.48158 0.0
H3488 H 0.11845 0.39825 0.45751 0.0
H3489 H 0.11304 0.42843 0.39572 0.0
H3490 H 0.11473 0.44914 0.49926 0.0
H3491 H 0.08852 0.4269 0.488 0.0
H3492 H 0.11301 0.41712 0.49409 0.0
H3493 H 0.11182 0.47004 0.39866 0.0
H3494 H 0.08645 0.4675 0.41079 0.0
H3495 H 0.11186 0.48846 0.42681 0.0
H3496 H 0.04296 0.47197 0.47266 0.0
H3497 H 0.10737 0.51887 0.50567 0.0
H3498 H 0.06014 0.42232 0.44994 0.0
H3499 H 0.06023 0.43823 0.42622 0.0
H3500 H 0.03851 0.43663 0.4441 0.0
H3501 H 0.13952 0.48328 0.48942 0.0
H3502 H 0.14029 0.51497 0.49288 0.0
H3503 H 0.13813 0.49672 0.46411 0.0
C3504 C 0.42052 0.22931 0.18063 0.0
C3505 C 0.44255 0.24368 0.18691 0.0
C3506 C 0.40408 0.23541 0.1925 0.0
C3507 C 0.41034 0.25562 0.21153 0.0
C3508 C 0.43265 0.27026 0.21776 0.0
C3509 C 0.44856 0.26428 0.20499 0.0
C3510 C 0.38018 0.22009 0.18496 0.0
C3511 C 0.43982 0.29158 0.23838 0.0
C3512 C 0.36651 0.28418 0.23 0.0
C3513 C 0.35986 0.2722 0.24808 0.0
C3514 C 0.38296 0.27885 0.21787 0.0
C3515 C 0.39341 0.26176 0.22465 0.0
C3516 C 0.38731 0.25017 0.24345 0.0
C3517 C 0.37009 0.2552 0.25474 0.0
C3518 C 0.38855 0.29083 0.19731 0.0
C3519 C 0.39871 0.23231 0.25137 0.0
H3520 H 0.41629 0.21321 0.16671 0.0
H3521 H 0.46589 0.27486 0.20992 0.0
H3522 H 0.37427 0.21085 0.19922 0.0
H3523 H 0.36938 0.2319 0.18157 0.0
H3524 H 0.37804 0.20597 0.16887 0.0
H3525 H 0.45797 0.30083 0.24099 0.0
H3526 H 0.43073 0.30517 0.23581 0.0
H3527 H 0.43562 0.28515 0.25464 0.0
H3528 H 0.35815 0.297 0.22461 0.0
H3529 H 0.3647 0.246 0.26872 0.0
H3530 H 0.38523 0.27664 0.18107 0.0
H3531 H 0.40647 0.30091 0.20012 0.0
H3532 H 0.37872 0.30374 0.19444 0.0
H3533 H 0.39487 0.2157 0.23739 0.0
H3534 H 0.3934 0.22675 0.26765 0.0
H3535 H 0.41703 0.24046 0.25457 0.0
C3536 C 0.61353 0.50225 0.34285 0.0
C3537 C 0.63588 0.51463 0.3418 0.0
C3538 C 0.60411 0.50328 0.36424 0.0
C3539 C 0.6167 0.51777 0.38608 0.0
C3540 C 0.63934 0.53027 0.38518 0.0
C3541 C 0.64843 0.52865 0.36353 0.0
C3542 C 0.58012 0.48931 0.36322 0.0
C3543 C 0.65399 0.54619 0.40718 0.0
C3544 C 0.58617 0.54039 0.43772 0.0
C3545 C 0.58542 0.52329 0.45257 0.0
C3546 C 0.59589 0.53876 0.41646 0.0
C3547 C 0.60621 0.52001 0.40939 0.0
C3548 C 0.606 0.50314 0.42473 0.0
C3549 C 0.59545 0.50466 0.44536 0.0
C3550 C 0.5946 0.55699 0.40113 0.0
C3551 C 0.61698 0.48313 0.41928 0.0
H3552 H 0.60298 0.49209 0.32653 0.0
H3553 H 0.66531 0.53938 0.36349 0.0
H3554 H 0.57865 0.47755 0.37648 0.0
H3555 H 0.57028 0.5023 0.36755 0.0
H3556 H 0.57272 0.47767 0.34564 0.0
H3557 H 0.67139 0.55376 0.40438 0.0
H3558 H 0.64726 0.56158 0.41337 0.0
H3559 H 0.65403 0.5356 0.42135 0.0
H3560 H 0.57837 0.55475 0.44227 0.0
H3561 H 0.59521 0.49109 0.45613 0.0
H3562 H 0.58541 0.54729 0.38344 0.0
H3563 H 0.61157 0.56697 0.39883 0.0
H3564 H 0.58614 0.57043 0.40853 0.0
H3565 H 0.60828 0.47064 0.40251 0.0
H3566 H 0.61686 0.47233 0.43332 0.0
H3567 H 0.63447 0.49107 0.417 0.0
C3568 C 0.30801 0.87642 0.07642 0.0
C3569 C 0.31938 0.88436 0.05874 0.0
C3570 C 0.31992 0.87456 0.09736 0.0
C3571 C 0.34358 0.88194 0.10072 0.0
C3572 C 0.35499 0.8914 0.08337 0.0
C3573 C 0.34272 0.89159 0.06223 0.0
C3574 C 0.30726 0.86367 0.11538 0.0
C3575 C 0.38009 0.90034 0.08651 0.0
C3576 C 0.36488 0.88264 0.16311 0.0
C3577 C 0.36551 0.85837 0.16079 0.0
C3578 C 0.36034 0.89198 0.14313 0.0
C3579 C 0.35603 0.8764 0.12083 0.0
C3580 C 0.36018 0.85339 0.1184 0.0
C3581 C 0.36529 0.8448 0.13855 0.0
C3582 C 0.35775 0.9174 0.146 0.0
C3583 C 0.35606 0.83633 0.09481 0.0
H3584 H 0.28997 0.87089 0.07352 0.0
H3585 H 0.35153 0.89728 0.04829 0.0
H3586 H 0.31158 0.8468 0.11795 0.0
H3587 H 0.31202 0.87663 0.13253 0.0
H3588 H 0.28896 0.85906 0.11011 0.0
H3589 H 0.38567 0.91418 0.07569 0.0
H3590 H 0.38744 0.90845 0.10514 0.0
H3591 H 0.38677 0.88482 0.08073 0.0
H3592 H 0.36567 0.89337 0.18038 0.0
H3593 H 0.36598 0.82609 0.13663 0.0
H3594 H 0.33984 0.91636 0.14473 0.0
H3595 H 0.36434 0.92647 0.13189 0.0
H3596 H 0.36645 0.92881 0.16332 0.0
H3597 H 0.33793 0.82992 0.08811 0.0
H3598 H 0.3621 0.82011 0.09586 0.0
H3599 H 0.36435 0.84586 0.08184 0.0
C3600 C 0.96966 0.50691 0.85388 0.0
C3601 C 0.96912 0.5283 0.84599 0.0
C3602 C 0.97792 0.50789 0.87708 0.0
C3603 C 0.98428 0.53068 0.89285 0.0
C3604 C 0.97912 0.55114 0.88597 0.0
C3605 C 0.97206 0.54997 0.86213 0.0
C3606 C 0.98249 0.48527 0.88366 0.0
C3607 C 0.98312 0.57478 0.9033 0.0
C3608 C 0.01094 0.52216 0.95003 0.0
C3609 C 0.03349 0.53269 0.94937 0.0
C3610 C 0.99445 0.5242 0.93324 0.0
C3611 C 1.00085 0.53411 0.91371 0.0
C3612 C 0.02375 0.54336 0.91216 0.0
C3613 C 0.03982 0.54344 0.9306 0.0
C3614 C 0.97041 0.51505 0.93638 0.0
C3615 C 0.03143 0.55188 0.89054 0.0
H3616 H 0.96605 0.48984 0.84129 0.0
H3617 H 0.97071 0.56628 0.85603 0.0
H3618 H 1.0002 0.48916 0.89145 0.0
H3619 H 0.9721 0.47917 0.89684 0.0
H3620 H 0.97866 0.46985 0.86836 0.0
H3621 H 0.97231 0.5857 0.89739 0.0
H3622 H 0.97998 0.57126 0.92093 0.0
H3623 H 1.00067 0.58582 0.90498 0.0
H3624 H 0.00606 0.51266 0.96395 0.0
H3625 H 0.05732 0.55103 0.92988 0.0
H3626 H 0.96529 0.49483 0.93329 0.0
H3627 H 0.95895 0.52114 0.92458 0.0
H3628 H 0.96847 0.52148 0.95476 0.0
H3629 H 0.02327 0.53775 0.87456 0.0
H3630 H 0.04974 0.55586 0.89128 0.0
H3631 H 0.02679 0.5687 0.88863 0.0
C3632 C 0.30372 0.26036 0.57628 0.0
C3633 C 0.29007 0.23728 0.56481 0.0
C3634 C 0.30629 0.2675 0.60088 0.0
C3635 C 0.29432 0.25145 0.614 0.0
C3636 C 0.28046 0.22815 0.60228 0.0
C3637 C 0.27873 0.22127 0.57786 0.0
C3638 C 0.32164 0.29223 0.61281 0.0
C3639 C 0.2671 0.21065 0.61546 0.0
C3640 C 0.31275 0.25872 0.6795 0.0
C3641 C 0.29771 0.27004 0.68925 0.0
C3642 C 0.31206 0.25294 0.6551 0.0
C3643 C 0.29611 0.25884 0.63998 0.0
C3644 C 0.28108 0.2706 0.64969 0.0
C3645 C 0.28194 0.27589 0.67419 0.0
C3646 C 0.32822 0.24017 0.6455 0.0
C3647 C 0.26394 0.27737 0.63416 0.0
H3648 H 0.31234 0.27273 0.56604 0.0
H3649 H 0.26792 0.20355 0.56879 0.0
H3650 H 0.31205 0.30347 0.62184 0.0
H3651 H 0.3343 0.29017 0.62642 0.0
H3652 H 0.33032 0.30219 0.60023 0.0
H3653 H 0.25709 0.19323 0.6037 0.0
H3654 H 0.27834 0.20647 0.62909 0.0
H3655 H 0.25567 0.21918 0.62459 0.0
H3656 H 0.32495 0.25403 0.69095 0.0
H3657 H 0.27043 0.28486 0.68157 0.0
H3658 H 0.33771 0.25073 0.63384 0.0
H3659 H 0.31896 0.22195 0.63474 0.0
H3660 H 0.34018 0.2377 0.65962 0.0
H3661 H 0.2722 0.28906 0.62258 0.0
H3662 H 0.25402 0.28724 0.64443 0.0
H3663 H 0.25244 0.26065 0.62264 0.0
C3664 C 0.62071 0.53441 0.19904 0.0
C3665 C 0.63026 0.516 0.20459 0.0
C3666 C 0.61188 0.53512 0.17576 0.0
C3667 C 0.61188 0.5168 0.15634 0.0
C3668 C 0.62138 0.49798 0.16158 0.0
C3669 C 0.63052 0.49789 0.18526 0.0
C3670 C 0.60247 0.55587 0.17202 0.0
C3671 C 0.62189 0.47776 0.14202 0.0
C3672 C 0.57001 0.50927 0.0988 0.0
C3673 C 0.58283 0.52344 0.08496 0.0
C3674 C 0.57911 0.50669 0.12147 0.0
C3675 C 0.60208 0.5178 0.13097 0.0
C3676 C 0.6152 0.53154 0.11666 0.0
C3677 C 0.6055 0.53448 0.0944 0.0
C3678 C 0.56384 0.49246 0.13562 0.0
C3679 C 0.6397 0.54349 0.12499 0.0
H3680 H 0.6203 0.54889 0.21314 0.0
H3681 H 0.63765 0.48345 0.18859 0.0
H3682 H 0.61163 0.56618 0.15997 0.0
H3683 H 0.5848 0.54856 0.16361 0.0
H3684 H 0.60348 0.56878 0.18868 0.0
H3685 H 0.62943 0.46427 0.14848 0.0
H3686 H 0.60474 0.46812 0.13284 0.0
H3687 H 0.63151 0.48555 0.1289 0.0
H3688 H 0.5525 0.50068 0.09216 0.0
H3689 H 0.61585 0.54543 0.08421 0.0
H3690 H 0.56325 0.50464 0.15216 0.0
H3691 H 0.57036 0.47764 0.14055 0.0
H3692 H 0.54664 0.48432 0.12592 0.0
H3693 H 0.64208 0.55797 0.14081 0.0
H3694 H 0.64816 0.55177 0.11135 0.0
H3695 H 0.64784 0.52989 0.13009 0.0
C3696 C 0.29996 0.87757 0.92522 0.0
C3697 C 0.31926 0.88394 0.94179 0.0
C3698 C 0.29885 0.86326 0.90312 0.0
C3699 C 0.3173 0.85488 0.89796 0.0
C3700 C 0.33706 0.86192 0.91433 0.0
C3701 C 0.33787 0.87657 0.93601 0.0
C3702 C 0.27784 0.8567 0.88549 0.0
C3703 C 0.35708 0.85336 0.90927 0.0
C3704 C 0.30422 0.79762 0.85122 0.0
C3705 C 0.30979 0.80763 0.83177 0.0
C3706 C 0.30725 0.81288 0.87326 0.0
C3707 C 0.31585 0.83845 0.87548 0.0
C3708 C 0.32251 0.84843 0.85609 0.0
C3709 C 0.31948 0.83283 0.83445 0.0
C3710 C 0.30057 0.80181 0.89397 0.0
C3711 C 0.33184 0.87563 0.85786 0.0
H3712 H 0.2857 0.8835 0.92961 0.0
H3713 H 0.35292 0.88152 0.94876 0.0
H3714 H 0.28181 0.86193 0.86868 0.0
H3715 H 0.27011 0.83666 0.88175 0.0
H3716 H 0.2655 0.86583 0.8918 0.0
H3717 H 0.37157 0.86163 0.9235 0.0
H3718 H 0.35275 0.83321 0.90714 0.0
H3719 H 0.36211 0.85792 0.89258 0.0
H3720 H 0.29684 0.77812 0.84906 0.0
H3721 H 0.32399 0.84056 0.81938 0.0
H3722 H 0.28657 0.80804 0.90012 0.0
H3723 H 0.31462 0.80805 0.90877 0.0
H3724 H 0.29536 0.78154 0.88958 0.0
H3725 H 0.31865 0.88467 0.86102 0.0
H3726 H 0.33818 0.88008 0.84163 0.0
H3727 H 0.34557 0.88354 0.87289 0.0
C3728 C 0.97175 0.53217 0.71713 0.0
C3729 C 0.97809 0.5166 0.73058 0.0
C3730 C 0.96492 0.52404 0.69287 0.0
C3731 C 0.96418 0.49985 0.68255 0.0
C3732 C 0.96455 0.48277 0.69704 0.0
C3733 C 0.97285 0.49154 0.72092 0.0
C3734 C 0.96234 0.54236 0.67803 0.0
C3735 C 0.9604 0.45607 0.68678 0.0
C3736 C 0.97038 0.49782 0.61884 0.0
C3737 C 0.99361 0.50399 0.62089 0.0
C3738 C 0.9599 0.49313 0.63829 0.0
C3739 C 0.9732 0.49627 0.66029 0.0
C3740 C 0.9966 0.50039 0.66167 0.0
C3741 C 0.00632 0.50354 0.64171 0.0
C3742 C 0.93486 0.48625 0.63526 0.0
C3743 C 0.01198 0.50417 0.68455 0.0
H3744 H 0.97496 0.55134 0.72487 0.0
H3745 H 0.97707 0.47911 0.73135 0.0
H3746 H 0.97684 0.5468 0.66866 0.0
H3747 H 0.94716 0.5346 0.66468 0.0
H3748 H 0.96116 0.55956 0.68875 0.0
H3749 H 0.95345 0.44469 0.69926 0.0
H3750 H 0.94875 0.45058 0.66992 0.0
H3751 H 0.9763 0.4524 0.68342 0.0
H3752 H 0.96055 0.49776 0.60244 0.0
H3753 H 0.0243 0.50833 0.64311 0.0
H3754 H 0.92908 0.50196 0.63152 0.0
H3755 H 0.92818 0.48047 0.65087 0.0
H3756 H 0.92777 0.47109 0.6198 0.0
H3757 H 0.01002 0.5195 0.69744 0.0
H3758 H 0.02979 0.50843 0.68236 0.0
H3759 H 0.00803 0.4875 0.69208 0.0
C3760 C 0.30606 0.22117 0.42378 0.0
C3761 C 0.28792 0.22631 0.43338 0.0
C3762 C 0.31135 0.2279 0.40247 0.0
C3763 C 0.29807 0.23979 0.39037 0.0
C3764 C 0.27934 0.24422 0.39962 0.0
C3765 C 0.2746 0.23757 0.42093 0.0
C3766 C 0.33151 0.22295 0.39325 0.0
C3767 C 0.26459 0.2567 0.38735 0.0
C3768 C 0.32131 0.28489 0.35268 0.0
C3769 C 0.31157 0.27196 0.32991 0.0
C3770 C 0.31801 0.27417 0.37233 0.0
C3771 C 0.30462 0.24975 0.36927 0.0
C3772 C 0.29564 0.23614 0.34619 0.0
C3773 C 0.29922 0.24742 0.32676 0.0
C3774 C 0.32788 0.28949 0.3965 0.0
C3775 C 0.28139 0.21004 0.34211 0.0
H3776 H 0.3164 0.21239 0.43315 0.0
H3777 H 0.26035 0.24135 0.42791 0.0
H3778 H 0.327 0.21336 0.3746 0.0
H3779 H 0.34423 0.2405 0.39396 0.0
H3780 H 0.33903 0.21178 0.40354 0.0
H3781 H 0.24982 0.25732 0.39596 0.0
H3782 H 0.27421 0.27569 0.38726 0.0
H3783 H 0.25877 0.24711 0.36879 0.0
H3784 H 0.33099 0.30384 0.35529 0.0
H3785 H 0.29176 0.2373 0.30923 0.0
H3786 H 0.33692 0.27964 0.40687 0.0
H3787 H 0.31434 0.29294 0.406 0.0
H3788 H 0.33951 0.30736 0.39581 0.0
H3789 H 0.2899 0.19922 0.3518 0.0
H3790 H 0.27744 0.20124 0.3232 0.0
H3791 H 0.26555 0.20946 0.34896 0.0
C3792 C 0.35953 0.61954 0.50808 0.0
C3793 C 0.33796 0.60343 0.50266 0.0
C3794 C 0.37813 0.61105 0.50501 0.0
C3795 C 0.37501 0.58584 0.49673 0.0
C3796 C 0.35327 0.56955 0.49115 0.0
C3797 C 0.33499 0.57859 0.49399 0.0
C3798 C 0.40109 0.62895 0.51085 0.0
C3799 C 0.34933 0.54247 0.48264 0.0
C3800 C 0.4193 0.56172 0.47054 0.0
C3801 C 0.42809 0.5529 0.48923 0.0
C3802 C 0.40249 0.57328 0.47296 0.0
C3803 C 0.39439 0.57614 0.4946 0.0
C3804 C 0.40371 0.56801 0.51376 0.0
C3805 C 0.42035 0.55637 0.5108 0.0
C3806 C 0.393 0.58188 0.45222 0.0
C3807 C 0.39558 0.57087 0.53716 0.0
H3808 H 0.36186 0.63879 0.51468 0.0
H3809 H 0.31836 0.56604 0.48995 0.0
H3810 H 0.41105 0.62433 0.5253 0.0
H3811 H 0.40987 0.62773 0.49543 0.0
H3812 H 0.40059 0.64808 0.51625 0.0
H3813 H 0.33136 0.53232 0.47876 0.0
H3814 H 0.35681 0.53916 0.46652 0.0
H3815 H 0.35755 0.5349 0.49614 0.0
H3816 H 0.42555 0.55955 0.454 0.0
H3817 H 0.42692 0.54941 0.52526 0.0
H3818 H 0.39343 0.60132 0.45732 0.0
H3819 H 0.37532 0.5712 0.44634 0.0
H3820 H 0.40219 0.57985 0.43717 0.0
H3821 H 0.39595 0.59013 0.54348 0.0
H3822 H 0.40573 0.56526 0.55076 0.0
H3823 H 0.37806 0.55958 0.53515 0.0
C3824 C 0.90109 0.94383 0.55661 0.0
C3825 C 0.88808 0.92609 0.53757 0.0
C3826 C 0.92146 0.95972 0.55403 0.0
C3827 C 0.92901 0.95757 0.53196 0.0
C3828 C 0.91558 0.93991 0.5126 0.0
C3829 C 0.89534 0.92434 0.51569 0.0
C3830 C 0.93519 0.97839 0.57507 0.0
C3831 C 0.9228 0.9371 0.48874 0.0
C3832 C 0.97253 0.01316 0.52266 0.0
C3833 C 0.99227 0.00659 0.52659 0.0
C3834 C 0.95181 0.99703 0.52343 0.0
C3835 C 0.95082 0.97399 0.52909 0.0
C3836 C 0.97073 0.96703 0.53259 0.0
C3837 C 0.99124 0.98335 0.53099 0.0
C3838 C 0.93103 1.00491 0.51871 0.0
C3839 C 0.97049 0.94277 0.53892 0.0
H3840 H 0.89566 0.94479 0.57362 0.0
H3841 H 0.88542 0.91021 0.5011 0.0
H3842 H 0.95164 0.97514 0.579 0.0
H3843 H 0.93825 0.99699 0.5712 0.0
H3844 H 0.92696 0.97785 0.59093 0.0
H3845 H 0.91001 0.92321 0.47527 0.0
H3846 H 0.92636 0.95479 0.48289 0.0
H3847 H 0.93841 0.93163 0.48979 0.0
H3848 H 0.97332 0.03115 0.51915 0.0
H3849 H 0.00653 0.97844 0.53433 0.0
H3850 H 0.92335 0.00671 0.53487 0.0
H3851 H 0.91863 0.9909 0.50502 0.0
H3852 H 0.93448 0.02263 0.51285 0.0
H3853 H 0.96453 0.9419 0.55603 0.0
H3854 H 0.98722 0.93973 0.54022 0.0
H3855 H 0.95876 0.92768 0.52564 0.0
C3856 C 0.89044 0.13253 0.24735 0.0
C3857 C 0.90371 0.13138 0.26809 0.0
C3858 C 0.87919 0.15131 0.24625 0.0
C3859 C 0.88055 0.17006 0.26629 0.0
C3860 C 0.89371 0.16871 0.28717 0.0
C3861 C 0.90484 0.15007 0.28772 0.0
C3862 C 0.86582 0.15118 0.2233 0.0
C3863 C 0.89604 0.18717 0.30941 0.0
C3864 C 0.86765 0.23335 0.26289 0.0
C3865 C 0.84553 0.22989 0.2676 0.0
C3866 C 0.87876 0.21438 0.2618 0.0
C3867 C 0.86822 0.1906 0.26591 0.0
C3868 C 0.84601 0.18718 0.27093 0.0
C3869 C 0.83516 0.20624 0.27141 0.0
C3870 C 0.90208 0.21991 0.25611 0.0
C3871 C 0.83356 0.16314 0.2762 0.0
H3872 H 0.88899 0.11888 0.23174 0.0
H3873 H 0.91466 0.15023 0.30414 0.0
H3874 H 0.84815 0.14878 0.22539 0.0
H3875 H 0.87194 0.16901 0.21803 0.0
H3876 H 0.86672 0.1364 0.20902 0.0
H3877 H 0.9064 0.18387 0.32442 0.0
H3878 H 0.90368 0.20583 0.30661 0.0
H3879 H 0.87937 0.18665 0.31414 0.0
H3880 H 0.87638 0.25101 0.25971 0.0
H3881 H 0.81827 0.20254 0.27514 0.0
H3882 H 0.90303 0.20594 0.24109 0.0
H3883 H 0.91376 0.21906 0.27132 0.0
H3884 H 0.90771 0.23825 0.25169 0.0
H3885 H 0.8319 0.14818 0.26101 0.0
H3886 H 0.81669 0.16299 0.28017 0.0
H3887 H 0.84306 0.15917 0.29144 0.0
C3888 C 0.72072 0.13361 0.03528 0.0
C3889 C 0.73472 0.12047 0.02625 0.0
C3890 C 0.69775 0.12451 0.02934 0.0
C3891 C 0.68856 0.10139 0.01439 0.0
C3892 C 0.70253 0.08782 0.00528 0.0
C3893 C 0.72567 0.09761 0.01135 0.0
C3894 C 0.68333 0.13943 0.03958 0.0
C3895 C 0.69302 0.063 0.98942 0.0
C3896 C 0.63242 0.073 0.02842 0.0
C3897 C 0.61851 0.07824 0.01097 0.0
C3898 C 0.65525 0.07868 0.02849 0.0
C3899 C 0.66436 0.09056 0.01104 0.0
C3900 C 0.65033 0.09531 0.99291 0.0
C3901 C 0.62731 0.08865 0.99288 0.0
C3902 C 0.66969 0.07301 0.0479 0.0
C3903 C 0.65971 0.10825 0.97425 0.0
H3904 H 0.72775 0.15114 0.04711 0.0
H3905 H 0.73661 0.08766 0.00418 0.0
H3906 H 0.67113 0.14143 0.02546 0.0
H3907 H 0.67379 0.12992 0.05186 0.0
H3908 H 0.69325 0.15793 0.04928 0.0
H3909 H 0.7062 0.05505 0.98345 0.0
H3910 H 0.68252 0.0503 0.99874 0.0
H3911 H 0.68214 0.06433 0.97378 0.0
H3912 H 0.6254 0.06409 0.04194 0.0
H3913 H 0.6163 0.09216 0.97918 0.0
H3914 H 0.67951 0.09025 0.06001 0.0
H3915 H 0.68164 0.06395 0.04057 0.0
H3916 H 0.65973 0.06104 0.05827 0.0
H3917 H 0.67039 0.1269 0.98249 0.0
H3918 H 0.64645 0.10973 0.96093 0.0
H3919 H 0.67035 0.09841 0.96525 0.0
C3920 C 0.22012 0.49407 0.24894 0.0
C3921 C 0.20868 0.5021 0.2663 0.0
C3922 C 0.23452 0.48021 0.25362 0.0
C3923 C 0.23666 0.47365 0.27584 0.0
C3924 C 0.22499 0.48171 0.2934 0.0
C3925 C 0.21134 0.49632 0.2885 0.0
C3926 C 0.24728 0.47242 0.23476 0.0
C3927 C 0.22647 0.47441 0.31701 0.0
C3928 C 0.25568 0.41723 0.2734 0.0
C3929 C 0.27862 0.42742 0.28073 0.0
C3930 C 0.24151 0.43209 0.27301 0.0
C3931 C 0.25062 0.45764 0.28019 0.0
C3932 C 0.27351 0.46793 0.28904 0.0
C3933 C 0.28734 0.45263 0.2891 0.0
C3934 C 0.21703 0.42055 0.26377 0.0
C3935 C 0.28365 0.49515 0.29707 0.0
H3936 H 0.21804 0.49897 0.2319 0.0
H3937 H 0.20222 0.50263 0.30175 0.0
H3938 H 0.26534 0.47803 0.2417 0.0
H3939 H 0.24193 0.45223 0.22929 0.0
H3940 H 0.24475 0.4804 0.21902 0.0
H3941 H 0.21705 0.48318 0.32903 0.0
H3942 H 0.21973 0.45431 0.31464 0.0
H3943 H 0.24409 0.47937 0.32547 0.0
H3944 H 0.24886 0.39765 0.26753 0.0
H3945 H 0.30508 0.46051 0.29482 0.0
H3946 H 0.21304 0.42484 0.2463 0.0
H3947 H 0.20675 0.42809 0.27556 0.0
H3948 H 0.2122 0.40038 0.26191 0.0
H3949 H 0.28417 0.50391 0.28156 0.0
H3950 H 0.30085 0.49979 0.30672 0.0
H3951 H 0.2734 0.5031 0.30859 0.0
C3952 C 0.2651 0.43213 0.0285 0.0
C3953 C 0.26136 0.40846 0.0154 0.0
C3954 C 0.24908 0.44496 0.02632 0.0
C3955 C 0.22882 0.43394 0.01062 0.0
C3956 C 0.22523 0.41032 0.99689 0.0
C3957 C 0.24146 0.39789 0.99948 0.0
C3958 C 0.25363 0.47014 0.0412 0.0
C3959 C 0.20404 0.39796 0.97974 0.0
C3960 C 0.17864 0.45569 0.02423 0.0
C3961 C 0.1781 0.47204 0.00907 0.0
C3962 C 0.19484 0.44301 0.02466 0.0
C3963 C 0.21096 0.44658 0.00948 0.0
C3964 C 0.21014 0.46248 0.99361 0.0
C3965 C 0.1938 0.47505 0.99364 0.0
C3966 C 0.19488 0.42603 0.04165 0.0
C3967 C 0.22683 0.46665 0.97695 0.0
H3968 H 0.28041 0.44054 0.04075 0.0
H3969 H 0.23841 0.37971 0.98909 0.0
H3970 H 0.25194 0.48337 0.02991 0.0
H3971 H 0.24118 0.47004 0.05327 0.0
H3972 H 0.27052 0.47662 0.05181 0.0
H3973 H 0.20424 0.38009 0.96953 0.0
H3974 H 0.18961 0.39495 0.98933 0.0
H3975 H 0.20138 0.40984 0.9673 0.0
H3976 H 0.16637 0.45281 0.03589 0.0
H3977 H 0.19372 0.48777 0.98199 0.0
H3978 H 0.21081 0.43241 0.05401 0.0
H3979 H 0.1936 0.40743 0.03201 0.0
H3980 H 0.18097 0.42488 0.05197 0.0
H3981 H 0.2437 0.47579 0.98709 0.0
H3982 H 0.22297 0.47813 0.96455 0.0
H3983 H 0.22733 0.44896 0.96669 0.0
C3984 C 0.8767 0.97212 0.24367 0.0
C3985 C 0.89892 0.98102 0.25517 0.0
C3986 C 0.86295 0.94835 0.24459 0.0
C3987 C 0.87112 0.93284 0.25774 0.0
C3988 C 0.89329 0.94217 0.26984 0.0
C3989 C 0.9067 0.96554 0.26819 0.0
C3990 C 0.8397 0.93953 0.23098 0.0
C3991 C 0.90304 0.92739 0.28474 0.0
C3992 C 0.82927 0.88093 0.27842 0.0
C3993 C 0.83003 0.85933 0.26377 0.0
C3994 C 0.84257 0.90447 0.2769 0.0
C3995 C 0.85665 0.90732 0.25947 0.0
C3996 C 0.85743 0.88551 0.24449 0.0
C3997 C 0.84449 0.86201 0.24699 0.0
C3998 C 0.8415 0.92643 0.29412 0.0
C3999 C 0.87153 0.88703 0.22523 0.0
H4000 H 0.87027 0.98335 0.23327 0.0
H4001 H 0.92368 0.97181 0.27735 0.0
H4002 H 0.83763 0.92216 0.21849 0.0
H4003 H 0.82744 0.9357 0.24311 0.0
H4004 H 0.83581 0.95306 0.22103 0.0
H4005 H 0.92013 0.93742 0.29393 0.0
H4006 H 0.89233 0.92235 0.29806 0.0
H4007 H 0.90361 0.91016 0.27363 0.0
H4008 H 0.81804 0.87941 0.29125 0.0
H4009 H 0.84493 0.84578 0.23504 0.0
H4010 H 0.83492 0.93877 0.28464 0.0
H4011 H 0.85846 0.93688 0.30336 0.0
H4012 H 0.83077 0.9213 0.30742 0.0
H4013 H 0.86647 0.8985 0.21346 0.0
H4014 H 0.87007 0.86878 0.21458 0.0
H4015 H 0.88925 0.89594 0.23283 0.0
C4016 C 0.73182 0.10237 0.72533 0.0
C4017 C 0.70885 0.09769 0.7243 0.0
C4018 C 0.74588 0.12577 0.73533 0.0
C4019 C 0.73652 0.14411 0.74515 0.0
C4020 C 0.71341 0.13877 0.74546 0.0
C4021 C 0.69979 0.11571 0.73457 0.0
C4022 C 0.7705 0.13117 0.73456 0.0
C4023 C 0.7029 0.1577 0.75633 0.0
C4024 C 0.76964 0.20673 0.77935 0.0
C4025 C 0.7692 0.22029 0.76169 0.0
C4026 C 0.76006 0.18136 0.7741 0.0
C4027 C 0.74975 0.16983 0.75082 0.0
C4028 C 0.74957 0.18352 0.733 0.0
C4029 C 0.75926 0.20858 0.73869 0.0
C4030 C 0.76032 0.16713 0.79348 0.0
C4031 C 0.73829 0.17192 0.70805 0.0
H4032 H 0.73864 0.08792 0.71812 0.0
H4033 H 0.68199 0.11151 0.73459 0.0
H4034 H 0.77508 0.14348 0.72209 0.0
H4035 H 0.78016 0.14079 0.75206 0.0
H4036 H 0.77543 0.11433 0.72887 0.0
H4037 H 0.68527 0.14954 0.75806 0.0
H4038 H 0.71224 0.16729 0.77397 0.0
H4039 H 0.70347 0.17159 0.74525 0.0
H4040 H 0.77755 0.21587 0.79709 0.0
H4041 H 0.75873 0.21909 0.72502 0.0
H4042 H 0.76429 0.1498 0.78739 0.0
H4043 H 0.74358 0.16235 0.79875 0.0
H4044 H 0.77255 0.1778 0.80921 0.0
H4045 H 0.744 0.1559 0.70137 0.0
H4046 H 0.74155 0.18488 0.69592 0.0
H4047 H 0.72004 0.16537 0.7076 0.0
loop_
_geom_bond_atom_site_label_1
_geom_bond_atom_site_label_2
_geom_bond_distance
_geom_bond_site_symmetry_2
_ccdc_geom_bond_type
Zn0 O3 2.031 . S
Zn0 O5 2.049 . S
Zn0 O10 2.067 . S
Zn1 O2 1.962 . S
Zn1 O4 1.986 . S
Zn1 O6 1.996 . S
Zn1 O9 1.943 . S
O2 Zn1 1.962 . S
O2 C7 1.254 . S
O3 Zn0 2.031 . S
O3 C7 1.269 . S
O4 Zn1 1.986 . S
O4 C11 1.262 . S
O5 Zn0 2.049 . S
O5 C13 1.260 . S
O6 Zn1 1.996 . S
O6 C13 1.257 . S
C7 O2 1.254 . S
C7 O3 1.269 . S
C8 O9 1.249 . S
C8 O10 1.270 . S
O9 Zn1 1.943 . S
O9 C8 1.249 . S
O10 Zn0 2.067 . S
O10 C8 1.270 . S
C11 O4 1.262 . S
C11 O12 1.232 . S
O12 C11 1.232 . S
C13 O5 1.260 . S
C13 O6 1.257 . S
Zn14 O17 2.031 1_455 S
Zn14 O19 2.049 . S
Zn14 O24 2.067 . S
Zn15 O16 1.943 1_455 S
Zn15 O18 1.994 . S
Zn15 O20 2.011 . S
Zn15 O23 1.947 1_455 S
O16 Zn15 1.943 1_655 S
O16 C21 1.254 . S
O17 Zn14 2.031 1_655 S
O17 C21 1.269 . S
O18 Zn15 1.994 . S
O18 C25 1.262 . S
O19 Zn14 2.049 . S
O19 C27 1.260 . S
O20 Zn15 2.011 . S
O20 C27 1.257 . S
C21 O16 1.254 . S
C21 O17 1.269 . S
C22 O23 1.249 . S
C22 O24 1.270 1_655 S
O23 Zn15 1.947 1_655 S
O23 C22 1.249 . S
O24 Zn14 2.067 . S
O24 C22 1.270 1_455 S
C25 O18 1.262 . S
C25 O26 1.232 1_455 S
O26 C25 1.232 1_655 S
C27 O19 1.260 . S
C27 O20 1.257 . S
Zn28 O31 2.031 . S
Zn28 O33 2.049 . S
Zn28 O38 2.067 . S
Zn29 O30 1.962 . S
Zn29 O32 1.986 . S
Zn29 O34 1.996 . S
Zn29 O37 1.943 . S
O30 Zn29 1.962 . S
O30 C35 1.254 . S
O31 Zn28 2.031 . S
O31 C35 1.269 . S
O32 Zn29 1.986 . S
O32 C39 1.262 . S
O33 Zn28 2.049 . S
O33 C41 1.260 . S
O34 Zn29 1.996 . S
O34 C41 1.257 . S
C35 O30 1.254 . S
C35 O31 1.269 . S
C36 O37 1.249 . S
C36 O38 1.270 . S
O37 Zn29 1.943 . S
O37 C36 1.249 . S
O38 Zn28 2.067 . S
O38 C36 1.270 . S
C39 O32 1.262 . S
C39 O40 1.232 . S
O40 C39 1.232 . S
C41 O33 1.260 . S
C41 O34 1.257 . S
Zn42 O45 2.031 . S
Zn42 O47 2.049 . S
Zn42 O52 2.067 . S
Zn43 O44 1.962 . S
Zn43 O46 1.986 . S
Zn43 O48 1.996 . S
Zn43 O51 1.943 . S
O44 Zn43 1.962 . S
O44 C49 1.254 . S
O45 Zn42 2.031 . S
O45 C49 1.269 . S
O46 Zn43 1.986 . S
O46 C53 1.262 . S
O47 Zn42 2.049 . S
O47 C55 1.260 . S
O48 Zn43 1.996 . S
O48 C55 1.257 . S
C49 O44 1.254 . S
C49 O45 1.269 . S
C50 O51 1.249 . S
C50 O52 1.270 . S
O51 Zn43 1.943 . S
O51 C50 1.249 . S
O52 Zn42 2.067 . S
O52 C50 1.270 . S
C53 O46 1.262 . S
C53 O54 1.232 . S
O54 C53 1.232 . S
C55 O47 1.260 . S
C55 O48 1.257 . S
Zn56 O59 2.031 . S
Zn56 O61 2.049 . S
Zn56 O66 2.067 . S
Zn57 O58 1.962 . S
Zn57 O60 1.986 . S
Zn57 O62 1.996 . S
Zn57 O65 1.943 . S
O58 Zn57 1.962 . S
O58 C63 1.254 . S
O59 Zn56 2.031 . S
O59 C63 1.269 . S
O60 Zn57 1.986 . S
O60 C67 1.262 . S
O61 Zn56 2.049 . S
O61 C69 1.260 . S
O62 Zn57 1.996 . S
O62 C69 1.257 . S
C63 O58 1.254 . S
C63 O59 1.269 . S
C64 O65 1.249 . S
C64 O66 1.270 . S
O65 Zn57 1.943 . S
O65 C64 1.249 . S
O66 Zn56 2.067 . S
O66 C64 1.270 . S
C67 O60 1.262 . S
C67 O68 1.232 . S
O68 C67 1.232 . S
C69 O61 1.260 . S
C69 O62 1.257 . S
Zn70 O73 2.031 . S
Zn70 O75 2.049 . S
Zn70 O80 2.067 . S
Zn71 O72 1.962 . S
Zn71 O74 1.986 . S
Zn71 O76 1.996 . S
Zn71 O79 1.943 . S
O72 Zn71 1.962 . S
O72 C77 1.254 . S
O73 Zn70 2.031 . S
O73 C77 1.269 . S
O74 Zn71 1.986 . S
O74 C81 1.262 . S
O75 Zn70 2.049 . S
O75 C83 1.260 . S
O76 Zn71 1.996 . S
O76 C83 1.257 . S
C77 O72 1.254 . S
C77 O73 1.269 . S
C78 O79 1.249 . S
C78 O80 1.270 . S
O79 Zn71 1.943 . S
O79 C78 1.249 . S
O80 Zn70 2.067 . S
O80 C78 1.270 . S
C81 O74 1.262 . S
C81 O82 1.232 . S
O82 C81 1.232 . S
C83 O75 1.260 . S
C83 O76 1.257 . S
Zn84 O87 2.031 . S
Zn84 O89 2.049 . S
Zn84 O94 2.067 . S
Zn85 O86 1.962 . S
Zn85 O88 1.986 . S
Zn85 O90 1.996 . S
Zn85 O93 1.943 . S
O86 Zn85 1.962 . S
O86 C91 1.254 . S
O87 Zn84 2.031 . S
O87 C91 1.269 . S
O88 Zn85 1.986 . S
O88 C95 1.262 . S
O89 Zn84 2.049 . S
O89 C97 1.260 . S
O90 Zn85 1.996 . S
O90 C97 1.257 . S
C91 O86 1.254 . S
C91 O87 1.269 . S
C92 O93 1.249 . S
C92 O94 1.270 . S
O93 Zn85 1.943 . S
O93 C92 1.249 . S
O94 Zn84 2.067 . S
O94 C92 1.270 . S
C95 O88 1.262 . S
C95 O96 1.232 . S
O96 C95 1.232 . S
C97 O89 1.260 . S
C97 O90 1.257 . S
Zn98 O101 2.025 1_655 S
Zn98 O103 2.049 . S
Zn98 O108 2.067 . S
Zn99 O100 1.962 . S
Zn99 O102 1.986 . S
Zn99 O104 1.996 . S
Zn99 O107 1.943 . S
O100 Zn99 1.962 . S
O100 C105 1.254 . S
O101 Zn98 2.025 1_455 S
O101 C105 1.306 . S
O102 Zn99 1.986 . S
O102 C109 1.262 . S
O103 Zn98 2.049 . S
O103 C111 1.260 1_655 S
O104 Zn99 1.996 . S
O104 C111 1.257 . S
C105 O100 1.254 . S
C105 O101 1.306 . S
C106 O107 1.249 1_655 S
C106 O108 1.270 . S
O107 Zn99 1.943 . S
O107 C106 1.249 1_455 S
O108 Zn98 2.067 . S
O108 C106 1.270 . S
C109 O102 1.262 . S
C109 O110 1.232 . S
O110 C109 1.232 . S
C111 O103 1.260 1_455 S
C111 O104 1.257 . S
Zn112 O115 2.031 . S
Zn112 O117 2.049 . S
Zn112 O122 2.067 . S
Zn113 O114 1.962 . S
Zn113 O116 1.986 . S
Zn113 O118 1.996 . S
Zn113 O121 1.943 1_545 S
O114 Zn113 1.962 . S
O114 C119 1.254 . S
O115 Zn112 2.031 . S
O115 C119 1.269 1_565 S
O116 Zn113 1.986 . S
O116 C123 1.262 . S
O117 Zn112 2.049 . S
O117 C125 1.260 . S
O118 Zn113 1.996 . S
O118 C125 1.257 1_545 S
C119 O114 1.254 . S
C119 O115 1.269 1_545 S
C120 O121 1.249 . S
C120 O122 1.270 . S
O121 Zn113 1.943 1_565 S
O121 C120 1.249 . S
O122 Zn112 2.067 . S
O122 C120 1.270 . S
C123 O116 1.262 . S
C123 O124 1.232 . S
O124 C123 1.232 . S
C125 O117 1.260 . S
C125 O118 1.257 1_565 S
Zn126 O129 2.031 . S
Zn126 O131 2.049 . S
Zn126 O136 2.067 . S
Zn127 O128 1.962 . S
Zn127 O130 1.986 . S
Zn127 O132 1.996 . S
Zn127 O135 1.943 . S
O128 Zn127 1.962 . S
O128 C133 1.254 . S
O129 Zn126 2.031 . S
O129 C133 1.269 . S
O130 Zn127 1.986 . S
O130 C137 1.262 . S
O131 Zn126 2.049 . S
O131 C139 1.260 . S
O132 Zn127 1.996 . S
O132 C139 1.257 . S
C133 O128 1.254 . S
C133 O129 1.269 . S
C134 O135 1.249 . S
C134 O136 1.270 . S
O135 Zn127 1.943 . S
O135 C134 1.249 . S
O136 Zn126 2.067 . S
O136 C134 1.270 . S
C137 O130 1.262 . S
C137 O138 1.232 . S
O138 C137 1.232 . S
C139 O131 1.260 . S
C139 O132 1.257 . S
Zn140 O143 2.031 . S
Zn140 O145 2.049 . S
Zn140 O150 2.067 . S
Zn141 O142 1.962 . S
Zn141 O144 1.986 . S
Zn141 O146 1.996 . S
Zn141 O149 1.943 1_565 S
O142 Zn141 1.962 . S
O142 C147 1.254 1_565 S
O143 Zn140 2.031 . S
O143 C147 1.269 . S
O144 Zn141 1.986 . S
O144 C151 1.262 . S
O145 Zn140 2.049 . S
O145 C153 1.302 . S
O146 Zn141 1.996 . S
O146 C153 1.232 1_565 S
C147 O142 1.254 1_545 S
C147 O143 1.269 . S
C148 O149 1.249 . S
C148 O150 1.270 . S
O149 Zn141 1.943 1_545 S
O149 C148 1.249 . S
O150 Zn140 2.067 . S
O150 C148 1.270 . S
C151 O144 1.262 . S
C151 O152 1.232 . S
O152 C151 1.232 . S
C153 O145 1.302 . S
C153 O146 1.232 1_545 S
Zn154 O157 2.031 1_554 S
Zn154 O159 2.049 . S
Zn154 O164 2.067 . S
Zn155 O156 1.962 1_554 S
Zn155 O158 1.986 . S
Zn155 O160 1.996 . S
Zn155 O163 1.943 . S
O156 Zn155 1.962 1_556 S
O156 C161 1.254 . S
O157 Zn154 2.031 1_556 S
O157 C161 1.269 . S
O158 Zn155 1.986 . S
O158 C165 1.262 . S
O159 Zn154 2.049 . S
O159 C167 1.260 . S
O160 Zn155 1.996 . S
O160 C167 1.257 . S
C161 O156 1.254 . S
C161 O157 1.269 . S
C162 O163 1.249 . S
C162 O164 1.270 . S
O163 Zn155 1.943 . S
O163 C162 1.249 . S
O164 Zn154 2.067 . S
O164 C162 1.270 . S
C165 O158 1.262 . S
C165 O166 1.232 1_554 S
O166 C165 1.232 1_556 S
C167 O159 1.260 . S
C167 O160 1.257 . S
Zn168 O171 2.031 1_554 S
Zn168 O173 2.049 . S
Zn168 O178 2.067 . S
Zn169 O170 1.962 1_554 S
Zn169 O172 1.986 . S
Zn169 O174 1.996 . S
Zn169 O177 1.943 . S
O170 Zn169 1.962 1_556 S
O170 C175 1.254 . S
O171 Zn168 2.031 1_556 S
O171 C175 1.269 . S
O172 Zn169 1.986 . S
O172 C179 1.262 . S
O173 Zn168 2.049 . S
O173 C181 1.260 . S
O174 Zn169 1.996 . S
O174 C181 1.257 . S
C175 O170 1.254 . S
C175 O171 1.269 . S
C176 O177 1.249 . S
C176 O178 1.270 . S
O177 Zn169 1.943 . S
O177 C176 1.249 . S
O178 Zn168 2.067 . S
O178 C176 1.270 . S
C179 O172 1.262 . S
C179 O180 1.236 . S
O180 C179 1.236 . S
C181 O173 1.260 . S
C181 O174 1.257 . S
Zn182 O185 2.031 1_554 S
Zn182 O187 2.049 . S
Zn182 O192 2.067 . S
Zn183 O184 1.962 1_554 S
Zn183 O186 1.986 . S
Zn183 O188 1.996 . S
Zn183 O191 1.943 . S
O184 Zn183 1.962 1_556 S
O184 C189 1.254 . S
O185 Zn182 2.031 1_556 S
O185 C189 1.269 . S
O186 Zn183 1.986 . S
O186 C193 1.262 . S
O187 Zn182 2.049 . S
O187 C195 1.260 . S
O188 Zn183 1.996 . S
O188 C195 1.257 . S
C189 O184 1.254 . S
C189 O185 1.269 . S
C190 O191 1.249 . S
C190 O192 1.270 . S
O191 Zn183 1.943 . S
O191 C190 1.249 . S
O192 Zn182 2.067 . S
O192 C190 1.270 . S
C193 O186 1.262 . S
C193 O194 1.232 1_554 S
O194 C193 1.232 1_556 S
C195 O187 1.260 . S
C195 O188 1.257 . S
Zn196 O199 2.031 . S
Zn196 O201 2.049 . S
Zn196 O206 2.067 . S
Zn197 O198 1.962 . S
Zn197 O200 1.986 . S
Zn197 O202 1.996 . S
Zn197 O205 1.943 . S
O198 Zn197 1.962 . S
O198 C203 1.254 . S
O199 Zn196 2.031 . S
O199 C203 1.269 . S
O200 Zn197 1.986 . S
O200 C207 1.262 . S
O201 Zn196 2.049 . S
O201 C209 1.260 . S
O202 Zn197 1.996 . S
O202 C209 1.257 . S
C203 O198 1.254 . S
C203 O199 1.269 . S
C204 O205 1.249 . S
C204 O206 1.270 . S
O205 Zn197 1.943 . S
O205 C204 1.249 . S
O206 Zn196 2.067 . S
O206 C204 1.270 . S
C207 O200 1.262 . S
C207 O208 1.232 . S
O208 C207 1.232 . S
C209 O201 1.260 . S
C209 O202 1.257 . S
Zn210 O213 2.031 . S
Zn210 O215 2.049 . S
Zn210 O220 2.067 . S
Zn211 O212 1.962 . S
Zn211 O214 1.986 . S
Zn211 O216 1.996 . S
Zn211 O219 1.943 . S
O212 Zn211 1.962 . S
O212 C217 1.254 . S
O213 Zn210 2.031 . S
O213 C217 1.269 . S
O214 Zn211 1.986 . S
O214 C221 1.262 . S
O215 Zn210 2.049 . S
O215 C223 1.260 . S
O216 Zn211 1.996 . S
O216 C223 1.257 . S
C217 O212 1.254 . S
C217 O213 1.269 . S
C218 O219 1.249 . S
C218 O220 1.270 . S
O219 Zn211 1.943 . S
O219 C218 1.249 . S
O220 Zn210 2.067 . S
O220 C218 1.270 . S
C221 O214 1.262 . S
C221 O222 1.232 . S
O222 C221 1.232 . S
C223 O215 1.260 . S
C223 O216 1.257 . S
Zn224 O227 2.031 . S
Zn224 O229 2.049 . S
Zn224 O234 2.067 . S
Zn225 O226 1.962 . S
Zn225 O228 1.986 . S
Zn225 O230 1.996 . S
Zn225 O233 1.943 . S
O226 Zn225 1.962 . S
O226 C231 1.254 . S
O227 Zn224 2.031 . S
O227 C231 1.269 . S
O228 Zn225 1.986 . S
O228 C235 1.262 . S
O229 Zn224 2.049 . S
O229 C237 1.260 . S
O230 Zn225 1.996 . S
O230 C237 1.257 . S
C231 O226 1.254 . S
C231 O227 1.269 . S
C232 O233 1.249 . S
C232 O234 1.270 . S
O233 Zn225 1.943 . S
O233 C232 1.249 . S
O234 Zn224 2.067 . S
O234 C232 1.270 . S
C235 O228 1.262 . S
C235 O236 1.232 . S
O236 C235 1.232 . S
C237 O229 1.260 . S
C237 O230 1.257 . S
Zn238 O241 2.031 . S
Zn238 O243 2.049 . S
Zn238 O248 2.067 . S
Zn239 O240 1.962 . S
Zn239 O242 1.986 . S
Zn239 O244 1.996 . S
Zn239 O247 1.943 . S
O240 Zn239 1.962 . S
O240 C245 1.254 . S
O241 Zn238 2.031 . S
O241 C245 1.269 . S
O242 Zn239 1.986 . S
O242 C249 1.262 . S
O243 Zn238 2.049 . S
O243 C251 1.260 . S
O244 Zn239 1.996 . S
O244 C251 1.257 . S
C245 O240 1.254 . S
C245 O241 1.269 . S
C246 O247 1.249 . S
C246 O248 1.270 . S
O247 Zn239 1.943 . S
O247 C246 1.249 . S
O248 Zn238 2.067 . S
O248 C246 1.270 . S
C249 O242 1.262 . S
C249 O250 1.232 . S
O250 C249 1.232 . S
C251 O243 1.260 . S
C251 O244 1.257 . S
Zn252 O255 2.031 . S
Zn252 O257 2.049 . S
Zn252 O262 2.067 . S
Zn253 O254 1.962 . S
Zn253 O256 1.986 . S
Zn253 O258 1.996 . S
Zn253 O261 1.943 . S
O254 Zn253 1.962 . S
O254 C259 1.254 . S
O255 Zn252 2.031 . S
O255 C259 1.269 . S
O256 Zn253 1.986 . S
O256 C263 1.262 . S
O257 Zn252 2.049 . S
O257 C265 1.260 . S
O258 Zn253 1.996 . S
O258 C265 1.257 . S
C259 O254 1.254 . S
C259 O255 1.269 . S
C260 O261 1.249 . S
C260 O262 1.270 . S
O261 Zn253 1.943 . S
O261 C260 1.249 . S
O262 Zn252 2.067 . S
O262 C260 1.270 . S
C263 O256 1.262 . S
C263 O264 1.232 . S
O264 C263 1.232 . S
C265 O257 1.260 . S
C265 O258 1.257 . S
Zn266 O269 2.031 . S
Zn266 O271 2.049 . S
Zn266 O276 2.067 . S
Zn267 O268 1.962 . S
Zn267 O270 1.986 . S
Zn267 O272 1.996 . S
Zn267 O275 1.943 . S
O268 Zn267 1.962 . S
O268 C273 1.254 . S
O269 Zn266 2.031 . S
O269 C273 1.269 . S
O270 Zn267 1.986 . S
O270 C277 1.262 . S
O271 Zn266 2.049 . S
O271 C279 1.260 . S
O272 Zn267 1.996 . S
O272 C279 1.257 . S
C273 O268 1.254 . S
C273 O269 1.269 . S
C274 O275 1.249 . S
C274 O276 1.270 . S
O275 Zn267 1.943 . S
O275 C274 1.249 . S
O276 Zn266 2.067 . S
O276 C274 1.270 . S
C277 O270 1.262 . S
C277 O278 1.232 . S
O278 C277 1.232 . S
C279 O271 1.260 . S
C279 O272 1.257 . S
Zn280 O283 2.031 1_554 S
Zn280 O285 2.049 . S
Zn280 O290 2.067 . S
Zn281 O282 1.962 1_554 S
Zn281 O284 1.986 . S
Zn281 O286 1.996 . S
Zn281 O289 1.943 . S
O282 Zn281 1.962 1_556 S
O282 C287 1.254 . S
O283 Zn280 2.031 1_556 S
O283 C287 1.269 . S
O284 Zn281 1.986 . S
O284 C291 1.262 . S
O285 Zn280 2.049 . S
O285 C293 1.260 . S
O286 Zn281 1.996 . S
O286 C293 1.257 . S
C287 O282 1.254 . S
C287 O283 1.269 . S
C288 O289 1.249 . S
C288 O290 1.270 . S
O289 Zn281 1.943 . S
O289 C288 1.249 . S
O290 Zn280 2.067 . S
O290 C288 1.270 . S
C291 O284 1.262 . S
C291 O292 1.232 1_554 S
O292 C291 1.232 1_556 S
C293 O285 1.260 . S
C293 O286 1.257 . S
Zn294 O297 2.031 . S
Zn294 O299 2.049 . S
Zn294 O304 2.067 . S
Zn295 O296 1.962 . S
Zn295 O298 1.986 . S
Zn295 O300 1.996 . S
Zn295 O303 1.943 . S
O296 Zn295 1.962 . S
O296 C301 1.254 . S
O297 Zn294 2.031 . S
O297 C301 1.269 . S
O298 Zn295 1.986 . S
O298 C305 1.262 . S
O299 Zn294 2.049 . S
O299 C307 1.260 . S
O300 Zn295 1.996 . S
O300 C307 1.257 . S
C301 O296 1.254 . S
C301 O297 1.269 . S
C302 O303 1.249 . S
C302 O304 1.270 . S
O303 Zn295 1.943 . S
O303 C302 1.249 . S
O304 Zn294 2.067 . S
O304 C302 1.270 . S
C305 O298 1.262 . S
C305 O306 1.232 . S
O306 C305 1.232 . S
C307 O299 1.260 . S
C307 O300 1.257 . S
Zn308 O311 2.031 . S
Zn308 O313 2.049 . S
Zn308 O318 2.067 . S
Zn309 O310 1.962 . S
Zn309 O312 1.986 . S
Zn309 O314 1.996 . S
Zn309 O317 1.943 . S
O310 Zn309 1.962 . S
O310 C315 1.254 . S
O311 Zn308 2.031 . S
O311 C315 1.269 . S
O312 Zn309 1.986 . S
O312 C319 1.262 . S
O313 Zn308 2.049 . S
O313 C321 1.260 . S
O314 Zn309 1.996 . S
O314 C321 1.257 . S
C315 O310 1.254 . S
C315 O311 1.269 . S
C316 O317 1.249 . S
C316 O318 1.270 . S
O317 Zn309 1.943 . S
O317 C316 1.249 . S
O318 Zn308 2.067 . S
O318 C316 1.270 . S
C319 O312 1.262 . S
C319 O320 1.232 . S
O320 C319 1.232 . S
C321 O313 1.260 . S
C321 O314 1.257 . S
Zn322 O325 2.031 . S
Zn322 O327 2.049 . S
Zn322 O332 2.067 . S
Zn323 O324 1.962 . S
Zn323 O326 1.986 . S
Zn323 O328 1.996 . S
Zn323 O331 1.943 . S
O324 Zn323 1.962 . S
O324 C329 1.254 . S
O325 Zn322 2.031 . S
O325 C329 1.269 . S
O326 Zn323 1.986 . S
O326 C333 1.262 . S
O327 Zn322 2.049 . S
O327 C335 1.260 . S
O328 Zn323 1.996 . S
O328 C335 1.257 . S
C329 O324 1.254 . S
C329 O325 1.269 . S
C330 O331 1.249 . S
C330 O332 1.270 . S
O331 Zn323 1.943 . S
O331 C330 1.249 . S
O332 Zn322 2.067 . S
O332 C330 1.270 . S
C333 O326 1.262 . S
C333 O334 1.232 . S
O334 C333 1.232 . S
C335 O327 1.260 . S
C335 O328 1.257 . S
Sm336 C338 2.846 1_454 S
Sm336 O356 2.543 1_455 S
Sm336 O357 2.450 1_454 S
Sm336 O358 2.681 1_554 S
Sm336 O359 2.464 1_554 S
Sm336 O360 2.396 1_554 S
Sm336 O364 2.386 . S
Sm336 O367 2.408 1_545 S
Sm337 C347 2.846 . S
Sm337 O358 2.386 1_554 S
Sm337 O361 2.408 . S
Sm337 O362 2.543 . S
Sm337 O363 2.450 . S
Sm337 O364 2.681 . S
Sm337 O365 2.464 . S
Sm337 O366 2.396 . S
C338 Sm336 2.846 1_656 S
C338 C339 1.506 . S
C338 O356 1.261 1_556 S
C338 O357 1.242 . S
C339 C338 1.506 . S
C339 C340 1.358 1_556 S
C339 C344 1.382 . S
C340 C339 1.358 1_554 S
C340 C341 1.385 1_554 S
C340 H368 0.930 . S
C341 C340 1.385 1_556 S
C341 C342 1.395 . S
C341 H369 0.929 1_556 S
C342 C341 1.395 . S
C342 C343 1.335 . S
C343 C342 1.335 . S
C343 C344 1.398 . S
C343 H370 0.930 . S
C344 C339 1.382 . S
C344 C343 1.398 . S
C344 H371 0.929 . S
C345 O358 1.271 . S
C345 O359 1.251 . S
C346 O360 1.252 1_554 S
C346 O361 1.272 . S
C347 Sm337 2.846 . S
C347 C348 1.506 . S
C347 O362 1.261 . S
C347 O363 1.242 . S
C348 C347 1.506 . S
C348 C349 1.358 . S
C348 C353 1.382 . S
C349 C348 1.358 . S
C349 C350 1.385 1_545 S
C349 H372 0.930 . S
C350 C349 1.385 1_565 S
C350 C351 1.395 1_565 S
C350 H373 0.929 . S
C351 C350 1.395 1_545 S
C351 C352 1.335 . S
C352 C351 1.335 . S
C352 C353 1.398 . S
C352 H374 0.930 . S
C353 C348 1.382 . S
C353 C352 1.398 . S
C353 H375 0.929 . S
C354 O364 1.271 . S
C354 O365 1.251 . S
C355 O366 1.252 1_565 S
C355 O367 1.272 . S
O356 Sm336 2.543 1_655 S
O356 C338 1.261 1_554 S
O357 Sm336 2.450 1_656 S
O357 C338 1.242 . S
O358 Sm336 2.681 1_556 S
O358 Sm337 2.386 1_556 S
O358 C345 1.271 . S
O359 Sm336 2.464 1_556 S
O359 C345 1.251 . S
O360 Sm336 2.396 1_556 S
O360 C346 1.252 1_556 S
O361 Sm337 2.408 . S
O361 C346 1.272 . S
O362 Sm337 2.543 . S
O362 C347 1.261 . S
O363 Sm337 2.450 . S
O363 C347 1.242 . S
O364 Sm336 2.386 . S
O364 Sm337 2.681 . S
O364 C354 1.271 . S
O365 Sm337 2.464 . S
O365 C354 1.251 . S
O366 Sm337 2.396 . S
O366 C355 1.252 1_545 S
O367 Sm336 2.408 1_565 S
O367 C355 1.272 . S
H368 C340 0.930 . S
H369 C341 0.929 1_554 S
H370 C343 0.930 . S
H371 C344 0.929 . S
H372 C349 0.930 . S
H373 C350 0.929 . S
H374 C352 0.930 . S
H375 C353 0.929 . S
Sm376 C378 2.846 . S
Sm376 O396 2.543 . S
Sm376 O397 2.450 . S
Sm376 O398 2.681 . S
Sm376 O399 2.464 . S
Sm376 O400 2.396 . S
Sm376 O404 2.386 . S
Sm376 O407 2.408 . S
Sm377 C387 2.846 . S
Sm377 O398 2.386 . S
Sm377 O401 2.408 . S
Sm377 O402 2.543 . S
Sm377 O403 2.450 . S
Sm377 O404 2.681 . S
Sm377 O405 2.464 . S
Sm377 O406 2.396 . S
C378 Sm376 2.846 . S
C378 C379 1.506 . S
C378 O396 1.261 . S
C378 O397 1.242 . S
C379 C378 1.506 . S
C379 C380 1.358 . S
C379 C384 1.382 . S
C380 C379 1.358 . S
C380 C381 1.385 . S
C380 H408 0.930 . S
C381 C380 1.385 . S
C381 C382 1.395 . S
C381 H409 0.929 . S
C382 C381 1.395 . S
C382 C383 1.335 . S
C383 C382 1.335 . S
C383 C384 1.398 . S
C383 H410 0.930 . S
C384 C379 1.382 . S
C384 C383 1.398 . S
C384 H411 0.929 . S
C385 O398 1.271 . S
C385 O399 1.251 . S
C386 O400 1.252 . S
C386 O401 1.272 . S
C387 Sm377 2.846 . S
C387 C388 1.506 . S
C387 O402 1.261 . S
C387 O403 1.242 . S
C388 C387 1.506 . S
C388 C389 1.358 . S
C388 C393 1.382 . S
C389 C388 1.358 . S
C389 C390 1.385 . S
C389 H412 0.930 . S
C390 C389 1.385 . S
C390 C391 1.395 . S
C390 H413 0.929 . S
C391 C390 1.395 . S
C391 C392 1.335 . S
C392 C391 1.335 . S
C392 C393 1.398 . S
C392 H414 0.930 . S
C393 C388 1.382 . S
C393 C392 1.398 . S
C393 H415 0.929 . S
C394 O404 1.271 . S
C394 O405 1.251 . S
C395 O406 1.252 . S
C395 O407 1.272 . S
O396 Sm376 2.543 . S
O396 C378 1.261 . S
O397 Sm376 2.450 . S
O397 C378 1.242 . S
O398 Sm376 2.681 . S
O398 Sm377 2.386 . S
O398 C385 1.271 . S
O399 Sm376 2.464 . S
O399 C385 1.251 . S
O400 Sm376 2.396 . S
O400 C386 1.252 . S
O401 Sm377 2.408 . S
O401 C386 1.272 . S
O402 Sm377 2.543 . S
O402 C387 1.261 . S
O403 Sm377 2.450 . S
O403 C387 1.242 . S
O404 Sm376 2.386 . S
O404 Sm377 2.681 . S
O404 C394 1.271 . S
O405 Sm377 2.464 . S
O405 C394 1.251 . S
O406 Sm377 2.396 . S
O406 C395 1.252 . S
O407 Sm376 2.408 . S
O407 C395 1.272 . S
H408 C380 0.930 . S
H409 C381 0.929 . S
H410 C383 0.930 . S
H411 C384 0.929 . S
H412 C389 0.930 . S
H413 C390 0.929 . S
H414 C392 0.930 . S
H415 C393 0.929 . S
Sm416 C418 2.846 . S
Sm416 O436 2.543 . S
Sm416 O437 2.450 . S
Sm416 O438 2.681 . S
Sm416 O439 2.464 . S
Sm416 O440 2.396 1_545 S
Sm416 O444 2.386 . S
Sm416 O447 2.408 . S
Sm417 C427 2.846 . S
Sm417 O438 2.386 . S
Sm417 O441 2.408 1_545 S
Sm417 O442 2.543 . S
Sm417 O443 2.450 . S
Sm417 O444 2.681 . S
Sm417 O445 2.464 . S
Sm417 O446 2.396 . S
C418 Sm416 2.846 . S
C418 C419 1.506 1_545 S
C418 O436 1.261 . S
C418 O437 1.242 . S
C419 C418 1.506 1_565 S
C419 C420 1.358 . S
C419 C424 1.382 . S
C420 C419 1.358 . S
C420 C421 1.385 . S
C420 H448 0.930 . S
C421 C420 1.385 . S
C421 C422 1.395 . S
C421 H449 0.929 . S
C422 C421 1.395 . S
C422 C423 1.335 . S
C423 C422 1.335 . S
C423 C424 1.398 . S
C423 H450 0.930 . S
C424 C419 1.382 . S
C424 C423 1.398 . S
C424 H451 0.929 . S
C425 O438 1.271 . S
C425 O439 1.251 . S
C426 O440 1.252 . S
C426 O441 1.272 . S
C427 Sm417 2.846 . S
C427 C428 1.506 . S
C427 O442 1.261 . S
C427 O443 1.242 . S
C428 C427 1.506 . S
C428 C429 1.358 . S
C428 C433 1.382 . S
C429 C428 1.358 . S
C429 C430 1.385 . S
C429 H452 0.930 . S
C430 C429 1.385 . S
C430 C431 1.395 . S
C430 H453 0.929 . S
C431 C430 1.395 . S
C431 C432 1.335 . S
C432 C431 1.335 . S
C432 C433 1.398 . S
C432 H454 0.930 . S
C433 C428 1.382 . S
C433 C432 1.398 . S
C433 H455 0.929 . S
C434 O444 1.271 . S
C434 O445 1.251 . S
C435 O446 1.252 . S
C435 O447 1.272 . S
O436 Sm416 2.543 . S
O436 C418 1.261 . S
O437 Sm416 2.450 . S
O437 C418 1.242 . S
O438 Sm416 2.681 . S
O438 Sm417 2.386 . S
O438 C425 1.271 . S
O439 Sm416 2.464 . S
O439 C425 1.251 . S
O440 Sm416 2.396 1_565 S
O440 C426 1.252 . S
O441 Sm417 2.408 1_565 S
O441 C426 1.272 . S
O442 Sm417 2.543 . S
O442 C427 1.261 . S
O443 Sm417 2.450 . S
O443 C427 1.242 . S
O444 Sm416 2.386 . S
O444 Sm417 2.681 . S
O444 C434 1.271 . S
O445 Sm417 2.464 . S
O445 C434 1.251 . S
O446 Sm417 2.396 . S
O446 C435 1.252 . S
O447 Sm416 2.408 . S
O447 C435 1.272 . S
H448 C420 0.930 . S
H449 C421 0.929 . S
H450 C423 0.930 . S
H451 C424 0.929 . S
H452 C429 0.930 . S
H453 C430 0.929 . S
H454 C432 0.930 . S
H455 C433 0.929 . S
Sm456 C458 2.846 . S
Sm456 O476 2.543 . S
Sm456 O477 2.450 . S
Sm456 O478 2.681 . S
Sm456 O479 2.464 . S
Sm456 O480 2.396 . S
Sm456 O484 2.386 . S
Sm456 O487 2.408 . S
Sm457 C467 2.846 . S
Sm457 O478 2.386 . S
Sm457 O481 2.408 . S
Sm457 O482 2.543 . S
Sm457 O483 2.450 . S
Sm457 O484 2.681 . S
Sm457 O485 2.464 . S
Sm457 O486 2.396 . S
C458 Sm456 2.846 . S
C458 C459 1.506 . S
C458 O476 1.261 . S
C458 O477 1.242 . S
C459 C458 1.506 . S
C459 C460 1.358 . S
C459 C464 1.382 . S
C460 C459 1.358 . S
C460 C461 1.385 . S
C460 H488 0.930 . S
C461 C460 1.385 . S
C461 C462 1.395 . S
C461 H489 0.929 . S
C462 C461 1.395 . S
C462 C463 1.335 . S
C463 C462 1.335 . S
C463 C464 1.398 . S
C463 H490 0.930 . S
C464 C459 1.382 . S
C464 C463 1.398 . S
C464 H491 0.929 . S
C465 O478 1.271 . S
C465 O479 1.251 . S
C466 O480 1.252 . S
C466 O481 1.272 . S
C467 Sm457 2.846 . S
C467 C468 1.506 . S
C467 O482 1.261 . S
C467 O483 1.242 . S
C468 C467 1.506 . S
C468 C469 1.358 . S
C468 C473 1.382 . S
C469 C468 1.358 . S
C469 C470 1.385 . S
C469 H492 0.930 . S
C470 C469 1.385 . S
C470 C471 1.395 . S
C470 H493 0.929 . S
C471 C470 1.395 . S
C471 C472 1.335 . S
C472 C471 1.335 . S
C472 C473 1.398 . S
C472 H494 0.930 . S
C473 C468 1.382 . S
C473 C472 1.398 . S
C473 H495 0.929 . S
C474 O484 1.271 . S
C474 O485 1.251 . S
C475 O486 1.252 . S
C475 O487 1.272 . S
O476 Sm456 2.543 . S
O476 C458 1.261 . S
O477 Sm456 2.450 . S
O477 C458 1.242 . S
O478 Sm456 2.681 . S
O478 Sm457 2.386 . S
O478 C465 1.271 . S
O479 Sm456 2.464 . S
O479 C465 1.251 . S
O480 Sm456 2.396 . S
O480 C466 1.252 . S
O481 Sm457 2.408 . S
O481 C466 1.272 . S
O482 Sm457 2.543 . S
O482 C467 1.261 . S
O483 Sm457 2.450 . S
O483 C467 1.242 . S
O484 Sm456 2.386 . S
O484 Sm457 2.681 . S
O484 C474 1.271 . S
O485 Sm457 2.464 . S
O485 C474 1.251 . S
O486 Sm457 2.396 . S
O486 C475 1.252 . S
O487 Sm456 2.408 . S
O487 C475 1.272 . S
H488 C460 0.930 . S
H489 C461 0.929 . S
H490 C463 0.930 . S
H491 C464 0.929 . S
H492 C469 0.930 . S
H493 C470 0.929 . S
H494 C472 0.930 . S
H495 C473 0.929 . S
Sm496 C498 2.846 . S
Sm496 O516 2.543 . S
Sm496 O517 2.450 . S
Sm496 O518 2.681 . S
Sm496 O519 2.464 . S
Sm496 O520 2.396 . S
Sm496 O524 2.386 . S
Sm496 O527 2.408 . S
Sm497 C507 2.846 . S
Sm497 O518 2.386 1_565 S
Sm497 O521 2.408 1_565 S
Sm497 O522 2.543 . S
Sm497 O523 2.450 . S
Sm497 O524 2.681 1_565 S
Sm497 O525 2.464 1_565 S
Sm497 O526 2.396 1_565 S
C498 Sm496 2.846 . S
C498 C499 1.506 . S
C498 O516 1.261 . S
C498 O517 1.242 . S
C499 C498 1.506 . S
C499 C500 1.358 . S
C499 C504 1.382 . S
C500 C499 1.358 . S
C500 C501 1.385 . S
C500 H528 0.930 . S
C501 C500 1.385 . S
C501 C502 1.395 . S
C501 H529 0.929 . S
C502 C501 1.395 . S
C502 C503 1.335 . S
C503 C502 1.335 . S
C503 C504 1.398 . S
C503 H530 0.930 . S
C504 C499 1.382 . S
C504 C503 1.398 . S
C504 H531 0.929 . S
C505 O518 1.271 . S
C505 O519 1.251 . S
C506 O520 1.252 . S
C506 O521 1.272 . S
C507 Sm497 2.846 . S
C507 C508 1.506 . S
C507 O522 1.261 . S
C507 O523 1.242 . S
C508 C507 1.506 . S
C508 C509 1.358 . S
C508 C513 1.382 . S
C509 C508 1.358 . S
C509 C510 1.385 . S
C509 H532 0.930 . S
C510 C509 1.385 . S
C510 C511 1.395 . S
C510 H533 0.929 . S
C511 C510 1.395 . S
C511 C512 1.335 . S
C512 C511 1.335 . S
C512 C513 1.398 . S
C512 H534 0.930 . S
C513 C508 1.382 . S
C513 C512 1.398 . S
C513 H535 0.929 . S
C514 O524 1.271 . S
C514 O525 1.251 . S
C515 O526 1.252 . S
C515 O527 1.272 . S
O516 Sm496 2.543 . S
O516 C498 1.261 . S
O517 Sm496 2.450 . S
O517 C498 1.242 . S
O518 Sm496 2.681 . S
O518 Sm497 2.386 1_545 S
O518 C505 1.271 . S
O519 Sm496 2.464 . S
O519 C505 1.251 . S
O520 Sm496 2.396 . S
O520 C506 1.252 . S
O521 Sm497 2.408 1_545 S
O521 C506 1.272 . S
O522 Sm497 2.543 . S
O522 C507 1.261 . S
O523 Sm497 2.450 . S
O523 C507 1.242 . S
O524 Sm496 2.386 . S
O524 Sm497 2.681 1_545 S
O524 C514 1.271 . S
O525 Sm497 2.464 1_545 S
O525 C514 1.251 . S
O526 Sm497 2.396 1_545 S
O526 C515 1.252 . S
O527 Sm496 2.408 . S
O527 C515 1.272 . S
H528 C500 0.930 . S
H529 C501 0.929 . S
H530 C503 0.930 . S
H531 C504 0.929 . S
H532 C509 0.930 . S
H533 C510 0.929 . S
H534 C512 0.930 . S
H535 C513 0.929 . S
Sm536 C538 2.846 . S
Sm536 O556 2.543 . S
Sm536 O557 2.450 . S
Sm536 O558 2.681 . S
Sm536 O559 2.464 . S
Sm536 O560 2.396 . S
Sm536 O564 2.386 . S
Sm536 O567 2.408 . S
Sm537 C547 2.846 . S
Sm537 O558 2.386 . S
Sm537 O561 2.408 . S
Sm537 O562 2.543 . S
Sm537 O563 2.450 . S
Sm537 O564 2.681 . S
Sm537 O565 2.464 . S
Sm537 O566 2.396 . S
C538 Sm536 2.846 . S
C538 C539 1.506 . S
C538 O556 1.261 . S
C538 O557 1.242 . S
C539 C538 1.506 . S
C539 C540 1.358 . S
C539 C544 1.382 . S
C540 C539 1.358 . S
C540 C541 1.385 . S
C540 H568 0.930 . S
C541 C540 1.385 . S
C541 C542 1.395 . S
C541 H569 0.929 . S
C542 C541 1.395 . S
C542 C543 1.335 . S
C543 C542 1.335 . S
C543 C544 1.398 . S
C543 H570 0.930 . S
C544 C539 1.382 . S
C544 C543 1.398 . S
C544 H571 0.929 . S
C545 O558 1.271 . S
C545 O559 1.251 . S
C546 O560 1.252 . S
C546 O561 1.272 . S
C547 Sm537 2.846 . S
C547 C548 1.506 . S
C547 O562 1.261 . S
C547 O563 1.242 . S
C548 C547 1.506 . S
C548 C549 1.358 . S
C548 C553 1.382 . S
C549 C548 1.358 . S
C549 C550 1.385 . S
C549 H572 0.930 . S
C550 C549 1.385 . S
C550 C551 1.395 . S
C550 H573 0.929 . S
C551 C550 1.395 . S
C551 C552 1.335 . S
C552 C551 1.335 . S
C552 C553 1.398 . S
C552 H574 0.930 . S
C553 C548 1.382 . S
C553 C552 1.398 . S
C553 H575 0.929 . S
C554 O564 1.271 . S
C554 O565 1.251 . S
C555 O566 1.252 . S
C555 O567 1.272 . S
O556 Sm536 2.543 . S
O556 C538 1.261 . S
O557 Sm536 2.450 . S
O557 C538 1.242 . S
O558 Sm536 2.681 . S
O558 Sm537 2.386 . S
O558 C545 1.271 . S
O559 Sm536 2.464 . S
O559 C545 1.251 . S
O560 Sm536 2.396 . S
O560 C546 1.252 . S
O561 Sm537 2.408 . S
O561 C546 1.272 . S
O562 Sm537 2.543 . S
O562 C547 1.261 . S
O563 Sm537 2.450 . S
O563 C547 1.242 . S
O564 Sm536 2.386 . S
O564 Sm537 2.681 . S
O564 C554 1.271 . S
O565 Sm537 2.464 . S
O565 C554 1.251 . S
O566 Sm537 2.396 . S
O566 C555 1.252 . S
O567 Sm536 2.408 . S
O567 C555 1.272 . S
H568 C540 0.930 . S
H569 C541 0.929 . S
H570 C543 0.930 . S
H571 C544 0.929 . S
H572 C549 0.930 . S
H573 C550 0.929 . S
H574 C552 0.930 . S
H575 C553 0.929 . S
Sm576 C578 2.846 . S
Sm576 O596 2.543 . S
Sm576 O597 2.450 . S
Sm576 O598 2.681 1_554 S
Sm576 O599 2.464 1_545 S
Sm576 O600 2.396 . S
Sm576 O604 2.386 . S
Sm576 O607 2.408 . S
Sm577 C587 2.846 . S
Sm577 O598 2.386 . S
Sm577 O601 2.408 . S
Sm577 O602 2.543 . S
Sm577 O603 2.450 . S
Sm577 O604 2.681 1_556 S
Sm577 O605 2.464 . S
Sm577 O606 2.396 . S
C578 Sm576 2.846 . S
C578 C579 1.506 . S
C578 O596 1.261 . S
C578 O597 1.242 . S
C579 C578 1.506 . S
C579 C580 1.358 . S
C579 C584 1.382 1_545 S
C580 C579 1.358 . S
C580 C581 1.385 . S
C580 H608 0.930 . S
C581 C580 1.385 . S
C581 C582 1.395 1_545 S
C581 H609 0.929 . S
C582 C581 1.395 1_565 S
C582 C583 1.335 . S
C583 C582 1.335 . S
C583 C584 1.398 . S
C583 H610 0.930 . S
C584 C579 1.382 1_565 S
C584 C583 1.398 . S
C584 H611 0.929 . S
C585 O598 1.271 1_565 S
C585 O599 1.251 1_556 S
C586 O600 1.252 . S
C586 O601 1.272 1_554 S
C587 Sm577 2.846 . S
C587 C588 1.506 . S
C587 O602 1.261 . S
C587 O603 1.242 . S
C588 C587 1.506 . S
C588 C589 1.358 . S
C588 C593 1.382 . S
C589 C588 1.358 . S
C589 C590 1.385 . S
C589 H612 0.930 . S
C590 C589 1.385 . S
C590 C591 1.395 . S
C590 H613 0.929 . S
C591 C590 1.395 . S
C591 C592 1.335 . S
C592 C591 1.335 . S
C592 C593 1.398 . S
C592 H614 0.930 . S
C593 C588 1.382 . S
C593 C592 1.398 . S
C593 H615 0.929 . S
C594 O604 1.271 . S
C594 O605 1.251 1_554 S
C595 O606 1.252 1_554 S
C595 O607 1.272 . S
O596 Sm576 2.543 . S
O596 C578 1.261 . S
O597 Sm576 2.450 . S
O597 C578 1.242 . S
O598 Sm576 2.681 1_556 S
O598 Sm577 2.386 . S
O598 C585 1.271 1_545 S
O599 Sm576 2.464 1_565 S
O599 C585 1.251 1_554 S
O600 Sm576 2.396 . S
O600 C586 1.252 . S
O601 Sm577 2.408 . S
O601 C586 1.272 1_556 S
O602 Sm577 2.543 . S
O602 C587 1.261 . S
O603 Sm577 2.450 . S
O603 C587 1.242 . S
O604 Sm576 2.386 . S
O604 Sm577 2.681 1_554 S
O604 C594 1.271 . S
O605 Sm577 2.464 . S
O605 C594 1.251 1_556 S
O606 Sm577 2.396 . S
O606 C595 1.252 1_556 S
O607 Sm576 2.408 . S
O607 C595 1.272 . S
H608 C580 0.930 . S
H609 C581 0.929 . S
H610 C583 0.930 . S
H611 C584 0.929 . S
H612 C589 0.930 . S
H613 C590 0.929 . S
H614 C592 0.930 . S
H615 C593 0.929 . S
Sm616 C618 2.846 . S
Sm616 O636 2.543 . S
Sm616 O637 2.450 . S
Sm616 O638 2.681 . S
Sm616 O639 2.464 . S
Sm616 O640 2.396 . S
Sm616 O644 2.386 . S
Sm616 O647 2.408 . S
Sm617 C627 2.846 . S
Sm617 O638 2.386 . S
Sm617 O641 2.408 . S
Sm617 O642 2.543 . S
Sm617 O643 2.450 . S
Sm617 O644 2.681 . S
Sm617 O645 2.464 . S
Sm617 O646 2.396 . S
C618 Sm616 2.846 . S
C618 C619 1.506 . S
C618 O636 1.261 . S
C618 O637 1.242 . S
C619 C618 1.506 . S
C619 C620 1.358 . S
C619 C624 1.382 . S
C620 C619 1.358 . S
C620 C621 1.385 . S
C620 H648 0.930 . S
C621 C620 1.385 . S
C621 C622 1.395 . S
C621 H649 0.929 . S
C622 C621 1.395 . S
C622 C623 1.335 . S
C623 C622 1.335 . S
C623 C624 1.398 . S
C623 H650 0.930 . S
C624 C619 1.382 . S
C624 C623 1.398 . S
C624 H651 0.929 . S
C625 O638 1.271 . S
C625 O639 1.251 . S
C626 O640 1.252 . S
C626 O641 1.272 . S
C627 Sm617 2.846 . S
C627 C628 1.506 . S
C627 O642 1.261 . S
C627 O643 1.242 . S
C628 C627 1.506 . S
C628 C629 1.358 . S
C628 C633 1.382 . S
C629 C628 1.358 . S
C629 C630 1.385 . S
C629 H652 0.930 . S
C630 C629 1.385 . S
C630 C631 1.395 . S
C630 H653 0.929 . S
C631 C630 1.395 . S
C631 C632 1.335 . S
C632 C631 1.335 . S
C632 C633 1.398 . S
C632 H654 0.930 . S
C633 C628 1.382 . S
C633 C632 1.398 . S
C633 H655 0.929 . S
C634 O644 1.271 . S
C634 O645 1.251 . S
C635 O646 1.252 . S
C635 O647 1.272 . S
O636 Sm616 2.543 . S
O636 C618 1.261 . S
O637 Sm616 2.450 . S
O637 C618 1.242 . S
O638 Sm616 2.681 . S
O638 Sm617 2.386 . S
O638 C625 1.271 . S
O639 Sm616 2.464 . S
O639 C625 1.251 . S
O640 Sm616 2.396 . S
O640 C626 1.252 . S
O641 Sm617 2.408 . S
O641 C626 1.272 . S
O642 Sm617 2.543 . S
O642 C627 1.261 . S
O643 Sm617 2.450 . S
O643 C627 1.242 . S
O644 Sm616 2.386 . S
O644 Sm617 2.681 . S
O644 C634 1.271 . S
O645 Sm617 2.464 . S
O645 C634 1.251 . S
O646 Sm617 2.396 . S
O646 C635 1.252 . S
O647 Sm616 2.408 . S
O647 C635 1.272 . S
H648 C620 0.930 . S
H649 C621 0.929 . S
H650 C623 0.930 . S
H651 C624 0.929 . S
H652 C629 0.930 . S
H653 C630 0.929 . S
H654 C632 0.930 . S
H655 C633 0.929 . S
Sm656 C658 2.846 1_554 S
Sm656 O676 2.543 1_554 S
Sm656 O677 2.450 . S
Sm656 O678 2.681 . S
Sm656 O679 2.464 . S
Sm656 O680 2.396 1_554 S
Sm656 O684 2.386 . S
Sm656 O687 2.408 . S
Sm657 C667 2.846 1_556 S
Sm657 O678 2.386 1_556 S
Sm657 O681 2.408 . S
Sm657 O682 2.543 1_556 S
Sm657 O683 2.450 1_556 S
Sm657 O684 2.681 1_556 S
Sm657 O685 2.464 . S
Sm657 O686 2.396 1_556 S
C658 Sm656 2.846 1_556 S
C658 C659 1.506 . S
C658 O676 1.261 . S
C658 O677 1.242 1_556 S
C659 C658 1.506 . S
C659 C660 1.358 . S
C659 C664 1.382 . S
C660 C659 1.358 . S
C660 C661 1.385 . S
C660 H688 0.930 . S
C661 C660 1.385 . S
C661 C662 1.395 . S
C661 H689 0.929 . S
C662 C661 1.395 . S
C662 C663 1.335 . S
C663 C662 1.335 . S
C663 C664 1.398 . S
C663 H690 0.930 . S
C664 C659 1.382 . S
C664 C663 1.398 . S
C664 H691 0.929 . S
C665 O678 1.271 . S
C665 O679 1.251 . S
C666 O680 1.252 . S
C666 O681 1.272 . S
C667 Sm657 2.846 1_554 S
C667 C668 1.506 . S
C667 O682 1.261 . S
C667 O683 1.242 . S
C668 C667 1.506 . S
C668 C669 1.358 . S
C668 C673 1.382 . S
C669 C668 1.358 . S
C669 C670 1.385 . S
C669 H692 0.930 . S
C670 C669 1.385 . S
C670 C671 1.395 . S
C670 H693 0.929 . S
C671 C670 1.395 . S
C671 C672 1.335 . S
C672 C671 1.335 . S
C672 C673 1.398 . S
C672 H694 0.930 . S
C673 C668 1.382 . S
C673 C672 1.398 . S
C673 H695 0.929 . S
C674 O684 1.271 . S
C674 O685 1.251 1_554 S
C675 O686 1.252 . S
C675 O687 1.272 . S
O676 Sm656 2.543 1_556 S
O676 C658 1.261 . S
O677 Sm656 2.450 . S
O677 C658 1.242 1_554 S
O678 Sm656 2.681 . S
O678 Sm657 2.386 1_554 S
O678 C665 1.271 . S
O679 Sm656 2.464 . S
O679 C665 1.251 . S
O680 Sm656 2.396 1_556 S
O680 C666 1.252 . S
O681 Sm657 2.408 . S
O681 C666 1.272 . S
O682 Sm657 2.543 1_554 S
O682 C667 1.261 . S
O683 Sm657 2.450 1_554 S
O683 C667 1.242 . S
O684 Sm656 2.386 . S
O684 Sm657 2.681 1_554 S
O684 C674 1.271 . S
O685 Sm657 2.464 . S
O685 C674 1.251 1_556 S
O686 Sm657 2.396 1_554 S
O686 C675 1.252 . S
O687 Sm656 2.408 . S
O687 C675 1.272 . S
H688 C660 0.930 . S
H689 C661 0.929 . S
H690 C663 0.930 . S
H691 C664 0.929 . S
H692 C669 0.930 . S
H693 C670 0.929 . S
H694 C672 0.930 . S
H695 C673 0.929 . S
Sm696 C698 2.846 . S
Sm696 O716 2.543 . S
Sm696 O717 2.450 . S
Sm696 O718 2.681 . S
Sm696 O719 2.464 . S
Sm696 O720 2.396 . S
Sm696 O724 2.386 . S
Sm696 O727 2.408 . S
Sm697 C707 2.846 . S
Sm697 O718 2.386 . S
Sm697 O721 2.408 . S
Sm697 O722 2.543 . S
Sm697 O723 2.450 . S
Sm697 O724 2.681 . S
Sm697 O725 2.464 . S
Sm697 O726 2.396 . S
C698 Sm696 2.846 . S
C698 C699 1.506 . S
C698 O716 1.261 . S
C698 O717 1.242 . S
C699 C698 1.506 . S
C699 C700 1.358 . S
C699 C704 1.382 . S
C700 C699 1.358 . S
C700 C701 1.385 . S
C700 H728 0.930 . S
C701 C700 1.385 . S
C701 C702 1.395 . S
C701 H729 0.929 . S
C702 C701 1.395 . S
C702 C703 1.335 . S
C703 C702 1.335 . S
C703 C704 1.398 . S
C703 H730 0.930 . S
C704 C699 1.382 . S
C704 C703 1.398 . S
C704 H731 0.929 . S
C705 O718 1.271 . S
C705 O719 1.251 . S
C706 O720 1.252 . S
C706 O721 1.272 . S
C707 Sm697 2.846 . S
C707 C708 1.506 . S
C707 O722 1.261 . S
C707 O723 1.242 . S
C708 C707 1.506 . S
C708 C709 1.358 . S
C708 C713 1.382 . S
C709 C708 1.358 . S
C709 C710 1.385 . S
C709 H732 0.930 . S
C710 C709 1.385 . S
C710 C711 1.395 . S
C710 H733 0.929 . S
C711 C710 1.395 . S
C711 C712 1.335 . S
C712 C711 1.335 . S
C712 C713 1.398 . S
C712 H734 0.930 . S
C713 C708 1.382 . S
C713 C712 1.398 . S
C713 H735 0.929 . S
C714 O724 1.271 . S
C714 O725 1.251 . S
C715 O726 1.252 . S
C715 O727 1.272 . S
O716 Sm696 2.543 . S
O716 C698 1.261 . S
O717 Sm696 2.450 . S
O717 C698 1.242 . S
O718 Sm696 2.681 . S
O718 Sm697 2.386 . S
O718 C705 1.271 . S
O719 Sm696 2.464 . S
O719 C705 1.251 . S
O720 Sm696 2.396 . S
O720 C706 1.252 . S
O721 Sm697 2.408 . S
O721 C706 1.272 . S
O722 Sm697 2.543 . S
O722 C707 1.261 . S
O723 Sm697 2.450 . S
O723 C707 1.242 . S
O724 Sm696 2.386 . S
O724 Sm697 2.681 . S
O724 C714 1.271 . S
O725 Sm697 2.464 . S
O725 C714 1.251 . S
O726 Sm697 2.396 . S
O726 C715 1.252 . S
O727 Sm696 2.408 . S
O727 C715 1.272 . S
H728 C700 0.930 . S
H729 C701 0.929 . S
H730 C703 0.930 . S
H731 C704 0.929 . S
H732 C709 0.930 . S
H733 C710 0.929 . S
H734 C712 0.930 . S
H735 C713 0.929 . S
Sm736 C738 2.846 . S
Sm736 O756 2.543 . S
Sm736 O757 2.450 . S
Sm736 O758 2.681 . S
Sm736 O759 2.464 . S
Sm736 O760 2.396 . S
Sm736 O764 2.386 . S
Sm736 O767 2.408 . S
Sm737 C747 2.846 . S
Sm737 O758 2.386 . S
Sm737 O761 2.408 . S
Sm737 O762 2.543 . S
Sm737 O763 2.450 . S
Sm737 O764 2.681 . S
Sm737 O765 2.464 . S
Sm737 O766 2.396 . S
C738 Sm736 2.846 . S
C738 C739 1.506 . S
C738 O756 1.261 . S
C738 O757 1.242 . S
C739 C738 1.506 . S
C739 C740 1.358 1_455 S
C739 C744 1.382 . S
C740 C739 1.358 1_655 S
C740 C741 1.385 . S
C740 H768 0.930 . S
C741 C740 1.385 . S
C741 C742 1.395 . S
C741 H769 0.929 . S
C742 C741 1.395 . S
C742 C743 1.308 1_655 S
C743 C742 1.308 1_455 S
C743 C744 1.415 . S
C743 H770 0.940 . S
C744 C739 1.382 . S
C744 C743 1.415 . S
C744 H771 0.929 . S
C745 O758 1.271 . S
C745 O759 1.251 . S
C746 O760 1.232 1_655 S
C746 O761 1.267 1_655 S
C747 Sm737 2.846 . S
C747 C748 1.506 . S
C747 O762 1.261 . S
C747 O763 1.242 . S
C748 C747 1.506 . S
C748 C749 1.358 . S
C748 C753 1.382 . S
C749 C748 1.358 . S
C749 C750 1.385 . S
C749 H772 0.930 . S
C750 C749 1.385 . S
C750 C751 1.395 . S
C750 H773 0.929 . S
C751 C750 1.395 . S
C751 C752 1.335 . S
C752 C751 1.335 . S
C752 C753 1.398 . S
C752 H774 0.930 . S
C753 C748 1.382 . S
C753 C752 1.398 . S
C753 H775 0.929 . S
C754 O764 1.271 . S
C754 O765 1.251 . S
C755 O766 1.252 . S
C755 O767 1.272 . S
O756 Sm736 2.543 . S
O756 C738 1.261 . S
O757 Sm736 2.450 . S
O757 C738 1.242 . S
O758 Sm736 2.681 . S
O758 Sm737 2.386 . S
O758 C745 1.271 . S
O759 Sm736 2.464 . S
O759 C745 1.251 . S
O760 Sm736 2.396 . S
O760 C746 1.232 1_455 S
O761 Sm737 2.408 . S
O761 C746 1.267 1_455 S
O762 Sm737 2.543 . S
O762 C747 1.261 . S
O763 Sm737 2.450 . S
O763 C747 1.242 . S
O764 Sm736 2.386 . S
O764 Sm737 2.681 . S
O764 C754 1.271 . S
O765 Sm737 2.464 . S
O765 C754 1.251 . S
O766 Sm737 2.396 . S
O766 C755 1.252 . S
O767 Sm736 2.408 . S
O767 C755 1.272 . S
H768 C740 0.930 . S
H769 C741 0.929 . S
H770 C743 0.940 . S
H771 C744 0.929 . S
H772 C749 0.930 . S
H773 C750 0.929 . S
H774 C752 0.930 . S
H775 C753 0.929 . S
Sm776 C778 2.846 . S
Sm776 O796 2.543 . S
Sm776 O797 2.450 . S
Sm776 O798 2.681 . S
Sm776 O799 2.464 . S
Sm776 O800 2.396 . S
Sm776 O804 2.386 . S
Sm776 O807 2.408 . S
Sm777 C787 2.846 . S
Sm777 O798 2.386 . S
Sm777 O801 2.408 . S
Sm777 O802 2.543 . S
Sm777 O803 2.450 . S
Sm777 O804 2.681 . S
Sm777 O805 2.464 . S
Sm777 O806 2.396 . S
C778 Sm776 2.846 . S
C778 C779 1.506 . S
C778 O796 1.261 . S
C778 O797 1.242 . S
C779 C778 1.506 . S
C779 C780 1.358 . S
C779 C784 1.382 . S
C780 C779 1.358 . S
C780 C781 1.385 . S
C780 H808 0.930 . S
C781 C780 1.385 . S
C781 C782 1.395 . S
C781 H809 0.929 . S
C782 C781 1.395 . S
C782 C783 1.335 . S
C783 C782 1.335 . S
C783 C784 1.398 . S
C783 H810 0.930 . S
C784 C779 1.382 . S
C784 C783 1.398 . S
C784 H811 0.929 . S
C785 O798 1.271 . S
C785 O799 1.251 . S
C786 O800 1.252 . S
C786 O801 1.272 . S
C787 Sm777 2.846 . S
C787 C788 1.506 . S
C787 O802 1.261 . S
C787 O803 1.242 . S
C788 C787 1.506 . S
C788 C789 1.358 . S
C788 C793 1.382 . S
C789 C788 1.358 . S
C789 C790 1.385 . S
C789 H812 0.930 . S
C790 C789 1.385 . S
C790 C791 1.395 . S
C790 H813 0.929 . S
C791 C790 1.395 . S
C791 C792 1.335 . S
C792 C791 1.335 . S
C792 C793 1.398 . S
C792 H814 0.930 . S
C793 C788 1.382 . S
C793 C792 1.398 . S
C793 H815 0.929 . S
C794 O804 1.271 . S
C794 O805 1.251 . S
C795 O806 1.252 . S
C795 O807 1.272 . S
O796 Sm776 2.543 . S
O796 C778 1.261 . S
O797 Sm776 2.450 . S
O797 C778 1.242 . S
O798 Sm776 2.681 . S
O798 Sm777 2.386 . S
O798 C785 1.271 . S
O799 Sm776 2.464 . S
O799 C785 1.251 . S
O800 Sm776 2.396 . S
O800 C786 1.252 . S
O801 Sm777 2.408 . S
O801 C786 1.272 . S
O802 Sm777 2.543 . S
O802 C787 1.261 . S
O803 Sm777 2.450 . S
O803 C787 1.242 . S
O804 Sm776 2.386 . S
O804 Sm777 2.681 . S
O804 C794 1.271 . S
O805 Sm777 2.464 . S
O805 C794 1.251 . S
O806 Sm777 2.396 . S
O806 C795 1.252 . S
O807 Sm776 2.408 . S
O807 C795 1.272 . S
H808 C780 0.930 . S
H809 C781 0.929 . S
H810 C783 0.930 . S
H811 C784 0.929 . S
H812 C789 0.930 . S
H813 C790 0.929 . S
H814 C792 0.930 . S
H815 C793 0.929 . S
Sm816 C818 2.846 . S
Sm816 O836 2.543 . S
Sm816 O837 2.450 . S
Sm816 O838 2.681 . S
Sm816 O839 2.464 . S
Sm816 O840 2.396 . S
Sm816 O844 2.386 . S
Sm816 O847 2.408 . S
Sm817 C827 2.846 . S
Sm817 O838 2.386 . S
Sm817 O841 2.408 . S
Sm817 O842 2.543 . S
Sm817 O843 2.450 . S
Sm817 O844 2.681 . S
Sm817 O845 2.464 . S
Sm817 O846 2.396 . S
C818 Sm816 2.846 . S
C818 C819 1.506 . S
C818 O836 1.261 . S
C818 O837 1.242 . S
C819 C818 1.506 . S
C819 C820 1.358 . S
C819 C824 1.382 . S
C820 C819 1.358 . S
C820 C821 1.385 . S
C820 H848 0.930 . S
C821 C820 1.385 . S
C821 C822 1.395 . S
C821 H849 0.929 . S
C822 C821 1.395 . S
C822 C823 1.335 . S
C823 C822 1.335 . S
C823 C824 1.398 . S
C823 H850 0.930 . S
C824 C819 1.382 . S
C824 C823 1.398 . S
C824 H851 0.929 . S
C825 O838 1.271 . S
C825 O839 1.251 . S
C826 O840 1.252 . S
C826 O841 1.272 . S
C827 Sm817 2.846 . S
C827 C828 1.506 . S
C827 O842 1.261 . S
C827 O843 1.242 . S
C828 C827 1.506 . S
C828 C829 1.358 . S
C828 C833 1.382 . S
C829 C828 1.358 . S
C829 C830 1.385 . S
C829 H852 0.930 . S
C830 C829 1.385 . S
C830 C831 1.395 . S
C830 H853 0.929 . S
C831 C830 1.395 . S
C831 C832 1.335 . S
C832 C831 1.335 . S
C832 C833 1.398 . S
C832 H854 0.930 . S
C833 C828 1.382 . S
C833 C832 1.398 . S
C833 H855 0.929 . S
C834 O844 1.271 . S
C834 O845 1.251 . S
C835 O846 1.252 . S
C835 O847 1.272 . S
O836 Sm816 2.543 . S
O836 C818 1.261 . S
O837 Sm816 2.450 . S
O837 C818 1.242 . S
O838 Sm816 2.681 . S
O838 Sm817 2.386 . S
O838 C825 1.271 . S
O839 Sm816 2.464 . S
O839 C825 1.251 . S
O840 Sm816 2.396 . S
O840 C826 1.252 . S
O841 Sm817 2.408 . S
O841 C826 1.272 . S
O842 Sm817 2.543 . S
O842 C827 1.261 . S
O843 Sm817 2.450 . S
O843 C827 1.242 . S
O844 Sm816 2.386 . S
O844 Sm817 2.681 . S
O844 C834 1.271 . S
O845 Sm817 2.464 . S
O845 C834 1.251 . S
O846 Sm817 2.396 . S
O846 C835 1.252 . S
O847 Sm816 2.408 . S
O847 C835 1.272 . S
H848 C820 0.930 . S
H849 C821 0.929 . S
H850 C823 0.930 . S
H851 C824 0.929 . S
H852 C829 0.930 . S
H853 C830 0.929 . S
H854 C832 0.930 . S
H855 C833 0.929 . S
Sm856 C858 2.846 . S
Sm856 O876 2.543 . S
Sm856 O877 2.450 . S
Sm856 O878 2.681 . S
Sm856 O879 2.464 . S
Sm856 O880 2.396 . S
Sm856 O884 2.386 . S
Sm856 O887 2.408 . S
Sm857 C867 2.846 . S
Sm857 O878 2.386 . S
Sm857 O881 2.408 . S
Sm857 O882 2.543 . S
Sm857 O883 2.450 . S
Sm857 O884 2.681 . S
Sm857 O885 2.464 . S
Sm857 O886 2.396 . S
C858 Sm856 2.846 . S
C858 C859 1.506 . S
C858 O876 1.261 . S
C858 O877 1.242 . S
C859 C858 1.506 . S
C859 C860 1.358 . S
C859 C864 1.382 . S
C860 C859 1.358 . S
C860 C861 1.385 . S
C860 H888 0.930 . S
C861 C860 1.385 . S
C861 C862 1.395 . S
C861 H889 0.929 . S
C862 C861 1.395 . S
C862 C863 1.335 . S
C863 C862 1.335 . S
C863 C864 1.398 . S
C863 H890 0.930 . S
C864 C859 1.382 . S
C864 C863 1.398 . S
C864 H891 0.929 . S
C865 O878 1.271 . S
C865 O879 1.251 . S
C866 O880 1.252 . S
C866 O881 1.272 . S
C867 Sm857 2.846 . S
C867 C868 1.506 . S
C867 O882 1.261 . S
C867 O883 1.242 . S
C868 C867 1.506 . S
C868 C869 1.358 . S
C868 C873 1.382 . S
C869 C868 1.358 . S
C869 C870 1.385 . S
C869 H892 0.930 . S
C870 C869 1.385 . S
C870 C871 1.395 . S
C870 H893 0.929 . S
C871 C870 1.395 . S
C871 C872 1.335 . S
C872 C871 1.335 . S
C872 C873 1.398 . S
C872 H894 0.930 . S
C873 C868 1.382 . S
C873 C872 1.398 . S
C873 H895 0.929 . S
C874 O884 1.271 . S
C874 O885 1.251 . S
C875 O886 1.252 . S
C875 O887 1.272 . S
O876 Sm856 2.543 . S
O876 C858 1.261 . S
O877 Sm856 2.450 . S
O877 C858 1.242 . S
O878 Sm856 2.681 . S
O878 Sm857 2.386 . S
O878 C865 1.271 . S
O879 Sm856 2.464 . S
O879 C865 1.251 . S
O880 Sm856 2.396 . S
O880 C866 1.252 . S
O881 Sm857 2.408 . S
O881 C866 1.272 . S
O882 Sm857 2.543 . S
O882 C867 1.261 . S
O883 Sm857 2.450 . S
O883 C867 1.242 . S
O884 Sm856 2.386 . S
O884 Sm857 2.681 . S
O884 C874 1.271 . S
O885 Sm857 2.464 . S
O885 C874 1.251 . S
O886 Sm857 2.396 . S
O886 C875 1.252 . S
O887 Sm856 2.408 . S
O887 C875 1.272 . S
H888 C860 0.930 . S
H889 C861 0.929 . S
H890 C863 0.930 . S
H891 C864 0.929 . S
H892 C869 0.930 . S
H893 C870 0.929 . S
H894 C872 0.930 . S
H895 C873 0.929 . S
Sm896 C898 2.846 . S
Sm896 O916 2.543 . S
Sm896 O917 2.450 . S
Sm896 O918 2.681 . S
Sm896 O919 2.464 . S
Sm896 O920 2.396 . S
Sm896 O924 2.386 . S
Sm896 O927 2.408 . S
Sm897 C907 2.846 . S
Sm897 O918 2.386 . S
Sm897 O921 2.408 . S
Sm897 O922 2.543 . S
Sm897 O923 2.450 . S
Sm897 O924 2.681 . S
Sm897 O925 2.464 . S
Sm897 O926 2.396 . S
C898 Sm896 2.846 . S
C898 C899 1.506 . S
C898 O916 1.261 . S
C898 O917 1.242 . S
C899 C898 1.506 . S
C899 C900 1.358 . S
C899 C904 1.382 . S
C900 C899 1.358 . S
C900 C901 1.385 . S
C900 H928 0.930 . S
C901 C900 1.385 . S
C901 C902 1.395 . S
C901 H929 0.929 . S
C902 C901 1.395 . S
C902 C903 1.335 . S
C903 C902 1.335 . S
C903 C904 1.398 . S
C903 H930 0.930 . S
C904 C899 1.382 . S
C904 C903 1.398 . S
C904 H931 0.929 . S
C905 O918 1.271 . S
C905 O919 1.251 . S
C906 O920 1.252 . S
C906 O921 1.272 . S
C907 Sm897 2.846 . S
C907 C908 1.506 . S
C907 O922 1.261 . S
C907 O923 1.242 . S
C908 C907 1.506 . S
C908 C909 1.358 . S
C908 C913 1.382 . S
C909 C908 1.358 . S
C909 C910 1.385 . S
C909 H932 0.930 . S
C910 C909 1.385 . S
C910 C911 1.395 . S
C910 H933 0.929 . S
C911 C910 1.395 . S
C911 C912 1.335 . S
C912 C911 1.335 . S
C912 C913 1.398 . S
C912 H934 0.930 . S
C913 C908 1.382 . S
C913 C912 1.398 . S
C913 H935 0.929 . S
C914 O924 1.271 . S
C914 O925 1.251 . S
C915 O926 1.252 . S
C915 O927 1.272 . S
O916 Sm896 2.543 . S
O916 C898 1.261 . S
O917 Sm896 2.450 . S
O917 C898 1.242 . S
O918 Sm896 2.681 . S
O918 Sm897 2.386 . S
O918 C905 1.271 . S
O919 Sm896 2.464 . S
O919 C905 1.251 . S
O920 Sm896 2.396 . S
O920 C906 1.252 . S
O921 Sm897 2.408 . S
O921 C906 1.272 . S
O922 Sm897 2.543 . S
O922 C907 1.261 . S
O923 Sm897 2.450 . S
O923 C907 1.242 . S
O924 Sm896 2.386 . S
O924 Sm897 2.681 . S
O924 C914 1.271 . S
O925 Sm897 2.464 . S
O925 C914 1.251 . S
O926 Sm897 2.396 . S
O926 C915 1.252 . S
O927 Sm896 2.408 . S
O927 C915 1.272 . S
H928 C900 0.930 . S
H929 C901 0.929 . S
H930 C903 0.930 . S
H931 C904 0.929 . S
H932 C909 0.930 . S
H933 C910 0.929 . S
H934 C912 0.930 . S
H935 C913 0.929 . S
Sm936 C938 2.846 1_554 S
Sm936 O956 2.543 . S
Sm936 O957 2.450 1_554 S
Sm936 O958 2.681 1_554 S
Sm936 O959 2.464 1_554 S
Sm936 O960 2.396 1_554 S
Sm936 O964 2.386 . S
Sm936 O967 2.408 . S
Sm937 C947 2.846 1_455 S
Sm937 O958 2.386 1_554 S
Sm937 O961 2.408 . S
Sm937 O962 2.543 1_455 S
Sm937 O963 2.450 1_455 S
Sm937 O964 2.681 . S
Sm937 O965 2.464 . S
Sm937 O966 2.396 . S
C938 Sm936 2.846 1_556 S
C938 C939 1.506 . S
C938 O956 1.261 1_556 S
C938 O957 1.242 . S
C939 C938 1.506 . S
C939 C940 1.358 1_556 S
C939 C944 1.382 . S
C940 C939 1.358 1_554 S
C940 C941 1.385 . S
C940 H968 0.930 . S
C941 C940 1.385 . S
C941 C942 1.395 1_554 S
C941 H969 0.929 . S
C942 C941 1.395 1_556 S
C942 C943 1.335 . S
C943 C942 1.335 . S
C943 C944 1.398 . S
C943 H970 0.930 . S
C944 C939 1.382 . S
C944 C943 1.398 . S
C944 H971 0.929 . S
C945 O958 1.271 . S
C945 O959 1.251 . S
C946 O960 1.252 1_554 S
C946 O961 1.272 . S
C947 Sm937 2.846 1_655 S
C947 C948 1.506 . S
C947 O962 1.261 . S
C947 O963 1.242 . S
C948 C947 1.506 . S
C948 C949 1.358 . S
C948 C953 1.382 . S
C949 C948 1.358 . S
C949 C950 1.385 . S
C949 H972 0.930 . S
C950 C949 1.385 . S
C950 C951 1.395 . S
C950 H973 0.929 . S
C951 C950 1.395 . S
C951 C952 1.335 . S
C952 C951 1.335 . S
C952 C953 1.398 . S
C952 H974 0.930 . S
C953 C948 1.382 . S
C953 C952 1.398 . S
C953 H975 0.929 . S
C954 O964 1.271 . S
C954 O965 1.251 . S
C955 O966 1.252 . S
C955 O967 1.272 . S
O956 Sm936 2.543 . S
O956 C938 1.261 1_554 S
O957 Sm936 2.450 1_556 S
O957 C938 1.242 . S
O958 Sm936 2.681 1_556 S
O958 Sm937 2.386 1_556 S
O958 C945 1.271 . S
O959 Sm936 2.464 1_556 S
O959 C945 1.251 . S
O960 Sm936 2.396 1_556 S
O960 C946 1.252 1_556 S
O961 Sm937 2.408 . S
O961 C946 1.272 . S
O962 Sm937 2.543 1_655 S
O962 C947 1.261 . S
O963 Sm937 2.450 1_655 S
O963 C947 1.242 . S
O964 Sm936 2.386 . S
O964 Sm937 2.681 . S
O964 C954 1.271 . S
O965 Sm937 2.464 . S
O965 C954 1.251 . S
O966 Sm937 2.396 . S
O966 C955 1.252 . S
O967 Sm936 2.408 . S
O967 C955 1.272 . S
H968 C940 0.930 . S
H969 C941 0.929 . S
H970 C943 0.930 . S
H971 C944 0.929 . S
H972 C949 0.930 . S
H973 C950 0.929 . S
H974 C952 0.930 . S
H975 C953 0.929 . S
C976 C977 1.391 . S
C976 C978 1.394 . S
C976 H992 0.931 . S
C977 C976 1.391 . S
C977 C981 1.380 . S
C978 C976 1.394 . S
C978 C979 1.369 . S
C978 C982 1.531 . S
C979 C978 1.369 . S
C979 C980 1.410 . S
C979 C987 1.503 . S
C980 C979 1.410 . S
C980 C981 1.395 . S
C980 C983 1.511 1_455 S
C981 C977 1.380 . S
C981 C980 1.395 . S
C981 H993 0.921 1_455 S
C982 C978 1.531 . S
C982 H994 0.960 1_556 S
C982 H995 0.962 . S
C982 H996 0.960 1_556 S
C983 C980 1.511 1_655 S
C983 H997 0.961 . S
C983 H998 0.961 . S
C983 H999 0.961 . S
C984 C985 1.370 . S
C984 C986 1.363 . S
C984 H1000 0.931 . S
C985 C984 1.370 . S
C985 C989 1.409 1_556 S
C986 C984 1.363 . S
C986 C987 1.370 . S
C986 C990 1.524 . S
C987 C979 1.503 . S
C987 C986 1.370 . S
C987 C988 1.403 1_556 S
C988 C987 1.403 1_554 S
C988 C989 1.404 . S
C988 C991 1.539 . S
C989 C985 1.409 1_554 S
C989 C988 1.404 . S
C989 H1001 0.930 . S
C990 C986 1.524 . S
C990 H1002 0.956 . S
C990 H1003 0.961 . S
C990 H1004 0.961 . S
C991 C988 1.539 . S
C991 H1005 0.958 . S
C991 H1006 0.961 . S
C991 H1007 0.960 . S
H992 C976 0.931 . S
H993 C981 0.921 1_655 S
H994 C982 0.960 1_554 S
H995 C982 0.962 . S
H996 C982 0.960 1_554 S
H997 C983 0.961 . S
H998 C983 0.961 . S
H999 C983 0.961 . S
H1000 C984 0.931 . S
H1001 C989 0.930 . S
H1002 C990 0.956 . S
H1003 C990 0.961 . S
H1004 C990 0.961 . S
H1005 C991 0.958 . S
H1006 C991 0.961 . S
H1007 C991 0.960 . S
C1008 C1009 1.391 . S
C1008 C1010 1.394 . S
C1008 H1024 0.931 . S
C1009 C1008 1.391 . S
C1009 C1013 1.376 . S
C1010 C1008 1.394 . S
C1010 C1011 1.369 . S
C1010 C1014 1.531 . S
C1011 C1010 1.369 . S
C1011 C1012 1.410 . S
C1011 C1019 1.503 . S
C1012 C1011 1.410 . S
C1012 C1013 1.392 . S
C1012 C1015 1.511 . S
C1013 C1009 1.376 . S
C1013 C1012 1.392 . S
C1013 H1025 0.929 . S
C1014 C1010 1.531 . S
C1014 H1026 0.960 . S
C1014 H1027 0.962 . S
C1014 H1028 0.960 . S
C1015 C1012 1.511 . S
C1015 H1029 0.961 . S
C1015 H1030 0.961 . S
C1015 H1031 0.961 . S
C1016 C1017 1.370 . S
C1016 C1018 1.363 . S
C1016 H1032 0.931 . S
C1017 C1016 1.370 . S
C1017 C1021 1.408 . S
C1018 C1016 1.363 . S
C1018 C1019 1.370 . S
C1018 C1022 1.524 . S
C1019 C1011 1.503 . S
C1019 C1018 1.370 . S
C1019 C1020 1.403 . S
C1020 C1019 1.403 . S
C1020 C1021 1.404 . S
C1020 C1023 1.539 . S
C1021 C1017 1.408 . S
C1021 C1020 1.404 . S
C1021 H1033 0.930 . S
C1022 C1018 1.524 . S
C1022 H1034 0.956 . S
C1022 H1035 0.961 . S
C1022 H1036 0.961 . S
C1023 C1020 1.539 . S
C1023 H1037 0.958 . S
C1023 H1038 0.961 . S
C1023 H1039 0.960 . S
H1024 C1008 0.931 . S
H1025 C1013 0.929 . S
H1026 C1014 0.960 . S
H1027 C1014 0.962 . S
H1028 C1014 0.960 . S
H1029 C1015 0.961 . S
H1030 C1015 0.961 . S
H1031 C1015 0.961 . S
H1032 C1016 0.931 . S
H1033 C1021 0.930 . S
H1034 C1022 0.956 . S
H1035 C1022 0.961 . S
H1036 C1022 0.961 . S
H1037 C1023 0.958 . S
H1038 C1023 0.961 . S
H1039 C1023 0.960 . S
C1040 C1041 1.391 . S
C1040 C1042 1.394 . S
C1040 H1056 0.931 . S
C1041 C1040 1.391 . S
C1041 C1045 1.376 . S
C1042 C1040 1.394 . S
C1042 C1043 1.369 . S
C1042 C1046 1.531 . S
C1043 C1042 1.369 . S
C1043 C1044 1.410 . S
C1043 C1051 1.503 . S
C1044 C1043 1.410 . S
C1044 C1045 1.392 . S
C1044 C1047 1.511 . S
C1045 C1041 1.376 . S
C1045 C1044 1.392 . S
C1045 H1057 0.929 . S
C1046 C1042 1.531 . S
C1046 H1058 0.960 . S
C1046 H1059 0.962 . S
C1046 H1060 0.960 . S
C1047 C1044 1.511 . S
C1047 H1061 0.961 . S
C1047 H1062 0.961 . S
C1047 H1063 0.961 . S
C1048 C1049 1.370 . S
C1048 C1050 1.363 . S
C1048 H1064 0.931 . S
C1049 C1048 1.370 . S
C1049 C1053 1.408 . S
C1050 C1048 1.363 . S
C1050 C1051 1.370 . S
C1050 C1054 1.524 . S
C1051 C1043 1.503 . S
C1051 C1050 1.370 . S
C1051 C1052 1.403 . S
C1052 C1051 1.403 . S
C1052 C1053 1.404 . S
C1052 C1055 1.539 . S
C1053 C1049 1.408 . S
C1053 C1052 1.404 . S
C1053 H1065 0.930 . S
C1054 C1050 1.524 . S
C1054 H1066 0.956 . S
C1054 H1067 0.961 . S
C1054 H1068 0.961 . S
C1055 C1052 1.539 . S
C1055 H1069 0.958 . S
C1055 H1070 0.961 . S
C1055 H1071 0.960 . S
H1056 C1040 0.931 . S
H1057 C1045 0.929 . S
H1058 C1046 0.960 . S
H1059 C1046 0.962 . S
H1060 C1046 0.960 . S
H1061 C1047 0.961 . S
H1062 C1047 0.961 . S
H1063 C1047 0.961 . S
H1064 C1048 0.931 . S
H1065 C1053 0.930 . S
H1066 C1054 0.956 . S
H1067 C1054 0.961 . S
H1068 C1054 0.961 . S
H1069 C1055 0.958 . S
H1070 C1055 0.961 . S
H1071 C1055 0.960 . S
C1072 C1073 1.391 . S
C1072 C1074 1.394 . S
C1072 H1088 0.931 . S
C1073 C1072 1.391 . S
C1073 C1077 1.376 . S
C1074 C1072 1.394 . S
C1074 C1075 1.369 . S
C1074 C1078 1.531 . S
C1075 C1074 1.369 . S
C1075 C1076 1.410 . S
C1075 C1083 1.503 . S
C1076 C1075 1.410 . S
C1076 C1077 1.392 . S
C1076 C1079 1.511 . S
C1077 C1073 1.376 . S
C1077 C1076 1.392 . S
C1077 H1089 0.929 . S
C1078 C1074 1.531 . S
C1078 H1090 0.960 . S
C1078 H1091 0.962 . S
C1078 H1092 0.960 . S
C1079 C1076 1.511 . S
C1079 H1093 0.961 . S
C1079 H1094 0.961 . S
C1079 H1095 0.961 . S
C1080 C1081 1.370 . S
C1080 C1082 1.363 . S
C1080 H1096 0.931 . S
C1081 C1080 1.370 . S
C1081 C1085 1.408 . S
C1082 C1080 1.363 . S
C1082 C1083 1.370 . S
C1082 C1086 1.524 . S
C1083 C1075 1.503 . S
C1083 C1082 1.370 . S
C1083 C1084 1.403 . S
C1084 C1083 1.403 . S
C1084 C1085 1.404 . S
C1084 C1087 1.539 . S
C1085 C1081 1.408 . S
C1085 C1084 1.404 . S
C1085 H1097 0.930 . S
C1086 C1082 1.524 . S
C1086 H1098 0.956 . S
C1086 H1099 0.961 . S
C1086 H1100 0.961 . S
C1087 C1084 1.539 . S
C1087 H1101 0.958 . S
C1087 H1102 0.961 . S
C1087 H1103 0.960 . S
H1088 C1072 0.931 . S
H1089 C1077 0.929 . S
H1090 C1078 0.960 . S
H1091 C1078 0.962 . S
H1092 C1078 0.960 . S
H1093 C1079 0.961 . S
H1094 C1079 0.961 . S
H1095 C1079 0.961 . S
H1096 C1080 0.931 . S
H1097 C1085 0.930 . S
H1098 C1086 0.956 . S
H1099 C1086 0.961 . S
H1100 C1086 0.961 . S
H1101 C1087 0.958 . S
H1102 C1087 0.961 . S
H1103 C1087 0.960 . S
C1104 C1105 1.391 . S
C1104 C1106 1.394 . S
C1104 H1120 0.931 1_455 S
C1105 C1104 1.391 . S
C1105 C1109 1.376 . S
C1106 C1104 1.394 . S
C1106 C1107 1.369 . S
C1106 C1110 1.531 . S
C1107 C1106 1.369 . S
C1107 C1108 1.410 . S
C1107 C1115 1.503 . S
C1108 C1107 1.410 . S
C1108 C1109 1.392 . S
C1108 C1111 1.511 . S
C1109 C1105 1.376 . S
C1109 C1108 1.392 . S
C1109 H1121 0.929 . S
C1110 C1106 1.531 . S
C1110 H1122 0.960 . S
C1110 H1123 0.962 1_455 S
C1110 H1124 0.960 1_455 S
C1111 C1108 1.511 . S
C1111 H1125 0.961 . S
C1111 H1126 0.961 . S
C1111 H1127 0.961 . S
C1112 C1113 1.370 . S
C1112 C1114 1.363 . S
C1112 H1128 0.931 . S
C1113 C1112 1.370 . S
C1113 C1117 1.408 . S
C1114 C1112 1.363 . S
C1114 C1115 1.370 . S
C1114 C1118 1.524 . S
C1115 C1107 1.503 . S
C1115 C1114 1.370 . S
C1115 C1116 1.403 . S
C1116 C1115 1.403 . S
C1116 C1117 1.404 . S
C1116 C1119 1.539 . S
C1117 C1113 1.408 . S
C1117 C1116 1.404 . S
C1117 H1129 0.930 . S
C1118 C1114 1.524 . S
C1118 H1130 0.956 . S
C1118 H1131 0.961 . S
C1118 H1132 0.961 . S
C1119 C1116 1.539 . S
C1119 H1133 0.958 . S
C1119 H1134 0.961 . S
C1119 H1135 0.960 . S
H1120 C1104 0.931 1_655 S
H1121 C1109 0.929 . S
H1122 C1110 0.960 . S
H1123 C1110 0.962 1_655 S
H1124 C1110 0.960 1_655 S
H1125 C1111 0.961 . S
H1126 C1111 0.961 . S
H1127 C1111 0.961 . S
H1128 C1112 0.931 . S
H1129 C1117 0.930 . S
H1130 C1118 0.956 . S
H1131 C1118 0.961 . S
H1132 C1118 0.961 . S
H1133 C1119 0.958 . S
H1134 C1119 0.961 . S
H1135 C1119 0.960 . S
C1136 C1137 1.391 . S
C1136 C1138 1.394 . S
C1136 H1152 0.931 . S
C1137 C1136 1.391 . S
C1137 C1141 1.376 . S
C1138 C1136 1.394 . S
C1138 C1139 1.369 . S
C1138 C1142 1.531 . S
C1139 C1138 1.369 . S
C1139 C1140 1.410 . S
C1139 C1147 1.503 . S
C1140 C1139 1.410 . S
C1140 C1141 1.392 . S
C1140 C1143 1.511 . S
C1141 C1137 1.376 . S
C1141 C1140 1.392 . S
C1141 H1153 0.929 . S
C1142 C1138 1.531 . S
C1142 H1154 0.960 . S
C1142 H1155 0.962 . S
C1142 H1156 0.960 . S
C1143 C1140 1.511 . S
C1143 H1157 0.961 . S
C1143 H1158 0.961 . S
C1143 H1159 0.961 . S
C1144 C1145 1.370 . S
C1144 C1146 1.363 . S
C1144 H1160 0.931 . S
C1145 C1144 1.370 . S
C1145 C1149 1.408 . S
C1146 C1144 1.363 . S
C1146 C1147 1.370 . S
C1146 C1150 1.524 . S
C1147 C1139 1.503 . S
C1147 C1146 1.370 . S
C1147 C1148 1.403 . S
C1148 C1147 1.403 . S
C1148 C1149 1.404 . S
C1148 C1151 1.539 . S
C1149 C1145 1.408 . S
C1149 C1148 1.404 . S
C1149 H1161 0.930 . S
C1150 C1146 1.524 . S
C1150 H1162 0.956 . S
C1150 H1163 0.961 . S
C1150 H1164 0.961 . S
C1151 C1148 1.539 . S
C1151 H1165 0.958 . S
C1151 H1166 0.961 . S
C1151 H1167 0.960 . S
H1152 C1136 0.931 . S
H1153 C1141 0.929 . S
H1154 C1142 0.960 . S
H1155 C1142 0.962 . S
H1156 C1142 0.960 . S
H1157 C1143 0.961 . S
H1158 C1143 0.961 . S
H1159 C1143 0.961 . S
H1160 C1144 0.931 . S
H1161 C1149 0.930 . S
H1162 C1150 0.956 . S
H1163 C1150 0.961 . S
H1164 C1150 0.961 . S
H1165 C1151 0.958 . S
H1166 C1151 0.961 . S
H1167 C1151 0.960 . S
C1168 C1169 1.391 . S
C1168 C1170 1.394 . S
C1168 H1184 0.931 . S
C1169 C1168 1.391 . S
C1169 C1173 1.376 . S
C1170 C1168 1.394 . S
C1170 C1171 1.369 . S
C1170 C1174 1.531 . S
C1171 C1170 1.369 . S
C1171 C1172 1.410 . S
C1171 C1179 1.503 . S
C1172 C1171 1.410 . S
C1172 C1173 1.392 . S
C1172 C1175 1.511 . S
C1173 C1169 1.376 . S
C1173 C1172 1.392 . S
C1173 H1185 0.929 . S
C1174 C1170 1.531 . S
C1174 H1186 0.960 . S
C1174 H1187 0.962 . S
C1174 H1188 0.960 . S
C1175 C1172 1.511 . S
C1175 H1189 0.961 . S
C1175 H1190 0.961 . S
C1175 H1191 0.961 . S
C1176 C1177 1.370 . S
C1176 C1178 1.363 . S
C1176 H1192 0.931 . S
C1177 C1176 1.370 . S
C1177 C1181 1.408 . S
C1178 C1176 1.363 . S
C1178 C1179 1.370 . S
C1178 C1182 1.524 . S
C1179 C1171 1.503 . S
C1179 C1178 1.370 . S
C1179 C1180 1.403 . S
C1180 C1179 1.403 . S
C1180 C1181 1.404 . S
C1180 C1183 1.539 . S
C1181 C1177 1.408 . S
C1181 C1180 1.404 . S
C1181 H1193 0.930 . S
C1182 C1178 1.524 . S
C1182 H1194 0.956 . S
C1182 H1195 0.961 . S
C1182 H1196 0.961 . S
C1183 C1180 1.539 . S
C1183 H1197 0.958 . S
C1183 H1198 0.961 . S
C1183 H1199 0.960 . S
H1184 C1168 0.931 . S
H1185 C1173 0.929 . S
H1186 C1174 0.960 . S
H1187 C1174 0.962 . S
H1188 C1174 0.960 . S
H1189 C1175 0.961 . S
H1190 C1175 0.961 . S
H1191 C1175 0.961 . S
H1192 C1176 0.931 . S
H1193 C1181 0.930 . S
H1194 C1182 0.956 . S
H1195 C1182 0.961 . S
H1196 C1182 0.961 . S
H1197 C1183 0.958 . S
H1198 C1183 0.961 . S
H1199 C1183 0.960 . S
C1200 C1201 1.391 . S
C1200 C1202 1.394 . S
C1200 H1216 0.931 . S
C1201 C1200 1.391 . S
C1201 C1205 1.376 . S
C1202 C1200 1.394 . S
C1202 C1203 1.369 . S
C1202 C1206 1.531 . S
C1203 C1202 1.369 . S
C1203 C1204 1.410 . S
C1203 C1211 1.503 . S
C1204 C1203 1.410 . S
C1204 C1205 1.392 . S
C1204 C1207 1.511 . S
C1205 C1201 1.376 . S
C1205 C1204 1.392 . S
C1205 H1217 0.929 . S
C1206 C1202 1.531 . S
C1206 H1218 0.960 . S
C1206 H1219 0.962 . S
C1206 H1220 0.960 . S
C1207 C1204 1.511 . S
C1207 H1221 0.961 . S
C1207 H1222 0.961 . S
C1207 H1223 0.961 . S
C1208 C1209 1.370 . S
C1208 C1210 1.363 . S
C1208 H1224 0.931 . S
C1209 C1208 1.370 . S
C1209 C1213 1.408 . S
C1210 C1208 1.363 . S
C1210 C1211 1.370 . S
C1210 C1214 1.524 . S
C1211 C1203 1.503 . S
C1211 C1210 1.370 . S
C1211 C1212 1.403 . S
C1212 C1211 1.403 . S
C1212 C1213 1.404 . S
C1212 C1215 1.539 . S
C1213 C1209 1.408 . S
C1213 C1212 1.404 . S
C1213 H1225 0.930 . S
C1214 C1210 1.524 . S
C1214 H1226 0.956 . S
C1214 H1227 0.961 . S
C1214 H1228 0.961 . S
C1215 C1212 1.539 . S
C1215 H1229 0.958 . S
C1215 H1230 0.961 . S
C1215 H1231 0.960 . S
H1216 C1200 0.931 . S
H1217 C1205 0.929 . S
H1218 C1206 0.960 . S
H1219 C1206 0.962 . S
H1220 C1206 0.960 . S
H1221 C1207 0.961 . S
H1222 C1207 0.961 . S
H1223 C1207 0.961 . S
H1224 C1208 0.931 . S
H1225 C1213 0.930 . S
H1226 C1214 0.956 . S
H1227 C1214 0.961 . S
H1228 C1214 0.961 . S
H1229 C1215 0.958 . S
H1230 C1215 0.961 . S
H1231 C1215 0.960 . S
C1232 C1233 1.391 . S
C1232 C1234 1.394 . S
C1232 H1248 0.931 . S
C1233 C1232 1.391 . S
C1233 C1237 1.376 1_655 S
C1234 C1232 1.394 . S
C1234 C1235 1.369 1_655 S
C1234 C1238 1.531 . S
C1235 C1234 1.369 1_455 S
C1235 C1236 1.410 . S
C1235 C1243 1.503 . S
C1236 C1235 1.410 . S
C1236 C1237 1.392 . S
C1236 C1239 1.511 . S
C1237 C1233 1.376 1_455 S
C1237 C1236 1.392 . S
C1237 H1249 0.929 . S
C1238 C1234 1.531 . S
C1238 H1250 0.960 . S
C1238 H1251 0.962 . S
C1238 H1252 0.960 . S
C1239 C1236 1.511 . S
C1239 H1253 0.961 . S
C1239 H1254 0.961 . S
C1239 H1255 0.961 . S
C1240 C1241 1.370 . S
C1240 C1242 1.363 . S
C1240 H1256 0.931 . S
C1241 C1240 1.370 . S
C1241 C1245 1.408 . S
C1242 C1240 1.363 . S
C1242 C1243 1.370 . S
C1242 C1246 1.524 1_455 S
C1243 C1235 1.503 . S
C1243 C1242 1.370 . S
C1243 C1244 1.403 . S
C1244 C1243 1.403 . S
C1244 C1245 1.404 . S
C1244 C1247 1.539 . S
C1245 C1241 1.408 . S
C1245 C1244 1.404 . S
C1245 H1257 0.930 . S
C1246 C1242 1.524 1_655 S
C1246 H1258 0.956 . S
C1246 H1259 0.961 . S
C1246 H1260 0.961 1_545 S
C1247 C1244 1.539 . S
C1247 H1261 0.958 . S
C1247 H1262 0.961 . S
C1247 H1263 0.960 . S
H1248 C1232 0.931 . S
H1249 C1237 0.929 . S
H1250 C1238 0.960 . S
H1251 C1238 0.962 . S
H1252 C1238 0.960 . S
H1253 C1239 0.961 . S
H1254 C1239 0.961 . S
H1255 C1239 0.961 . S
H1256 C1240 0.931 . S
H1257 C1245 0.930 . S
H1258 C1246 0.956 . S
H1259 C1246 0.961 . S
H1260 C1246 0.961 1_565 S
H1261 C1247 0.958 . S
H1262 C1247 0.961 . S
H1263 C1247 0.960 . S
C1264 C1265 1.391 . S
C1264 C1266 1.394 . S
C1264 H1280 0.931 . S
C1265 C1264 1.391 . S
C1265 C1269 1.376 . S
C1266 C1264 1.394 . S
C1266 C1267 1.369 . S
C1266 C1270 1.531 . S
C1267 C1266 1.369 . S
C1267 C1268 1.410 . S
C1267 C1275 1.503 . S
C1268 C1267 1.410 . S
C1268 C1269 1.392 . S
C1268 C1271 1.511 . S
C1269 C1265 1.376 . S
C1269 C1268 1.392 . S
C1269 H1281 0.929 . S
C1270 C1266 1.531 . S
C1270 H1282 0.960 . S
C1270 H1283 0.962 . S
C1270 H1284 0.960 . S
C1271 C1268 1.511 . S
C1271 H1285 0.961 . S
C1271 H1286 0.961 . S
C1271 H1287 0.961 . S
C1272 C1273 1.370 . S
C1272 C1274 1.363 . S
C1272 H1288 0.931 . S
C1273 C1272 1.370 . S
C1273 C1277 1.408 . S
C1274 C1272 1.363 . S
C1274 C1275 1.370 . S
C1274 C1278 1.524 . S
C1275 C1267 1.503 . S
C1275 C1274 1.370 . S
C1275 C1276 1.403 . S
C1276 C1275 1.403 . S
C1276 C1277 1.404 . S
C1276 C1279 1.539 . S
C1277 C1273 1.408 . S
C1277 C1276 1.404 . S
C1277 H1289 0.930 . S
C1278 C1274 1.524 . S
C1278 H1290 0.956 . S
C1278 H1291 0.961 . S
C1278 H1292 0.961 . S
C1279 C1276 1.539 . S
C1279 H1293 0.958 . S
C1279 H1294 0.961 . S
C1279 H1295 0.960 . S
H1280 C1264 0.931 . S
H1281 C1269 0.929 . S
H1282 C1270 0.960 . S
H1283 C1270 0.962 . S
H1284 C1270 0.960 . S
H1285 C1271 0.961 . S
H1286 C1271 0.961 . S
H1287 C1271 0.961 . S
H1288 C1272 0.931 . S
H1289 C1277 0.930 . S
H1290 C1278 0.956 . S
H1291 C1278 0.961 . S
H1292 C1278 0.961 . S
H1293 C1279 0.958 . S
H1294 C1279 0.961 . S
H1295 C1279 0.960 . S
C1296 C1297 1.391 . S
C1296 C1298 1.394 . S
C1296 H1312 0.931 . S
C1297 C1296 1.391 . S
C1297 C1301 1.376 . S
C1298 C1296 1.394 . S
C1298 C1299 1.369 . S
C1298 C1302 1.531 . S
C1299 C1298 1.369 . S
C1299 C1300 1.410 . S
C1299 C1307 1.503 . S
C1300 C1299 1.410 . S
C1300 C1301 1.392 . S
C1300 C1303 1.511 . S
C1301 C1297 1.376 . S
C1301 C1300 1.392 . S
C1301 H1313 0.929 . S
C1302 C1298 1.531 . S
C1302 H1314 0.960 . S
C1302 H1315 0.962 . S
C1302 H1316 0.960 . S
C1303 C1300 1.511 . S
C1303 H1317 0.961 . S
C1303 H1318 0.961 . S
C1303 H1319 0.961 . S
C1304 C1305 1.370 . S
C1304 C1306 1.363 . S
C1304 H1320 0.931 . S
C1305 C1304 1.370 . S
C1305 C1309 1.408 . S
C1306 C1304 1.363 . S
C1306 C1307 1.370 . S
C1306 C1310 1.524 . S
C1307 C1299 1.503 . S
C1307 C1306 1.370 . S
C1307 C1308 1.403 . S
C1308 C1307 1.403 . S
C1308 C1309 1.404 . S
C1308 C1311 1.539 1_545 S
C1309 C1305 1.408 . S
C1309 C1308 1.404 . S
C1309 H1321 0.930 1_545 S
C1310 C1306 1.524 . S
C1310 H1322 0.956 . S
C1310 H1323 0.961 . S
C1310 H1324 0.961 . S
C1311 C1308 1.539 1_565 S
C1311 H1325 0.958 . S
C1311 H1326 0.961 . S
C1311 H1327 0.960 . S
H1312 C1296 0.931 . S
H1313 C1301 0.929 . S
H1314 C1302 0.960 . S
H1315 C1302 0.962 . S
H1316 C1302 0.960 . S
H1317 C1303 0.961 . S
H1318 C1303 0.961 . S
H1319 C1303 0.961 . S
H1320 C1304 0.931 . S
H1321 C1309 0.930 1_565 S
H1322 C1310 0.956 . S
H1323 C1310 0.961 . S
H1324 C1310 0.961 . S
H1325 C1311 0.958 . S
H1326 C1311 0.961 . S
H1327 C1311 0.960 . S
C1328 C1329 1.391 . S
C1328 C1330 1.394 . S
C1328 H1344 0.931 . S
C1329 C1328 1.391 . S
C1329 C1333 1.376 . S
C1330 C1328 1.394 . S
C1330 C1331 1.369 . S
C1330 C1334 1.531 . S
C1331 C1330 1.369 . S
C1331 C1332 1.410 . S
C1331 C1339 1.503 . S
C1332 C1331 1.410 . S
C1332 C1333 1.392 . S
C1332 C1335 1.511 . S
C1333 C1329 1.376 . S
C1333 C1332 1.392 . S
C1333 H1345 0.929 . S
C1334 C1330 1.531 . S
C1334 H1346 0.960 . S
C1334 H1347 0.962 . S
C1334 H1348 0.960 . S
C1335 C1332 1.511 . S
C1335 H1349 0.961 . S
C1335 H1350 0.961 . S
C1335 H1351 0.961 . S
C1336 C1337 1.370 . S
C1336 C1338 1.363 . S
C1336 H1352 0.931 . S
C1337 C1336 1.370 . S
C1337 C1341 1.408 . S
C1338 C1336 1.363 . S
C1338 C1339 1.370 . S
C1338 C1342 1.524 . S
C1339 C1331 1.503 . S
C1339 C1338 1.370 . S
C1339 C1340 1.403 . S
C1340 C1339 1.403 . S
C1340 C1341 1.404 . S
C1340 C1343 1.539 . S
C1341 C1337 1.408 . S
C1341 C1340 1.404 . S
C1341 H1353 0.930 . S
C1342 C1338 1.524 . S
C1342 H1354 0.956 . S
C1342 H1355 0.961 . S
C1342 H1356 0.961 . S
C1343 C1340 1.539 . S
C1343 H1357 0.958 . S
C1343 H1358 0.961 . S
C1343 H1359 0.960 . S
H1344 C1328 0.931 . S
H1345 C1333 0.929 . S
H1346 C1334 0.960 . S
H1347 C1334 0.962 . S
H1348 C1334 0.960 . S
H1349 C1335 0.961 . S
H1350 C1335 0.961 . S
H1351 C1335 0.961 . S
H1352 C1336 0.931 . S
H1353 C1341 0.930 . S
H1354 C1342 0.956 . S
H1355 C1342 0.961 . S
H1356 C1342 0.961 . S
H1357 C1343 0.958 . S
H1358 C1343 0.961 . S
H1359 C1343 0.960 . S
C1360 C1361 1.391 . S
C1360 C1362 1.394 . S
C1360 H1376 0.931 . S
C1361 C1360 1.391 . S
C1361 C1365 1.376 1_655 S
C1362 C1360 1.394 . S
C1362 C1363 1.369 . S
C1362 C1366 1.531 . S
C1363 C1362 1.369 . S
C1363 C1364 1.410 1_655 S
C1363 C1371 1.503 1_655 S
C1364 C1363 1.410 1_455 S
C1364 C1365 1.392 . S
C1364 C1367 1.511 . S
C1365 C1361 1.376 1_455 S
C1365 C1364 1.392 . S
C1365 H1377 0.929 . S
C1366 C1362 1.531 . S
C1366 H1378 0.960 . S
C1366 H1379 0.962 . S
C1366 H1380 0.960 . S
C1367 C1364 1.511 . S
C1367 H1381 0.961 . S
C1367 H1382 0.961 . S
C1367 H1383 0.961 . S
C1368 C1369 1.370 . S
C1368 C1370 1.363 . S
C1368 H1384 0.931 . S
C1369 C1368 1.370 . S
C1369 C1373 1.408 . S
C1370 C1368 1.363 . S
C1370 C1371 1.370 . S
C1370 C1374 1.524 . S
C1371 C1363 1.503 1_455 S
C1371 C1370 1.370 . S
C1371 C1372 1.403 . S
C1372 C1371 1.403 . S
C1372 C1373 1.404 . S
C1372 C1375 1.533 1_445 S
C1373 C1369 1.408 . S
C1373 C1372 1.404 . S
C1373 H1385 0.930 . S
C1374 C1370 1.524 . S
C1374 H1386 0.956 . S
C1374 H1387 0.961 . S
C1374 H1388 0.961 . S
C1375 C1372 1.533 1_665 S
C1375 H1389 0.960 . S
C1375 H1390 0.970 1_655 S
C1375 H1391 0.955 1_565 S
H1376 C1360 0.931 . S
H1377 C1365 0.929 . S
H1378 C1366 0.960 . S
H1379 C1366 0.962 . S
H1380 C1366 0.960 . S
H1381 C1367 0.961 . S
H1382 C1367 0.961 . S
H1383 C1367 0.961 . S
H1384 C1368 0.931 . S
H1385 C1373 0.930 . S
H1386 C1374 0.956 . S
H1387 C1374 0.961 . S
H1388 C1374 0.961 . S
H1389 C1375 0.960 . S
H1390 C1375 0.970 1_455 S
H1391 C1375 0.955 1_545 S
C1392 C1393 1.391 . S
C1392 C1394 1.394 . S
C1392 H1408 0.931 . S
C1393 C1392 1.391 . S
C1393 C1397 1.376 . S
C1394 C1392 1.394 . S
C1394 C1395 1.369 . S
C1394 C1398 1.531 . S
C1395 C1394 1.369 . S
C1395 C1396 1.410 . S
C1395 C1403 1.503 . S
C1396 C1395 1.410 . S
C1396 C1397 1.392 . S
C1396 C1399 1.511 . S
C1397 C1393 1.376 . S
C1397 C1396 1.392 . S
C1397 H1409 0.929 . S
C1398 C1394 1.531 . S
C1398 H1410 0.960 . S
C1398 H1411 0.962 . S
C1398 H1412 0.960 . S
C1399 C1396 1.511 . S
C1399 H1413 0.961 . S
C1399 H1414 0.961 . S
C1399 H1415 0.961 . S
C1400 C1401 1.370 . S
C1400 C1402 1.363 . S
C1400 H1416 0.931 . S
C1401 C1400 1.370 . S
C1401 C1405 1.408 . S
C1402 C1400 1.363 . S
C1402 C1403 1.370 . S
C1402 C1406 1.524 . S
C1403 C1395 1.503 . S
C1403 C1402 1.370 . S
C1403 C1404 1.403 . S
C1404 C1403 1.403 . S
C1404 C1405 1.404 . S
C1404 C1407 1.539 . S
C1405 C1401 1.408 . S
C1405 C1404 1.404 . S
C1405 H1417 0.930 . S
C1406 C1402 1.524 . S
C1406 H1418 0.956 . S
C1406 H1419 0.961 . S
C1406 H1420 0.961 . S
C1407 C1404 1.539 . S
C1407 H1421 0.958 . S
C1407 H1422 0.961 . S
C1407 H1423 0.960 . S
H1408 C1392 0.931 . S
H1409 C1397 0.929 . S
H1410 C1398 0.960 . S
H1411 C1398 0.962 . S
H1412 C1398 0.960 . S
H1413 C1399 0.961 . S
H1414 C1399 0.961 . S
H1415 C1399 0.961 . S
H1416 C1400 0.931 . S
H1417 C1405 0.930 . S
H1418 C1406 0.956 . S
H1419 C1406 0.961 . S
H1420 C1406 0.961 . S
H1421 C1407 0.958 . S
H1422 C1407 0.961 . S
H1423 C1407 0.960 . S
C1424 C1425 1.391 . S
C1424 C1426 1.394 . S
C1424 H1440 0.931 . S
C1425 C1424 1.391 . S
C1425 C1429 1.376 . S
C1426 C1424 1.394 . S
C1426 C1427 1.369 . S
C1426 C1430 1.531 . S
C1427 C1426 1.369 . S
C1427 C1428 1.410 . S
C1427 C1435 1.503 . S
C1428 C1427 1.410 . S
C1428 C1429 1.392 . S
C1428 C1431 1.511 . S
C1429 C1425 1.376 . S
C1429 C1428 1.392 . S
C1429 H1441 0.929 . S
C1430 C1426 1.531 . S
C1430 H1442 0.960 . S
C1430 H1443 0.962 . S
C1430 H1444 0.960 . S
C1431 C1428 1.511 . S
C1431 H1445 0.961 . S
C1431 H1446 0.961 . S
C1431 H1447 0.961 . S
C1432 C1433 1.370 . S
C1432 C1434 1.363 . S
C1432 H1448 0.931 . S
C1433 C1432 1.370 . S
C1433 C1437 1.408 . S
C1434 C1432 1.363 . S
C1434 C1435 1.370 . S
C1434 C1438 1.524 . S
C1435 C1427 1.503 . S
C1435 C1434 1.370 . S
C1435 C1436 1.403 . S
C1436 C1435 1.403 . S
C1436 C1437 1.404 . S
C1436 C1439 1.539 . S
C1437 C1433 1.408 . S
C1437 C1436 1.404 . S
C1437 H1449 0.930 . S
C1438 C1434 1.524 . S
C1438 H1450 0.956 . S
C1438 H1451 0.961 . S
C1438 H1452 0.961 . S
C1439 C1436 1.539 . S
C1439 H1453 0.958 . S
C1439 H1454 0.961 . S
C1439 H1455 0.960 . S
H1440 C1424 0.931 . S
H1441 C1429 0.929 . S
H1442 C1430 0.960 . S
H1443 C1430 0.962 . S
H1444 C1430 0.960 . S
H1445 C1431 0.961 . S
H1446 C1431 0.961 . S
H1447 C1431 0.961 . S
H1448 C1432 0.931 . S
H1449 C1437 0.930 . S
H1450 C1438 0.956 . S
H1451 C1438 0.961 . S
H1452 C1438 0.961 . S
H1453 C1439 0.958 . S
H1454 C1439 0.961 . S
H1455 C1439 0.960 . S
C1456 C1457 1.391 . S
C1456 C1458 1.394 . S
C1456 H1472 0.931 . S
C1457 C1456 1.391 . S
C1457 C1461 1.376 . S
C1458 C1456 1.394 . S
C1458 C1459 1.369 . S
C1458 C1462 1.531 . S
C1459 C1458 1.369 . S
C1459 C1460 1.410 . S
C1459 C1467 1.503 . S
C1460 C1459 1.410 . S
C1460 C1461 1.392 . S
C1460 C1463 1.511 . S
C1461 C1457 1.376 . S
C1461 C1460 1.392 . S
C1461 H1473 0.929 . S
C1462 C1458 1.531 . S
C1462 H1474 0.960 . S
C1462 H1475 0.962 . S
C1462 H1476 0.960 . S
C1463 C1460 1.511 . S
C1463 H1477 0.961 . S
C1463 H1478 0.961 . S
C1463 H1479 0.961 . S
C1464 C1465 1.370 . S
C1464 C1466 1.363 . S
C1464 H1480 0.931 . S
C1465 C1464 1.370 . S
C1465 C1469 1.408 . S
C1466 C1464 1.363 . S
C1466 C1467 1.370 . S
C1466 C1470 1.524 . S
C1467 C1459 1.503 . S
C1467 C1466 1.370 . S
C1467 C1468 1.403 . S
C1468 C1467 1.403 . S
C1468 C1469 1.404 . S
C1468 C1471 1.539 . S
C1469 C1465 1.408 . S
C1469 C1468 1.404 . S
C1469 H1481 0.930 . S
C1470 C1466 1.524 . S
C1470 H1482 0.956 . S
C1470 H1483 0.961 . S
C1470 H1484 0.961 . S
C1471 C1468 1.539 . S
C1471 H1485 0.958 . S
C1471 H1486 0.961 . S
C1471 H1487 0.960 . S
H1472 C1456 0.931 . S
H1473 C1461 0.929 . S
H1474 C1462 0.960 . S
H1475 C1462 0.962 . S
H1476 C1462 0.960 . S
H1477 C1463 0.961 . S
H1478 C1463 0.961 . S
H1479 C1463 0.961 . S
H1480 C1464 0.931 . S
H1481 C1469 0.930 . S
H1482 C1470 0.956 . S
H1483 C1470 0.961 . S
H1484 C1470 0.961 . S
H1485 C1471 0.958 . S
H1486 C1471 0.961 . S
H1487 C1471 0.960 . S
C1488 C1489 1.391 . S
C1488 C1490 1.394 . S
C1488 H1504 0.931 . S
C1489 C1488 1.391 . S
C1489 C1493 1.394 . S
C1490 C1488 1.394 . S
C1490 C1491 1.369 . S
C1490 C1494 1.531 1_565 S
C1491 C1490 1.369 . S
C1491 C1492 1.410 . S
C1491 C1499 1.503 . S
C1492 C1491 1.410 . S
C1492 C1493 1.407 . S
C1492 C1495 1.511 1_554 S
C1493 C1489 1.394 . S
C1493 C1492 1.407 . S
C1493 H1505 0.897 1_554 S
C1494 C1490 1.531 1_545 S
C1494 H1506 0.960 . S
C1494 H1507 0.962 . S
C1494 H1508 0.960 . S
C1495 C1492 1.511 1_556 S
C1495 H1509 0.961 . S
C1495 H1510 0.961 1_556 S
C1495 H1511 0.961 . S
C1496 C1497 1.394 . S
C1496 C1498 1.363 . S
C1496 H1512 0.931 . S
C1497 C1496 1.394 . S
C1497 C1501 1.395 1_565 S
C1498 C1496 1.363 . S
C1498 C1499 1.370 . S
C1498 C1502 1.524 . S
C1499 C1491 1.503 . S
C1499 C1498 1.370 . S
C1499 C1500 1.403 1_565 S
C1500 C1499 1.403 1_545 S
C1500 C1501 1.404 . S
C1500 C1503 1.539 . S
C1501 C1497 1.395 1_545 S
C1501 C1500 1.404 . S
C1501 H1513 0.930 . S
C1502 C1498 1.524 . S
C1502 H1514 0.956 . S
C1502 H1515 0.961 . S
C1502 H1516 0.961 . S
C1503 C1500 1.539 . S
C1503 H1517 0.958 . S
C1503 H1518 0.983 . S
C1503 H1519 0.964 . S
H1504 C1488 0.931 . S
H1505 C1493 0.897 1_556 S
H1506 C1494 0.960 . S
H1507 C1494 0.962 . S
H1508 C1494 0.960 . S
H1509 C1495 0.961 . S
H1510 C1495 0.961 1_554 S
H1511 C1495 0.961 . S
H1512 C1496 0.931 . S
H1513 C1501 0.930 . S
H1514 C1502 0.956 . S
H1515 C1502 0.961 . S
H1516 C1502 0.961 . S
H1517 C1503 0.958 . S
H1518 C1503 0.983 . S
H1519 C1503 0.964 . S
C1520 C1521 1.391 1_554 S
C1520 C1522 1.394 . S
C1520 H1536 0.931 . S
C1521 C1520 1.391 1_556 S
C1521 C1525 1.376 . S
C1522 C1520 1.394 . S
C1522 C1523 1.395 . S
C1522 C1526 1.531 . S
C1523 C1522 1.395 . S
C1523 C1524 1.374 1_554 S
C1523 C1531 1.513 . S
C1524 C1523 1.374 1_556 S
C1524 C1525 1.392 . S
C1524 C1527 1.511 . S
C1525 C1521 1.376 . S
C1525 C1524 1.392 . S
C1525 H1537 0.929 . S
C1526 C1522 1.531 . S
C1526 H1538 0.960 . S
C1526 H1539 0.962 . S
C1526 H1540 0.960 . S
C1527 C1524 1.511 . S
C1527 H1541 0.961 . S
C1527 H1542 0.961 . S
C1527 H1543 0.961 . S
C1528 C1529 1.370 1_556 S
C1528 C1530 1.363 . S
C1528 H1544 0.931 . S
C1529 C1528 1.370 1_554 S
C1529 C1533 1.408 . S
C1530 C1528 1.363 . S
C1530 C1531 1.370 1_556 S
C1530 C1534 1.524 . S
C1531 C1523 1.513 . S
C1531 C1530 1.370 1_554 S
C1531 C1532 1.403 . S
C1532 C1531 1.403 . S
C1532 C1533 1.404 . S
C1532 C1535 1.539 . S
C1533 C1529 1.408 . S
C1533 C1532 1.404 . S
C1533 H1545 0.930 . S
C1534 C1530 1.524 . S
C1534 H1546 0.956 1_556 S
C1534 H1547 0.961 . S
C1534 H1548 0.961 . S
C1535 C1532 1.539 . S
C1535 H1549 0.958 . S
C1535 H1550 0.961 . S
C1535 H1551 0.960 . S
H1536 C1520 0.931 . S
H1537 C1525 0.929 . S
H1538 C1526 0.960 . S
H1539 C1526 0.962 . S
H1540 C1526 0.960 . S
H1541 C1527 0.961 . S
H1542 C1527 0.961 . S
H1543 C1527 0.961 . S
H1544 C1528 0.931 . S
H1545 C1533 0.930 . S
H1546 C1534 0.956 1_554 S
H1547 C1534 0.961 . S
H1548 C1534 0.961 . S
H1549 C1535 0.958 . S
H1550 C1535 0.961 . S
H1551 C1535 0.960 . S
C1552 C1553 1.391 . S
C1552 C1554 1.394 . S
C1552 H1568 0.931 . S
C1553 C1552 1.391 . S
C1553 C1557 1.376 . S
C1554 C1552 1.394 . S
C1554 C1555 1.369 . S
C1554 C1558 1.531 . S
C1555 C1554 1.369 . S
C1555 C1556 1.410 . S
C1555 C1563 1.503 . S
C1556 C1555 1.410 . S
C1556 C1557 1.392 . S
C1556 C1559 1.511 . S
C1557 C1553 1.376 . S
C1557 C1556 1.392 . S
C1557 H1569 0.929 . S
C1558 C1554 1.531 . S
C1558 H1570 0.960 . S
C1558 H1571 0.962 . S
C1558 H1572 0.960 . S
C1559 C1556 1.511 . S
C1559 H1573 0.961 . S
C1559 H1574 0.961 . S
C1559 H1575 0.961 . S
C1560 C1561 1.370 . S
C1560 C1562 1.363 . S
C1560 H1576 0.931 . S
C1561 C1560 1.370 . S
C1561 C1565 1.408 . S
C1562 C1560 1.363 . S
C1562 C1563 1.370 . S
C1562 C1566 1.524 . S
C1563 C1555 1.503 . S
C1563 C1562 1.370 . S
C1563 C1564 1.403 . S
C1564 C1563 1.403 . S
C1564 C1565 1.404 . S
C1564 C1567 1.539 . S
C1565 C1561 1.408 . S
C1565 C1564 1.404 . S
C1565 H1577 0.930 . S
C1566 C1562 1.524 . S
C1566 H1578 0.956 . S
C1566 H1579 0.961 . S
C1566 H1580 0.961 . S
C1567 C1564 1.539 . S
C1567 H1581 0.958 . S
C1567 H1582 0.961 . S
C1567 H1583 0.960 . S
H1568 C1552 0.931 . S
H1569 C1557 0.929 . S
H1570 C1558 0.960 . S
H1571 C1558 0.962 . S
H1572 C1558 0.960 . S
H1573 C1559 0.961 . S
H1574 C1559 0.961 . S
H1575 C1559 0.961 . S
H1576 C1560 0.931 . S
H1577 C1565 0.930 . S
H1578 C1566 0.956 . S
H1579 C1566 0.961 . S
H1580 C1566 0.961 . S
H1581 C1567 0.958 . S
H1582 C1567 0.961 . S
H1583 C1567 0.960 . S
C1584 C1585 1.391 . S
C1584 C1586 1.394 . S
C1584 H1600 0.931 . S
C1585 C1584 1.391 . S
C1585 C1589 1.376 . S
C1586 C1584 1.394 . S
C1586 C1587 1.369 . S
C1586 C1590 1.531 . S
C1587 C1586 1.369 . S
C1587 C1588 1.410 . S
C1587 C1595 1.503 . S
C1588 C1587 1.410 . S
C1588 C1589 1.392 . S
C1588 C1591 1.511 . S
C1589 C1585 1.376 . S
C1589 C1588 1.392 . S
C1589 H1601 0.929 . S
C1590 C1586 1.531 . S
C1590 H1602 0.960 . S
C1590 H1603 0.962 . S
C1590 H1604 0.960 . S
C1591 C1588 1.511 . S
C1591 H1605 0.961 . S
C1591 H1606 0.961 . S
C1591 H1607 0.961 . S
C1592 C1593 1.370 . S
C1592 C1594 1.363 . S
C1592 H1608 0.931 . S
C1593 C1592 1.370 . S
C1593 C1597 1.408 . S
C1594 C1592 1.363 . S
C1594 C1595 1.370 . S
C1594 C1598 1.524 . S
C1595 C1587 1.503 . S
C1595 C1594 1.370 . S
C1595 C1596 1.403 . S
C1596 C1595 1.403 . S
C1596 C1597 1.404 . S
C1596 C1599 1.539 . S
C1597 C1593 1.408 . S
C1597 C1596 1.404 . S
C1597 H1609 0.930 . S
C1598 C1594 1.524 . S
C1598 H1610 0.956 . S
C1598 H1611 0.961 . S
C1598 H1612 0.961 . S
C1599 C1596 1.539 . S
C1599 H1613 0.958 . S
C1599 H1614 0.961 . S
C1599 H1615 0.960 . S
H1600 C1584 0.931 . S
H1601 C1589 0.929 . S
H1602 C1590 0.960 . S
H1603 C1590 0.962 . S
H1604 C1590 0.960 . S
H1605 C1591 0.961 . S
H1606 C1591 0.961 . S
H1607 C1591 0.961 . S
H1608 C1592 0.931 . S
H1609 C1597 0.930 . S
H1610 C1598 0.956 . S
H1611 C1598 0.961 . S
H1612 C1598 0.961 . S
H1613 C1599 0.958 . S
H1614 C1599 0.961 . S
H1615 C1599 0.960 . S
C1616 C1617 1.391 . S
C1616 C1618 1.394 . S
C1616 H1632 0.931 . S
C1617 C1616 1.391 . S
C1617 C1621 1.376 . S
C1618 C1616 1.394 . S
C1618 C1619 1.369 . S
C1618 C1622 1.531 . S
C1619 C1618 1.369 . S
C1619 C1620 1.410 . S
C1619 C1627 1.503 . S
C1620 C1619 1.410 . S
C1620 C1621 1.392 . S
C1620 C1623 1.511 . S
C1621 C1617 1.376 . S
C1621 C1620 1.392 . S
C1621 H1633 0.929 . S
C1622 C1618 1.531 . S
C1622 H1634 0.960 . S
C1622 H1635 0.962 . S
C1622 H1636 0.960 . S
C1623 C1620 1.511 . S
C1623 H1637 0.961 . S
C1623 H1638 0.961 . S
C1623 H1639 0.961 . S
C1624 C1625 1.370 . S
C1624 C1626 1.363 . S
C1624 H1640 0.931 . S
C1625 C1624 1.370 . S
C1625 C1629 1.408 . S
C1626 C1624 1.363 . S
C1626 C1627 1.370 . S
C1626 C1630 1.524 . S
C1627 C1619 1.503 . S
C1627 C1626 1.370 . S
C1627 C1628 1.403 . S
C1628 C1627 1.403 . S
C1628 C1629 1.404 . S
C1628 C1631 1.539 . S
C1629 C1625 1.408 . S
C1629 C1628 1.404 . S
C1629 H1641 0.930 . S
C1630 C1626 1.524 . S
C1630 H1642 0.956 . S
C1630 H1643 0.961 . S
C1630 H1644 0.961 . S
C1631 C1628 1.539 . S
C1631 H1645 0.958 . S
C1631 H1646 0.961 . S
C1631 H1647 0.960 . S
H1632 C1616 0.931 . S
H1633 C1621 0.929 . S
H1634 C1622 0.960 . S
H1635 C1622 0.962 . S
H1636 C1622 0.960 . S
H1637 C1623 0.961 . S
H1638 C1623 0.961 . S
H1639 C1623 0.961 . S
H1640 C1624 0.931 . S
H1641 C1629 0.930 . S
H1642 C1630 0.956 . S
H1643 C1630 0.961 . S
H1644 C1630 0.961 . S
H1645 C1631 0.958 . S
H1646 C1631 0.961 . S
H1647 C1631 0.960 . S
C1648 C1649 1.391 . S
C1648 C1650 1.394 . S
C1648 H1664 0.931 . S
C1649 C1648 1.391 . S
C1649 C1653 1.376 . S
C1650 C1648 1.394 . S
C1650 C1651 1.369 . S
C1650 C1654 1.531 . S
C1651 C1650 1.369 . S
C1651 C1652 1.410 . S
C1651 C1659 1.503 . S
C1652 C1651 1.410 . S
C1652 C1653 1.392 . S
C1652 C1655 1.511 . S
C1653 C1649 1.376 . S
C1653 C1652 1.392 . S
C1653 H1665 0.929 . S
C1654 C1650 1.531 . S
C1654 H1666 0.960 . S
C1654 H1667 0.962 . S
C1654 H1668 0.960 . S
C1655 C1652 1.511 . S
C1655 H1669 0.961 . S
C1655 H1670 0.961 . S
C1655 H1671 0.961 . S
C1656 C1657 1.370 . S
C1656 C1658 1.363 . S
C1656 H1672 0.931 . S
C1657 C1656 1.370 . S
C1657 C1661 1.408 . S
C1658 C1656 1.363 . S
C1658 C1659 1.370 . S
C1658 C1662 1.524 . S
C1659 C1651 1.503 . S
C1659 C1658 1.370 . S
C1659 C1660 1.403 . S
C1660 C1659 1.403 . S
C1660 C1661 1.404 . S
C1660 C1663 1.539 . S
C1661 C1657 1.408 . S
C1661 C1660 1.404 . S
C1661 H1673 0.930 . S
C1662 C1658 1.524 . S
C1662 H1674 0.956 . S
C1662 H1675 0.961 . S
C1662 H1676 0.961 . S
C1663 C1660 1.539 . S
C1663 H1677 0.958 . S
C1663 H1678 0.961 . S
C1663 H1679 0.960 . S
H1664 C1648 0.931 . S
H1665 C1653 0.929 . S
H1666 C1654 0.960 . S
H1667 C1654 0.962 . S
H1668 C1654 0.960 . S
H1669 C1655 0.961 . S
H1670 C1655 0.961 . S
H1671 C1655 0.961 . S
H1672 C1656 0.931 . S
H1673 C1661 0.930 . S
H1674 C1662 0.956 . S
H1675 C1662 0.961 . S
H1676 C1662 0.961 . S
H1677 C1663 0.958 . S
H1678 C1663 0.961 . S
H1679 C1663 0.960 . S
C1680 C1681 1.391 . S
C1680 C1682 1.394 . S
C1680 H1696 0.931 . S
C1681 C1680 1.391 . S
C1681 C1685 1.376 . S
C1682 C1680 1.394 . S
C1682 C1683 1.369 . S
C1682 C1686 1.531 . S
C1683 C1682 1.369 . S
C1683 C1684 1.410 . S
C1683 C1691 1.503 . S
C1684 C1683 1.410 . S
C1684 C1685 1.392 . S
C1684 C1687 1.511 . S
C1685 C1681 1.376 . S
C1685 C1684 1.392 . S
C1685 H1697 0.929 . S
C1686 C1682 1.531 . S
C1686 H1698 0.960 . S
C1686 H1699 0.962 . S
C1686 H1700 0.960 . S
C1687 C1684 1.511 . S
C1687 H1701 0.961 . S
C1687 H1702 0.961 . S
C1687 H1703 0.961 . S
C1688 C1689 1.370 . S
C1688 C1690 1.363 . S
C1688 H1704 0.931 . S
C1689 C1688 1.370 . S
C1689 C1693 1.408 . S
C1690 C1688 1.363 . S
C1690 C1691 1.370 . S
C1690 C1694 1.524 . S
C1691 C1683 1.503 . S
C1691 C1690 1.370 . S
C1691 C1692 1.403 . S
C1692 C1691 1.403 . S
C1692 C1693 1.404 . S
C1692 C1695 1.539 . S
C1693 C1689 1.408 . S
C1693 C1692 1.404 . S
C1693 H1705 0.930 . S
C1694 C1690 1.524 . S
C1694 H1706 0.956 . S
C1694 H1707 0.961 . S
C1694 H1708 0.961 . S
C1695 C1692 1.539 . S
C1695 H1709 0.958 . S
C1695 H1710 0.961 . S
C1695 H1711 0.960 . S
H1696 C1680 0.931 . S
H1697 C1685 0.929 . S
H1698 C1686 0.960 . S
H1699 C1686 0.962 . S
H1700 C1686 0.960 . S
H1701 C1687 0.961 . S
H1702 C1687 0.961 . S
H1703 C1687 0.961 . S
H1704 C1688 0.931 . S
H1705 C1693 0.930 . S
H1706 C1694 0.956 . S
H1707 C1694 0.961 . S
H1708 C1694 0.961 . S
H1709 C1695 0.958 . S
H1710 C1695 0.961 . S
H1711 C1695 0.960 . S
C1712 C1713 1.391 . S
C1712 C1714 1.394 . S
C1712 H1728 0.931 . S
C1713 C1712 1.391 . S
C1713 C1717 1.376 . S
C1714 C1712 1.394 . S
C1714 C1715 1.369 . S
C1714 C1718 1.531 . S
C1715 C1714 1.369 . S
C1715 C1716 1.410 . S
C1715 C1723 1.503 . S
C1716 C1715 1.410 . S
C1716 C1717 1.392 . S
C1716 C1719 1.511 . S
C1717 C1713 1.376 . S
C1717 C1716 1.392 . S
C1717 H1729 0.929 . S
C1718 C1714 1.531 . S
C1718 H1730 0.960 . S
C1718 H1731 0.962 . S
C1718 H1732 0.960 . S
C1719 C1716 1.511 . S
C1719 H1733 0.961 . S
C1719 H1734 0.961 . S
C1719 H1735 0.961 . S
C1720 C1721 1.370 . S
C1720 C1722 1.363 . S
C1720 H1736 0.931 . S
C1721 C1720 1.370 . S
C1721 C1725 1.408 . S
C1722 C1720 1.363 . S
C1722 C1723 1.370 . S
C1722 C1726 1.524 . S
C1723 C1715 1.503 . S
C1723 C1722 1.370 . S
C1723 C1724 1.403 . S
C1724 C1723 1.403 . S
C1724 C1725 1.404 . S
C1724 C1727 1.539 . S
C1725 C1721 1.408 . S
C1725 C1724 1.404 . S
C1725 H1737 0.930 . S
C1726 C1722 1.524 . S
C1726 H1738 0.956 . S
C1726 H1739 0.961 . S
C1726 H1740 0.961 . S
C1727 C1724 1.539 . S
C1727 H1741 0.958 . S
C1727 H1742 0.961 . S
C1727 H1743 0.960 . S
H1728 C1712 0.931 . S
H1729 C1717 0.929 . S
H1730 C1718 0.960 . S
H1731 C1718 0.962 . S
H1732 C1718 0.960 . S
H1733 C1719 0.961 . S
H1734 C1719 0.961 . S
H1735 C1719 0.961 . S
H1736 C1720 0.931 . S
H1737 C1725 0.930 . S
H1738 C1726 0.956 . S
H1739 C1726 0.961 . S
H1740 C1726 0.961 . S
H1741 C1727 0.958 . S
H1742 C1727 0.961 . S
H1743 C1727 0.960 . S
C1744 C1745 1.391 . S
C1744 C1746 1.394 . S
C1744 H1760 0.931 . S
C1745 C1744 1.391 . S
C1745 C1749 1.376 . S
C1746 C1744 1.394 . S
C1746 C1747 1.369 . S
C1746 C1750 1.531 . S
C1747 C1746 1.369 . S
C1747 C1748 1.410 . S
C1747 C1755 1.503 . S
C1748 C1747 1.410 . S
C1748 C1749 1.392 . S
C1748 C1751 1.511 . S
C1749 C1745 1.376 . S
C1749 C1748 1.392 . S
C1749 H1761 0.929 . S
C1750 C1746 1.531 . S
C1750 H1762 0.960 . S
C1750 H1763 0.962 . S
C1750 H1764 0.960 . S
C1751 C1748 1.511 . S
C1751 H1765 0.961 . S
C1751 H1766 0.961 . S
C1751 H1767 0.961 . S
C1752 C1753 1.370 . S
C1752 C1754 1.363 . S
C1752 H1768 0.931 . S
C1753 C1752 1.370 . S
C1753 C1757 1.408 . S
C1754 C1752 1.363 . S
C1754 C1755 1.370 . S
C1754 C1758 1.524 . S
C1755 C1747 1.503 . S
C1755 C1754 1.370 . S
C1755 C1756 1.403 . S
C1756 C1755 1.403 . S
C1756 C1757 1.404 . S
C1756 C1759 1.561 . S
C1757 C1753 1.408 . S
C1757 C1756 1.404 . S
C1757 H1769 0.930 1_554 S
C1758 C1754 1.524 . S
C1758 H1770 0.956 . S
C1758 H1771 0.961 . S
C1758 H1772 0.961 . S
C1759 C1756 1.561 . S
C1759 H1773 0.936 1_554 S
C1759 H1774 0.938 1_554 S
C1759 H1775 0.986 . S
H1760 C1744 0.931 . S
H1761 C1749 0.929 . S
H1762 C1750 0.960 . S
H1763 C1750 0.962 . S
H1764 C1750 0.960 . S
H1765 C1751 0.961 . S
H1766 C1751 0.961 . S
H1767 C1751 0.961 . S
H1768 C1752 0.931 . S
H1769 C1757 0.930 1_556 S
H1770 C1758 0.956 . S
H1771 C1758 0.961 . S
H1772 C1758 0.961 . S
H1773 C1759 0.936 1_556 S
H1774 C1759 0.938 1_556 S
H1775 C1759 0.986 . S
C1776 C1777 1.391 . S
C1776 C1778 1.394 . S
C1776 H1792 0.931 . S
C1777 C1776 1.391 . S
C1777 C1781 1.376 . S
C1778 C1776 1.394 . S
C1778 C1779 1.369 . S
C1778 C1782 1.531 . S
C1779 C1778 1.369 . S
C1779 C1780 1.410 . S
C1779 C1787 1.503 . S
C1780 C1779 1.410 . S
C1780 C1781 1.392 . S
C1780 C1783 1.511 . S
C1781 C1777 1.376 . S
C1781 C1780 1.392 . S
C1781 H1793 0.929 . S
C1782 C1778 1.531 . S
C1782 H1794 0.960 . S
C1782 H1795 0.962 . S
C1782 H1796 0.960 . S
C1783 C1780 1.511 . S
C1783 H1797 0.961 . S
C1783 H1798 0.961 . S
C1783 H1799 0.961 . S
C1784 C1785 1.370 . S
C1784 C1786 1.363 . S
C1784 H1800 0.931 . S
C1785 C1784 1.370 . S
C1785 C1789 1.408 . S
C1786 C1784 1.363 . S
C1786 C1787 1.370 . S
C1786 C1790 1.524 . S
C1787 C1779 1.503 . S
C1787 C1786 1.370 . S
C1787 C1788 1.403 . S
C1788 C1787 1.403 . S
C1788 C1789 1.404 . S
C1788 C1791 1.539 . S
C1789 C1785 1.408 . S
C1789 C1788 1.404 . S
C1789 H1801 0.930 . S
C1790 C1786 1.524 . S
C1790 H1802 0.956 . S
C1790 H1803 0.961 . S
C1790 H1804 0.961 . S
C1791 C1788 1.539 . S
C1791 H1805 0.958 . S
C1791 H1806 0.961 . S
C1791 H1807 0.960 . S
H1792 C1776 0.931 . S
H1793 C1781 0.929 . S
H1794 C1782 0.960 . S
H1795 C1782 0.962 . S
H1796 C1782 0.960 . S
H1797 C1783 0.961 . S
H1798 C1783 0.961 . S
H1799 C1783 0.961 . S
H1800 C1784 0.931 . S
H1801 C1789 0.930 . S
H1802 C1790 0.956 . S
H1803 C1790 0.961 . S
H1804 C1790 0.961 . S
H1805 C1791 0.958 . S
H1806 C1791 0.961 . S
H1807 C1791 0.960 . S
C1808 C1809 1.391 . S
C1808 C1810 1.394 . S
C1808 H1824 0.931 . S
C1809 C1808 1.391 . S
C1809 C1813 1.376 . S
C1810 C1808 1.394 . S
C1810 C1811 1.369 . S
C1810 C1814 1.531 . S
C1811 C1810 1.369 . S
C1811 C1812 1.410 . S
C1811 C1819 1.503 . S
C1812 C1811 1.410 . S
C1812 C1813 1.392 . S
C1812 C1815 1.511 . S
C1813 C1809 1.376 . S
C1813 C1812 1.392 . S
C1813 H1825 0.929 . S
C1814 C1810 1.531 . S
C1814 H1826 0.960 . S
C1814 H1827 0.962 . S
C1814 H1828 0.960 . S
C1815 C1812 1.511 . S
C1815 H1829 0.961 . S
C1815 H1830 0.961 . S
C1815 H1831 0.961 . S
C1816 C1817 1.370 . S
C1816 C1818 1.363 . S
C1816 H1832 0.931 . S
C1817 C1816 1.370 . S
C1817 C1821 1.408 . S
C1818 C1816 1.363 . S
C1818 C1819 1.370 . S
C1818 C1822 1.524 . S
C1819 C1811 1.503 . S
C1819 C1818 1.370 . S
C1819 C1820 1.403 . S
C1820 C1819 1.403 . S
C1820 C1821 1.404 . S
C1820 C1823 1.539 . S
C1821 C1817 1.408 . S
C1821 C1820 1.404 . S
C1821 H1833 0.930 . S
C1822 C1818 1.524 . S
C1822 H1834 0.956 . S
C1822 H1835 0.961 . S
C1822 H1836 0.961 . S
C1823 C1820 1.539 . S
C1823 H1837 0.958 . S
C1823 H1838 0.961 . S
C1823 H1839 0.960 . S
H1824 C1808 0.931 . S
H1825 C1813 0.929 . S
H1826 C1814 0.960 . S
H1827 C1814 0.962 . S
H1828 C1814 0.960 . S
H1829 C1815 0.961 . S
H1830 C1815 0.961 . S
H1831 C1815 0.961 . S
H1832 C1816 0.931 . S
H1833 C1821 0.930 . S
H1834 C1822 0.956 . S
H1835 C1822 0.961 . S
H1836 C1822 0.961 . S
H1837 C1823 0.958 . S
H1838 C1823 0.961 . S
H1839 C1823 0.960 . S
C1840 C1841 1.391 . S
C1840 C1842 1.394 . S
C1840 H1856 0.931 . S
C1841 C1840 1.391 . S
C1841 C1845 1.376 . S
C1842 C1840 1.394 . S
C1842 C1843 1.369 . S
C1842 C1846 1.531 . S
C1843 C1842 1.369 . S
C1843 C1844 1.410 . S
C1843 C1851 1.503 . S
C1844 C1843 1.410 . S
C1844 C1845 1.392 . S
C1844 C1847 1.511 . S
C1845 C1841 1.376 . S
C1845 C1844 1.392 . S
C1845 H1857 0.929 . S
C1846 C1842 1.531 . S
C1846 H1858 0.960 . S
C1846 H1859 0.962 . S
C1846 H1860 0.960 . S
C1847 C1844 1.511 . S
C1847 H1861 0.961 . S
C1847 H1862 0.961 . S
C1847 H1863 0.961 . S
C1848 C1849 1.370 . S
C1848 C1850 1.363 . S
C1848 H1864 0.931 . S
C1849 C1848 1.370 . S
C1849 C1853 1.408 . S
C1850 C1848 1.363 . S
C1850 C1851 1.370 . S
C1850 C1854 1.524 . S
C1851 C1843 1.503 . S
C1851 C1850 1.370 . S
C1851 C1852 1.403 . S
C1852 C1851 1.403 . S
C1852 C1853 1.404 . S
C1852 C1855 1.539 . S
C1853 C1849 1.408 . S
C1853 C1852 1.404 . S
C1853 H1865 0.930 . S
C1854 C1850 1.524 . S
C1854 H1866 0.956 . S
C1854 H1867 0.961 . S
C1854 H1868 0.961 . S
C1855 C1852 1.539 . S
C1855 H1869 0.958 . S
C1855 H1870 0.961 . S
C1855 H1871 0.960 . S
H1856 C1840 0.931 . S
H1857 C1845 0.929 . S
H1858 C1846 0.960 . S
H1859 C1846 0.962 . S
H1860 C1846 0.960 . S
H1861 C1847 0.961 . S
H1862 C1847 0.961 . S
H1863 C1847 0.961 . S
H1864 C1848 0.931 . S
H1865 C1853 0.930 . S
H1866 C1854 0.956 . S
H1867 C1854 0.961 . S
H1868 C1854 0.961 . S
H1869 C1855 0.958 . S
H1870 C1855 0.961 . S
H1871 C1855 0.960 . S
C1872 C1873 1.391 . S
C1872 C1874 1.394 . S
C1872 H1888 0.931 . S
C1873 C1872 1.391 . S
C1873 C1877 1.376 . S
C1874 C1872 1.394 . S
C1874 C1875 1.369 . S
C1874 C1878 1.531 . S
C1875 C1874 1.369 . S
C1875 C1876 1.410 . S
C1875 C1883 1.503 . S
C1876 C1875 1.410 . S
C1876 C1877 1.392 . S
C1876 C1879 1.511 . S
C1877 C1873 1.376 . S
C1877 C1876 1.392 . S
C1877 H1889 0.929 . S
C1878 C1874 1.531 . S
C1878 H1890 0.960 . S
C1878 H1891 0.962 . S
C1878 H1892 0.960 . S
C1879 C1876 1.511 . S
C1879 H1893 0.961 . S
C1879 H1894 0.961 . S
C1879 H1895 0.961 . S
C1880 C1881 1.370 . S
C1880 C1882 1.363 . S
C1880 H1896 0.931 . S
C1881 C1880 1.370 . S
C1881 C1885 1.408 . S
C1882 C1880 1.363 . S
C1882 C1883 1.370 . S
C1882 C1886 1.524 . S
C1883 C1875 1.503 . S
C1883 C1882 1.370 . S
C1883 C1884 1.403 . S
C1884 C1883 1.403 . S
C1884 C1885 1.404 . S
C1884 C1887 1.539 . S
C1885 C1881 1.408 . S
C1885 C1884 1.404 . S
C1885 H1897 0.930 . S
C1886 C1882 1.524 . S
C1886 H1898 0.956 . S
C1886 H1899 0.961 . S
C1886 H1900 0.961 . S
C1887 C1884 1.539 . S
C1887 H1901 0.958 . S
C1887 H1902 0.961 . S
C1887 H1903 0.960 . S
H1888 C1872 0.931 . S
H1889 C1877 0.929 . S
H1890 C1878 0.960 . S
H1891 C1878 0.962 . S
H1892 C1878 0.960 . S
H1893 C1879 0.961 . S
H1894 C1879 0.961 . S
H1895 C1879 0.961 . S
H1896 C1880 0.931 . S
H1897 C1885 0.930 . S
H1898 C1886 0.956 . S
H1899 C1886 0.961 . S
H1900 C1886 0.961 . S
H1901 C1887 0.958 . S
H1902 C1887 0.961 . S
H1903 C1887 0.960 . S
C1904 C1905 1.391 . S
C1904 C1906 1.394 . S
C1904 H1920 0.931 . S
C1905 C1904 1.391 . S
C1905 C1909 1.376 . S
C1906 C1904 1.394 . S
C1906 C1907 1.369 . S
C1906 C1910 1.531 . S
C1907 C1906 1.369 . S
C1907 C1908 1.410 . S
C1907 C1915 1.503 . S
C1908 C1907 1.410 . S
C1908 C1909 1.392 . S
C1908 C1911 1.511 . S
C1909 C1905 1.376 . S
C1909 C1908 1.392 . S
C1909 H1921 0.929 . S
C1910 C1906 1.531 . S
C1910 H1922 0.960 . S
C1910 H1923 0.962 . S
C1910 H1924 0.960 . S
C1911 C1908 1.511 . S
C1911 H1925 0.961 . S
C1911 H1926 0.961 . S
C1911 H1927 0.961 . S
C1912 C1913 1.370 . S
C1912 C1914 1.363 . S
C1912 H1928 0.931 . S
C1913 C1912 1.370 . S
C1913 C1917 1.408 . S
C1914 C1912 1.363 . S
C1914 C1915 1.370 . S
C1914 C1918 1.524 . S
C1915 C1907 1.503 . S
C1915 C1914 1.370 . S
C1915 C1916 1.403 . S
C1916 C1915 1.403 . S
C1916 C1917 1.404 . S
C1916 C1919 1.539 . S
C1917 C1913 1.408 . S
C1917 C1916 1.404 . S
C1917 H1929 0.930 . S
C1918 C1914 1.524 . S
C1918 H1930 0.956 . S
C1918 H1931 0.961 . S
C1918 H1932 0.961 . S
C1919 C1916 1.539 . S
C1919 H1933 0.958 . S
C1919 H1934 0.961 . S
C1919 H1935 0.960 . S
H1920 C1904 0.931 . S
H1921 C1909 0.929 . S
H1922 C1910 0.960 . S
H1923 C1910 0.962 . S
H1924 C1910 0.960 . S
H1925 C1911 0.961 . S
H1926 C1911 0.961 . S
H1927 C1911 0.961 . S
H1928 C1912 0.931 . S
H1929 C1917 0.930 . S
H1930 C1918 0.956 . S
H1931 C1918 0.961 . S
H1932 C1918 0.961 . S
H1933 C1919 0.958 . S
H1934 C1919 0.961 . S
H1935 C1919 0.960 . S
C1936 C1937 1.391 . S
C1936 C1938 1.394 . S
C1936 H1952 0.931 . S
C1937 C1936 1.391 . S
C1937 C1941 1.376 . S
C1938 C1936 1.394 . S
C1938 C1939 1.369 . S
C1938 C1942 1.531 . S
C1939 C1938 1.369 . S
C1939 C1940 1.410 . S
C1939 C1947 1.503 . S
C1940 C1939 1.410 . S
C1940 C1941 1.392 . S
C1940 C1943 1.511 . S
C1941 C1937 1.376 . S
C1941 C1940 1.392 . S
C1941 H1953 0.929 . S
C1942 C1938 1.531 . S
C1942 H1954 0.960 . S
C1942 H1955 0.962 . S
C1942 H1956 0.960 . S
C1943 C1940 1.511 . S
C1943 H1957 0.961 . S
C1943 H1958 0.961 . S
C1943 H1959 0.961 . S
C1944 C1945 1.370 . S
C1944 C1946 1.363 . S
C1944 H1960 0.931 . S
C1945 C1944 1.370 . S
C1945 C1949 1.408 . S
C1946 C1944 1.363 . S
C1946 C1947 1.370 . S
C1946 C1950 1.524 . S
C1947 C1939 1.503 . S
C1947 C1946 1.370 . S
C1947 C1948 1.403 . S
C1948 C1947 1.403 . S
C1948 C1949 1.404 . S
C1948 C1951 1.539 . S
C1949 C1945 1.408 . S
C1949 C1948 1.404 . S
C1949 H1961 0.930 1_556 S
C1950 C1946 1.524 . S
C1950 H1962 0.956 . S
C1950 H1963 0.961 . S
C1950 H1964 0.961 . S
C1951 C1948 1.539 . S
C1951 H1965 0.958 . S
C1951 H1966 0.961 1_556 S
C1951 H1967 0.960 . S
H1952 C1936 0.931 . S
H1953 C1941 0.929 . S
H1954 C1942 0.960 . S
H1955 C1942 0.962 . S
H1956 C1942 0.960 . S
H1957 C1943 0.961 . S
H1958 C1943 0.961 . S
H1959 C1943 0.961 . S
H1960 C1944 0.931 . S
H1961 C1949 0.930 1_554 S
H1962 C1950 0.956 . S
H1963 C1950 0.961 . S
H1964 C1950 0.961 . S
H1965 C1951 0.958 . S
H1966 C1951 0.961 1_554 S
H1967 C1951 0.960 . S
C1968 C1969 1.391 . S
C1968 C1970 1.394 . S
C1968 H1984 0.931 . S
C1969 C1968 1.391 . S
C1969 C1973 1.376 . S
C1970 C1968 1.394 . S
C1970 C1971 1.369 . S
C1970 C1974 1.531 . S
C1971 C1970 1.369 . S
C1971 C1972 1.410 . S
C1971 C1979 1.503 . S
C1972 C1971 1.410 . S
C1972 C1973 1.392 . S
C1972 C1975 1.511 . S
C1973 C1969 1.376 . S
C1973 C1972 1.392 . S
C1973 H1985 0.929 . S
C1974 C1970 1.531 . S
C1974 H1986 0.960 . S
C1974 H1987 0.962 . S
C1974 H1988 0.960 . S
C1975 C1972 1.511 . S
C1975 H1989 0.961 . S
C1975 H1990 0.961 . S
C1975 H1991 0.961 . S
C1976 C1977 1.370 . S
C1976 C1978 1.363 . S
C1976 H1992 0.931 . S
C1977 C1976 1.370 . S
C1977 C1981 1.408 . S
C1978 C1976 1.363 . S
C1978 C1979 1.370 . S
C1978 C1982 1.524 . S
C1979 C1971 1.503 . S
C1979 C1978 1.370 . S
C1979 C1980 1.403 . S
C1980 C1979 1.403 . S
C1980 C1981 1.404 . S
C1980 C1983 1.539 . S
C1981 C1977 1.408 . S
C1981 C1980 1.404 . S
C1981 H1993 0.930 . S
C1982 C1978 1.524 . S
C1982 H1994 0.956 . S
C1982 H1995 0.961 . S
C1982 H1996 0.961 . S
C1983 C1980 1.539 . S
C1983 H1997 0.958 . S
C1983 H1998 0.961 . S
C1983 H1999 0.960 . S
H1984 C1968 0.931 . S
H1985 C1973 0.929 . S
H1986 C1974 0.960 . S
H1987 C1974 0.962 . S
H1988 C1974 0.960 . S
H1989 C1975 0.961 . S
H1990 C1975 0.961 . S
H1991 C1975 0.961 . S
H1992 C1976 0.931 . S
H1993 C1981 0.930 . S
H1994 C1982 0.956 . S
H1995 C1982 0.961 . S
H1996 C1982 0.961 . S
H1997 C1983 0.958 . S
H1998 C1983 0.961 . S
H1999 C1983 0.960 . S
C2000 C2001 1.391 . S
C2000 C2002 1.394 . S
C2000 H2016 0.931 . S
C2001 C2000 1.391 . S
C2001 C2005 1.376 1_545 S
C2002 C2000 1.394 . S
C2002 C2003 1.369 . S
C2002 C2006 1.531 . S
C2003 C2002 1.369 . S
C2003 C2004 1.410 1_545 S
C2003 C2011 1.503 . S
C2004 C2003 1.410 1_565 S
C2004 C2005 1.392 . S
C2004 C2007 1.511 . S
C2005 C2001 1.376 1_565 S
C2005 C2004 1.392 . S
C2005 H2017 0.929 . S
C2006 C2002 1.531 . S
C2006 H2018 0.960 . S
C2006 H2019 0.962 . S
C2006 H2020 0.960 . S
C2007 C2004 1.511 . S
C2007 H2021 0.961 . S
C2007 H2022 0.961 . S
C2007 H2023 0.961 . S
C2008 C2009 1.370 . S
C2008 C2010 1.363 . S
C2008 H2024 0.931 . S
C2009 C2008 1.370 . S
C2009 C2013 1.408 1_545 S
C2010 C2008 1.363 . S
C2010 C2011 1.370 . S
C2010 C2014 1.524 . S
C2011 C2003 1.503 . S
C2011 C2010 1.370 . S
C2011 C2012 1.403 1_545 S
C2012 C2011 1.403 1_565 S
C2012 C2013 1.404 . S
C2012 C2015 1.539 . S
C2013 C2009 1.408 1_565 S
C2013 C2012 1.404 . S
C2013 H2025 0.930 . S
C2014 C2010 1.524 . S
C2014 H2026 0.956 . S
C2014 H2027 0.961 . S
C2014 H2028 0.961 . S
C2015 C2012 1.539 . S
C2015 H2029 0.958 . S
C2015 H2030 0.961 . S
C2015 H2031 0.960 . S
H2016 C2000 0.931 . S
H2017 C2005 0.929 . S
H2018 C2006 0.960 . S
H2019 C2006 0.962 . S
H2020 C2006 0.960 . S
H2021 C2007 0.961 . S
H2022 C2007 0.961 . S
H2023 C2007 0.961 . S
H2024 C2008 0.931 . S
H2025 C2013 0.930 . S
H2026 C2014 0.956 . S
H2027 C2014 0.961 . S
H2028 C2014 0.961 . S
H2029 C2015 0.958 . S
H2030 C2015 0.961 . S
H2031 C2015 0.960 . S
C2032 C2033 1.391 . S
C2032 C2034 1.394 . S
C2032 H2048 0.931 . S
C2033 C2032 1.391 . S
C2033 C2037 1.376 . S
C2034 C2032 1.394 . S
C2034 C2035 1.369 . S
C2034 C2038 1.531 . S
C2035 C2034 1.369 . S
C2035 C2036 1.410 . S
C2035 C2043 1.503 . S
C2036 C2035 1.410 . S
C2036 C2037 1.392 . S
C2036 C2039 1.511 . S
C2037 C2033 1.376 . S
C2037 C2036 1.392 . S
C2037 H2049 0.929 . S
C2038 C2034 1.531 . S
C2038 H2050 0.960 . S
C2038 H2051 0.962 . S
C2038 H2052 0.960 . S
C2039 C2036 1.511 . S
C2039 H2053 0.961 . S
C2039 H2054 0.961 . S
C2039 H2055 0.961 . S
C2040 C2041 1.370 . S
C2040 C2042 1.363 . S
C2040 H2056 0.931 . S
C2041 C2040 1.370 . S
C2041 C2045 1.408 . S
C2042 C2040 1.363 . S
C2042 C2043 1.370 . S
C2042 C2046 1.524 . S
C2043 C2035 1.503 . S
C2043 C2042 1.370 . S
C2043 C2044 1.403 . S
C2044 C2043 1.403 . S
C2044 C2045 1.404 . S
C2044 C2047 1.539 . S
C2045 C2041 1.408 . S
C2045 C2044 1.404 . S
C2045 H2057 0.930 . S
C2046 C2042 1.524 . S
C2046 H2058 0.956 . S
C2046 H2059 0.961 . S
C2046 H2060 0.961 . S
C2047 C2044 1.539 . S
C2047 H2061 0.958 . S
C2047 H2062 0.961 . S
C2047 H2063 0.960 . S
H2048 C2032 0.931 . S
H2049 C2037 0.929 . S
H2050 C2038 0.960 . S
H2051 C2038 0.962 . S
H2052 C2038 0.960 . S
H2053 C2039 0.961 . S
H2054 C2039 0.961 . S
H2055 C2039 0.961 . S
H2056 C2040 0.931 . S
H2057 C2045 0.930 . S
H2058 C2046 0.956 . S
H2059 C2046 0.961 . S
H2060 C2046 0.961 . S
H2061 C2047 0.958 . S
H2062 C2047 0.961 . S
H2063 C2047 0.960 . S
C2064 C2065 1.391 1_565 S
C2064 C2066 1.394 . S
C2064 H2080 0.931 . S
C2065 C2064 1.391 1_545 S
C2065 C2069 1.376 . S
C2066 C2064 1.394 . S
C2066 C2067 1.369 1_565 S
C2066 C2070 1.531 . S
C2067 C2066 1.369 1_545 S
C2067 C2068 1.410 . S
C2067 C2075 1.503 . S
C2068 C2067 1.410 . S
C2068 C2069 1.392 . S
C2068 C2071 1.511 . S
C2069 C2065 1.376 . S
C2069 C2068 1.392 . S
C2069 H2081 0.929 . S
C2070 C2066 1.531 . S
C2070 H2082 0.960 . S
C2070 H2083 0.962 . S
C2070 H2084 0.960 . S
C2071 C2068 1.511 . S
C2071 H2085 0.961 . S
C2071 H2086 0.961 . S
C2071 H2087 0.961 . S
C2072 C2073 1.370 . S
C2072 C2074 1.363 . S
C2072 H2088 0.931 . S
C2073 C2072 1.370 . S
C2073 C2077 1.408 . S
C2074 C2072 1.363 . S
C2074 C2075 1.370 . S
C2074 C2078 1.524 . S
C2075 C2067 1.503 . S
C2075 C2074 1.370 . S
C2075 C2076 1.403 . S
C2076 C2075 1.403 . S
C2076 C2077 1.404 . S
C2076 C2079 1.539 . S
C2077 C2073 1.408 . S
C2077 C2076 1.404 . S
C2077 H2089 0.930 . S
C2078 C2074 1.524 . S
C2078 H2090 0.956 . S
C2078 H2091 0.961 . S
C2078 H2092 0.961 . S
C2079 C2076 1.539 . S
C2079 H2093 0.958 1_545 S
C2079 H2094 0.961 . S
C2079 H2095 0.960 . S
H2080 C2064 0.931 . S
H2081 C2069 0.929 . S
H2082 C2070 0.960 . S
H2083 C2070 0.962 . S
H2084 C2070 0.960 . S
H2085 C2071 0.961 . S
H2086 C2071 0.961 . S
H2087 C2071 0.961 . S
H2088 C2072 0.931 . S
H2089 C2077 0.930 . S
H2090 C2078 0.956 . S
H2091 C2078 0.961 . S
H2092 C2078 0.961 . S
H2093 C2079 0.958 1_565 S
H2094 C2079 0.961 . S
H2095 C2079 0.960 . S
C2096 C2097 1.391 . S
C2096 C2098 1.394 . S
C2096 H2112 0.931 . S
C2097 C2096 1.391 . S
C2097 C2101 1.376 . S
C2098 C2096 1.394 . S
C2098 C2099 1.369 . S
C2098 C2102 1.531 . S
C2099 C2098 1.369 . S
C2099 C2100 1.410 . S
C2099 C2107 1.503 . S
C2100 C2099 1.410 . S
C2100 C2101 1.392 . S
C2100 C2103 1.511 . S
C2101 C2097 1.376 . S
C2101 C2100 1.392 . S
C2101 H2113 0.929 . S
C2102 C2098 1.531 . S
C2102 H2114 0.960 . S
C2102 H2115 0.962 . S
C2102 H2116 0.960 . S
C2103 C2100 1.511 . S
C2103 H2117 0.961 . S
C2103 H2118 0.961 . S
C2103 H2119 0.961 . S
C2104 C2105 1.370 . S
C2104 C2106 1.363 . S
C2104 H2120 0.931 . S
C2105 C2104 1.370 . S
C2105 C2109 1.408 . S
C2106 C2104 1.363 . S
C2106 C2107 1.370 . S
C2106 C2110 1.524 . S
C2107 C2099 1.503 . S
C2107 C2106 1.370 . S
C2107 C2108 1.403 . S
C2108 C2107 1.403 . S
C2108 C2109 1.404 . S
C2108 C2111 1.539 . S
C2109 C2105 1.408 . S
C2109 C2108 1.404 . S
C2109 H2121 0.930 . S
C2110 C2106 1.524 . S
C2110 H2122 0.956 . S
C2110 H2123 0.961 . S
C2110 H2124 0.961 . S
C2111 C2108 1.539 . S
C2111 H2125 0.958 . S
C2111 H2126 0.961 . S
C2111 H2127 0.960 . S
H2112 C2096 0.931 . S
H2113 C2101 0.929 . S
H2114 C2102 0.960 . S
H2115 C2102 0.962 . S
H2116 C2102 0.960 . S
H2117 C2103 0.961 . S
H2118 C2103 0.961 . S
H2119 C2103 0.961 . S
H2120 C2104 0.931 . S
H2121 C2109 0.930 . S
H2122 C2110 0.956 . S
H2123 C2110 0.961 . S
H2124 C2110 0.961 . S
H2125 C2111 0.958 . S
H2126 C2111 0.961 . S
H2127 C2111 0.960 . S
C2128 C2129 1.391 . S
C2128 C2130 1.394 . S
C2128 H2144 0.931 . S
C2129 C2128 1.391 . S
C2129 C2133 1.376 1_565 S
C2130 C2128 1.394 . S
C2130 C2131 1.369 1_565 S
C2130 C2134 1.531 . S
C2131 C2130 1.369 1_545 S
C2131 C2132 1.410 . S
C2131 C2139 1.503 . S
C2132 C2131 1.410 . S
C2132 C2133 1.392 . S
C2132 C2135 1.511 . S
C2133 C2129 1.376 1_545 S
C2133 C2132 1.392 . S
C2133 H2145 0.929 . S
C2134 C2130 1.531 . S
C2134 H2146 0.960 . S
C2134 H2147 0.962 . S
C2134 H2148 0.960 . S
C2135 C2132 1.511 . S
C2135 H2149 0.961 . S
C2135 H2150 0.961 . S
C2135 H2151 0.961 . S
C2136 C2137 1.370 . S
C2136 C2138 1.363 . S
C2136 H2152 0.931 . S
C2137 C2136 1.370 . S
C2137 C2141 1.408 . S
C2138 C2136 1.363 . S
C2138 C2139 1.370 . S
C2138 C2142 1.524 . S
C2139 C2131 1.503 . S
C2139 C2138 1.370 . S
C2139 C2140 1.403 . S
C2140 C2139 1.403 . S
C2140 C2141 1.404 . S
C2140 C2143 1.539 . S
C2141 C2137 1.408 . S
C2141 C2140 1.404 . S
C2141 H2153 0.930 . S
C2142 C2138 1.524 . S
C2142 H2154 0.956 1_545 S
C2142 H2155 0.961 . S
C2142 H2156 0.961 . S
C2143 C2140 1.539 . S
C2143 H2157 0.958 . S
C2143 H2158 0.961 . S
C2143 H2159 0.960 . S
H2144 C2128 0.931 . S
H2145 C2133 0.929 . S
H2146 C2134 0.960 . S
H2147 C2134 0.962 . S
H2148 C2134 0.960 . S
H2149 C2135 0.961 . S
H2150 C2135 0.961 . S
H2151 C2135 0.961 . S
H2152 C2136 0.931 . S
H2153 C2141 0.930 . S
H2154 C2142 0.956 1_565 S
H2155 C2142 0.961 . S
H2156 C2142 0.961 . S
H2157 C2143 0.958 . S
H2158 C2143 0.961 . S
H2159 C2143 0.960 . S
C2160 C2161 1.391 . S
C2160 C2162 1.394 . S
C2160 H2176 0.931 . S
C2161 C2160 1.391 . S
C2161 C2165 1.376 . S
C2162 C2160 1.394 . S
C2162 C2163 1.369 . S
C2162 C2166 1.531 . S
C2163 C2162 1.369 . S
C2163 C2164 1.410 . S
C2163 C2171 1.503 . S
C2164 C2163 1.410 . S
C2164 C2165 1.392 . S
C2164 C2167 1.511 . S
C2165 C2161 1.376 . S
C2165 C2164 1.392 . S
C2165 H2177 0.929 . S
C2166 C2162 1.531 . S
C2166 H2178 0.960 . S
C2166 H2179 0.962 . S
C2166 H2180 0.960 . S
C2167 C2164 1.511 . S
C2167 H2181 0.961 . S
C2167 H2182 0.961 . S
C2167 H2183 0.961 . S
C2168 C2169 1.370 . S
C2168 C2170 1.363 . S
C2168 H2184 0.931 . S
C2169 C2168 1.370 . S
C2169 C2173 1.408 . S
C2170 C2168 1.363 . S
C2170 C2171 1.370 . S
C2170 C2174 1.524 . S
C2171 C2163 1.503 . S
C2171 C2170 1.370 . S
C2171 C2172 1.403 . S
C2172 C2171 1.403 . S
C2172 C2173 1.404 . S
C2172 C2175 1.539 . S
C2173 C2169 1.408 . S
C2173 C2172 1.404 . S
C2173 H2185 0.930 . S
C2174 C2170 1.524 . S
C2174 H2186 0.956 . S
C2174 H2187 0.961 . S
C2174 H2188 0.961 . S
C2175 C2172 1.539 . S
C2175 H2189 0.958 . S
C2175 H2190 0.961 . S
C2175 H2191 0.960 . S
H2176 C2160 0.931 . S
H2177 C2165 0.929 . S
H2178 C2166 0.960 . S
H2179 C2166 0.962 . S
H2180 C2166 0.960 . S
H2181 C2167 0.961 . S
H2182 C2167 0.961 . S
H2183 C2167 0.961 . S
H2184 C2168 0.931 . S
H2185 C2173 0.930 . S
H2186 C2174 0.956 . S
H2187 C2174 0.961 . S
H2188 C2174 0.961 . S
H2189 C2175 0.958 . S
H2190 C2175 0.961 . S
H2191 C2175 0.960 . S
C2192 C2193 1.391 . S
C2192 C2194 1.394 . S
C2192 H2208 0.920 . S
C2193 C2192 1.391 . S
C2193 C2197 1.376 . S
C2194 C2192 1.394 . S
C2194 C2195 1.369 . S
C2194 C2198 1.530 1_545 S
C2195 C2194 1.369 . S
C2195 C2196 1.410 . S
C2195 C2203 1.503 1_545 S
C2196 C2195 1.410 . S
C2196 C2197 1.392 . S
C2196 C2199 1.511 . S
C2197 C2193 1.376 . S
C2197 C2196 1.392 . S
C2197 H2209 0.929 . S
C2198 C2194 1.530 1_565 S
C2198 H2210 0.960 1_565 S
C2198 H2211 0.962 . S
C2198 H2212 0.960 1_565 S
C2199 C2196 1.511 . S
C2199 H2213 0.971 . S
C2199 H2214 0.961 1_545 S
C2199 H2215 0.961 . S
C2200 C2201 1.370 . S
C2200 C2202 1.363 . S
C2200 H2216 0.931 . S
C2201 C2200 1.370 . S
C2201 C2205 1.408 1_565 S
C2202 C2200 1.363 . S
C2202 C2203 1.370 . S
C2202 C2206 1.524 . S
C2203 C2195 1.503 1_565 S
C2203 C2202 1.370 . S
C2203 C2204 1.403 1_565 S
C2204 C2203 1.403 1_545 S
C2204 C2205 1.404 . S
C2204 C2207 1.539 . S
C2205 C2201 1.408 1_545 S
C2205 C2204 1.404 . S
C2205 H2217 0.930 . S
C2206 C2202 1.524 . S
C2206 H2218 0.956 . S
C2206 H2219 0.961 . S
C2206 H2220 0.961 . S
C2207 C2204 1.539 . S
C2207 H2221 0.958 . S
C2207 H2222 0.961 . S
C2207 H2223 0.960 . S
H2208 C2192 0.920 . S
H2209 C2197 0.929 . S
H2210 C2198 0.960 1_545 S
H2211 C2198 0.962 . S
H2212 C2198 0.960 1_545 S
H2213 C2199 0.971 . S
H2214 C2199 0.961 1_565 S
H2215 C2199 0.961 . S
H2216 C2200 0.931 . S
H2217 C2205 0.930 . S
H2218 C2206 0.956 . S
H2219 C2206 0.961 . S
H2220 C2206 0.961 . S
H2221 C2207 0.958 . S
H2222 C2207 0.961 . S
H2223 C2207 0.960 . S
C2224 C2225 1.391 . S
C2224 C2226 1.394 . S
C2224 H2240 0.931 . S
C2225 C2224 1.391 . S
C2225 C2229 1.376 . S
C2226 C2224 1.394 . S
C2226 C2227 1.369 . S
C2226 C2230 1.531 . S
C2227 C2226 1.369 . S
C2227 C2228 1.410 . S
C2227 C2235 1.503 . S
C2228 C2227 1.410 . S
C2228 C2229 1.392 . S
C2228 C2231 1.511 . S
C2229 C2225 1.376 . S
C2229 C2228 1.392 . S
C2229 H2241 0.929 . S
C2230 C2226 1.531 . S
C2230 H2242 0.960 . S
C2230 H2243 0.962 . S
C2230 H2244 0.960 . S
C2231 C2228 1.511 . S
C2231 H2245 0.961 . S
C2231 H2246 0.961 . S
C2231 H2247 0.961 . S
C2232 C2233 1.370 . S
C2232 C2234 1.363 . S
C2232 H2248 0.931 . S
C2233 C2232 1.370 . S
C2233 C2237 1.408 . S
C2234 C2232 1.363 . S
C2234 C2235 1.370 . S
C2234 C2238 1.524 . S
C2235 C2227 1.503 . S
C2235 C2234 1.370 . S
C2235 C2236 1.403 . S
C2236 C2235 1.403 . S
C2236 C2237 1.404 . S
C2236 C2239 1.539 . S
C2237 C2233 1.408 . S
C2237 C2236 1.404 . S
C2237 H2249 0.930 . S
C2238 C2234 1.524 . S
C2238 H2250 0.956 . S
C2238 H2251 0.961 . S
C2238 H2252 0.961 . S
C2239 C2236 1.539 . S
C2239 H2253 0.958 . S
C2239 H2254 0.961 . S
C2239 H2255 0.960 . S
H2240 C2224 0.931 . S
H2241 C2229 0.929 . S
H2242 C2230 0.960 . S
H2243 C2230 0.962 . S
H2244 C2230 0.960 . S
H2245 C2231 0.961 . S
H2246 C2231 0.961 . S
H2247 C2231 0.961 . S
H2248 C2232 0.931 . S
H2249 C2237 0.930 . S
H2250 C2238 0.956 . S
H2251 C2238 0.961 . S
H2252 C2238 0.961 . S
H2253 C2239 0.958 . S
H2254 C2239 0.961 . S
H2255 C2239 0.960 . S
C2256 C2257 1.387 1_556 S
C2256 C2258 1.395 . S
C2256 H2272 0.933 . S
C2257 C2256 1.387 1_554 S
C2257 C2261 1.376 . S
C2258 C2256 1.395 . S
C2258 C2259 1.369 1_556 S
C2258 C2262 1.531 . S
C2259 C2258 1.369 1_554 S
C2259 C2260 1.410 . S
C2259 C2267 1.503 1_554 S
C2260 C2259 1.410 . S
C2260 C2261 1.392 . S
C2260 C2263 1.511 . S
C2261 C2257 1.376 . S
C2261 C2260 1.392 . S
C2261 H2273 0.929 . S
C2262 C2258 1.531 . S
C2262 H2274 0.960 . S
C2262 H2275 0.962 . S
C2262 H2276 0.960 . S
C2263 C2260 1.511 . S
C2263 H2277 0.961 . S
C2263 H2278 0.961 . S
C2263 H2279 0.961 . S
C2264 C2265 1.370 . S
C2264 C2266 1.363 . S
C2264 H2280 0.931 . S
C2265 C2264 1.370 . S
C2265 C2269 1.408 . S
C2266 C2264 1.363 . S
C2266 C2267 1.370 . S
C2266 C2270 1.524 . S
C2267 C2259 1.503 1_556 S
C2267 C2266 1.370 . S
C2267 C2268 1.403 1_556 S
C2268 C2267 1.403 1_554 S
C2268 C2269 1.404 1_554 S
C2268 C2271 1.539 . S
C2269 C2265 1.408 . S
C2269 C2268 1.404 1_556 S
C2269 H2281 0.930 1_556 S
C2270 C2266 1.524 . S
C2270 H2282 0.956 . S
C2270 H2283 0.961 . S
C2270 H2284 0.961 . S
C2271 C2268 1.539 . S
C2271 H2285 0.958 . S
C2271 H2286 0.961 . S
C2271 H2287 0.960 . S
H2272 C2256 0.933 . S
H2273 C2261 0.929 . S
H2274 C2262 0.960 . S
H2275 C2262 0.962 . S
H2276 C2262 0.960 . S
H2277 C2263 0.961 . S
H2278 C2263 0.961 . S
H2279 C2263 0.961 . S
H2280 C2264 0.931 . S
H2281 C2269 0.930 1_554 S
H2282 C2270 0.956 . S
H2283 C2270 0.961 . S
H2284 C2270 0.961 . S
H2285 C2271 0.958 . S
H2286 C2271 0.961 . S
H2287 C2271 0.960 . S
C2288 C2289 1.391 . S
C2288 C2290 1.394 . S
C2288 H2304 0.931 1_554 S
C2289 C2288 1.391 . S
C2289 C2293 1.376 . S
C2290 C2288 1.394 . S
C2290 C2291 1.369 . S
C2290 C2294 1.531 1_554 S
C2291 C2290 1.369 . S
C2291 C2292 1.410 . S
C2291 C2299 1.503 . S
C2292 C2291 1.410 . S
C2292 C2293 1.392 . S
C2292 C2295 1.511 . S
C2293 C2289 1.376 . S
C2293 C2292 1.392 . S
C2293 H2305 0.929 . S
C2294 C2290 1.531 1_556 S
C2294 H2306 0.960 . S
C2294 H2307 0.962 . S
C2294 H2308 0.960 . S
C2295 C2292 1.511 . S
C2295 H2309 0.961 . S
C2295 H2310 0.961 . S
C2295 H2311 0.961 . S
C2296 C2297 1.370 . S
C2296 C2298 1.363 . S
C2296 H2312 0.931 . S
C2297 C2296 1.370 . S
C2297 C2301 1.408 . S
C2298 C2296 1.363 . S
C2298 C2299 1.370 . S
C2298 C2302 1.524 . S
C2299 C2291 1.503 . S
C2299 C2298 1.370 . S
C2299 C2300 1.403 . S
C2300 C2299 1.403 . S
C2300 C2301 1.404 . S
C2300 C2303 1.539 . S
C2301 C2297 1.408 . S
C2301 C2300 1.404 . S
C2301 H2313 0.930 . S
C2302 C2298 1.524 . S
C2302 H2314 0.956 1_554 S
C2302 H2315 0.961 . S
C2302 H2316 0.961 . S
C2303 C2300 1.539 . S
C2303 H2317 0.958 . S
C2303 H2318 0.961 . S
C2303 H2319 0.960 . S
H2304 C2288 0.931 1_556 S
H2305 C2293 0.929 . S
H2306 C2294 0.960 . S
H2307 C2294 0.962 . S
H2308 C2294 0.960 . S
H2309 C2295 0.961 . S
H2310 C2295 0.961 . S
H2311 C2295 0.961 . S
H2312 C2296 0.931 . S
H2313 C2301 0.930 . S
H2314 C2302 0.956 1_556 S
H2315 C2302 0.961 . S
H2316 C2302 0.961 . S
H2317 C2303 0.958 . S
H2318 C2303 0.961 . S
H2319 C2303 0.960 . S
C2320 C2321 1.391 . S
C2320 C2322 1.394 . S
C2320 H2336 0.931 . S
C2321 C2320 1.391 . S
C2321 C2325 1.376 . S
C2322 C2320 1.394 . S
C2322 C2323 1.369 . S
C2322 C2326 1.531 . S
C2323 C2322 1.369 . S
C2323 C2324 1.410 . S
C2323 C2331 1.503 . S
C2324 C2323 1.410 . S
C2324 C2325 1.392 . S
C2324 C2327 1.511 . S
C2325 C2321 1.376 . S
C2325 C2324 1.392 . S
C2325 H2337 0.929 . S
C2326 C2322 1.531 . S
C2326 H2338 0.960 . S
C2326 H2339 0.962 . S
C2326 H2340 0.960 . S
C2327 C2324 1.511 . S
C2327 H2341 0.961 . S
C2327 H2342 0.961 . S
C2327 H2343 0.961 . S
C2328 C2329 1.370 . S
C2328 C2330 1.363 . S
C2328 H2344 0.931 . S
C2329 C2328 1.370 . S
C2329 C2333 1.408 . S
C2330 C2328 1.363 . S
C2330 C2331 1.370 . S
C2330 C2334 1.524 . S
C2331 C2323 1.503 . S
C2331 C2330 1.370 . S
C2331 C2332 1.403 . S
C2332 C2331 1.403 . S
C2332 C2333 1.404 . S
C2332 C2335 1.539 . S
C2333 C2329 1.408 . S
C2333 C2332 1.404 . S
C2333 H2345 0.930 . S
C2334 C2330 1.524 . S
C2334 H2346 0.956 . S
C2334 H2347 0.961 . S
C2334 H2348 0.961 . S
C2335 C2332 1.539 . S
C2335 H2349 0.958 . S
C2335 H2350 0.961 . S
C2335 H2351 0.960 . S
H2336 C2320 0.931 . S
H2337 C2325 0.929 . S
H2338 C2326 0.960 . S
H2339 C2326 0.962 . S
H2340 C2326 0.960 . S
H2341 C2327 0.961 . S
H2342 C2327 0.961 . S
H2343 C2327 0.961 . S
H2344 C2328 0.931 . S
H2345 C2333 0.930 . S
H2346 C2334 0.956 . S
H2347 C2334 0.961 . S
H2348 C2334 0.961 . S
H2349 C2335 0.958 . S
H2350 C2335 0.961 . S
H2351 C2335 0.960 . S
C2352 C2353 1.391 . S
C2352 C2354 1.394 . S
C2352 H2368 0.931 . S
C2353 C2352 1.391 . S
C2353 C2357 1.376 . S
C2354 C2352 1.394 . S
C2354 C2355 1.369 . S
C2354 C2358 1.531 . S
C2355 C2354 1.369 . S
C2355 C2356 1.410 . S
C2355 C2363 1.503 . S
C2356 C2355 1.410 . S
C2356 C2357 1.392 . S
C2356 C2359 1.511 . S
C2357 C2353 1.376 . S
C2357 C2356 1.392 . S
C2357 H2369 0.929 . S
C2358 C2354 1.531 . S
C2358 H2370 0.960 . S
C2358 H2371 0.962 . S
C2358 H2372 0.960 . S
C2359 C2356 1.511 . S
C2359 H2373 0.961 . S
C2359 H2374 0.961 . S
C2359 H2375 0.961 . S
C2360 C2361 1.370 . S
C2360 C2362 1.363 . S
C2360 H2376 0.931 . S
C2361 C2360 1.370 . S
C2361 C2365 1.408 . S
C2362 C2360 1.363 . S
C2362 C2363 1.370 . S
C2362 C2366 1.524 . S
C2363 C2355 1.503 . S
C2363 C2362 1.370 . S
C2363 C2364 1.403 . S
C2364 C2363 1.403 . S
C2364 C2365 1.404 . S
C2364 C2367 1.539 . S
C2365 C2361 1.408 . S
C2365 C2364 1.404 . S
C2365 H2377 0.930 . S
C2366 C2362 1.524 . S
C2366 H2378 0.956 . S
C2366 H2379 0.961 . S
C2366 H2380 0.961 . S
C2367 C2364 1.539 . S
C2367 H2381 0.958 . S
C2367 H2382 0.961 . S
C2367 H2383 0.960 . S
H2368 C2352 0.931 . S
H2369 C2357 0.929 . S
H2370 C2358 0.960 . S
H2371 C2358 0.962 . S
H2372 C2358 0.960 . S
H2373 C2359 0.961 . S
H2374 C2359 0.961 . S
H2375 C2359 0.961 . S
H2376 C2360 0.931 . S
H2377 C2365 0.930 . S
H2378 C2366 0.956 . S
H2379 C2366 0.961 . S
H2380 C2366 0.961 . S
H2381 C2367 0.958 . S
H2382 C2367 0.961 . S
H2383 C2367 0.960 . S
C2384 C2385 1.391 . S
C2384 C2386 1.394 1_545 S
C2384 H2400 0.931 . S
C2385 C2384 1.391 . S
C2385 C2389 1.376 1_545 S
C2386 C2384 1.394 1_565 S
C2386 C2387 1.369 . S
C2386 C2390 1.531 . S
C2387 C2386 1.369 . S
C2387 C2388 1.410 . S
C2387 C2395 1.503 . S
C2388 C2387 1.410 . S
C2388 C2389 1.392 . S
C2388 C2391 1.511 . S
C2389 C2385 1.376 1_565 S
C2389 C2388 1.392 . S
C2389 H2401 0.929 . S
C2390 C2386 1.531 . S
C2390 H2402 0.960 . S
C2390 H2403 0.962 . S
C2390 H2404 0.960 1_565 S
C2391 C2388 1.511 . S
C2391 H2405 0.961 . S
C2391 H2406 0.961 . S
C2391 H2407 0.961 . S
C2392 C2393 1.370 . S
C2392 C2394 1.363 . S
C2392 H2408 0.931 . S
C2393 C2392 1.370 . S
C2393 C2397 1.408 . S
C2394 C2392 1.363 . S
C2394 C2395 1.370 . S
C2394 C2398 1.524 . S
C2395 C2387 1.503 . S
C2395 C2394 1.370 . S
C2395 C2396 1.403 . S
C2396 C2395 1.403 . S
C2396 C2397 1.404 . S
C2396 C2399 1.539 . S
C2397 C2393 1.408 . S
C2397 C2396 1.404 . S
C2397 H2409 0.930 . S
C2398 C2394 1.524 . S
C2398 H2410 0.956 . S
C2398 H2411 0.961 . S
C2398 H2412 0.961 . S
C2399 C2396 1.539 . S
C2399 H2413 0.958 1_565 S
C2399 H2414 0.961 . S
C2399 H2415 0.960 1_565 S
H2400 C2384 0.931 . S
H2401 C2389 0.929 . S
H2402 C2390 0.960 . S
H2403 C2390 0.962 . S
H2404 C2390 0.960 1_545 S
H2405 C2391 0.961 . S
H2406 C2391 0.961 . S
H2407 C2391 0.961 . S
H2408 C2392 0.931 . S
H2409 C2397 0.930 . S
H2410 C2398 0.956 . S
H2411 C2398 0.961 . S
H2412 C2398 0.961 . S
H2413 C2399 0.958 1_545 S
H2414 C2399 0.961 . S
H2415 C2399 0.960 1_545 S
C2416 C2417 1.391 . S
C2416 C2418 1.394 . S
C2416 H2432 0.931 . S
C2417 C2416 1.391 . S
C2417 C2421 1.376 . S
C2418 C2416 1.394 . S
C2418 C2419 1.369 . S
C2418 C2422 1.531 . S
C2419 C2418 1.369 . S
C2419 C2420 1.410 . S
C2419 C2427 1.503 . S
C2420 C2419 1.410 . S
C2420 C2421 1.392 . S
C2420 C2423 1.511 . S
C2421 C2417 1.376 . S
C2421 C2420 1.392 . S
C2421 H2433 0.929 . S
C2422 C2418 1.531 . S
C2422 H2434 0.960 . S
C2422 H2435 0.962 . S
C2422 H2436 0.960 . S
C2423 C2420 1.511 . S
C2423 H2437 0.961 . S
C2423 H2438 0.961 . S
C2423 H2439 0.961 . S
C2424 C2425 1.370 . S
C2424 C2426 1.363 . S
C2424 H2440 0.931 . S
C2425 C2424 1.370 . S
C2425 C2429 1.408 . S
C2426 C2424 1.363 . S
C2426 C2427 1.370 . S
C2426 C2430 1.524 . S
C2427 C2419 1.503 . S
C2427 C2426 1.370 . S
C2427 C2428 1.403 . S
C2428 C2427 1.403 . S
C2428 C2429 1.404 . S
C2428 C2431 1.539 . S
C2429 C2425 1.408 . S
C2429 C2428 1.404 . S
C2429 H2441 0.930 . S
C2430 C2426 1.524 . S
C2430 H2442 0.956 . S
C2430 H2443 0.961 . S
C2430 H2444 0.961 . S
C2431 C2428 1.539 . S
C2431 H2445 0.958 . S
C2431 H2446 0.961 . S
C2431 H2447 0.960 . S
H2432 C2416 0.931 . S
H2433 C2421 0.929 . S
H2434 C2422 0.960 . S
H2435 C2422 0.962 . S
H2436 C2422 0.960 . S
H2437 C2423 0.961 . S
H2438 C2423 0.961 . S
H2439 C2423 0.961 . S
H2440 C2424 0.931 . S
H2441 C2429 0.930 . S
H2442 C2430 0.956 . S
H2443 C2430 0.961 . S
H2444 C2430 0.961 . S
H2445 C2431 0.958 . S
H2446 C2431 0.961 . S
H2447 C2431 0.960 . S
C2448 C2449 1.391 . S
C2448 C2450 1.394 . S
C2448 H2464 0.931 . S
C2449 C2448 1.391 . S
C2449 C2453 1.376 . S
C2450 C2448 1.394 . S
C2450 C2451 1.369 . S
C2450 C2454 1.531 . S
C2451 C2450 1.369 . S
C2451 C2452 1.410 . S
C2451 C2459 1.503 . S
C2452 C2451 1.410 . S
C2452 C2453 1.392 . S
C2452 C2455 1.511 . S
C2453 C2449 1.376 . S
C2453 C2452 1.392 . S
C2453 H2465 0.929 . S
C2454 C2450 1.531 . S
C2454 H2466 0.960 . S
C2454 H2467 0.962 . S
C2454 H2468 0.960 . S
C2455 C2452 1.511 . S
C2455 H2469 0.961 . S
C2455 H2470 0.961 . S
C2455 H2471 0.961 . S
C2456 C2457 1.370 . S
C2456 C2458 1.363 . S
C2456 H2472 0.931 . S
C2457 C2456 1.370 . S
C2457 C2461 1.408 . S
C2458 C2456 1.363 . S
C2458 C2459 1.370 . S
C2458 C2462 1.524 . S
C2459 C2451 1.503 . S
C2459 C2458 1.370 . S
C2459 C2460 1.403 . S
C2460 C2459 1.403 . S
C2460 C2461 1.404 . S
C2460 C2463 1.539 . S
C2461 C2457 1.408 . S
C2461 C2460 1.404 . S
C2461 H2473 0.930 . S
C2462 C2458 1.524 . S
C2462 H2474 0.956 . S
C2462 H2475 0.961 . S
C2462 H2476 0.961 . S
C2463 C2460 1.539 . S
C2463 H2477 0.958 . S
C2463 H2478 0.961 . S
C2463 H2479 0.960 . S
H2464 C2448 0.931 . S
H2465 C2453 0.929 . S
H2466 C2454 0.960 . S
H2467 C2454 0.962 . S
H2468 C2454 0.960 . S
H2469 C2455 0.961 . S
H2470 C2455 0.961 . S
H2471 C2455 0.961 . S
H2472 C2456 0.931 . S
H2473 C2461 0.930 . S
H2474 C2462 0.956 . S
H2475 C2462 0.961 . S
H2476 C2462 0.961 . S
H2477 C2463 0.958 . S
H2478 C2463 0.961 . S
H2479 C2463 0.960 . S
C2480 C2481 1.391 . S
C2480 C2482 1.394 . S
C2480 H2496 0.931 . S
C2481 C2480 1.391 . S
C2481 C2485 1.376 . S
C2482 C2480 1.394 . S
C2482 C2483 1.369 . S
C2482 C2486 1.531 . S
C2483 C2482 1.369 . S
C2483 C2484 1.410 . S
C2483 C2491 1.503 . S
C2484 C2483 1.410 . S
C2484 C2485 1.392 . S
C2484 C2487 1.511 . S
C2485 C2481 1.376 . S
C2485 C2484 1.392 . S
C2485 H2497 0.929 . S
C2486 C2482 1.531 . S
C2486 H2498 0.960 . S
C2486 H2499 0.962 . S
C2486 H2500 0.960 . S
C2487 C2484 1.511 . S
C2487 H2501 0.961 . S
C2487 H2502 0.961 . S
C2487 H2503 0.961 . S
C2488 C2489 1.370 . S
C2488 C2490 1.363 . S
C2488 H2504 0.931 . S
C2489 C2488 1.370 . S
C2489 C2493 1.408 . S
C2490 C2488 1.363 . S
C2490 C2491 1.370 . S
C2490 C2494 1.524 . S
C2491 C2483 1.503 . S
C2491 C2490 1.370 . S
C2491 C2492 1.403 . S
C2492 C2491 1.403 . S
C2492 C2493 1.404 . S
C2492 C2495 1.539 . S
C2493 C2489 1.408 . S
C2493 C2492 1.404 . S
C2493 H2505 0.930 . S
C2494 C2490 1.524 . S
C2494 H2506 0.956 . S
C2494 H2507 0.961 . S
C2494 H2508 0.961 . S
C2495 C2492 1.539 . S
C2495 H2509 0.958 . S
C2495 H2510 0.961 . S
C2495 H2511 0.960 . S
H2496 C2480 0.931 . S
H2497 C2485 0.929 . S
H2498 C2486 0.960 . S
H2499 C2486 0.962 . S
H2500 C2486 0.960 . S
H2501 C2487 0.961 . S
H2502 C2487 0.961 . S
H2503 C2487 0.961 . S
H2504 C2488 0.931 . S
H2505 C2493 0.930 . S
H2506 C2494 0.956 . S
H2507 C2494 0.961 . S
H2508 C2494 0.961 . S
H2509 C2495 0.958 . S
H2510 C2495 0.961 . S
H2511 C2495 0.960 . S
C2512 C2513 1.391 . S
C2512 C2514 1.394 . S
C2512 H2528 0.931 . S
C2513 C2512 1.391 . S
C2513 C2517 1.376 . S
C2514 C2512 1.394 . S
C2514 C2515 1.369 . S
C2514 C2518 1.531 . S
C2515 C2514 1.369 . S
C2515 C2516 1.410 . S
C2515 C2523 1.503 . S
C2516 C2515 1.410 . S
C2516 C2517 1.392 . S
C2516 C2519 1.511 . S
C2517 C2513 1.376 . S
C2517 C2516 1.392 . S
C2517 H2529 0.929 . S
C2518 C2514 1.531 . S
C2518 H2530 0.960 . S
C2518 H2531 0.962 . S
C2518 H2532 0.960 . S
C2519 C2516 1.511 . S
C2519 H2533 0.961 . S
C2519 H2534 0.961 . S
C2519 H2535 0.961 . S
C2520 C2521 1.370 . S
C2520 C2522 1.363 . S
C2520 H2536 0.931 . S
C2521 C2520 1.370 . S
C2521 C2525 1.408 . S
C2522 C2520 1.363 . S
C2522 C2523 1.370 . S
C2522 C2526 1.524 . S
C2523 C2515 1.503 . S
C2523 C2522 1.370 . S
C2523 C2524 1.403 . S
C2524 C2523 1.403 . S
C2524 C2525 1.404 . S
C2524 C2527 1.539 . S
C2525 C2521 1.408 . S
C2525 C2524 1.404 . S
C2525 H2537 0.930 . S
C2526 C2522 1.524 . S
C2526 H2538 0.956 . S
C2526 H2539 0.961 . S
C2526 H2540 0.961 . S
C2527 C2524 1.539 . S
C2527 H2541 0.958 . S
C2527 H2542 0.961 . S
C2527 H2543 0.960 . S
H2528 C2512 0.931 . S
H2529 C2517 0.929 . S
H2530 C2518 0.960 . S
H2531 C2518 0.962 . S
H2532 C2518 0.960 . S
H2533 C2519 0.961 . S
H2534 C2519 0.961 . S
H2535 C2519 0.961 . S
H2536 C2520 0.931 . S
H2537 C2525 0.930 . S
H2538 C2526 0.956 . S
H2539 C2526 0.961 . S
H2540 C2526 0.961 . S
H2541 C2527 0.958 . S
H2542 C2527 0.961 . S
H2543 C2527 0.960 . S
C2544 C2545 1.391 . S
C2544 C2546 1.394 . S
C2544 H2560 0.931 . S
C2545 C2544 1.391 . S
C2545 C2549 1.376 . S
C2546 C2544 1.394 . S
C2546 C2547 1.369 . S
C2546 C2550 1.531 . S
C2547 C2546 1.369 . S
C2547 C2548 1.410 . S
C2547 C2555 1.503 . S
C2548 C2547 1.410 . S
C2548 C2549 1.392 . S
C2548 C2551 1.511 . S
C2549 C2545 1.376 . S
C2549 C2548 1.392 . S
C2549 H2561 0.929 . S
C2550 C2546 1.531 . S
C2550 H2562 0.960 . S
C2550 H2563 0.962 . S
C2550 H2564 0.960 . S
C2551 C2548 1.511 . S
C2551 H2565 0.961 . S
C2551 H2566 0.961 . S
C2551 H2567 0.961 . S
C2552 C2553 1.370 . S
C2552 C2554 1.363 . S
C2552 H2568 0.931 . S
C2553 C2552 1.370 . S
C2553 C2557 1.408 . S
C2554 C2552 1.363 . S
C2554 C2555 1.370 . S
C2554 C2558 1.524 . S
C2555 C2547 1.503 . S
C2555 C2554 1.370 . S
C2555 C2556 1.403 . S
C2556 C2555 1.403 . S
C2556 C2557 1.404 . S
C2556 C2559 1.539 . S
C2557 C2553 1.408 . S
C2557 C2556 1.404 . S
C2557 H2569 0.930 . S
C2558 C2554 1.524 . S
C2558 H2570 0.956 . S
C2558 H2571 0.961 . S
C2558 H2572 0.961 . S
C2559 C2556 1.539 . S
C2559 H2573 0.958 . S
C2559 H2574 0.961 . S
C2559 H2575 0.960 . S
H2560 C2544 0.931 . S
H2561 C2549 0.929 . S
H2562 C2550 0.960 . S
H2563 C2550 0.962 . S
H2564 C2550 0.960 . S
H2565 C2551 0.961 . S
H2566 C2551 0.961 . S
H2567 C2551 0.961 . S
H2568 C2552 0.931 . S
H2569 C2557 0.930 . S
H2570 C2558 0.956 . S
H2571 C2558 0.961 . S
H2572 C2558 0.961 . S
H2573 C2559 0.958 . S
H2574 C2559 0.961 . S
H2575 C2559 0.960 . S
C2576 C2577 1.391 . S
C2576 C2578 1.394 . S
C2576 H2592 0.931 . S
C2577 C2576 1.391 . S
C2577 C2581 1.376 . S
C2578 C2576 1.394 . S
C2578 C2579 1.369 . S
C2578 C2582 1.531 1_556 S
C2579 C2578 1.369 . S
C2579 C2580 1.410 . S
C2579 C2587 1.503 . S
C2580 C2579 1.410 . S
C2580 C2581 1.392 . S
C2580 C2583 1.511 . S
C2581 C2577 1.376 . S
C2581 C2580 1.392 . S
C2581 H2593 0.929 . S
C2582 C2578 1.531 1_554 S
C2582 H2594 0.960 . S
C2582 H2595 0.962 1_455 S
C2582 H2596 0.960 . S
C2583 C2580 1.511 . S
C2583 H2597 0.961 . S
C2583 H2598 0.961 . S
C2583 H2599 0.961 . S
C2584 C2585 1.358 1_556 S
C2584 C2586 1.363 . S
C2584 H2600 0.931 . S
C2585 C2584 1.358 1_554 S
C2585 C2589 1.419 . S
C2586 C2584 1.363 . S
C2586 C2587 1.370 . S
C2586 C2590 1.524 . S
C2587 C2579 1.503 . S
C2587 C2586 1.370 . S
C2587 C2588 1.403 1_556 S
C2588 C2587 1.403 1_554 S
C2588 C2589 1.404 . S
C2588 C2591 1.539 . S
C2589 C2585 1.419 . S
C2589 C2588 1.404 . S
C2589 H2601 0.930 . S
C2590 C2586 1.524 . S
C2590 H2602 0.956 1_455 S
C2590 H2603 0.961 . S
C2590 H2604 0.961 1_455 S
C2591 C2588 1.539 . S
C2591 H2605 0.958 . S
C2591 H2606 0.961 . S
C2591 H2607 0.960 . S
H2592 C2576 0.931 . S
H2593 C2581 0.929 . S
H2594 C2582 0.960 . S
H2595 C2582 0.962 1_655 S
H2596 C2582 0.960 . S
H2597 C2583 0.961 . S
H2598 C2583 0.961 . S
H2599 C2583 0.961 . S
H2600 C2584 0.931 . S
H2601 C2589 0.930 . S
H2602 C2590 0.956 1_655 S
H2603 C2590 0.961 . S
H2604 C2590 0.961 1_655 S
H2605 C2591 0.958 . S
H2606 C2591 0.961 . S
H2607 C2591 0.960 . S
C2608 C2609 1.391 . S
C2608 C2610 1.394 1_455 S
C2608 H2624 0.931 . S
C2609 C2608 1.391 . S
C2609 C2613 1.376 . S
C2610 C2608 1.394 1_655 S
C2610 C2611 1.369 . S
C2610 C2614 1.531 . S
C2611 C2610 1.369 . S
C2611 C2612 1.410 1_655 S
C2611 C2619 1.503 . S
C2612 C2611 1.410 1_455 S
C2612 C2613 1.392 . S
C2612 C2615 1.511 . S
C2613 C2609 1.376 . S
C2613 C2612 1.392 . S
C2613 H2625 0.929 . S
C2614 C2610 1.531 . S
C2614 H2626 0.960 . S
C2614 H2627 0.962 . S
C2614 H2628 0.960 . S
C2615 C2612 1.511 . S
C2615 H2629 0.961 . S
C2615 H2630 0.961 1_455 S
C2615 H2631 0.961 . S
C2616 C2617 1.370 . S
C2616 C2618 1.363 . S
C2616 H2632 0.931 . S
C2617 C2616 1.370 . S
C2617 C2621 1.408 . S
C2618 C2616 1.363 . S
C2618 C2619 1.370 . S
C2618 C2622 1.524 . S
C2619 C2611 1.503 . S
C2619 C2618 1.370 . S
C2619 C2620 1.403 . S
C2620 C2619 1.403 . S
C2620 C2621 1.404 . S
C2620 C2623 1.539 . S
C2621 C2617 1.408 . S
C2621 C2620 1.404 . S
C2621 H2633 0.930 . S
C2622 C2618 1.524 . S
C2622 H2634 0.956 . S
C2622 H2635 0.961 . S
C2622 H2636 0.961 . S
C2623 C2620 1.539 . S
C2623 H2637 0.958 . S
C2623 H2638 0.961 . S
C2623 H2639 0.960 . S
H2624 C2608 0.931 . S
H2625 C2613 0.929 . S
H2626 C2614 0.960 . S
H2627 C2614 0.962 . S
H2628 C2614 0.960 . S
H2629 C2615 0.961 . S
H2630 C2615 0.961 1_655 S
H2631 C2615 0.961 . S
H2632 C2616 0.931 . S
H2633 C2621 0.930 . S
H2634 C2622 0.956 . S
H2635 C2622 0.961 . S
H2636 C2622 0.961 . S
H2637 C2623 0.958 . S
H2638 C2623 0.961 . S
H2639 C2623 0.960 . S
C2640 C2641 1.391 . S
C2640 C2642 1.394 . S
C2640 H2656 0.931 . S
C2641 C2640 1.391 . S
C2641 C2645 1.376 . S
C2642 C2640 1.394 . S
C2642 C2643 1.369 . S
C2642 C2646 1.531 . S
C2643 C2642 1.369 . S
C2643 C2644 1.410 . S
C2643 C2651 1.503 . S
C2644 C2643 1.410 . S
C2644 C2645 1.392 . S
C2644 C2647 1.511 . S
C2645 C2641 1.376 . S
C2645 C2644 1.392 . S
C2645 H2657 0.929 . S
C2646 C2642 1.531 . S
C2646 H2658 0.960 . S
C2646 H2659 0.962 . S
C2646 H2660 0.960 . S
C2647 C2644 1.511 . S
C2647 H2661 0.961 . S
C2647 H2662 0.961 . S
C2647 H2663 0.961 . S
C2648 C2649 1.370 . S
C2648 C2650 1.363 . S
C2648 H2664 0.931 . S
C2649 C2648 1.370 . S
C2649 C2653 1.408 . S
C2650 C2648 1.363 . S
C2650 C2651 1.370 . S
C2650 C2654 1.524 . S
C2651 C2643 1.503 . S
C2651 C2650 1.370 . S
C2651 C2652 1.403 . S
C2652 C2651 1.403 . S
C2652 C2653 1.404 . S
C2652 C2655 1.539 . S
C2653 C2649 1.408 . S
C2653 C2652 1.404 . S
C2653 H2665 0.930 . S
C2654 C2650 1.524 . S
C2654 H2666 0.956 . S
C2654 H2667 0.961 . S
C2654 H2668 0.961 . S
C2655 C2652 1.539 . S
C2655 H2669 0.958 . S
C2655 H2670 0.961 . S
C2655 H2671 0.960 . S
H2656 C2640 0.931 . S
H2657 C2645 0.929 . S
H2658 C2646 0.960 . S
H2659 C2646 0.962 . S
H2660 C2646 0.960 . S
H2661 C2647 0.961 . S
H2662 C2647 0.961 . S
H2663 C2647 0.961 . S
H2664 C2648 0.931 . S
H2665 C2653 0.930 . S
H2666 C2654 0.956 . S
H2667 C2654 0.961 . S
H2668 C2654 0.961 . S
H2669 C2655 0.958 . S
H2670 C2655 0.961 . S
H2671 C2655 0.960 . S
C2672 C2673 1.391 . S
C2672 C2674 1.394 . S
C2672 H2688 0.931 . S
C2673 C2672 1.391 . S
C2673 C2677 1.376 . S
C2674 C2672 1.394 . S
C2674 C2675 1.369 . S
C2674 C2678 1.531 . S
C2675 C2674 1.369 . S
C2675 C2676 1.410 . S
C2675 C2683 1.503 1_455 S
C2676 C2675 1.410 . S
C2676 C2677 1.392 . S
C2676 C2679 1.538 . S
C2677 C2673 1.376 . S
C2677 C2676 1.392 . S
C2677 H2689 0.929 . S
C2678 C2674 1.531 . S
C2678 H2690 0.960 . S
C2678 H2691 0.962 . S
C2678 H2692 0.960 . S
C2679 C2676 1.538 . S
C2679 H2693 0.964 . S
C2679 H2694 0.933 1_455 S
C2679 H2695 0.960 1_455 S
C2680 C2681 1.370 . S
C2680 C2682 1.363 . S
C2680 H2696 0.931 . S
C2681 C2680 1.370 . S
C2681 C2685 1.408 . S
C2682 C2680 1.363 . S
C2682 C2683 1.370 . S
C2682 C2686 1.524 1_655 S
C2683 C2675 1.503 1_655 S
C2683 C2682 1.370 . S
C2683 C2684 1.403 . S
C2684 C2683 1.403 . S
C2684 C2685 1.404 . S
C2684 C2687 1.539 . S
C2685 C2681 1.408 . S
C2685 C2684 1.404 . S
C2685 H2697 0.930 . S
C2686 C2682 1.524 1_455 S
C2686 H2698 0.956 . S
C2686 H2699 0.961 . S
C2686 H2700 0.961 1_455 S
C2687 C2684 1.539 . S
C2687 H2701 0.958 . S
C2687 H2702 0.961 . S
C2687 H2703 0.960 . S
H2688 C2672 0.931 . S
H2689 C2677 0.929 . S
H2690 C2678 0.960 . S
H2691 C2678 0.962 . S
H2692 C2678 0.960 . S
H2693 C2679 0.964 . S
H2694 C2679 0.933 1_655 S
H2695 C2679 0.960 1_655 S
H2696 C2680 0.931 . S
H2697 C2685 0.930 . S
H2698 C2686 0.956 . S
H2699 C2686 0.961 . S
H2700 C2686 0.961 1_655 S
H2701 C2687 0.958 . S
H2702 C2687 0.961 . S
H2703 C2687 0.960 . S
C2704 C2705 1.391 . S
C2704 C2706 1.394 . S
C2704 H2720 0.931 . S
C2705 C2704 1.391 . S
C2705 C2709 1.376 1_655 S
C2706 C2704 1.394 . S
C2706 C2707 1.369 1_655 S
C2706 C2710 1.531 . S
C2707 C2706 1.369 1_455 S
C2707 C2708 1.410 . S
C2707 C2715 1.503 . S
C2708 C2707 1.410 . S
C2708 C2709 1.392 . S
C2708 C2711 1.511 . S
C2709 C2705 1.376 1_455 S
C2709 C2708 1.392 . S
C2709 H2721 0.929 . S
C2710 C2706 1.531 . S
C2710 H2722 0.960 . S
C2710 H2723 0.962 . S
C2710 H2724 0.960 . S
C2711 C2708 1.511 . S
C2711 H2725 0.961 . S
C2711 H2726 0.961 . S
C2711 H2727 0.961 . S
C2712 C2713 1.370 . S
C2712 C2714 1.363 . S
C2712 H2728 0.931 . S
C2713 C2712 1.370 . S
C2713 C2717 1.408 . S
C2714 C2712 1.363 . S
C2714 C2715 1.370 . S
C2714 C2718 1.524 . S
C2715 C2707 1.503 . S
C2715 C2714 1.370 . S
C2715 C2716 1.403 . S
C2716 C2715 1.403 . S
C2716 C2717 1.404 . S
C2716 C2719 1.539 1_455 S
C2717 C2713 1.408 . S
C2717 C2716 1.404 . S
C2717 H2729 0.930 . S
C2718 C2714 1.524 . S
C2718 H2730 0.956 . S
C2718 H2731 0.961 . S
C2718 H2732 0.961 . S
C2719 C2716 1.539 1_655 S
C2719 H2733 0.958 . S
C2719 H2734 0.961 . S
C2719 H2735 0.960 . S
H2720 C2704 0.931 . S
H2721 C2709 0.929 . S
H2722 C2710 0.960 . S
H2723 C2710 0.962 . S
H2724 C2710 0.960 . S
H2725 C2711 0.961 . S
H2726 C2711 0.961 . S
H2727 C2711 0.961 . S
H2728 C2712 0.931 . S
H2729 C2717 0.930 . S
H2730 C2718 0.956 . S
H2731 C2718 0.961 . S
H2732 C2718 0.961 . S
H2733 C2719 0.958 . S
H2734 C2719 0.961 . S
H2735 C2719 0.960 . S
C2736 C2737 1.391 . S
C2736 C2738 1.394 . S
C2736 H2752 0.931 . S
C2737 C2736 1.391 . S
C2737 C2741 1.376 . S
C2738 C2736 1.394 . S
C2738 C2739 1.369 . S
C2738 C2742 1.531 . S
C2739 C2738 1.369 . S
C2739 C2740 1.410 . S
C2739 C2747 1.503 . S
C2740 C2739 1.410 . S
C2740 C2741 1.392 . S
C2740 C2743 1.511 . S
C2741 C2737 1.376 . S
C2741 C2740 1.392 . S
C2741 H2753 0.929 . S
C2742 C2738 1.531 . S
C2742 H2754 0.960 . S
C2742 H2755 0.962 . S
C2742 H2756 0.960 . S
C2743 C2740 1.511 . S
C2743 H2757 0.961 . S
C2743 H2758 0.961 . S
C2743 H2759 0.961 . S
C2744 C2745 1.370 . S
C2744 C2746 1.363 . S
C2744 H2760 0.931 . S
C2745 C2744 1.370 . S
C2745 C2749 1.408 . S
C2746 C2744 1.363 . S
C2746 C2747 1.370 . S
C2746 C2750 1.524 . S
C2747 C2739 1.503 . S
C2747 C2746 1.370 . S
C2747 C2748 1.403 . S
C2748 C2747 1.403 . S
C2748 C2749 1.404 . S
C2748 C2751 1.539 . S
C2749 C2745 1.408 . S
C2749 C2748 1.404 . S
C2749 H2761 0.930 . S
C2750 C2746 1.524 . S
C2750 H2762 0.956 . S
C2750 H2763 0.961 . S
C2750 H2764 0.961 . S
C2751 C2748 1.539 . S
C2751 H2765 0.958 . S
C2751 H2766 0.961 . S
C2751 H2767 0.960 . S
H2752 C2736 0.931 . S
H2753 C2741 0.929 . S
H2754 C2742 0.960 . S
H2755 C2742 0.962 . S
H2756 C2742 0.960 . S
H2757 C2743 0.961 . S
H2758 C2743 0.961 . S
H2759 C2743 0.961 . S
H2760 C2744 0.931 . S
H2761 C2749 0.930 . S
H2762 C2750 0.956 . S
H2763 C2750 0.961 . S
H2764 C2750 0.961 . S
H2765 C2751 0.958 . S
H2766 C2751 0.961 . S
H2767 C2751 0.960 . S
C2768 C2769 1.391 . S
C2768 C2770 1.394 . S
C2768 H2784 0.931 . S
C2769 C2768 1.391 . S
C2769 C2773 1.376 . S
C2770 C2768 1.394 . S
C2770 C2771 1.369 . S
C2770 C2774 1.531 . S
C2771 C2770 1.369 . S
C2771 C2772 1.410 . S
C2771 C2779 1.503 . S
C2772 C2771 1.410 . S
C2772 C2773 1.392 . S
C2772 C2775 1.511 . S
C2773 C2769 1.376 . S
C2773 C2772 1.392 . S
C2773 H2785 0.929 . S
C2774 C2770 1.531 . S
C2774 H2786 0.960 . S
C2774 H2787 0.962 . S
C2774 H2788 0.960 . S
C2775 C2772 1.511 . S
C2775 H2789 0.961 . S
C2775 H2790 0.961 . S
C2775 H2791 0.961 . S
C2776 C2777 1.370 . S
C2776 C2778 1.363 . S
C2776 H2792 0.931 . S
C2777 C2776 1.370 . S
C2777 C2781 1.408 . S
C2778 C2776 1.363 . S
C2778 C2779 1.370 . S
C2778 C2782 1.524 . S
C2779 C2771 1.503 . S
C2779 C2778 1.370 . S
C2779 C2780 1.403 . S
C2780 C2779 1.403 . S
C2780 C2781 1.404 . S
C2780 C2783 1.539 . S
C2781 C2777 1.408 . S
C2781 C2780 1.404 . S
C2781 H2793 0.930 . S
C2782 C2778 1.524 . S
C2782 H2794 0.956 . S
C2782 H2795 0.961 . S
C2782 H2796 0.961 . S
C2783 C2780 1.539 . S
C2783 H2797 0.958 . S
C2783 H2798 0.961 . S
C2783 H2799 0.960 . S
H2784 C2768 0.931 . S
H2785 C2773 0.929 . S
H2786 C2774 0.960 . S
H2787 C2774 0.962 . S
H2788 C2774 0.960 . S
H2789 C2775 0.961 . S
H2790 C2775 0.961 . S
H2791 C2775 0.961 . S
H2792 C2776 0.931 . S
H2793 C2781 0.930 . S
H2794 C2782 0.956 . S
H2795 C2782 0.961 . S
H2796 C2782 0.961 . S
H2797 C2783 0.958 . S
H2798 C2783 0.961 . S
H2799 C2783 0.960 . S
C2800 C2801 1.391 . S
C2800 C2802 1.394 . S
C2800 H2816 0.931 . S
C2801 C2800 1.391 . S
C2801 C2805 1.376 . S
C2802 C2800 1.394 . S
C2802 C2803 1.369 . S
C2802 C2806 1.531 . S
C2803 C2802 1.369 . S
C2803 C2804 1.410 . S
C2803 C2811 1.503 . S
C2804 C2803 1.410 . S
C2804 C2805 1.392 . S
C2804 C2807 1.511 . S
C2805 C2801 1.376 . S
C2805 C2804 1.392 . S
C2805 H2817 0.929 . S
C2806 C2802 1.531 . S
C2806 H2818 0.960 . S
C2806 H2819 0.962 . S
C2806 H2820 0.960 . S
C2807 C2804 1.511 . S
C2807 H2821 0.961 . S
C2807 H2822 0.961 . S
C2807 H2823 0.961 . S
C2808 C2809 1.370 . S
C2808 C2810 1.363 . S
C2808 H2824 0.931 . S
C2809 C2808 1.370 . S
C2809 C2813 1.408 . S
C2810 C2808 1.363 . S
C2810 C2811 1.370 . S
C2810 C2814 1.524 . S
C2811 C2803 1.503 . S
C2811 C2810 1.370 . S
C2811 C2812 1.403 . S
C2812 C2811 1.403 . S
C2812 C2813 1.404 . S
C2812 C2815 1.539 . S
C2813 C2809 1.408 . S
C2813 C2812 1.404 . S
C2813 H2825 0.930 . S
C2814 C2810 1.524 . S
C2814 H2826 0.956 . S
C2814 H2827 0.961 . S
C2814 H2828 0.961 . S
C2815 C2812 1.539 . S
C2815 H2829 0.958 . S
C2815 H2830 0.961 . S
C2815 H2831 0.960 . S
H2816 C2800 0.931 . S
H2817 C2805 0.929 . S
H2818 C2806 0.960 . S
H2819 C2806 0.962 . S
H2820 C2806 0.960 . S
H2821 C2807 0.961 . S
H2822 C2807 0.961 . S
H2823 C2807 0.961 . S
H2824 C2808 0.931 . S
H2825 C2813 0.930 . S
H2826 C2814 0.956 . S
H2827 C2814 0.961 . S
H2828 C2814 0.961 . S
H2829 C2815 0.958 . S
H2830 C2815 0.961 . S
H2831 C2815 0.960 . S
C2832 C2833 1.391 . S
C2832 C2834 1.394 . S
C2832 H2848 0.931 . S
C2833 C2832 1.391 . S
C2833 C2837 1.376 . S
C2834 C2832 1.394 . S
C2834 C2835 1.369 . S
C2834 C2838 1.531 . S
C2835 C2834 1.369 . S
C2835 C2836 1.410 . S
C2835 C2843 1.503 . S
C2836 C2835 1.410 . S
C2836 C2837 1.392 . S
C2836 C2839 1.511 . S
C2837 C2833 1.376 . S
C2837 C2836 1.392 . S
C2837 H2849 0.929 . S
C2838 C2834 1.531 . S
C2838 H2850 0.960 . S
C2838 H2851 0.962 . S
C2838 H2852 0.960 . S
C2839 C2836 1.511 . S
C2839 H2853 0.961 . S
C2839 H2854 0.961 . S
C2839 H2855 0.961 . S
C2840 C2841 1.370 . S
C2840 C2842 1.363 . S
C2840 H2856 0.931 . S
C2841 C2840 1.370 . S
C2841 C2845 1.408 . S
C2842 C2840 1.363 . S
C2842 C2843 1.370 . S
C2842 C2846 1.524 . S
C2843 C2835 1.503 . S
C2843 C2842 1.370 . S
C2843 C2844 1.403 . S
C2844 C2843 1.403 . S
C2844 C2845 1.404 . S
C2844 C2847 1.539 . S
C2845 C2841 1.408 . S
C2845 C2844 1.404 . S
C2845 H2857 0.930 . S
C2846 C2842 1.524 . S
C2846 H2858 0.956 . S
C2846 H2859 0.961 . S
C2846 H2860 0.961 . S
C2847 C2844 1.539 . S
C2847 H2861 0.958 . S
C2847 H2862 0.961 . S
C2847 H2863 0.960 . S
H2848 C2832 0.931 . S
H2849 C2837 0.929 . S
H2850 C2838 0.960 . S
H2851 C2838 0.962 . S
H2852 C2838 0.960 . S
H2853 C2839 0.961 . S
H2854 C2839 0.961 . S
H2855 C2839 0.961 . S
H2856 C2840 0.931 . S
H2857 C2845 0.930 . S
H2858 C2846 0.956 . S
H2859 C2846 0.961 . S
H2860 C2846 0.961 . S
H2861 C2847 0.958 . S
H2862 C2847 0.961 . S
H2863 C2847 0.960 . S
C2864 C2865 1.391 . S
C2864 C2866 1.394 . S
C2864 H2880 0.931 . S
C2865 C2864 1.391 . S
C2865 C2869 1.376 . S
C2866 C2864 1.394 . S
C2866 C2867 1.369 . S
C2866 C2870 1.531 . S
C2867 C2866 1.369 . S
C2867 C2868 1.410 . S
C2867 C2875 1.503 . S
C2868 C2867 1.410 . S
C2868 C2869 1.392 . S
C2868 C2871 1.511 . S
C2869 C2865 1.376 . S
C2869 C2868 1.392 . S
C2869 H2881 0.929 . S
C2870 C2866 1.531 . S
C2870 H2882 0.960 . S
C2870 H2883 0.962 . S
C2870 H2884 0.960 . S
C2871 C2868 1.511 . S
C2871 H2885 0.961 . S
C2871 H2886 0.961 . S
C2871 H2887 0.961 . S
C2872 C2873 1.370 . S
C2872 C2874 1.363 . S
C2872 H2888 0.931 . S
C2873 C2872 1.370 . S
C2873 C2877 1.408 . S
C2874 C2872 1.363 . S
C2874 C2875 1.370 . S
C2874 C2878 1.524 . S
C2875 C2867 1.503 . S
C2875 C2874 1.370 . S
C2875 C2876 1.403 . S
C2876 C2875 1.403 . S
C2876 C2877 1.404 . S
C2876 C2879 1.539 . S
C2877 C2873 1.408 . S
C2877 C2876 1.404 . S
C2877 H2889 0.930 . S
C2878 C2874 1.524 . S
C2878 H2890 0.956 . S
C2878 H2891 0.961 . S
C2878 H2892 0.961 . S
C2879 C2876 1.539 . S
C2879 H2893 0.958 . S
C2879 H2894 0.961 . S
C2879 H2895 0.960 . S
H2880 C2864 0.931 . S
H2881 C2869 0.929 . S
H2882 C2870 0.960 . S
H2883 C2870 0.962 . S
H2884 C2870 0.960 . S
H2885 C2871 0.961 . S
H2886 C2871 0.961 . S
H2887 C2871 0.961 . S
H2888 C2872 0.931 . S
H2889 C2877 0.930 . S
H2890 C2878 0.956 . S
H2891 C2878 0.961 . S
H2892 C2878 0.961 . S
H2893 C2879 0.958 . S
H2894 C2879 0.961 . S
H2895 C2879 0.960 . S
C2896 C2897 1.391 . S
C2896 C2898 1.394 . S
C2896 H2912 0.931 . S
C2897 C2896 1.391 . S
C2897 C2901 1.376 . S
C2898 C2896 1.394 . S
C2898 C2899 1.369 . S
C2898 C2902 1.531 . S
C2899 C2898 1.369 . S
C2899 C2900 1.410 . S
C2899 C2907 1.503 . S
C2900 C2899 1.410 . S
C2900 C2901 1.392 . S
C2900 C2903 1.511 . S
C2901 C2897 1.376 . S
C2901 C2900 1.392 . S
C2901 H2913 0.929 . S
C2902 C2898 1.531 . S
C2902 H2914 0.960 . S
C2902 H2915 0.962 . S
C2902 H2916 0.960 . S
C2903 C2900 1.511 . S
C2903 H2917 0.961 . S
C2903 H2918 0.961 . S
C2903 H2919 0.961 . S
C2904 C2905 1.370 . S
C2904 C2906 1.363 . S
C2904 H2920 0.931 . S
C2905 C2904 1.370 . S
C2905 C2909 1.408 . S
C2906 C2904 1.363 . S
C2906 C2907 1.370 . S
C2906 C2910 1.524 . S
C2907 C2899 1.503 . S
C2907 C2906 1.370 . S
C2907 C2908 1.403 . S
C2908 C2907 1.403 . S
C2908 C2909 1.404 . S
C2908 C2911 1.539 . S
C2909 C2905 1.408 . S
C2909 C2908 1.404 . S
C2909 H2921 0.930 . S
C2910 C2906 1.524 . S
C2910 H2922 0.956 . S
C2910 H2923 0.961 . S
C2910 H2924 0.961 . S
C2911 C2908 1.539 . S
C2911 H2925 0.958 . S
C2911 H2926 0.961 . S
C2911 H2927 0.960 . S
H2912 C2896 0.931 . S
H2913 C2901 0.929 . S
H2914 C2902 0.960 . S
H2915 C2902 0.962 . S
H2916 C2902 0.960 . S
H2917 C2903 0.961 . S
H2918 C2903 0.961 . S
H2919 C2903 0.961 . S
H2920 C2904 0.931 . S
H2921 C2909 0.930 . S
H2922 C2910 0.956 . S
H2923 C2910 0.961 . S
H2924 C2910 0.961 . S
H2925 C2911 0.958 . S
H2926 C2911 0.961 . S
H2927 C2911 0.960 . S
C2928 C2929 1.391 . S
C2928 C2930 1.394 . S
C2928 H2944 0.931 . S
C2929 C2928 1.391 . S
C2929 C2933 1.376 . S
C2930 C2928 1.394 . S
C2930 C2931 1.369 . S
C2930 C2934 1.531 . S
C2931 C2930 1.369 . S
C2931 C2932 1.410 . S
C2931 C2939 1.503 . S
C2932 C2931 1.410 . S
C2932 C2933 1.392 . S
C2932 C2935 1.511 . S
C2933 C2929 1.376 . S
C2933 C2932 1.392 . S
C2933 H2945 0.929 . S
C2934 C2930 1.531 . S
C2934 H2946 0.960 . S
C2934 H2947 0.962 . S
C2934 H2948 0.960 . S
C2935 C2932 1.511 . S
C2935 H2949 0.961 . S
C2935 H2950 0.961 . S
C2935 H2951 0.961 . S
C2936 C2937 1.370 . S
C2936 C2938 1.363 . S
C2936 H2952 0.931 . S
C2937 C2936 1.370 . S
C2937 C2941 1.408 . S
C2938 C2936 1.363 . S
C2938 C2939 1.370 . S
C2938 C2942 1.524 . S
C2939 C2931 1.503 . S
C2939 C2938 1.370 . S
C2939 C2940 1.403 . S
C2940 C2939 1.403 . S
C2940 C2941 1.404 . S
C2940 C2943 1.539 . S
C2941 C2937 1.408 . S
C2941 C2940 1.404 . S
C2941 H2953 0.930 . S
C2942 C2938 1.524 . S
C2942 H2954 0.956 . S
C2942 H2955 0.961 . S
C2942 H2956 0.961 . S
C2943 C2940 1.539 . S
C2943 H2957 0.958 . S
C2943 H2958 0.961 . S
C2943 H2959 0.960 . S
H2944 C2928 0.931 . S
H2945 C2933 0.929 . S
H2946 C2934 0.960 . S
H2947 C2934 0.962 . S
H2948 C2934 0.960 . S
H2949 C2935 0.961 . S
H2950 C2935 0.961 . S
H2951 C2935 0.961 . S
H2952 C2936 0.931 . S
H2953 C2941 0.930 . S
H2954 C2942 0.956 . S
H2955 C2942 0.961 . S
H2956 C2942 0.961 . S
H2957 C2943 0.958 . S
H2958 C2943 0.961 . S
H2959 C2943 0.960 . S
C2960 C2961 1.391 . S
C2960 C2962 1.394 . S
C2960 H2976 0.931 . S
C2961 C2960 1.391 . S
C2961 C2965 1.376 . S
C2962 C2960 1.394 . S
C2962 C2963 1.369 . S
C2962 C2966 1.531 . S
C2963 C2962 1.369 . S
C2963 C2964 1.410 . S
C2963 C2971 1.503 . S
C2964 C2963 1.410 . S
C2964 C2965 1.392 . S
C2964 C2967 1.511 . S
C2965 C2961 1.376 . S
C2965 C2964 1.392 . S
C2965 H2977 0.929 . S
C2966 C2962 1.531 . S
C2966 H2978 0.960 . S
C2966 H2979 0.962 . S
C2966 H2980 0.960 . S
C2967 C2964 1.511 . S
C2967 H2981 0.961 . S
C2967 H2982 0.961 . S
C2967 H2983 0.961 . S
C2968 C2969 1.370 . S
C2968 C2970 1.363 . S
C2968 H2984 0.931 . S
C2969 C2968 1.370 . S
C2969 C2973 1.408 . S
C2970 C2968 1.363 . S
C2970 C2971 1.370 . S
C2970 C2974 1.524 . S
C2971 C2963 1.503 . S
C2971 C2970 1.370 . S
C2971 C2972 1.403 . S
C2972 C2971 1.403 . S
C2972 C2973 1.404 . S
C2972 C2975 1.539 . S
C2973 C2969 1.408 . S
C2973 C2972 1.404 . S
C2973 H2985 0.930 . S
C2974 C2970 1.524 . S
C2974 H2986 0.956 . S
C2974 H2987 0.961 . S
C2974 H2988 0.961 . S
C2975 C2972 1.539 . S
C2975 H2989 0.958 . S
C2975 H2990 0.961 . S
C2975 H2991 0.960 . S
H2976 C2960 0.931 . S
H2977 C2965 0.929 . S
H2978 C2966 0.960 . S
H2979 C2966 0.962 . S
H2980 C2966 0.960 . S
H2981 C2967 0.961 . S
H2982 C2967 0.961 . S
H2983 C2967 0.961 . S
H2984 C2968 0.931 . S
H2985 C2973 0.930 . S
H2986 C2974 0.956 . S
H2987 C2974 0.961 . S
H2988 C2974 0.961 . S
H2989 C2975 0.958 . S
H2990 C2975 0.961 . S
H2991 C2975 0.960 . S
C2992 C2993 1.391 . S
C2992 C2994 1.394 . S
C2992 H3008 0.931 . S
C2993 C2992 1.391 . S
C2993 C2997 1.376 . S
C2994 C2992 1.394 . S
C2994 C2995 1.369 . S
C2994 C2998 1.531 . S
C2995 C2994 1.369 . S
C2995 C2996 1.410 . S
C2995 C3003 1.503 . S
C2996 C2995 1.410 . S
C2996 C2997 1.392 . S
C2996 C2999 1.511 . S
C2997 C2993 1.376 . S
C2997 C2996 1.392 . S
C2997 H3009 0.929 . S
C2998 C2994 1.531 . S
C2998 H3010 0.960 . S
C2998 H3011 0.962 . S
C2998 H3012 0.960 . S
C2999 C2996 1.511 . S
C2999 H3013 0.961 . S
C2999 H3014 0.961 . S
C2999 H3015 0.961 . S
C3000 C3001 1.370 . S
C3000 C3002 1.363 . S
C3000 H3016 0.931 . S
C3001 C3000 1.370 . S
C3001 C3005 1.408 . S
C3002 C3000 1.363 . S
C3002 C3003 1.370 . S
C3002 C3006 1.524 . S
C3003 C2995 1.503 . S
C3003 C3002 1.370 . S
C3003 C3004 1.403 . S
C3004 C3003 1.403 . S
C3004 C3005 1.404 . S
C3004 C3007 1.539 . S
C3005 C3001 1.408 . S
C3005 C3004 1.404 . S
C3005 H3017 0.930 . S
C3006 C3002 1.524 . S
C3006 H3018 0.956 . S
C3006 H3019 0.961 . S
C3006 H3020 0.961 . S
C3007 C3004 1.539 . S
C3007 H3021 0.958 . S
C3007 H3022 0.961 . S
C3007 H3023 0.960 . S
H3008 C2992 0.931 . S
H3009 C2997 0.929 . S
H3010 C2998 0.960 . S
H3011 C2998 0.962 . S
H3012 C2998 0.960 . S
H3013 C2999 0.961 . S
H3014 C2999 0.961 . S
H3015 C2999 0.961 . S
H3016 C3000 0.931 . S
H3017 C3005 0.930 . S
H3018 C3006 0.956 . S
H3019 C3006 0.961 . S
H3020 C3006 0.961 . S
H3021 C3007 0.958 . S
H3022 C3007 0.961 . S
H3023 C3007 0.960 . S
C3024 C3025 1.391 . S
C3024 C3026 1.394 . S
C3024 H3040 0.931 . S
C3025 C3024 1.391 . S
C3025 C3029 1.376 . S
C3026 C3024 1.394 . S
C3026 C3027 1.369 . S
C3026 C3030 1.531 . S
C3027 C3026 1.369 . S
C3027 C3028 1.410 . S
C3027 C3035 1.503 . S
C3028 C3027 1.410 . S
C3028 C3029 1.392 . S
C3028 C3031 1.511 . S
C3029 C3025 1.376 . S
C3029 C3028 1.392 . S
C3029 H3041 0.929 . S
C3030 C3026 1.531 . S
C3030 H3042 0.960 . S
C3030 H3043 0.962 . S
C3030 H3044 0.960 . S
C3031 C3028 1.511 . S
C3031 H3045 0.961 . S
C3031 H3046 0.961 . S
C3031 H3047 0.961 . S
C3032 C3033 1.370 . S
C3032 C3034 1.363 . S
C3032 H3048 0.931 . S
C3033 C3032 1.370 . S
C3033 C3037 1.408 . S
C3034 C3032 1.363 . S
C3034 C3035 1.370 . S
C3034 C3038 1.524 . S
C3035 C3027 1.503 . S
C3035 C3034 1.370 . S
C3035 C3036 1.403 . S
C3036 C3035 1.403 . S
C3036 C3037 1.404 . S
C3036 C3039 1.539 . S
C3037 C3033 1.408 . S
C3037 C3036 1.404 . S
C3037 H3049 0.930 . S
C3038 C3034 1.524 . S
C3038 H3050 0.956 . S
C3038 H3051 0.961 . S
C3038 H3052 0.961 . S
C3039 C3036 1.539 . S
C3039 H3053 0.958 . S
C3039 H3054 0.961 . S
C3039 H3055 0.960 . S
H3040 C3024 0.931 . S
H3041 C3029 0.929 . S
H3042 C3030 0.960 . S
H3043 C3030 0.962 . S
H3044 C3030 0.960 . S
H3045 C3031 0.961 . S
H3046 C3031 0.961 . S
H3047 C3031 0.961 . S
H3048 C3032 0.931 . S
H3049 C3037 0.930 . S
H3050 C3038 0.956 . S
H3051 C3038 0.961 . S
H3052 C3038 0.961 . S
H3053 C3039 0.958 . S
H3054 C3039 0.961 . S
H3055 C3039 0.960 . S
C3056 C3057 1.391 . S
C3056 C3058 1.394 . S
C3056 H3072 0.931 . S
C3057 C3056 1.391 . S
C3057 C3061 1.376 . S
C3058 C3056 1.394 . S
C3058 C3059 1.369 . S
C3058 C3062 1.531 . S
C3059 C3058 1.369 . S
C3059 C3060 1.410 . S
C3059 C3067 1.503 . S
C3060 C3059 1.410 . S
C3060 C3061 1.392 . S
C3060 C3063 1.511 . S
C3061 C3057 1.376 . S
C3061 C3060 1.392 . S
C3061 H3073 0.929 . S
C3062 C3058 1.531 . S
C3062 H3074 0.960 . S
C3062 H3075 0.962 . S
C3062 H3076 0.960 . S
C3063 C3060 1.511 . S
C3063 H3077 0.961 . S
C3063 H3078 0.961 . S
C3063 H3079 0.961 . S
C3064 C3065 1.370 . S
C3064 C3066 1.363 . S
C3064 H3080 0.931 . S
C3065 C3064 1.370 . S
C3065 C3069 1.408 . S
C3066 C3064 1.363 . S
C3066 C3067 1.370 . S
C3066 C3070 1.524 . S
C3067 C3059 1.503 . S
C3067 C3066 1.370 . S
C3067 C3068 1.403 . S
C3068 C3067 1.403 . S
C3068 C3069 1.404 . S
C3068 C3071 1.539 . S
C3069 C3065 1.408 . S
C3069 C3068 1.404 . S
C3069 H3081 0.930 . S
C3070 C3066 1.524 . S
C3070 H3082 0.956 . S
C3070 H3083 0.961 . S
C3070 H3084 0.961 . S
C3071 C3068 1.539 . S
C3071 H3085 0.958 . S
C3071 H3086 0.961 . S
C3071 H3087 0.960 . S
H3072 C3056 0.931 . S
H3073 C3061 0.929 . S
H3074 C3062 0.960 . S
H3075 C3062 0.962 . S
H3076 C3062 0.960 . S
H3077 C3063 0.961 . S
H3078 C3063 0.961 . S
H3079 C3063 0.961 . S
H3080 C3064 0.931 . S
H3081 C3069 0.930 . S
H3082 C3070 0.956 . S
H3083 C3070 0.961 . S
H3084 C3070 0.961 . S
H3085 C3071 0.958 . S
H3086 C3071 0.961 . S
H3087 C3071 0.960 . S
C3088 C3089 1.391 . S
C3088 C3090 1.394 . S
C3088 H3104 0.931 . S
C3089 C3088 1.391 . S
C3089 C3093 1.376 . S
C3090 C3088 1.394 . S
C3090 C3091 1.369 . S
C3090 C3094 1.531 . S
C3091 C3090 1.369 . S
C3091 C3092 1.410 . S
C3091 C3099 1.503 . S
C3092 C3091 1.410 . S
C3092 C3093 1.392 . S
C3092 C3095 1.511 . S
C3093 C3089 1.376 . S
C3093 C3092 1.392 . S
C3093 H3105 0.929 . S
C3094 C3090 1.531 . S
C3094 H3106 0.960 . S
C3094 H3107 0.962 . S
C3094 H3108 0.960 . S
C3095 C3092 1.511 . S
C3095 H3109 0.961 . S
C3095 H3110 0.961 . S
C3095 H3111 0.961 . S
C3096 C3097 1.370 . S
C3096 C3098 1.363 . S
C3096 H3112 0.931 . S
C3097 C3096 1.370 . S
C3097 C3101 1.408 . S
C3098 C3096 1.363 . S
C3098 C3099 1.370 . S
C3098 C3102 1.524 . S
C3099 C3091 1.503 . S
C3099 C3098 1.370 . S
C3099 C3100 1.403 . S
C3100 C3099 1.403 . S
C3100 C3101 1.404 . S
C3100 C3103 1.539 . S
C3101 C3097 1.408 . S
C3101 C3100 1.404 . S
C3101 H3113 0.930 . S
C3102 C3098 1.524 . S
C3102 H3114 0.956 . S
C3102 H3115 0.961 . S
C3102 H3116 0.961 . S
C3103 C3100 1.539 . S
C3103 H3117 0.958 . S
C3103 H3118 0.961 . S
C3103 H3119 0.960 . S
H3104 C3088 0.931 . S
H3105 C3093 0.929 . S
H3106 C3094 0.960 . S
H3107 C3094 0.962 . S
H3108 C3094 0.960 . S
H3109 C3095 0.961 . S
H3110 C3095 0.961 . S
H3111 C3095 0.961 . S
H3112 C3096 0.931 . S
H3113 C3101 0.930 . S
H3114 C3102 0.956 . S
H3115 C3102 0.961 . S
H3116 C3102 0.961 . S
H3117 C3103 0.958 . S
H3118 C3103 0.961 . S
H3119 C3103 0.960 . S
C3120 C3121 1.391 . S
C3120 C3122 1.394 . S
C3120 H3136 0.931 . S
C3121 C3120 1.391 . S
C3121 C3125 1.376 . S
C3122 C3120 1.394 . S
C3122 C3123 1.369 . S
C3122 C3126 1.531 1_565 S
C3123 C3122 1.369 . S
C3123 C3124 1.410 . S
C3123 C3131 1.503 . S
C3124 C3123 1.410 . S
C3124 C3125 1.392 . S
C3124 C3127 1.511 1_554 S
C3125 C3121 1.376 . S
C3125 C3124 1.392 . S
C3125 H3137 0.929 1_554 S
C3126 C3122 1.531 1_545 S
C3126 H3138 0.960 . S
C3126 H3139 0.962 . S
C3126 H3140 0.960 . S
C3127 C3124 1.511 1_556 S
C3127 H3141 0.961 . S
C3127 H3142 0.961 . S
C3127 H3143 0.961 . S
C3128 C3129 1.370 1_556 S
C3128 C3130 1.363 . S
C3128 H3144 0.931 . S
C3129 C3128 1.370 1_554 S
C3129 C3133 1.413 . S
C3130 C3128 1.363 . S
C3130 C3131 1.370 1_546 S
C3130 C3134 1.524 . S
C3131 C3123 1.503 . S
C3131 C3130 1.370 1_564 S
C3131 C3132 1.403 . S
C3132 C3131 1.403 . S
C3132 C3133 1.402 1_565 S
C3132 C3135 1.539 . S
C3133 C3129 1.413 . S
C3133 C3132 1.402 1_545 S
C3133 H3145 0.919 1_545 S
C3134 C3130 1.524 . S
C3134 H3146 0.956 . S
C3134 H3147 0.961 1_545 S
C3134 H3148 0.961 . S
C3135 C3132 1.539 . S
C3135 H3149 0.958 . S
C3135 H3150 0.961 . S
C3135 H3151 0.960 . S
H3136 C3120 0.931 . S
H3137 C3125 0.929 1_556 S
H3138 C3126 0.960 . S
H3139 C3126 0.962 . S
H3140 C3126 0.960 . S
H3141 C3127 0.961 . S
H3142 C3127 0.961 . S
H3143 C3127 0.961 . S
H3144 C3128 0.931 . S
H3145 C3133 0.919 1_565 S
H3146 C3134 0.956 . S
H3147 C3134 0.961 1_565 S
H3148 C3134 0.961 . S
H3149 C3135 0.958 . S
H3150 C3135 0.961 . S
H3151 C3135 0.960 . S
C3152 C3153 1.391 . S
C3152 C3154 1.394 . S
C3152 H3168 0.931 . S
C3153 C3152 1.391 . S
C3153 C3157 1.376 . S
C3154 C3152 1.394 . S
C3154 C3155 1.369 . S
C3154 C3158 1.531 . S
C3155 C3154 1.369 . S
C3155 C3156 1.410 . S
C3155 C3163 1.503 . S
C3156 C3155 1.410 . S
C3156 C3157 1.392 . S
C3156 C3159 1.511 . S
C3157 C3153 1.376 . S
C3157 C3156 1.392 . S
C3157 H3169 0.929 . S
C3158 C3154 1.531 . S
C3158 H3170 0.960 . S
C3158 H3171 0.962 . S
C3158 H3172 0.960 . S
C3159 C3156 1.511 . S
C3159 H3173 0.961 . S
C3159 H3174 0.961 . S
C3159 H3175 0.961 . S
C3160 C3161 1.370 . S
C3160 C3162 1.363 . S
C3160 H3176 0.931 . S
C3161 C3160 1.370 . S
C3161 C3165 1.408 . S
C3162 C3160 1.363 . S
C3162 C3163 1.370 . S
C3162 C3166 1.524 . S
C3163 C3155 1.503 . S
C3163 C3162 1.370 . S
C3163 C3164 1.403 . S
C3164 C3163 1.403 . S
C3164 C3165 1.404 . S
C3164 C3167 1.539 . S
C3165 C3161 1.408 . S
C3165 C3164 1.404 . S
C3165 H3177 0.930 . S
C3166 C3162 1.524 . S
C3166 H3178 0.956 . S
C3166 H3179 0.961 . S
C3166 H3180 0.961 . S
C3167 C3164 1.539 . S
C3167 H3181 0.958 . S
C3167 H3182 0.961 . S
C3167 H3183 0.960 . S
H3168 C3152 0.931 . S
H3169 C3157 0.929 . S
H3170 C3158 0.960 . S
H3171 C3158 0.962 . S
H3172 C3158 0.960 . S
H3173 C3159 0.961 . S
H3174 C3159 0.961 . S
H3175 C3159 0.961 . S
H3176 C3160 0.931 . S
H3177 C3165 0.930 . S
H3178 C3166 0.956 . S
H3179 C3166 0.961 . S
H3180 C3166 0.961 . S
H3181 C3167 0.958 . S
H3182 C3167 0.961 . S
H3183 C3167 0.960 . S
C3184 C3185 1.391 . S
C3184 C3186 1.394 . S
C3184 H3200 0.931 . S
C3185 C3184 1.391 . S
C3185 C3189 1.376 1_554 S
C3186 C3184 1.394 . S
C3186 C3187 1.369 . S
C3186 C3190 1.531 . S
C3187 C3186 1.369 . S
C3187 C3188 1.410 . S
C3187 C3195 1.503 . S
C3188 C3187 1.410 . S
C3188 C3189 1.392 1_554 S
C3188 C3191 1.511 1_554 S
C3189 C3185 1.376 1_556 S
C3189 C3188 1.392 1_556 S
C3189 H3201 0.929 . S
C3190 C3186 1.531 . S
C3190 H3202 0.960 . S
C3190 H3203 0.962 . S
C3190 H3204 0.960 . S
C3191 C3188 1.511 1_556 S
C3191 H3205 0.961 . S
C3191 H3206 0.961 1_556 S
C3191 H3207 0.961 . S
C3192 C3193 1.370 . S
C3192 C3194 1.363 . S
C3192 H3208 0.931 . S
C3193 C3192 1.370 . S
C3193 C3197 1.408 . S
C3194 C3192 1.363 . S
C3194 C3195 1.370 . S
C3194 C3198 1.524 . S
C3195 C3187 1.503 . S
C3195 C3194 1.370 . S
C3195 C3196 1.403 . S
C3196 C3195 1.403 . S
C3196 C3197 1.404 . S
C3196 C3199 1.539 1_554 S
C3197 C3193 1.408 . S
C3197 C3196 1.404 . S
C3197 H3209 0.930 . S
C3198 C3194 1.524 . S
C3198 H3210 0.956 . S
C3198 H3211 0.961 . S
C3198 H3212 0.961 . S
C3199 C3196 1.539 1_556 S
C3199 H3213 0.958 . S
C3199 H3214 0.961 . S
C3199 H3215 0.960 . S
H3200 C3184 0.931 . S
H3201 C3189 0.929 . S
H3202 C3190 0.960 . S
H3203 C3190 0.962 . S
H3204 C3190 0.960 . S
H3205 C3191 0.961 . S
H3206 C3191 0.961 1_554 S
H3207 C3191 0.961 . S
H3208 C3192 0.931 . S
H3209 C3197 0.930 . S
H3210 C3198 0.956 . S
H3211 C3198 0.961 . S
H3212 C3198 0.961 . S
H3213 C3199 0.958 . S
H3214 C3199 0.961 . S
H3215 C3199 0.960 . S
C3216 C3217 1.391 . S
C3216 C3218 1.394 . S
C3216 H3232 0.931 . S
C3217 C3216 1.391 . S
C3217 C3221 1.376 . S
C3218 C3216 1.394 . S
C3218 C3219 1.369 . S
C3218 C3222 1.531 . S
C3219 C3218 1.369 . S
C3219 C3220 1.410 . S
C3219 C3227 1.503 . S
C3220 C3219 1.410 . S
C3220 C3221 1.392 . S
C3220 C3223 1.511 . S
C3221 C3217 1.376 . S
C3221 C3220 1.392 . S
C3221 H3233 0.929 . S
C3222 C3218 1.531 . S
C3222 H3234 0.960 . S
C3222 H3235 0.962 . S
C3222 H3236 0.960 . S
C3223 C3220 1.511 . S
C3223 H3237 0.961 . S
C3223 H3238 0.961 . S
C3223 H3239 0.961 . S
C3224 C3225 1.370 . S
C3224 C3226 1.363 . S
C3224 H3240 0.931 . S
C3225 C3224 1.370 . S
C3225 C3229 1.408 . S
C3226 C3224 1.363 . S
C3226 C3227 1.370 . S
C3226 C3230 1.524 . S
C3227 C3219 1.503 . S
C3227 C3226 1.370 . S
C3227 C3228 1.403 . S
C3228 C3227 1.403 . S
C3228 C3229 1.404 . S
C3228 C3231 1.539 . S
C3229 C3225 1.408 . S
C3229 C3228 1.404 . S
C3229 H3241 0.930 . S
C3230 C3226 1.524 . S
C3230 H3242 0.956 . S
C3230 H3243 0.961 . S
C3230 H3244 0.961 . S
C3231 C3228 1.539 . S
C3231 H3245 0.958 . S
C3231 H3246 0.961 . S
C3231 H3247 0.960 . S
H3232 C3216 0.931 . S
H3233 C3221 0.929 . S
H3234 C3222 0.960 . S
H3235 C3222 0.962 . S
H3236 C3222 0.960 . S
H3237 C3223 0.961 . S
H3238 C3223 0.961 . S
H3239 C3223 0.961 . S
H3240 C3224 0.931 . S
H3241 C3229 0.930 . S
H3242 C3230 0.956 . S
H3243 C3230 0.961 . S
H3244 C3230 0.961 . S
H3245 C3231 0.958 . S
H3246 C3231 0.961 . S
H3247 C3231 0.960 . S
C3248 C3249 1.391 . S
C3248 C3250 1.394 . S
C3248 H3264 0.931 . S
C3249 C3248 1.391 . S
C3249 C3253 1.376 . S
C3250 C3248 1.394 . S
C3250 C3251 1.369 . S
C3250 C3254 1.531 . S
C3251 C3250 1.369 . S
C3251 C3252 1.410 . S
C3251 C3259 1.503 . S
C3252 C3251 1.410 . S
C3252 C3253 1.392 . S
C3252 C3255 1.511 . S
C3253 C3249 1.376 . S
C3253 C3252 1.392 . S
C3253 H3265 0.929 . S
C3254 C3250 1.531 . S
C3254 H3266 0.960 . S
C3254 H3267 0.962 . S
C3254 H3268 0.960 . S
C3255 C3252 1.511 . S
C3255 H3269 0.961 . S
C3255 H3270 0.961 . S
C3255 H3271 0.961 . S
C3256 C3257 1.370 . S
C3256 C3258 1.363 . S
C3256 H3272 0.931 . S
C3257 C3256 1.370 . S
C3257 C3261 1.408 . S
C3258 C3256 1.363 . S
C3258 C3259 1.370 . S
C3258 C3262 1.524 . S
C3259 C3251 1.503 . S
C3259 C3258 1.370 . S
C3259 C3260 1.403 . S
C3260 C3259 1.403 . S
C3260 C3261 1.404 . S
C3260 C3263 1.539 . S
C3261 C3257 1.408 . S
C3261 C3260 1.404 . S
C3261 H3273 0.930 . S
C3262 C3258 1.524 . S
C3262 H3274 0.956 . S
C3262 H3275 0.961 . S
C3262 H3276 0.961 . S
C3263 C3260 1.539 . S
C3263 H3277 0.958 . S
C3263 H3278 0.961 . S
C3263 H3279 0.960 . S
H3264 C3248 0.931 . S
H3265 C3253 0.929 . S
H3266 C3254 0.960 . S
H3267 C3254 0.962 . S
H3268 C3254 0.960 . S
H3269 C3255 0.961 . S
H3270 C3255 0.961 . S
H3271 C3255 0.961 . S
H3272 C3256 0.931 . S
H3273 C3261 0.930 . S
H3274 C3262 0.956 . S
H3275 C3262 0.961 . S
H3276 C3262 0.961 . S
H3277 C3263 0.958 . S
H3278 C3263 0.961 . S
H3279 C3263 0.960 . S
C3280 C3281 1.391 . S
C3280 C3282 1.394 . S
C3280 H3296 0.931 . S
C3281 C3280 1.391 . S
C3281 C3285 1.376 . S
C3282 C3280 1.394 . S
C3282 C3283 1.369 . S
C3282 C3286 1.531 . S
C3283 C3282 1.369 . S
C3283 C3284 1.410 . S
C3283 C3291 1.503 . S
C3284 C3283 1.410 . S
C3284 C3285 1.392 . S
C3284 C3287 1.511 . S
C3285 C3281 1.376 . S
C3285 C3284 1.392 . S
C3285 H3297 0.929 . S
C3286 C3282 1.531 . S
C3286 H3298 0.960 . S
C3286 H3299 0.962 . S
C3286 H3300 0.960 . S
C3287 C3284 1.511 . S
C3287 H3301 0.961 . S
C3287 H3302 0.961 . S
C3287 H3303 0.961 . S
C3288 C3289 1.370 . S
C3288 C3290 1.363 . S
C3288 H3304 0.931 . S
C3289 C3288 1.370 . S
C3289 C3293 1.408 . S
C3290 C3288 1.363 . S
C3290 C3291 1.370 . S
C3290 C3294 1.524 . S
C3291 C3283 1.503 . S
C3291 C3290 1.370 . S
C3291 C3292 1.403 . S
C3292 C3291 1.403 . S
C3292 C3293 1.404 . S
C3292 C3295 1.539 . S
C3293 C3289 1.408 . S
C3293 C3292 1.404 . S
C3293 H3305 0.930 . S
C3294 C3290 1.524 . S
C3294 H3306 0.956 . S
C3294 H3307 0.961 . S
C3294 H3308 0.961 . S
C3295 C3292 1.539 . S
C3295 H3309 0.958 . S
C3295 H3310 0.961 . S
C3295 H3311 0.960 . S
H3296 C3280 0.931 . S
H3297 C3285 0.929 . S
H3298 C3286 0.960 . S
H3299 C3286 0.962 . S
H3300 C3286 0.960 . S
H3301 C3287 0.961 . S
H3302 C3287 0.961 . S
H3303 C3287 0.961 . S
H3304 C3288 0.931 . S
H3305 C3293 0.930 . S
H3306 C3294 0.956 . S
H3307 C3294 0.961 . S
H3308 C3294 0.961 . S
H3309 C3295 0.958 . S
H3310 C3295 0.961 . S
H3311 C3295 0.960 . S
C3312 C3313 1.391 . S
C3312 C3314 1.394 . S
C3312 H3328 0.931 . S
C3313 C3312 1.391 . S
C3313 C3317 1.376 . S
C3314 C3312 1.394 . S
C3314 C3315 1.369 . S
C3314 C3318 1.531 . S
C3315 C3314 1.369 . S
C3315 C3316 1.410 . S
C3315 C3323 1.503 . S
C3316 C3315 1.410 . S
C3316 C3317 1.392 . S
C3316 C3319 1.511 . S
C3317 C3313 1.376 . S
C3317 C3316 1.392 . S
C3317 H3329 0.929 . S
C3318 C3314 1.531 . S
C3318 H3330 0.960 . S
C3318 H3331 0.962 . S
C3318 H3332 0.960 . S
C3319 C3316 1.511 . S
C3319 H3333 0.961 . S
C3319 H3334 0.961 . S
C3319 H3335 0.961 . S
C3320 C3321 1.370 . S
C3320 C3322 1.363 . S
C3320 H3336 0.931 . S
C3321 C3320 1.370 . S
C3321 C3325 1.408 . S
C3322 C3320 1.363 . S
C3322 C3323 1.370 . S
C3322 C3326 1.524 . S
C3323 C3315 1.503 . S
C3323 C3322 1.370 . S
C3323 C3324 1.403 . S
C3324 C3323 1.403 . S
C3324 C3325 1.404 . S
C3324 C3327 1.539 . S
C3325 C3321 1.408 . S
C3325 C3324 1.404 . S
C3325 H3337 0.930 . S
C3326 C3322 1.524 . S
C3326 H3338 0.956 . S
C3326 H3339 0.961 . S
C3326 H3340 0.961 . S
C3327 C3324 1.539 . S
C3327 H3341 0.958 . S
C3327 H3342 0.961 . S
C3327 H3343 0.960 . S
H3328 C3312 0.931 . S
H3329 C3317 0.929 . S
H3330 C3318 0.960 . S
H3331 C3318 0.962 . S
H3332 C3318 0.960 . S
H3333 C3319 0.961 . S
H3334 C3319 0.961 . S
H3335 C3319 0.961 . S
H3336 C3320 0.931 . S
H3337 C3325 0.930 . S
H3338 C3326 0.956 . S
H3339 C3326 0.961 . S
H3340 C3326 0.961 . S
H3341 C3327 0.958 . S
H3342 C3327 0.961 . S
H3343 C3327 0.960 . S
C3344 C3345 1.391 . S
C3344 C3346 1.394 . S
C3344 H3360 0.931 . S
C3345 C3344 1.391 . S
C3345 C3349 1.376 . S
C3346 C3344 1.394 . S
C3346 C3347 1.369 . S
C3346 C3350 1.531 . S
C3347 C3346 1.369 . S
C3347 C3348 1.410 . S
C3347 C3355 1.503 . S
C3348 C3347 1.410 . S
C3348 C3349 1.392 . S
C3348 C3351 1.511 . S
C3349 C3345 1.376 . S
C3349 C3348 1.392 . S
C3349 H3361 0.929 . S
C3350 C3346 1.531 . S
C3350 H3362 0.960 . S
C3350 H3363 0.962 . S
C3350 H3364 0.960 . S
C3351 C3348 1.511 . S
C3351 H3365 0.961 . S
C3351 H3366 0.961 . S
C3351 H3367 0.961 . S
C3352 C3353 1.370 . S
C3352 C3354 1.363 . S
C3352 H3368 0.931 . S
C3353 C3352 1.370 . S
C3353 C3357 1.408 . S
C3354 C3352 1.363 . S
C3354 C3355 1.370 . S
C3354 C3358 1.524 . S
C3355 C3347 1.503 . S
C3355 C3354 1.370 . S
C3355 C3356 1.403 . S
C3356 C3355 1.403 . S
C3356 C3357 1.404 . S
C3356 C3359 1.539 . S
C3357 C3353 1.408 . S
C3357 C3356 1.404 . S
C3357 H3369 0.930 1_554 S
C3358 C3354 1.524 . S
C3358 H3370 0.956 . S
C3358 H3371 0.961 . S
C3358 H3372 0.961 . S
C3359 C3356 1.539 . S
C3359 H3373 0.958 1_554 S
C3359 H3374 0.961 1_554 S
C3359 H3375 0.960 . S
H3360 C3344 0.931 . S
H3361 C3349 0.929 . S
H3362 C3350 0.960 . S
H3363 C3350 0.962 . S
H3364 C3350 0.960 . S
H3365 C3351 0.961 . S
H3366 C3351 0.961 . S
H3367 C3351 0.961 . S
H3368 C3352 0.931 . S
H3369 C3357 0.930 1_556 S
H3370 C3358 0.956 . S
H3371 C3358 0.961 . S
H3372 C3358 0.961 . S
H3373 C3359 0.958 1_556 S
H3374 C3359 0.961 1_556 S
H3375 C3359 0.960 . S
C3376 C3377 1.391 . S
C3376 C3378 1.394 . S
C3376 H3392 0.931 . S
C3377 C3376 1.391 . S
C3377 C3381 1.376 . S
C3378 C3376 1.394 . S
C3378 C3379 1.369 . S
C3378 C3382 1.531 . S
C3379 C3378 1.369 . S
C3379 C3380 1.410 . S
C3379 C3387 1.503 . S
C3380 C3379 1.410 . S
C3380 C3381 1.392 . S
C3380 C3383 1.511 . S
C3381 C3377 1.376 . S
C3381 C3380 1.392 . S
C3381 H3393 0.929 . S
C3382 C3378 1.531 . S
C3382 H3394 0.960 . S
C3382 H3395 0.962 . S
C3382 H3396 0.960 . S
C3383 C3380 1.511 . S
C3383 H3397 0.961 . S
C3383 H3398 0.961 . S
C3383 H3399 0.961 . S
C3384 C3385 1.370 . S
C3384 C3386 1.363 . S
C3384 H3400 0.931 . S
C3385 C3384 1.370 . S
C3385 C3389 1.408 . S
C3386 C3384 1.363 . S
C3386 C3387 1.370 . S
C3386 C3390 1.524 . S
C3387 C3379 1.503 . S
C3387 C3386 1.370 . S
C3387 C3388 1.403 . S
C3388 C3387 1.403 . S
C3388 C3389 1.404 . S
C3388 C3391 1.539 . S
C3389 C3385 1.408 . S
C3389 C3388 1.404 . S
C3389 H3401 0.930 . S
C3390 C3386 1.524 . S
C3390 H3402 0.956 . S
C3390 H3403 0.961 . S
C3390 H3404 0.961 . S
C3391 C3388 1.539 . S
C3391 H3405 0.958 . S
C3391 H3406 0.961 . S
C3391 H3407 0.960 . S
H3392 C3376 0.931 . S
H3393 C3381 0.929 . S
H3394 C3382 0.960 . S
H3395 C3382 0.962 . S
H3396 C3382 0.960 . S
H3397 C3383 0.961 . S
H3398 C3383 0.961 . S
H3399 C3383 0.961 . S
H3400 C3384 0.931 . S
H3401 C3389 0.930 . S
H3402 C3390 0.956 . S
H3403 C3390 0.961 . S
H3404 C3390 0.961 . S
H3405 C3391 0.958 . S
H3406 C3391 0.961 . S
H3407 C3391 0.960 . S
C3408 C3409 1.391 . S
C3408 C3410 1.394 . S
C3408 H3424 0.931 . S
C3409 C3408 1.391 . S
C3409 C3413 1.376 . S
C3410 C3408 1.394 . S
C3410 C3411 1.369 . S
C3410 C3414 1.531 . S
C3411 C3410 1.369 . S
C3411 C3412 1.410 . S
C3411 C3419 1.503 . S
C3412 C3411 1.410 . S
C3412 C3413 1.392 . S
C3412 C3415 1.511 . S
C3413 C3409 1.376 . S
C3413 C3412 1.392 . S
C3413 H3425 0.929 . S
C3414 C3410 1.531 . S
C3414 H3426 0.960 . S
C3414 H3427 0.962 . S
C3414 H3428 0.960 . S
C3415 C3412 1.511 . S
C3415 H3429 0.961 . S
C3415 H3430 0.961 . S
C3415 H3431 0.961 . S
C3416 C3417 1.370 . S
C3416 C3418 1.363 . S
C3416 H3432 0.931 . S
C3417 C3416 1.370 . S
C3417 C3421 1.408 . S
C3418 C3416 1.363 . S
C3418 C3419 1.370 . S
C3418 C3422 1.524 . S
C3419 C3411 1.503 . S
C3419 C3418 1.370 . S
C3419 C3420 1.403 . S
C3420 C3419 1.403 . S
C3420 C3421 1.404 . S
C3420 C3423 1.539 . S
C3421 C3417 1.408 . S
C3421 C3420 1.404 . S
C3421 H3433 0.930 . S
C3422 C3418 1.524 . S
C3422 H3434 0.956 . S
C3422 H3435 0.961 . S
C3422 H3436 0.961 . S
C3423 C3420 1.539 . S
C3423 H3437 0.958 . S
C3423 H3438 0.961 . S
C3423 H3439 0.960 . S
H3424 C3408 0.931 . S
H3425 C3413 0.929 . S
H3426 C3414 0.960 . S
H3427 C3414 0.962 . S
H3428 C3414 0.960 . S
H3429 C3415 0.961 . S
H3430 C3415 0.961 . S
H3431 C3415 0.961 . S
H3432 C3416 0.931 . S
H3433 C3421 0.930 . S
H3434 C3422 0.956 . S
H3435 C3422 0.961 . S
H3436 C3422 0.961 . S
H3437 C3423 0.958 . S
H3438 C3423 0.961 . S
H3439 C3423 0.960 . S
C3440 C3441 1.391 . S
C3440 C3442 1.394 . S
C3440 H3456 0.931 . S
C3441 C3440 1.391 . S
C3441 C3445 1.376 . S
C3442 C3440 1.394 . S
C3442 C3443 1.369 . S
C3442 C3446 1.531 . S
C3443 C3442 1.369 . S
C3443 C3444 1.410 . S
C3443 C3451 1.503 . S
C3444 C3443 1.410 . S
C3444 C3445 1.392 . S
C3444 C3447 1.511 . S
C3445 C3441 1.376 . S
C3445 C3444 1.392 . S
C3445 H3457 0.929 . S
C3446 C3442 1.531 . S
C3446 H3458 0.960 . S
C3446 H3459 0.962 . S
C3446 H3460 0.960 . S
C3447 C3444 1.511 . S
C3447 H3461 0.961 . S
C3447 H3462 0.961 . S
C3447 H3463 0.961 . S
C3448 C3449 1.370 . S
C3448 C3450 1.363 . S
C3448 H3464 0.931 . S
C3449 C3448 1.370 . S
C3449 C3453 1.408 . S
C3450 C3448 1.363 . S
C3450 C3451 1.370 . S
C3450 C3454 1.524 . S
C3451 C3443 1.503 . S
C3451 C3450 1.370 . S
C3451 C3452 1.403 . S
C3452 C3451 1.403 . S
C3452 C3453 1.404 . S
C3452 C3455 1.539 . S
C3453 C3449 1.408 . S
C3453 C3452 1.404 . S
C3453 H3465 0.930 . S
C3454 C3450 1.524 . S
C3454 H3466 0.956 . S
C3454 H3467 0.961 . S
C3454 H3468 0.961 . S
C3455 C3452 1.539 . S
C3455 H3469 0.958 . S
C3455 H3470 0.961 . S
C3455 H3471 0.960 . S
H3456 C3440 0.931 . S
H3457 C3445 0.929 . S
H3458 C3446 0.960 . S
H3459 C3446 0.962 . S
H3460 C3446 0.960 . S
H3461 C3447 0.961 . S
H3462 C3447 0.961 . S
H3463 C3447 0.961 . S
H3464 C3448 0.931 . S
H3465 C3453 0.930 . S
H3466 C3454 0.956 . S
H3467 C3454 0.961 . S
H3468 C3454 0.961 . S
H3469 C3455 0.958 . S
H3470 C3455 0.961 . S
H3471 C3455 0.960 . S
C3472 C3473 1.391 . S
C3472 C3474 1.394 . S
C3472 H3488 0.931 . S
C3473 C3472 1.391 . S
C3473 C3477 1.376 . S
C3474 C3472 1.394 . S
C3474 C3475 1.369 . S
C3474 C3478 1.531 . S
C3475 C3474 1.369 . S
C3475 C3476 1.410 . S
C3475 C3483 1.503 . S
C3476 C3475 1.410 . S
C3476 C3477 1.392 . S
C3476 C3479 1.511 . S
C3477 C3473 1.376 . S
C3477 C3476 1.392 . S
C3477 H3489 0.929 . S
C3478 C3474 1.531 . S
C3478 H3490 0.960 . S
C3478 H3491 0.962 . S
C3478 H3492 0.960 . S
C3479 C3476 1.511 . S
C3479 H3493 0.961 . S
C3479 H3494 0.961 . S
C3479 H3495 0.961 . S
C3480 C3481 1.370 . S
C3480 C3482 1.363 . S
C3480 H3496 0.931 . S
C3481 C3480 1.370 . S
C3481 C3485 1.408 . S
C3482 C3480 1.363 . S
C3482 C3483 1.370 . S
C3482 C3486 1.524 . S
C3483 C3475 1.503 . S
C3483 C3482 1.370 . S
C3483 C3484 1.403 . S
C3484 C3483 1.403 . S
C3484 C3485 1.404 . S
C3484 C3487 1.539 . S
C3485 C3481 1.408 . S
C3485 C3484 1.404 . S
C3485 H3497 0.930 . S
C3486 C3482 1.524 . S
C3486 H3498 0.956 . S
C3486 H3499 0.961 . S
C3486 H3500 0.961 . S
C3487 C3484 1.539 . S
C3487 H3501 0.958 . S
C3487 H3502 0.961 . S
C3487 H3503 0.960 . S
H3488 C3472 0.931 . S
H3489 C3477 0.929 . S
H3490 C3478 0.960 . S
H3491 C3478 0.962 . S
H3492 C3478 0.960 . S
H3493 C3479 0.961 . S
H3494 C3479 0.961 . S
H3495 C3479 0.961 . S
H3496 C3480 0.931 . S
H3497 C3485 0.930 . S
H3498 C3486 0.956 . S
H3499 C3486 0.961 . S
H3500 C3486 0.961 . S
H3501 C3487 0.958 . S
H3502 C3487 0.961 . S
H3503 C3487 0.960 . S
C3504 C3505 1.391 . S
C3504 C3506 1.394 . S
C3504 H3520 0.931 . S
C3505 C3504 1.391 . S
C3505 C3509 1.376 . S
C3506 C3504 1.394 . S
C3506 C3507 1.369 . S
C3506 C3510 1.531 . S
C3507 C3506 1.369 . S
C3507 C3508 1.410 . S
C3507 C3515 1.503 . S
C3508 C3507 1.410 . S
C3508 C3509 1.392 . S
C3508 C3511 1.511 . S
C3509 C3505 1.376 . S
C3509 C3508 1.392 . S
C3509 H3521 0.929 . S
C3510 C3506 1.531 . S
C3510 H3522 0.960 . S
C3510 H3523 0.962 . S
C3510 H3524 0.960 . S
C3511 C3508 1.511 . S
C3511 H3525 0.961 . S
C3511 H3526 0.961 . S
C3511 H3527 0.961 . S
C3512 C3513 1.370 . S
C3512 C3514 1.363 . S
C3512 H3528 0.931 . S
C3513 C3512 1.370 . S
C3513 C3517 1.408 . S
C3514 C3512 1.363 . S
C3514 C3515 1.370 . S
C3514 C3518 1.524 . S
C3515 C3507 1.503 . S
C3515 C3514 1.370 . S
C3515 C3516 1.403 . S
C3516 C3515 1.403 . S
C3516 C3517 1.404 . S
C3516 C3519 1.539 . S
C3517 C3513 1.408 . S
C3517 C3516 1.404 . S
C3517 H3529 0.930 . S
C3518 C3514 1.524 . S
C3518 H3530 0.956 . S
C3518 H3531 0.961 . S
C3518 H3532 0.961 . S
C3519 C3516 1.539 . S
C3519 H3533 0.958 . S
C3519 H3534 0.961 . S
C3519 H3535 0.960 . S
H3520 C3504 0.931 . S
H3521 C3509 0.929 . S
H3522 C3510 0.960 . S
H3523 C3510 0.962 . S
H3524 C3510 0.960 . S
H3525 C3511 0.961 . S
H3526 C3511 0.961 . S
H3527 C3511 0.961 . S
H3528 C3512 0.931 . S
H3529 C3517 0.930 . S
H3530 C3518 0.956 . S
H3531 C3518 0.961 . S
H3532 C3518 0.961 . S
H3533 C3519 0.958 . S
H3534 C3519 0.961 . S
H3535 C3519 0.960 . S
C3536 C3537 1.391 . S
C3536 C3538 1.394 . S
C3536 H3552 0.931 . S
C3537 C3536 1.391 . S
C3537 C3541 1.376 . S
C3538 C3536 1.394 . S
C3538 C3539 1.369 . S
C3538 C3542 1.531 . S
C3539 C3538 1.369 . S
C3539 C3540 1.410 . S
C3539 C3547 1.503 . S
C3540 C3539 1.410 . S
C3540 C3541 1.392 . S
C3540 C3543 1.511 . S
C3541 C3537 1.376 . S
C3541 C3540 1.392 . S
C3541 H3553 0.929 . S
C3542 C3538 1.531 . S
C3542 H3554 0.960 . S
C3542 H3555 0.962 . S
C3542 H3556 0.960 . S
C3543 C3540 1.511 . S
C3543 H3557 0.961 . S
C3543 H3558 0.961 . S
C3543 H3559 0.961 . S
C3544 C3545 1.370 . S
C3544 C3546 1.363 . S
C3544 H3560 0.931 . S
C3545 C3544 1.370 . S
C3545 C3549 1.408 . S
C3546 C3544 1.363 . S
C3546 C3547 1.370 . S
C3546 C3550 1.524 . S
C3547 C3539 1.503 . S
C3547 C3546 1.370 . S
C3547 C3548 1.403 . S
C3548 C3547 1.403 . S
C3548 C3549 1.404 . S
C3548 C3551 1.539 . S
C3549 C3545 1.408 . S
C3549 C3548 1.404 . S
C3549 H3561 0.930 . S
C3550 C3546 1.524 . S
C3550 H3562 0.956 . S
C3550 H3563 0.961 . S
C3550 H3564 0.961 . S
C3551 C3548 1.539 . S
C3551 H3565 0.958 . S
C3551 H3566 0.961 . S
C3551 H3567 0.960 . S
H3552 C3536 0.931 . S
H3553 C3541 0.929 . S
H3554 C3542 0.960 . S
H3555 C3542 0.962 . S
H3556 C3542 0.960 . S
H3557 C3543 0.961 . S
H3558 C3543 0.961 . S
H3559 C3543 0.961 . S
H3560 C3544 0.931 . S
H3561 C3549 0.930 . S
H3562 C3550 0.956 . S
H3563 C3550 0.961 . S
H3564 C3550 0.961 . S
H3565 C3551 0.958 . S
H3566 C3551 0.961 . S
H3567 C3551 0.960 . S
C3568 C3569 1.391 . S
C3568 C3570 1.394 . S
C3568 H3584 0.931 . S
C3569 C3568 1.391 . S
C3569 C3573 1.376 . S
C3570 C3568 1.394 . S
C3570 C3571 1.369 . S
C3570 C3574 1.531 . S
C3571 C3570 1.369 . S
C3571 C3572 1.410 . S
C3571 C3579 1.503 . S
C3572 C3571 1.410 . S
C3572 C3573 1.392 . S
C3572 C3575 1.511 . S
C3573 C3569 1.376 . S
C3573 C3572 1.392 . S
C3573 H3585 0.929 . S
C3574 C3570 1.531 . S
C3574 H3586 0.960 . S
C3574 H3587 0.962 . S
C3574 H3588 0.960 . S
C3575 C3572 1.511 . S
C3575 H3589 0.961 . S
C3575 H3590 0.961 . S
C3575 H3591 0.961 . S
C3576 C3577 1.370 . S
C3576 C3578 1.363 . S
C3576 H3592 0.931 . S
C3577 C3576 1.370 . S
C3577 C3581 1.408 . S
C3578 C3576 1.363 . S
C3578 C3579 1.370 . S
C3578 C3582 1.524 . S
C3579 C3571 1.503 . S
C3579 C3578 1.370 . S
C3579 C3580 1.403 . S
C3580 C3579 1.403 . S
C3580 C3581 1.404 . S
C3580 C3583 1.539 . S
C3581 C3577 1.408 . S
C3581 C3580 1.404 . S
C3581 H3593 0.930 . S
C3582 C3578 1.524 . S
C3582 H3594 0.956 . S
C3582 H3595 0.961 . S
C3582 H3596 0.961 . S
C3583 C3580 1.539 . S
C3583 H3597 0.958 . S
C3583 H3598 0.961 . S
C3583 H3599 0.960 . S
H3584 C3568 0.931 . S
H3585 C3573 0.929 . S
H3586 C3574 0.960 . S
H3587 C3574 0.962 . S
H3588 C3574 0.960 . S
H3589 C3575 0.961 . S
H3590 C3575 0.961 . S
H3591 C3575 0.961 . S
H3592 C3576 0.931 . S
H3593 C3581 0.930 . S
H3594 C3582 0.956 . S
H3595 C3582 0.961 . S
H3596 C3582 0.961 . S
H3597 C3583 0.958 . S
H3598 C3583 0.961 . S
H3599 C3583 0.960 . S
C3600 C3601 1.391 . S
C3600 C3602 1.394 . S
C3600 H3616 0.931 . S
C3601 C3600 1.391 . S
C3601 C3605 1.376 . S
C3602 C3600 1.394 . S
C3602 C3603 1.369 . S
C3602 C3606 1.531 . S
C3603 C3602 1.369 . S
C3603 C3604 1.410 . S
C3603 C3611 1.503 1_655 S
C3604 C3603 1.410 . S
C3604 C3605 1.392 . S
C3604 C3607 1.514 . S
C3605 C3601 1.376 . S
C3605 C3604 1.392 . S
C3605 H3617 0.929 . S
C3606 C3602 1.531 . S
C3606 H3618 0.960 1_655 S
C3606 H3619 0.962 . S
C3606 H3620 0.960 . S
C3607 C3604 1.514 . S
C3607 H3621 0.983 . S
C3607 H3622 0.964 1_655 S
C3607 H3623 0.935 1_655 S
C3608 C3609 1.370 . S
C3608 C3610 1.363 1_455 S
C3608 H3624 0.931 1_455 S
C3609 C3608 1.370 . S
C3609 C3613 1.408 . S
C3610 C3608 1.363 1_655 S
C3610 C3611 1.370 1_655 S
C3610 C3614 1.524 . S
C3611 C3603 1.503 1_455 S
C3611 C3610 1.370 1_455 S
C3611 C3612 1.403 . S
C3612 C3611 1.403 . S
C3612 C3613 1.404 . S
C3612 C3615 1.539 . S
C3613 C3609 1.408 . S
C3613 C3612 1.404 . S
C3613 H3625 0.930 . S
C3614 C3610 1.524 . S
C3614 H3626 0.956 . S
C3614 H3627 0.961 . S
C3614 H3628 0.961 . S
C3615 C3612 1.539 . S
C3615 H3629 0.958 . S
C3615 H3630 0.961 . S
C3615 H3631 0.960 . S
H3616 C3600 0.931 . S
H3617 C3605 0.929 . S
H3618 C3606 0.960 1_455 S
H3619 C3606 0.962 . S
H3620 C3606 0.960 . S
H3621 C3607 0.983 . S
H3622 C3607 0.964 1_455 S
H3623 C3607 0.935 1_455 S
H3624 C3608 0.931 1_655 S
H3625 C3613 0.930 . S
H3626 C3614 0.956 . S
H3627 C3614 0.961 . S
H3628 C3614 0.961 . S
H3629 C3615 0.958 . S
H3630 C3615 0.961 . S
H3631 C3615 0.960 . S
C3632 C3633 1.391 . S
C3632 C3634 1.394 . S
C3632 H3648 0.931 . S
C3633 C3632 1.391 . S
C3633 C3637 1.376 . S
C3634 C3632 1.394 . S
C3634 C3635 1.369 . S
C3634 C3638 1.531 . S
C3635 C3634 1.369 . S
C3635 C3636 1.410 . S
C3635 C3643 1.503 . S
C3636 C3635 1.410 . S
C3636 C3637 1.392 . S
C3636 C3639 1.511 . S
C3637 C3633 1.376 . S
C3637 C3636 1.392 . S
C3637 H3649 0.929 . S
C3638 C3634 1.531 . S
C3638 H3650 0.960 . S
C3638 H3651 0.962 . S
C3638 H3652 0.960 . S
C3639 C3636 1.511 . S
C3639 H3653 0.961 . S
C3639 H3654 0.961 . S
C3639 H3655 0.961 . S
C3640 C3641 1.370 . S
C3640 C3642 1.363 . S
C3640 H3656 0.931 . S
C3641 C3640 1.370 . S
C3641 C3645 1.408 . S
C3642 C3640 1.363 . S
C3642 C3643 1.370 . S
C3642 C3646 1.524 . S
C3643 C3635 1.503 . S
C3643 C3642 1.370 . S
C3643 C3644 1.403 . S
C3644 C3643 1.403 . S
C3644 C3645 1.404 . S
C3644 C3647 1.539 . S
C3645 C3641 1.408 . S
C3645 C3644 1.404 . S
C3645 H3657 0.930 . S
C3646 C3642 1.524 . S
C3646 H3658 0.956 . S
C3646 H3659 0.961 . S
C3646 H3660 0.961 . S
C3647 C3644 1.539 . S
C3647 H3661 0.958 . S
C3647 H3662 0.961 . S
C3647 H3663 0.960 . S
H3648 C3632 0.931 . S
H3649 C3637 0.929 . S
H3650 C3638 0.960 . S
H3651 C3638 0.962 . S
H3652 C3638 0.960 . S
H3653 C3639 0.961 . S
H3654 C3639 0.961 . S
H3655 C3639 0.961 . S
H3656 C3640 0.931 . S
H3657 C3645 0.930 . S
H3658 C3646 0.956 . S
H3659 C3646 0.961 . S
H3660 C3646 0.961 . S
H3661 C3647 0.958 . S
H3662 C3647 0.961 . S
H3663 C3647 0.960 . S
C3664 C3665 1.391 . S
C3664 C3666 1.394 . S
C3664 H3680 0.931 . S
C3665 C3664 1.391 . S
C3665 C3669 1.376 . S
C3666 C3664 1.394 . S
C3666 C3667 1.369 . S
C3666 C3670 1.531 . S
C3667 C3666 1.369 . S
C3667 C3668 1.410 . S
C3667 C3675 1.503 . S
C3668 C3667 1.410 . S
C3668 C3669 1.392 . S
C3668 C3671 1.511 . S
C3669 C3665 1.376 . S
C3669 C3668 1.392 . S
C3669 H3681 0.929 . S
C3670 C3666 1.531 . S
C3670 H3682 0.960 . S
C3670 H3683 0.962 . S
C3670 H3684 0.960 . S
C3671 C3668 1.511 . S
C3671 H3685 0.961 . S
C3671 H3686 0.961 . S
C3671 H3687 0.961 . S
C3672 C3673 1.370 . S
C3672 C3674 1.363 . S
C3672 H3688 0.931 . S
C3673 C3672 1.370 . S
C3673 C3677 1.408 . S
C3674 C3672 1.363 . S
C3674 C3675 1.370 . S
C3674 C3678 1.524 . S
C3675 C3667 1.503 . S
C3675 C3674 1.370 . S
C3675 C3676 1.403 . S
C3676 C3675 1.403 . S
C3676 C3677 1.404 . S
C3676 C3679 1.539 . S
C3677 C3673 1.408 . S
C3677 C3676 1.404 . S
C3677 H3689 0.930 . S
C3678 C3674 1.524 . S
C3678 H3690 0.956 . S
C3678 H3691 0.961 . S
C3678 H3692 0.961 . S
C3679 C3676 1.539 . S
C3679 H3693 0.958 . S
C3679 H3694 0.961 . S
C3679 H3695 0.960 . S
H3680 C3664 0.931 . S
H3681 C3669 0.929 . S
H3682 C3670 0.960 . S
H3683 C3670 0.962 . S
H3684 C3670 0.960 . S
H3685 C3671 0.961 . S
H3686 C3671 0.961 . S
H3687 C3671 0.961 . S
H3688 C3672 0.931 . S
H3689 C3677 0.930 . S
H3690 C3678 0.956 . S
H3691 C3678 0.961 . S
H3692 C3678 0.961 . S
H3693 C3679 0.958 . S
H3694 C3679 0.961 . S
H3695 C3679 0.960 . S
C3696 C3697 1.391 . S
C3696 C3698 1.394 . S
C3696 H3712 0.931 . S
C3697 C3696 1.391 . S
C3697 C3701 1.376 . S
C3698 C3696 1.394 . S
C3698 C3699 1.369 . S
C3698 C3702 1.531 . S
C3699 C3698 1.369 . S
C3699 C3700 1.410 . S
C3699 C3707 1.503 . S
C3700 C3699 1.410 . S
C3700 C3701 1.392 . S
C3700 C3703 1.511 . S
C3701 C3697 1.376 . S
C3701 C3700 1.392 . S
C3701 H3713 0.929 . S
C3702 C3698 1.531 . S
C3702 H3714 0.960 . S
C3702 H3715 0.962 . S
C3702 H3716 0.960 . S
C3703 C3700 1.511 . S
C3703 H3717 0.961 . S
C3703 H3718 0.961 . S
C3703 H3719 0.961 . S
C3704 C3705 1.370 . S
C3704 C3706 1.363 . S
C3704 H3720 0.931 . S
C3705 C3704 1.370 . S
C3705 C3709 1.408 . S
C3706 C3704 1.363 . S
C3706 C3707 1.370 . S
C3706 C3710 1.524 . S
C3707 C3699 1.503 . S
C3707 C3706 1.370 . S
C3707 C3708 1.403 . S
C3708 C3707 1.403 . S
C3708 C3709 1.404 . S
C3708 C3711 1.539 . S
C3709 C3705 1.408 . S
C3709 C3708 1.404 . S
C3709 H3721 0.930 . S
C3710 C3706 1.524 . S
C3710 H3722 0.956 . S
C3710 H3723 0.961 . S
C3710 H3724 0.961 . S
C3711 C3708 1.539 . S
C3711 H3725 0.958 . S
C3711 H3726 0.961 . S
C3711 H3727 0.960 . S
H3712 C3696 0.931 . S
H3713 C3701 0.929 . S
H3714 C3702 0.960 . S
H3715 C3702 0.962 . S
H3716 C3702 0.960 . S
H3717 C3703 0.961 . S
H3718 C3703 0.961 . S
H3719 C3703 0.961 . S
H3720 C3704 0.931 . S
H3721 C3709 0.930 . S
H3722 C3710 0.956 . S
H3723 C3710 0.961 . S
H3724 C3710 0.961 . S
H3725 C3711 0.958 . S
H3726 C3711 0.961 . S
H3727 C3711 0.960 . S
C3728 C3729 1.391 . S
C3728 C3730 1.394 . S
C3728 H3744 0.931 . S
C3729 C3728 1.391 . S
C3729 C3733 1.376 . S
C3730 C3728 1.394 . S
C3730 C3731 1.369 . S
C3730 C3734 1.531 . S
C3731 C3730 1.369 . S
C3731 C3732 1.410 . S
C3731 C3739 1.503 . S
C3732 C3731 1.410 . S
C3732 C3733 1.392 . S
C3732 C3735 1.511 . S
C3733 C3729 1.376 . S
C3733 C3732 1.392 . S
C3733 H3745 0.929 . S
C3734 C3730 1.531 . S
C3734 H3746 0.960 . S
C3734 H3747 0.962 . S
C3734 H3748 0.960 . S
C3735 C3732 1.511 . S
C3735 H3749 0.961 . S
C3735 H3750 0.961 . S
C3735 H3751 0.961 . S
C3736 C3737 1.370 . S
C3736 C3738 1.363 . S
C3736 H3752 0.931 . S
C3737 C3736 1.370 . S
C3737 C3741 1.408 1_655 S
C3738 C3736 1.363 . S
C3738 C3739 1.370 . S
C3738 C3742 1.524 . S
C3739 C3731 1.503 . S
C3739 C3738 1.370 . S
C3739 C3740 1.403 . S
C3740 C3739 1.403 . S
C3740 C3741 1.404 1_655 S
C3740 C3743 1.539 1_655 S
C3741 C3737 1.408 1_455 S
C3741 C3740 1.404 1_455 S
C3741 H3753 0.930 . S
C3742 C3738 1.524 . S
C3742 H3754 0.956 . S
C3742 H3755 0.961 . S
C3742 H3756 0.961 . S
C3743 C3740 1.539 1_455 S
C3743 H3757 0.958 . S
C3743 H3758 0.961 . S
C3743 H3759 0.960 . S
H3744 C3728 0.931 . S
H3745 C3733 0.929 . S
H3746 C3734 0.960 . S
H3747 C3734 0.962 . S
H3748 C3734 0.960 . S
H3749 C3735 0.961 . S
H3750 C3735 0.961 . S
H3751 C3735 0.961 . S
H3752 C3736 0.931 . S
H3753 C3741 0.930 . S
H3754 C3742 0.956 . S
H3755 C3742 0.961 . S
H3756 C3742 0.961 . S
H3757 C3743 0.958 . S
H3758 C3743 0.961 . S
H3759 C3743 0.960 . S
C3760 C3761 1.391 . S
C3760 C3762 1.394 . S
C3760 H3776 0.931 . S
C3761 C3760 1.391 . S
C3761 C3765 1.376 . S
C3762 C3760 1.394 . S
C3762 C3763 1.369 . S
C3762 C3766 1.531 . S
C3763 C3762 1.369 . S
C3763 C3764 1.410 . S
C3763 C3771 1.503 . S
C3764 C3763 1.410 . S
C3764 C3765 1.392 . S
C3764 C3767 1.511 . S
C3765 C3761 1.376 . S
C3765 C3764 1.392 . S
C3765 H3777 0.929 . S
C3766 C3762 1.531 . S
C3766 H3778 0.960 . S
C3766 H3779 0.962 . S
C3766 H3780 0.960 . S
C3767 C3764 1.511 . S
C3767 H3781 0.961 . S
C3767 H3782 0.961 . S
C3767 H3783 0.961 . S
C3768 C3769 1.370 . S
C3768 C3770 1.363 . S
C3768 H3784 0.931 . S
C3769 C3768 1.370 . S
C3769 C3773 1.408 . S
C3770 C3768 1.363 . S
C3770 C3771 1.370 . S
C3770 C3774 1.524 . S
C3771 C3763 1.503 . S
C3771 C3770 1.370 . S
C3771 C3772 1.403 . S
C3772 C3771 1.403 . S
C3772 C3773 1.404 . S
C3772 C3775 1.539 . S
C3773 C3769 1.408 . S
C3773 C3772 1.404 . S
C3773 H3785 0.930 . S
C3774 C3770 1.524 . S
C3774 H3786 0.956 . S
C3774 H3787 0.961 . S
C3774 H3788 0.961 . S
C3775 C3772 1.539 . S
C3775 H3789 0.958 . S
C3775 H3790 0.961 . S
C3775 H3791 0.960 . S
H3776 C3760 0.931 . S
H3777 C3765 0.929 . S
H3778 C3766 0.960 . S
H3779 C3766 0.962 . S
H3780 C3766 0.960 . S
H3781 C3767 0.961 . S
H3782 C3767 0.961 . S
H3783 C3767 0.961 . S
H3784 C3768 0.931 . S
H3785 C3773 0.930 . S
H3786 C3774 0.956 . S
H3787 C3774 0.961 . S
H3788 C3774 0.961 . S
H3789 C3775 0.958 . S
H3790 C3775 0.961 . S
H3791 C3775 0.960 . S
C3792 C3793 1.391 . S
C3792 C3794 1.394 . S
C3792 H3808 0.931 . S
C3793 C3792 1.391 . S
C3793 C3797 1.376 . S
C3794 C3792 1.394 . S
C3794 C3795 1.369 . S
C3794 C3798 1.531 . S
C3795 C3794 1.369 . S
C3795 C3796 1.410 . S
C3795 C3803 1.503 . S
C3796 C3795 1.410 . S
C3796 C3797 1.392 . S
C3796 C3799 1.511 . S
C3797 C3793 1.376 . S
C3797 C3796 1.392 . S
C3797 H3809 0.929 . S
C3798 C3794 1.531 . S
C3798 H3810 0.960 . S
C3798 H3811 0.962 . S
C3798 H3812 0.960 . S
C3799 C3796 1.511 . S
C3799 H3813 0.961 . S
C3799 H3814 0.961 . S
C3799 H3815 0.961 . S
C3800 C3801 1.370 . S
C3800 C3802 1.363 . S
C3800 H3816 0.931 . S
C3801 C3800 1.370 . S
C3801 C3805 1.408 . S
C3802 C3800 1.363 . S
C3802 C3803 1.370 . S
C3802 C3806 1.524 . S
C3803 C3795 1.503 . S
C3803 C3802 1.370 . S
C3803 C3804 1.403 . S
C3804 C3803 1.403 . S
C3804 C3805 1.404 . S
C3804 C3807 1.539 . S
C3805 C3801 1.408 . S
C3805 C3804 1.404 . S
C3805 H3817 0.930 . S
C3806 C3802 1.524 . S
C3806 H3818 0.956 . S
C3806 H3819 0.961 . S
C3806 H3820 0.961 . S
C3807 C3804 1.539 . S
C3807 H3821 0.958 . S
C3807 H3822 0.961 . S
C3807 H3823 0.960 . S
H3808 C3792 0.931 . S
H3809 C3797 0.929 . S
H3810 C3798 0.960 . S
H3811 C3798 0.962 . S
H3812 C3798 0.960 . S
H3813 C3799 0.961 . S
H3814 C3799 0.961 . S
H3815 C3799 0.961 . S
H3816 C3800 0.931 . S
H3817 C3805 0.930 . S
H3818 C3806 0.956 . S
H3819 C3806 0.961 . S
H3820 C3806 0.961 . S
H3821 C3807 0.958 . S
H3822 C3807 0.961 . S
H3823 C3807 0.960 . S
C3824 C3825 1.391 . S
C3824 C3826 1.394 . S
C3824 H3840 0.931 . S
C3825 C3824 1.391 . S
C3825 C3829 1.376 . S
C3826 C3824 1.394 . S
C3826 C3827 1.369 . S
C3826 C3830 1.531 . S
C3827 C3826 1.369 . S
C3827 C3828 1.410 . S
C3827 C3835 1.503 . S
C3828 C3827 1.410 . S
C3828 C3829 1.392 . S
C3828 C3831 1.511 . S
C3829 C3825 1.376 . S
C3829 C3828 1.392 . S
C3829 H3841 0.929 . S
C3830 C3826 1.531 . S
C3830 H3842 0.960 . S
C3830 H3843 0.962 . S
C3830 H3844 0.960 . S
C3831 C3828 1.511 . S
C3831 H3845 0.961 . S
C3831 H3846 0.961 . S
C3831 H3847 0.961 . S
C3832 C3833 1.367 1_545 S
C3832 C3834 1.360 1_545 S
C3832 H3848 0.937 . S
C3833 C3832 1.367 1_565 S
C3833 C3837 1.408 . S
C3834 C3832 1.360 1_565 S
C3834 C3835 1.370 . S
C3834 C3838 1.524 . S
C3835 C3827 1.503 . S
C3835 C3834 1.370 . S
C3835 C3836 1.403 . S
C3836 C3835 1.403 . S
C3836 C3837 1.404 . S
C3836 C3839 1.539 . S
C3837 C3833 1.408 . S
C3837 C3836 1.404 . S
C3837 H3849 0.930 . S
C3838 C3834 1.524 . S
C3838 H3850 0.956 . S
C3838 H3851 0.961 . S
C3838 H3852 0.961 1_565 S
C3839 C3836 1.539 . S
C3839 H3853 0.958 . S
C3839 H3854 0.961 . S
C3839 H3855 0.960 . S
H3840 C3824 0.931 . S
H3841 C3829 0.929 . S
H3842 C3830 0.960 . S
H3843 C3830 0.962 . S
H3844 C3830 0.960 . S
H3845 C3831 0.961 . S
H3846 C3831 0.961 . S
H3847 C3831 0.961 . S
H3848 C3832 0.937 . S
H3849 C3837 0.930 . S
H3850 C3838 0.956 . S
H3851 C3838 0.961 . S
H3852 C3838 0.961 1_545 S
H3853 C3839 0.958 . S
H3854 C3839 0.961 . S
H3855 C3839 0.960 . S
C3856 C3857 1.391 . S
C3856 C3858 1.394 . S
C3856 H3872 0.931 . S
C3857 C3856 1.391 . S
C3857 C3861 1.376 . S
C3858 C3856 1.394 . S
C3858 C3859 1.369 . S
C3858 C3862 1.531 . S
C3859 C3858 1.369 . S
C3859 C3860 1.410 . S
C3859 C3867 1.503 . S
C3860 C3859 1.410 . S
C3860 C3861 1.392 . S
C3860 C3863 1.511 . S
C3861 C3857 1.376 . S
C3861 C3860 1.392 . S
C3861 H3873 0.929 . S
C3862 C3858 1.531 . S
C3862 H3874 0.960 . S
C3862 H3875 0.962 . S
C3862 H3876 0.960 . S
C3863 C3860 1.511 . S
C3863 H3877 0.961 . S
C3863 H3878 0.961 . S
C3863 H3879 0.961 . S
C3864 C3865 1.370 . S
C3864 C3866 1.363 . S
C3864 H3880 0.931 . S
C3865 C3864 1.370 . S
C3865 C3869 1.408 . S
C3866 C3864 1.363 . S
C3866 C3867 1.370 . S
C3866 C3870 1.524 . S
C3867 C3859 1.503 . S
C3867 C3866 1.370 . S
C3867 C3868 1.403 . S
C3868 C3867 1.403 . S
C3868 C3869 1.404 . S
C3868 C3871 1.539 . S
C3869 C3865 1.408 . S
C3869 C3868 1.404 . S
C3869 H3881 0.930 . S
C3870 C3866 1.524 . S
C3870 H3882 0.956 . S
C3870 H3883 0.961 . S
C3870 H3884 0.961 . S
C3871 C3868 1.539 . S
C3871 H3885 0.958 . S
C3871 H3886 0.961 . S
C3871 H3887 0.960 . S
H3872 C3856 0.931 . S
H3873 C3861 0.929 . S
H3874 C3862 0.960 . S
H3875 C3862 0.962 . S
H3876 C3862 0.960 . S
H3877 C3863 0.961 . S
H3878 C3863 0.961 . S
H3879 C3863 0.961 . S
H3880 C3864 0.931 . S
H3881 C3869 0.930 . S
H3882 C3870 0.956 . S
H3883 C3870 0.961 . S
H3884 C3870 0.961 . S
H3885 C3871 0.958 . S
H3886 C3871 0.961 . S
H3887 C3871 0.960 . S
C3888 C3889 1.391 . S
C3888 C3890 1.394 . S
C3888 H3904 0.931 . S
C3889 C3888 1.391 . S
C3889 C3893 1.376 1_554 S
C3890 C3888 1.394 . S
C3890 C3891 1.369 . S
C3890 C3894 1.531 . S
C3891 C3890 1.369 . S
C3891 C3892 1.410 1_554 S
C3891 C3899 1.503 . S
C3892 C3891 1.410 1_556 S
C3892 C3893 1.392 . S
C3892 C3895 1.511 . S
C3893 C3889 1.376 1_556 S
C3893 C3892 1.392 . S
C3893 H3905 0.929 . S
C3894 C3890 1.531 . S
C3894 H3906 0.960 . S
C3894 H3907 0.962 . S
C3894 H3908 0.960 . S
C3895 C3892 1.511 . S
C3895 H3909 0.961 . S
C3895 H3910 0.961 . S
C3895 H3911 0.961 . S
C3896 C3897 1.370 . S
C3896 C3898 1.363 . S
C3896 H3912 0.931 . S
C3897 C3896 1.370 . S
C3897 C3901 1.408 1_554 S
C3898 C3896 1.363 . S
C3898 C3899 1.370 . S
C3898 C3902 1.524 . S
C3899 C3891 1.503 . S
C3899 C3898 1.370 . S
C3899 C3900 1.403 1_554 S
C3900 C3899 1.403 1_556 S
C3900 C3901 1.404 . S
C3900 C3903 1.539 . S
C3901 C3897 1.408 1_556 S
C3901 C3900 1.404 . S
C3901 H3913 0.930 . S
C3902 C3898 1.524 . S
C3902 H3914 0.956 . S
C3902 H3915 0.961 . S
C3902 H3916 0.961 . S
C3903 C3900 1.539 . S
C3903 H3917 0.958 . S
C3903 H3918 0.961 . S
C3903 H3919 0.960 . S
H3904 C3888 0.931 . S
H3905 C3893 0.929 . S
H3906 C3894 0.960 . S
H3907 C3894 0.962 . S
H3908 C3894 0.960 . S
H3909 C3895 0.961 . S
H3910 C3895 0.961 . S
H3911 C3895 0.961 . S
H3912 C3896 0.931 . S
H3913 C3901 0.930 . S
H3914 C3902 0.956 . S
H3915 C3902 0.961 . S
H3916 C3902 0.961 . S
H3917 C3903 0.958 . S
H3918 C3903 0.961 . S
H3919 C3903 0.960 . S
C3920 C3921 1.391 . S
C3920 C3922 1.394 . S
C3920 H3936 0.931 . S
C3921 C3920 1.391 . S
C3921 C3925 1.376 . S
C3922 C3920 1.394 . S
C3922 C3923 1.369 . S
C3922 C3926 1.531 . S
C3923 C3922 1.369 . S
C3923 C3924 1.410 . S
C3923 C3931 1.503 . S
C3924 C3923 1.410 . S
C3924 C3925 1.392 . S
C3924 C3927 1.511 . S
C3925 C3921 1.376 . S
C3925 C3924 1.392 . S
C3925 H3937 0.929 . S
C3926 C3922 1.531 . S
C3926 H3938 0.960 . S
C3926 H3939 0.962 . S
C3926 H3940 0.960 . S
C3927 C3924 1.511 . S
C3927 H3941 0.961 . S
C3927 H3942 0.961 . S
C3927 H3943 0.961 . S
C3928 C3929 1.370 . S
C3928 C3930 1.363 . S
C3928 H3944 0.931 . S
C3929 C3928 1.370 . S
C3929 C3933 1.408 . S
C3930 C3928 1.363 . S
C3930 C3931 1.370 . S
C3930 C3934 1.524 . S
C3931 C3923 1.503 . S
C3931 C3930 1.370 . S
C3931 C3932 1.403 . S
C3932 C3931 1.403 . S
C3932 C3933 1.404 . S
C3932 C3935 1.539 . S
C3933 C3929 1.408 . S
C3933 C3932 1.404 . S
C3933 H3945 0.930 . S
C3934 C3930 1.524 . S
C3934 H3946 0.956 . S
C3934 H3947 0.961 . S
C3934 H3948 0.961 . S
C3935 C3932 1.539 . S
C3935 H3949 0.958 . S
C3935 H3950 0.961 . S
C3935 H3951 0.960 . S
H3936 C3920 0.931 . S
H3937 C3925 0.929 . S
H3938 C3926 0.960 . S
H3939 C3926 0.962 . S
H3940 C3926 0.960 . S
H3941 C3927 0.961 . S
H3942 C3927 0.961 . S
H3943 C3927 0.961 . S
H3944 C3928 0.931 . S
H3945 C3933 0.930 . S
H3946 C3934 0.956 . S
H3947 C3934 0.961 . S
H3948 C3934 0.961 . S
H3949 C3935 0.958 . S
H3950 C3935 0.961 . S
H3951 C3935 0.960 . S
C3952 C3953 1.391 . S
C3952 C3954 1.394 . S
C3952 H3968 0.931 . S
C3953 C3952 1.391 . S
C3953 C3957 1.380 . S
C3954 C3952 1.394 . S
C3954 C3955 1.351 1_554 S
C3954 C3958 1.531 . S
C3955 C3954 1.351 1_556 S
C3955 C3956 1.415 . S
C3955 C3963 1.514 . S
C3956 C3955 1.415 . S
C3956 C3957 1.389 1_556 S
C3956 C3959 1.511 . S
C3957 C3953 1.380 . S
C3957 C3956 1.389 1_554 S
C3957 H3969 0.928 1_554 S
C3958 C3954 1.531 . S
C3958 H3970 0.960 . S
C3958 H3971 0.962 . S
C3958 H3972 0.960 . S
C3959 C3956 1.511 . S
C3959 H3973 0.961 . S
C3959 H3974 0.961 . S
C3959 H3975 0.961 . S
C3960 C3961 1.370 1_554 S
C3960 C3962 1.363 . S
C3960 H3976 0.931 . S
C3961 C3960 1.370 1_556 S
C3961 C3965 1.408 . S
C3962 C3960 1.363 . S
C3962 C3963 1.370 1_554 S
C3962 C3966 1.524 . S
C3963 C3955 1.514 . S
C3963 C3962 1.370 1_556 S
C3963 C3964 1.403 . S
C3964 C3963 1.403 . S
C3964 C3965 1.404 . S
C3964 C3967 1.539 . S
C3965 C3961 1.408 . S
C3965 C3964 1.404 . S
C3965 H3977 0.930 . S
C3966 C3962 1.524 . S
C3966 H3978 0.956 . S
C3966 H3979 0.961 . S
C3966 H3980 0.961 . S
C3967 C3964 1.539 . S
C3967 H3981 0.958 . S
C3967 H3982 0.961 . S
C3967 H3983 0.960 . S
H3968 C3952 0.931 . S
H3969 C3957 0.928 1_556 S
H3970 C3958 0.960 . S
H3971 C3958 0.962 . S
H3972 C3958 0.960 . S
H3973 C3959 0.961 . S
H3974 C3959 0.961 . S
H3975 C3959 0.961 . S
H3976 C3960 0.931 . S
H3977 C3965 0.930 . S
H3978 C3966 0.956 . S
H3979 C3966 0.961 . S
H3980 C3966 0.961 . S
H3981 C3967 0.958 . S
H3982 C3967 0.961 . S
H3983 C3967 0.960 . S
C3984 C3985 1.391 . S
C3984 C3986 1.394 . S
C3984 H4000 0.931 . S
C3985 C3984 1.391 . S
C3985 C3989 1.376 . S
C3986 C3984 1.394 . S
C3986 C3987 1.369 . S
C3986 C3990 1.531 . S
C3987 C3986 1.369 . S
C3987 C3988 1.410 . S
C3987 C3995 1.503 . S
C3988 C3987 1.410 . S
C3988 C3989 1.392 . S
C3988 C3991 1.511 . S
C3989 C3985 1.376 . S
C3989 C3988 1.392 . S
C3989 H4001 0.929 . S
C3990 C3986 1.531 . S
C3990 H4002 0.960 . S
C3990 H4003 0.962 . S
C3990 H4004 0.960 . S
C3991 C3988 1.511 . S
C3991 H4005 0.961 . S
C3991 H4006 0.961 . S
C3991 H4007 0.961 . S
C3992 C3993 1.370 . S
C3992 C3994 1.363 . S
C3992 H4008 0.931 . S
C3993 C3992 1.370 . S
C3993 C3997 1.408 . S
C3994 C3992 1.363 . S
C3994 C3995 1.370 . S
C3994 C3998 1.524 . S
C3995 C3987 1.503 . S
C3995 C3994 1.370 . S
C3995 C3996 1.403 . S
C3996 C3995 1.403 . S
C3996 C3997 1.404 . S
C3996 C3999 1.539 . S
C3997 C3993 1.408 . S
C3997 C3996 1.404 . S
C3997 H4009 0.930 . S
C3998 C3994 1.524 . S
C3998 H4010 0.956 . S
C3998 H4011 0.961 . S
C3998 H4012 0.961 . S
C3999 C3996 1.539 . S
C3999 H4013 0.958 . S
C3999 H4014 0.961 . S
C3999 H4015 0.960 . S
H4000 C3984 0.931 . S
H4001 C3989 0.929 . S
H4002 C3990 0.960 . S
H4003 C3990 0.962 . S
H4004 C3990 0.960 . S
H4005 C3991 0.961 . S
H4006 C3991 0.961 . S
H4007 C3991 0.961 . S
H4008 C3992 0.931 . S
H4009 C3997 0.930 . S
H4010 C3998 0.956 . S
H4011 C3998 0.961 . S
H4012 C3998 0.961 . S
H4013 C3999 0.958 . S
H4014 C3999 0.961 . S
H4015 C3999 0.960 . S
C4016 C4017 1.391 . S
C4016 C4018 1.394 . S
C4016 H4032 0.931 . S
C4017 C4016 1.391 . S
C4017 C4021 1.376 . S
C4018 C4016 1.394 . S
C4018 C4019 1.369 . S
C4018 C4022 1.531 . S
C4019 C4018 1.369 . S
C4019 C4020 1.410 . S
C4019 C4027 1.503 . S
C4020 C4019 1.410 . S
C4020 C4021 1.392 . S
C4020 C4023 1.511 . S
C4021 C4017 1.376 . S
C4021 C4020 1.392 . S
C4021 H4033 0.929 . S
C4022 C4018 1.531 . S
C4022 H4034 0.960 . S
C4022 H4035 0.962 . S
C4022 H4036 0.960 . S
C4023 C4020 1.511 . S
C4023 H4037 0.961 . S
C4023 H4038 0.961 . S
C4023 H4039 0.961 . S
C4024 C4025 1.370 . S
C4024 C4026 1.363 . S
C4024 H4040 0.931 . S
C4025 C4024 1.370 . S
C4025 C4029 1.408 . S
C4026 C4024 1.363 . S
C4026 C4027 1.370 . S
C4026 C4030 1.524 . S
C4027 C4019 1.503 . S
C4027 C4026 1.370 . S
C4027 C4028 1.403 . S
C4028 C4027 1.403 . S
C4028 C4029 1.404 . S
C4028 C4031 1.539 . S
C4029 C4025 1.408 . S
C4029 C4028 1.404 . S
C4029 H4041 0.930 . S
C4030 C4026 1.524 . S
C4030 H4042 0.956 . S
C4030 H4043 0.961 . S
C4030 H4044 0.961 . S
C4031 C4028 1.539 . S
C4031 H4045 0.958 . S
C4031 H4046 0.961 . S
C4031 H4047 0.960 . S
H4032 C4016 0.931 . S
H4033 C4021 0.929 . S
H4034 C4022 0.960 . S
H4035 C4022 0.962 . S
H4036 C4022 0.960 . S
H4037 C4023 0.961 . S
H4038 C4023 0.961 . S
H4039 C4023 0.961 . S
H4040 C4024 0.931 . S
H4041 C4029 0.930 . S
H4042 C4030 0.956 . S
H4043 C4030 0.961 . S
H4044 C4030 0.961 . S
H4045 C4031 0.958 . S
H4046 C4031 0.961 . S
H4047 C4031 0.960 . S
C977 C111 2.189 . S
C985 C346 2.212 1_556 S
C1009 C64 2.093 . S
C1017 C394 2.173 . S
C1041 C77 1.121 . S
C1049 C426 1.108 . S
C1081 C471 1.198 . S
C1073 C95 1.210 . S
C1105 C25 1.144 . S
C1113 C511 1.123 . S
C1145 C542 0.506 . S
C1137 C36 0.600 . S
C1177 C594 1.345 . S
C1169 C50 1.179 . S
C1201 C11 1.759 . S
C1209 C626 1.695 . S
C1241 C354 2.416 . S
C1233 C237 2.309 . S
C1265 C245 0.480 . S
C1273 C391 0.505 . S
C1305 C434 1.170 . S
C1297 C279 1.153 . S
C1337 C466 1.273 . S
C1329 C175 1.285 . S
C1361 C231 1.717 . S
C1369 C506 1.741 . S
C1401 C545 1.362 . S
C1393 C251 1.343 . S
C1433 C591 0.364 . S
C1425 C273 0.370 . S
C1465 C634 2.036 . S
C1457 C181 1.980 . S
C1497 C351 1.370 1_565 S
C1489 C165 1.450 . S
C1521 C288 1.866 1_556 S
C1529 C674 1.952 . S
C1561 C715 2.567 . S
C1553 C333 2.622 . S
C1593 C746 0.591 . S
C1585 C316 0.570 . S
C1617 C123 1.455 . S
C1625 C631 1.363 . S
C1649 C137 1.478 . S
C1657 C431 1.431 . S
C1681 C330 2.193 . S
C1689 C794 2.233 . S
C1721 C826 0.534 . S
C1713 C302 0.531 . S
C1753 C355 2.322 . S
C1745 C63 2.335 . S
C1785 C825 2.193 . S
C1777 C106 2.185 . S
C1809 C97 1.219 . S
C1817 C435 1.206 . S
C1841 C81 1.233 . S
C1849 C782 1.274 . S
C1881 C502 1.204 . S
C1873 C13 1.156 . S
C1905 C55 0.615 . S
C1913 C711 0.491 . S
C1945 C585 1.347 . S
C1937 C35 1.280 . S
C1977 C875 1.870 . S
C1969 C21 1.918 . S
C2009 C345 2.523 . S
C2001 C147 2.530 . S
C2041 C822 0.506 . S
C2033 C321 0.472 . S
C2065 C119 1.241 . S
C2073 C425 1.230 . S
C2097 C293 1.328 . S
C2105 C795 1.413 . S
C2129 C153 1.754 1_565 S
C2137 C515 1.945 . S
C2169 C714 1.403 . S
C2161 C315 1.424 . S
C2193 C125 0.562 1_545 S
C2201 C582 0.324 . S
C2225 C287 2.166 . S
C2233 C865 2.142 . S
C2257 C193 1.446 . S
C2265 C342 1.439 . S
C2289 C176 1.964 . S
C2297 C665 1.967 . S
C2321 C263 2.566 . S
C2329 C546 2.523 . S
C2353 C246 0.819 . S
C2361 C755 0.817 . S
C2393 C862 1.416 . S
C2385 C277 1.376 . S
C2417 C221 1.461 . S
C2425 C422 1.462 . S
C2457 C465 2.294 . S
C2449 C260 2.250 . S
C2489 C395 0.642 . S
C2481 C204 0.631 . S
C2513 C83 2.192 . S
C2521 C906 2.208 . S
C2553 C834 2.172 . S
C2545 C92 2.067 . S
C2577 C105 1.120 . S
C2585 C946 1.105 . S
C2609 C67 1.210 . S
C2617 C791 1.198 . S
C2641 C53 1.159 . S
C2649 C671 1.119 . S
C2681 C702 0.490 . S
C2673 C8 0.504 . S
C2713 C754 1.328 . S
C2705 C22 1.282 . S
C2745 C866 1.692 . S
C2737 C39 1.759 . S
C2777 C914 2.418 . S
C2769 C265 2.317 . S
C2801 C189 0.491 . S
C2809 C831 0.547 . S
C2841 C954 1.175 . S
C2833 C209 1.128 . S
C2873 C786 1.279 . S
C2865 C217 1.287 . S
C2905 C666 1.741 . S
C2897 C259 1.717 . S
C2929 C195 1.326 . S
C2937 C705 1.368 . S
C2969 C751 0.414 . S
C2961 C203 0.364 . S
C2993 C223 1.985 . S
C3001 C874 2.038 . S
C3033 C911 1.382 . S
C3025 C319 1.448 . S
C3057 C134 1.904 . S
C3065 C514 1.945 . S
C3097 C555 2.564 . S
C3089 C151 2.620 . S
C3129 C586 0.553 . S
C3121 C162 0.526 . S
C3161 C871 1.393 . S
C3153 C305 1.426 . S
C3185 C291 1.481 . S
C3193 C951 1.432 . S
C3225 C474 2.240 . S
C3217 C148 2.151 . S
C3257 C386 0.500 . S
C3249 C120 0.472 . S
C3281 C91 2.336 . S
C3289 C915 2.322 . S
C3321 C385 2.192 . S
C3313 C78 2.187 . S
C3345 C69 1.152 . S
C3353 C955 1.214 . S
C3377 C109 1.239 . S
C3385 C462 1.275 . S
C3409 C41 1.073 . S
C3417 C662 1.225 . S
C3449 C551 0.498 . S
C3441 C27 0.474 . S
C3473 C7 1.345 . S
C3481 C745 1.343 . S
C3505 C49 1.911 . S
C3513 C635 1.870 . S
C3545 C905 2.528 . S
C3537 C329 2.535 . S
C3569 C167 0.492 . S
C3577 C382 0.498 . S
C3609 C945 1.231 . S
C3601 C301 1.242 . S
C3633 C139 1.333 . S
C3641 C475 1.417 . S
C3665 C335 1.778 . S
C3673 C675 1.932 . S
C3705 C554 1.406 . S
C3697 C161 1.423 . S
C3729 C307 0.437 . S
C3737 C742 0.351 . S
C3769 C625 2.142 . S
C3761 C133 2.166 . S
C3801 C902 1.436 . S
C3793 C249 1.470 . S
C3833 C505 1.974 1_665 S
C3825 C218 1.938 . S
C3857 C235 2.570 . S
C3865 C706 2.520 . S
C3897 C595 0.816 . S
C3889 C190 0.805 . S
C3921 C207 1.384 . S
C3929 C622 1.415 . S
C3953 C179 1.435 . S
C3961 C942 1.476 . S
C3993 C785 2.293 . S
C3985 C232 2.252 1_565 S
C4025 C835 0.617 . S
C4017 C274 0.580 . S
