# Generated by pormake.
# Topology soc, (4,6)-cn, num edge types: 1
# Building blocks:
#     Node 0, Type 0, BuildingBlock: ESEHIV_clean_sbu_0, # of connection points: 4
#     Node 1, Type 0, BuildingBlock: ESEHIV_clean_sbu_0, # of connection points: 4
#     Node 2, Type 0, BuildingBlock: ESEHIV_clean_sbu_0, # of connection points: 4
#     Node 3, Type 0, BuildingBlock: ESEHIV_clean_sbu_0, # of connection points: 4
#     Node 4, Type 0, BuildingBlock: ESEHIV_clean_sbu_0, # of connection points: 4
#     Node 5, Type 0, BuildingBlock: ESEHIV_clean_sbu_0, # of connection points: 4
#     Node 6, Type 0, BuildingBlock: ESEHIV_clean_sbu_0, # of connection points: 4
#     Node 7, Type 0, BuildingBlock: ESEHIV_clean_sbu_0, # of connection points: 4
#     Node 8, Type 0, BuildingBlock: ESEHIV_clean_sbu_0, # of connection points: 4
#     Node 9, Type 0, BuildingBlock: ESEHIV_clean_sbu_0, # of connection points: 4
#     Node 10, Type 0, BuildingBlock: ESEHIV_clean_sbu_0, # of connection points: 4
#     Node 11, Type 0, BuildingBlock: ESEHIV_clean_sbu_0, # of connection points: 4
#     Node 12, Type 1, BuildingBlock: PAMTUU_clean_sbu_0, # of connection points: 6
#     Node 13, Type 1, BuildingBlock: PAMTUU_clean_sbu_0, # of connection points: 6
#     Node 14, Type 1, BuildingBlock: PAMTUU_clean_sbu_0, # of connection points: 6
#     Node 15, Type 1, BuildingBlock: PAMTUU_clean_sbu_0, # of connection points: 6
#     Node 16, Type 1, BuildingBlock: PAMTUU_clean_sbu_0, # of connection points: 6
#     Node 17, Type 1, BuildingBlock: PAMTUU_clean_sbu_0, # of connection points: 6
#     Node 18, Type 1, BuildingBlock: PAMTUU_clean_sbu_0, # of connection points: 6
#     Node 19, Type 1, BuildingBlock: PAMTUU_clean_sbu_0, # of connection points: 6
#     Edge 20, Type (0, 1), BuildingBlock: AJUNOK_clean_linker_0, # of connection points: 2
#     Edge 21, Type (0, 1), BuildingBlock: AJUNOK_clean_linker_0, # of connection points: 2
#     Edge 22, Type (0, 1), BuildingBlock: AJUNOK_clean_linker_0, # of connection points: 2
#     Edge 23, Type (0, 1), BuildingBlock: AJUNOK_clean_linker_0, # of connection points: 2
#     Edge 24, Type (0, 1), BuildingBlock: AJUNOK_clean_linker_0, # of connection points: 2
#     Edge 25, Type (0, 1), BuildingBlock: AJUNOK_clean_linker_0, # of connection points: 2
#     Edge 26, Type (0, 1), BuildingBlock: AJUNOK_clean_linker_0, # of connection points: 2
#     Edge 27, Type (0, 1), BuildingBlock: AJUNOK_clean_linker_0, # of connection points: 2
#     Edge 28, Type (0, 1), BuildingBlock: AJUNOK_clean_linker_0, # of connection points: 2
#     Edge 29, Type (0, 1), BuildingBlock: AJUNOK_clean_linker_0, # of connection points: 2
#     Edge 30, Type (0, 1), BuildingBlock: AJUNOK_clean_linker_0, # of connection points: 2
#     Edge 31, Type (0, 1), BuildingBlock: AJUNOK_clean_linker_0, # of connection points: 2
#     Edge 32, Type (0, 1), BuildingBlock: AJUNOK_clean_linker_0, # of connection points: 2
#     Edge 33, Type (0, 1), BuildingBlock: AJUNOK_clean_linker_0, # of connection points: 2
#     Edge 34, Type (0, 1), BuildingBlock: AJUNOK_clean_linker_0, # of connection points: 2
#     Edge 35, Type (0, 1), BuildingBlock: AJUNOK_clean_linker_0, # of connection points: 2
#     Edge 36, Type (0, 1), BuildingBlock: AJUNOK_clean_linker_0, # of connection points: 2
#     Edge 37, Type (0, 1), BuildingBlock: AJUNOK_clean_linker_0, # of connection points: 2
#     Edge 38, Type (0, 1), BuildingBlock: AJUNOK_clean_linker_0, # of connection points: 2
#     Edge 39, Type (0, 1), BuildingBlock: AJUNOK_clean_linker_0, # of connection points: 2
#     Edge 40, Type (0, 1), BuildingBlock: AJUNOK_clean_linker_0, # of connection points: 2
#     Edge 41, Type (0, 1), BuildingBlock: AJUNOK_clean_linker_0, # of connection points: 2
#     Edge 42, Type (0, 1), BuildingBlock: AJUNOK_clean_linker_0, # of connection points: 2
#     Edge 43, Type (0, 1), BuildingBlock: AJUNOK_clean_linker_0, # of connection points: 2
#     Edge 44, Type (0, 1), BuildingBlock: AJUNOK_clean_linker_0, # of connection points: 2
#     Edge 45, Type (0, 1), BuildingBlock: AJUNOK_clean_linker_0, # of connection points: 2
#     Edge 46, Type (0, 1), BuildingBlock: AJUNOK_clean_linker_0, # of connection points: 2
#     Edge 47, Type (0, 1), BuildingBlock: AJUNOK_clean_linker_0, # of connection points: 2
#     Edge 48, Type (0, 1), BuildingBlock: AJUNOK_clean_linker_0, # of connection points: 2
#     Edge 49, Type (0, 1), BuildingBlock: AJUNOK_clean_linker_0, # of connection points: 2
#     Edge 50, Type (0, 1), BuildingBlock: AJUNOK_clean_linker_0, # of connection points: 2
#     Edge 51, Type (0, 1), BuildingBlock: AJUNOK_clean_linker_0, # of connection points: 2
#     Edge 52, Type (0, 1), BuildingBlock: AJUNOK_clean_linker_0, # of connection points: 2
#     Edge 53, Type (0, 1), BuildingBlock: AJUNOK_clean_linker_0, # of connection points: 2
#     Edge 54, Type (0, 1), BuildingBlock: AJUNOK_clean_linker_0, # of connection points: 2
#     Edge 55, Type (0, 1), BuildingBlock: AJUNOK_clean_linker_0, # of connection points: 2
#     Edge 56, Type (0, 1), BuildingBlock: AJUNOK_clean_linker_0, # of connection points: 2
#     Edge 57, Type (0, 1), BuildingBlock: AJUNOK_clean_linker_0, # of connection points: 2
#     Edge 58, Type (0, 1), BuildingBlock: AJUNOK_clean_linker_0, # of connection points: 2
#     Edge 59, Type (0, 1), BuildingBlock: AJUNOK_clean_linker_0, # of connection points: 2
#     Edge 60, Type (0, 1), BuildingBlock: AJUNOK_clean_linker_0, # of connection points: 2
#     Edge 61, Type (0, 1), BuildingBlock: AJUNOK_clean_linker_0, # of connection points: 2
#     Edge 62, Type (0, 1), BuildingBlock: AJUNOK_clean_linker_0, # of connection points: 2
#     Edge 63, Type (0, 1), BuildingBlock: AJUNOK_clean_linker_0, # of connection points: 2
#     Edge 64, Type (0, 1), BuildingBlock: AJUNOK_clean_linker_0, # of connection points: 2
#     Edge 65, Type (0, 1), BuildingBlock: AJUNOK_clean_linker_0, # of connection points: 2
#     Edge 66, Type (0, 1), BuildingBlock: AJUNOK_clean_linker_0, # of connection points: 2
#     Edge 67, Type (0, 1), BuildingBlock: AJUNOK_clean_linker_0, # of connection points: 2
# Relax obj value: 0.180
# Max RMSD: 0.306
# Mean RMSD: 0.176
data_MOF--net-soc--node1-ESEHIV_clean_sbu_0--node2-PAMTUU_clean_sbu_0--edge1-AJUNOK_clean_linker_0
_symmetry_space_group_name_H-M    P1
_symmetry_Int_Tables_number       1
_symmetry_cell_setting            triclinic
loop_
_symmetry_equiv_pos_as_xyz
'x, y, z'
_cell_length_a     39.534596
_cell_length_b     39.254116
_cell_length_c     32.276189
_cell_angle_alpha  80.119993
_cell_angle_beta   79.89954
_cell_angle_gamma 66.111518
loop_
_atom_site_label
_atom_site_type_symbol
_atom_site_fract_x
_atom_site_fract_y
_atom_site_fract_z
_atom_type_partial_charge
Cu0 Cu 0.06805 0.05812 0.44706 0.0
N1 N 0.08267 0.08263 0.48105 0.0
N2 N 0.1085 0.11902 0.49723 0.0
C3 C 0.10245 0.10399 0.46609 0.0
C4 C 0.09221 0.10636 0.53336 0.0
C5 C 0.07596 0.08414 0.52324 0.0
O6 O 0.11336 0.02318 0.4171 0.0
C7 C 1.00264 0.11909 0.43538 0.0
O8 O 1.00178 0.11304 0.4768 0.0
H9 H 0.11246 0.10813 0.43294 0.0
H10 H 0.05992 0.07062 0.54508 0.0
N11 N 0.0449 0.02765 0.47881 0.0
N12 N 1.01781 0.98654 0.48781 0.0
C13 C 1.02411 0.01477 0.46216 0.0
C14 C 0.05177 0.00708 0.51658 0.0
C15 C 1.03493 0.98169 0.52229 0.0
C16 C 0.13822 1.00119 0.44068 0.0
O17 O 0.13228 0.00539 0.48114 0.0
H18 H 1.0166 0.02367 0.43022 0.0
H19 H 0.07008 0.00829 0.53699 0.0
O20 O 1.03064 0.09726 0.41319 0.0
H21 H 0.09148 0.11334 0.56461 0.0
H22 H 0.03662 0.96024 0.54878 0.0
Cu23 Cu 0.07567 0.05941 0.73592 0.0
N24 N 0.05678 0.04044 0.70028 0.0
N25 N 1.02375 0.01241 0.68098 0.0
C26 C 1.03077 0.02579 0.71294 0.0
C27 C 0.04641 0.01882 0.64681 0.0
C28 C 0.06677 0.03617 0.65882 0.0
O29 O 1.03407 0.09504 0.76887 0.0
C30 C 0.13981 0.99677 0.74583 0.0
O31 O 0.14164 0.00483 0.70448 0.0
H32 H 1.01756 0.02458 0.74521 0.0
H33 H 0.08812 0.04401 0.63904 0.0
N34 N 0.10288 0.08664 0.706 0.0
N35 N 0.14056 0.11732 0.69848 0.0
C36 C 0.12735 0.09341 0.72387 0.0
C37 C 0.10019 0.1071 0.66781 0.0
C38 C 0.12345 0.12631 0.66314 0.0
C39 C 1.01155 0.12238 0.74697 0.0
O40 O 1.0168 0.12264 0.7056 0.0
H41 H 0.13351 0.08278 0.75608 0.0
H42 H 0.08141 0.10935 0.64591 0.0
O43 O 0.11115 0.01725 0.76833 0.0
H44 H 0.04927 0.01018 0.61588 0.0
H45 H 0.12666 0.14618 0.63656 0.0
Cu46 Cu 0.30808 0.08417 0.15333 0.0
N47 N 0.26483 0.08347 0.13879 0.0
N48 N 0.23347 0.05827 0.11127 0.0
C49 C 0.26348 0.05179 0.1303 0.0
C50 C 0.21478 0.09584 0.10768 0.0
C51 C 0.23425 0.1114 0.1249 0.0
O52 O 0.3349 0.03116 0.17624 0.0
C53 C 0.31884 0.13969 0.0901 0.0
O54 O 0.29338 0.16166 0.11635 0.0
H55 H 0.28621 0.02478 0.13379 0.0
H56 H 0.2281 0.14094 0.12429 0.0
N57 N 0.29694 0.1156 0.1961 0.0
N58 N 0.30216 0.14959 0.24193 0.0
C59 C 0.31923 0.12941 0.20881 0.0
C60 C 0.26462 0.12809 0.2216 0.0
C61 C 0.26779 0.14891 0.24991 0.0
C62 C 0.32016 0.01984 0.21163 0.0
O63 O 0.29117 0.04437 0.23174 0.0
H64 H 0.34739 0.1246 0.19429 0.0
H65 H 0.24046 0.12223 0.21982 0.0
O66 O 0.33112 0.10415 0.10037 0.0
H67 H 0.19026 0.11106 0.09148 0.0
H68 H 0.24623 0.16313 0.27397 0.0
Cu69 Cu 0.10688 0.31767 0.15239 0.0
N70 N 0.11709 0.34692 0.10339 0.0
N71 N 0.14601 0.35798 0.03952 0.0
C72 C 0.14301 0.33185 0.07136 0.0
C73 C 0.12079 0.39101 0.05185 0.0
C74 C 0.10271 0.38406 0.09124 0.0
O75 O 0.14687 0.30635 0.18911 0.0
C76 C 0.08199 0.26024 0.1378 0.0
O77 O 0.07144 0.25436 0.17836 0.0
H78 H 0.16005 0.30218 0.07188 0.0
H79 H 0.08101 0.40458 0.10981 0.0
N80 N 0.06016 0.34209 0.18328 0.0
N81 N 1.00294 0.3508 0.21717 0.0
C82 C 1.02787 0.33781 0.18323 0.0
C83 C 0.05485 0.35956 0.21769 0.0
C84 C 1.01977 0.36509 0.23839 0.0
C85 C 0.15492 0.33394 0.19382 0.0
O86 O 0.13631 0.36706 0.17464 0.0
H87 H 1.02328 0.32411 0.15973 0.0
H88 H 0.07602 0.36524 0.22893 0.0
O89 O 0.10414 0.27728 0.12615 0.0
H90 H 0.11578 0.41815 0.03375 0.0
H91 H 1.00868 0.37613 0.2686 0.0
Cu92 Cu 0.82329 0.01764 1.02396 0.0
N93 N 0.84829 0.04201 0.98353 0.0
N94 N 0.85707 0.09266 0.94946 0.0
C95 C 0.83272 0.07924 0.97314 0.0
C96 C 0.88926 0.06265 0.94379 0.0
C97 C 0.88391 0.03127 0.96549 0.0
O98 O 0.80111 0.05444 0.06526 0.0
C99 C 0.80713 0.98882 0.96068 0.0
O100 O 0.83995 0.98915 0.94497 0.0
H101 H 0.80431 0.09641 0.98419 0.0
H102 H 0.90482 1.00313 0.96932 0.0
N103 N 0.85474 0.97452 0.05312 0.0
N104 N 0.87217 0.93084 0.10785 0.0
C105 C 0.84708 0.96449 0.0945 0.0
C106 C 0.88568 0.94614 0.03942 0.0
C107 C 0.89642 0.91893 0.07325 0.0
C108 C 0.82704 0.0598 0.07862 0.0
O109 O 0.86172 0.03776 0.06783 0.0
H110 H 0.82221 0.98063 0.1138 0.0
H111 H 0.89846 0.94458 1.00694 0.0
O112 O 0.79214 1.00198 0.99604 0.0
H113 H 0.91508 0.06367 0.92685 0.0
H114 H 0.91925 0.89184 0.07213 0.0
Cu115 Cu 0.05813 0.7939 0.03611 0.0
N116 N 1.03369 0.78834 0.99342 0.0
N117 N 0.99465 0.78996 0.94931 0.0
C118 C 0.99873 0.80555 0.98166 0.0
C119 C 1.0279 0.76206 0.9408 0.0
C120 C 0.05157 0.76112 0.9678 0.0
O121 O 0.04264 0.77113 0.09274 0.0
C122 C 0.12162 0.79036 0.97858 0.0
O123 O 0.09485 0.81549 0.95767 0.0
H124 H 0.97683 0.82879 0.99636 0.0
H125 H 0.08007 0.74138 0.96914 0.0
N126 N 0.04746 0.84302 0.0454 0.0
N127 N 0.06152 0.87811 0.08212 0.0
C128 C 0.07467 0.85092 0.05624 0.0
C129 C 1.01556 0.86703 0.06421 0.0
C130 C 1.02417 0.8887 0.08697 0.0
C131 C 1.00799 0.77757 0.10386 0.0
O132 O 0.98435 0.79599 0.07615 0.0
H133 H 0.1038 0.83259 0.05168 0.0
H134 H 0.98876 0.86511 0.06664 0.0
O135 O 0.1126 0.77504 1.01495 0.0
H136 H 1.03435 0.74298 0.91732 0.0
H137 H 1.00498 0.90735 0.10934 0.0
Cu138 Cu 0.56883 0.55428 0.92951 0.0
N139 N 0.58176 0.58056 0.96283 0.0
N140 N 0.60691 0.61771 0.9785 0.0
C141 C 0.60315 0.60031 0.94807 0.0
C142 C 0.58737 0.60837 1.01397 0.0
C143 C 0.57148 0.5857 1.00408 0.0
O144 O 0.61483 0.52007 0.89972 0.0
C145 C 0.49741 0.60596 0.91165 0.0
O146 O 0.48855 0.5924 0.95017 0.0
H147 H 0.61578 0.6018 0.91556 0.0
H148 H 0.55319 0.57447 1.0253 0.0
N149 N 0.54741 0.52265 0.96212 0.0
N150 N 0.51822 0.48319 0.97527 0.0
C151 C 0.52717 0.50838 0.94665 0.0
C152 C 0.55208 0.50542 1.00176 0.0
C153 C 0.53399 0.48098 1.00999 0.0
C154 C 0.64043 0.49962 0.92307 0.0
O155 O 0.6348 0.50459 0.96332 0.0
H156 H 0.52073 0.51509 0.91426 0.0
H157 H 0.56875 0.50906 1.02252 0.0
O158 O 0.53136 0.59264 0.89489 0.0
H159 H 0.58406 0.61803 0.04447 0.0
H160 H 0.53319 0.46243 0.03881 0.0
Cu161 Cu 0.5767 0.56711 0.24574 0.0
N162 N 0.55719 0.54598 0.21317 0.0
N163 N 0.52548 0.51447 0.19861 0.0
C164 C 0.53288 0.52961 0.22869 0.0
C165 C 0.54623 0.52129 0.16278 0.0
C166 C 0.56572 0.54087 0.17184 0.0
O167 O 0.53527 0.60458 0.27675 0.0
C168 C 0.63781 0.50272 0.25717 0.0
O169 O 0.6392 0.50986 0.21577 0.0
H170 H 0.52214 0.5275 0.26185 0.0
H171 H 0.58555 0.54965 0.15012 0.0
N172 N 0.60428 0.59264 0.21239 0.0
N173 N 0.64279 0.62289 0.19925 0.0
C174 C 0.63032 0.59957 0.22705 0.0
C175 C 0.60001 0.61214 0.17374 0.0
C176 C 0.62385 0.63088 0.1655 0.0
C177 C 0.51171 0.62903 0.25344 0.0
O178 O 0.51703 0.62607 0.21267 0.0
H179 H 0.63892 0.58869 0.25833 0.0
H180 H 0.57968 0.61427 0.15395 0.0
O181 O 0.61134 0.52569 0.27964 0.0
H182 H 0.5476 0.51232 0.13241 0.0
H183 H 0.62534 0.65058 0.13803 0.0
Cu184 Cu 0.85257 0.58882 0.64619 0.0
N185 N 0.88376 0.60002 0.60011 0.0
N186 N 0.89986 0.62481 0.53601 0.0
C187 C 0.8718 0.62567 0.56689 0.0
C188 C 0.93072 0.59747 0.55031 0.0
C189 C 0.92068 0.58215 0.58986 0.0
O190 O 0.83447 0.6289 0.68334 0.0
C191 C 0.82958 0.55655 0.59398 0.0
O192 O 0.86575 0.54375 0.58317 0.0
H193 H 0.84287 0.64397 0.56501 0.0
H194 H 0.93879 0.55857 0.60881 0.0
N195 N 0.87774 0.5438 0.67757 0.0
N196 N 0.88669 0.48783 0.71412 0.0
C197 C 0.86314 0.51794 0.69238 0.0
C198 C 0.9118 0.52978 0.69054 0.0
C199 C 0.91751 0.49501 0.71299 0.0
C200 C 0.85893 0.63932 0.69197 0.0
O201 O 0.89359 0.62326 0.67524 0.0
H202 H 0.83534 0.52153 0.68799 0.0
H203 H 0.93105 0.54377 0.68431 0.0
O204 O 0.81532 0.57904 0.62243 0.0
H205 H 0.95823 0.58804 0.53272 0.0
H206 H 0.94251 0.47642 0.72692 0.0
Cu207 Cu 0.61039 0.81216 0.62382 0.0
N208 N 0.62715 0.83377 0.5706 0.0
N209 N 0.66379 0.83827 0.50927 0.0
C210 C 0.66246 0.8228 0.55027 0.0
C211 C 0.62801 0.86073 0.5042 0.0
C212 C 0.60569 0.85779 0.54166 0.0
O213 O 0.64397 0.80579 0.66578 0.0
C214 C 0.61502 0.75464 0.57715 0.0
O215 O 0.64327 0.75948 0.55263 0.0
H216 H 0.68634 0.80164 0.56431 0.0
H217 H 0.57561 0.87082 0.54676 0.0
N218 N 0.56088 0.8401 0.64755 0.0
N219 N 0.50435 0.84999 0.68515 0.0
C220 C 0.53424 0.82603 0.66258 0.0
C221 C 0.54716 0.87424 0.66118 0.0
C222 C 0.51258 0.88032 0.68428 0.0
C223 C 0.65212 0.83365 0.66863 0.0
O224 O 0.63903 0.86416 0.64232 0.0
H225 H 0.53775 0.79777 0.65937 0.0
H226 H 0.56201 0.8927 0.65656 0.0
O227 O 0.60577 0.76664 0.61342 0.0
H228 H 0.61837 0.87755 0.47512 0.0
H229 H 0.49526 0.90482 0.70023 0.0
Cu230 Cu 0.3038 0.52185 0.55399 0.0
N231 N 0.32964 0.55125 0.52223 0.0
N232 N 0.33859 0.60232 0.48672 0.0
C233 C 0.31363 0.58627 0.50219 0.0
C234 C 0.37155 0.57617 0.49755 0.0
C235 C 0.36598 0.545 0.51935 0.0
O236 O 0.26636 0.55692 0.59059 0.0
C237 C 0.30496 0.48982 0.4823 0.0
O238 O 0.33687 0.49398 0.47294 0.0
H239 H 0.28391 0.60036 0.50099 0.0
H240 H 0.38685 0.52015 0.53346 0.0
N241 N 0.33271 0.47953 0.58901 0.0
N242 N 0.3474 0.43302 0.64265 0.0
C243 C 0.32066 0.46488 0.62708 0.0
C244 C 0.36822 0.45581 0.58019 0.0
C245 C 0.37738 0.42737 0.61315 0.0
C246 C 0.27897 0.56249 0.62144 0.0
O247 O 0.31386 0.54258 0.62758 0.0
H248 H 0.29248 0.47681 0.64254 0.0
H249 H 0.38599 0.45842 0.55132 0.0
O250 O 0.28423 0.50213 0.51592 0.0
H251 H 0.39789 0.57954 0.49087 0.0
H252 H 0.40406 0.40417 0.61506 0.0
Cu253 Cu 0.53828 0.28296 0.55448 0.0
N254 N 0.5846 0.25963 0.52278 0.0
N255 N 0.64119 0.25293 0.48912 0.0
C256 C 0.60974 0.27563 0.51027 0.0
C257 C 0.63558 0.22147 0.4878 0.0
C258 C 0.60085 0.22549 0.50894 0.0
O259 O 0.54857 0.31748 0.58379 0.0
C260 C 0.49483 0.28113 0.49425 0.0
O261 O 0.52055 0.24705 0.4944 0.0
H262 H 0.60472 0.30377 0.51589 0.0
H263 H 0.58846 0.20494 0.51352 0.0
N264 N 0.52564 0.25009 0.5978 0.0
N265 N 0.49953 0.23165 0.66015 0.0
C266 C 0.50335 0.26089 0.63385 0.0
C267 C 0.53637 0.2126 0.60139 0.0
C268 C 0.52031 0.20114 0.63985 0.0
C269 C 0.57204 0.30014 0.61066 0.0
O270 O 0.5847 0.26337 0.61665 0.0
H271 H 0.49009 0.2898 0.64059 0.0
H272 H 0.55482 0.19471 0.57808 0.0
O273 O 0.49726 0.30335 0.51747 0.0
H274 H 0.65522 0.19729 0.47264 0.0
H275 H 0.52433 0.17251 0.65222 0.0
Tb276 Tb 0.33864 0.33167 0.31035 0.0
Tb277 Tb 0.2926 0.30365 0.39531 0.0
C278 C 0.25956 0.32913 0.30713 0.0
C279 C 0.3972 0.37703 0.23998 0.0
C280 C 0.43937 0.42192 0.22623 0.0
C281 C 0.43079 0.41049 0.19182 0.0
C282 C 0.40975 0.38829 0.19868 0.0
C283 C 0.40635 0.38764 0.27449 0.0
C284 C 0.42738 0.40984 0.26766 0.0
C285 C 0.37296 0.35599 0.24666 0.0
O286 O 0.32457 0.373 0.35406 0.0
O287 O 0.275 0.36408 0.39581 0.0
O288 O 0.33963 0.30789 0.41827 0.0
O289 O 0.37919 0.30309 0.35628 0.0
O290 O 0.24236 0.31274 0.43481 0.0
O291 O 0.29254 0.26511 0.44925 0.0
O292 O 0.32613 0.25373 0.36297 0.0
O293 O 0.33731 0.28036 0.29567 0.0
O294 O 0.28188 0.3474 0.29484 0.0
O295 O 0.26183 0.30757 0.34337 0.0
C296 C 0.29606 0.38355 0.38341 0.0
O297 O 0.38629 0.32194 0.26576 0.0
O298 O 0.33853 0.37444 0.26156 0.0
C299 C 0.37273 0.3035 0.39776 0.0
C300 C 0.23577 0.25679 0.46504 0.0
C301 C 0.19331 0.2123 0.47643 0.0
C302 C 0.19731 0.22731 0.51099 0.0
C303 C 0.21838 0.24943 0.50529 0.0
C304 C 0.23228 0.24152 0.43059 0.0
C305 C 0.21147 0.21923 0.43628 0.0
C306 C 0.25655 0.28128 0.45879 0.0
C307 C 0.33426 0.25192 0.32181 0.0
H308 H 0.43963 0.41943 0.1596 0.0
H309 H 0.40276 0.38044 0.17171 0.0
H310 H 0.39684 0.37915 0.30662 0.0
H311 H 0.43424 0.41758 0.29478 0.0
H312 H 0.18359 0.22252 0.54225 0.0
H313 H 0.22073 0.26115 0.53219 0.0
H314 H 0.24547 0.24705 0.39924 0.0
H315 H 0.20971 0.20733 0.40923 0.0
Tb316 Tb 0.81201 0.28854 0.31194 0.0
Tb317 Tb 0.81948 0.33211 0.38755 0.0
C318 C 0.7611 0.3727 0.32358 0.0
C319 C 0.80212 0.23233 0.22922 0.0
C320 C 0.80864 0.17728 0.17916 0.0
C321 C 0.77731 0.21108 0.1794 0.0
C322 C 0.77419 0.2384 0.20407 0.0
C323 C 0.83355 0.19861 0.22921 0.0
C324 C 0.83686 0.17131 0.20414 0.0
C325 C 0.79517 0.26024 0.25804 0.0
O326 O 0.86434 0.29545 0.29123 0.0
O327 O 0.85166 0.34485 0.32879 0.0
O328 O 0.86832 0.27957 0.38762 0.0
O329 O 0.8533 0.24414 0.3489 0.0
O330 O 0.82998 0.37693 0.40102 0.0
O331 O 0.82093 0.33676 0.45166 0.0
O332 O 0.78629 0.29978 0.41838 0.0
O333 O 0.76372 0.29753 0.35891 0.0
O334 O 0.78373 0.34888 0.29722 0.0
O335 O 0.76671 0.368 0.36346 0.0
C336 C 0.87174 0.3234 0.29889 0.0
O337 O 0.793 0.24947 0.29858 0.0
O338 O 0.80985 0.28538 0.2477 0.0
C339 C 0.87467 0.24752 0.37383 0.0
C340 C 0.80878 0.39809 0.46932 0.0
C341 C 0.79112 0.45884 0.51657 0.0
C342 C 0.80961 0.42167 0.53404 0.0
C343 C 0.81831 0.39167 0.51066 0.0
C344 C 0.78775 0.43495 0.453 0.0
C345 C 0.77906 0.46501 0.4764 0.0
C346 C 0.82716 0.36748 0.44175 0.0
C347 C 0.76271 0.29316 0.40014 0.0
H348 H 0.75536 0.21646 0.16026 0.0
H349 H 0.74948 0.26412 0.20416 0.0
H350 H 0.85508 0.19322 0.24897 0.0
H351 H 0.8612 0.14529 0.20472 0.0
H352 H 0.82006 0.41585 0.56442 0.0
H353 H 0.83489 0.36362 0.52378 0.0
H354 H 0.78003 0.44084 0.42117 0.0
H355 H 0.76474 0.4933 0.46209 0.0
Tb356 Tb 0.87728 0.80345 0.35201 0.0
Tb357 Tb 0.84029 0.765 0.29984 0.0
C358 C 0.87895 0.72334 0.37954 0.0
C359 C 0.9221 0.84979 0.41079 0.0
C360 C 0.9557 0.89346 0.4342 0.0
C361 C 0.95003 0.8645 0.46283 0.0
C362 C 0.93359 0.84279 0.45111 0.0
C363 C 0.92751 0.87867 0.38184 0.0
C364 C 0.94426 0.90043 0.39354 0.0
C365 C 0.9025 0.82771 0.40187 0.0
O366 O 0.91569 0.79284 0.29333 0.0
O367 O 0.89985 0.74739 0.27554 0.0
O368 O 0.84454 0.81258 0.25822 0.0
O369 O 0.85528 0.84761 0.30098 0.0
O370 O 0.84188 0.71647 0.27877 0.0
O371 O 0.80303 0.77183 0.25744 0.0
O372 O 0.79272 0.79871 0.34145 0.0
O373 O 0.82552 0.80328 0.3906 0.0
O374 O 0.8995 0.74314 0.36802 0.0
O375 O 0.84938 0.73129 0.36081 0.0
C376 C 0.92106 0.76708 0.26869 0.0
O377 O 0.86964 0.84554 0.38905 0.0
O378 O 0.92177 0.79695 0.38427 0.0
C379 C 0.84865 0.84276 0.26427 0.0
C380 C 0.7872 0.72093 0.2518 0.0
C381 C 0.73954 0.689 0.23501 0.0
C382 C 0.74032 0.72218 0.2113 0.0
C383 C 0.76403 0.73788 0.21954 0.0
C384 C 0.7857 0.68833 0.27651 0.0
C385 C 0.76183 0.67258 0.26827 0.0
C386 C 0.8151 0.7359 0.25524 0.0
C387 C 0.794 0.80587 0.37943 0.0
H388 H 0.95758 0.85911 0.49469 0.0
H389 H 0.92911 0.8209 0.474 0.0
H390 H 0.91847 0.88458 0.35066 0.0
H391 H 0.94828 0.92267 0.37091 0.0
H392 H 0.72281 0.73582 0.18613 0.0
H393 H 0.76494 0.7629 0.19987 0.0
H394 H 0.80347 0.67456 0.30141 0.0
H395 H 0.76154 0.64702 0.28709 0.0
Tb396 Tb 0.3511 0.81683 0.38502 0.0
Tb397 Tb 0.3004 0.80998 0.31694 0.0
C398 C 0.26561 0.86967 0.38205 0.0
C399 C 0.42175 0.80125 0.45987 0.0
C400 C 0.48729 0.76901 0.50067 0.0
C401 C 0.45355 0.79255 0.52131 0.0
C402 C 0.42118 0.80842 0.50114 0.0
C403 C 0.45497 0.77646 0.43972 0.0
C404 C 0.48747 0.76059 0.45991 0.0
C405 C 0.3885 0.82287 0.43748 0.0
O406 O 0.34853 0.76201 0.40381 0.0
O407 O 0.29693 0.77037 0.37352 0.0
O408 O 0.35338 0.76317 0.30888 0.0
O409 O 0.39173 0.78005 0.34012 0.0
O410 O 0.25065 0.80644 0.30847 0.0
O411 O 0.29351 0.80361 0.25571 0.0
O412 O 0.32523 0.84961 0.28321 0.0
O413 O 0.34049 0.86695 0.33972 0.0
O414 O 0.29229 0.8491 0.40594 0.0
O415 O 0.2667 0.86199 0.3438 0.0
C416 C 0.32232 0.75086 0.39945 0.0
O417 O 0.39412 0.83093 0.39659 0.0
O418 O 0.35968 0.81368 0.44851 0.0
C419 C 0.38657 0.75867 0.31652 0.0
C420 C 0.23066 0.82709 0.23964 0.0
C421 C 0.1716 0.85864 0.18845 0.0
C422 C 0.20723 0.83465 0.17232 0.0
C423 C 0.23635 0.81898 0.19767 0.0
C424 C 0.19565 0.85278 0.25511 0.0
C425 C 0.16644 0.86845 0.22971 0.0
C426 C 0.25982 0.80476 0.26779 0.0
C427 C 0.33494 0.87242 0.29966 0.0
H428 H 0.4526 0.80042 0.55215 0.0
H429 H 0.39598 0.82766 0.51716 0.0
H430 H 0.45615 0.77041 0.40786 0.0
H431 H 0.51303 0.74261 0.44317 0.0
H432 H 0.21212 0.82639 0.14076 0.0
H433 H 0.26293 0.7991 0.18504 0.0
H434 H 0.19035 0.85974 0.2873 0.0
H435 H 0.13953 0.8874 0.24277 0.0
Tb436 Tb 0.31469 0.78797 0.79608 0.0
Tb437 Tb 0.32492 0.82494 0.87393 0.0
C438 C 0.26793 0.87066 0.81043 0.0
C439 C 0.28744 0.73579 0.72808 0.0
C440 C 0.26342 0.68493 0.70224 0.0
C441 C 0.24279 0.72371 0.69561 0.0
C442 C 0.25482 0.7489 0.70823 0.0
C443 C 0.30694 0.69699 0.73672 0.0
C444 C 0.29504 0.67186 0.72393 0.0
C445 C 0.30236 0.76281 0.73574 0.0
O446 O 0.36489 0.79912 0.77248 0.0
O447 O 0.36095 0.83905 0.81926 0.0
O448 O 0.37345 0.77263 0.86724 0.0
O449 O 0.34701 0.74102 0.83892 0.0
O450 O 0.32913 0.87105 0.89324 0.0
O451 O 0.33329 0.82173 0.93748 0.0
O452 O 0.28571 0.79841 0.9037 0.0
O453 O 0.26886 0.78681 0.84454 0.0
O454 O 0.29156 0.84878 0.78295 0.0
O455 O 0.2723 0.86215 0.85065 0.0
C456 C 0.3764 0.8227 0.7843 0.0
O457 O 0.27869 0.79253 0.75281 0.0
O458 O 0.33427 0.74955 0.75098 0.0
C459 C 0.37411 0.7413 0.85724 0.0
C460 C 0.30675 0.88081 0.96437 0.0
C461 C 0.26516 0.93632 1.01879 0.0
C462 C 0.3011 0.91053 1.02656 0.0
C463 C 0.32171 0.8831 0.99951 0.0
C464 C 0.26998 0.9049 0.95793 0.0
C465 C 0.24931 0.93252 0.98498 0.0
C466 C 0.33127 0.85619 0.93255 0.0
C467 C 0.26373 0.78902 0.88559 0.0
H468 H 0.21801 0.73457 0.67958 0.0
H469 H 0.23929 0.77871 0.70119 0.0
H470 H 0.33219 0.68594 0.75192 0.0
H471 H 0.31175 0.64214 0.72918 0.0
H472 H 0.31415 0.91291 0.05218 0.0
H473 H 0.35004 0.8648 1.00492 0.0
H474 H 0.25787 0.90339 0.93103 0.0
H475 H 0.22149 0.95168 0.97863 0.0
Tb476 Tb 0.35501 0.30068 0.89003 0.0
Tb477 Tb 0.31839 0.26152 0.83748 0.0
C478 C 0.33911 0.22744 0.929 0.0
C479 C 0.4053 0.34672 0.93852 0.0
C480 C 0.44439 0.3906 0.94686 0.0
C481 C 0.43437 0.36886 0.98223 0.0
C482 C 0.41498 0.34714 0.97805 0.0
C483 C 0.41576 0.36772 0.90277 0.0
C484 C 0.43534 0.38954 0.90692 0.0
C485 C 0.38287 0.32532 0.93665 0.0
O486 O 0.39555 0.28169 0.83549 0.0
O487 O 0.37899 0.23402 0.82853 0.0
O488 O 0.33005 0.30506 0.79302 0.0
O489 O 0.33803 0.34255 0.83491 0.0
O490 O 0.31919 0.21287 0.81768 0.0
O491 O 0.28579 0.26831 0.7896 0.0
O492 O 0.26938 0.29905 0.87373 0.0
O493 O 0.29821 0.3146 0.9197 0.0
O494 O 0.3624 0.24466 0.9225 0.0
O495 O 0.31573 0.23329 0.90168 0.0
C496 C 0.40169 0.25173 0.8178 0.0
O497 O 0.3502 0.34392 0.92358 0.0
O498 O 0.39988 0.29274 0.92227 0.0
C499 C 0.33374 0.33591 0.79784 0.0
C500 C 0.2698 0.21839 0.78012 0.0
C501 C 0.22523 0.18661 0.75541 0.0
C502 C 0.23798 0.21109 0.72651 0.0
C503 C 0.26005 0.22678 0.73879 0.0
C504 C 0.25622 0.1949 0.80968 0.0
C505 C 0.23389 0.17922 0.7974 0.0
C506 C 0.29668 0.23226 0.78935 0.0
C507 C 0.2683 0.31488 0.90706 0.0
H508 H 0.44077 0.36934 1.01337 0.0
H509 H 0.40693 0.33111 1.00595 0.0
H510 H 0.40848 0.36755 0.872 0.0
H511 H 0.44332 0.40558 0.87904 0.0
H512 H 0.2319 0.21715 0.69397 0.0
H513 H 0.27052 0.24467 0.71548 0.0
H514 H 0.26341 0.18815 0.84179 0.0
H515 H 0.22373 0.16103 0.82054 0.0
Tb516 Tb 0.85475 0.31042 0.88446 0.0
Tb517 Tb 0.80746 0.30947 0.8065 0.0
C518 C 0.77096 0.36719 0.87368 0.0
C519 C 0.9161 0.30055 0.97242 0.0
C520 C 0.97253 0.27846 1.02666 0.0
C521 C 0.94222 0.31314 1.02841 0.0
C522 C 0.91432 0.3239 1.00185 0.0
C523 C 0.94578 0.26525 0.9713 0.0
C524 C 0.97363 0.25416 0.99852 0.0
C525 C 0.88951 0.31653 0.94017 0.0
O526 O 0.82903 0.27021 0.90923 0.0
O527 O 0.82046 0.25639 0.84622 0.0
O528 O 0.86668 0.27517 0.78996 0.0
O529 O 0.89004 0.26001 0.85473 0.0
O530 O 0.76725 0.29327 0.79129 0.0
O531 O 0.79669 0.31945 0.74227 0.0
O532 O 0.81995 0.35972 0.79053 0.0
O533 O 0.87136 0.33919 0.82619 0.0
O534 O 0.8041 0.36167 0.88295 0.0
O535 O 0.76617 0.34415 0.85226 0.0
C536 C 0.82442 0.2478 0.8867 0.0
O537 O 0.90277 0.31297 0.90057 0.0
O538 O 0.85638 0.31551 0.94848 0.0
C539 C 0.89226 0.25389 0.81525 0.0
C540 C 0.73753 0.32108 0.72864 0.0
C541 C 0.67359 0.33365 0.68967 0.0
C542 C 0.70951 0.3204 0.66722 0.0
C543 C 0.74101 0.31415 0.6865 0.0
C544 C 0.70152 0.33696 0.75017 0.0
C545 C 0.66992 0.34336 0.7308 0.0
C546 C 0.77139 0.305 0.75115 0.0
C547 C 0.84994 0.36295 0.79864 0.0
H548 H 0.94057 0.33239 0.04977 0.0
H549 H 0.89202 0.35138 1.00306 0.0
H550 H 0.94808 0.24688 0.94854 0.0
H551 H 0.99679 0.22736 0.99632 0.0
H552 H 0.71355 0.31248 0.63563 0.0
H553 H 0.76838 0.30158 0.66926 0.0
H554 H 0.69785 0.34263 0.78269 0.0
H555 H 0.64268 0.35447 0.74873 0.0
Tb556 Tb 0.82294 0.84443 0.78653 0.0
Tb557 Tb 0.78661 0.80632 0.87332 0.0
C558 C 0.74658 0.83563 0.78962 0.0
C559 C 0.8765 0.89506 0.71459 0.0
C560 C 0.92554 0.93306 0.69941 0.0
C561 C 0.88846 0.95181 0.69045 0.0
C562 C 0.86427 0.93291 0.69775 0.0
C563 C 0.9136 0.87627 0.72357 0.0
C564 C 0.93782 0.89509 0.71606 0.0
C565 C 0.85028 0.87579 0.72257 0.0
O566 O 0.81222 0.88072 0.83491 0.0
O567 O 0.76738 0.86607 0.88044 0.0
O568 O 0.83678 0.80813 0.89118 0.0
O569 O 0.86849 0.81559 0.82555 0.0
O570 O 0.73933 0.81146 0.91704 0.0
O571 O 0.79153 0.76432 0.92465 0.0
O572 O 0.81676 0.75995 0.83421 0.0
O573 O 0.82754 0.7917 0.76922 0.0
O574 O 0.7652 0.8576 0.77767 0.0
O575 O 0.75321 0.81141 0.82371 0.0
C576 C 0.78618 0.88771 0.86727 0.0
O577 O 0.86393 0.83981 0.73448 0.0
O578 O 0.81814 0.89279 0.74405 0.0
C579 C 0.86702 0.80916 0.86713 0.0
C580 C 0.73607 0.75371 0.94518 0.0
C581 C 0.69361 0.70917 0.95717 0.0
C582 C 0.69598 0.72608 0.99104 0.0
C583 C 0.71706 0.74823 0.98504 0.0
C584 C 0.73433 0.7364 0.91156 0.0
C585 C 0.71363 0.714 0.91756 0.0
C586 C 0.75604 0.779 0.93812 0.0
C587 C 0.82677 0.76122 0.79289 0.0
H588 H 0.87789 0.98128 0.67859 0.0
H589 H 0.83581 0.94802 0.69061 0.0
H590 H 0.92397 0.84705 0.7365 0.0
H591 H 0.96626 0.8799 0.72322 0.0
H592 H 0.68086 0.7229 1.02189 0.0
H593 H 0.71797 0.76161 1.0113 0.0
H594 H 0.74862 0.7407 0.88058 0.0
H595 H 0.7132 0.7006 0.89111 0.0
C596 C 0.15322 0.1384 0.52144 0.0
C597 C 0.12826 0.14346 0.49266 0.0
C598 C 0.17397 0.16093 0.51622 0.0
C599 C 0.17023 0.1895 0.4822 0.0
H600 H 0.15738 0.11628 0.54754 0.0
H601 H 0.19361 0.15542 0.53849 0.0
S602 S 0.10463 0.21726 0.40164 0.0
N603 N 0.0985 0.18103 0.43127 0.0
N604 N 0.13691 0.22376 0.42172 0.0
C605 C 0.14427 0.19566 0.45416 0.0
C606 C 0.12342 0.17257 0.45933 0.0
C607 C 0.95038 0.18154 0.4412 0.0
C608 C 0.97148 0.15167 0.41675 0.0
C609 C 0.9195 0.21208 0.42684 0.0
C610 C 0.90762 0.2141 0.38757 0.0
H611 H 0.95778 0.18147 0.472 0.0
H612 H 0.90445 0.23413 0.44717 0.0
S613 S 0.95342 0.14395 0.31043 0.0
N614 N 0.97871 0.12661 0.35047 0.0
N615 N 0.9201 0.18385 0.32367 0.0
C616 C 0.92845 0.1846 0.36247 0.0
C617 C 0.96052 0.15356 0.37691 0.0
C618 C 0.9699 0.97878 0.45525 0.0
C619 C 1.00196 0.96284 0.47636 0.0
C620 C 0.95531 0.95621 0.44123 0.0
C621 C 0.97247 0.91686 0.44759 0.0
H622 H 0.956 0.00897 0.44971 0.0
H623 H 0.93017 0.96964 0.42579 0.0
S624 S 0.0592 0.86144 0.49748 0.0
N625 N 0.0517 0.9055 0.50069 0.0
N626 N 1.0246 0.86298 0.47407 0.0
C627 C 1.00495 0.90061 0.46804 0.0
C628 C 1.01961 0.9236 0.48254 0.0
C629 C 0.17356 0.95571 0.38648 0.0
C630 C 0.17185 0.96912 0.42482 0.0
C631 C 0.20372 0.92355 0.37322 0.0
C632 C 0.23363 0.90332 0.39763 0.0
H633 H 0.15107 0.96966 0.36691 0.0
H634 H 0.20333 0.9144 0.34356 0.0
S635 S 0.24394 0.9283 0.49931 0.0
N636 N 0.20387 0.96056 0.48611 0.0
N637 N 0.26006 0.90053 0.4613 0.0
C638 C 0.23257 0.91694 0.43563 0.0
C639 C 0.20191 0.94965 0.44912 0.0
C640 C 0.20093 0.94256 0.73688 0.0
C641 C 0.17164 0.96506 0.76437 0.0
C642 C 0.23187 0.91275 0.75212 0.0
C643 C 0.23527 0.90387 0.7957 0.0
H644 H 0.20008 0.94779 0.70295 0.0
H645 H 0.25323 0.89643 0.72927 0.0
S646 S 0.16676 0.9542 0.88156 0.0
N647 N 0.14831 0.97656 0.83765 0.0
N648 N 0.20648 0.92043 0.86648 0.0
C649 C 0.20635 0.92624 0.82377 0.0
C650 C 0.1746 0.95675 0.80812 0.0
C651 C 0.15453 0.17252 0.70152 0.0
C652 C 0.16346 0.13376 0.71035 0.0
C653 C 0.1744 0.18946 0.71659 0.0
C654 C 0.20395 0.16818 0.7409 0.0
H655 H 0.13135 0.18998 0.68394 0.0
H656 H 0.16623 0.21953 0.70967 0.0
S657 S 0.24061 0.06502 0.76876 0.0
N658 N 0.20519 0.07419 0.7423 0.0
N659 N 0.24282 0.10589 0.77035 0.0
C660 C 0.21373 0.12922 0.74894 0.0
C661 C 0.19345 0.11205 0.73368 0.0
C662 C 0.96076 0.18628 0.73931 0.0
C663 C 0.98126 0.155 0.76617 0.0
C664 C 0.93249 0.21804 0.75545 0.0
C665 C 0.92342 0.22022 0.79926 0.0
H666 H 0.96658 0.1865 0.70523 0.0
H667 H 0.91775 0.24117 0.73321 0.0
S668 S 0.96703 0.14534 0.88369 0.0
N669 N 0.98947 0.12783 0.83911 0.0
N670 N 0.93638 0.1875 0.86958 0.0
C671 C 0.94346 0.18909 0.82669 0.0
C672 C 0.97228 0.15654 0.81015 0.0
C673 C 0.99575 0.96905 0.72137 0.0
C674 C 0.99947 0.99259 0.68424 0.0
C675 C 0.9721 0.94975 0.72573 0.0
C676 C 0.95105 0.95328 0.69318 0.0
H677 H 1.0115 0.96527 0.74724 0.0
H678 H 0.96989 0.93229 0.75514 0.0
S679 S 0.9506 0.01143 0.5895 0.0
N680 N 0.97977 0.0187 0.61443 0.0
N681 N 0.93593 0.98164 0.62216 0.0
C682 C 0.95462 0.97656 0.65572 0.0
C683 C 0.97875 0.99628 0.6513 0.0
C684 C 0.33195 0.19461 0.23904 0.0
C685 C 0.31601 0.17021 0.2628 0.0
C686 C 0.34017 0.21918 0.25875 0.0
C687 C 0.33317 0.22005 0.30312 0.0
H688 H 0.33614 0.19616 0.2048 0.0
H689 H 0.35054 0.23881 0.23868 0.0
S690 S 0.29763 0.1565 0.37978 0.0
N691 N 0.29753 0.14501 0.33294 0.0
N692 N 0.31362 0.19032 0.37034 0.0
C693 C 0.3199 0.19353 0.32736 0.0
C694 C 0.31106 0.16894 0.30713 0.0
C695 C 0.93984 0.37131 0.25695 0.0
C696 C 0.96863 0.34514 0.23265 0.0
C697 C 0.90829 0.36453 0.27705 0.0
C698 C 0.90395 0.33118 0.27384 0.0
H699 H 0.94205 0.39708 0.26112 0.0
H700 H 0.88744 0.38546 0.29592 0.0
S701 S 0.97091 0.25346 0.21358 0.0
N702 N 0.99032 0.28449 0.20618 0.0
N703 N 0.93106 0.27193 0.24346 0.0
C704 C 0.93196 0.3052 0.24856 0.0
C705 C 0.9642 0.31211 0.22809 0.0
C706 C 0.87408 0.87158 0.14894 0.0
C707 C 0.86851 0.90926 0.14791 0.0
C708 C 0.86693 0.85098 0.1867 0.0
C709 C 0.85432 0.86699 0.22534 0.0
H710 H 0.88295 0.85818 0.12007 0.0
H711 H 0.87172 0.82198 0.18537 0.0
S712 S 0.83827 0.96416 0.23998 0.0
N713 N 0.85144 0.96166 0.18871 0.0
N714 N 0.83856 0.92245 0.26038 0.0
C715 C 0.84982 0.90438 0.22506 0.0
C716 C 0.85667 0.92565 0.18619 0.0
C717 C 0.11622 0.88857 0.09397 0.0
C718 C 0.08397 0.88167 0.11053 0.0
C719 C 0.14344 0.88328 0.11986 0.0
C720 C 0.13963 0.87044 0.16328 0.0
H721 H 0.12117 0.89639 0.0603 0.0
H722 H 0.16838 0.88782 0.10542 0.0
S723 S 0.0605 0.84749 0.22177 0.0
N724 N 0.0496 0.86155 0.1729 0.0
N725 N 0.10072 0.85111 0.22154 0.0
C726 C 0.10679 0.86472 0.18049 0.0
C727 C 0.079 0.87039 0.15413 0.0
C728 C 0.23806 0.99419 0.11043 0.0
C729 C 0.22996 0.03076 0.0899 0.0
C730 C 0.24627 0.96394 0.08761 0.0
C731 C 0.24676 0.96917 0.04333 0.0
H732 H 0.24065 0.98863 0.14402 0.0
H733 H 0.25459 0.93595 0.10439 0.0
S734 S 0.2241 0.05996 0.97507 0.0
N735 N 0.21991 0.071 1.02335 0.0
N736 N 0.23543 0.01421 0.98023 0.0
C737 C 0.23571 0.00604 1.02286 0.0
C738 C 0.22726 0.03687 0.04621 0.0
C739 C 0.18002 0.32065 0.97983 0.0
C740 C 0.17283 0.35124 1.00209 0.0
C741 C 0.20926 0.31066 0.9466 0.0
C742 C 0.23288 0.33044 0.93511 0.0
H743 H 0.16348 0.30374 0.98901 0.0
H744 H 0.21476 0.28598 0.9316 0.0
S745 S 0.22485 0.4137 0.98213 0.0
N746 N 0.19062 0.4022 1.00881 0.0
N747 N 0.24587 0.38318 0.94716 0.0
C748 C 0.22508 0.3619 0.9561 0.0
C749 C 0.19498 0.37239 0.98935 0.0
C750 C 0.8595 0.14211 0.89249 0.0
C751 C 0.84999 0.13136 0.93511 0.0
C752 C 0.8503 0.17998 0.87724 0.0
C753 C 0.83199 0.20843 0.9043 0.0
H754 H 0.87336 0.12112 0.87069 0.0
H755 H 0.85818 0.18691 0.84399 0.0
S756 S 0.80355 0.19423 1.0195 0.0
N757 N 0.82251 0.15156 1.00466 0.0
N758 N 0.80629 0.22287 0.97625 0.0
C759 C 0.82337 0.19788 0.94734 0.0
C760 C 0.83205 0.1593 0.96267 0.0
C761 C 0.92774 0.80109 0.95218 0.0
C762 C 0.96198 0.79859 0.9286 0.0
C763 C 0.89739 0.80418 0.93221 0.0
C764 C 0.89994 0.80515 0.88776 0.0
H765 H 0.92483 0.79938 0.98638 0.0
H766 H 0.87178 0.80566 0.95192 0.0
S767 S 0.98312 0.80274 0.81169 0.0
N768 N 0.99612 0.79952 0.85857 0.0
N769 N 0.93977 0.80539 0.82098 0.0
C770 C 0.93391 0.80383 0.86391 0.0
C771 C 0.96467 0.80052 0.8843 0.0
C772 C 0.19167 0.30435 0.25727 0.0
C773 C 0.18352 0.33077 0.22113 0.0
C774 C 0.21569 0.30437 0.28511 0.0
C775 C 0.23295 0.33057 0.27792 0.0
H776 H 0.17872 0.28411 0.26472 0.0
H777 H 0.22085 0.28347 0.31246 0.0
S778 S 0.22284 0.40401 0.18604 0.0
N779 N 0.19628 0.38271 0.17875 0.0
N780 N 0.24091 0.38265 0.23036 0.0
C781 C 0.22564 0.35646 0.24126 0.0
C782 C 0.20115 0.35658 0.21319 0.0
C783 C 0.18656 0.78901 0.97776 0.0
C784 C 0.16099 0.78188 0.95866 0.0
C785 C 0.22034 0.7898 0.95468 0.0
C786 C 0.2301 0.78338 0.9115 0.0
H787 H 0.17947 0.79618 1.00998 0.0
H788 H 0.2382 0.79696 0.97045 0.0
S789 S 0.17381 0.75976 0.84835 0.0
N790 N 0.14875 0.766 0.89509 0.0
N791 N 0.21167 0.76649 0.85224 0.0
C792 C 0.20538 0.77424 0.89302 0.0
C793 C 0.17107 0.77383 0.91637 0.0
C794 C 0.32377 0.14957 1.01023 0.0
C795 C 0.33045 0.15732 0.04837 0.0
C796 C 0.32725 0.17178 0.97153 0.0
C797 C 0.33837 0.20206 0.96931 0.0
H798 H 0.31387 0.12748 1.01066 0.0
H799 H 0.32059 0.16555 0.94328 0.0
S800 S 0.36016 0.23305 0.06032 0.0
N801 N 0.34897 0.19705 0.0814 0.0
N802 N 0.35685 0.23767 1.0092 0.0
C803 C 0.34643 0.20904 1.00714 0.0
C804 C 0.34207 0.18703 0.04646 0.0
C805 C 0.0498 0.28905 0.07247 0.0
C806 C 0.05843 0.26008 0.10628 0.0
C807 C 1.02285 0.29394 0.04636 0.0
C808 C 1.0038 0.26967 0.05218 0.0
H809 H 0.06256 0.30942 0.06733 0.0
H810 H 1.01624 0.31751 1.02189 0.0
S811 S 1.01848 0.18713 0.13299 0.0
N812 N 0.04716 0.20532 0.14227 0.0
N813 N 0.99722 0.21403 0.09237 0.0
C814 C 1.01342 0.23944 0.08432 0.0
C815 C 0.04046 0.23482 0.11156 0.0
C816 C 0.79822 0.97214 0.89372 0.0
C817 C 0.79127 0.96967 0.93818 0.0
C818 C 0.79343 0.94738 0.87095 0.0
C819 C 0.78163 0.91874 0.89155 0.0
H820 H 0.80957 0.99211 0.8764 0.0
H821 H 0.80108 0.94946 0.83696 0.0
S822 S 0.7563 0.90234 1.00745 0.0
N823 N 0.76905 0.93827 1.0019 0.0
N824 N 0.76007 0.89142 0.95916 0.0
C825 C 0.77183 0.91768 0.93582 0.0
C826 C 0.77666 0.94319 0.95912 0.0
C827 C 0.99729 0.78091 0.18315 0.0
C828 C 0.99246 0.7674 0.14778 0.0
C829 C 0.97541 0.77927 0.22271 0.0
C830 C 0.94821 0.76348 0.2288 0.0
H831 H 1.01641 0.79495 0.17959 0.0
H832 H 0.979 0.79165 0.24829 0.0
S833 S 0.92626 0.72259 0.14615 0.0
N834 N 0.95932 0.73686 0.12172 0.0
N835 N 0.91936 0.73264 0.1953 0.0
C836 C 0.94461 0.7483 0.19391 0.0
C837 C 0.96631 0.75063 0.15372 0.0
C838 C 0.33467 0.97125 0.27377 0.0
C839 C 0.33216 0.97974 0.23002 0.0
C840 C 0.33725 0.93611 0.29513 0.0
C841 C 0.33649 0.90777 0.27407 0.0
H842 H 0.33322 0.99258 0.29212 0.0
H843 H 0.33817 0.93192 0.32903 0.0
S844 S 0.33161 0.9153 0.15867 0.0
N845 N 0.33081 0.95636 0.16567 0.0
N846 N 0.33464 0.89054 0.20577 0.0
C847 C 0.33521 0.91545 0.22983 0.0
C848 C 0.33333 0.95127 0.20787 0.0
C849 C 0.78799 0.1069 0.12997 0.0
C850 C 0.82043 0.09183 0.10192 0.0
C851 C 0.784 0.13493 0.15468 0.0
C852 C 0.81231 0.1487 0.15203 0.0
H853 H 0.76616 0.09624 0.13377 0.0
H854 H 0.75903 0.14529 0.1767 0.0
S855 S 0.8997 0.12302 0.0785 0.0
N856 N 0.87943 0.09598 0.0697 0.0
N857 N 0.87161 0.14828 0.11588 0.0
C858 C 0.84392 0.1351 0.12273 0.0
C859 C 0.84804 0.10678 0.09775 0.0
C860 C 0.6502 0.63819 1.00404 0.0
C861 C 0.62713 0.64174 0.97369 0.0
C862 C 0.67144 0.66024 0.9987 0.0
C863 C 0.67006 0.68684 0.96296 0.0
H864 H 0.6525 0.61757 1.03153 0.0
H865 H 0.68961 0.6559 1.02229 0.0
S866 S 0.60979 0.71032 0.87749 0.0
N867 N 0.60159 0.67583 0.90872 0.0
N868 N 0.64077 0.71783 0.89894 0.0
C869 C 0.64591 0.69156 0.93325 0.0
C870 C 0.62462 0.66889 0.93855 0.0
C871 C 0.43152 0.63968 0.89526 0.0
C872 C 0.46803 0.63867 0.89097 0.0
C873 C 0.40151 0.67242 0.88254 0.0
C874 C 0.40662 0.70585 0.86641 0.0
H875 H 0.42595 0.61511 0.90953 0.0
H876 H 0.37386 0.67201 0.88717 0.0
S877 S 0.49684 0.71776 0.8469 0.0
N878 N 0.50778 0.67354 0.86722 0.0
N879 N 0.45141 0.73536 0.84468 0.0
C880 C 0.44315 0.70495 0.86089 0.0
C881 C 0.47384 0.67131 0.87277 0.0
C882 C 0.51168 0.4225 0.98377 0.0
C883 C 0.49918 0.4607 0.96822 0.0
C884 C 0.49426 0.39988 0.97595 0.0
C885 C 0.46362 0.41469 0.95244 0.0
H886 H 0.53547 0.40991 1.00151 0.0
H887 H 0.50492 0.3705 0.98831 0.0
S888 S 0.41848 0.51377 0.90762 0.0
N889 N 0.45336 0.51284 0.93003 0.0
N890 N 0.42041 0.47035 0.91548 0.0
C891 C 0.45064 0.45295 0.93705 0.0
C892 C 0.46844 0.47596 0.94496 0.0
C893 C 0.67445 0.44747 0.8763 0.0
C894 C 0.6748 0.46828 0.90754 0.0
C895 C 0.70542 0.41477 0.86579 0.0
C896 C 0.73824 0.40178 0.88567 0.0
H897 H 0.64964 0.45576 0.86086 0.0
H898 H 0.70354 0.39956 0.84185 0.0
S899 S 0.75403 0.44769 0.96788 0.0
N900 N 0.7113 0.47438 0.957 0.0
N901 N 0.76918 0.41366 0.93718 0.0
C902 C 0.73917 0.42308 0.91611 0.0
C903 C 0.70761 0.45604 0.92703 0.0
C904 C 0.67822 0.46711 0.31547 0.0
C905 C 0.66715 0.4686 0.27584 0.0
C906 C 0.70845 0.43598 0.33101 0.0
C907 C 0.7286 0.4052 0.30751 0.0
H908 H 0.66418 0.49056 0.33403 0.0
H909 H 0.71644 0.43638 0.36129 0.0
S910 S 0.70742 0.39351 0.20426 0.0
N911 N 0.67662 0.4352 0.21522 0.0
N912 N 0.73278 0.37716 0.24411 0.0
C913 C 0.7167 0.40591 0.26858 0.0
C914 C 0.68616 0.43745 0.25286 0.0
C915 C 0.66717 0.64652 0.2485 0.0
C916 C 0.66735 0.63934 0.20715 0.0
C917 C 0.69083 0.66225 0.25726 0.0
C918 C 0.71541 0.67163 0.22497 0.0
H919 H 0.64815 0.64052 0.2743 0.0
H920 H 0.68942 0.66769 0.28945 0.0
S921 S 0.72839 0.65665 0.11185 0.0
N922 N 0.69539 0.6414 0.13393 0.0
N923 N 0.7397 0.67142 0.15031 0.0
C924 C 0.71613 0.66444 0.18351 0.0
C925 C 0.69211 0.64824 0.17461 0.0
C926 C 0.4804 0.67575 0.30699 0.0
C927 C 0.47942 0.66127 0.27039 0.0
C928 C 0.45083 0.70797 0.32117 0.0
C929 C 0.41899 0.72648 0.29963 0.0
H930 H 0.5044 0.66252 0.32438 0.0
H931 H 0.45264 0.718 0.34962 0.0
S932 S 0.40255 0.69949 0.20244 0.0
N933 N 0.44368 0.66789 0.21323 0.0
N934 N 0.38858 0.72785 0.23972 0.0
C935 C 0.41772 0.71208 0.26315 0.0
C936 C 0.44777 0.67965 0.24861 0.0
C937 C 0.51441 0.46043 0.18362 0.0
C938 C 0.50286 0.49262 0.20457 0.0
C939 C 0.49367 0.43781 0.19063 0.0
C940 C 0.46059 0.44659 0.2188 0.0
H941 H 0.54014 0.45219 0.16244 0.0
H942 H 0.50396 0.41289 0.17445 0.0
S943 S 0.41612 0.53022 0.27761 0.0
N944 N 0.45477 0.53373 0.25198 0.0
N945 N 0.41577 0.49129 0.26517 0.0
C946 C 0.44822 0.47927 0.23902 0.0
C947 C 0.46934 0.50226 0.2319 0.0
C948 C 0.87063 0.69233 0.71077 0.0
C949 C 0.84952 0.66986 0.71891 0.0
C950 C 0.86358 0.72102 0.73561 0.0
C951 C 0.83578 0.72793 0.77048 0.0
H952 H 0.89251 0.68817 0.68441 0.0
H953 H 0.88004 0.73808 0.72728 0.0
S954 S 0.77346 0.67624 0.80648 0.0
N955 N 0.79986 0.65612 0.76476 0.0
N956 N 0.78728 0.70947 0.81226 0.0
C957 C 0.81493 0.70519 0.77964 0.0
C958 C 0.82155 0.6764 0.75361 0.0
C959 C 0.45856 0.85441 0.75006 0.0
C960 C 0.47226 0.84332 0.70902 0.0
C961 C 0.42764 0.848 0.77385 0.0
C962 C 0.40862 0.8304 0.7577 0.0
H963 H 0.47229 0.86766 0.76424 0.0
H964 H 0.41889 0.8566 0.80544 0.0
S965 S 0.43056 0.80004 0.64976 0.0
N966 N 0.46259 0.81635 0.65216 0.0
N967 N 0.40477 0.80449 0.69617 0.0
C968 C 0.42159 0.82002 0.71618 0.0
C969 C 0.45322 0.82637 0.69212 0.0
C970 C 0.32621 0.42384 0.71978 0.0
C971 C 0.34415 0.40885 0.68132 0.0
C972 C 0.32358 0.40039 0.75773 0.0
C973 C 0.33787 0.36107 0.7584 0.0
H974 H 0.31459 0.45391 0.72058 0.0
H975 H 0.30962 0.41314 0.78649 0.0
S976 S 0.38737 0.30782 0.66614 0.0
N977 N 0.37651 0.35216 0.64663 0.0
N978 N 0.3712 0.30843 0.71686 0.0
C979 C 0.3558 0.34591 0.72001 0.0
C980 C 0.35902 0.36964 0.68183 0.0
C981 C 0.60977 0.33879 0.60981 0.0
C982 C 0.58877 0.31865 0.63283 0.0
C983 C 0.63562 0.34563 0.62895 0.0
C984 C 0.64125 0.33283 0.67186 0.0
H985 H 0.60836 0.34677 0.57613 0.0
H986 H 0.65253 0.35959 0.6095 0.0
S987 S 0.59054 0.28134 0.74636 0.0
N988 N 0.57333 0.28832 0.70119 0.0
N989 N 0.62142 0.30094 0.73705 0.0
C990 C 0.61848 0.31482 0.69567 0.0
C991 C 0.59246 0.30777 0.67616 0.0
C992 C 0.81418 0.54041 0.53093 0.0
C993 C 0.80814 0.54113 0.57505 0.0
C994 C 0.80538 0.51594 0.51201 0.0
C995 C 0.79082 0.49059 0.53657 0.0
H996 H 0.8283 0.55707 0.5111 0.0
H997 H 0.81295 0.51479 0.4782 0.0
S998 S 0.76557 0.48463 0.65315 0.0
N999 N 0.78318 0.51727 0.64252 0.0
N1000 N 0.76687 0.47079 0.60713 0.0
C1001 C 0.78204 0.49302 0.58051 0.0
C1002 C 0.79058 0.51845 0.59971 0.0
C1003 C 0.7311 0.82541 0.48576 0.0
C1004 C 0.69584 0.82998 0.47664 0.0
C1005 C 0.76219 0.81819 0.45425 0.0
C1006 C 0.75982 0.81468 0.41201 0.0
H1007 H 0.73457 0.82796 0.51748 0.0
H1008 H 0.78845 0.81515 0.46335 0.0
S1009 S 0.6743 0.82136 0.37226 0.0
N1010 N 0.66095 0.82849 0.42252 0.0
N1011 N 0.71874 0.81506 0.36379 0.0
C1012 C 0.72473 0.81858 0.40274 0.0
C1013 C 0.69304 0.82618 0.43478 0.0
C1014 C 0.35367 0.65913 0.47351 0.0
C1015 C 0.33192 0.64026 0.46638 0.0
C1016 C 0.34945 0.69494 0.45274 0.0
C1017 C 0.32329 0.71399 0.42347 0.0
H1018 H 0.37433 0.64607 0.49546 0.0
H1019 H 0.36745 0.70752 0.45948 0.0
S1020 S 0.25893 0.67719 0.39344 0.0
N1021 N 0.28278 0.64365 0.42803 0.0
N1022 N 0.27469 0.71088 0.38909 0.0
C1023 C 0.30073 0.69578 0.4166 0.0
C1024 C 0.30503 0.65911 0.43797 0.0
C1025 C 0.46984 0.27356 0.43143 0.0
C1026 C 0.46335 0.29128 0.46829 0.0
C1027 C 0.4407 0.27827 0.40851 0.0
C1028 C 0.40337 0.30011 0.42194 0.0
H1029 H 0.49786 0.25537 0.42031 0.0
H1030 H 0.44745 0.26375 0.38065 0.0
S1031 S 0.37096 0.35451 0.5149 0.0
N1032 N 0.41653 0.33336 0.51575 0.0
N1033 N 0.36173 0.34154 0.47352 0.0
C1034 C 0.39642 0.31873 0.45824 0.0
C1035 C 0.42632 0.31456 0.48111 0.0
C1036 C 0.69134 0.86022 0.69516 0.0
C1037 C 0.67566 0.83299 0.70071 0.0
C1038 C 0.71316 0.86139 0.72448 0.0
C1039 C 0.72024 0.83561 0.76123 0.0
H1040 H 0.68714 0.88078 0.66748 0.0
H1041 H 0.72493 0.88261 0.71783 0.0
S1042 S 0.68385 0.75982 0.7924 0.0
N1043 N 0.6677 0.78028 0.7468 0.0
N1044 N 0.70828 0.78253 0.80217 0.0
C1045 C 0.70407 0.80859 0.76773 0.0
C1046 C 0.68203 0.80722 0.73748 0.0
C1047 C 0.68819 0.25243 0.42774 0.0
C1048 C 0.67272 0.26171 0.46886 0.0
C1049 C 0.71748 0.2624 0.40637 0.0
C1050 C 0.73303 0.28159 0.42542 0.0
H1051 H 0.67687 0.2382 0.4115 0.0
H1052 H 0.72792 0.25503 0.37441 0.0
S1053 S 0.70416 0.30996 0.53414 0.0
N1054 N 0.67607 0.28962 0.52887 0.0
N1055 N 0.73156 0.30804 0.48887 0.0
C1056 C 0.71858 0.29002 0.46715 0.0
C1057 C 0.68827 0.28028 0.48876 0.0
C1058 C 0.86529 0.6562 0.47437 0.0
C1059 C 0.89668 0.64705 0.49537 0.0
C1060 C 0.86061 0.67949 0.43591 0.0
C1061 C 0.88704 0.69478 0.41707 0.0
H1062 H 0.84402 0.64544 0.48797 0.0
H1063 H 0.83548 0.68641 0.42159 0.0
S1064 S 0.97479 0.67841 0.45908 0.0
N1065 N 0.95492 0.65436 0.49435 0.0
N1066 N 0.94665 0.69772 0.42192 0.0
C1067 C 0.91916 0.6849 0.43726 0.0
C1068 C 0.92386 0.66114 0.4764 0.0
C1069 C 0.58416 0.76039 0.51346 0.0
C1070 C 0.58629 0.74976 0.55723 0.0
C1071 C 0.553 0.76431 0.49503 0.0
C1072 C 0.52273 0.75753 0.51948 0.0
H1073 H 0.60557 0.76817 0.49357 0.0
H1074 H 0.55169 0.77493 0.46183 0.0
S1075 S 0.51821 0.72102 0.63341 0.0
N1076 N 0.55788 0.72722 0.62322 0.0
N1077 N 0.49958 0.73386 0.58839 0.0
C1078 C 0.52589 0.74384 0.56252 0.0
C1079 C 0.55758 0.74008 0.58139 0.0
C1080 C 0.31393 0.46347 0.41414 0.0
C1081 C 0.29622 0.46743 0.45587 0.0
C1082 C 0.31156 0.43809 0.39016 0.0
C1083 C 0.29152 0.41519 0.40678 0.0
H1084 H 0.33092 0.47928 0.4002 0.0
H1085 H 0.32692 0.43542 0.35879 0.0
S1086 S 0.23823 0.41607 0.51385 0.0
N1087 N 0.25622 0.44769 0.51216 0.0
N1088 N 0.25189 0.39972 0.46729 0.0
C1089 C 0.27204 0.42019 0.44779 0.0
C1090 C 0.27437 0.44632 0.47225 0.0
C1091 C 0.4759 0.25888 0.72814 0.0
C1092 C 0.47787 0.23327 0.70131 0.0
C1093 C 0.45287 0.26303 0.76689 0.0
C1094 C 0.43058 0.24189 0.78042 0.0
H1095 H 0.49196 0.27626 0.71879 0.0
H1096 H 0.45167 0.28396 0.78565 0.0
S1097 S 0.42602 0.17056 0.72162 0.0
N1098 N 0.45603 0.18611 0.69101 0.0
N1099 N 0.41295 0.19349 0.76376 0.0
C1100 C 0.43323 0.21527 0.75435 0.0
C1101 C 0.45678 0.21108 0.71487 0.0
C1102 C 0.85742 0.44244 0.71685 0.0
C1103 C 0.87917 0.45565 0.73485 0.0
C1104 C 0.84799 0.41246 0.73752 0.0
C1105 C 0.86023 0.39441 0.77683 0.0
H1106 H 0.8477 0.45535 0.68644 0.0
H1107 H 0.83123 0.40325 0.72245 0.0
S1108 S 0.91559 0.42009 0.83883 0.0
N1109 N 0.91096 0.44969 0.7952 0.0
N1110 N 0.89395 0.39309 0.83387 0.0
C1111 C 0.88192 0.40747 0.79523 0.0
C1112 C 0.89128 0.4381 0.77427 0.0
C1113 C 0.25994 0.5933 0.68686 0.0
C1114 C 0.25996 0.5966 0.64285 0.0
C1115 C 0.25709 0.62351 0.70677 0.0
C1116 C 0.25494 0.65784 0.68315 0.0
H1117 H 0.26539 0.56627 0.70548 0.0
H1118 H 0.25956 0.61905 0.74036 0.0
S1119 S 0.25039 0.68145 0.56726 0.0
N1120 N 0.25372 0.63759 0.5768 0.0
N1121 N 0.24963 0.69422 0.6137 0.0
C1122 C 0.25156 0.66244 0.63959 0.0
C1123 C 0.2538 0.63177 0.61952 0.0
loop_
_geom_bond_atom_site_label_1
_geom_bond_atom_site_label_2
_geom_bond_distance
_geom_bond_site_symmetry_2
_ccdc_geom_bond_type
Cu0 N1 1.999 . S
Cu0 O6 1.974 1_545 S
Cu0 N11 1.985 1_545 S
Cu0 O20 1.959 1_455 S
N1 Cu0 1.999 . S
N1 C3 1.263 . S
N1 C5 1.389 . S
N2 C3 1.358 . S
N2 C4 1.400 . S
C3 N1 1.263 . S
C3 N2 1.358 . S
C3 H9 0.930 . S
C4 N2 1.400 . S
C4 C5 1.351 . S
C4 H21 0.930 . S
C5 N1 1.389 . S
C5 C4 1.351 . S
C5 H10 0.930 . S
O6 Cu0 1.974 1_565 S
O6 C16 1.282 . S
C7 O8 1.254 1_655 S
C7 O20 1.251 . S
O8 C7 1.254 1_455 S
H9 C3 0.930 . S
H10 C5 0.930 . S
N11 Cu0 1.985 1_565 S
N11 C13 1.335 1_465 S
N11 C14 1.390 . S
N12 C13 1.345 1_565 S
N12 C15 1.336 1_655 S
C13 N11 1.335 1_645 S
C13 N12 1.345 1_545 S
C13 H18 0.930 . S
C14 N11 1.390 . S
C14 C15 1.346 . S
C14 H19 0.930 . S
C15 N12 1.336 1_455 S
C15 C14 1.346 . S
C15 H22 0.929 . S
C16 O6 1.282 . S
C16 O17 1.216 . S
O17 C16 1.216 . S
H18 C13 0.930 . S
H19 C14 0.930 . S
O20 Cu0 1.959 1_655 S
O20 C7 1.251 . S
H21 C4 0.930 . S
H22 C15 0.929 . S
Cu23 N24 1.999 . S
Cu23 O29 1.974 1_455 S
Cu23 N34 1.985 . S
Cu23 O43 1.959 . S
N24 Cu23 1.999 . S
N24 C26 1.263 1_455 S
N24 C28 1.374 1_545 S
N25 C26 1.358 . S
N25 C27 1.400 1_545 S
C26 N24 1.263 1_655 S
C26 N25 1.358 . S
C26 H32 0.930 . S
C27 N25 1.400 1_565 S
C27 C28 1.364 1_655 S
C27 H44 0.930 . S
C28 N24 1.374 1_565 S
C28 C27 1.364 1_455 S
C28 H33 0.932 . S
O29 Cu23 1.974 1_655 S
O29 C39 1.282 . S
C30 O31 1.261 . S
C30 O43 1.251 . S
O31 C30 1.261 . S
H32 C26 0.930 . S
H33 C28 0.932 . S
N34 Cu23 1.985 . S
N34 C36 1.335 . S
N34 C37 1.390 . S
N35 C36 1.345 . S
N35 C38 1.336 . S
C36 N34 1.335 . S
C36 N35 1.345 . S
C36 H41 0.930 . S
C37 N34 1.390 . S
C37 C38 1.346 . S
C37 H42 0.930 . S
C38 N35 1.336 . S
C38 C37 1.346 . S
C38 H45 0.929 . S
C39 O29 1.282 . S
C39 O40 1.216 . S
O40 C39 1.216 . S
H41 C36 0.930 . S
H42 C37 0.930 . S
O43 Cu23 1.959 . S
O43 C30 1.251 . S
H44 C27 0.930 . S
H45 C38 0.929 . S
Cu46 N47 1.999 . S
Cu46 O52 1.974 . S
Cu46 N57 1.985 . S
Cu46 O66 1.959 . S
N47 Cu46 1.999 . S
N47 C49 1.263 . S
N47 C51 1.389 . S
N48 C49 1.358 . S
N48 C50 1.400 . S
C49 N47 1.263 . S
C49 N48 1.358 . S
C49 H55 0.930 . S
C50 N48 1.400 . S
C50 C51 1.351 . S
C50 H67 0.930 1_554 S
C51 N47 1.389 . S
C51 C50 1.351 . S
C51 H56 0.930 . S
O52 Cu46 1.974 . S
O52 C62 1.282 . S
C53 O54 1.261 . S
C53 O66 1.251 . S
O54 C53 1.261 . S
H55 C49 0.930 . S
H56 C51 0.930 . S
N57 Cu46 1.985 . S
N57 C59 1.335 . S
N57 C60 1.390 . S
N58 C59 1.345 . S
N58 C61 1.336 . S
C59 N57 1.335 . S
C59 N58 1.345 . S
C59 H64 0.930 . S
C60 N57 1.390 . S
C60 C61 1.346 . S
C60 H65 0.930 . S
C61 N58 1.336 . S
C61 C60 1.346 . S
C61 H68 0.929 . S
C62 O52 1.282 . S
C62 O63 1.216 . S
O63 C62 1.216 . S
H64 C59 0.930 . S
H65 C60 0.930 . S
O66 Cu46 1.959 . S
O66 C53 1.251 . S
H67 C50 0.930 1_556 S
H68 C61 0.929 . S
Cu69 N70 1.999 . S
Cu69 O75 1.974 . S
Cu69 N80 1.985 . S
Cu69 O89 1.959 . S
N70 Cu69 1.999 . S
N70 C72 1.263 . S
N70 C74 1.389 . S
N71 C72 1.358 . S
N71 C73 1.400 1_554 S
C72 N70 1.263 . S
C72 N71 1.358 . S
C72 H78 0.930 . S
C73 N71 1.400 1_556 S
C73 C74 1.351 1_556 S
C73 H90 0.930 . S
C74 N70 1.389 . S
C74 C73 1.351 1_554 S
C74 H79 0.930 . S
O75 Cu69 1.974 . S
O75 C85 1.282 . S
C76 O77 1.261 . S
C76 O89 1.251 . S
O77 C76 1.261 . S
H78 C72 0.930 . S
H79 C74 0.930 . S
N80 Cu69 1.985 . S
N80 C82 1.335 . S
N80 C83 1.390 . S
N81 C82 1.345 1_655 S
N81 C84 1.336 1_655 S
C82 N80 1.335 . S
C82 N81 1.345 1_455 S
C82 H87 0.930 1_455 S
C83 N80 1.390 . S
C83 C84 1.346 . S
C83 H88 0.930 . S
C84 N81 1.336 1_455 S
C84 C83 1.346 . S
C84 H91 0.929 . S
C85 O75 1.282 . S
C85 O86 1.216 . S
O86 C85 1.216 . S
H87 C82 0.930 1_655 S
H88 C83 0.930 . S
O89 Cu69 1.959 . S
O89 C76 1.251 . S
H90 C73 0.930 . S
H91 C84 0.929 . S
Cu92 N93 1.999 1_554 S
Cu92 O98 1.974 . S
Cu92 N103 1.985 1_545 S
Cu92 O112 1.959 1_544 S
N93 Cu92 1.999 1_556 S
N93 C95 1.263 . S
N93 C97 1.389 . S
N94 C95 1.358 . S
N94 C96 1.400 . S
C95 N93 1.263 . S
C95 N94 1.358 . S
C95 H101 0.930 . S
C96 N94 1.400 . S
C96 C97 1.351 . S
C96 H113 0.930 . S
C97 N93 1.389 . S
C97 C96 1.351 . S
C97 H102 0.930 . S
O98 Cu92 1.974 . S
O98 C108 1.282 . S
C99 O100 1.261 . S
C99 O112 1.251 . S
O100 C99 1.261 . S
H101 C95 0.930 . S
H102 C97 0.930 . S
N103 Cu92 1.985 1_565 S
N103 C105 1.335 . S
N103 C106 1.390 . S
N104 C105 1.345 . S
N104 C107 1.336 . S
C105 N103 1.335 . S
C105 N104 1.345 . S
C105 H110 0.930 . S
C106 N103 1.390 . S
C106 C107 1.346 . S
C106 H111 0.930 . S
C107 N104 1.336 . S
C107 C106 1.346 . S
C107 H114 0.929 . S
C108 O98 1.282 . S
C108 O109 1.216 . S
O109 C108 1.216 . S
H110 C105 0.930 . S
H111 C106 0.930 . S
O112 Cu92 1.959 1_566 S
O112 C99 1.251 . S
H113 C96 0.930 . S
H114 C107 0.929 . S
Cu115 N116 1.999 1_454 S
Cu115 O121 1.974 1_455 S
Cu115 N126 1.985 . S
Cu115 O135 1.959 1_554 S
N116 Cu115 1.999 1_656 S
N116 C118 1.263 . S
N116 C120 1.389 . S
N117 C118 1.358 . S
N117 C119 1.400 . S
C118 N116 1.263 . S
C118 N117 1.358 . S
C118 H124 0.930 . S
C119 N117 1.400 . S
C119 C120 1.351 . S
C119 H136 0.930 . S
C120 N116 1.389 . S
C120 C119 1.351 . S
C120 H125 0.930 1_655 S
O121 Cu115 1.974 1_655 S
O121 C131 1.282 . S
C122 O123 1.261 . S
C122 O135 1.251 . S
O123 C122 1.261 . S
H124 C118 0.930 . S
H125 C120 0.930 1_455 S
N126 Cu115 1.985 . S
N126 C128 1.335 . S
N126 C129 1.390 . S
N127 C128 1.345 . S
N127 C130 1.336 . S
C128 N126 1.335 . S
C128 N127 1.345 . S
C128 H133 0.930 . S
C129 N126 1.390 . S
C129 C130 1.346 . S
C129 H134 0.930 1_455 S
C130 N127 1.336 . S
C130 C129 1.346 . S
C130 H137 0.929 . S
C131 O121 1.282 . S
C131 O132 1.216 . S
O132 C131 1.216 . S
H133 C128 0.930 . S
H134 C129 0.930 1_655 S
O135 Cu115 1.959 1_556 S
O135 C122 1.251 . S
H136 C119 0.930 . S
H137 C130 0.929 . S
Cu138 N139 1.999 . S
Cu138 O144 1.974 . S
Cu138 N149 1.985 . S
Cu138 O158 1.959 . S
N139 Cu138 1.999 . S
N139 C141 1.263 . S
N139 C143 1.389 . S
N140 C141 1.358 . S
N140 C142 1.400 . S
C141 N139 1.263 . S
C141 N140 1.358 . S
C141 H147 0.930 . S
C142 N140 1.400 . S
C142 C143 1.351 . S
C142 H159 0.930 . S
C143 N139 1.389 . S
C143 C142 1.351 . S
C143 H148 0.930 1_556 S
O144 Cu138 1.974 . S
O144 C154 1.282 . S
C145 O146 1.261 . S
C145 O158 1.251 . S
O146 C145 1.261 . S
H147 C141 0.930 . S
H148 C143 0.930 1_554 S
N149 Cu138 1.985 . S
N149 C151 1.335 . S
N149 C152 1.390 . S
N150 C151 1.345 . S
N150 C153 1.336 . S
C151 N149 1.335 . S
C151 N150 1.345 . S
C151 H156 0.930 . S
C152 N149 1.390 . S
C152 C153 1.346 . S
C152 H157 0.930 . S
C153 N150 1.336 . S
C153 C152 1.346 . S
C153 H160 0.929 . S
C154 O144 1.282 . S
C154 O155 1.216 . S
O155 C154 1.216 . S
H156 C151 0.930 . S
H157 C152 0.930 . S
O158 Cu138 1.959 . S
O158 C145 1.251 . S
H159 C142 0.930 . S
H160 C153 0.929 . S
Cu161 N162 1.999 . S
Cu161 O167 1.974 . S
Cu161 N172 1.985 . S
Cu161 O181 1.959 . S
N162 Cu161 1.999 . S
N162 C164 1.263 . S
N162 C166 1.389 . S
N163 C164 1.358 . S
N163 C165 1.400 . S
C164 N162 1.263 . S
C164 N163 1.358 . S
C164 H170 0.930 . S
C165 N163 1.400 . S
C165 C166 1.351 . S
C165 H182 0.930 . S
C166 N162 1.389 . S
C166 C165 1.351 . S
C166 H171 0.930 . S
O167 Cu161 1.974 . S
O167 C177 1.282 . S
C168 O169 1.261 . S
C168 O181 1.251 . S
O169 C168 1.261 . S
H170 C164 0.930 . S
H171 C166 0.930 . S
N172 Cu161 1.985 . S
N172 C174 1.335 . S
N172 C175 1.390 . S
N173 C174 1.345 . S
N173 C176 1.336 . S
C174 N172 1.335 . S
C174 N173 1.345 . S
C174 H179 0.930 . S
C175 N172 1.390 . S
C175 C176 1.346 . S
C175 H180 0.930 . S
C176 N173 1.336 . S
C176 C175 1.346 . S
C176 H183 0.929 . S
C177 O167 1.282 . S
C177 O178 1.216 . S
O178 C177 1.216 . S
H179 C174 0.930 . S
H180 C175 0.930 . S
O181 Cu161 1.959 . S
O181 C168 1.251 . S
H182 C165 0.930 . S
H183 C176 0.929 . S
Cu184 N185 1.999 . S
Cu184 O190 1.974 . S
Cu184 N195 1.985 . S
Cu184 O204 1.959 . S
N185 Cu184 1.999 . S
N185 C187 1.263 . S
N185 C189 1.389 . S
N186 C187 1.358 . S
N186 C188 1.400 . S
C187 N185 1.263 . S
C187 N186 1.358 . S
C187 H193 0.930 . S
C188 N186 1.400 . S
C188 C189 1.351 . S
C188 H205 0.930 . S
C189 N185 1.389 . S
C189 C188 1.351 . S
C189 H194 0.930 . S
O190 Cu184 1.974 . S
O190 C200 1.282 . S
C191 O192 1.261 . S
C191 O204 1.251 . S
O192 C191 1.261 . S
H193 C187 0.930 . S
H194 C189 0.930 . S
N195 Cu184 1.985 . S
N195 C197 1.335 . S
N195 C198 1.390 . S
N196 C197 1.345 . S
N196 C199 1.336 . S
C197 N195 1.335 . S
C197 N196 1.345 . S
C197 H202 0.930 . S
C198 N195 1.390 . S
C198 C199 1.346 . S
C198 H203 0.930 . S
C199 N196 1.336 . S
C199 C198 1.346 . S
C199 H206 0.929 . S
C200 O190 1.282 . S
C200 O201 1.216 . S
O201 C200 1.216 . S
H202 C197 0.930 . S
H203 C198 0.930 . S
O204 Cu184 1.959 . S
O204 C191 1.251 . S
H205 C188 0.930 . S
H206 C199 0.929 . S
Cu207 N208 1.999 . S
Cu207 O213 1.974 . S
Cu207 N218 1.985 . S
Cu207 O227 1.959 . S
N208 Cu207 1.999 . S
N208 C210 1.263 . S
N208 C212 1.389 . S
N209 C210 1.358 . S
N209 C211 1.400 . S
C210 N208 1.263 . S
C210 N209 1.358 . S
C210 H216 0.930 . S
C211 N209 1.400 . S
C211 C212 1.351 . S
C211 H228 0.930 . S
C212 N208 1.389 . S
C212 C211 1.351 . S
C212 H217 0.930 . S
O213 Cu207 1.974 . S
O213 C223 1.282 . S
C214 O215 1.261 . S
C214 O227 1.251 . S
O215 C214 1.261 . S
H216 C210 0.930 . S
H217 C212 0.930 . S
N218 Cu207 1.985 . S
N218 C220 1.335 . S
N218 C221 1.390 . S
N219 C220 1.345 . S
N219 C222 1.336 . S
C220 N218 1.335 . S
C220 N219 1.345 . S
C220 H225 0.930 . S
C221 N218 1.390 . S
C221 C222 1.346 . S
C221 H226 0.930 . S
C222 N219 1.336 . S
C222 C221 1.346 . S
C222 H229 0.929 . S
C223 O213 1.282 . S
C223 O224 1.216 . S
O224 C223 1.216 . S
H225 C220 0.930 . S
H226 C221 0.930 . S
O227 Cu207 1.959 . S
O227 C214 1.251 . S
H228 C211 0.930 . S
H229 C222 0.929 . S
Cu230 N231 1.999 . S
Cu230 O236 1.974 . S
Cu230 N241 1.985 . S
Cu230 O250 1.959 . S
N231 Cu230 1.999 . S
N231 C233 1.263 . S
N231 C235 1.389 . S
N232 C233 1.358 . S
N232 C234 1.400 . S
C233 N231 1.263 . S
C233 N232 1.358 . S
C233 H239 0.930 . S
C234 N232 1.400 . S
C234 C235 1.351 . S
C234 H251 0.930 . S
C235 N231 1.389 . S
C235 C234 1.351 . S
C235 H240 0.930 . S
O236 Cu230 1.974 . S
O236 C246 1.282 . S
C237 O238 1.261 . S
C237 O250 1.251 . S
O238 C237 1.261 . S
H239 C233 0.930 . S
H240 C235 0.930 . S
N241 Cu230 1.985 . S
N241 C243 1.335 . S
N241 C244 1.390 . S
N242 C243 1.345 . S
N242 C245 1.336 . S
C243 N241 1.335 . S
C243 N242 1.345 . S
C243 H248 0.930 . S
C244 N241 1.390 . S
C244 C245 1.346 . S
C244 H249 0.930 . S
C245 N242 1.336 . S
C245 C244 1.346 . S
C245 H252 0.929 . S
C246 O236 1.282 . S
C246 O247 1.216 . S
O247 C246 1.216 . S
H248 C243 0.930 . S
H249 C244 0.930 . S
O250 Cu230 1.959 . S
O250 C237 1.251 . S
H251 C234 0.930 . S
H252 C245 0.929 . S
Cu253 N254 1.999 . S
Cu253 O259 1.974 . S
Cu253 N264 1.985 . S
Cu253 O273 1.959 . S
N254 Cu253 1.999 . S
N254 C256 1.263 . S
N254 C258 1.389 . S
N255 C256 1.358 . S
N255 C257 1.400 . S
C256 N254 1.263 . S
C256 N255 1.358 . S
C256 H262 0.930 . S
C257 N255 1.400 . S
C257 C258 1.351 . S
C257 H274 0.930 . S
C258 N254 1.389 . S
C258 C257 1.351 . S
C258 H263 0.930 . S
O259 Cu253 1.974 . S
O259 C269 1.282 . S
C260 O261 1.261 . S
C260 O273 1.251 . S
O261 C260 1.261 . S
H262 C256 0.930 . S
H263 C258 0.930 . S
N264 Cu253 1.985 . S
N264 C266 1.335 . S
N264 C267 1.390 . S
N265 C266 1.345 . S
N265 C268 1.336 . S
C266 N264 1.335 . S
C266 N265 1.345 . S
C266 H271 0.930 . S
C267 N264 1.390 . S
C267 C268 1.346 . S
C267 H272 0.930 . S
C268 N265 1.336 . S
C268 C267 1.346 . S
C268 H275 0.929 . S
C269 O259 1.282 . S
C269 O270 1.216 . S
O270 C269 1.216 . S
H271 C266 0.930 . S
H272 C267 0.930 . S
O273 Cu253 1.959 . S
O273 C260 1.251 . S
H274 C257 0.930 . S
H275 C268 0.929 . S
Tb276 C285 2.764 . S
Tb276 O286 2.325 . S
Tb276 O289 2.303 . S
Tb276 O293 2.322 . S
Tb276 O294 2.349 . S
Tb276 O297 2.415 . S
Tb276 O298 2.399 . S
Tb277 O287 2.322 . S
Tb277 O288 2.349 . S
Tb277 O290 2.415 . S
Tb277 O291 2.399 . S
Tb277 O292 2.325 . S
Tb277 O295 2.303 . S
Tb277 C306 2.764 . S
C278 O294 1.261 . S
C278 O295 1.257 . S
C279 C282 1.358 . S
C279 C283 1.332 . S
C279 C285 1.504 . S
C280 C281 1.373 . S
C280 C284 1.308 . S
C281 C280 1.373 . S
C281 C282 1.429 . S
C281 H308 0.932 . S
C282 C279 1.358 . S
C282 C281 1.429 . S
C282 H309 0.930 . S
C283 C279 1.332 . S
C283 C284 1.394 . S
C283 H310 0.932 . S
C284 C280 1.308 . S
C284 C283 1.394 . S
C284 H311 0.929 . S
C285 Tb276 2.764 . S
C285 C279 1.504 . S
C285 O297 1.239 . S
C285 O298 1.263 . S
O286 Tb276 2.325 . S
O286 C296 1.236 . S
O287 Tb277 2.322 . S
O287 C296 1.257 . S
O288 Tb277 2.349 . S
O288 C299 1.261 . S
O289 Tb276 2.303 . S
O289 C299 1.257 . S
O290 Tb277 2.415 . S
O290 C306 1.239 . S
O291 Tb277 2.399 . S
O291 C306 1.263 . S
O292 Tb277 2.325 . S
O292 C307 1.236 . S
O293 Tb276 2.322 . S
O293 C307 1.257 . S
O294 Tb276 2.349 . S
O294 C278 1.261 . S
O295 Tb277 2.303 . S
O295 C278 1.257 . S
C296 O286 1.236 . S
C296 O287 1.257 . S
O297 Tb276 2.415 . S
O297 C285 1.239 . S
O298 Tb276 2.399 . S
O298 C285 1.263 . S
C299 O288 1.261 . S
C299 O289 1.257 . S
C300 C303 1.358 . S
C300 C304 1.332 . S
C300 C306 1.504 . S
C301 C302 1.373 . S
C301 C305 1.308 . S
C302 C301 1.373 . S
C302 C303 1.429 . S
C302 H312 0.932 . S
C303 C300 1.358 . S
C303 C302 1.429 . S
C303 H313 0.930 . S
C304 C300 1.332 . S
C304 C305 1.394 . S
C304 H314 0.932 . S
C305 C301 1.308 . S
C305 C304 1.394 . S
C305 H315 0.929 . S
C306 Tb277 2.764 . S
C306 O290 1.239 . S
C306 O291 1.263 . S
C306 C300 1.504 . S
C307 O292 1.236 . S
C307 O293 1.257 . S
H308 C281 0.932 . S
H309 C282 0.930 . S
H310 C283 0.932 . S
H311 C284 0.929 . S
H312 C302 0.932 . S
H313 C303 0.930 . S
H314 C304 0.932 . S
H315 C305 0.929 . S
Tb316 C325 2.764 . S
Tb316 O326 2.325 . S
Tb316 O329 2.303 . S
Tb316 O333 2.322 . S
Tb316 O334 2.349 . S
Tb316 O337 2.415 . S
Tb316 O338 2.399 . S
Tb317 O327 2.322 . S
Tb317 O328 2.349 . S
Tb317 O330 2.415 . S
Tb317 O331 2.399 . S
Tb317 O332 2.325 . S
Tb317 O335 2.303 . S
Tb317 C346 2.764 . S
C318 O334 1.261 . S
C318 O335 1.257 . S
C319 C322 1.358 . S
C319 C323 1.332 . S
C319 C325 1.504 . S
C320 C321 1.373 . S
C320 C324 1.308 . S
C321 C320 1.373 . S
C321 C322 1.429 . S
C321 H348 0.932 . S
C322 C319 1.358 . S
C322 C321 1.429 . S
C322 H349 0.930 . S
C323 C319 1.332 . S
C323 C324 1.394 . S
C323 H350 0.932 . S
C324 C320 1.308 . S
C324 C323 1.394 . S
C324 H351 0.929 . S
C325 Tb316 2.764 . S
C325 C319 1.504 . S
C325 O337 1.239 . S
C325 O338 1.263 . S
O326 Tb316 2.325 . S
O326 C336 1.236 . S
O327 Tb317 2.322 . S
O327 C336 1.257 . S
O328 Tb317 2.349 . S
O328 C339 1.261 . S
O329 Tb316 2.303 . S
O329 C339 1.257 . S
O330 Tb317 2.415 . S
O330 C346 1.239 . S
O331 Tb317 2.399 . S
O331 C346 1.263 . S
O332 Tb317 2.325 . S
O332 C347 1.236 . S
O333 Tb316 2.322 . S
O333 C347 1.257 . S
O334 Tb316 2.349 . S
O334 C318 1.261 . S
O335 Tb317 2.303 . S
O335 C318 1.257 . S
C336 O326 1.236 . S
C336 O327 1.257 . S
O337 Tb316 2.415 . S
O337 C325 1.239 . S
O338 Tb316 2.399 . S
O338 C325 1.263 . S
C339 O328 1.261 . S
C339 O329 1.257 . S
C340 C343 1.358 . S
C340 C344 1.332 . S
C340 C346 1.504 . S
C341 C342 1.373 . S
C341 C345 1.308 . S
C342 C341 1.373 . S
C342 C343 1.429 . S
C342 H352 0.932 . S
C343 C340 1.358 . S
C343 C342 1.429 . S
C343 H353 0.930 . S
C344 C340 1.332 . S
C344 C345 1.394 . S
C344 H354 0.932 . S
C345 C341 1.308 . S
C345 C344 1.394 . S
C345 H355 0.929 . S
C346 Tb317 2.764 . S
C346 O330 1.239 . S
C346 O331 1.263 . S
C346 C340 1.504 . S
C347 O332 1.236 . S
C347 O333 1.257 . S
H348 C321 0.932 . S
H349 C322 0.930 . S
H350 C323 0.932 . S
H351 C324 0.929 . S
H352 C342 0.932 . S
H353 C343 0.930 . S
H354 C344 0.932 . S
H355 C345 0.929 . S
Tb356 C365 2.764 . S
Tb356 O366 2.325 . S
Tb356 O369 2.303 . S
Tb356 O373 2.322 . S
Tb356 O374 2.349 . S
Tb356 O377 2.415 . S
Tb356 O378 2.399 . S
Tb357 O367 2.322 . S
Tb357 O368 2.349 . S
Tb357 O370 2.415 . S
Tb357 O371 2.399 . S
Tb357 O372 2.325 . S
Tb357 O375 2.303 . S
Tb357 C386 2.764 . S
C358 O374 1.261 . S
C358 O375 1.257 . S
C359 C362 1.358 . S
C359 C363 1.332 . S
C359 C365 1.504 . S
C360 C361 1.373 . S
C360 C364 1.308 . S
C361 C360 1.373 . S
C361 C362 1.429 . S
C361 H388 0.932 . S
C362 C359 1.358 . S
C362 C361 1.429 . S
C362 H389 0.930 . S
C363 C359 1.332 . S
C363 C364 1.394 . S
C363 H390 0.932 . S
C364 C360 1.308 . S
C364 C363 1.394 . S
C364 H391 0.929 . S
C365 Tb356 2.764 . S
C365 C359 1.504 . S
C365 O377 1.239 . S
C365 O378 1.263 . S
O366 Tb356 2.325 . S
O366 C376 1.236 . S
O367 Tb357 2.322 . S
O367 C376 1.257 . S
O368 Tb357 2.349 . S
O368 C379 1.261 . S
O369 Tb356 2.303 . S
O369 C379 1.257 . S
O370 Tb357 2.415 . S
O370 C386 1.239 . S
O371 Tb357 2.399 . S
O371 C386 1.263 . S
O372 Tb357 2.325 . S
O372 C387 1.236 . S
O373 Tb356 2.322 . S
O373 C387 1.257 . S
O374 Tb356 2.349 . S
O374 C358 1.261 . S
O375 Tb357 2.303 . S
O375 C358 1.257 . S
C376 O366 1.236 . S
C376 O367 1.257 . S
O377 Tb356 2.415 . S
O377 C365 1.239 . S
O378 Tb356 2.399 . S
O378 C365 1.263 . S
C379 O368 1.261 . S
C379 O369 1.257 . S
C380 C383 1.358 . S
C380 C384 1.332 . S
C380 C386 1.504 . S
C381 C382 1.373 . S
C381 C385 1.308 . S
C382 C381 1.373 . S
C382 C383 1.429 . S
C382 H392 0.932 . S
C383 C380 1.358 . S
C383 C382 1.429 . S
C383 H393 0.930 . S
C384 C380 1.332 . S
C384 C385 1.394 . S
C384 H394 0.932 . S
C385 C381 1.308 . S
C385 C384 1.394 . S
C385 H395 0.929 . S
C386 Tb357 2.764 . S
C386 O370 1.239 . S
C386 O371 1.263 . S
C386 C380 1.504 . S
C387 O372 1.236 . S
C387 O373 1.257 . S
H388 C361 0.932 . S
H389 C362 0.930 . S
H390 C363 0.932 . S
H391 C364 0.929 . S
H392 C382 0.932 . S
H393 C383 0.930 . S
H394 C384 0.932 . S
H395 C385 0.929 . S
Tb396 C405 2.764 . S
Tb396 O406 2.325 . S
Tb396 O409 2.303 . S
Tb396 O413 2.322 . S
Tb396 O414 2.349 . S
Tb396 O417 2.415 . S
Tb396 O418 2.399 . S
Tb397 O407 2.322 . S
Tb397 O408 2.349 . S
Tb397 O410 2.415 . S
Tb397 O411 2.399 . S
Tb397 O412 2.325 . S
Tb397 O415 2.303 . S
Tb397 C426 2.764 . S
C398 O414 1.261 . S
C398 O415 1.257 . S
C399 C402 1.358 . S
C399 C403 1.332 . S
C399 C405 1.504 . S
C400 C401 1.373 . S
C400 C404 1.308 . S
C401 C400 1.373 . S
C401 C402 1.429 . S
C401 H428 0.932 . S
C402 C399 1.358 . S
C402 C401 1.429 . S
C402 H429 0.930 . S
C403 C399 1.332 . S
C403 C404 1.394 . S
C403 H430 0.932 . S
C404 C400 1.308 . S
C404 C403 1.394 . S
C404 H431 0.929 . S
C405 Tb396 2.764 . S
C405 C399 1.504 . S
C405 O417 1.239 . S
C405 O418 1.263 . S
O406 Tb396 2.325 . S
O406 C416 1.236 . S
O407 Tb397 2.322 . S
O407 C416 1.257 . S
O408 Tb397 2.349 . S
O408 C419 1.261 . S
O409 Tb396 2.303 . S
O409 C419 1.257 . S
O410 Tb397 2.415 . S
O410 C426 1.239 . S
O411 Tb397 2.399 . S
O411 C426 1.263 . S
O412 Tb397 2.325 . S
O412 C427 1.236 . S
O413 Tb396 2.322 . S
O413 C427 1.257 . S
O414 Tb396 2.349 . S
O414 C398 1.261 . S
O415 Tb397 2.303 . S
O415 C398 1.257 . S
C416 O406 1.236 . S
C416 O407 1.257 . S
O417 Tb396 2.415 . S
O417 C405 1.239 . S
O418 Tb396 2.399 . S
O418 C405 1.263 . S
C419 O408 1.261 . S
C419 O409 1.257 . S
C420 C423 1.358 . S
C420 C424 1.332 . S
C420 C426 1.504 . S
C421 C422 1.373 . S
C421 C425 1.308 . S
C422 C421 1.373 . S
C422 C423 1.429 . S
C422 H432 0.932 . S
C423 C420 1.358 . S
C423 C422 1.429 . S
C423 H433 0.930 . S
C424 C420 1.332 . S
C424 C425 1.394 . S
C424 H434 0.932 . S
C425 C421 1.308 . S
C425 C424 1.394 . S
C425 H435 0.929 . S
C426 Tb397 2.764 . S
C426 O410 1.239 . S
C426 O411 1.263 . S
C426 C420 1.504 . S
C427 O412 1.236 . S
C427 O413 1.257 . S
H428 C401 0.932 . S
H429 C402 0.930 . S
H430 C403 0.932 . S
H431 C404 0.929 . S
H432 C422 0.932 . S
H433 C423 0.930 . S
H434 C424 0.932 . S
H435 C425 0.929 . S
Tb436 C445 2.764 . S
Tb436 O446 2.325 . S
Tb436 O449 2.303 . S
Tb436 O453 2.322 . S
Tb436 O454 2.349 . S
Tb436 O457 2.415 . S
Tb436 O458 2.399 . S
Tb437 O447 2.322 . S
Tb437 O448 2.349 . S
Tb437 O450 2.415 . S
Tb437 O451 2.399 . S
Tb437 O452 2.325 . S
Tb437 O455 2.303 . S
Tb437 C466 2.764 . S
C438 O454 1.261 . S
C438 O455 1.257 . S
C439 C442 1.358 . S
C439 C443 1.332 . S
C439 C445 1.504 . S
C440 C441 1.373 . S
C440 C444 1.308 . S
C441 C440 1.373 . S
C441 C442 1.429 . S
C441 H468 0.932 . S
C442 C439 1.358 . S
C442 C441 1.429 . S
C442 H469 0.930 . S
C443 C439 1.332 . S
C443 C444 1.394 . S
C443 H470 0.932 . S
C444 C440 1.308 . S
C444 C443 1.394 . S
C444 H471 0.929 . S
C445 Tb436 2.764 . S
C445 C439 1.504 . S
C445 O457 1.239 . S
C445 O458 1.263 . S
O446 Tb436 2.325 . S
O446 C456 1.236 . S
O447 Tb437 2.322 . S
O447 C456 1.257 . S
O448 Tb437 2.349 . S
O448 C459 1.261 . S
O449 Tb436 2.303 . S
O449 C459 1.257 . S
O450 Tb437 2.415 . S
O450 C466 1.239 . S
O451 Tb437 2.399 . S
O451 C466 1.263 . S
O452 Tb437 2.325 . S
O452 C467 1.236 . S
O453 Tb436 2.322 . S
O453 C467 1.257 . S
O454 Tb436 2.349 . S
O454 C438 1.261 . S
O455 Tb437 2.303 . S
O455 C438 1.257 . S
C456 O446 1.236 . S
C456 O447 1.257 . S
O457 Tb436 2.415 . S
O457 C445 1.239 . S
O458 Tb436 2.399 . S
O458 C445 1.263 . S
C459 O448 1.261 . S
C459 O449 1.257 . S
C460 C463 1.358 . S
C460 C464 1.332 . S
C460 C466 1.504 . S
C461 C462 1.373 . S
C461 C465 1.308 . S
C462 C461 1.373 . S
C462 C463 1.429 . S
C462 H472 0.932 1_556 S
C463 C460 1.358 . S
C463 C462 1.429 . S
C463 H473 0.930 . S
C464 C460 1.332 . S
C464 C465 1.394 . S
C464 H474 0.932 . S
C465 C461 1.308 . S
C465 C464 1.394 . S
C465 H475 0.929 . S
C466 Tb437 2.764 . S
C466 O450 1.239 . S
C466 O451 1.263 . S
C466 C460 1.504 . S
C467 O452 1.236 . S
C467 O453 1.257 . S
H468 C441 0.932 . S
H469 C442 0.930 . S
H470 C443 0.932 . S
H471 C444 0.929 . S
H472 C462 0.932 1_554 S
H473 C463 0.930 . S
H474 C464 0.932 . S
H475 C465 0.929 . S
Tb476 C485 2.764 . S
Tb476 O486 2.325 . S
Tb476 O489 2.303 . S
Tb476 O493 2.322 . S
Tb476 O494 2.349 . S
Tb476 O497 2.415 . S
Tb476 O498 2.399 . S
Tb477 O487 2.322 . S
Tb477 O488 2.349 . S
Tb477 O490 2.415 . S
Tb477 O491 2.399 . S
Tb477 O492 2.325 . S
Tb477 O495 2.303 . S
Tb477 C506 2.764 . S
C478 O494 1.261 . S
C478 O495 1.257 . S
C479 C482 1.358 . S
C479 C483 1.332 . S
C479 C485 1.504 . S
C480 C481 1.373 . S
C480 C484 1.308 . S
C481 C480 1.373 . S
C481 C482 1.429 . S
C481 H508 0.932 . S
C482 C479 1.358 . S
C482 C481 1.429 . S
C482 H509 0.930 . S
C483 C479 1.332 . S
C483 C484 1.394 . S
C483 H510 0.932 . S
C484 C480 1.308 . S
C484 C483 1.394 . S
C484 H511 0.929 . S
C485 Tb476 2.764 . S
C485 C479 1.504 . S
C485 O497 1.239 . S
C485 O498 1.263 . S
O486 Tb476 2.325 . S
O486 C496 1.236 . S
O487 Tb477 2.322 . S
O487 C496 1.257 . S
O488 Tb477 2.349 . S
O488 C499 1.261 . S
O489 Tb476 2.303 . S
O489 C499 1.257 . S
O490 Tb477 2.415 . S
O490 C506 1.239 . S
O491 Tb477 2.399 . S
O491 C506 1.263 . S
O492 Tb477 2.325 . S
O492 C507 1.236 . S
O493 Tb476 2.322 . S
O493 C507 1.257 . S
O494 Tb476 2.349 . S
O494 C478 1.261 . S
O495 Tb477 2.303 . S
O495 C478 1.257 . S
C496 O486 1.236 . S
C496 O487 1.257 . S
O497 Tb476 2.415 . S
O497 C485 1.239 . S
O498 Tb476 2.399 . S
O498 C485 1.263 . S
C499 O488 1.261 . S
C499 O489 1.257 . S
C500 C503 1.358 . S
C500 C504 1.332 . S
C500 C506 1.504 . S
C501 C502 1.373 . S
C501 C505 1.308 . S
C502 C501 1.373 . S
C502 C503 1.429 . S
C502 H512 0.932 . S
C503 C500 1.358 . S
C503 C502 1.429 . S
C503 H513 0.930 . S
C504 C500 1.332 . S
C504 C505 1.394 . S
C504 H514 0.932 . S
C505 C501 1.308 . S
C505 C504 1.394 . S
C505 H515 0.929 . S
C506 Tb477 2.764 . S
C506 O490 1.239 . S
C506 O491 1.263 . S
C506 C500 1.504 . S
C507 O492 1.236 . S
C507 O493 1.257 . S
H508 C481 0.932 . S
H509 C482 0.930 . S
H510 C483 0.932 . S
H511 C484 0.929 . S
H512 C502 0.932 . S
H513 C503 0.930 . S
H514 C504 0.932 . S
H515 C505 0.929 . S
Tb516 C525 2.764 . S
Tb516 O526 2.325 . S
Tb516 O529 2.303 . S
Tb516 O533 2.322 . S
Tb516 O534 2.349 . S
Tb516 O537 2.415 . S
Tb516 O538 2.399 . S
Tb517 O527 2.322 . S
Tb517 O528 2.349 . S
Tb517 O530 2.415 . S
Tb517 O531 2.399 . S
Tb517 O532 2.325 . S
Tb517 O535 2.303 . S
Tb517 C546 2.764 . S
C518 O534 1.261 . S
C518 O535 1.257 . S
C519 C522 1.358 . S
C519 C523 1.332 . S
C519 C525 1.504 . S
C520 C521 1.373 . S
C520 C524 1.308 . S
C521 C520 1.373 . S
C521 C522 1.429 . S
C521 H548 0.932 1_556 S
C522 C519 1.358 . S
C522 C521 1.429 . S
C522 H549 0.930 . S
C523 C519 1.332 . S
C523 C524 1.394 . S
C523 H550 0.932 . S
C524 C520 1.308 . S
C524 C523 1.394 . S
C524 H551 0.929 . S
C525 Tb516 2.764 . S
C525 C519 1.504 . S
C525 O537 1.239 . S
C525 O538 1.263 . S
O526 Tb516 2.325 . S
O526 C536 1.236 . S
O527 Tb517 2.322 . S
O527 C536 1.257 . S
O528 Tb517 2.349 . S
O528 C539 1.261 . S
O529 Tb516 2.303 . S
O529 C539 1.257 . S
O530 Tb517 2.415 . S
O530 C546 1.239 . S
O531 Tb517 2.399 . S
O531 C546 1.263 . S
O532 Tb517 2.325 . S
O532 C547 1.236 . S
O533 Tb516 2.322 . S
O533 C547 1.257 . S
O534 Tb516 2.349 . S
O534 C518 1.261 . S
O535 Tb517 2.303 . S
O535 C518 1.257 . S
C536 O526 1.236 . S
C536 O527 1.257 . S
O537 Tb516 2.415 . S
O537 C525 1.239 . S
O538 Tb516 2.399 . S
O538 C525 1.263 . S
C539 O528 1.261 . S
C539 O529 1.257 . S
C540 C543 1.358 . S
C540 C544 1.332 . S
C540 C546 1.504 . S
C541 C542 1.373 . S
C541 C545 1.308 . S
C542 C541 1.373 . S
C542 C543 1.429 . S
C542 H552 0.932 . S
C543 C540 1.358 . S
C543 C542 1.429 . S
C543 H553 0.930 . S
C544 C540 1.332 . S
C544 C545 1.394 . S
C544 H554 0.932 . S
C545 C541 1.308 . S
C545 C544 1.394 . S
C545 H555 0.929 . S
C546 Tb517 2.764 . S
C546 O530 1.239 . S
C546 O531 1.263 . S
C546 C540 1.504 . S
C547 O532 1.236 . S
C547 O533 1.257 . S
H548 C521 0.932 1_554 S
H549 C522 0.930 . S
H550 C523 0.932 . S
H551 C524 0.929 . S
H552 C542 0.932 . S
H553 C543 0.930 . S
H554 C544 0.932 . S
H555 C545 0.929 . S
Tb556 C565 2.764 . S
Tb556 O566 2.325 . S
Tb556 O569 2.303 . S
Tb556 O573 2.322 . S
Tb556 O574 2.349 . S
Tb556 O577 2.415 . S
Tb556 O578 2.399 . S
Tb557 O567 2.322 . S
Tb557 O568 2.349 . S
Tb557 O570 2.415 . S
Tb557 O571 2.399 . S
Tb557 O572 2.325 . S
Tb557 O575 2.303 . S
Tb557 C586 2.764 . S
C558 O574 1.261 . S
C558 O575 1.257 . S
C559 C562 1.358 . S
C559 C563 1.332 . S
C559 C565 1.504 . S
C560 C561 1.373 . S
C560 C564 1.308 . S
C561 C560 1.373 . S
C561 C562 1.429 . S
C561 H588 0.932 . S
C562 C559 1.358 . S
C562 C561 1.429 . S
C562 H589 0.930 . S
C563 C559 1.332 . S
C563 C564 1.394 . S
C563 H590 0.932 . S
C564 C560 1.308 . S
C564 C563 1.394 . S
C564 H591 0.929 . S
C565 Tb556 2.764 . S
C565 C559 1.504 . S
C565 O577 1.239 . S
C565 O578 1.263 . S
O566 Tb556 2.325 . S
O566 C576 1.236 . S
O567 Tb557 2.322 . S
O567 C576 1.257 . S
O568 Tb557 2.349 . S
O568 C579 1.261 . S
O569 Tb556 2.303 . S
O569 C579 1.257 . S
O570 Tb557 2.415 . S
O570 C586 1.239 . S
O571 Tb557 2.399 . S
O571 C586 1.263 . S
O572 Tb557 2.325 . S
O572 C587 1.236 . S
O573 Tb556 2.322 . S
O573 C587 1.257 . S
O574 Tb556 2.349 . S
O574 C558 1.261 . S
O575 Tb557 2.303 . S
O575 C558 1.257 . S
C576 O566 1.236 . S
C576 O567 1.257 . S
O577 Tb556 2.415 . S
O577 C565 1.239 . S
O578 Tb556 2.399 . S
O578 C565 1.263 . S
C579 O568 1.261 . S
C579 O569 1.257 . S
C580 C583 1.358 . S
C580 C584 1.332 . S
C580 C586 1.504 . S
C581 C582 1.373 . S
C581 C585 1.308 . S
C582 C581 1.373 . S
C582 C583 1.429 . S
C582 H592 0.932 . S
C583 C580 1.358 . S
C583 C582 1.429 . S
C583 H593 0.930 . S
C584 C580 1.332 . S
C584 C585 1.394 . S
C584 H594 0.932 . S
C585 C581 1.308 . S
C585 C584 1.394 . S
C585 H595 0.929 . S
C586 Tb557 2.764 . S
C586 O570 1.239 . S
C586 O571 1.263 . S
C586 C580 1.504 . S
C587 O572 1.236 . S
C587 O573 1.257 . S
H588 C561 0.932 . S
H589 C562 0.930 . S
H590 C563 0.932 . S
H591 C564 0.929 . S
H592 C582 0.932 . S
H593 C583 0.930 . S
H594 C584 0.932 . S
H595 C585 0.929 . S
C596 C597 1.369 . S
C596 C598 1.419 . S
C596 H600 0.930 . S
C597 C596 1.369 . S
C597 C606 1.429 . S
C598 C596 1.419 . S
C598 C599 1.363 . S
C598 H601 0.929 . S
C599 C598 1.363 . S
C599 C605 1.428 . S
H600 C596 0.930 . S
H601 C598 0.929 . S
S602 N603 1.613 . S
S602 N604 1.610 . S
N603 S602 1.613 . S
N603 C606 1.350 . S
N604 S602 1.610 . S
N604 C605 1.351 . S
C605 C599 1.428 . S
C605 N604 1.351 . S
C605 C606 1.434 . S
C606 C597 1.429 . S
C606 N603 1.350 . S
C606 C605 1.434 . S
C607 C608 1.369 . S
C607 C609 1.419 . S
C607 H611 0.930 . S
C608 C607 1.369 . S
C608 C617 1.429 . S
C609 C607 1.419 . S
C609 C610 1.363 . S
C609 H612 0.929 . S
C610 C609 1.363 . S
C610 C616 1.428 . S
H611 C607 0.930 . S
H612 C609 0.929 . S
S613 N614 1.613 . S
S613 N615 1.610 . S
N614 S613 1.613 . S
N614 C617 1.350 . S
N615 S613 1.610 . S
N615 C616 1.351 . S
C616 C610 1.428 . S
C616 N615 1.351 . S
C616 C617 1.434 . S
C617 C608 1.429 . S
C617 N614 1.350 . S
C617 C616 1.434 . S
C618 C619 1.369 . S
C618 C620 1.419 . S
C618 H622 0.930 . S
C619 C618 1.369 . S
C619 C628 1.429 . S
C620 C618 1.419 . S
C620 C621 1.363 . S
C620 H623 0.929 . S
C621 C620 1.363 . S
C621 C627 1.428 . S
H622 C618 0.930 . S
H623 C620 0.929 . S
S624 N625 1.613 1_455 S
S624 N626 1.610 1_455 S
N625 S624 1.613 1_655 S
N625 C628 1.350 . S
N626 S624 1.610 1_655 S
N626 C627 1.351 . S
C627 C621 1.428 . S
C627 N626 1.351 . S
C627 C628 1.434 . S
C628 C619 1.429 . S
C628 N625 1.350 . S
C628 C627 1.434 . S
C629 C630 1.369 . S
C629 C631 1.419 . S
C629 H633 0.930 . S
C630 C629 1.369 . S
C630 C639 1.429 . S
C631 C629 1.419 . S
C631 C632 1.363 . S
C631 H634 0.929 . S
C632 C631 1.363 . S
C632 C638 1.428 . S
H633 C629 0.930 . S
H634 C631 0.929 . S
S635 N636 1.613 . S
S635 N637 1.610 . S
N636 S635 1.613 . S
N636 C639 1.350 . S
N637 S635 1.610 . S
N637 C638 1.351 . S
C638 C632 1.428 . S
C638 N637 1.351 . S
C638 C639 1.434 . S
C639 C630 1.429 . S
C639 N636 1.350 . S
C639 C638 1.434 . S
C640 C641 1.369 . S
C640 C642 1.419 . S
C640 H644 0.930 . S
C641 C640 1.369 . S
C641 C650 1.429 . S
C642 C640 1.419 . S
C642 C643 1.363 . S
C642 H645 0.929 . S
C643 C642 1.363 . S
C643 C649 1.428 . S
H644 C640 0.930 . S
H645 C642 0.929 . S
S646 N647 1.613 . S
S646 N648 1.610 . S
N647 S646 1.613 . S
N647 C650 1.350 . S
N648 S646 1.610 . S
N648 C649 1.351 . S
C649 C643 1.428 . S
C649 N648 1.351 . S
C649 C650 1.434 . S
C650 C641 1.429 . S
C650 N647 1.350 . S
C650 C649 1.434 . S
C651 C652 1.369 . S
C651 C653 1.419 . S
C651 H655 0.930 . S
C652 C651 1.369 . S
C652 C661 1.429 . S
C653 C651 1.419 . S
C653 C654 1.363 . S
C653 H656 0.929 . S
C654 C653 1.363 . S
C654 C660 1.428 . S
H655 C651 0.930 . S
H656 C653 0.929 . S
S657 N658 1.613 . S
S657 N659 1.610 . S
N658 S657 1.613 . S
N658 C661 1.350 . S
N659 S657 1.610 . S
N659 C660 1.351 . S
C660 C654 1.428 . S
C660 N659 1.351 . S
C660 C661 1.434 . S
C661 C652 1.429 . S
C661 N658 1.350 . S
C661 C660 1.434 . S
C662 C663 1.369 . S
C662 C664 1.419 . S
C662 H666 0.930 . S
C663 C662 1.369 . S
C663 C672 1.429 . S
C664 C662 1.419 . S
C664 C665 1.363 . S
C664 H667 0.929 . S
C665 C664 1.363 . S
C665 C671 1.428 . S
H666 C662 0.930 . S
H667 C664 0.929 . S
S668 N669 1.613 . S
S668 N670 1.610 . S
N669 S668 1.613 . S
N669 C672 1.350 . S
N670 S668 1.610 . S
N670 C671 1.351 . S
C671 C665 1.428 . S
C671 N670 1.351 . S
C671 C672 1.434 . S
C672 C663 1.429 . S
C672 N669 1.350 . S
C672 C671 1.434 . S
C673 C674 1.369 . S
C673 C675 1.419 . S
C673 H677 0.930 . S
C674 C673 1.369 . S
C674 C683 1.429 1_545 S
C675 C673 1.419 . S
C675 C676 1.363 1_545 S
C675 H678 0.929 . S
C676 C675 1.363 1_565 S
C676 C682 1.428 . S
H677 C673 0.930 . S
H678 C675 0.929 . S
S679 N680 1.613 . S
S679 N681 1.610 . S
N680 S679 1.613 . S
N680 C683 1.350 . S
N681 S679 1.610 . S
N681 C682 1.351 . S
C682 C676 1.428 . S
C682 N681 1.351 . S
C682 C683 1.434 . S
C683 C674 1.429 1_565 S
C683 N680 1.350 . S
C683 C682 1.434 . S
C684 C685 1.369 . S
C684 C686 1.419 . S
C684 H688 0.930 . S
C685 C684 1.369 . S
C685 C694 1.429 . S
C686 C684 1.419 . S
C686 C687 1.363 . S
C686 H689 0.929 . S
C687 C686 1.363 . S
C687 C693 1.428 . S
H688 C684 0.930 . S
H689 C686 0.929 . S
S690 N691 1.613 . S
S690 N692 1.610 . S
N691 S690 1.613 . S
N691 C694 1.350 . S
N692 S690 1.610 . S
N692 C693 1.351 . S
C693 C687 1.428 . S
C693 N692 1.351 . S
C693 C694 1.434 . S
C694 C685 1.429 . S
C694 N691 1.350 . S
C694 C693 1.434 . S
C695 C696 1.369 . S
C695 C697 1.419 . S
C695 H699 0.930 . S
C696 C695 1.369 . S
C696 C705 1.429 . S
C697 C695 1.419 . S
C697 C698 1.363 . S
C697 H700 0.929 . S
C698 C697 1.363 . S
C698 C704 1.428 . S
H699 C695 0.930 . S
H700 C697 0.929 . S
S701 N702 1.613 . S
S701 N703 1.610 . S
N702 S701 1.613 . S
N702 C705 1.350 . S
N703 S701 1.610 . S
N703 C704 1.351 . S
C704 C698 1.428 . S
C704 N703 1.351 . S
C704 C705 1.434 . S
C705 C696 1.429 . S
C705 N702 1.350 . S
C705 C704 1.434 . S
C706 C707 1.369 . S
C706 C708 1.419 . S
C706 H710 0.930 . S
C707 C706 1.369 . S
C707 C716 1.429 . S
C708 C706 1.419 . S
C708 C709 1.363 . S
C708 H711 0.929 . S
C709 C708 1.363 . S
C709 C715 1.428 . S
H710 C706 0.930 . S
H711 C708 0.929 . S
S712 N713 1.613 . S
S712 N714 1.610 . S
N713 S712 1.613 . S
N713 C716 1.350 . S
N714 S712 1.610 . S
N714 C715 1.351 . S
C715 C709 1.428 . S
C715 N714 1.351 . S
C715 C716 1.434 . S
C716 C707 1.429 . S
C716 N713 1.350 . S
C716 C715 1.434 . S
C717 C718 1.369 . S
C717 C719 1.419 . S
C717 H721 0.930 . S
C718 C717 1.369 . S
C718 C727 1.429 . S
C719 C717 1.419 . S
C719 C720 1.363 . S
C719 H722 0.929 . S
C720 C719 1.363 . S
C720 C726 1.428 . S
H721 C717 0.930 . S
H722 C719 0.929 . S
S723 N724 1.613 . S
S723 N725 1.610 . S
N724 S723 1.613 . S
N724 C727 1.350 . S
N725 S723 1.610 . S
N725 C726 1.351 . S
C726 C720 1.428 . S
C726 N725 1.351 . S
C726 C727 1.434 . S
C727 C718 1.429 . S
C727 N724 1.350 . S
C727 C726 1.434 . S
C728 C729 1.369 1_565 S
C728 C730 1.419 . S
C728 H732 0.930 . S
C729 C728 1.369 1_545 S
C729 C738 1.429 1_554 S
C730 C728 1.419 . S
C730 C731 1.363 . S
C730 H733 0.929 . S
C731 C730 1.363 . S
C731 C737 1.428 1_554 S
H732 C728 0.930 . S
H733 C730 0.929 . S
S734 N735 1.613 . S
S734 N736 1.610 . S
N735 S734 1.613 . S
N735 C738 1.350 . S
N736 S734 1.610 . S
N736 C737 1.351 1_545 S
C737 C731 1.428 1_556 S
C737 N736 1.351 1_565 S
C737 C738 1.434 1_565 S
C738 C729 1.429 1_556 S
C738 N735 1.350 . S
C738 C737 1.434 1_545 S
C739 C740 1.369 . S
C739 C741 1.419 . S
C739 H743 0.930 . S
C740 C739 1.369 . S
C740 C749 1.429 . S
C741 C739 1.419 . S
C741 C742 1.363 . S
C741 H744 0.929 . S
C742 C741 1.363 . S
C742 C748 1.428 . S
H743 C739 0.930 . S
H744 C741 0.929 . S
S745 N746 1.613 . S
S745 N747 1.610 . S
N746 S745 1.613 . S
N746 C749 1.350 . S
N747 S745 1.610 . S
N747 C748 1.351 . S
C748 C742 1.428 . S
C748 N747 1.351 . S
C748 C749 1.434 . S
C749 C740 1.429 . S
C749 N746 1.350 . S
C749 C748 1.434 . S
C750 C751 1.369 . S
C750 C752 1.419 . S
C750 H754 0.930 . S
C751 C750 1.369 . S
C751 C760 1.429 . S
C752 C750 1.419 . S
C752 C753 1.363 . S
C752 H755 0.929 . S
C753 C752 1.363 . S
C753 C759 1.428 . S
H754 C750 0.930 . S
H755 C752 0.929 . S
S756 N757 1.613 . S
S756 N758 1.610 . S
N757 S756 1.613 . S
N757 C760 1.350 . S
N758 S756 1.610 . S
N758 C759 1.351 . S
C759 C753 1.428 . S
C759 N758 1.351 . S
C759 C760 1.434 . S
C760 C751 1.429 . S
C760 N757 1.350 . S
C760 C759 1.434 . S
C761 C762 1.369 . S
C761 C763 1.419 . S
C761 H765 0.930 . S
C762 C761 1.369 . S
C762 C771 1.429 . S
C763 C761 1.419 . S
C763 C764 1.363 . S
C763 H766 0.929 . S
C764 C763 1.363 . S
C764 C770 1.428 . S
H765 C761 0.930 . S
H766 C763 0.929 . S
S767 N768 1.613 . S
S767 N769 1.610 . S
N768 S767 1.613 . S
N768 C771 1.350 . S
N769 S767 1.610 . S
N769 C770 1.351 . S
C770 C764 1.428 . S
C770 N769 1.351 . S
C770 C771 1.434 . S
C771 C762 1.429 . S
C771 N768 1.350 . S
C771 C770 1.434 . S
C772 C773 1.369 . S
C772 C774 1.419 . S
C772 H776 0.930 . S
C773 C772 1.369 . S
C773 C782 1.429 . S
C774 C772 1.419 . S
C774 C775 1.363 . S
C774 H777 0.929 . S
C775 C774 1.363 . S
C775 C781 1.428 . S
H776 C772 0.930 . S
H777 C774 0.929 . S
S778 N779 1.613 . S
S778 N780 1.610 . S
N779 S778 1.613 . S
N779 C782 1.350 . S
N780 S778 1.610 . S
N780 C781 1.351 . S
C781 C775 1.428 . S
C781 N780 1.351 . S
C781 C782 1.434 . S
C782 C773 1.429 . S
C782 N779 1.350 . S
C782 C781 1.434 . S
C783 C784 1.369 . S
C783 C785 1.419 . S
C783 H787 0.930 . S
C784 C783 1.369 . S
C784 C793 1.429 . S
C785 C783 1.419 . S
C785 C786 1.363 . S
C785 H788 0.929 . S
C786 C785 1.363 . S
C786 C792 1.428 . S
H787 C783 0.930 . S
H788 C785 0.929 . S
S789 N790 1.613 . S
S789 N791 1.610 . S
N790 S789 1.613 . S
N790 C793 1.350 . S
N791 S789 1.610 . S
N791 C792 1.351 . S
C792 C786 1.428 . S
C792 N791 1.351 . S
C792 C793 1.434 . S
C793 C784 1.429 . S
C793 N790 1.350 . S
C793 C792 1.434 . S
C794 C795 1.369 1_556 S
C794 C796 1.419 . S
C794 H798 0.930 . S
C795 C794 1.369 1_554 S
C795 C804 1.429 . S
C796 C794 1.419 . S
C796 C797 1.363 . S
C796 H799 0.929 . S
C797 C796 1.363 . S
C797 C803 1.428 . S
H798 C794 0.930 . S
H799 C796 0.929 . S
S800 N801 1.613 . S
S800 N802 1.610 1_554 S
N801 S800 1.613 . S
N801 C804 1.350 . S
N802 S800 1.610 1_556 S
N802 C803 1.351 . S
C803 C797 1.428 . S
C803 N802 1.351 . S
C803 C804 1.434 1_556 S
C804 C795 1.429 . S
C804 N801 1.350 . S
C804 C803 1.434 1_554 S
C805 C806 1.385 1_655 S
C805 C807 1.410 1_554 S
C805 H809 0.923 1_554 S
C806 C805 1.385 1_455 S
C806 C815 1.429 . S
C807 C805 1.410 1_556 S
C807 C808 1.363 1_556 S
C807 H810 0.929 . S
C808 C807 1.363 1_554 S
C808 C814 1.428 . S
H809 C805 0.923 1_556 S
H810 C807 0.929 . S
S811 N812 1.613 . S
S811 N813 1.610 1_455 S
N812 S811 1.613 . S
N812 C815 1.350 . S
N813 S811 1.610 1_655 S
N813 C814 1.351 . S
C814 C808 1.428 . S
C814 N813 1.351 . S
C814 C815 1.434 1_655 S
C815 C806 1.429 . S
C815 N812 1.350 . S
C815 C814 1.434 1_455 S
C816 C817 1.369 . S
C816 C818 1.419 . S
C816 H820 0.930 . S
C817 C816 1.369 . S
C817 C826 1.429 . S
C818 C816 1.419 . S
C818 C819 1.363 . S
C818 H821 0.929 . S
C819 C818 1.363 . S
C819 C825 1.428 . S
H820 C816 0.930 . S
H821 C818 0.929 . S
S822 N823 1.613 . S
S822 N824 1.610 . S
N823 S822 1.613 . S
N823 C826 1.350 . S
N824 S822 1.610 . S
N824 C825 1.351 . S
C825 C819 1.428 . S
C825 N824 1.351 . S
C825 C826 1.434 . S
C826 C817 1.429 . S
C826 N823 1.350 . S
C826 C825 1.434 . S
C827 C828 1.369 . S
C827 C829 1.419 . S
C827 H831 0.930 . S
C828 C827 1.369 . S
C828 C837 1.429 . S
C829 C827 1.419 . S
C829 C830 1.363 . S
C829 H832 0.929 . S
C830 C829 1.363 . S
C830 C836 1.428 . S
H831 C827 0.930 . S
H832 C829 0.929 . S
S833 N834 1.613 . S
S833 N835 1.610 . S
N834 S833 1.613 . S
N834 C837 1.350 . S
N835 S833 1.610 . S
N835 C836 1.351 . S
C836 C830 1.428 . S
C836 N835 1.351 . S
C836 C837 1.434 . S
C837 C828 1.429 . S
C837 N834 1.350 . S
C837 C836 1.434 . S
C838 C839 1.371 . S
C838 C840 1.419 . S
C838 H842 0.935 . S
C839 C838 1.371 . S
C839 C848 1.437 . S
C840 C838 1.419 . S
C840 C841 1.363 . S
C840 H843 0.929 . S
C841 C840 1.363 . S
C841 C847 1.428 . S
H842 C838 0.935 . S
H843 C840 0.929 . S
S844 N845 1.613 . S
S844 N846 1.610 . S
N845 S844 1.613 . S
N845 C848 1.350 . S
N846 S844 1.610 . S
N846 C847 1.351 . S
C847 C841 1.428 . S
C847 N846 1.351 . S
C847 C848 1.434 . S
C848 C839 1.437 . S
C848 N845 1.350 . S
C848 C847 1.434 . S
C849 C850 1.369 . S
C849 C851 1.419 . S
C849 H853 0.930 . S
C850 C849 1.369 . S
C850 C859 1.429 . S
C851 C849 1.419 . S
C851 C852 1.363 . S
C851 H854 0.929 . S
C852 C851 1.363 . S
C852 C858 1.428 . S
H853 C849 0.930 . S
H854 C851 0.929 . S
S855 N856 1.614 . S
S855 N857 1.630 . S
N856 S855 1.614 . S
N856 C859 1.350 . S
N857 S855 1.630 . S
N857 C858 1.351 . S
C858 C852 1.428 . S
C858 N857 1.351 . S
C858 C859 1.434 . S
C859 C850 1.429 . S
C859 N856 1.350 . S
C859 C858 1.434 . S
C860 C861 1.369 . S
C860 C862 1.419 . S
C860 H864 0.930 . S
C861 C860 1.369 . S
C861 C870 1.429 . S
C862 C860 1.419 . S
C862 C863 1.363 . S
C862 H865 0.929 . S
C863 C862 1.363 . S
C863 C869 1.428 . S
H864 C860 0.930 . S
H865 C862 0.929 . S
S866 N867 1.613 . S
S866 N868 1.610 . S
N867 S866 1.613 . S
N867 C870 1.350 . S
N868 S866 1.610 . S
N868 C869 1.351 . S
C869 C863 1.428 . S
C869 N868 1.351 . S
C869 C870 1.434 . S
C870 C861 1.429 . S
C870 N867 1.350 . S
C870 C869 1.434 . S
C871 C872 1.369 . S
C871 C873 1.419 . S
C871 H875 0.930 . S
C872 C871 1.369 . S
C872 C881 1.429 . S
C873 C871 1.419 . S
C873 C874 1.363 . S
C873 H876 0.929 . S
C874 C873 1.363 . S
C874 C880 1.428 . S
H875 C871 0.930 . S
H876 C873 0.929 . S
S877 N878 1.613 . S
S877 N879 1.610 . S
N878 S877 1.613 . S
N878 C881 1.350 . S
N879 S877 1.610 . S
N879 C880 1.351 . S
C880 C874 1.428 . S
C880 N879 1.351 . S
C880 C881 1.434 . S
C881 C872 1.429 . S
C881 N878 1.350 . S
C881 C880 1.434 . S
C882 C883 1.369 . S
C882 C884 1.419 . S
C882 H886 0.930 . S
C883 C882 1.369 . S
C883 C892 1.429 . S
C884 C882 1.419 . S
C884 C885 1.363 . S
C884 H887 0.929 . S
C885 C884 1.363 . S
C885 C891 1.428 . S
H886 C882 0.930 . S
H887 C884 0.929 . S
S888 N889 1.613 . S
S888 N890 1.610 . S
N889 S888 1.613 . S
N889 C892 1.350 . S
N890 S888 1.610 . S
N890 C891 1.351 . S
C891 C885 1.428 . S
C891 N890 1.351 . S
C891 C892 1.434 . S
C892 C883 1.429 . S
C892 N889 1.350 . S
C892 C891 1.434 . S
C893 C894 1.369 . S
C893 C895 1.419 . S
C893 H897 0.930 . S
C894 C893 1.369 . S
C894 C903 1.429 . S
C895 C893 1.419 . S
C895 C896 1.363 . S
C895 H898 0.929 . S
C896 C895 1.363 . S
C896 C902 1.428 . S
H897 C893 0.930 . S
H898 C895 0.929 . S
S899 N900 1.613 . S
S899 N901 1.610 . S
N900 S899 1.613 . S
N900 C903 1.350 . S
N901 S899 1.610 . S
N901 C902 1.351 . S
C902 C896 1.428 . S
C902 N901 1.351 . S
C902 C903 1.434 . S
C903 C894 1.429 . S
C903 N900 1.350 . S
C903 C902 1.434 . S
C904 C905 1.369 . S
C904 C906 1.419 . S
C904 H908 0.930 . S
C905 C904 1.369 . S
C905 C914 1.429 . S
C906 C904 1.419 . S
C906 C907 1.363 . S
C906 H909 0.929 . S
C907 C906 1.363 . S
C907 C913 1.428 . S
H908 C904 0.930 . S
H909 C906 0.929 . S
S910 N911 1.613 . S
S910 N912 1.610 . S
N911 S910 1.613 . S
N911 C914 1.350 . S
N912 S910 1.610 . S
N912 C913 1.351 . S
C913 C907 1.428 . S
C913 N912 1.351 . S
C913 C914 1.434 . S
C914 C905 1.429 . S
C914 N911 1.350 . S
C914 C913 1.434 . S
C915 C916 1.369 . S
C915 C917 1.419 . S
C915 H919 0.930 . S
C916 C915 1.369 . S
C916 C925 1.429 . S
C917 C915 1.419 . S
C917 C918 1.363 . S
C917 H920 0.929 . S
C918 C917 1.363 . S
C918 C924 1.428 . S
H919 C915 0.930 . S
H920 C917 0.929 . S
S921 N922 1.613 . S
S921 N923 1.610 . S
N922 S921 1.613 . S
N922 C925 1.350 . S
N923 S921 1.610 . S
N923 C924 1.351 . S
C924 C918 1.428 . S
C924 N923 1.351 . S
C924 C925 1.434 . S
C925 C916 1.429 . S
C925 N922 1.350 . S
C925 C924 1.434 . S
C926 C927 1.369 . S
C926 C928 1.419 . S
C926 H930 0.930 . S
C927 C926 1.369 . S
C927 C936 1.429 . S
C928 C926 1.419 . S
C928 C929 1.363 . S
C928 H931 0.929 . S
C929 C928 1.363 . S
C929 C935 1.428 . S
H930 C926 0.930 . S
H931 C928 0.929 . S
S932 N933 1.613 . S
S932 N934 1.610 . S
N933 S932 1.613 . S
N933 C936 1.350 . S
N934 S932 1.610 . S
N934 C935 1.351 . S
C935 C929 1.428 . S
C935 N934 1.351 . S
C935 C936 1.434 . S
C936 C927 1.429 . S
C936 N933 1.350 . S
C936 C935 1.434 . S
C937 C938 1.369 . S
C937 C939 1.419 . S
C937 H941 0.930 . S
C938 C937 1.369 . S
C938 C947 1.429 . S
C939 C937 1.419 . S
C939 C940 1.363 . S
C939 H942 0.929 . S
C940 C939 1.363 . S
C940 C946 1.428 . S
H941 C937 0.930 . S
H942 C939 0.929 . S
S943 N944 1.613 . S
S943 N945 1.610 . S
N944 S943 1.613 . S
N944 C947 1.350 . S
N945 S943 1.610 . S
N945 C946 1.351 . S
C946 C940 1.428 . S
C946 N945 1.351 . S
C946 C947 1.434 . S
C947 C938 1.429 . S
C947 N944 1.350 . S
C947 C946 1.434 . S
C948 C949 1.369 . S
C948 C950 1.419 . S
C948 H952 0.930 . S
C949 C948 1.369 . S
C949 C958 1.429 . S
C950 C948 1.419 . S
C950 C951 1.363 . S
C950 H953 0.929 . S
C951 C950 1.363 . S
C951 C957 1.428 . S
H952 C948 0.930 . S
H953 C950 0.929 . S
S954 N955 1.613 . S
S954 N956 1.610 . S
N955 S954 1.613 . S
N955 C958 1.350 . S
N956 S954 1.610 . S
N956 C957 1.351 . S
C957 C951 1.428 . S
C957 N956 1.351 . S
C957 C958 1.434 . S
C958 C949 1.429 . S
C958 N955 1.350 . S
C958 C957 1.434 . S
C959 C960 1.369 . S
C959 C961 1.419 . S
C959 H963 0.930 . S
C960 C959 1.369 . S
C960 C969 1.429 . S
C961 C959 1.419 . S
C961 C962 1.363 . S
C961 H964 0.929 . S
C962 C961 1.363 . S
C962 C968 1.428 . S
H963 C959 0.930 . S
H964 C961 0.929 . S
S965 N966 1.613 . S
S965 N967 1.610 . S
N966 S965 1.613 . S
N966 C969 1.350 . S
N967 S965 1.610 . S
N967 C968 1.351 . S
C968 C962 1.428 . S
C968 N967 1.351 . S
C968 C969 1.434 . S
C969 C960 1.429 . S
C969 N966 1.350 . S
C969 C968 1.434 . S
C970 C971 1.369 . S
C970 C972 1.419 . S
C970 H974 0.930 . S
C971 C970 1.369 . S
C971 C980 1.429 . S
C972 C970 1.419 . S
C972 C973 1.363 . S
C972 H975 0.929 . S
C973 C972 1.363 . S
C973 C979 1.428 . S
H974 C970 0.930 . S
H975 C972 0.929 . S
S976 N977 1.613 . S
S976 N978 1.610 . S
N977 S976 1.613 . S
N977 C980 1.350 . S
N978 S976 1.610 . S
N978 C979 1.351 . S
C979 C973 1.428 . S
C979 N978 1.351 . S
C979 C980 1.434 . S
C980 C971 1.429 . S
C980 N977 1.350 . S
C980 C979 1.434 . S
C981 C982 1.369 . S
C981 C983 1.419 . S
C981 H985 0.930 . S
C982 C981 1.369 . S
C982 C991 1.429 . S
C983 C981 1.419 . S
C983 C984 1.363 . S
C983 H986 0.929 . S
C984 C983 1.363 . S
C984 C990 1.428 . S
H985 C981 0.930 . S
H986 C983 0.929 . S
S987 N988 1.613 . S
S987 N989 1.610 . S
N988 S987 1.613 . S
N988 C991 1.350 . S
N989 S987 1.610 . S
N989 C990 1.351 . S
C990 C984 1.428 . S
C990 N989 1.351 . S
C990 C991 1.434 . S
C991 C982 1.429 . S
C991 N988 1.350 . S
C991 C990 1.434 . S
C992 C993 1.369 . S
C992 C994 1.419 . S
C992 H996 0.930 . S
C993 C992 1.369 . S
C993 C1002 1.429 . S
C994 C992 1.419 . S
C994 C995 1.363 . S
C994 H997 0.929 . S
C995 C994 1.363 . S
C995 C1001 1.428 . S
H996 C992 0.930 . S
H997 C994 0.929 . S
S998 N999 1.613 . S
S998 N1000 1.610 . S
N999 S998 1.613 . S
N999 C1002 1.350 . S
N1000 S998 1.610 . S
N1000 C1001 1.351 . S
C1001 C995 1.428 . S
C1001 N1000 1.351 . S
C1001 C1002 1.434 . S
C1002 C993 1.429 . S
C1002 N999 1.350 . S
C1002 C1001 1.434 . S
C1003 C1004 1.369 . S
C1003 C1005 1.419 . S
C1003 H1007 0.930 . S
C1004 C1003 1.369 . S
C1004 C1013 1.429 . S
C1005 C1003 1.419 . S
C1005 C1006 1.363 . S
C1005 H1008 0.929 . S
C1006 C1005 1.363 . S
C1006 C1012 1.428 . S
H1007 C1003 0.930 . S
H1008 C1005 0.929 . S
S1009 N1010 1.613 . S
S1009 N1011 1.610 . S
N1010 S1009 1.613 . S
N1010 C1013 1.350 . S
N1011 S1009 1.610 . S
N1011 C1012 1.351 . S
C1012 C1006 1.428 . S
C1012 N1011 1.351 . S
C1012 C1013 1.434 . S
C1013 C1004 1.429 . S
C1013 N1010 1.350 . S
C1013 C1012 1.434 . S
C1014 C1015 1.369 . S
C1014 C1016 1.419 . S
C1014 H1018 0.930 . S
C1015 C1014 1.369 . S
C1015 C1024 1.429 . S
C1016 C1014 1.419 . S
C1016 C1017 1.363 . S
C1016 H1019 0.929 . S
C1017 C1016 1.363 . S
C1017 C1023 1.428 . S
H1018 C1014 0.930 . S
H1019 C1016 0.929 . S
S1020 N1021 1.613 . S
S1020 N1022 1.610 . S
N1021 S1020 1.613 . S
N1021 C1024 1.350 . S
N1022 S1020 1.610 . S
N1022 C1023 1.351 . S
C1023 C1017 1.428 . S
C1023 N1022 1.351 . S
C1023 C1024 1.434 . S
C1024 C1015 1.429 . S
C1024 N1021 1.350 . S
C1024 C1023 1.434 . S
C1025 C1026 1.369 . S
C1025 C1027 1.419 . S
C1025 H1029 0.930 . S
C1026 C1025 1.369 . S
C1026 C1035 1.429 . S
C1027 C1025 1.419 . S
C1027 C1028 1.363 . S
C1027 H1030 0.929 . S
C1028 C1027 1.363 . S
C1028 C1034 1.428 . S
H1029 C1025 0.930 . S
H1030 C1027 0.929 . S
S1031 N1032 1.613 . S
S1031 N1033 1.610 . S
N1032 S1031 1.613 . S
N1032 C1035 1.350 . S
N1033 S1031 1.610 . S
N1033 C1034 1.351 . S
C1034 C1028 1.428 . S
C1034 N1033 1.351 . S
C1034 C1035 1.434 . S
C1035 C1026 1.429 . S
C1035 N1032 1.350 . S
C1035 C1034 1.434 . S
C1036 C1037 1.369 . S
C1036 C1038 1.419 . S
C1036 H1040 0.930 . S
C1037 C1036 1.369 . S
C1037 C1046 1.429 . S
C1038 C1036 1.419 . S
C1038 C1039 1.363 . S
C1038 H1041 0.929 . S
C1039 C1038 1.363 . S
C1039 C1045 1.428 . S
H1040 C1036 0.930 . S
H1041 C1038 0.929 . S
S1042 N1043 1.613 . S
S1042 N1044 1.610 . S
N1043 S1042 1.613 . S
N1043 C1046 1.350 . S
N1044 S1042 1.610 . S
N1044 C1045 1.351 . S
C1045 C1039 1.428 . S
C1045 N1044 1.351 . S
C1045 C1046 1.434 . S
C1046 C1037 1.429 . S
C1046 N1043 1.350 . S
C1046 C1045 1.434 . S
C1047 C1048 1.369 . S
C1047 C1049 1.419 . S
C1047 H1051 0.930 . S
C1048 C1047 1.369 . S
C1048 C1057 1.429 . S
C1049 C1047 1.419 . S
C1049 C1050 1.363 . S
C1049 H1052 0.929 . S
C1050 C1049 1.363 . S
C1050 C1056 1.428 . S
H1051 C1047 0.930 . S
H1052 C1049 0.929 . S
S1053 N1054 1.613 . S
S1053 N1055 1.610 . S
N1054 S1053 1.613 . S
N1054 C1057 1.350 . S
N1055 S1053 1.610 . S
N1055 C1056 1.351 . S
C1056 C1050 1.428 . S
C1056 N1055 1.351 . S
C1056 C1057 1.434 . S
C1057 C1048 1.429 . S
C1057 N1054 1.350 . S
C1057 C1056 1.434 . S
C1058 C1059 1.369 . S
C1058 C1060 1.419 . S
C1058 H1062 0.930 . S
C1059 C1058 1.369 . S
C1059 C1068 1.429 . S
C1060 C1058 1.419 . S
C1060 C1061 1.363 . S
C1060 H1063 0.929 . S
C1061 C1060 1.363 . S
C1061 C1067 1.428 . S
H1062 C1058 0.930 . S
H1063 C1060 0.929 . S
S1064 N1065 1.613 . S
S1064 N1066 1.610 . S
N1065 S1064 1.613 . S
N1065 C1068 1.350 . S
N1066 S1064 1.610 . S
N1066 C1067 1.351 . S
C1067 C1061 1.428 . S
C1067 N1066 1.351 . S
C1067 C1068 1.434 . S
C1068 C1059 1.429 . S
C1068 N1065 1.350 . S
C1068 C1067 1.434 . S
C1069 C1070 1.369 . S
C1069 C1071 1.419 . S
C1069 H1073 0.930 . S
C1070 C1069 1.369 . S
C1070 C1079 1.429 . S
C1071 C1069 1.419 . S
C1071 C1072 1.363 . S
C1071 H1074 0.929 . S
C1072 C1071 1.363 . S
C1072 C1078 1.428 . S
H1073 C1069 0.930 . S
H1074 C1071 0.929 . S
S1075 N1076 1.613 . S
S1075 N1077 1.610 . S
N1076 S1075 1.613 . S
N1076 C1079 1.350 . S
N1077 S1075 1.610 . S
N1077 C1078 1.351 . S
C1078 C1072 1.428 . S
C1078 N1077 1.351 . S
C1078 C1079 1.434 . S
C1079 C1070 1.429 . S
C1079 N1076 1.350 . S
C1079 C1078 1.434 . S
C1080 C1081 1.369 . S
C1080 C1082 1.419 . S
C1080 H1084 0.930 . S
C1081 C1080 1.369 . S
C1081 C1090 1.429 . S
C1082 C1080 1.419 . S
C1082 C1083 1.363 . S
C1082 H1085 0.929 . S
C1083 C1082 1.363 . S
C1083 C1089 1.428 . S
H1084 C1080 0.930 . S
H1085 C1082 0.929 . S
S1086 N1087 1.613 . S
S1086 N1088 1.610 . S
N1087 S1086 1.613 . S
N1087 C1090 1.350 . S
N1088 S1086 1.610 . S
N1088 C1089 1.351 . S
C1089 C1083 1.428 . S
C1089 N1088 1.351 . S
C1089 C1090 1.434 . S
C1090 C1081 1.429 . S
C1090 N1087 1.350 . S
C1090 C1089 1.434 . S
C1091 C1092 1.369 . S
C1091 C1093 1.419 . S
C1091 H1095 0.930 . S
C1092 C1091 1.369 . S
C1092 C1101 1.429 . S
C1093 C1091 1.419 . S
C1093 C1094 1.363 . S
C1093 H1096 0.929 . S
C1094 C1093 1.363 . S
C1094 C1100 1.428 . S
H1095 C1091 0.930 . S
H1096 C1093 0.929 . S
S1097 N1098 1.613 . S
S1097 N1099 1.610 . S
N1098 S1097 1.613 . S
N1098 C1101 1.350 . S
N1099 S1097 1.610 . S
N1099 C1100 1.351 . S
C1100 C1094 1.428 . S
C1100 N1099 1.351 . S
C1100 C1101 1.434 . S
C1101 C1092 1.429 . S
C1101 N1098 1.350 . S
C1101 C1100 1.434 . S
C1102 C1103 1.369 . S
C1102 C1104 1.419 . S
C1102 H1106 0.930 . S
C1103 C1102 1.369 . S
C1103 C1112 1.429 . S
C1104 C1102 1.419 . S
C1104 C1105 1.363 . S
C1104 H1107 0.929 . S
C1105 C1104 1.363 . S
C1105 C1111 1.428 . S
H1106 C1102 0.930 . S
H1107 C1104 0.929 . S
S1108 N1109 1.613 . S
S1108 N1110 1.610 . S
N1109 S1108 1.613 . S
N1109 C1112 1.350 . S
N1110 S1108 1.610 . S
N1110 C1111 1.351 . S
C1111 C1105 1.428 . S
C1111 N1110 1.351 . S
C1111 C1112 1.434 . S
C1112 C1103 1.429 . S
C1112 N1109 1.350 . S
C1112 C1111 1.434 . S
C1113 C1114 1.369 . S
C1113 C1115 1.419 . S
C1113 H1117 0.930 . S
C1114 C1113 1.369 . S
C1114 C1123 1.429 . S
C1115 C1113 1.419 . S
C1115 C1116 1.363 . S
C1115 H1118 0.929 . S
C1116 C1115 1.363 . S
C1116 C1122 1.428 . S
H1117 C1113 0.930 . S
H1118 C1115 0.929 . S
S1119 N1120 1.613 . S
S1119 N1121 1.610 . S
N1120 S1119 1.613 . S
N1120 C1123 1.350 . S
N1121 S1119 1.610 . S
N1121 C1122 1.351 . S
C1122 C1116 1.428 . S
C1122 N1121 1.351 . S
C1122 C1123 1.434 . S
C1123 C1114 1.429 . S
C1123 N1120 1.350 . S
C1123 C1122 1.434 . S
C599 C301 1.265 . S
C597 N2 1.233 . S
C610 C339 2.344 . S
C608 C7 2.344 . S
C621 C360 1.791 . S
C619 N12 1.587 . S
C630 C16 1.876 . S
C632 C398 1.942 . S
C643 C438 2.474 . S
C641 C30 2.445 1_565 S
C654 C501 1.491 . S
C652 N35 1.424 . S
C663 C39 2.147 . S
C665 C539 2.122 . S
C676 C560 1.154 . S
C674 N25 1.128 . S
C687 C307 1.301 . S
C685 N58 1.271 . S
C696 N81 2.128 . S
C698 C336 2.088 . S
C709 C379 1.437 . S
C707 N104 1.372 . S
C718 N127 1.422 . S
C720 C421 1.382 . S
C731 C461 1.133 1_554 S
C729 N48 1.215 . S
C742 C507 1.528 . S
C740 N71 1.435 1_556 S
C751 N94 1.744 . S
C753 C536 1.700 . S
C764 C579 1.780 . S
C762 N117 1.768 . S
C773 C85 2.534 . S
C775 C278 2.432 . S
C784 C122 2.593 . S
C786 C467 2.569 . S
C795 C53 2.148 . S
C797 C478 2.086 . S
C808 C520 1.496 1_554 S
C806 C76 1.529 . S
C819 C576 2.039 . S
C817 C99 2.069 . S
C830 C376 2.032 . S
C828 C131 2.060 . S
C841 C427 2.148 . S
C839 C62 2.155 1_565 S
C850 C108 1.302 . S
C852 C320 1.287 . S
C863 C581 1.322 . S
C861 N140 1.286 . S
C872 C145 2.341 . S
C874 C459 2.333 . S
C885 C480 1.626 . S
C883 N150 1.436 . S
C894 C154 1.889 . S
C896 C518 1.952 . S
C907 C318 2.480 . S
C905 C168 2.463 . S
C916 N173 1.268 . S
C918 C381 1.333 . S
C929 C419 2.121 . S
C927 C177 2.160 . S
C940 C280 1.187 . S
C938 N163 1.124 . S
C951 C587 1.756 . S
C949 C200 1.730 . S
C962 C456 2.351 . S
C960 N219 2.392 . S
C971 N242 1.653 . S
C973 C499 1.700 . S
C984 C541 1.581 . S
C982 C269 1.667 . S
C995 C341 1.376 . S
C993 C191 1.437 . S
C1004 N209 1.688 . S
C1006 C387 1.791 . S
C1015 N232 2.021 . S
C1017 C416 1.978 . S
C1026 C260 2.337 . S
C1028 C299 2.299 . S
C1037 C223 2.226 . S
C1039 C558 2.126 . S
C1048 N255 2.172 . S
C1050 C347 2.156 . S
C1059 N186 1.748 . S
C1061 C358 1.699 . S
C1072 C400 1.226 . S
C1070 C214 1.256 . S
C1083 C296 1.732 . S
C1081 C237 1.754 . S
C1094 C496 1.676 . S
C1092 N265 1.570 . S
C1105 C547 1.756 . S
C1103 N196 1.762 . S
C1116 C440 1.027 . S
C1114 C246 1.038 . S
