# Generated by pormake.
# Topology gar, (4,6)-cn, num edge types: 1
# Building blocks:
#     Node 0, Type 0, BuildingBlock: TATPOV_clean_sbu_0, # of connection points: 4
#     Node 1, Type 0, BuildingBlock: TATPOV_clean_sbu_0, # of connection points: 4
#     Node 2, Type 0, BuildingBlock: TATPOV_clean_sbu_0, # of connection points: 4
#     Node 3, Type 0, BuildingBlock: TATPOV_clean_sbu_0, # of connection points: 4
#     Node 4, Type 0, BuildingBlock: TATPOV_clean_sbu_0, # of connection points: 4
#     Node 5, Type 0, BuildingBlock: TATPOV_clean_sbu_0, # of connection points: 4
#     Node 6, Type 0, BuildingBlock: TATPOV_clean_sbu_0, # of connection points: 4
#     Node 7, Type 0, BuildingBlock: TATPOV_clean_sbu_0, # of connection points: 4
#     Node 8, Type 0, BuildingBlock: TATPOV_clean_sbu_0, # of connection points: 4
#     Node 9, Type 0, BuildingBlock: TATPOV_clean_sbu_0, # of connection points: 4
#     Node 10, Type 0, BuildingBlock: TATPOV_clean_sbu_0, # of connection points: 4
#     Node 11, Type 0, BuildingBlock: TATPOV_clean_sbu_0, # of connection points: 4
#     Node 12, Type 0, BuildingBlock: TATPOV_clean_sbu_0, # of connection points: 4
#     Node 13, Type 0, BuildingBlock: TATPOV_clean_sbu_0, # of connection points: 4
#     Node 14, Type 0, BuildingBlock: TATPOV_clean_sbu_0, # of connection points: 4
#     Node 15, Type 0, BuildingBlock: TATPOV_clean_sbu_0, # of connection points: 4
#     Node 16, Type 0, BuildingBlock: TATPOV_clean_sbu_0, # of connection points: 4
#     Node 17, Type 0, BuildingBlock: TATPOV_clean_sbu_0, # of connection points: 4
#     Node 18, Type 0, BuildingBlock: TATPOV_clean_sbu_0, # of connection points: 4
#     Node 19, Type 0, BuildingBlock: TATPOV_clean_sbu_0, # of connection points: 4
#     Node 20, Type 0, BuildingBlock: TATPOV_clean_sbu_0, # of connection points: 4
#     Node 21, Type 0, BuildingBlock: TATPOV_clean_sbu_0, # of connection points: 4
#     Node 22, Type 0, BuildingBlock: TATPOV_clean_sbu_0, # of connection points: 4
#     Node 23, Type 0, BuildingBlock: TATPOV_clean_sbu_0, # of connection points: 4
#     Node 24, Type 1, BuildingBlock: KUMJIN_clean_sbu_1, # of connection points: 6
#     Node 25, Type 1, BuildingBlock: KUMJIN_clean_sbu_1, # of connection points: 6
#     Node 26, Type 1, BuildingBlock: KUMJIN_clean_sbu_1, # of connection points: 6
#     Node 27, Type 1, BuildingBlock: KUMJIN_clean_sbu_1, # of connection points: 6
#     Node 28, Type 1, BuildingBlock: KUMJIN_clean_sbu_1, # of connection points: 6
#     Node 29, Type 1, BuildingBlock: KUMJIN_clean_sbu_1, # of connection points: 6
#     Node 30, Type 1, BuildingBlock: KUMJIN_clean_sbu_1, # of connection points: 6
#     Node 31, Type 1, BuildingBlock: KUMJIN_clean_sbu_1, # of connection points: 6
#     Node 32, Type 1, BuildingBlock: KUMJIN_clean_sbu_1, # of connection points: 6
#     Node 33, Type 1, BuildingBlock: KUMJIN_clean_sbu_1, # of connection points: 6
#     Node 34, Type 1, BuildingBlock: KUMJIN_clean_sbu_1, # of connection points: 6
#     Node 35, Type 1, BuildingBlock: KUMJIN_clean_sbu_1, # of connection points: 6
#     Node 36, Type 1, BuildingBlock: KUMJIN_clean_sbu_1, # of connection points: 6
#     Node 37, Type 1, BuildingBlock: KUMJIN_clean_sbu_1, # of connection points: 6
#     Node 38, Type 1, BuildingBlock: KUMJIN_clean_sbu_1, # of connection points: 6
#     Node 39, Type 1, BuildingBlock: KUMJIN_clean_sbu_1, # of connection points: 6
#     Edge 40, Type (0, 1), BuildingBlock: XUDNAN_clean_linker_2, # of connection points: 2
#     Edge 41, Type (0, 1), BuildingBlock: XUDNAN_clean_linker_2, # of connection points: 2
#     Edge 42, Type (0, 1), BuildingBlock: XUDNAN_clean_linker_2, # of connection points: 2
#     Edge 43, Type (0, 1), BuildingBlock: XUDNAN_clean_linker_2, # of connection points: 2
#     Edge 44, Type (0, 1), BuildingBlock: XUDNAN_clean_linker_2, # of connection points: 2
#     Edge 45, Type (0, 1), BuildingBlock: XUDNAN_clean_linker_2, # of connection points: 2
#     Edge 46, Type (0, 1), BuildingBlock: XUDNAN_clean_linker_2, # of connection points: 2
#     Edge 47, Type (0, 1), BuildingBlock: XUDNAN_clean_linker_2, # of connection points: 2
#     Edge 48, Type (0, 1), BuildingBlock: XUDNAN_clean_linker_2, # of connection points: 2
#     Edge 49, Type (0, 1), BuildingBlock: XUDNAN_clean_linker_2, # of connection points: 2
#     Edge 50, Type (0, 1), BuildingBlock: XUDNAN_clean_linker_2, # of connection points: 2
#     Edge 51, Type (0, 1), BuildingBlock: XUDNAN_clean_linker_2, # of connection points: 2
#     Edge 52, Type (0, 1), BuildingBlock: XUDNAN_clean_linker_2, # of connection points: 2
#     Edge 53, Type (0, 1), BuildingBlock: XUDNAN_clean_linker_2, # of connection points: 2
#     Edge 54, Type (0, 1), BuildingBlock: XUDNAN_clean_linker_2, # of connection points: 2
#     Edge 55, Type (0, 1), BuildingBlock: XUDNAN_clean_linker_2, # of connection points: 2
#     Edge 56, Type (0, 1), BuildingBlock: XUDNAN_clean_linker_2, # of connection points: 2
#     Edge 57, Type (0, 1), BuildingBlock: XUDNAN_clean_linker_2, # of connection points: 2
#     Edge 58, Type (0, 1), BuildingBlock: XUDNAN_clean_linker_2, # of connection points: 2
#     Edge 59, Type (0, 1), BuildingBlock: XUDNAN_clean_linker_2, # of connection points: 2
#     Edge 60, Type (0, 1), BuildingBlock: XUDNAN_clean_linker_2, # of connection points: 2
#     Edge 61, Type (0, 1), BuildingBlock: XUDNAN_clean_linker_2, # of connection points: 2
#     Edge 62, Type (0, 1), BuildingBlock: XUDNAN_clean_linker_2, # of connection points: 2
#     Edge 63, Type (0, 1), BuildingBlock: XUDNAN_clean_linker_2, # of connection points: 2
#     Edge 64, Type (0, 1), BuildingBlock: XUDNAN_clean_linker_2, # of connection points: 2
#     Edge 65, Type (0, 1), BuildingBlock: XUDNAN_clean_linker_2, # of connection points: 2
#     Edge 66, Type (0, 1), BuildingBlock: XUDNAN_clean_linker_2, # of connection points: 2
#     Edge 67, Type (0, 1), BuildingBlock: XUDNAN_clean_linker_2, # of connection points: 2
#     Edge 68, Type (0, 1), BuildingBlock: XUDNAN_clean_linker_2, # of connection points: 2
#     Edge 69, Type (0, 1), BuildingBlock: XUDNAN_clean_linker_2, # of connection points: 2
#     Edge 70, Type (0, 1), BuildingBlock: XUDNAN_clean_linker_2, # of connection points: 2
#     Edge 71, Type (0, 1), BuildingBlock: XUDNAN_clean_linker_2, # of connection points: 2
#     Edge 72, Type (0, 1), BuildingBlock: XUDNAN_clean_linker_2, # of connection points: 2
#     Edge 73, Type (0, 1), BuildingBlock: XUDNAN_clean_linker_2, # of connection points: 2
#     Edge 74, Type (0, 1), BuildingBlock: XUDNAN_clean_linker_2, # of connection points: 2
#     Edge 75, Type (0, 1), BuildingBlock: XUDNAN_clean_linker_2, # of connection points: 2
#     Edge 76, Type (0, 1), BuildingBlock: XUDNAN_clean_linker_2, # of connection points: 2
#     Edge 77, Type (0, 1), BuildingBlock: XUDNAN_clean_linker_2, # of connection points: 2
#     Edge 78, Type (0, 1), BuildingBlock: XUDNAN_clean_linker_2, # of connection points: 2
#     Edge 79, Type (0, 1), BuildingBlock: XUDNAN_clean_linker_2, # of connection points: 2
#     Edge 80, Type (0, 1), BuildingBlock: XUDNAN_clean_linker_2, # of connection points: 2
#     Edge 81, Type (0, 1), BuildingBlock: XUDNAN_clean_linker_2, # of connection points: 2
#     Edge 82, Type (0, 1), BuildingBlock: XUDNAN_clean_linker_2, # of connection points: 2
#     Edge 83, Type (0, 1), BuildingBlock: XUDNAN_clean_linker_2, # of connection points: 2
#     Edge 84, Type (0, 1), BuildingBlock: XUDNAN_clean_linker_2, # of connection points: 2
#     Edge 85, Type (0, 1), BuildingBlock: XUDNAN_clean_linker_2, # of connection points: 2
#     Edge 86, Type (0, 1), BuildingBlock: XUDNAN_clean_linker_2, # of connection points: 2
#     Edge 87, Type (0, 1), BuildingBlock: XUDNAN_clean_linker_2, # of connection points: 2
#     Edge 88, Type (0, 1), BuildingBlock: XUDNAN_clean_linker_2, # of connection points: 2
#     Edge 89, Type (0, 1), BuildingBlock: XUDNAN_clean_linker_2, # of connection points: 2
#     Edge 90, Type (0, 1), BuildingBlock: XUDNAN_clean_linker_2, # of connection points: 2
#     Edge 91, Type (0, 1), BuildingBlock: XUDNAN_clean_linker_2, # of connection points: 2
#     Edge 92, Type (0, 1), BuildingBlock: XUDNAN_clean_linker_2, # of connection points: 2
#     Edge 93, Type (0, 1), BuildingBlock: XUDNAN_clean_linker_2, # of connection points: 2
#     Edge 94, Type (0, 1), BuildingBlock: XUDNAN_clean_linker_2, # of connection points: 2
#     Edge 95, Type (0, 1), BuildingBlock: XUDNAN_clean_linker_2, # of connection points: 2
#     Edge 96, Type (0, 1), BuildingBlock: XUDNAN_clean_linker_2, # of connection points: 2
#     Edge 97, Type (0, 1), BuildingBlock: XUDNAN_clean_linker_2, # of connection points: 2
#     Edge 98, Type (0, 1), BuildingBlock: XUDNAN_clean_linker_2, # of connection points: 2
#     Edge 99, Type (0, 1), BuildingBlock: XUDNAN_clean_linker_2, # of connection points: 2
#     Edge 100, Type (0, 1), BuildingBlock: XUDNAN_clean_linker_2, # of connection points: 2
#     Edge 101, Type (0, 1), BuildingBlock: XUDNAN_clean_linker_2, # of connection points: 2
#     Edge 102, Type (0, 1), BuildingBlock: XUDNAN_clean_linker_2, # of connection points: 2
#     Edge 103, Type (0, 1), BuildingBlock: XUDNAN_clean_linker_2, # of connection points: 2
#     Edge 104, Type (0, 1), BuildingBlock: XUDNAN_clean_linker_2, # of connection points: 2
#     Edge 105, Type (0, 1), BuildingBlock: XUDNAN_clean_linker_2, # of connection points: 2
#     Edge 106, Type (0, 1), BuildingBlock: XUDNAN_clean_linker_2, # of connection points: 2
#     Edge 107, Type (0, 1), BuildingBlock: XUDNAN_clean_linker_2, # of connection points: 2
#     Edge 108, Type (0, 1), BuildingBlock: XUDNAN_clean_linker_2, # of connection points: 2
#     Edge 109, Type (0, 1), BuildingBlock: XUDNAN_clean_linker_2, # of connection points: 2
#     Edge 110, Type (0, 1), BuildingBlock: XUDNAN_clean_linker_2, # of connection points: 2
#     Edge 111, Type (0, 1), BuildingBlock: XUDNAN_clean_linker_2, # of connection points: 2
#     Edge 112, Type (0, 1), BuildingBlock: XUDNAN_clean_linker_2, # of connection points: 2
#     Edge 113, Type (0, 1), BuildingBlock: XUDNAN_clean_linker_2, # of connection points: 2
#     Edge 114, Type (0, 1), BuildingBlock: XUDNAN_clean_linker_2, # of connection points: 2
#     Edge 115, Type (0, 1), BuildingBlock: XUDNAN_clean_linker_2, # of connection points: 2
#     Edge 116, Type (0, 1), BuildingBlock: XUDNAN_clean_linker_2, # of connection points: 2
#     Edge 117, Type (0, 1), BuildingBlock: XUDNAN_clean_linker_2, # of connection points: 2
#     Edge 118, Type (0, 1), BuildingBlock: XUDNAN_clean_linker_2, # of connection points: 2
#     Edge 119, Type (0, 1), BuildingBlock: XUDNAN_clean_linker_2, # of connection points: 2
#     Edge 120, Type (0, 1), BuildingBlock: XUDNAN_clean_linker_2, # of connection points: 2
#     Edge 121, Type (0, 1), BuildingBlock: XUDNAN_clean_linker_2, # of connection points: 2
#     Edge 122, Type (0, 1), BuildingBlock: XUDNAN_clean_linker_2, # of connection points: 2
#     Edge 123, Type (0, 1), BuildingBlock: XUDNAN_clean_linker_2, # of connection points: 2
#     Edge 124, Type (0, 1), BuildingBlock: XUDNAN_clean_linker_2, # of connection points: 2
#     Edge 125, Type (0, 1), BuildingBlock: XUDNAN_clean_linker_2, # of connection points: 2
#     Edge 126, Type (0, 1), BuildingBlock: XUDNAN_clean_linker_2, # of connection points: 2
#     Edge 127, Type (0, 1), BuildingBlock: XUDNAN_clean_linker_2, # of connection points: 2
#     Edge 128, Type (0, 1), BuildingBlock: XUDNAN_clean_linker_2, # of connection points: 2
#     Edge 129, Type (0, 1), BuildingBlock: XUDNAN_clean_linker_2, # of connection points: 2
#     Edge 130, Type (0, 1), BuildingBlock: XUDNAN_clean_linker_2, # of connection points: 2
#     Edge 131, Type (0, 1), BuildingBlock: XUDNAN_clean_linker_2, # of connection points: 2
#     Edge 132, Type (0, 1), BuildingBlock: XUDNAN_clean_linker_2, # of connection points: 2
#     Edge 133, Type (0, 1), BuildingBlock: XUDNAN_clean_linker_2, # of connection points: 2
#     Edge 134, Type (0, 1), BuildingBlock: XUDNAN_clean_linker_2, # of connection points: 2
#     Edge 135, Type (0, 1), BuildingBlock: XUDNAN_clean_linker_2, # of connection points: 2
# Relax obj value: 0.088
# Max RMSD: 0.187
# Mean RMSD: 0.129
data_MOF--net-gar--node1-TATPOV_clean_sbu_0--node2-KUMJIN_clean_sbu_1--edge1-XUDNAN_clean_linker_2
_symmetry_space_group_name_H-M    P1
_symmetry_Int_Tables_number       1
_symmetry_cell_setting            triclinic
loop_
_symmetry_equiv_pos_as_xyz
'x, y, z'
_cell_length_a     60.124814
_cell_length_b     60.16587
_cell_length_c     56.467334
_cell_angle_alpha  96.702259
_cell_angle_beta   97.039821
_cell_angle_gamma 103.27509
loop_
_atom_site_label
_atom_site_type_symbol
_atom_site_fract_x
_atom_site_fract_y
_atom_site_fract_z
_atom_type_partial_charge
Zn0 Zn 0.02394 0.31661 0.38582 0.0
Zn1 Zn 0.05483 0.3193 0.35724 0.0
O2 O 0.06245 0.35375 0.37948 0.0
O3 O 0.03653 0.34777 0.40413 0.0
O4 O 0.08394 0.31401 0.33791 0.0
O5 O 0.02808 0.28885 0.39978 0.0
O6 O 0.05623 0.29223 0.37793 0.0
C7 C 0.05288 0.36131 0.39706 0.0
C8 C 0.99967 0.31191 0.33927 0.0
O9 O 0.02018 0.31259 0.33373 0.0
O10 O 0.99697 0.3137 0.36115 0.0
C11 C 0.10175 0.32654 0.33087 0.0
O12 O 0.10395 0.34891 0.33267 0.0
C13 C 0.0449 0.282 0.39297 0.0
Zn14 Zn 0.02069 0.72492 0.72035 0.0
Zn15 Zn 0.02422 0.75674 0.69144 0.0
O16 O 0.99396 0.75931 0.70788 0.0
O17 O 0.99239 0.73486 0.73392 0.0
O18 O 0.02725 0.78338 0.67131 0.0
O19 O 0.05629 0.73651 0.73447 0.0
O20 O 0.05805 0.76387 0.71169 0.0
C21 C 0.98366 0.74946 0.72393 0.0
C22 C 0.01601 0.70556 0.66929 0.0
O23 O 0.01997 0.72677 0.66625 0.0
O24 O 0.01395 0.70021 0.69014 0.0
C25 C 0.01434 0.78141 0.65114 0.0
O26 O 0.99887 0.76184 0.64316 0.0
C27 C 0.06831 0.75364 0.72671 0.0
Zn28 Zn 0.52787 0.81377 0.88677 0.0
Zn29 Zn 0.55542 0.81958 0.85712 0.0
O30 O 0.5632 0.85369 0.87913 0.0
O31 O 0.53593 0.84649 0.9019 0.0
O32 O 0.58256 0.81788 0.83351 0.0
O33 O 0.53789 0.79234 0.90633 0.0
O34 O 0.55957 0.79188 0.87762 0.0
C35 C 0.55238 0.86072 0.89579 0.0
C36 C 0.49931 0.80767 0.84331 0.0
O37 O 0.51952 0.81536 0.8372 0.0
O38 O 0.49842 0.80232 0.86418 0.0
C39 C 0.60474 0.82219 0.8405 0.0
O40 O 0.61273 0.83073 0.86322 0.0
C41 C 0.55243 0.78411 0.89635 0.0
Zn42 Zn 0.5196 0.23027 0.22397 0.0
Zn43 Zn 0.52569 0.2546 0.19063 0.0
O44 O 0.4944 0.25942 0.20504 0.0
O45 O 0.49147 0.24099 0.23615 0.0
O46 O 0.52906 0.2768 0.16595 0.0
O47 O 0.55413 0.24139 0.23978 0.0
O48 O 0.56065 0.2616 0.21041 0.0
C49 C 0.48332 0.2534 0.22239 0.0
C50 C 0.51596 0.20308 0.17535 0.0
O51 O 0.52019 0.22287 0.16851 0.0
O52 O 0.51389 0.20186 0.19735 0.0
C53 C 0.52366 0.29609 0.16848 0.0
O54 O 0.51589 0.30258 0.18825 0.0
C55 C 0.56859 0.25388 0.22909 0.0
Zn56 Zn 0.09663 0.79908 0.08162 0.0
Zn57 Zn 0.06641 0.79785 0.10975 0.0
O58 O 0.06326 0.82855 0.09271 0.0
O59 O 0.08913 0.82885 0.06873 0.0
O60 O 0.03784 0.79265 0.12657 0.0
O61 O 0.08391 0.76479 0.06439 0.0
O62 O 0.06131 0.76246 0.09205 0.0
C63 C 0.07423 0.83838 0.07702 0.0
C64 C 0.11642 0.80409 0.13355 0.0
O65 O 0.09569 0.80429 0.13666 0.0
O66 O 0.12121 0.80217 0.1122 0.0
C67 C 0.03233 0.80569 0.14311 0.0
O68 O 0.04671 0.82561 0.15239 0.0
C69 C 0.06949 0.75232 0.07507 0.0
Zn70 Zn 0.47823 0.76519 0.47432 0.0
Zn71 Zn 0.50732 0.76829 0.44499 0.0
O72 O 0.5142 0.8043 0.46304 0.0
O73 O 0.49142 0.79949 0.49042 0.0
O74 O 0.53303 0.76863 0.42427 0.0
O75 O 0.48712 0.73625 0.48808 0.0
O76 O 0.51143 0.73793 0.46228 0.0
C77 C 0.50564 0.81319 0.48057 0.0
C78 C 0.45604 0.76154 0.42374 0.0
O79 O 0.47671 0.76228 0.41979 0.0
O80 O 0.45182 0.76211 0.44529 0.0
C81 C 0.54362 0.78511 0.41445 0.0
O82 O 0.53775 0.8049 0.41678 0.0
C83 C 0.50201 0.72763 0.47862 0.0
Zn84 Zn 0.59713 0.29988 0.583 0.0
Zn85 Zn 0.56866 0.29942 0.61346 0.0
O86 O 0.56537 0.33012 0.5965 0.0
O87 O 0.58846 0.32914 0.56962 0.0
O88 O 0.54219 0.29607 0.63324 0.0
O89 O 0.58332 0.26503 0.56657 0.0
O90 O 0.56246 0.26418 0.59572 0.0
C91 C 0.57461 0.33917 0.57937 0.0
C92 C 0.61892 0.30381 0.63496 0.0
O93 O 0.59842 0.30368 0.63901 0.0
O94 O 0.62292 0.3029 0.61326 0.0
C95 C 0.53831 0.31315 0.64615 0.0
O96 O 0.55216 0.33373 0.64726 0.0
C97 C 0.56919 0.25326 0.57811 0.0
Zn98 Zn 0.98299 0.26789 0.97797 0.0
Zn99 Zn 1.00637 0.26619 0.94321 0.0
O100 O 0.01423 0.30199 0.96048 0.0
O101 O 0.99664 0.30302 0.9922 0.0
O102 O 0.03279 0.2661 0.92351 0.0
O103 O 0.99236 0.23943 0.99204 0.0
O104 O 0.00902 0.2357 0.96008 0.0
C105 C 0.00902 0.31391 0.97853 0.0
C106 C 0.95631 0.26265 0.92708 0.0
O107 O 0.97534 0.26191 0.91945 0.0
O108 O 0.95569 0.26395 0.94969 0.0
C109 C 0.03915 0.27806 0.90727 0.0
O110 O 0.02738 0.29276 0.90054 0.0
C111 C 1.00298 0.22789 0.97915 0.0
Zn112 Zn 0.42722 0.98728 0.30341 0.0
Zn113 Zn 0.39994 0.03014 0.309 0.0
O114 O 0.41852 0.04273 0.34256 0.0
O115 O 0.42648 0.01178 0.32785 0.0
O116 O 0.37842 0.0492 0.30442 0.0
O117 O 0.43125 0.9996 0.27291 0.0
O118 O 0.41468 0.02913 0.27869 0.0
C119 C 0.42698 0.02592 0.346 0.0
C120 C 0.37707 0.97797 0.30404 0.0
O121 O 0.3781 0.9994 0.30835 0.0
O122 O 0.39442 0.96988 0.3007 0.0
C123 C 0.36696 0.053 0.32116 0.0
O124 O 0.37096 0.04564 0.34188 0.0
C125 C 0.425 0.01692 0.26614 0.0
Zn126 Zn 0.24101 0.20597 0.51529 0.0
Zn127 Zn 0.27357 0.18453 0.51344 0.0
O128 O 0.27756 0.20091 0.4828 0.0
O129 O 0.25047 0.21965 0.48594 0.0
O130 O 0.30031 0.17022 0.51782 0.0
O131 O 0.2524 0.22284 0.54908 0.0
O132 O 0.27991 0.20435 0.54792 0.0
C133 C 0.26617 0.21465 0.47481 0.0
C134 C 0.22346 0.15698 0.5083 0.0
O135 O 0.24467 0.15702 0.5083 0.0
O136 O 0.2173 0.17572 0.5111 0.0
C137 C 0.30836 0.15709 0.50378 0.0
O138 O 0.29827 0.15027 0.48128 0.0
C139 C 0.27022 0.21808 0.55937 0.0
Zn140 Zn 0.11517 0.07786 0.79003 0.0
Zn141 Zn 0.13763 0.04552 0.78843 0.0
O142 O 0.12281 0.04218 0.82007 0.0
O143 O 0.10099 0.06687 0.81873 0.0
O144 O 0.15461 0.02046 0.786 0.0
O145 O 0.10037 0.06752 0.75476 0.0
O146 O 0.11735 0.03885 0.75469 0.0
C147 C 0.1083 0.0518 0.82912 0.0
C148 C 0.1641 0.09628 0.79526 0.0
O149 O 0.16386 0.07492 0.79129 0.0
O150 O 0.14547 0.10235 0.79691 0.0
C151 C 0.1677 0.01736 0.80408 0.0
O152 O 0.16974 0.03051 0.8249 0.0
C153 C 0.10453 0.04977 0.7436 0.0
Zn154 Zn 0.34082 0.92176 0.00497 0.0
Zn155 Zn 0.30393 0.93544 0.99807 0.0
O156 O 0.29965 0.91471 0.96738 0.0
O157 O 0.33631 0.91459 0.96826 0.0
O158 O 0.27404 0.94096 -0.001 0.0
O159 O 0.32794 0.89692 0.02374 0.0
O160 O 0.30753 0.92266 0.02911 0.0
C161 C 0.31599 0.91072 0.95684 0.0
C162 C 0.34446 0.96947 0.01174 0.0
O163 O 0.32637 0.96472 0.9963 0.0
O164 O 0.34772 0.9543 0.02448 0.0
C165 C 0.26285 0.95058 0.9848 0.0
O166 O 0.27239 0.96033 0.96765 0.0
C167 C 0.3152 0.90614 0.03585 0.0
Zn168 Zn 0.33603 0.36067 0.0449 0.0
Zn169 Zn 0.30415 0.38381 0.03894 0.0
O170 O 0.29805 0.36336 0.00505 0.0
O171 O 0.32423 0.34352 0.01121 0.0
O172 O 0.27818 0.39934 0.03923 0.0
O173 O 0.32484 0.34687 0.07363 0.0
O174 O 0.30009 0.36847 0.06979 0.0
C175 C 0.30813 0.34805 0.9974 0.0
C176 C 0.35427 0.41019 0.0473 0.0
O177 O 0.3331 0.41048 0.04286 0.0
O178 O 0.36001 0.39145 0.04948 0.0
C179 C 0.27394 0.41373 0.02572 0.0
O180 O 0.28692 0.41902 0.0091 0.0
C181 C 0.30864 0.35448 0.08112 0.0
Zn182 Zn 0.74595 0.14471 0.05279 0.0
Zn183 Zn 0.77706 0.12636 0.05261 0.0
O184 O 0.77726 0.13869 0.02098 0.0
O185 O 0.76226 0.16706 0.03325 0.0
O186 O 0.80163 0.11133 0.05373 0.0
O187 O 0.75457 0.15108 0.08902 0.0
O188 O 0.78912 0.15107 0.08057 0.0
C189 C 0.77344 0.15828 0.01876 0.0
C190 C 0.73062 0.09811 0.04605 0.0
O191 O 0.75057 0.10133 0.05782 0.0
O192 O 0.72519 0.11435 0.03628 0.0
C193 C 0.80556 0.09923 0.06991 0.0
O194 O 0.79127 0.0945 0.08549 0.0
C195 C 0.77628 0.15627 0.09527 0.0
Zn196 Zn 0.15539 0.57055 0.2499 0.0
Zn197 Zn 0.17978 0.53826 0.24367 0.0
O198 O 0.16419 0.53036 0.27277 0.0
O199 O 0.16899 0.56732 0.284 0.0
O200 O 0.19801 0.51547 0.23816 0.0
O201 O 0.16397 0.57185 0.21637 0.0
O202 O 0.16047 0.53456 0.21201 0.0
C203 C 0.16597 0.5471 0.28935 0.0
C204 C 0.20374 0.58634 0.26471 0.0
O205 O 0.20346 0.56891 0.24968 0.0
O206 O 0.1853 0.58791 0.27307 0.0
C207 C 0.21984 0.52081 0.24359 0.0
O208 O 0.23085 0.54173 0.25405 0.0
C209 C 0.1613 0.55288 0.20285 0.0
Zn210 Zn 0.83379 0.86034 0.54075 0.0
Zn211 Zn 0.80277 0.88453 0.54311 0.0
O212 O 0.79445 0.86683 0.50819 0.0
O213 O 0.81971 0.84561 0.50637 0.0
O214 O 0.77837 0.90167 0.5458 0.0
O215 O 0.82396 0.84527 0.56887 0.0
O216 O 0.79908 0.86664 0.57232 0.0
C217 C 0.80298 0.85235 0.49624 0.0
C218 C 0.85318 0.90931 0.5461 0.0
O219 O 0.83213 0.91005 0.54518 0.0
O220 O 0.85873 0.89023 0.54555 0.0
C221 C 0.7729 0.91376 0.53015 0.0
O222 O 0.78368 0.91527 0.51129 0.0
C223 C 0.80868 0.85144 0.57975 0.0
Zn224 Zn 0.96253 0.98849 0.25951 0.0
Zn225 Zn 0.93848 0.02006 0.26368 0.0
O226 O 0.96043 0.02653 0.29603 0.0
O227 O 0.97897 0.99901 0.29418 0.0
O228 O 0.92318 0.04592 0.26979 0.0
O229 O 0.97446 1.00105 0.23019 0.0
O230 O 0.95263 0.02572 0.2325 0.0
C231 C 0.97461 0.01634 0.30593 0.0
C232 C 0.91363 0.96901 0.25758 0.0
O233 O 0.91281 0.99012 0.26115 0.0
O234 O 0.93261 0.96395 0.25506 0.0
C235 C 0.90817 0.05302 0.25694 0.0
O236 O 0.89938 0.04217 0.23506 0.0
C237 C 0.96673 0.01689 0.22172 0.0
Zn238 Zn 0.24423 0.65356 0.55877 0.0
Zn239 Zn 0.27515 0.63119 0.55521 0.0
O240 O 0.27356 0.6445 0.52503 0.0
O241 O 0.25789 0.67312 0.53478 0.0
O242 O 0.30156 0.62009 0.55157 0.0
O243 O 0.25591 0.66288 0.59416 0.0
O244 O 0.2872 0.65224 0.58656 0.0
C245 C 0.26841 0.66291 0.52066 0.0
C246 C 0.22995 0.60317 0.54785 0.0
O247 O 0.2507 0.60311 0.55451 0.0
O248 O 0.22376 0.62182 0.5467 0.0
C249 C 0.31002 0.60865 0.56597 0.0
O250 O 0.29882 0.60058 0.58294 0.0
C251 C 0.27652 0.66205 0.60077 0.0
Zn252 Zn 0.45908 0.48847 0.75844 0.0
Zn253 Zn 0.43498 0.52057 0.76103 0.0
O254 O 0.45553 0.52792 0.79468 0.0
O255 O 0.47429 0.50045 0.79319 0.0
O256 O 0.41652 0.54447 0.76261 0.0
O257 O 0.47181 0.50052 0.72919 0.0
O258 O 0.45132 0.52642 0.73136 0.0
C259 C 0.46965 0.51771 0.80479 0.0
C260 C 0.41044 0.46889 0.75402 0.0
O261 O 0.40964 0.48999 0.75661 0.0
O262 O 0.42951 0.46345 0.7537 0.0
C263 C 0.40196 0.54288 0.7772 0.0
O264 O 0.40005 0.52619 0.79047 0.0
C265 C 0.46524 0.51705 0.7209 0.0
Zn266 Zn 0.66942 0.07989 0.75073 0.0
Zn267 Zn 0.68267 0.04559 0.74827 0.0
O268 O 0.66675 0.04031 0.77698 0.0
O269 O 0.67287 0.07788 0.78641 0.0
O270 O 0.6946 0.01877 0.74084 0.0
O271 O 0.64021 0.0667 0.72802 0.0
O272 O 0.66332 0.04549 0.71674 0.0
C273 C 0.66887 0.05795 0.79253 0.0
C274 C 0.71425 0.08995 0.74837 0.0
O275 O 0.71115 0.07212 0.75849 0.0
O276 O 0.69709 0.0941 0.73609 0.0
C277 C 0.71341 0.01872 0.75345 0.0
O278 O 0.72286 0.03562 0.77127 0.0
C279 C 0.64559 0.05314 0.71215 0.0
Zn280 Zn 0.74593 0.71051 0.01187 0.0
Zn281 Zn 0.77408 0.6818 0.01309 0.0
O282 O 0.78096 0.69757 0.98347 0.0
O283 O 0.75913 0.72232 0.98244 0.0
O284 O 0.79949 0.66599 0.01953 0.0
O285 O 0.75796 0.72671 0.04655 0.0
O286 O 0.77761 0.70021 0.04696 0.0
C287 C 0.77375 0.71306 0.97345 0.0
C288 C 0.72379 0.65994 0.0051 0.0
O289 O 0.74408 0.65688 0.00591 0.0
O290 O 0.72052 0.68015 0.00758 0.0
C291 C 0.80972 0.6553 0.00541 0.0
O292 O 0.803 0.65227 0.98198 0.0
C293 C 0.7712 0.71673 0.05809 0.0
Zn294 Zn 0.90261 0.49051 0.80048 0.0
Zn295 Zn 0.89095 0.52566 0.80745 0.0
O296 O 0.9144 0.52879 0.8351 0.0
O297 O 0.90683 0.49168 0.83672 0.0
O298 O 0.88201 0.55393 0.81449 0.0
O299 O 0.92827 0.50781 0.78561 0.0
O300 O 0.90344 0.52792 0.77591 0.0
C301 C 0.91495 0.51234 0.84691 0.0
C302 C 0.85697 0.48221 0.79274 0.0
O303 O 0.86314 0.5003 0.80814 0.0
O304 O 0.87135 0.47743 0.77973 0.0
C305 C 0.86149 0.5549 0.81598 0.0
O306 O 0.8462 0.53668 0.81955 0.0
C307 C 0.92154 0.52135 0.77247 0.0
Zn308 Zn 0.82722 0.39657 0.49419 0.0
Zn309 Zn 0.79459 0.42587 0.49952 0.0
O310 O 0.79092 0.41087 0.46557 0.0
O311 O 0.82823 0.41765 0.46786 0.0
O312 O 0.77554 0.44771 0.49827 0.0
O313 O 0.81499 0.39466 0.52613 0.0
O314 O 0.78258 0.40603 0.5227 0.0
C315 C 0.80859 0.41395 0.45519 0.0
C316 C 0.84528 0.44639 0.50828 0.0
O317 O 0.82569 0.44689 0.51401 0.0
O318 O 0.84821 0.42889 0.49516 0.0
C319 C 0.76782 0.4555 0.47993 0.0
O320 O 0.77109 0.44779 0.45824 0.0
C321 C 0.79694 0.39739 0.53432 0.0
Zn322 Zn 0.61714 0.57669 0.29562 0.0
Zn323 Zn 0.63633 0.54341 0.28593 0.0
O324 O 0.62041 0.53628 0.31665 0.0
O325 O 0.60528 0.56569 0.32499 0.0
O326 O 0.65315 0.51833 0.28207 0.0
O327 O 0.59898 0.56768 0.26161 0.0
O328 O 0.61559 0.5396 0.25247 0.0
C329 C 0.60947 0.54703 0.33015 0.0
C330 C 0.66477 0.59433 0.29642 0.0
O331 O 0.66333 0.57289 0.29028 0.0
O332 O 0.64701 0.60095 0.3008 0.0
C333 C 0.66671 0.51611 0.30026 0.0
O334 O 0.66895 0.53004 0.32061 0.0
C335 C 0.60176 0.55182 0.2462 0.0
Eu336 Eu 0.06973 0.04633 0.04601 0.0
C337 C 0.99278 0.96631 0.98558 0.0
N338 N 1.00396 0.98678 0.97959 0.0
C339 C 1.00101 0.96919 0.93864 0.0
C340 C 0.9854 0.94634 0.96804 0.0
C341 C 0.00791 0.98856 0.95651 0.0
C342 C 0.98969 0.948 0.94441 0.0
C343 C 0.97641 0.94425 0.01556 0.0
C344 C 0.98812 0.96534 0.00919 0.0
C345 C 0.96919 0.92442 0.99809 0.0
C346 C 0.97355 0.92549 0.97442 0.0
Eu347 Eu 0.0093 0.01883 0.00954 0.0
N348 N 0.99446 0.985 0.02568 0.0
C349 C 0.97171 0.9438 0.0392 0.0
C350 C 0.98864 0.9848 0.04827 0.0
C351 C 0.97779 0.96419 0.05559 0.0
H352 H 0.01514 0.00515 0.9515 0.0
H353 H 0.97344 0.9642 0.07363 0.0
H354 H 0.05995 0.05707 0.10377 0.0
H355 H 0.12825 0.10097 0.99838 0.0
H356 H 0.99115 1.00048 0.06036 0.0
H357 H 0.96281 0.92792 0.04477 0.0
H358 H 0.10394 0.06452 0.00666 0.0
H359 H 1.0039 0.97075 0.92029 0.0
H360 H 0.95993 0.90818 0.00264 0.0
H361 H 0.96756 0.91006 0.9611 0.0
H362 H 0.06578 0.09039 0.13546 0.0
H363 H 0.98404 0.93309 0.9304 0.0
H364 H 0.13269 0.13727 0.0261 0.0
N365 N 0.07412 0.07704 0.07799 0.0
C366 C 0.08662 0.09802 0.07447 0.0
C367 C 0.07131 0.09287 0.11822 0.0
C368 C 0.09123 0.11745 0.09257 0.0
C369 C 0.06741 0.07405 0.09989 0.0
C370 C 0.08298 0.11473 0.11443 0.0
N371 N 0.09239 0.08056 0.03664 0.0
C372 C 0.10475 0.08049 0.018 0.0
C373 C 0.11047 0.12089 0.04983 0.0
C374 C 0.0961 0.09979 0.05327 0.0
C375 C 0.12145 0.12143 0.02935 0.0
C376 C 0.11895 0.10101 0.01362 0.0
H377 H 0.08629 0.1292 0.12882 0.0
H378 H 0.10826 0.15384 0.10236 0.0
H379 H 0.12512 0.15682 0.06498 0.0
O380 O 0.10019 0.03399 0.03955 0.0
O381 O 0.05115 0.07401 0.03443 0.0
O382 O 0.01868 0.05768 0.00579 0.0
O383 O 0.09771 0.05063 0.07569 0.0
O384 O 0.06823 0.03294 0.00574 0.0
O385 O 0.03338 0.03574 0.98589 0.0
O386 O 0.97377 0.01665 0.01442 0.0
O387 O 0.03408 0.99446 0.01603 0.0
O388 O 0.05453 0.00935 0.05339 0.0
O389 O 0.98312 0.01701 0.97864 0.0
O390 O 0.01096 0.03936 0.04673 0.0
O391 O 0.04212 0.03054 0.06674 0.0
C392 C 0.03389 0.07602 0.01843 0.0
C393 C 0.13299 0.03948 0.0712 0.0
C394 C 0.16479 0.02227 0.06625 0.0
C395 C 0.17685 0.03442 0.08852 0.0
C396 C 0.145 0.05192 0.0935 0.0
C397 C 0.16696 0.04941 0.10207 0.0
C398 C 0.14309 0.02493 0.05753 0.0
C399 C 0.0551 0.03559 0.98624 0.0
C400 C 0.11014 0.04174 0.06184 0.0
C401 C 0.10464 0.13874 0.08868 0.0
C402 C 0.11423 0.14045 0.06738 0.0
C403 C 0.04509 0.99128 0.03673 0.0
C404 C 0.95326 0.03443 0.98731 0.0
C405 C 0.9261 0.05528 0.00082 0.0
C406 C 0.92429 0.06386 0.97871 0.0
C407 C 0.95137 0.04292 0.96519 0.0
C408 C 0.94096 0.04107 0.00509 0.0
C409 C 0.93708 0.0578 0.96106 0.0
C410 C 0.02302 0.03727 0.06696 0.0
C411 C 0.96702 0.01781 0.99184 0.0
H412 H 0.19374 0.03225 0.09534 0.0
H413 H 0.13748 0.06355 0.10421 0.0
H414 H 0.17622 0.05895 0.11924 0.0
H415 H 0.13393 0.01521 0.04031 0.0
H416 H 0.91262 0.0747 0.9748 0.0
H417 H 0.9607 0.03791 0.95106 0.0
H418 H 0.94266 0.03484 0.02232 0.0
H419 H 0.93553 0.06425 0.94398 0.0
Eu420 Eu 0.26537 0.78146 0.30808 0.0
C421 C 0.32006 0.74603 0.22399 0.0
N422 N 0.32902 0.76246 0.24357 0.0
C423 C 0.3621 0.7468 0.25053 0.0
C424 C 0.33147 0.72875 0.2174 0.0
C425 C 0.34998 0.76337 0.25656 0.0
C426 C 0.35267 0.72923 0.23105 0.0
C427 C 0.29007 0.73027 0.18946 0.0
C428 C 0.29955 0.74672 0.21032 0.0
C429 C 0.30082 0.71244 0.18342 0.0
C430 C 0.32151 0.71171 0.19734 0.0
Eu431 Eu 0.30649 0.78855 0.25404 0.0
N432 N 0.2894 0.76401 0.21686 0.0
C433 C 0.2705 0.73269 0.17486 0.0
C434 C 0.27227 0.76804 0.20101 0.0
C435 C 0.26199 0.75208 0.18028 0.0
H436 H 0.35749 0.77697 0.27156 0.0
H437 H 0.24786 0.75502 0.16821 0.0
H438 H 0.21455 0.79466 0.29346 0.0
H439 H 0.32725 0.81345 0.39246 0.0
H440 H 0.26702 0.78394 0.20369 0.0
H441 H 0.26265 0.72043 0.15873 0.0
H442 H 0.30781 0.78563 0.35656 0.0
H443 H 0.37866 0.74756 0.26098 0.0
H444 H 0.2936 0.69949 0.16767 0.0
H445 H 0.32988 0.69814 0.19219 0.0
H446 H 0.19533 0.82547 0.3049 0.0
H447 H 0.36203 0.71634 0.22651 0.0
H448 H 0.31281 0.84773 0.40403 0.0
N449 N 0.24415 0.80835 0.32031 0.0
C450 C 0.25401 0.82441 0.33996 0.0
C451 C 0.21195 0.82554 0.31479 0.0
C452 C 0.24362 0.84239 0.34715 0.0
C453 C 0.223 0.80821 0.30824 0.0
C454 C 0.2225 0.84296 0.33407 0.0
N455 N 0.28395 0.80512 0.3456 0.0
C456 C 0.30193 0.80105 0.3603 0.0
C457 C 0.28458 0.83867 0.37417 0.0
C458 C 0.2743 0.82258 0.35316 0.0
C459 C 0.30436 0.83574 0.38787 0.0
C460 C 0.3127 0.81652 0.38124 0.0
H461 H 0.21397 0.85646 0.33903 0.0
H462 H 0.24688 0.87314 0.37282 0.0
H463 H 0.28279 0.86987 0.39655 0.0
O464 O 0.26098 0.75095 0.32521 0.0
O465 O 0.27815 0.81693 0.29972 0.0
O466 O 0.31206 0.81243 0.28882 0.0
O467 O 0.232 0.76604 0.31841 0.0
O468 O 0.30075 0.77192 0.31532 0.0
O469 O 0.32692 0.78941 0.29145 0.0
O470 O 0.30899 0.81821 0.23561 0.0
O471 O 0.29413 0.75322 0.2628 0.0
O472 O 0.25991 0.75731 0.27324 0.0
O473 O 0.33924 0.80502 0.24325 0.0
O474 O 0.27023 0.79589 0.24519 0.0
O475 O 0.24465 0.78328 0.27185 0.0
C476 C 0.29819 0.8254 0.29369 0.0
C477 C 0.2354 0.7485 0.35344 0.0
C478 C 0.24635 0.73666 0.39166 0.0
C479 C 0.22788 0.74368 0.40065 0.0
C480 C 0.2168 0.75539 0.36231 0.0
C481 C 0.2131 0.75295 0.38592 0.0
C482 C 0.24991 0.73896 0.36818 0.0
C483 C 0.322 0.77836 0.30991 0.0
C484 C 0.23999 0.75082 0.32893 0.0
C485 C 0.25442 0.85902 0.36729 0.0
C486 C 0.27484 0.85714 0.3808 0.0
C487 C 0.27398 0.74444 0.26846 0.0
C488 C 0.33458 0.82145 0.20751 0.0
C489 C 0.32508 0.83552 0.1702 0.0
C490 C 0.3412 0.82542 0.15991 0.0
C491 C 0.35078 0.81138 0.19725 0.0
C492 C 0.32206 0.83381 0.19396 0.0
C493 C 0.35409 0.81349 0.1735 0.0
C494 C 0.24936 0.79171 0.25184 0.0
C495 C 0.33024 0.81936 0.23215 0.0
H496 H 0.22465 0.74154 0.41881 0.0
H497 H 0.20519 0.76261 0.35109 0.0
H498 H 0.19873 0.75813 0.39276 0.0
H499 H 0.26421 0.73334 0.36152 0.0
H500 H 0.3441 0.82718 0.14158 0.0
H501 H 0.36083 0.80191 0.20749 0.0
H502 H 0.30977 0.84197 0.20177 0.0
H503 H 0.36667 0.80591 0.16562 0.0
Eu504 Eu 0.5041 0.03052 0.53999 0.0
C505 C 0.58699 0.08133 0.48549 0.0
N506 N 0.57286 0.05956 0.47917 0.0
C507 C 0.56475 0.06687 0.43845 0.0
C508 C 0.58963 0.09692 0.46858 0.0
C509 C 0.56295 0.05183 0.45559 0.0
C510 C 0.57776 0.08962 0.44507 0.0
C511 C 0.61664 0.10922 0.51455 0.0
C512 C 0.60039 0.08764 0.50837 0.0
C513 C 0.61825 0.12508 0.49816 0.0
C514 C 0.60475 0.11898 0.47528 0.0
Eu515 Eu 0.57011 0.03771 0.51178 0.0
N516 N 0.59851 0.0722 0.52418 0.0
C517 C 0.6315 0.11381 0.53667 0.0
C518 C 0.61458 0.07545 0.54428 0.0
C519 C 0.63087 0.09658 0.55131 0.0
H520 H 0.55385 0.03404 0.44945 0.0
H521 H 0.64314 0.0994 0.56773 0.0
H522 H 0.50711 0.03761 0.60157 0.0
H523 H 0.43903 0.96579 0.47539 0.0
H524 H 0.61504 0.06159 0.55465 0.0
H525 H 0.64427 0.13014 0.54201 0.0
H526 H 0.46495 1.00411 0.49044 0.0
H527 H 0.5564 0.06077 0.41999 0.0
H528 H 0.63045 0.14184 0.5027 0.0
H529 H 0.60676 0.13118 0.46254 0.0
H530 H 0.49723 0.01302 0.63269 0.0
H531 H 0.57934 0.1011 0.43161 0.0
H532 H 0.43243 0.93665 0.50294 0.0
N533 N 0.49317 0.01032 0.57215 0.0
C534 C 0.47968 0.98845 0.56519 0.0
C535 C 0.49248 0.00581 0.61377 0.0
C536 C 0.47332 0.97394 0.58243 0.0
C537 C 0.49819 0.01961 0.59607 0.0
C538 C 0.48048 0.9827 0.60693 0.0
N539 N 0.4755 0.996 0.52484 0.0
C540 C 0.46346 0.99117 0.50201 0.0
C541 C 0.45511 0.95918 0.53345 0.0
C542 C 0.47052 0.98114 0.54092 0.0
C543 C 0.44443 0.9533 0.50934 0.0
C544 C 0.44817 0.96963 0.49371 0.0
H545 H 0.47595 0.97209 0.6207 0.0
H546 H 0.45449 0.94004 0.58779 0.0
H547 H 0.43862 0.92712 0.54489 0.0
O548 O 0.47368 0.03978 0.52225 0.0
O549 O 0.51349 0.99652 0.52439 0.0
O550 O 0.54846 0.99924 0.50778 0.0
O551 O 0.48816 0.0539 0.5597 0.0
O552 O 0.52126 0.0415 0.5083 0.0
O553 O 0.53975 0.02318 0.48343 0.0
O554 O 0.5935 0.02075 0.53162 0.0
O555 O 0.56393 0.07178 0.53174 0.0
O556 O 0.52747 0.06786 0.54486 0.0
O557 O 0.59865 0.02963 0.49603 0.0
O558 O 0.5486 0.03266 0.53988 0.0
O559 O 0.53215 0.03321 0.57126 0.0
C560 C 0.52888 0.98712 0.51409 0.0
C561 C 0.44881 0.05054 0.54855 0.0
C562 C 0.41727 0.06869 0.55279 0.0
C563 C 0.40904 0.05331 0.56844 0.0
C564 C 0.44035 0.03491 0.56388 0.0
C565 C 0.42041 0.03629 0.57371 0.0
C566 C 0.43697 0.06706 0.5426 0.0
C567 C 0.52056 0.0276 0.48853 0.0
C568 C 0.47173 0.05256 0.54185 0.0
C569 C 0.45921 0.95152 0.57481 0.0
C570 C 0.45015 0.94416 0.55038 0.0
C571 C 0.54774 0.08049 0.54116 0.0
C572 C 0.60918 0.99664 0.50559 0.0
C573 C 0.63593 0.97217 0.50591 0.0
C574 C 0.62259 0.95819 0.48501 0.0
C575 C 0.59547 0.9822 0.48508 0.0
C576 C 0.62911 0.99129 0.51628 0.0
C577 C 0.60232 0.96314 0.47476 0.0
C578 C 0.55101 0.03293 0.56286 0.0
C579 C 0.60501 0.01905 0.51356 0.0
H580 H 0.39392 0.0546 0.57664 0.0
H581 H 0.44957 0.02227 0.56891 0.0
H582 H 0.41411 0.02453 0.58589 0.0
H583 H 0.44381 0.07949 0.53121 0.0
H584 H 0.62792 0.94353 0.47665 0.0
H585 H 0.58009 0.98625 0.47644 0.0
H586 H 0.63992 1.00264 0.53186 0.0
H587 H 0.59228 0.95258 0.45843 0.0
Eu588 Eu 0.32122 0.27262 0.78082 0.0
C589 C 0.23784 0.30335 0.72747 0.0
N590 N 0.25279 0.31484 0.7475 0.0
C591 C 0.2563 0.3505 0.73165 0.0
C592 C 0.2318 0.31513 0.70845 0.0
C593 C 0.2618 0.33811 0.75003 0.0
C594 C 0.24129 0.33896 0.71073 0.0
C595 C 0.21345 0.26729 0.70515 0.0
C596 C 0.2289 0.27964 0.72582 0.0
C597 C 0.20746 0.27897 0.68615 0.0
C598 C 0.21659 0.30281 0.6878 0.0
Eu599 Eu 0.26165 0.29253 0.77723 0.0
N600 N 0.23529 0.26868 0.74437 0.0
C601 C 0.20427 0.24359 0.7043 0.0
C602 C 0.22518 0.2459 0.74422 0.0
C603 C 0.20993 0.23293 0.72406 0.0
H604 H 0.27306 0.34716 0.76636 0.0
H605 H 0.20225 0.21478 0.72394 0.0
H606 H 0.30851 0.21879 0.79397 0.0
H607 H 0.37885 0.35158 0.83333 0.0
H608 H 0.22816 0.23768 0.75976 0.0
H609 H 0.19236 0.2335 0.68874 0.0
H610 H 0.35337 0.3277 0.79749 0.0
H611 H 0.26359 0.36894 0.73365 0.0
H612 H 0.19565 0.26973 0.67014 0.0
H613 H 0.21175 0.31157 0.673 0.0
H614 H 0.31707 0.19807 0.82789 0.0
H615 H 0.23707 0.34862 0.6965 0.0
H616 H 0.38819 0.33397 0.86945 0.0
N617 N 0.32865 0.2514 0.81207 0.0
C618 C 0.34342 0.26335 0.83203 0.0
C619 C 0.32448 0.21645 0.82935 0.0
C620 C 0.349 0.2522 0.85173 0.0
C621 C 0.31942 0.22824 0.81029 0.0
C622 C 0.33929 0.22848 0.8502 0.0
N623 N 0.34613 0.29743 0.81394 0.0
C624 C 0.35616 0.32009 0.81352 0.0
C625 C 0.36735 0.29989 0.85372 0.0
C626 C 0.35229 0.28702 0.83306 0.0
C627 C 0.37651 0.32349 0.85394 0.0
C628 C 0.37112 0.33355 0.83364 0.0
H629 H 0.34315 0.21929 0.86496 0.0
H630 H 0.36831 0.25677 0.88771 0.0
H631 H 0.3845 0.29846 0.88939 0.0
O632 O 0.35267 0.28231 0.76354 0.0
O633 O 0.30437 0.27614 0.81474 0.0
O634 O 0.28868 0.30674 0.81044 0.0
O635 O 0.33957 0.24702 0.77048 0.0
O636 O 0.32056 0.30603 0.76591 0.0
O637 O 0.29498 0.32065 0.78656 0.0
O638 O 0.23288 0.28262 0.79865 0.0
O639 O 0.27666 0.28783 0.74199 0.0
O640 O 0.29541 0.25893 0.7465 0.0
O641 O 0.24284 0.31713 0.78863 0.0
O642 O 0.26196 0.2578 0.78969 0.0
O643 O 0.28852 0.24436 0.76947 0.0
C644 C 0.29684 0.29348 0.82418 0.0
C645 C 0.3745 0.25348 0.75268 0.0
C646 C 0.40792 0.25898 0.7312 0.0
C647 C 0.41102 0.23746 0.73641 0.0
C648 C 0.37796 0.23197 0.75722 0.0
C649 C 0.3961 0.22409 0.74917 0.0
C650 C 0.38957 0.26705 0.73964 0.0
C651 C 0.31149 0.32307 0.77314 0.0
C652 C 0.35542 0.26135 0.76233 0.0
C653 C 0.36383 0.26505 0.87238 0.0
C654 C 0.37299 0.28881 0.87336 0.0
C655 C 0.28551 0.27127 0.73291 0.0
C656 C 0.21289 0.31224 0.81339 0.0
C657 C 0.17878 0.30727 0.83374 0.0
C658 C 0.18253 0.33142 0.83834 0.0
C659 C 0.21609 0.33632 0.8184 0.0
C660 C 0.19427 0.29759 0.82146 0.0
C661 C 0.20104 0.34576 0.83078 0.0
C662 C 0.27065 0.24087 0.78103 0.0
C663 C 0.22945 0.30334 0.79991 0.0
H664 H 0.42531 0.23101 0.73098 0.0
H665 H 0.3668 0.22124 0.76733 0.0
H666 H 0.39875 0.20761 0.75306 0.0
H667 H 0.38691 0.2836 0.73594 0.0
H668 H 0.17107 0.33926 0.84797 0.0
H669 H 0.23033 0.34803 0.81276 0.0
H670 H 0.19157 0.279 0.8178 0.0
H671 H 0.20372 0.36432 0.83448 0.0
Eu672 Eu 0.04693 1.00148 0.52124 0.0
C673 C 0.01945 0.08456 0.5793 0.0
N674 N 0.00838 0.06903 0.55949 0.0
C675 C 0.97293 0.06343 0.57601 0.0
C676 C 0.00765 0.08961 0.59858 0.0
C677 C 0.9852 0.05924 0.5572 0.0
C678 C 0.98423 0.07851 0.59689 0.0
C679 C 0.05423 0.11264 0.60009 0.0
C680 C 0.04247 0.09612 0.58005 0.0
C681 C 0.04258 0.11742 0.6194 0.0
C682 C 0.01936 0.10595 0.61865 0.0
Eu683 Eu 0.03086 0.06459 0.52848 0.0
N684 N 0.0535 0.09098 0.56128 0.0
C685 C 0.07741 0.12383 0.60014 0.0
C686 C 0.07576 0.10244 0.56071 0.0
C687 C 0.08817 0.11879 0.5803 0.0
H688 H 0.97574 0.04884 0.54064 0.0
H689 H 0.10594 0.12764 0.58002 0.0
H690 H 0.10197 0.01444 0.5112 0.0
H691 H 0.97017 0.94206 0.46653 0.0
H692 H 0.08388 0.09885 0.54514 0.0
H693 H 0.08706 0.13654 0.61527 0.0
H694 H 0.99238 0.96834 0.50266 0.0
H695 H 0.95462 0.0554 0.57416 0.0
H696 H 0.05135 0.13 0.635 0.0
H697 H 0.01056 0.10999 0.63361 0.0
H698 H 0.12396 0.00741 0.47819 0.0
H699 H 0.97457 0.08196 0.61129 0.0
H700 H 0.98965 0.93278 0.43188 0.0
N701 N 0.06966 0.995 0.49133 0.0
C702 C 0.05853 0.98015 0.47113 0.0
C703 C 0.10553 0.9998 0.47587 0.0
C704 C 0.07054 0.97512 0.45206 0.0
C705 C 0.09296 1.00407 0.4944 0.0
C706 C 0.09424 0.98544 0.4545 0.0
N707 N 0.02372 0.97548 0.48803 0.0
C708 C 1.0009 0.96523 0.48739 0.0
C709 C 0.02308 0.95451 0.44873 0.0
C710 C 0.03498 0.97004 0.46947 0.0
C711 C 0.99943 0.94465 0.44759 0.0
C712 C 0.98834 0.94995 0.46706 0.0
H713 H 0.10406 0.98208 0.44021 0.0
H714 H 0.06759 0.95577 0.41648 0.0
H715 H 0.02618 0.9375 0.41371 0.0
O716 O 0.04099 0.96627 0.53044 0.0
O717 O 0.04137 0.01768 0.48686 0.0
O718 O 0.01471 0.03799 0.49561 0.0
O719 O 0.07458 0.99106 0.54262 0.0
O720 O 0.01234 1.00151 0.5336 0.0
O721 O 1.00087 0.03243 0.51892 0.0
O722 O 0.04095 0.09271 0.50629 0.0
O723 O 0.0529 0.05601 0.56071 0.0
O724 O 0.03692 0.0175 0.55523 0.0
O725 O 0.00867 0.08711 0.52131 0.0
O726 O 0.06231 0.0617 0.51157 0.0
O727 O 0.07587 0.03448 0.53107 0.0
C728 C 0.02601 0.02907 0.48018 0.0
C729 C 0.07045 0.95281 0.55467 0.0
C730 C 0.06424 0.91846 0.57485 0.0
C731 C 0.08829 0.92215 0.58079 0.0
C732 C 0.09441 0.95592 0.56076 0.0
C733 C 0.10323 0.94062 0.57361 0.0
C734 C 0.05528 0.93372 0.56143 0.0
C735 C 0.99655 0.01264 0.52744 0.0
C736 C 0.06174 0.97034 0.54256 0.0
C737 C 0.05865 0.95981 0.43133 0.0
C738 C 0.03506 0.94939 0.42977 0.0
C739 C 0.04966 0.03616 0.56892 0.0
C740 C 0.01454 0.11809 0.49763 0.0
C741 C 0.01965 0.14965 0.47343 0.0
C742 C 0.99776 0.15257 0.47732 0.0
C743 C 0.99264 0.12146 0.50085 0.0
C744 C 0.02823 0.13242 0.48392 0.0
C745 C 0.98442 0.13858 0.49085 0.0
C746 C 0.07883 0.05191 0.51867 0.0
C747 C 0.02186 0.09908 0.50836 0.0
H748 H 0.09557 0.91047 0.59075 0.0
H749 H 0.10641 0.97031 0.55569 0.0
H750 H 0.12174 0.94316 0.57814 0.0
H751 H 0.03672 0.93109 0.55691 0.0
H752 H 0.99093 0.16594 0.47 0.0
H753 H 0.98164 0.11079 0.51113 0.0
H754 H 0.04507 0.12997 0.4811 0.0
H755 H 0.96759 0.14101 0.4936 0.0
Eu756 Eu 0.29271 0.81758 0.76429 0.0
C757 C 0.23693 0.72864 0.81687 0.0
N758 N 0.25918 0.74161 0.82311 0.0
C759 C 0.255 0.74352 0.8651 0.0
C760 C 0.22258 0.72374 0.83461 0.0
C761 C 0.26874 0.74746 0.84701 0.0
C762 C 0.23168 0.73208 0.85885 0.0
C763 C 0.20702 0.70271 0.78655 0.0
C764 C 0.22908 0.71818 0.79302 0.0
C765 C 0.19235 0.69901 0.80393 0.0
C766 C 0.20005 0.70957 0.82786 0.0
Eu767 Eu 0.27964 0.74799 0.78979 0.0
N768 N 0.24366 0.72161 0.77647 0.0
C769 C 0.20073 0.6906 0.76302 0.0
C770 C 0.23863 0.70795 0.75458 0.0
C771 C 0.21686 0.69285 0.74713 0.0
H772 H 0.28704 0.7552 0.85235 0.0
H773 H 0.21278 0.68253 0.72941 0.0
H774 H 0.2843 0.81666 0.70306 0.0
H775 H 0.36148 0.87476 0.83161 0.0
H776 H 0.25166 0.70809 0.74334 0.0
H777 H 0.18394 0.67864 0.75736 0.0
H778 H 0.32299 0.84831 0.81718 0.0
H779 H 0.26252 0.74891 0.88391 0.0
H780 H 0.17528 0.68736 0.79921 0.0
H781 H 0.18878 0.70585 0.84123 0.0
H782 H 0.30818 0.82866 0.67189 0.0
H783 H 0.22119 0.72869 0.87294 0.0
H784 H 0.3884 0.88528 0.80267 0.0
N785 N 0.31217 0.82931 0.73218 0.0
C786 C 0.33412 0.84269 0.73941 0.0
C787 C 0.31574 0.83247 0.69077 0.0
C788 C 0.34816 0.85028 0.72217 0.0
C789 C 0.30234 0.82561 0.70841 0.0
C790 C 0.33889 0.84441 0.69764 0.0
N791 N 0.32815 0.84396 0.78056 0.0
C792 C 0.33449 0.8531 0.80442 0.0
C793 C 0.36444 0.8652 0.77163 0.0
C794 C 0.34223 0.85025 0.76407 0.0
C795 C 0.37147 0.87378 0.79622 0.0
C796 C 0.35631 0.86796 0.81262 0.0
H797 H 0.34918 0.84983 0.68391 0.0
H798 H 0.38172 0.8699 0.71683 0.0
H799 H 0.39594 0.8829 0.76 0.0
O800 O 0.28845 0.85122 0.77983 0.0
O801 O 0.3236 0.80752 0.78506 0.0
O802 O 0.31785 0.76996 0.7964 0.0
O803 O 0.2655 0.83134 0.74785 0.0
O804 O 0.27916 0.79623 0.79159 0.0
O805 O 0.28892 0.77737 0.82039 0.0
O806 O 0.29482 0.72322 0.7699 0.0
O807 O 0.24646 0.7563 0.77035 0.0
O808 O 0.25564 0.79427 0.76086 0.0
O809 O 0.28912 0.72039 0.80675 0.0
O810 O 0.28648 0.76869 0.75982 0.0
O811 O 0.29494 0.79175 0.73344 0.0
C812 C 0.33109 0.7905 0.79392 0.0
C813 C 0.26963 0.87121 0.75323 0.0
C814 C 0.25392 0.90496 0.75402 0.0
C815 C 0.2617 0.90894 0.73201 0.0
C816 C 0.27757 0.87544 0.73146 0.0
C817 C 0.2735 0.89424 0.72086 0.0
C818 C 0.25791 0.88592 0.76442 0.0
C819 C 0.28666 0.79693 0.81422 0.0
C820 C 0.27093 0.85028 0.76332 0.0
C821 C 0.37066 0.86419 0.72985 0.0
C822 C 0.37876 0.87164 0.75446 0.0
C823 C 0.24049 0.7746 0.76251 0.0
C824 C 0.32028 0.70776 0.79479 0.0
C825 C 0.34312 0.67957 0.79645 0.0
C826 C 0.36191 0.69653 0.80977 0.0
C827 C 0.33893 0.7246 0.8087 0.0
C828 C 0.32237 0.68522 0.78892 0.0
C829 C 0.35974 0.71898 0.81598 0.0
C830 C 0.29274 0.77112 0.73873 0.0
C831 C 0.29776 0.71255 0.78847 0.0
H832 H 0.25895 0.92357 0.72359 0.0
H833 H 0.28641 0.86402 0.72245 0.0
H834 H 0.27942 0.89736 0.70393 0.0
H835 H 0.25126 0.88207 0.7809 0.0
H836 H 0.37797 0.6922 0.81592 0.0
H837 H 0.33729 0.74184 0.81442 0.0
H838 H 0.30773 0.67196 0.77899 0.0
H839 H 0.37403 0.73192 0.82682 0.0
Eu840 Eu 0.53296 0.06136 0.99352 0.0
C841 C 0.57821 1.00249 0.0782 0.0
N842 N 0.56059 0.99434 0.05958 0.0
C843 C 0.57162 0.95857 0.05315 0.0
C844 C 0.59359 0.98897 0.08483 0.0
C845 C 0.55696 0.97269 0.04714 0.0
C846 C 0.59009 0.96678 0.07202 0.0
C847 C 0.59935 0.03351 0.10988 0.0
C848 C 0.5809 0.02441 0.09065 0.0
C849 C 0.61481 0.02018 0.11641 0.0
C850 C 0.6119 0.99794 0.10397 0.0
Eu851 Eu 0.53641 0.01876 0.05028 0.0
N852 N 0.56573 0.03694 0.08377 0.0
C853 C 0.60184 0.05578 0.12194 0.0
C854 C 0.56828 0.05878 0.09553 0.0
C855 C 0.5862 0.06844 0.11473 0.0
H856 H 0.54248 0.96613 0.03285 0.0
H857 H 0.58815 0.08584 0.12371 0.0
H858 H 0.52243 0.11227 0.01235 0.0
H859 H 0.4922 0.99829 0.91254 0.0
H860 H 0.5573 0.06945 0.08988 0.0
H861 H 0.61584 0.0634 0.13669 0.0
H862 H 0.52139 0.01537 0.94806 0.0
H863 H 0.56863 0.94136 0.04328 0.0
H864 H 0.62908 0.02692 0.13109 0.0
H865 H 0.62392 0.98782 0.10926 0.0
H866 H 0.49367 0.13443 0.00212 0.0
H867 H 0.60146 0.95582 0.07663 0.0
H868 H 0.46144 0.01766 0.90053 0.0
N869 N 0.50709 0.08428 0.98432 0.0
C870 C 0.49083 0.07601 0.96433 0.0
C871 C 0.4925 0.1179 0.99152 0.0
C872 C 0.47419 0.08818 0.95766 0.0
C873 C 0.50852 0.10516 0.99754 0.0
C874 C 0.47511 0.10927 0.97164 0.0
N875 N 0.5071 0.04395 0.95727 0.0
C876 C 0.50812 0.02407 0.94346 0.0
C877 C 0.47392 0.04623 0.9298 0.0
C878 C 0.49089 0.05541 0.95033 0.0
C879 C 0.47429 0.02532 0.9163 0.0
C880 C 0.49158 0.01431 0.92306 0.0
H881 H 0.46268 0.11917 0.96704 0.0
H882 H 0.44422 0.0881 0.93201 0.0
H883 H 0.44383 0.05125 0.90781 0.0
O884 O 0.56362 0.06471 0.97625 0.0
O885 O 0.49843 0.03677 0.99075 0.0
O886 O 0.52079 0.03211 0.02092 0.0
O887 O 0.54798 0.09361 0.98094 0.0
O888 O 0.54514 0.02716 0.9862 0.0
O889 O 0.53361 0.99957 0.01198 0.0
O890 O 0.50898 0.01791 0.0716 0.0
O891 O 0.56976 0.03561 0.03978 0.0
O892 O 0.55671 0.06588 0.02873 0.0
O893 O 0.51435 0.98558 0.05496 0.0
O894 O 0.52576 0.05235 0.06001 0.0
O895 O 0.52761 0.07839 0.03145 0.0
C896 C 0.50045 0.02572 0.00846 0.0
C897 C 0.56423 0.08743 0.94547 0.0
C898 C 0.58313 0.08086 0.91092 0.0
C899 C 0.56658 0.08842 0.89639 0.0
C900 C 0.5476 0.09514 0.93102 0.0
C901 C 0.54893 0.09573 0.90653 0.0
C902 C 0.58201 0.08056 0.93533 0.0
C903 C 0.54168 0.00579 0.9921 0.0
C904 C 0.56302 0.08502 0.97077 0.0
C905 C 0.45725 0.07905 0.93727 0.0
C906 C 0.45705 0.05809 0.92345 0.0
C907 C 0.57302 0.0549 0.03068 0.0
C908 C 0.50224 0.98769 0.09349 0.0
C909 C 0.48587 0.99061 0.1303 0.0
C910 C 0.50155 0.97944 0.14116 0.0
C911 C 0.51811 0.97654 0.10421 0.0
C912 C 0.48618 0.99455 0.10662 0.0
C913 C 0.5176 0.97231 0.12802 0.0
C914 C 0.5238 0.07234 0.05307 0.0
C915 C 0.50368 0.99553 0.07016 0.0
H916 H 0.56757 0.08901 0.87743 0.0
H917 H 0.53357 0.10047 0.9385 0.0
H918 H 0.53624 0.10176 0.89541 0.0
H919 H 0.59487 0.07456 0.9464 0.0
H920 H 0.50129 0.97622 0.15961 0.0
H921 H 0.5311 0.97161 0.09449 0.0
H922 H 0.47442 1.00381 0.09869 0.0
H923 H 0.52981 0.96376 0.13639 0.0
Eu924 Eu 0.27267 0.25011 0.25823 0.0
C925 C 0.35554 0.32794 0.31816 0.0
N926 N 0.33451 0.31705 0.32316 0.0
C927 C 0.35032 0.32033 0.36487 0.0
C928 C 0.3748 0.33561 0.33665 0.0
C929 C 0.33162 0.31329 0.3461 0.0
C930 C 0.37197 0.3316 0.36016 0.0
C931 C 0.37933 0.34361 0.28917 0.0
C932 C 0.35778 0.33201 0.29457 0.0
C933 C 0.39842 0.35134 0.30764 0.0
C934 C 0.39616 0.3474 0.33128 0.0
Eu935 Eu 0.30386 0.31093 0.291 0.0
N936 N 0.33893 0.3248 0.27698 0.0
C937 C 0.381 0.34745 0.26539 0.0
C938 C 0.34033 0.32909 0.25398 0.0
C939 C 0.36142 0.34011 0.24773 0.0
H940 H 0.31475 0.30595 0.35033 0.0
H941 H 0.36244 0.34335 0.22939 0.0
H942 H 0.26002 0.25363 0.19897 0.0
H943 H 0.21644 0.21125 0.31914 0.0
H944 H 0.32524 0.32452 0.24051 0.0
H945 H 0.39725 0.35632 0.26056 0.0
H946 H 0.25311 0.2293 0.30681 0.0
H947 H 0.34789 0.31756 0.38308 0.0
H948 H 0.41502 0.36052 0.30384 0.0
H949 H 0.41105 0.35363 0.34533 0.0
H950 H 0.22604 0.24417 0.16734 0.0
H951 H 0.38633 0.33738 0.37485 0.0
H952 H 0.18021 0.20247 0.29011 0.0
N953 N 0.2409 0.24368 0.22691 0.0
C954 C 0.21993 0.23343 0.23243 0.0
C955 C 0.22401 0.24137 0.18563 0.0
C956 C 0.20008 0.22686 0.21457 0.0
C957 C 0.24323 0.24731 0.2038 0.0
C958 C 0.20232 0.23117 0.19104 0.0
N959 N 0.23793 0.23446 0.27255 0.0
C960 C 0.23746 0.22754 0.29468 0.0
C961 C 0.19703 0.21707 0.26168 0.0
C962 C 0.21841 0.22863 0.25581 0.0
C963 C 0.19627 0.21143 0.28496 0.0
C964 C 0.21664 0.21649 0.30145 0.0
H965 H 0.1875 0.22623 0.17682 0.0
H966 H 0.16341 0.21038 0.20698 0.0
H967 H 0.16075 0.2018 0.24817 0.0
O968 O 0.27979 0.21814 0.26739 0.0
O969 O 0.24789 0.27349 0.26555 0.0
O970 O 0.26611 0.30002 0.29905 0.0
O971 O 0.26646 0.22018 0.23047 0.0
O972 O 0.28922 0.25279 0.29825 0.0
O973 O 0.28621 0.28827 0.31465 0.0
O974 O 0.2992 0.34354 0.28078 0.0
O975 O 0.32849 0.28712 0.28252 0.0
O976 O 0.309 0.26279 0.24831 0.0
O977 O 0.31014 0.34111 0.31825 0.0
O978 O 0.28316 0.3077 0.25393 0.0
O979 O 0.28778 0.27466 0.23335 0.0
C980 C 0.24698 0.28832 0.28439 0.0
C981 C 0.28932 0.1938 0.23668 0.0
C982 C 0.30931 0.16431 0.24457 0.0
C983 C 0.31643 0.16435 0.22179 0.0
C984 C 0.29664 0.1942 0.214 0.0
C985 C 0.31013 0.17937 0.20659 0.0
C986 C 0.29554 0.17877 0.25163 0.0
C987 C 0.28704 0.26717 0.31688 0.0
C988 C 0.27412 0.20765 0.24514 0.0
C989 C 0.17878 0.21566 0.22052 0.0
C990 C 0.17726 0.21079 0.24399 0.0
C991 C 0.32863 0.27344 0.26245 0.0
C992 C 0.28444 0.36415 0.31034 0.0
C993 C 0.26044 0.3903 0.30232 0.0
C994 C 0.25002 0.38563 0.32273 0.0
C995 C 0.27368 0.35903 0.33052 0.0
C996 C 0.27762 0.37961 0.29628 0.0
C997 C 0.25655 0.36986 0.33668 0.0
C998 C 0.28493 0.29566 0.23372 0.0
C999 C 0.30249 0.35339 0.30323 0.0
H1000 H 0.32697 0.15302 0.21593 0.0
H1001 H 0.29181 0.20567 0.202 0.0
H1002 H 0.31565 0.1795 0.18906 0.0
H1003 H 0.28926 0.17806 0.26883 0.0
H1004 H 0.23689 0.39414 0.32777 0.0
H1005 H 0.27847 0.3468 0.34155 0.0
H1006 H 0.28606 0.38368 0.28083 0.0
H1007 H 0.24843 0.3661 0.35232 0.0
Eu1008 Eu 0.54822 0.50287 0.01968 0.0
C1009 C 0.51299 0.58723 0.07116 0.0
N1010 N 0.50289 0.57089 0.05175 0.0
C1011 C 0.46634 0.56588 0.06588 0.0
C1012 C 0.5001 0.59315 0.0891 0.0
C1013 C 0.47979 0.56066 0.04851 0.0
C1014 C 0.47656 0.58209 0.08634 0.0
C1015 C 0.54754 0.61434 0.09365 0.0
C1016 C 0.5365 0.59762 0.0735 0.0
C1017 C 0.53473 0.62029 0.11151 0.0
C1018 C 0.5111 0.60969 0.10927 0.0
Eu1019 Eu 0.52735 0.56293 0.02406 0.0
N1020 N 0.54873 0.59075 0.05654 0.0
C1021 C 0.57119 0.62447 0.09532 0.0
C1022 C 0.57144 0.60137 0.0574 0.0
C1023 C 0.58312 0.61814 0.07697 0.0
H1024 H 0.4716 0.54868 0.03239 0.0
H1025 H 0.60122 0.62637 0.07784 0.0
H1026 H 0.60274 0.51602 0.00796 0.0
H1027 H 0.46942 0.4467 0.96569 0.0
H1028 H 0.58038 0.59735 0.04274 0.0
H1029 H 0.58031 0.63741 0.11049 0.0
H1030 H 0.49281 0.47291 0.00152 0.0
H1031 H 0.44808 0.5575 0.06341 0.0
H1032 H 0.54297 0.63302 0.12717 0.0
H1033 H 0.50148 0.61439 0.12326 0.0
H1034 H 0.62394 0.50723 0.97467 0.0
H1035 H 0.46609 0.58608 0.09978 0.0
H1036 H 0.48799 0.43623 0.93078 0.0
N1037 N 0.57008 0.49654 0.989 0.0
C1038 C 0.55825 0.4818 0.96894 0.0
C1039 C 0.60546 0.50011 0.97277 0.0
C1040 C 0.56975 0.47593 0.94974 0.0
C1041 C 0.59339 0.50532 0.99144 0.0
C1042 C 0.59359 0.48543 0.95179 0.0
N1043 N 0.52357 0.47913 0.98604 0.0
C1044 C 0.50073 0.46949 0.98591 0.0
C1045 C 0.52194 0.45727 0.94697 0.0
C1046 C 0.53445 0.47275 0.96749 0.0
C1047 C 0.49821 0.44814 0.94625 0.0
C1048 C 0.48761 0.45418 0.96586 0.0
H1049 H 0.60304 0.48133 0.93741 0.0
H1050 H 0.56578 0.456 0.91428 0.0
H1051 H 0.52407 0.43951 0.91197 0.0
O1052 O 0.53724 0.4696 0.03257 0.0
O1053 O 0.54243 0.5196 0.98552 0.0
O1054 O 0.51214 0.53478 0.99263 0.0
O1055 O 0.57292 0.4826 0.02838 0.0
O1056 O 0.5158 0.50368 0.03641 0.0
O1057 O 0.50004 0.52909 0.01657 0.0
O1058 O 0.53849 0.59091 0.00236 0.0
O1059 O 0.53878 0.55198 0.06019 0.0
O1060 O 0.55946 0.52355 0.05737 0.0
O1061 O 0.50336 0.58223 0.01116 0.0
O1062 O 0.56134 0.56186 0.01091 0.0
O1063 O 0.57673 0.53573 0.03063 0.0
C1064 C 0.525 0.52796 0.97774 0.0
C1065 C 0.56571 0.45742 0.05742 0.0
C1066 C 0.56223 0.42612 0.08169 0.0
C1067 C 0.5821 0.43889 0.09747 0.0
C1068 C 0.58551 0.46998 0.07356 0.0
C1069 C 0.59367 0.46066 0.09337 0.0
C1070 C 0.55412 0.43538 0.06156 0.0
C1071 C 0.4987 0.51326 0.03082 0.0
C1072 C 0.55802 0.46629 0.03536 0.0
C1073 C 0.55721 0.46073 0.9292 0.0
C1074 C 0.53343 0.45135 0.92788 0.0
C1075 C 0.55119 0.53885 0.06995 0.0
C1076 C 0.51111 0.61287 0.98694 0.0
C1077 C 0.51956 0.64671 0.9662 0.0
C1078 C 0.49571 0.64502 0.96107 0.0
C1079 C 0.48739 0.61177 0.98153 0.0
C1080 C 0.52732 0.6306 0.97936 0.0
C1081 C 0.47981 0.62774 0.96875 0.0
C1082 C 0.5789 0.55416 0.01979 0.0
C1083 C 0.51811 0.59527 0.00043 0.0
H1084 H 0.5888 0.43185 0.11285 0.0
H1085 H 0.59488 0.48687 0.07072 0.0
H1086 H 0.60909 0.47029 0.10553 0.0
H1087 H 0.53897 0.42542 0.04911 0.0
H1088 H 0.48936 0.65739 0.95136 0.0
H1089 H 0.47454 0.59844 0.9871 0.0
H1090 H 0.54568 0.63182 0.98352 0.0
H1091 H 0.4615 0.62673 0.96481 0.0
Eu1092 Eu 0.7907 0.31544 0.26546 0.0
C1093 C 0.74651 0.22965 0.31919 0.0
N1094 N 0.76618 0.24706 0.32392 0.0
C1095 C 0.75931 0.25528 0.36474 0.0
C1096 C 0.73184 0.22532 0.33672 0.0
C1097 C 0.77338 0.25883 0.34689 0.0
C1098 C 0.73821 0.23881 0.3595 0.0
C1099 C 0.72159 0.19674 0.29184 0.0
C1100 C 0.74151 0.21532 0.29713 0.0
C1101 C 0.70649 0.19307 0.30885 0.0
C1102 C 0.71161 0.20731 0.33124 0.0
Eu1103 Eu 0.78677 0.2528 0.29057 0.0
N1104 N 0.75611 0.21947 0.28079 0.0
C1105 C 0.71735 0.18251 0.26947 0.0
C1106 C 0.75254 0.20525 0.25934 0.0
C1107 C 0.73302 0.18668 0.25323 0.0
H1108 H 0.79011 0.27077 0.35203 0.0
H1109 H 0.73004 0.17562 0.23602 0.0
H1110 H 0.78494 0.30954 0.20427 0.0
H1111 H 0.85467 0.37976 0.33185 0.0
H1112 H 0.76484 0.20824 0.247 0.0
H1113 H 0.70217 0.16818 0.26466 0.0
H1114 H 0.81712 0.35192 0.31699 0.0
H1115 H 0.76491 0.26509 0.38267 0.0
H1116 H 0.69095 0.17909 0.30497 0.0
H1117 H 0.70002 0.20397 0.34439 0.0
H1118 H 0.8095 0.32096 0.17344 0.0
H1119 H 0.72741 0.23603 0.37343 0.0
H1120 H 0.88308 0.38892 0.30404 0.0
N1121 N 0.81121 0.32622 0.23386 0.0
C1122 C 0.83249 0.34094 0.24116 0.0
C1123 C 0.81624 0.32648 0.19241 0.0
C1124 C 0.84702 0.34787 0.22415 0.0
C1125 C 0.80243 0.32003 0.20987 0.0
C1126 C 0.83879 0.34006 0.19959 0.0
N1127 N 0.8246 0.34453 0.28157 0.0
C1128 C 0.82941 0.35566 0.30483 0.0
C1129 C 0.86094 0.36633 0.27323 0.0
C1130 C 0.83933 0.35033 0.26553 0.0
C1131 C 0.86664 0.37659 0.29747 0.0
C1132 C 0.85065 0.3715 0.31323 0.0
H1133 H 0.84944 0.34505 0.18601 0.0
H1134 H 0.88048 0.36811 0.21922 0.0
H1135 H 0.89272 0.38405 0.26216 0.0
O1136 O 0.78097 0.3466 0.28024 0.0
O1137 O 0.82421 0.31063 0.28755 0.0
O1138 O 0.8177 0.27211 0.27524 0.0
O1139 O 0.76746 0.32988 0.24326 0.0
O1140 O 0.77515 0.29904 0.29439 0.0
O1141 O 0.79921 0.28517 0.31743 0.0
O1142 O 0.80218 0.22476 0.27821 0.0
O1143 O 0.75056 0.2579 0.27669 0.0
O1144 O 0.75356 0.29063 0.25691 0.0
O1145 O 0.81051 0.2411 0.31553 0.0
O1146 O 0.77683 0.25331 0.25064 0.0
O1147 O 0.79558 0.28756 0.23861 0.0
C1148 C 0.83215 0.29188 0.28482 0.0
C1149 C 0.76875 0.36939 0.25189 0.0
C1150 C 0.75389 0.40373 0.25413 0.0
C1151 C 0.76285 0.40901 0.23305 0.0
C1152 C 0.77804 0.37505 0.23111 0.0
C1153 C 0.77504 0.39481 0.22174 0.0
C1154 C 0.75701 0.38392 0.26351 0.0
C1155 C 0.78771 0.30066 0.31485 0.0
C1156 C 0.7682 0.34708 0.25994 0.0
C1157 C 0.86898 0.36293 0.23202 0.0
C1158 C 0.87594 0.37205 0.25648 0.0
C1159 C 0.74114 0.27166 0.26379 0.0
C1160 C 0.81242 0.20238 0.30744 0.0
C1161 C 0.82966 0.16983 0.30941 0.0
C1162 C 0.81504 0.16165 0.32572 0.0
C1163 C 0.79759 0.19393 0.32349 0.0
C1164 C 0.82819 0.19009 0.30012 0.0
C1165 C 0.79892 0.17357 0.33255 0.0
C1166 C 0.78663 0.26527 0.23491 0.0
C1167 C 0.81309 0.22479 0.29958 0.0
H1168 H 0.76064 0.42424 0.22547 0.0
H1169 H 0.78703 0.36391 0.22177 0.0
H1170 H 0.78191 0.39898 0.20552 0.0
H1171 H 0.74946 0.37926 0.2793 0.0
H1172 H 0.8162 0.1461 0.33321 0.0
H1173 H 0.78535 0.20328 0.32936 0.0
H1174 H 0.83988 0.19672 0.28797 0.0
H1175 H 0.78772 0.16722 0.34517 0.0
Eu1176 Eu 0.03568 0.56005 0.49272 0.0
C1177 C 0.07631 0.50674 0.58305 0.0
N1178 N 0.05921 0.49764 0.56406 0.0
C1179 C 0.071 0.46219 0.56009 0.0
C1180 C 0.09173 0.4938 0.59119 0.0
C1181 C 0.05612 0.47566 0.55269 0.0
C1182 C 0.08891 0.4713 0.57941 0.0
C1183 C 0.0966 0.5392 0.61358 0.0
C1184 C 0.07863 0.52919 0.59411 0.0
C1185 C 0.11181 0.52626 0.62193 0.0
C1186 C 0.10941 0.50364 0.61074 0.0
Eu1187 Eu 0.03434 0.52074 0.55302 0.0
N1188 N 0.06359 0.54131 0.58564 0.0
C1189 C 0.09901 0.56204 0.62394 0.0
C1190 C 0.06576 0.56354 0.59611 0.0
C1191 C 0.08355 0.57425 0.61512 0.0
H1192 H 0.04204 0.46841 0.53802 0.0
H1193 H 0.08518 0.59192 0.62309 0.0
H1194 H 0.0266 0.61194 0.5083 0.0
H1195 H 0.98478 0.48838 0.42306 0.0
H1196 H 0.05393 0.57337 0.59038 0.0
H1197 H 0.11273 0.5704 0.63875 0.0
H1198 H 0.01761 0.50825 0.45359 0.0
H1199 H 0.06859 0.44476 0.55098 0.0
H1200 H 0.12567 0.53369 0.63687 0.0
H1201 H 0.1214 0.49395 0.61726 0.0
H1202 H 0.99886 0.63466 0.49628 0.0
H1203 H 0.10041 0.46082 0.58513 0.0
H1204 H 0.95512 0.5085 0.4096 0.0
N1205 N 0.01062 0.58314 0.48129 0.0
C1206 C 0.99341 0.57387 0.46229 0.0
C1207 C 0.9971 0.61756 0.48664 0.0
C1208 C 0.97676 0.58594 0.45538 0.0
C1209 C 0.01275 0.60466 0.49341 0.0
C1210 C 0.97896 0.60814 0.46762 0.0
N1211 N 1.00685 0.53964 0.4593 0.0
C1212 C 1.00497 0.5175 0.44872 0.0
C1213 C 0.97219 0.54053 0.4331 0.0
C1214 C 0.99134 0.55145 0.45104 0.0
C1215 C 0.96973 0.51754 0.42319 0.0
C1216 C 0.98633 0.50608 0.43087 0.0
H1217 H 0.96656 0.61799 0.46278 0.0
H1218 H 0.94495 0.58422 0.43178 0.0
H1219 H 0.94078 0.54439 0.41255 0.0
O1220 O 0.06103 0.56035 0.46864 0.0
O1221 O 0.99882 0.5469 0.49701 0.0
O1222 O 0.01856 0.53369 0.52303 0.0
O1223 O 0.05528 0.59273 0.48421 0.0
O1224 O 0.04451 0.52424 0.48763 0.0
O1225 O 0.03182 0.49935 0.51568 0.0
O1226 O 0.01551 0.51613 0.58279 0.0
O1227 O 0.06861 0.52965 0.5415 0.0
O1228 O 0.05845 0.55967 0.5273 0.0
O1229 O 1.00695 0.48881 0.5512 0.0
O1230 O 0.02436 0.55575 0.55841 0.0
O1231 O 0.0375 0.58088 0.53067 0.0
C1232 C 0.99811 0.53456 0.51386 0.0
C1233 C 0.0648 0.58977 0.44463 0.0
C1234 C 0.07553 0.58462 0.40481 0.0
C1235 C 0.06621 0.60289 0.39871 0.0
C1236 C 0.05505 0.60784 0.43845 0.0
C1237 C 0.05579 0.61433 0.41549 0.0
C1238 C 0.07487 0.57825 0.42767 0.0
C1239 C 0.0405 0.50381 0.4956 0.0
C1240 C 0.06523 0.58255 0.46854 0.0
C1241 C 0.95802 0.57526 0.43714 0.0
C1242 C 0.95566 0.55258 0.42616 0.0
C1243 C 0.07269 0.54635 0.52875 0.0
C1244 C 0.98496 0.48312 0.58454 0.0
C1245 C 0.96269 0.48295 0.61742 0.0
C1246 C 0.95362 0.45902 0.61092 0.0
C1247 C 0.97565 0.45929 0.57777 0.0
C1248 C 0.97802 0.4949 0.604 0.0
C1249 C 0.95991 0.4473 0.59095 0.0
C1250 C 0.02849 0.57628 0.55063 0.0
C1251 C 1.0028 0.49591 0.57254 0.0
H1252 H 0.06707 0.60827 0.38113 0.0
H1253 H 0.04705 0.617 0.45127 0.0
H1254 H 0.04849 0.62837 0.41078 0.0
H1255 H 0.08285 0.5646 0.43248 0.0
H1256 H 0.94188 0.44946 0.62138 0.0
H1257 H 0.9809 0.44992 0.56274 0.0
H1258 H 0.9853 0.51331 0.60946 0.0
H1259 H 0.95294 0.42886 0.58597 0.0
Eu1260 Eu 0.81892 0.77476 0.2847 0.0
C1261 C 0.73466 0.7975 0.22043 0.0
N1262 N 0.74731 0.8098 0.24142 0.0
C1263 C 0.74784 0.84526 0.22588 0.0
C1264 C 0.72812 0.80881 0.20119 0.0
C1265 C 0.75359 0.83334 0.24458 0.0
C1266 C 0.73511 0.83295 0.20404 0.0
C1267 C 0.71466 0.76037 0.19674 0.0
C1268 C 0.72818 0.77349 0.21816 0.0
C1269 C 0.70793 0.77162 0.17766 0.0
C1270 C 0.71473 0.79575 0.17983 0.0
Eu1271 Eu 0.75648 0.78807 0.27159 0.0
N1272 N 0.73524 0.76298 0.23681 0.0
C1273 C 0.70811 0.73632 0.19522 0.0
C1274 C 0.72805 0.73966 0.23581 0.0
C1275 C 0.71466 0.72595 0.21493 0.0
H1276 H 0.76248 0.84293 0.26172 0.0
H1277 H 0.70915 0.70741 0.21415 0.0
H1278 H 0.80833 0.71979 0.296 0.0
H1279 H 0.8722 0.85392 0.34009 0.0
H1280 H 0.73211 0.73158 0.25119 0.0
H1281 H 0.69767 0.72565 0.17909 0.0
H1282 H 0.84674 0.83034 0.304 0.0
H1283 H 0.75296 0.86394 0.22843 0.0
H1284 H 0.69755 0.76181 0.16107 0.0
H1285 H 0.70951 0.80414 0.16488 0.0
H1286 H 0.81699 0.69871 0.3294 0.0
H1287 H 0.73051 0.84225 0.18964 0.0
H1288 H 0.88283 0.83545 0.37528 0.0
N1289 N 0.82601 0.75281 0.31551 0.0
C1290 C 0.8398 0.76474 0.33609 0.0
C1291 C 0.82335 0.7173 0.3316 0.0
C1292 C 0.8458 0.75325 0.35539 0.0
C1293 C 0.81811 0.72936 0.31283 0.0
C1294 C 0.83721 0.72928 0.353 0.0
N1295 N 0.84184 0.79922 0.31899 0.0
C1296 C 0.8506 0.82226 0.31945 0.0
C1297 C 0.86285 0.80127 0.35873 0.0
C1298 C 0.84812 0.78854 0.33779 0.0
C1299 C 0.87135 0.82509 0.35959 0.0
C1300 C 0.86531 0.83559 0.3398 0.0
H1301 H 0.84141 0.71984 0.36743 0.0
H1302 H 0.86513 0.75739 0.39129 0.0
H1303 H 0.88016 0.79937 0.39417 0.0
O1304 O 0.84919 0.78717 0.26615 0.0
O1305 O 0.80181 0.78355 0.31768 0.0
O1306 O 0.78011 0.80811 0.30513 0.0
O1307 O 0.84228 0.75327 0.27813 0.0
O1308 O 0.8168 0.80678 0.26751 0.0
O1309 O 0.78663 0.81977 0.28124 0.0
O1310 O 0.72865 0.77451 0.29179 0.0
O1311 O 0.77407 0.78105 0.23861 0.0
O1312 O 0.79515 0.75609 0.25064 0.0
O1313 O 0.72887 0.80545 0.2759 0.0
O1314 O 0.7591 0.75629 0.28928 0.0
O1315 O 0.78845 0.74411 0.27355 0.0
C1316 C 0.7909 0.79982 0.32235 0.0
C1317 C 0.87669 0.76274 0.26006 0.0
C1318 C 0.90613 0.76528 0.23358 0.0
C1319 C 0.91532 0.74947 0.24556 0.0
C1320 C 0.88636 0.74699 0.27175 0.0
C1321 C 0.90552 0.74045 0.26454 0.0
C1322 C 0.88677 0.77211 0.24092 0.0
C1323 C 0.80661 0.82343 0.27308 0.0
C1324 C 0.85556 0.76799 0.26764 0.0
C1325 C 0.8603 0.76594 0.37632 0.0
C1326 C 0.86885 0.78986 0.37796 0.0
C1327 C 0.78551 0.7654 0.23357 0.0
C1328 C 0.71238 0.80255 0.31154 0.0
C1329 C 0.68391 0.80454 0.33865 0.0
C1330 C 0.69823 0.82566 0.35084 0.0
C1331 C 0.7265 0.82351 0.32421 0.0
C1332 C 0.69124 0.79288 0.31908 0.0
C1333 C 0.71944 0.83493 0.34377 0.0
C1334 C 0.76973 0.74006 0.28366 0.0
C1335 C 0.71888 0.79155 0.28959 0.0
H1336 H 0.93008 0.74394 0.24004 0.0
H1337 H 0.87899 0.73955 0.28648 0.0
H1338 H 0.91269 0.72819 0.27359 0.0
H1339 H 0.87935 0.78404 0.2315 0.0
H1340 H 0.69306 0.83493 0.366 0.0
H1341 H 0.74277 0.83125 0.31867 0.0
H1342 H 0.6802 0.77676 0.30928 0.0
H1343 H 0.73034 0.85117 0.35333 0.0
Eu1344 Eu 0.76406 0.28527 0.81369 0.0
C1345 C 0.82057 0.24504 0.72442 0.0
N1346 N 0.82874 0.26091 0.74466 0.0
C1347 C 0.86298 0.24702 0.75106 0.0
C1348 C 0.8331 0.22896 0.71719 0.0
C1349 C 0.84984 0.26242 0.75771 0.0
C1350 C 0.85449 0.23008 0.73085 0.0
C1351 C 0.79042 0.22818 0.69012 0.0
C1352 C 0.79956 0.24482 0.71088 0.0
C1353 C 0.80263 0.21185 0.68321 0.0
C1354 C 0.82395 0.2123 0.69664 0.0
Eu1355 Eu 0.80479 0.28533 0.75524 0.0
N1356 N 0.78786 0.26055 0.71831 0.0
C1357 C 0.76922 0.2284 0.67695 0.0
C1358 C 0.76788 0.26167 0.70461 0.0
C1359 C 0.75806 0.2454 0.68406 0.0
H1360 H 0.85679 0.2757 0.77312 0.0
H1361 H 0.74195 0.24611 0.67362 0.0
H1362 H 0.71532 0.29673 0.78888 0.0
H1363 H 0.82087 0.32783 0.8978 0.0
H1364 H 0.75941 0.27515 0.70905 0.0
H1365 H 0.76155 0.2158 0.66103 0.0
H1366 H 0.80204 0.29535 0.86537 0.0
H1367 H 0.87966 0.24825 0.76153 0.0
H1368 H 0.79579 0.19887 0.66742 0.0
H1369 H 0.83326 0.19969 0.69097 0.0
H1370 H 0.69525 0.3282 0.79216 0.0
H1371 H 0.86467 0.21809 0.72582 0.0
H1372 H 0.80727 0.36376 0.90038 0.0
N1373 N 0.74281 0.31367 0.81711 0.0
C1374 C 0.7515 0.33212 0.83476 0.0
C1375 C 0.71117 0.3296 0.80414 0.0
C1376 C 0.74079 0.35058 0.8372 0.0
C1377 C 0.72263 0.31185 0.80223 0.0
C1378 C 0.72041 0.34917 0.82152 0.0
N1379 N 0.78044 0.31383 0.84785 0.0
C1380 C 0.79692 0.3114 0.86552 0.0
C1381 C 0.78065 0.35104 0.86912 0.0
C1382 C 0.77119 0.33238 0.85036 0.0
C1383 C 0.79941 0.34976 0.88575 0.0
C1384 C 0.80719 0.32956 0.8843 0.0
H1385 H 0.71155 0.36293 0.82288 0.0
H1386 H 0.74281 0.38415 0.85728 0.0
H1387 H 0.77777 0.38456 0.88526 0.0
O1388 O 0.76046 0.26668 0.84353 0.0
O1389 O 0.77465 0.3185 0.79976 0.0
O1390 O 0.80579 0.30784 0.78984 0.0
O1391 O 0.73026 0.26139 0.81539 0.0
O1392 O 0.80119 0.27965 0.82367 0.0
O1393 O 0.82454 0.28225 0.79247 0.0
O1394 O 0.80573 0.31414 0.7353 0.0
O1395 O 0.78603 0.24892 0.75525 0.0
O1396 O 0.77923 0.26828 0.78636 0.0
O1397 O 0.8376 0.30509 0.74769 0.0
O1398 O 0.76827 0.29329 0.74937 0.0
O1399 O 0.74375 0.27576 0.77519 0.0
C1400 C 0.79367 0.32304 0.7906 0.0
C1401 C 0.72657 0.24015 0.84982 0.0
C1402 C 0.73058 0.21906 0.88328 0.0
C1403 C 0.70729 0.21725 0.88557 0.0
C1404 C 0.70312 0.23792 0.85157 0.0
C1405 C 0.69346 0.22624 0.86935 0.0
C1406 C 0.73987 0.22981 0.865 0.0
C1407 C 0.82102 0.27936 0.815 0.0
C1408 C 0.73873 0.25676 0.83609 0.0
C1409 C 0.75066 0.36967 0.85524 0.0
C1410 C 0.7706 0.36994 0.87112 0.0
C1411 C 0.77532 0.24823 0.7735 0.0
C1412 C 0.83441 0.31939 0.71064 0.0
C1413 C 0.83028 0.33573 0.67381 0.0
C1414 C 0.84533 0.32352 0.6644 0.0
C1415 C 0.84924 0.30686 0.70115 0.0
C1416 C 0.82504 0.33375 0.69688 0.0
C1417 C 0.85472 0.30906 0.67808 0.0
C1418 C 0.74738 0.28522 0.75538 0.0
C1419 C 0.8278 0.31752 0.73446 0.0
H1420 H 0.69995 0.20911 0.89994 0.0
H1421 H 0.69272 0.2462 0.84017 0.0
H1422 H 0.67552 0.22495 0.87116 0.0
H1423 H 0.7581 0.23168 0.86388 0.0
H1424 H 0.84948 0.32492 0.64641 0.0
H1425 H 0.85648 0.29538 0.71142 0.0
H1426 H 0.81355 0.34342 0.70411 0.0
H1427 H 0.86612 0.29947 0.67074 0.0
Eu1428 Eu 0.77396 0.75031 0.7597 0.0
C1429 C 0.85523 0.83143 0.81843 0.0
N1430 N 0.83451 0.81996 0.82361 0.0
C1431 C 0.85121 0.82277 0.86502 0.0
C1432 C 0.87487 0.83874 0.83651 0.0
C1433 C 0.83218 0.81606 0.84663 0.0
C1434 C 0.87268 0.83408 0.85993 0.0
C1435 C 0.87802 0.8483 0.78932 0.0
C1436 C 0.85679 0.83617 0.79502 0.0
C1437 C 0.89756 0.85548 0.80729 0.0
C1438 C 0.89599 0.85071 0.83079 0.0
Eu1439 Eu 0.80312 0.81167 0.79163 0.0
N1440 N 0.83767 0.82877 0.77779 0.0
C1441 C 0.87896 0.8531 0.76576 0.0
C1442 C 0.8383 0.83454 0.75518 0.0
C1443 C 0.85895 0.84635 0.74868 0.0
H1444 H 0.81548 0.80881 0.85119 0.0
H1445 H 0.85929 0.85068 0.73063 0.0
H1446 H 0.75837 0.75632 0.70179 0.0
H1447 H 0.7206 0.71516 0.82506 0.0
H1448 H 0.82288 0.83099 0.74229 0.0
H1449 H 0.89492 0.86244 0.76072 0.0
H1450 H 0.75638 0.73374 0.81142 0.0
H1451 H 0.84919 0.81965 0.88323 0.0
H1452 H 0.91396 0.86486 0.80322 0.0
H1453 H 0.91122 0.85651 0.84448 0.0
H1454 H 0.72381 0.74413 0.67081 0.0
H1455 H 0.88736 0.83949 0.8743 0.0
H1456 H 0.68408 0.70301 0.79633 0.0
N1457 N 0.7411 0.74443 0.73005 0.0
C1458 C 0.72094 0.73284 0.73628 0.0
C1459 C 0.72265 0.74115 0.68921 0.0
C1460 C 0.70074 0.72497 0.71892 0.0
C1461 C 0.74218 0.74861 0.70694 0.0
C1462 C 0.70183 0.72923 0.69519 0.0
N1463 N 0.74039 0.73536 0.7763 0.0
C1464 C 0.74059 0.73022 0.79919 0.0
C1465 C 0.69971 0.71642 0.76669 0.0
C1466 C 0.72051 0.72841 0.75998 0.0
C1467 C 0.69972 0.71211 0.7905 0.0
C1468 C 0.72026 0.71903 0.80679 0.0
H1469 H 0.68678 0.72319 0.68132 0.0
H1470 H 0.66464 0.70641 0.71243 0.0
H1471 H 0.66365 0.69915 0.75423 0.0
O1472 O 0.77553 0.71564 0.76585 0.0
O1473 O 0.74967 0.77504 0.76488 0.0
O1474 O 0.76649 0.79818 0.8005 0.0
O1475 O 0.77067 0.72396 0.72878 0.0
O1476 O 0.79432 0.75349 0.79704 0.0
O1477 O 0.78876 0.78673 0.81641 0.0
O1478 O 0.79409 0.84246 0.78136 0.0
O1479 O 0.82986 0.7909 0.78368 0.0
O1480 O 0.81269 0.75948 0.75439 0.0
O1481 O 0.80823 0.84194 0.81851 0.0
O1482 O 0.7866 0.8079 0.75174 0.0
O1483 O 0.79235 0.77331 0.73666 0.0
C1484 C 0.7478 0.78802 0.78479 0.0
C1485 C 0.77109 0.68498 0.73293 0.0
C1486 C 0.7894 0.65353 0.73277 0.0
C1487 C 0.77484 0.6423 0.71126 0.0
C1488 C 0.75654 0.67407 0.71138 0.0
C1489 C 0.75829 0.65253 0.70071 0.0
C1490 C 0.78716 0.6746 0.74373 0.0
C1491 C 0.79317 0.76644 0.81698 0.0
C1492 C 0.7722 0.70848 0.74264 0.0
C1493 C 0.68021 0.71276 0.72559 0.0
C1494 C 0.67966 0.70863 0.74941 0.0
C1495 C 0.83146 0.77386 0.76742 0.0
C1496 C 0.78213 0.86492 0.81174 0.0
C1497 C 0.75879 0.89152 0.80399 0.0
C1498 C 0.75318 0.89195 0.82738 0.0
C1499 C 0.77624 0.86478 0.8351 0.0
C1500 C 0.77303 0.87799 0.79622 0.0
C1501 C 0.76168 0.87827 0.84281 0.0
C1502 C 0.78951 0.79358 0.73354 0.0
C1503 C 0.79907 0.85329 0.8035 0.0
H1504 H 0.7763 0.62573 0.70271 0.0
H1505 H 0.74423 0.68234 0.7027 0.0
H1506 H 0.74715 0.64401 0.68406 0.0
H1507 H 0.79892 0.6836 0.75994 0.0
H1508 H 0.74261 0.90305 0.8337 0.0
H1509 H 0.78321 0.85475 0.8475 0.0
H1510 H 0.77799 0.87862 0.77839 0.0
H1511 H 0.75744 0.87854 0.8609 0.0
Eu1512 Eu 0.5702 0.54551 0.54636 0.0
C1513 C 0.49031 0.46933 0.48458 0.0
N1514 N 0.50204 0.48966 0.4788 0.0
C1515 C 0.49809 0.47239 0.43756 0.0
C1516 C 0.4822 0.44957 0.46684 0.0
C1517 C 0.50582 0.49152 0.45568 0.0
C1518 C 0.48626 0.45131 0.44316 0.0
C1519 C 0.47344 0.44748 0.51441 0.0
C1520 C 0.48585 0.46834 0.50817 0.0
C1521 C 0.46566 0.42777 0.49682 0.0
C1522 C 0.46993 0.42883 0.47311 0.0
Eu1523 Eu 0.51075 0.52153 0.50978 0.0
N1524 N 0.49309 0.48783 0.52483 0.0
C1525 C 0.46861 0.44716 0.538 0.0
C1526 C 0.48686 0.48789 0.54726 0.0
C1527 C 0.47517 0.46753 0.55443 0.0
H1528 H 0.51395 0.50801 0.45095 0.0
H1529 H 0.47059 0.46774 0.5724 0.0
H1530 H 0.56259 0.55807 0.60426 0.0
H1531 H 0.62062 0.59918 0.49069 0.0
H1532 H 0.48969 0.50363 0.55934 0.0
H1533 H 0.45914 0.43148 0.54347 0.0
H1534 H 0.5983 0.56308 0.50156 0.0
H1535 H 0.50092 0.47401 0.41921 0.0
H1536 H 0.45598 0.41167 0.50128 0.0
H1537 H 0.46349 0.41354 0.45968 0.0
H1538 H 0.57186 0.59191 0.63604 0.0
H1539 H 0.48009 0.43657 0.42901 0.0
H1540 H 0.62904 0.63548 0.51932 0.0
N1541 N 0.57716 0.5769 0.57789 0.0
C1542 C 0.58968 0.59743 0.57336 0.0
C1543 C 0.5767 0.59377 0.6184 0.0
C1544 C 0.59586 0.61713 0.59125 0.0
C1545 C 0.57104 0.5747 0.60016 0.0
C1546 C 0.58903 0.61511 0.61389 0.0
N1547 N 0.59125 0.57924 0.5342 0.0
C1548 C 0.60038 0.57904 0.5133 0.0
C1549 C 0.61052 0.61952 0.54602 0.0
C1550 C 0.59692 0.59864 0.55093 0.0
C1551 C 0.61849 0.6198 0.52375 0.0
C1552 C 0.61365 0.59938 0.50746 0.0
H1553 H 0.59358 0.62981 0.62815 0.0
H1554 H 0.61392 0.65333 0.59975 0.0
H1555 H 0.62673 0.65542 0.56019 0.0
O1556 O 0.60122 0.53456 0.53986 0.0
O1557 O 0.55041 0.57379 0.53809 0.0
O1558 O 0.52535 0.55885 0.50284 0.0
O1559 O 0.59638 0.54616 0.57692 0.0
O1560 O 0.56858 0.52873 0.50718 0.0
O1561 O 0.53662 0.53633 0.48665 0.0
O1562 O 0.47816 0.52817 0.51744 0.0
O1563 O 0.53232 0.49431 0.5164 0.0
O1564 O 0.55373 0.50868 0.55342 0.0
O1565 O 0.48374 0.52065 0.47984 0.0
O1566 O 0.51312 0.54128 0.54768 0.0
O1567 O 0.54292 0.53027 0.56742 0.0
C1568 C 0.53701 0.57685 0.5188 0.0
C1569 C 0.63129 0.53405 0.57229 0.0
C1570 C 0.66503 0.5215 0.56296 0.0
C1571 C 0.66974 0.5177 0.58703 0.0
C1572 C 0.63618 0.53066 0.59633 0.0
C1573 C 0.65558 0.52272 0.60371 0.0
C1574 C 0.64625 0.53053 0.55613 0.0
C1575 C 0.55697 0.53206 0.48711 0.0
C1576 C 0.60924 0.53819 0.56292 0.0
C1577 C 0.60901 0.63804 0.5862 0.0
C1578 C 0.61629 0.63924 0.56366 0.0
C1579 C 0.54396 0.49083 0.5366 0.0
C1580 C 0.4467 0.52706 0.48609 0.0
C1581 C 0.41537 0.54427 0.49305 0.0
C1582 C 0.40407 0.53527 0.46954 0.0
C1583 C 0.43555 0.51781 0.46248 0.0
C1584 C 0.43636 0.53991 0.50141 0.0
C1585 C 0.41412 0.5218 0.45432 0.0
C1586 C 0.52434 0.53778 0.56777 0.0
C1587 C 0.46978 0.52501 0.49452 0.0
H1588 H 0.68391 0.51033 0.5929 0.0
H1589 H 0.62463 0.53328 0.60909 0.0
H1590 H 0.65918 0.51967 0.62214 0.0
H1591 H 0.6427 0.53412 0.53787 0.0
H1592 H 0.38775 0.53887 0.46299 0.0
H1593 H 0.44349 0.50781 0.45038 0.0
H1594 H 0.44507 0.54749 0.51954 0.0
H1595 H 0.40554 0.51484 0.43609 0.0
Eu1596 Eu 1.00538 0.52811 0.04347 0.0
C1597 C 0.08863 0.58295 0.98999 0.0
N1598 N 0.07471 0.56114 0.98317 0.0
C1599 C 0.06878 0.56819 0.94215 0.0
C1600 C 0.09225 0.59843 0.97306 0.0
C1601 C 0.06605 0.55325 0.95932 0.0
C1602 C 0.08158 0.59098 0.94911 0.0
C1603 C 0.11638 0.61135 0.02041 0.0
C1604 C 0.10069 0.58951 0.01358 0.0
C1605 C 0.11915 0.62696 0.00378 0.0
C1606 C 0.10709 0.62056 0.98023 0.0
Eu1607 Eu 0.07152 0.53877 0.01508 0.0
N1608 N 0.09765 0.57433 0.02969 0.0
C1609 C 0.12939 0.61661 0.04359 0.0
C1610 C 0.11142 0.57864 0.05161 0.0
C1611 C 0.12722 0.60002 0.05907 0.0
H1612 H 0.05735 0.53535 0.95306 0.0
H1613 H 0.13795 0.60361 0.07654 0.0
H1614 H 0.0088 0.53369 0.10491 0.0
H1615 H 0.94372 0.46346 0.97614 0.0
H1616 H 0.11019 0.56551 0.06315 0.0
H1617 H 0.14173 0.63316 0.04942 0.0
H1618 H 0.97142 0.50116 0.99159 0.0
H1619 H 0.06139 0.56198 0.92342 0.0
H1620 H 0.13101 0.64387 0.00878 0.0
H1621 H 0.1099 0.63264 0.96745 0.0
H1622 H 0.99748 0.50869 0.13524 0.0
H1623 H 0.08394 0.60239 0.93564 0.0
H1624 H 0.9342 0.43485 0.00356 0.0
N1625 N 0.99446 0.50709 0.07491 0.0
C1626 C 0.98046 0.48551 0.06734 0.0
C1627 C 0.99288 0.50186 0.11622 0.0
C1628 C 0.97316 0.47085 0.08416 0.0
C1629 C 0.99951 0.51587 0.09894 0.0
C1630 C 0.98005 0.47911 0.10881 0.0
N1631 N 0.9781 0.49336 0.02693 0.0
C1632 C 0.96774 0.48852 0.00343 0.0
C1633 C 0.95621 0.45688 0.03478 0.0
C1634 C 0.97194 0.47856 0.04281 0.0
C1635 C 0.94651 0.45124 0.01036 0.0
C1636 C 0.95194 0.46733 0.99475 0.0
H1637 H 0.97478 0.46836 0.12225 0.0
H1638 H 0.95295 0.43725 0.08869 0.0
H1639 H 0.93816 0.42503 0.04548 0.0
O1640 O 0.97453 0.53674 0.02578 0.0
O1641 O 0.0145 0.49432 0.02573 0.0
O1642 O 0.04997 0.50074 0.00981 0.0
O1643 O 0.98814 0.54994 0.06362 0.0
O1644 O 0.02249 0.5417 0.01305 0.0
O1645 O 0.04079 0.52586 0.9865 0.0
O1646 O 0.09747 0.52344 0.0329 0.0
O1647 O 0.06471 0.5718 0.03596 0.0
O1648 O 0.02719 0.56598 0.04642 0.0
O1649 O 0.09879 0.53108 0.99647 0.0
O1650 O 0.0495 0.53019 0.04244 0.0
O1651 O 0.03385 0.53228 0.07455 0.0
C1652 C 0.03067 0.48695 0.01472 0.0
C1653 C 0.94898 0.54738 0.05142 0.0
C1654 C 0.91773 0.5662 0.05496 0.0
C1655 C 0.90854 0.55042 0.06984 0.0
C1656 C 0.93958 0.53146 0.06603 0.0
C1657 C 0.91931 0.53295 0.0751 0.0
C1658 C 0.93777 0.56442 0.04549 0.0
C1659 C 0.0215 0.52952 0.99223 0.0
C1660 C 0.97215 0.54908 0.04548 0.0
C1661 C 0.95847 0.44879 0.07601 0.0
C1662 C 0.95002 0.44184 0.0514 0.0
C1663 C 0.04764 0.57948 0.04439 0.0
C1664 C 0.11137 0.49887 0.00571 0.0
C1665 C 0.13734 0.47357 0.00643 0.0
C1666 C 0.12336 0.45917 0.98612 0.0
C1667 C 0.09713 0.48409 0.9857 0.0
C1668 C 0.13121 0.4933 0.01637 0.0
C1669 C 0.10314 0.46429 0.97599 0.0
C1670 C 0.05245 0.53205 0.0656 0.0
C1671 C 0.10723 0.52134 0.01368 0.0
H1672 H 0.89313 0.55174 0.07748 0.0
H1673 H 0.94832 0.51846 0.07107 0.0
H1674 H 0.91225 0.52093 0.08672 0.0
H1675 H 0.94536 0.57711 0.03471 0.0
H1676 H 0.12814 0.444 0.97815 0.0
H1677 H 0.08184 0.4883 0.97709 0.0
H1678 H 0.14239 0.50478 0.03163 0.0
H1679 H 0.09237 0.45318 0.96033 0.0
H1680 H 0.99655 0.18188 0.95488 0.0
H1681 H 0.0248 0.22541 0.02361 0.0
H1682 H 0.03632 0.1926 0.03976 0.0
H1683 H 0.97255 0.13027 0.98146 0.0
H1684 H 0.97847 0.11007 0.95836 0.0
H1685 H 0.97345 0.13714 0.95129 0.0
H1686 H 0.01266 0.14659 0.93566 0.0
H1687 H 0.01783 0.11959 0.94277 0.0
H1688 H 0.03869 0.14636 0.95512 0.0
H1689 H 0.04624 0.15506 0.04877 0.0
H1690 H 0.04982 0.11547 0.05139 0.0
H1691 H 0.01234 0.09294 0.97865 0.0
C1692 C 1.00536 0.18457 0.97327 0.0
C1693 C 0.01004 0.20686 0.98778 0.0
C1694 C 0.02109 0.20899 0.01192 0.0
C1695 C 0.02777 0.19027 0.02131 0.0
C1696 C 0.02294 0.16874 0.00675 0.0
C1697 C 0.01161 0.16559 0.98331 0.0
C1698 C 0.00746 0.14006 0.97218 0.0
C1699 C 0.98144 0.12872 0.96542 0.0
C1700 C 0.0199 0.13803 0.95012 0.0
C1701 C 0.01831 0.12951 0.99288 0.0
C1702 C 0.02742 0.14661 0.01249 0.0
C1703 C 0.03893 0.14161 0.03352 0.0
C1704 C 0.04099 0.11881 0.03481 0.0
C1705 C 0.0314 0.10045 0.01543 0.0
C1706 C 0.0198 0.10618 0.99406 0.0
H1707 H 0.15408 0.7849 0.13433 0.0
H1708 H 0.12043 0.82497 0.18057 0.0
H1709 H 0.15135 0.82729 0.21482 0.0
H1710 H 0.17031 0.75105 0.17957 0.0
H1711 H 0.19727 0.74974 0.16925 0.0
H1712 H 0.17322 0.75244 0.14834 0.0
H1713 H 0.19895 0.78907 0.13681 0.0
H1714 H 0.22302 0.78667 0.15792 0.0
H1715 H 0.21335 0.81295 0.16007 0.0
H1716 H 0.18835 0.82801 0.24334 0.0
H1717 H 0.22391 0.82159 0.26522 0.0
H1718 H 0.22918 0.77457 0.20327 0.0
C1719 C 0.15328 0.79432 0.15163 0.0
C1720 C 0.1349 0.80517 0.15453 0.0
C1721 C 0.13432 0.81674 0.1777 0.0
C1722 C 0.15191 0.8182 0.19728 0.0
C1723 C 0.16987 0.80755 0.19372 0.0
C1724 C 0.17036 0.79536 0.17158 0.0
C1725 C 0.19079 0.78425 0.17293 0.0
C1726 C 0.18239 0.7578 0.16719 0.0
C1727 C 0.20752 0.7938 0.15592 0.0
C1728 C 0.20178 0.79211 0.19929 0.0
C1729 C 0.18975 0.80603 0.21075 0.0
C1730 C 0.19743 0.8166 0.23462 0.0
C1731 C 0.21754 0.81255 0.24715 0.0
C1732 C 0.22953 0.79729 0.23649 0.0
C1733 C 0.22132 0.78695 0.21205 0.0
H1734 H 0.52498 0.85261 0.45847 0.0
H1735 H 0.49602 0.83392 0.52226 0.0
H1736 H 0.49844 0.87466 0.53618 0.0
H1737 H 0.5655 0.90795 0.48855 0.0
H1738 H 0.56079 0.92286 0.46322 0.0
H1739 H 0.55763 0.89212 0.45834 0.0
H1740 H 0.51633 0.88732 0.43547 0.0
H1741 H 0.5196 0.91811 0.44118 0.0
H1742 H 0.49572 0.89883 0.4505 0.0
H1743 H 0.50163 0.91741 0.54315 0.0
H1744 H 0.50918 0.95947 0.54456 0.0
H1745 H 0.53813 0.95422 0.47803 0.0
C1746 C 0.5195 0.85709 0.47556 0.0
C1747 C 0.51032 0.8393 0.48916 0.0
C1748 C 0.50311 0.84654 0.51124 0.0
C1749 C 0.50435 0.86992 0.51941 0.0
C1750 C 0.51298 0.88676 0.50559 0.0
C1751 C 0.52071 0.88084 0.48424 0.0
C1752 C 0.52913 0.9029 0.47315 0.0
C1753 C 0.55481 0.90666 0.47069 0.0
C1754 C 0.51432 0.90171 0.44861 0.0
C1755 C 0.52534 0.92196 0.4918 0.0
C1756 C 0.51555 0.91193 0.51009 0.0
C1757 C 0.50947 0.92535 0.52896 0.0
C1758 C 0.5137 0.94948 0.52949 0.0
C1759 C 0.52424 0.96077 0.51149 0.0
C1760 C 0.53021 0.94651 0.4923 0.0
H1761 H 0.50477 0.27329 0.64619 0.0
H1762 H 0.52642 0.34598 0.6765 0.0
H1763 H 0.49336 0.34101 0.69903 0.0
H1764 H 0.44275 0.26839 0.63958 0.0
H1765 H 0.43622 0.23985 0.64792 0.0
H1766 H 0.46107 0.24921 0.63336 0.0
H1767 H 0.48764 0.24007 0.66878 0.0
H1768 H 0.46285 0.23049 0.68328 0.0
H1769 H 0.48719 0.2528 0.6992 0.0
H1770 H 0.45889 0.32746 0.72025 0.0
H1771 H 0.42706 0.30607 0.73904 0.0
H1772 H 0.42696 0.24299 0.69301 0.0
C1773 C 0.50251 0.28822 0.65743 0.0
C1774 C 0.51825 0.31005 0.65951 0.0
C1775 C 0.51463 0.32908 0.67454 0.0
C1776 C 0.49584 0.32646 0.68738 0.0
C1777 C 0.48065 0.30472 0.68491 0.0
C1778 C 0.48378 0.28594 0.67028 0.0
C1779 C 0.46546 0.26427 0.67139 0.0
C1780 C 0.45049 0.25489 0.64658 0.0
C1781 C 0.47645 0.24583 0.68125 0.0
C1782 C 0.45177 0.27372 0.68914 0.0
C1783 C 0.46068 0.29709 0.69674 0.0
C1784 C 0.45161 0.30919 0.71423 0.0
C1785 C 0.4334 0.29692 0.72469 0.0
C1786 C 0.42452 0.27278 0.71766 0.0
C1787 C 0.43347 0.26136 0.69907 0.0
H1788 H 0.0344 0.82812 0.66559 0.0
H1789 H 1.00051 0.77765 0.60277 0.0
H1790 H 1.00553 0.80834 0.5771 0.0
H1791 H 0.00889 0.87496 0.6445 0.0
H1792 H 0.03446 0.89734 0.65727 0.0
H1793 H 0.02676 0.87181 0.67133 0.0
H1794 H 0.06697 0.86405 0.66832 0.0
H1795 H 0.07488 0.88966 0.65461 0.0
H1796 H 0.07685 0.86226 0.63941 0.0
H1797 H 0.01649 0.84392 0.55755 0.0
H1798 H 0.03475 0.88142 0.54567 0.0
H1799 H 0.06121 0.90907 0.62075 0.0
C1800 C 0.02793 0.82358 0.64646 0.0
C1801 C 0.01708 0.8004 0.6362 0.0
C1802 C 0.00874 0.79524 0.6111 0.0
C1803 C 0.01146 0.81259 0.59634 0.0
C1804 C 0.02217 0.83522 0.60693 0.0
C1805 C 0.03016 0.84083 0.63145 0.0
C1806 C 0.04147 0.86649 0.63811 0.0
C1807 C 0.02704 0.87835 0.65373 0.0
C1808 C 0.06654 0.87084 0.65084 0.0
C1809 C 0.04034 0.87395 0.61328 0.0
C1810 C 0.02841 0.85582 0.59564 0.0
C1811 C 0.02563 0.85832 0.57124 0.0
C1812 C 0.03592 0.87968 0.56464 0.0
C1813 C 0.04915 0.89809 0.58231 0.0
C1814 C 0.05093 0.89529 0.60695 0.0
H1815 H 0.46558 0.78209 0.80352 0.0
H1816 H 0.48118 0.84182 0.85924 0.0
H1817 H 0.44052 0.84368 0.8527 0.0
H1818 H 0.42112 0.80703 0.76506 0.0
H1819 H 0.40311 0.77866 0.75311 0.0
H1820 H 0.43405 0.78301 0.76014 0.0
H1821 H 0.42795 0.7514 0.78766 0.0
H1822 H 0.39707 0.74723 0.78121 0.0
H1823 H 0.4115 0.75416 0.81203 0.0
H1824 H 0.39724 0.83607 0.84482 0.0
H1825 H 0.35505 0.82333 0.83116 0.0
H1826 H 0.36544 0.77069 0.77741 0.0
C1827 C 0.46066 0.79623 0.81346 0.0
C1828 C 0.47713 0.81222 0.83165 0.0
C1829 C 0.46939 0.82982 0.84479 0.0
C1830 C 0.4461 0.83085 0.84141 0.0
C1831 C 0.43026 0.81457 0.82412 0.0
C1832 C 0.43726 0.79814 0.80957 0.0
C1833 C 0.41628 0.78333 0.79178 0.0
C1834 C 0.41879 0.78828 0.76599 0.0
C1835 C 0.41302 0.75749 0.79328 0.0
C1836 C 0.39635 0.79235 0.80046 0.0
C1837 C 0.40504 0.81075 0.81883 0.0
C1838 C 0.39034 0.82193 0.83015 0.0
C1839 C 0.36628 0.81456 0.82227 0.0
C1840 C 0.35669 0.79604 0.80322 0.0
C1841 C 0.37209 0.78472 0.79224 0.0
H1842 H 0.51605 0.19573 0.12489 0.0
H1843 H 0.51562 0.1611 0.18834 0.0
H1844 H 0.5166 0.12533 0.16359 0.0
H1845 H 0.47917 0.14443 0.08325 0.0
H1846 H 0.49431 0.14995 0.05809 0.0
H1847 H 0.49288 0.17367 0.08007 0.0
H1848 H 0.53755 0.18731 0.08751 0.0
H1849 H 0.539 0.16367 0.0655 0.0
H1850 H 0.55443 0.16739 0.09573 0.0
H1851 H 0.51606 0.09296 0.13335 0.0
H1852 H 0.51756 0.06534 0.09897 0.0
H1853 H 0.52118 0.11893 0.053 0.0
C1854 C 0.51598 0.18055 0.13348 0.0
C1855 C 0.51546 0.18144 0.15879 0.0
C1856 C 0.51562 0.1611 0.16916 0.0
C1857 C 0.51624 0.14055 0.1552 0.0
C1858 C 0.51656 0.14016 0.13058 0.0
C1859 C 0.51646 0.15946 0.11958 0.0
C1860 C 0.51697 0.15359 0.09251 0.0
C1861 C 0.4945 0.15555 0.0776 0.0
C1862 C 0.53827 0.16891 0.08488 0.0
C1863 C 0.51828 0.12838 0.09052 0.0
C1864 C 0.51742 0.12111 0.11275 0.0
C1865 C 0.51706 0.09851 0.11587 0.0
C1866 C 0.51795 0.08285 0.09592 0.0
C1867 C 0.52009 0.08969 0.07283 0.0
C1868 C 0.5199 0.11292 0.07017 0.0
H1869 H 0.13797 0.30874 0.35183 0.0
H1870 H 0.1083 0.32421 0.28374 0.0
H1871 H 0.14071 0.31484 0.26489 0.0
H1872 H 0.19676 0.33348 0.34825 0.0
H1873 H 0.20841 0.31167 0.361 0.0
H1874 H 0.1817 0.31695 0.36871 0.0
H1875 H 0.16119 0.27383 0.3545 0.0
H1876 H 0.18798 0.26853 0.34689 0.0
H1877 H 0.1624 0.26082 0.32443 0.0
H1878 H 0.17729 0.30449 0.25301 0.0
H1879 H 0.21537 0.29636 0.24988 0.0
H1880 H 0.22473 0.29033 0.32596 0.0
C1881 C 0.13793 0.30948 0.33277 0.0
C1882 C 0.11975 0.31661 0.31918 0.0
C1883 C 0.12129 0.31823 0.29452 0.0
C1884 C 0.13986 0.31303 0.28363 0.0
C1885 C 0.1575 0.30638 0.29746 0.0
C1886 C 0.15673 0.30454 0.32155 0.0
C1887 C 0.17863 0.29797 0.33246 0.0
C1888 C 0.19217 0.31611 0.35388 0.0
C1889 C 0.17217 0.27386 0.34003 0.0
C1890 C 0.19229 0.29759 0.31118 0.0
C1891 C 0.17932 0.30181 0.29099 0.0
C1892 C 0.18755 0.3014 0.26885 0.0
C1893 C 0.20938 0.29677 0.26721 0.0
C1894 C 0.22363 0.29317 0.28763 0.0
C1895 C 0.21472 0.29355 0.31001 0.0
H1896 H 0.99171 0.99753 0.19128 0.0
H1897 H 0.95723 0.05323 0.20024 0.0
H1898 H 0.96832 0.06512 0.16194 0.0
H1899 H 0.03973 0.02756 0.16658 0.0
H1900 H 0.04043 1.00288 0.1455 0.0
H1901 H 0.02959 0.99877 0.17344 0.0
H1902 H 0.99093 0.97256 0.14979 0.0
H1903 H 1.00178 0.97646 0.12181 0.0
H1904 H 0.97491 0.98339 0.12657 0.0
H1905 H 0.98204 0.06981 0.12122 0.0
H1906 H 0.99845 0.06762 0.08297 0.0
H1907 H 0.02529 0.0101 0.10221 0.0
C1908 C 0.98657 0.01233 0.18534 0.0
C1909 C 0.97367 0.0245 0.19894 0.0
C1910 C 0.96714 0.04362 0.19023 0.0
C1911 C 0.97335 0.05051 0.16846 0.0
C1912 C 0.98604 0.03807 0.15551 0.0
C1913 C 0.99255 0.01937 0.16367 0.0
C1914 C 1.00587 0.00867 0.14634 0.0
C1915 C 0.03036 0.00954 0.1587 0.0
C1916 C 0.99258 0.9838 0.1355 0.0
C1917 C 1.00634 0.02455 0.12739 0.0
C1918 C 0.99448 0.04119 0.13271 0.0
C1919 C 0.99149 0.05694 0.11701 0.0
C1920 C 1.00075 0.05554 0.09531 0.0
C1921 C 0.01319 0.03882 0.08977 0.0
C1922 C 0.01615 0.02331 0.10618 0.0
H1923 H 0.27933 0.70772 0.51508 0.0
H1924 H 0.27204 0.63854 0.47836 0.0
H1925 H 0.27922 0.65398 0.44077 0.0
H1926 H 0.24792 0.72509 0.47553 0.0
H1927 H 0.26458 0.75448 0.4775 0.0
H1928 H 0.26755 0.73936 0.50262 0.0
H1929 H 0.31176 0.74724 0.50215 0.0
H1930 H 0.30884 0.76232 0.47658 0.0
H1931 H 0.32241 0.73852 0.47498 0.0
H1932 H 0.2748 0.67385 0.40661 0.0
H1933 H 0.25696 0.69582 0.37907 0.0
H1934 H 0.2686 0.75312 0.43681 0.0
C1935 C 0.28003 0.69606 0.49921 0.0
C1936 C 0.27505 0.67217 0.49924 0.0
C1937 C 0.27596 0.65705 0.47847 0.0
C1938 C 0.28035 0.66569 0.45719 0.0
C1939 C 0.28436 0.68945 0.45733 0.0
C1940 C 0.2846 0.70449 0.47798 0.0
C1941 C 0.28463 0.7284 0.47254 0.0
C1942 C 0.26499 0.73729 0.4826 0.0
C1943 C 0.30833 0.74511 0.48212 0.0
C1944 C 0.28067 0.72359 0.44535 0.0
C1945 C 0.28199 0.7014 0.43691 0.0
C1946 C 0.27458 0.6915 0.41283 0.0
C1947 C 0.26431 0.70398 0.39736 0.0
C1948 C 0.2614 0.7259 0.40628 0.0
C1949 C 0.27085 0.73633 0.42997 0.0
H1950 H 0.62265 0.01559 0.6795 0.0
H1951 H 0.64999 0.0898 0.68929 0.0
H1952 H 0.63659 0.09021 0.64643 0.0
H1953 H 0.6302 1.00345 0.61282 0.0
H1954 H 0.60292 0.98212 0.6061 0.0
H1955 H 0.62042 0.98619 0.63535 0.0
H1956 H 0.58565 0.99312 0.65579 0.0
H1957 H 0.56826 0.98905 0.6267 0.0
H1958 H 0.57195 0.01533 0.6473 0.0
H1959 H 0.61373 0.08485 0.60801 0.0
H1960 H 0.58135 0.07373 0.57479 0.0
H1961 H 0.56721 1.00314 0.58796 0.0
C1962 C 0.62602 0.03171 0.67223 0.0
C1963 C 0.6368 0.05271 0.68717 0.0
C1964 C 0.64116 0.0737 0.67777 0.0
C1965 C 0.6341 0.074 0.65349 0.0
C1966 C 0.62278 0.05314 0.63911 0.0
C1967 C 0.61864 0.03232 0.64801 0.0
C1968 C 0.60231 0.01328 0.62991 0.0
C1969 C 0.61472 0.99519 0.62049 0.0
C1970 C 0.58077 1.00206 0.64056 0.0
C1971 C 0.59648 0.02713 0.61046 0.0
C1972 C 0.60921 0.04988 0.61585 0.0
C1973 C 0.60437 0.06693 0.60299 0.0
C1974 C 0.5858 0.06063 0.58436 0.0
C1975 C 0.5728 0.03768 0.5785 0.0
C1976 C 0.57811 0.02058 0.59145 0.0
H1977 H 0.29506 0.36368 0.95445 0.0
H1978 H 0.30841 0.30375 0.98401 0.0
H1979 H 0.30511 0.28318 0.94302 0.0
H1980 H 0.2537 0.33019 0.89957 0.0
H1981 H 0.26443 0.35073 0.8803 0.0
H1982 H 0.26503 0.36029 0.9119 0.0
H1983 H 0.30905 0.37846 0.9163 0.0
H1984 H 0.30863 0.36871 0.88483 0.0
H1985 H 0.32789 0.36064 0.90745 0.0
H1986 H 0.30447 0.27019 0.90004 0.0
H1987 H 0.30344 0.26412 0.85612 0.0
H1988 H 0.2907 0.33193 0.85241 0.0
C1989 C 0.29656 0.34599 0.95217 0.0
C1990 C 0.30188 0.33523 0.97247 0.0
C1991 C 0.30432 0.31229 0.96877 0.0
C1992 C 0.30248 0.30044 0.94554 0.0
C1993 C 0.29811 0.31167 0.92595 0.0
C1994 C 0.29485 0.33379 0.92882 0.0
C1995 C 0.29151 0.34197 0.90437 0.0
C1996 C 0.26722 0.34604 0.89871 0.0
C1997 C 0.3104 0.36373 0.90318 0.0
C1998 C 0.29407 0.32124 0.88765 0.0
C1999 C 0.29774 0.304 0.90062 0.0
C2000 C 0.30136 0.28346 0.88961 0.0
C2001 C 0.30096 0.28027 0.8646 0.0
C2002 C 0.29713 0.29755 0.8507 0.0
C2003 C 0.29356 0.31832 0.86248 0.0
H2004 H 0.97796 0.98797 0.33966 0.0
H2005 H 0.99118 0.06017 0.33078 0.0
H2006 H 1.00623 0.07138 0.37455 0.0
H2007 H 0.95812 0.99749 0.3983 0.0
H2008 H 0.96949 0.97491 0.40965 0.0
H2009 H 0.95989 0.97288 0.37778 0.0
H2010 H 1.00025 0.96866 0.3686 0.0
H2011 H 0.00898 0.97001 0.40039 0.0
H2012 H 0.02585 0.98985 0.38394 0.0
H2013 H 0.02024 0.0744 0.41936 0.0
H2014 H 0.031 0.06914 0.4617 0.0
H2015 H 0.00762 0.99499 0.44142 0.0
C2016 C 0.98431 0.00613 0.34693 0.0
C2017 C 0.98405 0.02325 0.33186 0.0
C2018 C 0.99161 0.04684 0.34206 0.0
C2019 C 1.0001 0.05333 0.36685 0.0
C2020 C 1.00029 0.03598 0.38124 0.0
C2021 C 0.9922 0.01288 0.3717 0.0
C2022 C 0.99324 0.99765 0.39117 0.0
C2023 C 0.96873 0.98499 0.39441 0.0
C2024 C 0.00801 0.98056 0.38567 0.0
C2025 C 1.00466 0.01565 0.41294 0.0
C2026 C 0.00812 0.0377 0.40693 0.0
C2027 C 0.01768 0.0572 0.42419 0.0
C2028 C 0.02377 0.05408 0.44816 0.0
C2029 C 0.02063 0.03167 0.45461 0.0
C2030 C 0.01092 0.01224 0.43677 0.0
H2031 H 0.26013 0.66072 0.64266 0.0
H2032 H 0.31904 0.69172 0.61031 0.0
H2033 H 0.33413 0.72029 0.6473 0.0
H2034 H 0.24729 0.70657 0.66395 0.0
H2035 H 0.2396 0.69947 0.69254 0.0
H2036 H 0.23754 0.67684 0.66819 0.0
H2037 H 0.26498 0.65829 0.69393 0.0
H2038 H 0.26624 0.68019 0.71907 0.0
H2039 H 0.29255 0.67588 0.70933 0.0
H2040 H 0.33716 0.75029 0.68265 0.0
H2041 H 0.32993 0.77744 0.71557 0.0
H2042 H 0.26665 0.72914 0.72052 0.0
C2043 C 0.27675 0.6729 0.644 0.0
C2044 C 0.28856 0.67433 0.62414 0.0
C2045 C 0.31007 0.69043 0.6258 0.0
C2046 C 0.31872 0.70662 0.64668 0.0
C2047 C 0.30585 0.70578 0.66564 0.0
C2048 C 0.2856 0.6889 0.66471 0.0
C2049 C 0.27313 0.69363 0.6856 0.0
C2050 C 0.24794 0.69421 0.67704 0.0
C2051 C 0.27429 0.67595 0.703 0.0
C2052 C 0.28805 0.71703 0.6969 0.0
C2053 C 0.30744 0.7233 0.68592 0.0
C2054 C 0.32273 0.74503 0.69219 0.0
C2055 C 0.31845 0.76031 0.71076 0.0
C2056 C 0.29882 0.75383 0.72227 0.0
C2057 C 0.28316 0.7325 0.71459 0.0
H2058 H 0.63496 0.02753 0.80718 0.0
H2059 H 0.69453 0.08486 0.83255 0.0
H2060 H 0.68308 0.08837 0.87284 0.0
H2061 H 0.59812 0.0509 0.82604 0.0
H2062 H 0.57913 0.02743 0.83636 0.0
H2063 H 0.59658 0.0213 0.8142 0.0
H2064 H 0.6148 0.99624 0.84126 0.0
H2065 H 0.59693 1.00193 0.86356 0.0
H2066 H 0.62787 0.00811 0.87193 0.0
H2067 H 0.66058 0.09419 0.90398 0.0
H2068 H 0.6282 0.10268 0.92319 0.0
H2069 H 0.58076 0.04421 0.87708 0.0
C2070 C 0.64617 0.03977 0.82181 0.0
C2071 C 0.66561 0.05571 0.81729 0.0
C2072 C 0.67965 0.07237 0.83609 0.0
C2073 C 0.67338 0.07431 0.85904 0.0
C2074 C 0.65298 0.05955 0.86268 0.0
C2075 C 0.63962 0.04232 0.84464 0.0
C2076 C 0.61589 0.03279 0.85096 0.0
C2077 C 0.59632 0.03319 0.8307 0.0
C2078 C 0.61375 0.00832 0.85731 0.0
C2079 C 0.61681 0.04976 0.87321 0.0
C2080 C 0.63885 0.06392 0.88061 0.0
C2081 C 0.64345 0.08279 0.89888 0.0
C2082 C 0.62502 0.08768 0.90945 0.0
C2083 C 0.60235 0.07413 0.90118 0.0
C2084 C 0.59818 0.05463 0.88344 0.0
H2085 H 0.30321 0.31281 0.09789 0.0
H2086 H 0.29739 0.38305 0.11618 0.0
H2087 H 0.28839 0.37471 0.15629 0.0
H2088 H 0.25479 0.28762 0.13098 0.0
H2089 H 0.26835 0.26536 0.1395 0.0
H2090 H 0.27247 0.27631 0.11152 0.0
H2091 H 0.31691 0.28628 0.12452 0.0
H2092 H 0.31295 0.2754 0.15246 0.0
H2093 H 0.32959 0.30453 0.15286 0.0
H2094 H 0.28261 0.35966 0.19503 0.0
H2095 H 0.28003 0.33909 0.23001 0.0
H2096 H 0.29044 0.27842 0.18733 0.0
C2097 C 0.29973 0.32629 0.11028 0.0
C2098 C 0.30097 0.34858 0.10402 0.0
C2099 C 0.29625 0.36581 0.12056 0.0
C2100 C 0.29116 0.36123 0.14338 0.0
C2101 C 0.29028 0.33916 0.14912 0.0
C2102 C 0.29405 0.32184 0.13295 0.0
C2103 C 0.29212 0.29966 0.1438 0.0
C2104 C 0.27067 0.28113 0.13067 0.0
C2105 C 0.31422 0.29098 0.1434 0.0
C2106 C 0.2888 0.30782 0.1693 0.0
C2107 C 0.28699 0.33044 0.17164 0.0
C2108 C 0.28378 0.34188 0.19333 0.0
C2109 C 0.28239 0.32996 0.21318 0.0
C2110 C 0.28472 0.30691 0.21155 0.0
C2111 C 0.28802 0.29576 0.18919 0.0
H2112 H 0.24153 0.98448 0.97517 0.0
H2113 H 0.23494 0.9224 0.00861 0.0
H2114 H 0.20302 0.9313 0.02784 0.0
H2115 H 0.23738 0.01926 0.02271 0.0
H2116 H 0.22044 0.03632 0.00803 0.0
H2117 H 0.238 0.02204 0.99132 0.0
H2118 H 0.20212 1.00104 0.95968 0.0
H2119 H 0.18432 0.0155 0.9762 0.0
H2120 H 0.17681 0.98442 0.96935 0.0
H2121 H 0.18026 0.95081 0.051 0.0
H2122 H 0.1648 0.97929 0.0748 0.0
H2123 H 0.1846 0.02854 0.02634 0.0
C2124 C 0.23244 0.97221 0.98544 0.0
C2125 C 0.24038 0.9528 0.99032 0.0
C2126 C 0.22885 0.93737 0.00458 0.0
C2127 C 0.21064 0.94217 0.01549 0.0
C2128 C 0.20401 0.96221 0.01154 0.0
C2129 C 0.21421 0.97683 0.99656 0.0
C2130 C 0.20623 0.99889 0.99831 0.0
C2131 C 0.22674 0.02036 0.00554 0.0
C2132 C 0.19147 1.00003 0.97448 0.0
C2133 C 0.19176 0.99524 0.01825 0.0
C2134 C 0.19024 0.97369 0.02515 0.0
C2135 C 0.18062 0.96744 0.04536 0.0
C2136 C 0.1723 0.98371 0.05895 0.0
C2137 C 0.17398 0.00576 0.05223 0.0
C2138 C 0.18327 0.01154 0.03147 0.0
H2139 H 0.69763 0.64926 0.03969 0.0
H2140 H 0.70545 0.62644 0.96624 0.0
H2141 H 0.66972 0.5949 0.96238 0.0
H2142 H 0.67651 0.59175 0.05581 0.0
H2143 H 0.65678 0.60112 0.07399 0.0
H2144 H 0.68318 0.62116 0.07086 0.0
H2145 H 0.65965 0.64921 0.05541 0.0
H2146 H 0.63346 0.6292 0.05885 0.0
H2147 H 0.63667 0.63871 0.03011 0.0
H2148 H 0.63029 0.5698 0.96524 0.0
H2149 H 0.59315 0.54941 0.97627 0.0
H2150 H 0.61466 0.58459 0.04976 0.0
C2151 C 0.69191 0.63736 0.02294 0.0
C2152 C 0.70395 0.64008 0.00319 0.0
C2153 C 0.69624 0.62441 0.9815 0.0
C2154 C 0.67605 0.60656 0.97919 0.0
C2155 C 0.66429 0.60447 -0.00103 0.0
C2156 C 0.67223 0.61916 0.02059 0.0
C2157 C 0.65638 0.61348 0.03903 0.0
C2158 C 0.66898 0.60645 0.06123 0.0
C2159 C 0.64592 0.63387 0.04625 0.0
C2160 C 0.63824 0.59324 0.02449 0.0
C2161 C 0.64278 0.58865 0.00122 0.0
C2162 C 0.62697 0.57267 0.98361 0.0
C2163 C 0.60604 0.56111 0.99002 0.0
C2164 C 0.60163 0.56492 0.01399 0.0
C2165 C 0.61801 0.58096 0.03148 0.0
H2166 H 0.66887 0.48697 0.25992 0.0
H2167 H 0.69511 0.50553 0.3366 0.0
H2168 H 0.71835 0.47674 0.33357 0.0
H2169 H 0.66584 0.42524 0.25667 0.0
H2170 H 0.67492 0.42307 0.22741 0.0
H2171 H 0.65908 0.44406 0.23575 0.0
H2172 H 0.69191 0.47677 0.22668 0.0
H2173 H 0.70769 0.45583 0.21819 0.0
H2174 H 0.72114 0.48013 0.2413 0.0
H2175 H 0.7397 0.44708 0.32209 0.0
H2176 H 0.75942 0.41995 0.30224 0.0
H2177 H 0.71951 0.42112 0.23316 0.0
C2178 C 0.67931 0.48484 0.27614 0.0
C2179 C 0.6801 0.49842 0.29853 0.0
C2180 C 0.69418 0.49526 0.31927 0.0
C2181 C 0.70738 0.47891 0.31776 0.0
C2182 C 0.70626 0.46586 0.29541 0.0
C2183 C 0.69264 0.46866 0.27495 0.0
C2184 C 0.69532 0.45315 0.25293 0.0
C2185 C 0.67243 0.43532 0.24259 0.0
C2186 C 0.70457 0.46733 0.23365 0.0
C2187 C 0.71308 0.44175 0.26412 0.0
C2188 C 0.71888 0.44901 0.2887 0.0
C2189 C 0.73526 0.44118 0.30286 0.0
C2190 C 0.74631 0.42579 0.29148 0.0
C2191 C 0.74108 0.41871 0.2662 0.0
C2192 C 0.72401 0.42654 0.25247 0.0
H2193 H 0.86987 0.46743 0.47758 0.0
H2194 H 0.8636 0.46941 0.55327 0.0
H2195 H 0.90225 0.49686 0.5642 0.0
H2196 H 0.92296 0.46274 0.48145 0.0
H2197 H 0.93276 0.48086 0.45964 0.0
H2198 H 0.90261 0.46713 0.45726 0.0
H2199 H 0.8923 0.50676 0.45841 0.0
H2200 H 0.92253 0.52062 0.46013 0.0
H2201 H 0.90641 0.52985 0.48264 0.0
H2202 H 0.94446 0.51707 0.56643 0.0
H2203 H 0.98455 0.53235 0.5592 0.0
H2204 H 0.96173 0.51425 0.48212 0.0
C2205 C 0.87629 0.47457 0.49635 0.0
C2206 C 0.86429 0.46673 0.51469 0.0
C2207 C 0.87286 0.47576 0.53915 0.0
C2208 C 0.89466 0.49124 0.54544 0.0
C2209 C 0.90694 0.49761 0.52689 0.0
C2210 C 0.89771 0.49007 0.50276 0.0
C2211 C 0.91513 0.49677 0.48629 0.0
C2212 C 0.91855 0.4756 0.47026 0.0
C2213 C 0.90871 0.51457 0.47098 0.0
C2214 C 0.93598 0.50754 0.50491 0.0
C2215 C 0.9311 0.50849 0.52821 0.0
C2216 C 0.94841 0.51667 0.54822 0.0
C2217 C 0.97121 0.52467 0.54403 0.0
C2218 C 0.97609 0.52352 0.52015 0.0
C2219 C 0.95831 0.5149 0.50058 0.0
H2220 H 0.33773 0.0511 0.28078 0.0
H2221 H 0.36267 0.08858 0.35298 0.0
H2222 H 0.34481 0.11991 0.34229 0.0
H2223 H 0.35075 0.094 0.25051 0.0
H2224 H 0.32563 0.0866 0.22746 0.0
H2225 H 0.3343 0.06439 0.24212 0.0
H2226 H 0.29383 0.05199 0.25483 0.0
H2227 H 0.28479 0.074 0.23976 0.0
H2228 H 0.28218 0.07313 0.27112 0.0
H2229 H 0.33413 0.15014 0.32124 0.0
H2230 H 0.32583 0.17611 0.29253 0.0
H2231 H 0.30631 0.11838 0.23412 0.0
C2232 C 0.33833 0.06542 0.29459 0.0
C2233 C 0.3512 0.06769 0.31765 0.0
C2234 C 0.35237 0.08662 0.33538 0.0
C2235 C 0.34237 0.10442 0.32942 0.0
C2236 C 0.33091 0.10239 0.30596 0.0
C2237 C 0.32822 0.08305 0.28899 0.0
C2238 C 0.31765 0.08626 0.26433 0.0
C2239 C 0.33303 0.08261 0.24501 0.0
C2240 C 0.29315 0.07041 0.25709 0.0
C2241 C 0.31697 0.11117 0.26958 0.0
C2242 C 0.32419 0.12 0.29377 0.0
C2243 C 0.32762 0.14329 0.30245 0.0
C2244 C 0.32312 0.15788 0.28601 0.0
C2245 C 0.31543 0.14903 0.26125 0.0
C2246 C 0.31224 0.12544 0.25298 0.0
H2247 H 0.3293 0.12602 0.48116 0.0
H2248 H 0.33305 0.17012 0.54898 0.0
H2249 H 0.36502 0.15552 0.56701 0.0
H2250 H 0.33801 0.07801 0.50561 0.0
H2251 H 0.35587 0.06966 0.48449 0.0
H2252 H 0.33522 0.0857 0.47565 0.0
H2253 H 0.36797 0.11695 0.46431 0.0
H2254 H 0.3888 0.10104 0.47332 0.0
H2255 H 0.39304 0.13076 0.48647 0.0
H2256 H 0.39258 0.13336 0.57956 0.0
H2257 H 0.41459 0.10396 0.5857 0.0
H2258 H 0.39473 0.07477 0.51008 0.0
C2259 C 0.33717 0.13292 0.49963 0.0
C2260 C 0.32867 0.14924 0.51359 0.0
C2261 C 0.33924 0.15764 0.53784 0.0
C2262 C 0.35753 0.14957 0.54828 0.0
C2263 C 0.36529 0.1333 0.5342 0.0
C2264 C 0.35562 0.1251 0.51038 0.0
C2265 C 0.36623 0.10633 0.49996 0.0
C2266 C 0.34772 0.08359 0.49091 0.0
C2267 C 0.37982 0.11425 0.47982 0.0
C2268 C 0.38231 0.10444 0.52208 0.0
C2269 C 0.38177 0.1205 0.54148 0.0
C2270 C 0.39352 0.12095 0.56445 0.0
C2271 C 0.40579 0.10419 0.56783 0.0
C2272 C 0.40613 0.08736 0.54835 0.0
C2273 C 0.3948 0.08778 0.52509 0.0
H2274 H 0.67894 0.63759 0.32234 0.0
H2275 H 0.69809 0.59119 0.26819 0.0
H2276 H 0.72944 0.62331 0.26136 0.0
H2277 H 0.6852 0.68463 0.29365 0.0
H2278 H 0.69778 0.7062 0.31969 0.0
H2279 H 0.6794 0.67906 0.32328 0.0
H2280 H 0.71187 0.67176 0.35381 0.0
H2281 H 0.73025 0.69917 0.35067 0.0
H2282 H 0.74006 0.67314 0.34537 0.0
H2283 H 0.75478 0.6612 0.25655 0.0
H2284 H 0.77446 0.70178 0.25597 0.0
H2285 H 0.73902 0.72369 0.31356 0.0
C2286 C 0.69019 0.63406 0.30955 0.0
C2287 C 0.68621 0.61194 0.29583 0.0
C2288 C 0.70109 0.60794 0.27912 0.0
C2289 C 0.71886 0.62609 0.27506 0.0
C2290 C 0.72177 0.64792 0.28828 0.0
C2291 C 0.70818 0.65187 0.30557 0.0
C2292 C 0.71408 0.67716 0.31639 0.0
C2293 C 0.69285 0.68735 0.31303 0.0
C2294 C 0.7247 0.6805 0.34315 0.0
C2295 C 0.73199 0.68707 0.30133 0.0
C2296 C 0.73652 0.66984 0.28558 0.0
C2297 C 0.75175 0.67477 0.26915 0.0
C2298 C 0.76282 0.69789 0.26896 0.0
C2299 C 0.75841 0.71582 0.28491 0.0
C2300 C 0.74278 0.7103 0.30128 0.0
H2301 H 0.82611 0.44934 0.76059 0.0
H2302 H 0.85324 0.47061 0.83675 0.0
H2303 H 0.84062 0.43058 0.84407 0.0
H2304 H 0.77472 0.40211 0.77003 0.0
H2305 H 0.77726 0.38441 0.74294 0.0
H2306 H 0.78474 0.41542 0.745 0.0
H2307 H 0.82502 0.41313 0.73408 0.0
H2308 H 0.81803 0.38235 0.73354 0.0
H2309 H 0.84328 0.40027 0.7531 0.0
H2310 H 0.83334 0.38866 0.84164 0.0
H2311 H 0.81943 0.34618 0.83187 0.0
H2312 H 0.79428 0.35232 0.75823 0.0
C2313 C 0.82795 0.44569 0.77897 0.0
C2314 C 0.84028 0.46277 0.79812 0.0
C2315 C 0.84324 0.45765 0.82198 0.0
C2316 C 0.83655 0.43496 0.82626 0.0
C2317 C 0.82625 0.41811 0.8066 0.0
C2318 C 0.82087 0.42321 0.78365 0.0
C2319 C 0.81037 0.40166 0.76563 0.0
C2320 C 0.78528 0.40085 0.7553 0.0
C2321 C 0.82507 0.39924 0.74541 0.0
C2322 C 0.81141 0.38379 0.78199 0.0
C2323 C 0.8211 0.39366 0.80542 0.0
C2324 C 0.82508 0.38066 0.82357 0.0
C2325 C 0.8174 0.35678 0.81789 0.0
C2326 C 0.80581 0.34677 0.79451 0.0
C2327 C 0.80322 0.36008 0.77617 0.0
H2328 H 0.04676 0.8698 0.09204 0.0
H2329 H 0.09404 0.85965 0.04186 0.0
H2330 H 0.0911 0.8957 0.02694 0.0
H2331 H 0.01018 0.89573 0.05096 0.0
H2332 H 1.00563 0.91649 0.07439 0.0
H2333 H 0.01057 0.88936 0.08139 0.0
H2334 H 0.04486 0.91118 0.11426 0.0
H2335 H 0.03994 0.93833 0.10738 0.0
H2336 H 0.06798 0.93259 0.1064 0.0
H2337 H 0.08305 0.93314 0.01584 0.0
H2338 H 0.07185 0.96969 0.01138 0.0
H2339 H 0.03092 0.95949 0.06904 0.0
C2340 C 0.05642 0.87504 0.07782 0.0
C2341 C 0.07067 0.86101 0.06828 0.0
C2342 C 0.08293 0.8693 0.04975 0.0
C2343 C 0.08138 0.89006 0.04098 0.0
C2344 C 0.06742 0.90328 0.05061 0.0
C2345 C 0.05512 0.89622 0.0687 0.0
C2346 C 0.04161 0.91428 0.07581 0.0
C2347 C 0.01544 0.90331 0.07032 0.0
C2348 C 0.04905 0.92472 0.10256 0.0
C2349 C 0.04863 0.93259 0.05927 0.0
C2350 C 0.06328 0.92551 0.04465 0.0
C2351 C 0.07164 0.93878 0.02733 0.0
C2352 C 0.06511 0.95967 0.02482 0.0
C2353 C 0.05055 0.96797 0.03972 0.0
C2354 C 0.04223 0.95399 0.05733 0.0
H2355 H 0.93558 0.24428 0.87824 0.0
H2356 H 0.93153 0.29235 0.94032 0.0
H2357 H 0.8989 0.30243 0.91752 0.0
H2358 H 0.91774 0.27878 0.83174 0.0
H2359 H 0.90018 0.25415 0.81111 0.0
H2360 H 0.92493 0.25124 0.83093 0.0
H2361 H 0.89875 0.21814 0.84766 0.0
H2362 H 0.87402 0.221 0.82783 0.0
H2363 H 0.87364 0.22305 0.85988 0.0
H2364 H 0.86869 0.30984 0.88848 0.0
H2365 H 0.83768 0.30965 0.8559 0.0
H2366 H 0.8542 0.25296 0.81311 0.0
C2367 C 0.92783 0.25696 0.88691 0.0
C2368 C 0.93631 0.26743 0.91138 0.0
C2369 C 0.92544 0.28384 0.92191 0.0
C2370 C 0.90689 0.28988 0.90899 0.0
C2371 C 0.89879 0.27926 0.88531 0.0
C2372 C 0.90854 0.26293 0.87423 0.0
C2373 C 0.895 0.25356 0.84877 0.0
C2374 C 0.91039 0.25979 0.8295 0.0
C2375 C 0.88474 0.22737 0.84587 0.0
C2376 C 0.87594 0.26667 0.84791 0.0
C2377 C 0.87918 0.28188 0.86903 0.0
C2378 C 0.86531 0.29723 0.87232 0.0
C2379 C 0.84713 0.29654 0.85399 0.0
C2380 C 0.84183 0.27992 0.83296 0.0
C2381 C 0.85707 0.26523 0.82947 0.0
H2382 H 0.54798 0.21704 0.53881 0.0
H2383 H 0.58391 0.22992 0.61235 0.0
H2384 H 0.58308 0.18855 0.61034 0.0
H2385 H 0.51016 0.16009 0.54654 0.0
H2386 H 0.50938 0.14687 0.51603 0.0
H2387 H 0.51258 0.1776 0.52271 0.0
H2388 H 0.54994 0.18482 0.5034 0.0
H2389 H 0.54683 0.15413 0.49683 0.0
H2390 H 0.5732 0.17244 0.51415 0.0
H2391 H 0.57899 0.14561 0.60086 0.0
H2392 H 0.57009 0.10425 0.58563 0.0
H2393 H 0.53614 0.11606 0.51766 0.0
C2394 C 0.55551 0.21109 0.55452 0.0
C2395 C 0.56604 0.22717 0.57592 0.0
C2396 C 0.57556 0.2183 0.59593 0.0
C2397 C 0.57526 0.19468 0.59489 0.0
C2398 C 0.56491 0.17938 0.57379 0.0
C2399 C 0.55478 0.18706 0.55403 0.0
C2400 C 0.54387 0.16633 0.53408 0.0
C2401 C 0.51743 0.16251 0.52956 0.0
C2402 C 0.55408 0.16964 0.51073 0.0
C2403 C 0.55056 0.14623 0.54525 0.0
C2404 C 0.56247 0.1543 0.5683 0.0
C2405 C 0.5699 0.13924 0.58271 0.0
C2406 C 0.56504 0.11548 0.57362 0.0
C2407 C 0.55323 0.10639 0.54992 0.0
C2408 C 0.54571 0.12224 0.53565 0.0
H2409 H 0.5694 0.81646 0.39047 0.0
H2410 H 0.56218 0.74742 0.40901 0.0
H2411 H 0.59552 0.74338 0.38873 0.0
H2412 H 0.5869 0.80398 0.33125 0.0
H2413 H 0.60691 0.83187 0.33434 0.0
H2414 H 0.58146 0.82866 0.34877 0.0
H2415 H 0.60713 0.84607 0.39021 0.0
H2416 H 0.63255 0.84945 0.37582 0.0
H2417 H 0.63014 0.83328 0.40072 0.0
H2418 H 0.63128 0.7478 0.36764 0.0
H2419 H 0.66685 0.76122 0.34978 0.0
H2420 H 0.65033 0.8272 0.34567 0.0
C2421 C 0.57463 0.80037 0.39009 0.0
C2422 C 0.56304 0.78224 0.40132 0.0
C2423 C 0.57065 0.76155 0.40046 0.0
C2424 C 0.58958 0.75906 0.38892 0.0
C2425 C 0.60068 0.77735 0.37815 0.0
C2426 C 0.59343 0.79758 0.37862 0.0
C2427 C 0.60882 0.81504 0.36662 0.0
C2428 C 0.5952 0.82019 0.3439 0.0
C2429 C 0.62034 0.83727 0.38441 0.0
C2430 C 0.62632 0.80185 0.36005 0.0
C2431 C 0.62119 0.77996 0.36641 0.0
C2432 C 0.63534 0.76486 0.36248 0.0
C2433 C 0.65543 0.77256 0.35225 0.0
C2434 C 0.66132 0.79524 0.34645 0.0
C2435 C 0.64629 0.80981 0.35004 0.0
H2436 H 0.0168 0.23908 0.3846 0.0
H2437 H 0.08356 0.27896 0.42239 0.0
H2438 H 0.08797 0.24568 0.44322 0.0
H2439 H 0.99741 0.21359 0.43116 0.0
H2440 H 0.9827 0.18594 0.41371 0.0
H2441 H 0.98692 0.2114 0.39945 0.0
H2442 H 0.00757 0.19232 0.36803 0.0
H2443 H 1.00349 0.16673 0.38237 0.0
H2444 H 0.0321 0.18149 0.3782 0.0
H2445 H 0.0812 0.21017 0.46511 0.0
H2446 H 0.06436 0.17668 0.48469 0.0
H2447 H 1.00369 0.15924 0.42976 0.0
C2448 C 0.03271 0.24043 0.3966 0.0
C2449 C 0.05004 0.26128 0.40167 0.0
C2450 C 0.07037 0.26285 0.41793 0.0
C2451 C 0.07295 0.24406 0.42985 0.0
C2452 C 0.05523 0.22374 0.42483 0.0
C2453 C 0.03569 0.22176 0.40818 0.0
C2454 C 0.01829 0.19899 0.4072 0.0
C2455 C 0.99498 0.20272 0.41325 0.0
C2456 C 0.01519 0.18399 0.38248 0.0
C2457 C 0.0304 0.18889 0.42679 0.0
C2458 C 0.05181 0.20319 0.43668 0.0
C2459 C 0.06475 0.19857 0.45704 0.0
C2460 C 0.05516 0.17942 0.46799 0.0
C2461 C 0.0328 0.16531 0.45863 0.0
C2462 C 0.02093 0.1696 0.43713 0.0
H2463 H 0.60984 0.28844 0.22603 0.0
H2464 H 0.58616 0.22097 0.24738 0.0
H2465 H 0.62628 0.21853 0.25699 0.0
H2466 H 0.65963 0.27853 0.20024 0.0
H2467 H 0.67901 0.30607 0.21294 0.0
H2468 H 0.64829 0.30341 0.20712 0.0
H2469 H 0.64902 0.31983 0.25176 0.0
H2470 H 0.67978 0.32259 0.25757 0.0
H2471 H 0.66101 0.30626 0.27535 0.0
H2472 H 0.66852 0.22142 0.26267 0.0
H2473 H 0.71081 0.23143 0.26792 0.0
H2474 H 0.71091 0.29847 0.24685 0.0
C2475 C 0.61312 0.27321 0.23281 0.0
C2476 C 0.59422 0.25483 0.23584 0.0
C2477 C 0.59978 0.23541 0.24497 0.0
C2478 C 0.62273 0.23375 0.25042 0.0
C2479 C 0.64073 0.25184 0.24725 0.0
C2480 C 0.63643 0.27148 0.23914 0.0
C2481 C 0.65965 0.2887 0.23876 0.0
C2482 C 0.66175 0.29452 0.21324 0.0
C2483 C 0.66253 0.31066 0.25693 0.0
C2484 C 0.67729 0.27518 0.24687 0.0
C2485 C 0.66573 0.25398 0.25168 0.0
C2486 C 0.67771 0.23813 0.2592 0.0
C2487 C 0.70202 0.24406 0.26226 0.0
C2488 C 0.71483 0.26583 0.25818 0.0
C2489 C 0.702 0.28159 0.25012 0.0
H2490 H 0.54011 0.8758 0.93863 0.0
H2491 H 0.57431 0.90155 0.88046 0.0
H2492 H 0.57613 0.94173 0.89889 0.0
H2493 H 0.50439 0.91409 0.94264 0.0
H2494 H 0.50641 0.91719 0.97502 0.0
H2495 H 0.50982 0.89107 0.95849 0.0
H2496 H 0.54984 0.89619 0.98445 0.0
H2497 H 0.54617 0.92211 0.00124 0.0
H2498 H 0.57148 0.92298 0.98692 0.0
H2499 H 0.57195 0.9797 0.92371 0.0
H2500 H 0.56374 0.01039 0.95198 0.0
H2501 H 0.53036 0.95842 0.99207 0.0
C2502 C 0.54836 0.88983 0.92981 0.0
C2503 C 0.5572 0.88532 0.90798 0.0
C2504 C 0.5677 0.9044 0.89725 0.0
C2505 C 0.56864 0.9273 0.90758 0.0
C2506 C 0.55916 0.93095 0.92878 0.0
C2507 C 0.54942 0.9126 0.93983 0.0
C2508 C 0.53974 0.92068 0.96201 0.0
C2509 C 0.51353 0.91013 0.95936 0.0
C2510 C 0.55258 0.91516 0.98501 0.0
C2511 C 0.54506 0.9465 0.96161 0.0
C2512 C 0.55647 0.95224 0.94251 0.0
C2513 C 0.56313 0.97523 0.93873 0.0
C2514 C 0.55828 0.99262 0.95493 0.0
C2515 C 0.5466 0.98715 0.97471 0.0
C2516 C 0.53979 0.96358 0.9777 0.0
H2517 H 0.93589 0.732 0.70622 0.0
H2518 H 0.98366 0.78214 0.76167 0.0
H2519 H 0.95065 0.79312 0.77793 0.0
H2520 H 0.89315 0.76622 0.69636 0.0
H2521 H 0.8683 0.74197 0.69223 0.0
H2522 H 0.89544 0.73781 0.68456 0.0
H2523 H 0.89456 0.70686 0.7128 0.0
H2524 H 0.86739 0.71093 0.72051 0.0
H2525 H 0.89158 0.71406 0.74396 0.0
H2526 H 0.91241 0.79776 0.78973 0.0
H2527 H 0.87263 0.79711 0.79535 0.0
H2528 H 0.84694 0.74582 0.73134 0.0
C2529 C 0.93938 0.74543 0.72168 0.0
C2530 C 0.96277 0.75635 0.73252 0.0
C2531 C 0.96625 0.7736 0.75288 0.0
C2532 C 0.94745 0.77993 0.7623 0.0
C2533 C 0.92478 0.76891 0.75137 0.0
C2534 C 0.92056 0.75205 0.73142 0.0
C2535 C 0.89428 0.743 0.72337 0.0
C2536 C 0.88738 0.74752 0.69759 0.0
C2537 C 0.8865 0.71717 0.72526 0.0
C2538 C 0.88443 0.75745 0.74178 0.0
C2539 C 0.90253 0.77211 0.75781 0.0
C2540 C 0.89824 0.78656 0.77697 0.0
C2541 C 0.87522 0.78625 0.77987 0.0
C2542 C 0.85591 0.77205 0.76356 0.0
C2543 C 0.86089 0.7572 0.7442 0.0
H2544 H 0.08285 0.01581 0.84967 0.0
H2545 H 0.12553 0.08602 0.86572 0.0
H2546 H 0.11685 0.0888 0.90732 0.0
H2547 H 0.03921 0.0263 0.88461 0.0
H2548 H 0.03381 0.99896 0.89568 0.0
H2549 H 0.04395 1.00126 0.8671 0.0
H2550 H 0.07881 0.9852 0.88157 0.0
H2551 H 0.06847 0.98238 0.90997 0.0
H2552 H 0.09753 0.99877 0.90945 0.0
H2553 H 0.09781 0.0871 0.94363 0.0
H2554 H 0.07729 0.07746 0.97766 0.0
H2555 H 0.05309 0.00625 0.94355 0.0
C2556 C 0.09069 0.0315 0.86219 0.0
C2557 C 0.10485 0.0508 0.85455 0.0
C2558 C 0.11457 0.07117 0.87125 0.0
C2559 C 0.10968 0.07293 0.89487 0.0
C2560 C 0.09506 0.0541 0.90172 0.0
C2561 C 0.08608 0.03353 0.88622 0.0
C2562 C 0.07056 0.01624 0.89864 0.0
C2563 C 0.04539 0.01033 0.88574 0.0
C2564 C 0.07939 0.99435 0.89999 0.0
C2565 C 0.07294 0.03018 0.92359 0.0
C2566 C 0.08641 0.05226 0.92441 0.0
C2567 C 0.08845 0.06949 0.94386 0.0
C2568 C 0.07722 0.06379 0.96343 0.0
C2569 C 0.06562 0.04078 0.96443 0.0
C2570 C 0.06287 0.0238 0.94388 0.0
H2571 H 0.83224 0.40754 0.57033 0.0
H2572 H 0.75804 0.37998 0.55373 0.0
H2573 H 0.75766 0.36955 0.59494 0.0
H2574 H 0.84415 0.36487 0.5948 0.0
H2575 H 0.86743 0.38099 0.61804 0.0
H2576 H 0.86089 0.39295 0.59126 0.0
H2577 H 0.85554 0.42936 0.61704 0.0
H2578 H 0.86211 0.41747 0.64417 0.0
H2579 H 0.83553 0.42634 0.63846 0.0
H2580 H 0.76677 0.35349 0.63224 0.0
H2581 H 0.78435 0.3328 0.66184 0.0
H2582 H 0.85266 0.3708 0.65354 0.0
C2583 C 0.81583 0.39992 0.57571 0.0
C2584 C 0.79521 0.39415 0.55919 0.0
C2585 C 0.77396 0.3844 0.56645 0.0
C2586 C 0.77362 0.37867 0.58979 0.0
C2587 C 0.7946 0.38348 0.60542 0.0
C2588 C 0.8153 0.39427 0.59872 0.0
C2589 C 0.83591 0.39382 0.61659 0.0
C2590 C 0.85305 0.38246 0.60443 0.0
C2591 C 0.84797 0.4182 0.62986 0.0
C2592 C 0.8238 0.37906 0.63317 0.0
C2593 C 0.79994 0.37402 0.62711 0.0
C2594 C 0.78534 0.35789 0.63768 0.0
C2595 C 0.79541 0.34613 0.65425 0.0
C2596 C 0.81974 0.35037 0.65949 0.0
C2597 C 0.83401 0.36755 0.64964 0.0
H2598 H 0.4363 0.05385 0.38941 0.0
H2599 H 0.42896 0.98348 0.35556 0.0
H2600 H 0.44329 0.97329 0.39412 0.0
H2601 H 0.48694 0.06126 0.41852 0.0
H2602 H 0.48459 0.07781 0.44643 0.0
H2603 H 0.46566 0.07803 0.41945 0.0
H2604 H 0.42978 0.06393 0.44018 0.0
H2605 H 0.44878 0.06401 0.46755 0.0
H2606 H 0.42704 0.03817 0.45417 0.0
H2607 H 0.4706 0.97433 0.42878 0.0
H2608 H 0.50429 0.98551 0.46127 0.0
H2609 H 0.49244 0.0538 0.47558 0.0
C2610 C 0.43691 0.03615 0.39055 0.0
C2611 C 0.43219 0.01965 0.36975 0.0
C2612 C 0.43313 0.99658 0.3714 0.0
C2613 C 0.44083 0.99046 0.3933 0.0
C2614 C 0.44716 0.00753 0.41334 0.0
C2615 C 0.4447 0.02982 0.41243 0.0
C2616 C 0.45695 0.0459 0.43513 0.0
C2617 C 0.47457 0.06695 0.42952 0.0
C2618 C 0.43959 0.05344 0.45014 0.0
C2619 C 0.46875 0.02986 0.44741 0.0
C2620 C 0.46247 0.00763 0.43487 0.0
C2621 C 0.47481 0.99122 0.43962 0.0
C2622 C 0.49404 0.99774 0.4577 0.0
C2623 C 0.50003 0.02017 0.47093 0.0
C2624 C 0.48719 0.03625 0.46612 0.0
H2625 H 0.76628 0.75436 0.08854 0.0
H2626 H 0.78856 0.6906 0.08837 0.0
H2627 H 0.79427 0.69638 0.13274 0.0
H2628 H 0.80788 0.78534 0.14248 0.0
H2629 H 0.78803 0.80096 0.15337 0.0
H2630 H 0.78639 0.79232 0.12142 0.0
H2631 H 0.7431 0.77048 0.11846 0.0
H2632 H 0.7452 0.78015 0.15018 0.0
H2633 H 0.73536 0.74973 0.13855 0.0
H2634 H 0.7957 0.70753 0.1766 0.0
H2635 H 0.79566 0.7249 0.21811 0.0
H2636 H 0.77317 0.78228 0.19133 0.0
C2637 C 0.7726 0.74177 0.09786 0.0
C2638 C 0.77695 0.72201 0.08484 0.0
C2639 C 0.78524 0.70596 0.09779 0.0
C2640 C 0.78844 0.70901 0.12306 0.0
C2641 C 0.78361 0.72839 0.13528 0.0
C2642 C 0.77624 0.74471 0.12323 0.0
C2643 C 0.77267 0.76412 0.14099 0.0
C2644 C 0.78976 0.78705 0.13947 0.0
C2645 C 0.74755 0.76619 0.13678 0.0
C2646 C 0.77833 0.75568 0.16482 0.0
C2647 C 0.78477 0.73509 0.16096 0.0
C2648 C 0.79088 0.72375 0.17989 0.0
C2649 C 0.7908 0.73383 0.20348 0.0
C2650 C 0.78455 0.75508 0.20813 0.0
C2651 C 0.77801 0.76603 0.18842 0.0
H2652 H 0.08948 0.07627 0.71154 0.0
H2653 H 0.10183 0.00843 0.71563 0.0
H2654 H 0.08998 0.99801 0.67145 0.0
H2655 H 0.03965 0.05829 0.66528 0.0
H2656 H 0.0473 0.08318 0.65035 0.0
H2657 H 0.05648 0.08545 0.68229 0.0
H2658 H 0.09912 0.10056 0.67665 0.0
H2659 H 0.09014 0.09862 0.64469 0.0
H2660 H 0.11142 0.08391 0.65553 0.0
H2661 H 0.075 0.99441 0.62698 0.0
H2662 H 0.06002 0.99846 0.58554 0.0
H2663 H 0.06059 0.06967 0.60956 0.0
C2664 C 0.08949 0.05912 0.7032 0.0
C2665 C 0.09627 0.04302 0.71719 0.0
C2666 C 0.09649 0.02097 0.70541 0.0
C2667 C 0.08985 0.01492 0.68029 0.0
C2668 C 0.08335 0.03122 0.66707 0.0
C2669 C 0.08331 0.05295 0.67809 0.0
C2670 C 0.07589 0.06737 0.65967 0.0
C2671 C 0.0535 0.07397 0.66471 0.0
C2672 C 0.09531 0.08889 0.65911 0.0
C2673 C 0.07172 0.05038 0.63655 0.0
C2674 C 0.0759 0.02955 0.64129 0.0
C2675 C 0.072 0.01075 0.62307 0.0
C2676 C 0.06351 0.01325 0.5995 0.0
C2677 C 0.05944 0.03451 0.59403 0.0
C2678 C 0.06386 0.05335 0.61291 0.0
H2679 H 0.83122 0.38362 0.43851 0.0
H2680 H 0.77864 0.41924 0.41722 0.0
H2681 H 0.76944 0.39498 0.37701 0.0
H2682 H 0.85039 0.37109 0.38044 0.0
H2683 H 0.85208 0.34254 0.3859 0.0
H2684 H 0.85715 0.36557 0.41087 0.0
H2685 H 0.82518 0.34055 0.43044 0.0
H2686 H 0.81968 0.31772 0.40526 0.0
H2687 H 0.79645 0.32978 0.41359 0.0
H2688 H 0.76223 0.36389 0.34299 0.0
H2689 H 0.75924 0.32929 0.31411 0.0
H2690 H 0.81677 0.31372 0.35792 0.0
C2691 C 0.81852 0.38702 0.42498 0.0
C2692 C 0.80601 0.40356 0.4303 0.0
C2693 C 0.78859 0.40684 0.41291 0.0
C2694 C 0.78328 0.39317 0.39025 0.0
C2695 C 0.79537 0.37632 0.38591 0.0
C2696 C 0.81263 0.3732 0.40273 0.0
C2697 C 0.82076 0.35196 0.39498 0.0
C2698 C 0.84664 0.35818 0.39291 0.0
C2699 C 0.81519 0.33395 0.41209 0.0
C2700 C 0.80584 0.34397 0.37074 0.0
C2701 C 0.7911 0.35809 0.36609 0.0
C2702 C 0.77412 0.3531 0.34599 0.0
C2703 C 0.77262 0.33344 0.32976 0.0
C2704 C 0.78845 0.31955 0.33351 0.0
C2705 C 0.80492 0.32449 0.35447 0.0
H2706 H 0.45387 0.04697 0.24502 0.0
H2707 H 0.39442 0.98853 0.23128 0.0
H2708 H 0.39744 0.98365 0.1881 0.0
H2709 H 0.44438 0.06379 0.17811 0.0
H2710 H 0.47534 0.07196 0.17943 0.0
H2711 H 0.4626 0.07749 0.20616 0.0
H2712 H 0.48827 0.05528 0.22898 0.0
H2713 H 0.50081 0.0495 0.20255 0.0
H2714 H 0.48708 0.02583 0.21688 0.0
H2715 H 0.41312 0.97698 0.15203 0.0
H2716 H 0.44127 0.96792 0.1265 0.0
H2717 H 0.49222 0.02933 0.16257 0.0
C2718 C 0.44083 0.03419 0.23239 0.0
C2719 C 0.42372 0.01846 0.24075 0.0
C2720 C 0.4073 1.00102 0.22461 0.0
C2721 C 0.40878 0.99828 0.2001 0.0
C2722 C 0.42673 0.01322 0.1922 0.0
C2723 C 0.44233 0.03115 0.20781 0.0
C2724 C 0.46284 0.04132 0.19609 0.0
C2725 C 0.4612 0.06504 0.18954 0.0
C2726 C 0.48608 0.04301 0.21208 0.0
C2727 C 0.45849 0.02359 0.17365 0.0
C2728 C 0.43671 0.00868 0.17084 0.0
C2729 C 0.42989 0.9889 0.15355 0.0
C2730 C 0.44599 0.98365 0.13944 0.0
C2731 C 0.46862 0.99785 0.14323 0.0
C2732 C 0.47478 0.01844 0.1597 0.0
H2733 H 0.77392 0.75279 0.95341 0.0
H2734 H 0.78894 0.68563 0.94034 0.0
H2735 H 0.79742 0.69299 0.89989 0.0
H2736 H 0.746 0.75399 0.89577 0.0
H2737 H 0.7588 0.784 0.89478 0.0
H2738 H 0.75553 0.7742 0.92336 0.0
H2739 H 0.79948 0.79072 0.93813 0.0
H2740 H 0.80289 0.80058 0.90952 0.0
H2741 H 0.81991 0.78186 0.92062 0.0
H2742 H 0.80245 0.70669 0.86021 0.0
H2743 H 0.80365 0.72563 0.82392 0.0
H2744 H 0.78426 0.78366 0.86186 0.0
C2745 C 0.77927 0.73977 0.94212 0.0
C2746 C 0.78085 0.71866 0.95011 0.0
C2747 C 0.78789 0.70204 0.93479 0.0
C2748 C 0.79269 0.70604 0.91173 0.0
C2749 C 0.79081 0.72693 0.90434 0.0
C2750 C 0.78452 0.74364 0.91914 0.0
C2751 C 0.78361 0.7645 0.90663 0.0
C2752 C 0.75954 0.76944 0.90503 0.0
C2753 C 0.80259 0.78568 0.91949 0.0
C2754 C 0.78889 0.75628 0.88195 0.0
C2755 C 0.79358 0.73481 0.88129 0.0
C2756 C 0.79899 0.7236 0.86059 0.0
C2757 C 0.79962 0.73456 0.84001 0.0
C2758 C 0.79441 0.7564 0.83994 0.0
C2759 C 0.78894 0.76731 0.86133 0.0
H2760 H 0.8443 0.12185 0.0565 0.0
H2761 H 0.81396 0.05963 0.08452 0.0
H2762 H 0.84768 0.04419 0.07683 0.0
H2763 H 0.85783 0.09415 0.00795 0.0
H2764 H 0.88391 0.11535 0.0062 0.0
H2765 H 0.86141 0.12403 0.02015 0.0
H2766 H 0.89045 0.14164 0.0594 0.0
H2767 H 0.91324 0.13307 0.04553 0.0
H2768 H 0.90689 0.12402 0.07383 0.0
H2769 H 0.87833 0.03236 0.05705 0.0
H2770 H 0.90444 0.0251 0.0285 0.0
H2771 H 0.91496 0.09576 0.01393 0.0
C2772 C 0.84518 0.10532 0.06187 0.0
C2773 C 0.82687 0.09179 0.07108 0.0
C2774 C 0.8282 0.07021 0.07772 0.0
C2775 C 0.8472 0.06141 0.0734 0.0
C2776 C 0.86443 0.07471 0.06283 0.0
C2777 C 0.86361 0.09633 0.05737 0.0
C2778 C 0.88164 0.10557 0.04232 0.0
C2779 C 0.87052 0.11001 0.01773 0.0
C2780 C 0.89911 0.12737 0.05611 0.0
C2781 C 0.89234 0.08541 0.03934 0.0
C2782 C 0.88239 0.06788 0.05147 0.0
C2783 C 0.88691 0.04621 0.04823 0.0
C2784 C 0.90174 0.04229 0.03193 0.0
C2785 C 0.91186 0.06005 0.01921 0.0
C2786 C 0.90753 0.08197 0.02349 0.0
H2787 H 0.37502 0.42624 0.01066 0.0
H2788 H 0.37546 0.44023 0.08769 0.0
H2789 H 0.41117 0.47161 0.09142 0.0
H2790 H 0.4339 0.43241 0.01383 0.0
H2791 H 0.43679 0.44555 0.98693 0.0
H2792 H 0.40968 0.42672 0.98984 0.0
H2793 H 0.3889 0.45911 0.98232 0.0
H2794 H 0.41608 0.47786 0.97916 0.0
H2795 H 0.39913 0.48703 0.00086 0.0
H2796 H 0.45003 0.4961 0.0876 0.0
H2797 H 0.48733 0.51515 0.07578 0.0
H2798 H 0.45994 0.48795 0.00078 0.0
C2799 C 0.38225 0.43656 0.02811 0.0
C2800 C 0.37255 0.43134 0.04888 0.0
C2801 C 0.38266 0.44443 0.07162 0.0
C2802 C 0.40288 0.46217 0.07387 0.0
C2803 C 0.41254 0.46653 0.05312 0.0
C2804 C 0.40234 0.45438 0.03059 0.0
C2805 C 0.41716 0.46108 0.01149 0.0
C2806 C 0.42483 0.4402 -0.00014 0.0
C2807 C 0.40456 0.47193 0.99233 0.0
C2808 C 0.43739 0.47872 0.0268 0.0
C2809 C 0.43455 0.48141 0.05082 0.0
C2810 C 0.4522 0.49462 0.06879 0.0
C2811 C 0.47328 0.50524 0.06199 0.0
C2812 C 0.47622 0.50299 0.03748 0.0
C2813 C 0.45792 0.49004 0.01964 0.0
H2814 H 0.40349 0.58141 0.75488 0.0
H2815 H 0.36818 0.54241 0.80532 0.0
H2816 H 0.34525 0.57106 0.81114 0.0
H2817 H 0.41 0.63586 0.78604 0.0
H2818 H 0.40442 0.6497 0.76007 0.0
H2819 H 0.41577 0.62455 0.75702 0.0
H2820 H 0.38134 0.60439 0.72324 0.0
H2821 H 0.36976 0.62951 0.72653 0.0
H2822 H 0.35215 0.60162 0.72927 0.0
H2823 H 0.32858 0.60491 0.81441 0.0
H2824 H 0.32171 0.6441 0.81736 0.0
H2825 H 0.36843 0.66185 0.76607 0.0
C2826 C 0.39064 0.57868 0.76681 0.0
C2827 C 0.38754 0.5596 0.77957 0.0
C2828 C 0.37079 0.55682 0.79528 0.0
C2829 C 0.35755 0.57291 0.79858 0.0
C2830 C 0.36112 0.59157 0.78591 0.0
C2831 C 0.37724 0.59461 0.77034 0.0
C2832 C 0.37896 0.61724 0.76053 0.0
C2833 C 0.40376 0.63274 0.76629 0.0
C2834 C 0.37003 0.61292 0.73327 0.0
C2835 C 0.36262 0.6271 0.77448 0.0
C2836 C 0.35184 0.61162 0.78829 0.0
C2837 C 0.33669 0.61711 0.80349 0.0
C2838 C 0.33291 0.63929 0.8051 0.0
C2839 C 0.34467 0.6556 0.79196 0.0
C2840 C 0.35929 0.64939 0.77614 0.0
H2841 H 0.20306 0.58702 0.57838 0.0
H2842 H 0.21609 0.57572 0.50495 0.0
H2843 H 0.17498 0.55593 0.49139 0.0
H2844 H 0.14895 0.53559 0.57456 0.0
H2845 H 0.13716 0.55498 0.59317 0.0
H2846 H 0.16782 0.55752 0.5975 0.0
H2847 H 0.1724 0.60084 0.59287 0.0
H2848 H 0.14176 0.59725 0.58586 0.0
H2849 H 0.16028 0.60813 0.56484 0.0
H2850 H 0.13214 0.54588 0.48488 0.0
H2851 H 0.09052 0.54105 0.4871 0.0
H2852 H 0.10676 0.56685 0.56365 0.0
C2853 C 0.19746 0.57855 0.55988 0.0
C2854 C 0.21223 0.58203 0.54268 0.0
C2855 C 0.20471 0.57224 0.51827 0.0
C2856 C 0.18143 0.56131 0.51045 0.0
C2857 C 0.16649 0.56067 0.52745 0.0
C2858 C 0.17425 0.56859 0.55182 0.0
C2859 C 0.15476 0.5708 0.56555 0.0
C2860 C 0.15202 0.55366 0.58375 0.0
C2861 C 0.1575 0.59574 0.57797 0.0
C2862 C 0.1351 0.56404 0.545 0.0
C2863 C 0.14198 0.55775 0.52327 0.0
C2864 C 0.1265 0.55069 0.5018 0.0
C2865 C 0.10309 0.54864 0.50303 0.0
C2866 C 0.09611 0.55458 0.52535 0.0
C2867 C 0.11218 0.56297 0.54633 0.0
H2868 H 0.75239 0.0131 0.77828 0.0
H2869 H 0.69494 0.97884 0.72185 0.0
H2870 H 0.70673 0.94238 0.72274 0.0
H2871 H 0.79332 0.97516 0.76218 0.0
H2872 H 0.80323 0.97606 0.79382 0.0
H2873 H 0.79523 1.00071 0.78322 0.0
H2874 H 0.76629 1.00001 0.81378 0.0
H2875 H 0.77398 0.97546 0.82433 0.0
H2876 H 0.74417 0.97392 0.81323 0.0
H2877 H 0.71802 0.90894 0.73649 0.0
H2878 H 0.72833 0.88104 0.76229 0.0
H2879 H 0.77694 0.93699 0.81071 0.0
C2880 C 0.74288 0.99815 0.76543 0.0
C2881 C 0.72285 0.99859 0.75011 0.0
C2882 C 0.7105 0.97874 0.73371 0.0
C2883 C 0.71715 0.95802 0.73394 0.0
C2884 C 0.73626 0.95775 0.75043 0.0
C2885 C 0.74911 0.97741 0.76571 0.0
C2886 C 0.76593 0.97196 0.78483 0.0
C2887 C 0.79092 0.98152 0.78076 0.0
C2888 C 0.76233 0.98085 0.81052 0.0
C2889 C 0.75889 0.94603 0.77945 0.0
C2890 C 0.74245 0.93813 0.75896 0.0
C2891 C 0.73126 0.91483 0.75221 0.0
C2892 C 0.73682 0.89925 0.76705 0.0
C2893 C 0.75275 0.90743 0.7885 0.0
C2894 C 0.7644 0.93079 0.79442 0.0
H2895 H 0.75372 0.93737 0.498 0.0
H2896 H 0.74874 0.91517 0.56807 0.0
H2897 H 0.71542 0.93208 0.5715 0.0
H2898 H 0.73586 0.99178 0.51242 0.0
H2899 H 0.71984 0.9889 0.48261 0.0
H2900 H 0.74508 0.97756 0.48685 0.0
H2901 H 0.72082 0.93708 0.46582 0.0
H2902 H 0.6957 0.94841 0.46136 0.0
H2903 H 0.69486 0.92381 0.47695 0.0
H2904 H 0.68118 0.94881 0.56618 0.0
H2905 H 0.64653 0.96164 0.55073 0.0
H2906 H 0.67338 0.97172 0.48395 0.0
C2907 C 0.7459 0.93642 0.51426 0.0
C2908 C 0.7539 0.9251 0.53281 0.0
C2909 C 0.74297 0.9239 0.55366 0.0
C2910 C 0.72412 0.93354 0.55585 0.0
C2911 C 0.71654 0.94442 0.53713 0.0
C2912 C 0.72704 0.94587 0.5167 0.0
C2913 C 0.71444 0.95688 0.49837 0.0
C2914 C 0.72972 0.98017 0.49486 0.0
C2915 C 0.70595 0.94056 0.47422 0.0
C2916 C 0.69457 0.96024 0.51115 0.0
C2917 C 0.69642 0.95357 0.53377 0.0
C2918 C 0.6796 0.95428 0.54859 0.0
C2919 C 0.66007 0.96151 0.53974 0.0
C2920 C 0.65752 0.96733 0.51622 0.0
C2921 C 0.67512 0.96719 0.50198 0.0
H2922 H 0.39641 0.4477 0.79114 0.0
H2923 H 0.37901 0.44766 0.71444 0.0
H2924 H 0.34847 0.41143 0.71159 0.0
H2925 H 0.3916 0.38919 0.78821 0.0
H2926 H 0.37947 0.38612 0.81563 0.0
H2927 H 0.39748 0.41342 0.81207 0.0
H2928 H 0.3646 0.43317 0.82064 0.0
H2929 H 0.34665 0.4057 0.82422 0.0
H2930 H 0.33631 0.42238 0.80274 0.0
H2931 H 0.32482 0.37239 0.71612 0.0
H2932 H 0.30681 0.33506 0.72844 0.0
H2933 H 0.33753 0.36172 0.80271 0.0
C2934 C 0.38551 0.44043 0.77397 0.0
C2935 C 0.38953 0.45043 0.75305 0.0
C2936 C 0.37569 0.44029 0.73066 0.0
C2937 C 0.35844 0.41976 0.72891 0.0
C2938 C 0.35525 0.40988 0.7498 0.0
C2939 C 0.36811 0.42011 0.77202 0.0
C2940 C 0.36251 0.40516 0.79136 0.0
C2941 C 0.38405 0.39805 0.80244 0.0
C2942 C 0.35187 0.41734 0.81089 0.0
C2943 C 0.34487 0.38469 0.77649 0.0
C2944 C 0.34103 0.38767 0.75253 0.0
C2945 C 0.32728 0.37009 0.73491 0.0
C2946 C 0.31731 0.34894 0.74197 0.0
C2947 C 0.32083 0.34578 0.76642 0.0
C2948 C 0.33438 0.36397 0.78394 0.0
H2949 H 0.21128 0.62376 0.29896 0.0
H2950 H 0.23984 0.59379 0.23961 0.0
H2951 H 0.26468 0.63184 0.23779 0.0
H2952 H 0.20204 0.66752 0.27605 0.0
H2953 H 0.21023 0.68963 0.30219 0.0
H2954 H 0.20102 0.65988 0.30593 0.0
H2955 H 0.23926 0.66243 0.33396 0.0
H2956 H 0.24809 0.69267 0.33135 0.0
H2957 H 0.26651 0.67385 0.32426 0.0
H2958 H 0.27804 0.67211 0.23499 0.0
H2959 H 0.28548 0.71383 0.23628 0.0
H2960 H 0.24461 0.71819 0.29382 0.0
C2961 C 0.22367 0.62509 0.28648 0.0
C2962 C 0.22363 0.60614 0.26932 0.0
C2963 C 0.23978 0.60821 0.25301 0.0
C2964 C 0.25395 0.62974 0.25182 0.0
C2965 C 0.25194 0.64858 0.26742 0.0
C2966 C 0.23777 0.64649 0.28499 0.0
C2967 C 0.23607 0.66981 0.29679 0.0
C2968 C 0.21084 0.6718 0.29509 0.0
C2969 C 0.24821 0.67499 0.32315 0.0
C2970 C 0.24953 0.68499 0.28132 0.0
C2971 C 0.25915 0.67243 0.26517 0.0
C2972 C 0.2714 0.6823 0.24819 0.0
C2973 C 0.2753 0.70601 0.24885 0.0
C2974 C 0.26642 0.71939 0.2658 0.0
C2975 C 0.2525 0.70862 0.28149 0.0
H2976 H 0.5103 0.68654 0.45356 0.0
H2977 H 0.50859 0.71988 0.52538 0.0
H2978 H 0.51838 0.68681 0.54255 0.0
H2979 H 0.48303 0.62827 0.46421 0.0
H2980 H 0.49988 0.61394 0.44623 0.0
H2981 H 0.49429 0.64084 0.43932 0.0
H2982 H 0.53816 0.65842 0.44271 0.0
H2983 H 0.54388 0.6316 0.44975 0.0
H2984 H 0.55704 0.6581 0.46999 0.0
H2985 H 0.53039 0.65018 0.55295 0.0
H2986 H 0.53805 0.61179 0.55504 0.0
H2987 H 0.52784 0.59788 0.47689 0.0
C2988 C 0.51225 0.68704 0.47294 0.0
C2989 C 0.50897 0.70666 0.48802 0.0
C2990 C 0.51114 0.7057 0.51322 0.0
C2991 C 0.51678 0.68678 0.52324 0.0
C2992 C 0.51986 0.66793 0.5081 0.0
C2993 C 0.51729 0.66766 0.48338 0.0
C2994 C 0.52023 0.64439 0.47125 0.0
C2995 C 0.49803 0.63107 0.45424 0.0
C2996 C 0.54106 0.64836 0.4576 0.0
C2997 C 0.52476 0.63171 0.4929 0.0
C2998 C 0.52497 0.64598 0.514 0.0
C2999 C 0.5299 0.63888 0.53642 0.0
C3000 C 0.53435 0.61682 0.53746 0.0
C3001 C 0.53338 0.6011 0.51631 0.0
C3002 C 0.52848 0.60899 0.4936 0.0
H3003 H 0.65511 0.33295 0.66949 0.0
H3004 H 0.62133 0.26116 0.64253 0.0
H3005 H 0.64948 0.24899 0.67061 0.0
H3006 H 0.71325 0.32769 0.67729 0.0
H3007 H 0.72288 0.34703 0.70545 0.0
H3008 H 0.6993 0.3506 0.68448 0.0
H3009 H 0.67317 0.34783 0.71777 0.0
H3010 H 0.69677 0.34435 0.73885 0.0
H3011 H 0.66946 0.32313 0.73349 0.0
H3012 H 0.68164 0.24406 0.70112 0.0
H3013 H 0.71604 0.24691 0.73136 0.0
H3014 H 0.73121 0.32156 0.7388 0.0
C3015 C 0.65358 0.3147 0.66973 0.0
C3016 C 0.6358 0.29794 0.65373 0.0
C3017 C 0.63458 0.27427 0.65459 0.0
C3018 C 0.65057 0.26718 0.67054 0.0
C3019 C 0.66794 0.28392 0.68589 0.0
C3020 C 0.66953 0.30722 0.68583 0.0
C3021 C 0.6902 0.32145 0.70427 0.0
C3022 C 0.70743 0.33765 0.69214 0.0
C3023 C 0.68191 0.33501 0.7248 0.0
C3024 C 0.70055 0.30257 0.71364 0.0
C3025 C 0.68699 0.28104 0.70316 0.0
C3026 C 0.69236 0.26085 0.70937 0.0
C3027 C 0.71195 0.26261 0.72663 0.0
C3028 C 0.72649 0.28435 0.73736 0.0
C3029 C 0.72063 0.30464 0.73069 0.0
H3030 H 1.00168 0.34653 0.01553 0.0
H3031 H 0.02929 0.34209 0.94811 0.0
H3032 H 0.03622 0.38429 0.95 0.0
H3033 H 0.97288 0.39188 0.00563 0.0
H3034 H 0.98054 0.40689 0.03615 0.0
H3035 H 0.97796 0.37624 0.0303 0.0
H3036 H 0.01961 0.38215 0.05244 0.0
H3037 H 0.02215 0.4128 0.05852 0.0
H3038 H 0.04304 0.40212 0.0432 0.0
H3039 H 0.03987 0.42731 0.95826 0.0
H3040 H 0.0414 0.46784 0.973 0.0
H3041 H 0.01193 0.44717 0.03576 0.0
C3042 C 0.00942 0.35442 0.00126 0.0
C3043 C 0.01503 0.34037 0.98163 0.0
C3044 C 0.02496 0.3519 0.96345 0.0
C3045 C 0.02889 0.37609 0.96431 0.0
C3046 C 0.02303 0.38923 0.98359 0.0
C3047 C 0.0137 0.3789 0.00194 0.0
C3048 C 0.0094 0.39748 0.02078 0.0
C3049 C 0.98366 0.39284 0.02336 0.0
C3050 C 0.02444 0.3987 0.04519 0.0
C3051 C 0.01719 0.41968 0.00981 0.0
C3052 C 0.02514 0.41432 0.98842 0.0
C3053 C 0.03373 0.43158 0.97503 0.0
C3054 C 0.03463 0.45477 0.98367 0.0
C3055 C 0.02701 0.46125 0.00568 0.0
C3056 C 0.01778 0.44312 0.01876 0.0
H3057 H 0.01654 0.82601 0.18195 0.0
H3058 H 0.9963 0.76895 0.12275 0.0
H3059 H 0.95846 0.75656 0.13612 0.0
H3060 H 0.99241 0.79573 0.2256 0.0
H3061 H 0.98292 0.81934 0.24036 0.0
H3062 H 0.00719 0.82517 0.22437 0.0
H3063 H 0.98663 0.84978 0.19869 0.0
H3064 H 0.96204 0.84355 0.21437 0.0
H3065 H 0.95814 0.83702 0.18193 0.0
H3066 H 0.92407 0.74844 0.15744 0.0
H3067 H 0.89796 0.74253 0.18798 0.0
H3068 H 0.94027 0.80409 0.23387 0.0
C3069 C 1.00403 0.8111 0.1716 0.0
C3070 C 0.00942 0.79857 0.15117 0.0
C3071 C 0.99264 0.77892 0.13839 0.0
C3072 C 0.97098 0.77183 0.14574 0.0
C3073 C 0.96621 0.78455 0.1659 0.0
C3074 C 0.98232 0.80367 0.17879 0.0
C3075 C 0.97355 0.81312 0.20097 0.0
C3076 C 0.98999 0.81333 0.22419 0.0
C3077 C 0.96987 0.83731 0.19886 0.0
C3078 C 0.95059 0.79559 0.19928 0.0
C3079 C 0.94637 0.77969 0.17846 0.0
C3080 C 0.927 0.76099 0.17358 0.0
C3081 C 0.91215 0.75786 0.19089 0.0
C3082 C 0.91684 0.77321 0.21287 0.0
C3083 C 0.93592 0.79265 0.2168 0.0
H3084 H 0.51765 0.34002 0.17036 0.0
H3085 H 0.53627 0.28672 0.12389 0.0
H3086 H 0.5425 0.31282 0.0933 0.0
H3087 H 0.48895 0.36454 0.12106 0.0
H3088 H 0.49966 0.39361 0.13687 0.0
H3089 H 0.49363 0.3697 0.15358 0.0
H3090 H 0.53555 0.38235 0.17682 0.0
H3091 H 0.5416 0.40637 0.16046 0.0
H3092 H 0.5595 0.38608 0.16007 0.0
H3093 H 0.54998 0.34614 0.06925 0.0
H3094 H 0.56137 0.38453 0.05605 0.0
H3095 H 0.53894 0.41592 0.11882 0.0
C3096 C 0.52267 0.33365 0.1536 0.0
C3097 C 0.52639 0.31126 0.14954 0.0
C3098 C 0.53325 0.30377 0.12744 0.0
C3099 C 0.53669 0.31843 0.10986 0.0
C3100 C 0.53309 0.34051 0.11457 0.0
C3101 C 0.52626 0.34806 0.13595 0.0
C3102 C 0.52542 0.37313 0.13759 0.0
C3103 C 0.50043 0.37537 0.13726 0.0
C3104 C 0.54149 0.38784 0.16006 0.0
C3105 C 0.53419 0.37895 0.11451 0.0
C3106 C 0.5378 0.35974 0.10103 0.0
C3107 C 0.54694 0.3612 0.07952 0.0
C3108 C 0.55327 0.38299 0.07209 0.0
C3109 C 0.55078 0.40293 0.08638 0.0
C3110 C 0.54063 0.40077 0.10748 0.0
H3111 H 0.96921 0.33949 0.33764 0.0
H3112 H 0.97884 0.27476 0.30378 0.0
H3113 H 0.93754 0.26364 0.28496 0.0
H3114 H 0.91513 0.31937 0.35265 0.0
H3115 H 0.90344 0.34333 0.34579 0.0
H3116 H 0.93418 0.34754 0.35394 0.0
H3117 H 0.94113 0.36365 0.31417 0.0
H3118 H 0.9104 0.35991 0.30618 0.0
H3119 H 0.92619 0.34686 0.28578 0.0
H3120 H 0.89365 0.25745 0.27447 0.0
H3121 H 0.85265 0.25798 0.26923 0.0
H3122 H 0.87058 0.3277 0.30851 0.0
C3123 C 0.96291 0.32342 0.32533 0.0
C3124 C 0.97778 0.30837 0.32158 0.0
C3125 C 0.96837 0.28704 0.30621 0.0
C3126 C 0.94471 0.28046 0.29573 0.0
C3127 C 0.93047 0.29544 0.30044 0.0
C3128 C 0.9394 0.31677 0.31442 0.0
C3129 C 0.92029 0.32942 0.31726 0.0
C3130 C 0.91814 0.33525 0.344 0.0
C3131 C 0.92477 0.35126 0.30513 0.0
C3132 C 0.89891 0.31149 0.30367 0.0
C3133 C 0.9053 0.29207 0.29402 0.0
C3134 C 0.88868 0.27276 0.28164 0.0
C3135 C 0.86519 0.27326 0.27883 0.0
C3136 C 0.85787 0.29294 0.2882 0.0
C3137 C 0.87527 0.31243 0.30077 0.0
H3138 H 0.04845 0.69622 0.64103 0.0
H3139 H 0.97766 0.67127 0.65261 0.0
H3140 H 0.97305 0.63697 0.62203 0.0
H3141 H 0.04048 0.67512 0.57582 0.0
H3142 H 0.0672 0.66619 0.57749 0.0
H3143 H 0.06462 0.68989 0.59877 0.0
H3144 H 0.07655 0.66904 0.63406 0.0
H3145 H 0.07901 0.64525 0.61284 0.0
H3146 H 0.06042 0.64011 0.63538 0.0
H3147 H 0.97637 0.60435 0.5926 0.0
H3148 H 0.9873 0.57508 0.56515 0.0
H3149 H 0.05617 0.61967 0.57141 0.0
C3150 C 0.03183 0.68379 0.63657 0.0
C3151 C 0.01312 0.68668 0.64875 0.0
C3152 C 0.99198 0.6696 0.6432 0.0
C3153 C 0.98925 0.65003 0.6259 0.0
C3154 C 0.00796 0.64748 0.61441 0.0
C3155 C 0.0289 0.66381 0.61945 0.0
C3156 C 0.04659 0.65578 0.60552 0.0
C3157 C 0.05523 0.67276 0.58838 0.0
C3158 C 0.06684 0.65235 0.62299 0.0
C3159 C 0.0321 0.63273 0.59154 0.0
C3160 C 0.00994 0.62831 0.59723 0.0
C3161 C 0.99358 0.60773 0.5878 0.0
C3162 C 0.99994 0.59117 0.57223 0.0
C3163 C 0.02238 0.59521 0.56584 0.0
C3164 C 0.03868 0.61638 0.57552 0.0
H3165 H 0.63105 0.79016 0.84447 0.0
H3166 H 0.62035 0.84326 0.80208 0.0
H3167 H 0.65438 0.83945 0.78237 0.0
H3168 H 0.69132 0.80548 0.85579 0.0
H3169 H 0.69516 0.77647 0.85258 0.0
H3170 H 0.66889 0.78195 0.86134 0.0
H3171 H 0.64468 0.75206 0.82532 0.0
H3172 H 0.67096 0.74629 0.8167 0.0
H3173 H 0.65098 0.75484 0.79525 0.0
H3174 H 0.69277 0.83133 0.76918 0.0
H3175 H 0.72875 0.81926 0.76332 0.0
H3176 H 0.71489 0.77109 0.81409 0.0
C3177 C 0.6354 0.80053 0.83049 0.0
C3178 C 0.62222 0.81664 0.82456 0.0
C3179 C 0.62931 0.83028 0.80661 0.0
C3180 C 0.64893 0.82833 0.79542 0.0
C3181 C 0.66162 0.81247 0.80197 0.0
C3182 C 0.65476 0.7985 0.81886 0.0
C3183 C 0.67143 0.78303 0.8231 0.0
C3184 C 0.68235 0.78698 0.84979 0.0
C3185 C 0.65876 0.75754 0.8146 0.0
C3186 C 0.68952 0.79118 0.80703 0.0
C3187 C 0.68333 0.80794 0.79463 0.0
C3188 C 0.69741 0.8181 0.77876 0.0
C3189 C 0.71798 0.81109 0.77548 0.0
C3190 C 0.72496 0.79413 0.78804 0.0
C3191 C 0.71027 0.78407 0.80407 0.0
H3192 H 0.48879 0.49621 0.68992 0.0
H3193 H 0.45941 0.5554 0.70113 0.0
H3194 H 0.47191 0.56775 0.66356 0.0
H3195 H 0.53872 0.52382 0.66624 0.0
H3196 H 0.53764 0.49918 0.64424 0.0
H3197 H 0.52632 0.49506 0.67193 0.0
H3198 H 0.48665 0.47196 0.64759 0.0
H3199 H 0.49798 0.4759 0.61986 0.0
H3200 H 0.47218 0.48491 0.62508 0.0
H3201 H 0.48624 0.57261 0.62335 0.0
H3202 H 0.50256 0.57017 0.58505 0.0
H3203 H 0.52401 0.50898 0.6016 0.0
C3204 C 0.48511 0.51188 0.68462 0.0
C3205 C 0.4732 0.52489 0.69863 0.0
C3206 C 0.46852 0.54513 0.69078 0.0
C3207 C 0.47555 0.55229 0.66944 0.0
C3208 C 0.48718 0.539 0.65604 0.0
C3209 C 0.4919 0.51921 0.66336 0.0
C3210 C 0.50429 0.50775 0.64558 0.0
C3211 C 0.52817 0.50639 0.65773 0.0
C3212 C 0.48939 0.48371 0.63385 0.0
C3213 C 0.50632 0.52445 0.62741 0.0
C3214 C 0.49599 0.54217 0.63348 0.0
C3215 C 0.49451 0.55889 0.61854 0.0
C3216 C 0.5037 0.55736 0.59682 0.0
C3217 C 0.51458 0.53951 0.59054 0.0
C3218 C 0.51607 0.52304 0.6062 0.0
H3219 H 0.77152 0.20161 0.01252 0.0
H3220 H 0.78928 0.14078 0.97903 0.0
H3221 H 0.79116 0.15727 0.94125 0.0
H3222 H 0.73205 0.20361 0.97169 0.0
H3223 H 0.7371 0.23436 0.97174 0.0
H3224 H 0.74702 0.22364 0.99823 0.0
H3225 H 0.78878 0.24728 0.99834 0.0
H3226 H 0.779 0.25853 0.97179 0.0
H3227 H 0.80233 0.24431 0.9718 0.0
H3228 H 0.77935 0.17307 0.90558 0.0
H3229 H 0.7547 0.18677 0.8751 0.0
H3230 H 0.7419 0.23606 0.93074 0.0
C3231 C 0.77678 0.19225 0.99749 0.0
C3232 C 0.78002 0.16994 0.99843 0.0
C3233 C 0.78676 0.15799 0.97858 0.0
C3234 C 0.78807 0.16733 0.95713 0.0
C3235 C 0.78288 0.18866 0.95607 0.0
C3236 C 0.77776 0.20122 0.97595 0.0
C3237 C 0.76789 0.22092 0.96908 0.0
C3238 C 0.74464 0.22054 0.9782 0.0
C3239 C 0.78555 0.24414 0.97828 0.0
C3240 C 0.76492 0.21527 0.94196 0.0
C3241 C 0.77502 0.19757 0.93485 0.0
C3242 C 0.77191 0.1873 0.91085 0.0
C3243 C 0.75762 0.19483 0.89377 0.0
C3244 C 0.74618 0.21188 0.90106 0.0
C3245 C 0.75041 0.22274 0.92514 0.0
H3246 H 0.14181 0.58232 0.18051 0.0
H3247 H 0.16581 0.51995 0.16768 0.0
H3248 H 0.14632 0.51291 0.12555 0.0
H3249 H 0.08883 0.55785 0.15663 0.0
H3250 H 0.08155 0.58162 0.14342 0.0
H3251 H 0.10405 0.5872 0.16887 0.0
H3252 H 0.13235 0.61045 0.14505 0.0
H3253 H 0.11082 0.60473 0.1184 0.0
H3254 H 0.13806 0.59721 0.11696 0.0
H3255 H 0.11568 0.5058 0.09191 0.0
H3256 H 0.07851 0.50159 0.06571 0.0
H3257 H 0.07337 0.568 0.09992 0.0
C3258 C 0.14397 0.56788 0.16842 0.0
C3259 C 0.15518 0.55166 0.17697 0.0
C3260 C 0.15717 0.5325 0.16115 0.0
C3261 C 0.14633 0.5285 0.13724 0.0
C3262 C 0.13367 0.54381 0.1298 0.0
C3263 C 0.13265 0.56333 0.14484 0.0
C3264 C 0.11395 0.5741 0.13467 0.0
C3265 C 0.09606 0.57523 0.15192 0.0
C3266 C 0.1244 0.59805 0.12836 0.0
C3267 C 0.10371 0.5568 0.11237 0.0
C3268 C 0.11559 0.53969 0.10963 0.0
C3269 C 0.10699 0.51969 0.09292 0.0
C3270 C 0.08598 0.51737 0.07829 0.0
C3271 C 0.07441 0.53518 0.08025 0.0
C3272 C 0.08292 0.55486 0.09762 0.0
H3273 H 0.80467 0.81287 0.46718 0.0
H3274 H 0.7871 0.87875 0.46535 0.0
H3275 H 0.78251 0.87227 0.42086 0.0
H3276 H 0.8371 0.81399 0.41997 0.0
H3277 H 0.82591 0.78402 0.40708 0.0
H3278 H 0.82634 0.79291 0.43874 0.0
H3279 H 0.78218 0.77492 0.43404 0.0
H3280 H 0.78179 0.76565 0.40242 0.0
H3281 H 0.76292 0.78325 0.41164 0.0
H3282 H 0.78347 0.86064 0.37732 0.0
H3283 H 0.78488 0.84245 0.33648 0.0
H3284 H 0.80012 0.7828 0.36527 0.0
C3285 C 0.79939 0.82568 0.45734 0.0
C3286 C 0.79615 0.84629 0.46972 0.0
C3287 C 0.78934 0.8627 0.45627 0.0
C3288 C 0.78688 0.85926 0.43099 0.0
C3289 C 0.79082 0.83909 0.41938 0.0
C3290 C 0.79636 0.82228 0.432 0.0
C3291 C 0.7993 0.80204 0.41492 0.0
C3292 C 0.82362 0.79802 0.42052 0.0
C3293 C 0.78043 0.78016 0.41581 0.0
C3294 C 0.79576 0.81065 0.39084 0.0
C3295 C 0.79073 0.832 0.39394 0.0
C3296 C 0.78701 0.84376 0.37463 0.0
C3297 C 0.78782 0.8332 0.35144 0.0
C3298 C 0.79221 0.811 0.34753 0.0
C3299 C 0.79665 0.79974 0.36763 0.0
H3300 H 0.46969 0.48949 0.83891 0.0
H3301 H 0.49077 0.5612 0.829 0.0
H3302 H 0.50851 0.5717 0.87221 0.0
H3303 H 0.45434 0.5024 0.899 0.0
H3304 H 0.46328 0.47821 0.90958 0.0
H3305 H 0.45258 0.4768 0.87807 0.0
H3306 H 0.49048 0.46758 0.86673 0.0
H3307 H 0.50066 0.46875 0.89824 0.0
H3308 H 0.51796 0.48668 0.88044 0.0
H3309 H 0.52526 0.57369 0.91651 0.0
H3310 H 0.53633 0.5677 0.95862 0.0
H3311 H 0.50185 0.49516 0.93976 0.0
C3312 C 0.47811 0.5074 0.84589 0.0
C3313 C 0.47929 0.52455 0.83068 0.0
C3314 C 0.48987 0.54786 0.84043 0.0
C3315 C 0.5 0.55391 0.86488 0.0
C3316 C 0.49884 0.53649 0.87937 0.0
C3317 C 0.48769 0.51378 0.87031 0.0
C3318 C 0.48779 0.49847 0.88979 0.0
C3319 C 0.46303 0.48838 0.89438 0.0
C3320 C 0.49998 0.47925 0.8834 0.0
C3321 C 0.50159 0.51586 0.91109 0.0
C3322 C 0.50776 0.53774 0.90478 0.0
C3323 C 0.52045 0.55664 0.92158 0.0
C3324 C 0.52669 0.5531 0.94542 0.0
C3325 C 0.52027 0.5309 0.95221 0.0
C3326 C 0.50756 0.51211 0.93482 0.0
H3327 H 0.75856 0.15622 0.13657 0.0
H3328 H 0.81604 0.19023 0.1037 0.0
H3329 H 0.82731 0.2217 0.13839 0.0
H3330 H 0.7399 0.20115 0.15395 0.0
H3331 H 0.73282 0.1945 0.18286 0.0
H3332 H 0.73286 0.1716 0.15951 0.0
H3333 H 0.76272 0.15717 0.18721 0.0
H3334 H 0.76173 0.17938 0.21106 0.0
H3335 H 0.78905 0.17739 0.20224 0.0
H3336 H 0.8275 0.25232 0.17227 0.0
H3337 H 0.81985 0.27755 0.20654 0.0
H3338 H 0.75969 0.22418 0.21321 0.0
C3339 C 0.77404 0.16986 0.13725 0.0
C3340 C 0.78645 0.17116 0.11784 0.0
C3341 C 0.80655 0.18909 0.11881 0.0
C3342 C 0.81303 0.20697 0.13832 0.0
C3343 C 0.79943 0.20603 0.15658 0.0
C3344 C 0.78075 0.18759 0.15654 0.0
C3345 C 0.7675 0.1917 0.17682 0.0
C3346 C 0.74177 0.18964 0.16771 0.0
C3347 C 0.77044 0.17545 0.19543 0.0
C3348 C 0.78023 0.21614 0.18676 0.0
C3349 C 0.79906 0.22392 0.17552 0.0
C3350 C 0.81309 0.24627 0.18159 0.0
C3351 C 0.80835 0.26057 0.20065 0.0
C3352 C 0.78946 0.25236 0.21267 0.0
C3353 C 0.77479 0.23035 0.20495 0.0
H3354 H 0.17456 0.57988 0.32799 0.0
H3355 H 0.14021 0.50788 0.30274 0.0
H3356 H 0.1161 0.50845 0.33513 0.0
H3357 H 0.16668 0.58448 0.39362 0.0
H3358 H 0.15964 0.61189 0.39204 0.0
H3359 H 0.17994 0.60345 0.37404 0.0
H3360 H 0.15518 0.61012 0.33591 0.0
H3361 H 0.13424 0.61758 0.35338 0.0
H3362 H 0.12527 0.59436 0.32835 0.0
H3363 H 0.09011 0.51927 0.36346 0.0
H3364 H 0.06601 0.53882 0.38707 0.0
H3365 H 0.11382 0.60491 0.38779 0.0
C3366 C 0.16281 0.56387 0.33006 0.0
C3367 C 0.15905 0.54386 0.31294 0.0
C3368 C 0.14343 0.52331 0.3159 0.0
C3369 C 0.12956 0.52357 0.33413 0.0
C3370 C 0.13171 0.54449 0.34887 0.0
C3371 C 0.14817 0.56426 0.34714 0.0
C3372 C 0.14378 0.58562 0.36064 0.0
C3373 C 0.16369 0.59702 0.38133 0.0
C3374 C 0.13936 0.60291 0.34355 0.0
C3375 C 0.12207 0.57492 0.36996 0.0
C3376 C 0.11555 0.55118 0.36343 0.0
C3377 C 0.09522 0.53779 0.36894 0.0
C3378 C 0.08154 0.54899 0.38197 0.0
C3379 C 0.08807 0.57327 0.3886 0.0
C3380 C 0.10843 0.58635 0.38245 0.0
H3381 H 0.79711 0.86895 0.62346 0.0
H3382 H 0.80383 0.8064 0.58116 0.0
H3383 H 0.79686 0.78533 0.61518 0.0
H3384 H 0.82648 0.86078 0.67846 0.0
H3385 H 0.80826 0.87097 0.69804 0.0
H3386 H 0.81093 0.88158 0.66971 0.0
H3387 H 0.76647 0.86857 0.65712 0.0
H3388 H 0.76367 0.85811 0.68554 0.0
H3389 H 0.7516 0.839 0.65761 0.0
H3390 H 0.79769 0.77321 0.6539 0.0
H3391 H 0.79792 0.76672 0.69543 0.0
H3392 H 0.78544 0.83444 0.71516 0.0
C3393 C 0.79648 0.85068 0.62133 0.0
C3394 C 0.80117 0.83924 0.59972 0.0
C3395 C 0.80057 0.81548 0.5976 0.0
C3396 C 0.79655 0.80335 0.6168 0.0
C3397 C 0.79303 0.81515 0.63812 0.0
C3398 C 0.79244 0.83809 0.64062 0.0
C3399 C 0.78933 0.84632 0.66639 0.0
C3400 C 0.80998 0.86609 0.67887 0.0
C3401 C 0.76639 0.85342 0.66668 0.0
C3402 C 0.78888 0.8245 0.6778 0.0
C3403 C 0.79139 0.80704 0.66094 0.0
C3404 C 0.79466 0.7863 0.66709 0.0
C3405 C 0.7948 0.78288 0.691 0.0
C3406 C 0.79051 0.79957 0.7087 0.0
C3407 C 0.78779 0.82093 0.70198 0.0
H3408 H 0.77216 0.48572 0.51985 0.0
H3409 H 0.73074 0.4602 0.44933 0.0
H3410 H 0.70112 0.47998 0.46142 0.0
H3411 H 0.72774 0.47323 0.55077 0.0
H3412 H 0.73797 0.49749 0.57459 0.0
H3413 H 0.75827 0.48647 0.55883 0.0
H3414 H 0.77484 0.52689 0.54747 0.0
H3415 H 0.75482 0.53824 0.56361 0.0
H3416 H 0.75562 0.54163 0.53239 0.0
H3417 H 0.67287 0.49331 0.48453 0.0
H3418 H 0.64977 0.50413 0.51479 0.0
H3419 H 0.71119 0.52345 0.56945 0.0
C3420 C 0.75729 0.48512 0.5066 0.0
C3421 C 0.75352 0.47167 0.48371 0.0
C3422 C 0.73387 0.47081 0.46685 0.0
C3423 C 0.71701 0.48185 0.47362 0.0
C3424 C 0.72057 0.49378 0.49704 0.0
C3425 C 0.74046 0.49583 0.51311 0.0
C3426 C 0.73895 0.50666 0.53812 0.0
C3427 C 0.74084 0.48996 0.55663 0.0
C3428 C 0.75713 0.52974 0.54583 0.0
C3429 C 0.71492 0.5101 0.53378 0.0
C3430 C 0.70448 0.5024 0.5101 0.0
C3431 C 0.68112 0.50041 0.50284 0.0
C3432 C 0.66818 0.50669 0.52025 0.0
C3433 C 0.67882 0.51525 0.54453 0.0
C3434 C 0.70254 0.51718 0.55112 0.0
H3435 H 0.20292 0.13791 0.5436 0.0
H3436 H 0.20246 0.12937 0.46635 0.0
H3437 H 0.16647 0.09809 0.46073 0.0
H3438 H 0.17875 0.07562 0.54798 0.0
H3439 H 0.16198 0.08271 0.57082 0.0
H3440 H 0.18915 0.10217 0.56883 0.0
H3441 H 0.16852 0.13535 0.56529 0.0
H3442 H 0.14146 0.11588 0.56727 0.0
H3443 H 0.14407 0.13142 0.54191 0.0
H3444 H 0.12773 0.07279 0.46328 0.0
H3445 H 0.09052 0.05233 0.47409 0.0
H3446 H 0.11741 0.07513 0.5499 0.0
C3447 C 0.19566 0.12872 0.52565 0.0
C3448 C 0.20555 0.13537 0.5054 0.0
C3449 C 0.19532 0.12387 0.48202 0.0
C3450 C 0.17487 0.10625 0.47871 0.0
C3451 C 0.1652 0.10033 0.49904 0.0
C3452 C 0.17545 0.11095 0.52211 0.0
C3453 C 0.16075 0.10252 0.54076 0.0
C3454 C 0.17342 0.09001 0.55812 0.0
C3455 C 0.15326 0.12249 0.5546 0.0
C3456 C 0.1404 0.08586 0.52458 0.0
C3457 C 0.14323 0.08495 0.50055 0.0
C3458 C 0.12563 0.07278 0.48204 0.0
C3459 C 0.10463 0.06128 0.48828 0.0
C3460 C 0.10168 0.06172 0.51276 0.0
C3461 C 0.11979 0.07391 0.53113 0.0
H3462 H 0.17133 0.99087 0.76238 0.0
H3463 H 0.19436 1.00403 0.83985 0.0
H3464 H 0.21753 0.9753 0.83549 0.0
H3465 H 0.16738 0.92904 0.7544 0.0
H3466 H 0.17801 0.92887 0.72591 0.0
H3467 H 0.16223 0.94968 0.73498 0.0
H3468 H 0.19645 0.98298 0.72968 0.0
H3469 H 0.21218 0.96218 0.72053 0.0
H3470 H 0.22497 0.98496 0.74542 0.0
H3471 H 0.23935 0.94677 0.82284 0.0
H3472 H 0.25911 0.92024 0.80242 0.0
H3473 H 0.22123 0.92489 0.73328 0.0
C3474 C 0.18106 0.98757 0.77847 0.0
C3475 C 0.18098 0.99964 0.8015 0.0
C3476 C 0.19414 0.99498 0.82205 0.0
C3477 C 0.20731 0.97867 0.81978 0.0
C3478 C 0.2071 0.9672 0.79685 0.0
C3479 C 0.19434 0.97139 0.77653 0.0
C3480 C 0.19778 0.9572 0.7539 0.0
C3481 C 0.17499 0.94019 0.74158 0.0
C3482 C 0.20848 0.97277 0.73636 0.0
C3483 C 0.21469 0.94467 0.76473 0.0
C3484 C 0.21972 0.95059 0.78952 0.0
C3485 C 0.23543 0.94182 0.80346 0.0
C3486 C 0.24648 0.9267 0.79169 0.0
C3487 C 0.24171 0.92053 0.76625 0.0
C3488 C 0.22544 0.92951 0.7527 0.0
H3489 H 0.37808 1.00261 0.04076 0.0
H3490 H 0.35854 0.9627 0.96905 0.0
H3491 H 0.39942 0.96494 0.96622 0.0
H3492 H 0.42937 0.04166 0.02553 0.0
H3493 H 0.44505 0.04441 0.0555 0.0
H3494 H 0.41407 0.03911 0.05102 0.0
H3495 H 0.41161 1.0022 0.07231 0.0
H3496 H 0.44261 0.00896 0.07655 0.0
H3497 H 0.42616 0.98083 0.06151 0.0
H3498 H 0.44072 0.96759 0.97257 0.0
H3499 H 0.4824 0.98607 0.97887 0.0
H3500 H 0.47556 0.02739 0.04435 0.0
C3501 C 0.38259 0.99552 0.02399 0.0
C3502 C 0.36546 0.9825 0.00517 0.0
C3503 C 0.37166 0.97308 0.98351 0.0
C3504 C 0.3947 0.97353 0.98208 0.0
C3505 C 0.41105 0.98426 0.0021 0.0
C3506 C 0.40555 0.99636 0.02195 0.0
C3507 C 0.42681 0.00883 0.03966 0.0
C3508 C 0.42897 0.03505 0.0431 0.0
C3509 C 0.42677 0.99958 0.06391 0.0
C3510 C 0.44516 1.00219 0.02627 0.0
C3511 C 0.43549 0.98692 0.00531 0.0
C3512 C 0.44866 0.97944 0.98892 0.0
C3513 C 0.47226 0.98973 0.99277 0.0
C3514 C 0.48181 0.0075 0.01237 0.0
C3515 C 0.46863 0.01288 0.03007 0.0
H3516 H 0.83904 0.58779 0.82945 0.0
H3517 H 0.86704 0.55684 0.77028 0.0
H3518 H 0.85991 0.58654 0.74627 0.0
H3519 H 0.79267 0.59789 0.79434 0.0
H3520 H 0.79308 0.62511 0.81183 0.0
H3521 H 0.80475 0.60415 0.82593 0.0
H3522 H 0.84344 0.63506 0.83988 0.0
H3523 H 0.83209 0.65594 0.82496 0.0
H3524 H 0.85844 0.64915 0.81788 0.0
H3525 H 0.8472 0.61532 0.72735 0.0
H3526 H 0.82059 0.63685 0.71018 0.0
H3527 H 0.79856 0.64884 0.77992 0.0
C3528 C 0.84368 0.58759 0.81149 0.0
C3529 C 0.85392 0.57074 0.80166 0.0
C3530 C 0.85952 0.5702 0.77803 0.0
C3531 C 0.85594 0.58713 0.76447 0.0
C3532 C 0.84663 0.60422 0.77484 0.0
C3533 C 0.83996 0.60433 0.79748 0.0
C3534 C 0.82683 0.62242 0.80248 0.0
C3535 C 0.80291 0.61174 0.80899 0.0
C3536 C 0.84105 0.64181 0.82247 0.0
C3537 C 0.82518 0.63059 0.7781 0.0
C3538 C 0.83799 0.62083 0.76307 0.0
C3539 C 0.83726 0.6234 0.73885 0.0
C3540 C 0.82192 0.63524 0.72918 0.0
C3541 C 0.80745 0.64383 0.74373 0.0
C3542 C 0.80975 0.64243 0.76864 0.0
H3543 H 0.83274 0.62633 0.98273 0.0
H3544 H 0.83133 0.66552 0.05199 0.0
H3545 H 0.86312 0.65093 0.07056 0.0
H3546 H 0.84106 0.5769 0.00447 0.0
H3547 H 0.86048 0.57059 0.98418 0.0
H3548 H 0.83979 0.58659 0.9754 0.0
H3549 H 0.87297 0.61966 0.9678 0.0
H3550 H 0.89385 0.60381 0.97681 0.0
H3551 H 0.8968 0.63276 0.99165 0.0
H3552 H 0.89129 0.62938 0.08294 0.0
H3553 H 0.91347 0.60007 0.08866 0.0
H3554 H 0.89784 0.57477 0.01192 0.0
C3555 C 0.83944 0.63215 0.00168 0.0
C3556 C 0.82956 0.6471 0.01586 0.0
C3557 C 0.83856 0.65406 0.04071 0.0
C3558 C 0.85677 0.64603 0.05144 0.0
C3559 C 0.86595 0.63116 0.03709 0.0
C3560 C 0.85767 0.62423 0.01277 0.0
C3561 C 0.86939 0.60652 0.00206 0.0
C3562 C 0.85162 0.58381 0.99089 0.0
C3563 C 0.88414 0.61627 0.98348 0.0
C3564 C 0.88446 0.60364 0.02451 0.0
C3565 C 0.88257 0.61848 0.04437 0.0
C3566 C 0.89324 0.61788 0.06753 0.0
C3567 C 0.90564 0.60118 0.07065 0.0
C3568 C 0.90714 0.58536 0.05073 0.0
C3569 C 0.89705 0.58699 0.0273 0.0
H3570 H 0.17597 0.14078 0.8185 0.0
H3571 H 0.19973 0.0923 0.77082 0.0
H3572 H 0.23166 0.12399 0.76441 0.0
H3573 H 0.18478 0.18615 0.787 0.0
H3574 H 0.19556 0.20881 0.81243 0.0
H3575 H 0.17657 0.18206 0.81616 0.0
H3576 H 0.20688 0.17643 0.85029 0.0
H3577 H 0.22583 0.20346 0.84695 0.0
H3578 H 0.23595 0.17744 0.84471 0.0
H3579 H 0.25675 0.1613 0.75823 0.0
H3580 H 0.27652 0.20148 0.75608 0.0
H3581 H 0.23791 0.22584 0.80946 0.0
C3582 C 0.18829 0.13677 0.80723 0.0
C3583 C 0.18546 0.11415 0.79514 0.0
C3584 C 0.20178 0.10948 0.78045 0.0
C3585 C 0.2199 0.12737 0.77664 0.0
C3586 C 0.22174 0.14964 0.78816 0.0
C3587 C 0.20676 0.15433 0.80366 0.0
C3588 C 0.21205 0.17993 0.81305 0.0
C3589 C 0.19099 0.1898 0.80676 0.0
C3590 C 0.22069 0.18458 0.84037 0.0
C3591 C 0.23134 0.18903 0.79917 0.0
C3592 C 0.23683 0.17124 0.78516 0.0
C3593 C 0.25304 0.17536 0.76957 0.0
C3594 C 0.26413 0.19827 0.76845 0.0
C3595 C 0.25899 0.21681 0.78285 0.0
C3596 C 0.24239 0.21204 0.79843 0.0
H3597 H 0.35806 0.9462 0.26618 0.0
H3598 H 0.34864 0.97308 0.33768 0.0
H3599 H 0.32029 0.9367 0.33937 0.0
H3600 H 0.29699 0.90209 0.24675 0.0
H3601 H 0.31126 0.88213 0.23239 0.0
H3602 H 0.32162 0.9127 0.23227 0.0
H3603 H 0.3622 0.9095 0.25062 0.0
H3604 H 0.35168 0.87948 0.25245 0.0
H3605 H 0.3659 0.89934 0.27932 0.0
H3606 H 0.3074 0.89597 0.34021 0.0
H3607 H 0.29986 0.85379 0.33493 0.0
H3608 H 0.31817 0.85279 0.2635 0.0
C3609 C 0.34872 0.94473 0.28139 0.0
C3610 C 0.35502 0.96179 0.30176 0.0
C3611 C 0.34344 0.9599 0.32189 0.0
C3612 C 0.32744 0.93937 0.32295 0.0
C3613 C 0.32345 0.92159 0.30359 0.0
C3614 C 0.33309 0.92429 0.28269 0.0
C3615 C 0.3304 0.90148 0.26693 0.0
C3616 C 0.31407 0.89949 0.24319 0.0
C3617 C 0.35394 0.89723 0.2621 0.0
C3618 C 0.3195 0.88558 0.28315 0.0
C3619 C 0.3154 0.89744 0.30399 0.0
C3620 C 0.3089 0.88645 0.32325 0.0
C3621 C 0.30469 0.86254 0.32022 0.0
C3622 C 0.30692 0.85015 0.29829 0.0
C3623 C 0.31532 0.86178 0.27997 0.0
H3624 H 0.56108 0.37838 0.60253 0.0
H3625 H 0.57605 0.34989 0.53382 0.0
H3626 H 0.56886 0.38366 0.51631 0.0
H3627 H 0.51588 0.40582 0.57748 0.0
H3628 H 0.52479 0.43137 0.59985 0.0
H3629 H 0.5297 0.40435 0.60725 0.0
H3630 H 0.57323 0.4236 0.62008 0.0
H3631 H 0.56839 0.45065 0.61277 0.0
H3632 H 0.58931 0.43836 0.59915 0.0
H3633 H 0.55845 0.42034 0.50471 0.0
H3634 H 0.55041 0.45845 0.50165 0.0
H3635 H 0.54583 0.46768 0.57802 0.0
C3636 C 0.56265 0.3791 0.58373 0.0
C3637 C 0.56902 0.36064 0.56967 0.0
C3638 C 0.57118 0.36316 0.54526 0.0
C3639 C 0.56704 0.3825 0.53499 0.0
C3640 C 0.56096 0.40019 0.54913 0.0
C3641 C 0.55904 0.39891 0.57312 0.0
C3642 C 0.55324 0.42116 0.58433 0.0
C3643 C 0.52949 0.41533 0.59274 0.0
C3644 C 0.57218 0.43422 0.60534 0.0
C3645 C 0.55258 0.4351 0.56308 0.0
C3646 C 0.55654 0.42224 0.54282 0.0
C3647 C 0.55565 0.43056 0.52063 0.0
C3648 C 0.55096 0.45243 0.519 0.0
C3649 C 0.54773 0.46675 0.53945 0.0
C3650 C 0.54856 0.45765 0.56192 0.0
H3651 H 0.42529 0.78936 0.42114 0.0
H3652 H 0.44398 0.73276 0.38022 0.0
H3653 H 0.41157 0.73055 0.34753 0.0
H3654 H 0.36417 0.77174 0.40528 0.0
H3655 H 0.36057 0.8002 0.40204 0.0
H3656 H 0.38491 0.79694 0.42199 0.0
H3657 H 0.41269 0.82323 0.39938 0.0
H3658 H 0.38828 0.82652 0.37937 0.0
H3659 H 0.41094 0.81604 0.3672 0.0
H3660 H 0.37521 0.73304 0.32012 0.0
H3661 H 0.34107 0.74259 0.29849 0.0
H3662 H 0.34832 0.80064 0.35444 0.0
C3663 C 0.4225 0.77645 0.40529 0.0
C3664 C 0.43702 0.76089 0.4035 0.0
C3665 C 0.43309 0.74471 0.38217 0.0
C3666 C 0.41464 0.74332 0.36351 0.0
C3667 C 0.40049 0.7587 0.36595 0.0
C3668 C 0.4046 0.77536 0.38607 0.0
C3669 C 0.38768 0.79067 0.38359 0.0
C3670 C 0.37348 0.78981 0.40446 0.0
C3671 C 0.40067 0.8156 0.38231 0.0
C3672 C 0.37263 0.77935 0.35947 0.0
C3673 C 0.3804 0.76093 0.34963 0.0
C3674 C 0.36919 0.74755 0.32766 0.0
C3675 C 0.34978 0.75313 0.3154 0.0
C3676 C 0.3417 0.77219 0.32468 0.0
C3677 C 0.35352 0.78556 0.34704 0.0
H3678 H 0.07936 0.71726 0.10055 0.0
H3679 H 0.04519 0.72785 0.03219 0.0
H3680 H 0.03597 0.68578 0.01792 0.0
H3681 H 0.10532 0.67292 0.07462 0.0
H3682 H 0.10226 0.656 0.09889 0.0
H3683 H 0.10513 0.68672 0.10468 0.0
H3684 H 0.06696 0.67975 0.12254 0.0
H3685 H 0.0641 0.64904 0.11691 0.0
H3686 H 0.04104 0.661 0.1048 0.0
H3687 H 0.03046 0.64211 0.01046 0.0
H3688 H 0.02986 0.6009 0.0101 0.0
H3689 H 0.06912 0.61668 0.08218 0.0
C3690 C 0.06959 0.71066 0.08272 0.0
C3691 C 0.06258 0.72619 0.06768 0.0
C3692 C 0.05049 0.71662 0.04422 0.0
C3693 C 0.04521 0.6926 0.03593 0.0
C3694 C 0.05244 0.67786 0.05099 0.0
C3695 C 0.0645 0.6865 0.0739 0.0
C3696 C 0.0711 0.66675 0.08589 0.0
C3697 C 0.09753 0.67085 0.09135 0.0
C3698 C 0.06014 0.66398 0.10891 0.0
C3699 C 0.06064 0.64571 0.06633 0.0
C3700 C 0.04992 0.65267 0.04638 0.0
C3701 C 0.03884 0.63664 0.02603 0.0
C3702 C 0.03854 0.6131 0.02598 0.0
C3703 C 0.04927 0.60519 0.04601 0.0
C3704 C 0.06067 0.62196 0.0665 0.0
H3705 H 0.05447 0.29625 0.86808 0.0
H3706 H 0.07198 0.25566 0.92295 0.0
H3707 H 0.10803 0.25398 0.90666 0.0
H3708 H 0.07766 0.26686 0.81952 0.0
H3709 H 0.08812 0.2932 0.80766 0.0
H3710 H 0.0629 0.28973 0.82248 0.0
H3711 H 0.08228 0.32737 0.85245 0.0
H3712 H 0.10723 0.33109 0.83735 0.0
H3713 H 0.11051 0.33026 0.86937 0.0
H3714 H 0.14449 0.26022 0.88623 0.0
H3715 H 0.17734 0.27508 0.86486 0.0
H3716 H 0.13443 0.30942 0.82253 0.0
C3717 C 0.0657 0.28674 0.87652 0.0
C3718 C 0.06027 0.27603 0.89676 0.0
C3719 C 0.07562 0.26389 0.90731 0.0
C3720 C 0.09615 0.26279 0.89815 0.0
C3721 C 0.101 0.27361 0.87817 0.0
C3722 C 0.08608 0.28525 0.86745 0.0
C3723 C 0.09566 0.29646 0.847 0.0
C3724 C 0.08016 0.28593 0.82273 0.0
C3725 C 0.09912 0.32285 0.85185 0.0
C3726 C 0.11856 0.28995 0.84826 0.0
C3727 C 0.12141 0.2766 0.86618 0.0
C3728 C 0.14221 0.2703 0.87186 0.0
C3729 C 0.16073 0.27862 0.85952 0.0
C3730 C 0.15826 0.29314 0.84189 0.0
C3731 C 0.13662 0.29803 0.83567 0.0
H3732 H 0.54046 0.7383 0.87793 0.0
H3733 H 0.57776 0.78739 0.9401 0.0
H3734 H 0.57981 0.75542 0.96341 0.0
H3735 H 0.50479 0.7046 0.90805 0.0
H3736 H 0.50367 0.67715 0.89067 0.0
H3737 H 0.51017 0.70303 0.87724 0.0
H3738 H 0.5483 0.69396 0.867 0.0
H3739 H 0.54187 0.66793 0.88049 0.0
H3740 H 0.5689 0.68918 0.89065 0.0
H3741 H 0.57183 0.71888 0.98203 0.0
H3742 H 0.55311 0.68166 0.99423 0.0
H3743 H 0.52022 0.65633 0.92039 0.0
C3744 C 0.5503 0.74211 0.89594 0.0
C3745 C 0.55999 0.7652 0.90687 0.0
C3746 C 0.5712 0.76974 0.9311 0.0
C3747 C 0.5723 0.75167 0.94453 0.0
C3748 C 0.56199 0.72905 0.93351 0.0
C3749 C 0.55132 0.7242 0.90966 0.0
C3750 C 0.5388 0.69886 0.90308 0.0
C3751 C 0.51283 0.69576 0.89426 0.0
C3752 C 0.55014 0.68676 0.88418 0.0
C3753 C 0.54287 0.69057 0.92722 0.0
C3754 C 0.55683 0.70804 0.94443 0.0
C3755 C 0.56134 0.70493 0.96855 0.0
C3756 C 0.55078 0.68371 0.97535 0.0
C3757 C 0.53556 0.66608 0.95816 0.0
C3758 C 0.53219 0.6694 0.93374 0.0
H3759 H 0.09944 0.72696 0.73937 0.0
H3760 H 0.09695 0.79666 0.7288 0.0
H3761 H 0.1396 0.80893 0.73767 0.0
H3762 H 0.14942 0.74192 0.78776 0.0
H3763 H 0.16167 0.71894 0.77637 0.0
H3764 H 0.13087 0.71558 0.77067 0.0
H3765 H 0.13157 0.70668 0.72478 0.0
H3766 H 0.16243 0.71018 0.73063 0.0
H3767 H 0.15042 0.72708 0.71054 0.0
H3768 H 0.18258 0.81407 0.74727 0.0
H3769 H 0.22277 0.81175 0.75537 0.0
H3770 H 0.19982 0.73838 0.75835 0.0
C3771 C 0.10784 0.7449 0.73929 0.0
C3772 C 0.09443 0.76093 0.7337 0.0
C3773 C 0.10646 0.78404 0.73317 0.0
C3774 C 0.13082 0.79119 0.7382 0.0
C3775 C 0.14342 0.77506 0.74343 0.0
C3776 C 0.13243 0.75231 0.74385 0.0
C3777 C 0.15045 0.73839 0.74887 0.0
C3778 C 0.14794 0.7281 0.77232 0.0
C3779 C 0.1486 0.71945 0.72743 0.0
C3780 C 0.17319 0.7569 0.75148 0.0
C3781 C 0.16852 0.77789 0.74827 0.0
C3782 C 0.18633 0.79764 0.74961 0.0
C3783 C 0.20938 0.79602 0.75411 0.0
C3784 C 0.21511 0.77475 0.7572 0.0
C3785 C 0.19644 0.75491 0.75602 0.0
H3786 H 0.02159 0.3865 0.40329 0.0
H3787 H 0.09499 0.39134 0.41879 0.0
H3788 H 0.10027 0.42908 0.445 0.0
H3789 H 0.0266 0.4488 0.40263 0.0
H3790 H 1.00071 0.44804 0.4159 0.0
H3791 H 1.00355 0.42281 0.39707 0.0
H3792 H 0.99574 0.39862 0.43157 0.0
H3793 H 0.99292 0.42369 0.45055 0.0
H3794 H 0.01357 0.40801 0.46073 0.0
H3795 H 0.09619 0.4658 0.47245 0.0
H3796 H 0.08389 0.49709 0.49607 0.0
H3797 H 0.01289 0.46719 0.46266 0.0
C3798 C 0.03894 0.3958 0.41166 0.0
C3799 C 0.05799 0.3861 0.40849 0.0
C3800 C 0.08026 0.39863 0.42027 0.0
C3801 C 0.08331 0.42 0.43543 0.0
C3802 C 0.06395 0.42875 0.43854 0.0
C3803 C 0.04223 0.41704 0.42663 0.0
C3804 C 0.02397 0.42946 0.4332 0.0
C3805 C 0.01306 0.43777 0.41088 0.0
C3806 C 1.00546 0.41402 0.44469 0.0
C3807 C 0.03848 0.4497 0.45143 0.0
C3808 C 0.06159 0.44924 0.45412 0.0
C3809 C 0.07817 0.46622 0.47022 0.0
C3810 C 0.07102 0.48397 0.48362 0.0
C3811 C 0.04745 0.48465 0.48124 0.0
C3812 C 0.03103 0.46717 0.46492 0.0
H3813 H 0.45887 0.25223 0.26231 0.0
H3814 H 0.45414 0.26738 0.18891 0.0
H3815 H 0.41542 0.27415 0.19143 0.0
H3816 H 0.39859 0.22352 0.26042 0.0
H3817 H 0.39662 0.23595 0.29047 0.0
H3818 H 0.42397 0.23203 0.28321 0.0
H3819 H 0.44263 0.27545 0.29777 0.0
H3820 H 0.41531 0.27945 0.30506 0.0
H3821 H 0.43006 0.29668 0.28497 0.0
H3822 H 0.37507 0.27669 0.20084 0.0
H3823 H 0.33923 0.27855 0.21743 0.0
H3824 H 0.37 0.26583 0.28642 0.0
C3825 C 0.44981 0.25714 0.24678 0.0
C3826 C 0.46011 0.25919 0.22525 0.0
C3827 C 0.4472 0.26573 0.20561 0.0
C3828 C 0.42494 0.26954 0.20687 0.0
C3829 C 0.41534 0.26726 0.22812 0.0
C3830 C 0.42754 0.26158 0.24793 0.0
C3831 C 0.41332 0.2609 0.26882 0.0
C3832 C 0.40781 0.23666 0.27616 0.0
C3833 C 0.4261 0.27921 0.29044 0.0
C3834 C 0.39119 0.26678 0.25763 0.0
C3835 C 0.39268 0.27007 0.23398 0.0
C3836 C 0.37402 0.27439 0.21943 0.0
C3837 C 0.35353 0.27536 0.22905 0.0
C3838 C 0.35142 0.27257 0.25338 0.0
C3839 C 0.37087 0.26841 0.26787 0.0
H3840 H 0.61229 0.57343 0.37336 0.0
H3841 H 0.59084 0.5025 0.3377 0.0
H3842 H 0.57635 0.49028 0.37476 0.0
H3843 H 0.63067 0.55791 0.4336 0.0
H3844 H 0.62229 0.58178 0.44924 0.0
H3845 H 0.63235 0.58412 0.42063 0.0
H3846 H 0.59453 0.5945 0.40386 0.0
H3847 H 0.58434 0.59202 0.4323 0.0
H3848 H 0.56701 0.57515 0.40495 0.0
H3849 H 0.56363 0.48644 0.4166 0.0
H3850 H 0.55302 0.49153 0.45768 0.0
H3851 H 0.57984 0.56548 0.46349 0.0
C3852 C 0.60467 0.55528 0.37341 0.0
C3853 C 0.60255 0.53888 0.35265 0.0
C3854 C 0.59277 0.51528 0.35348 0.0
C3855 C 0.58448 0.50824 0.37445 0.0
C3856 C 0.58661 0.52496 0.39458 0.0
C3857 C 0.59675 0.54798 0.39422 0.0
C3858 C 0.59707 0.56265 0.41804 0.0
C3859 C 0.62207 0.57219 0.43114 0.0
C3860 C 0.58499 0.58222 0.41456 0.0
C3861 C 0.58375 0.54475 0.43121 0.0
C3862 C 0.5787 0.52292 0.41787 0.0
C3863 C 0.56755 0.50349 0.42707 0.0
C3864 C 0.56152 0.50652 0.45038 0.0
C3865 C 0.56577 0.52885 0.46384 0.0
C3866 C 0.57683 0.54815 0.45392 0.0
H3867 H 0.2971 0.86333 0.04521 0.0
H3868 H 0.32386 0.93481 0.07782 0.0
H3869 H 0.31701 0.92433 0.11773 0.0
H3870 H 0.25316 0.84887 0.08932 0.0
H3871 H 0.25791 0.82032 0.08886 0.0
H3872 H 0.25923 0.83408 0.06215 0.0
H3873 H 0.3006 0.82871 0.05992 0.0
H3874 H 0.29893 0.81427 0.08582 0.0
H3875 H 0.32257 0.83905 0.08616 0.0
H3876 H 0.31575 0.90591 0.15346 0.0
H3877 H 0.32574 0.88062 0.18216 0.0
H3878 H 0.29766 0.82085 0.12735 0.0
C3879 C 0.30093 0.87666 0.06083 0.0
C3880 C 0.31081 0.89968 0.05897 0.0
C3881 C 0.31598 0.91703 0.07932 0.0
C3882 C 0.31183 0.9113 0.10186 0.0
C3883 C 0.30187 0.8883 0.10334 0.0
C3884 C 0.29642 0.87125 0.08333 0.0
C3885 C 0.28943 0.84751 0.09025 0.0
C3886 C 0.26338 0.83708 0.08217 0.0
C3887 C 0.30377 0.83149 0.07996 0.0
C3888 C 0.29505 0.85367 0.11737 0.0
C3889 C 0.30081 0.87737 0.12462 0.0
C3890 C 0.31059 0.88736 0.14824 0.0
C3891 C 0.31629 0.87294 0.16439 0.0
C3892 C 0.3125 0.84907 0.15646 0.0
C3893 C 0.30037 0.83915 0.13343 0.0
H3894 H 0.93241 0.48356 0.87296 0.0
H3895 H 0.92388 0.55356 0.87571 0.0
H3896 H 0.94859 0.56463 0.9153 0.0
H3897 H 0.93626 0.48165 0.9394 0.0
H3898 H 0.95759 0.4649 0.93804 0.0
H3899 H 0.93555 0.4621 0.91244 0.0
H3900 H 0.96826 0.47163 0.88627 0.0
H3901 H 0.99008 0.47557 0.91224 0.0
H3902 H 0.99002 0.49856 0.89441 0.0
H3903 H 0.97581 0.56899 0.95185 0.0
H3904 H 1.00546 0.56657 0.98493 0.0
H3905 H 0.9993 0.49488 0.9565 0.0
C3906 C 0.93519 0.50098 0.8823 0.0
C3907 C 0.92639 0.51771 0.87163 0.0
C3908 C 0.93061 0.54054 0.88386 0.0
C3909 C 0.94447 0.54697 0.9063 0.0
C3910 C 0.95366 0.53027 0.91597 0.0
C3911 C 0.94921 0.50777 0.90451 0.0
C3912 C 0.96314 0.49391 0.9177 0.0
C3913 C 0.94718 0.47449 0.9275 0.0
C3914 C 0.97881 0.48438 0.90169 0.0
C3915 C 0.97688 0.5125 0.93773 0.0
C3916 C 0.9706 0.53313 0.9367 0.0
C3917 C 0.9807 0.55291 0.9532 0.0
C3918 C 0.99742 0.55139 0.97176 0.0
C3919 C 1.004 0.53045 0.97299 0.0
C3920 C 0.99419 0.51094 0.95561 0.0
H3921 H 0.25569 0.20075 0.59891 0.0
H3922 H 0.30286 0.25791 0.57712 0.0
H3923 H 0.31242 0.27761 0.61953 0.0
H3924 H 0.23295 0.23325 0.6408 0.0
H3925 H 0.23109 0.21365 0.66271 0.0
H3926 H 0.22952 0.20282 0.63128 0.0
H3927 H 0.26394 0.18459 0.64146 0.0
H3928 H 0.26524 0.19491 0.673 0.0
H3929 H 0.29061 0.20237 0.65873 0.0
H3930 H 0.3136 0.29278 0.66349 0.0
H3931 H 0.30992 0.30029 0.70673 0.0
H3932 H 0.26291 0.23285 0.70051 0.0
C3933 C 0.26848 0.21715 0.60329 0.0
C3934 C 0.27882 0.22782 0.58496 0.0
C3935 C 0.29506 0.24944 0.59106 0.0
C3936 C 0.30047 0.26075 0.61504 0.0
C3937 C 0.28952 0.2501 0.63268 0.0
C3938 C 0.27419 0.22857 0.6272 0.0
C3939 C 0.26436 0.22121 0.64941 0.0
C3940 C 0.23791 0.21752 0.64582 0.0
C3941 C 0.27147 0.19948 0.65604 0.0
C3942 C 0.27614 0.24215 0.66811 0.0
C3943 C 0.2905 0.25867 0.65806 0.0
C3944 C 0.30255 0.27988 0.67155 0.0
C3945 C 0.30017 0.28414 0.696 0.0
C3946 C 0.286 0.26727 0.70672 0.0
C3947 C 0.27385 0.24601 0.69262 0.0
H3948 H 0.60625 0.52363 0.20436 0.0
H3949 H 0.57123 0.5754 0.22991 0.0
H3950 H 0.55461 0.57619 0.18847 0.0
H3951 H 0.62076 0.5453 0.1511 0.0
H3952 H 0.61407 0.51786 0.13169 0.0
H3953 H 0.62256 0.51943 0.16368 0.0
H3954 H 0.58495 0.48889 0.16552 0.0
H3955 H 0.57632 0.48728 0.1335 0.0
H3956 H 0.55741 0.49384 0.15423 0.0
H3957 H 0.54177 0.57263 0.14553 0.0
H3958 H 0.5336 0.56517 0.10176 0.0
H3959 H 0.57786 0.51752 0.10028 0.0
C3960 C 0.59478 0.53482 0.2012 0.0
C3961 C 0.59012 0.54946 0.22072 0.0
C3962 C 0.57515 0.56396 0.21562 0.0
C3963 C 0.56553 0.56457 0.192 0.0
C3964 C 0.57067 0.5504 0.1733 0.0
C3965 C 0.58471 0.53558 0.17737 0.0
C3966 C 0.58722 0.52249 0.15331 0.0
C3967 C 0.61268 0.52653 0.14975 0.0
C3968 C 0.57582 0.49659 0.15154 0.0
C3969 C 0.57361 0.53346 0.13537 0.0
C3970 C 0.56382 0.54903 0.14762 0.0
C3971 C 0.5497 0.5608 0.13568 0.0
C3972 C 0.5455 0.55678 0.11052 0.0
C3973 C 0.55596 0.54181 0.09701 0.0
C3974 C 0.57002 0.52964 0.10982 0.0
H3975 H 0.31819 0.86732 0.94505 0.0
H3976 H 0.29992 0.92517 0.9156 0.0
H3977 H 0.28776 0.90123 0.87502 0.0
H3978 H 0.34191 0.84434 0.89951 0.0
H3979 H 0.32858 0.81449 0.90077 0.0
H3980 H 0.33354 0.83563 0.92731 0.0
H3981 H 0.2899 0.82378 0.93116 0.0
H3982 H 0.28482 0.80249 0.90451 0.0
H3983 H 0.26859 0.82418 0.90595 0.0
H3984 H 0.27437 0.86894 0.83897 0.0
H3985 H 0.26848 0.8338 0.80896 0.0
H3986 H 0.30306 0.80153 0.8616 0.0
C3987 C 0.31186 0.8749 0.92992 0.0
C3988 C 0.31035 0.89788 0.93277 0.0
C3989 C 0.30133 0.90745 0.91318 0.0
C3990 C 0.29421 0.894 0.89034 0.0
C3991 C 0.2958 0.87113 0.88807 0.0
C3992 C 0.30437 0.86171 0.90736 0.0
C3993 C 0.30459 0.83691 0.90032 0.0
C3994 C 0.3286 0.83263 0.90737 0.0
C3995 C 0.28589 0.8209 0.91113 0.0
C3996 C 0.29786 0.8348 0.87351 0.0
C3997 C 0.29115 0.854 0.86695 0.0
C3998 C 0.28093 0.85444 0.8436 0.0
C3999 C 0.27846 0.83496 0.82645 0.0
C4000 C 0.28818 0.81668 0.8323 0.0
C4001 C 0.29716 0.81619 0.85629 0.0
H4002 H 0.94947 0.49752 0.75376 0.0
H4003 H 0.91557 0.55241 0.74144 0.0
H4004 H 0.92785 0.55258 0.70107 0.0
H4005 H 0.99688 0.5119 0.71881 0.0
H4006 H 0.99358 0.48186 0.7074 0.0
H4007 H 0.98688 0.49 0.73694 0.0
H4008 H 0.9456 0.46304 0.72505 0.0
H4009 H 0.95201 0.45462 0.6956 0.0
H4010 H 0.9274 0.4665 0.69859 0.0
H4011 H 0.93934 0.54254 0.66015 0.0
H4012 H 0.94687 0.52215 0.62228 0.0
H4013 H 0.96952 0.47193 0.66211 0.0
C4014 C 0.94535 0.51028 0.74307 0.0
C4015 C 0.93195 0.52521 0.75075 0.0
C4016 C 0.92617 0.54103 0.73585 0.0
C4017 C 0.93308 0.54126 0.713 0.0
C4018 C 0.94544 0.5254 0.70554 0.0
C4019 C 0.95136 0.51016 0.72022 0.0
C4020 C 0.96092 0.49213 0.70711 0.0
C4021 C 0.98607 0.49411 0.71821 0.0
C4022 C 0.94557 0.46765 0.70657 0.0
C4023 C 0.95927 0.49929 0.68248 0.0
C4024 C 0.95071 0.51873 0.68188 0.0
C4025 C 0.94621 0.52743 0.66047 0.0
C4026 C 0.95031 0.51571 0.63913 0.0
C4027 C 0.95822 0.49532 0.63954 0.0
C4028 C 0.96309 0.4873 0.66146 0.0
H4029 H 0.28583 0.19985 0.43459 0.0
H4030 H 0.25616 0.25414 0.46501 0.0
H4031 H 0.25819 0.27142 0.42814 0.0
H4032 H 0.32557 0.23769 0.40206 0.0
H4033 H 0.32186 0.21623 0.37585 0.0
H4034 H 0.31906 0.20746 0.40503 0.0
H4035 H 0.27819 0.1816 0.38783 0.0
H4036 H 0.28085 0.19047 0.35867 0.0
H4037 H 0.25672 0.19426 0.37336 0.0
H4038 H 0.25977 0.28165 0.38882 0.0
H4039 H 0.26573 0.28843 0.34839 0.0
H4040 H 0.2969 0.22997 0.33984 0.0
C4041 C 0.28012 0.21555 0.43351 0.0
C4042 C 0.27061 0.22549 0.45284 0.0
C4043 C 0.26322 0.24596 0.45058 0.0
C4044 C 0.26429 0.25599 0.42961 0.0
C4045 C 0.27296 0.24558 0.41077 0.0
C4046 C 0.28112 0.22608 0.41232 0.0
C4047 C 0.28958 0.21902 0.3887 0.0
C4048 C 0.31557 0.22017 0.39318 0.0
C4049 C 0.27549 0.19489 0.37642 0.0
C4050 C 0.28469 0.23761 0.37394 0.0
C4051 C 0.27488 0.25241 0.38734 0.0
C4052 C 0.26785 0.27049 0.37824 0.0
C4053 C 0.27143 0.27417 0.35503 0.0
C4054 C 0.28237 0.26013 0.34075 0.0
C4055 C 0.28876 0.2412 0.35025 0.0
H4056 H 0.32771 0.57215 0.57414 0.0
H4057 H 0.34314 0.63963 0.55127 0.0
H4058 H 0.37863 0.63291 0.53825 0.0
H4059 H 0.39207 0.57042 0.59045 0.0
H4060 H 0.38479 0.53995 0.57908 0.0
H4061 H 0.36448 0.55248 0.59362 0.0
H4062 H 0.33308 0.53632 0.556 0.0
H4063 H 0.35301 0.52366 0.54141 0.0
H4064 H 0.3393 0.54328 0.52689 0.0
H4065 H 0.40446 0.6161 0.51794 0.0
H4066 H 0.42087 0.58974 0.49249 0.0
H4067 H 0.39065 0.53306 0.52849 0.0
C4068 C 0.33935 0.58584 0.56763 0.0
C4069 C 0.33312 0.60633 0.56385 0.0
C4070 C 0.34794 0.62379 0.55438 0.0
C4071 C 0.36823 0.62026 0.54715 0.0
C4072 C 0.37349 0.59935 0.54985 0.0
C4073 C 0.3597 0.58248 0.56012 0.0
C4074 C 0.36707 0.56014 0.557 0.0
C4075 C 0.37776 0.55546 0.58148 0.0
C4076 C 0.34691 0.53969 0.54457 0.0
C4077 C 0.38516 0.56633 0.54091 0.0
C4078 C 0.3892 0.58933 0.53783 0.0
C4079 C 0.40219 0.59829 0.52077 0.0
C4080 C 0.41102 0.58326 0.50616 0.0
C4081 C 0.40646 0.55973 0.5087 0.0
C4082 C 0.39415 0.55121 0.52664 0.0
H4083 H 0.89003 0.93827 0.57683 0.0
H4084 H 0.85477 0.92311 0.503 0.0
H4085 H 0.8867 0.95096 0.49072 0.0
H4086 H 0.91557 1.00231 0.57342 0.0
H4087 H 0.94163 1.00263 0.5931 0.0
H4088 H 0.91438 0.98429 0.59683 0.0
H4089 H 0.93213 0.94893 0.59298 0.0
H4090 H 0.95923 0.96703 0.58891 0.0
H4091 H 0.94489 0.94232 0.56655 0.0
H4092 H 0.92364 0.97655 0.48551 0.0
H4093 H 0.96383 0.99969 0.48797 0.0
H4094 H 0.9757 0.99826 0.56497 0.0
C4095 C 0.88881 0.94156 0.55832 0.0
C4096 C 0.86999 0.92909 0.54083 0.0
C4097 C 0.86895 0.93309 0.51661 0.0
C4098 C 0.88696 0.94878 0.5095 0.0
C4099 C 0.90557 0.96062 0.527 0.0
C4100 C 0.90649 0.95762 0.55101 0.0
C4101 C 0.92912 0.97174 0.56582 0.0
C4102 C 0.92492 0.9914 0.58333 0.0
C4103 C 0.9421 0.95658 0.57933 0.0
C4104 C 0.94149 0.98126 0.546 0.0
C4105 C 0.92727 0.97529 0.52389 0.0
C4106 C 0.93483 0.98173 0.50276 0.0
C4107 C 0.95755 0.9948 0.50428 0.0
C4108 C 0.97243 1.00058 0.52662 0.0
C4109 C 0.9644 0.99387 0.54773 0.0
H4110 H 0.87578 0.07378 0.23603 0.0
H4111 H 0.92474 0.079 0.30105 0.0
H4112 H 0.9131 0.11283 0.31903 0.0
H4113 H 0.88326 0.13718 0.23781 0.0
H4114 H 0.85307 0.13418 0.2271 0.0
H4115 H 0.86675 0.11159 0.21783 0.0
H4116 H 0.83597 0.08174 0.23371 0.0
H4117 H 0.82206 0.10414 0.24269 0.0
H4118 H 0.83116 0.08715 0.26453 0.0
H4119 H 0.89432 0.14321 0.33182 0.0
H4120 H 0.86743 0.1678 0.33933 0.0
H4121 H 0.8308 0.14432 0.26645 0.0
C4122 C 0.88425 0.08225 0.2539 0.0
C4123 C 0.90123 0.07374 0.26705 0.0
C4124 C 0.91174 0.08517 0.29052 0.0
C4125 C 0.90537 0.10453 0.3009 0.0
C4126 C 0.88859 0.11243 0.28756 0.0
C4127 C 0.87812 0.10174 0.2646 0.0
C4128 C 0.85946 0.113 0.25496 0.0
C4129 C 0.86603 0.12469 0.23313 0.0
C4130 C 0.83576 0.09546 0.24862 0.0
C4131 C 0.8603 0.13076 0.27667 0.0
C4132 C 0.87763 0.13042 0.29503 0.0
C4133 C 0.8809 0.14394 0.31752 0.0
C4134 C 0.86559 0.15775 0.32166 0.0
C4135 C 0.84734 0.15782 0.30341 0.0
C4136 C 0.84496 0.14468 0.28046 0.0
H4137 H 0.70053 0.06623 0.01318 0.0
H4138 H 0.71794 0.0933 0.08929 0.0
H4139 H 0.67669 0.08468 0.09317 0.0
H4140 H 0.66066 0.09088 0.00064 0.0
H4141 H 0.63963 0.06878 0.97983 0.0
H4142 H 0.6696 0.06831 0.98323 0.0
H4143 H 0.66098 0.02713 0.99511 0.0
H4144 H 0.63069 0.02652 0.98934 0.0
H4145 H 0.64303 0.02071 0.01801 0.0
H4146 H 0.63669 0.08837 0.08503 0.0
H4147 H 0.59559 0.08526 0.06978 0.0
H4148 H 0.60332 0.05174 0.00027 0.0
C4149 C 0.69558 0.06831 0.03097 0.0
C4150 C 0.71187 0.08035 0.05088 0.0
C4151 C 0.70537 0.08372 0.07397 0.0
C4152 C 0.682 0.07929 0.07624 0.0
C4153 C 0.66601 0.07057 0.0554 0.0
C4154 C 0.67236 0.06364 0.03347 0.0
C4155 C 0.652 0.05723 0.01334 0.0
C4156 C 0.65573 0.0722 0.99309 0.0
C4157 C 0.64633 0.03135 0.00338 0.0
C4158 C 0.63373 0.06303 0.0271 0.0
C4159 C 0.64227 0.07125 0.05115 0.0
C4160 C 0.62941 0.08071 0.0666 0.0
C4161 C 0.60637 0.07929 0.05776 0.0
C4162 C 0.59671 0.06764 0.03434 0.0
C4163 C 0.61064 0.06063 0.01834 0.0
H4164 H 0.24235 0.51269 0.28389 0.0
H4165 H 0.21944 0.48612 0.20803 0.0
H4166 H 0.23108 0.44996 0.21412 0.0
H4167 H 0.29009 0.48467 0.29603 0.0
H4168 H 0.28203 0.47831 0.32469 0.0
H4169 H 0.27663 0.5036 0.31322 0.0
H4170 H 0.23324 0.48985 0.31717 0.0
H4171 H 0.23841 0.46442 0.32835 0.0
H4172 H 0.21695 0.46164 0.30223 0.0
H4173 H 0.24135 0.41578 0.2296 0.0
H4174 H 0.24854 0.38537 0.25344 0.0
H4175 H 0.26098 0.4341 0.31944 0.0
C4176 C 0.24093 0.49967 0.26841 0.0
C4177 C 0.23103 0.50213 0.24538 0.0
C4178 C 0.22779 0.48443 0.22562 0.0
C4179 C 0.23423 0.46397 0.22896 0.0
C4180 C 0.24327 0.46167 0.25222 0.0
C4181 C 0.24645 0.47901 0.27162 0.0
C4182 C 0.25284 0.47112 0.29529 0.0
C4183 C 0.27684 0.48525 0.30805 0.0
C4184 C 0.23425 0.47181 0.3117 0.0
C4185 C 0.25297 0.44667 0.28622 0.0
C4186 C 0.24759 0.44153 0.26136 0.0
C4187 C 0.24573 0.4196 0.24906 0.0
C4188 C 0.24965 0.40251 0.26266 0.0
C4189 C 0.2549 0.4076 0.28813 0.0
C4190 C 0.25661 0.42986 0.29998 0.0
H4191 H 0.25496 0.43929 0.99566 0.0
H4192 H 0.24864 0.41161 0.06287 0.0
H4193 H 0.21528 0.4282 0.06767 0.0
H4194 H 0.23741 0.49276 0.01378 0.0
H4195 H 0.22165 0.49185 0.98425 0.0
H4196 H 0.24662 0.47999 0.98738 0.0
H4197 H 0.22199 0.44056 0.96394 0.0
H4198 H 0.19715 0.45245 0.96054 0.0
H4199 H 0.19577 0.42666 0.97423 0.0
H4200 H 0.1814 0.44592 0.06409 0.0
H4201 H 0.14724 0.46022 0.05004 0.0
H4202 H 0.17514 0.47486 0.9848 0.0
C4203 C 0.2468 0.43702 0.01158 0.0
C4204 C 0.25448 0.42432 0.02895 0.0
C4205 C 0.24308 0.42137 0.04934 0.0
C4206 C 0.22422 0.43084 0.05233 0.0
C4207 C 0.21703 0.44321 0.0348 0.0
C4208 C 0.22787 0.44619 0.01475 0.0
C4209 C 0.21564 0.45856 0.99757 0.0
C4210 C 0.23126 0.4822 0.99564 0.0
C4211 C 0.20713 0.44366 0.97261 0.0
C4212 C 0.19574 0.46125 0.01063 0.0
C4213 C 0.19714 0.45284 0.03238 0.0
C4214 C 0.18018 0.45271 0.04719 0.0
C4215 C 0.16094 0.46081 0.03915 0.0
C4216 C 0.15885 0.46838 0.01643 0.0
C4217 C 0.17661 0.4691 0.00227 0.0
H4218 H 0.90941 0.92265 0.2471 0.0
H4219 H 0.87208 0.97263 0.27144 0.0
H4220 H 0.84023 0.94068 0.2778 0.0
H4221 H 0.86042 0.87842 0.21536 0.0
H4222 H 0.87209 0.85524 0.22481 0.0
H4223 H 0.8913 0.88209 0.22155 0.0
H4224 H 0.91121 0.88577 0.26582 0.0
H4225 H 0.89186 0.85905 0.26925 0.0
H4226 H 0.89393 0.88498 0.28978 0.0
H4227 H 0.81439 0.9033 0.28515 0.0
H4228 H 0.79441 0.86344 0.28844 0.0
H4229 H 0.84762 0.83817 0.25624 0.0
C4230 C 0.89442 0.92696 0.25345 0.0
C4231 C 0.89322 0.95017 0.2587 0.0
C4232 C 0.87332 0.95498 0.26712 0.0
C4233 C 0.85522 0.93697 0.27092 0.0
C4234 C 0.85727 0.91432 0.26605 0.0
C4235 C 0.87626 0.90929 0.25724 0.0
C4236 C 0.87457 0.88361 0.25384 0.0
C4237 C 0.87458 0.8743 0.22731 0.0
C4238 C 0.89405 0.87803 0.27067 0.0
C4239 C 0.85134 0.87485 0.26154 0.0
C4240 C 0.84186 0.89283 0.26904 0.0
C4241 C 0.82131 0.88905 0.27865 0.0
C4242 C 0.80994 0.86626 0.2802 0.0
C4243 C 0.81882 0.84748 0.27157 0.0
C4244 C 0.83994 0.85201 0.26234 0.0
H4245 H 0.73607 0.12036 0.72314 0.0
H4246 H 0.73233 0.10452 0.79556 0.0
H4247 H 0.7463 0.14598 0.81194 0.0
H4248 H 0.78515 0.17589 0.73982 0.0
H4249 H 0.77088 0.18805 0.7165 0.0
H4250 H 0.76915 0.15755 0.71267 0.0
H4251 H 0.72446 0.15051 0.70446 0.0
H4252 H 0.72601 0.18083 0.71041 0.0
H4253 H 0.70968 0.16125 0.72752 0.0
H4254 H 0.75713 0.19026 0.81923 0.0
H4255 H 0.76838 0.232 0.81613 0.0
H4256 H 0.75184 0.21585 0.73832 0.0
C4257 C 0.7398 0.12558 0.74253 0.0
C4258 C 0.73343 0.10963 0.75813 0.0
C4259 C 0.73773 0.11671 0.78343 0.0
C4260 C 0.74521 0.14023 0.79284 0.0
C4261 C 0.74838 0.15592 0.77656 0.0
C4262 C 0.74635 0.14881 0.75196 0.0
C4263 C 0.74736 0.16855 0.73782 0.0
C4264 C 0.76945 0.17276 0.72602 0.0
C4265 C 0.72556 0.16504 0.71897 0.0
C4266 C 0.74869 0.18757 0.75803 0.0
C4267 C 0.75033 0.18041 0.7804 0.0
C4268 C 0.75539 0.19604 0.8018 0.0
C4269 C 0.76098 0.21969 0.80001 0.0
C4270 C 0.76019 0.22684 0.77706 0.0
C4271 C 0.75199 0.21065 0.75609 0.0
loop_
_geom_bond_atom_site_label_1
_geom_bond_atom_site_label_2
_geom_bond_distance
_geom_bond_site_symmetry_2
_ccdc_geom_bond_type
Zn0 O3 2.031 . S
Zn0 O5 2.049 . S
Zn0 O10 2.067 1_455 S
Zn1 O2 1.962 . S
Zn1 O4 1.986 . S
Zn1 O6 1.996 . S
Zn1 O9 1.943 . S
O2 Zn1 1.962 . S
O2 C7 1.254 . S
O3 Zn0 2.031 . S
O3 C7 1.269 . S
O4 Zn1 1.986 . S
O4 C11 1.262 . S
O5 Zn0 2.049 . S
O5 C13 1.260 . S
O6 Zn1 1.996 . S
O6 C13 1.257 . S
C7 O2 1.254 . S
C7 O3 1.269 . S
C8 O9 1.249 . S
C8 O10 1.270 1_455 S
O9 Zn1 1.943 . S
O9 C8 1.249 . S
O10 Zn0 2.067 1_655 S
O10 C8 1.270 1_655 S
C11 O4 1.262 . S
C11 O12 1.232 . S
O12 C11 1.232 . S
C13 O5 1.260 . S
C13 O6 1.257 . S
Zn14 O17 2.031 1_455 S
Zn14 O19 2.049 . S
Zn14 O24 2.067 . S
Zn15 O16 1.962 1_455 S
Zn15 O18 1.986 . S
Zn15 O20 1.996 . S
Zn15 O23 1.943 . S
O16 Zn15 1.962 1_655 S
O16 C21 1.254 . S
O17 Zn14 2.031 1_655 S
O17 C21 1.269 . S
O18 Zn15 1.986 . S
O18 C25 1.262 . S
O19 Zn14 2.049 . S
O19 C27 1.260 . S
O20 Zn15 1.996 . S
O20 C27 1.257 . S
C21 O16 1.254 . S
C21 O17 1.269 . S
C22 O23 1.249 . S
C22 O24 1.270 . S
O23 Zn15 1.943 . S
O23 C22 1.249 . S
O24 Zn14 2.067 . S
O24 C22 1.270 . S
C25 O18 1.262 . S
C25 O26 1.232 . S
O26 C25 1.232 . S
C27 O19 1.260 . S
C27 O20 1.257 . S
Zn28 O31 2.031 . S
Zn28 O33 2.049 . S
Zn28 O38 2.067 . S
Zn29 O30 1.962 . S
Zn29 O32 1.986 . S
Zn29 O34 1.996 . S
Zn29 O37 1.943 . S
O30 Zn29 1.962 . S
O30 C35 1.254 . S
O31 Zn28 2.031 . S
O31 C35 1.269 . S
O32 Zn29 1.986 . S
O32 C39 1.262 . S
O33 Zn28 2.049 . S
O33 C41 1.260 . S
O34 Zn29 1.996 . S
O34 C41 1.257 . S
C35 O30 1.254 . S
C35 O31 1.269 . S
C36 O37 1.249 . S
C36 O38 1.270 . S
O37 Zn29 1.943 . S
O37 C36 1.249 . S
O38 Zn28 2.067 . S
O38 C36 1.270 . S
C39 O32 1.262 . S
C39 O40 1.232 . S
O40 C39 1.232 . S
C41 O33 1.260 . S
C41 O34 1.257 . S
Zn42 O45 2.031 . S
Zn42 O47 2.049 . S
Zn42 O52 2.067 . S
Zn43 O44 1.962 . S
Zn43 O46 1.986 . S
Zn43 O48 1.996 . S
Zn43 O51 1.943 . S
O44 Zn43 1.962 . S
O44 C49 1.254 . S
O45 Zn42 2.031 . S
O45 C49 1.269 . S
O46 Zn43 1.986 . S
O46 C53 1.262 . S
O47 Zn42 2.049 . S
O47 C55 1.260 . S
O48 Zn43 1.996 . S
O48 C55 1.257 . S
C49 O44 1.254 . S
C49 O45 1.269 . S
C50 O51 1.249 . S
C50 O52 1.270 . S
O51 Zn43 1.943 . S
O51 C50 1.249 . S
O52 Zn42 2.067 . S
O52 C50 1.270 . S
C53 O46 1.262 . S
C53 O54 1.232 . S
O54 C53 1.232 . S
C55 O47 1.260 . S
C55 O48 1.257 . S
Zn56 O59 2.031 . S
Zn56 O61 2.049 . S
Zn56 O66 2.067 . S
Zn57 O58 1.962 . S
Zn57 O60 1.986 . S
Zn57 O62 1.996 . S
Zn57 O65 1.943 . S
O58 Zn57 1.962 . S
O58 C63 1.254 . S
O59 Zn56 2.031 . S
O59 C63 1.269 . S
O60 Zn57 1.986 . S
O60 C67 1.262 . S
O61 Zn56 2.049 . S
O61 C69 1.260 . S
O62 Zn57 1.996 . S
O62 C69 1.257 . S
C63 O58 1.254 . S
C63 O59 1.269 . S
C64 O65 1.249 . S
C64 O66 1.270 . S
O65 Zn57 1.943 . S
O65 C64 1.249 . S
O66 Zn56 2.067 . S
O66 C64 1.270 . S
C67 O60 1.262 . S
C67 O68 1.232 . S
O68 C67 1.232 . S
C69 O61 1.260 . S
C69 O62 1.257 . S
Zn70 O73 2.031 . S
Zn70 O75 2.049 . S
Zn70 O80 2.067 . S
Zn71 O72 1.962 . S
Zn71 O74 1.986 . S
Zn71 O76 1.996 . S
Zn71 O79 1.943 . S
O72 Zn71 1.962 . S
O72 C77 1.254 . S
O73 Zn70 2.031 . S
O73 C77 1.269 . S
O74 Zn71 1.986 . S
O74 C81 1.262 . S
O75 Zn70 2.049 . S
O75 C83 1.260 . S
O76 Zn71 1.996 . S
O76 C83 1.257 . S
C77 O72 1.254 . S
C77 O73 1.269 . S
C78 O79 1.249 . S
C78 O80 1.270 . S
O79 Zn71 1.943 . S
O79 C78 1.249 . S
O80 Zn70 2.067 . S
O80 C78 1.270 . S
C81 O74 1.262 . S
C81 O82 1.232 . S
O82 C81 1.232 . S
C83 O75 1.260 . S
C83 O76 1.257 . S
Zn84 O87 2.031 . S
Zn84 O89 2.049 . S
Zn84 O94 2.067 . S
Zn85 O86 1.962 . S
Zn85 O88 1.986 . S
Zn85 O90 1.996 . S
Zn85 O93 1.943 . S
O86 Zn85 1.962 . S
O86 C91 1.254 . S
O87 Zn84 2.031 . S
O87 C91 1.269 . S
O88 Zn85 1.986 . S
O88 C95 1.262 . S
O89 Zn84 2.049 . S
O89 C97 1.260 . S
O90 Zn85 1.996 . S
O90 C97 1.257 . S
C91 O86 1.254 . S
C91 O87 1.269 . S
C92 O93 1.249 . S
C92 O94 1.270 . S
O93 Zn85 1.943 . S
O93 C92 1.249 . S
O94 Zn84 2.067 . S
O94 C92 1.270 . S
C95 O88 1.262 . S
C95 O96 1.232 . S
O96 C95 1.232 . S
C97 O89 1.260 . S
C97 O90 1.257 . S
Zn98 O101 2.031 . S
Zn98 O103 2.049 . S
Zn98 O108 2.067 . S
Zn99 O100 1.962 . S
Zn99 O102 1.986 . S
Zn99 O104 1.996 . S
Zn99 O107 1.943 1_455 S
O100 Zn99 1.962 . S
O100 C105 1.254 . S
O101 Zn98 2.031 . S
O101 C105 1.269 1_655 S
O102 Zn99 1.986 . S
O102 C109 1.262 . S
O103 Zn98 2.049 . S
O103 C111 1.260 . S
O104 Zn99 1.996 . S
O104 C111 1.257 1_455 S
C105 O100 1.254 . S
C105 O101 1.269 1_455 S
C106 O107 1.249 . S
C106 O108 1.270 . S
O107 Zn99 1.943 1_655 S
O107 C106 1.249 . S
O108 Zn98 2.067 . S
O108 C106 1.270 . S
C109 O102 1.262 . S
C109 O110 1.232 . S
O110 C109 1.232 . S
C111 O103 1.260 . S
C111 O104 1.257 1_655 S
Zn112 O115 2.031 . S
Zn112 O117 2.049 . S
Zn112 O122 2.067 . S
Zn113 O114 1.962 . S
Zn113 O116 1.986 . S
Zn113 O118 1.996 . S
Zn113 O121 1.943 1_545 S
O114 Zn113 1.962 . S
O114 C119 1.254 . S
O115 Zn112 2.031 . S
O115 C119 1.269 1_565 S
O116 Zn113 1.986 . S
O116 C123 1.262 . S
O117 Zn112 2.049 . S
O117 C125 1.260 1_565 S
O118 Zn113 1.996 . S
O118 C125 1.257 . S
C119 O114 1.254 . S
C119 O115 1.269 1_545 S
C120 O121 1.249 . S
C120 O122 1.270 . S
O121 Zn113 1.943 1_565 S
O121 C120 1.249 . S
O122 Zn112 2.067 . S
O122 C120 1.270 . S
C123 O116 1.262 . S
C123 O124 1.232 . S
O124 C123 1.232 . S
C125 O117 1.260 1_545 S
C125 O118 1.257 . S
Zn126 O129 2.031 . S
Zn126 O131 2.049 . S
Zn126 O136 2.067 . S
Zn127 O128 1.962 . S
Zn127 O130 1.986 . S
Zn127 O132 1.996 . S
Zn127 O135 1.943 . S
O128 Zn127 1.962 . S
O128 C133 1.254 . S
O129 Zn126 2.031 . S
O129 C133 1.269 . S
O130 Zn127 1.986 . S
O130 C137 1.262 . S
O131 Zn126 2.049 . S
O131 C139 1.260 . S
O132 Zn127 1.996 . S
O132 C139 1.257 . S
C133 O128 1.254 . S
C133 O129 1.269 . S
C134 O135 1.249 . S
C134 O136 1.270 . S
O135 Zn127 1.943 . S
O135 C134 1.249 . S
O136 Zn126 2.067 . S
O136 C134 1.270 . S
C137 O130 1.262 . S
C137 O138 1.232 . S
O138 C137 1.232 . S
C139 O131 1.260 . S
C139 O132 1.257 . S
Zn140 O143 2.031 . S
Zn140 O145 2.049 . S
Zn140 O150 2.067 . S
Zn141 O142 1.962 . S
Zn141 O144 1.986 . S
Zn141 O146 1.996 . S
Zn141 O149 1.943 . S
O142 Zn141 1.962 . S
O142 C147 1.254 . S
O143 Zn140 2.031 . S
O143 C147 1.269 . S
O144 Zn141 1.986 . S
O144 C151 1.262 . S
O145 Zn140 2.049 . S
O145 C153 1.260 . S
O146 Zn141 1.996 . S
O146 C153 1.257 . S
C147 O142 1.254 . S
C147 O143 1.269 . S
C148 O149 1.249 . S
C148 O150 1.270 . S
O149 Zn141 1.943 . S
O149 C148 1.249 . S
O150 Zn140 2.067 . S
O150 C148 1.270 . S
C151 O144 1.262 . S
C151 O152 1.232 . S
O152 C151 1.232 . S
C153 O145 1.260 . S
C153 O146 1.257 . S
Zn154 O157 2.031 1_554 S
Zn154 O159 2.049 . S
Zn154 O164 2.067 . S
Zn155 O156 1.962 . S
Zn155 O158 1.986 1_556 S
Zn155 O160 1.996 1_556 S
Zn155 O163 1.943 1_556 S
O156 Zn155 1.962 . S
O156 C161 1.254 . S
O157 Zn154 2.031 1_556 S
O157 C161 1.269 . S
O158 Zn155 1.986 1_554 S
O158 C165 1.262 1_554 S
O159 Zn154 2.049 . S
O159 C167 1.260 . S
O160 Zn155 1.996 1_554 S
O160 C167 1.257 . S
C161 O156 1.254 . S
C161 O157 1.269 . S
C162 O163 1.249 . S
C162 O164 1.270 . S
O163 Zn155 1.943 1_554 S
O163 C162 1.249 . S
O164 Zn154 2.067 . S
O164 C162 1.270 . S
C165 O158 1.262 1_556 S
C165 O166 1.232 . S
O166 C165 1.232 . S
C167 O159 1.260 . S
C167 O160 1.257 . S
Zn168 O171 2.031 . S
Zn168 O173 2.049 . S
Zn168 O178 2.067 . S
Zn169 O170 1.962 . S
Zn169 O172 1.986 . S
Zn169 O174 1.996 . S
Zn169 O177 1.943 . S
O170 Zn169 1.962 . S
O170 C175 1.276 . S
O171 Zn168 2.031 . S
O171 C175 1.286 . S
O172 Zn169 1.986 . S
O172 C179 1.262 . S
O173 Zn168 2.049 . S
O173 C181 1.260 . S
O174 Zn169 1.996 . S
O174 C181 1.257 . S
C175 O170 1.276 . S
C175 O171 1.286 . S
C176 O177 1.249 . S
C176 O178 1.270 . S
O177 Zn169 1.943 . S
O177 C176 1.249 . S
O178 Zn168 2.067 . S
O178 C176 1.270 . S
C179 O172 1.262 . S
C179 O180 1.232 . S
O180 C179 1.232 . S
C181 O173 1.260 . S
C181 O174 1.257 . S
Zn182 O185 2.031 . S
Zn182 O187 2.049 . S
Zn182 O192 2.067 . S
Zn183 O184 1.962 . S
Zn183 O186 1.986 . S
Zn183 O188 1.996 . S
Zn183 O191 1.943 . S
O184 Zn183 1.962 . S
O184 C189 1.254 . S
O185 Zn182 2.031 . S
O185 C189 1.269 . S
O186 Zn183 1.986 . S
O186 C193 1.262 . S
O187 Zn182 2.049 . S
O187 C195 1.260 . S
O188 Zn183 1.996 . S
O188 C195 1.257 . S
C189 O184 1.254 . S
C189 O185 1.269 . S
C190 O191 1.249 . S
C190 O192 1.270 . S
O191 Zn183 1.943 . S
O191 C190 1.249 . S
O192 Zn182 2.067 . S
O192 C190 1.270 . S
C193 O186 1.262 . S
C193 O194 1.232 . S
O194 C193 1.232 . S
C195 O187 1.260 . S
C195 O188 1.257 . S
Zn196 O199 2.031 . S
Zn196 O201 2.049 . S
Zn196 O206 2.067 . S
Zn197 O198 1.962 . S
Zn197 O200 1.986 . S
Zn197 O202 1.996 . S
Zn197 O205 1.943 . S
O198 Zn197 1.962 . S
O198 C203 1.254 . S
O199 Zn196 2.031 . S
O199 C203 1.269 . S
O200 Zn197 1.986 . S
O200 C207 1.262 . S
O201 Zn196 2.049 . S
O201 C209 1.260 . S
O202 Zn197 1.996 . S
O202 C209 1.257 . S
C203 O198 1.254 . S
C203 O199 1.269 . S
C204 O205 1.249 . S
C204 O206 1.270 . S
O205 Zn197 1.943 . S
O205 C204 1.249 . S
O206 Zn196 2.067 . S
O206 C204 1.270 . S
C207 O200 1.262 . S
C207 O208 1.232 . S
O208 C207 1.232 . S
C209 O201 1.260 . S
C209 O202 1.257 . S
Zn210 O213 2.031 . S
Zn210 O215 2.049 . S
Zn210 O220 2.067 . S
Zn211 O212 1.962 . S
Zn211 O214 1.986 . S
Zn211 O216 1.996 . S
Zn211 O219 1.943 . S
O212 Zn211 1.962 . S
O212 C217 1.254 . S
O213 Zn210 2.031 . S
O213 C217 1.269 . S
O214 Zn211 1.986 . S
O214 C221 1.262 . S
O215 Zn210 2.049 . S
O215 C223 1.260 . S
O216 Zn211 1.996 . S
O216 C223 1.257 . S
C217 O212 1.254 . S
C217 O213 1.269 . S
C218 O219 1.249 . S
C218 O220 1.270 . S
O219 Zn211 1.943 . S
O219 C218 1.249 . S
O220 Zn210 2.067 . S
O220 C218 1.270 . S
C221 O214 1.262 . S
C221 O222 1.232 . S
O222 C221 1.232 . S
C223 O215 1.260 . S
C223 O216 1.257 . S
Zn224 O227 2.031 . S
Zn224 O229 2.049 . S
Zn224 O234 2.067 . S
Zn225 O226 1.962 . S
Zn225 O228 1.986 . S
Zn225 O230 1.996 . S
Zn225 O233 1.943 1_545 S
O226 Zn225 1.962 . S
O226 C231 1.254 . S
O227 Zn224 2.031 . S
O227 C231 1.269 1_565 S
O228 Zn225 1.986 . S
O228 C235 1.262 . S
O229 Zn224 2.049 . S
O229 C237 1.260 1_565 S
O230 Zn225 1.996 . S
O230 C237 1.257 . S
C231 O226 1.254 . S
C231 O227 1.269 1_545 S
C232 O233 1.249 . S
C232 O234 1.270 . S
O233 Zn225 1.943 1_565 S
O233 C232 1.249 . S
O234 Zn224 2.067 . S
O234 C232 1.270 . S
C235 O228 1.262 . S
C235 O236 1.232 . S
O236 C235 1.232 . S
C237 O229 1.260 1_545 S
C237 O230 1.257 . S
Zn238 O241 2.031 . S
Zn238 O243 2.049 . S
Zn238 O248 2.067 . S
Zn239 O240 1.962 . S
Zn239 O242 1.986 . S
Zn239 O244 1.996 . S
Zn239 O247 1.943 . S
O240 Zn239 1.962 . S
O240 C245 1.254 . S
O241 Zn238 2.031 . S
O241 C245 1.269 . S
O242 Zn239 1.986 . S
O242 C249 1.262 . S
O243 Zn238 2.049 . S
O243 C251 1.260 . S
O244 Zn239 1.996 . S
O244 C251 1.257 . S
C245 O240 1.254 . S
C245 O241 1.269 . S
C246 O247 1.249 . S
C246 O248 1.270 . S
O247 Zn239 1.943 . S
O247 C246 1.249 . S
O248 Zn238 2.067 . S
O248 C246 1.270 . S
C249 O242 1.262 . S
C249 O250 1.232 . S
O250 C249 1.232 . S
C251 O243 1.260 . S
C251 O244 1.257 . S
Zn252 O255 2.031 . S
Zn252 O257 2.049 . S
Zn252 O262 2.067 . S
Zn253 O254 1.962 . S
Zn253 O256 1.986 . S
Zn253 O258 1.996 . S
Zn253 O261 1.943 . S
O254 Zn253 1.962 . S
O254 C259 1.254 . S
O255 Zn252 2.031 . S
O255 C259 1.269 . S
O256 Zn253 1.986 . S
O256 C263 1.262 . S
O257 Zn252 2.049 . S
O257 C265 1.260 . S
O258 Zn253 1.996 . S
O258 C265 1.257 . S
C259 O254 1.254 . S
C259 O255 1.269 . S
C260 O261 1.249 . S
C260 O262 1.270 . S
O261 Zn253 1.943 . S
O261 C260 1.249 . S
O262 Zn252 2.067 . S
O262 C260 1.270 . S
C263 O256 1.262 . S
C263 O264 1.232 . S
O264 C263 1.232 . S
C265 O257 1.260 . S
C265 O258 1.257 . S
Zn266 O269 2.031 . S
Zn266 O271 2.049 . S
Zn266 O276 2.067 . S
Zn267 O268 1.962 . S
Zn267 O270 1.986 . S
Zn267 O272 1.996 . S
Zn267 O275 1.943 . S
O268 Zn267 1.962 . S
O268 C273 1.254 . S
O269 Zn266 2.031 . S
O269 C273 1.269 . S
O270 Zn267 1.986 . S
O270 C277 1.262 . S
O271 Zn266 2.049 . S
O271 C279 1.260 . S
O272 Zn267 1.996 . S
O272 C279 1.257 . S
C273 O268 1.254 . S
C273 O269 1.269 . S
C274 O275 1.249 . S
C274 O276 1.270 . S
O275 Zn267 1.943 . S
O275 C274 1.249 . S
O276 Zn266 2.067 . S
O276 C274 1.270 . S
C277 O270 1.262 . S
C277 O278 1.232 . S
O278 C277 1.232 . S
C279 O271 1.260 . S
C279 O272 1.257 . S
Zn280 O283 2.031 1_554 S
Zn280 O285 2.049 . S
Zn280 O290 2.067 . S
Zn281 O282 1.962 1_554 S
Zn281 O284 1.986 . S
Zn281 O286 1.996 . S
Zn281 O289 1.943 . S
O282 Zn281 1.962 1_556 S
O282 C287 1.254 . S
O283 Zn280 2.031 1_556 S
O283 C287 1.269 . S
O284 Zn281 1.986 . S
O284 C291 1.262 . S
O285 Zn280 2.049 . S
O285 C293 1.260 . S
O286 Zn281 1.996 . S
O286 C293 1.257 . S
C287 O282 1.254 . S
C287 O283 1.269 . S
C288 O289 1.249 . S
C288 O290 1.270 . S
O289 Zn281 1.943 . S
O289 C288 1.249 . S
O290 Zn280 2.067 . S
O290 C288 1.270 . S
C291 O284 1.262 . S
C291 O292 1.232 1_554 S
O292 C291 1.232 1_556 S
C293 O285 1.260 . S
C293 O286 1.257 . S
Zn294 O297 2.031 . S
Zn294 O299 2.049 . S
Zn294 O304 2.067 . S
Zn295 O296 1.962 . S
Zn295 O298 1.986 . S
Zn295 O300 1.996 . S
Zn295 O303 1.943 . S
O296 Zn295 1.962 . S
O296 C301 1.254 . S
O297 Zn294 2.031 . S
O297 C301 1.269 . S
O298 Zn295 1.986 . S
O298 C305 1.262 . S
O299 Zn294 2.049 . S
O299 C307 1.260 . S
O300 Zn295 1.996 . S
O300 C307 1.257 . S
C301 O296 1.254 . S
C301 O297 1.269 . S
C302 O303 1.249 . S
C302 O304 1.270 . S
O303 Zn295 1.943 . S
O303 C302 1.249 . S
O304 Zn294 2.067 . S
O304 C302 1.270 . S
C305 O298 1.262 . S
C305 O306 1.232 . S
O306 C305 1.232 . S
C307 O299 1.260 . S
C307 O300 1.257 . S
Zn308 O311 2.031 . S
Zn308 O313 2.049 . S
Zn308 O318 2.067 . S
Zn309 O310 1.962 . S
Zn309 O312 1.986 . S
Zn309 O314 1.996 . S
Zn309 O317 1.943 . S
O310 Zn309 1.962 . S
O310 C315 1.254 . S
O311 Zn308 2.031 . S
O311 C315 1.269 . S
O312 Zn309 1.986 . S
O312 C319 1.262 . S
O313 Zn308 2.049 . S
O313 C321 1.260 . S
O314 Zn309 1.996 . S
O314 C321 1.257 . S
C315 O310 1.254 . S
C315 O311 1.269 . S
C316 O317 1.249 . S
C316 O318 1.270 . S
O317 Zn309 1.943 . S
O317 C316 1.249 . S
O318 Zn308 2.067 . S
O318 C316 1.270 . S
C319 O312 1.262 . S
C319 O320 1.232 . S
O320 C319 1.232 . S
C321 O313 1.260 . S
C321 O314 1.257 . S
Zn322 O325 2.031 . S
Zn322 O327 2.049 . S
Zn322 O332 2.067 . S
Zn323 O324 1.962 . S
Zn323 O326 1.986 . S
Zn323 O328 1.996 . S
Zn323 O331 1.943 . S
O324 Zn323 1.962 . S
O324 C329 1.254 . S
O325 Zn322 2.031 . S
O325 C329 1.269 . S
O326 Zn323 1.986 . S
O326 C333 1.262 . S
O327 Zn322 2.049 . S
O327 C335 1.260 . S
O328 Zn323 1.996 . S
O328 C335 1.257 . S
C329 O324 1.254 . S
C329 O325 1.269 . S
C330 O331 1.249 . S
C330 O332 1.270 . S
O331 Zn323 1.943 . S
O331 C330 1.249 . S
O332 Zn322 2.067 . S
O332 C330 1.270 . S
C333 O326 1.262 . S
C333 O334 1.232 . S
O334 C333 1.232 . S
C335 O327 1.260 . S
C335 O328 1.257 . S
Eu336 N365 2.600 . S
Eu336 N371 2.562 . S
Eu336 O380 2.462 . S
Eu336 O381 2.373 . S
Eu336 O383 2.432 . S
Eu336 O384 2.291 . S
Eu336 O388 2.335 . S
Eu336 O391 2.372 . S
Eu336 C400 2.787 . S
C337 N338 1.365 . S
C337 C340 1.405 . S
C337 C344 1.448 1_556 S
N338 C337 1.365 . S
N338 C341 1.319 . S
N338 Eu347 2.605 1_566 S
C339 C341 1.397 . S
C339 C342 1.367 . S
C339 H359 0.931 . S
C340 C337 1.405 . S
C340 C342 1.403 . S
C340 C346 1.439 . S
C341 N338 1.319 . S
C341 C339 1.397 . S
C341 H352 0.930 . S
C342 C339 1.367 . S
C342 C340 1.403 . S
C342 H363 0.929 . S
C343 C344 1.430 . S
C343 C345 1.387 1_554 S
C343 C349 1.404 . S
C344 C337 1.448 1_554 S
C344 C343 1.430 . S
C344 N348 1.351 . S
C345 C343 1.387 1_556 S
C345 C346 1.374 . S
C345 H360 0.931 1_556 S
C346 C340 1.439 . S
C346 C345 1.374 . S
C346 H361 0.931 . S
Eu347 N338 2.605 1_544 S
Eu347 N348 2.579 1_545 S
Eu347 O382 2.331 1_655 S
Eu347 O385 2.349 1_654 S
Eu347 O386 2.493 . S
Eu347 O387 2.350 1_645 S
Eu347 O389 2.457 1_554 S
Eu347 O390 2.286 1_655 S
Eu347 C411 2.818 . S
N348 C344 1.351 . S
N348 Eu347 2.579 1_565 S
N348 C350 1.325 . S
C349 C343 1.404 . S
C349 C351 1.366 . S
C349 H357 0.930 . S
C350 N348 1.325 . S
C350 C351 1.416 . S
C350 H356 0.929 . S
C351 C349 1.366 . S
C351 C350 1.416 . S
C351 H353 0.930 . S
H352 C341 0.930 . S
H353 C351 0.930 . S
H354 C369 0.930 . S
H355 C376 0.930 1_556 S
H356 C350 0.929 . S
H357 C349 0.930 . S
H358 C372 0.929 . S
H359 C339 0.931 . S
H360 C345 0.931 1_554 S
H361 C346 0.931 . S
H362 C367 0.931 . S
H363 C342 0.929 . S
H364 C375 0.930 . S
N365 Eu336 2.600 . S
N365 C366 1.365 . S
N365 C369 1.319 . S
C366 N365 1.365 . S
C366 C368 1.405 . S
C366 C374 1.448 . S
C367 H362 0.931 . S
C367 C369 1.397 . S
C367 C370 1.367 . S
C368 C366 1.405 . S
C368 C370 1.403 . S
C368 C401 1.439 . S
C369 H354 0.930 . S
C369 N365 1.319 . S
C369 C367 1.397 . S
C370 C367 1.367 . S
C370 C368 1.403 . S
C370 H377 0.929 . S
N371 Eu336 2.562 . S
N371 C372 1.325 . S
N371 C374 1.351 . S
C372 H358 0.929 . S
C372 N371 1.325 . S
C372 C376 1.416 . S
C373 C374 1.430 . S
C373 C375 1.404 . S
C373 C402 1.387 . S
C374 C366 1.448 . S
C374 N371 1.351 . S
C374 C373 1.430 . S
C375 H364 0.930 . S
C375 C373 1.404 . S
C375 C376 1.366 . S
C376 H355 0.930 1_554 S
C376 C372 1.416 . S
C376 C375 1.366 . S
H377 C370 0.929 . S
H378 C401 0.931 . S
H379 C402 0.931 . S
O380 Eu336 2.462 . S
O380 C400 1.252 . S
O381 Eu336 2.373 . S
O381 C392 1.249 . S
O382 Eu347 2.331 1_455 S
O382 C392 1.264 . S
O383 Eu336 2.432 . S
O383 C400 1.268 . S
O384 Eu336 2.291 . S
O384 C399 1.255 1_554 S
O385 Eu347 2.349 1_456 S
O385 C399 1.257 . S
O386 Eu347 2.493 . S
O386 C411 1.252 . S
O387 Eu347 2.350 1_465 S
O387 C403 1.249 . S
O388 Eu336 2.335 . S
O388 C403 1.264 1_545 S
O389 Eu347 2.457 1_556 S
O389 C411 1.268 1_556 S
O390 Eu347 2.286 1_455 S
O390 C410 1.255 . S
O391 Eu336 2.372 . S
O391 C410 1.257 . S
C392 O381 1.249 . S
C392 O382 1.264 . S
C393 C396 1.382 . S
C393 C398 1.390 . S
C393 C400 1.506 . S
C394 C395 1.398 . S
C394 C398 1.392 . S
C395 C394 1.398 . S
C395 C397 1.372 . S
C395 H412 0.931 . S
C396 C393 1.382 . S
C396 C397 1.390 . S
C396 H413 0.931 . S
C397 C395 1.372 . S
C397 C396 1.390 . S
C397 H414 0.929 . S
C398 C393 1.390 . S
C398 C394 1.392 . S
C398 H415 0.930 . S
C399 O384 1.255 1_556 S
C399 O385 1.257 . S
C400 Eu336 2.787 . S
C400 O380 1.252 . S
C400 O383 1.268 . S
C400 C393 1.506 . S
C401 C368 1.439 . S
C401 H378 0.931 . S
C401 C402 1.374 . S
C402 C373 1.387 . S
C402 H379 0.931 . S
C402 C401 1.374 . S
C403 O387 1.249 . S
C403 O388 1.264 1_565 S
C404 C407 1.382 1_554 S
C404 C408 1.390 . S
C404 C411 1.506 . S
C405 C406 1.398 1_554 S
C405 C408 1.392 . S
C406 C405 1.398 1_556 S
C406 C409 1.372 . S
C406 H416 0.931 . S
C407 C404 1.382 1_556 S
C407 C409 1.390 . S
C407 H417 0.931 . S
C408 C404 1.390 . S
C408 C405 1.392 . S
C408 H418 0.930 . S
C409 C406 1.372 . S
C409 C407 1.390 . S
C409 H419 0.929 . S
C410 O390 1.255 . S
C410 O391 1.257 . S
C411 Eu347 2.818 . S
C411 O386 1.252 . S
C411 O389 1.268 1_554 S
C411 C404 1.506 . S
H412 C395 0.931 . S
H413 C396 0.931 . S
H414 C397 0.929 . S
H415 C398 0.930 . S
H416 C406 0.931 . S
H417 C407 0.931 . S
H418 C408 0.930 . S
H419 C409 0.929 . S
Eu420 N449 2.600 . S
Eu420 N455 2.562 . S
Eu420 O464 2.462 . S
Eu420 O465 2.373 . S
Eu420 O467 2.432 . S
Eu420 O468 2.291 . S
Eu420 O472 2.335 . S
Eu420 O475 2.372 . S
Eu420 C484 2.787 . S
C421 N422 1.365 . S
C421 C424 1.405 . S
C421 C428 1.448 . S
N422 C421 1.365 . S
N422 C425 1.319 . S
N422 Eu431 2.600 . S
C423 C425 1.397 . S
C423 C426 1.367 . S
C423 H443 0.931 . S
C424 C421 1.405 . S
C424 C426 1.403 . S
C424 C430 1.439 . S
C425 N422 1.319 . S
C425 C423 1.397 . S
C425 H436 0.930 . S
C426 C423 1.367 . S
C426 C424 1.403 . S
C426 H447 0.929 . S
C427 C428 1.430 . S
C427 C429 1.387 . S
C427 C433 1.404 . S
C428 C421 1.448 . S
C428 C427 1.430 . S
C428 N432 1.351 . S
C429 C427 1.387 . S
C429 C430 1.374 . S
C429 H444 0.931 . S
C430 C424 1.439 . S
C430 C429 1.374 . S
C430 H445 0.931 . S
Eu431 N422 2.600 . S
Eu431 N432 2.562 . S
Eu431 O466 2.335 . S
Eu431 O469 2.372 . S
Eu431 O470 2.462 . S
Eu431 O471 2.373 . S
Eu431 O473 2.432 . S
Eu431 O474 2.291 . S
Eu431 C495 2.787 . S
N432 C428 1.351 . S
N432 Eu431 2.562 . S
N432 C434 1.325 . S
C433 C427 1.404 . S
C433 C435 1.366 . S
C433 H441 0.930 . S
C434 N432 1.325 . S
C434 C435 1.416 . S
C434 H440 0.929 . S
C435 C433 1.366 . S
C435 C434 1.416 . S
C435 H437 0.930 . S
H436 C425 0.930 . S
H437 C435 0.930 . S
H438 C453 0.930 . S
H439 C460 0.930 . S
H440 C434 0.929 . S
H441 C433 0.930 . S
H442 C456 0.929 . S
H443 C423 0.931 . S
H444 C429 0.931 . S
H445 C430 0.931 . S
H446 C451 0.931 . S
H447 C426 0.929 . S
H448 C459 0.930 . S
N449 Eu420 2.600 . S
N449 C450 1.365 . S
N449 C453 1.319 . S
C450 N449 1.365 . S
C450 C452 1.405 . S
C450 C458 1.448 . S
C451 H446 0.931 . S
C451 C453 1.397 . S
C451 C454 1.367 . S
C452 C450 1.405 . S
C452 C454 1.403 . S
C452 C485 1.439 . S
C453 H438 0.930 . S
C453 N449 1.319 . S
C453 C451 1.397 . S
C454 C451 1.367 . S
C454 C452 1.403 . S
C454 H461 0.929 . S
N455 Eu420 2.562 . S
N455 C456 1.325 . S
N455 C458 1.351 . S
C456 H442 0.929 . S
C456 N455 1.325 . S
C456 C460 1.416 . S
C457 C458 1.430 . S
C457 C459 1.404 . S
C457 C486 1.387 . S
C458 C450 1.448 . S
C458 N455 1.351 . S
C458 C457 1.430 . S
C459 H448 0.930 . S
C459 C457 1.404 . S
C459 C460 1.366 . S
C460 H439 0.930 . S
C460 C456 1.416 . S
C460 C459 1.366 . S
H461 C454 0.929 . S
H462 C485 0.931 . S
H463 C486 0.931 . S
O464 Eu420 2.462 . S
O464 C484 1.252 . S
O465 Eu420 2.373 . S
O465 C476 1.249 . S
O466 Eu431 2.335 . S
O466 C476 1.264 . S
O467 Eu420 2.432 . S
O467 C484 1.268 . S
O468 Eu420 2.291 . S
O468 C483 1.255 . S
O469 Eu431 2.372 . S
O469 C483 1.257 . S
O470 Eu431 2.462 . S
O470 C495 1.252 . S
O471 Eu431 2.373 . S
O471 C487 1.249 . S
O472 Eu420 2.335 . S
O472 C487 1.264 . S
O473 Eu431 2.432 . S
O473 C495 1.268 . S
O474 Eu431 2.291 . S
O474 C494 1.255 . S
O475 Eu420 2.372 . S
O475 C494 1.257 . S
C476 O465 1.249 . S
C476 O466 1.264 . S
C477 C480 1.382 . S
C477 C482 1.390 . S
C477 C484 1.506 . S
C478 C479 1.398 . S
C478 C482 1.392 . S
C479 C478 1.398 . S
C479 C481 1.372 . S
C479 H496 0.931 . S
C480 C477 1.382 . S
C480 C481 1.390 . S
C480 H497 0.931 . S
C481 C479 1.372 . S
C481 C480 1.390 . S
C481 H498 0.929 . S
C482 C477 1.390 . S
C482 C478 1.392 . S
C482 H499 0.930 . S
C483 O468 1.255 . S
C483 O469 1.257 . S
C484 Eu420 2.787 . S
C484 O464 1.252 . S
C484 O467 1.268 . S
C484 C477 1.506 . S
C485 C452 1.439 . S
C485 H462 0.931 . S
C485 C486 1.374 . S
C486 C457 1.387 . S
C486 H463 0.931 . S
C486 C485 1.374 . S
C487 O471 1.249 . S
C487 O472 1.264 . S
C488 C491 1.382 . S
C488 C492 1.390 . S
C488 C495 1.506 . S
C489 C490 1.398 . S
C489 C492 1.392 . S
C490 C489 1.398 . S
C490 C493 1.372 . S
C490 H500 0.931 . S
C491 C488 1.382 . S
C491 C493 1.390 . S
C491 H501 0.931 . S
C492 C488 1.390 . S
C492 C489 1.392 . S
C492 H502 0.930 . S
C493 C490 1.372 . S
C493 C491 1.390 . S
C493 H503 0.929 . S
C494 O474 1.255 . S
C494 O475 1.257 . S
C495 Eu431 2.787 . S
C495 O470 1.252 . S
C495 O473 1.268 . S
C495 C488 1.506 . S
H496 C479 0.931 . S
H497 C480 0.931 . S
H498 C481 0.929 . S
H499 C482 0.930 . S
H500 C490 0.931 . S
H501 C491 0.931 . S
H502 C492 0.930 . S
H503 C493 0.929 . S
Eu504 N533 2.600 1_545 S
Eu504 N539 2.562 1_545 S
Eu504 O548 2.462 . S
Eu504 O549 2.373 1_545 S
Eu504 O551 2.432 . S
Eu504 O552 2.291 . S
Eu504 O556 2.335 . S
Eu504 O559 2.372 . S
Eu504 C568 2.787 . S
C505 N506 1.365 . S
C505 C508 1.405 . S
C505 C512 1.448 . S
N506 C505 1.365 . S
N506 C509 1.319 . S
N506 Eu515 2.600 . S
C507 C509 1.397 . S
C507 C510 1.367 . S
C507 H527 0.931 . S
C508 C505 1.405 . S
C508 C510 1.403 . S
C508 C514 1.439 . S
C509 N506 1.319 . S
C509 C507 1.397 . S
C509 H520 0.930 . S
C510 C507 1.367 . S
C510 C508 1.403 . S
C510 H531 0.929 . S
C511 C512 1.430 . S
C511 C513 1.387 . S
C511 C517 1.404 . S
C512 C505 1.448 . S
C512 C511 1.430 . S
C512 N516 1.351 . S
C513 C511 1.387 . S
C513 C514 1.374 . S
C513 H528 0.931 . S
C514 C508 1.439 . S
C514 C513 1.374 . S
C514 H529 0.931 . S
Eu515 N506 2.600 . S
Eu515 N516 2.562 . S
Eu515 O550 2.335 1_545 S
Eu515 O553 2.372 . S
Eu515 O554 2.462 . S
Eu515 O555 2.373 . S
Eu515 O557 2.432 . S
Eu515 O558 2.291 . S
Eu515 C579 2.787 . S
N516 C512 1.351 . S
N516 Eu515 2.562 . S
N516 C518 1.325 . S
C517 C511 1.404 . S
C517 C519 1.366 . S
C517 H525 0.930 . S
C518 N516 1.325 . S
C518 C519 1.416 . S
C518 H524 0.929 . S
C519 C517 1.366 . S
C519 C518 1.416 . S
C519 H521 0.930 . S
H520 C509 0.930 . S
H521 C519 0.930 . S
H522 C537 0.919 1_545 S
H523 C544 0.930 . S
H524 C518 0.929 . S
H525 C517 0.930 . S
H526 C540 0.929 . S
H527 C507 0.931 . S
H528 C513 0.931 . S
H529 C514 0.931 . S
H530 C535 0.931 . S
H531 C510 0.929 . S
H532 C543 0.930 . S
N533 Eu504 2.600 1_565 S
N533 C534 1.365 . S
N533 C537 1.318 . S
C534 N533 1.365 . S
C534 C536 1.405 . S
C534 C542 1.448 . S
C535 H530 0.931 . S
C535 C537 1.408 . S
C535 C538 1.367 . S
C536 C534 1.405 . S
C536 C538 1.403 . S
C536 C569 1.439 . S
C537 H522 0.919 1_565 S
C537 N533 1.318 . S
C537 C535 1.408 . S
C538 C535 1.367 . S
C538 C536 1.403 . S
C538 H545 0.929 . S
N539 Eu504 2.562 1_565 S
N539 C540 1.325 . S
N539 C542 1.351 . S
C540 H526 0.929 . S
C540 N539 1.325 . S
C540 C544 1.416 . S
C541 C542 1.430 . S
C541 C543 1.404 . S
C541 C570 1.387 . S
C542 C534 1.448 . S
C542 N539 1.351 . S
C542 C541 1.430 . S
C543 H532 0.930 . S
C543 C541 1.404 . S
C543 C544 1.366 . S
C544 H523 0.930 . S
C544 C540 1.416 . S
C544 C543 1.366 . S
H545 C538 0.929 . S
H546 C569 0.931 . S
H547 C570 0.931 . S
O548 Eu504 2.462 . S
O548 C568 1.252 . S
O549 Eu504 2.373 1_565 S
O549 C560 1.249 . S
O550 Eu515 2.335 1_565 S
O550 C560 1.264 . S
O551 Eu504 2.432 . S
O551 C568 1.268 . S
O552 Eu504 2.291 . S
O552 C567 1.255 . S
O553 Eu515 2.372 . S
O553 C567 1.257 . S
O554 Eu515 2.462 . S
O554 C579 1.252 . S
O555 Eu515 2.373 . S
O555 C571 1.249 . S
O556 Eu504 2.335 . S
O556 C571 1.264 . S
O557 Eu515 2.432 . S
O557 C579 1.268 . S
O558 Eu515 2.291 . S
O558 C578 1.255 . S
O559 Eu504 2.372 . S
O559 C578 1.257 . S
C560 O549 1.249 . S
C560 O550 1.264 . S
C561 C564 1.382 . S
C561 C566 1.390 . S
C561 C568 1.506 . S
C562 C563 1.398 . S
C562 C566 1.392 . S
C563 C562 1.398 . S
C563 C565 1.372 . S
C563 H580 0.931 . S
C564 C561 1.382 . S
C564 C565 1.390 . S
C564 H581 0.931 . S
C565 C563 1.372 . S
C565 C564 1.390 . S
C565 H582 0.929 . S
C566 C561 1.390 . S
C566 C562 1.392 . S
C566 H583 0.930 . S
C567 O552 1.255 . S
C567 O553 1.257 . S
C568 Eu504 2.787 . S
C568 O548 1.252 . S
C568 O551 1.268 . S
C568 C561 1.506 . S
C569 C536 1.439 . S
C569 H546 0.931 . S
C569 C570 1.374 . S
C570 C541 1.387 . S
C570 H547 0.931 . S
C570 C569 1.374 . S
C571 O555 1.249 . S
C571 O556 1.264 . S
C572 C575 1.382 . S
C572 C576 1.390 . S
C572 C579 1.506 1_565 S
C573 C574 1.398 . S
C573 C576 1.392 . S
C574 C573 1.398 . S
C574 C577 1.372 . S
C574 H584 0.931 . S
C575 C572 1.382 . S
C575 C577 1.390 . S
C575 H585 0.931 . S
C576 C572 1.390 . S
C576 C573 1.392 . S
C576 H586 0.930 . S
C577 C574 1.372 . S
C577 C575 1.390 . S
C577 H587 0.929 . S
C578 O558 1.255 . S
C578 O559 1.257 . S
C579 Eu515 2.787 . S
C579 O554 1.252 . S
C579 O557 1.268 . S
C579 C572 1.506 1_545 S
H580 C563 0.931 . S
H581 C564 0.931 . S
H582 C565 0.929 . S
H583 C566 0.930 . S
H584 C574 0.931 . S
H585 C575 0.931 . S
H586 C576 0.930 . S
H587 C577 0.929 . S
Eu588 N617 2.600 . S
Eu588 N623 2.562 . S
Eu588 O632 2.462 . S
Eu588 O633 2.373 . S
Eu588 O635 2.432 . S
Eu588 O636 2.291 . S
Eu588 O640 2.335 . S
Eu588 O643 2.372 . S
Eu588 C652 2.787 . S
C589 N590 1.365 . S
C589 C592 1.405 . S
C589 C596 1.448 . S
N590 C589 1.365 . S
N590 C593 1.319 . S
N590 Eu599 2.600 . S
C591 C593 1.397 . S
C591 C594 1.367 . S
C591 H611 0.931 . S
C592 C589 1.405 . S
C592 C594 1.403 . S
C592 C598 1.439 . S
C593 N590 1.319 . S
C593 C591 1.397 . S
C593 H604 0.930 . S
C594 C591 1.367 . S
C594 C592 1.403 . S
C594 H615 0.929 . S
C595 C596 1.430 . S
C595 C597 1.387 . S
C595 C601 1.404 . S
C596 C589 1.448 . S
C596 C595 1.430 . S
C596 N600 1.351 . S
C597 C595 1.387 . S
C597 C598 1.374 . S
C597 H612 0.931 . S
C598 C592 1.439 . S
C598 C597 1.374 . S
C598 H613 0.931 . S
Eu599 N590 2.600 . S
Eu599 N600 2.562 . S
Eu599 O634 2.335 . S
Eu599 O637 2.372 . S
Eu599 O638 2.462 . S
Eu599 O639 2.373 . S
Eu599 O641 2.432 . S
Eu599 O642 2.291 . S
Eu599 C663 2.787 . S
N600 C596 1.351 . S
N600 Eu599 2.562 . S
N600 C602 1.325 . S
C601 C595 1.404 . S
C601 C603 1.366 . S
C601 H609 0.930 . S
C602 N600 1.325 . S
C602 C603 1.416 . S
C602 H608 0.929 . S
C603 C601 1.366 . S
C603 C602 1.416 . S
C603 H605 0.930 . S
H604 C593 0.930 . S
H605 C603 0.930 . S
H606 C621 0.930 . S
H607 C628 0.930 . S
H608 C602 0.929 . S
H609 C601 0.930 . S
H610 C624 0.929 . S
H611 C591 0.931 . S
H612 C597 0.931 . S
H613 C598 0.931 . S
H614 C619 0.931 . S
H615 C594 0.929 . S
H616 C627 0.930 . S
N617 Eu588 2.600 . S
N617 C618 1.365 . S
N617 C621 1.319 . S
C618 N617 1.365 . S
C618 C620 1.405 . S
C618 C626 1.448 . S
C619 H614 0.931 . S
C619 C621 1.397 . S
C619 C622 1.367 . S
C620 C618 1.405 . S
C620 C622 1.403 . S
C620 C653 1.439 . S
C621 H606 0.930 . S
C621 N617 1.319 . S
C621 C619 1.397 . S
C622 C619 1.367 . S
C622 C620 1.403 . S
C622 H629 0.929 . S
N623 Eu588 2.562 . S
N623 C624 1.325 . S
N623 C626 1.351 . S
C624 H610 0.929 . S
C624 N623 1.325 . S
C624 C628 1.416 . S
C625 C626 1.430 . S
C625 C627 1.404 . S
C625 C654 1.387 . S
C626 C618 1.448 . S
C626 N623 1.351 . S
C626 C625 1.430 . S
C627 H616 0.930 . S
C627 C625 1.404 . S
C627 C628 1.366 . S
C628 H607 0.930 . S
C628 C624 1.416 . S
C628 C627 1.366 . S
H629 C622 0.929 . S
H630 C653 0.931 . S
H631 C654 0.931 . S
O632 Eu588 2.462 . S
O632 C652 1.252 . S
O633 Eu588 2.373 . S
O633 C644 1.249 . S
O634 Eu599 2.335 . S
O634 C644 1.264 . S
O635 Eu588 2.432 . S
O635 C652 1.268 . S
O636 Eu588 2.291 . S
O636 C651 1.255 . S
O637 Eu599 2.372 . S
O637 C651 1.257 . S
O638 Eu599 2.462 . S
O638 C663 1.252 . S
O639 Eu599 2.373 . S
O639 C655 1.249 . S
O640 Eu588 2.335 . S
O640 C655 1.264 . S
O641 Eu599 2.432 . S
O641 C663 1.268 . S
O642 Eu599 2.291 . S
O642 C662 1.255 . S
O643 Eu588 2.372 . S
O643 C662 1.257 . S
C644 O633 1.249 . S
C644 O634 1.264 . S
C645 C648 1.382 . S
C645 C650 1.390 . S
C645 C652 1.506 . S
C646 C647 1.398 . S
C646 C650 1.392 . S
C647 C646 1.398 . S
C647 C649 1.372 . S
C647 H664 0.931 . S
C648 C645 1.382 . S
C648 C649 1.390 . S
C648 H665 0.931 . S
C649 C647 1.372 . S
C649 C648 1.390 . S
C649 H666 0.929 . S
C650 C645 1.390 . S
C650 C646 1.392 . S
C650 H667 0.930 . S
C651 O636 1.255 . S
C651 O637 1.257 . S
C652 Eu588 2.787 . S
C652 O632 1.252 . S
C652 O635 1.268 . S
C652 C645 1.506 . S
C653 C620 1.439 . S
C653 H630 0.931 . S
C653 C654 1.374 . S
C654 C625 1.387 . S
C654 H631 0.931 . S
C654 C653 1.374 . S
C655 O639 1.249 . S
C655 O640 1.264 . S
C656 C659 1.382 . S
C656 C660 1.390 . S
C656 C663 1.506 . S
C657 C658 1.398 . S
C657 C660 1.392 . S
C658 C657 1.398 . S
C658 C661 1.372 . S
C658 H668 0.931 . S
C659 C656 1.382 . S
C659 C661 1.390 . S
C659 H669 0.931 . S
C660 C656 1.390 . S
C660 C657 1.392 . S
C660 H670 0.930 . S
C661 C658 1.372 . S
C661 C659 1.390 . S
C661 H671 0.929 . S
C662 O642 1.255 . S
C662 O643 1.257 . S
C663 Eu599 2.787 . S
C663 O638 1.252 . S
C663 O641 1.268 . S
C663 C656 1.506 . S
H664 C647 0.931 . S
H665 C648 0.931 . S
H666 C649 0.929 . S
H667 C650 0.930 . S
H668 C658 0.931 . S
H669 C659 0.931 . S
H670 C660 0.930 . S
H671 C661 0.929 . S
Eu672 N701 2.600 . S
Eu672 N707 2.562 . S
Eu672 O716 2.462 . S
Eu672 O717 2.373 1_565 S
Eu672 O719 2.432 . S
Eu672 O720 2.291 1_565 S
Eu672 O724 2.335 1_565 S
Eu672 O727 2.372 1_565 S
Eu672 C736 2.787 . S
C673 N674 1.365 1_455 S
C673 C676 1.405 1_455 S
C673 C680 1.448 . S
N674 C673 1.365 1_655 S
N674 C677 1.319 . S
N674 Eu683 2.600 1_655 S
C675 C677 1.397 . S
C675 C678 1.367 . S
C675 H695 0.931 . S
C676 C673 1.405 1_655 S
C676 C678 1.403 . S
C676 C682 1.439 1_655 S
C677 N674 1.319 . S
C677 C675 1.397 . S
C677 H688 0.930 . S
C678 C675 1.367 . S
C678 C676 1.403 . S
C678 H699 0.929 . S
C679 C680 1.430 . S
C679 C681 1.387 . S
C679 C685 1.404 . S
C680 C673 1.448 . S
C680 C679 1.430 . S
C680 N684 1.351 . S
C681 C679 1.387 . S
C681 C682 1.374 . S
C681 H696 0.931 . S
C682 C676 1.439 1_455 S
C682 C681 1.374 . S
C682 H697 0.931 . S
Eu683 N674 2.600 1_455 S
Eu683 N684 2.562 . S
Eu683 O718 2.335 . S
Eu683 O721 2.372 1_455 S
Eu683 O722 2.462 . S
Eu683 O723 2.373 . S
Eu683 O725 2.432 1_455 S
Eu683 O726 2.291 . S
Eu683 C747 2.787 . S
N684 C680 1.351 . S
N684 Eu683 2.562 . S
N684 C686 1.325 . S
C685 C679 1.404 . S
C685 C687 1.366 . S
C685 H693 0.930 . S
C686 N684 1.325 . S
C686 C687 1.416 . S
C686 H692 0.929 . S
C687 C685 1.366 . S
C687 C686 1.416 . S
C687 H689 0.930 . S
H688 C677 0.930 . S
H689 C687 0.930 . S
H690 C705 0.930 1_545 S
H691 C712 0.930 . S
H692 C686 0.929 . S
H693 C685 0.930 . S
H694 C708 0.929 . S
H695 C675 0.931 . S
H696 C681 0.931 . S
H697 C682 0.931 . S
H698 C703 0.931 . S
H699 C678 0.929 . S
H700 C711 0.930 . S
N701 Eu672 2.600 . S
N701 C702 1.365 . S
N701 C705 1.319 . S
C702 N701 1.365 . S
C702 C704 1.405 . S
C702 C710 1.448 . S
C703 H698 0.931 . S
C703 C705 1.397 . S
C703 C706 1.367 . S
C704 C702 1.405 . S
C704 C706 1.403 . S
C704 C737 1.439 . S
C705 H690 0.930 1_565 S
C705 N701 1.319 . S
C705 C703 1.397 . S
C706 C703 1.367 . S
C706 C704 1.403 . S
C706 H713 0.929 . S
N707 Eu672 2.562 . S
N707 C708 1.325 1_455 S
N707 C710 1.351 . S
C708 H694 0.929 . S
C708 N707 1.325 1_655 S
C708 C712 1.416 . S
C709 C710 1.430 . S
C709 C711 1.404 1_455 S
C709 C738 1.387 . S
C710 C702 1.448 . S
C710 N707 1.351 . S
C710 C709 1.430 . S
C711 H700 0.930 . S
C711 C709 1.404 1_655 S
C711 C712 1.366 . S
C712 H691 0.930 . S
C712 C708 1.416 . S
C712 C711 1.366 . S
H713 C706 0.929 . S
H714 C737 0.931 . S
H715 C738 0.931 . S
O716 Eu672 2.462 . S
O716 C736 1.252 . S
O717 Eu672 2.373 1_545 S
O717 C728 1.249 . S
O718 Eu683 2.335 . S
O718 C728 1.264 . S
O719 Eu672 2.432 . S
O719 C736 1.268 . S
O720 Eu672 2.291 1_545 S
O720 C735 1.255 1_455 S
O721 Eu683 2.372 1_655 S
O721 C735 1.257 . S
O722 Eu683 2.462 . S
O722 C747 1.252 . S
O723 Eu683 2.373 . S
O723 C739 1.249 . S
O724 Eu672 2.335 1_545 S
O724 C739 1.264 . S
O725 Eu683 2.432 1_655 S
O725 C747 1.268 1_655 S
O726 Eu683 2.291 . S
O726 C746 1.255 . S
O727 Eu672 2.372 1_545 S
O727 C746 1.257 . S
C728 O717 1.249 . S
C728 O718 1.264 . S
C729 C732 1.382 . S
C729 C734 1.390 . S
C729 C736 1.506 . S
C730 C731 1.398 . S
C730 C734 1.392 . S
C731 C730 1.398 . S
C731 C733 1.372 . S
C731 H748 0.931 . S
C732 C729 1.382 . S
C732 C733 1.390 . S
C732 H749 0.931 . S
C733 C731 1.372 . S
C733 C732 1.390 . S
C733 H750 0.929 . S
C734 C729 1.390 . S
C734 C730 1.392 . S
C734 H751 0.930 . S
C735 O720 1.255 1_655 S
C735 O721 1.257 . S
C736 Eu672 2.787 . S
C736 O716 1.252 . S
C736 O719 1.268 . S
C736 C729 1.506 . S
C737 C704 1.439 . S
C737 H714 0.931 . S
C737 C738 1.374 . S
C738 C709 1.387 . S
C738 H715 0.931 . S
C738 C737 1.374 . S
C739 O723 1.249 . S
C739 O724 1.264 . S
C740 C743 1.382 1_455 S
C740 C744 1.390 . S
C740 C747 1.506 . S
C741 C742 1.398 . S
C741 C744 1.392 . S
C742 C741 1.398 . S
C742 C745 1.372 1_455 S
C742 H752 0.921 1_455 S
C743 C740 1.382 1_655 S
C743 C745 1.390 . S
C743 H753 0.931 . S
C744 C740 1.390 . S
C744 C741 1.392 . S
C744 H754 0.930 . S
C745 C742 1.372 1_655 S
C745 C743 1.390 . S
C745 H755 0.929 . S
C746 O726 1.255 . S
C746 O727 1.257 . S
C747 Eu683 2.787 . S
C747 O722 1.252 . S
C747 O725 1.268 1_455 S
C747 C740 1.506 . S
H748 C731 0.931 . S
H749 C732 0.931 . S
H750 C733 0.929 . S
H751 C734 0.930 . S
H752 C742 0.921 1_655 S
H753 C743 0.931 . S
H754 C744 0.930 . S
H755 C745 0.929 . S
Eu756 N785 2.600 . S
Eu756 N791 2.562 . S
Eu756 O800 2.462 . S
Eu756 O801 2.373 . S
Eu756 O803 2.432 . S
Eu756 O804 2.291 . S
Eu756 O808 2.335 . S
Eu756 O811 2.372 . S
Eu756 C820 2.787 . S
C757 N758 1.365 . S
C757 C760 1.405 . S
C757 C764 1.448 . S
N758 C757 1.365 . S
N758 C761 1.319 . S
N758 Eu767 2.600 . S
C759 C761 1.397 . S
C759 C762 1.367 . S
C759 H779 0.931 . S
C760 C757 1.405 . S
C760 C762 1.403 . S
C760 C766 1.439 . S
C761 N758 1.319 . S
C761 C759 1.397 . S
C761 H772 0.930 . S
C762 C759 1.367 . S
C762 C760 1.403 . S
C762 H783 0.929 . S
C763 C764 1.430 . S
C763 C765 1.387 . S
C763 C769 1.404 . S
C764 C757 1.448 . S
C764 C763 1.430 . S
C764 N768 1.351 . S
C765 C763 1.387 . S
C765 C766 1.374 . S
C765 H780 0.931 . S
C766 C760 1.439 . S
C766 C765 1.374 . S
C766 H781 0.931 . S
Eu767 N758 2.600 . S
Eu767 N768 2.562 . S
Eu767 O802 2.335 . S
Eu767 O805 2.372 . S
Eu767 O806 2.462 . S
Eu767 O807 2.373 . S
Eu767 O809 2.432 . S
Eu767 O810 2.291 . S
Eu767 C831 2.787 . S
N768 C764 1.351 . S
N768 Eu767 2.562 . S
N768 C770 1.325 . S
C769 C763 1.404 . S
C769 C771 1.366 . S
C769 H777 0.930 . S
C770 N768 1.325 . S
C770 C771 1.416 . S
C770 H776 0.929 . S
C771 C769 1.366 . S
C771 C770 1.416 . S
C771 H773 0.930 . S
H772 C761 0.930 . S
H773 C771 0.930 . S
H774 C789 0.930 . S
H775 C796 0.930 . S
H776 C770 0.929 . S
H777 C769 0.930 . S
H778 C792 0.929 . S
H779 C759 0.931 . S
H780 C765 0.931 . S
H781 C766 0.931 . S
H782 C787 0.931 . S
H783 C762 0.929 . S
H784 C795 0.930 . S
N785 Eu756 2.600 . S
N785 C786 1.365 . S
N785 C789 1.319 . S
C786 N785 1.365 . S
C786 C788 1.405 . S
C786 C794 1.448 . S
C787 H782 0.931 . S
C787 C789 1.397 . S
C787 C790 1.367 . S
C788 C786 1.405 . S
C788 C790 1.403 . S
C788 C821 1.439 . S
C789 H774 0.930 . S
C789 N785 1.319 . S
C789 C787 1.397 . S
C790 C787 1.367 . S
C790 C788 1.403 . S
C790 H797 0.929 . S
N791 Eu756 2.562 . S
N791 C792 1.325 . S
N791 C794 1.351 . S
C792 H778 0.929 . S
C792 N791 1.325 . S
C792 C796 1.416 . S
C793 C794 1.430 . S
C793 C795 1.404 . S
C793 C822 1.387 . S
C794 C786 1.448 . S
C794 N791 1.351 . S
C794 C793 1.430 . S
C795 H784 0.930 . S
C795 C793 1.404 . S
C795 C796 1.366 . S
C796 H775 0.930 . S
C796 C792 1.416 . S
C796 C795 1.366 . S
H797 C790 0.929 . S
H798 C821 0.931 . S
H799 C822 0.931 . S
O800 Eu756 2.462 . S
O800 C820 1.252 . S
O801 Eu756 2.373 . S
O801 C812 1.249 . S
O802 Eu767 2.335 . S
O802 C812 1.264 . S
O803 Eu756 2.432 . S
O803 C820 1.268 . S
O804 Eu756 2.291 . S
O804 C819 1.255 . S
O805 Eu767 2.372 . S
O805 C819 1.257 . S
O806 Eu767 2.462 . S
O806 C831 1.252 . S
O807 Eu767 2.373 . S
O807 C823 1.249 . S
O808 Eu756 2.335 . S
O808 C823 1.264 . S
O809 Eu767 2.432 . S
O809 C831 1.268 . S
O810 Eu767 2.291 . S
O810 C830 1.255 . S
O811 Eu756 2.372 . S
O811 C830 1.257 . S
C812 O801 1.249 . S
C812 O802 1.264 . S
C813 C816 1.382 . S
C813 C818 1.390 . S
C813 C820 1.506 . S
C814 C815 1.398 . S
C814 C818 1.392 . S
C815 C814 1.398 . S
C815 C817 1.372 . S
C815 H832 0.931 . S
C816 C813 1.382 . S
C816 C817 1.390 . S
C816 H833 0.931 . S
C817 C815 1.372 . S
C817 C816 1.390 . S
C817 H834 0.929 . S
C818 C813 1.390 . S
C818 C814 1.392 . S
C818 H835 0.930 . S
C819 O804 1.255 . S
C819 O805 1.257 . S
C820 Eu756 2.787 . S
C820 O800 1.252 . S
C820 O803 1.268 . S
C820 C813 1.506 . S
C821 C788 1.439 . S
C821 H798 0.931 . S
C821 C822 1.374 . S
C822 C793 1.387 . S
C822 H799 0.931 . S
C822 C821 1.374 . S
C823 O807 1.249 . S
C823 O808 1.264 . S
C824 C827 1.382 . S
C824 C828 1.390 . S
C824 C831 1.506 . S
C825 C826 1.398 . S
C825 C828 1.392 . S
C826 C825 1.398 . S
C826 C829 1.372 . S
C826 H836 0.931 . S
C827 C824 1.382 . S
C827 C829 1.390 . S
C827 H837 0.931 . S
C828 C824 1.390 . S
C828 C825 1.392 . S
C828 H838 0.930 . S
C829 C826 1.372 . S
C829 C827 1.390 . S
C829 H839 0.929 . S
C830 O810 1.255 . S
C830 O811 1.257 . S
C831 Eu767 2.787 . S
C831 O806 1.252 . S
C831 O809 1.268 . S
C831 C824 1.506 . S
H832 C815 0.931 . S
H833 C816 0.931 . S
H834 C817 0.929 . S
H835 C818 0.930 . S
H836 C826 0.931 . S
H837 C827 0.931 . S
H838 C828 0.930 . S
H839 C829 0.929 . S
Eu840 N869 2.600 . S
Eu840 N875 2.562 . S
Eu840 O884 2.462 . S
Eu840 O885 2.373 1_556 S
Eu840 O887 2.432 . S
Eu840 O888 2.291 . S
Eu840 O892 2.335 1_556 S
Eu840 O895 2.372 1_556 S
Eu840 C904 2.787 . S
C841 N842 1.365 1_545 S
C841 C844 1.405 1_545 S
C841 C848 1.448 . S
N842 C841 1.365 1_565 S
N842 C845 1.319 . S
N842 Eu851 2.600 1_565 S
C843 C845 1.397 . S
C843 C846 1.367 . S
C843 H863 0.931 . S
C844 C841 1.405 1_565 S
C844 C846 1.403 . S
C844 C850 1.439 1_565 S
C845 N842 1.319 . S
C845 C843 1.397 . S
C845 H856 0.930 . S
C846 C843 1.367 . S
C846 C844 1.403 . S
C846 H867 0.929 . S
C847 C848 1.430 . S
C847 C849 1.387 . S
C847 C853 1.404 . S
C848 C841 1.448 . S
C848 C847 1.430 . S
C848 N852 1.351 . S
C849 C847 1.387 . S
C849 C850 1.374 . S
C849 H864 0.931 . S
C850 C844 1.439 1_545 S
C850 C849 1.374 . S
C850 H865 0.931 1_545 S
Eu851 N842 2.600 1_545 S
Eu851 N852 2.562 . S
Eu851 O886 2.335 . S
Eu851 O889 2.372 1_545 S
Eu851 O890 2.462 . S
Eu851 O891 2.373 . S
Eu851 O893 2.432 1_545 S
Eu851 O894 2.291 . S
Eu851 C915 2.787 . S
N852 C848 1.351 . S
N852 Eu851 2.562 . S
N852 C854 1.325 . S
C853 C847 1.404 . S
C853 C855 1.366 . S
C853 H861 0.930 . S
C854 N852 1.325 . S
C854 C855 1.416 . S
C854 H860 0.929 . S
C855 C853 1.366 . S
C855 C854 1.416 . S
C855 H857 0.930 . S
H856 C845 0.930 . S
H857 C855 0.930 . S
H858 C873 0.932 1_554 S
H859 C880 0.930 . S
H860 C854 0.929 . S
H861 C853 0.930 . S
H862 C876 0.929 . S
H863 C843 0.931 . S
H864 C849 0.931 . S
H865 C850 0.931 1_565 S
H866 C871 0.931 . S
H867 C846 0.929 . S
H868 C879 0.930 . S
N869 Eu840 2.600 . S
N869 C870 1.365 . S
N869 C873 1.319 . S
C870 N869 1.365 . S
C870 C872 1.405 . S
C870 C878 1.448 . S
C871 H866 0.931 . S
C871 C873 1.397 . S
C871 C874 1.367 . S
C872 C870 1.405 . S
C872 C874 1.403 . S
C872 C905 1.439 . S
C873 H858 0.932 1_556 S
C873 N869 1.319 . S
C873 C871 1.397 . S
C874 C871 1.367 . S
C874 C872 1.403 . S
C874 H881 0.929 . S
N875 Eu840 2.562 . S
N875 C876 1.325 . S
N875 C878 1.351 . S
C876 H862 0.929 . S
C876 N875 1.325 . S
C876 C880 1.416 1_545 S
C877 C878 1.430 . S
C877 C879 1.404 . S
C877 C906 1.387 . S
C878 C870 1.448 . S
C878 N875 1.351 . S
C878 C877 1.430 . S
C879 H868 0.930 . S
C879 C877 1.404 . S
C879 C880 1.366 1_545 S
C880 H859 0.930 . S
C880 C876 1.416 1_565 S
C880 C879 1.366 1_565 S
H881 C874 0.929 . S
H882 C905 0.931 . S
H883 C906 0.931 . S
O884 Eu840 2.462 . S
O884 C904 1.252 . S
O885 Eu840 2.373 1_554 S
O885 C896 1.249 . S
O886 Eu851 2.335 . S
O886 C896 1.264 . S
O887 Eu840 2.432 . S
O887 C904 1.268 . S
O888 Eu840 2.291 . S
O888 C903 1.255 1_546 S
O889 Eu851 2.372 1_565 S
O889 C903 1.257 . S
O890 Eu851 2.462 . S
O890 C915 1.252 . S
O891 Eu851 2.373 . S
O891 C907 1.249 . S
O892 Eu840 2.335 1_554 S
O892 C907 1.264 . S
O893 Eu851 2.432 1_565 S
O893 C915 1.268 1_565 S
O894 Eu851 2.291 . S
O894 C914 1.255 . S
O895 Eu840 2.372 1_554 S
O895 C914 1.257 . S
C896 O885 1.249 . S
C896 O886 1.264 . S
C897 C900 1.382 . S
C897 C902 1.390 . S
C897 C904 1.506 . S
C898 C899 1.398 . S
C898 C902 1.392 . S
C899 C898 1.398 . S
C899 C901 1.372 . S
C899 H916 0.931 . S
C900 C897 1.382 . S
C900 C901 1.390 . S
C900 H917 0.931 . S
C901 C899 1.372 . S
C901 C900 1.390 . S
C901 H918 0.929 . S
C902 C897 1.390 . S
C902 C898 1.392 . S
C902 H919 0.930 . S
C903 O888 1.255 1_564 S
C903 O889 1.257 . S
C904 Eu840 2.787 . S
C904 O884 1.252 . S
C904 O887 1.268 . S
C904 C897 1.506 . S
C905 C872 1.439 . S
C905 H882 0.931 . S
C905 C906 1.374 . S
C906 C877 1.387 . S
C906 H883 0.931 . S
C906 C905 1.374 . S
C907 O891 1.249 . S
C907 O892 1.264 . S
C908 C911 1.382 . S
C908 C912 1.390 1_565 S
C908 C915 1.506 1_565 S
C909 C910 1.398 1_545 S
C909 C912 1.392 . S
C910 C909 1.398 1_565 S
C910 C913 1.372 . S
C910 H920 0.931 . S
C911 C908 1.382 . S
C911 C913 1.390 . S
C911 H921 0.931 . S
C912 C908 1.390 1_545 S
C912 C909 1.392 . S
C912 H922 0.930 . S
C913 C910 1.372 . S
C913 C911 1.390 . S
C913 H923 0.929 . S
C914 O894 1.255 . S
C914 O895 1.257 . S
C915 Eu851 2.787 . S
C915 O890 1.252 . S
C915 O893 1.268 1_545 S
C915 C908 1.506 1_545 S
H916 C899 0.931 . S
H917 C900 0.931 . S
H918 C901 0.929 . S
H919 C902 0.930 . S
H920 C910 0.931 . S
H921 C911 0.931 . S
H922 C912 0.930 . S
H923 C913 0.929 . S
Eu924 N953 2.600 . S
Eu924 N959 2.562 . S
Eu924 O968 2.462 . S
Eu924 O969 2.373 . S
Eu924 O971 2.432 . S
Eu924 O972 2.291 . S
Eu924 O976 2.335 . S
Eu924 O979 2.372 . S
Eu924 C988 2.787 . S
C925 N926 1.365 . S
C925 C928 1.405 . S
C925 C932 1.448 . S
N926 C925 1.365 . S
N926 C929 1.319 . S
N926 Eu935 2.600 . S
C927 C929 1.397 . S
C927 C930 1.367 . S
C927 H947 0.931 . S
C928 C925 1.405 . S
C928 C930 1.403 . S
C928 C934 1.439 . S
C929 N926 1.319 . S
C929 C927 1.397 . S
C929 H940 0.930 . S
C930 C927 1.367 . S
C930 C928 1.403 . S
C930 H951 0.929 . S
C931 C932 1.430 . S
C931 C933 1.387 . S
C931 C937 1.404 . S
C932 C925 1.448 . S
C932 C931 1.430 . S
C932 N936 1.351 . S
C933 C931 1.387 . S
C933 C934 1.374 . S
C933 H948 0.931 . S
C934 C928 1.439 . S
C934 C933 1.374 . S
C934 H949 0.931 . S
Eu935 N926 2.600 . S
Eu935 N936 2.562 . S
Eu935 O970 2.335 . S
Eu935 O973 2.372 . S
Eu935 O974 2.462 . S
Eu935 O975 2.373 . S
Eu935 O977 2.432 . S
Eu935 O978 2.291 . S
Eu935 C999 2.787 . S
N936 C932 1.351 . S
N936 Eu935 2.562 . S
N936 C938 1.325 . S
C937 C931 1.404 . S
C937 C939 1.366 . S
C937 H945 0.930 . S
C938 N936 1.325 . S
C938 C939 1.416 . S
C938 H944 0.929 . S
C939 C937 1.366 . S
C939 C938 1.416 . S
C939 H941 0.930 . S
H940 C929 0.930 . S
H941 C939 0.930 . S
H942 C957 0.930 . S
H943 C964 0.930 . S
H944 C938 0.929 . S
H945 C937 0.930 . S
H946 C960 0.929 . S
H947 C927 0.931 . S
H948 C933 0.931 . S
H949 C934 0.931 . S
H950 C955 0.931 . S
H951 C930 0.929 . S
H952 C963 0.930 . S
N953 Eu924 2.600 . S
N953 C954 1.365 . S
N953 C957 1.319 . S
C954 N953 1.365 . S
C954 C956 1.405 . S
C954 C962 1.448 . S
C955 H950 0.931 . S
C955 C957 1.397 . S
C955 C958 1.367 . S
C956 C954 1.405 . S
C956 C958 1.403 . S
C956 C989 1.439 . S
C957 H942 0.930 . S
C957 N953 1.319 . S
C957 C955 1.397 . S
C958 C955 1.367 . S
C958 C956 1.403 . S
C958 H965 0.929 . S
N959 Eu924 2.562 . S
N959 C960 1.325 . S
N959 C962 1.351 . S
C960 H946 0.929 . S
C960 N959 1.325 . S
C960 C964 1.416 . S
C961 C962 1.430 . S
C961 C963 1.404 . S
C961 C990 1.387 . S
C962 C954 1.448 . S
C962 N959 1.351 . S
C962 C961 1.430 . S
C963 H952 0.930 . S
C963 C961 1.404 . S
C963 C964 1.366 . S
C964 H943 0.930 . S
C964 C960 1.416 . S
C964 C963 1.366 . S
H965 C958 0.929 . S
H966 C989 0.931 . S
H967 C990 0.931 . S
O968 Eu924 2.462 . S
O968 C988 1.252 . S
O969 Eu924 2.373 . S
O969 C980 1.249 . S
O970 Eu935 2.335 . S
O970 C980 1.264 . S
O971 Eu924 2.432 . S
O971 C988 1.268 . S
O972 Eu924 2.291 . S
O972 C987 1.255 . S
O973 Eu935 2.372 . S
O973 C987 1.257 . S
O974 Eu935 2.462 . S
O974 C999 1.252 . S
O975 Eu935 2.373 . S
O975 C991 1.249 . S
O976 Eu924 2.335 . S
O976 C991 1.264 . S
O977 Eu935 2.432 . S
O977 C999 1.268 . S
O978 Eu935 2.291 . S
O978 C998 1.255 . S
O979 Eu924 2.372 . S
O979 C998 1.257 . S
C980 O969 1.249 . S
C980 O970 1.264 . S
C981 C984 1.382 . S
C981 C986 1.390 . S
C981 C988 1.506 . S
C982 C983 1.398 . S
C982 C986 1.392 . S
C983 C982 1.398 . S
C983 C985 1.372 . S
C983 H1000 0.931 . S
C984 C981 1.382 . S
C984 C985 1.390 . S
C984 H1001 0.931 . S
C985 C983 1.372 . S
C985 C984 1.390 . S
C985 H1002 0.929 . S
C986 C981 1.390 . S
C986 C982 1.392 . S
C986 H1003 0.930 . S
C987 O972 1.255 . S
C987 O973 1.257 . S
C988 Eu924 2.787 . S
C988 O968 1.252 . S
C988 O971 1.268 . S
C988 C981 1.506 . S
C989 C956 1.439 . S
C989 H966 0.931 . S
C989 C990 1.374 . S
C990 C961 1.387 . S
C990 H967 0.931 . S
C990 C989 1.374 . S
C991 O975 1.249 . S
C991 O976 1.264 . S
C992 C995 1.382 . S
C992 C996 1.390 . S
C992 C999 1.506 . S
C993 C994 1.398 . S
C993 C996 1.392 . S
C994 C993 1.398 . S
C994 C997 1.372 . S
C994 H1004 0.931 . S
C995 C992 1.382 . S
C995 C997 1.390 . S
C995 H1005 0.931 . S
C996 C992 1.390 . S
C996 C993 1.392 . S
C996 H1006 0.930 . S
C997 C994 1.372 . S
C997 C995 1.390 . S
C997 H1007 0.929 . S
C998 O978 1.255 . S
C998 O979 1.257 . S
C999 Eu935 2.787 . S
C999 O974 1.252 . S
C999 O977 1.268 . S
C999 C992 1.506 . S
H1000 C983 0.931 . S
H1001 C984 0.931 . S
H1002 C985 0.929 . S
H1003 C986 0.930 . S
H1004 C994 0.931 . S
H1005 C995 0.931 . S
H1006 C996 0.930 . S
H1007 C997 0.929 . S
Eu1008 N1037 2.600 1_554 S
Eu1008 N1043 2.562 1_554 S
Eu1008 O1052 2.462 . S
Eu1008 O1053 2.373 1_554 S
Eu1008 O1055 2.432 . S
Eu1008 O1056 2.291 . S
Eu1008 O1060 2.335 . S
Eu1008 O1063 2.372 . S
Eu1008 C1072 2.787 . S
C1009 N1010 1.365 . S
C1009 C1012 1.405 . S
C1009 C1016 1.448 . S
N1010 C1009 1.365 . S
N1010 C1013 1.319 . S
N1010 Eu1019 2.600 . S
C1011 C1013 1.397 . S
C1011 C1014 1.367 . S
C1011 H1031 0.931 . S
C1012 C1009 1.405 . S
C1012 C1014 1.403 . S
C1012 C1018 1.439 . S
C1013 N1010 1.319 . S
C1013 C1011 1.397 . S
C1013 H1024 0.930 . S
C1014 C1011 1.367 . S
C1014 C1012 1.403 . S
C1014 H1035 0.929 . S
C1015 C1016 1.430 . S
C1015 C1017 1.387 . S
C1015 C1021 1.404 . S
C1016 C1009 1.448 . S
C1016 C1015 1.430 . S
C1016 N1020 1.351 . S
C1017 C1015 1.387 . S
C1017 C1018 1.374 . S
C1017 H1032 0.931 . S
C1018 C1012 1.439 . S
C1018 C1017 1.374 . S
C1018 H1033 0.931 . S
Eu1019 N1010 2.600 . S
Eu1019 N1020 2.562 . S
Eu1019 O1054 2.335 1_554 S
Eu1019 O1057 2.372 . S
Eu1019 O1058 2.462 . S
Eu1019 O1059 2.373 . S
Eu1019 O1061 2.432 . S
Eu1019 O1062 2.291 . S
Eu1019 C1083 2.787 . S
N1020 C1016 1.351 . S
N1020 Eu1019 2.562 . S
N1020 C1022 1.325 . S
C1021 C1015 1.404 . S
C1021 C1023 1.366 . S
C1021 H1029 0.930 . S
C1022 N1020 1.325 . S
C1022 C1023 1.416 . S
C1022 H1028 0.929 . S
C1023 C1021 1.366 . S
C1023 C1022 1.416 . S
C1023 H1025 0.930 . S
H1024 C1013 0.930 . S
H1025 C1023 0.930 . S
H1026 C1041 0.897 1_554 S
H1027 C1048 0.930 . S
H1028 C1022 0.929 . S
H1029 C1021 0.930 . S
H1030 C1044 0.929 . S
H1031 C1011 0.931 . S
H1032 C1017 0.931 . S
H1033 C1018 0.931 . S
H1034 C1039 0.931 . S
H1035 C1014 0.929 . S
H1036 C1047 0.930 . S
N1037 Eu1008 2.600 1_556 S
N1037 C1038 1.365 . S
N1037 C1041 1.319 . S
C1038 N1037 1.365 . S
C1038 C1040 1.405 . S
C1038 C1046 1.448 . S
C1039 H1034 0.931 . S
C1039 C1041 1.397 . S
C1039 C1042 1.367 . S
C1040 C1038 1.405 . S
C1040 C1042 1.403 . S
C1040 C1073 1.439 . S
C1041 H1026 0.897 1_556 S
C1041 N1037 1.319 . S
C1041 C1039 1.397 . S
C1042 C1039 1.367 . S
C1042 C1040 1.403 . S
C1042 H1049 0.929 . S
N1043 Eu1008 2.562 1_556 S
N1043 C1044 1.325 . S
N1043 C1046 1.351 . S
C1044 H1030 0.929 . S
C1044 N1043 1.325 . S
C1044 C1048 1.416 . S
C1045 C1046 1.430 . S
C1045 C1047 1.404 . S
C1045 C1074 1.387 . S
C1046 C1038 1.448 . S
C1046 N1043 1.351 . S
C1046 C1045 1.430 . S
C1047 H1036 0.930 . S
C1047 C1045 1.404 . S
C1047 C1048 1.366 . S
C1048 H1027 0.930 . S
C1048 C1044 1.416 . S
C1048 C1047 1.366 . S
H1049 C1042 0.929 . S
H1050 C1073 0.931 . S
H1051 C1074 0.931 . S
O1052 Eu1008 2.462 . S
O1052 C1072 1.252 . S
O1053 Eu1008 2.373 1_556 S
O1053 C1064 1.249 . S
O1054 Eu1019 2.335 1_556 S
O1054 C1064 1.264 . S
O1055 Eu1008 2.432 . S
O1055 C1072 1.268 . S
O1056 Eu1008 2.291 . S
O1056 C1071 1.255 . S
O1057 Eu1019 2.372 . S
O1057 C1071 1.257 . S
O1058 Eu1019 2.462 . S
O1058 C1083 1.252 . S
O1059 Eu1019 2.373 . S
O1059 C1075 1.249 . S
O1060 Eu1008 2.335 . S
O1060 C1075 1.264 . S
O1061 Eu1019 2.432 . S
O1061 C1083 1.268 . S
O1062 Eu1019 2.291 . S
O1062 C1082 1.255 . S
O1063 Eu1008 2.372 . S
O1063 C1082 1.257 . S
C1064 O1053 1.249 . S
C1064 O1054 1.264 . S
C1065 C1068 1.382 . S
C1065 C1070 1.390 . S
C1065 C1072 1.506 . S
C1066 C1067 1.398 . S
C1066 C1070 1.392 . S
C1067 C1066 1.398 . S
C1067 C1069 1.372 . S
C1067 H1084 0.931 . S
C1068 C1065 1.382 . S
C1068 C1069 1.390 . S
C1068 H1085 0.931 . S
C1069 C1067 1.372 . S
C1069 C1068 1.390 . S
C1069 H1086 0.929 . S
C1070 C1065 1.390 . S
C1070 C1066 1.392 . S
C1070 H1087 0.930 . S
C1071 O1056 1.255 . S
C1071 O1057 1.257 . S
C1072 Eu1008 2.787 . S
C1072 O1052 1.252 . S
C1072 O1055 1.268 . S
C1072 C1065 1.506 . S
C1073 C1040 1.439 . S
C1073 H1050 0.931 . S
C1073 C1074 1.374 . S
C1074 C1045 1.387 . S
C1074 H1051 0.931 . S
C1074 C1073 1.374 . S
C1075 O1059 1.249 . S
C1075 O1060 1.264 . S
C1076 C1079 1.382 . S
C1076 C1080 1.390 . S
C1076 C1083 1.506 1_556 S
C1077 C1078 1.398 . S
C1077 C1080 1.392 . S
C1078 C1077 1.398 . S
C1078 C1081 1.372 . S
C1078 H1088 0.931 . S
C1079 C1076 1.382 . S
C1079 C1081 1.390 . S
C1079 H1089 0.931 . S
C1080 C1076 1.390 . S
C1080 C1077 1.392 . S
C1080 H1090 0.930 . S
C1081 C1078 1.372 . S
C1081 C1079 1.390 . S
C1081 H1091 0.929 . S
C1082 O1062 1.255 . S
C1082 O1063 1.257 . S
C1083 Eu1019 2.787 . S
C1083 O1058 1.252 . S
C1083 O1061 1.268 . S
C1083 C1076 1.506 1_554 S
H1084 C1067 0.931 . S
H1085 C1068 0.931 . S
H1086 C1069 0.929 . S
H1087 C1070 0.930 . S
H1088 C1078 0.931 . S
H1089 C1079 0.931 . S
H1090 C1080 0.930 . S
H1091 C1081 0.929 . S
Eu1092 N1121 2.600 . S
Eu1092 N1127 2.562 . S
Eu1092 O1136 2.462 . S
Eu1092 O1137 2.373 . S
Eu1092 O1139 2.432 . S
Eu1092 O1140 2.291 . S
Eu1092 O1144 2.335 . S
Eu1092 O1147 2.372 . S
Eu1092 C1156 2.787 . S
C1093 N1094 1.365 . S
C1093 C1096 1.405 . S
C1093 C1100 1.448 . S
N1094 C1093 1.365 . S
N1094 C1097 1.319 . S
N1094 Eu1103 2.600 . S
C1095 C1097 1.397 . S
C1095 C1098 1.367 . S
C1095 H1115 0.931 . S
C1096 C1093 1.405 . S
C1096 C1098 1.403 . S
C1096 C1102 1.439 . S
C1097 N1094 1.319 . S
C1097 C1095 1.397 . S
C1097 H1108 0.930 . S
C1098 C1095 1.367 . S
C1098 C1096 1.403 . S
C1098 H1119 0.929 . S
C1099 C1100 1.430 . S
C1099 C1101 1.387 . S
C1099 C1105 1.404 . S
C1100 C1093 1.448 . S
C1100 C1099 1.430 . S
C1100 N1104 1.351 . S
C1101 C1099 1.387 . S
C1101 C1102 1.374 . S
C1101 H1116 0.931 . S
C1102 C1096 1.439 . S
C1102 C1101 1.374 . S
C1102 H1117 0.931 . S
Eu1103 N1094 2.600 . S
Eu1103 N1104 2.562 . S
Eu1103 O1138 2.335 . S
Eu1103 O1141 2.372 . S
Eu1103 O1142 2.462 . S
Eu1103 O1143 2.373 . S
Eu1103 O1145 2.432 . S
Eu1103 O1146 2.291 . S
Eu1103 C1167 2.787 . S
N1104 C1100 1.351 . S
N1104 Eu1103 2.562 . S
N1104 C1106 1.325 . S
C1105 C1099 1.404 . S
C1105 C1107 1.366 . S
C1105 H1113 0.930 . S
C1106 N1104 1.325 . S
C1106 C1107 1.416 . S
C1106 H1112 0.929 . S
C1107 C1105 1.366 . S
C1107 C1106 1.416 . S
C1107 H1109 0.930 . S
H1108 C1097 0.930 . S
H1109 C1107 0.930 . S
H1110 C1125 0.930 . S
H1111 C1132 0.930 . S
H1112 C1106 0.929 . S
H1113 C1105 0.930 . S
H1114 C1128 0.929 . S
H1115 C1095 0.931 . S
H1116 C1101 0.931 . S
H1117 C1102 0.931 . S
H1118 C1123 0.931 . S
H1119 C1098 0.929 . S
H1120 C1131 0.930 . S
N1121 Eu1092 2.600 . S
N1121 C1122 1.365 . S
N1121 C1125 1.319 . S
C1122 N1121 1.365 . S
C1122 C1124 1.405 . S
C1122 C1130 1.448 . S
C1123 H1118 0.931 . S
C1123 C1125 1.397 . S
C1123 C1126 1.367 . S
C1124 C1122 1.405 . S
C1124 C1126 1.403 . S
C1124 C1157 1.439 . S
C1125 H1110 0.930 . S
C1125 N1121 1.319 . S
C1125 C1123 1.397 . S
C1126 C1123 1.367 . S
C1126 C1124 1.403 . S
C1126 H1133 0.929 . S
N1127 Eu1092 2.562 . S
N1127 C1128 1.325 . S
N1127 C1130 1.351 . S
C1128 H1114 0.929 . S
C1128 N1127 1.325 . S
C1128 C1132 1.416 . S
C1129 C1130 1.430 . S
C1129 C1131 1.404 . S
C1129 C1158 1.387 . S
C1130 C1122 1.448 . S
C1130 N1127 1.351 . S
C1130 C1129 1.430 . S
C1131 H1120 0.930 . S
C1131 C1129 1.404 . S
C1131 C1132 1.366 . S
C1132 H1111 0.930 . S
C1132 C1128 1.416 . S
C1132 C1131 1.366 . S
H1133 C1126 0.929 . S
H1134 C1157 0.931 . S
H1135 C1158 0.931 . S
O1136 Eu1092 2.462 . S
O1136 C1156 1.252 . S
O1137 Eu1092 2.373 . S
O1137 C1148 1.249 . S
O1138 Eu1103 2.335 . S
O1138 C1148 1.264 . S
O1139 Eu1092 2.432 . S
O1139 C1156 1.268 . S
O1140 Eu1092 2.291 . S
O1140 C1155 1.255 . S
O1141 Eu1103 2.372 . S
O1141 C1155 1.257 . S
O1142 Eu1103 2.462 . S
O1142 C1167 1.252 . S
O1143 Eu1103 2.373 . S
O1143 C1159 1.249 . S
O1144 Eu1092 2.335 . S
O1144 C1159 1.264 . S
O1145 Eu1103 2.432 . S
O1145 C1167 1.268 . S
O1146 Eu1103 2.291 . S
O1146 C1166 1.255 . S
O1147 Eu1092 2.372 . S
O1147 C1166 1.257 . S
C1148 O1137 1.249 . S
C1148 O1138 1.264 . S
C1149 C1152 1.382 . S
C1149 C1154 1.390 . S
C1149 C1156 1.506 . S
C1150 C1151 1.398 . S
C1150 C1154 1.392 . S
C1151 C1150 1.398 . S
C1151 C1153 1.372 . S
C1151 H1168 0.931 . S
C1152 C1149 1.382 . S
C1152 C1153 1.390 . S
C1152 H1169 0.931 . S
C1153 C1151 1.372 . S
C1153 C1152 1.390 . S
C1153 H1170 0.929 . S
C1154 C1149 1.390 . S
C1154 C1150 1.392 . S
C1154 H1171 0.930 . S
C1155 O1140 1.255 . S
C1155 O1141 1.257 . S
C1156 Eu1092 2.787 . S
C1156 O1136 1.252 . S
C1156 O1139 1.268 . S
C1156 C1149 1.506 . S
C1157 C1124 1.439 . S
C1157 H1134 0.931 . S
C1157 C1158 1.374 . S
C1158 C1129 1.387 . S
C1158 H1135 0.931 . S
C1158 C1157 1.374 . S
C1159 O1143 1.249 . S
C1159 O1144 1.264 . S
C1160 C1163 1.382 . S
C1160 C1164 1.390 . S
C1160 C1167 1.506 . S
C1161 C1162 1.398 . S
C1161 C1164 1.392 . S
C1162 C1161 1.398 . S
C1162 C1165 1.372 . S
C1162 H1172 0.931 . S
C1163 C1160 1.382 . S
C1163 C1165 1.390 . S
C1163 H1173 0.931 . S
C1164 C1160 1.390 . S
C1164 C1161 1.392 . S
C1164 H1174 0.930 . S
C1165 C1162 1.372 . S
C1165 C1163 1.390 . S
C1165 H1175 0.929 . S
C1166 O1146 1.255 . S
C1166 O1147 1.257 . S
C1167 Eu1103 2.787 . S
C1167 O1142 1.252 . S
C1167 O1145 1.268 . S
C1167 C1160 1.506 . S
H1168 C1151 0.931 . S
H1169 C1152 0.931 . S
H1170 C1153 0.929 . S
H1171 C1154 0.930 . S
H1172 C1162 0.931 . S
H1173 C1163 0.931 . S
H1174 C1164 0.930 . S
H1175 C1165 0.929 . S
Eu1176 N1205 2.600 1_455 S
Eu1176 N1211 2.562 1_455 S
Eu1176 O1220 2.462 . S
Eu1176 O1221 2.373 1_455 S
Eu1176 O1223 2.432 . S
Eu1176 O1224 2.291 . S
Eu1176 O1228 2.335 . S
Eu1176 O1231 2.372 . S
Eu1176 C1240 2.787 . S
C1177 N1178 1.365 . S
C1177 C1180 1.405 . S
C1177 C1184 1.448 . S
N1178 C1177 1.365 . S
N1178 C1181 1.319 . S
N1178 Eu1187 2.600 . S
C1179 C1181 1.397 . S
C1179 C1182 1.367 . S
C1179 H1199 0.931 . S
C1180 C1177 1.405 . S
C1180 C1182 1.403 . S
C1180 C1186 1.439 . S
C1181 N1178 1.319 . S
C1181 C1179 1.397 . S
C1181 H1192 0.930 . S
C1182 C1179 1.367 . S
C1182 C1180 1.403 . S
C1182 H1203 0.929 . S
C1183 C1184 1.430 . S
C1183 C1185 1.387 . S
C1183 C1189 1.404 . S
C1184 C1177 1.448 . S
C1184 C1183 1.430 . S
C1184 N1188 1.351 . S
C1185 C1183 1.387 . S
C1185 C1186 1.374 . S
C1185 H1200 0.931 . S
C1186 C1180 1.439 . S
C1186 C1185 1.374 . S
C1186 H1201 0.931 . S
Eu1187 N1178 2.600 . S
Eu1187 N1188 2.562 . S
Eu1187 O1222 2.335 1_455 S
Eu1187 O1225 2.372 . S
Eu1187 O1226 2.462 . S
Eu1187 O1227 2.373 . S
Eu1187 O1229 2.432 . S
Eu1187 O1230 2.291 . S
Eu1187 C1251 2.787 . S
N1188 C1184 1.351 . S
N1188 Eu1187 2.562 . S
N1188 C1190 1.325 . S
C1189 C1183 1.404 . S
C1189 C1191 1.366 . S
C1189 H1197 0.930 . S
C1190 N1188 1.325 . S
C1190 C1191 1.416 . S
C1190 H1196 0.929 . S
C1191 C1189 1.366 . S
C1191 C1190 1.416 . S
C1191 H1193 0.930 . S
H1192 C1181 0.930 . S
H1193 C1191 0.930 . S
H1194 C1209 0.930 1_455 S
H1195 C1216 0.930 . S
H1196 C1190 0.929 . S
H1197 C1189 0.930 . S
H1198 C1212 0.929 1_455 S
H1199 C1179 0.931 . S
H1200 C1185 0.931 . S
H1201 C1186 0.931 . S
H1202 C1207 0.931 . S
H1203 C1182 0.929 . S
H1204 C1215 0.930 . S
N1205 Eu1176 2.600 1_655 S
N1205 C1206 1.365 . S
N1205 C1209 1.319 . S
C1206 N1205 1.365 . S
C1206 C1208 1.405 . S
C1206 C1214 1.448 . S
C1207 H1202 0.931 . S
C1207 C1209 1.397 . S
C1207 C1210 1.367 . S
C1208 C1206 1.405 . S
C1208 C1210 1.403 . S
C1208 C1241 1.439 . S
C1209 H1194 0.930 1_655 S
C1209 N1205 1.319 . S
C1209 C1207 1.397 . S
C1210 C1207 1.367 . S
C1210 C1208 1.403 . S
C1210 H1217 0.929 . S
N1211 Eu1176 2.562 1_655 S
N1211 C1212 1.325 . S
N1211 C1214 1.351 . S
C1212 H1198 0.929 1_655 S
C1212 N1211 1.325 . S
C1212 C1216 1.416 . S
C1213 C1214 1.430 . S
C1213 C1215 1.404 . S
C1213 C1242 1.387 . S
C1214 C1206 1.448 . S
C1214 N1211 1.351 . S
C1214 C1213 1.430 . S
C1215 H1204 0.930 . S
C1215 C1213 1.404 . S
C1215 C1216 1.366 . S
C1216 H1195 0.930 . S
C1216 C1212 1.416 . S
C1216 C1215 1.366 . S
H1217 C1210 0.929 . S
H1218 C1241 0.931 . S
H1219 C1242 0.931 . S
O1220 Eu1176 2.462 . S
O1220 C1240 1.252 . S
O1221 Eu1176 2.373 1_655 S
O1221 C1232 1.249 . S
O1222 Eu1187 2.335 1_655 S
O1222 C1232 1.264 . S
O1223 Eu1176 2.432 . S
O1223 C1240 1.268 . S
O1224 Eu1176 2.291 . S
O1224 C1239 1.255 . S
O1225 Eu1187 2.372 . S
O1225 C1239 1.257 . S
O1226 Eu1187 2.462 . S
O1226 C1251 1.252 . S
O1227 Eu1187 2.373 . S
O1227 C1243 1.249 . S
O1228 Eu1176 2.335 . S
O1228 C1243 1.264 . S
O1229 Eu1187 2.432 . S
O1229 C1251 1.268 . S
O1230 Eu1187 2.291 . S
O1230 C1250 1.255 . S
O1231 Eu1176 2.372 . S
O1231 C1250 1.257 . S
C1232 O1221 1.249 . S
C1232 O1222 1.264 . S
C1233 C1236 1.382 . S
C1233 C1238 1.390 . S
C1233 C1240 1.506 . S
C1234 C1235 1.398 . S
C1234 C1238 1.392 . S
C1235 C1234 1.398 . S
C1235 C1237 1.372 . S
C1235 H1252 0.931 . S
C1236 C1233 1.382 . S
C1236 C1237 1.390 . S
C1236 H1253 0.931 . S
C1237 C1235 1.372 . S
C1237 C1236 1.390 . S
C1237 H1254 0.929 . S
C1238 C1233 1.390 . S
C1238 C1234 1.392 . S
C1238 H1255 0.930 . S
C1239 O1224 1.255 . S
C1239 O1225 1.257 . S
C1240 Eu1176 2.787 . S
C1240 O1220 1.252 . S
C1240 O1223 1.268 . S
C1240 C1233 1.506 . S
C1241 C1208 1.439 . S
C1241 H1218 0.931 . S
C1241 C1242 1.374 . S
C1242 C1213 1.387 . S
C1242 H1219 0.931 . S
C1242 C1241 1.374 . S
C1243 O1227 1.249 . S
C1243 O1228 1.264 . S
C1244 C1247 1.382 . S
C1244 C1248 1.390 . S
C1244 C1251 1.506 1_655 S
C1245 C1246 1.398 . S
C1245 C1248 1.392 . S
C1246 C1245 1.398 . S
C1246 C1249 1.372 . S
C1246 H1256 0.931 . S
C1247 C1244 1.382 . S
C1247 C1249 1.390 . S
C1247 H1257 0.931 . S
C1248 C1244 1.390 . S
C1248 C1245 1.392 . S
C1248 H1258 0.930 . S
C1249 C1246 1.372 . S
C1249 C1247 1.390 . S
C1249 H1259 0.929 . S
C1250 O1230 1.255 . S
C1250 O1231 1.257 . S
C1251 Eu1187 2.787 . S
C1251 O1226 1.252 . S
C1251 O1229 1.268 . S
C1251 C1244 1.506 1_455 S
H1252 C1235 0.931 . S
H1253 C1236 0.931 . S
H1254 C1237 0.929 . S
H1255 C1238 0.930 . S
H1256 C1246 0.931 . S
H1257 C1247 0.931 . S
H1258 C1248 0.930 . S
H1259 C1249 0.929 . S
Eu1260 N1289 2.600 . S
Eu1260 N1295 2.562 . S
Eu1260 O1304 2.462 . S
Eu1260 O1305 2.373 . S
Eu1260 O1307 2.432 . S
Eu1260 O1308 2.291 . S
Eu1260 O1312 2.335 . S
Eu1260 O1315 2.372 . S
Eu1260 C1324 2.787 . S
C1261 N1262 1.365 . S
C1261 C1264 1.405 . S
C1261 C1268 1.448 . S
N1262 C1261 1.365 . S
N1262 C1265 1.319 . S
N1262 Eu1271 2.600 . S
C1263 C1265 1.397 . S
C1263 C1266 1.367 . S
C1263 H1283 0.931 . S
C1264 C1261 1.405 . S
C1264 C1266 1.403 . S
C1264 C1270 1.439 . S
C1265 N1262 1.319 . S
C1265 C1263 1.397 . S
C1265 H1276 0.930 . S
C1266 C1263 1.367 . S
C1266 C1264 1.403 . S
C1266 H1287 0.929 . S
C1267 C1268 1.430 . S
C1267 C1269 1.387 . S
C1267 C1273 1.404 . S
C1268 C1261 1.448 . S
C1268 C1267 1.430 . S
C1268 N1272 1.351 . S
C1269 C1267 1.387 . S
C1269 C1270 1.374 . S
C1269 H1284 0.931 . S
C1270 C1264 1.439 . S
C1270 C1269 1.374 . S
C1270 H1285 0.931 . S
Eu1271 N1262 2.600 . S
Eu1271 N1272 2.562 . S
Eu1271 O1306 2.335 . S
Eu1271 O1309 2.372 . S
Eu1271 O1310 2.462 . S
Eu1271 O1311 2.373 . S
Eu1271 O1313 2.432 . S
Eu1271 O1314 2.291 . S
Eu1271 C1335 2.787 . S
N1272 C1268 1.351 . S
N1272 Eu1271 2.562 . S
N1272 C1274 1.325 . S
C1273 C1267 1.404 . S
C1273 C1275 1.366 . S
C1273 H1281 0.930 . S
C1274 N1272 1.325 . S
C1274 C1275 1.416 . S
C1274 H1280 0.929 . S
C1275 C1273 1.366 . S
C1275 C1274 1.416 . S
C1275 H1277 0.930 . S
H1276 C1265 0.930 . S
H1277 C1275 0.930 . S
H1278 C1293 0.930 . S
H1279 C1300 0.930 . S
H1280 C1274 0.929 . S
H1281 C1273 0.930 . S
H1282 C1296 0.929 . S
H1283 C1263 0.931 . S
H1284 C1269 0.931 . S
H1285 C1270 0.931 . S
H1286 C1291 0.931 . S
H1287 C1266 0.929 . S
H1288 C1299 0.930 . S
N1289 Eu1260 2.600 . S
N1289 C1290 1.365 . S
N1289 C1293 1.319 . S
C1290 N1289 1.365 . S
C1290 C1292 1.405 . S
C1290 C1298 1.448 . S
C1291 H1286 0.931 . S
C1291 C1293 1.397 . S
C1291 C1294 1.367 . S
C1292 C1290 1.405 . S
C1292 C1294 1.403 . S
C1292 C1325 1.439 . S
C1293 H1278 0.930 . S
C1293 N1289 1.319 . S
C1293 C1291 1.397 . S
C1294 C1291 1.367 . S
C1294 C1292 1.403 . S
C1294 H1301 0.929 . S
N1295 Eu1260 2.562 . S
N1295 C1296 1.325 . S
N1295 C1298 1.351 . S
C1296 H1282 0.929 . S
C1296 N1295 1.325 . S
C1296 C1300 1.416 . S
C1297 C1298 1.430 . S
C1297 C1299 1.404 . S
C1297 C1326 1.387 . S
C1298 C1290 1.448 . S
C1298 N1295 1.351 . S
C1298 C1297 1.430 . S
C1299 H1288 0.930 . S
C1299 C1297 1.404 . S
C1299 C1300 1.366 . S
C1300 H1279 0.930 . S
C1300 C1296 1.416 . S
C1300 C1299 1.366 . S
H1301 C1294 0.929 . S
H1302 C1325 0.931 . S
H1303 C1326 0.931 . S
O1304 Eu1260 2.462 . S
O1304 C1324 1.252 . S
O1305 Eu1260 2.373 . S
O1305 C1316 1.249 . S
O1306 Eu1271 2.335 . S
O1306 C1316 1.264 . S
O1307 Eu1260 2.432 . S
O1307 C1324 1.268 . S
O1308 Eu1260 2.291 . S
O1308 C1323 1.255 . S
O1309 Eu1271 2.372 . S
O1309 C1323 1.257 . S
O1310 Eu1271 2.462 . S
O1310 C1335 1.252 . S
O1311 Eu1271 2.373 . S
O1311 C1327 1.249 . S
O1312 Eu1260 2.335 . S
O1312 C1327 1.264 . S
O1313 Eu1271 2.432 . S
O1313 C1335 1.268 . S
O1314 Eu1271 2.291 . S
O1314 C1334 1.255 . S
O1315 Eu1260 2.372 . S
O1315 C1334 1.257 . S
C1316 O1305 1.249 . S
C1316 O1306 1.264 . S
C1317 C1320 1.382 . S
C1317 C1322 1.390 . S
C1317 C1324 1.506 . S
C1318 C1319 1.398 . S
C1318 C1322 1.392 . S
C1319 C1318 1.398 . S
C1319 C1321 1.372 . S
C1319 H1336 0.931 . S
C1320 C1317 1.382 . S
C1320 C1321 1.390 . S
C1320 H1337 0.931 . S
C1321 C1319 1.372 . S
C1321 C1320 1.390 . S
C1321 H1338 0.929 . S
C1322 C1317 1.390 . S
C1322 C1318 1.392 . S
C1322 H1339 0.930 . S
C1323 O1308 1.255 . S
C1323 O1309 1.257 . S
C1324 Eu1260 2.787 . S
C1324 O1304 1.252 . S
C1324 O1307 1.268 . S
C1324 C1317 1.506 . S
C1325 C1292 1.439 . S
C1325 H1302 0.931 . S
C1325 C1326 1.374 . S
C1326 C1297 1.387 . S
C1326 H1303 0.931 . S
C1326 C1325 1.374 . S
C1327 O1311 1.249 . S
C1327 O1312 1.264 . S
C1328 C1331 1.382 . S
C1328 C1332 1.390 . S
C1328 C1335 1.506 . S
C1329 C1330 1.398 . S
C1329 C1332 1.392 . S
C1330 C1329 1.398 . S
C1330 C1333 1.372 . S
C1330 H1340 0.931 . S
C1331 C1328 1.382 . S
C1331 C1333 1.390 . S
C1331 H1341 0.931 . S
C1332 C1328 1.390 . S
C1332 C1329 1.392 . S
C1332 H1342 0.930 . S
C1333 C1330 1.372 . S
C1333 C1331 1.390 . S
C1333 H1343 0.929 . S
C1334 O1314 1.255 . S
C1334 O1315 1.257 . S
C1335 Eu1271 2.787 . S
C1335 O1310 1.252 . S
C1335 O1313 1.268 . S
C1335 C1328 1.506 . S
H1336 C1319 0.931 . S
H1337 C1320 0.931 . S
H1338 C1321 0.929 . S
H1339 C1322 0.930 . S
H1340 C1330 0.931 . S
H1341 C1331 0.931 . S
H1342 C1332 0.930 . S
H1343 C1333 0.929 . S
Eu1344 N1373 2.600 . S
Eu1344 N1379 2.562 . S
Eu1344 O1388 2.462 . S
Eu1344 O1389 2.373 . S
Eu1344 O1391 2.432 . S
Eu1344 O1392 2.291 . S
Eu1344 O1396 2.335 . S
Eu1344 O1399 2.372 . S
Eu1344 C1408 2.787 . S
C1345 N1346 1.365 . S
C1345 C1348 1.405 . S
C1345 C1352 1.448 . S
N1346 C1345 1.365 . S
N1346 C1349 1.319 . S
N1346 Eu1355 2.600 . S
C1347 C1349 1.397 . S
C1347 C1350 1.367 . S
C1347 H1367 0.931 . S
C1348 C1345 1.405 . S
C1348 C1350 1.403 . S
C1348 C1354 1.439 . S
C1349 N1346 1.319 . S
C1349 C1347 1.397 . S
C1349 H1360 0.930 . S
C1350 C1347 1.367 . S
C1350 C1348 1.403 . S
C1350 H1371 0.929 . S
C1351 C1352 1.430 . S
C1351 C1353 1.387 . S
C1351 C1357 1.404 . S
C1352 C1345 1.448 . S
C1352 C1351 1.430 . S
C1352 N1356 1.351 . S
C1353 C1351 1.387 . S
C1353 C1354 1.374 . S
C1353 H1368 0.931 . S
C1354 C1348 1.439 . S
C1354 C1353 1.374 . S
C1354 H1369 0.931 . S
Eu1355 N1346 2.600 . S
Eu1355 N1356 2.562 . S
Eu1355 O1390 2.335 . S
Eu1355 O1393 2.372 . S
Eu1355 O1394 2.462 . S
Eu1355 O1395 2.373 . S
Eu1355 O1397 2.432 . S
Eu1355 O1398 2.291 . S
Eu1355 C1419 2.787 . S
N1356 C1352 1.351 . S
N1356 Eu1355 2.562 . S
N1356 C1358 1.325 . S
C1357 C1351 1.404 . S
C1357 C1359 1.366 . S
C1357 H1365 0.930 . S
C1358 N1356 1.325 . S
C1358 C1359 1.416 . S
C1358 H1364 0.929 . S
C1359 C1357 1.366 . S
C1359 C1358 1.416 . S
C1359 H1361 0.930 . S
H1360 C1349 0.930 . S
H1361 C1359 0.930 . S
H1362 C1377 0.930 . S
H1363 C1384 0.930 . S
H1364 C1358 0.929 . S
H1365 C1357 0.930 . S
H1366 C1380 0.929 . S
H1367 C1347 0.931 . S
H1368 C1353 0.931 . S
H1369 C1354 0.931 . S
H1370 C1375 0.931 . S
H1371 C1350 0.929 . S
H1372 C1383 0.930 . S
N1373 Eu1344 2.600 . S
N1373 C1374 1.365 . S
N1373 C1377 1.319 . S
C1374 N1373 1.365 . S
C1374 C1376 1.405 . S
C1374 C1382 1.448 . S
C1375 H1370 0.931 . S
C1375 C1377 1.397 . S
C1375 C1378 1.367 . S
C1376 C1374 1.405 . S
C1376 C1378 1.403 . S
C1376 C1409 1.439 . S
C1377 H1362 0.930 . S
C1377 N1373 1.319 . S
C1377 C1375 1.397 . S
C1378 C1375 1.367 . S
C1378 C1376 1.403 . S
C1378 H1385 0.929 . S
N1379 Eu1344 2.562 . S
N1379 C1380 1.325 . S
N1379 C1382 1.351 . S
C1380 H1366 0.929 . S
C1380 N1379 1.325 . S
C1380 C1384 1.416 . S
C1381 C1382 1.430 . S
C1381 C1383 1.404 . S
C1381 C1410 1.387 . S
C1382 C1374 1.448 . S
C1382 N1379 1.351 . S
C1382 C1381 1.430 . S
C1383 H1372 0.930 . S
C1383 C1381 1.404 . S
C1383 C1384 1.366 . S
C1384 H1363 0.930 . S
C1384 C1380 1.416 . S
C1384 C1383 1.366 . S
H1385 C1378 0.929 . S
H1386 C1409 0.931 . S
H1387 C1410 0.931 . S
O1388 Eu1344 2.462 . S
O1388 C1408 1.252 . S
O1389 Eu1344 2.373 . S
O1389 C1400 1.249 . S
O1390 Eu1355 2.335 . S
O1390 C1400 1.264 . S
O1391 Eu1344 2.432 . S
O1391 C1408 1.268 . S
O1392 Eu1344 2.291 . S
O1392 C1407 1.255 . S
O1393 Eu1355 2.372 . S
O1393 C1407 1.257 . S
O1394 Eu1355 2.462 . S
O1394 C1419 1.252 . S
O1395 Eu1355 2.373 . S
O1395 C1411 1.249 . S
O1396 Eu1344 2.335 . S
O1396 C1411 1.264 . S
O1397 Eu1355 2.432 . S
O1397 C1419 1.268 . S
O1398 Eu1355 2.291 . S
O1398 C1418 1.255 . S
O1399 Eu1344 2.372 . S
O1399 C1418 1.257 . S
C1400 O1389 1.249 . S
C1400 O1390 1.264 . S
C1401 C1404 1.382 . S
C1401 C1406 1.390 . S
C1401 C1408 1.506 . S
C1402 C1403 1.398 . S
C1402 C1406 1.392 . S
C1403 C1402 1.398 . S
C1403 C1405 1.372 . S
C1403 H1420 0.931 . S
C1404 C1401 1.382 . S
C1404 C1405 1.390 . S
C1404 H1421 0.931 . S
C1405 C1403 1.372 . S
C1405 C1404 1.390 . S
C1405 H1422 0.929 . S
C1406 C1401 1.390 . S
C1406 C1402 1.392 . S
C1406 H1423 0.930 . S
C1407 O1392 1.255 . S
C1407 O1393 1.257 . S
C1408 Eu1344 2.787 . S
C1408 O1388 1.252 . S
C1408 O1391 1.268 . S
C1408 C1401 1.506 . S
C1409 C1376 1.439 . S
C1409 H1386 0.931 . S
C1409 C1410 1.374 . S
C1410 C1381 1.387 . S
C1410 H1387 0.931 . S
C1410 C1409 1.374 . S
C1411 O1395 1.249 . S
C1411 O1396 1.264 . S
C1412 C1415 1.382 . S
C1412 C1416 1.390 . S
C1412 C1419 1.506 . S
C1413 C1414 1.398 . S
C1413 C1416 1.392 . S
C1414 C1413 1.398 . S
C1414 C1417 1.372 . S
C1414 H1424 0.931 . S
C1415 C1412 1.382 . S
C1415 C1417 1.390 . S
C1415 H1425 0.931 . S
C1416 C1412 1.390 . S
C1416 C1413 1.392 . S
C1416 H1426 0.930 . S
C1417 C1414 1.372 . S
C1417 C1415 1.390 . S
C1417 H1427 0.929 . S
C1418 O1398 1.255 . S
C1418 O1399 1.257 . S
C1419 Eu1355 2.787 . S
C1419 O1394 1.252 . S
C1419 O1397 1.268 . S
C1419 C1412 1.506 . S
H1420 C1403 0.931 . S
H1421 C1404 0.931 . S
H1422 C1405 0.929 . S
H1423 C1406 0.930 . S
H1424 C1414 0.931 . S
H1425 C1415 0.931 . S
H1426 C1416 0.930 . S
H1427 C1417 0.929 . S
Eu1428 N1457 2.600 . S
Eu1428 N1463 2.562 . S
Eu1428 O1472 2.462 . S
Eu1428 O1473 2.373 . S
Eu1428 O1475 2.432 . S
Eu1428 O1476 2.291 . S
Eu1428 O1480 2.335 . S
Eu1428 O1483 2.372 . S
Eu1428 C1492 2.787 . S
C1429 N1430 1.365 . S
C1429 C1432 1.405 . S
C1429 C1436 1.448 . S
N1430 C1429 1.365 . S
N1430 C1433 1.319 . S
N1430 Eu1439 2.600 . S
C1431 C1433 1.397 . S
C1431 C1434 1.367 . S
C1431 H1451 0.931 . S
C1432 C1429 1.405 . S
C1432 C1434 1.403 . S
C1432 C1438 1.439 . S
C1433 N1430 1.319 . S
C1433 C1431 1.397 . S
C1433 H1444 0.930 . S
C1434 C1431 1.367 . S
C1434 C1432 1.403 . S
C1434 H1455 0.929 . S
C1435 C1436 1.430 . S
C1435 C1437 1.387 . S
C1435 C1441 1.404 . S
C1436 C1429 1.448 . S
C1436 C1435 1.430 . S
C1436 N1440 1.351 . S
C1437 C1435 1.387 . S
C1437 C1438 1.374 . S
C1437 H1452 0.931 . S
C1438 C1432 1.439 . S
C1438 C1437 1.374 . S
C1438 H1453 0.931 . S
Eu1439 N1430 2.600 . S
Eu1439 N1440 2.562 . S
Eu1439 O1474 2.335 . S
Eu1439 O1477 2.372 . S
Eu1439 O1478 2.462 . S
Eu1439 O1479 2.373 . S
Eu1439 O1481 2.432 . S
Eu1439 O1482 2.291 . S
Eu1439 C1503 2.787 . S
N1440 C1436 1.351 . S
N1440 Eu1439 2.562 . S
N1440 C1442 1.325 . S
C1441 C1435 1.404 . S
C1441 C1443 1.366 . S
C1441 H1449 0.930 . S
C1442 N1440 1.325 . S
C1442 C1443 1.416 . S
C1442 H1448 0.929 . S
C1443 C1441 1.366 . S
C1443 C1442 1.416 . S
C1443 H1445 0.930 . S
H1444 C1433 0.930 . S
H1445 C1443 0.930 . S
H1446 C1461 0.930 . S
H1447 C1468 0.930 . S
H1448 C1442 0.929 . S
H1449 C1441 0.930 . S
H1450 C1464 0.929 . S
H1451 C1431 0.931 . S
H1452 C1437 0.931 . S
H1453 C1438 0.931 . S
H1454 C1459 0.931 . S
H1455 C1434 0.929 . S
H1456 C1467 0.930 . S
N1457 Eu1428 2.600 . S
N1457 C1458 1.365 . S
N1457 C1461 1.319 . S
C1458 N1457 1.365 . S
C1458 C1460 1.405 . S
C1458 C1466 1.448 . S
C1459 H1454 0.931 . S
C1459 C1461 1.397 . S
C1459 C1462 1.367 . S
C1460 C1458 1.405 . S
C1460 C1462 1.403 . S
C1460 C1493 1.439 . S
C1461 H1446 0.930 . S
C1461 N1457 1.319 . S
C1461 C1459 1.397 . S
C1462 C1459 1.367 . S
C1462 C1460 1.403 . S
C1462 H1469 0.929 . S
N1463 Eu1428 2.562 . S
N1463 C1464 1.325 . S
N1463 C1466 1.351 . S
C1464 H1450 0.929 . S
C1464 N1463 1.325 . S
C1464 C1468 1.416 . S
C1465 C1466 1.430 . S
C1465 C1467 1.404 . S
C1465 C1494 1.387 . S
C1466 C1458 1.448 . S
C1466 N1463 1.351 . S
C1466 C1465 1.430 . S
C1467 H1456 0.930 . S
C1467 C1465 1.404 . S
C1467 C1468 1.366 . S
C1468 H1447 0.930 . S
C1468 C1464 1.416 . S
C1468 C1467 1.366 . S
H1469 C1462 0.929 . S
H1470 C1493 0.931 . S
H1471 C1494 0.931 . S
O1472 Eu1428 2.462 . S
O1472 C1492 1.252 . S
O1473 Eu1428 2.373 . S
O1473 C1484 1.249 . S
O1474 Eu1439 2.335 . S
O1474 C1484 1.264 . S
O1475 Eu1428 2.432 . S
O1475 C1492 1.268 . S
O1476 Eu1428 2.291 . S
O1476 C1491 1.255 . S
O1477 Eu1439 2.372 . S
O1477 C1491 1.257 . S
O1478 Eu1439 2.462 . S
O1478 C1503 1.252 . S
O1479 Eu1439 2.373 . S
O1479 C1495 1.249 . S
O1480 Eu1428 2.335 . S
O1480 C1495 1.264 . S
O1481 Eu1439 2.432 . S
O1481 C1503 1.268 . S
O1482 Eu1439 2.291 . S
O1482 C1502 1.255 . S
O1483 Eu1428 2.372 . S
O1483 C1502 1.257 . S
C1484 O1473 1.249 . S
C1484 O1474 1.264 . S
C1485 C1488 1.382 . S
C1485 C1490 1.390 . S
C1485 C1492 1.506 . S
C1486 C1487 1.398 . S
C1486 C1490 1.392 . S
C1487 C1486 1.398 . S
C1487 C1489 1.372 . S
C1487 H1504 0.931 . S
C1488 C1485 1.382 . S
C1488 C1489 1.390 . S
C1488 H1505 0.931 . S
C1489 C1487 1.372 . S
C1489 C1488 1.390 . S
C1489 H1506 0.929 . S
C1490 C1485 1.390 . S
C1490 C1486 1.392 . S
C1490 H1507 0.930 . S
C1491 O1476 1.255 . S
C1491 O1477 1.257 . S
C1492 Eu1428 2.787 . S
C1492 O1472 1.252 . S
C1492 O1475 1.268 . S
C1492 C1485 1.506 . S
C1493 C1460 1.439 . S
C1493 H1470 0.931 . S
C1493 C1494 1.374 . S
C1494 C1465 1.387 . S
C1494 H1471 0.931 . S
C1494 C1493 1.374 . S
C1495 O1479 1.249 . S
C1495 O1480 1.264 . S
C1496 C1499 1.382 . S
C1496 C1500 1.390 . S
C1496 C1503 1.506 . S
C1497 C1498 1.398 . S
C1497 C1500 1.392 . S
C1498 C1497 1.398 . S
C1498 C1501 1.372 . S
C1498 H1508 0.931 . S
C1499 C1496 1.382 . S
C1499 C1501 1.390 . S
C1499 H1509 0.931 . S
C1500 C1496 1.390 . S
C1500 C1497 1.392 . S
C1500 H1510 0.930 . S
C1501 C1498 1.372 . S
C1501 C1499 1.390 . S
C1501 H1511 0.929 . S
C1502 O1482 1.255 . S
C1502 O1483 1.257 . S
C1503 Eu1439 2.787 . S
C1503 O1478 1.252 . S
C1503 O1481 1.268 . S
C1503 C1496 1.506 . S
H1504 C1487 0.931 . S
H1505 C1488 0.931 . S
H1506 C1489 0.929 . S
H1507 C1490 0.930 . S
H1508 C1498 0.931 . S
H1509 C1499 0.931 . S
H1510 C1500 0.930 . S
H1511 C1501 0.929 . S
Eu1512 N1541 2.600 . S
Eu1512 N1547 2.562 . S
Eu1512 O1556 2.462 . S
Eu1512 O1557 2.373 . S
Eu1512 O1559 2.432 . S
Eu1512 O1560 2.291 . S
Eu1512 O1564 2.335 . S
Eu1512 O1567 2.372 . S
Eu1512 C1576 2.787 . S
C1513 N1514 1.365 . S
C1513 C1516 1.405 . S
C1513 C1520 1.448 . S
N1514 C1513 1.365 . S
N1514 C1517 1.319 . S
N1514 Eu1523 2.600 . S
C1515 C1517 1.397 . S
C1515 C1518 1.367 . S
C1515 H1535 0.931 . S
C1516 C1513 1.405 . S
C1516 C1518 1.403 . S
C1516 C1522 1.439 . S
C1517 N1514 1.319 . S
C1517 C1515 1.397 . S
C1517 H1528 0.930 . S
C1518 C1515 1.367 . S
C1518 C1516 1.403 . S
C1518 H1539 0.929 . S
C1519 C1520 1.430 . S
C1519 C1521 1.387 . S
C1519 C1525 1.404 . S
C1520 C1513 1.448 . S
C1520 C1519 1.430 . S
C1520 N1524 1.351 . S
C1521 C1519 1.387 . S
C1521 C1522 1.374 . S
C1521 H1536 0.931 . S
C1522 C1516 1.439 . S
C1522 C1521 1.374 . S
C1522 H1537 0.931 . S
Eu1523 N1514 2.600 . S
Eu1523 N1524 2.562 . S
Eu1523 O1558 2.335 . S
Eu1523 O1561 2.372 . S
Eu1523 O1562 2.462 . S
Eu1523 O1563 2.373 . S
Eu1523 O1565 2.432 . S
Eu1523 O1566 2.291 . S
Eu1523 C1587 2.787 . S
N1524 C1520 1.351 . S
N1524 Eu1523 2.562 . S
N1524 C1526 1.325 . S
C1525 C1519 1.404 . S
C1525 C1527 1.366 . S
C1525 H1533 0.930 . S
C1526 N1524 1.325 . S
C1526 C1527 1.416 . S
C1526 H1532 0.929 . S
C1527 C1525 1.366 . S
C1527 C1526 1.416 . S
C1527 H1529 0.930 . S
H1528 C1517 0.930 . S
H1529 C1527 0.930 . S
H1530 C1545 0.930 . S
H1531 C1552 0.930 . S
H1532 C1526 0.929 . S
H1533 C1525 0.930 . S
H1534 C1548 0.929 . S
H1535 C1515 0.931 . S
H1536 C1521 0.931 . S
H1537 C1522 0.931 . S
H1538 C1543 0.931 . S
H1539 C1518 0.929 . S
H1540 C1551 0.930 . S
N1541 Eu1512 2.600 . S
N1541 C1542 1.365 . S
N1541 C1545 1.319 . S
C1542 N1541 1.365 . S
C1542 C1544 1.405 . S
C1542 C1550 1.448 . S
C1543 H1538 0.931 . S
C1543 C1545 1.397 . S
C1543 C1546 1.367 . S
C1544 C1542 1.405 . S
C1544 C1546 1.403 . S
C1544 C1577 1.439 . S
C1545 H1530 0.930 . S
C1545 N1541 1.319 . S
C1545 C1543 1.397 . S
C1546 C1543 1.367 . S
C1546 C1544 1.403 . S
C1546 H1553 0.929 . S
N1547 Eu1512 2.562 . S
N1547 C1548 1.325 . S
N1547 C1550 1.351 . S
C1548 H1534 0.929 . S
C1548 N1547 1.325 . S
C1548 C1552 1.416 . S
C1549 C1550 1.430 . S
C1549 C1551 1.404 . S
C1549 C1578 1.387 . S
C1550 C1542 1.448 . S
C1550 N1547 1.351 . S
C1550 C1549 1.430 . S
C1551 H1540 0.930 . S
C1551 C1549 1.404 . S
C1551 C1552 1.366 . S
C1552 H1531 0.930 . S
C1552 C1548 1.416 . S
C1552 C1551 1.366 . S
H1553 C1546 0.929 . S
H1554 C1577 0.931 . S
H1555 C1578 0.931 . S
O1556 Eu1512 2.462 . S
O1556 C1576 1.252 . S
O1557 Eu1512 2.373 . S
O1557 C1568 1.249 . S
O1558 Eu1523 2.335 . S
O1558 C1568 1.264 . S
O1559 Eu1512 2.432 . S
O1559 C1576 1.268 . S
O1560 Eu1512 2.291 . S
O1560 C1575 1.255 . S
O1561 Eu1523 2.372 . S
O1561 C1575 1.257 . S
O1562 Eu1523 2.462 . S
O1562 C1587 1.252 . S
O1563 Eu1523 2.373 . S
O1563 C1579 1.249 . S
O1564 Eu1512 2.335 . S
O1564 C1579 1.264 . S
O1565 Eu1523 2.432 . S
O1565 C1587 1.268 . S
O1566 Eu1523 2.291 . S
O1566 C1586 1.255 . S
O1567 Eu1512 2.372 . S
O1567 C1586 1.257 . S
C1568 O1557 1.249 . S
C1568 O1558 1.264 . S
C1569 C1572 1.382 . S
C1569 C1574 1.390 . S
C1569 C1576 1.506 . S
C1570 C1571 1.398 . S
C1570 C1574 1.392 . S
C1571 C1570 1.398 . S
C1571 C1573 1.372 . S
C1571 H1588 0.931 . S
C1572 C1569 1.382 . S
C1572 C1573 1.390 . S
C1572 H1589 0.931 . S
C1573 C1571 1.372 . S
C1573 C1572 1.390 . S
C1573 H1590 0.929 . S
C1574 C1569 1.390 . S
C1574 C1570 1.392 . S
C1574 H1591 0.930 . S
C1575 O1560 1.255 . S
C1575 O1561 1.257 . S
C1576 Eu1512 2.787 . S
C1576 O1556 1.252 . S
C1576 O1559 1.268 . S
C1576 C1569 1.506 . S
C1577 C1544 1.439 . S
C1577 H1554 0.931 . S
C1577 C1578 1.374 . S
C1578 C1549 1.387 . S
C1578 H1555 0.931 . S
C1578 C1577 1.374 . S
C1579 O1563 1.249 . S
C1579 O1564 1.264 . S
C1580 C1583 1.382 . S
C1580 C1584 1.390 . S
C1580 C1587 1.506 . S
C1581 C1582 1.398 . S
C1581 C1584 1.392 . S
C1582 C1581 1.398 . S
C1582 C1585 1.372 . S
C1582 H1592 0.931 . S
C1583 C1580 1.382 . S
C1583 C1585 1.390 . S
C1583 H1593 0.931 . S
C1584 C1580 1.390 . S
C1584 C1581 1.392 . S
C1584 H1594 0.930 . S
C1585 C1582 1.372 . S
C1585 C1583 1.390 . S
C1585 H1595 0.929 . S
C1586 O1566 1.255 . S
C1586 O1567 1.257 . S
C1587 Eu1523 2.787 . S
C1587 O1562 1.252 . S
C1587 O1565 1.268 . S
C1587 C1580 1.506 . S
H1588 C1571 0.931 . S
H1589 C1572 0.931 . S
H1590 C1573 0.929 . S
H1591 C1574 0.930 . S
H1592 C1582 0.931 . S
H1593 C1583 0.931 . S
H1594 C1584 0.930 . S
H1595 C1585 0.929 . S
Eu1596 N1625 2.600 . S
Eu1596 N1631 2.562 . S
Eu1596 O1640 2.462 . S
Eu1596 O1641 2.373 1_655 S
Eu1596 O1643 2.432 . S
Eu1596 O1644 2.291 . S
Eu1596 O1648 2.335 1_655 S
Eu1596 O1651 2.372 1_655 S
Eu1596 C1660 2.787 . S
C1597 N1598 1.365 . S
C1597 C1600 1.405 . S
C1597 C1604 1.448 1_556 S
N1598 C1597 1.365 . S
N1598 C1601 1.319 . S
N1598 Eu1607 2.600 1_556 S
C1599 C1601 1.397 . S
C1599 C1602 1.367 . S
C1599 H1619 0.931 . S
C1600 C1597 1.405 . S
C1600 C1602 1.403 . S
C1600 C1606 1.439 . S
C1601 N1598 1.319 . S
C1601 C1599 1.397 . S
C1601 H1612 0.930 . S
C1602 C1599 1.367 . S
C1602 C1600 1.403 . S
C1602 H1623 0.929 . S
C1603 C1604 1.430 . S
C1603 C1605 1.387 . S
C1603 C1609 1.404 . S
C1604 C1597 1.448 1_554 S
C1604 C1603 1.430 . S
C1604 N1608 1.351 . S
C1605 C1603 1.387 . S
C1605 C1606 1.374 1_554 S
C1605 H1620 0.931 . S
C1606 C1600 1.439 . S
C1606 C1605 1.374 1_556 S
C1606 H1621 0.931 . S
Eu1607 N1598 2.600 1_554 S
Eu1607 N1608 2.562 . S
Eu1607 O1642 2.335 . S
Eu1607 O1645 2.372 1_554 S
Eu1607 O1646 2.462 . S
Eu1607 O1647 2.373 . S
Eu1607 O1649 2.432 1_554 S
Eu1607 O1650 2.291 . S
Eu1607 C1671 2.787 . S
N1608 C1604 1.351 . S
N1608 Eu1607 2.562 . S
N1608 C1610 1.325 . S
C1609 C1603 1.404 . S
C1609 C1611 1.366 . S
C1609 H1617 0.930 . S
C1610 N1608 1.325 . S
C1610 C1611 1.416 . S
C1610 H1616 0.929 . S
C1611 C1609 1.366 . S
C1611 C1610 1.416 . S
C1611 H1613 0.930 . S
H1612 C1601 0.930 . S
H1613 C1611 0.930 . S
H1614 C1629 0.930 1_455 S
H1615 C1636 0.950 . S
H1616 C1610 0.929 . S
H1617 C1609 0.930 . S
H1618 C1632 0.909 1_556 S
H1619 C1599 0.931 . S
H1620 C1605 0.931 . S
H1621 C1606 0.931 . S
H1622 C1627 0.931 . S
H1623 C1602 0.929 . S
H1624 C1635 0.930 . S
N1625 Eu1596 2.600 . S
N1625 C1626 1.365 . S
N1625 C1629 1.319 . S
C1626 N1625 1.365 . S
C1626 C1628 1.405 . S
C1626 C1634 1.448 . S
C1627 H1622 0.931 . S
C1627 C1629 1.397 . S
C1627 C1630 1.367 . S
C1628 C1626 1.405 . S
C1628 C1630 1.403 . S
C1628 C1661 1.439 . S
C1629 H1614 0.930 1_655 S
C1629 N1625 1.319 . S
C1629 C1627 1.397 . S
C1630 C1627 1.367 . S
C1630 C1628 1.403 . S
C1630 H1637 0.929 . S
N1631 Eu1596 2.562 . S
N1631 C1632 1.325 . S
N1631 C1634 1.351 . S
C1632 H1618 0.909 1_554 S
C1632 N1631 1.325 . S
C1632 C1636 1.411 1_554 S
C1633 C1634 1.430 . S
C1633 C1635 1.404 . S
C1633 C1662 1.387 . S
C1634 C1626 1.448 . S
C1634 N1631 1.351 . S
C1634 C1633 1.430 . S
C1635 H1624 0.930 . S
C1635 C1633 1.404 . S
C1635 C1636 1.349 1_554 S
C1636 H1615 0.950 . S
C1636 C1632 1.411 1_556 S
C1636 C1635 1.349 1_556 S
H1637 C1630 0.929 . S
H1638 C1661 0.931 . S
H1639 C1662 0.931 . S
O1640 Eu1596 2.462 . S
O1640 C1660 1.252 . S
O1641 Eu1596 2.373 1_455 S
O1641 C1652 1.249 . S
O1642 Eu1607 2.335 . S
O1642 C1652 1.264 . S
O1643 Eu1596 2.432 . S
O1643 C1660 1.268 . S
O1644 Eu1596 2.291 . S
O1644 C1659 1.255 1_654 S
O1645 Eu1607 2.372 1_556 S
O1645 C1659 1.257 . S
O1646 Eu1607 2.462 . S
O1646 C1671 1.252 . S
O1647 Eu1607 2.373 . S
O1647 C1663 1.249 . S
O1648 Eu1596 2.335 1_455 S
O1648 C1663 1.264 . S
O1649 Eu1607 2.432 1_556 S
O1649 C1671 1.268 1_556 S
O1650 Eu1607 2.291 . S
O1650 C1670 1.255 . S
O1651 Eu1596 2.372 1_455 S
O1651 C1670 1.257 . S
C1652 O1641 1.249 . S
C1652 O1642 1.264 . S
C1653 C1656 1.382 . S
C1653 C1658 1.390 . S
C1653 C1660 1.506 . S
C1654 C1655 1.398 . S
C1654 C1658 1.392 . S
C1655 C1654 1.398 . S
C1655 C1657 1.372 . S
C1655 H1672 0.931 . S
C1656 C1653 1.382 . S
C1656 C1657 1.390 . S
C1656 H1673 0.931 . S
C1657 C1655 1.372 . S
C1657 C1656 1.390 . S
C1657 H1674 0.929 . S
C1658 C1653 1.390 . S
C1658 C1654 1.392 . S
C1658 H1675 0.930 . S
C1659 O1644 1.255 1_456 S
C1659 O1645 1.257 . S
C1660 Eu1596 2.787 . S
C1660 O1640 1.252 . S
C1660 O1643 1.268 . S
C1660 C1653 1.506 . S
C1661 C1628 1.439 . S
C1661 H1638 0.931 . S
C1661 C1662 1.374 . S
C1662 C1633 1.387 . S
C1662 H1639 0.931 . S
C1662 C1661 1.374 . S
C1663 O1647 1.249 . S
C1663 O1648 1.264 . S
C1664 C1667 1.428 . S
C1664 C1668 1.356 1_556 S
C1664 C1671 1.496 1_556 S
C1665 C1666 1.398 1_554 S
C1665 C1668 1.392 . S
C1666 C1665 1.398 1_556 S
C1666 C1669 1.372 . S
C1666 H1676 0.931 . S
C1667 C1664 1.428 . S
C1667 C1669 1.390 . S
C1667 H1677 0.931 . S
C1668 C1664 1.356 1_554 S
C1668 C1665 1.392 . S
C1668 H1678 0.930 . S
C1669 C1666 1.372 . S
C1669 C1667 1.390 . S
C1669 H1679 0.929 . S
C1670 O1650 1.255 . S
C1670 O1651 1.257 . S
C1671 Eu1607 2.787 . S
C1671 O1646 1.252 . S
C1671 O1649 1.268 1_554 S
C1671 C1664 1.496 1_554 S
H1672 C1655 0.931 . S
H1673 C1656 0.931 . S
H1674 C1657 0.929 . S
H1675 C1658 0.930 . S
H1676 C1666 0.931 . S
H1677 C1667 0.931 . S
H1678 C1668 0.930 . S
H1679 C1669 0.929 . S
H1680 C1692 0.930 . S
H1681 C1694 0.930 . S
H1682 C1695 0.930 . S
H1683 C1699 0.959 . S
H1684 C1699 0.959 . S
H1685 C1699 0.961 . S
H1686 C1700 0.960 . S
H1687 C1700 0.961 . S
H1688 C1700 0.959 . S
H1689 C1703 0.929 . S
H1690 C1704 0.931 . S
H1691 C1706 0.930 . S
C1692 H1680 0.930 . S
C1692 C1693 1.399 1_655 S
C1692 C1697 1.399 1_655 S
C1693 C1692 1.399 1_455 S
C1693 C1694 1.376 1_556 S
C1694 H1681 0.930 . S
C1694 C1693 1.376 1_554 S
C1694 C1695 1.388 . S
C1695 H1682 0.930 . S
C1695 C1694 1.388 . S
C1695 C1696 1.390 . S
C1696 C1695 1.390 . S
C1696 C1697 1.394 1_554 S
C1696 C1702 1.465 . S
C1697 C1692 1.399 1_455 S
C1697 C1696 1.394 1_556 S
C1697 C1698 1.516 . S
C1698 C1697 1.516 . S
C1698 C1699 1.502 1_455 S
C1698 C1700 1.561 . S
C1698 C1701 1.526 . S
C1699 H1683 0.959 . S
C1699 H1684 0.959 . S
C1699 H1685 0.961 . S
C1699 C1698 1.502 1_655 S
C1700 H1686 0.960 . S
C1700 H1687 0.961 . S
C1700 H1688 0.959 . S
C1700 C1698 1.561 . S
C1701 C1698 1.526 . S
C1701 C1702 1.396 1_556 S
C1701 C1706 1.390 . S
C1702 C1696 1.465 . S
C1702 C1701 1.396 1_554 S
C1702 C1703 1.399 . S
C1703 H1689 0.929 . S
C1703 C1702 1.399 . S
C1703 C1704 1.385 . S
C1704 H1690 0.931 . S
C1704 C1703 1.385 . S
C1704 C1705 1.389 . S
C1705 C1704 1.389 . S
C1705 C1706 1.387 1_554 S
C1706 H1691 0.930 . S
C1706 C1701 1.390 . S
C1706 C1705 1.387 1_556 S
H1707 C1719 0.930 . S
H1708 C1721 0.930 . S
H1709 C1722 0.930 . S
H1710 C1726 0.959 . S
H1711 C1726 0.959 . S
H1712 C1726 0.961 . S
H1713 C1727 0.960 . S
H1714 C1727 0.961 . S
H1715 C1727 0.959 . S
H1716 C1730 0.929 . S
H1717 C1731 0.931 . S
H1718 C1733 0.930 . S
C1719 H1707 0.930 . S
C1719 C1720 1.399 . S
C1719 C1724 1.399 . S
C1720 C1719 1.399 . S
C1720 C1721 1.376 . S
C1721 H1708 0.930 . S
C1721 C1720 1.376 . S
C1721 C1722 1.388 . S
C1722 H1709 0.930 . S
C1722 C1721 1.388 . S
C1722 C1723 1.390 . S
C1723 C1722 1.390 . S
C1723 C1724 1.394 . S
C1723 C1729 1.465 . S
C1724 C1719 1.399 . S
C1724 C1723 1.394 . S
C1724 C1725 1.516 . S
C1725 C1724 1.516 . S
C1725 C1726 1.502 . S
C1725 C1727 1.561 . S
C1725 C1728 1.526 . S
C1726 H1710 0.959 . S
C1726 H1711 0.959 . S
C1726 H1712 0.961 . S
C1726 C1725 1.502 . S
C1727 H1713 0.960 . S
C1727 H1714 0.961 . S
C1727 H1715 0.959 . S
C1727 C1725 1.561 . S
C1728 C1725 1.526 . S
C1728 C1729 1.396 . S
C1728 C1733 1.390 . S
C1729 C1723 1.465 . S
C1729 C1728 1.396 . S
C1729 C1730 1.399 . S
C1730 H1716 0.929 . S
C1730 C1729 1.399 . S
C1730 C1731 1.385 . S
C1731 H1717 0.931 . S
C1731 C1730 1.385 . S
C1731 C1732 1.389 . S
C1732 C1731 1.389 . S
C1732 C1733 1.387 . S
C1733 H1718 0.930 . S
C1733 C1728 1.390 . S
C1733 C1732 1.387 . S
H1734 C1746 0.930 . S
H1735 C1748 0.930 . S
H1736 C1749 0.930 . S
H1737 C1753 0.959 . S
H1738 C1753 0.959 . S
H1739 C1753 0.961 . S
H1740 C1754 0.960 . S
H1741 C1754 0.961 . S
H1742 C1754 0.959 . S
H1743 C1757 0.929 . S
H1744 C1758 0.931 . S
H1745 C1760 0.930 . S
C1746 H1734 0.930 . S
C1746 C1747 1.399 . S
C1746 C1751 1.399 . S
C1747 C1746 1.399 . S
C1747 C1748 1.376 . S
C1748 H1735 0.930 . S
C1748 C1747 1.376 . S
C1748 C1749 1.388 . S
C1749 H1736 0.930 . S
C1749 C1748 1.388 . S
C1749 C1750 1.390 . S
C1750 C1749 1.390 . S
C1750 C1751 1.394 . S
C1750 C1756 1.465 . S
C1751 C1746 1.399 . S
C1751 C1750 1.394 . S
C1751 C1752 1.516 . S
C1752 C1751 1.516 . S
C1752 C1753 1.502 . S
C1752 C1754 1.561 . S
C1752 C1755 1.526 . S
C1753 H1737 0.959 . S
C1753 H1738 0.959 . S
C1753 H1739 0.961 . S
C1753 C1752 1.502 . S
C1754 H1740 0.960 . S
C1754 H1741 0.961 . S
C1754 H1742 0.959 . S
C1754 C1752 1.561 . S
C1755 C1752 1.526 . S
C1755 C1756 1.396 . S
C1755 C1760 1.390 . S
C1756 C1750 1.465 . S
C1756 C1755 1.396 . S
C1756 C1757 1.399 . S
C1757 H1743 0.929 . S
C1757 C1756 1.399 . S
C1757 C1758 1.385 . S
C1758 H1744 0.931 . S
C1758 C1757 1.385 . S
C1758 C1759 1.389 . S
C1759 C1758 1.389 . S
C1759 C1760 1.387 . S
C1760 H1745 0.930 . S
C1760 C1755 1.390 . S
C1760 C1759 1.387 . S
H1761 C1773 0.930 . S
H1762 C1775 0.930 . S
H1763 C1776 0.930 . S
H1764 C1780 0.959 . S
H1765 C1780 0.959 . S
H1766 C1780 0.961 . S
H1767 C1781 0.960 . S
H1768 C1781 0.961 . S
H1769 C1781 0.959 . S
H1770 C1784 0.929 . S
H1771 C1785 0.931 . S
H1772 C1787 0.930 . S
C1773 H1761 0.930 . S
C1773 C1774 1.399 . S
C1773 C1778 1.399 . S
C1774 C1773 1.399 . S
C1774 C1775 1.376 . S
C1775 H1762 0.930 . S
C1775 C1774 1.376 . S
C1775 C1776 1.388 . S
C1776 H1763 0.930 . S
C1776 C1775 1.388 . S
C1776 C1777 1.390 . S
C1777 C1776 1.390 . S
C1777 C1778 1.394 . S
C1777 C1783 1.465 . S
C1778 C1773 1.399 . S
C1778 C1777 1.394 . S
C1778 C1779 1.516 . S
C1779 C1778 1.516 . S
C1779 C1780 1.502 . S
C1779 C1781 1.561 . S
C1779 C1782 1.526 . S
C1780 H1764 0.959 . S
C1780 H1765 0.959 . S
C1780 H1766 0.961 . S
C1780 C1779 1.502 . S
C1781 H1767 0.960 . S
C1781 H1768 0.961 . S
C1781 H1769 0.959 . S
C1781 C1779 1.561 . S
C1782 C1779 1.526 . S
C1782 C1783 1.396 . S
C1782 C1787 1.390 . S
C1783 C1777 1.465 . S
C1783 C1782 1.396 . S
C1783 C1784 1.399 . S
C1784 H1770 0.929 . S
C1784 C1783 1.399 . S
C1784 C1785 1.385 . S
C1785 H1771 0.931 . S
C1785 C1784 1.385 . S
C1785 C1786 1.389 . S
C1786 C1785 1.389 . S
C1786 C1787 1.387 . S
C1787 H1772 0.930 . S
C1787 C1782 1.390 . S
C1787 C1786 1.387 . S
H1788 C1800 0.930 . S
H1789 C1802 0.930 . S
H1790 C1803 0.930 . S
H1791 C1807 0.959 . S
H1792 C1807 0.959 . S
H1793 C1807 0.961 . S
H1794 C1808 0.960 . S
H1795 C1808 0.961 . S
H1796 C1808 0.959 . S
H1797 C1811 0.929 . S
H1798 C1812 0.931 . S
H1799 C1814 0.930 . S
C1800 H1788 0.930 . S
C1800 C1801 1.399 . S
C1800 C1805 1.399 . S
C1801 C1800 1.399 . S
C1801 C1802 1.376 . S
C1802 H1789 0.930 . S
C1802 C1801 1.376 . S
C1802 C1803 1.388 . S
C1803 H1790 0.930 . S
C1803 C1802 1.388 . S
C1803 C1804 1.390 . S
C1804 C1803 1.390 . S
C1804 C1805 1.394 . S
C1804 C1810 1.465 . S
C1805 C1800 1.399 . S
C1805 C1804 1.394 . S
C1805 C1806 1.516 . S
C1806 C1805 1.516 . S
C1806 C1807 1.502 . S
C1806 C1808 1.561 . S
C1806 C1809 1.526 . S
C1807 H1791 0.959 . S
C1807 H1792 0.959 . S
C1807 H1793 0.961 . S
C1807 C1806 1.502 . S
C1808 H1794 0.960 . S
C1808 H1795 0.961 . S
C1808 H1796 0.959 . S
C1808 C1806 1.561 . S
C1809 C1806 1.526 . S
C1809 C1810 1.396 . S
C1809 C1814 1.390 . S
C1810 C1804 1.465 . S
C1810 C1809 1.396 . S
C1810 C1811 1.399 . S
C1811 H1797 0.929 . S
C1811 C1810 1.399 . S
C1811 C1812 1.385 . S
C1812 H1798 0.931 . S
C1812 C1811 1.385 . S
C1812 C1813 1.389 . S
C1813 C1812 1.389 . S
C1813 C1814 1.387 . S
C1814 H1799 0.930 . S
C1814 C1809 1.390 . S
C1814 C1813 1.387 . S
H1815 C1827 0.930 . S
H1816 C1829 0.930 . S
H1817 C1830 0.930 . S
H1818 C1834 0.959 . S
H1819 C1834 0.959 . S
H1820 C1834 0.961 . S
H1821 C1835 0.960 . S
H1822 C1835 0.961 . S
H1823 C1835 0.959 . S
H1824 C1838 0.929 . S
H1825 C1839 0.931 . S
H1826 C1841 0.930 . S
C1827 H1815 0.930 . S
C1827 C1828 1.399 . S
C1827 C1832 1.399 . S
C1828 C1827 1.399 . S
C1828 C1829 1.376 . S
C1829 H1816 0.930 . S
C1829 C1828 1.376 . S
C1829 C1830 1.388 . S
C1830 H1817 0.930 . S
C1830 C1829 1.388 . S
C1830 C1831 1.390 . S
C1831 C1830 1.390 . S
C1831 C1832 1.394 . S
C1831 C1837 1.465 . S
C1832 C1827 1.399 . S
C1832 C1831 1.394 . S
C1832 C1833 1.516 . S
C1833 C1832 1.516 . S
C1833 C1834 1.502 . S
C1833 C1835 1.561 . S
C1833 C1836 1.526 . S
C1834 H1818 0.959 . S
C1834 H1819 0.959 . S
C1834 H1820 0.961 . S
C1834 C1833 1.502 . S
C1835 H1821 0.960 . S
C1835 H1822 0.961 . S
C1835 H1823 0.959 . S
C1835 C1833 1.561 . S
C1836 C1833 1.526 . S
C1836 C1837 1.396 . S
C1836 C1841 1.390 . S
C1837 C1831 1.465 . S
C1837 C1836 1.396 . S
C1837 C1838 1.399 . S
C1838 H1824 0.929 . S
C1838 C1837 1.399 . S
C1838 C1839 1.385 . S
C1839 H1825 0.931 . S
C1839 C1838 1.385 . S
C1839 C1840 1.389 . S
C1840 C1839 1.389 . S
C1840 C1841 1.387 . S
C1841 H1826 0.930 . S
C1841 C1836 1.390 . S
C1841 C1840 1.387 . S
H1842 C1854 0.930 . S
H1843 C1856 0.930 . S
H1844 C1857 0.930 . S
H1845 C1861 0.959 . S
H1846 C1861 0.959 . S
H1847 C1861 0.961 . S
H1848 C1862 0.960 . S
H1849 C1862 0.961 . S
H1850 C1862 0.959 . S
H1851 C1865 0.929 . S
H1852 C1866 0.931 . S
H1853 C1868 0.930 . S
C1854 H1842 0.930 . S
C1854 C1855 1.399 . S
C1854 C1859 1.399 . S
C1855 C1854 1.399 . S
C1855 C1856 1.376 . S
C1856 H1843 0.930 . S
C1856 C1855 1.376 . S
C1856 C1857 1.388 . S
C1857 H1844 0.930 . S
C1857 C1856 1.388 . S
C1857 C1858 1.390 . S
C1858 C1857 1.390 . S
C1858 C1859 1.394 . S
C1858 C1864 1.465 . S
C1859 C1854 1.399 . S
C1859 C1858 1.394 . S
C1859 C1860 1.516 . S
C1860 C1859 1.516 . S
C1860 C1861 1.502 . S
C1860 C1862 1.561 . S
C1860 C1863 1.526 . S
C1861 H1845 0.959 . S
C1861 H1846 0.959 . S
C1861 H1847 0.961 . S
C1861 C1860 1.502 . S
C1862 H1848 0.960 . S
C1862 H1849 0.961 . S
C1862 H1850 0.959 . S
C1862 C1860 1.561 . S
C1863 C1860 1.526 . S
C1863 C1864 1.396 . S
C1863 C1868 1.390 . S
C1864 C1858 1.465 . S
C1864 C1863 1.396 . S
C1864 C1865 1.399 . S
C1865 H1851 0.929 . S
C1865 C1864 1.399 . S
C1865 C1866 1.385 . S
C1866 H1852 0.931 . S
C1866 C1865 1.385 . S
C1866 C1867 1.389 . S
C1867 C1866 1.389 . S
C1867 C1868 1.387 . S
C1868 H1853 0.930 . S
C1868 C1863 1.390 . S
C1868 C1867 1.387 . S
H1869 C1881 0.930 . S
H1870 C1883 0.930 . S
H1871 C1884 0.930 . S
H1872 C1888 0.959 . S
H1873 C1888 0.959 . S
H1874 C1888 0.961 . S
H1875 C1889 0.960 . S
H1876 C1889 0.961 . S
H1877 C1889 0.959 . S
H1878 C1892 0.929 . S
H1879 C1893 0.931 . S
H1880 C1895 0.930 . S
C1881 H1869 0.930 . S
C1881 C1882 1.399 . S
C1881 C1886 1.399 . S
C1882 C1881 1.399 . S
C1882 C1883 1.376 . S
C1883 H1870 0.930 . S
C1883 C1882 1.376 . S
C1883 C1884 1.388 . S
C1884 H1871 0.930 . S
C1884 C1883 1.388 . S
C1884 C1885 1.390 . S
C1885 C1884 1.390 . S
C1885 C1886 1.394 . S
C1885 C1891 1.465 . S
C1886 C1881 1.399 . S
C1886 C1885 1.394 . S
C1886 C1887 1.516 . S
C1887 C1886 1.516 . S
C1887 C1888 1.502 . S
C1887 C1889 1.561 . S
C1887 C1890 1.526 . S
C1888 H1872 0.959 . S
C1888 H1873 0.959 . S
C1888 H1874 0.961 . S
C1888 C1887 1.502 . S
C1889 H1875 0.960 . S
C1889 H1876 0.961 . S
C1889 H1877 0.959 . S
C1889 C1887 1.561 . S
C1890 C1887 1.526 . S
C1890 C1891 1.396 . S
C1890 C1895 1.390 . S
C1891 C1885 1.465 . S
C1891 C1890 1.396 . S
C1891 C1892 1.399 . S
C1892 H1878 0.929 . S
C1892 C1891 1.399 . S
C1892 C1893 1.385 . S
C1893 H1879 0.931 . S
C1893 C1892 1.385 . S
C1893 C1894 1.389 . S
C1894 C1893 1.389 . S
C1894 C1895 1.387 . S
C1895 H1880 0.930 . S
C1895 C1890 1.390 . S
C1895 C1894 1.387 . S
H1896 C1908 0.930 1_565 S
H1897 C1910 0.930 . S
H1898 C1911 0.930 . S
H1899 C1915 0.959 1_545 S
H1900 C1915 0.959 . S
H1901 C1915 0.961 . S
H1902 C1916 0.960 . S
H1903 C1916 0.961 . S
H1904 C1916 0.959 . S
H1905 C1919 0.929 . S
H1906 C1920 0.931 . S
H1907 C1922 0.930 . S
C1908 H1896 0.930 1_545 S
C1908 C1909 1.399 . S
C1908 C1913 1.399 . S
C1909 C1908 1.399 . S
C1909 C1910 1.376 . S
C1910 H1897 0.930 . S
C1910 C1909 1.376 . S
C1910 C1911 1.388 . S
C1911 H1898 0.930 . S
C1911 C1910 1.388 . S
C1911 C1912 1.390 . S
C1912 C1911 1.390 . S
C1912 C1913 1.394 . S
C1912 C1918 1.465 . S
C1913 C1908 1.399 . S
C1913 C1912 1.394 . S
C1913 C1914 1.516 . S
C1914 C1913 1.516 . S
C1914 C1915 1.502 1_645 S
C1914 C1916 1.561 1_545 S
C1914 C1917 1.526 . S
C1915 H1899 0.959 1_565 S
C1915 H1900 0.959 . S
C1915 H1901 0.961 . S
C1915 C1914 1.502 1_465 S
C1916 H1902 0.960 . S
C1916 H1903 0.961 . S
C1916 H1904 0.959 . S
C1916 C1914 1.561 1_565 S
C1917 C1914 1.526 . S
C1917 C1918 1.396 . S
C1917 C1922 1.390 1_655 S
C1918 C1912 1.465 . S
C1918 C1917 1.396 . S
C1918 C1919 1.399 . S
C1919 H1905 0.929 . S
C1919 C1918 1.399 . S
C1919 C1920 1.385 . S
C1920 H1906 0.931 . S
C1920 C1919 1.385 . S
C1920 C1921 1.389 1_655 S
C1921 C1920 1.389 1_455 S
C1921 C1922 1.387 . S
C1922 H1907 0.930 . S
C1922 C1917 1.390 1_455 S
C1922 C1921 1.387 . S
H1923 C1935 0.930 . S
H1924 C1937 0.930 . S
H1925 C1938 0.930 . S
H1926 C1942 0.959 . S
H1927 C1942 0.959 . S
H1928 C1942 0.961 . S
H1929 C1943 0.960 . S
H1930 C1943 0.961 . S
H1931 C1943 0.959 . S
H1932 C1946 0.929 . S
H1933 C1947 0.931 . S
H1934 C1949 0.930 . S
C1935 H1923 0.930 . S
C1935 C1936 1.399 . S
C1935 C1940 1.399 . S
C1936 C1935 1.399 . S
C1936 C1937 1.376 . S
C1937 H1924 0.930 . S
C1937 C1936 1.376 . S
C1937 C1938 1.388 . S
C1938 H1925 0.930 . S
C1938 C1937 1.388 . S
C1938 C1939 1.390 . S
C1939 C1938 1.390 . S
C1939 C1940 1.394 . S
C1939 C1945 1.465 . S
C1940 C1935 1.399 . S
C1940 C1939 1.394 . S
C1940 C1941 1.516 . S
C1941 C1940 1.516 . S
C1941 C1942 1.502 . S
C1941 C1943 1.561 . S
C1941 C1944 1.526 . S
C1942 H1926 0.959 . S
C1942 H1927 0.959 . S
C1942 H1928 0.961 . S
C1942 C1941 1.502 . S
C1943 H1929 0.960 . S
C1943 H1930 0.961 . S
C1943 H1931 0.959 . S
C1943 C1941 1.561 . S
C1944 C1941 1.526 . S
C1944 C1945 1.396 . S
C1944 C1949 1.390 . S
C1945 C1939 1.465 . S
C1945 C1944 1.396 . S
C1945 C1946 1.399 . S
C1946 H1932 0.929 . S
C1946 C1945 1.399 . S
C1946 C1947 1.385 . S
C1947 H1933 0.931 . S
C1947 C1946 1.385 . S
C1947 C1948 1.389 . S
C1948 C1947 1.389 . S
C1948 C1949 1.387 . S
C1949 H1934 0.930 . S
C1949 C1944 1.390 . S
C1949 C1948 1.387 . S
H1950 C1962 0.930 . S
H1951 C1964 0.930 . S
H1952 C1965 0.930 . S
H1953 C1969 0.959 . S
H1954 C1969 0.959 . S
H1955 C1969 0.961 . S
H1956 C1970 0.982 . S
H1957 C1970 0.981 . S
H1958 C1970 0.928 1_545 S
H1959 C1973 0.929 . S
H1960 C1974 0.931 . S
H1961 C1976 0.930 1_565 S
C1962 H1950 0.930 . S
C1962 C1963 1.399 . S
C1962 C1967 1.399 . S
C1963 C1962 1.399 . S
C1963 C1964 1.376 . S
C1964 H1951 0.930 . S
C1964 C1963 1.376 . S
C1964 C1965 1.388 . S
C1965 H1952 0.930 . S
C1965 C1964 1.388 . S
C1965 C1966 1.390 . S
C1966 C1965 1.390 . S
C1966 C1967 1.394 . S
C1966 C1972 1.465 . S
C1967 C1962 1.399 . S
C1967 C1966 1.394 . S
C1967 C1968 1.516 . S
C1968 C1967 1.516 . S
C1968 C1969 1.502 1_545 S
C1968 C1970 1.552 1_545 S
C1968 C1971 1.526 . S
C1969 H1953 0.959 . S
C1969 H1954 0.959 . S
C1969 H1955 0.961 . S
C1969 C1968 1.502 1_565 S
C1970 H1956 0.982 . S
C1970 H1957 0.981 . S
C1970 H1958 0.928 1_565 S
C1970 C1968 1.552 1_565 S
C1971 C1968 1.526 . S
C1971 C1972 1.396 . S
C1971 C1976 1.390 . S
C1972 C1966 1.465 . S
C1972 C1971 1.396 . S
C1972 C1973 1.399 . S
C1973 H1959 0.929 . S
C1973 C1972 1.399 . S
C1973 C1974 1.385 . S
C1974 H1960 0.931 . S
C1974 C1973 1.385 . S
C1974 C1975 1.389 . S
C1975 C1974 1.389 . S
C1975 C1976 1.387 . S
C1976 H1961 0.930 1_545 S
C1976 C1971 1.390 . S
C1976 C1975 1.387 . S
H1977 C1989 0.930 . S
H1978 C1991 0.930 . S
H1979 C1992 0.930 . S
H1980 C1996 0.959 . S
H1981 C1996 0.959 . S
H1982 C1996 0.961 . S
H1983 C1997 0.960 . S
H1984 C1997 0.961 . S
H1985 C1997 0.959 . S
H1986 C2000 0.929 . S
H1987 C2001 0.931 . S
H1988 C2003 0.930 . S
C1989 H1977 0.930 . S
C1989 C1990 1.399 . S
C1989 C1994 1.399 . S
C1990 C1989 1.399 . S
C1990 C1991 1.376 . S
C1991 H1978 0.930 . S
C1991 C1990 1.376 . S
C1991 C1992 1.388 . S
C1992 H1979 0.930 . S
C1992 C1991 1.388 . S
C1992 C1993 1.390 . S
C1993 C1992 1.390 . S
C1993 C1994 1.394 . S
C1993 C1999 1.465 . S
C1994 C1989 1.399 . S
C1994 C1993 1.394 . S
C1994 C1995 1.516 . S
C1995 C1994 1.516 . S
C1995 C1996 1.502 . S
C1995 C1997 1.561 . S
C1995 C1998 1.526 . S
C1996 H1980 0.959 . S
C1996 H1981 0.959 . S
C1996 H1982 0.961 . S
C1996 C1995 1.502 . S
C1997 H1983 0.960 . S
C1997 H1984 0.961 . S
C1997 H1985 0.959 . S
C1997 C1995 1.561 . S
C1998 C1995 1.526 . S
C1998 C1999 1.396 . S
C1998 C2003 1.390 . S
C1999 C1993 1.465 . S
C1999 C1998 1.396 . S
C1999 C2000 1.399 . S
C2000 H1986 0.929 . S
C2000 C1999 1.399 . S
C2000 C2001 1.385 . S
C2001 H1987 0.931 . S
C2001 C2000 1.385 . S
C2001 C2002 1.389 . S
C2002 C2001 1.389 . S
C2002 C2003 1.387 . S
C2003 H1988 0.930 . S
C2003 C1998 1.390 . S
C2003 C2002 1.387 . S
H2004 C2016 0.930 1_565 S
H2005 C2018 0.930 . S
H2006 C2019 0.922 1_455 S
H2007 C2023 0.959 . S
H2008 C2023 0.959 . S
H2009 C2023 0.961 . S
H2010 C2024 0.960 . S
H2011 C2024 0.961 . S
H2012 C2024 0.959 1_455 S
H2013 C2027 0.929 . S
H2014 C2028 0.931 . S
H2015 C2030 0.930 1_565 S
C2016 H2004 0.930 1_545 S
C2016 C2017 1.399 . S
C2016 C2021 1.399 . S
C2017 C2016 1.399 . S
C2017 C2018 1.376 . S
C2018 H2005 0.930 . S
C2018 C2017 1.376 . S
C2018 C2019 1.388 . S
C2019 H2006 0.922 1_655 S
C2019 C2018 1.388 . S
C2019 C2020 1.390 . S
C2020 C2019 1.390 . S
C2020 C2021 1.394 . S
C2020 C2026 1.465 . S
C2021 C2016 1.399 . S
C2021 C2020 1.394 . S
C2021 C2022 1.516 1_545 S
C2022 C2021 1.516 1_565 S
C2022 C2023 1.502 . S
C2022 C2024 1.561 . S
C2022 C2025 1.526 1_565 S
C2023 H2007 0.959 . S
C2023 H2008 0.959 . S
C2023 H2009 0.961 . S
C2023 C2022 1.502 . S
C2024 H2010 0.960 . S
C2024 H2011 0.961 . S
C2024 H2012 0.959 1_655 S
C2024 C2022 1.561 . S
C2025 C2022 1.526 1_545 S
C2025 C2026 1.396 . S
C2025 C2030 1.390 . S
C2026 C2020 1.465 . S
C2026 C2025 1.396 . S
C2026 C2027 1.399 1_655 S
C2027 H2013 0.929 . S
C2027 C2026 1.399 1_455 S
C2027 C2028 1.385 . S
C2028 H2014 0.931 . S
C2028 C2027 1.385 . S
C2028 C2029 1.389 . S
C2029 C2028 1.389 . S
C2029 C2030 1.387 1_455 S
C2030 H2015 0.930 1_545 S
C2030 C2025 1.390 . S
C2030 C2029 1.387 1_655 S
H2031 C2043 0.930 . S
H2032 C2045 0.930 . S
H2033 C2046 0.930 . S
H2034 C2050 0.959 . S
H2035 C2050 0.959 . S
H2036 C2050 0.961 . S
H2037 C2051 0.960 . S
H2038 C2051 0.961 . S
H2039 C2051 0.959 . S
H2040 C2054 0.929 . S
H2041 C2055 0.931 . S
H2042 C2057 0.930 . S
C2043 H2031 0.930 . S
C2043 C2044 1.399 . S
C2043 C2048 1.399 . S
C2044 C2043 1.399 . S
C2044 C2045 1.376 . S
C2045 H2032 0.930 . S
C2045 C2044 1.376 . S
C2045 C2046 1.388 . S
C2046 H2033 0.930 . S
C2046 C2045 1.388 . S
C2046 C2047 1.390 . S
C2047 C2046 1.390 . S
C2047 C2048 1.394 . S
C2047 C2053 1.465 . S
C2048 C2043 1.399 . S
C2048 C2047 1.394 . S
C2048 C2049 1.516 . S
C2049 C2048 1.516 . S
C2049 C2050 1.502 . S
C2049 C2051 1.561 . S
C2049 C2052 1.526 . S
C2050 H2034 0.959 . S
C2050 H2035 0.959 . S
C2050 H2036 0.961 . S
C2050 C2049 1.502 . S
C2051 H2037 0.960 . S
C2051 H2038 0.961 . S
C2051 H2039 0.959 . S
C2051 C2049 1.561 . S
C2052 C2049 1.526 . S
C2052 C2053 1.396 . S
C2052 C2057 1.390 . S
C2053 C2047 1.465 . S
C2053 C2052 1.396 . S
C2053 C2054 1.399 . S
C2054 H2040 0.929 . S
C2054 C2053 1.399 . S
C2054 C2055 1.385 . S
C2055 H2041 0.931 . S
C2055 C2054 1.385 . S
C2055 C2056 1.389 . S
C2056 C2055 1.389 . S
C2056 C2057 1.387 . S
C2057 H2042 0.930 . S
C2057 C2052 1.390 . S
C2057 C2056 1.387 . S
H2058 C2070 0.930 . S
H2059 C2072 0.930 . S
H2060 C2073 0.930 . S
H2061 C2077 0.959 . S
H2062 C2077 0.959 . S
H2063 C2077 0.961 . S
H2064 C2078 0.983 . S
H2065 C2078 0.961 1_565 S
H2066 C2078 0.959 . S
H2067 C2081 0.929 . S
H2068 C2082 0.931 . S
H2069 C2084 0.930 . S
C2070 H2058 0.930 . S
C2070 C2071 1.399 . S
C2070 C2075 1.399 . S
C2071 C2070 1.399 . S
C2071 C2072 1.376 . S
C2072 H2059 0.930 . S
C2072 C2071 1.376 . S
C2072 C2073 1.388 . S
C2073 H2060 0.930 . S
C2073 C2072 1.388 . S
C2073 C2074 1.390 . S
C2074 C2073 1.390 . S
C2074 C2075 1.394 . S
C2074 C2080 1.465 . S
C2075 C2070 1.399 . S
C2075 C2074 1.394 . S
C2075 C2076 1.516 . S
C2076 C2075 1.516 . S
C2076 C2077 1.502 . S
C2076 C2078 1.561 . S
C2076 C2079 1.526 . S
C2077 H2061 0.959 . S
C2077 H2062 0.959 . S
C2077 H2063 0.961 . S
C2077 C2076 1.502 . S
C2078 H2064 0.983 . S
C2078 H2065 0.961 1_545 S
C2078 H2066 0.959 . S
C2078 C2076 1.561 . S
C2079 C2076 1.526 . S
C2079 C2080 1.396 . S
C2079 C2084 1.390 . S
C2080 C2074 1.465 . S
C2080 C2079 1.396 . S
C2080 C2081 1.399 . S
C2081 H2067 0.929 . S
C2081 C2080 1.399 . S
C2081 C2082 1.385 . S
C2082 H2068 0.931 . S
C2082 C2081 1.385 . S
C2082 C2083 1.389 . S
C2083 C2082 1.389 . S
C2083 C2084 1.387 . S
C2084 H2069 0.930 . S
C2084 C2079 1.390 . S
C2084 C2083 1.387 . S
H2085 C2097 0.930 . S
H2086 C2099 0.930 . S
H2087 C2100 0.930 . S
H2088 C2104 0.959 . S
H2089 C2104 0.959 . S
H2090 C2104 0.961 . S
H2091 C2105 0.960 . S
H2092 C2105 0.961 . S
H2093 C2105 0.959 . S
H2094 C2108 0.929 . S
H2095 C2109 0.931 . S
H2096 C2111 0.930 . S
C2097 H2085 0.930 . S
C2097 C2098 1.399 . S
C2097 C2102 1.399 . S
C2098 C2097 1.399 . S
C2098 C2099 1.376 . S
C2099 H2086 0.930 . S
C2099 C2098 1.376 . S
C2099 C2100 1.388 . S
C2100 H2087 0.930 . S
C2100 C2099 1.388 . S
C2100 C2101 1.390 . S
C2101 C2100 1.390 . S
C2101 C2102 1.394 . S
C2101 C2107 1.465 . S
C2102 C2097 1.399 . S
C2102 C2101 1.394 . S
C2102 C2103 1.516 . S
C2103 C2102 1.516 . S
C2103 C2104 1.502 . S
C2103 C2105 1.561 . S
C2103 C2106 1.526 . S
C2104 H2088 0.959 . S
C2104 H2089 0.959 . S
C2104 H2090 0.961 . S
C2104 C2103 1.502 . S
C2105 H2091 0.960 . S
C2105 H2092 0.961 . S
C2105 H2093 0.959 . S
C2105 C2103 1.561 . S
C2106 C2103 1.526 . S
C2106 C2107 1.396 . S
C2106 C2111 1.390 . S
C2107 C2101 1.465 . S
C2107 C2106 1.396 . S
C2107 C2108 1.399 . S
C2108 H2094 0.929 . S
C2108 C2107 1.399 . S
C2108 C2109 1.385 . S
C2109 H2095 0.931 . S
C2109 C2108 1.385 . S
C2109 C2110 1.389 . S
C2110 C2109 1.389 . S
C2110 C2111 1.387 . S
C2111 H2096 0.930 . S
C2111 C2106 1.390 . S
C2111 C2110 1.387 . S
H2112 C2124 0.930 . S
H2113 C2126 0.930 . S
H2114 C2127 0.930 . S
H2115 C2131 0.959 1_554 S
H2116 C2131 0.959 . S
H2117 C2131 0.961 . S
H2118 C2132 0.960 . S
H2119 C2132 0.961 . S
H2120 C2132 0.959 . S
H2121 C2135 0.929 . S
H2122 C2136 0.931 . S
H2123 C2138 0.930 . S
C2124 H2112 0.930 . S
C2124 C2125 1.399 1_556 S
C2124 C2129 1.399 1_556 S
C2125 C2124 1.399 1_554 S
C2125 C2126 1.376 . S
C2126 H2113 0.930 . S
C2126 C2125 1.376 . S
C2126 C2127 1.388 . S
C2127 H2114 0.930 . S
C2127 C2126 1.388 . S
C2127 C2128 1.390 . S
C2128 C2127 1.390 . S
C2128 C2129 1.394 . S
C2128 C2134 1.465 . S
C2129 C2124 1.399 1_554 S
C2129 C2128 1.394 . S
C2129 C2130 1.516 1_554 S
C2130 C2129 1.516 1_556 S
C2130 C2131 1.502 1_565 S
C2130 C2132 1.561 . S
C2130 C2133 1.526 1_556 S
C2131 H2115 0.959 1_556 S
C2131 H2116 0.959 . S
C2131 H2117 0.961 . S
C2131 C2130 1.502 1_545 S
C2132 H2118 0.960 . S
C2132 H2119 0.961 . S
C2132 H2120 0.959 . S
C2132 C2130 1.561 . S
C2133 C2130 1.526 1_554 S
C2133 C2134 1.396 . S
C2133 C2138 1.390 1_565 S
C2134 C2128 1.465 . S
C2134 C2133 1.396 . S
C2134 C2135 1.399 . S
C2135 H2121 0.929 . S
C2135 C2134 1.399 . S
C2135 C2136 1.385 . S
C2136 H2122 0.931 . S
C2136 C2135 1.385 . S
C2136 C2137 1.389 1_565 S
C2137 C2136 1.389 1_545 S
C2137 C2138 1.387 . S
C2138 H2123 0.930 . S
C2138 C2133 1.390 1_545 S
C2138 C2137 1.387 . S
H2139 C2151 0.930 . S
H2140 C2153 0.930 . S
H2141 C2154 0.930 . S
H2142 C2158 0.959 . S
H2143 C2158 0.959 . S
H2144 C2158 0.961 . S
H2145 C2159 0.960 . S
H2146 C2159 0.961 . S
H2147 C2159 0.959 . S
H2148 C2162 0.929 . S
H2149 C2163 0.931 . S
H2150 C2165 0.930 . S
C2151 H2139 0.930 . S
C2151 C2152 1.399 . S
C2151 C2156 1.399 . S
C2152 C2151 1.399 . S
C2152 C2153 1.376 1_554 S
C2153 H2140 0.930 . S
C2153 C2152 1.376 1_556 S
C2153 C2154 1.388 . S
C2154 H2141 0.930 . S
C2154 C2153 1.388 . S
C2154 C2155 1.390 . S
C2155 C2154 1.390 . S
C2155 C2156 1.394 1_556 S
C2155 C2161 1.465 . S
C2156 C2151 1.399 . S
C2156 C2155 1.394 1_554 S
C2156 C2157 1.516 . S
C2157 C2156 1.516 . S
C2157 C2158 1.502 . S
C2157 C2159 1.561 . S
C2157 C2160 1.526 . S
C2158 H2142 0.959 . S
C2158 H2143 0.959 . S
C2158 H2144 0.961 . S
C2158 C2157 1.502 . S
C2159 H2145 0.960 . S
C2159 H2146 0.961 . S
C2159 H2147 0.959 . S
C2159 C2157 1.561 . S
C2160 C2157 1.526 . S
C2160 C2161 1.396 1_554 S
C2160 C2165 1.390 . S
C2161 C2155 1.465 . S
C2161 C2160 1.396 1_556 S
C2161 C2162 1.399 . S
C2162 H2148 0.929 . S
C2162 C2161 1.399 . S
C2162 C2163 1.385 . S
C2163 H2149 0.931 . S
C2163 C2162 1.385 . S
C2163 C2164 1.389 1_556 S
C2164 C2163 1.389 1_554 S
C2164 C2165 1.387 . S
C2165 H2150 0.930 . S
C2165 C2160 1.390 . S
C2165 C2164 1.387 . S
H2166 C2178 0.930 . S
H2167 C2180 0.930 . S
H2168 C2181 0.930 . S
H2169 C2185 0.959 . S
H2170 C2185 0.959 . S
H2171 C2185 0.961 . S
H2172 C2186 0.960 . S
H2173 C2186 0.961 . S
H2174 C2186 0.959 . S
H2175 C2189 0.929 . S
H2176 C2190 0.931 . S
H2177 C2192 0.930 . S
C2178 H2166 0.930 . S
C2178 C2179 1.399 . S
C2178 C2183 1.399 . S
C2179 C2178 1.399 . S
C2179 C2180 1.376 . S
C2180 H2167 0.930 . S
C2180 C2179 1.376 . S
C2180 C2181 1.388 . S
C2181 H2168 0.930 . S
C2181 C2180 1.388 . S
C2181 C2182 1.390 . S
C2182 C2181 1.390 . S
C2182 C2183 1.394 . S
C2182 C2188 1.465 . S
C2183 C2178 1.399 . S
C2183 C2182 1.394 . S
C2183 C2184 1.516 . S
C2184 C2183 1.516 . S
C2184 C2185 1.502 . S
C2184 C2186 1.561 . S
C2184 C2187 1.526 . S
C2185 H2169 0.959 . S
C2185 H2170 0.959 . S
C2185 H2171 0.961 . S
C2185 C2184 1.502 . S
C2186 H2172 0.960 . S
C2186 H2173 0.961 . S
C2186 H2174 0.959 . S
C2186 C2184 1.561 . S
C2187 C2184 1.526 . S
C2187 C2188 1.396 . S
C2187 C2192 1.390 . S
C2188 C2182 1.465 . S
C2188 C2187 1.396 . S
C2188 C2189 1.399 . S
C2189 H2175 0.929 . S
C2189 C2188 1.399 . S
C2189 C2190 1.385 . S
C2190 H2176 0.931 . S
C2190 C2189 1.385 . S
C2190 C2191 1.389 . S
C2191 C2190 1.389 . S
C2191 C2192 1.387 . S
C2192 H2177 0.930 . S
C2192 C2187 1.390 . S
C2192 C2191 1.387 . S
H2193 C2205 0.930 . S
H2194 C2207 0.930 . S
H2195 C2208 0.930 . S
H2196 C2212 0.959 . S
H2197 C2212 0.959 . S
H2198 C2212 0.961 . S
H2199 C2213 0.960 . S
H2200 C2213 0.961 . S
H2201 C2213 0.959 . S
H2202 C2216 0.929 . S
H2203 C2217 0.931 . S
H2204 C2219 0.930 . S
C2205 H2193 0.930 . S
C2205 C2206 1.399 . S
C2205 C2210 1.399 . S
C2206 C2205 1.399 . S
C2206 C2207 1.376 . S
C2207 H2194 0.930 . S
C2207 C2206 1.376 . S
C2207 C2208 1.388 . S
C2208 H2195 0.930 . S
C2208 C2207 1.388 . S
C2208 C2209 1.390 . S
C2209 C2208 1.390 . S
C2209 C2210 1.394 . S
C2209 C2215 1.465 . S
C2210 C2205 1.399 . S
C2210 C2209 1.394 . S
C2210 C2211 1.516 . S
C2211 C2210 1.516 . S
C2211 C2212 1.502 . S
C2211 C2213 1.561 . S
C2211 C2214 1.526 . S
C2212 H2196 0.959 . S
C2212 H2197 0.959 . S
C2212 H2198 0.961 . S
C2212 C2211 1.502 . S
C2213 H2199 0.960 . S
C2213 H2200 0.961 . S
C2213 H2201 0.959 . S
C2213 C2211 1.561 . S
C2214 C2211 1.526 . S
C2214 C2215 1.396 . S
C2214 C2219 1.390 . S
C2215 C2209 1.465 . S
C2215 C2214 1.396 . S
C2215 C2216 1.399 . S
C2216 H2202 0.929 . S
C2216 C2215 1.399 . S
C2216 C2217 1.385 . S
C2217 H2203 0.931 . S
C2217 C2216 1.385 . S
C2217 C2218 1.389 . S
C2218 C2217 1.389 . S
C2218 C2219 1.387 . S
C2219 H2204 0.930 . S
C2219 C2214 1.390 . S
C2219 C2218 1.387 . S
H2220 C2232 0.930 . S
H2221 C2234 0.930 . S
H2222 C2235 0.930 . S
H2223 C2239 0.959 . S
H2224 C2239 0.959 . S
H2225 C2239 0.961 . S
H2226 C2240 0.960 . S
H2227 C2240 0.961 . S
H2228 C2240 0.959 . S
H2229 C2243 0.929 . S
H2230 C2244 0.931 . S
H2231 C2246 0.930 . S
C2232 H2220 0.930 . S
C2232 C2233 1.399 . S
C2232 C2237 1.399 . S
C2233 C2232 1.399 . S
C2233 C2234 1.376 . S
C2234 H2221 0.930 . S
C2234 C2233 1.376 . S
C2234 C2235 1.388 . S
C2235 H2222 0.930 . S
C2235 C2234 1.388 . S
C2235 C2236 1.390 . S
C2236 C2235 1.390 . S
C2236 C2237 1.394 . S
C2236 C2242 1.465 . S
C2237 C2232 1.399 . S
C2237 C2236 1.394 . S
C2237 C2238 1.516 . S
C2238 C2237 1.516 . S
C2238 C2239 1.502 . S
C2238 C2240 1.561 . S
C2238 C2241 1.526 . S
C2239 H2223 0.959 . S
C2239 H2224 0.959 . S
C2239 H2225 0.961 . S
C2239 C2238 1.502 . S
C2240 H2226 0.960 . S
C2240 H2227 0.961 . S
C2240 H2228 0.959 . S
C2240 C2238 1.561 . S
C2241 C2238 1.526 . S
C2241 C2242 1.396 . S
C2241 C2246 1.390 . S
C2242 C2236 1.465 . S
C2242 C2241 1.396 . S
C2242 C2243 1.399 . S
C2243 H2229 0.929 . S
C2243 C2242 1.399 . S
C2243 C2244 1.385 . S
C2244 H2230 0.931 . S
C2244 C2243 1.385 . S
C2244 C2245 1.389 . S
C2245 C2244 1.389 . S
C2245 C2246 1.387 . S
C2246 H2231 0.930 . S
C2246 C2241 1.390 . S
C2246 C2245 1.387 . S
H2247 C2259 0.930 . S
H2248 C2261 0.930 . S
H2249 C2262 0.930 . S
H2250 C2266 0.959 . S
H2251 C2266 0.959 . S
H2252 C2266 0.961 . S
H2253 C2267 0.960 . S
H2254 C2267 0.961 . S
H2255 C2267 0.959 . S
H2256 C2270 0.929 . S
H2257 C2271 0.931 . S
H2258 C2273 0.930 . S
C2259 H2247 0.930 . S
C2259 C2260 1.399 . S
C2259 C2264 1.399 . S
C2260 C2259 1.399 . S
C2260 C2261 1.376 . S
C2261 H2248 0.930 . S
C2261 C2260 1.376 . S
C2261 C2262 1.388 . S
C2262 H2249 0.930 . S
C2262 C2261 1.388 . S
C2262 C2263 1.390 . S
C2263 C2262 1.390 . S
C2263 C2264 1.394 . S
C2263 C2269 1.465 . S
C2264 C2259 1.399 . S
C2264 C2263 1.394 . S
C2264 C2265 1.516 . S
C2265 C2264 1.516 . S
C2265 C2266 1.502 . S
C2265 C2267 1.561 . S
C2265 C2268 1.526 . S
C2266 H2250 0.959 . S
C2266 H2251 0.959 . S
C2266 H2252 0.961 . S
C2266 C2265 1.502 . S
C2267 H2253 0.960 . S
C2267 H2254 0.961 . S
C2267 H2255 0.959 . S
C2267 C2265 1.561 . S
C2268 C2265 1.526 . S
C2268 C2269 1.396 . S
C2268 C2273 1.390 . S
C2269 C2263 1.465 . S
C2269 C2268 1.396 . S
C2269 C2270 1.399 . S
C2270 H2256 0.929 . S
C2270 C2269 1.399 . S
C2270 C2271 1.385 . S
C2271 H2257 0.931 . S
C2271 C2270 1.385 . S
C2271 C2272 1.389 . S
C2272 C2271 1.389 . S
C2272 C2273 1.387 . S
C2273 H2258 0.930 . S
C2273 C2268 1.390 . S
C2273 C2272 1.387 . S
H2274 C2286 0.930 . S
H2275 C2288 0.930 . S
H2276 C2289 0.930 . S
H2277 C2293 0.959 . S
H2278 C2293 0.959 . S
H2279 C2293 0.961 . S
H2280 C2294 0.960 . S
H2281 C2294 0.961 . S
H2282 C2294 0.959 . S
H2283 C2297 0.929 . S
H2284 C2298 0.931 . S
H2285 C2300 0.930 . S
C2286 H2274 0.930 . S
C2286 C2287 1.399 . S
C2286 C2291 1.399 . S
C2287 C2286 1.399 . S
C2287 C2288 1.376 . S
C2288 H2275 0.930 . S
C2288 C2287 1.376 . S
C2288 C2289 1.388 . S
C2289 H2276 0.930 . S
C2289 C2288 1.388 . S
C2289 C2290 1.390 . S
C2290 C2289 1.390 . S
C2290 C2291 1.394 . S
C2290 C2296 1.465 . S
C2291 C2286 1.399 . S
C2291 C2290 1.394 . S
C2291 C2292 1.516 . S
C2292 C2291 1.516 . S
C2292 C2293 1.502 . S
C2292 C2294 1.561 . S
C2292 C2295 1.526 . S
C2293 H2277 0.959 . S
C2293 H2278 0.959 . S
C2293 H2279 0.961 . S
C2293 C2292 1.502 . S
C2294 H2280 0.960 . S
C2294 H2281 0.961 . S
C2294 H2282 0.959 . S
C2294 C2292 1.561 . S
C2295 C2292 1.526 . S
C2295 C2296 1.396 . S
C2295 C2300 1.390 . S
C2296 C2290 1.465 . S
C2296 C2295 1.396 . S
C2296 C2297 1.399 . S
C2297 H2283 0.929 . S
C2297 C2296 1.399 . S
C2297 C2298 1.385 . S
C2298 H2284 0.931 . S
C2298 C2297 1.385 . S
C2298 C2299 1.389 . S
C2299 C2298 1.389 . S
C2299 C2300 1.387 . S
C2300 H2285 0.930 . S
C2300 C2295 1.390 . S
C2300 C2299 1.387 . S
H2301 C2313 0.930 . S
H2302 C2315 0.930 . S
H2303 C2316 0.930 . S
H2304 C2320 0.959 . S
H2305 C2320 0.959 . S
H2306 C2320 0.961 . S
H2307 C2321 0.960 . S
H2308 C2321 0.961 . S
H2309 C2321 0.959 . S
H2310 C2324 0.929 . S
H2311 C2325 0.931 . S
H2312 C2327 0.930 . S
C2313 H2301 0.930 . S
C2313 C2314 1.399 . S
C2313 C2318 1.399 . S
C2314 C2313 1.399 . S
C2314 C2315 1.376 . S
C2315 H2302 0.930 . S
C2315 C2314 1.376 . S
C2315 C2316 1.388 . S
C2316 H2303 0.930 . S
C2316 C2315 1.388 . S
C2316 C2317 1.390 . S
C2317 C2316 1.390 . S
C2317 C2318 1.394 . S
C2317 C2323 1.465 . S
C2318 C2313 1.399 . S
C2318 C2317 1.394 . S
C2318 C2319 1.516 . S
C2319 C2318 1.516 . S
C2319 C2320 1.502 . S
C2319 C2321 1.561 . S
C2319 C2322 1.526 . S
C2320 H2304 0.959 . S
C2320 H2305 0.959 . S
C2320 H2306 0.961 . S
C2320 C2319 1.502 . S
C2321 H2307 0.960 . S
C2321 H2308 0.961 . S
C2321 H2309 0.959 . S
C2321 C2319 1.561 . S
C2322 C2319 1.526 . S
C2322 C2323 1.396 . S
C2322 C2327 1.390 . S
C2323 C2317 1.465 . S
C2323 C2322 1.396 . S
C2323 C2324 1.399 . S
C2324 H2310 0.929 . S
C2324 C2323 1.399 . S
C2324 C2325 1.385 . S
C2325 H2311 0.931 . S
C2325 C2324 1.385 . S
C2325 C2326 1.389 . S
C2326 C2325 1.389 . S
C2326 C2327 1.387 . S
C2327 H2312 0.930 . S
C2327 C2322 1.390 . S
C2327 C2326 1.387 . S
H2328 C2340 0.930 . S
H2329 C2342 0.930 . S
H2330 C2343 0.930 . S
H2331 C2347 0.959 . S
H2332 C2347 0.959 . S
H2333 C2347 0.961 . S
H2334 C2348 0.960 . S
H2335 C2348 0.961 . S
H2336 C2348 0.959 . S
H2337 C2351 0.929 . S
H2338 C2352 0.931 . S
H2339 C2354 0.930 . S
C2340 H2328 0.930 . S
C2340 C2341 1.399 . S
C2340 C2345 1.399 . S
C2341 C2340 1.399 . S
C2341 C2342 1.376 . S
C2342 H2329 0.930 . S
C2342 C2341 1.376 . S
C2342 C2343 1.388 . S
C2343 H2330 0.930 . S
C2343 C2342 1.388 . S
C2343 C2344 1.390 . S
C2344 C2343 1.390 . S
C2344 C2345 1.394 . S
C2344 C2350 1.465 . S
C2345 C2340 1.399 . S
C2345 C2344 1.394 . S
C2345 C2346 1.516 . S
C2346 C2345 1.516 . S
C2346 C2347 1.502 . S
C2346 C2348 1.561 . S
C2346 C2349 1.526 . S
C2347 H2331 0.959 . S
C2347 H2332 0.959 . S
C2347 H2333 0.961 . S
C2347 C2346 1.502 . S
C2348 H2334 0.960 . S
C2348 H2335 0.961 . S
C2348 H2336 0.959 . S
C2348 C2346 1.561 . S
C2349 C2346 1.526 . S
C2349 C2350 1.396 . S
C2349 C2354 1.390 . S
C2350 C2344 1.465 . S
C2350 C2349 1.396 . S
C2350 C2351 1.399 . S
C2351 H2337 0.929 . S
C2351 C2350 1.399 . S
C2351 C2352 1.385 . S
C2352 H2338 0.931 . S
C2352 C2351 1.385 . S
C2352 C2353 1.389 . S
C2353 C2352 1.389 . S
C2353 C2354 1.387 . S
C2354 H2339 0.930 . S
C2354 C2349 1.390 . S
C2354 C2353 1.387 . S
H2355 C2367 0.930 . S
H2356 C2369 0.930 . S
H2357 C2370 0.930 . S
H2358 C2374 0.959 . S
H2359 C2374 0.959 . S
H2360 C2374 0.961 . S
H2361 C2375 0.960 . S
H2362 C2375 0.961 . S
H2363 C2375 0.959 . S
H2364 C2378 0.929 . S
H2365 C2379 0.931 . S
H2366 C2381 0.930 . S
C2367 H2355 0.930 . S
C2367 C2368 1.399 . S
C2367 C2372 1.399 . S
C2368 C2367 1.399 . S
C2368 C2369 1.376 . S
C2369 H2356 0.930 . S
C2369 C2368 1.376 . S
C2369 C2370 1.388 . S
C2370 H2357 0.930 . S
C2370 C2369 1.388 . S
C2370 C2371 1.390 . S
C2371 C2370 1.390 . S
C2371 C2372 1.394 . S
C2371 C2377 1.465 . S
C2372 C2367 1.399 . S
C2372 C2371 1.394 . S
C2372 C2373 1.516 . S
C2373 C2372 1.516 . S
C2373 C2374 1.502 . S
C2373 C2375 1.561 . S
C2373 C2376 1.526 . S
C2374 H2358 0.959 . S
C2374 H2359 0.959 . S
C2374 H2360 0.961 . S
C2374 C2373 1.502 . S
C2375 H2361 0.960 . S
C2375 H2362 0.961 . S
C2375 H2363 0.959 . S
C2375 C2373 1.561 . S
C2376 C2373 1.526 . S
C2376 C2377 1.396 . S
C2376 C2381 1.390 . S
C2377 C2371 1.465 . S
C2377 C2376 1.396 . S
C2377 C2378 1.399 . S
C2378 H2364 0.929 . S
C2378 C2377 1.399 . S
C2378 C2379 1.385 . S
C2379 H2365 0.931 . S
C2379 C2378 1.385 . S
C2379 C2380 1.389 . S
C2380 C2379 1.389 . S
C2380 C2381 1.387 . S
C2381 H2366 0.930 . S
C2381 C2376 1.390 . S
C2381 C2380 1.387 . S
H2382 C2394 0.930 . S
H2383 C2396 0.930 . S
H2384 C2397 0.930 . S
H2385 C2401 0.959 . S
H2386 C2401 0.959 . S
H2387 C2401 0.961 . S
H2388 C2402 0.960 . S
H2389 C2402 0.961 . S
H2390 C2402 0.959 . S
H2391 C2405 0.929 . S
H2392 C2406 0.931 . S
H2393 C2408 0.930 . S
C2394 H2382 0.930 . S
C2394 C2395 1.399 . S
C2394 C2399 1.399 . S
C2395 C2394 1.399 . S
C2395 C2396 1.376 . S
C2396 H2383 0.930 . S
C2396 C2395 1.376 . S
C2396 C2397 1.388 . S
C2397 H2384 0.930 . S
C2397 C2396 1.388 . S
C2397 C2398 1.390 . S
C2398 C2397 1.390 . S
C2398 C2399 1.394 . S
C2398 C2404 1.465 . S
C2399 C2394 1.399 . S
C2399 C2398 1.394 . S
C2399 C2400 1.516 . S
C2400 C2399 1.516 . S
C2400 C2401 1.502 . S
C2400 C2402 1.561 . S
C2400 C2403 1.526 . S
C2401 H2385 0.959 . S
C2401 H2386 0.959 . S
C2401 H2387 0.961 . S
C2401 C2400 1.502 . S
C2402 H2388 0.960 . S
C2402 H2389 0.961 . S
C2402 H2390 0.959 . S
C2402 C2400 1.561 . S
C2403 C2400 1.526 . S
C2403 C2404 1.396 . S
C2403 C2408 1.390 . S
C2404 C2398 1.465 . S
C2404 C2403 1.396 . S
C2404 C2405 1.399 . S
C2405 H2391 0.929 . S
C2405 C2404 1.399 . S
C2405 C2406 1.385 . S
C2406 H2392 0.931 . S
C2406 C2405 1.385 . S
C2406 C2407 1.389 . S
C2407 C2406 1.389 . S
C2407 C2408 1.387 . S
C2408 H2393 0.930 . S
C2408 C2403 1.390 . S
C2408 C2407 1.387 . S
H2409 C2421 0.930 . S
H2410 C2423 0.930 . S
H2411 C2424 0.930 . S
H2412 C2428 0.959 . S
H2413 C2428 0.959 . S
H2414 C2428 0.961 . S
H2415 C2429 0.960 . S
H2416 C2429 0.961 . S
H2417 C2429 0.959 . S
H2418 C2432 0.929 . S
H2419 C2433 0.931 . S
H2420 C2435 0.930 . S
C2421 H2409 0.930 . S
C2421 C2422 1.399 . S
C2421 C2426 1.399 . S
C2422 C2421 1.399 . S
C2422 C2423 1.376 . S
C2423 H2410 0.930 . S
C2423 C2422 1.376 . S
C2423 C2424 1.388 . S
C2424 H2411 0.930 . S
C2424 C2423 1.388 . S
C2424 C2425 1.390 . S
C2425 C2424 1.390 . S
C2425 C2426 1.394 . S
C2425 C2431 1.465 . S
C2426 C2421 1.399 . S
C2426 C2425 1.394 . S
C2426 C2427 1.516 . S
C2427 C2426 1.516 . S
C2427 C2428 1.502 . S
C2427 C2429 1.561 . S
C2427 C2430 1.526 . S
C2428 H2412 0.959 . S
C2428 H2413 0.959 . S
C2428 H2414 0.961 . S
C2428 C2427 1.502 . S
C2429 H2415 0.960 . S
C2429 H2416 0.961 . S
C2429 H2417 0.959 . S
C2429 C2427 1.561 . S
C2430 C2427 1.526 . S
C2430 C2431 1.396 . S
C2430 C2435 1.390 . S
C2431 C2425 1.465 . S
C2431 C2430 1.396 . S
C2431 C2432 1.399 . S
C2432 H2418 0.929 . S
C2432 C2431 1.399 . S
C2432 C2433 1.385 . S
C2433 H2419 0.931 . S
C2433 C2432 1.385 . S
C2433 C2434 1.389 . S
C2434 C2433 1.389 . S
C2434 C2435 1.387 . S
C2435 H2420 0.930 . S
C2435 C2430 1.390 . S
C2435 C2434 1.387 . S
H2436 C2448 0.930 . S
H2437 C2450 0.930 . S
H2438 C2451 0.930 . S
H2439 C2455 0.959 . S
H2440 C2455 0.959 . S
H2441 C2455 0.961 . S
H2442 C2456 0.960 . S
H2443 C2456 0.941 1_655 S
H2444 C2456 0.959 . S
H2445 C2459 0.929 . S
H2446 C2460 0.931 . S
H2447 C2462 0.930 . S
C2448 H2436 0.930 . S
C2448 C2449 1.399 . S
C2448 C2453 1.399 . S
C2449 C2448 1.399 . S
C2449 C2450 1.376 . S
C2450 H2437 0.930 . S
C2450 C2449 1.376 . S
C2450 C2451 1.388 . S
C2451 H2438 0.930 . S
C2451 C2450 1.388 . S
C2451 C2452 1.390 . S
C2452 C2451 1.390 . S
C2452 C2453 1.394 . S
C2452 C2458 1.465 . S
C2453 C2448 1.399 . S
C2453 C2452 1.394 . S
C2453 C2454 1.516 . S
C2454 C2453 1.516 . S
C2454 C2455 1.502 1_455 S
C2454 C2456 1.561 . S
C2454 C2457 1.526 . S
C2455 H2439 0.959 . S
C2455 H2440 0.959 . S
C2455 H2441 0.961 . S
C2455 C2454 1.502 1_655 S
C2456 H2442 0.960 . S
C2456 H2443 0.941 1_455 S
C2456 H2444 0.959 . S
C2456 C2454 1.561 . S
C2457 C2454 1.526 . S
C2457 C2458 1.396 . S
C2457 C2462 1.390 . S
C2458 C2452 1.465 . S
C2458 C2457 1.396 . S
C2458 C2459 1.399 . S
C2459 H2445 0.929 . S
C2459 C2458 1.399 . S
C2459 C2460 1.385 . S
C2460 H2446 0.931 . S
C2460 C2459 1.385 . S
C2460 C2461 1.389 . S
C2461 C2460 1.389 . S
C2461 C2462 1.387 . S
C2462 H2447 0.930 . S
C2462 C2457 1.390 . S
C2462 C2461 1.387 . S
H2463 C2475 0.930 . S
H2464 C2477 0.930 . S
H2465 C2478 0.930 . S
H2466 C2482 0.959 . S
H2467 C2482 0.959 . S
H2468 C2482 0.961 . S
H2469 C2483 0.960 . S
H2470 C2483 0.961 . S
H2471 C2483 0.959 . S
H2472 C2486 0.929 . S
H2473 C2487 0.931 . S
H2474 C2489 0.930 . S
C2475 H2463 0.930 . S
C2475 C2476 1.399 . S
C2475 C2480 1.399 . S
C2476 C2475 1.399 . S
C2476 C2477 1.376 . S
C2477 H2464 0.930 . S
C2477 C2476 1.376 . S
C2477 C2478 1.388 . S
C2478 H2465 0.930 . S
C2478 C2477 1.388 . S
C2478 C2479 1.390 . S
C2479 C2478 1.390 . S
C2479 C2480 1.394 . S
C2479 C2485 1.465 . S
C2480 C2475 1.399 . S
C2480 C2479 1.394 . S
C2480 C2481 1.516 . S
C2481 C2480 1.516 . S
C2481 C2482 1.502 . S
C2481 C2483 1.561 . S
C2481 C2484 1.526 . S
C2482 H2466 0.959 . S
C2482 H2467 0.959 . S
C2482 H2468 0.961 . S
C2482 C2481 1.502 . S
C2483 H2469 0.960 . S
C2483 H2470 0.961 . S
C2483 H2471 0.959 . S
C2483 C2481 1.561 . S
C2484 C2481 1.526 . S
C2484 C2485 1.396 . S
C2484 C2489 1.390 . S
C2485 C2479 1.465 . S
C2485 C2484 1.396 . S
C2485 C2486 1.399 . S
C2486 H2472 0.929 . S
C2486 C2485 1.399 . S
C2486 C2487 1.385 . S
C2487 H2473 0.931 . S
C2487 C2486 1.385 . S
C2487 C2488 1.389 . S
C2488 C2487 1.389 . S
C2488 C2489 1.387 . S
C2489 H2474 0.930 . S
C2489 C2484 1.390 . S
C2489 C2488 1.387 . S
H2490 C2502 0.930 . S
H2491 C2504 0.930 . S
H2492 C2505 0.930 . S
H2493 C2509 0.959 . S
H2494 C2509 0.959 . S
H2495 C2509 0.961 . S
H2496 C2510 0.960 . S
H2497 C2510 0.948 1_554 S
H2498 C2510 0.959 . S
H2499 C2513 0.929 . S
H2500 C2514 0.931 . S
H2501 C2516 0.930 . S
C2502 H2490 0.930 . S
C2502 C2503 1.399 . S
C2502 C2507 1.399 . S
C2503 C2502 1.399 . S
C2503 C2504 1.376 . S
C2504 H2491 0.930 . S
C2504 C2503 1.376 . S
C2504 C2505 1.388 . S
C2505 H2492 0.930 . S
C2505 C2504 1.388 . S
C2505 C2506 1.390 . S
C2506 C2505 1.390 . S
C2506 C2507 1.394 . S
C2506 C2512 1.465 . S
C2507 C2502 1.399 . S
C2507 C2506 1.394 . S
C2507 C2508 1.516 . S
C2508 C2507 1.516 . S
C2508 C2509 1.502 . S
C2508 C2510 1.561 . S
C2508 C2511 1.526 . S
C2509 H2493 0.959 . S
C2509 H2494 0.959 . S
C2509 H2495 0.961 . S
C2509 C2508 1.502 . S
C2510 H2496 0.960 . S
C2510 H2497 0.948 1_556 S
C2510 H2498 0.959 . S
C2510 C2508 1.561 . S
C2511 C2508 1.526 . S
C2511 C2512 1.396 . S
C2511 C2516 1.390 . S
C2512 C2506 1.465 . S
C2512 C2511 1.396 . S
C2512 C2513 1.399 . S
C2513 H2499 0.929 . S
C2513 C2512 1.399 . S
C2513 C2514 1.385 . S
C2514 H2500 0.931 . S
C2514 C2513 1.385 . S
C2514 C2515 1.389 . S
C2515 C2514 1.389 . S
C2515 C2516 1.387 . S
C2516 H2501 0.930 . S
C2516 C2511 1.390 . S
C2516 C2515 1.387 . S
H2517 C2529 0.930 . S
H2518 C2531 0.930 . S
H2519 C2532 0.930 . S
H2520 C2536 0.959 . S
H2521 C2536 0.959 . S
H2522 C2536 0.961 . S
H2523 C2537 0.960 . S
H2524 C2537 0.961 . S
H2525 C2537 0.959 . S
H2526 C2540 0.929 . S
H2527 C2541 0.931 . S
H2528 C2543 0.930 . S
C2529 H2517 0.930 . S
C2529 C2530 1.399 . S
C2529 C2534 1.399 . S
C2530 C2529 1.399 . S
C2530 C2531 1.376 . S
C2531 H2518 0.930 . S
C2531 C2530 1.376 . S
C2531 C2532 1.388 . S
C2532 H2519 0.930 . S
C2532 C2531 1.388 . S
C2532 C2533 1.390 . S
C2533 C2532 1.390 . S
C2533 C2534 1.394 . S
C2533 C2539 1.465 . S
C2534 C2529 1.399 . S
C2534 C2533 1.394 . S
C2534 C2535 1.516 . S
C2535 C2534 1.516 . S
C2535 C2536 1.502 . S
C2535 C2537 1.561 . S
C2535 C2538 1.526 . S
C2536 H2520 0.959 . S
C2536 H2521 0.959 . S
C2536 H2522 0.961 . S
C2536 C2535 1.502 . S
C2537 H2523 0.960 . S
C2537 H2524 0.961 . S
C2537 H2525 0.959 . S
C2537 C2535 1.561 . S
C2538 C2535 1.526 . S
C2538 C2539 1.396 . S
C2538 C2543 1.390 . S
C2539 C2533 1.465 . S
C2539 C2538 1.396 . S
C2539 C2540 1.399 . S
C2540 H2526 0.929 . S
C2540 C2539 1.399 . S
C2540 C2541 1.385 . S
C2541 H2527 0.931 . S
C2541 C2540 1.385 . S
C2541 C2542 1.389 . S
C2542 C2541 1.389 . S
C2542 C2543 1.387 . S
C2543 H2528 0.930 . S
C2543 C2538 1.390 . S
C2543 C2542 1.387 . S
H2544 C2556 0.930 . S
H2545 C2558 0.930 . S
H2546 C2559 0.930 . S
H2547 C2563 0.959 . S
H2548 C2563 0.959 1_565 S
H2549 C2563 0.961 . S
H2550 C2564 0.960 . S
H2551 C2564 0.961 . S
H2552 C2564 0.959 . S
H2553 C2567 0.929 . S
H2554 C2568 0.931 . S
H2555 C2570 0.930 . S
C2556 H2544 0.930 . S
C2556 C2557 1.399 . S
C2556 C2561 1.399 . S
C2557 C2556 1.399 . S
C2557 C2558 1.376 . S
C2558 H2545 0.930 . S
C2558 C2557 1.376 . S
C2558 C2559 1.388 . S
C2559 H2546 0.930 . S
C2559 C2558 1.388 . S
C2559 C2560 1.390 . S
C2560 C2559 1.390 . S
C2560 C2561 1.394 . S
C2560 C2566 1.465 . S
C2561 C2556 1.399 . S
C2561 C2560 1.394 . S
C2561 C2562 1.516 . S
C2562 C2561 1.516 . S
C2562 C2563 1.502 . S
C2562 C2564 1.561 1_545 S
C2562 C2565 1.526 . S
C2563 H2547 0.959 . S
C2563 H2548 0.959 1_545 S
C2563 H2549 0.961 . S
C2563 C2562 1.502 . S
C2564 H2550 0.960 . S
C2564 H2551 0.961 . S
C2564 H2552 0.959 . S
C2564 C2562 1.561 1_565 S
C2565 C2562 1.526 . S
C2565 C2566 1.396 . S
C2565 C2570 1.390 . S
C2566 C2560 1.465 . S
C2566 C2565 1.396 . S
C2566 C2567 1.399 . S
C2567 H2553 0.929 . S
C2567 C2566 1.399 . S
C2567 C2568 1.385 . S
C2568 H2554 0.931 . S
C2568 C2567 1.385 . S
C2568 C2569 1.389 . S
C2569 C2568 1.389 . S
C2569 C2570 1.387 . S
C2570 H2555 0.930 . S
C2570 C2565 1.390 . S
C2570 C2569 1.387 . S
H2571 C2583 0.930 . S
H2572 C2585 0.930 . S
H2573 C2586 0.930 . S
H2574 C2590 0.959 . S
H2575 C2590 0.959 . S
H2576 C2590 0.961 . S
H2577 C2591 0.960 . S
H2578 C2591 0.961 . S
H2579 C2591 0.959 . S
H2580 C2594 0.929 . S
H2581 C2595 0.931 . S
H2582 C2597 0.930 . S
C2583 H2571 0.930 . S
C2583 C2584 1.399 . S
C2583 C2588 1.399 . S
C2584 C2583 1.399 . S
C2584 C2585 1.376 . S
C2585 H2572 0.930 . S
C2585 C2584 1.376 . S
C2585 C2586 1.388 . S
C2586 H2573 0.930 . S
C2586 C2585 1.388 . S
C2586 C2587 1.390 . S
C2587 C2586 1.390 . S
C2587 C2588 1.394 . S
C2587 C2593 1.465 . S
C2588 C2583 1.399 . S
C2588 C2587 1.394 . S
C2588 C2589 1.516 . S
C2589 C2588 1.516 . S
C2589 C2590 1.502 . S
C2589 C2591 1.561 . S
C2589 C2592 1.526 . S
C2590 H2574 0.959 . S
C2590 H2575 0.959 . S
C2590 H2576 0.961 . S
C2590 C2589 1.502 . S
C2591 H2577 0.960 . S
C2591 H2578 0.961 . S
C2591 H2579 0.959 . S
C2591 C2589 1.561 . S
C2592 C2589 1.526 . S
C2592 C2593 1.396 . S
C2592 C2597 1.390 . S
C2593 C2587 1.465 . S
C2593 C2592 1.396 . S
C2593 C2594 1.399 . S
C2594 H2580 0.929 . S
C2594 C2593 1.399 . S
C2594 C2595 1.385 . S
C2595 H2581 0.931 . S
C2595 C2594 1.385 . S
C2595 C2596 1.389 . S
C2596 C2595 1.389 . S
C2596 C2597 1.387 . S
C2597 H2582 0.930 . S
C2597 C2592 1.390 . S
C2597 C2596 1.387 . S
H2598 C2610 0.930 . S
H2599 C2612 0.930 . S
H2600 C2613 0.930 . S
H2601 C2617 0.959 . S
H2602 C2617 0.959 . S
H2603 C2617 0.961 . S
H2604 C2618 0.960 . S
H2605 C2618 0.961 . S
H2606 C2618 0.959 . S
H2607 C2621 0.929 . S
H2608 C2622 0.929 1_565 S
H2609 C2624 0.930 . S
C2610 H2598 0.930 . S
C2610 C2611 1.399 . S
C2610 C2615 1.399 . S
C2611 C2610 1.399 . S
C2611 C2612 1.376 1_545 S
C2612 H2599 0.930 . S
C2612 C2611 1.376 1_565 S
C2612 C2613 1.388 . S
C2613 H2600 0.930 . S
C2613 C2612 1.388 . S
C2613 C2614 1.390 1_565 S
C2614 C2613 1.390 1_545 S
C2614 C2615 1.394 . S
C2614 C2620 1.465 . S
C2615 C2610 1.399 . S
C2615 C2614 1.394 . S
C2615 C2616 1.516 . S
C2616 C2615 1.516 . S
C2616 C2617 1.502 . S
C2616 C2618 1.561 . S
C2616 C2619 1.526 . S
C2617 H2601 0.959 . S
C2617 H2602 0.959 . S
C2617 H2603 0.961 . S
C2617 C2616 1.502 . S
C2618 H2604 0.960 . S
C2618 H2605 0.961 . S
C2618 H2606 0.959 . S
C2618 C2616 1.561 . S
C2619 C2616 1.526 . S
C2619 C2620 1.396 . S
C2619 C2624 1.390 . S
C2620 C2614 1.465 . S
C2620 C2619 1.396 . S
C2620 C2621 1.399 1_545 S
C2621 H2607 0.929 . S
C2621 C2620 1.399 1_565 S
C2621 C2622 1.385 1_565 S
C2622 H2608 0.929 1_545 S
C2622 C2621 1.385 1_545 S
C2622 C2623 1.391 . S
C2623 C2622 1.391 . S
C2623 C2624 1.387 . S
C2624 H2609 0.930 . S
C2624 C2619 1.390 . S
C2624 C2623 1.387 . S
H2625 C2637 0.930 . S
H2626 C2639 0.930 . S
H2627 C2640 0.930 . S
H2628 C2644 0.959 . S
H2629 C2644 0.959 . S
H2630 C2644 0.961 . S
H2631 C2645 0.960 . S
H2632 C2645 0.961 . S
H2633 C2645 0.959 . S
H2634 C2648 0.929 . S
H2635 C2649 0.931 . S
H2636 C2651 0.930 . S
C2637 H2625 0.930 . S
C2637 C2638 1.399 . S
C2637 C2642 1.399 . S
C2638 C2637 1.399 . S
C2638 C2639 1.376 . S
C2639 H2626 0.930 . S
C2639 C2638 1.376 . S
C2639 C2640 1.388 . S
C2640 H2627 0.930 . S
C2640 C2639 1.388 . S
C2640 C2641 1.390 . S
C2641 C2640 1.390 . S
C2641 C2642 1.394 . S
C2641 C2647 1.465 . S
C2642 C2637 1.399 . S
C2642 C2641 1.394 . S
C2642 C2643 1.516 . S
C2643 C2642 1.516 . S
C2643 C2644 1.502 . S
C2643 C2645 1.561 . S
C2643 C2646 1.526 . S
C2644 H2628 0.959 . S
C2644 H2629 0.959 . S
C2644 H2630 0.961 . S
C2644 C2643 1.502 . S
C2645 H2631 0.960 . S
C2645 H2632 0.961 . S
C2645 H2633 0.959 . S
C2645 C2643 1.561 . S
C2646 C2643 1.526 . S
C2646 C2647 1.396 . S
C2646 C2651 1.390 . S
C2647 C2641 1.465 . S
C2647 C2646 1.396 . S
C2647 C2648 1.399 . S
C2648 H2634 0.929 . S
C2648 C2647 1.399 . S
C2648 C2649 1.385 . S
C2649 H2635 0.931 . S
C2649 C2648 1.385 . S
C2649 C2650 1.389 . S
C2650 C2649 1.389 . S
C2650 C2651 1.387 . S
C2651 H2636 0.930 . S
C2651 C2646 1.390 . S
C2651 C2650 1.387 . S
H2652 C2664 0.930 . S
H2653 C2666 0.930 . S
H2654 C2667 0.930 1_565 S
H2655 C2671 0.959 . S
H2656 C2671 0.959 . S
H2657 C2671 0.961 . S
H2658 C2672 0.960 . S
H2659 C2672 0.961 . S
H2660 C2672 0.959 . S
H2661 C2675 0.929 1_565 S
H2662 C2676 0.946 . S
H2663 C2678 0.930 . S
C2664 H2652 0.930 . S
C2664 C2665 1.399 . S
C2664 C2669 1.399 . S
C2665 C2664 1.399 . S
C2665 C2666 1.376 . S
C2666 H2653 0.930 . S
C2666 C2665 1.376 . S
C2666 C2667 1.388 . S
C2667 H2654 0.930 1_545 S
C2667 C2666 1.388 . S
C2667 C2668 1.390 . S
C2668 C2667 1.390 . S
C2668 C2669 1.394 . S
C2668 C2674 1.465 . S
C2669 C2664 1.399 . S
C2669 C2668 1.394 . S
C2669 C2670 1.516 . S
C2670 C2669 1.516 . S
C2670 C2671 1.502 . S
C2670 C2672 1.561 . S
C2670 C2673 1.526 . S
C2671 H2655 0.959 . S
C2671 H2656 0.959 . S
C2671 H2657 0.961 . S
C2671 C2670 1.502 . S
C2672 H2658 0.960 . S
C2672 H2659 0.961 . S
C2672 H2660 0.959 . S
C2672 C2670 1.561 . S
C2673 C2670 1.526 . S
C2673 C2674 1.396 . S
C2673 C2678 1.390 . S
C2674 C2668 1.465 . S
C2674 C2673 1.396 . S
C2674 C2675 1.399 . S
C2675 H2661 0.929 1_545 S
C2675 C2674 1.399 . S
C2675 C2676 1.385 . S
C2676 H2662 0.946 . S
C2676 C2675 1.385 . S
C2676 C2677 1.389 . S
C2677 C2676 1.389 . S
C2677 C2678 1.387 . S
C2678 H2663 0.930 . S
C2678 C2673 1.390 . S
C2678 C2677 1.387 . S
H2679 C2691 0.930 . S
H2680 C2693 0.930 . S
H2681 C2694 0.930 . S
H2682 C2698 0.959 . S
H2683 C2698 0.959 . S
H2684 C2698 0.961 . S
H2685 C2699 0.960 . S
H2686 C2699 0.961 . S
H2687 C2699 0.959 . S
H2688 C2702 0.929 . S
H2689 C2703 0.931 . S
H2690 C2705 0.930 . S
C2691 H2679 0.930 . S
C2691 C2692 1.399 . S
C2691 C2696 1.399 . S
C2692 C2691 1.399 . S
C2692 C2693 1.376 . S
C2693 H2680 0.930 . S
C2693 C2692 1.376 . S
C2693 C2694 1.388 . S
C2694 H2681 0.930 . S
C2694 C2693 1.388 . S
C2694 C2695 1.390 . S
C2695 C2694 1.390 . S
C2695 C2696 1.394 . S
C2695 C2701 1.465 . S
C2696 C2691 1.399 . S
C2696 C2695 1.394 . S
C2696 C2697 1.516 . S
C2697 C2696 1.516 . S
C2697 C2698 1.502 . S
C2697 C2699 1.561 . S
C2697 C2700 1.526 . S
C2698 H2682 0.959 . S
C2698 H2683 0.959 . S
C2698 H2684 0.961 . S
C2698 C2697 1.502 . S
C2699 H2685 0.960 . S
C2699 H2686 0.961 . S
C2699 H2687 0.959 . S
C2699 C2697 1.561 . S
C2700 C2697 1.526 . S
C2700 C2701 1.396 . S
C2700 C2705 1.390 . S
C2701 C2695 1.465 . S
C2701 C2700 1.396 . S
C2701 C2702 1.399 . S
C2702 H2688 0.929 . S
C2702 C2701 1.399 . S
C2702 C2703 1.385 . S
C2703 H2689 0.931 . S
C2703 C2702 1.385 . S
C2703 C2704 1.389 . S
C2704 C2703 1.389 . S
C2704 C2705 1.387 . S
C2705 H2690 0.930 . S
C2705 C2700 1.390 . S
C2705 C2704 1.387 . S
H2706 C2718 0.930 . S
H2707 C2720 0.930 . S
H2708 C2721 0.930 . S
H2709 C2725 0.959 . S
H2710 C2725 0.959 . S
H2711 C2725 0.961 . S
H2712 C2726 0.960 . S
H2713 C2726 0.961 . S
H2714 C2726 0.959 . S
H2715 C2729 0.929 . S
H2716 C2730 0.931 . S
H2717 C2732 0.930 . S
C2718 H2706 0.930 . S
C2718 C2719 1.399 . S
C2718 C2723 1.399 . S
C2719 C2718 1.399 . S
C2719 C2720 1.376 1_545 S
C2720 H2707 0.930 . S
C2720 C2719 1.376 1_565 S
C2720 C2721 1.388 . S
C2721 H2708 0.930 . S
C2721 C2720 1.388 . S
C2721 C2722 1.390 . S
C2722 C2721 1.390 . S
C2722 C2723 1.394 1_565 S
C2722 C2728 1.467 . S
C2723 C2718 1.399 . S
C2723 C2722 1.394 1_545 S
C2723 C2724 1.516 . S
C2724 C2723 1.516 . S
C2724 C2725 1.502 . S
C2724 C2726 1.561 . S
C2724 C2727 1.526 . S
C2725 H2709 0.959 . S
C2725 H2710 0.959 . S
C2725 H2711 0.961 . S
C2725 C2724 1.502 . S
C2726 H2712 0.960 . S
C2726 H2713 0.961 . S
C2726 H2714 0.959 . S
C2726 C2724 1.561 . S
C2727 C2724 1.526 . S
C2727 C2728 1.368 1_545 S
C2727 C2732 1.390 . S
C2728 C2722 1.467 . S
C2728 C2727 1.368 1_565 S
C2728 C2729 1.419 . S
C2729 H2715 0.929 . S
C2729 C2728 1.419 . S
C2729 C2730 1.385 . S
C2730 H2716 0.931 . S
C2730 C2729 1.385 . S
C2730 C2731 1.389 1_565 S
C2731 C2730 1.389 1_545 S
C2731 C2732 1.387 . S
C2732 H2717 0.930 . S
C2732 C2727 1.390 . S
C2732 C2731 1.387 . S
H2733 C2745 0.930 . S
H2734 C2747 0.930 . S
H2735 C2748 0.930 . S
H2736 C2752 0.959 . S
H2737 C2752 0.959 . S
H2738 C2752 0.961 . S
H2739 C2753 0.960 . S
H2740 C2753 0.961 . S
H2741 C2753 0.959 . S
H2742 C2756 0.929 . S
H2743 C2757 0.931 . S
H2744 C2759 0.930 . S
C2745 H2733 0.930 . S
C2745 C2746 1.399 . S
C2745 C2750 1.399 . S
C2746 C2745 1.399 . S
C2746 C2747 1.376 . S
C2747 H2734 0.930 . S
C2747 C2746 1.376 . S
C2747 C2748 1.388 . S
C2748 H2735 0.930 . S
C2748 C2747 1.388 . S
C2748 C2749 1.390 . S
C2749 C2748 1.390 . S
C2749 C2750 1.394 . S
C2749 C2755 1.465 . S
C2750 C2745 1.399 . S
C2750 C2749 1.394 . S
C2750 C2751 1.516 . S
C2751 C2750 1.516 . S
C2751 C2752 1.502 . S
C2751 C2753 1.561 . S
C2751 C2754 1.526 . S
C2752 H2736 0.959 . S
C2752 H2737 0.959 . S
C2752 H2738 0.961 . S
C2752 C2751 1.502 . S
C2753 H2739 0.960 . S
C2753 H2740 0.961 . S
C2753 H2741 0.959 . S
C2753 C2751 1.561 . S
C2754 C2751 1.526 . S
C2754 C2755 1.396 . S
C2754 C2759 1.390 . S
C2755 C2749 1.465 . S
C2755 C2754 1.396 . S
C2755 C2756 1.399 . S
C2756 H2742 0.929 . S
C2756 C2755 1.399 . S
C2756 C2757 1.385 . S
C2757 H2743 0.931 . S
C2757 C2756 1.385 . S
C2757 C2758 1.389 . S
C2758 C2757 1.389 . S
C2758 C2759 1.387 . S
C2759 H2744 0.930 . S
C2759 C2754 1.390 . S
C2759 C2758 1.387 . S
H2760 C2772 0.930 . S
H2761 C2774 0.930 . S
H2762 C2775 0.930 . S
H2763 C2779 0.970 . S
H2764 C2779 0.959 . S
H2765 C2779 0.961 . S
H2766 C2780 0.960 . S
H2767 C2780 0.961 . S
H2768 C2780 0.959 . S
H2769 C2783 0.929 . S
H2770 C2784 0.931 . S
H2771 C2786 0.930 . S
C2772 H2760 0.930 . S
C2772 C2773 1.399 . S
C2772 C2777 1.399 . S
C2773 C2772 1.399 . S
C2773 C2774 1.376 . S
C2774 H2761 0.930 . S
C2774 C2773 1.376 . S
C2774 C2775 1.388 . S
C2775 H2762 0.930 . S
C2775 C2774 1.388 . S
C2775 C2776 1.390 . S
C2776 C2775 1.390 . S
C2776 C2777 1.394 . S
C2776 C2782 1.465 . S
C2777 C2772 1.399 . S
C2777 C2776 1.394 . S
C2777 C2778 1.516 . S
C2778 C2777 1.516 . S
C2778 C2779 1.502 . S
C2778 C2780 1.561 . S
C2778 C2781 1.526 . S
C2779 H2763 0.970 . S
C2779 H2764 0.959 . S
C2779 H2765 0.961 . S
C2779 C2778 1.502 . S
C2780 H2766 0.960 . S
C2780 H2767 0.961 . S
C2780 H2768 0.959 . S
C2780 C2778 1.561 . S
C2781 C2778 1.526 . S
C2781 C2782 1.396 . S
C2781 C2786 1.390 . S
C2782 C2776 1.465 . S
C2782 C2781 1.396 . S
C2782 C2783 1.399 . S
C2783 H2769 0.929 . S
C2783 C2782 1.399 . S
C2783 C2784 1.385 . S
C2784 H2770 0.931 . S
C2784 C2783 1.385 . S
C2784 C2785 1.389 . S
C2785 C2784 1.389 . S
C2785 C2786 1.387 . S
C2786 H2771 0.930 . S
C2786 C2781 1.390 . S
C2786 C2785 1.387 . S
H2787 C2799 0.930 . S
H2788 C2801 0.930 . S
H2789 C2802 0.930 . S
H2790 C2806 0.959 1_554 S
H2791 C2806 0.959 . S
H2792 C2806 0.961 . S
H2793 C2807 0.960 . S
H2794 C2807 0.961 . S
H2795 C2807 0.963 . S
H2796 C2810 0.929 . S
H2797 C2811 0.931 . S
H2798 C2813 0.930 . S
C2799 H2787 0.930 . S
C2799 C2800 1.399 . S
C2799 C2804 1.399 . S
C2800 C2799 1.399 . S
C2800 C2801 1.376 . S
C2801 H2788 0.930 . S
C2801 C2800 1.376 . S
C2801 C2802 1.388 . S
C2802 H2789 0.930 . S
C2802 C2801 1.388 . S
C2802 C2803 1.390 . S
C2803 C2802 1.390 . S
C2803 C2804 1.394 . S
C2803 C2809 1.465 . S
C2804 C2799 1.399 . S
C2804 C2803 1.394 . S
C2804 C2805 1.516 . S
C2805 C2804 1.516 . S
C2805 C2806 1.502 1_554 S
C2805 C2807 1.561 1_554 S
C2805 C2808 1.526 . S
C2806 H2790 0.959 1_556 S
C2806 H2791 0.959 . S
C2806 H2792 0.961 . S
C2806 C2805 1.502 1_556 S
C2807 H2793 0.960 . S
C2807 H2794 0.961 . S
C2807 H2795 0.963 . S
C2807 C2805 1.561 1_556 S
C2808 C2805 1.526 . S
C2808 C2809 1.396 . S
C2808 C2813 1.390 . S
C2809 C2803 1.465 . S
C2809 C2808 1.396 . S
C2809 C2810 1.399 . S
C2810 H2796 0.929 . S
C2810 C2809 1.399 . S
C2810 C2811 1.385 . S
C2811 H2797 0.931 . S
C2811 C2810 1.385 . S
C2811 C2812 1.389 . S
C2812 C2811 1.389 . S
C2812 C2813 1.387 . S
C2813 H2798 0.930 . S
C2813 C2808 1.390 . S
C2813 C2812 1.387 . S
H2814 C2826 0.930 . S
H2815 C2828 0.930 . S
H2816 C2829 0.930 . S
H2817 C2833 0.959 . S
H2818 C2833 0.959 . S
H2819 C2833 0.961 . S
H2820 C2834 0.960 . S
H2821 C2834 0.961 . S
H2822 C2834 0.959 . S
H2823 C2837 0.929 . S
H2824 C2838 0.931 . S
H2825 C2840 0.930 . S
C2826 H2814 0.930 . S
C2826 C2827 1.399 . S
C2826 C2831 1.399 . S
C2827 C2826 1.399 . S
C2827 C2828 1.376 . S
C2828 H2815 0.930 . S
C2828 C2827 1.376 . S
C2828 C2829 1.388 . S
C2829 H2816 0.930 . S
C2829 C2828 1.388 . S
C2829 C2830 1.390 . S
C2830 C2829 1.390 . S
C2830 C2831 1.394 . S
C2830 C2836 1.465 . S
C2831 C2826 1.399 . S
C2831 C2830 1.394 . S
C2831 C2832 1.516 . S
C2832 C2831 1.516 . S
C2832 C2833 1.502 . S
C2832 C2834 1.561 . S
C2832 C2835 1.526 . S
C2833 H2817 0.959 . S
C2833 H2818 0.959 . S
C2833 H2819 0.961 . S
C2833 C2832 1.502 . S
C2834 H2820 0.960 . S
C2834 H2821 0.961 . S
C2834 H2822 0.959 . S
C2834 C2832 1.561 . S
C2835 C2832 1.526 . S
C2835 C2836 1.396 . S
C2835 C2840 1.390 . S
C2836 C2830 1.465 . S
C2836 C2835 1.396 . S
C2836 C2837 1.399 . S
C2837 H2823 0.929 . S
C2837 C2836 1.399 . S
C2837 C2838 1.385 . S
C2838 H2824 0.931 . S
C2838 C2837 1.385 . S
C2838 C2839 1.389 . S
C2839 C2838 1.389 . S
C2839 C2840 1.387 . S
C2840 H2825 0.930 . S
C2840 C2835 1.390 . S
C2840 C2839 1.387 . S
H2841 C2853 0.930 . S
H2842 C2855 0.930 . S
H2843 C2856 0.930 . S
H2844 C2860 0.959 . S
H2845 C2860 0.959 . S
H2846 C2860 0.961 . S
H2847 C2861 0.960 . S
H2848 C2861 0.961 . S
H2849 C2861 0.959 . S
H2850 C2864 0.929 . S
H2851 C2865 0.931 . S
H2852 C2867 0.930 . S
C2853 H2841 0.930 . S
C2853 C2854 1.399 . S
C2853 C2858 1.399 . S
C2854 C2853 1.399 . S
C2854 C2855 1.376 . S
C2855 H2842 0.930 . S
C2855 C2854 1.376 . S
C2855 C2856 1.388 . S
C2856 H2843 0.930 . S
C2856 C2855 1.388 . S
C2856 C2857 1.390 . S
C2857 C2856 1.390 . S
C2857 C2858 1.394 . S
C2857 C2863 1.465 . S
C2858 C2853 1.399 . S
C2858 C2857 1.394 . S
C2858 C2859 1.516 . S
C2859 C2858 1.516 . S
C2859 C2860 1.502 . S
C2859 C2861 1.561 . S
C2859 C2862 1.526 . S
C2860 H2844 0.959 . S
C2860 H2845 0.959 . S
C2860 H2846 0.961 . S
C2860 C2859 1.502 . S
C2861 H2847 0.960 . S
C2861 H2848 0.961 . S
C2861 H2849 0.959 . S
C2861 C2859 1.561 . S
C2862 C2859 1.526 . S
C2862 C2863 1.396 . S
C2862 C2867 1.390 . S
C2863 C2857 1.465 . S
C2863 C2862 1.396 . S
C2863 C2864 1.399 . S
C2864 H2850 0.929 . S
C2864 C2863 1.399 . S
C2864 C2865 1.385 . S
C2865 H2851 0.931 . S
C2865 C2864 1.385 . S
C2865 C2866 1.389 . S
C2866 C2865 1.389 . S
C2866 C2867 1.387 . S
C2867 H2852 0.930 . S
C2867 C2862 1.390 . S
C2867 C2866 1.387 . S
H2868 C2880 0.946 . S
H2869 C2882 0.930 . S
H2870 C2883 0.930 . S
H2871 C2887 0.959 . S
H2872 C2887 0.959 . S
H2873 C2887 0.961 1_545 S
H2874 C2888 0.960 . S
H2875 C2888 0.961 . S
H2876 C2888 0.959 . S
H2877 C2891 0.929 . S
H2878 C2892 0.931 . S
H2879 C2894 0.930 . S
C2880 H2868 0.946 . S
C2880 C2881 1.407 . S
C2880 C2885 1.375 1_545 S
C2881 C2880 1.407 . S
C2881 C2882 1.376 1_545 S
C2882 H2869 0.930 . S
C2882 C2881 1.376 1_565 S
C2882 C2883 1.388 . S
C2883 H2870 0.930 . S
C2883 C2882 1.388 . S
C2883 C2884 1.390 . S
C2884 C2883 1.390 . S
C2884 C2885 1.394 . S
C2884 C2890 1.465 . S
C2885 C2880 1.375 1_565 S
C2885 C2884 1.394 . S
C2885 C2886 1.516 . S
C2886 C2885 1.516 . S
C2886 C2887 1.502 . S
C2886 C2888 1.561 . S
C2886 C2889 1.526 . S
C2887 H2871 0.959 . S
C2887 H2872 0.959 . S
C2887 H2873 0.961 1_565 S
C2887 C2886 1.502 . S
C2888 H2874 0.960 . S
C2888 H2875 0.961 . S
C2888 H2876 0.959 . S
C2888 C2886 1.561 . S
C2889 C2886 1.526 . S
C2889 C2890 1.396 . S
C2889 C2894 1.390 . S
C2890 C2884 1.465 . S
C2890 C2889 1.396 . S
C2890 C2891 1.399 . S
C2891 H2877 0.929 . S
C2891 C2890 1.399 . S
C2891 C2892 1.385 . S
C2892 H2878 0.931 . S
C2892 C2891 1.385 . S
C2892 C2893 1.389 . S
C2893 C2892 1.389 . S
C2893 C2894 1.387 . S
C2894 H2879 0.930 . S
C2894 C2889 1.390 . S
C2894 C2893 1.387 . S
H2895 C2907 0.930 . S
H2896 C2909 0.930 . S
H2897 C2910 0.930 . S
H2898 C2914 0.959 . S
H2899 C2914 0.959 . S
H2900 C2914 0.961 . S
H2901 C2915 0.960 . S
H2902 C2915 0.961 . S
H2903 C2915 0.959 . S
H2904 C2918 0.929 . S
H2905 C2919 0.931 . S
H2906 C2921 0.930 . S
C2907 H2895 0.930 . S
C2907 C2908 1.399 . S
C2907 C2912 1.399 . S
C2908 C2907 1.399 . S
C2908 C2909 1.376 . S
C2909 H2896 0.930 . S
C2909 C2908 1.376 . S
C2909 C2910 1.388 . S
C2910 H2897 0.930 . S
C2910 C2909 1.388 . S
C2910 C2911 1.390 . S
C2911 C2910 1.390 . S
C2911 C2912 1.394 . S
C2911 C2917 1.465 . S
C2912 C2907 1.399 . S
C2912 C2911 1.394 . S
C2912 C2913 1.516 . S
C2913 C2912 1.516 . S
C2913 C2914 1.502 . S
C2913 C2915 1.561 . S
C2913 C2916 1.526 . S
C2914 H2898 0.959 . S
C2914 H2899 0.959 . S
C2914 H2900 0.961 . S
C2914 C2913 1.502 . S
C2915 H2901 0.960 . S
C2915 H2902 0.961 . S
C2915 H2903 0.959 . S
C2915 C2913 1.561 . S
C2916 C2913 1.526 . S
C2916 C2917 1.396 . S
C2916 C2921 1.390 . S
C2917 C2911 1.465 . S
C2917 C2916 1.396 . S
C2917 C2918 1.399 . S
C2918 H2904 0.929 . S
C2918 C2917 1.399 . S
C2918 C2919 1.385 . S
C2919 H2905 0.931 . S
C2919 C2918 1.385 . S
C2919 C2920 1.389 . S
C2920 C2919 1.389 . S
C2920 C2921 1.387 . S
C2921 H2906 0.930 . S
C2921 C2916 1.390 . S
C2921 C2920 1.387 . S
H2922 C2934 0.930 . S
H2923 C2936 0.930 . S
H2924 C2937 0.930 . S
H2925 C2941 0.959 . S
H2926 C2941 0.959 . S
H2927 C2941 0.961 . S
H2928 C2942 0.960 . S
H2929 C2942 0.961 . S
H2930 C2942 0.959 . S
H2931 C2945 0.929 . S
H2932 C2946 0.931 . S
H2933 C2948 0.930 . S
C2934 H2922 0.930 . S
C2934 C2935 1.399 . S
C2934 C2939 1.399 . S
C2935 C2934 1.399 . S
C2935 C2936 1.376 . S
C2936 H2923 0.930 . S
C2936 C2935 1.376 . S
C2936 C2937 1.388 . S
C2937 H2924 0.930 . S
C2937 C2936 1.388 . S
C2937 C2938 1.390 . S
C2938 C2937 1.390 . S
C2938 C2939 1.394 . S
C2938 C2944 1.465 . S
C2939 C2934 1.399 . S
C2939 C2938 1.394 . S
C2939 C2940 1.516 . S
C2940 C2939 1.516 . S
C2940 C2941 1.502 . S
C2940 C2942 1.561 . S
C2940 C2943 1.526 . S
C2941 H2925 0.959 . S
C2941 H2926 0.959 . S
C2941 H2927 0.961 . S
C2941 C2940 1.502 . S
C2942 H2928 0.960 . S
C2942 H2929 0.961 . S
C2942 H2930 0.959 . S
C2942 C2940 1.561 . S
C2943 C2940 1.526 . S
C2943 C2944 1.396 . S
C2943 C2948 1.390 . S
C2944 C2938 1.465 . S
C2944 C2943 1.396 . S
C2944 C2945 1.399 . S
C2945 H2931 0.929 . S
C2945 C2944 1.399 . S
C2945 C2946 1.385 . S
C2946 H2932 0.931 . S
C2946 C2945 1.385 . S
C2946 C2947 1.389 . S
C2947 C2946 1.389 . S
C2947 C2948 1.387 . S
C2948 H2933 0.930 . S
C2948 C2943 1.390 . S
C2948 C2947 1.387 . S
H2949 C2961 0.930 . S
H2950 C2963 0.930 . S
H2951 C2964 0.930 . S
H2952 C2968 0.959 . S
H2953 C2968 0.959 . S
H2954 C2968 0.961 . S
H2955 C2969 0.960 . S
H2956 C2969 0.961 . S
H2957 C2969 0.959 . S
H2958 C2972 0.929 . S
H2959 C2973 0.931 . S
H2960 C2975 0.930 . S
C2961 H2949 0.930 . S
C2961 C2962 1.399 . S
C2961 C2966 1.399 . S
C2962 C2961 1.399 . S
C2962 C2963 1.376 . S
C2963 H2950 0.930 . S
C2963 C2962 1.376 . S
C2963 C2964 1.388 . S
C2964 H2951 0.930 . S
C2964 C2963 1.388 . S
C2964 C2965 1.390 . S
C2965 C2964 1.390 . S
C2965 C2966 1.394 . S
C2965 C2971 1.465 . S
C2966 C2961 1.399 . S
C2966 C2965 1.394 . S
C2966 C2967 1.516 . S
C2967 C2966 1.516 . S
C2967 C2968 1.502 . S
C2967 C2969 1.561 . S
C2967 C2970 1.526 . S
C2968 H2952 0.959 . S
C2968 H2953 0.959 . S
C2968 H2954 0.961 . S
C2968 C2967 1.502 . S
C2969 H2955 0.960 . S
C2969 H2956 0.961 . S
C2969 H2957 0.959 . S
C2969 C2967 1.561 . S
C2970 C2967 1.526 . S
C2970 C2971 1.396 . S
C2970 C2975 1.390 . S
C2971 C2965 1.465 . S
C2971 C2970 1.396 . S
C2971 C2972 1.399 . S
C2972 H2958 0.929 . S
C2972 C2971 1.399 . S
C2972 C2973 1.385 . S
C2973 H2959 0.931 . S
C2973 C2972 1.385 . S
C2973 C2974 1.389 . S
C2974 C2973 1.389 . S
C2974 C2975 1.387 . S
C2975 H2960 0.930 . S
C2975 C2970 1.390 . S
C2975 C2974 1.387 . S
H2976 C2988 0.930 . S
H2977 C2990 0.930 . S
H2978 C2991 0.930 . S
H2979 C2995 0.959 . S
H2980 C2995 0.959 . S
H2981 C2995 0.961 . S
H2982 C2996 0.960 . S
H2983 C2996 0.961 . S
H2984 C2996 0.959 . S
H2985 C2999 0.929 . S
H2986 C3000 0.931 . S
H2987 C3002 0.930 . S
C2988 H2976 0.930 . S
C2988 C2989 1.399 . S
C2988 C2993 1.399 . S
C2989 C2988 1.399 . S
C2989 C2990 1.376 . S
C2990 H2977 0.930 . S
C2990 C2989 1.376 . S
C2990 C2991 1.388 . S
C2991 H2978 0.930 . S
C2991 C2990 1.388 . S
C2991 C2992 1.390 . S
C2992 C2991 1.390 . S
C2992 C2993 1.394 . S
C2992 C2998 1.465 . S
C2993 C2988 1.399 . S
C2993 C2992 1.394 . S
C2993 C2994 1.516 . S
C2994 C2993 1.516 . S
C2994 C2995 1.502 . S
C2994 C2996 1.561 . S
C2994 C2997 1.526 . S
C2995 H2979 0.959 . S
C2995 H2980 0.959 . S
C2995 H2981 0.961 . S
C2995 C2994 1.502 . S
C2996 H2982 0.960 . S
C2996 H2983 0.961 . S
C2996 H2984 0.959 . S
C2996 C2994 1.561 . S
C2997 C2994 1.526 . S
C2997 C2998 1.396 . S
C2997 C3002 1.390 . S
C2998 C2992 1.465 . S
C2998 C2997 1.396 . S
C2998 C2999 1.399 . S
C2999 H2985 0.929 . S
C2999 C2998 1.399 . S
C2999 C3000 1.385 . S
C3000 H2986 0.931 . S
C3000 C2999 1.385 . S
C3000 C3001 1.389 . S
C3001 C3000 1.389 . S
C3001 C3002 1.387 . S
C3002 H2987 0.930 . S
C3002 C2997 1.390 . S
C3002 C3001 1.387 . S
H3003 C3015 0.930 . S
H3004 C3017 0.930 . S
H3005 C3018 0.930 . S
H3006 C3022 0.959 . S
H3007 C3022 0.959 . S
H3008 C3022 0.961 . S
H3009 C3023 0.960 . S
H3010 C3023 0.961 . S
H3011 C3023 0.959 . S
H3012 C3026 0.929 . S
H3013 C3027 0.931 . S
H3014 C3029 0.930 . S
C3015 H3003 0.930 . S
C3015 C3016 1.399 . S
C3015 C3020 1.399 . S
C3016 C3015 1.399 . S
C3016 C3017 1.376 . S
C3017 H3004 0.930 . S
C3017 C3016 1.376 . S
C3017 C3018 1.388 . S
C3018 H3005 0.930 . S
C3018 C3017 1.388 . S
C3018 C3019 1.390 . S
C3019 C3018 1.390 . S
C3019 C3020 1.394 . S
C3019 C3025 1.465 . S
C3020 C3015 1.399 . S
C3020 C3019 1.394 . S
C3020 C3021 1.516 . S
C3021 C3020 1.516 . S
C3021 C3022 1.502 . S
C3021 C3023 1.561 . S
C3021 C3024 1.526 . S
C3022 H3006 0.959 . S
C3022 H3007 0.959 . S
C3022 H3008 0.961 . S
C3022 C3021 1.502 . S
C3023 H3009 0.960 . S
C3023 H3010 0.961 . S
C3023 H3011 0.959 . S
C3023 C3021 1.561 . S
C3024 C3021 1.526 . S
C3024 C3025 1.396 . S
C3024 C3029 1.390 . S
C3025 C3019 1.465 . S
C3025 C3024 1.396 . S
C3025 C3026 1.399 . S
C3026 H3012 0.929 . S
C3026 C3025 1.399 . S
C3026 C3027 1.385 . S
C3027 H3013 0.931 . S
C3027 C3026 1.385 . S
C3027 C3028 1.389 . S
C3028 C3027 1.389 . S
C3028 C3029 1.387 . S
C3029 H3014 0.930 . S
C3029 C3024 1.390 . S
C3029 C3028 1.387 . S
H3030 C3042 0.930 1_655 S
H3031 C3044 0.930 . S
H3032 C3045 0.930 . S
H3033 C3049 0.959 . S
H3034 C3049 0.959 . S
H3035 C3049 0.961 . S
H3036 C3050 0.960 . S
H3037 C3050 0.961 . S
H3038 C3050 0.959 . S
H3039 C3053 0.929 . S
H3040 C3054 0.931 . S
H3041 C3056 0.930 . S
C3042 H3030 0.930 1_455 S
C3042 C3043 1.399 1_554 S
C3042 C3047 1.399 . S
C3043 C3042 1.399 1_556 S
C3043 C3044 1.376 . S
C3044 H3031 0.930 . S
C3044 C3043 1.376 . S
C3044 C3045 1.388 . S
C3045 H3032 0.930 . S
C3045 C3044 1.388 . S
C3045 C3046 1.390 . S
C3046 C3045 1.390 . S
C3046 C3047 1.394 1_556 S
C3046 C3052 1.465 . S
C3047 C3042 1.399 . S
C3047 C3046 1.394 1_554 S
C3047 C3048 1.516 . S
C3048 C3047 1.516 . S
C3048 C3049 1.502 1_455 S
C3048 C3050 1.561 . S
C3048 C3051 1.526 . S
C3049 H3033 0.959 . S
C3049 H3034 0.959 . S
C3049 H3035 0.961 . S
C3049 C3048 1.502 1_655 S
C3050 H3036 0.960 . S
C3050 H3037 0.961 . S
C3050 H3038 0.959 . S
C3050 C3048 1.561 . S
C3051 C3048 1.526 . S
C3051 C3052 1.396 1_554 S
C3051 C3056 1.390 . S
C3052 C3046 1.465 . S
C3052 C3051 1.396 1_556 S
C3052 C3053 1.399 . S
C3053 H3039 0.929 . S
C3053 C3052 1.399 . S
C3053 C3054 1.385 . S
C3054 H3040 0.931 . S
C3054 C3053 1.385 . S
C3054 C3055 1.389 1_556 S
C3055 C3054 1.389 1_554 S
C3055 C3056 1.387 . S
C3056 H3041 0.930 . S
C3056 C3051 1.390 . S
C3056 C3055 1.387 . S
H3057 C3069 0.916 1_455 S
H3058 C3071 0.930 . S
H3059 C3072 0.930 . S
H3060 C3076 0.959 . S
H3061 C3076 0.959 . S
H3062 C3076 0.961 1_455 S
H3063 C3077 0.960 . S
H3064 C3077 0.961 . S
H3065 C3077 0.959 . S
H3066 C3080 0.929 . S
H3067 C3081 0.931 . S
H3068 C3083 0.930 . S
C3069 H3057 0.916 1_655 S
C3069 C3070 1.387 1_655 S
C3069 C3074 1.425 . S
C3070 C3069 1.387 1_455 S
C3070 C3071 1.376 1_455 S
C3071 H3058 0.930 . S
C3071 C3070 1.376 1_655 S
C3071 C3072 1.388 . S
C3072 H3059 0.930 . S
C3072 C3071 1.388 . S
C3072 C3073 1.390 . S
C3073 C3072 1.390 . S
C3073 C3074 1.394 . S
C3073 C3079 1.465 . S
C3074 C3069 1.425 . S
C3074 C3073 1.394 . S
C3074 C3075 1.516 . S
C3075 C3074 1.516 . S
C3075 C3076 1.502 . S
C3075 C3077 1.561 . S
C3075 C3078 1.526 . S
C3076 H3060 0.959 . S
C3076 H3061 0.959 . S
C3076 H3062 0.961 1_655 S
C3076 C3075 1.502 . S
C3077 H3063 0.960 . S
C3077 H3064 0.961 . S
C3077 H3065 0.959 . S
C3077 C3075 1.561 . S
C3078 C3075 1.526 . S
C3078 C3079 1.396 . S
C3078 C3083 1.390 . S
C3079 C3073 1.465 . S
C3079 C3078 1.396 . S
C3079 C3080 1.399 . S
C3080 H3066 0.929 . S
C3080 C3079 1.399 . S
C3080 C3081 1.385 . S
C3081 H3067 0.931 . S
C3081 C3080 1.385 . S
C3081 C3082 1.389 . S
C3082 C3081 1.389 . S
C3082 C3083 1.387 . S
C3083 H3068 0.930 . S
C3083 C3078 1.390 . S
C3083 C3082 1.387 . S
H3084 C3096 0.930 . S
H3085 C3098 0.930 . S
H3086 C3099 0.930 . S
H3087 C3103 0.959 . S
H3088 C3103 0.959 . S
H3089 C3103 0.961 . S
H3090 C3104 0.960 . S
H3091 C3104 0.961 . S
H3092 C3104 0.959 . S
H3093 C3107 0.929 . S
H3094 C3108 0.931 . S
H3095 C3110 0.930 . S
C3096 H3084 0.930 . S
C3096 C3097 1.399 . S
C3096 C3101 1.399 . S
C3097 C3096 1.399 . S
C3097 C3098 1.376 . S
C3098 H3085 0.930 . S
C3098 C3097 1.376 . S
C3098 C3099 1.388 . S
C3099 H3086 0.930 . S
C3099 C3098 1.388 . S
C3099 C3100 1.390 . S
C3100 C3099 1.390 . S
C3100 C3101 1.394 . S
C3100 C3106 1.465 . S
C3101 C3096 1.399 . S
C3101 C3100 1.394 . S
C3101 C3102 1.516 . S
C3102 C3101 1.516 . S
C3102 C3103 1.502 . S
C3102 C3104 1.561 . S
C3102 C3105 1.526 . S
C3103 H3087 0.959 . S
C3103 H3088 0.959 . S
C3103 H3089 0.961 . S
C3103 C3102 1.502 . S
C3104 H3090 0.960 . S
C3104 H3091 0.961 . S
C3104 H3092 0.959 . S
C3104 C3102 1.561 . S
C3105 C3102 1.526 . S
C3105 C3106 1.396 . S
C3105 C3110 1.390 . S
C3106 C3100 1.465 . S
C3106 C3105 1.396 . S
C3106 C3107 1.399 . S
C3107 H3093 0.929 . S
C3107 C3106 1.399 . S
C3107 C3108 1.385 . S
C3108 H3094 0.931 . S
C3108 C3107 1.385 . S
C3108 C3109 1.389 . S
C3109 C3108 1.389 . S
C3109 C3110 1.387 . S
C3110 H3095 0.930 . S
C3110 C3105 1.390 . S
C3110 C3109 1.387 . S
H3111 C3123 0.930 . S
H3112 C3125 0.930 . S
H3113 C3126 0.930 . S
H3114 C3130 0.959 . S
H3115 C3130 0.959 . S
H3116 C3130 0.961 . S
H3117 C3131 0.960 . S
H3118 C3131 0.961 . S
H3119 C3131 0.959 . S
H3120 C3134 0.929 . S
H3121 C3135 0.931 . S
H3122 C3137 0.930 . S
C3123 H3111 0.930 . S
C3123 C3124 1.399 . S
C3123 C3128 1.399 . S
C3124 C3123 1.399 . S
C3124 C3125 1.376 . S
C3125 H3112 0.930 . S
C3125 C3124 1.376 . S
C3125 C3126 1.388 . S
C3126 H3113 0.930 . S
C3126 C3125 1.388 . S
C3126 C3127 1.390 . S
C3127 C3126 1.390 . S
C3127 C3128 1.394 . S
C3127 C3133 1.465 . S
C3128 C3123 1.399 . S
C3128 C3127 1.394 . S
C3128 C3129 1.516 . S
C3129 C3128 1.516 . S
C3129 C3130 1.502 . S
C3129 C3131 1.561 . S
C3129 C3132 1.526 . S
C3130 H3114 0.959 . S
C3130 H3115 0.959 . S
C3130 H3116 0.961 . S
C3130 C3129 1.502 . S
C3131 H3117 0.960 . S
C3131 H3118 0.961 . S
C3131 H3119 0.959 . S
C3131 C3129 1.561 . S
C3132 C3129 1.526 . S
C3132 C3133 1.396 . S
C3132 C3137 1.390 . S
C3133 C3127 1.465 . S
C3133 C3132 1.396 . S
C3133 C3134 1.399 . S
C3134 H3120 0.929 . S
C3134 C3133 1.399 . S
C3134 C3135 1.385 . S
C3135 H3121 0.931 . S
C3135 C3134 1.385 . S
C3135 C3136 1.389 . S
C3136 C3135 1.389 . S
C3136 C3137 1.387 . S
C3137 H3122 0.930 . S
C3137 C3132 1.390 . S
C3137 C3136 1.387 . S
H3138 C3150 0.930 . S
H3139 C3152 0.930 . S
H3140 C3153 0.930 . S
H3141 C3157 0.959 . S
H3142 C3157 0.959 . S
H3143 C3157 0.961 . S
H3144 C3158 0.960 . S
H3145 C3158 0.961 . S
H3146 C3158 0.959 . S
H3147 C3161 0.929 . S
H3148 C3162 0.931 . S
H3149 C3164 0.930 . S
C3150 H3138 0.930 . S
C3150 C3151 1.399 . S
C3150 C3155 1.399 . S
C3151 C3150 1.399 . S
C3151 C3152 1.376 1_455 S
C3152 H3139 0.930 . S
C3152 C3151 1.376 1_655 S
C3152 C3153 1.388 . S
C3153 H3140 0.930 . S
C3153 C3152 1.388 . S
C3153 C3154 1.390 1_655 S
C3154 C3153 1.390 1_455 S
C3154 C3155 1.394 . S
C3154 C3160 1.465 . S
C3155 C3150 1.399 . S
C3155 C3154 1.394 . S
C3155 C3156 1.516 . S
C3156 C3155 1.516 . S
C3156 C3157 1.502 . S
C3156 C3158 1.561 . S
C3156 C3159 1.526 . S
C3157 H3141 0.959 . S
C3157 H3142 0.959 . S
C3157 H3143 0.961 . S
C3157 C3156 1.502 . S
C3158 H3144 0.960 . S
C3158 H3145 0.961 . S
C3158 H3146 0.959 . S
C3158 C3156 1.561 . S
C3159 C3156 1.526 . S
C3159 C3160 1.396 . S
C3159 C3164 1.390 . S
C3160 C3154 1.465 . S
C3160 C3159 1.396 . S
C3160 C3161 1.399 1_455 S
C3161 H3147 0.929 . S
C3161 C3160 1.399 1_655 S
C3161 C3162 1.385 . S
C3162 H3148 0.931 . S
C3162 C3161 1.385 . S
C3162 C3163 1.389 1_655 S
C3163 C3162 1.389 1_455 S
C3163 C3164 1.387 . S
C3164 H3149 0.930 . S
C3164 C3159 1.390 . S
C3164 C3163 1.387 . S
H3165 C3177 0.930 . S
H3166 C3179 0.930 . S
H3167 C3180 0.930 . S
H3168 C3184 0.959 . S
H3169 C3184 0.959 . S
H3170 C3184 0.961 . S
H3171 C3185 0.960 . S
H3172 C3185 0.961 . S
H3173 C3185 0.959 . S
H3174 C3188 0.929 . S
H3175 C3189 0.931 . S
H3176 C3191 0.930 . S
C3177 H3165 0.930 . S
C3177 C3178 1.399 . S
C3177 C3182 1.399 . S
C3178 C3177 1.399 . S
C3178 C3179 1.376 . S
C3179 H3166 0.930 . S
C3179 C3178 1.376 . S
C3179 C3180 1.388 . S
C3180 H3167 0.930 . S
C3180 C3179 1.388 . S
C3180 C3181 1.390 . S
C3181 C3180 1.390 . S
C3181 C3182 1.394 . S
C3181 C3187 1.465 . S
C3182 C3177 1.399 . S
C3182 C3181 1.394 . S
C3182 C3183 1.516 . S
C3183 C3182 1.516 . S
C3183 C3184 1.502 . S
C3183 C3185 1.561 . S
C3183 C3186 1.526 . S
C3184 H3168 0.959 . S
C3184 H3169 0.959 . S
C3184 H3170 0.961 . S
C3184 C3183 1.502 . S
C3185 H3171 0.960 . S
C3185 H3172 0.961 . S
C3185 H3173 0.959 . S
C3185 C3183 1.561 . S
C3186 C3183 1.526 . S
C3186 C3187 1.396 . S
C3186 C3191 1.390 . S
C3187 C3181 1.465 . S
C3187 C3186 1.396 . S
C3187 C3188 1.399 . S
C3188 H3174 0.929 . S
C3188 C3187 1.399 . S
C3188 C3189 1.385 . S
C3189 H3175 0.931 . S
C3189 C3188 1.385 . S
C3189 C3190 1.389 . S
C3190 C3189 1.389 . S
C3190 C3191 1.387 . S
C3191 H3176 0.930 . S
C3191 C3186 1.390 . S
C3191 C3190 1.387 . S
H3192 C3204 0.930 . S
H3193 C3206 0.930 . S
H3194 C3207 0.930 . S
H3195 C3211 0.959 . S
H3196 C3211 0.959 . S
H3197 C3211 0.961 . S
H3198 C3212 0.960 . S
H3199 C3212 0.961 . S
H3200 C3212 0.959 . S
H3201 C3215 0.929 . S
H3202 C3216 0.931 . S
H3203 C3218 0.930 . S
C3204 H3192 0.930 . S
C3204 C3205 1.399 . S
C3204 C3209 1.399 . S
C3205 C3204 1.399 . S
C3205 C3206 1.376 . S
C3206 H3193 0.930 . S
C3206 C3205 1.376 . S
C3206 C3207 1.388 . S
C3207 H3194 0.930 . S
C3207 C3206 1.388 . S
C3207 C3208 1.390 . S
C3208 C3207 1.390 . S
C3208 C3209 1.394 . S
C3208 C3214 1.465 . S
C3209 C3204 1.399 . S
C3209 C3208 1.394 . S
C3209 C3210 1.516 . S
C3210 C3209 1.516 . S
C3210 C3211 1.502 . S
C3210 C3212 1.561 . S
C3210 C3213 1.526 . S
C3211 H3195 0.959 . S
C3211 H3196 0.959 . S
C3211 H3197 0.961 . S
C3211 C3210 1.502 . S
C3212 H3198 0.960 . S
C3212 H3199 0.961 . S
C3212 H3200 0.959 . S
C3212 C3210 1.561 . S
C3213 C3210 1.526 . S
C3213 C3214 1.396 . S
C3213 C3218 1.390 . S
C3214 C3208 1.465 . S
C3214 C3213 1.396 . S
C3214 C3215 1.399 . S
C3215 H3201 0.929 . S
C3215 C3214 1.399 . S
C3215 C3216 1.385 . S
C3216 H3202 0.931 . S
C3216 C3215 1.385 . S
C3216 C3217 1.389 . S
C3217 C3216 1.389 . S
C3217 C3218 1.387 . S
C3218 H3203 0.930 . S
C3218 C3213 1.390 . S
C3218 C3217 1.387 . S
H3219 C3231 0.930 . S
H3220 C3233 0.930 . S
H3221 C3234 0.930 . S
H3222 C3238 0.959 . S
H3223 C3238 0.959 . S
H3224 C3238 0.961 . S
H3225 C3239 0.960 1_554 S
H3226 C3239 0.961 . S
H3227 C3239 0.959 . S
H3228 C3242 0.929 . S
H3229 C3243 0.931 . S
H3230 C3245 0.930 . S
C3231 H3219 0.930 . S
C3231 C3232 1.399 . S
C3231 C3236 1.399 1_554 S
C3232 C3231 1.399 . S
C3232 C3233 1.376 1_554 S
C3233 H3220 0.930 . S
C3233 C3232 1.376 1_556 S
C3233 C3234 1.388 . S
C3234 H3221 0.930 . S
C3234 C3233 1.388 . S
C3234 C3235 1.390 . S
C3235 C3234 1.390 . S
C3235 C3236 1.394 . S
C3235 C3241 1.465 . S
C3236 C3231 1.399 1_556 S
C3236 C3235 1.394 . S
C3236 C3237 1.516 . S
C3237 C3236 1.516 . S
C3237 C3238 1.502 . S
C3237 C3239 1.561 . S
C3237 C3240 1.526 . S
C3238 H3222 0.959 . S
C3238 H3223 0.959 . S
C3238 H3224 0.961 . S
C3238 C3237 1.502 . S
C3239 H3225 0.960 1_556 S
C3239 H3226 0.961 . S
C3239 H3227 0.959 . S
C3239 C3237 1.561 . S
C3240 C3237 1.526 . S
C3240 C3241 1.396 . S
C3240 C3245 1.390 . S
C3241 C3235 1.465 . S
C3241 C3240 1.396 . S
C3241 C3242 1.399 . S
C3242 H3228 0.929 . S
C3242 C3241 1.399 . S
C3242 C3243 1.385 . S
C3243 H3229 0.931 . S
C3243 C3242 1.385 . S
C3243 C3244 1.389 . S
C3244 C3243 1.389 . S
C3244 C3245 1.387 . S
C3245 H3230 0.930 . S
C3245 C3240 1.390 . S
C3245 C3244 1.387 . S
H3246 C3258 0.930 . S
H3247 C3260 0.930 . S
H3248 C3261 0.930 . S
H3249 C3265 0.959 . S
H3250 C3265 0.959 . S
H3251 C3265 0.961 . S
H3252 C3266 0.960 . S
H3253 C3266 0.961 . S
H3254 C3266 0.959 . S
H3255 C3269 0.929 . S
H3256 C3270 0.931 . S
H3257 C3272 0.930 . S
C3258 H3246 0.930 . S
C3258 C3259 1.399 . S
C3258 C3263 1.399 . S
C3259 C3258 1.399 . S
C3259 C3260 1.376 . S
C3260 H3247 0.930 . S
C3260 C3259 1.376 . S
C3260 C3261 1.388 . S
C3261 H3248 0.930 . S
C3261 C3260 1.388 . S
C3261 C3262 1.390 . S
C3262 C3261 1.390 . S
C3262 C3263 1.394 . S
C3262 C3268 1.465 . S
C3263 C3258 1.399 . S
C3263 C3262 1.394 . S
C3263 C3264 1.516 . S
C3264 C3263 1.516 . S
C3264 C3265 1.502 . S
C3264 C3266 1.561 . S
C3264 C3267 1.526 . S
C3265 H3249 0.959 . S
C3265 H3250 0.959 . S
C3265 H3251 0.961 . S
C3265 C3264 1.502 . S
C3266 H3252 0.960 . S
C3266 H3253 0.961 . S
C3266 H3254 0.959 . S
C3266 C3264 1.561 . S
C3267 C3264 1.526 . S
C3267 C3268 1.396 . S
C3267 C3272 1.390 . S
C3268 C3262 1.465 . S
C3268 C3267 1.396 . S
C3268 C3269 1.399 . S
C3269 H3255 0.929 . S
C3269 C3268 1.399 . S
C3269 C3270 1.385 . S
C3270 H3256 0.931 . S
C3270 C3269 1.385 . S
C3270 C3271 1.389 . S
C3271 C3270 1.389 . S
C3271 C3272 1.387 . S
C3272 H3257 0.930 . S
C3272 C3267 1.390 . S
C3272 C3271 1.387 . S
H3273 C3285 0.930 . S
H3274 C3287 0.930 . S
H3275 C3288 0.930 . S
H3276 C3292 0.959 . S
H3277 C3292 0.959 . S
H3278 C3292 0.961 . S
H3279 C3293 0.960 . S
H3280 C3293 0.961 . S
H3281 C3293 0.959 . S
H3282 C3296 0.929 . S
H3283 C3297 0.931 . S
H3284 C3299 0.930 . S
C3285 H3273 0.930 . S
C3285 C3286 1.399 . S
C3285 C3290 1.399 . S
C3286 C3285 1.399 . S
C3286 C3287 1.376 . S
C3287 H3274 0.930 . S
C3287 C3286 1.376 . S
C3287 C3288 1.388 . S
C3288 H3275 0.930 . S
C3288 C3287 1.388 . S
C3288 C3289 1.390 . S
C3289 C3288 1.390 . S
C3289 C3290 1.394 . S
C3289 C3295 1.465 . S
C3290 C3285 1.399 . S
C3290 C3289 1.394 . S
C3290 C3291 1.516 . S
C3291 C3290 1.516 . S
C3291 C3292 1.502 . S
C3291 C3293 1.561 . S
C3291 C3294 1.526 . S
C3292 H3276 0.959 . S
C3292 H3277 0.959 . S
C3292 H3278 0.961 . S
C3292 C3291 1.502 . S
C3293 H3279 0.960 . S
C3293 H3280 0.961 . S
C3293 H3281 0.959 . S
C3293 C3291 1.561 . S
C3294 C3291 1.526 . S
C3294 C3295 1.396 . S
C3294 C3299 1.390 . S
C3295 C3289 1.465 . S
C3295 C3294 1.396 . S
C3295 C3296 1.399 . S
C3296 H3282 0.929 . S
C3296 C3295 1.399 . S
C3296 C3297 1.385 . S
C3297 H3283 0.931 . S
C3297 C3296 1.385 . S
C3297 C3298 1.389 . S
C3298 C3297 1.389 . S
C3298 C3299 1.387 . S
C3299 H3284 0.930 . S
C3299 C3294 1.390 . S
C3299 C3298 1.387 . S
H3300 C3312 0.930 . S
H3301 C3314 0.930 . S
H3302 C3315 0.930 . S
H3303 C3319 0.959 . S
H3304 C3319 0.959 . S
H3305 C3319 0.961 . S
H3306 C3320 0.960 . S
H3307 C3320 0.961 . S
H3308 C3320 0.959 . S
H3309 C3323 0.929 . S
H3310 C3324 0.931 . S
H3311 C3326 0.930 . S
C3312 H3300 0.930 . S
C3312 C3313 1.399 . S
C3312 C3317 1.399 . S
C3313 C3312 1.399 . S
C3313 C3314 1.376 . S
C3314 H3301 0.930 . S
C3314 C3313 1.376 . S
C3314 C3315 1.388 . S
C3315 H3302 0.930 . S
C3315 C3314 1.388 . S
C3315 C3316 1.390 . S
C3316 C3315 1.390 . S
C3316 C3317 1.394 . S
C3316 C3322 1.465 . S
C3317 C3312 1.399 . S
C3317 C3316 1.394 . S
C3317 C3318 1.516 . S
C3318 C3317 1.516 . S
C3318 C3319 1.502 . S
C3318 C3320 1.561 . S
C3318 C3321 1.526 . S
C3319 H3303 0.959 . S
C3319 H3304 0.959 . S
C3319 H3305 0.961 . S
C3319 C3318 1.502 . S
C3320 H3306 0.960 . S
C3320 H3307 0.961 . S
C3320 H3308 0.959 . S
C3320 C3318 1.561 . S
C3321 C3318 1.526 . S
C3321 C3322 1.396 . S
C3321 C3326 1.390 . S
C3322 C3316 1.465 . S
C3322 C3321 1.396 . S
C3322 C3323 1.399 . S
C3323 H3309 0.929 . S
C3323 C3322 1.399 . S
C3323 C3324 1.385 . S
C3324 H3310 0.931 . S
C3324 C3323 1.385 . S
C3324 C3325 1.389 . S
C3325 C3324 1.389 . S
C3325 C3326 1.387 . S
C3326 H3311 0.930 . S
C3326 C3321 1.390 . S
C3326 C3325 1.387 . S
H3327 C3339 0.930 . S
H3328 C3341 0.930 . S
H3329 C3342 0.930 . S
H3330 C3346 0.959 . S
H3331 C3346 0.959 . S
H3332 C3346 0.961 . S
H3333 C3347 0.960 . S
H3334 C3347 0.961 . S
H3335 C3347 0.959 . S
H3336 C3350 0.929 . S
H3337 C3351 0.931 . S
H3338 C3353 0.930 . S
C3339 H3327 0.930 . S
C3339 C3340 1.399 . S
C3339 C3344 1.399 . S
C3340 C3339 1.399 . S
C3340 C3341 1.376 . S
C3341 H3328 0.930 . S
C3341 C3340 1.376 . S
C3341 C3342 1.388 . S
C3342 H3329 0.930 . S
C3342 C3341 1.388 . S
C3342 C3343 1.390 . S
C3343 C3342 1.390 . S
C3343 C3344 1.394 . S
C3343 C3349 1.465 . S
C3344 C3339 1.399 . S
C3344 C3343 1.394 . S
C3344 C3345 1.516 . S
C3345 C3344 1.516 . S
C3345 C3346 1.502 . S
C3345 C3347 1.561 . S
C3345 C3348 1.526 . S
C3346 H3330 0.959 . S
C3346 H3331 0.959 . S
C3346 H3332 0.961 . S
C3346 C3345 1.502 . S
C3347 H3333 0.960 . S
C3347 H3334 0.961 . S
C3347 H3335 0.959 . S
C3347 C3345 1.561 . S
C3348 C3345 1.526 . S
C3348 C3349 1.396 . S
C3348 C3353 1.390 . S
C3349 C3343 1.465 . S
C3349 C3348 1.396 . S
C3349 C3350 1.399 . S
C3350 H3336 0.929 . S
C3350 C3349 1.399 . S
C3350 C3351 1.385 . S
C3351 H3337 0.931 . S
C3351 C3350 1.385 . S
C3351 C3352 1.389 . S
C3352 C3351 1.389 . S
C3352 C3353 1.387 . S
C3353 H3338 0.930 . S
C3353 C3348 1.390 . S
C3353 C3352 1.387 . S
H3354 C3366 0.930 . S
H3355 C3368 0.930 . S
H3356 C3369 0.930 . S
H3357 C3373 0.959 . S
H3358 C3373 0.959 . S
H3359 C3373 0.961 . S
H3360 C3374 0.960 . S
H3361 C3374 0.961 . S
H3362 C3374 0.959 . S
H3363 C3377 0.929 . S
H3364 C3378 0.931 . S
H3365 C3380 0.930 . S
C3366 H3354 0.930 . S
C3366 C3367 1.399 . S
C3366 C3371 1.399 . S
C3367 C3366 1.399 . S
C3367 C3368 1.376 . S
C3368 H3355 0.930 . S
C3368 C3367 1.376 . S
C3368 C3369 1.388 . S
C3369 H3356 0.930 . S
C3369 C3368 1.388 . S
C3369 C3370 1.390 . S
C3370 C3369 1.390 . S
C3370 C3371 1.394 . S
C3370 C3376 1.465 . S
C3371 C3366 1.399 . S
C3371 C3370 1.394 . S
C3371 C3372 1.516 . S
C3372 C3371 1.516 . S
C3372 C3373 1.502 . S
C3372 C3374 1.561 . S
C3372 C3375 1.526 . S
C3373 H3357 0.959 . S
C3373 H3358 0.959 . S
C3373 H3359 0.961 . S
C3373 C3372 1.502 . S
C3374 H3360 0.960 . S
C3374 H3361 0.961 . S
C3374 H3362 0.959 . S
C3374 C3372 1.561 . S
C3375 C3372 1.526 . S
C3375 C3376 1.396 . S
C3375 C3380 1.390 . S
C3376 C3370 1.465 . S
C3376 C3375 1.396 . S
C3376 C3377 1.399 . S
C3377 H3363 0.929 . S
C3377 C3376 1.399 . S
C3377 C3378 1.385 . S
C3378 H3364 0.931 . S
C3378 C3377 1.385 . S
C3378 C3379 1.389 . S
C3379 C3378 1.389 . S
C3379 C3380 1.387 . S
C3380 H3365 0.930 . S
C3380 C3375 1.390 . S
C3380 C3379 1.387 . S
H3381 C3393 0.930 . S
H3382 C3395 0.930 . S
H3383 C3396 0.930 . S
H3384 C3400 0.959 . S
H3385 C3400 0.959 . S
H3386 C3400 0.961 . S
H3387 C3401 0.960 . S
H3388 C3401 0.961 . S
H3389 C3401 0.959 . S
H3390 C3404 0.929 . S
H3391 C3405 0.931 . S
H3392 C3407 0.930 . S
C3393 H3381 0.930 . S
C3393 C3394 1.399 . S
C3393 C3398 1.399 . S
C3394 C3393 1.399 . S
C3394 C3395 1.376 . S
C3395 H3382 0.930 . S
C3395 C3394 1.376 . S
C3395 C3396 1.388 . S
C3396 H3383 0.930 . S
C3396 C3395 1.388 . S
C3396 C3397 1.390 . S
C3397 C3396 1.390 . S
C3397 C3398 1.394 . S
C3397 C3403 1.465 . S
C3398 C3393 1.399 . S
C3398 C3397 1.394 . S
C3398 C3399 1.516 . S
C3399 C3398 1.516 . S
C3399 C3400 1.502 . S
C3399 C3401 1.561 . S
C3399 C3402 1.526 . S
C3400 H3384 0.959 . S
C3400 H3385 0.959 . S
C3400 H3386 0.961 . S
C3400 C3399 1.502 . S
C3401 H3387 0.960 . S
C3401 H3388 0.961 . S
C3401 H3389 0.959 . S
C3401 C3399 1.561 . S
C3402 C3399 1.526 . S
C3402 C3403 1.396 . S
C3402 C3407 1.390 . S
C3403 C3397 1.465 . S
C3403 C3402 1.396 . S
C3403 C3404 1.399 . S
C3404 H3390 0.929 . S
C3404 C3403 1.399 . S
C3404 C3405 1.385 . S
C3405 H3391 0.931 . S
C3405 C3404 1.385 . S
C3405 C3406 1.389 . S
C3406 C3405 1.389 . S
C3406 C3407 1.387 . S
C3407 H3392 0.930 . S
C3407 C3402 1.390 . S
C3407 C3406 1.387 . S
H3408 C3420 0.930 . S
H3409 C3422 0.930 . S
H3410 C3423 0.930 . S
H3411 C3427 0.959 . S
H3412 C3427 0.959 . S
H3413 C3427 0.961 . S
H3414 C3428 0.960 . S
H3415 C3428 0.961 . S
H3416 C3428 0.959 . S
H3417 C3431 0.929 . S
H3418 C3432 0.931 . S
H3419 C3434 0.930 . S
C3420 H3408 0.930 . S
C3420 C3421 1.399 . S
C3420 C3425 1.399 . S
C3421 C3420 1.399 . S
C3421 C3422 1.376 . S
C3422 H3409 0.930 . S
C3422 C3421 1.376 . S
C3422 C3423 1.388 . S
C3423 H3410 0.930 . S
C3423 C3422 1.388 . S
C3423 C3424 1.390 . S
C3424 C3423 1.390 . S
C3424 C3425 1.394 . S
C3424 C3430 1.465 . S
C3425 C3420 1.399 . S
C3425 C3424 1.394 . S
C3425 C3426 1.516 . S
C3426 C3425 1.516 . S
C3426 C3427 1.502 . S
C3426 C3428 1.561 . S
C3426 C3429 1.526 . S
C3427 H3411 0.959 . S
C3427 H3412 0.959 . S
C3427 H3413 0.961 . S
C3427 C3426 1.502 . S
C3428 H3414 0.960 . S
C3428 H3415 0.961 . S
C3428 H3416 0.959 . S
C3428 C3426 1.561 . S
C3429 C3426 1.526 . S
C3429 C3430 1.396 . S
C3429 C3434 1.390 . S
C3430 C3424 1.465 . S
C3430 C3429 1.396 . S
C3430 C3431 1.399 . S
C3431 H3417 0.929 . S
C3431 C3430 1.399 . S
C3431 C3432 1.385 . S
C3432 H3418 0.931 . S
C3432 C3431 1.385 . S
C3432 C3433 1.389 . S
C3433 C3432 1.389 . S
C3433 C3434 1.387 . S
C3434 H3419 0.930 . S
C3434 C3429 1.390 . S
C3434 C3433 1.387 . S
H3435 C3447 0.930 . S
H3436 C3449 0.930 . S
H3437 C3450 0.930 . S
H3438 C3454 0.959 . S
H3439 C3454 0.959 . S
H3440 C3454 0.961 . S
H3441 C3455 0.960 . S
H3442 C3455 0.961 . S
H3443 C3455 0.959 . S
H3444 C3458 0.929 . S
H3445 C3459 0.931 . S
H3446 C3461 0.930 . S
C3447 H3435 0.930 . S
C3447 C3448 1.399 . S
C3447 C3452 1.399 . S
C3448 C3447 1.399 . S
C3448 C3449 1.376 . S
C3449 H3436 0.930 . S
C3449 C3448 1.376 . S
C3449 C3450 1.388 . S
C3450 H3437 0.930 . S
C3450 C3449 1.388 . S
C3450 C3451 1.390 . S
C3451 C3450 1.390 . S
C3451 C3452 1.394 . S
C3451 C3457 1.465 . S
C3452 C3447 1.399 . S
C3452 C3451 1.394 . S
C3452 C3453 1.516 . S
C3453 C3452 1.516 . S
C3453 C3454 1.502 . S
C3453 C3455 1.561 . S
C3453 C3456 1.526 . S
C3454 H3438 0.959 . S
C3454 H3439 0.959 . S
C3454 H3440 0.961 . S
C3454 C3453 1.502 . S
C3455 H3441 0.960 . S
C3455 H3442 0.961 . S
C3455 H3443 0.959 . S
C3455 C3453 1.561 . S
C3456 C3453 1.526 . S
C3456 C3457 1.396 . S
C3456 C3461 1.390 . S
C3457 C3451 1.465 . S
C3457 C3456 1.396 . S
C3457 C3458 1.399 . S
C3458 H3444 0.929 . S
C3458 C3457 1.399 . S
C3458 C3459 1.385 . S
C3459 H3445 0.931 . S
C3459 C3458 1.385 . S
C3459 C3460 1.389 . S
C3460 C3459 1.389 . S
C3460 C3461 1.387 . S
C3461 H3446 0.930 . S
C3461 C3456 1.390 . S
C3461 C3460 1.387 . S
H3462 C3474 0.930 . S
H3463 C3476 0.930 . S
H3464 C3477 0.930 . S
H3465 C3481 0.959 . S
H3466 C3481 0.959 . S
H3467 C3481 0.961 . S
H3468 C3482 0.960 . S
H3469 C3482 0.961 . S
H3470 C3482 0.959 . S
H3471 C3485 0.929 . S
H3472 C3486 0.931 . S
H3473 C3488 0.930 . S
C3474 H3462 0.930 . S
C3474 C3475 1.399 . S
C3474 C3479 1.399 . S
C3475 C3474 1.399 . S
C3475 C3476 1.376 . S
C3476 H3463 0.930 . S
C3476 C3475 1.376 . S
C3476 C3477 1.388 . S
C3477 H3464 0.930 . S
C3477 C3476 1.388 . S
C3477 C3478 1.390 . S
C3478 C3477 1.390 . S
C3478 C3479 1.394 . S
C3478 C3484 1.465 . S
C3479 C3474 1.399 . S
C3479 C3478 1.394 . S
C3479 C3480 1.516 . S
C3480 C3479 1.516 . S
C3480 C3481 1.502 . S
C3480 C3482 1.561 . S
C3480 C3483 1.526 . S
C3481 H3465 0.959 . S
C3481 H3466 0.959 . S
C3481 H3467 0.961 . S
C3481 C3480 1.502 . S
C3482 H3468 0.960 . S
C3482 H3469 0.961 . S
C3482 H3470 0.959 . S
C3482 C3480 1.561 . S
C3483 C3480 1.526 . S
C3483 C3484 1.396 . S
C3483 C3488 1.390 . S
C3484 C3478 1.465 . S
C3484 C3483 1.396 . S
C3484 C3485 1.399 . S
C3485 H3471 0.929 . S
C3485 C3484 1.399 . S
C3485 C3486 1.385 . S
C3486 H3472 0.931 . S
C3486 C3485 1.385 . S
C3486 C3487 1.389 . S
C3487 C3486 1.389 . S
C3487 C3488 1.387 . S
C3488 H3473 0.930 . S
C3488 C3483 1.390 . S
C3488 C3487 1.387 . S
H3489 C3501 0.930 . S
H3490 C3503 0.930 . S
H3491 C3504 0.930 . S
H3492 C3508 0.959 . S
H3493 C3508 0.959 . S
H3494 C3508 0.961 . S
H3495 C3509 0.960 . S
H3496 C3509 0.961 . S
H3497 C3509 0.959 . S
H3498 C3512 0.929 . S
H3499 C3513 0.931 . S
H3500 C3515 0.930 . S
C3501 H3489 0.930 . S
C3501 C3502 1.399 . S
C3501 C3506 1.399 . S
C3502 C3501 1.399 . S
C3502 C3503 1.376 1_554 S
C3503 H3490 0.930 . S
C3503 C3502 1.376 1_556 S
C3503 C3504 1.388 . S
C3504 H3491 0.930 . S
C3504 C3503 1.388 . S
C3504 C3505 1.390 . S
C3505 C3504 1.390 . S
C3505 C3506 1.394 1_556 S
C3505 C3511 1.465 1_556 S
C3506 C3501 1.399 . S
C3506 C3505 1.394 1_554 S
C3506 C3507 1.516 . S
C3507 C3506 1.516 . S
C3507 C3508 1.502 1_565 S
C3507 C3509 1.561 . S
C3507 C3510 1.525 . S
C3508 H3492 0.959 . S
C3508 H3493 0.959 . S
C3508 H3494 0.961 . S
C3508 C3507 1.502 1_545 S
C3509 H3495 0.960 . S
C3509 H3496 0.961 . S
C3509 H3497 0.959 . S
C3509 C3507 1.561 . S
C3510 C3507 1.525 . S
C3510 C3511 1.401 . S
C3510 C3515 1.386 1_565 S
C3511 C3505 1.465 1_554 S
C3511 C3510 1.401 . S
C3511 C3512 1.399 1_554 S
C3512 H3498 0.929 . S
C3512 C3511 1.399 1_556 S
C3512 C3513 1.385 . S
C3513 H3499 0.931 . S
C3513 C3512 1.385 . S
C3513 C3514 1.389 1_566 S
C3514 C3513 1.389 1_544 S
C3514 C3515 1.387 . S
C3515 H3500 0.930 . S
C3515 C3510 1.386 1_545 S
C3515 C3514 1.387 . S
H3516 C3528 0.930 . S
H3517 C3530 0.930 . S
H3518 C3531 0.930 . S
H3519 C3535 0.959 . S
H3520 C3535 0.959 . S
H3521 C3535 0.961 . S
H3522 C3536 0.960 . S
H3523 C3536 0.961 . S
H3524 C3536 0.959 . S
H3525 C3539 0.929 . S
H3526 C3540 0.931 . S
H3527 C3542 0.930 . S
C3528 H3516 0.930 . S
C3528 C3529 1.399 . S
C3528 C3533 1.399 . S
C3529 C3528 1.399 . S
C3529 C3530 1.376 . S
C3530 H3517 0.930 . S
C3530 C3529 1.376 . S
C3530 C3531 1.388 . S
C3531 H3518 0.930 . S
C3531 C3530 1.388 . S
C3531 C3532 1.390 . S
C3532 C3531 1.390 . S
C3532 C3533 1.394 . S
C3532 C3538 1.465 . S
C3533 C3528 1.399 . S
C3533 C3532 1.394 . S
C3533 C3534 1.516 . S
C3534 C3533 1.516 . S
C3534 C3535 1.502 . S
C3534 C3536 1.561 . S
C3534 C3537 1.526 . S
C3535 H3519 0.959 . S
C3535 H3520 0.959 . S
C3535 H3521 0.961 . S
C3535 C3534 1.502 . S
C3536 H3522 0.960 . S
C3536 H3523 0.961 . S
C3536 H3524 0.959 . S
C3536 C3534 1.561 . S
C3537 C3534 1.526 . S
C3537 C3538 1.396 . S
C3537 C3542 1.390 . S
C3538 C3532 1.465 . S
C3538 C3537 1.396 . S
C3538 C3539 1.399 . S
C3539 H3525 0.929 . S
C3539 C3538 1.399 . S
C3539 C3540 1.385 . S
C3540 H3526 0.931 . S
C3540 C3539 1.385 . S
C3540 C3541 1.389 . S
C3541 C3540 1.389 . S
C3541 C3542 1.387 . S
C3542 H3527 0.930 . S
C3542 C3537 1.390 . S
C3542 C3541 1.387 . S
H3543 C3555 0.930 1_556 S
H3544 C3557 0.930 . S
H3545 C3558 0.930 . S
H3546 C3562 0.959 . S
H3547 C3562 0.959 . S
H3548 C3562 0.961 . S
H3549 C3563 0.960 . S
H3550 C3563 0.961 . S
H3551 C3563 0.959 . S
H3552 C3566 0.929 . S
H3553 C3567 0.931 . S
H3554 C3569 0.930 . S
C3555 H3543 0.930 1_554 S
C3555 C3556 1.399 . S
C3555 C3560 1.399 . S
C3556 C3555 1.399 . S
C3556 C3557 1.376 . S
C3557 H3544 0.930 . S
C3557 C3556 1.376 . S
C3557 C3558 1.388 . S
C3558 H3545 0.930 . S
C3558 C3557 1.388 . S
C3558 C3559 1.390 . S
C3559 C3558 1.390 . S
C3559 C3560 1.394 . S
C3559 C3565 1.465 . S
C3560 C3555 1.399 . S
C3560 C3559 1.394 . S
C3560 C3561 1.516 1_554 S
C3561 C3560 1.516 1_556 S
C3561 C3562 1.502 . S
C3561 C3563 1.561 . S
C3561 C3564 1.526 1_556 S
C3562 H3546 0.959 . S
C3562 H3547 0.959 . S
C3562 H3548 0.961 . S
C3562 C3561 1.502 . S
C3563 H3549 0.960 . S
C3563 H3550 0.961 . S
C3563 H3551 0.959 . S
C3563 C3561 1.561 . S
C3564 C3561 1.526 1_554 S
C3564 C3565 1.396 . S
C3564 C3569 1.390 . S
C3565 C3559 1.465 . S
C3565 C3564 1.396 . S
C3565 C3566 1.399 . S
C3566 H3552 0.929 . S
C3566 C3565 1.399 . S
C3566 C3567 1.385 . S
C3567 H3553 0.931 . S
C3567 C3566 1.385 . S
C3567 C3568 1.389 . S
C3568 C3567 1.389 . S
C3568 C3569 1.387 . S
C3569 H3554 0.930 . S
C3569 C3564 1.390 . S
C3569 C3568 1.387 . S
H3570 C3582 0.930 . S
H3571 C3584 0.930 . S
H3572 C3585 0.930 . S
H3573 C3589 0.959 . S
H3574 C3589 0.959 . S
H3575 C3589 0.961 . S
H3576 C3590 0.960 . S
H3577 C3590 0.961 . S
H3578 C3590 0.959 . S
H3579 C3593 0.929 . S
H3580 C3594 0.931 . S
H3581 C3596 0.930 . S
C3582 H3570 0.930 . S
C3582 C3583 1.399 . S
C3582 C3587 1.399 . S
C3583 C3582 1.399 . S
C3583 C3584 1.376 . S
C3584 H3571 0.930 . S
C3584 C3583 1.376 . S
C3584 C3585 1.388 . S
C3585 H3572 0.930 . S
C3585 C3584 1.388 . S
C3585 C3586 1.390 . S
C3586 C3585 1.390 . S
C3586 C3587 1.394 . S
C3586 C3592 1.465 . S
C3587 C3582 1.399 . S
C3587 C3586 1.394 . S
C3587 C3588 1.516 . S
C3588 C3587 1.516 . S
C3588 C3589 1.502 . S
C3588 C3590 1.561 . S
C3588 C3591 1.526 . S
C3589 H3573 0.959 . S
C3589 H3574 0.959 . S
C3589 H3575 0.961 . S
C3589 C3588 1.502 . S
C3590 H3576 0.960 . S
C3590 H3577 0.961 . S
C3590 H3578 0.959 . S
C3590 C3588 1.561 . S
C3591 C3588 1.526 . S
C3591 C3592 1.396 . S
C3591 C3596 1.390 . S
C3592 C3586 1.465 . S
C3592 C3591 1.396 . S
C3592 C3593 1.399 . S
C3593 H3579 0.929 . S
C3593 C3592 1.399 . S
C3593 C3594 1.385 . S
C3594 H3580 0.931 . S
C3594 C3593 1.385 . S
C3594 C3595 1.389 . S
C3595 C3594 1.389 . S
C3595 C3596 1.387 . S
C3596 H3581 0.930 . S
C3596 C3591 1.390 . S
C3596 C3595 1.387 . S
H3597 C3609 0.930 . S
H3598 C3611 0.930 . S
H3599 C3612 0.930 . S
H3600 C3616 0.959 . S
H3601 C3616 0.959 . S
H3602 C3616 0.961 . S
H3603 C3617 0.960 . S
H3604 C3617 0.961 . S
H3605 C3617 0.959 . S
H3606 C3620 0.929 . S
H3607 C3621 0.931 . S
H3608 C3623 0.930 . S
C3609 H3597 0.930 . S
C3609 C3610 1.399 . S
C3609 C3614 1.399 . S
C3610 C3609 1.399 . S
C3610 C3611 1.376 . S
C3611 H3598 0.930 . S
C3611 C3610 1.376 . S
C3611 C3612 1.388 . S
C3612 H3599 0.930 . S
C3612 C3611 1.388 . S
C3612 C3613 1.390 . S
C3613 C3612 1.390 . S
C3613 C3614 1.394 . S
C3613 C3619 1.465 . S
C3614 C3609 1.399 . S
C3614 C3613 1.394 . S
C3614 C3615 1.516 . S
C3615 C3614 1.516 . S
C3615 C3616 1.502 . S
C3615 C3617 1.561 . S
C3615 C3618 1.526 . S
C3616 H3600 0.959 . S
C3616 H3601 0.959 . S
C3616 H3602 0.961 . S
C3616 C3615 1.502 . S
C3617 H3603 0.960 . S
C3617 H3604 0.961 . S
C3617 H3605 0.959 . S
C3617 C3615 1.561 . S
C3618 C3615 1.526 . S
C3618 C3619 1.396 . S
C3618 C3623 1.390 . S
C3619 C3613 1.465 . S
C3619 C3618 1.396 . S
C3619 C3620 1.399 . S
C3620 H3606 0.929 . S
C3620 C3619 1.399 . S
C3620 C3621 1.385 . S
C3621 H3607 0.931 . S
C3621 C3620 1.385 . S
C3621 C3622 1.389 . S
C3622 C3621 1.389 . S
C3622 C3623 1.387 . S
C3623 H3608 0.930 . S
C3623 C3618 1.390 . S
C3623 C3622 1.387 . S
H3624 C3636 0.930 . S
H3625 C3638 0.930 . S
H3626 C3639 0.930 . S
H3627 C3643 0.959 . S
H3628 C3643 0.959 . S
H3629 C3643 0.961 . S
H3630 C3644 0.960 . S
H3631 C3644 0.961 . S
H3632 C3644 0.959 . S
H3633 C3647 0.929 . S
H3634 C3648 0.931 . S
H3635 C3650 0.930 . S
C3636 H3624 0.930 . S
C3636 C3637 1.399 . S
C3636 C3641 1.399 . S
C3637 C3636 1.399 . S
C3637 C3638 1.376 . S
C3638 H3625 0.930 . S
C3638 C3637 1.376 . S
C3638 C3639 1.388 . S
C3639 H3626 0.930 . S
C3639 C3638 1.388 . S
C3639 C3640 1.390 . S
C3640 C3639 1.390 . S
C3640 C3641 1.394 . S
C3640 C3646 1.465 . S
C3641 C3636 1.399 . S
C3641 C3640 1.394 . S
C3641 C3642 1.516 . S
C3642 C3641 1.516 . S
C3642 C3643 1.502 . S
C3642 C3644 1.561 . S
C3642 C3645 1.526 . S
C3643 H3627 0.959 . S
C3643 H3628 0.959 . S
C3643 H3629 0.961 . S
C3643 C3642 1.502 . S
C3644 H3630 0.960 . S
C3644 H3631 0.961 . S
C3644 H3632 0.959 . S
C3644 C3642 1.561 . S
C3645 C3642 1.526 . S
C3645 C3646 1.396 . S
C3645 C3650 1.390 . S
C3646 C3640 1.465 . S
C3646 C3645 1.396 . S
C3646 C3647 1.399 . S
C3647 H3633 0.929 . S
C3647 C3646 1.399 . S
C3647 C3648 1.385 . S
C3648 H3634 0.931 . S
C3648 C3647 1.385 . S
C3648 C3649 1.389 . S
C3649 C3648 1.389 . S
C3649 C3650 1.387 . S
C3650 H3635 0.930 . S
C3650 C3645 1.390 . S
C3650 C3649 1.387 . S
H3651 C3663 0.930 . S
H3652 C3665 0.930 . S
H3653 C3666 0.930 . S
H3654 C3670 0.959 . S
H3655 C3670 0.959 . S
H3656 C3670 0.961 . S
H3657 C3671 0.960 . S
H3658 C3671 0.961 . S
H3659 C3671 0.959 . S
H3660 C3674 0.929 . S
H3661 C3675 0.931 . S
H3662 C3677 0.930 . S
C3663 H3651 0.930 . S
C3663 C3664 1.399 . S
C3663 C3668 1.399 . S
C3664 C3663 1.399 . S
C3664 C3665 1.376 . S
C3665 H3652 0.930 . S
C3665 C3664 1.376 . S
C3665 C3666 1.388 . S
C3666 H3653 0.930 . S
C3666 C3665 1.388 . S
C3666 C3667 1.390 . S
C3667 C3666 1.390 . S
C3667 C3668 1.394 . S
C3667 C3673 1.465 . S
C3668 C3663 1.399 . S
C3668 C3667 1.394 . S
C3668 C3669 1.516 . S
C3669 C3668 1.516 . S
C3669 C3670 1.502 . S
C3669 C3671 1.561 . S
C3669 C3672 1.526 . S
C3670 H3654 0.959 . S
C3670 H3655 0.959 . S
C3670 H3656 0.961 . S
C3670 C3669 1.502 . S
C3671 H3657 0.960 . S
C3671 H3658 0.961 . S
C3671 H3659 0.959 . S
C3671 C3669 1.561 . S
C3672 C3669 1.526 . S
C3672 C3673 1.396 . S
C3672 C3677 1.390 . S
C3673 C3667 1.465 . S
C3673 C3672 1.396 . S
C3673 C3674 1.399 . S
C3674 H3660 0.929 . S
C3674 C3673 1.399 . S
C3674 C3675 1.385 . S
C3675 H3661 0.931 . S
C3675 C3674 1.385 . S
C3675 C3676 1.389 . S
C3676 C3675 1.389 . S
C3676 C3677 1.387 . S
C3677 H3662 0.930 . S
C3677 C3672 1.390 . S
C3677 C3676 1.387 . S
H3678 C3690 0.930 . S
H3679 C3692 0.930 . S
H3680 C3693 0.930 . S
H3681 C3697 0.959 . S
H3682 C3697 0.959 . S
H3683 C3697 0.961 . S
H3684 C3698 0.960 . S
H3685 C3698 0.961 . S
H3686 C3698 0.959 . S
H3687 C3701 0.929 . S
H3688 C3702 0.931 . S
H3689 C3704 0.930 . S
C3690 H3678 0.930 . S
C3690 C3691 1.399 . S
C3690 C3695 1.399 . S
C3691 C3690 1.399 . S
C3691 C3692 1.376 . S
C3692 H3679 0.930 . S
C3692 C3691 1.376 . S
C3692 C3693 1.388 . S
C3693 H3680 0.930 . S
C3693 C3692 1.388 . S
C3693 C3694 1.390 . S
C3694 C3693 1.390 . S
C3694 C3695 1.394 . S
C3694 C3700 1.465 . S
C3695 C3690 1.399 . S
C3695 C3694 1.394 . S
C3695 C3696 1.516 . S
C3696 C3695 1.516 . S
C3696 C3697 1.502 . S
C3696 C3698 1.561 . S
C3696 C3699 1.526 . S
C3697 H3681 0.959 . S
C3697 H3682 0.959 . S
C3697 H3683 0.961 . S
C3697 C3696 1.502 . S
C3698 H3684 0.960 . S
C3698 H3685 0.961 . S
C3698 H3686 0.959 . S
C3698 C3696 1.561 . S
C3699 C3696 1.526 . S
C3699 C3700 1.396 . S
C3699 C3704 1.390 . S
C3700 C3694 1.465 . S
C3700 C3699 1.396 . S
C3700 C3701 1.399 . S
C3701 H3687 0.929 . S
C3701 C3700 1.399 . S
C3701 C3702 1.385 . S
C3702 H3688 0.931 . S
C3702 C3701 1.385 . S
C3702 C3703 1.389 . S
C3703 C3702 1.389 . S
C3703 C3704 1.387 . S
C3704 H3689 0.930 . S
C3704 C3699 1.390 . S
C3704 C3703 1.387 . S
H3705 C3717 0.930 . S
H3706 C3719 0.930 . S
H3707 C3720 0.930 . S
H3708 C3724 0.959 . S
H3709 C3724 0.959 . S
H3710 C3724 0.961 . S
H3711 C3725 0.960 . S
H3712 C3725 0.961 . S
H3713 C3725 0.959 . S
H3714 C3728 0.929 . S
H3715 C3729 0.931 . S
H3716 C3731 0.930 . S
C3717 H3705 0.930 . S
C3717 C3718 1.399 . S
C3717 C3722 1.399 . S
C3718 C3717 1.399 . S
C3718 C3719 1.376 . S
C3719 H3706 0.930 . S
C3719 C3718 1.376 . S
C3719 C3720 1.388 . S
C3720 H3707 0.930 . S
C3720 C3719 1.388 . S
C3720 C3721 1.390 . S
C3721 C3720 1.390 . S
C3721 C3722 1.394 . S
C3721 C3727 1.465 . S
C3722 C3717 1.399 . S
C3722 C3721 1.394 . S
C3722 C3723 1.516 . S
C3723 C3722 1.516 . S
C3723 C3724 1.502 . S
C3723 C3725 1.561 . S
C3723 C3726 1.526 . S
C3724 H3708 0.959 . S
C3724 H3709 0.959 . S
C3724 H3710 0.961 . S
C3724 C3723 1.502 . S
C3725 H3711 0.960 . S
C3725 H3712 0.961 . S
C3725 H3713 0.959 . S
C3725 C3723 1.561 . S
C3726 C3723 1.526 . S
C3726 C3727 1.396 . S
C3726 C3731 1.390 . S
C3727 C3721 1.465 . S
C3727 C3726 1.396 . S
C3727 C3728 1.399 . S
C3728 H3714 0.929 . S
C3728 C3727 1.399 . S
C3728 C3729 1.385 . S
C3729 H3715 0.931 . S
C3729 C3728 1.385 . S
C3729 C3730 1.389 . S
C3730 C3729 1.389 . S
C3730 C3731 1.387 . S
C3731 H3716 0.930 . S
C3731 C3726 1.390 . S
C3731 C3730 1.387 . S
H3732 C3744 0.930 . S
H3733 C3746 0.930 . S
H3734 C3747 0.930 . S
H3735 C3751 0.959 . S
H3736 C3751 0.959 . S
H3737 C3751 0.961 . S
H3738 C3752 0.960 . S
H3739 C3752 0.961 . S
H3740 C3752 0.959 . S
H3741 C3755 0.929 . S
H3742 C3756 0.931 . S
H3743 C3758 0.930 . S
C3744 H3732 0.930 . S
C3744 C3745 1.399 . S
C3744 C3749 1.399 . S
C3745 C3744 1.399 . S
C3745 C3746 1.376 . S
C3746 H3733 0.930 . S
C3746 C3745 1.376 . S
C3746 C3747 1.388 . S
C3747 H3734 0.930 . S
C3747 C3746 1.388 . S
C3747 C3748 1.390 . S
C3748 C3747 1.390 . S
C3748 C3749 1.394 . S
C3748 C3754 1.465 . S
C3749 C3744 1.399 . S
C3749 C3748 1.394 . S
C3749 C3750 1.516 . S
C3750 C3749 1.516 . S
C3750 C3751 1.502 . S
C3750 C3752 1.561 . S
C3750 C3753 1.526 . S
C3751 H3735 0.959 . S
C3751 H3736 0.959 . S
C3751 H3737 0.961 . S
C3751 C3750 1.502 . S
C3752 H3738 0.960 . S
C3752 H3739 0.961 . S
C3752 H3740 0.959 . S
C3752 C3750 1.561 . S
C3753 C3750 1.526 . S
C3753 C3754 1.396 . S
C3753 C3758 1.390 . S
C3754 C3748 1.465 . S
C3754 C3753 1.396 . S
C3754 C3755 1.399 . S
C3755 H3741 0.929 . S
C3755 C3754 1.399 . S
C3755 C3756 1.385 . S
C3756 H3742 0.931 . S
C3756 C3755 1.385 . S
C3756 C3757 1.389 . S
C3757 C3756 1.389 . S
C3757 C3758 1.387 . S
C3758 H3743 0.930 . S
C3758 C3753 1.390 . S
C3758 C3757 1.387 . S
H3759 C3771 0.930 . S
H3760 C3773 0.930 . S
H3761 C3774 0.930 . S
H3762 C3778 0.959 . S
H3763 C3778 0.959 . S
H3764 C3778 0.961 . S
H3765 C3779 0.960 . S
H3766 C3779 0.961 . S
H3767 C3779 0.959 . S
H3768 C3782 0.929 . S
H3769 C3783 0.931 . S
H3770 C3785 0.930 . S
C3771 H3759 0.930 . S
C3771 C3772 1.399 . S
C3771 C3776 1.399 . S
C3772 C3771 1.399 . S
C3772 C3773 1.376 . S
C3773 H3760 0.930 . S
C3773 C3772 1.376 . S
C3773 C3774 1.388 . S
C3774 H3761 0.930 . S
C3774 C3773 1.388 . S
C3774 C3775 1.390 . S
C3775 C3774 1.390 . S
C3775 C3776 1.394 . S
C3775 C3781 1.465 . S
C3776 C3771 1.399 . S
C3776 C3775 1.394 . S
C3776 C3777 1.516 . S
C3777 C3776 1.516 . S
C3777 C3778 1.502 . S
C3777 C3779 1.561 . S
C3777 C3780 1.526 . S
C3778 H3762 0.959 . S
C3778 H3763 0.959 . S
C3778 H3764 0.961 . S
C3778 C3777 1.502 . S
C3779 H3765 0.960 . S
C3779 H3766 0.961 . S
C3779 H3767 0.959 . S
C3779 C3777 1.561 . S
C3780 C3777 1.526 . S
C3780 C3781 1.396 . S
C3780 C3785 1.390 . S
C3781 C3775 1.465 . S
C3781 C3780 1.396 . S
C3781 C3782 1.399 . S
C3782 H3768 0.929 . S
C3782 C3781 1.399 . S
C3782 C3783 1.385 . S
C3783 H3769 0.931 . S
C3783 C3782 1.385 . S
C3783 C3784 1.389 . S
C3784 C3783 1.389 . S
C3784 C3785 1.387 . S
C3785 H3770 0.930 . S
C3785 C3780 1.390 . S
C3785 C3784 1.387 . S
H3786 C3798 0.930 . S
H3787 C3800 0.930 . S
H3788 C3801 0.930 . S
H3789 C3805 0.959 . S
H3790 C3805 0.959 1_655 S
H3791 C3805 0.961 1_655 S
H3792 C3806 0.960 . S
H3793 C3806 0.961 . S
H3794 C3806 0.970 . S
H3795 C3809 0.929 . S
H3796 C3810 0.931 . S
H3797 C3812 0.930 . S
C3798 H3786 0.930 . S
C3798 C3799 1.399 . S
C3798 C3803 1.399 . S
C3799 C3798 1.399 . S
C3799 C3800 1.376 . S
C3800 H3787 0.930 . S
C3800 C3799 1.376 . S
C3800 C3801 1.388 . S
C3801 H3788 0.930 . S
C3801 C3800 1.388 . S
C3801 C3802 1.390 . S
C3802 C3801 1.390 . S
C3802 C3803 1.394 . S
C3802 C3808 1.465 . S
C3803 C3798 1.399 . S
C3803 C3802 1.394 . S
C3803 C3804 1.516 . S
C3804 C3803 1.516 . S
C3804 C3805 1.502 . S
C3804 C3806 1.561 1_455 S
C3804 C3807 1.526 . S
C3805 H3789 0.959 . S
C3805 H3790 0.959 1_455 S
C3805 H3791 0.961 1_455 S
C3805 C3804 1.502 . S
C3806 H3792 0.960 . S
C3806 H3793 0.961 . S
C3806 H3794 0.970 . S
C3806 C3804 1.561 1_655 S
C3807 C3804 1.526 . S
C3807 C3808 1.396 . S
C3807 C3812 1.390 . S
C3808 C3802 1.465 . S
C3808 C3807 1.396 . S
C3808 C3809 1.399 . S
C3809 H3795 0.929 . S
C3809 C3808 1.399 . S
C3809 C3810 1.385 . S
C3810 H3796 0.931 . S
C3810 C3809 1.385 . S
C3810 C3811 1.389 . S
C3811 C3810 1.389 . S
C3811 C3812 1.387 . S
C3812 H3797 0.930 . S
C3812 C3807 1.390 . S
C3812 C3811 1.387 . S
H3813 C3825 0.930 . S
H3814 C3827 0.930 . S
H3815 C3828 0.930 . S
H3816 C3832 0.959 . S
H3817 C3832 0.959 . S
H3818 C3832 0.961 . S
H3819 C3833 0.960 . S
H3820 C3833 0.961 . S
H3821 C3833 0.959 . S
H3822 C3836 0.929 . S
H3823 C3837 0.931 . S
H3824 C3839 0.930 . S
C3825 H3813 0.930 . S
C3825 C3826 1.399 . S
C3825 C3830 1.399 . S
C3826 C3825 1.399 . S
C3826 C3827 1.376 . S
C3827 H3814 0.930 . S
C3827 C3826 1.376 . S
C3827 C3828 1.388 . S
C3828 H3815 0.930 . S
C3828 C3827 1.388 . S
C3828 C3829 1.390 . S
C3829 C3828 1.390 . S
C3829 C3830 1.394 . S
C3829 C3835 1.465 . S
C3830 C3825 1.399 . S
C3830 C3829 1.394 . S
C3830 C3831 1.516 . S
C3831 C3830 1.516 . S
C3831 C3832 1.502 . S
C3831 C3833 1.561 . S
C3831 C3834 1.526 . S
C3832 H3816 0.959 . S
C3832 H3817 0.959 . S
C3832 H3818 0.961 . S
C3832 C3831 1.502 . S
C3833 H3819 0.960 . S
C3833 H3820 0.961 . S
C3833 H3821 0.959 . S
C3833 C3831 1.561 . S
C3834 C3831 1.526 . S
C3834 C3835 1.396 . S
C3834 C3839 1.390 . S
C3835 C3829 1.465 . S
C3835 C3834 1.396 . S
C3835 C3836 1.399 . S
C3836 H3822 0.929 . S
C3836 C3835 1.399 . S
C3836 C3837 1.385 . S
C3837 H3823 0.931 . S
C3837 C3836 1.385 . S
C3837 C3838 1.389 . S
C3838 C3837 1.389 . S
C3838 C3839 1.387 . S
C3839 H3824 0.930 . S
C3839 C3834 1.390 . S
C3839 C3838 1.387 . S
H3840 C3852 0.930 . S
H3841 C3854 0.930 . S
H3842 C3855 0.930 . S
H3843 C3859 0.959 . S
H3844 C3859 0.959 . S
H3845 C3859 0.961 . S
H3846 C3860 0.960 . S
H3847 C3860 0.961 . S
H3848 C3860 0.959 . S
H3849 C3863 0.929 . S
H3850 C3864 0.931 . S
H3851 C3866 0.930 . S
C3852 H3840 0.930 . S
C3852 C3853 1.399 . S
C3852 C3857 1.399 . S
C3853 C3852 1.399 . S
C3853 C3854 1.376 . S
C3854 H3841 0.930 . S
C3854 C3853 1.376 . S
C3854 C3855 1.388 . S
C3855 H3842 0.930 . S
C3855 C3854 1.388 . S
C3855 C3856 1.390 . S
C3856 C3855 1.390 . S
C3856 C3857 1.394 . S
C3856 C3862 1.465 . S
C3857 C3852 1.399 . S
C3857 C3856 1.394 . S
C3857 C3858 1.516 . S
C3858 C3857 1.516 . S
C3858 C3859 1.502 . S
C3858 C3860 1.561 . S
C3858 C3861 1.526 . S
C3859 H3843 0.959 . S
C3859 H3844 0.959 . S
C3859 H3845 0.961 . S
C3859 C3858 1.502 . S
C3860 H3846 0.960 . S
C3860 H3847 0.961 . S
C3860 H3848 0.959 . S
C3860 C3858 1.561 . S
C3861 C3858 1.526 . S
C3861 C3862 1.396 . S
C3861 C3866 1.390 . S
C3862 C3856 1.465 . S
C3862 C3861 1.396 . S
C3862 C3863 1.399 . S
C3863 H3849 0.929 . S
C3863 C3862 1.399 . S
C3863 C3864 1.385 . S
C3864 H3850 0.931 . S
C3864 C3863 1.385 . S
C3864 C3865 1.389 . S
C3865 C3864 1.389 . S
C3865 C3866 1.387 . S
C3866 H3851 0.930 . S
C3866 C3861 1.390 . S
C3866 C3865 1.387 . S
H3867 C3879 0.930 . S
H3868 C3881 0.930 . S
H3869 C3882 0.930 . S
H3870 C3886 0.959 . S
H3871 C3886 0.959 . S
H3872 C3886 0.961 . S
H3873 C3887 0.960 . S
H3874 C3887 0.961 . S
H3875 C3887 0.959 . S
H3876 C3890 0.929 . S
H3877 C3891 0.931 . S
H3878 C3893 0.930 . S
C3879 H3867 0.930 . S
C3879 C3880 1.399 . S
C3879 C3884 1.399 . S
C3880 C3879 1.399 . S
C3880 C3881 1.376 . S
C3881 H3868 0.930 . S
C3881 C3880 1.376 . S
C3881 C3882 1.388 . S
C3882 H3869 0.930 . S
C3882 C3881 1.388 . S
C3882 C3883 1.390 . S
C3883 C3882 1.390 . S
C3883 C3884 1.394 . S
C3883 C3889 1.465 . S
C3884 C3879 1.399 . S
C3884 C3883 1.394 . S
C3884 C3885 1.516 . S
C3885 C3884 1.516 . S
C3885 C3886 1.502 . S
C3885 C3887 1.561 . S
C3885 C3888 1.526 . S
C3886 H3870 0.959 . S
C3886 H3871 0.959 . S
C3886 H3872 0.961 . S
C3886 C3885 1.502 . S
C3887 H3873 0.960 . S
C3887 H3874 0.961 . S
C3887 H3875 0.959 . S
C3887 C3885 1.561 . S
C3888 C3885 1.526 . S
C3888 C3889 1.396 . S
C3888 C3893 1.390 . S
C3889 C3883 1.465 . S
C3889 C3888 1.396 . S
C3889 C3890 1.399 . S
C3890 H3876 0.929 . S
C3890 C3889 1.399 . S
C3890 C3891 1.385 . S
C3891 H3877 0.931 . S
C3891 C3890 1.385 . S
C3891 C3892 1.389 . S
C3892 C3891 1.389 . S
C3892 C3893 1.387 . S
C3893 H3878 0.930 . S
C3893 C3888 1.390 . S
C3893 C3892 1.387 . S
H3894 C3906 0.930 . S
H3895 C3908 0.930 . S
H3896 C3909 0.930 . S
H3897 C3913 0.959 . S
H3898 C3913 0.959 . S
H3899 C3913 0.961 . S
H3900 C3914 0.960 . S
H3901 C3914 0.961 . S
H3902 C3914 0.959 . S
H3903 C3917 0.929 . S
H3904 C3918 0.931 1_455 S
H3905 C3920 0.930 . S
C3906 H3894 0.930 . S
C3906 C3907 1.399 . S
C3906 C3911 1.399 . S
C3907 C3906 1.399 . S
C3907 C3908 1.376 . S
C3908 H3895 0.930 . S
C3908 C3907 1.376 . S
C3908 C3909 1.388 . S
C3909 H3896 0.930 . S
C3909 C3908 1.388 . S
C3909 C3910 1.390 . S
C3910 C3909 1.390 . S
C3910 C3911 1.394 . S
C3910 C3916 1.465 . S
C3911 C3906 1.399 . S
C3911 C3910 1.394 . S
C3911 C3912 1.516 . S
C3912 C3911 1.516 . S
C3912 C3913 1.502 . S
C3912 C3914 1.561 . S
C3912 C3915 1.526 . S
C3913 H3897 0.959 . S
C3913 H3898 0.959 . S
C3913 H3899 0.961 . S
C3913 C3912 1.502 . S
C3914 H3900 0.960 . S
C3914 H3901 0.961 . S
C3914 H3902 0.959 . S
C3914 C3912 1.561 . S
C3915 C3912 1.526 . S
C3915 C3916 1.396 . S
C3915 C3920 1.390 . S
C3916 C3910 1.465 . S
C3916 C3915 1.396 . S
C3916 C3917 1.399 . S
C3917 H3903 0.929 . S
C3917 C3916 1.399 . S
C3917 C3918 1.385 . S
C3918 H3904 0.931 1_655 S
C3918 C3917 1.385 . S
C3918 C3919 1.389 . S
C3919 C3918 1.389 . S
C3919 C3920 1.387 . S
C3920 H3905 0.930 . S
C3920 C3915 1.390 . S
C3920 C3919 1.387 . S
H3921 C3933 0.930 . S
H3922 C3935 0.930 . S
H3923 C3936 0.930 . S
H3924 C3940 0.959 . S
H3925 C3940 0.959 . S
H3926 C3940 0.961 . S
H3927 C3941 0.960 . S
H3928 C3941 0.961 . S
H3929 C3941 0.959 . S
H3930 C3944 0.929 . S
H3931 C3945 0.931 . S
H3932 C3947 0.930 . S
C3933 H3921 0.930 . S
C3933 C3934 1.399 . S
C3933 C3938 1.399 . S
C3934 C3933 1.399 . S
C3934 C3935 1.376 . S
C3935 H3922 0.930 . S
C3935 C3934 1.376 . S
C3935 C3936 1.388 . S
C3936 H3923 0.930 . S
C3936 C3935 1.388 . S
C3936 C3937 1.390 . S
C3937 C3936 1.390 . S
C3937 C3938 1.394 . S
C3937 C3943 1.465 . S
C3938 C3933 1.399 . S
C3938 C3937 1.394 . S
C3938 C3939 1.516 . S
C3939 C3938 1.516 . S
C3939 C3940 1.502 . S
C3939 C3941 1.561 . S
C3939 C3942 1.526 . S
C3940 H3924 0.959 . S
C3940 H3925 0.959 . S
C3940 H3926 0.961 . S
C3940 C3939 1.502 . S
C3941 H3927 0.960 . S
C3941 H3928 0.961 . S
C3941 H3929 0.959 . S
C3941 C3939 1.561 . S
C3942 C3939 1.526 . S
C3942 C3943 1.396 . S
C3942 C3947 1.390 . S
C3943 C3937 1.465 . S
C3943 C3942 1.396 . S
C3943 C3944 1.399 . S
C3944 H3930 0.929 . S
C3944 C3943 1.399 . S
C3944 C3945 1.385 . S
C3945 H3931 0.931 . S
C3945 C3944 1.385 . S
C3945 C3946 1.389 . S
C3946 C3945 1.389 . S
C3946 C3947 1.387 . S
C3947 H3932 0.930 . S
C3947 C3942 1.390 . S
C3947 C3946 1.387 . S
H3948 C3960 0.930 . S
H3949 C3962 0.930 . S
H3950 C3963 0.930 . S
H3951 C3967 0.959 . S
H3952 C3967 0.959 . S
H3953 C3967 0.961 . S
H3954 C3968 0.960 . S
H3955 C3968 0.961 . S
H3956 C3968 0.959 . S
H3957 C3971 0.929 . S
H3958 C3972 0.931 . S
H3959 C3974 0.930 . S
C3960 H3948 0.930 . S
C3960 C3961 1.399 . S
C3960 C3965 1.399 . S
C3961 C3960 1.399 . S
C3961 C3962 1.376 . S
C3962 H3949 0.930 . S
C3962 C3961 1.376 . S
C3962 C3963 1.388 . S
C3963 H3950 0.930 . S
C3963 C3962 1.388 . S
C3963 C3964 1.390 . S
C3964 C3963 1.390 . S
C3964 C3965 1.394 . S
C3964 C3970 1.465 . S
C3965 C3960 1.399 . S
C3965 C3964 1.394 . S
C3965 C3966 1.516 . S
C3966 C3965 1.516 . S
C3966 C3967 1.502 . S
C3966 C3968 1.561 . S
C3966 C3969 1.526 . S
C3967 H3951 0.959 . S
C3967 H3952 0.959 . S
C3967 H3953 0.961 . S
C3967 C3966 1.502 . S
C3968 H3954 0.960 . S
C3968 H3955 0.961 . S
C3968 H3956 0.959 . S
C3968 C3966 1.561 . S
C3969 C3966 1.526 . S
C3969 C3970 1.396 . S
C3969 C3974 1.390 . S
C3970 C3964 1.465 . S
C3970 C3969 1.396 . S
C3970 C3971 1.399 . S
C3971 H3957 0.929 . S
C3971 C3970 1.399 . S
C3971 C3972 1.385 . S
C3972 H3958 0.931 . S
C3972 C3971 1.385 . S
C3972 C3973 1.389 . S
C3973 C3972 1.389 . S
C3973 C3974 1.387 . S
C3974 H3959 0.930 . S
C3974 C3969 1.390 . S
C3974 C3973 1.387 . S
H3975 C3987 0.930 . S
H3976 C3989 0.930 . S
H3977 C3990 0.930 . S
H3978 C3994 0.959 . S
H3979 C3994 0.959 . S
H3980 C3994 0.961 . S
H3981 C3995 0.960 . S
H3982 C3995 0.961 . S
H3983 C3995 0.959 . S
H3984 C3998 0.929 . S
H3985 C3999 0.931 . S
H3986 C4001 0.930 . S
C3987 H3975 0.930 . S
C3987 C3988 1.399 . S
C3987 C3992 1.399 . S
C3988 C3987 1.399 . S
C3988 C3989 1.376 . S
C3989 H3976 0.930 . S
C3989 C3988 1.376 . S
C3989 C3990 1.388 . S
C3990 H3977 0.930 . S
C3990 C3989 1.388 . S
C3990 C3991 1.390 . S
C3991 C3990 1.390 . S
C3991 C3992 1.394 . S
C3991 C3997 1.465 . S
C3992 C3987 1.399 . S
C3992 C3991 1.394 . S
C3992 C3993 1.516 . S
C3993 C3992 1.516 . S
C3993 C3994 1.502 . S
C3993 C3995 1.561 . S
C3993 C3996 1.526 . S
C3994 H3978 0.959 . S
C3994 H3979 0.959 . S
C3994 H3980 0.961 . S
C3994 C3993 1.502 . S
C3995 H3981 0.960 . S
C3995 H3982 0.961 . S
C3995 H3983 0.959 . S
C3995 C3993 1.561 . S
C3996 C3993 1.526 . S
C3996 C3997 1.396 . S
C3996 C4001 1.390 . S
C3997 C3991 1.465 . S
C3997 C3996 1.396 . S
C3997 C3998 1.399 . S
C3998 H3984 0.929 . S
C3998 C3997 1.399 . S
C3998 C3999 1.385 . S
C3999 H3985 0.931 . S
C3999 C3998 1.385 . S
C3999 C4000 1.389 . S
C4000 C3999 1.389 . S
C4000 C4001 1.387 . S
C4001 H3986 0.930 . S
C4001 C3996 1.390 . S
C4001 C4000 1.387 . S
H4002 C4014 0.930 . S
H4003 C4016 0.930 . S
H4004 C4017 0.930 . S
H4005 C4021 0.959 . S
H4006 C4021 0.959 . S
H4007 C4021 0.961 . S
H4008 C4022 0.960 . S
H4009 C4022 0.961 . S
H4010 C4022 0.959 . S
H4011 C4025 0.929 . S
H4012 C4026 0.931 . S
H4013 C4028 0.930 . S
C4014 H4002 0.930 . S
C4014 C4015 1.399 . S
C4014 C4019 1.399 . S
C4015 C4014 1.399 . S
C4015 C4016 1.376 . S
C4016 H4003 0.930 . S
C4016 C4015 1.376 . S
C4016 C4017 1.388 . S
C4017 H4004 0.930 . S
C4017 C4016 1.388 . S
C4017 C4018 1.390 . S
C4018 C4017 1.390 . S
C4018 C4019 1.394 . S
C4018 C4024 1.465 . S
C4019 C4014 1.399 . S
C4019 C4018 1.394 . S
C4019 C4020 1.516 . S
C4020 C4019 1.516 . S
C4020 C4021 1.502 . S
C4020 C4022 1.561 . S
C4020 C4023 1.526 . S
C4021 H4005 0.959 . S
C4021 H4006 0.959 . S
C4021 H4007 0.961 . S
C4021 C4020 1.502 . S
C4022 H4008 0.960 . S
C4022 H4009 0.961 . S
C4022 H4010 0.959 . S
C4022 C4020 1.561 . S
C4023 C4020 1.526 . S
C4023 C4024 1.396 . S
C4023 C4028 1.390 . S
C4024 C4018 1.465 . S
C4024 C4023 1.396 . S
C4024 C4025 1.399 . S
C4025 H4011 0.929 . S
C4025 C4024 1.399 . S
C4025 C4026 1.385 . S
C4026 H4012 0.931 . S
C4026 C4025 1.385 . S
C4026 C4027 1.389 . S
C4027 C4026 1.389 . S
C4027 C4028 1.387 . S
C4028 H4013 0.930 . S
C4028 C4023 1.390 . S
C4028 C4027 1.387 . S
H4029 C4041 0.930 . S
H4030 C4043 0.930 . S
H4031 C4044 0.930 . S
H4032 C4048 0.959 . S
H4033 C4048 0.959 . S
H4034 C4048 0.961 . S
H4035 C4049 0.960 . S
H4036 C4049 0.961 . S
H4037 C4049 0.959 . S
H4038 C4052 0.929 . S
H4039 C4053 0.931 . S
H4040 C4055 0.930 . S
C4041 H4029 0.930 . S
C4041 C4042 1.399 . S
C4041 C4046 1.399 . S
C4042 C4041 1.399 . S
C4042 C4043 1.376 . S
C4043 H4030 0.930 . S
C4043 C4042 1.376 . S
C4043 C4044 1.388 . S
C4044 H4031 0.930 . S
C4044 C4043 1.388 . S
C4044 C4045 1.390 . S
C4045 C4044 1.390 . S
C4045 C4046 1.394 . S
C4045 C4051 1.465 . S
C4046 C4041 1.399 . S
C4046 C4045 1.394 . S
C4046 C4047 1.516 . S
C4047 C4046 1.516 . S
C4047 C4048 1.502 . S
C4047 C4049 1.561 . S
C4047 C4050 1.526 . S
C4048 H4032 0.959 . S
C4048 H4033 0.959 . S
C4048 H4034 0.961 . S
C4048 C4047 1.502 . S
C4049 H4035 0.960 . S
C4049 H4036 0.961 . S
C4049 H4037 0.959 . S
C4049 C4047 1.561 . S
C4050 C4047 1.526 . S
C4050 C4051 1.396 . S
C4050 C4055 1.390 . S
C4051 C4045 1.465 . S
C4051 C4050 1.396 . S
C4051 C4052 1.399 . S
C4052 H4038 0.929 . S
C4052 C4051 1.399 . S
C4052 C4053 1.385 . S
C4053 H4039 0.931 . S
C4053 C4052 1.385 . S
C4053 C4054 1.389 . S
C4054 C4053 1.389 . S
C4054 C4055 1.387 . S
C4055 H4040 0.930 . S
C4055 C4050 1.390 . S
C4055 C4054 1.387 . S
H4056 C4068 0.930 . S
H4057 C4070 0.930 . S
H4058 C4071 0.930 . S
H4059 C4075 0.959 . S
H4060 C4075 0.959 . S
H4061 C4075 0.961 . S
H4062 C4076 0.960 . S
H4063 C4076 0.961 . S
H4064 C4076 0.959 . S
H4065 C4079 0.929 . S
H4066 C4080 0.931 . S
H4067 C4082 0.930 . S
C4068 H4056 0.930 . S
C4068 C4069 1.399 . S
C4068 C4073 1.399 . S
C4069 C4068 1.399 . S
C4069 C4070 1.376 . S
C4070 H4057 0.930 . S
C4070 C4069 1.376 . S
C4070 C4071 1.388 . S
C4071 H4058 0.930 . S
C4071 C4070 1.388 . S
C4071 C4072 1.390 . S
C4072 C4071 1.390 . S
C4072 C4073 1.394 . S
C4072 C4078 1.465 . S
C4073 C4068 1.399 . S
C4073 C4072 1.394 . S
C4073 C4074 1.516 . S
C4074 C4073 1.516 . S
C4074 C4075 1.502 . S
C4074 C4076 1.561 . S
C4074 C4077 1.526 . S
C4075 H4059 0.959 . S
C4075 H4060 0.959 . S
C4075 H4061 0.961 . S
C4075 C4074 1.502 . S
C4076 H4062 0.960 . S
C4076 H4063 0.961 . S
C4076 H4064 0.959 . S
C4076 C4074 1.561 . S
C4077 C4074 1.526 . S
C4077 C4078 1.396 . S
C4077 C4082 1.390 . S
C4078 C4072 1.465 . S
C4078 C4077 1.396 . S
C4078 C4079 1.399 . S
C4079 H4065 0.929 . S
C4079 C4078 1.399 . S
C4079 C4080 1.385 . S
C4080 H4066 0.931 . S
C4080 C4079 1.385 . S
C4080 C4081 1.389 . S
C4081 C4080 1.389 . S
C4081 C4082 1.387 . S
C4082 H4067 0.930 . S
C4082 C4077 1.390 . S
C4082 C4081 1.387 . S
H4083 C4095 0.930 . S
H4084 C4097 0.930 . S
H4085 C4098 0.930 . S
H4086 C4102 0.959 . S
H4087 C4102 0.959 . S
H4088 C4102 0.961 . S
H4089 C4103 0.960 . S
H4090 C4103 0.961 . S
H4091 C4103 0.959 . S
H4092 C4106 0.929 . S
H4093 C4107 0.931 . S
H4094 C4109 0.930 . S
C4095 H4083 0.930 . S
C4095 C4096 1.399 . S
C4095 C4100 1.399 . S
C4096 C4095 1.399 . S
C4096 C4097 1.376 . S
C4097 H4084 0.930 . S
C4097 C4096 1.376 . S
C4097 C4098 1.388 . S
C4098 H4085 0.930 . S
C4098 C4097 1.388 . S
C4098 C4099 1.390 . S
C4099 C4098 1.390 . S
C4099 C4100 1.394 . S
C4099 C4105 1.465 . S
C4100 C4095 1.399 . S
C4100 C4099 1.394 . S
C4100 C4101 1.516 . S
C4101 C4100 1.516 . S
C4101 C4102 1.502 . S
C4101 C4103 1.561 . S
C4101 C4104 1.526 . S
C4102 H4086 0.959 . S
C4102 H4087 0.959 . S
C4102 H4088 0.961 . S
C4102 C4101 1.502 . S
C4103 H4089 0.960 . S
C4103 H4090 0.961 . S
C4103 H4091 0.959 . S
C4103 C4101 1.561 . S
C4104 C4101 1.526 . S
C4104 C4105 1.396 . S
C4104 C4109 1.390 . S
C4105 C4099 1.465 . S
C4105 C4104 1.396 . S
C4105 C4106 1.399 . S
C4106 H4092 0.929 . S
C4106 C4105 1.399 . S
C4106 C4107 1.385 . S
C4107 H4093 0.931 . S
C4107 C4106 1.385 . S
C4107 C4108 1.389 . S
C4108 C4107 1.389 . S
C4108 C4109 1.387 . S
C4109 H4094 0.930 . S
C4109 C4104 1.390 . S
C4109 C4108 1.387 . S
H4110 C4122 0.930 . S
H4111 C4124 0.930 . S
H4112 C4125 0.930 . S
H4113 C4129 0.959 . S
H4114 C4129 0.959 . S
H4115 C4129 0.961 . S
H4116 C4130 0.960 . S
H4117 C4130 0.961 . S
H4118 C4130 0.959 . S
H4119 C4133 0.929 . S
H4120 C4134 0.931 . S
H4121 C4136 0.930 . S
C4122 H4110 0.930 . S
C4122 C4123 1.399 . S
C4122 C4127 1.399 . S
C4123 C4122 1.399 . S
C4123 C4124 1.376 . S
C4124 H4111 0.930 . S
C4124 C4123 1.376 . S
C4124 C4125 1.388 . S
C4125 H4112 0.930 . S
C4125 C4124 1.388 . S
C4125 C4126 1.390 . S
C4126 C4125 1.390 . S
C4126 C4127 1.394 . S
C4126 C4132 1.465 . S
C4127 C4122 1.399 . S
C4127 C4126 1.394 . S
C4127 C4128 1.516 . S
C4128 C4127 1.516 . S
C4128 C4129 1.502 . S
C4128 C4130 1.561 . S
C4128 C4131 1.526 . S
C4129 H4113 0.959 . S
C4129 H4114 0.959 . S
C4129 H4115 0.961 . S
C4129 C4128 1.502 . S
C4130 H4116 0.960 . S
C4130 H4117 0.961 . S
C4130 H4118 0.959 . S
C4130 C4128 1.561 . S
C4131 C4128 1.526 . S
C4131 C4132 1.396 . S
C4131 C4136 1.390 . S
C4132 C4126 1.465 . S
C4132 C4131 1.396 . S
C4132 C4133 1.399 . S
C4133 H4119 0.929 . S
C4133 C4132 1.399 . S
C4133 C4134 1.385 . S
C4134 H4120 0.931 . S
C4134 C4133 1.385 . S
C4134 C4135 1.389 . S
C4135 C4134 1.389 . S
C4135 C4136 1.387 . S
C4136 H4121 0.930 . S
C4136 C4131 1.390 . S
C4136 C4135 1.387 . S
H4137 C4149 0.930 . S
H4138 C4151 0.930 . S
H4139 C4152 0.930 . S
H4140 C4156 0.959 . S
H4141 C4156 0.959 . S
H4142 C4156 0.961 . S
H4143 C4157 0.947 1_556 S
H4144 C4157 0.961 1_556 S
H4145 C4157 0.959 . S
H4146 C4160 0.929 . S
H4147 C4161 0.931 . S
H4148 C4163 0.930 . S
C4149 H4137 0.930 . S
C4149 C4150 1.399 . S
C4149 C4154 1.399 . S
C4150 C4149 1.399 . S
C4150 C4151 1.376 . S
C4151 H4138 0.930 . S
C4151 C4150 1.376 . S
C4151 C4152 1.388 . S
C4152 H4139 0.930 . S
C4152 C4151 1.388 . S
C4152 C4153 1.390 . S
C4153 C4152 1.390 . S
C4153 C4154 1.394 . S
C4153 C4159 1.465 . S
C4154 C4149 1.399 . S
C4154 C4153 1.394 . S
C4154 C4155 1.516 . S
C4155 C4154 1.516 . S
C4155 C4156 1.502 1_554 S
C4155 C4157 1.561 . S
C4155 C4158 1.526 . S
C4156 H4140 0.959 . S
C4156 H4141 0.959 . S
C4156 H4142 0.961 . S
C4156 C4155 1.502 1_556 S
C4157 H4143 0.947 1_554 S
C4157 H4144 0.961 1_554 S
C4157 H4145 0.959 . S
C4157 C4155 1.561 . S
C4158 C4155 1.526 . S
C4158 C4159 1.396 . S
C4158 C4163 1.390 . S
C4159 C4153 1.465 . S
C4159 C4158 1.396 . S
C4159 C4160 1.399 . S
C4160 H4146 0.929 . S
C4160 C4159 1.399 . S
C4160 C4161 1.385 . S
C4161 H4147 0.931 . S
C4161 C4160 1.385 . S
C4161 C4162 1.389 . S
C4162 C4161 1.389 . S
C4162 C4163 1.387 . S
C4163 H4148 0.930 . S
C4163 C4158 1.390 . S
C4163 C4162 1.387 . S
H4164 C4176 0.930 . S
H4165 C4178 0.930 . S
H4166 C4179 0.930 . S
H4167 C4183 0.959 . S
H4168 C4183 0.959 . S
H4169 C4183 0.961 . S
H4170 C4184 0.960 . S
H4171 C4184 0.961 . S
H4172 C4184 0.959 . S
H4173 C4187 0.929 . S
H4174 C4188 0.931 . S
H4175 C4190 0.930 . S
C4176 H4164 0.930 . S
C4176 C4177 1.399 . S
C4176 C4181 1.399 . S
C4177 C4176 1.399 . S
C4177 C4178 1.376 . S
C4178 H4165 0.930 . S
C4178 C4177 1.376 . S
C4178 C4179 1.388 . S
C4179 H4166 0.930 . S
C4179 C4178 1.388 . S
C4179 C4180 1.390 . S
C4180 C4179 1.390 . S
C4180 C4181 1.394 . S
C4180 C4186 1.465 . S
C4181 C4176 1.399 . S
C4181 C4180 1.394 . S
C4181 C4182 1.516 . S
C4182 C4181 1.516 . S
C4182 C4183 1.502 . S
C4182 C4184 1.561 . S
C4182 C4185 1.526 . S
C4183 H4167 0.959 . S
C4183 H4168 0.959 . S
C4183 H4169 0.961 . S
C4183 C4182 1.502 . S
C4184 H4170 0.960 . S
C4184 H4171 0.961 . S
C4184 H4172 0.959 . S
C4184 C4182 1.561 . S
C4185 C4182 1.526 . S
C4185 C4186 1.396 . S
C4185 C4190 1.390 . S
C4186 C4180 1.465 . S
C4186 C4185 1.396 . S
C4186 C4187 1.399 . S
C4187 H4173 0.929 . S
C4187 C4186 1.399 . S
C4187 C4188 1.385 . S
C4188 H4174 0.931 . S
C4188 C4187 1.385 . S
C4188 C4189 1.389 . S
C4189 C4188 1.389 . S
C4189 C4190 1.387 . S
C4190 H4175 0.930 . S
C4190 C4185 1.390 . S
C4190 C4189 1.387 . S
H4191 C4203 0.930 . S
H4192 C4205 0.930 . S
H4193 C4206 0.930 . S
H4194 C4210 0.930 1_554 S
H4195 C4210 0.988 . S
H4196 C4210 0.979 . S
H4197 C4211 0.960 . S
H4198 C4211 0.961 . S
H4199 C4211 0.959 . S
H4200 C4214 0.929 . S
H4201 C4215 0.931 . S
H4202 C4217 0.930 1_556 S
C4203 H4191 0.930 . S
C4203 C4204 1.399 . S
C4203 C4208 1.399 . S
C4204 C4203 1.399 . S
C4204 C4205 1.376 . S
C4205 H4192 0.930 . S
C4205 C4204 1.376 . S
C4205 C4206 1.388 . S
C4206 H4193 0.930 . S
C4206 C4205 1.388 . S
C4206 C4207 1.390 . S
C4207 C4206 1.390 . S
C4207 C4208 1.394 . S
C4207 C4213 1.465 . S
C4208 C4203 1.399 . S
C4208 C4207 1.394 . S
C4208 C4209 1.516 . S
C4209 C4208 1.516 . S
C4209 C4210 1.484 1_554 S
C4209 C4211 1.561 1_554 S
C4209 C4212 1.526 . S
C4210 H4194 0.930 1_556 S
C4210 H4195 0.988 . S
C4210 H4196 0.979 . S
C4210 C4209 1.484 1_556 S
C4211 H4197 0.960 . S
C4211 H4198 0.961 . S
C4211 H4199 0.959 . S
C4211 C4209 1.561 1_556 S
C4212 C4209 1.526 . S
C4212 C4213 1.396 . S
C4212 C4217 1.390 . S
C4213 C4207 1.465 . S
C4213 C4212 1.396 . S
C4213 C4214 1.399 . S
C4214 H4200 0.929 . S
C4214 C4213 1.399 . S
C4214 C4215 1.385 . S
C4215 H4201 0.931 . S
C4215 C4214 1.385 . S
C4215 C4216 1.389 . S
C4216 C4215 1.389 . S
C4216 C4217 1.387 . S
C4217 H4202 0.930 1_554 S
C4217 C4212 1.390 . S
C4217 C4216 1.387 . S
H4218 C4230 0.930 . S
H4219 C4232 0.930 . S
H4220 C4233 0.930 . S
H4221 C4237 0.959 . S
H4222 C4237 0.959 . S
H4223 C4237 0.961 . S
H4224 C4238 0.960 . S
H4225 C4238 0.961 . S
H4226 C4238 0.959 . S
H4227 C4241 0.929 . S
H4228 C4242 0.931 . S
H4229 C4244 0.930 . S
C4230 H4218 0.930 . S
C4230 C4231 1.399 . S
C4230 C4235 1.399 . S
C4231 C4230 1.399 . S
C4231 C4232 1.376 . S
C4232 H4219 0.930 . S
C4232 C4231 1.376 . S
C4232 C4233 1.388 . S
C4233 H4220 0.930 . S
C4233 C4232 1.388 . S
C4233 C4234 1.390 . S
C4234 C4233 1.390 . S
C4234 C4235 1.394 . S
C4234 C4240 1.465 . S
C4235 C4230 1.399 . S
C4235 C4234 1.394 . S
C4235 C4236 1.516 . S
C4236 C4235 1.516 . S
C4236 C4237 1.502 . S
C4236 C4238 1.561 . S
C4236 C4239 1.526 . S
C4237 H4221 0.959 . S
C4237 H4222 0.959 . S
C4237 H4223 0.961 . S
C4237 C4236 1.502 . S
C4238 H4224 0.960 . S
C4238 H4225 0.961 . S
C4238 H4226 0.959 . S
C4238 C4236 1.561 . S
C4239 C4236 1.526 . S
C4239 C4240 1.396 . S
C4239 C4244 1.390 . S
C4240 C4234 1.465 . S
C4240 C4239 1.396 . S
C4240 C4241 1.399 . S
C4241 H4227 0.929 . S
C4241 C4240 1.399 . S
C4241 C4242 1.385 . S
C4242 H4228 0.931 . S
C4242 C4241 1.385 . S
C4242 C4243 1.389 . S
C4243 C4242 1.389 . S
C4243 C4244 1.387 . S
C4244 H4229 0.930 . S
C4244 C4239 1.390 . S
C4244 C4243 1.387 . S
H4245 C4257 0.930 . S
H4246 C4259 0.930 . S
H4247 C4260 0.930 . S
H4248 C4264 0.959 . S
H4249 C4264 0.959 . S
H4250 C4264 0.961 . S
H4251 C4265 0.960 . S
H4252 C4265 0.961 . S
H4253 C4265 0.959 . S
H4254 C4268 0.929 . S
H4255 C4269 0.931 . S
H4256 C4271 0.930 . S
C4257 H4245 0.930 . S
C4257 C4258 1.399 . S
C4257 C4262 1.399 . S
C4258 C4257 1.399 . S
C4258 C4259 1.376 . S
C4259 H4246 0.930 . S
C4259 C4258 1.376 . S
C4259 C4260 1.388 . S
C4260 H4247 0.930 . S
C4260 C4259 1.388 . S
C4260 C4261 1.390 . S
C4261 C4260 1.390 . S
C4261 C4262 1.394 . S
C4261 C4267 1.465 . S
C4262 C4257 1.399 . S
C4262 C4261 1.394 . S
C4262 C4263 1.516 . S
C4263 C4262 1.516 . S
C4263 C4264 1.502 . S
C4263 C4265 1.561 . S
C4263 C4266 1.526 . S
C4264 H4248 0.959 . S
C4264 H4249 0.959 . S
C4264 H4250 0.961 . S
C4264 C4263 1.502 . S
C4265 H4251 0.960 . S
C4265 H4252 0.961 . S
C4265 H4253 0.959 . S
C4265 C4263 1.561 . S
C4266 C4263 1.526 . S
C4266 C4267 1.396 . S
C4266 C4271 1.390 . S
C4267 C4261 1.465 . S
C4267 C4266 1.396 . S
C4267 C4268 1.399 . S
C4268 H4254 0.929 . S
C4268 C4267 1.399 . S
C4268 C4269 1.385 . S
C4269 H4255 0.931 . S
C4269 C4268 1.385 . S
C4269 C4270 1.389 . S
C4270 C4269 1.389 . S
C4270 C4271 1.387 . S
C4271 H4256 0.930 . S
C4271 C4266 1.390 . S
C4271 C4270 1.387 . S
C1693 C111 2.064 1_455 S
C1705 C392 2.088 . S
C1720 C64 1.875 . S
C1732 C494 1.911 . S
C1747 C77 1.787 . S
C1759 C560 1.787 . S
C1786 C646 1.280 . S
C1774 C95 1.311 . S
C1801 C25 1.339 . S
C1813 C730 1.222 . S
C1840 C812 1.876 . S
C1828 C36 1.721 . S
C1867 C914 1.885 . S
C1855 C50 1.794 . S
C1882 C11 2.013 . S
C1894 C980 2.011 . S
C1921 C410 1.627 . S
C1909 C237 1.623 . S
C1936 C245 0.905 . S
C1948 C478 0.863 . S
C1975 C578 0.985 . S
C1963 C279 0.901 . S
C2002 C644 1.551 . S
C1990 C175 1.504 1_556 S
C2017 C231 1.521 . S
C2029 C728 1.502 . S
C2056 C830 1.048 . S
C2044 C251 0.994 . S
C2083 C898 0.810 . S
C2071 C273 0.926 . S
C2110 C998 1.600 . S
C2098 C181 1.600 . S
C2137 C394 0.854 . S
C2125 C165 0.900 1_554 S
C2152 C288 1.641 . S
C2164 C1082 1.676 . S
C2191 C1150 1.307 . S
C2179 C333 1.328 . S
C2218 C1232 0.770 . S
C2206 C316 0.769 . S
C2233 C123 0.916 . S
C2245 C982 0.945 . S
C2260 C137 1.299 . S
C2272 C562 1.174 . S
C2287 C330 1.613 . S
C2299 C1334 1.640 . S
C2326 C1400 0.813 . S
C2314 C302 0.764 . S
C2353 C403 2.204 . S
C2341 C63 2.218 . S
C2380 C1407 1.950 . S
C2368 C106 1.934 . S
C2395 C97 1.788 . S
C2407 C571 1.879 . S
C2422 C81 1.381 . S
C2434 C1329 1.330 . S
C2461 C741 1.381 . S
C2449 C13 1.395 . S
C2476 C55 1.781 . S
C2488 C1159 1.875 . S
C2515 C903 1.874 1_556 S
C2503 C35 1.866 . S
C2542 C1495 2.213 . S
C2530 C21 2.202 . S
C2569 C399 1.722 . S
C2557 C147 1.784 . S
C2596 C1413 0.952 . S
C2584 C321 0.945 . S
C2611 C119 1.085 . S
C2623 C567 1.041 . S
C2638 C293 1.587 . S
C2650 C1327 1.660 . S
C2665 C153 1.619 . S
C2677 C739 1.652 . S
C2704 C1155 1.120 . S
C2692 C315 1.108 . S
C2719 C125 0.824 . S
C2731 C909 0.781 . S
C2746 C287 1.768 . S
C2758 C1491 1.736 . S
C2773 C193 1.014 . S
C2785 C405 0.988 . S
C2800 C176 1.686 . S
C2812 C1071 1.694 . S
C2827 C263 1.280 . S
C2839 C825 1.205 . S
C2854 C246 0.913 . S
C2866 C1243 0.951 . S
C2893 C1497 0.979 . S
C2881 C277 0.942 . S
C2908 C221 1.316 . S
C2920 C573 1.288 . S
C2947 C651 1.714 . S
C2935 C260 1.705 . S
C2974 C487 0.934 . S
C2962 C204 0.938 . S
C2989 C83 2.056 . S
C3001 C1568 2.083 . S
C3028 C1418 1.893 . S
C3016 C92 1.817 . S
C3043 C105 1.781 . S
C3055 C1652 1.787 . S
C3070 C67 1.325 . S
C3082 C1318 1.176 . S
C3097 C53 1.345 . S
C3109 C1066 1.187 . S
C3136 C1148 1.861 . S
C3124 C8 1.778 1_655 S
C3163 C1250 1.902 . S
C3151 C22 1.840 . S
C3190 C1484 2.005 . S
C3178 C39 2.015 . S
C3217 C1586 1.628 . S
C3205 C265 1.623 . S
C3232 C189 0.899 . S
C3244 C1402 0.899 . S
C3271 C1670 1.058 . S
C3259 C209 1.051 . S
C3298 C1316 1.551 . S
C3286 C217 1.555 . S
C3325 C1064 1.502 . S
C3313 C259 1.521 . S
C3340 C195 0.994 . S
C3352 C1166 1.049 . S
C3379 C1234 0.951 . S
C3367 C203 0.892 . S
C3394 C223 1.576 . S
C3406 C1502 1.590 . S
C3433 C1570 0.967 . S
C3421 C319 0.941 . S
C3448 C134 1.630 . S
C3460 C746 1.681 . S
C3487 C814 1.308 . S
C3475 C151 1.328 1_565 S
C3514 C896 0.802 . S
C3502 C162 0.754 . S
C3541 C1486 0.819 . S
C3529 C305 0.878 . S
C3556 C291 1.299 . S
C3568 C1654 1.173 . S
C3595 C662 1.641 . S
C3583 C148 1.618 . S
C3622 C476 0.809 . S
C3610 C120 0.822 . S
C3637 C91 2.216 . S
C3649 C1579 2.208 . S
C3676 C483 1.949 . S
C3664 C78 1.959 . S
C3691 C69 1.831 . S
C3703 C1663 1.861 . S
C3718 C109 1.371 . S
C3730 C657 1.308 . S
C3745 C41 1.357 . S
C3757 C1077 1.347 . S
C3784 C823 1.865 . S
C3772 C27 1.839 . S
C3799 C7 1.844 . S
C3811 C1239 1.866 . S
C3826 C49 2.190 . S
C3838 C991 2.213 . S
C3865 C1575 1.736 . S
C3853 C329 1.772 . S
C3880 C167 0.878 . S
C3892 C489 0.826 . S
C3919 C1659 1.107 1_655 S
C3907 C301 1.072 . S
C3934 C139 1.604 . S
C3946 C655 1.642 . S
C3961 C335 1.541 . S
C3973 C1075 1.660 . S
C4000 C819 1.101 . S
C3988 C161 1.127 . S
C4015 C307 0.958 . S
C4027 C1245 0.949 . S
C4054 C987 1.687 . S
C4042 C133 1.774 . S
C4081 C1581 0.901 . S
C4069 C249 0.904 . S
C4108 C735 1.672 1_565 S
C4096 C218 1.671 . S
C4123 C235 1.269 . S
C4135 C1161 1.193 . S
C4162 C907 0.961 . S
C4150 C190 0.903 . S
C4177 C207 0.979 . S
C4189 C993 1.006 . S
C4204 C179 1.315 . S
C4216 C1665 1.287 . S
C4243 C1323 1.683 . S
C4231 C232 1.720 . S
C4270 C1411 0.938 . S
C4258 C274 0.885 . S
