# Generated by pormake.
# Topology fgl, (4,4)-cn, num edge types: 1
# Building blocks:
#     Node 0, Type 0, BuildingBlock: ESEHIV_clean_sbu_0, # of connection points: 4
#     Node 1, Type 0, BuildingBlock: ESEHIV_clean_sbu_0, # of connection points: 4
#     Node 2, Type 0, BuildingBlock: ESEHIV_clean_sbu_0, # of connection points: 4
#     Node 3, Type 0, BuildingBlock: ESEHIV_clean_sbu_0, # of connection points: 4
#     Node 4, Type 0, BuildingBlock: ESEHIV_clean_sbu_0, # of connection points: 4
#     Node 5, Type 0, BuildingBlock: ESEHIV_clean_sbu_0, # of connection points: 4
#     Node 6, Type 0, BuildingBlock: ESEHIV_clean_sbu_0, # of connection points: 4
#     Node 7, Type 0, BuildingBlock: ESEHIV_clean_sbu_0, # of connection points: 4
#     Node 8, Type 0, BuildingBlock: ESEHIV_clean_sbu_0, # of connection points: 4
#     Node 9, Type 0, BuildingBlock: ESEHIV_clean_sbu_0, # of connection points: 4
#     Node 10, Type 0, BuildingBlock: ESEHIV_clean_sbu_0, # of connection points: 4
#     Node 11, Type 0, BuildingBlock: ESEHIV_clean_sbu_0, # of connection points: 4
#     Node 12, Type 0, BuildingBlock: ESEHIV_clean_sbu_0, # of connection points: 4
#     Node 13, Type 0, BuildingBlock: ESEHIV_clean_sbu_0, # of connection points: 4
#     Node 14, Type 0, BuildingBlock: ESEHIV_clean_sbu_0, # of connection points: 4
#     Node 15, Type 0, BuildingBlock: ESEHIV_clean_sbu_0, # of connection points: 4
#     Node 16, Type 0, BuildingBlock: ESEHIV_clean_sbu_0, # of connection points: 4
#     Node 17, Type 0, BuildingBlock: ESEHIV_clean_sbu_0, # of connection points: 4
#     Node 18, Type 1, BuildingBlock: GALJAG_clean_sbu_0, # of connection points: 4
#     Node 19, Type 1, BuildingBlock: GALJAG_clean_sbu_0, # of connection points: 4
#     Node 20, Type 1, BuildingBlock: GALJAG_clean_sbu_0, # of connection points: 4
#     Node 21, Type 1, BuildingBlock: GALJAG_clean_sbu_0, # of connection points: 4
#     Node 22, Type 1, BuildingBlock: GALJAG_clean_sbu_0, # of connection points: 4
#     Node 23, Type 1, BuildingBlock: GALJAG_clean_sbu_0, # of connection points: 4
#     Node 24, Type 1, BuildingBlock: GALJAG_clean_sbu_0, # of connection points: 4
#     Node 25, Type 1, BuildingBlock: GALJAG_clean_sbu_0, # of connection points: 4
#     Node 26, Type 1, BuildingBlock: GALJAG_clean_sbu_0, # of connection points: 4
#     Node 27, Type 1, BuildingBlock: GALJAG_clean_sbu_0, # of connection points: 4
#     Node 28, Type 1, BuildingBlock: GALJAG_clean_sbu_0, # of connection points: 4
#     Node 29, Type 1, BuildingBlock: GALJAG_clean_sbu_0, # of connection points: 4
#     Node 30, Type 1, BuildingBlock: GALJAG_clean_sbu_0, # of connection points: 4
#     Node 31, Type 1, BuildingBlock: GALJAG_clean_sbu_0, # of connection points: 4
#     Node 32, Type 1, BuildingBlock: GALJAG_clean_sbu_0, # of connection points: 4
#     Node 33, Type 1, BuildingBlock: GALJAG_clean_sbu_0, # of connection points: 4
#     Node 34, Type 1, BuildingBlock: GALJAG_clean_sbu_0, # of connection points: 4
#     Node 35, Type 1, BuildingBlock: GALJAG_clean_sbu_0, # of connection points: 4
#     Edge 36, Type (0, 1), BuildingBlock: AJUNOK_clean_linker_0, # of connection points: 2
#     Edge 37, Type (0, 1), BuildingBlock: AJUNOK_clean_linker_0, # of connection points: 2
#     Edge 38, Type (0, 1), BuildingBlock: AJUNOK_clean_linker_0, # of connection points: 2
#     Edge 39, Type (0, 1), BuildingBlock: AJUNOK_clean_linker_0, # of connection points: 2
#     Edge 40, Type (0, 1), BuildingBlock: AJUNOK_clean_linker_0, # of connection points: 2
#     Edge 41, Type (0, 1), BuildingBlock: AJUNOK_clean_linker_0, # of connection points: 2
#     Edge 42, Type (0, 1), BuildingBlock: AJUNOK_clean_linker_0, # of connection points: 2
#     Edge 43, Type (0, 1), BuildingBlock: AJUNOK_clean_linker_0, # of connection points: 2
#     Edge 44, Type (0, 1), BuildingBlock: AJUNOK_clean_linker_0, # of connection points: 2
#     Edge 45, Type (0, 1), BuildingBlock: AJUNOK_clean_linker_0, # of connection points: 2
#     Edge 46, Type (0, 1), BuildingBlock: AJUNOK_clean_linker_0, # of connection points: 2
#     Edge 47, Type (0, 1), BuildingBlock: AJUNOK_clean_linker_0, # of connection points: 2
#     Edge 48, Type (0, 1), BuildingBlock: AJUNOK_clean_linker_0, # of connection points: 2
#     Edge 49, Type (0, 1), BuildingBlock: AJUNOK_clean_linker_0, # of connection points: 2
#     Edge 50, Type (0, 1), BuildingBlock: AJUNOK_clean_linker_0, # of connection points: 2
#     Edge 51, Type (0, 1), BuildingBlock: AJUNOK_clean_linker_0, # of connection points: 2
#     Edge 52, Type (0, 1), BuildingBlock: AJUNOK_clean_linker_0, # of connection points: 2
#     Edge 53, Type (0, 1), BuildingBlock: AJUNOK_clean_linker_0, # of connection points: 2
#     Edge 54, Type (0, 1), BuildingBlock: AJUNOK_clean_linker_0, # of connection points: 2
#     Edge 55, Type (0, 1), BuildingBlock: AJUNOK_clean_linker_0, # of connection points: 2
#     Edge 56, Type (0, 1), BuildingBlock: AJUNOK_clean_linker_0, # of connection points: 2
#     Edge 57, Type (0, 1), BuildingBlock: AJUNOK_clean_linker_0, # of connection points: 2
#     Edge 58, Type (0, 1), BuildingBlock: AJUNOK_clean_linker_0, # of connection points: 2
#     Edge 59, Type (0, 1), BuildingBlock: AJUNOK_clean_linker_0, # of connection points: 2
#     Edge 60, Type (0, 1), BuildingBlock: AJUNOK_clean_linker_0, # of connection points: 2
#     Edge 61, Type (0, 1), BuildingBlock: AJUNOK_clean_linker_0, # of connection points: 2
#     Edge 62, Type (0, 1), BuildingBlock: AJUNOK_clean_linker_0, # of connection points: 2
#     Edge 63, Type (0, 1), BuildingBlock: AJUNOK_clean_linker_0, # of connection points: 2
#     Edge 64, Type (0, 1), BuildingBlock: AJUNOK_clean_linker_0, # of connection points: 2
#     Edge 65, Type (0, 1), BuildingBlock: AJUNOK_clean_linker_0, # of connection points: 2
#     Edge 66, Type (0, 1), BuildingBlock: AJUNOK_clean_linker_0, # of connection points: 2
#     Edge 67, Type (0, 1), BuildingBlock: AJUNOK_clean_linker_0, # of connection points: 2
#     Edge 68, Type (0, 1), BuildingBlock: AJUNOK_clean_linker_0, # of connection points: 2
#     Edge 69, Type (0, 1), BuildingBlock: AJUNOK_clean_linker_0, # of connection points: 2
#     Edge 70, Type (0, 1), BuildingBlock: AJUNOK_clean_linker_0, # of connection points: 2
#     Edge 71, Type (0, 1), BuildingBlock: AJUNOK_clean_linker_0, # of connection points: 2
#     Edge 72, Type (0, 1), BuildingBlock: AJUNOK_clean_linker_0, # of connection points: 2
#     Edge 73, Type (0, 1), BuildingBlock: AJUNOK_clean_linker_0, # of connection points: 2
#     Edge 74, Type (0, 1), BuildingBlock: AJUNOK_clean_linker_0, # of connection points: 2
#     Edge 75, Type (0, 1), BuildingBlock: AJUNOK_clean_linker_0, # of connection points: 2
#     Edge 76, Type (0, 1), BuildingBlock: AJUNOK_clean_linker_0, # of connection points: 2
#     Edge 77, Type (0, 1), BuildingBlock: AJUNOK_clean_linker_0, # of connection points: 2
#     Edge 78, Type (0, 1), BuildingBlock: AJUNOK_clean_linker_0, # of connection points: 2
#     Edge 79, Type (0, 1), BuildingBlock: AJUNOK_clean_linker_0, # of connection points: 2
#     Edge 80, Type (0, 1), BuildingBlock: AJUNOK_clean_linker_0, # of connection points: 2
#     Edge 81, Type (0, 1), BuildingBlock: AJUNOK_clean_linker_0, # of connection points: 2
#     Edge 82, Type (0, 1), BuildingBlock: AJUNOK_clean_linker_0, # of connection points: 2
#     Edge 83, Type (0, 1), BuildingBlock: AJUNOK_clean_linker_0, # of connection points: 2
#     Edge 84, Type (0, 1), BuildingBlock: AJUNOK_clean_linker_0, # of connection points: 2
#     Edge 85, Type (0, 1), BuildingBlock: AJUNOK_clean_linker_0, # of connection points: 2
#     Edge 86, Type (0, 1), BuildingBlock: AJUNOK_clean_linker_0, # of connection points: 2
#     Edge 87, Type (0, 1), BuildingBlock: AJUNOK_clean_linker_0, # of connection points: 2
#     Edge 88, Type (0, 1), BuildingBlock: AJUNOK_clean_linker_0, # of connection points: 2
#     Edge 89, Type (0, 1), BuildingBlock: AJUNOK_clean_linker_0, # of connection points: 2
#     Edge 90, Type (0, 1), BuildingBlock: AJUNOK_clean_linker_0, # of connection points: 2
#     Edge 91, Type (0, 1), BuildingBlock: AJUNOK_clean_linker_0, # of connection points: 2
#     Edge 92, Type (0, 1), BuildingBlock: AJUNOK_clean_linker_0, # of connection points: 2
#     Edge 93, Type (0, 1), BuildingBlock: AJUNOK_clean_linker_0, # of connection points: 2
#     Edge 94, Type (0, 1), BuildingBlock: AJUNOK_clean_linker_0, # of connection points: 2
#     Edge 95, Type (0, 1), BuildingBlock: AJUNOK_clean_linker_0, # of connection points: 2
#     Edge 96, Type (0, 1), BuildingBlock: AJUNOK_clean_linker_0, # of connection points: 2
#     Edge 97, Type (0, 1), BuildingBlock: AJUNOK_clean_linker_0, # of connection points: 2
#     Edge 98, Type (0, 1), BuildingBlock: AJUNOK_clean_linker_0, # of connection points: 2
#     Edge 99, Type (0, 1), BuildingBlock: AJUNOK_clean_linker_0, # of connection points: 2
#     Edge 100, Type (0, 1), BuildingBlock: AJUNOK_clean_linker_0, # of connection points: 2
#     Edge 101, Type (0, 1), BuildingBlock: AJUNOK_clean_linker_0, # of connection points: 2
#     Edge 102, Type (0, 1), BuildingBlock: AJUNOK_clean_linker_0, # of connection points: 2
#     Edge 103, Type (0, 1), BuildingBlock: AJUNOK_clean_linker_0, # of connection points: 2
#     Edge 104, Type (0, 1), BuildingBlock: AJUNOK_clean_linker_0, # of connection points: 2
#     Edge 105, Type (0, 1), BuildingBlock: AJUNOK_clean_linker_0, # of connection points: 2
#     Edge 106, Type (0, 1), BuildingBlock: AJUNOK_clean_linker_0, # of connection points: 2
#     Edge 107, Type (0, 1), BuildingBlock: AJUNOK_clean_linker_0, # of connection points: 2
# Relax obj value: 0.035
# Max RMSD: 0.120
# Mean RMSD: 0.093
data_MOF--net-fgl--node1-ESEHIV_clean_sbu_0--node2-GALJAG_clean_sbu_0--edge1-AJUNOK_clean_linker_0
_symmetry_space_group_name_H-M    P1
_symmetry_Int_Tables_number       1
_symmetry_cell_setting            triclinic
loop_
_symmetry_equiv_pos_as_xyz
'x, y, z'
_cell_length_a     56.142114
_cell_length_b     56.029297
_cell_length_c     37.430995
_cell_angle_alpha  90.034399
_cell_angle_beta   90.684185
_cell_angle_gamma 119.60136
loop_
_atom_site_label
_atom_site_type_symbol
_atom_site_fract_x
_atom_site_fract_y
_atom_site_fract_z
_atom_type_partial_charge
Cu0 Cu 0.03326 0.5455 0.03306 0.0
N1 N 1.01312 0.55379 0.06553 0.0
N2 N 1.0091 0.57771 0.11101 0.0
C3 C 0.02544 0.577 0.08528 0.0
C4 C 0.98511 0.55404 0.10646 0.0
C5 C 0.98765 0.53931 0.07847 0.0
O6 O 0.05402 0.57965 1.00773 0.0
C7 C 0.0419 0.51551 0.08324 0.0
O8 O 1.01549 0.50622 0.086 0.0
H9 H 0.04631 0.59281 0.08086 0.0
H10 H 0.97251 0.51897 0.06952 0.0
N11 N 1.01396 0.51664 1.00038 0.0
N12 N 1.00921 0.48798 0.95553 0.0
C13 C 0.02684 0.50843 0.97742 0.0
C14 C 0.98707 0.50087 0.99288 0.0
C15 C 0.9841 0.48324 0.96504 0.0
C16 C 0.04407 0.58342 0.97896 0.0
O17 O 0.02477 0.56197 0.96187 0.0
H18 H 0.04892 0.51817 0.97603 0.0
H19 H 0.97086 0.50237 1.00617 0.0
O20 O 0.05537 0.53449 0.06093 0.0
H21 H 0.96734 0.54721 0.12318 0.0
H22 H 0.96496 0.46818 0.95272 0.0
Cu23 Cu 0.56002 0.55691 0.05227 0.0
N24 N 0.58635 0.559 1.02026 0.0
N25 N 0.61347 0.57354 0.97253 0.0
C26 C 0.59433 0.57561 0.99168 0.0
C27 C 0.61793 0.55505 0.99018 0.0
C28 C 0.60116 0.54609 1.01961 0.0
O29 O 0.57017 0.59611 0.0592 0.0
C30 C 0.52165 0.50463 0.02915 0.0
O31 O 0.54297 0.50218 0.03842 0.0
H32 H 0.5867 0.58954 0.98585 0.0
H33 H 0.5999 0.53128 0.03908 0.0
N34 N 0.56258 0.54377 0.09727 0.0
N35 N 0.54928 0.52554 0.15155 0.0
C36 C 0.54175 0.53229 0.12044 0.0
C37 C 0.58415 0.54441 0.1142 0.0
C38 C 0.57605 0.53332 0.14776 0.0
C39 C 0.59494 0.61155 0.07034 0.0
O40 O 0.61025 0.60031 0.07661 0.0
H41 H 0.52141 0.52892 0.11446 0.0
H42 H 0.60444 0.55279 0.10325 0.0
O43 O 0.5237 0.52841 0.03259 0.0
H44 H 0.63218 0.54833 0.9823 0.0
H45 H 0.58918 0.53193 0.16806 0.0
Cu46 Cu 0.55444 0.07544 0.02988 0.0
N47 N 0.5445 0.09226 0.99464 0.0
N48 N 0.52089 0.09442 0.9477 0.0
C49 C 0.52466 0.07795 0.97045 0.0
C50 C 0.5392 0.12029 0.95797 0.0
C51 C 0.55374 0.11889 0.98717 0.0
O52 O 0.51927 0.04589 0.04706 0.0
C53 C 0.59934 0.08258 0.99141 0.0
O54 O 0.60024 0.10614 0.98586 0.0
H55 H 0.51305 0.05574 0.96978 0.0
H56 H 0.57013 0.136 1.00148 0.0
N57 N 0.57431 0.09982 0.06639 0.0
N58 N 0.60473 0.11681 0.11119 0.0
C59 C 0.59258 0.09683 0.08639 0.0
C60 C 0.57478 0.12262 0.07872 0.0
C61 C 0.59363 0.1332 0.1066 0.0
C62 C 0.51012 0.04566 0.07818 0.0
O63 O 0.52687 0.06258 0.10271 0.0
H64 H 0.59636 0.07978 0.0833 0.0
H65 H 0.56223 0.13083 0.06841 0.0
O66 O 0.57968 0.06436 1.00965 0.0
H67 H 0.54238 0.13882 0.94485 0.0
H68 H 0.59879 0.1515 0.12203 0.0
Cu69 Cu 0.54804 0.05508 0.53267 0.0
N70 N 0.54832 0.04528 0.48543 0.0
N71 N 0.56677 0.04729 0.43243 0.0
C72 C 0.57157 0.05514 0.46694 0.0
C73 C 0.53933 0.03138 0.42912 0.0
C74 C 0.52792 0.03033 0.46196 0.0
O75 O 0.58132 0.05709 0.55478 0.0
C76 C 0.51852 0.08165 0.51927 0.0
O77 O 0.50144 0.05641 0.50893 0.0
H78 H 0.59168 0.06781 0.47884 0.0
H79 H 0.50633 0.01995 0.46793 0.0
N80 N 0.51829 0.02852 0.55754 0.0
N81 N 0.48753 1.01317 0.60083 0.0
C82 C 0.51167 0.03372 0.58978 0.0
C83 C 0.49764 1.00364 0.5477 0.0
C84 C 0.47838 0.99418 0.57443 0.0
C85 C 0.58048 0.0338 0.55629 0.0
O86 O 0.55845 1.01212 0.54378 0.0
H87 H 0.52354 0.05308 0.6038 0.0
H88 H 0.49612 0.99362 0.52243 0.0
O89 O 0.54217 0.08725 0.53159 0.0
H90 H 0.52832 0.02177 0.40461 0.0
H91 H 0.4589 0.9753 0.5741 0.0
Cu92 Cu 0.06568 0.5682 0.53998 0.0
N93 N 0.08586 0.56068 0.57468 0.0
N94 N 0.0906 0.53574 0.61851 0.0
C95 C 0.07317 0.54137 0.59993 0.0
C96 C 0.1155 0.55264 0.60473 0.0
C97 C 0.11249 0.56778 0.57747 0.0
O98 O 0.04013 0.53089 0.52334 0.0
C99 C 0.07193 0.61291 0.57748 0.0
O100 O 0.09451 0.61275 0.58654 0.0
H101 H 0.05124 0.53102 0.60374 0.0
H102 H 0.12836 0.58194 0.55994 0.0
N103 N 0.08359 0.58934 0.49979 0.0
N104 N 0.08388 0.615 0.45338 0.0
C105 C 0.06919 0.59168 0.4721 0.0
C106 C 0.10839 0.61206 0.4985 0.0
C107 C 0.10863 0.62785 0.46992 0.0
C108 C 0.05339 0.52057 0.5084 0.0
O109 O 0.07936 0.53695 0.50129 0.0
H110 H 0.04735 0.57823 0.46847 0.0
H111 H 0.12408 0.61822 0.51905 0.0
O112 O 0.05309 0.59201 0.56085 0.0
H113 H 0.1343 0.55302 0.61254 0.0
H114 H 0.12511 0.64808 0.4633 0.0
Cu115 Cu 0.55767 0.57707 0.56452 0.0
N116 N 0.57547 0.61196 0.54635 0.0
N117 N 0.61135 0.64748 0.52227 0.0
C118 C 0.59782 0.62017 0.52662 0.0
C119 C 0.59695 0.65699 0.5401 0.0
C120 C 0.57452 0.63481 0.55492 0.0
O121 O 0.58534 0.57572 0.5946 0.0
C122 C 0.53224 0.52668 0.52289 0.0
O123 O 0.52993 0.51351 0.55281 0.0
H124 H 0.60544 0.6066 0.51872 0.0
H125 H 0.55985 0.63556 0.57266 0.0
N126 N 0.52828 0.57232 0.59135 0.0
N127 N 0.48724 0.54982 0.61589 0.0
C128 C 0.50358 0.54977 0.59004 0.0
C129 C 0.52757 0.58757 0.61867 0.0
C130 C 0.50205 0.57366 0.63396 0.0
C131 C 0.58195 0.56908 0.6274 0.0
O132 O 0.55699 0.55463 0.63964 0.0
H133 H 0.49818 0.53281 0.5719 0.0
H134 H 0.54478 0.60668 0.62794 0.0
O135 O 0.54465 0.55277 0.52324 0.0
H136 H 0.60307 0.67843 0.54387 0.0
H137 H 0.49529 0.58016 0.6571 0.0
Cu138 Cu 0.68597 0.87988 0.35669 0.0
N139 N 0.65941 0.88814 0.34099 0.0
N140 N 0.65122 0.91936 0.3154 0.0
C141 C 0.66349 0.91381 0.34274 0.0
C142 C 0.63737 0.89568 0.29682 0.0
C143 C 0.6426 0.87643 0.3126 0.0
O144 O 0.7036 0.90329 0.40008 0.0
C145 C 0.72117 0.87235 0.30157 0.0
O146 O 0.7385 0.87287 0.32587 0.0
H147 H 0.67785 0.92914 0.36111 0.0
H148 H 0.63773 0.85677 0.30123 0.0
N149 N 0.66982 0.84452 0.37453 0.0
N150 N 0.6745 0.80949 0.39427 0.0
C151 C 0.67986 0.82766 0.36791 0.0
C152 C 0.65664 0.83611 0.40572 0.0
C153 C 0.65955 0.81446 0.41804 0.0
C154 C 0.71798 0.92926 0.40496 0.0
O155 O 0.72819 0.94517 0.37707 0.0
H156 H 0.69446 0.83135 0.34726 0.0
H157 H 0.64894 0.84729 0.42078 0.0
O158 O 0.70273 0.87823 0.3106 0.0
H159 H 0.62712 0.89346 0.27134 0.0
H160 H 0.65402 0.80539 0.44429 0.0
Cu161 Cu 0.23643 0.90485 0.37096 0.0
N162 N 0.22773 0.86859 0.36038 0.0
N163 N 0.19921 0.82603 0.33983 0.0
C164 C 0.20846 0.85313 0.33574 0.0
C165 C 0.21373 0.82437 0.36781 0.0
C166 C 0.23119 0.85064 0.38057 0.0
O167 O 0.20854 0.90002 0.40576 0.0
C168 C 0.25876 0.92128 0.30591 0.0
O169 O 0.27009 0.90748 0.31915 0.0
H170 H 0.19941 0.86146 0.31743 0.0
H171 H 0.24335 0.85595 0.40492 0.0
N172 N 0.27021 0.92697 0.39432 0.0
N173 N 0.30594 0.96614 0.41484 0.0
C174 C 0.27997 0.95382 0.40192 0.0
C175 C 0.29066 0.92199 0.40305 0.0
C176 C 0.31271 0.9461 0.41577 0.0
C177 C 0.18379 0.88048 0.40379 0.0
O178 O 0.17326 0.87003 0.37232 0.0
H179 H 0.26861 0.96443 0.39651 0.0
H180 H 0.28994 0.90249 0.39936 0.0
O181 O 0.24075 0.92307 0.32465 0.0
H182 H 0.21 0.80547 0.38043 0.0
H183 H 0.33228 0.94872 0.42465 0.0
Cu184 Cu 0.2423 0.43482 0.37824 0.0
N185 N 0.23943 0.45635 0.34262 0.0
N186 N 0.21805 0.4619 0.2956 0.0
C187 C 0.22306 0.44433 0.31425 0.0
C188 C 0.232 0.48623 0.31289 0.0
C189 C 0.24545 0.48279 0.34196 0.0
O190 O 0.20418 0.40695 0.38853 0.0
C191 C 0.29185 0.44376 0.35464 0.0
O192 O 0.2948 0.46852 0.356 0.0
H193 H 0.21264 0.42235 0.30969 0.0
H194 H 0.25691 0.49785 0.36249 0.0
N195 N 0.25656 0.45304 0.42106 0.0
N196 N 0.2707 0.45493 0.47721 0.0
C197 C 0.26564 0.44195 0.44555 0.0
C198 C 0.25626 0.4743 0.43746 0.0
C199 C 0.26534 0.47568 0.47233 0.0
C200 C 0.1893 0.4178 0.39533 0.0
O201 O 0.20079 0.44467 0.3954 0.0
H202 H 0.26769 0.42404 0.44032 0.0
H203 H 0.24869 0.48692 0.42567 0.0
O204 O 0.2685 0.42345 0.36254 0.0
H205 H 0.23118 0.50461 0.30626 0.0
H206 H 0.26663 0.48989 0.49287 0.0
Cu207 Cu 0.22171 0.39542 0.89917 0.0
N208 N 0.24815 0.42851 0.88152 0.0
N209 N 0.27675 0.45306 0.83857 0.0
C210 C 0.25196 0.43193 0.84635 0.0
C211 C 0.28884 0.46386 0.87045 0.0
C212 C 0.27099 0.44865 0.89708 0.0
O213 O 0.23988 0.37281 0.89829 0.0
C214 C 0.1642 0.37175 0.87247 0.0
O215 O 0.15596 0.35464 0.89944 0.0
H216 H 0.23858 0.41652 0.82711 0.0
H217 H 0.27566 0.4502 0.92537 0.0
N218 N 0.21591 0.40172 0.94599 0.0
N219 N 0.19598 0.4049 0.99529 0.0
C220 C 0.19299 0.39942 0.95999 0.0
C221 C 0.23414 0.40926 0.97321 0.0
C222 C 0.2218 0.41104 1.00382 0.0
C223 C 0.24018 0.35847 0.92469 0.0
O224 O 0.2226 0.35308 0.95046 0.0
H225 H 0.1743 0.39318 0.94491 0.0
H226 H 0.25475 0.41258 0.97101 0.0
O227 O 0.18985 0.38709 0.86764 0.0
H228 H 0.31009 0.47943 0.87423 0.0
H229 H 0.23094 0.41614 0.03033 0.0
Cu230 Cu 0.73101 0.891 0.85257 0.0
N231 N 0.74603 0.8703 0.83413 0.0
N232 N 0.7472 0.83289 0.81564 0.0
C233 C 0.73659 0.84326 0.83914 0.0
C234 C 0.76435 0.85429 0.79535 0.0
C235 C 0.76356 0.87732 0.80679 0.0
O236 O 0.71398 0.87372 0.89882 0.0
C237 C 0.70203 0.91286 0.80516 0.0
O238 O 0.69249 0.91929 0.83325 0.0
H239 H 0.7208 0.83087 0.85781 0.0
H240 H 0.77362 0.89735 0.79451 0.0
N241 N 0.75834 0.92508 0.86956 0.0
N242 N 0.76856 0.96451 0.89734 0.0
C243 C 0.75553 0.94759 0.86939 0.0
C244 C 0.77491 0.92853 0.89772 0.0
C245 C 0.78142 0.95292 0.91473 0.0
C246 C 0.69627 0.84949 0.90837 0.0
O247 O 0.68019 0.83168 0.88411 0.0
H248 H 0.74219 0.95029 0.85097 0.0
H249 H 0.77886 0.91276 0.90803 0.0
O250 O 0.7145 0.89909 0.8096 0.0
H251 H 0.77577 0.85313 0.77296 0.0
H252 H 0.79218 0.95996 0.94009 0.0
Cu253 Cu 0.21406 0.89084 0.8619 0.0
N254 N 0.19784 0.89246 0.81855 0.0
N255 N 0.17644 0.87882 0.76538 0.0
C256 C 0.18316 0.87101 0.79629 0.0
C257 C 0.18729 0.90629 0.76839 0.0
C258 C 0.20051 0.91464 0.80117 0.0
O259 O 0.18883 0.85726 0.88573 0.0
C260 C 0.25782 0.89154 0.82286 0.0
O261 O 0.24068 0.88168 0.79559 0.0
H262 H 0.17827 0.85016 0.80221 0.0
H263 H 0.21217 0.93551 0.811 0.0
N264 N 0.22358 0.92079 0.89234 0.0
N265 N 0.24392 0.94836 0.93953 0.0
C266 C 0.24158 0.92719 0.91964 0.0
C267 C 0.21414 0.93861 0.89473 0.0
C268 C 0.22662 0.95564 0.92394 0.0
C269 C 0.17343 0.85722 0.91043 0.0
O270 O 0.1759 0.88061 0.92135 0.0
H271 H 0.2525 0.91615 0.92504 0.0
H272 H 0.1986 0.93859 0.87734 0.0
O273 O 0.24879 0.89283 0.85331 0.0
H274 H 0.18688 0.91958 0.74773 0.0
H275 H 0.22235 0.9713 0.93368 0.0
Cu276 Cu 0.36918 0.22372 0.72235 0.0
N277 N 0.34271 0.232 0.70555 0.0
N278 N 0.32668 0.25981 0.68905 0.0
C279 C 0.3491 0.25735 0.69509 0.0
C280 C 0.30519 0.23471 0.6957 0.0
C281 C 0.31517 0.21754 0.7058 0.0
O282 O 0.38782 0.25053 0.76241 0.0
C283 C 0.37264 0.20322 0.6571 0.0
O284 O 0.34639 0.1903 0.66442 0.0
H285 H 0.37 0.27398 0.69336 0.0
H286 H 0.30322 0.19649 0.71438 0.0
N287 N 0.35395 0.18843 0.7416 0.0
N288 N 0.35171 0.1485 0.75527 0.0
C289 C 0.36608 0.17297 0.73907 0.0
C290 C 0.33093 0.17323 0.76017 0.0
C291 C 0.32958 0.14863 0.76883 0.0
C292 C 0.37134 0.24921 0.7869 0.0
O293 O 0.3453 0.231 0.78295 0.0
H294 H 0.38516 0.17962 0.72526 0.0
H295 H 0.31628 0.17955 0.76735 0.0
O296 O 0.38891 0.22168 0.67945 0.0
H297 H 0.28388 0.22948 0.69551 0.0
H298 H 0.31392 0.13258 0.78476 0.0
Cu299 Cu 0.89163 0.20631 0.69082 0.0
N300 N 0.92114 0.21319 0.66121 0.0
N301 N 0.95309 0.23654 0.62039 0.0
C302 C 0.93368 0.23618 0.64151 0.0
C303 C 0.95279 0.2127 0.62666 0.0
C304 C 0.93321 0.19841 0.65226 0.0
O305 O 0.89958 0.2437 0.70383 0.0
C306 C 0.8543 0.15612 0.66222 0.0
O307 O 0.87515 0.15279 0.67119 0.0
H308 H 0.92802 0.25207 0.64178 0.0
H309 H 0.92798 0.17854 0.66303 0.0
N310 N 0.88976 0.18931 0.73441 0.0
N311 N 0.87136 0.17199 0.78744 0.0
C312 C 0.86818 0.18171 0.75586 0.0
C313 C 0.90723 0.18372 0.75253 0.0
C314 C 0.89586 0.17295 0.78533 0.0
C315 C 0.92121 0.25616 0.72348 0.0
O316 O 0.93413 0.243 0.733 0.0
H317 H 0.85036 0.18315 0.74793 0.0
H318 H 0.92699 0.18779 0.743 0.0
O319 O 0.85675 0.17991 0.66687 0.0
H320 H 0.96569 0.20611 0.61364 0.0
H321 H 0.9052 0.16687 0.80626 0.0
Cu322 Cu 0.90696 0.74853 0.69578 0.0
N323 N 0.8982 0.77047 0.66751 0.0
N324 N 0.88082 0.779 0.61845 0.0
C325 C 0.88075 0.75963 0.63975 0.0
C326 C 0.89846 0.80321 0.63415 0.0
C327 C 0.90935 0.79787 0.66444 0.0
O328 O 0.87203 0.7176 0.70979 0.0
C329 C 0.94931 0.75821 0.65201 0.0
O330 O 0.95267 0.78299 0.65569 0.0
H331 H 0.86874 0.73771 0.63494 0.0
H332 H 0.92543 0.81291 0.68154 0.0
N333 N 0.92862 0.76604 0.73564 0.0
N334 N 0.95453 0.76996 0.78333 0.0
C335 C 0.94032 0.75437 0.75503 0.0
C336 C 0.93546 0.78995 0.75214 0.0
C337 C 0.95144 0.79238 0.78181 0.0
C338 C 0.86281 0.71563 0.74122 0.0
O339 O 0.87881 0.73268 0.76617 0.0
H340 H 0.93718 0.73409 0.74925 0.0
H341 H 0.92878 0.8042 0.74386 0.0
O342 O 0.92909 0.73822 0.66713 0.0
H343 H 0.90406 0.82323 0.62354 0.0
H344 H 0.95976 0.8091 0.80103 0.0
Cu345 Cu 0.872 0.72035 0.18079 0.0
N346 N 0.87376 0.70165 0.1407 0.0
N347 N 0.89441 0.69265 0.09621 0.0
C348 C 0.89768 0.70819 0.12531 0.0
C349 C 0.8671 0.67551 0.09313 0.0
C350 C 0.85438 0.68104 0.12081 0.0
O351 O 0.90804 0.7331 0.20534 0.0
C352 C 0.83373 0.73465 0.1556 0.0
O353 O 0.82003 0.70779 0.1528 0.0
H354 H 0.91724 0.72422 0.13543 0.0
H355 H 0.83262 0.67102 0.12569 0.0
N356 N 0.84614 0.69788 0.21355 0.0
N357 N 0.82307 0.68966 0.26421 0.0
C358 C 0.84152 0.70885 0.24258 0.0
C359 C 0.82987 0.67054 0.21637 0.0
C360 C 0.81553 0.66537 0.24791 0.0
C361 C 0.91104 0.71365 0.21889 0.0
O362 O 0.89048 0.68844 0.21631 0.0
H363 H 0.85163 0.73075 0.24759 0.0
H364 H 0.82897 0.65554 0.1974 0.0
O365 O 0.85879 0.7462 0.16657 0.0
H366 H 0.85689 0.66068 0.07187 0.0
H367 H 0.80138 0.64535 0.25838 0.0
Cu368 Cu 0.41194 0.23637 0.21106 0.0
N369 N 0.42751 0.21759 0.18951 0.0
N370 N 0.42652 0.18039 0.1664 0.0
C371 C 0.4163 0.19017 0.19116 0.0
C372 C 0.44522 0.20261 0.14858 0.0
C373 C 0.44574 0.22563 0.16291 0.0
O374 O 0.3919 0.21182 0.25144 0.0
C375 C 0.38247 0.25927 0.16751 0.0
O376 O 0.37391 0.26535 0.19682 0.0
H377 H 0.3991 0.17733 0.20794 0.0
H378 H 0.45698 0.24636 0.15288 0.0
N379 N 0.43868 0.26919 0.23154 0.0
N380 N 0.45113 0.30905 0.25914 0.0
C381 C 0.43702 0.29229 0.23162 0.0
C382 C 0.45567 0.27199 0.2589 0.0
C383 C 0.4635 0.2967 0.27593 0.0
C384 C 0.39165 0.21992 0.28337 0.0
O385 O 0.39746 0.24541 0.28874 0.0
H386 H 0.424 0.29576 0.21351 0.0
H387 H 0.45937 0.25586 0.2684 0.0
O388 O 0.39503 0.24548 0.16988 0.0
H389 H 0.45662 0.20211 0.12575 0.0
H390 H 0.47503 0.30364 0.30079 0.0
Cu391 Cu 0.88399 0.24089 0.21173 0.0
N392 N 0.86374 0.24 0.17142 0.0
N393 N 0.83782 0.22129 0.12241 0.0
C394 C 0.84723 0.21666 0.15348 0.0
C395 C 0.84878 0.24887 0.12098 0.0
C396 C 0.86471 0.26036 0.15138 0.0
O397 O 0.8623 0.20541 0.23397 0.0
C398 C 0.93017 0.25578 0.16774 0.0
O399 O 0.91328 0.25085 0.14064 0.0
H400 H 0.84315 0.19667 0.16252 0.0
H401 H 0.87736 0.282 0.15736 0.0
N402 N 0.89077 0.26911 0.24355 0.0
N403 N 0.91227 0.29795 0.28896 0.0
C404 C 0.91114 0.27793 0.26795 0.0
C405 C 0.87852 0.28424 0.24889 0.0
C406 C 0.89178 0.30213 0.27716 0.0
C407 C 0.84916 0.20231 0.26265 0.0
O408 O 0.85472 0.22401 0.2821 0.0
H409 H 0.92452 0.26924 0.27075 0.0
H410 H 0.86117 0.28228 0.23359 0.0
O411 O 0.92049 0.24865 0.19891 0.0
H412 H 0.84699 0.26016 0.09867 0.0
H413 H 0.8869 0.31711 0.28788 0.0
In414 In 0.04456 0.69059 0.28315 0.0
O415 O 0.09136 0.71418 0.2753 0.0
O416 O 0.07339 0.73503 0.30088 0.0
C417 C 0.03439 0.65748 0.22525 0.0
C418 C 0.04689 0.66215 0.34198 0.0
C419 C 1.00585 0.7062 0.26975 0.0
O420 O 0.05761 0.67828 0.23144 0.0
O421 O 1.01639 0.65371 0.2479 0.0
O422 O 1.00397 0.6904 0.29511 0.0
O423 O 0.02748 0.7146 0.25198 0.0
C424 C 0.09514 0.73578 0.29096 0.0
O425 O 0.04839 0.68532 0.34435 0.0
O426 O 0.04219 0.65261 0.31067 0.0
In427 In 0.4461 0.44964 0.32922 0.0
O428 O 0.45605 0.474 0.27638 0.0
O429 O 0.48644 0.46688 0.29986 0.0
C430 C 0.39511 0.44412 0.33407 0.0
C431 C 0.44326 0.40167 0.31175 0.0
C432 C 0.47052 0.47313 0.39259 0.0
O433 O 0.41538 0.465 0.32112 0.0
O434 O 0.40051 0.42593 0.3447 0.0
O435 O 0.45516 0.44762 0.38861 0.0
O436 O 0.47268 0.4869 0.36495 0.0
C437 C 0.47971 0.47675 0.27403 0.0
O438 O 0.45944 0.41762 0.33542 0.0
O439 O 0.42759 0.40933 0.29776 0.0
In440 In 0.6837 0.0792 0.27319 0.0
O441 O 0.67227 0.09089 0.32623 0.0
O442 O 0.64188 0.05604 0.29762 0.0
C443 C 0.73833 0.11278 0.27479 0.0
C444 C 0.67732 0.02857 0.27636 0.0
C445 C 0.6671 0.10042 0.22046 0.0
O446 O 0.72318 0.11165 0.30021 0.0
O447 O 0.7258 0.09701 0.24878 0.0
O448 O 0.67326 0.0819 0.21492 0.0
O449 O 0.67002 0.10864 0.25237 0.0
C450 C 0.64783 0.07128 0.3248 0.0
O451 O 0.6639 0.03461 0.25443 0.0
O452 O 0.69444 0.04821 0.29561 0.0
In453 In 0.04801 0.41419 0.7821 0.0
O454 O 1.02195 0.4303 0.80944 0.0
O455 O 0.05771 0.43637 0.83653 0.0
C456 C 1.00211 0.36627 0.76274 0.0
C457 C 0.06337 0.45222 0.72801 0.0
C458 C 0.08467 0.39715 0.80314 0.0
O459 O 1.00496 0.37797 0.79255 0.0
O460 O 0.02254 0.3785 0.74261 0.0
O461 O 0.08973 0.41445 0.77866 0.0
O462 O 0.06115 0.38805 0.81597 0.0
C463 C 0.03693 0.43941 0.83704 0.0
O464 O 0.07654 0.457 0.75717 0.0
O465 O 0.04305 0.42832 0.72599 0.0
In466 In 0.69848 0.66368 0.78924 0.0
O467 O 0.6923 0.63617 0.83719 0.0
O468 O 0.66263 0.6486 0.82786 0.0
C469 C 0.74807 0.66911 0.77326 0.0
C470 C 0.66331 0.63232 0.73667 0.0
C471 C 0.71112 0.71715 0.7977 0.0
O472 O 0.74081 0.66984 0.80474 0.0
O473 O 0.73011 0.66501 0.74997 0.0
O474 O 0.70148 0.70383 0.76905 0.0
O475 O 0.71361 0.70331 0.82248 0.0
C476 C 0.67041 0.63515 0.84714 0.0
O477 O 0.67342 0.65804 0.73837 0.0
O478 O 0.67044 0.62218 0.76192 0.0
In479 In 0.40553 0.03201 0.77727 0.0
O480 O 0.43115 0.066 0.81748 0.0
O481 O 0.43335 0.02923 0.81961 0.0
C482 C 0.38619 0.06706 0.76617 0.0
C483 C 0.43228 0.02664 0.72102 0.0
C484 C 0.36425 0.98164 0.79354 0.0
O485 O 0.41 0.07251 0.75752 0.0
O486 O 0.37193 0.04372 0.77986 0.0
O487 O 0.37161 0.98911 0.76193 0.0
O488 O 0.37763 0.99971 0.81696 0.0
C489 C 0.44144 0.05293 0.83233 0.0
O490 O 0.40936 0.02549 0.71766 0.0
O491 O 0.44181 0.03116 0.75242 0.0
In492 In 0.71188 1.00127 0.60886 0.0
O493 O 0.75837 0.03232 0.61118 0.0
O494 O 0.73213 0.04492 0.63387 0.0
C495 C 0.71525 0.97785 0.54464 0.0
C496 C 0.70758 0.97057 0.66984 0.0
C497 C 0.66963 1.01163 0.59344 0.0
O498 O 0.73126 1.00241 0.55379 0.0
O499 O 0.6973 0.96477 0.56781 0.0
O500 O 0.66611 0.98975 0.6079 0.0
O501 O 0.69426 0.02788 0.58582 0.0
C502 C 0.7564 0.05139 0.62638 0.0
O503 O 0.69464 0.98344 0.66526 0.0
O504 O 0.7227 0.97305 0.6438 0.0
In505 In 0.09967 0.77745 0.58228 0.0
O506 O 0.10145 0.79556 0.52631 0.0
O507 O 0.13915 0.80587 0.55159 0.0
C508 C 0.04768 0.76432 0.59746 0.0
C509 C 0.09224 0.72555 0.576 0.0
C510 C 0.12493 0.81078 0.63983 0.0
O511 O 0.06121 0.78091 0.57305 0.0
O512 O 0.06046 0.75453 0.6142 0.0
O513 O 0.1309 0.793 0.62913 0.0
O514 O 0.10663 0.81189 0.62124 0.0
C515 C 0.12722 0.80924 0.52491 0.0
O516 O 0.10702 0.74236 0.59999 0.0
O517 O 0.08271 0.73551 0.55352 0.0
In518 In 0.3343 0.4131 0.65626 0.0
O519 O 0.30912 0.36598 0.65886 0.0
O520 O 0.35235 0.38494 0.66332 0.0
C521 C 0.31133 0.42441 0.60032 0.0
C522 C 0.31514 0.42536 0.71452 0.0
C523 C 0.38577 0.45255 0.64573 0.0
O524 O 0.30892 0.40092 0.60457 0.0
O525 O 0.32532 0.44182 0.62405 0.0
O526 O 0.37452 0.44806 0.67576 0.0
O527 O 0.37144 0.43603 0.62112 0.0
C528 C 0.32977 0.36293 0.66301 0.0
O529 O 0.33737 0.42498 0.71463 0.0
O530 O 0.30148 0.41729 0.6858 0.0
In531 In 0.71164 0.78109 0.10934 0.0
O532 O 0.69186 0.7925 0.15623 0.0
O533 O 0.73408 0.81837 0.14844 0.0
C534 C 0.67078 0.72792 0.09479 0.0
C535 C 0.70687 0.80726 0.04884 0.0
C536 C 0.75383 0.77065 0.12601 0.0
O537 O 0.67066 0.7412 0.12208 0.0
O538 O 0.69162 0.74115 0.07567 0.0
O539 O 0.75414 0.7842 0.0988 0.0
O540 O 0.73231 0.76218 0.14403 0.0
C541 C 0.71358 0.81334 0.1671 0.0
O542 O 0.72952 0.81019 0.05999 0.0
O543 O 0.68716 0.79227 0.06876 0.0
In544 In 0.34849 1.00945 0.12277 0.0
O545 O 0.32995 0.97299 0.16124 0.0
O546 O 0.31675 1.00226 0.16617 0.0
C547 C 0.39565 1.00849 0.10783 0.0
C548 C 0.31261 0.98999 0.06677 0.0
C549 C 0.37316 0.06418 0.13565 0.0
O550 O 0.38741 1.00772 0.13923 0.0
O551 O 0.37952 1.00842 0.08413 0.0
O552 O 0.36321 0.05364 0.10554 0.0
O553 O 0.36992 0.04702 0.15957 0.0
C554 C 0.31496 0.98026 0.17756 0.0
O555 O 0.32126 1.01361 0.08006 0.0
O556 O 0.32163 0.97594 0.08221 0.0
In557 In 0.08582 0.39878 0.14906 0.0
O558 O 0.11219 0.43039 0.19201 0.0
O559 O 0.11583 0.3947 0.18591 0.0
C560 C 0.07581 0.44015 0.13569 0.0
C561 C 0.11511 0.39464 0.09593 0.0
C562 C 0.03858 0.35026 0.15485 0.0
O563 O 0.09348 0.43695 0.11918 0.0
O564 O 0.06296 0.42227 0.1592 0.0
O565 O 0.04911 0.36072 0.12541 0.0
O566 O 0.05164 0.36454 0.18171 0.0
C567 C 0.12453 0.41765 0.20104 0.0
O568 O 0.11573 0.38672 0.12725 0.0
O569 O 0.09875 0.4037 0.09104 0.0
In570 In 0.38413 0.34546 0.97343 0.0
O571 O 0.37059 0.33026 0.03167 0.0
O572 O 0.39685 0.31857 1.00728 0.0
C573 C 0.33693 0.34667 0.95541 0.0
C574 C 0.4266 0.39821 0.988 0.0
C575 C 0.386 0.3166 0.91437 0.0
O576 O 0.33858 0.33283 0.98094 0.0
O577 O 0.35912 0.36007 0.93888 0.0
O578 O 0.4016 0.34217 0.91813 0.0
O579 O 0.36987 0.30592 0.94011 0.0
C580 C 0.38338 0.3171 0.03473 0.0
O581 O 0.43003 0.37922 0.97544 0.0
O582 O 0.40178 0.39074 0.99336 0.0
In583 In 0.75776 0.10384 0.95647 0.0
O584 O 0.76989 0.07161 0.97115 0.0
O585 O 0.74108 0.06247 0.92862 0.0
C586 C 0.78046 0.14039 1.01096 0.0
C587 C 0.79387 0.12879 0.90309 0.0
C588 C 0.7042 0.09013 0.96177 0.0
O589 O 0.77694 0.11633 1.01252 0.0
O590 O 0.77249 0.14589 0.98209 0.0
O591 O 0.71896 0.10325 0.93565 0.0
O592 O 0.71639 0.0835 0.98498 0.0
C593 C 0.75539 0.05504 0.94669 0.0
O594 O 0.77113 0.12835 0.90391 0.0
O595 O 0.7983 0.11731 0.92917 0.0
In596 In 1.02048 0.71996 0.9528 0.0
O597 O 1.00503 0.72976 1.00363 0.0
O598 O 0.97862 0.69216 0.97664 0.0
C599 C 0.07245 0.76047 0.94714 0.0
C600 C 0.03176 0.67892 0.9599 0.0
C601 C 0.99901 0.73459 0.8981 0.0
O602 O 0.05803 0.75891 0.97373 0.0
O603 O 0.06047 0.74185 0.92396 0.0
O604 O 1.00232 0.71389 0.89639 0.0
O605 O 1.00599 0.74736 0.92749 0.0
C606 C 0.98192 0.70812 1.00238 0.0
O607 O 1.01798 0.68027 0.93375 0.0
O608 O 0.03886 0.69776 0.98298 0.0
In609 In 0.40729 0.13623 0.46924 0.0
O610 O 0.38207 0.13768 0.51608 0.0
O611 O 0.4216 0.1722 0.51065 0.0
C612 C 0.37356 0.08233 0.44959 0.0
C613 C 0.40234 0.16377 0.41051 0.0
C614 C 0.45109 0.13098 0.49261 0.0
O615 O 0.36666 0.09451 0.4721 0.0
O616 O 0.39681 0.09746 0.43652 0.0
O617 O 0.45309 0.14687 0.46733 0.0
O618 O 0.42769 0.11896 0.50644 0.0
C619 C 0.39973 0.16084 0.52844 0.0
O620 O 0.42187 0.15884 0.41456 0.0
O621 O 0.38595 0.1556 0.43622 0.0
In622 In 0.02558 0.36038 0.46272 0.0
O623 O 1.01721 0.34633 0.52106 0.0
O624 O 1.00569 0.31549 0.48152 0.0
C625 C 0.07612 0.37289 0.43805 0.0
C626 C 0.98864 0.34104 0.40802 0.0
C627 C 0.02935 0.40845 0.48578 0.0
O628 O 0.06358 0.35432 0.46075 0.0
O629 O 0.06329 0.38498 0.42825 0.0
O630 O 1.01137 0.39259 0.46368 0.0
O631 O 0.04524 0.39996 0.49648 0.0
C632 C 1.00661 0.32103 0.51433 0.0
O633 O 0.98264 0.34497 0.43902 0.0
O634 O 1.01311 0.34626 0.40487 0.0
In635 In 0.77055 0.73844 0.44582 0.0
O636 O 0.80776 0.77138 0.47641 0.0
O637 O 0.79464 0.72937 0.48723 0.0
C638 C 0.7496 0.76943 0.42124 0.0
C639 C 0.78863 0.72097 0.39146 0.0
C640 C 0.72285 0.70404 0.47621 0.0
O641 O 0.76239 0.77422 0.45063 0.0
O642 O 0.74995 0.75087 0.40266 0.0
O643 O 0.73069 0.69827 0.44773 0.0
O644 O 0.74018 0.72622 0.49091 0.0
C645 C 0.8113 0.75425 0.49427 0.0
O646 O 0.76926 0.70482 0.41112 0.0
O647 O 0.79942 0.74616 0.39965 0.0
C648 C 0.0751 0.4981 0.0846 0.0
C649 C 0.05394 0.50038 0.10101 0.0
C650 C 0.08281 0.47929 0.09701 0.0
C651 C 0.06971 0.46221 0.12633 0.0
H652 H 0.08466 0.50972 0.06078 0.0
H653 H 0.09838 0.47736 0.08254 0.0
S654 S 1.01627 0.46368 0.18209 0.0
N655 N 0.02232 0.48653 0.15059 0.0
N656 N 0.03687 0.45121 0.17397 0.0
C657 C 0.04991 0.46574 0.1445 0.0
C658 C 0.04202 0.48484 0.13181 0.0
C659 C 0.60875 0.65537 0.10438 0.0
C660 C 0.60877 0.6421 0.07241 0.0
C661 C 0.62811 0.68333 0.11092 0.0
C662 C 0.64867 0.69904 0.08604 0.0
H663 H 0.59465 0.64369 0.12533 0.0
H664 H 0.62767 0.69231 0.13635 0.0
S665 S 0.65665 0.67399 0.99739 0.0
N666 N 0.63035 0.64703 1.01517 0.0
N667 N 0.66648 0.69907 0.02704 0.0
C668 C 0.64813 0.68613 0.0534 0.0
C669 C 0.62835 0.65784 0.04677 0.0
C670 C 0.47059 0.02842 0.12023 0.0
C671 C 0.48003 0.03095 0.08495 0.0
C672 C 0.44294 0.01952 0.12744 0.0
C673 C 0.42352 1.01298 0.09968 0.0
H674 H 0.48489 0.03442 0.14257 0.0
H675 H 0.43708 0.01906 0.15501 0.0
S676 S 0.43683 1.01347 1.00262 0.0
N677 N 0.467 0.02393 0.02195 0.0
N678 N 0.41526 1.00748 0.03547 0.0
C679 C 0.4323 1.01387 0.06434 0.0
C680 C 0.46045 0.02274 0.05699 0.0
C681 C 0.48581 0.09605 0.54046 0.0
C682 C 0.50806 0.10139 0.51856 0.0
C683 C 0.46875 0.10729 0.53314 0.0
C684 C 0.47291 0.12416 0.50324 0.0
H685 H 0.4804 0.08153 0.56213 0.0
H686 H 0.45121 0.1014 0.55005 0.0
S687 S 0.52952 0.14585 0.43865 0.0
N688 N 0.5343 0.12584 0.46681 0.0
N689 N 0.50244 0.14716 0.45295 0.0
C690 C 0.49614 0.13103 0.48232 0.0
C691 C 0.51359 0.11955 0.48992 0.0
C692 C 1.02154 0.47251 0.48607 0.0
C693 C 0.04354 0.49071 0.50802 0.0
C694 C 1.01629 0.44545 0.48012 0.0
C695 C 0.03281 0.43572 0.49606 0.0
H696 H 1.00932 0.47964 0.47191 0.0
H697 H 0.99986 0.43245 0.46179 0.0
S698 S 0.09101 0.47482 0.5591 0.0
N699 N 0.08065 0.4967 0.5477 0.0
N700 N 0.07043 0.44603 0.53751 0.0
C701 C 0.05377 0.45337 0.51979 0.0
C702 C 0.05924 0.48081 0.52545 0.0
C703 C 0.65888 0.68492 0.5287 0.0
C704 C 0.63863 0.66269 0.509 0.0
C705 C 0.68632 0.69763 0.51854 0.0
C706 C 0.69434 0.68852 0.48831 0.0
H707 H 0.65359 0.69199 0.55267 0.0
H708 H 0.7013 0.7148 0.53441 0.0
S709 S 0.64849 0.63167 0.42702 0.0
N710 N 0.62794 0.63263 0.45745 0.0
N711 N 0.67955 0.65624 0.43831 0.0
C712 C 0.67414 0.6664 0.46823 0.0
C713 C 0.64625 0.6536 0.47855 0.0
C714 C 0.03397 0.61374 0.94068 0.0
C715 C 0.04695 0.61068 0.97135 0.0
C716 C 0.02993 0.63631 0.93674 0.0
C717 C 0.03876 0.6568 0.96327 0.0
H718 H 0.02555 0.59786 0.92026 0.0
H719 H 1.01891 0.63715 0.91325 0.0
S720 S 0.07753 0.66078 0.04628 0.0
N721 N 0.07153 0.63185 0.02684 0.0
N722 N 0.06379 0.67423 1.01949 0.0
C723 C 0.05357 0.65511 0.99286 0.0
C724 C 0.0578 0.63212 0.99682 0.0
C725 C 0.49967 0.45755 1.0017 0.0
C726 C 0.49653 0.47927 1.01562 0.0
C727 C 0.4771 0.43197 0.99231 0.0
C728 C 0.44999 0.42648 0.99652 0.0
H729 H 0.51995 0.46011 0.99843 0.0
H730 H 0.48106 0.41614 0.98227 0.0
S731 S 0.42996 0.47641 0.03044 0.0
N732 N 0.46382 0.49369 0.03194 0.0
N733 N 0.42129 0.44561 1.01453 0.0
C734 C 0.44638 0.44819 1.00954 0.0
C735 C 0.46958 0.47451 1.01893 0.0
C736 C 0.63457 0.06811 1.00338 0.0
C737 C 0.62316 0.07975 0.98036 0.0
C738 C 0.66036 0.07065 0.99651 0.0
C739 C 0.67557 0.08472 0.96623 0.0
H740 H 0.62429 0.05838 0.02788 0.0
H741 H 0.66884 0.06236 1.01578 0.0
S742 S 0.65288 0.11583 0.89548 0.0
N743 N 0.62782 0.10372 0.92462 0.0
N744 N 0.6758 0.10817 0.91144 0.0
C745 C 0.66349 0.09494 0.94198 0.0
C746 C 0.63745 0.09255 0.94913 0.0
C747 C 0.63113 0.04912 0.56296 0.0
C748 C 0.60357 0.03 0.56996 0.0
C749 C 0.65236 0.04317 0.57087 0.0
C750 C 0.64694 0.01796 0.58632 0.0
H751 H 0.63622 0.06829 0.54997 0.0
H752 H 0.67315 0.0583 0.56424 0.0
S753 S 0.57843 0.96214 0.61309 0.0
N754 N 0.57233 0.98563 0.5955 0.0
N755 N 0.61184 0.97467 0.61043 0.0
C756 C 0.61956 0.99924 0.5947 0.0
C757 C 0.59805 1.00521 0.58651 0.0
C758 C 0.08928 0.65909 0.60524 0.0
C759 C 0.07256 0.63977 0.5791 0.0
C760 C 0.09535 0.68654 0.60391 0.0
C761 C 0.08515 0.69611 0.57621 0.0
H762 H 0.09849 0.65312 0.6265 0.0
H763 H 0.10854 0.70047 0.62463 0.0
S764 S 0.03978 0.65378 0.50138 0.0
N765 N 0.04538 0.63205 0.52489 0.0
N766 N 0.05661 0.68364 0.5224 0.0
C767 C 0.06776 0.67687 0.5503 0.0
C768 C 0.06145 0.64874 0.55178 0.0
C769 C 0.44363 0.51046 0.59663 0.0
C770 C 0.4612 0.52678 0.62443 0.0
C771 C 0.4196 0.48607 0.60375 0.0
C772 C 0.41222 0.47721 0.63901 0.0
H773 H 0.44866 0.51657 0.56907 0.0
H774 H 0.40658 0.4743 0.58147 0.0
S775 S 0.45173 0.512 0.72134 0.0
N776 N 0.47013 0.532 0.68846 0.0
N777 N 0.42448 0.48632 0.70213 0.0
C778 C 0.42952 0.49336 0.66716 0.0
C779 C 0.45412 0.51818 0.65983 0.0
C780 C 0.70493 0.80165 0.43447 0.0
C781 C 0.69116 0.79709 0.40142 0.0
C782 C 0.72463 0.7936 0.44006 0.0
C783 C 0.73119 0.78053 0.41288 0.0
H784 H 0.70111 0.81233 0.45581 0.0
H785 H 0.73452 0.79737 0.4661 0.0
S786 S 0.70069 0.7638 0.32152 0.0
N787 N 0.68525 0.77874 0.34122 0.0
N788 N 0.72217 0.7633 0.35166 0.0
C789 C 0.71743 0.7757 0.37974 0.0
C790 C 0.69744 0.78403 0.37406 0.0
C791 C 0.3124 1.00946 0.44194 0.0
C792 C 0.32312 0.99501 0.42349 0.0
C793 C 0.32876 0.03758 0.45041 0.0
C794 C 0.3564 0.05255 0.44016 0.0
H795 H 0.29125 0.99882 0.45028 0.0
H796 H 0.31961 0.04767 0.46495 0.0
S797 S 0.39395 0.02454 0.38983 0.0
N798 N 0.3629 0.99801 0.39438 0.0
N799 N 0.3935 0.05059 0.4098 0.0
C800 C 0.36722 0.03835 0.42125 0.0
C801 C 0.35066 1.00969 0.41309 0.0
C802 C 0.14294 0.41233 0.38837 0.0
C803 C 0.15943 0.40192 0.40198 0.0
C804 C 0.11586 0.40203 0.39927 0.0
C805 C 0.10399 0.38093 0.42461 0.0
H806 H 0.15137 0.42937 0.3699 0.0
H807 H 0.10446 0.4114 0.38851 0.0
S808 S 0.13788 0.34521 0.46675 0.0
N809 N 0.16159 0.36825 0.4406 0.0
N810 N 0.11049 0.34871 0.46142 0.0
C811 C 0.11981 0.36934 0.43724 0.0
C812 C 0.14755 0.37983 0.42582 0.0
C813 C 0.11628 0.36393 0.86214 0.0
C814 C 0.14383 0.37639 0.85138 0.0
C815 C 0.09736 0.37024 0.84576 0.0
C816 C 0.10491 0.38928 0.81765 0.0
H817 H 0.10932 0.3497 0.88423 0.0
H818 H 0.07668 0.36048 0.85588 0.0
S819 S 0.17388 0.42632 0.7772 0.0
N820 N 0.17721 0.40777 0.80908 0.0
N821 N 0.14172 0.41948 0.77847 0.0
C822 C 0.1321 0.40119 0.80567 0.0
C823 C 0.15147 0.39481 0.82243 0.0
C824 C 0.73588 0.78757 0.83996 0.0
C825 C 0.73864 0.80423 0.81047 0.0
C826 C 0.72695 0.75946 0.8356 0.0
C827 C 0.71989 0.74681 0.80163 0.0
H828 H 0.74095 0.79646 0.86655 0.0
H829 H 0.72548 0.74756 0.8591 0.0
S830 S 0.72189 0.78125 0.71605 0.0
N831 N 0.73263 0.80597 0.74637 0.0
N832 N 0.71557 0.75322 0.73804 0.0
C833 C 0.72211 0.76323 0.77198 0.0
C834 C 0.73157 0.7919 0.77641 0.0
C835 C 0.29683 0.91603 0.78117 0.0
C836 C 0.28753 0.90922 0.81643 0.0
C837 C 0.32258 0.93853 0.77405 0.0
C838 C 0.33997 0.95502 0.80192 0.0
H839 H 0.28344 0.9052 0.75871 0.0
H840 H 0.32812 0.94398 0.74642 0.0
S841 S 0.32802 0.94221 0.89904 0.0
N842 N 0.29987 0.9179 0.87967 0.0
N843 N 0.34812 0.96036 0.86614 0.0
C844 C 0.33218 0.94677 0.8373 0.0
C845 C 0.30602 0.92375 0.8446 0.0
C846 C 0.63807 0.95159 0.28893 0.0
C847 C 0.65833 0.94632 0.30291 0.0
C848 C 0.64457 0.97819 0.27859 0.0
C849 C 0.67151 1.00026 0.28215 0.0
H850 H 0.617 0.9352 0.28704 0.0
H851 H 0.62823 0.98171 0.26924 0.0
S852 S 0.73277 0.99637 0.31121 0.0
N853 N 0.7071 0.96467 0.31467 0.0
N854 N 0.71894 1.01471 0.29691 0.0
C855 C 0.69213 0.99499 0.29435 0.0
C856 C 0.68565 0.96798 0.30429 0.0
C857 C 0.15061 0.80669 0.32138 0.0
C858 C 0.17413 0.8039 0.32475 0.0
C859 C 0.12542 0.78479 0.30957 0.0
C860 C 0.12274 0.75928 0.29994 0.0
H861 H 0.1514 0.82567 0.32911 0.0
H862 H 0.10778 0.78779 0.30846 0.0
S863 S 0.17852 0.74182 0.30207 0.0
N864 N 0.19338 0.77395 0.31644 0.0
N865 N 0.14622 0.73287 0.29348 0.0
C866 C 0.14632 0.75648 0.30206 0.0
C867 C 0.17191 0.77871 0.31473 0.0
C868 C 0.3389 0.46324 0.33 0.0
C869 C 0.31638 0.44108 0.34645 0.0
C870 C 0.36382 0.4636 0.32548 0.0
C871 C 0.36757 0.44185 0.33728 0.0
H872 H 0.33753 0.48091 0.32104 0.0
H873 H 0.38049 0.48146 0.31321 0.0
S874 S 0.31475 0.37812 0.38043 0.0
N875 N 0.29914 0.39615 0.37331 0.0
N876 N 0.34604 0.39674 0.36483 0.0
C877 C 0.34497 0.41905 0.35275 0.0
C878 C 0.3194 0.41866 0.35726 0.0
C879 C 0.28752 0.36644 0.90988 0.0
C880 C 0.26336 0.35254 0.92997 0.0
C881 C 0.31093 0.36409 0.91783 0.0
C882 C 0.3113 0.34766 0.94616 0.0
H883 H 0.28876 0.38006 0.88856 0.0
H884 H 0.32908 0.37571 0.90201 0.0
S885 S 0.2528 0.30518 1.00526 0.0
N886 N 0.241 0.32037 0.97829 0.0
N887 N 0.28465 0.316 0.99303 0.0
C888 C 0.28699 0.33289 0.96561 0.0
C889 C 0.26319 0.3353 0.95758 0.0
C890 C 0.78582 1.00894 0.92901 0.0
C891 C 0.76451 0.98649 0.91061 0.0
C892 C 0.78237 0.03056 0.94199 0.0
C893 C 0.75752 0.03061 0.9368 0.0
H894 H 0.80549 1.01003 0.93277 0.0
H895 H 0.7996 0.0478 0.95508 0.0
S896 S 0.69406 0.97514 0.89499 0.0
N897 N 0.7165 0.96433 0.89186 0.0
N898 N 0.71064 1.00552 0.91467 0.0
C899 C 0.73579 1.00797 0.91954 0.0
C900 C 0.73911 0.98578 0.90683 0.0
C901 C 0.13381 0.83183 0.95094 0.0
C902 C 0.15029 0.83118 0.92329 0.0
C903 C 0.10931 0.80839 0.96001 0.0
C904 C 0.10034 0.78352 0.94159 0.0
H905 H 0.13926 0.85084 0.96487 0.0
H906 H 0.09669 0.81017 0.98035 0.0
S907 S 0.13777 0.76971 0.87075 0.0
N908 N 0.15729 0.80262 0.88032 0.0
N909 N 0.11118 0.75862 0.89732 0.0
C910 C 0.11746 0.78204 0.91558 0.0
C911 C 0.14249 0.80586 0.90646 0.0
C912 C 0.38747 0.13505 0.75847 0.0
C913 C 0.35953 0.12756 0.75819 0.0
C914 C 0.39579 0.1153 0.76045 0.0
C915 C 0.37655 0.08722 0.76271 0.0
H916 H 0.40316 0.15643 0.75761 0.0
H917 H 0.41754 0.12218 0.76087 0.0
S918 S 0.30094 0.05635 0.76106 0.0
N919 N 0.31257 0.08972 0.75851 0.0
N920 N 0.32832 0.05265 0.76357 0.0
C921 C 0.34856 0.07929 0.76243 0.0
C922 C 0.34003 0.09943 0.7599 0.0
C923 C 0.94935 0.3055 0.70696 0.0
C924 C 0.93464 0.28569 0.73298 0.0
C925 C 0.97047 0.33196 0.71676 0.0
C926 C 0.97744 0.33962 0.7529 0.0
H927 H 0.94591 0.29989 0.67892 0.0
H928 H 0.98206 0.34624 0.6959 0.0
S929 S 0.94307 0.29588 0.83112 0.0
N930 N 0.92724 0.27601 0.79623 0.0
N931 N 0.96607 0.32573 0.81471 0.0
C932 C 0.96144 0.32057 0.77908 0.0
C933 C 0.94031 0.29361 0.76908 0.0
C934 C 0.82406 0.69499 0.7839 0.0
C935 C 0.83312 0.69842 0.74839 0.0
C936 C 0.79627 0.68392 0.79171 0.0
C937 C 0.77638 0.6759 0.76433 0.0
H938 H 0.83868 0.70206 0.80595 0.0
H939 H 0.79055 0.68289 0.81944 0.0
S940 S 0.78878 0.67716 0.66694 0.0
N941 N 0.81953 0.69024 0.68558 0.0
N942 N 0.76727 0.66944 0.7003 0.0
C943 C 0.78485 0.67734 0.72875 0.0
C944 C 0.81322 0.68856 0.72077 0.0
C945 C 0.81865 0.76357 0.12034 0.0
C946 C 0.81771 0.74933 0.15178 0.0
C947 C 0.79853 0.77121 0.11265 0.0
C948 C 0.77644 0.76459 0.13585 0.0
H949 H 0.8342 0.76763 0.10072 0.0
H950 H 0.79976 0.78148 0.08768 0.0
S951 S 0.76575 0.72868 0.22271 0.0
N952 N 0.79365 0.72995 0.20682 0.0
N953 N 0.75623 0.74413 0.19284 0.0
C954 C 0.77603 0.75122 0.16799 0.0
C955 C 0.79647 0.7436 0.17574 0.0
C956 C 0.40913 0.13256 0.18496 0.0
C957 C 0.41548 0.15182 0.15754 0.0
C958 C 0.39576 0.10432 0.17756 0.0
C959 C 0.38782 0.09422 0.14245 0.0
H960 H 0.41434 0.13947 0.21243 0.0
H961 H 0.39123 0.09031 0.19966 0.0
S962 S 0.39929 0.13629 0.06112 0.0
N963 N 0.4127 0.15897 0.094 0.0
N964 N 0.38749 0.10591 0.07988 0.0
C965 C 0.39425 0.11333 0.11469 0.0
C966 C 0.40812 0.14212 0.12227 0.0
C967 C 0.97518 0.29071 0.1944 0.0
C968 C 0.95962 0.27634 0.16398 0.0
C969 C 1.00105 0.31408 0.19123 0.0
C970 C 1.0125 0.32395 0.15756 0.0
H971 H 0.9668 0.28482 0.22092 0.0
H972 H 1.01171 0.32501 0.21537 0.0
S973 S 0.98203 0.2915 0.06983 0.0
N974 N 0.95892 0.27203 0.09927 0.0
N975 N 1.00758 0.31584 0.09329 0.0
C976 C 0.99801 0.30876 0.12703 0.0
C977 C 0.9716 0.28498 0.13026 0.0
C978 C 0.34832 0.31016 0.69488 0.0
C979 C 0.32654 0.2851 0.68209 0.0
C980 C 0.34914 0.33509 0.68822 0.0
C981 C 0.328 0.33605 0.66903 0.0
H982 H 0.36481 0.3106 0.71064 0.0
H983 H 0.36635 0.35375 0.69874 0.0
S984 S 0.26684 0.27675 0.6284 0.0
N985 N 0.28377 0.26308 0.64791 0.0
N986 N 0.28487 0.31007 0.6366 0.0
C987 C 0.30597 0.31129 0.65621 0.0
C988 C 0.30532 0.28579 0.66249 0.0
C989 C 0.83042 0.10946 0.63398 0.0
C990 C 0.82853 0.13135 0.64971 0.0
C991 C 0.8071 0.08408 0.62622 0.0
C992 C 0.78061 0.07911 0.63409 0.0
H993 H 0.8503 0.11176 0.62811 0.0
H994 H 0.80999 0.06803 0.61448 0.0
S995 S 0.76398 0.12969 0.6745 0.0
N996 N 0.79775 0.14652 0.67207 0.0
N997 N 0.7538 0.0988 0.65766 0.0
C998 C 0.77824 0.10101 0.64908 0.0
C999 C 0.80216 0.12708 0.65676 0.0
C1000 C 0.98593 0.77379 0.607 0.0
C1001 C 0.97091 0.75517 0.63406 0.0
C1002 C 1.00995 0.7755 0.59394 0.0
C1003 C 1.02011 0.75893 0.60783 0.0
H1004 H 0.97963 0.78793 0.59674 0.0
H1005 H 1.0213 0.79088 0.57402 0.0
S1006 S 0.98697 0.705 0.67664 0.0
N1007 N 0.9666 0.71832 0.67241 0.0
N1008 N 1.01203 0.72161 0.64811 0.0
C1009 C 1.00446 0.73911 0.63351 0.0
C1010 C 0.97974 0.73717 0.64654 0.0
C1011 C 0.93528 0.70068 0.2647 0.0
C1012 C 0.93703 0.71738 0.23554 0.0
C1013 C 0.95791 0.69836 0.27665 0.0
C1014 C 0.9834 0.71229 0.25962 0.0
H1015 H 0.9158 0.68833 0.27764 0.0
H1016 H 0.95499 0.6845 0.29845 0.0
S1017 S 0.99941 0.75989 0.18303 0.0
N1018 N 0.96679 0.74921 0.191 0.0
N1019 N 1.00934 0.74481 0.21296 0.0
C1020 C 0.98581 0.73007 0.23133 0.0
C1021 C 0.96269 0.73265 0.21945 0.0
C1022 C 0.47103 0.35414 0.28933 0.0
C1023 C 0.44857 0.33183 0.27247 0.0
C1024 C 0.46894 0.37642 0.30266 0.0
C1025 C 0.44435 0.37724 0.29937 0.0
H1026 H 0.49044 0.3545 0.2918 0.0
H1027 H 0.48691 0.3934 0.31492 0.0
S1028 S 0.37859 0.32266 0.26142 0.0
N1029 N 0.40006 0.3108 0.25663 0.0
N1030 N 0.39667 0.35324 0.28022 0.0
C1031 C 0.42159 0.35489 0.28329 0.0
C1032 C 0.42355 0.33202 0.27021 0.0
C1033 C 0.80704 0.17441 0.29831 0.0
C1034 C 0.82335 0.17625 0.26898 0.0
C1035 C 0.77997 0.153 0.30092 0.0
C1036 C 0.7681 0.13259 0.27429 0.0
H1037 H 0.81471 0.19038 0.3186 0.0
H1038 H 0.76789 0.15323 0.32315 0.0
S1039 S 0.80325 0.12529 0.19508 0.0
N1040 N 0.82659 0.15368 0.21507 0.0
N1041 N 0.77567 0.1136 0.2199 0.0
C1042 C 0.78476 0.13294 0.24627 0.0
C1043 C 0.81241 0.15468 0.24368 0.0
C1044 C 1.00051 0.46749 0.89468 0.0
C1045 C 1.01604 0.47526 0.92668 0.0
C1046 C 1.00747 0.45607 0.86586 0.0
C1047 C 0.03022 0.45188 0.86783 0.0
H1048 H 0.98312 0.47072 0.89162 0.0
H1049 H 0.99494 0.45061 0.84178 0.0
S1050 S 0.07635 0.46672 0.94672 0.0
N1051 N 0.05427 0.47636 0.95931 0.0
N1052 N 0.06759 0.45541 0.90525 0.0
C1053 C 0.04568 0.45918 0.89991 0.0
C1054 C 0.03855 0.47073 0.92925 0.0
C1055 C 0.65442 0.59568 0.93434 0.0
C1056 C 0.62708 0.58867 0.9408 0.0
C1057 C 0.66817 0.61063 0.90401 0.0
C1058 C 0.65525 0.61938 0.87896 0.0
H1059 H 0.66544 0.5899 0.95313 0.0
H1060 H 0.68925 0.61561 0.90039 0.0
S1061 S 0.58323 0.60474 0.88179 0.0
N1062 N 0.58706 0.59026 0.91816 0.0
N1063 N 0.61318 0.61903 0.86187 0.0
C1064 C 0.62787 0.61237 0.88486 0.0
C1065 C 0.61374 0.59688 0.91557 0.0
C1066 C 0.49591 0.06124 0.89944 0.0
C1067 C 0.50178 0.08538 0.91809 0.0
C1068 C 0.47636 0.05099 0.87183 0.0
C1069 C 0.46197 0.06453 0.86162 0.0
H1070 H 0.50659 0.05018 0.90617 0.0
H1071 H 0.47262 0.03232 0.85833 0.0
S1072 S 0.46919 0.12819 0.90253 0.0
N1073 N 0.49123 0.12228 0.925 0.0
N1074 N 0.45473 0.10331 0.87246 0.0
C1075 C 0.46775 0.08885 0.87979 0.0
C1076 C 0.48764 0.09924 0.90815 0.0
C1077 C 0.44585 1.00812 0.62885 0.0
C1078 C 0.47319 1.01405 0.6318 0.0
C1079 C 0.43273 1.01231 0.65787 0.0
C1080 C 0.44648 0.02227 0.69086 0.0
H1081 H 0.4349 1.00115 0.60359 0.0
H1082 H 0.41175 1.00786 0.65432 0.0
S1083 S 0.51787 0.03915 0.71247 0.0
N1084 N 0.51322 0.02913 0.67025 0.0
N1085 N 0.48872 0.03687 0.72499 0.0
C1086 C 0.47363 0.02751 0.69431 0.0
C1087 C 0.48696 0.02343 0.66471 0.0
C1088 C 0.10099 0.51921 0.67516 0.0
C1089 C 0.08376 0.51455 0.6452 0.0
C1090 C 0.09438 0.49905 0.70168 0.0
C1091 C 0.07047 0.47313 0.69908 0.0
H1092 H 0.1195 0.53884 0.67848 0.0
H1093 H 0.10812 0.50388 0.72444 0.0
S1094 S 1.01958 0.44966 0.62428 0.0
N1095 N 0.04234 0.48142 0.61375 0.0
N1096 N 0.03018 0.44364 0.66281 0.0
C1097 C 0.05344 0.46799 0.66873 0.0
C1098 C 0.05997 0.48862 0.64205 0.0
C1099 C 0.60411 0.57298 0.68732 0.0
C1100 C 0.60513 0.5838 0.65307 0.0
C1101 C 0.62366 0.5884 0.71389 0.0
C1102 C 0.64443 0.61548 0.70747 0.0
H1103 H 0.58772 0.55267 0.69391 0.0
H1104 H 0.62181 0.57946 0.74007 0.0
S1105 S 0.65714 0.65303 0.62195 0.0
N1106 N 0.6298 0.62294 0.61378 0.0
N1107 N 0.66583 0.65199 0.66397 0.0
C1108 C 0.64617 0.62629 0.67314 0.0
C1109 C 0.62672 0.61042 0.64585 0.0
C1110 C 0.99561 0.60227 0.15448 0.0
C1111 C 1.01616 0.59838 0.13879 0.0
C1112 C 1.00172 0.62158 0.18207 0.0
C1113 C 0.02872 0.63819 0.19485 0.0
H1114 H 0.97455 0.59032 0.14535 0.0
H1115 H 0.98511 0.62357 0.19341 0.0
S1116 S 0.09005 0.63546 0.16497 0.0
N1117 N 0.06472 0.61211 0.14019 0.0
N1118 N 0.07612 0.6491 0.19057 0.0
C1119 C 0.04953 0.63478 0.17941 0.0
C1120 C 0.0433 0.61475 0.15178 0.0
C1121 C 0.51095 0.51886 0.19032 0.0
C1122 C 0.53224 0.5133 0.18236 0.0
C1123 C 0.494 0.507 0.21993 0.0
C1124 C 0.49782 0.48932 0.24294 0.0
H1125 H 0.50751 0.53272 0.17375 0.0
H1126 H 0.47796 0.51194 0.22501 0.0
S1127 S 0.54894 0.46612 0.23236 0.0
N1128 N 0.55479 0.48729 0.19875 0.0
N1129 N 0.52359 0.46569 0.25474 0.0
C1130 C 0.51883 0.48337 0.23513 0.0
C1131 C 0.53587 0.49519 0.20482 0.0
C1132 C 0.64208 0.10845 0.12975 0.0
C1133 C 0.62386 0.11803 0.13804 0.0
C1134 C 0.65709 0.1041 0.15646 0.0
C1135 C 0.65472 0.10952 0.19246 0.0
H1136 H 0.6439 0.1032 0.10245 0.0
H1137 H 0.66993 0.09554 0.14896 0.0
S1138 S 0.61173 0.13718 0.22809 0.0
N1139 N 0.60553 0.13436 0.18462 0.0
N1140 N 0.63441 0.12698 0.23492 0.0
C1141 C 0.63805 0.12092 0.20095 0.0
C1142 C 0.62248 0.12505 0.17369 0.0
C1143 C 0.58338 0.03455 0.37921 0.0
C1144 C 0.58689 0.05416 0.40514 0.0
C1145 C 0.60327 0.04037 0.35337 0.0
C1146 C 0.62744 0.06603 0.35256 0.0
H1147 H 0.56537 1.01435 0.37937 0.0
H1148 H 0.59979 0.02448 0.33414 0.0
S1149 S 0.64522 0.12537 0.41248 0.0
N1150 N 0.61536 0.101 0.42685 0.0
N1151 N 0.6531 0.11173 0.37868 0.0
C1152 C 0.63101 0.08602 0.37792 0.0
C1153 C 0.61064 0.08016 0.40412 0.0
C1154 C 0.08038 0.65396 0.42712 0.0
C1155 C 0.07359 0.62615 0.42613 0.0
C1156 C 0.07053 0.66509 0.40086 0.0
C1157 C 0.05395 0.64903 0.37202 0.0
H1158 H 0.09327 0.6672 0.44855 0.0
H1159 H 0.07672 0.68668 0.40258 0.0
S1160 S 0.03013 0.57501 0.35724 0.0
N1161 N 0.04878 0.58274 0.39433 0.0
N1162 N 0.03089 0.60362 0.34461 0.0
C1163 C 0.04683 0.62113 0.37096 0.0
C1164 C 0.05646 0.60971 0.39805 0.0
C1165 C 0.51976 0.52695 0.45849 0.0
C1166 C 0.51734 0.51187 0.48969 0.0
C1167 C 0.50442 0.51426 0.42751 0.0
C1168 C 0.48598 0.48587 0.42621 0.0
H1169 H 0.53343 0.54894 0.45795 0.0
H1170 H 0.50709 0.52691 0.40437 0.0
S1171 S 0.47222 0.43667 0.50006 0.0
N1172 N 0.49518 0.46667 0.51697 0.0
N1173 N 0.46646 0.44281 0.45864 0.0
C1174 C 0.48354 0.47037 0.45695 0.0
C1175 C 0.4992 0.48334 0.48864 0.0
C1176 C 0.74247 0.86 0.25024 0.0
C1177 C 0.71929 0.85932 0.26555 0.0
C1178 C 0.74059 0.84586 0.21803 0.0
C1179 C 0.7153 0.8297 0.20002 0.0
H1180 H 0.76229 0.87141 0.26341 0.0
H1181 H 0.75906 0.84701 0.20771 0.0
S1182 S 0.64823 0.82056 0.22873 0.0
N1183 N 0.67011 0.84106 0.25951 0.0
N1184 N 0.66656 0.81414 0.20011 0.0
C1185 C 0.692 0.8289 0.21495 0.0
C1186 C 0.69399 0.84375 0.24728 0.0
C1187 C 0.28189 0.92514 0.24814 0.0
C1188 C 0.26892 0.93513 0.27093 0.0
C1189 C 0.29588 0.93947 0.21767 0.0
C1190 C 0.29765 0.96459 0.20837 0.0
H1191 H 0.28193 0.90628 0.25438 0.0
H1192 H 0.30598 0.93102 0.20176 0.0
S1193 S 0.26575 0.99906 0.25755 0.0
N1194 N 0.25755 0.97114 0.28101 0.0
N1195 N 0.28378 0.99821 0.22349 0.0
C1196 C 0.28374 0.97434 0.22996 0.0
C1197 C 0.26937 0.95959 0.26121 0.0
C1198 C 0.17743 0.46254 0.27083 0.0
C1199 C 0.19687 0.4537 0.26884 0.0
C1200 C 0.154 0.4509 0.24865 0.0
C1201 C 0.14919 0.42986 0.2242 0.0
H1202 H 0.17977 0.47767 0.29063 0.0
H1203 H 0.13924 0.4579 0.25131 0.0
S1204 S 0.19587 0.40229 0.20561 0.0
N1205 N 0.21128 0.42493 0.2381 0.0
N1206 N 0.16713 0.4026 0.19697 0.0
C1207 C 0.16909 0.42171 0.22102 0.0
C1208 C 0.19298 0.43378 0.24318 0.0
C1209 C 0.17365 0.39074 0.05339 0.0
C1210 C 0.17514 0.40203 1.01948 0.0
C1211 C 0.15351 0.3876 0.07744 0.0
C1212 C 0.1342 0.39576 0.06849 0.0
H1213 H 0.18808 0.38413 0.0613 0.0
H1214 H 0.15343 0.37912 0.10348 0.0
S1215 S 0.12954 0.4267 0.98289 0.0
N1216 N 0.15588 0.42159 0.97803 0.0
N1217 N 0.11767 0.41545 0.02318 0.0
C1218 C 0.13523 0.40678 0.03444 0.0
C1219 C 0.1558 0.40998 1.00992 0.0
C1220 C 0.72284 0.85204 0.96491 0.0
C1221 C 0.69771 0.84002 0.94566 0.0
C1222 C 0.72564 0.84157 0.99813 0.0
C1223 C 0.70329 0.81898 1.01423 0.0
H1224 H 0.74086 0.86915 0.95364 0.0
H1225 H 0.74556 0.85121 1.01123 0.0
S1226 S 0.63269 0.78067 0.976 0.0
N1227 N 0.64991 0.80441 0.94594 0.0
N1228 N 0.65485 0.78544 1.00843 0.0
C1229 C 0.67787 0.8073 0.99579 0.0
C1230 C 0.67517 0.81758 0.96161 0.0
C1231 C 0.26507 0.94183 0.99436 0.0
C1232 C 0.26027 0.95922 0.97183 0.0
C1233 C 0.28169 0.95191 0.02511 0.0
C1234 C 0.29415 0.9798 0.03486 0.0
H1235 H 0.2558 0.92015 0.98827 0.0
H1236 H 0.28482 0.93766 0.04133 0.0
S1237 S 0.28892 0.03421 0.98465 0.0
N1238 N 0.27001 1.00595 0.96111 0.0
N1239 N 0.30077 0.0248 1.01927 0.0
C1240 C 0.28935 0.99742 1.01284 0.0
C1241 C 0.27254 0.98717 0.98131 0.0
C1242 C 0.70145 0.92569 0.46887 0.0
C1243 C 0.71932 0.94165 0.44142 0.0
C1244 C 0.70037 0.93738 0.50195 0.0
C1245 C 0.71724 0.96562 0.50952 0.0
H1246 H 0.68758 0.90399 0.46451 0.0
H1247 H 0.68595 0.92412 0.52167 0.0
S1248 S 0.76866 0.01652 0.44785 0.0
N1249 N 0.75496 0.98739 0.42506 0.0
N1250 N 0.75314 1.00906 0.48675 0.0
C1251 C 0.73566 0.98169 0.48269 0.0
C1252 C 0.73663 0.96985 0.44893 0.0
C1253 C 0.14123 0.84554 0.43483 0.0
C1254 C 0.16943 0.86491 0.43654 0.0
C1255 C 0.12779 0.8279 0.46351 0.0
C1256 C 0.14201 0.82844 0.49504 0.0
H1257 H 0.12943 0.84364 0.41082 0.0
H1258 H 0.10613 0.81334 0.46061 0.0
S1259 S 0.21596 0.87554 0.51381 0.0
N1260 N 0.21098 0.88386 0.4732 0.0
N1261 N 0.18587 0.85058 0.52662 0.0
C1262 C 0.17012 0.84795 0.49741 0.0
C1263 C 0.18375 0.8662 0.46838 0.0
C1264 C 0.29896 0.46697 0.532 0.0
C1265 C 0.27885 0.44698 0.50951 0.0
C1266 C 0.30909 0.45941 0.56165 0.0
C1267 C 0.29944 0.43158 0.5697 0.0
H1268 H 0.30752 0.48855 0.52592 0.0
H1269 H 0.32505 0.4755 0.57788 0.0
S1270 S 0.24409 0.37148 0.52178 0.0
N1271 N 0.24748 0.39831 0.49932 0.0
N1272 N 0.26701 0.38406 0.55458 0.0
C1273 C 0.27858 0.41141 0.54818 0.0
C1274 C 0.26812 0.41912 0.5182 0.0
C1275 C 0.31389 0.45148 0.80705 0.0
C1276 C 0.29007 0.45375 0.80593 0.0
C1277 C 0.32216 0.44281 0.777 0.0
C1278 C 0.30682 0.43605 0.74494 0.0
H1279 H 0.32498 0.45432 0.83198 0.0
H1280 H 0.34004 0.4403 0.77944 0.0
S1281 S 0.24531 0.44289 0.72709 0.0
N1282 N 0.25322 0.45192 0.76944 0.0
N1283 N 0.26858 0.43545 0.71266 0.0
C1284 C 0.28415 0.44026 0.74273 0.0
C1285 C 0.27591 0.44929 0.77329 0.0
C1286 C 0.68833 0.94064 0.76459 0.0
C1287 C 0.70196 0.92531 0.76919 0.0
C1288 C 0.68993 0.95469 0.73251 0.0
C1289 C 0.70543 0.95442 0.70324 0.0
H1290 H 0.67654 0.94223 0.78624 0.0
H1291 H 0.6792 0.96627 0.73093 0.0
S1292 S 0.74465 0.91701 0.70036 0.0
N1293 N 0.73114 0.91041 0.74055 0.0
N1294 N 0.73424 0.93676 0.68093 0.0
C1295 C 0.71883 0.93885 0.70715 0.0
C1296 C 0.71707 0.92437 0.73978 0.0
C1297 C 0.16899 0.84118 0.7239 0.0
C1298 C 0.1631 0.86185 0.73432 0.0
C1299 C 0.15676 0.82495 0.69324 0.0
C1300 C 0.13792 0.82852 0.67192 0.0
H1301 H 0.18354 0.83785 0.73925 0.0
H1302 H 0.16211 0.80943 0.68627 0.0
S1303 S 0.11443 0.87892 0.68888 0.0
N1304 N 0.13651 0.88435 0.72167 0.0
N1305 N 0.11345 0.85398 0.66428 0.0
C1306 C 0.13161 0.84894 0.68238 0.0
C1307 C 0.14423 0.86556 0.71345 0.0
C1308 C 0.36198 0.16975 0.6068 0.0
C1309 C 0.38156 0.19395 0.62457 0.0
C1310 C 0.36827 0.15961 0.57619 0.0
C1311 C 0.39451 0.17307 0.56119 0.0
H1312 H 0.34128 0.15813 0.61663 0.0
H1313 H 0.35216 0.14091 0.56413 0.0
S1314 S 0.45373 0.23719 0.59676 0.0
N1315 N 0.42874 0.2311 0.62462 0.0
N1316 N 0.4406 0.21215 0.56671 0.0
C1317 C 0.41451 0.19734 0.57846 0.0
C1318 C 0.40807 0.20768 0.61014 0.0
C1319 C 0.969 0.2508 0.55867 0.0
C1320 C 0.96905 0.25751 0.59486 0.0
C1321 C 0.98169 0.27144 0.53286 0.0
C1322 C 0.99508 0.29952 0.54239 0.0
H1323 H 0.95818 0.22951 0.55015 0.0
H1324 H 0.98044 0.26532 0.50514 0.0
S1325 S 1.00377 0.32734 0.6346 0.0
N1326 N 0.98539 0.29374 0.63944 0.0
N1327 N 1.00943 0.33255 0.59138 0.0
C1328 C 0.99626 0.3063 0.57885 0.0
C1329 C 0.98318 0.2853 0.60495 0.0
C1330 C 0.85524 0.79142 0.57516 0.0
C1331 C 0.86609 0.77448 0.58509 0.0
C1332 C 0.83849 0.78555 0.54458 0.0
C1333 C 0.83188 0.76237 0.52324 0.0
H1334 H 0.85884 0.8087 0.59191 0.0
H1335 H 0.82966 0.79847 0.53858 0.0
S1336 S 0.85898 0.71441 0.53386 0.0
N1337 N 0.87227 0.73596 0.56792 0.0
N1338 N 0.8398 0.72426 0.51159 0.0
C1339 C 0.84374 0.74615 0.53174 0.0
C1340 C 0.86112 0.75236 0.56239 0.0
C1341 C 0.83287 0.71825 0.31826 0.0
C1342 C 0.81442 0.6952 0.29778 0.0
C1343 C 0.82442 0.72626 0.34876 0.0
C1344 C 0.79734 0.71118 0.36041 0.0
H1345 H 0.85401 0.7305 0.31036 0.0
H1346 H 0.83921 0.74443 0.36326 0.0
S1347 S 0.74095 0.6491 0.31691 0.0
N1348 N 0.76773 0.65747 0.29144 0.0
N1349 N 0.75203 0.6719 0.34978 0.0
C1350 C 0.77882 0.68756 0.34104 0.0
C1351 C 0.78733 0.67966 0.30952 0.0
C1352 C 0.40486 0.18763 0.31362 0.0
C1353 C 0.39137 0.20322 0.31494 0.0
C1354 C 0.40859 0.17524 0.34453 0.0
C1355 C 0.39842 0.1773 0.378 0.0
H1356 H 0.41359 0.18586 0.28877 0.0
H1357 H 0.41949 0.16389 0.34212 0.0
S1358 S 0.36071 0.21488 0.39578 0.0
N1359 N 0.36761 0.21968 0.35275 0.0
N1360 N 0.37354 0.19563 0.41008 0.0
C1361 C 0.38422 0.19216 0.37942 0.0
C1362 C 0.38101 0.2053 0.34819 0.0
C1363 C 0.95848 0.31617 0.31525 0.0
C1364 C 0.93137 0.31098 0.31819 0.0
C1365 C 0.97684 0.32619 0.34428 0.0
C1366 C 0.96882 0.33129 0.37758 0.0
H1367 H 0.96548 0.31219 0.29028 0.0
H1368 H 0.9974 0.32958 0.34064 0.0
S1369 S 0.90019 0.32159 0.39909 0.0
N1370 N 0.89746 0.31205 0.3568 0.0
N1371 N 0.93199 0.33109 0.41151 0.0
C1372 C 0.94191 0.32675 0.38072 0.0
C1373 C 0.9232 0.31661 0.35099 0.0
C1374 C 0.36408 0.25557 0.8511 0.0
C1375 C 0.37954 0.26681 0.81999 0.0
C1376 C 0.36704 0.2717 0.88137 0.0
C1377 C 0.38553 0.30013 0.88227 0.0
H1378 H 0.34883 0.23398 0.85183 0.0
H1379 H 0.35408 0.26174 0.90401 0.0
S1380 S 0.43203 0.33991 0.80856 0.0
N1381 N 0.41497 0.30823 0.79254 0.0
N1382 N 0.42063 0.33874 0.84941 0.0
C1383 C 0.40195 0.31164 0.85184 0.0
C1384 C 0.39899 0.29499 0.82082 0.0
C1385 C 0.85083 0.14133 0.83913 0.0
C1386 C 0.85234 0.1622 0.81679 0.0
C1387 C 0.83197 0.13088 0.86702 0.0
C1388 C 0.81361 0.14063 0.87352 0.0
H1389 H 0.86398 0.13262 0.83467 0.0
H1390 H 0.83148 0.11464 0.88326 0.0
S1391 S 0.81076 0.19694 0.8254 0.0
N1392 N 0.83519 0.1939 0.80537 0.0
N1393 N 0.79903 0.1733 0.85678 0.0
C1394 C 0.81505 0.16171 0.85185 0.0
C1395 C 0.83458 0.17273 0.82377 0.0
C1396 C 0.96652 0.76977 0.84695 0.0
C1397 C 0.96732 0.76235 0.81128 0.0
C1398 C 0.97691 0.76074 0.87481 0.0
C1399 C 0.98825 0.74373 0.86808 0.0
H1400 H 0.95715 0.78206 0.8535 0.0
H1401 H 0.97558 0.76674 0.90192 0.0
S1402 S 0.99807 0.72098 0.77914 0.0
N1403 N 0.98277 0.73909 0.7705 0.0
N1404 N 1.00141 0.72134 0.82305 0.0
C1405 C 0.98978 0.73666 0.83253 0.0
C1406 C 0.97956 0.74617 0.80409 0.0
C1407 C 0.93946 0.72155 0.06871 0.0
C1408 C 0.91597 0.69561 0.0728 0.0
C1409 C 0.96091 0.72517 0.04663 0.0
C1410 C 0.95969 0.70307 0.02735 0.0
H1411 H 0.94116 0.73942 0.0822 0.0
H1412 H 0.97831 0.74563 0.04405 0.0
S1413 S 0.90383 0.63059 0.0304 0.0
N1414 N 0.89365 0.6471 0.05724 0.0
N1415 N 0.93368 0.65407 1.01479 0.0
C1416 C 0.93654 0.67694 0.03137 0.0
C1417 C 0.91474 0.67318 0.05424 0.0
C1418 C 0.36863 0.28846 0.13025 0.0
C1419 C 0.3812 0.27199 0.13241 0.0
C1420 C 0.36919 0.30261 0.09873 0.0
C1421 C 0.38252 0.30123 0.06771 0.0
H1422 H 0.35854 0.29085 0.15334 0.0
H1423 H 0.35937 0.31508 0.0989 0.0
S1424 S 0.41791 0.2604 0.0582 0.0
N1425 N 0.40681 0.25471 0.09964 0.0
N1426 N 0.40798 0.28125 0.04103 0.0
C1427 C 0.3948 0.28452 0.06922 0.0
C1428 C 0.3941 0.26996 0.10125 0.0
C1429 C 0.82534 0.1775 0.09145 0.0
C1430 C 0.82257 0.20108 0.0949 0.0
C1431 C 0.81121 0.15776 0.06475 0.0
C1432 C 0.79397 0.16091 0.04002 0.0
H1433 H 0.83901 0.17442 0.10903 0.0
H1434 H 0.81437 0.14022 0.06299 0.0
S1435 S 0.77763 0.2175 0.03885 0.0
N1436 N 0.79953 0.22526 0.07256 0.0
N1437 N 0.77369 0.18861 0.02161 0.0
C1438 C 0.79062 0.1841 0.04332 0.0
C1439 C 0.80475 0.20407 0.07087 0.0
loop_
_geom_bond_atom_site_label_1
_geom_bond_atom_site_label_2
_geom_bond_distance
_geom_bond_site_symmetry_2
_ccdc_geom_bond_type
Cu0 N1 1.999 . S
Cu0 O6 1.974 1_554 S
Cu0 N11 1.985 1_554 S
Cu0 O20 1.959 . S
N1 Cu0 1.999 . S
N1 C3 1.263 . S
N1 C5 1.389 . S
N2 C3 1.358 . S
N2 C4 1.400 . S
C3 N1 1.263 . S
C3 N2 1.358 . S
C3 H9 0.930 1_455 S
C4 N2 1.400 . S
C4 C5 1.351 . S
C4 H21 0.930 . S
C5 N1 1.389 . S
C5 C4 1.351 . S
C5 H10 0.930 . S
O6 Cu0 1.974 1_556 S
O6 C16 1.282 1_455 S
C7 O8 1.233 1_455 S
C7 O20 1.263 . S
O8 C7 1.233 1_655 S
H9 C3 0.930 1_655 S
H10 C5 0.930 . S
N11 Cu0 1.985 1_556 S
N11 C13 1.335 . S
N11 C14 1.390 1_455 S
N12 C13 1.345 . S
N12 C15 1.336 1_455 S
C13 N11 1.335 . S
C13 N12 1.345 . S
C13 H18 0.930 . S
C14 N11 1.390 1_655 S
C14 C15 1.346 . S
C14 H19 0.930 . S
C15 N12 1.336 1_655 S
C15 C14 1.346 . S
C15 H22 0.929 . S
C16 O6 1.282 1_655 S
C16 O17 1.216 . S
O17 C16 1.216 . S
H18 C13 0.930 . S
H19 C14 0.930 . S
O20 Cu0 1.959 . S
O20 C7 1.263 . S
H21 C4 0.930 . S
H22 C15 0.929 . S
Cu23 N24 1.999 1_554 S
Cu23 O29 1.974 . S
Cu23 N34 1.985 . S
Cu23 O43 1.959 1_554 S
N24 Cu23 1.999 1_556 S
N24 C26 1.263 . S
N24 C28 1.389 . S
N25 C26 1.358 . S
N25 C27 1.400 . S
C26 N24 1.263 . S
C26 N25 1.358 . S
C26 H32 0.930 . S
C27 N25 1.400 . S
C27 C28 1.351 . S
C27 H44 0.930 . S
C28 N24 1.389 . S
C28 C27 1.351 . S
C28 H33 0.930 . S
O29 Cu23 1.974 . S
O29 C39 1.282 . S
C30 O31 1.261 1_556 S
C30 O43 1.251 . S
O31 C30 1.261 1_554 S
H32 C26 0.930 . S
H33 C28 0.930 . S
N34 Cu23 1.985 . S
N34 C36 1.335 . S
N34 C37 1.390 . S
N35 C36 1.345 . S
N35 C38 1.336 . S
C36 N34 1.335 . S
C36 N35 1.345 . S
C36 H41 0.930 . S
C37 N34 1.390 . S
C37 C38 1.346 . S
C37 H42 0.930 . S
C38 N35 1.336 . S
C38 C37 1.346 . S
C38 H45 0.929 . S
C39 O29 1.282 . S
C39 O40 1.216 . S
O40 C39 1.216 . S
H41 C36 0.930 . S
H42 C37 0.930 . S
O43 Cu23 1.959 1_556 S
O43 C30 1.251 . S
H44 C27 0.930 . S
H45 C38 0.929 . S
Cu46 N47 1.999 1_554 S
Cu46 O52 1.974 . S
Cu46 N57 1.985 . S
Cu46 O66 1.959 . S
N47 Cu46 1.999 1_556 S
N47 C49 1.263 . S
N47 C51 1.389 . S
N48 C49 1.358 . S
N48 C50 1.400 . S
C49 N47 1.263 . S
C49 N48 1.358 . S
C49 H55 0.930 . S
C50 N48 1.400 . S
C50 C51 1.351 . S
C50 H67 0.930 . S
C51 N47 1.389 . S
C51 C50 1.351 . S
C51 H56 0.930 . S
O52 Cu46 1.974 . S
O52 C62 1.282 . S
C53 O54 1.263 . S
C53 O66 1.251 1_556 S
O54 C53 1.263 . S
H55 C49 0.930 . S
H56 C51 0.930 . S
N57 Cu46 1.985 . S
N57 C59 1.335 . S
N57 C60 1.390 . S
N58 C59 1.345 . S
N58 C61 1.336 . S
C59 N57 1.335 . S
C59 N58 1.345 . S
C59 H64 0.930 . S
C60 N57 1.390 . S
C60 C61 1.346 . S
C60 H65 0.930 . S
C61 N58 1.336 . S
C61 C60 1.346 . S
C61 H68 0.929 . S
C62 O52 1.282 . S
C62 O63 1.216 . S
O63 C62 1.216 . S
H64 C59 0.930 . S
H65 C60 0.930 . S
O66 Cu46 1.959 . S
O66 C53 1.251 1_554 S
H67 C50 0.930 . S
H68 C61 0.929 . S
Cu69 N70 1.999 . S
Cu69 O75 1.974 . S
Cu69 N80 1.985 . S
Cu69 O89 1.959 . S
N70 Cu69 1.999 . S
N70 C72 1.263 . S
N70 C74 1.389 . S
N71 C72 1.358 . S
N71 C73 1.400 . S
C72 N70 1.263 . S
C72 N71 1.358 . S
C72 H78 0.930 . S
C73 N71 1.400 . S
C73 C74 1.351 . S
C73 H90 0.930 . S
C74 N70 1.389 . S
C74 C73 1.351 . S
C74 H79 0.930 . S
O75 Cu69 1.974 . S
O75 C85 1.282 . S
C76 O77 1.261 . S
C76 O89 1.251 . S
O77 C76 1.261 . S
H78 C72 0.930 . S
H79 C74 0.930 . S
N80 Cu69 1.985 . S
N80 C82 1.335 . S
N80 C83 1.390 . S
N81 C82 1.345 . S
N81 C84 1.336 . S
C82 N80 1.335 . S
C82 N81 1.345 . S
C82 H87 0.930 . S
C83 N80 1.390 . S
C83 C84 1.346 . S
C83 H88 0.910 1_545 S
C84 N81 1.336 . S
C84 C83 1.346 . S
C84 H91 0.929 1_545 S
C85 O75 1.282 . S
C85 O86 1.216 1_545 S
O86 C85 1.216 1_565 S
H87 C82 0.930 . S
H88 C83 0.910 1_565 S
O89 Cu69 1.959 . S
O89 C76 1.251 . S
H90 C73 0.930 . S
H91 C84 0.929 1_565 S
Cu92 N93 1.999 . S
Cu92 O98 1.974 . S
Cu92 N103 1.985 . S
Cu92 O112 1.959 . S
N93 Cu92 1.999 . S
N93 C95 1.263 . S
N93 C97 1.389 . S
N94 C95 1.358 . S
N94 C96 1.400 . S
C95 N93 1.263 . S
C95 N94 1.358 . S
C95 H101 0.930 . S
C96 N94 1.400 . S
C96 C97 1.351 . S
C96 H113 0.930 . S
C97 N93 1.389 . S
C97 C96 1.351 . S
C97 H102 0.930 . S
O98 Cu92 1.974 . S
O98 C108 1.282 . S
C99 O100 1.261 . S
C99 O112 1.251 . S
O100 C99 1.261 . S
H101 C95 0.930 . S
H102 C97 0.930 . S
N103 Cu92 1.985 . S
N103 C105 1.335 . S
N103 C106 1.390 . S
N104 C105 1.345 . S
N104 C107 1.336 . S
C105 N103 1.335 . S
C105 N104 1.345 . S
C105 H110 0.930 . S
C106 N103 1.390 . S
C106 C107 1.346 . S
C106 H111 0.930 . S
C107 N104 1.336 . S
C107 C106 1.346 . S
C107 H114 0.929 . S
C108 O98 1.282 . S
C108 O109 1.216 . S
O109 C108 1.216 . S
H110 C105 0.930 . S
H111 C106 0.930 . S
O112 Cu92 1.959 . S
O112 C99 1.251 . S
H113 C96 0.930 . S
H114 C107 0.929 . S
Cu115 N116 1.999 . S
Cu115 O121 1.974 . S
Cu115 N126 1.985 . S
Cu115 O135 1.959 . S
N116 Cu115 1.999 . S
N116 C118 1.263 . S
N116 C120 1.389 . S
N117 C118 1.358 . S
N117 C119 1.400 . S
C118 N116 1.263 . S
C118 N117 1.358 . S
C118 H124 0.930 . S
C119 N117 1.400 . S
C119 C120 1.351 . S
C119 H136 0.930 . S
C120 N116 1.389 . S
C120 C119 1.351 . S
C120 H125 0.930 . S
O121 Cu115 1.974 . S
O121 C131 1.282 . S
C122 O123 1.261 . S
C122 O135 1.251 . S
O123 C122 1.261 . S
H124 C118 0.930 . S
H125 C120 0.930 . S
N126 Cu115 1.985 . S
N126 C128 1.335 . S
N126 C129 1.390 . S
N127 C128 1.345 . S
N127 C130 1.336 . S
C128 N126 1.335 . S
C128 N127 1.345 . S
C128 H133 0.930 . S
C129 N126 1.390 . S
C129 C130 1.346 . S
C129 H134 0.930 . S
C130 N127 1.336 . S
C130 C129 1.346 . S
C130 H137 0.929 . S
C131 O121 1.282 . S
C131 O132 1.216 . S
O132 C131 1.216 . S
H133 C128 0.930 . S
H134 C129 0.930 . S
O135 Cu115 1.959 . S
O135 C122 1.251 . S
H136 C119 0.930 . S
H137 C130 0.929 . S
Cu138 N139 1.999 . S
Cu138 O144 1.974 . S
Cu138 N149 1.985 . S
Cu138 O158 1.959 . S
N139 Cu138 1.999 . S
N139 C141 1.263 . S
N139 C143 1.389 . S
N140 C141 1.358 . S
N140 C142 1.400 . S
C141 N139 1.263 . S
C141 N140 1.358 . S
C141 H147 0.930 . S
C142 N140 1.400 . S
C142 C143 1.351 . S
C142 H159 0.930 . S
C143 N139 1.389 . S
C143 C142 1.351 . S
C143 H148 0.930 . S
O144 Cu138 1.974 . S
O144 C154 1.282 . S
C145 O146 1.261 . S
C145 O158 1.251 . S
O146 C145 1.261 . S
H147 C141 0.930 . S
H148 C143 0.930 . S
N149 Cu138 1.985 . S
N149 C151 1.335 . S
N149 C152 1.390 . S
N150 C151 1.345 . S
N150 C153 1.336 . S
C151 N149 1.335 . S
C151 N150 1.345 . S
C151 H156 0.930 . S
C152 N149 1.390 . S
C152 C153 1.346 . S
C152 H157 0.930 . S
C153 N150 1.336 . S
C153 C152 1.346 . S
C153 H160 0.929 . S
C154 O144 1.282 . S
C154 O155 1.216 . S
O155 C154 1.216 . S
H156 C151 0.930 . S
H157 C152 0.930 . S
O158 Cu138 1.959 . S
O158 C145 1.251 . S
H159 C142 0.930 . S
H160 C153 0.929 . S
Cu161 N162 1.999 . S
Cu161 O167 1.974 . S
Cu161 N172 1.985 . S
Cu161 O181 1.959 . S
N162 Cu161 1.999 . S
N162 C164 1.263 . S
N162 C166 1.389 . S
N163 C164 1.358 . S
N163 C165 1.400 . S
C164 N162 1.263 . S
C164 N163 1.358 . S
C164 H170 0.930 . S
C165 N163 1.400 . S
C165 C166 1.351 . S
C165 H182 0.930 . S
C166 N162 1.389 . S
C166 C165 1.351 . S
C166 H171 0.930 . S
O167 Cu161 1.974 . S
O167 C177 1.282 . S
C168 O169 1.261 . S
C168 O181 1.251 . S
O169 C168 1.261 . S
H170 C164 0.930 . S
H171 C166 0.930 . S
N172 Cu161 1.985 . S
N172 C174 1.335 . S
N172 C175 1.390 . S
N173 C174 1.345 . S
N173 C176 1.336 . S
C174 N172 1.335 . S
C174 N173 1.345 . S
C174 H179 0.930 . S
C175 N172 1.390 . S
C175 C176 1.346 . S
C175 H180 0.930 . S
C176 N173 1.336 . S
C176 C175 1.346 . S
C176 H183 0.929 . S
C177 O167 1.282 . S
C177 O178 1.216 . S
O178 C177 1.216 . S
H179 C174 0.930 . S
H180 C175 0.930 . S
O181 Cu161 1.959 . S
O181 C168 1.251 . S
H182 C165 0.930 . S
H183 C176 0.929 . S
Cu184 N185 1.999 . S
Cu184 O190 1.974 . S
Cu184 N195 1.985 . S
Cu184 O204 1.959 . S
N185 Cu184 1.999 . S
N185 C187 1.263 . S
N185 C189 1.389 . S
N186 C187 1.358 . S
N186 C188 1.400 . S
C187 N185 1.263 . S
C187 N186 1.358 . S
C187 H193 0.930 . S
C188 N186 1.400 . S
C188 C189 1.351 . S
C188 H205 0.930 . S
C189 N185 1.389 . S
C189 C188 1.351 . S
C189 H194 0.930 . S
O190 Cu184 1.974 . S
O190 C200 1.282 . S
C191 O192 1.261 . S
C191 O204 1.251 . S
O192 C191 1.261 . S
H193 C187 0.930 . S
H194 C189 0.930 . S
N195 Cu184 1.985 . S
N195 C197 1.335 . S
N195 C198 1.390 . S
N196 C197 1.345 . S
N196 C199 1.336 . S
C197 N195 1.335 . S
C197 N196 1.345 . S
C197 H202 0.930 . S
C198 N195 1.390 . S
C198 C199 1.346 . S
C198 H203 0.930 . S
C199 N196 1.336 . S
C199 C198 1.346 . S
C199 H206 0.929 . S
C200 O190 1.282 . S
C200 O201 1.216 . S
O201 C200 1.216 . S
H202 C197 0.930 . S
H203 C198 0.930 . S
O204 Cu184 1.959 . S
O204 C191 1.251 . S
H205 C188 0.930 . S
H206 C199 0.929 . S
Cu207 N208 1.999 . S
Cu207 O213 1.974 . S
Cu207 N218 1.985 . S
Cu207 O227 1.959 . S
N208 Cu207 1.999 . S
N208 C210 1.263 . S
N208 C212 1.389 . S
N209 C210 1.358 . S
N209 C211 1.400 . S
C210 N208 1.263 . S
C210 N209 1.358 . S
C210 H216 0.930 . S
C211 N209 1.400 . S
C211 C212 1.351 . S
C211 H228 0.930 . S
C212 N208 1.389 . S
C212 C211 1.351 . S
C212 H217 0.930 . S
O213 Cu207 1.974 . S
O213 C223 1.282 . S
C214 O215 1.261 . S
C214 O227 1.251 . S
O215 C214 1.261 . S
H216 C210 0.930 . S
H217 C212 0.930 . S
N218 Cu207 1.985 . S
N218 C220 1.335 . S
N218 C221 1.390 . S
N219 C220 1.345 . S
N219 C222 1.336 . S
C220 N218 1.335 . S
C220 N219 1.345 . S
C220 H225 0.930 . S
C221 N218 1.390 . S
C221 C222 1.346 . S
C221 H226 0.930 . S
C222 N219 1.336 . S
C222 C221 1.346 . S
C222 H229 0.929 . S
C223 O213 1.282 . S
C223 O224 1.216 . S
O224 C223 1.216 . S
H225 C220 0.930 . S
H226 C221 0.930 . S
O227 Cu207 1.959 . S
O227 C214 1.251 . S
H228 C211 0.930 . S
H229 C222 0.929 . S
Cu230 N231 1.999 . S
Cu230 O236 1.974 . S
Cu230 N241 1.985 . S
Cu230 O250 1.959 . S
N231 Cu230 1.999 . S
N231 C233 1.263 . S
N231 C235 1.389 . S
N232 C233 1.358 . S
N232 C234 1.400 . S
C233 N231 1.263 . S
C233 N232 1.358 . S
C233 H239 0.930 . S
C234 N232 1.400 . S
C234 C235 1.351 . S
C234 H251 0.930 . S
C235 N231 1.389 . S
C235 C234 1.351 . S
C235 H240 0.930 . S
O236 Cu230 1.974 . S
O236 C246 1.282 . S
C237 O238 1.261 . S
C237 O250 1.251 . S
O238 C237 1.261 . S
H239 C233 0.930 . S
H240 C235 0.930 . S
N241 Cu230 1.985 . S
N241 C243 1.335 . S
N241 C244 1.390 . S
N242 C243 1.345 . S
N242 C245 1.336 . S
C243 N241 1.335 . S
C243 N242 1.345 . S
C243 H248 0.930 . S
C244 N241 1.390 . S
C244 C245 1.346 . S
C244 H249 0.930 . S
C245 N242 1.336 . S
C245 C244 1.346 . S
C245 H252 0.929 . S
C246 O236 1.282 . S
C246 O247 1.216 . S
O247 C246 1.216 . S
H248 C243 0.930 . S
H249 C244 0.930 . S
O250 Cu230 1.959 . S
O250 C237 1.251 . S
H251 C234 0.930 . S
H252 C245 0.929 . S
Cu253 N254 1.999 . S
Cu253 O259 1.974 . S
Cu253 N264 1.985 . S
Cu253 O273 1.959 . S
N254 Cu253 1.999 . S
N254 C256 1.263 . S
N254 C258 1.389 . S
N255 C256 1.358 . S
N255 C257 1.400 . S
C256 N254 1.263 . S
C256 N255 1.358 . S
C256 H262 0.930 . S
C257 N255 1.400 . S
C257 C258 1.351 . S
C257 H274 0.930 . S
C258 N254 1.389 . S
C258 C257 1.351 . S
C258 H263 0.930 . S
O259 Cu253 1.974 . S
O259 C269 1.282 . S
C260 O261 1.261 . S
C260 O273 1.251 . S
O261 C260 1.261 . S
H262 C256 0.930 . S
H263 C258 0.930 . S
N264 Cu253 1.985 . S
N264 C266 1.335 . S
N264 C267 1.390 . S
N265 C266 1.345 . S
N265 C268 1.336 . S
C266 N264 1.335 . S
C266 N265 1.345 . S
C266 H271 0.930 . S
C267 N264 1.390 . S
C267 C268 1.346 . S
C267 H272 0.930 . S
C268 N265 1.336 . S
C268 C267 1.346 . S
C268 H275 0.929 . S
C269 O259 1.282 . S
C269 O270 1.216 . S
O270 C269 1.216 . S
H271 C266 0.930 . S
H272 C267 0.930 . S
O273 Cu253 1.959 . S
O273 C260 1.251 . S
H274 C257 0.930 . S
H275 C268 0.929 . S
Cu276 N277 1.999 . S
Cu276 O282 1.974 . S
Cu276 N287 1.985 . S
Cu276 O296 1.959 . S
N277 Cu276 1.999 . S
N277 C279 1.263 . S
N277 C281 1.389 . S
N278 C279 1.358 . S
N278 C280 1.400 . S
C279 N277 1.263 . S
C279 N278 1.358 . S
C279 H285 0.930 . S
C280 N278 1.400 . S
C280 C281 1.351 . S
C280 H297 0.930 . S
C281 N277 1.389 . S
C281 C280 1.351 . S
C281 H286 0.930 . S
O282 Cu276 1.974 . S
O282 C292 1.282 . S
C283 O284 1.261 . S
C283 O296 1.251 . S
O284 C283 1.261 . S
H285 C279 0.930 . S
H286 C281 0.930 . S
N287 Cu276 1.985 . S
N287 C289 1.335 . S
N287 C290 1.390 . S
N288 C289 1.345 . S
N288 C291 1.336 . S
C289 N287 1.335 . S
C289 N288 1.345 . S
C289 H294 0.930 . S
C290 N287 1.390 . S
C290 C291 1.346 . S
C290 H295 0.930 . S
C291 N288 1.336 . S
C291 C290 1.346 . S
C291 H298 0.929 . S
C292 O282 1.282 . S
C292 O293 1.216 . S
O293 C292 1.216 . S
H294 C289 0.930 . S
H295 C290 0.930 . S
O296 Cu276 1.959 . S
O296 C283 1.251 . S
H297 C280 0.930 . S
H298 C291 0.929 . S
Cu299 N300 1.999 . S
Cu299 O305 1.974 . S
Cu299 N310 1.985 . S
Cu299 O319 1.959 . S
N300 Cu299 1.999 . S
N300 C302 1.263 . S
N300 C304 1.389 . S
N301 C302 1.358 . S
N301 C303 1.400 . S
C302 N300 1.263 . S
C302 N301 1.358 . S
C302 H308 0.930 . S
C303 N301 1.400 . S
C303 C304 1.351 . S
C303 H320 0.930 . S
C304 N300 1.389 . S
C304 C303 1.351 . S
C304 H309 0.930 . S
O305 Cu299 1.974 . S
O305 C315 1.282 . S
C306 O307 1.261 . S
C306 O319 1.251 . S
O307 C306 1.261 . S
H308 C302 0.930 . S
H309 C304 0.930 . S
N310 Cu299 1.985 . S
N310 C312 1.335 . S
N310 C313 1.390 . S
N311 C312 1.345 . S
N311 C314 1.336 . S
C312 N310 1.335 . S
C312 N311 1.345 . S
C312 H317 0.930 . S
C313 N310 1.390 . S
C313 C314 1.346 . S
C313 H318 0.930 . S
C314 N311 1.336 . S
C314 C313 1.346 . S
C314 H321 0.929 . S
C315 O305 1.282 . S
C315 O316 1.216 . S
O316 C315 1.216 . S
H317 C312 0.930 . S
H318 C313 0.930 . S
O319 Cu299 1.959 . S
O319 C306 1.251 . S
H320 C303 0.930 . S
H321 C314 0.929 . S
Cu322 N323 1.999 . S
Cu322 O328 1.974 . S
Cu322 N333 1.985 . S
Cu322 O342 1.959 . S
N323 Cu322 1.999 . S
N323 C325 1.263 . S
N323 C327 1.389 . S
N324 C325 1.358 . S
N324 C326 1.400 . S
C325 N323 1.263 . S
C325 N324 1.358 . S
C325 H331 0.930 . S
C326 N324 1.400 . S
C326 C327 1.351 . S
C326 H343 0.930 . S
C327 N323 1.389 . S
C327 C326 1.351 . S
C327 H332 0.930 . S
O328 Cu322 1.974 . S
O328 C338 1.282 . S
C329 O330 1.261 . S
C329 O342 1.251 . S
O330 C329 1.261 . S
H331 C325 0.930 . S
H332 C327 0.930 . S
N333 Cu322 1.985 . S
N333 C335 1.335 . S
N333 C336 1.390 . S
N334 C335 1.345 . S
N334 C337 1.336 . S
C335 N333 1.335 . S
C335 N334 1.345 . S
C335 H340 0.930 . S
C336 N333 1.390 . S
C336 C337 1.346 . S
C336 H341 0.930 . S
C337 N334 1.336 . S
C337 C336 1.346 . S
C337 H344 0.929 . S
C338 O328 1.282 . S
C338 O339 1.216 . S
O339 C338 1.216 . S
H340 C335 0.930 . S
H341 C336 0.930 . S
O342 Cu322 1.959 . S
O342 C329 1.251 . S
H343 C326 0.930 . S
H344 C337 0.929 . S
Cu345 N346 1.999 . S
Cu345 O351 1.974 . S
Cu345 N356 1.985 . S
Cu345 O365 1.959 . S
N346 Cu345 1.999 . S
N346 C348 1.263 . S
N346 C350 1.389 . S
N347 C348 1.358 . S
N347 C349 1.400 . S
C348 N346 1.263 . S
C348 N347 1.358 . S
C348 H354 0.930 . S
C349 N347 1.400 . S
C349 C350 1.351 . S
C349 H366 0.930 . S
C350 N346 1.389 . S
C350 C349 1.351 . S
C350 H355 0.930 . S
O351 Cu345 1.974 . S
O351 C361 1.282 . S
C352 O353 1.261 . S
C352 O365 1.251 . S
O353 C352 1.261 . S
H354 C348 0.930 . S
H355 C350 0.930 . S
N356 Cu345 1.985 . S
N356 C358 1.335 . S
N356 C359 1.390 . S
N357 C358 1.345 . S
N357 C360 1.336 . S
C358 N356 1.335 . S
C358 N357 1.345 . S
C358 H363 0.930 . S
C359 N356 1.390 . S
C359 C360 1.346 . S
C359 H364 0.930 . S
C360 N357 1.336 . S
C360 C359 1.346 . S
C360 H367 0.929 . S
C361 O351 1.282 . S
C361 O362 1.216 . S
O362 C361 1.216 . S
H363 C358 0.930 . S
H364 C359 0.930 . S
O365 Cu345 1.959 . S
O365 C352 1.251 . S
H366 C349 0.930 . S
H367 C360 0.929 . S
Cu368 N369 1.999 . S
Cu368 O374 1.974 . S
Cu368 N379 1.985 . S
Cu368 O388 1.959 . S
N369 Cu368 1.999 . S
N369 C371 1.263 . S
N369 C373 1.389 . S
N370 C371 1.358 . S
N370 C372 1.400 . S
C371 N369 1.263 . S
C371 N370 1.358 . S
C371 H377 0.930 . S
C372 N370 1.400 . S
C372 C373 1.351 . S
C372 H389 0.930 . S
C373 N369 1.389 . S
C373 C372 1.351 . S
C373 H378 0.930 . S
O374 Cu368 1.974 . S
O374 C384 1.282 . S
C375 O376 1.261 . S
C375 O388 1.251 . S
O376 C375 1.261 . S
H377 C371 0.930 . S
H378 C373 0.930 . S
N379 Cu368 1.985 . S
N379 C381 1.335 . S
N379 C382 1.390 . S
N380 C381 1.345 . S
N380 C383 1.336 . S
C381 N379 1.335 . S
C381 N380 1.345 . S
C381 H386 0.930 . S
C382 N379 1.390 . S
C382 C383 1.346 . S
C382 H387 0.930 . S
C383 N380 1.336 . S
C383 C382 1.346 . S
C383 H390 0.929 . S
C384 O374 1.282 . S
C384 O385 1.216 . S
O385 C384 1.216 . S
H386 C381 0.930 . S
H387 C382 0.930 . S
O388 Cu368 1.959 . S
O388 C375 1.251 . S
H389 C372 0.930 . S
H390 C383 0.929 . S
Cu391 N392 1.999 . S
Cu391 O397 1.974 . S
Cu391 N402 1.985 . S
Cu391 O411 1.959 . S
N392 Cu391 1.999 . S
N392 C394 1.263 . S
N392 C396 1.389 . S
N393 C394 1.358 . S
N393 C395 1.400 . S
C394 N392 1.263 . S
C394 N393 1.358 . S
C394 H400 0.930 . S
C395 N393 1.400 . S
C395 C396 1.351 . S
C395 H412 0.930 . S
C396 N392 1.389 . S
C396 C395 1.351 . S
C396 H401 0.930 . S
O397 Cu391 1.974 . S
O397 C407 1.282 . S
C398 O399 1.261 . S
C398 O411 1.251 . S
O399 C398 1.261 . S
H400 C394 0.930 . S
H401 C396 0.930 . S
N402 Cu391 1.985 . S
N402 C404 1.335 . S
N402 C405 1.390 . S
N403 C404 1.345 . S
N403 C406 1.336 . S
C404 N402 1.335 . S
C404 N403 1.345 . S
C404 H409 0.930 . S
C405 N402 1.390 . S
C405 C406 1.346 . S
C405 H410 0.930 . S
C406 N403 1.336 . S
C406 C405 1.346 . S
C406 H413 0.929 . S
C407 O397 1.282 . S
C407 O408 1.216 . S
O408 C407 1.216 . S
H409 C404 0.930 . S
H410 C405 0.930 . S
O411 Cu391 1.959 . S
O411 C398 1.251 . S
H412 C395 0.930 . S
H413 C406 0.929 . S
In414 O415 2.294 . S
In414 O416 2.326 . S
In414 O420 2.266 . S
In414 O421 2.326 1_455 S
In414 O422 2.266 1_455 S
In414 O423 2.326 . S
In414 O425 2.294 . S
In414 O426 2.326 . S
O415 In414 2.294 . S
O415 C424 1.240 . S
O416 In414 2.326 . S
O416 C424 1.252 . S
C417 O420 1.252 . S
C417 O421 1.260 1_455 S
C418 O425 1.240 . S
C418 O426 1.252 . S
C419 O422 1.252 . S
C419 O423 1.260 1_655 S
O420 In414 2.266 . S
O420 C417 1.252 . S
O421 In414 2.326 1_655 S
O421 C417 1.260 1_655 S
O422 In414 2.266 1_655 S
O422 C419 1.252 . S
O423 In414 2.326 . S
O423 C419 1.260 1_455 S
C424 O415 1.240 . S
C424 O416 1.252 . S
O425 In414 2.294 . S
O425 C418 1.240 . S
O426 In414 2.326 . S
O426 C418 1.252 . S
In427 O428 2.294 . S
In427 O429 2.326 . S
In427 O433 2.266 . S
In427 O434 2.326 . S
In427 O435 2.266 . S
In427 O436 2.326 . S
In427 O438 2.294 . S
In427 O439 2.326 . S
O428 In427 2.294 . S
O428 C437 1.240 . S
O429 In427 2.326 . S
O429 C437 1.252 . S
C430 O433 1.252 . S
C430 O434 1.260 . S
C431 O438 1.240 . S
C431 O439 1.252 . S
C432 O435 1.252 . S
C432 O436 1.260 . S
O433 In427 2.266 . S
O433 C430 1.252 . S
O434 In427 2.326 . S
O434 C430 1.260 . S
O435 In427 2.266 . S
O435 C432 1.252 . S
O436 In427 2.326 . S
O436 C432 1.260 . S
C437 O428 1.240 . S
C437 O429 1.252 . S
O438 In427 2.294 . S
O438 C431 1.240 . S
O439 In427 2.326 . S
O439 C431 1.252 . S
In440 O441 2.294 . S
In440 O442 2.326 . S
In440 O446 2.266 . S
In440 O447 2.326 . S
In440 O448 2.266 . S
In440 O449 2.326 . S
In440 O451 2.294 . S
In440 O452 2.326 . S
O441 In440 2.294 . S
O441 C450 1.240 . S
O442 In440 2.326 . S
O442 C450 1.252 . S
C443 O446 1.252 . S
C443 O447 1.260 . S
C444 O451 1.240 . S
C444 O452 1.252 . S
C445 O448 1.252 . S
C445 O449 1.260 . S
O446 In440 2.266 . S
O446 C443 1.252 . S
O447 In440 2.326 . S
O447 C443 1.260 . S
O448 In440 2.266 . S
O448 C445 1.252 . S
O449 In440 2.326 . S
O449 C445 1.260 . S
C450 O441 1.240 . S
C450 O442 1.252 . S
O451 In440 2.294 . S
O451 C444 1.240 . S
O452 In440 2.326 . S
O452 C444 1.252 . S
In453 O454 2.294 . S
In453 O455 2.326 . S
In453 O459 2.266 1_455 S
In453 O460 2.326 . S
In453 O461 2.266 . S
In453 O462 2.326 . S
In453 O464 2.294 . S
In453 O465 2.326 . S
O454 In453 2.294 . S
O454 C463 1.240 . S
O455 In453 2.326 . S
O455 C463 1.252 . S
C456 O459 1.252 1_455 S
C456 O460 1.260 . S
C457 O464 1.240 . S
C457 O465 1.252 . S
C458 O461 1.252 . S
C458 O462 1.260 . S
O459 In453 2.266 1_655 S
O459 C456 1.252 1_655 S
O460 In453 2.326 . S
O460 C456 1.260 . S
O461 In453 2.266 . S
O461 C458 1.252 . S
O462 In453 2.326 . S
O462 C458 1.260 . S
C463 O454 1.240 . S
C463 O455 1.252 . S
O464 In453 2.294 . S
O464 C457 1.240 . S
O465 In453 2.326 . S
O465 C457 1.252 . S
In466 O467 2.294 . S
In466 O468 2.326 . S
In466 O472 2.266 . S
In466 O473 2.326 . S
In466 O474 2.266 . S
In466 O475 2.326 . S
In466 O477 2.294 . S
In466 O478 2.326 . S
O467 In466 2.294 . S
O467 C476 1.240 . S
O468 In466 2.326 . S
O468 C476 1.252 . S
C469 O472 1.252 . S
C469 O473 1.260 . S
C470 O477 1.240 . S
C470 O478 1.252 . S
C471 O474 1.252 . S
C471 O475 1.260 . S
O472 In466 2.266 . S
O472 C469 1.252 . S
O473 In466 2.326 . S
O473 C469 1.260 . S
O474 In466 2.266 . S
O474 C471 1.252 . S
O475 In466 2.326 . S
O475 C471 1.260 . S
C476 O467 1.240 . S
C476 O468 1.252 . S
O477 In466 2.294 . S
O477 C470 1.240 . S
O478 In466 2.326 . S
O478 C470 1.252 . S
In479 O480 2.294 . S
In479 O481 2.326 . S
In479 O485 2.266 . S
In479 O486 2.326 . S
In479 O487 2.266 1_545 S
In479 O488 2.326 . S
In479 O490 2.294 . S
In479 O491 2.326 . S
O480 In479 2.294 . S
O480 C489 1.240 . S
O481 In479 2.326 . S
O481 C489 1.252 . S
C482 O485 1.252 . S
C482 O486 1.260 . S
C483 O490 1.240 . S
C483 O491 1.252 . S
C484 O487 1.252 . S
C484 O488 1.260 1_565 S
O485 In479 2.266 . S
O485 C482 1.252 . S
O486 In479 2.326 . S
O486 C482 1.260 . S
O487 In479 2.266 1_565 S
O487 C484 1.252 . S
O488 In479 2.326 . S
O488 C484 1.260 1_545 S
C489 O480 1.240 . S
C489 O481 1.252 . S
O490 In479 2.294 . S
O490 C483 1.240 . S
O491 In479 2.326 . S
O491 C483 1.252 . S
In492 O493 2.294 1_565 S
In492 O494 2.326 1_565 S
In492 O498 2.266 . S
In492 O499 2.326 . S
In492 O500 2.266 . S
In492 O501 2.326 1_565 S
In492 O503 2.294 . S
In492 O504 2.326 . S
O493 In492 2.294 1_545 S
O493 C502 1.240 . S
O494 In492 2.326 1_545 S
O494 C502 1.252 . S
C495 O498 1.252 . S
C495 O499 1.260 . S
C496 O503 1.240 . S
C496 O504 1.252 . S
C497 O500 1.252 . S
C497 O501 1.260 1_565 S
O498 In492 2.266 . S
O498 C495 1.252 . S
O499 In492 2.326 . S
O499 C495 1.260 . S
O500 In492 2.266 . S
O500 C497 1.252 . S
O501 In492 2.326 1_545 S
O501 C497 1.260 1_545 S
C502 O493 1.240 . S
C502 O494 1.252 . S
O503 In492 2.294 . S
O503 C496 1.240 . S
O504 In492 2.326 . S
O504 C496 1.252 . S
In505 O506 2.294 . S
In505 O507 2.326 . S
In505 O511 2.266 . S
In505 O512 2.326 . S
In505 O513 2.266 . S
In505 O514 2.326 . S
In505 O516 2.294 . S
In505 O517 2.326 . S
O506 In505 2.294 . S
O506 C515 1.240 . S
O507 In505 2.326 . S
O507 C515 1.252 . S
C508 O511 1.252 . S
C508 O512 1.260 . S
C509 O516 1.240 . S
C509 O517 1.252 . S
C510 O513 1.252 . S
C510 O514 1.260 . S
O511 In505 2.266 . S
O511 C508 1.252 . S
O512 In505 2.326 . S
O512 C508 1.260 . S
O513 In505 2.266 . S
O513 C510 1.252 . S
O514 In505 2.326 . S
O514 C510 1.260 . S
C515 O506 1.240 . S
C515 O507 1.252 . S
O516 In505 2.294 . S
O516 C509 1.240 . S
O517 In505 2.326 . S
O517 C509 1.252 . S
In518 O519 2.294 . S
In518 O520 2.326 . S
In518 O524 2.266 . S
In518 O525 2.326 . S
In518 O526 2.266 . S
In518 O527 2.326 . S
In518 O529 2.294 . S
In518 O530 2.326 . S
O519 In518 2.294 . S
O519 C528 1.240 . S
O520 In518 2.326 . S
O520 C528 1.252 . S
C521 O524 1.252 . S
C521 O525 1.260 . S
C522 O529 1.240 . S
C522 O530 1.252 . S
C523 O526 1.252 . S
C523 O527 1.260 . S
O524 In518 2.266 . S
O524 C521 1.252 . S
O525 In518 2.326 . S
O525 C521 1.260 . S
O526 In518 2.266 . S
O526 C523 1.252 . S
O527 In518 2.326 . S
O527 C523 1.260 . S
C528 O519 1.240 . S
C528 O520 1.252 . S
O529 In518 2.294 . S
O529 C522 1.240 . S
O530 In518 2.326 . S
O530 C522 1.252 . S
In531 O532 2.294 . S
In531 O533 2.326 . S
In531 O537 2.266 . S
In531 O538 2.326 . S
In531 O539 2.266 . S
In531 O540 2.326 . S
In531 O542 2.294 . S
In531 O543 2.326 . S
O532 In531 2.294 . S
O532 C541 1.240 . S
O533 In531 2.326 . S
O533 C541 1.252 . S
C534 O537 1.252 . S
C534 O538 1.260 . S
C535 O542 1.240 . S
C535 O543 1.252 . S
C536 O539 1.252 . S
C536 O540 1.260 . S
O537 In531 2.266 . S
O537 C534 1.252 . S
O538 In531 2.326 . S
O538 C534 1.260 . S
O539 In531 2.266 . S
O539 C536 1.252 . S
O540 In531 2.326 . S
O540 C536 1.260 . S
C541 O532 1.240 . S
C541 O533 1.252 . S
O542 In531 2.294 . S
O542 C535 1.240 . S
O543 In531 2.326 . S
O543 C535 1.252 . S
In544 O545 2.300 . S
In544 O546 2.327 . S
In544 O550 2.270 1_565 S
In544 O551 2.324 1_565 S
In544 O552 2.258 1_565 S
In544 O553 2.321 1_565 S
In544 O555 2.293 . S
In544 O556 2.332 . S
O545 In544 2.300 . S
O545 C554 1.240 . S
O546 In544 2.327 . S
O546 C554 1.252 . S
C547 O550 1.252 . S
C547 O551 1.260 . S
C548 O555 1.240 . S
C548 O556 1.252 . S
C549 O552 1.252 . S
C549 O553 1.260 . S
O550 In544 2.270 1_545 S
O550 C547 1.252 . S
O551 In544 2.324 1_545 S
O551 C547 1.260 . S
O552 In544 2.258 1_545 S
O552 C549 1.252 . S
O553 In544 2.321 1_545 S
O553 C549 1.260 . S
C554 O545 1.240 . S
C554 O546 1.252 . S
O555 In544 2.293 . S
O555 C548 1.240 . S
O556 In544 2.332 . S
O556 C548 1.252 . S
In557 O558 2.294 . S
In557 O559 2.326 . S
In557 O563 2.266 . S
In557 O564 2.326 . S
In557 O565 2.266 . S
In557 O566 2.326 . S
In557 O568 2.294 . S
In557 O569 2.326 . S
O558 In557 2.294 . S
O558 C567 1.240 . S
O559 In557 2.326 . S
O559 C567 1.252 . S
C560 O563 1.252 . S
C560 O564 1.260 . S
C561 O568 1.240 . S
C561 O569 1.252 . S
C562 O565 1.252 . S
C562 O566 1.260 . S
O563 In557 2.266 . S
O563 C560 1.252 . S
O564 In557 2.326 . S
O564 C560 1.260 . S
O565 In557 2.266 . S
O565 C562 1.252 . S
O566 In557 2.326 . S
O566 C562 1.260 . S
C567 O558 1.240 . S
C567 O559 1.252 . S
O568 In557 2.294 . S
O568 C561 1.240 . S
O569 In557 2.326 . S
O569 C561 1.252 . S
In570 O571 2.294 1_556 S
In570 O572 2.326 . S
In570 O576 2.266 . S
In570 O577 2.326 . S
In570 O578 2.266 . S
In570 O579 2.326 . S
In570 O581 2.294 . S
In570 O582 2.326 . S
O571 In570 2.294 1_554 S
O571 C580 1.240 . S
O572 In570 2.326 . S
O572 C580 1.252 1_556 S
C573 O576 1.252 . S
C573 O577 1.260 . S
C574 O581 1.240 . S
C574 O582 1.252 . S
C575 O578 1.252 . S
C575 O579 1.260 . S
O576 In570 2.266 . S
O576 C573 1.252 . S
O577 In570 2.326 . S
O577 C573 1.260 . S
O578 In570 2.266 . S
O578 C575 1.252 . S
O579 In570 2.326 . S
O579 C575 1.260 . S
C580 O571 1.240 . S
C580 O572 1.252 1_554 S
O581 In570 2.294 . S
O581 C574 1.240 . S
O582 In570 2.326 . S
O582 C574 1.252 . S
In583 O584 2.294 . S
In583 O585 2.326 . S
In583 O589 2.266 . S
In583 O590 2.326 . S
In583 O591 2.266 . S
In583 O592 2.326 . S
In583 O594 2.294 . S
In583 O595 2.326 . S
O584 In583 2.294 . S
O584 C593 1.240 . S
O585 In583 2.326 . S
O585 C593 1.252 . S
C586 O589 1.252 . S
C586 O590 1.260 . S
C587 O594 1.240 . S
C587 O595 1.252 . S
C588 O591 1.252 . S
C588 O592 1.260 . S
O589 In583 2.266 . S
O589 C586 1.252 . S
O590 In583 2.326 . S
O590 C586 1.260 . S
O591 In583 2.266 . S
O591 C588 1.252 . S
O592 In583 2.326 . S
O592 C588 1.260 . S
C593 O584 1.240 . S
C593 O585 1.252 . S
O594 In583 2.294 . S
O594 C587 1.240 . S
O595 In583 2.326 . S
O595 C587 1.252 . S
In596 O597 2.294 . S
In596 O598 2.326 . S
In596 O602 2.266 1_655 S
In596 O603 2.326 1_655 S
In596 O604 2.266 . S
In596 O605 2.326 . S
In596 O607 2.294 . S
In596 O608 2.326 1_655 S
O597 In596 2.294 . S
O597 C606 1.240 . S
O598 In596 2.326 . S
O598 C606 1.252 . S
C599 O602 1.252 . S
C599 O603 1.260 . S
C600 O607 1.240 . S
C600 O608 1.252 1_655 S
C601 O604 1.252 . S
C601 O605 1.260 . S
O602 In596 2.266 1_455 S
O602 C599 1.252 . S
O603 In596 2.326 1_455 S
O603 C599 1.260 . S
O604 In596 2.266 . S
O604 C601 1.252 . S
O605 In596 2.326 . S
O605 C601 1.260 . S
C606 O597 1.240 . S
C606 O598 1.252 . S
O607 In596 2.294 . S
O607 C600 1.240 . S
O608 In596 2.326 1_455 S
O608 C600 1.252 1_455 S
In609 O610 2.294 . S
In609 O611 2.326 . S
In609 O615 2.266 . S
In609 O616 2.326 . S
In609 O617 2.266 . S
In609 O618 2.326 . S
In609 O620 2.294 . S
In609 O621 2.326 . S
O610 In609 2.294 . S
O610 C619 1.240 . S
O611 In609 2.326 . S
O611 C619 1.252 . S
C612 O615 1.252 . S
C612 O616 1.260 . S
C613 O620 1.240 . S
C613 O621 1.252 . S
C614 O617 1.252 . S
C614 O618 1.260 . S
O615 In609 2.266 . S
O615 C612 1.252 . S
O616 In609 2.326 . S
O616 C612 1.260 . S
O617 In609 2.266 . S
O617 C614 1.252 . S
O618 In609 2.326 . S
O618 C614 1.260 . S
C619 O610 1.240 . S
C619 O611 1.252 . S
O620 In609 2.294 . S
O620 C613 1.240 . S
O621 In609 2.326 . S
O621 C613 1.252 . S
In622 O623 2.293 . S
In622 O624 2.330 . S
In622 O628 2.262 1_655 S
In622 O629 2.323 1_655 S
In622 O630 2.268 1_655 S
In622 O631 2.325 1_655 S
In622 O633 2.297 . S
In622 O634 2.327 . S
O623 In622 2.293 . S
O623 C632 1.240 . S
O624 In622 2.330 . S
O624 C632 1.252 . S
C625 O628 1.252 . S
C625 O629 1.260 . S
C626 O633 1.240 . S
C626 O634 1.252 . S
C627 O630 1.252 . S
C627 O631 1.260 . S
O628 In622 2.262 1_455 S
O628 C625 1.252 . S
O629 In622 2.323 1_455 S
O629 C625 1.260 . S
O630 In622 2.268 1_455 S
O630 C627 1.252 . S
O631 In622 2.325 1_455 S
O631 C627 1.260 . S
C632 O623 1.240 . S
C632 O624 1.252 . S
O633 In622 2.297 . S
O633 C626 1.240 . S
O634 In622 2.327 . S
O634 C626 1.252 . S
In635 O636 2.294 . S
In635 O637 2.326 . S
In635 O641 2.266 . S
In635 O642 2.326 . S
In635 O643 2.266 . S
In635 O644 2.326 . S
In635 O646 2.294 . S
In635 O647 2.326 . S
O636 In635 2.294 . S
O636 C645 1.240 . S
O637 In635 2.326 . S
O637 C645 1.252 . S
C638 O641 1.252 . S
C638 O642 1.260 . S
C639 O646 1.240 . S
C639 O647 1.252 . S
C640 O643 1.252 . S
C640 O644 1.260 . S
O641 In635 2.266 . S
O641 C638 1.252 . S
O642 In635 2.326 . S
O642 C638 1.260 . S
O643 In635 2.266 . S
O643 C640 1.252 . S
O644 In635 2.326 . S
O644 C640 1.260 . S
C645 O636 1.240 . S
C645 O637 1.252 . S
O646 In635 2.294 . S
O646 C639 1.240 . S
O647 In635 2.326 . S
O647 C639 1.252 . S
C648 C649 1.369 . S
C648 C650 1.419 . S
C648 H652 0.930 . S
C649 C648 1.369 . S
C649 C658 1.429 1_455 S
C650 C648 1.419 . S
C650 C651 1.363 . S
C650 H653 0.929 . S
C651 C650 1.363 . S
C651 C657 1.428 . S
H652 C648 0.930 . S
H653 C650 0.929 . S
S654 N655 1.613 . S
S654 N656 1.610 . S
N655 S654 1.613 . S
N655 C658 1.350 . S
N656 S654 1.610 . S
N656 C657 1.351 1_655 S
C657 C651 1.428 . S
C657 N656 1.351 1_455 S
C657 C658 1.434 1_455 S
C658 C649 1.429 1_655 S
C658 N655 1.350 . S
C658 C657 1.434 1_655 S
C659 C660 1.369 . S
C659 C661 1.419 . S
C659 H663 0.930 . S
C660 C659 1.369 . S
C660 C669 1.429 . S
C661 C659 1.419 . S
C661 C662 1.363 . S
C661 H664 0.929 . S
C662 C661 1.363 . S
C662 C668 1.428 . S
H663 C659 0.930 . S
H664 C661 0.929 . S
S665 N666 1.613 . S
S665 N667 1.610 1_556 S
N666 S665 1.613 . S
N666 C669 1.350 1_556 S
N667 S665 1.610 1_554 S
N667 C668 1.351 . S
C668 C662 1.428 . S
C668 N667 1.351 . S
C668 C669 1.434 . S
C669 C660 1.429 . S
C669 N666 1.350 1_554 S
C669 C668 1.434 . S
C670 C671 1.369 . S
C670 C672 1.419 . S
C670 H674 0.930 . S
C671 C670 1.369 . S
C671 C680 1.429 . S
C672 C670 1.419 . S
C672 C673 1.363 . S
C672 H675 0.929 . S
C673 C672 1.363 . S
C673 C679 1.428 . S
H674 C670 0.930 . S
H675 C672 0.929 . S
S676 N677 1.613 . S
S676 N678 1.610 . S
N677 S676 1.613 . S
N677 C680 1.350 . S
N678 S676 1.610 . S
N678 C679 1.351 . S
C679 C673 1.428 . S
C679 N678 1.351 . S
C679 C680 1.434 . S
C680 C671 1.429 . S
C680 N677 1.350 . S
C680 C679 1.434 . S
C681 C682 1.369 . S
C681 C683 1.419 . S
C681 H685 0.930 . S
C682 C681 1.369 . S
C682 C691 1.429 . S
C683 C681 1.419 . S
C683 C684 1.363 . S
C683 H686 0.929 . S
C684 C683 1.363 . S
C684 C690 1.428 . S
H685 C681 0.930 . S
H686 C683 0.929 . S
S687 N688 1.613 . S
S687 N689 1.610 . S
N688 S687 1.613 . S
N688 C691 1.350 . S
N689 S687 1.610 . S
N689 C690 1.351 . S
C690 C684 1.428 . S
C690 N689 1.351 . S
C690 C691 1.434 . S
C691 C682 1.429 . S
C691 N688 1.350 . S
C691 C690 1.434 . S
C692 C693 1.369 . S
C692 C694 1.419 . S
C692 H696 0.930 . S
C693 C692 1.369 . S
C693 C702 1.429 . S
C694 C692 1.419 . S
C694 C695 1.363 . S
C694 H697 0.929 . S
C695 C694 1.363 . S
C695 C701 1.428 . S
H696 C692 0.930 . S
H697 C694 0.929 . S
S698 N699 1.613 . S
S698 N700 1.610 . S
N699 S698 1.613 . S
N699 C702 1.350 . S
N700 S698 1.610 . S
N700 C701 1.351 . S
C701 C695 1.428 . S
C701 N700 1.351 . S
C701 C702 1.434 . S
C702 C693 1.429 . S
C702 N699 1.350 . S
C702 C701 1.434 . S
C703 C704 1.369 . S
C703 C705 1.419 . S
C703 H707 0.930 . S
C704 C703 1.369 . S
C704 C713 1.429 . S
C705 C703 1.419 . S
C705 C706 1.363 . S
C705 H708 0.929 . S
C706 C705 1.363 . S
C706 C712 1.428 . S
H707 C703 0.930 . S
H708 C705 0.929 . S
S709 N710 1.613 . S
S709 N711 1.610 . S
N710 S709 1.613 . S
N710 C713 1.350 . S
N711 S709 1.610 . S
N711 C712 1.351 . S
C712 C706 1.428 . S
C712 N711 1.351 . S
C712 C713 1.434 . S
C713 C704 1.429 . S
C713 N710 1.350 . S
C713 C712 1.434 . S
C714 C715 1.369 . S
C714 C716 1.419 . S
C714 H718 0.930 . S
C715 C714 1.369 . S
C715 C724 1.429 1_655 S
C716 C714 1.419 . S
C716 C717 1.363 . S
C716 H719 0.929 . S
C717 C716 1.363 . S
C717 C723 1.428 1_655 S
H718 C714 0.930 . S
H719 C716 0.929 . S
S720 N721 1.613 . S
S720 N722 1.610 . S
N721 S720 1.613 . S
N721 C724 1.350 1_554 S
N722 S720 1.610 . S
N722 C723 1.351 1_554 S
C723 C717 1.428 1_455 S
C723 N722 1.351 1_556 S
C723 C724 1.434 . S
C724 C715 1.429 1_455 S
C724 N721 1.350 1_556 S
C724 C723 1.434 . S
C725 C726 1.369 . S
C725 C727 1.419 . S
C725 H729 0.930 . S
C726 C725 1.369 . S
C726 C735 1.429 1_556 S
C727 C725 1.419 . S
C727 C728 1.363 . S
C727 H730 0.929 . S
C728 C727 1.363 . S
C728 C734 1.428 1_556 S
H729 C725 0.930 . S
H730 C727 0.929 . S
S731 N732 1.613 . S
S731 N733 1.610 . S
N732 S731 1.613 . S
N732 C735 1.350 . S
N733 S731 1.610 . S
N733 C734 1.351 . S
C734 C728 1.428 1_554 S
C734 N733 1.351 . S
C734 C735 1.434 . S
C735 C726 1.429 1_554 S
C735 N732 1.350 . S
C735 C734 1.434 . S
C736 C737 1.369 1_554 S
C736 C738 1.411 1_554 S
C736 H740 0.930 . S
C737 C736 1.369 1_556 S
C737 C746 1.429 . S
C738 C736 1.411 1_556 S
C738 C739 1.392 . S
C738 H741 0.908 1_556 S
C739 C738 1.392 . S
C739 C745 1.428 . S
H740 C736 0.930 . S
H741 C738 0.908 1_554 S
S742 N743 1.613 . S
S742 N744 1.610 . S
N743 S742 1.613 . S
N743 C746 1.350 . S
N744 S742 1.610 . S
N744 C745 1.351 . S
C745 C739 1.428 . S
C745 N744 1.351 . S
C745 C746 1.434 . S
C746 C737 1.429 . S
C746 N743 1.350 . S
C746 C745 1.434 . S
C747 C748 1.369 . S
C747 C749 1.419 . S
C747 H751 0.930 . S
C748 C747 1.369 . S
C748 C757 1.429 1_545 S
C749 C747 1.419 . S
C749 C750 1.387 . S
C749 H752 0.929 . S
C750 C749 1.387 . S
C750 C756 1.425 1_545 S
H751 C747 0.930 . S
H752 C749 0.929 . S
S753 N754 1.613 . S
S753 N755 1.610 . S
N754 S753 1.613 . S
N754 C757 1.350 . S
N755 S753 1.610 . S
N755 C756 1.351 . S
C756 C750 1.425 1_565 S
C756 N755 1.351 . S
C756 C757 1.434 . S
C757 C748 1.429 1_565 S
C757 N754 1.350 . S
C757 C756 1.434 . S
C758 C759 1.369 . S
C758 C760 1.419 . S
C758 H762 0.930 . S
C759 C758 1.369 . S
C759 C768 1.429 . S
C760 C758 1.419 . S
C760 C761 1.363 . S
C760 H763 0.929 . S
C761 C760 1.363 . S
C761 C767 1.428 . S
H762 C758 0.930 . S
H763 C760 0.929 . S
S764 N765 1.613 . S
S764 N766 1.610 . S
N765 S764 1.613 . S
N765 C768 1.350 . S
N766 S764 1.610 . S
N766 C767 1.351 . S
C767 C761 1.428 . S
C767 N766 1.351 . S
C767 C768 1.434 . S
C768 C759 1.429 . S
C768 N765 1.350 . S
C768 C767 1.434 . S
C769 C770 1.369 . S
C769 C771 1.419 . S
C769 H773 0.930 . S
C770 C769 1.369 . S
C770 C779 1.429 . S
C771 C769 1.419 . S
C771 C772 1.363 . S
C771 H774 0.929 . S
C772 C771 1.363 . S
C772 C778 1.428 . S
H773 C769 0.930 . S
H774 C771 0.929 . S
S775 N776 1.613 . S
S775 N777 1.610 . S
N776 S775 1.613 . S
N776 C779 1.350 . S
N777 S775 1.610 . S
N777 C778 1.351 . S
C778 C772 1.428 . S
C778 N777 1.351 . S
C778 C779 1.434 . S
C779 C770 1.429 . S
C779 N776 1.350 . S
C779 C778 1.434 . S
C780 C781 1.369 . S
C780 C782 1.419 . S
C780 H784 0.930 . S
C781 C780 1.369 . S
C781 C790 1.429 . S
C782 C780 1.419 . S
C782 C783 1.363 . S
C782 H785 0.929 . S
C783 C782 1.363 . S
C783 C789 1.428 . S
H784 C780 0.930 . S
H785 C782 0.929 . S
S786 N787 1.613 . S
S786 N788 1.610 . S
N787 S786 1.613 . S
N787 C790 1.350 . S
N788 S786 1.610 . S
N788 C789 1.351 . S
C789 C783 1.428 . S
C789 N788 1.351 . S
C789 C790 1.434 . S
C790 C781 1.429 . S
C790 N787 1.350 . S
C790 C789 1.434 . S
C791 C792 1.369 . S
C791 C793 1.419 1_565 S
C791 H795 0.930 . S
C792 C791 1.369 . S
C792 C801 1.429 . S
C793 C791 1.419 1_545 S
C793 C794 1.363 . S
C793 H796 0.929 . S
C794 C793 1.363 . S
C794 C800 1.428 . S
H795 C791 0.930 . S
H796 C793 0.929 . S
S797 N798 1.613 . S
S797 N799 1.610 1_565 S
N798 S797 1.613 . S
N798 C801 1.350 . S
N799 S797 1.610 1_545 S
N799 C800 1.351 . S
C800 C794 1.428 . S
C800 N799 1.351 . S
C800 C801 1.434 1_545 S
C801 C792 1.429 . S
C801 N798 1.350 . S
C801 C800 1.434 1_565 S
C802 C803 1.369 . S
C802 C804 1.419 . S
C802 H806 0.930 . S
C803 C802 1.369 . S
C803 C812 1.429 . S
C804 C802 1.419 . S
C804 C805 1.363 . S
C804 H807 0.929 . S
C805 C804 1.363 . S
C805 C811 1.428 . S
H806 C802 0.930 . S
H807 C804 0.929 . S
S808 N809 1.613 . S
S808 N810 1.610 . S
N809 S808 1.613 . S
N809 C812 1.350 . S
N810 S808 1.610 . S
N810 C811 1.351 . S
C811 C805 1.428 . S
C811 N810 1.351 . S
C811 C812 1.434 . S
C812 C803 1.429 . S
C812 N809 1.350 . S
C812 C811 1.434 . S
C813 C814 1.369 . S
C813 C815 1.419 . S
C813 H817 0.930 . S
C814 C813 1.369 . S
C814 C823 1.429 . S
C815 C813 1.419 . S
C815 C816 1.363 . S
C815 H818 0.929 . S
C816 C815 1.363 . S
C816 C822 1.428 . S
H817 C813 0.930 . S
H818 C815 0.929 . S
S819 N820 1.613 . S
S819 N821 1.610 . S
N820 S819 1.613 . S
N820 C823 1.350 . S
N821 S819 1.610 . S
N821 C822 1.351 . S
C822 C816 1.428 . S
C822 N821 1.351 . S
C822 C823 1.434 . S
C823 C814 1.429 . S
C823 N820 1.350 . S
C823 C822 1.434 . S
C824 C825 1.369 . S
C824 C826 1.419 . S
C824 H828 0.930 . S
C825 C824 1.369 . S
C825 C834 1.429 . S
C826 C824 1.419 . S
C826 C827 1.363 . S
C826 H829 0.929 . S
C827 C826 1.363 . S
C827 C833 1.428 . S
H828 C824 0.930 . S
H829 C826 0.929 . S
S830 N831 1.613 . S
S830 N832 1.610 . S
N831 S830 1.613 . S
N831 C834 1.350 . S
N832 S830 1.610 . S
N832 C833 1.351 . S
C833 C827 1.428 . S
C833 N832 1.351 . S
C833 C834 1.434 . S
C834 C825 1.429 . S
C834 N831 1.350 . S
C834 C833 1.434 . S
C835 C836 1.369 . S
C835 C837 1.419 . S
C835 H839 0.930 . S
C836 C835 1.369 . S
C836 C845 1.429 . S
C837 C835 1.419 . S
C837 C838 1.363 . S
C837 H840 0.929 . S
C838 C837 1.363 . S
C838 C844 1.428 . S
H839 C835 0.930 . S
H840 C837 0.929 . S
S841 N842 1.613 . S
S841 N843 1.605 . S
N842 S841 1.613 . S
N842 C845 1.350 . S
N843 S841 1.605 . S
N843 C844 1.360 . S
C844 C838 1.428 . S
C844 N843 1.360 . S
C844 C845 1.434 . S
C845 C836 1.429 . S
C845 N842 1.350 . S
C845 C844 1.434 . S
C846 C847 1.369 . S
C846 C848 1.419 . S
C846 H850 0.930 . S
C847 C846 1.369 . S
C847 C856 1.429 . S
C848 C846 1.419 . S
C848 C849 1.363 1_565 S
C848 H851 0.929 . S
C849 C848 1.363 1_545 S
C849 C855 1.428 . S
H850 C846 0.930 . S
H851 C848 0.929 . S
S852 N853 1.613 1_545 S
S852 N854 1.610 . S
N853 S852 1.613 1_565 S
N853 C856 1.350 . S
N854 S852 1.610 . S
N854 C855 1.351 . S
C855 C849 1.428 . S
C855 N854 1.351 . S
C855 C856 1.434 1_545 S
C856 C847 1.429 . S
C856 N853 1.350 . S
C856 C855 1.434 1_565 S
C857 C858 1.369 . S
C857 C859 1.419 . S
C857 H861 0.930 . S
C858 C857 1.369 . S
C858 C867 1.429 . S
C859 C857 1.419 . S
C859 C860 1.363 . S
C859 H862 0.929 . S
C860 C859 1.363 . S
C860 C866 1.428 . S
H861 C857 0.930 . S
H862 C859 0.929 . S
S863 N864 1.613 . S
S863 N865 1.610 . S
N864 S863 1.613 . S
N864 C867 1.350 . S
N865 S863 1.610 . S
N865 C866 1.351 . S
C866 C860 1.428 . S
C866 N865 1.351 . S
C866 C867 1.434 . S
C867 C858 1.429 . S
C867 N864 1.350 . S
C867 C866 1.434 . S
C868 C869 1.369 . S
C868 C870 1.419 . S
C868 H872 0.930 . S
C869 C868 1.369 . S
C869 C878 1.429 . S
C870 C868 1.419 . S
C870 C871 1.363 . S
C870 H873 0.929 . S
C871 C870 1.363 . S
C871 C877 1.428 . S
H872 C868 0.930 . S
H873 C870 0.929 . S
S874 N875 1.613 . S
S874 N876 1.610 . S
N875 S874 1.613 . S
N875 C878 1.350 . S
N876 S874 1.610 . S
N876 C877 1.351 . S
C877 C871 1.428 . S
C877 N876 1.351 . S
C877 C878 1.434 . S
C878 C869 1.429 . S
C878 N875 1.350 . S
C878 C877 1.434 . S
C879 C880 1.369 . S
C879 C881 1.419 . S
C879 H883 0.930 . S
C880 C879 1.369 . S
C880 C889 1.429 . S
C881 C879 1.419 . S
C881 C882 1.363 . S
C881 H884 0.929 . S
C882 C881 1.363 . S
C882 C888 1.428 . S
H883 C879 0.930 . S
H884 C881 0.929 . S
S885 N886 1.613 . S
S885 N887 1.610 . S
N886 S885 1.613 . S
N886 C889 1.350 . S
N887 S885 1.610 . S
N887 C888 1.351 . S
C888 C882 1.428 . S
C888 N887 1.351 . S
C888 C889 1.434 . S
C889 C880 1.429 . S
C889 N886 1.350 . S
C889 C888 1.434 . S
C890 C891 1.369 1_545 S
C890 C892 1.419 . S
C890 H894 0.930 . S
C891 C890 1.369 1_565 S
C891 C900 1.429 . S
C892 C890 1.419 . S
C892 C893 1.363 . S
C892 H895 0.929 . S
C893 C892 1.363 . S
C893 C899 1.428 . S
H894 C890 0.930 . S
H895 C892 0.929 . S
S896 N897 1.613 . S
S896 N898 1.610 1_565 S
N897 S896 1.613 . S
N897 C900 1.350 . S
N898 S896 1.610 1_545 S
N898 C899 1.351 . S
C899 C893 1.428 . S
C899 N898 1.351 . S
C899 C900 1.434 1_545 S
C900 C891 1.429 . S
C900 N897 1.350 . S
C900 C899 1.434 1_565 S
C901 C902 1.369 . S
C901 C903 1.419 . S
C901 H905 0.930 . S
C902 C901 1.369 . S
C902 C911 1.429 . S
C903 C901 1.419 . S
C903 C904 1.363 . S
C903 H906 0.929 . S
C904 C903 1.363 . S
C904 C910 1.428 . S
H905 C901 0.930 . S
H906 C903 0.929 . S
S907 N908 1.613 . S
S907 N909 1.610 . S
N908 S907 1.613 . S
N908 C911 1.350 . S
N909 S907 1.610 . S
N909 C910 1.351 . S
C910 C904 1.428 . S
C910 N909 1.351 . S
C910 C911 1.434 . S
C911 C902 1.429 . S
C911 N908 1.350 . S
C911 C910 1.434 . S
C912 C913 1.369 . S
C912 C914 1.419 . S
C912 H916 0.930 . S
C913 C912 1.369 . S
C913 C922 1.429 . S
C914 C912 1.419 . S
C914 C915 1.363 . S
C914 H917 0.929 . S
C915 C914 1.363 . S
C915 C921 1.428 . S
H916 C912 0.930 . S
H917 C914 0.929 . S
S918 N919 1.613 . S
S918 N920 1.610 . S
N919 S918 1.613 . S
N919 C922 1.350 . S
N920 S918 1.610 . S
N920 C921 1.351 . S
C921 C915 1.428 . S
C921 N920 1.351 . S
C921 C922 1.434 . S
C922 C913 1.429 . S
C922 N919 1.350 . S
C922 C921 1.434 . S
C923 C924 1.369 . S
C923 C925 1.419 . S
C923 H927 0.930 . S
C924 C923 1.369 . S
C924 C933 1.429 . S
C925 C923 1.419 . S
C925 C926 1.363 . S
C925 H928 0.929 . S
C926 C925 1.363 . S
C926 C932 1.428 . S
H927 C923 0.930 . S
H928 C925 0.929 . S
S929 N930 1.613 . S
S929 N931 1.610 . S
N930 S929 1.613 . S
N930 C933 1.350 . S
N931 S929 1.610 . S
N931 C932 1.351 . S
C932 C926 1.428 . S
C932 N931 1.351 . S
C932 C933 1.434 . S
C933 C924 1.429 . S
C933 N930 1.350 . S
C933 C932 1.434 . S
C934 C935 1.369 . S
C934 C936 1.419 . S
C934 H938 0.930 . S
C935 C934 1.369 . S
C935 C944 1.429 . S
C936 C934 1.419 . S
C936 C937 1.363 . S
C936 H939 0.929 . S
C937 C936 1.363 . S
C937 C943 1.428 . S
H938 C934 0.930 . S
H939 C936 0.929 . S
S940 N941 1.613 . S
S940 N942 1.610 . S
N941 S940 1.613 . S
N941 C944 1.350 . S
N942 S940 1.610 . S
N942 C943 1.351 . S
C943 C937 1.428 . S
C943 N942 1.351 . S
C943 C944 1.434 . S
C944 C935 1.429 . S
C944 N941 1.350 . S
C944 C943 1.434 . S
C945 C946 1.369 . S
C945 C947 1.419 . S
C945 H949 0.930 . S
C946 C945 1.369 . S
C946 C955 1.429 . S
C947 C945 1.419 . S
C947 C948 1.363 . S
C947 H950 0.929 . S
C948 C947 1.363 . S
C948 C954 1.428 . S
H949 C945 0.930 . S
H950 C947 0.929 . S
S951 N952 1.613 . S
S951 N953 1.610 . S
N952 S951 1.613 . S
N952 C955 1.350 . S
N953 S951 1.610 . S
N953 C954 1.351 . S
C954 C948 1.428 . S
C954 N953 1.351 . S
C954 C955 1.434 . S
C955 C946 1.429 . S
C955 N952 1.350 . S
C955 C954 1.434 . S
C956 C957 1.369 . S
C956 C958 1.419 . S
C956 H960 0.930 . S
C957 C956 1.369 . S
C957 C966 1.429 . S
C958 C956 1.419 . S
C958 C959 1.363 . S
C958 H961 0.929 . S
C959 C958 1.363 . S
C959 C965 1.428 . S
H960 C956 0.930 . S
H961 C958 0.929 . S
S962 N963 1.613 . S
S962 N964 1.610 . S
N963 S962 1.613 . S
N963 C966 1.350 . S
N964 S962 1.610 . S
N964 C965 1.351 . S
C965 C959 1.428 . S
C965 N964 1.351 . S
C965 C966 1.434 . S
C966 C957 1.429 . S
C966 N963 1.350 . S
C966 C965 1.434 . S
C967 C968 1.369 . S
C967 C969 1.419 . S
C967 H971 0.930 . S
C968 C967 1.369 . S
C968 C977 1.429 . S
C969 C967 1.419 . S
C969 C970 1.363 . S
C969 H972 0.929 . S
C970 C969 1.363 . S
C970 C976 1.428 . S
H971 C967 0.930 . S
H972 C969 0.929 . S
S973 N974 1.613 . S
S973 N975 1.610 . S
N974 S973 1.613 . S
N974 C977 1.350 . S
N975 S973 1.610 . S
N975 C976 1.351 . S
C976 C970 1.428 . S
C976 N975 1.351 . S
C976 C977 1.434 . S
C977 C968 1.429 . S
C977 N974 1.350 . S
C977 C976 1.434 . S
C978 C979 1.369 . S
C978 C980 1.419 . S
C978 H982 0.930 . S
C979 C978 1.369 . S
C979 C988 1.429 . S
C980 C978 1.419 . S
C980 C981 1.363 . S
C980 H983 0.929 . S
C981 C980 1.363 . S
C981 C987 1.428 . S
H982 C978 0.930 . S
H983 C980 0.929 . S
S984 N985 1.613 . S
S984 N986 1.610 . S
N985 S984 1.613 . S
N985 C988 1.350 . S
N986 S984 1.610 . S
N986 C987 1.351 . S
C987 C981 1.428 . S
C987 N986 1.351 . S
C987 C988 1.434 . S
C988 C979 1.429 . S
C988 N985 1.350 . S
C988 C987 1.434 . S
C989 C990 1.369 . S
C989 C991 1.419 . S
C989 H993 0.930 . S
C990 C989 1.369 . S
C990 C999 1.429 . S
C991 C989 1.419 . S
C991 C992 1.363 . S
C991 H994 0.929 . S
C992 C991 1.363 . S
C992 C998 1.428 . S
H993 C989 0.930 . S
H994 C991 0.929 . S
S995 N996 1.613 . S
S995 N997 1.610 . S
N996 S995 1.613 . S
N996 C999 1.350 . S
N997 S995 1.610 . S
N997 C998 1.351 . S
C998 C992 1.428 . S
C998 N997 1.351 . S
C998 C999 1.434 . S
C999 C990 1.429 . S
C999 N996 1.350 . S
C999 C998 1.434 . S
C1000 C1001 1.369 . S
C1000 C1002 1.419 . S
C1000 H1004 0.930 . S
C1001 C1000 1.369 . S
C1001 C1010 1.429 . S
C1002 C1000 1.419 . S
C1002 C1003 1.363 1_655 S
C1002 H1005 0.929 . S
C1003 C1002 1.363 1_455 S
C1003 C1009 1.428 . S
H1004 C1000 0.930 . S
H1005 C1002 0.929 . S
S1006 N1007 1.613 1_455 S
S1006 N1008 1.610 . S
N1007 S1006 1.613 1_655 S
N1007 C1010 1.350 . S
N1008 S1006 1.610 . S
N1008 C1009 1.351 . S
C1009 C1003 1.428 . S
C1009 N1008 1.351 . S
C1009 C1010 1.434 1_455 S
C1010 C1001 1.429 . S
C1010 N1007 1.350 . S
C1010 C1009 1.434 1_655 S
C1011 C1012 1.369 . S
C1011 C1013 1.419 . S
C1011 H1015 0.930 . S
C1012 C1011 1.369 . S
C1012 C1021 1.429 . S
C1013 C1011 1.419 . S
C1013 C1014 1.363 . S
C1013 H1016 0.929 . S
C1014 C1013 1.363 . S
C1014 C1020 1.428 . S
H1015 C1011 0.930 . S
H1016 C1013 0.929 . S
S1017 N1018 1.613 . S
S1017 N1019 1.610 . S
N1018 S1017 1.613 . S
N1018 C1021 1.350 . S
N1019 S1017 1.610 . S
N1019 C1020 1.351 . S
C1020 C1014 1.428 . S
C1020 N1019 1.351 . S
C1020 C1021 1.434 . S
C1021 C1012 1.429 . S
C1021 N1018 1.350 . S
C1021 C1020 1.434 . S
C1022 C1023 1.369 . S
C1022 C1024 1.419 . S
C1022 H1026 0.930 . S
C1023 C1022 1.369 . S
C1023 C1032 1.429 . S
C1024 C1022 1.419 . S
C1024 C1025 1.363 . S
C1024 H1027 0.929 . S
C1025 C1024 1.363 . S
C1025 C1031 1.428 . S
H1026 C1022 0.930 . S
H1027 C1024 0.929 . S
S1028 N1029 1.613 . S
S1028 N1030 1.610 . S
N1029 S1028 1.613 . S
N1029 C1032 1.350 . S
N1030 S1028 1.610 . S
N1030 C1031 1.351 . S
C1031 C1025 1.428 . S
C1031 N1030 1.351 . S
C1031 C1032 1.434 . S
C1032 C1023 1.429 . S
C1032 N1029 1.350 . S
C1032 C1031 1.434 . S
C1033 C1034 1.369 . S
C1033 C1035 1.419 . S
C1033 H1037 0.930 . S
C1034 C1033 1.369 . S
C1034 C1043 1.429 . S
C1035 C1033 1.419 . S
C1035 C1036 1.363 . S
C1035 H1038 0.929 . S
C1036 C1035 1.363 . S
C1036 C1042 1.428 . S
H1037 C1033 0.930 . S
H1038 C1035 0.929 . S
S1039 N1040 1.613 . S
S1039 N1041 1.610 . S
N1040 S1039 1.613 . S
N1040 C1043 1.350 . S
N1041 S1039 1.610 . S
N1041 C1042 1.351 . S
C1042 C1036 1.428 . S
C1042 N1041 1.351 . S
C1042 C1043 1.434 . S
C1043 C1034 1.429 . S
C1043 N1040 1.350 . S
C1043 C1042 1.434 . S
C1044 C1045 1.369 . S
C1044 C1046 1.419 . S
C1044 H1048 0.930 1_455 S
C1045 C1044 1.369 . S
C1045 C1054 1.429 . S
C1046 C1044 1.419 . S
C1046 C1047 1.363 . S
C1046 H1049 0.929 . S
C1047 C1046 1.363 . S
C1047 C1053 1.428 . S
H1048 C1044 0.930 1_655 S
H1049 C1046 0.929 . S
S1050 N1051 1.613 . S
S1050 N1052 1.610 . S
N1051 S1050 1.613 . S
N1051 C1054 1.350 . S
N1052 S1050 1.610 . S
N1052 C1053 1.351 . S
C1053 C1047 1.428 . S
C1053 N1052 1.351 . S
C1053 C1054 1.434 . S
C1054 C1045 1.429 . S
C1054 N1051 1.350 . S
C1054 C1053 1.434 . S
C1055 C1056 1.369 . S
C1055 C1057 1.419 . S
C1055 H1059 0.930 . S
C1056 C1055 1.369 . S
C1056 C1065 1.429 . S
C1057 C1055 1.419 . S
C1057 C1058 1.363 . S
C1057 H1060 0.929 . S
C1058 C1057 1.363 . S
C1058 C1064 1.428 . S
H1059 C1055 0.930 . S
H1060 C1057 0.929 . S
S1061 N1062 1.613 . S
S1061 N1063 1.610 . S
N1062 S1061 1.613 . S
N1062 C1065 1.350 . S
N1063 S1061 1.610 . S
N1063 C1064 1.351 . S
C1064 C1058 1.428 . S
C1064 N1063 1.351 . S
C1064 C1065 1.434 . S
C1065 C1056 1.429 . S
C1065 N1062 1.350 . S
C1065 C1064 1.434 . S
C1066 C1067 1.369 . S
C1066 C1068 1.419 . S
C1066 H1070 0.930 . S
C1067 C1066 1.369 . S
C1067 C1076 1.429 . S
C1068 C1066 1.419 . S
C1068 C1069 1.363 . S
C1068 H1071 0.929 . S
C1069 C1068 1.363 . S
C1069 C1075 1.428 . S
H1070 C1066 0.930 . S
H1071 C1068 0.929 . S
S1072 N1073 1.613 . S
S1072 N1074 1.610 . S
N1073 S1072 1.613 . S
N1073 C1076 1.350 . S
N1074 S1072 1.610 . S
N1074 C1075 1.351 . S
C1075 C1069 1.428 . S
C1075 N1074 1.351 . S
C1075 C1076 1.434 . S
C1076 C1067 1.429 . S
C1076 N1073 1.350 . S
C1076 C1075 1.434 . S
C1077 C1078 1.369 . S
C1077 C1079 1.419 . S
C1077 H1081 0.930 . S
C1078 C1077 1.369 . S
C1078 C1087 1.429 . S
C1079 C1077 1.419 . S
C1079 C1080 1.363 . S
C1079 H1082 0.929 . S
C1080 C1079 1.363 . S
C1080 C1086 1.428 . S
H1081 C1077 0.930 . S
H1082 C1079 0.929 . S
S1083 N1084 1.613 . S
S1083 N1085 1.610 . S
N1084 S1083 1.613 . S
N1084 C1087 1.350 . S
N1085 S1083 1.610 . S
N1085 C1086 1.351 . S
C1086 C1080 1.428 . S
C1086 N1085 1.351 . S
C1086 C1087 1.434 . S
C1087 C1078 1.429 . S
C1087 N1084 1.350 . S
C1087 C1086 1.434 . S
C1088 C1089 1.369 . S
C1088 C1090 1.419 . S
C1088 H1092 0.930 . S
C1089 C1088 1.369 . S
C1089 C1098 1.429 . S
C1090 C1088 1.419 . S
C1090 C1091 1.363 . S
C1090 H1093 0.929 . S
C1091 C1090 1.363 . S
C1091 C1097 1.428 . S
H1092 C1088 0.930 . S
H1093 C1090 0.929 . S
S1094 N1095 1.613 . S
S1094 N1096 1.610 . S
N1095 S1094 1.613 . S
N1095 C1098 1.350 . S
N1096 S1094 1.610 . S
N1096 C1097 1.351 . S
C1097 C1091 1.428 . S
C1097 N1096 1.351 . S
C1097 C1098 1.434 . S
C1098 C1089 1.429 . S
C1098 N1095 1.350 . S
C1098 C1097 1.434 . S
C1099 C1100 1.369 . S
C1099 C1101 1.419 . S
C1099 H1103 0.930 . S
C1100 C1099 1.369 . S
C1100 C1109 1.429 . S
C1101 C1099 1.419 . S
C1101 C1102 1.363 . S
C1101 H1104 0.929 . S
C1102 C1101 1.363 . S
C1102 C1108 1.428 . S
H1103 C1099 0.930 . S
H1104 C1101 0.929 . S
S1105 N1106 1.613 . S
S1105 N1107 1.610 . S
N1106 S1105 1.613 . S
N1106 C1109 1.350 . S
N1107 S1105 1.610 . S
N1107 C1108 1.351 . S
C1108 C1102 1.428 . S
C1108 N1107 1.351 . S
C1108 C1109 1.434 . S
C1109 C1100 1.429 . S
C1109 N1106 1.350 . S
C1109 C1108 1.434 . S
C1110 C1111 1.369 1_655 S
C1110 C1112 1.419 . S
C1110 H1114 0.930 . S
C1111 C1110 1.369 1_455 S
C1111 C1120 1.429 . S
C1112 C1110 1.419 . S
C1112 C1113 1.363 1_655 S
C1112 H1115 0.929 . S
C1113 C1112 1.363 1_455 S
C1113 C1119 1.428 . S
H1114 C1110 0.930 . S
H1115 C1112 0.929 . S
S1116 N1117 1.613 . S
S1116 N1118 1.610 . S
N1117 S1116 1.613 . S
N1117 C1120 1.350 . S
N1118 S1116 1.610 . S
N1118 C1119 1.351 . S
C1119 C1113 1.428 . S
C1119 N1118 1.351 . S
C1119 C1120 1.434 . S
C1120 C1111 1.429 . S
C1120 N1117 1.350 . S
C1120 C1119 1.434 . S
C1121 C1122 1.369 . S
C1121 C1123 1.419 . S
C1121 H1125 0.930 . S
C1122 C1121 1.369 . S
C1122 C1131 1.429 . S
C1123 C1121 1.419 . S
C1123 C1124 1.363 . S
C1123 H1126 0.929 . S
C1124 C1123 1.363 . S
C1124 C1130 1.428 . S
H1125 C1121 0.930 . S
H1126 C1123 0.929 . S
S1127 N1128 1.613 . S
S1127 N1129 1.610 . S
N1128 S1127 1.613 . S
N1128 C1131 1.350 . S
N1129 S1127 1.610 . S
N1129 C1130 1.351 . S
C1130 C1124 1.428 . S
C1130 N1129 1.351 . S
C1130 C1131 1.434 . S
C1131 C1122 1.429 . S
C1131 N1128 1.350 . S
C1131 C1130 1.434 . S
C1132 C1133 1.369 . S
C1132 C1134 1.419 . S
C1132 H1136 0.930 . S
C1133 C1132 1.369 . S
C1133 C1142 1.429 . S
C1134 C1132 1.419 . S
C1134 C1135 1.363 . S
C1134 H1137 0.929 . S
C1135 C1134 1.363 . S
C1135 C1141 1.428 . S
H1136 C1132 0.930 . S
H1137 C1134 0.929 . S
S1138 N1139 1.613 . S
S1138 N1140 1.610 . S
N1139 S1138 1.613 . S
N1139 C1142 1.350 . S
N1140 S1138 1.610 . S
N1140 C1141 1.351 . S
C1141 C1135 1.428 . S
C1141 N1140 1.351 . S
C1141 C1142 1.434 . S
C1142 C1133 1.429 . S
C1142 N1139 1.350 . S
C1142 C1141 1.434 . S
C1143 C1144 1.369 . S
C1143 C1145 1.419 . S
C1143 H1147 0.930 . S
C1144 C1143 1.369 . S
C1144 C1153 1.429 . S
C1145 C1143 1.419 . S
C1145 C1146 1.363 . S
C1145 H1148 0.929 . S
C1146 C1145 1.363 . S
C1146 C1152 1.428 . S
H1147 C1143 0.930 . S
H1148 C1145 0.929 . S
S1149 N1150 1.613 . S
S1149 N1151 1.610 . S
N1150 S1149 1.613 . S
N1150 C1153 1.350 . S
N1151 S1149 1.610 . S
N1151 C1152 1.351 . S
C1152 C1146 1.428 . S
C1152 N1151 1.351 . S
C1152 C1153 1.434 . S
C1153 C1144 1.429 . S
C1153 N1150 1.350 . S
C1153 C1152 1.434 . S
C1154 C1155 1.369 . S
C1154 C1156 1.419 . S
C1154 H1158 0.930 . S
C1155 C1154 1.369 . S
C1155 C1164 1.429 . S
C1156 C1154 1.419 . S
C1156 C1157 1.363 . S
C1156 H1159 0.929 . S
C1157 C1156 1.363 . S
C1157 C1163 1.428 . S
H1158 C1154 0.930 . S
H1159 C1156 0.929 . S
S1160 N1161 1.604 1_655 S
S1160 N1162 1.615 1_655 S
N1161 S1160 1.604 1_455 S
N1161 C1164 1.350 . S
N1162 S1160 1.615 1_455 S
N1162 C1163 1.351 . S
C1163 C1157 1.428 . S
C1163 N1162 1.351 . S
C1163 C1164 1.434 . S
C1164 C1155 1.429 . S
C1164 N1161 1.350 . S
C1164 C1163 1.434 . S
C1165 C1166 1.369 . S
C1165 C1167 1.419 . S
C1165 H1169 0.930 . S
C1166 C1165 1.369 . S
C1166 C1175 1.429 . S
C1167 C1165 1.419 . S
C1167 C1168 1.363 . S
C1167 H1170 0.929 . S
C1168 C1167 1.363 . S
C1168 C1174 1.428 . S
H1169 C1165 0.930 . S
H1170 C1167 0.929 . S
S1171 N1172 1.613 . S
S1171 N1173 1.610 . S
N1172 S1171 1.613 . S
N1172 C1175 1.350 . S
N1173 S1171 1.610 . S
N1173 C1174 1.351 . S
C1174 C1168 1.428 . S
C1174 N1173 1.351 . S
C1174 C1175 1.434 . S
C1175 C1166 1.429 . S
C1175 N1172 1.350 . S
C1175 C1174 1.434 . S
C1176 C1177 1.369 . S
C1176 C1178 1.419 . S
C1176 H1180 0.930 . S
C1177 C1176 1.369 . S
C1177 C1186 1.429 . S
C1178 C1176 1.419 . S
C1178 C1179 1.363 . S
C1178 H1181 0.929 . S
C1179 C1178 1.363 . S
C1179 C1185 1.428 . S
H1180 C1176 0.930 . S
H1181 C1178 0.929 . S
S1182 N1183 1.613 . S
S1182 N1184 1.610 . S
N1183 S1182 1.613 . S
N1183 C1186 1.350 . S
N1184 S1182 1.610 . S
N1184 C1185 1.351 . S
C1185 C1179 1.428 . S
C1185 N1184 1.351 . S
C1185 C1186 1.434 . S
C1186 C1177 1.429 . S
C1186 N1183 1.350 . S
C1186 C1185 1.434 . S
C1187 C1188 1.369 . S
C1187 C1189 1.419 . S
C1187 H1191 0.930 . S
C1188 C1187 1.369 . S
C1188 C1197 1.429 . S
C1189 C1187 1.419 . S
C1189 C1190 1.363 . S
C1189 H1192 0.929 . S
C1190 C1189 1.363 . S
C1190 C1196 1.428 . S
H1191 C1187 0.930 . S
H1192 C1189 0.929 . S
S1193 N1194 1.613 . S
S1193 N1195 1.610 . S
N1194 S1193 1.613 . S
N1194 C1197 1.350 . S
N1195 S1193 1.610 . S
N1195 C1196 1.351 . S
C1196 C1190 1.428 . S
C1196 N1195 1.351 . S
C1196 C1197 1.434 . S
C1197 C1188 1.429 . S
C1197 N1194 1.350 . S
C1197 C1196 1.434 . S
C1198 C1199 1.369 . S
C1198 C1200 1.419 . S
C1198 H1202 0.930 . S
C1199 C1198 1.369 . S
C1199 C1208 1.429 . S
C1200 C1198 1.419 . S
C1200 C1201 1.363 . S
C1200 H1203 0.929 . S
C1201 C1200 1.363 . S
C1201 C1207 1.428 . S
H1202 C1198 0.930 . S
H1203 C1200 0.929 . S
S1204 N1205 1.613 . S
S1204 N1206 1.610 . S
N1205 S1204 1.613 . S
N1205 C1208 1.350 . S
N1206 S1204 1.610 . S
N1206 C1207 1.351 . S
C1207 C1201 1.428 . S
C1207 N1206 1.351 . S
C1207 C1208 1.434 . S
C1208 C1199 1.429 . S
C1208 N1205 1.350 . S
C1208 C1207 1.434 . S
C1209 C1210 1.369 1_554 S
C1209 C1211 1.419 . S
C1209 H1213 0.930 . S
C1210 C1209 1.369 1_556 S
C1210 C1219 1.429 . S
C1211 C1209 1.419 . S
C1211 C1212 1.363 . S
C1211 H1214 0.929 . S
C1212 C1211 1.363 . S
C1212 C1218 1.428 1_554 S
H1213 C1209 0.930 . S
H1214 C1211 0.929 . S
S1215 N1216 1.613 . S
S1215 N1217 1.610 . S
N1216 S1215 1.613 . S
N1216 C1219 1.350 . S
N1217 S1215 1.610 . S
N1217 C1218 1.351 . S
C1218 C1212 1.428 1_556 S
C1218 N1217 1.351 . S
C1218 C1219 1.434 . S
C1219 C1210 1.429 . S
C1219 N1216 1.350 . S
C1219 C1218 1.434 . S
C1220 C1221 1.369 . S
C1220 C1222 1.419 1_556 S
C1220 H1224 0.930 . S
C1221 C1220 1.369 . S
C1221 C1230 1.429 . S
C1222 C1220 1.419 1_554 S
C1222 C1223 1.363 . S
C1222 H1225 0.929 . S
C1223 C1222 1.363 . S
C1223 C1229 1.428 1_554 S
H1224 C1220 0.930 . S
H1225 C1222 0.929 . S
S1226 N1227 1.613 . S
S1226 N1228 1.610 . S
N1227 S1226 1.613 . S
N1227 C1230 1.350 . S
N1228 S1226 1.610 . S
N1228 C1229 1.351 . S
C1229 C1223 1.428 1_556 S
C1229 N1228 1.351 . S
C1229 C1230 1.434 . S
C1230 C1221 1.429 . S
C1230 N1227 1.350 . S
C1230 C1229 1.434 . S
C1231 C1232 1.369 1_554 S
C1231 C1233 1.419 . S
C1231 H1235 0.930 . S
C1232 C1231 1.369 1_556 S
C1232 C1241 1.429 . S
C1233 C1231 1.419 . S
C1233 C1234 1.363 . S
C1233 H1236 0.929 . S
C1234 C1233 1.363 . S
C1234 C1240 1.428 . S
H1235 C1231 0.930 . S
H1236 C1233 0.929 . S
S1237 N1238 1.613 1_545 S
S1237 N1239 1.610 1_546 S
N1238 S1237 1.613 1_565 S
N1238 C1241 1.350 . S
N1239 S1237 1.610 1_564 S
N1239 C1240 1.351 . S
C1240 C1234 1.428 . S
C1240 N1239 1.351 . S
C1240 C1241 1.434 1_554 S
C1241 C1232 1.429 . S
C1241 N1238 1.350 . S
C1241 C1240 1.434 1_556 S
C1242 C1243 1.369 . S
C1242 C1244 1.419 . S
C1242 H1246 0.930 . S
C1243 C1242 1.369 . S
C1243 C1252 1.429 . S
C1244 C1242 1.419 . S
C1244 C1245 1.363 . S
C1244 H1247 0.929 . S
C1245 C1244 1.363 . S
C1245 C1251 1.428 . S
H1246 C1242 0.930 . S
H1247 C1244 0.929 . S
S1248 N1249 1.613 . S
S1248 N1250 1.610 . S
N1249 S1248 1.613 . S
N1249 C1252 1.350 . S
N1250 S1248 1.610 . S
N1250 C1251 1.351 . S
C1251 C1245 1.428 . S
C1251 N1250 1.351 . S
C1251 C1252 1.434 . S
C1252 C1243 1.429 . S
C1252 N1249 1.350 . S
C1252 C1251 1.434 . S
C1253 C1254 1.369 . S
C1253 C1255 1.419 . S
C1253 H1257 0.930 . S
C1254 C1253 1.369 . S
C1254 C1263 1.429 . S
C1255 C1253 1.419 . S
C1255 C1256 1.363 . S
C1255 H1258 0.929 . S
C1256 C1255 1.363 . S
C1256 C1262 1.428 . S
H1257 C1253 0.930 . S
H1258 C1255 0.929 . S
S1259 N1260 1.613 . S
S1259 N1261 1.610 . S
N1260 S1259 1.613 . S
N1260 C1263 1.350 . S
N1261 S1259 1.610 . S
N1261 C1262 1.351 . S
C1262 C1256 1.428 . S
C1262 N1261 1.351 . S
C1262 C1263 1.434 . S
C1263 C1254 1.429 . S
C1263 N1260 1.350 . S
C1263 C1262 1.434 . S
C1264 C1265 1.369 . S
C1264 C1266 1.419 . S
C1264 H1268 0.930 . S
C1265 C1264 1.369 . S
C1265 C1274 1.429 . S
C1266 C1264 1.419 . S
C1266 C1267 1.363 . S
C1266 H1269 0.929 . S
C1267 C1266 1.363 . S
C1267 C1273 1.428 . S
H1268 C1264 0.930 . S
H1269 C1266 0.929 . S
S1270 N1271 1.613 . S
S1270 N1272 1.610 . S
N1271 S1270 1.613 . S
N1271 C1274 1.350 . S
N1272 S1270 1.610 . S
N1272 C1273 1.351 . S
C1273 C1267 1.428 . S
C1273 N1272 1.351 . S
C1273 C1274 1.434 . S
C1274 C1265 1.429 . S
C1274 N1271 1.350 . S
C1274 C1273 1.434 . S
C1275 C1276 1.369 . S
C1275 C1277 1.419 . S
C1275 H1279 0.930 . S
C1276 C1275 1.369 . S
C1276 C1285 1.429 . S
C1277 C1275 1.419 . S
C1277 C1278 1.363 . S
C1277 H1280 0.929 . S
C1278 C1277 1.363 . S
C1278 C1284 1.428 . S
H1279 C1275 0.930 . S
H1280 C1277 0.929 . S
S1281 N1282 1.613 . S
S1281 N1283 1.610 . S
N1282 S1281 1.613 . S
N1282 C1285 1.350 . S
N1283 S1281 1.610 . S
N1283 C1284 1.351 . S
C1284 C1278 1.428 . S
C1284 N1283 1.351 . S
C1284 C1285 1.434 . S
C1285 C1276 1.429 . S
C1285 N1282 1.350 . S
C1285 C1284 1.434 . S
C1286 C1287 1.369 . S
C1286 C1288 1.419 . S
C1286 H1290 0.930 . S
C1287 C1286 1.369 . S
C1287 C1296 1.429 . S
C1288 C1286 1.419 . S
C1288 C1289 1.363 . S
C1288 H1291 0.929 . S
C1289 C1288 1.363 . S
C1289 C1295 1.428 . S
H1290 C1286 0.930 . S
H1291 C1288 0.929 . S
S1292 N1293 1.613 . S
S1292 N1294 1.610 . S
N1293 S1292 1.613 . S
N1293 C1296 1.350 . S
N1294 S1292 1.610 . S
N1294 C1295 1.351 . S
C1295 C1289 1.428 . S
C1295 N1294 1.351 . S
C1295 C1296 1.434 . S
C1296 C1287 1.429 . S
C1296 N1293 1.350 . S
C1296 C1295 1.434 . S
C1297 C1298 1.369 . S
C1297 C1299 1.419 . S
C1297 H1301 0.930 . S
C1298 C1297 1.369 . S
C1298 C1307 1.429 . S
C1299 C1297 1.419 . S
C1299 C1300 1.363 . S
C1299 H1302 0.929 . S
C1300 C1299 1.363 . S
C1300 C1306 1.428 . S
H1301 C1297 0.930 . S
H1302 C1299 0.929 . S
S1303 N1304 1.613 . S
S1303 N1305 1.610 . S
N1304 S1303 1.613 . S
N1304 C1307 1.350 . S
N1305 S1303 1.610 . S
N1305 C1306 1.351 . S
C1306 C1300 1.428 . S
C1306 N1305 1.351 . S
C1306 C1307 1.434 . S
C1307 C1298 1.429 . S
C1307 N1304 1.350 . S
C1307 C1306 1.434 . S
C1308 C1309 1.369 . S
C1308 C1310 1.419 . S
C1308 H1312 0.930 . S
C1309 C1308 1.369 . S
C1309 C1318 1.429 . S
C1310 C1308 1.419 . S
C1310 C1311 1.363 . S
C1310 H1313 0.929 . S
C1311 C1310 1.363 . S
C1311 C1317 1.428 . S
H1312 C1308 0.930 . S
H1313 C1310 0.929 . S
S1314 N1315 1.613 . S
S1314 N1316 1.610 . S
N1315 S1314 1.613 . S
N1315 C1318 1.350 . S
N1316 S1314 1.610 . S
N1316 C1317 1.351 . S
C1317 C1311 1.428 . S
C1317 N1316 1.351 . S
C1317 C1318 1.434 . S
C1318 C1309 1.429 . S
C1318 N1315 1.350 . S
C1318 C1317 1.434 . S
C1319 C1320 1.369 . S
C1319 C1321 1.419 . S
C1319 H1323 0.930 . S
C1320 C1319 1.369 . S
C1320 C1329 1.429 . S
C1321 C1319 1.419 . S
C1321 C1322 1.363 . S
C1321 H1324 0.929 . S
C1322 C1321 1.363 . S
C1322 C1328 1.428 . S
H1323 C1319 0.930 . S
H1324 C1321 0.929 . S
S1325 N1326 1.613 . S
S1325 N1327 1.610 . S
N1326 S1325 1.613 . S
N1326 C1329 1.350 . S
N1327 S1325 1.610 . S
N1327 C1328 1.351 . S
C1328 C1322 1.428 . S
C1328 N1327 1.351 . S
C1328 C1329 1.434 . S
C1329 C1320 1.429 . S
C1329 N1326 1.350 . S
C1329 C1328 1.434 . S
C1330 C1331 1.369 . S
C1330 C1332 1.419 . S
C1330 H1334 0.930 . S
C1331 C1330 1.369 . S
C1331 C1340 1.429 . S
C1332 C1330 1.419 . S
C1332 C1333 1.363 . S
C1332 H1335 0.929 . S
C1333 C1332 1.363 . S
C1333 C1339 1.428 . S
H1334 C1330 0.930 . S
H1335 C1332 0.929 . S
S1336 N1337 1.613 . S
S1336 N1338 1.610 . S
N1337 S1336 1.613 . S
N1337 C1340 1.350 . S
N1338 S1336 1.610 . S
N1338 C1339 1.351 . S
C1339 C1333 1.428 . S
C1339 N1338 1.351 . S
C1339 C1340 1.434 . S
C1340 C1331 1.429 . S
C1340 N1337 1.350 . S
C1340 C1339 1.434 . S
C1341 C1342 1.369 . S
C1341 C1343 1.419 . S
C1341 H1345 0.930 . S
C1342 C1341 1.369 . S
C1342 C1351 1.429 . S
C1343 C1341 1.419 . S
C1343 C1344 1.363 . S
C1343 H1346 0.929 . S
C1344 C1343 1.363 . S
C1344 C1350 1.428 . S
H1345 C1341 0.930 . S
H1346 C1343 0.929 . S
S1347 N1348 1.613 . S
S1347 N1349 1.610 . S
N1348 S1347 1.613 . S
N1348 C1351 1.350 . S
N1349 S1347 1.610 . S
N1349 C1350 1.351 . S
C1350 C1344 1.428 . S
C1350 N1349 1.351 . S
C1350 C1351 1.434 . S
C1351 C1342 1.429 . S
C1351 N1348 1.350 . S
C1351 C1350 1.434 . S
C1352 C1353 1.369 . S
C1352 C1354 1.419 . S
C1352 H1356 0.930 . S
C1353 C1352 1.369 . S
C1353 C1362 1.429 . S
C1354 C1352 1.419 . S
C1354 C1355 1.363 . S
C1354 H1357 0.929 . S
C1355 C1354 1.363 . S
C1355 C1361 1.428 . S
H1356 C1352 0.930 . S
H1357 C1354 0.929 . S
S1358 N1359 1.613 . S
S1358 N1360 1.610 . S
N1359 S1358 1.613 . S
N1359 C1362 1.350 . S
N1360 S1358 1.610 . S
N1360 C1361 1.351 . S
C1361 C1355 1.428 . S
C1361 N1360 1.351 . S
C1361 C1362 1.434 . S
C1362 C1353 1.429 . S
C1362 N1359 1.350 . S
C1362 C1361 1.434 . S
C1363 C1364 1.369 . S
C1363 C1365 1.419 . S
C1363 H1367 0.930 . S
C1364 C1363 1.369 . S
C1364 C1373 1.429 . S
C1365 C1363 1.419 . S
C1365 C1366 1.363 . S
C1365 H1368 0.929 . S
C1366 C1365 1.363 . S
C1366 C1372 1.428 . S
H1367 C1363 0.930 . S
H1368 C1365 0.929 . S
S1369 N1370 1.613 . S
S1369 N1371 1.610 . S
N1370 S1369 1.613 . S
N1370 C1373 1.350 . S
N1371 S1369 1.610 . S
N1371 C1372 1.351 . S
C1372 C1366 1.428 . S
C1372 N1371 1.351 . S
C1372 C1373 1.434 . S
C1373 C1364 1.429 . S
C1373 N1370 1.350 . S
C1373 C1372 1.434 . S
C1374 C1375 1.369 . S
C1374 C1376 1.419 . S
C1374 H1378 0.930 . S
C1375 C1374 1.369 . S
C1375 C1384 1.429 . S
C1376 C1374 1.419 . S
C1376 C1377 1.363 . S
C1376 H1379 0.929 . S
C1377 C1376 1.363 . S
C1377 C1383 1.428 . S
H1378 C1374 0.930 . S
H1379 C1376 0.929 . S
S1380 N1381 1.613 . S
S1380 N1382 1.610 . S
N1381 S1380 1.613 . S
N1381 C1384 1.350 . S
N1382 S1380 1.610 . S
N1382 C1383 1.351 . S
C1383 C1377 1.428 . S
C1383 N1382 1.351 . S
C1383 C1384 1.434 . S
C1384 C1375 1.429 . S
C1384 N1381 1.350 . S
C1384 C1383 1.434 . S
C1385 C1386 1.369 . S
C1385 C1387 1.419 . S
C1385 H1389 0.930 . S
C1386 C1385 1.369 . S
C1386 C1395 1.429 . S
C1387 C1385 1.419 . S
C1387 C1388 1.363 . S
C1387 H1390 0.929 . S
C1388 C1387 1.363 . S
C1388 C1394 1.428 . S
H1389 C1385 0.930 . S
H1390 C1387 0.929 . S
S1391 N1392 1.613 . S
S1391 N1393 1.610 . S
N1392 S1391 1.613 . S
N1392 C1395 1.350 . S
N1393 S1391 1.610 . S
N1393 C1394 1.351 . S
C1394 C1388 1.428 . S
C1394 N1393 1.351 . S
C1394 C1395 1.434 . S
C1395 C1386 1.429 . S
C1395 N1392 1.350 . S
C1395 C1394 1.434 . S
C1396 C1397 1.369 . S
C1396 C1398 1.419 . S
C1396 H1400 0.930 . S
C1397 C1396 1.369 . S
C1397 C1406 1.429 . S
C1398 C1396 1.419 . S
C1398 C1399 1.363 . S
C1398 H1401 0.929 . S
C1399 C1398 1.363 . S
C1399 C1405 1.428 . S
H1400 C1396 0.930 . S
H1401 C1398 0.929 . S
S1402 N1403 1.613 . S
S1402 N1404 1.610 . S
N1403 S1402 1.613 . S
N1403 C1406 1.350 . S
N1404 S1402 1.610 . S
N1404 C1405 1.351 . S
C1405 C1399 1.428 . S
C1405 N1404 1.351 . S
C1405 C1406 1.434 . S
C1406 C1397 1.429 . S
C1406 N1403 1.350 . S
C1406 C1405 1.434 . S
C1407 C1408 1.369 . S
C1407 C1409 1.419 . S
C1407 H1411 0.930 . S
C1408 C1407 1.369 . S
C1408 C1417 1.429 . S
C1409 C1407 1.419 . S
C1409 C1410 1.363 . S
C1409 H1412 0.929 . S
C1410 C1409 1.363 . S
C1410 C1416 1.428 . S
H1411 C1407 0.930 . S
H1412 C1409 0.929 . S
S1413 N1414 1.613 1_556 S
S1413 N1415 1.610 . S
N1414 S1413 1.613 1_554 S
N1414 C1417 1.350 . S
N1415 S1413 1.610 . S
N1415 C1416 1.354 1_556 S
C1416 C1410 1.428 . S
C1416 N1415 1.354 1_554 S
C1416 C1417 1.431 . S
C1417 C1408 1.429 . S
C1417 N1414 1.350 . S
C1417 C1416 1.431 . S
C1418 C1419 1.369 . S
C1418 C1420 1.419 . S
C1418 H1422 0.930 . S
C1419 C1418 1.369 . S
C1419 C1428 1.429 . S
C1420 C1418 1.419 . S
C1420 C1421 1.363 . S
C1420 H1423 0.929 . S
C1421 C1420 1.363 . S
C1421 C1427 1.428 . S
H1422 C1418 0.930 . S
H1423 C1420 0.929 . S
S1424 N1425 1.613 . S
S1424 N1426 1.610 . S
N1425 S1424 1.613 . S
N1425 C1428 1.350 . S
N1426 S1424 1.610 . S
N1426 C1427 1.351 . S
C1427 C1421 1.428 . S
C1427 N1426 1.351 . S
C1427 C1428 1.434 . S
C1428 C1419 1.429 . S
C1428 N1425 1.350 . S
C1428 C1427 1.434 . S
C1429 C1430 1.369 . S
C1429 C1431 1.419 . S
C1429 H1433 0.930 . S
C1430 C1429 1.369 . S
C1430 C1439 1.429 . S
C1431 C1429 1.419 . S
C1431 C1432 1.363 . S
C1431 H1434 0.929 . S
C1432 C1431 1.363 . S
C1432 C1438 1.428 . S
H1433 C1429 0.930 . S
H1434 C1431 0.929 . S
S1435 N1436 1.613 1_556 S
S1435 N1437 1.610 . S
N1436 S1435 1.613 1_554 S
N1436 C1439 1.350 . S
N1437 S1435 1.610 . S
N1437 C1438 1.351 1_556 S
C1438 C1432 1.428 . S
C1438 N1437 1.351 1_554 S
C1438 C1439 1.434 . S
C1439 C1430 1.429 . S
C1439 N1436 1.350 . S
C1439 C1438 1.434 . S
C649 C7 1.564 . S
C651 C560 1.546 . S
C662 C534 1.848 . S
C660 C39 1.849 . S
C673 C547 1.678 . S
C671 C62 1.683 . S
C682 C76 1.869 . S
C684 C614 1.874 . S
C693 C108 1.505 . S
C695 C627 1.498 . S
C704 N117 1.411 . S
C706 C640 1.410 . S
C717 C600 1.481 . S
C715 C16 1.502 . S
C726 C30 1.803 . S
C728 C574 1.801 . S
C739 C588 1.514 . S
C737 C53 1.507 . S
C748 C85 1.778 . S
C750 C497 1.753 1_545 S
C761 C509 1.626 . S
C759 C99 1.623 . S
C770 N127 1.314 . S
C772 C523 1.368 . S
C781 N150 1.201 . S
C783 C638 1.235 . S
C794 C612 1.638 . S
C792 N173 1.594 . S
C805 C625 1.491 . S
C803 C200 1.501 . S
C814 C214 1.666 . S
C816 C458 1.682 . S
C825 N232 1.547 . S
C827 C471 1.561 . S
C836 C260 1.533 . S
C838 C484 1.539 . S
C849 C444 1.354 . S
C847 N140 1.383 . S
C858 N163 1.458 . S
C860 C424 1.433 . S
C871 C430 1.578 . S
C869 C191 1.571 . S
C882 C573 1.831 . S
C880 C223 1.841 . S
C893 C593 1.490 . S
C891 N242 1.449 . S
C904 C599 1.511 . S
C902 C269 1.524 . S
C913 N288 1.339 . S
C915 C482 1.357 . S
C924 C315 1.581 . S
C926 C456 1.580 1_655 S
C935 C338 1.774 . S
C937 C469 1.765 . S
C946 C352 1.916 . S
C948 C536 1.922 . S
C959 C549 1.581 . S
C957 N370 1.573 . S
C970 C562 1.607 1_655 S
C968 C398 1.596 . S
C981 C528 1.233 . S
C979 N278 1.233 . S
C990 C306 1.688 . S
C992 C502 1.689 . S
C1001 C329 1.605 . S
C1003 C508 1.607 . S
C1014 C419 1.538 . S
C1012 C361 1.541 . S
C1023 N380 1.482 . S
C1025 C431 1.512 . S
C1036 C443 1.451 . S
C1034 C407 1.455 . S
C1047 C463 1.439 . S
C1045 N12 1.428 . S
C1056 N25 1.510 . S
C1058 C476 1.556 . S
C1069 C489 1.341 . S
C1067 N48 1.290 . S
C1080 C483 1.408 . S
C1078 N81 1.391 . S
C1091 C457 1.628 . S
C1089 N94 1.565 . S
C1102 C470 1.682 . S
C1100 C131 1.656 . S
C1113 C417 1.363 . S
C1111 N2 1.314 . S
C1122 N35 1.429 . S
C1124 C437 1.476 . S
C1133 N58 1.210 . S
C1135 C445 1.242 . S
C1146 C450 1.367 . S
C1144 N71 1.321 . S
C1157 C418 1.454 . S
C1155 N104 1.412 . S
C1168 C432 1.642 . S
C1166 C122 1.643 . S
C1177 C145 1.982 . S
C1179 C541 1.976 . S
C1188 C168 1.673 . S
C1190 C554 1.673 . S
C1199 N186 1.450 . S
C1201 C567 1.516 . S
C1212 C561 1.493 . S
C1210 N219 1.490 . S
C1223 C535 1.860 . S
C1221 C246 1.836 . S
C1234 C548 1.548 . S
C1232 N265 1.539 . S
C1245 C495 1.815 . S
C1243 C154 1.811 . S
C1254 C177 1.718 . S
C1256 C515 1.721 . S
C1265 N196 1.305 . S
C1267 C521 1.348 . S
C1276 N209 1.235 . S
C1278 C522 1.313 . S
C1287 C237 1.834 . S
C1289 C496 1.834 . S
C1300 C510 1.463 . S
C1298 N255 1.414 . S
C1309 C283 1.852 . S
C1311 C619 1.850 . S
C1320 N301 1.480 . S
C1322 C632 1.539 . S
C1331 N324 1.246 . S
C1333 C645 1.280 . S
C1344 C639 1.247 . S
C1342 N357 1.231 . S
C1355 C613 1.830 . S
C1353 C384 1.819 . S
C1364 N403 1.422 . S
C1366 C626 1.430 . S
C1375 C292 1.830 . S
C1377 C575 1.855 . S
C1388 C587 1.416 . S
C1386 N311 1.372 . S
C1397 N334 1.314 . S
C1399 C601 1.346 . S
C1408 N347 1.355 . S
C1410 C606 1.392 1_554 S
C1421 C580 1.888 . S
C1419 C375 1.890 . S
C1430 N393 1.378 . S
C1432 C586 1.439 1_554 S
