# Generated by pormake.
# Topology pyr, (3,6)-cn, num edge types: 1
# Building blocks:
#     Node 0, Type 0, BuildingBlock: OLANEW_clean_sbu_2, # of connection points: 3
#     Node 1, Type 0, BuildingBlock: OLANEW_clean_sbu_2, # of connection points: 3
#     Node 2, Type 0, BuildingBlock: OLANEW_clean_sbu_2, # of connection points: 3
#     Node 3, Type 0, BuildingBlock: OLANEW_clean_sbu_2, # of connection points: 3
#     Node 4, Type 0, BuildingBlock: OLANEW_clean_sbu_2, # of connection points: 3
#     Node 5, Type 0, BuildingBlock: OLANEW_clean_sbu_2, # of connection points: 3
#     Node 6, Type 0, BuildingBlock: OLANEW_clean_sbu_2, # of connection points: 3
#     Node 7, Type 0, BuildingBlock: OLANEW_clean_sbu_2, # of connection points: 3
#     Node 8, Type 1, BuildingBlock: PAMTOO_clean_sbu_0, # of connection points: 6
#     Node 9, Type 1, BuildingBlock: PAMTOO_clean_sbu_0, # of connection points: 6
#     Node 10, Type 1, BuildingBlock: PAMTOO_clean_sbu_0, # of connection points: 6
#     Node 11, Type 1, BuildingBlock: PAMTOO_clean_sbu_0, # of connection points: 6
#     Edge 12, Type (0, 1), BuildingBlock: TEMPAE_clean_linker_10, # of connection points: 2
#     Edge 13, Type (0, 1), BuildingBlock: TEMPAE_clean_linker_10, # of connection points: 2
#     Edge 14, Type (0, 1), BuildingBlock: TEMPAE_clean_linker_10, # of connection points: 2
#     Edge 15, Type (0, 1), BuildingBlock: TEMPAE_clean_linker_10, # of connection points: 2
#     Edge 16, Type (0, 1), BuildingBlock: TEMPAE_clean_linker_10, # of connection points: 2
#     Edge 17, Type (0, 1), BuildingBlock: TEMPAE_clean_linker_10, # of connection points: 2
#     Edge 18, Type (0, 1), BuildingBlock: TEMPAE_clean_linker_10, # of connection points: 2
#     Edge 19, Type (0, 1), BuildingBlock: TEMPAE_clean_linker_10, # of connection points: 2
#     Edge 20, Type (0, 1), BuildingBlock: TEMPAE_clean_linker_10, # of connection points: 2
#     Edge 21, Type (0, 1), BuildingBlock: TEMPAE_clean_linker_10, # of connection points: 2
#     Edge 22, Type (0, 1), BuildingBlock: TEMPAE_clean_linker_10, # of connection points: 2
#     Edge 23, Type (0, 1), BuildingBlock: TEMPAE_clean_linker_10, # of connection points: 2
#     Edge 24, Type (0, 1), BuildingBlock: TEMPAE_clean_linker_10, # of connection points: 2
#     Edge 25, Type (0, 1), BuildingBlock: TEMPAE_clean_linker_10, # of connection points: 2
#     Edge 26, Type (0, 1), BuildingBlock: TEMPAE_clean_linker_10, # of connection points: 2
#     Edge 27, Type (0, 1), BuildingBlock: TEMPAE_clean_linker_10, # of connection points: 2
#     Edge 28, Type (0, 1), BuildingBlock: TEMPAE_clean_linker_10, # of connection points: 2
#     Edge 29, Type (0, 1), BuildingBlock: TEMPAE_clean_linker_10, # of connection points: 2
#     Edge 30, Type (0, 1), BuildingBlock: TEMPAE_clean_linker_10, # of connection points: 2
#     Edge 31, Type (0, 1), BuildingBlock: TEMPAE_clean_linker_10, # of connection points: 2
#     Edge 32, Type (0, 1), BuildingBlock: TEMPAE_clean_linker_10, # of connection points: 2
#     Edge 33, Type (0, 1), BuildingBlock: TEMPAE_clean_linker_10, # of connection points: 2
#     Edge 34, Type (0, 1), BuildingBlock: TEMPAE_clean_linker_10, # of connection points: 2
#     Edge 35, Type (0, 1), BuildingBlock: TEMPAE_clean_linker_10, # of connection points: 2
# Relax obj value: 0.125
# Max RMSD: 0.213
# Mean RMSD: 0.127
data_MOF--net-pyr--node1-OLANEW_clean_sbu_2--node2-PAMTOO_clean_sbu_0--edge1-TEMPAE_clean_linker_10
_symmetry_space_group_name_H-M    P1
_symmetry_Int_Tables_number       1
_symmetry_cell_setting            triclinic
loop_
_symmetry_equiv_pos_as_xyz
'x, y, z'
_cell_length_a     39.491371
_cell_length_b     43.589579
_cell_length_c     43.228116
_cell_angle_alpha  94.071943
_cell_angle_beta   89.141103
_cell_angle_gamma 106.62039
loop_
_atom_site_label
_atom_site_type_symbol
_atom_site_fract_x
_atom_site_fract_y
_atom_site_fract_z
_atom_type_partial_charge
O0 O 0.39676 0.28047 0.13611 0.0
Cd1 Cd 0.38093 0.33087 0.14568 0.0
O2 O 0.38649 0.27451 0.18538 0.0
Cd3 Cd 0.38234 0.25426 0.23063 0.0
O4 O 0.35936 0.22739 0.27018 0.0
C5 C 0.34586 0.24075 0.29222 0.0
O6 O 0.34761 0.27125 0.29144 0.0
C7 C 0.39635 0.26421 0.15947 0.0
C8 C 0.31396 0.33239 0.12678 0.0
O9 O 0.34083 0.34084 0.10901 0.0
O10 O 0.31849 0.32213 0.15304 0.0
O11 O 0.19846 0.78011 0.79466 0.0
Cd12 Cd 0.17197 0.76171 0.74361 0.0
O13 O 0.16299 0.80904 0.80952 0.0
Cd14 Cd 0.13404 0.80055 0.76569 0.0
O15 O 0.11122 0.81699 0.72662 0.0
C16 C 0.10124 0.84204 0.73251 0.0
O17 O 0.10424 0.85504 0.76108 0.0
C18 C 0.18892 0.79838 0.81502 0.0
C19 C 0.22234 0.74174 0.70822 0.0
O20 O 0.19914 0.72194 0.7237 0.0
O21 O 0.22088 0.77076 0.70861 0.0
O22 O 0.7035 0.41923 0.85248 0.0
Cd23 Cd 0.64969 0.4004 0.81937 0.0
O24 O 0.68231 0.37845 0.88102 0.0
Cd25 Cd 0.67826 0.34231 0.91545 0.0
O26 O 0.66042 0.29699 0.93904 0.0
C27 C 0.64346 0.29503 0.96447 0.0
O28 O 0.63738 0.32103 0.97765 0.0
C29 C 0.70714 0.40344 0.87536 0.0
C30 C 0.63599 0.43779 0.77294 0.0
O31 O 0.62408 0.43987 0.80054 0.0
O32 O 0.65576 0.41925 0.7676 0.0
O33 O 0.91089 0.72561 0.3329 0.0
Cd34 Cd 0.8782 0.67057 0.31336 0.0
O35 O 0.89958 0.71102 0.38056 0.0
Cd36 Cd 0.86364 0.66329 0.37037 0.0
O37 O 0.81375 0.63509 0.38905 0.0
C38 C 0.81175 0.63715 0.41847 0.0
O39 O 0.8398 0.65375 0.43456 0.0
C40 C 0.91411 0.73233 0.36208 0.0
C41 C 0.90156 0.64291 0.25957 0.0
O42 O 0.87844 0.65829 0.25814 0.0
O43 O 0.91462 0.64162 0.28627 0.0
O44 O 0.71126 0.76426 0.79364 0.0
Cd45 Cd 0.67963 0.7235 0.82788 0.0
O46 O 0.70168 0.80218 0.82523 0.0
Cd47 Cd 0.70121 0.84866 0.84784 0.0
O48 O 0.68301 0.88033 0.88152 0.0
C49 C 0.65971 0.86652 0.90057 0.0
O50 O 0.64868 0.83499 0.89879 0.0
C51 C 0.71536 0.79398 0.80027 0.0
C52 C 0.728 0.69876 0.85633 0.0
O53 O 0.71446 0.68693 0.82981 0.0
O54 O 0.71814 0.72195 0.86969 0.0
O55 O 0.86023 0.2603 0.37398 0.0
Cd56 Cd 0.90049 0.2835 0.4172 0.0
O57 O 0.85116 0.30445 0.3587 0.0
Cd58 Cd 0.86651 0.33222 0.40276 0.0
O59 O 0.83135 0.35285 0.43147 0.0
C60 C 0.80044 0.33401 0.43445 0.0
O61 O 0.79379 0.30422 0.42272 0.0
C62 C 0.84769 0.27457 0.35436 0.0
C63 C 0.93179 0.23631 0.43162 0.0
O64 O 0.94355 0.25444 0.40948 0.0
O65 O 0.906 0.24115 0.44766 0.0
O66 O 0.42459 0.74819 0.23755 0.0
Cd67 Cd 0.40729 0.69093 0.25077 0.0
O68 O 0.37861 0.74274 0.20671 0.0
Cd69 Cd 0.34955 0.69176 0.20581 0.0
O70 O 0.30693 0.65634 0.17944 0.0
C71 C 0.28002 0.66544 0.17336 0.0
O72 O 0.27897 0.69404 0.18436 0.0
C73 C 0.40708 0.76016 0.21958 0.0
C74 C 0.42426 0.67186 0.30864 0.0
O75 O 0.44714 0.67809 0.28689 0.0
O76 O 0.394 0.67608 0.30377 0.0
O77 O 0.15369 0.39019 0.76802 0.0
Cd78 Cd 0.17127 0.36494 0.7201 0.0
O79 O 0.1088 0.34781 0.77563 0.0
Cd80 Cd 0.1167 0.31631 0.73611 0.0
O81 O 0.10874 0.27244 0.70556 0.0
C82 C 0.07872 0.26 0.69267 0.0
O83 O 0.05398 0.27456 0.6972 0.0
C84 C 0.12709 0.37624 0.784 0.0
C85 C 0.22833 0.40365 0.68819 0.0
O86 O 0.1965 0.40361 0.68272 0.0
O87 O 0.23322 0.38593 0.70915 0.0
Dy88 Dy 0.05483 0.00778 0.50913 0.0
Dy89 Dy 0.97188 0.98737 0.53379 0.0
C90 C 0.02887 0.05068 0.56108 0.0
O91 O 0.0559 0.98554 0.55384 0.0
O92 O 0.99798 0.95525 0.55581 0.0
O93 O 0.11096 0.0274 0.51742 0.0
O94 O 0.09125 0.0057 0.47199 0.0
O95 O 0.97262 0.96366 0.48631 0.0
O96 O 0.02767 0.95782 0.49065 0.0
O97 O 0.97357 0.02658 0.50311 0.0
O98 O 0.02852 0.03486 0.48004 0.0
O99 O 0.92233 0.9505 0.53754 0.0
O100 O 0.92786 0.99882 0.55723 0.0
C101 C 0.031 0.96209 0.56497 0.0
O102 O 0.04737 0.05085 0.53563 0.0
O103 O 0.00423 0.02479 0.56841 0.0
C104 C 0.14321 0.04862 0.47372 0.0
C105 C 0.18938 0.09758 0.44164 0.0
C106 C 0.15481 0.09866 0.44868 0.0
C107 C 0.13189 0.07436 0.46466 0.0
C108 C 0.17781 0.04779 0.46741 0.0
C109 C 0.20076 0.07209 0.45153 0.0
C110 C 0.11883 0.02181 0.48853 0.0
C111 C 0.9962 0.94884 0.47788 0.0
C112 C 0.99775 0.0408 0.48351 0.0
C113 C 0.88886 0.9556 0.5825 0.0
C114 C 0.85004 0.92881 0.63444 0.0
C115 C 0.84474 0.91207 0.60505 0.0
C116 C 0.86377 0.92538 0.57941 0.0
C117 C 0.89452 0.97239 0.61185 0.0
C118 C 0.87527 0.95911 0.63757 0.0
C119 C 0.90791 0.96918 0.55464 0.0
H120 H 0.14542 0.11816 0.44163 0.0
H121 H 0.1052 0.07534 0.46948 0.0
H122 H 0.18686 0.02799 0.47421 0.0
H123 H 0.22705 0.07035 0.44612 0.0
H124 H 0.82608 0.88842 0.60186 0.0
H125 H 0.85888 0.91198 0.55704 0.0
H126 H 0.91363 0.99581 0.61498 0.0
H127 H 0.87983 0.97277 0.65979 0.0
Dy128 Dy 0.47978 0.01848 0.07062 0.0
Dy129 Dy 0.54964 0.03767 0.11596 0.0
C130 C 0.48827 0.97317 0.12223 0.0
O131 O 0.4675 0.04427 0.11382 0.0
O132 O 0.52282 0.07595 0.12668 0.0
O133 O 0.42338 0.99751 0.06654 0.0
O134 O 0.45349 0.01938 0.02736 0.0
O135 O 0.56443 0.07177 0.07842 0.0
O136 O 0.50906 0.06889 0.06028 0.0
O137 O 0.55565 0.99777 0.08268 0.0
O138 O 0.52047 1.00293 0.04275 0.0
O139 O 0.60567 0.04558 0.12289 0.0
O140 O 0.57118 0.04666 0.1623 0.0
C141 C 0.48845 0.07101 0.12656 0.0
O142 O 0.4803 0.97364 0.09291 0.0
O143 O 0.5076 0.99924 0.13745 0.0
C144 C 0.4012 0.97772 0.0162 0.0
C145 C 0.35827 0.92982 0.97513 0.0
C146 C 0.37806 0.92152 0.99828 0.0
C147 C 0.39955 0.94536 0.01864 0.0
C148 C 0.38152 0.98598 0.99319 0.0
C149 C 0.36026 0.96231 0.97285 0.0
C150 C 0.42266 1.00343 0.03744 0.0
C151 C 0.54332 0.08298 0.06208 0.0
C152 C 0.54576 0.99247 0.05339 0.0
C153 C 0.63014 0.07962 0.16667 0.0
C154 C 0.68065 0.13159 0.19711 0.0
C155 C 0.64682 0.13404 0.1904 0.0
C156 C 0.62176 0.10827 0.17514 0.0
C157 C 0.66414 0.07748 0.17249 0.0
C158 C 0.68924 0.10326 0.18753 0.0
C159 C 0.60366 0.05131 0.15277 0.0
H160 H 0.37717 0.89669 1.00042 0.0
H161 H 0.41473 0.93858 0.03625 0.0
H162 H 0.3824 0.01083 0.99109 0.0
H163 H 0.3449 0.96941 0.9556 0.0
H164 H 0.63963 0.15572 0.19731 0.0
H165 H 0.59569 0.11049 0.17054 0.0
H166 H 0.67103 0.05554 0.16603 0.0
H167 H 0.71494 0.10054 0.19271 0.0
Dy168 Dy 0.50398 0.51063 0.52606 0.0
Dy169 Dy 0.5128 0.5801 0.5647 0.0
C170 C 0.53924 0.52625 0.59405 0.0
O171 O 0.44913 0.5084 0.54102 0.0
O172 O 0.46429 0.54547 0.58258 0.0
O173 O 0.49036 0.45879 0.52349 0.0
O174 O 0.51202 0.48467 0.4835 0.0
O175 O 0.47664 0.57888 0.52509 0.0
O176 O 0.49478 0.54378 0.49164 0.0
O177 O 0.55888 0.5875 0.53241 0.0
O178 O 0.5615 0.53569 0.52826 0.0
O179 O 0.52053 0.63127 0.56543 0.0
O180 O 0.51368 0.60762 0.60836 0.0
C181 C 0.4413 0.52128 0.56759 0.0
O182 O 0.51713 0.50501 0.57528 0.0
O183 O 0.54722 0.55708 0.58986 0.0
C184 C 0.53274 0.44138 0.49385 0.0
C185 C 0.59051 0.41577 0.48572 0.0
C186 C 0.59077 0.43934 0.50975 0.0
C187 C 0.56218 0.45205 0.51374 0.0
C188 C 0.53197 0.4175 0.47022 0.0
C189 C 0.56061 0.40473 0.4662 0.0
C190 C 0.50458 0.45732 0.49619 0.0
C191 C 0.48007 0.56717 0.49679 0.0
C192 C 0.57586 0.56623 0.52467 0.0
C193 C 0.48574 0.6477 0.60389 0.0
C194 C 0.42972 0.67289 0.62206 0.0
C195 C 0.42306 0.64324 0.60468 0.0
C196 C 0.45082 0.63079 0.59567 0.0
C197 C 0.4927 0.67737 0.62097 0.0
C198 C 0.46487 0.68991 0.63001 0.0
C199 C 0.51447 0.63375 0.5951 0.0
H200 H 0.61355 0.44869 0.52489 0.0
H201 H 0.56342 0.47081 0.5319 0.0
H202 H 0.50957 0.40919 0.45452 0.0
H203 H 0.55947 0.38637 0.44768 0.0
H204 H 0.3963 0.6293 0.59861 0.0
H205 H 0.44501 0.60772 0.58259 0.0
H206 H 0.51955 0.69069 0.62745 0.0
H207 H 0.47085 0.71293 0.64315 0.0
Dy208 Dy 0.00929 0.54025 0.999 0.0
Dy209 Dy 1.00183 0.47507 0.03535 0.0
C210 C 0.97654 0.53256 0.06745 0.0
O211 O 0.06405 0.54578 0.01625 0.0
O212 O 0.04834 0.51259 0.05615 0.0
O213 O 0.01924 0.59159 0.99789 0.0
O214 O 0.0065 0.56102 0.95558 0.0
O215 O 0.0423 0.47629 0.9984 0.0
O216 O 0.01947 0.5031 0.96485 0.0
O217 O 0.95614 0.46371 1.002 0.0
O218 O 0.95159 0.51458 0.99927 0.0
O219 O 0.99291 0.4237 0.03296 0.0
O220 O 0.00391 0.45117 0.0772 0.0
C221 C 0.07125 0.53586 0.04276 0.0
O222 O 0.99697 0.55159 0.04823 0.0
O223 O 0.96853 0.5011 0.0628 0.0
C224 C 0.98286 0.60445 0.96108 0.0
C225 C 0.92689 0.62738 0.94266 0.0
C226 C 0.92471 0.61166 0.97027 0.0
C227 C 0.95235 0.60013 0.9793 0.0
C228 C 0.98552 0.62061 0.9339 0.0
C229 C 0.95779 0.63197 0.92473 0.0
C230 C 0.01042 0.58963 0.96872 0.0
C231 C 0.03864 0.48397 0.97015 0.0
C232 C 0.93814 0.48338 0.99481 0.0
C233 C 0.03016 0.40892 0.06829 0.0
C234 C 0.08789 0.38552 0.08121 0.0
C235 C 0.07751 0.3865 0.05043 0.0
C236 C 0.04906 0.3982 0.04401 0.0
C237 C 0.03991 0.40704 0.09905 0.0
C238 C 0.06858 0.39562 0.10546 0.0
C239 C 1.00181 0.42378 0.06193 0.0
H240 H 0.90153 0.60806 0.98483 0.0
H241 H 0.94964 0.58732 1.0002 0.0
H242 H 0.00867 0.62371 0.91934 0.0
H243 H 0.96014 0.64347 0.90308 0.0
H244 H 0.0921 0.37918 0.03127 0.0
H245 H 0.04244 0.39948 0.02 0.0
H246 H 0.02578 0.41506 0.11818 0.0
H247 H 0.07577 0.39484 0.12941 0.0
C248 C 0.31083 0.23618 0.34133 0.0
C249 C 0.32583 0.22154 0.31697 0.0
C250 C 0.28966 0.21788 0.36367 0.0
C251 C 0.28322 0.18415 0.36148 0.0
C252 C 0.29902 0.16932 0.33742 0.0
C253 C 0.32021 0.1882 0.31552 0.0
C254 C 0.27346 0.23453 0.38914 0.0
C255 C 0.29273 0.13339 0.33429 0.0
C256 C 0.24892 0.13463 0.43013 0.0
C257 C 0.21296 0.12189 0.4226 0.0
C258 C 0.27199 0.15568 0.41091 0.0
C259 C 0.25876 0.16407 0.38347 0.0
C260 C 0.22231 0.15199 0.37619 0.0
C261 C 0.19985 0.13107 0.39587 0.0
C262 C 0.31064 0.16831 0.41956 0.0
C263 C 0.20723 0.1603 0.34707 0.0
H264 H 0.31515 0.26194 0.34271 0.0
H265 H 0.33171 0.17667 0.29681 0.0
H266 H 0.24425 0.22668 0.38671 0.0
H267 H 0.27989 0.22779 0.41214 0.0
H268 H 0.28277 0.26108 0.38871 0.0
H269 H 0.308 0.12573 0.31496 0.0
H270 H 0.30012 0.12496 0.35613 0.0
H271 H 0.26422 0.12129 0.33011 0.0
H272 H 0.25908 0.1279 0.45099 0.0
H273 H 0.17218 0.121 0.38972 0.0
H274 H 0.31935 0.19489 0.41985 0.0
H275 H 0.3267 0.15917 0.4019 0.0
H276 H 0.3163 0.16106 0.4426 0.0
H277 H 0.21399 0.18673 0.34611 0.0
H278 H 0.17805 0.15021 0.34558 0.0
H279 H 0.21908 0.15088 0.3264 0.0
C280 C 0.20273 0.83358 0.86415 0.0
C281 C 0.21044 0.81018 0.84354 0.0
C282 C 0.22618 0.8491 0.88819 0.0
C283 C 0.25803 0.84091 0.8918 0.0
C284 C 0.26471 0.81565 0.87257 0.0
C285 C 0.24085 0.80061 0.84861 0.0
C286 C 0.21801 0.87582 0.90832 0.0
C287 C 0.29816 0.80596 0.87596 0.0
C288 C 0.33465 0.91028 0.92188 0.0
C289 C 0.33512 0.90501 0.95346 0.0
C290 C 0.31043 0.88896 0.90145 0.0
C291 C 0.2861 0.86156 0.91283 0.0
C292 C 0.28745 0.85527 0.9444 0.0
C293 C 0.312 0.87714 0.96441 0.0
C294 C 0.31005 0.89644 0.86787 0.0
C295 C 0.2621 0.82618 0.95728 0.0
H296 H 0.17917 0.84097 0.86062 0.0
H297 H 0.2469 0.78232 0.833 0.0
H298 H 0.22182 0.87282 0.93317 0.0
H299 H 0.2365 0.89917 0.90273 0.0
H300 H 0.19055 0.87685 0.90486 0.0
H301 H 0.29691 0.78294 0.86257 0.0
H302 H 0.3209 0.82487 0.86744 0.0
H303 H 0.30338 0.80357 0.90069 0.0
H304 H 0.35294 0.9315 0.91323 0.0
H305 H 0.31216 0.87306 0.98884 0.0
H306 H 0.28451 0.90075 0.86234 0.0
H307 H 0.31244 0.87571 0.85246 0.0
H308 H 0.33179 0.91793 0.86247 0.0
H309 H 0.23497 0.8288 0.95733 0.0
H310 H 0.26914 0.82282 0.98134 0.0
H311 H 0.26157 0.80421 0.94243 0.0
C312 C 0.64037 0.45395 0.71794 0.0
C313 C 0.62533 0.45458 0.74754 0.0
C314 C 0.62836 0.46732 0.69307 0.0
C315 C 0.60031 0.4814 0.69771 0.0
C316 C 0.58562 0.48283 0.7277 0.0
C317 C 0.5984 0.46958 0.75223 0.0
C318 C 0.64508 0.46561 0.6616 0.0
C319 C 0.55553 0.49738 0.73368 0.0
C320 C 0.58269 0.53606 0.63835 0.0
C321 C 0.55523 0.51497 0.62046 0.0
C322 C 0.59786 0.52548 0.66333 0.0
C323 C 0.58507 0.49308 0.6709 0.0
C324 C 0.55735 0.47171 0.65295 0.0
C325 C 0.54294 0.48284 0.62794 0.0
C326 C 0.6276 0.54896 0.68162 0.0
C327 C 0.54266 0.43705 0.6603 0.0
H328 H 0.66125 0.44252 0.71404 0.0
H329 H 0.58648 0.47015 0.77494 0.0
H330 H 0.62536 0.44998 0.64498 0.0
H331 H 0.65373 0.4898 0.65252 0.0
H332 H 0.66822 0.45597 0.66226 0.0
H333 H 0.54808 0.49799 0.75855 0.0
H334 H 0.56279 0.5222 0.7261 0.0
H335 H 0.53204 0.48328 0.7199 0.0
H336 H 0.59254 0.56089 0.63274 0.0
H337 H 0.52171 0.46629 0.6144 0.0
H338 H 0.65123 0.53999 0.6811 0.0
H339 H 0.61983 0.55119 0.70626 0.0
H340 H 0.635 0.57317 0.67249 0.0
H341 H 0.56393 0.42502 0.6589 0.0
H342 H 0.52096 0.42354 0.64424 0.0
H343 H 0.53245 0.43573 0.68437 0.0
C344 C 0.93998 0.61248 0.23256 0.0
C345 C 0.91196 0.62621 0.23142 0.0
C346 C 0.94964 0.59609 0.20624 0.0
C347 C 0.93062 0.59305 0.17811 0.0
C348 C 0.90208 0.60656 0.1769 0.0
C349 C 0.89322 0.6231 0.20348 0.0
C350 C 0.98053 0.58241 0.20841 0.0
C351 C 0.88102 0.60373 0.14743 0.0
C352 C 0.97713 0.58082 0.10264 0.0
C353 C 0.96381 0.54758 0.09555 0.0
C354 C 0.96657 0.59577 0.12936 0.0
C355 C 0.94174 0.57719 0.14956 0.0
C356 C 0.92786 0.54368 0.1425 0.0
C357 C 0.93918 0.52923 0.11565 0.0
C358 C 0.98228 0.6315 0.13608 0.0
C359 C 0.90109 0.52311 0.16335 0.0
H360 H 0.95459 0.6147 0.25403 0.0
H361 H 0.87137 0.63341 0.2024 0.0
H362 H 0.9721 0.55631 0.20163 0.0
H363 H 1.00147 0.59384 0.19201 0.0
H364 H 0.99207 0.58614 0.23214 0.0
H365 H 0.85863 0.61431 0.15065 0.0
H366 H 0.89843 0.61608 0.12899 0.0
H367 H 0.87042 0.57812 0.13908 0.0
H368 H 0.9963 0.59532 0.08744 0.0
H369 H 0.92869 0.50358 0.1104 0.0
H370 H 0.99605 0.63633 0.15887 0.0
H371 H 0.961 0.64352 0.13752 0.0
H372 H 1.0014 0.6425 0.11808 0.0
H373 H 0.91253 0.52451 0.18687 0.0
H374 H 0.89235 0.49755 0.15437 0.0
H375 H 0.87759 0.53221 0.16581 0.0
C376 C 0.39812 0.21092 0.1774 0.0
C377 C 0.40867 0.23494 0.15641 0.0
C378 C 0.41127 0.1841 0.17539 0.0
C379 C 0.43446 0.1805 0.15102 0.0
C380 C 0.44441 0.20415 0.12915 0.0
C381 C 0.43159 0.23114 0.13224 0.0
C382 C 0.40015 0.15952 0.19927 0.0
C383 C 0.46838 0.20084 0.10233 0.0
C384 C 0.49296 0.12479 0.15405 0.0
C385 C 0.47324 0.09757 0.13625 0.0
C386 C 0.48006 0.15154 0.16013 0.0
C387 C 0.44709 0.15132 0.14744 0.0
C388 C 0.42678 0.12364 0.13002 0.0
C389 C 0.4399 0.09702 0.12496 0.0
C390 C 0.50207 0.18033 0.17946 0.0
C391 C 0.39189 0.12262 0.11547 0.0
H392 H 0.37898 0.21254 0.19504 0.0
H393 H 0.43974 0.24943 0.11573 0.0
H394 H 0.38418 0.13633 0.18804 0.0
H395 H 0.42378 0.15521 0.20964 0.0
H396 H 0.38429 0.16713 0.21817 0.0
H397 H 0.47331 0.22117 0.08714 0.0
H398 H 0.49414 0.19955 0.11113 0.0
H399 H 0.45648 0.17818 0.0881 0.0
H400 H 0.51872 0.12539 0.16286 0.0
H401 H 0.42459 0.07626 0.11087 0.0
H402 H 0.48589 0.18732 0.1984 0.0
H403 H 0.51122 0.20104 0.16487 0.0
H404 H 0.52557 0.17569 0.1898 0.0
H405 H 0.37372 0.1282 0.13337 0.0
H406 H 0.37878 0.09887 0.10347 0.0
H407 H 0.3962 0.14118 0.09837 0.0
C408 C 0.07815 0.88551 0.71454 0.0
C409 C 0.08838 0.85752 0.70753 0.0
C410 C 0.06767 0.90156 0.6911 0.0
C411 C 0.06738 0.88935 0.65986 0.0
C412 C 0.07696 0.86076 0.65264 0.0
C413 C 0.08735 0.84517 0.67658 0.0
C414 C 0.05755 0.93196 0.69973 0.0
C415 C 0.07688 0.847 0.61958 0.0
C416 C 0.01409 0.91868 0.60214 0.0
C417 C 0.04037 0.94291 0.58871 0.0
C418 C 0.02254 0.90074 0.62503 0.0
C419 C 0.05811 0.90716 0.63472 0.0
C420 C 0.0848 0.93132 0.62105 0.0
C421 C 0.07562 0.94891 0.59824 0.0
C422 C 0.99335 0.8752 0.63913 0.0
C423 C 0.12304 0.93886 0.63079 0.0
H424 H 0.07875 0.8952 0.73838 0.0
H425 H 0.09517 0.82354 0.67096 0.0
H426 H 0.07603 0.95243 0.68876 0.0
H427 H 0.03067 0.92969 0.69087 0.0
H428 H 0.05803 0.93768 0.72521 0.0
H429 H 0.08373 0.82394 0.61796 0.0
H430 H 0.05047 0.84298 0.60887 0.0
H431 H 0.09617 0.86433 0.60573 0.0
H432 H 0.98678 0.91382 0.59497 0.0
H433 H 0.09615 0.9675 0.58799 0.0
H434 H 0.99174 0.88123 0.66438 0.0
H435 H 0.99921 0.85174 0.63636 0.0
H436 H 0.96718 0.87256 0.62843 0.0
H437 H 0.12591 0.94702 0.65577 0.0
H438 H 0.14072 0.95779 0.61731 0.0
H439 H 0.13199 0.91693 0.62773 0.0
C440 C 0.77199 0.43074 0.88055 0.0
C441 C 0.74025 0.41382 0.8941 0.0
C442 C 0.80364 0.44121 0.89774 0.0
C443 C 0.80355 0.43527 0.92955 0.0
C444 C 0.7715 0.41842 0.94346 0.0
C445 C 0.7403 0.4077 0.92552 0.0
C446 C 0.83724 0.45859 0.8818 0.0
C447 C 0.77007 0.41215 0.97742 0.0
C448 C 0.89178 0.43875 0.9666 0.0
C449 C 0.90267 0.47034 0.97997 0.0
C450 C 0.85942 0.4269 0.95051 0.0
C451 C 0.83702 0.44689 0.94813 0.0
C452 C 0.84742 0.4785 0.96235 0.0
C453 C 0.88018 0.48991 0.97784 0.0
C454 C 0.84972 0.39328 0.93523 0.0
C455 C 0.82419 0.50051 0.96078 0.0
H456 H 0.77218 0.4355 0.85626 0.0
H457 H 0.71577 0.3953 0.93634 0.0
H458 H 0.84789 0.48315 0.89294 0.0
H459 H 0.85762 0.44589 0.88427 0.0
H460 H 0.83309 0.46046 0.85673 0.0
H461 H 0.74317 0.39863 0.98473 0.0
H462 H 0.78871 0.39832 0.98247 0.0
H463 H 0.77849 0.43527 0.99166 0.0
H464 H 0.90903 0.4235 0.96791 0.0
H465 H 0.88824 0.51431 0.98818 0.0
H466 H 0.84756 0.39421 0.90976 0.0
H467 H 0.82356 0.37916 0.94348 0.0
H468 H 0.8695 0.38046 0.93993 0.0
H469 H 0.82132 0.50565 0.93635 0.0
H470 H 0.83505 0.52367 0.97461 0.0
H471 H 0.79734 0.48866 0.96939 0.0
C472 C 0.77638 0.62565 0.46689 0.0
C473 C 0.77775 0.62392 0.43437 0.0
C474 C 0.7441 0.61557 0.48247 0.0
C475 C 0.7124 0.60358 0.46511 0.0
C476 C 0.71364 0.60108 0.4323 0.0
C477 C 0.74633 0.6112 0.41731 0.0
C478 C 0.74386 0.61832 0.51749 0.0
C479 C 0.68034 0.58838 0.41303 0.0
C480 C 0.6303 0.55376 0.50413 0.0
C481 C 0.61155 0.57636 0.51085 0.0
C482 C 0.66327 0.56234 0.48949 0.0
C483 C 0.67785 0.59428 0.48129 0.0
C484 C 0.65933 0.61732 0.48836 0.0
C485 C 0.6264 0.6081 0.50312 0.0
C486 C 0.68229 0.53712 0.4825 0.0
C487 C 0.67408 0.65162 0.47992 0.0
H488 H 0.80054 0.63534 0.48027 0.0
H489 H 0.74715 0.60982 0.39218 0.0
H490 H 0.72877 0.63517 0.52584 0.0
H491 H 0.73039 0.59467 0.52641 0.0
H492 H 0.77092 0.62701 0.52755 0.0
H493 H 0.6859 0.58714 0.38777 0.0
H494 H 0.66557 0.56404 0.41961 0.0
H495 H 0.66283 0.60407 0.41761 0.0
H496 H 0.61911 0.52916 0.51004 0.0
H497 H 0.61208 0.62567 0.50813 0.0
H498 H 0.70883 0.54489 0.49356 0.0
H499 H 0.68628 0.53411 0.45714 0.0
H500 H 0.66755 0.51346 0.49082 0.0
H501 H 0.70043 0.6624 0.49086 0.0
H502 H 0.65659 0.66669 0.48735 0.0
H503 H 0.67773 0.65226 0.45445 0.0
C504 C 0.24913 0.32371 0.13594 0.0
C505 C 0.27925 0.33623 0.11809 0.0
C506 C 0.21679 0.32944 0.12944 0.0
C507 C 0.21461 0.34849 0.10475 0.0
C508 C 0.24469 0.36052 0.08617 0.0
C509 C 0.27657 0.35408 0.09294 0.0
C510 C 0.18518 0.31579 0.1495 0.0
C511 C 0.24357 0.38116 0.0598 0.0
C512 C 0.12507 0.34761 0.07254 0.0
C513 C 0.11967 0.37524 0.08793 0.0
C514 C 0.15555 0.33827 0.07813 0.0
C515 C 0.18146 0.35726 0.09931 0.0
C516 C 0.17605 0.38512 0.11498 0.0
C517 C 0.14516 0.39367 0.10922 0.0
C518 C 0.16013 0.30819 0.06127 0.0
C519 C 0.2032 0.40626 0.13746 0.0
H520 H 0.25092 0.30977 0.15532 0.0
H521 H 0.29971 0.36393 0.07907 0.0
H522 H 0.17761 0.33562 0.16261 0.0
H523 H 0.1622 0.30227 0.13483 0.0
H524 H 0.19049 0.29957 0.16631 0.0
H525 H 0.26879 0.38754 0.04676 0.0
H526 H 0.22187 0.36855 0.04344 0.0
H527 H 0.23803 0.40365 0.06901 0.0
H528 H 0.10528 0.33316 0.05625 0.0
H529 H 0.14133 0.41528 0.12086 0.0
H530 H 0.16402 0.29153 0.07823 0.0
H531 H 0.1841 0.31427 0.04661 0.0
H532 H 0.13705 0.29553 0.04629 0.0
H533 H 0.20799 0.39209 0.15639 0.0
H534 H 0.19489 0.42698 0.14788 0.0
H535 H 0.2287 0.41552 0.12538 0.0
C536 C 0.63227 0.23511 0.96293 0.0
C537 C 0.62958 0.26367 0.97857 0.0
C538 C 0.61837 0.20528 0.97573 0.0
C539 C 0.60154 0.2039 0.00499 0.0
C540 C 0.59895 0.23265 0.02098 0.0
C541 C 0.61288 0.2621 0.00757 0.0
C542 C 0.62148 0.1752 0.95782 0.0
C543 C 0.58142 0.2323 0.05231 0.0
C544 C 0.53735 0.12523 0.02749 0.0
C545 C 0.55841 0.11345 0.04672 0.0
C546 C 0.55112 0.1544 0.01351 0.0
C547 C 0.58678 0.17243 0.01899 0.0
C548 C 0.60821 0.16063 0.03827 0.0
C549 C 0.59385 0.13131 0.05178 0.0
C550 C 0.5274 0.16602 0.99301 0.0
C551 C 0.64626 0.1792 0.04495 0.0
H552 H 0.64498 0.23598 0.94049 0.0
H553 H 0.61066 0.28396 0.01991 0.0
H554 H 0.63631 0.16286 0.97173 0.0
H555 H 0.5948 0.15833 0.95332 0.0
H556 H 0.63511 0.18027 0.93529 0.0
H557 H 0.58186 0.25674 0.0619 0.0
H558 H 0.55353 0.21727 0.05049 0.0
H559 H 0.59492 0.22143 0.06897 0.0
H560 H 0.50998 0.1117 0.02336 0.0
H561 H 0.6104 0.1226 0.06666 0.0
H562 H 0.53933 0.17001 0.9697 0.0
H563 H 0.52468 0.18937 1.00293 0.0
H564 H 0.50061 0.14876 0.99031 0.0
H565 H 0.6612 0.18317 0.02295 0.0
H566 H 0.65951 0.16664 0.06021 0.0
H567 H 0.64762 0.20317 0.0563 0.0
C568 C 0.94084 0.79165 0.35679 0.0
C569 C 0.93184 0.76537 0.37534 0.0
C570 C 0.95347 0.82327 0.37023 0.0
C571 C 0.95708 0.82864 0.4029 0.0
C572 C 0.94931 0.80213 0.42154 0.0
C573 C 0.93693 0.77095 0.40757 0.0
C574 C 0.96186 0.85094 0.34958 0.0
C575 C 0.95291 0.80668 0.45645 0.0
C576 C 0.01258 0.90594 0.44449 0.0
C577 C 0.98658 0.92009 0.45564 0.0
C578 C 0.0036 0.87708 0.42575 0.0
C579 C 0.96772 0.86181 0.41812 0.0
C580 C 0.94154 0.87671 0.42813 0.0
C581 C 0.95129 0.90571 0.44668 0.0
C582 C 0.03237 0.86217 0.41536 0.0
C583 C 0.90295 0.86116 0.42062 0.0
H584 H 0.93696 0.78763 0.3319 0.0
H585 H 0.93033 0.75088 0.42217 0.0
H586 H 0.94284 0.86517 0.35404 0.0
H587 H 0.98865 0.86723 0.35492 0.0
H588 H 0.96051 0.84275 0.32459 0.0
H589 H 0.94686 0.78351 0.46754 0.0
H590 H 0.98015 0.82103 0.4631 0.0
H591 H 0.93469 0.82018 0.46595 0.0
H592 H 0.03999 0.91702 0.45099 0.0
H593 H 0.93102 0.91649 0.45506 0.0
H594 H 0.02975 0.85482 0.39021 0.0
H595 H 0.02979 0.84024 0.42782 0.0
H596 H 0.05919 0.87882 0.41996 0.0
H597 H 0.8993 0.85443 0.3954 0.0
H598 H 0.8863 0.87713 0.42762 0.0
H599 H 0.89338 0.83877 0.43285 0.0
C600 C 0.25298 0.7002 0.69255 0.0
C601 C 0.25118 0.73183 0.69193 0.0
C602 C 0.28173 0.69111 0.67956 0.0
C603 C 0.30936 0.7142 0.66564 0.0
C604 C 0.30723 0.74592 0.66413 0.0
C605 C 0.27814 0.75436 0.67729 0.0
C606 C 0.28299 0.65699 0.68149 0.0
C607 C 0.33617 0.77117 0.6494 0.0
C608 C 0.3991 0.69847 0.66307 0.0
C609 C 0.39988 0.68536 0.63259 0.0
C610 C 0.37008 0.70853 0.67393 0.0
C611 C 0.34112 0.70538 0.65382 0.0
C612 C 0.34206 0.69281 0.62282 0.0
C613 C 0.37144 0.68296 0.61258 0.0
C614 C 0.37003 0.72181 0.70716 0.0
C615 C 0.31175 0.68921 0.60067 0.0
H616 H 0.23224 0.68262 0.70376 0.0
H617 H 0.27696 0.77885 0.6767 0.0
H618 H 0.28655 0.64629 0.65805 0.0
H619 H 0.30599 0.65675 0.69581 0.0
H620 H 0.25864 0.6416 0.69182 0.0
H621 H 0.3296 0.79424 0.64857 0.0
H622 H 0.36111 0.77564 0.66272 0.0
H623 H 0.34115 0.76263 0.62545 0.0
H624 H 0.42077 0.70002 0.67877 0.0
H625 H 0.37212 0.67326 0.58886 0.0
H626 H 0.34804 0.70597 0.71991 0.0
H627 H 0.36555 0.74585 0.708 0.0
H628 H 0.39521 0.72393 0.7194 0.0
H629 H 0.28747 0.6723 0.60943 0.0
H630 H 0.31718 0.68017 0.57699 0.0
H631 H 0.30621 0.71262 0.59918 0.0
C632 C 0.75838 0.80791 0.75718 0.0
C633 C 0.73617 0.8176 0.77905 0.0
C634 C 0.77718 0.82871 0.73556 0.0
C635 C 0.77395 0.86022 0.73577 0.0
C636 C 0.75224 0.87052 0.75816 0.0
C637 C 0.73338 0.84899 0.77942 0.0
C638 C 0.79987 0.81665 0.71199 0.0
C639 C 0.7483 0.90401 0.75917 0.0
C640 C 0.84593 0.91651 0.69062 0.0
C641 C 0.82954 0.91426 0.66162 0.0
C642 C 0.82754 0.90047 0.7156 0.0
C643 C 0.79204 0.88149 0.71139 0.0
C644 C 0.77492 0.88026 0.68261 0.0
C645 C 0.79379 0.89679 0.65818 0.0
C646 C 0.84659 0.90265 0.74605 0.0
C647 C 0.73714 0.86021 0.6771 0.0
H648 H 0.76088 0.78375 0.75672 0.0
H649 H 0.71576 0.85655 0.7956 0.0
H650 H 0.78983 0.8172 0.68826 0.0
H651 H 0.82741 0.83253 0.71326 0.0
H652 H 0.80027 0.79175 0.71549 0.0
H653 H 0.7329 0.90921 0.77959 0.0
H654 H 0.77467 0.92201 0.75985 0.0
H655 H 0.73469 0.90705 0.73782 0.0
H656 H 0.87357 0.92978 0.69351 0.0
H657 H 0.78064 0.89555 0.6361 0.0
H658 H 0.85119 0.87921 0.74966 0.0
H659 H 0.83022 0.90805 0.76561 0.0
H660 H 0.87252 0.92137 0.7468 0.0
H661 H 0.73542 0.83443 0.67801 0.0
H662 H 0.72684 0.86375 0.65425 0.0
H663 H 0.71979 0.86616 0.69556 0.0
C664 C 0.81418 0.27138 0.30486 0.0
C665 C 0.82694 0.25591 0.32751 0.0
C666 C 0.79193 0.25367 0.28084 0.0
C667 C 0.78201 0.21974 0.27967 0.0
C668 C 0.79569 0.20402 0.30187 0.0
C669 C 0.81811 0.22228 0.32542 0.0
C670 C 0.77818 0.27123 0.25732 0.0
C671 C 0.78559 0.16783 0.30145 0.0
C672 C 0.69493 0.17037 0.24363 0.0
C673 C 0.70612 0.15734 0.21613 0.0
C674 C 0.71929 0.19176 0.26397 0.0
C675 C 0.75567 0.20046 0.25649 0.0
C676 C 0.76693 0.18862 0.22802 0.0
C677 C 0.742 0.16704 0.20821 0.0
C678 C 0.70627 0.20374 0.29421 0.0
C679 C 0.80545 0.19772 0.21908 0.0
H680 H 0.82103 0.29736 0.30618 0.0
H681 H 0.82786 0.2101 0.34276 0.0
H682 H 0.78282 0.2622 0.23345 0.0
H683 H 0.74922 0.26666 0.26007 0.0
H684 H 0.79081 0.29755 0.25983 0.0
H685 H 0.79972 0.15935 0.31957 0.0
H686 H 0.75674 0.15827 0.30525 0.0
H687 H 0.79149 0.15757 0.27848 0.0
H688 H 0.66727 0.16266 0.24999 0.0
H689 H 0.75063 0.15725 0.18677 0.0
H690 H 0.71616 0.23029 0.29727 0.0
H691 H 0.71669 0.194 0.31384 0.0
H692 H 0.67696 0.19652 0.29554 0.0
H693 H 0.81701 0.22415 0.22168 0.0
H694 H 0.80938 0.18917 0.19483 0.0
H695 H 0.8203 0.18713 0.23481 0.0
C696 C 0.40414 0.64221 0.35654 0.0
C697 C 0.43186 0.65844 0.33773 0.0
C698 C 0.41066 0.62724 0.38277 0.0
C699 C 0.44585 0.62904 0.39091 0.0
C700 C 0.47401 0.64615 0.37248 0.0
C701 C 0.46668 0.6603 0.34599 0.0
C702 C 0.37978 0.60883 0.40136 0.0
C703 C 0.51196 0.64932 0.3806 0.0
C704 C 0.46527 0.6132 0.47378 0.0
C705 C 0.46924 0.58213 0.47002 0.0
C706 C 0.45769 0.62871 0.44835 0.0
C707 C 0.4532 0.61261 0.41837 0.0
C708 C 0.45629 0.58093 0.41458 0.0
C709 C 0.46463 0.56625 0.44031 0.0
C710 C 0.45532 0.66265 0.45346 0.0
C711 C 0.45102 0.56257 0.38323 0.0
H712 H 0.37713 0.64038 0.35027 0.0
H713 H 0.4883 0.67284 0.3317 0.0
H714 H 0.37965 0.58333 0.40116 0.0
H715 H 0.38237 0.61857 0.42589 0.0
H716 H 0.35402 0.60983 0.39216 0.0
H717 H 0.53091 0.66471 0.36487 0.0
H718 H 0.51777 0.65971 0.40479 0.0
H719 H 0.51643 0.62527 0.37929 0.0
H720 H 0.46911 0.62588 0.49653 0.0
H721 H 0.46753 0.54224 0.43712 0.0
H722 H 0.42917 0.66395 0.44566 0.0
H723 H 0.47564 0.67877 0.43938 0.0
H724 H 0.45921 0.67179 0.47819 0.0
H725 H 0.42487 0.56163 0.37351 0.0
H726 H 0.45263 0.53764 0.38437 0.0
H727 H 0.47139 0.57508 0.36689 0.0
C728 C 0.13822 0.42277 0.82426 0.0
C729 C 0.11677 0.39287 0.81227 0.0
C730 C 0.12815 0.43859 0.85082 0.0
C731 C 0.09574 0.4243 0.86557 0.0
C732 C 0.07417 0.39404 0.85371 0.0
C733 C 0.08498 0.37868 0.82736 0.0
C734 C 0.15198 0.47073 0.86291 0.0
C735 C 0.03927 0.37808 0.86855 0.0
C736 C 0.07655 0.45012 0.94847 0.0
C737 C 0.05507 0.47005 0.94364 0.0
C738 C 0.09091 0.43583 0.92331 0.0
C739 C 0.08343 0.44142 0.8926 0.0
C740 C 0.06234 0.462 0.88763 0.0
C741 C 0.04854 0.47611 0.91315 0.0
C742 C 0.11347 0.41421 0.92958 0.0
C743 C 0.05349 0.46841 0.85528 0.0
H744 H 0.16289 0.43387 0.81289 0.0
H745 H 0.06814 0.35561 0.81835 0.0
H746 H 0.13815 0.48945 0.8615 0.0
H747 H 0.1584 0.47002 0.8877 0.0
H748 H 0.17703 0.47792 0.84971 0.0
H749 H 0.02597 0.35417 0.85694 0.0
H750 H 0.04335 0.37506 0.89336 0.0
H751 H 0.02135 0.3935 0.86763 0.0
H752 H 0.08186 0.44536 0.97191 0.0
H753 H 0.03204 0.49148 0.9091 0.0
H754 H 0.13917 0.42218 0.91751 0.0
H755 H 0.10017 0.38935 0.92029 0.0
H756 H 0.11857 0.41385 0.95474 0.0
H757 H 0.07805 0.47759 0.84189 0.0
H758 H 0.03802 0.48606 0.85537 0.0
H759 H 0.03792 0.44569 0.8429 0.0
C760 C 0.61755 0.86954 0.94366 0.0
C761 C 0.64456 0.88533 0.92399 0.0
C762 C 0.60215 0.88683 0.96545 0.0
C763 C 0.61411 0.92077 0.96775 0.0
C764 C 0.64171 0.93688 0.94831 0.0
C765 C 0.65657 0.91898 0.92662 0.0
C766 C 0.5727 0.86876 0.98569 0.0
C767 C 0.65522 0.97306 0.95017 0.0
C768 C 0.55086 0.96561 1.00108 0.0
C769 C 0.56322 0.97389 0.0317 0.0
C770 C 0.56725 0.94844 0.98007 0.0
C771 C 0.59685 0.93937 0.9898 0.0
C772 C 0.60953 0.94763 0.02063 0.0
C773 C 0.59252 0.96473 0.04124 0.0
C774 C 0.55279 0.93991 0.94744 0.0
C775 C 0.64107 0.9384 0.03183 0.0
H776 H 0.60808 0.84356 0.94185 0.0
H777 H 0.67749 0.93138 0.91159 0.0
H778 H 0.57961 0.87553 0.01052 0.0
H779 H 0.54818 0.87534 0.98115 0.0
H780 H 0.56711 0.84233 0.98161 0.0
H781 H 0.67766 0.9819 0.93421 0.0
H782 H 0.63362 0.98329 0.94428 0.0
H783 H 0.66393 0.98228 0.97419 0.0
H784 H 0.52821 0.97248 0.99344 0.0
H785 H 0.60237 0.97109 0.06479 0.0
H786 H 0.5447 0.91347 0.94261 0.0
H787 H 0.57362 0.95016 0.93049 0.0
H788 H 0.52967 0.94887 0.94349 0.0
H789 H 0.63563 0.91192 0.0296 0.0
H790 H 0.64791 0.94697 0.05639 0.0
H791 H 0.66436 0.94855 0.0172 0.0
C792 C 0.96104 0.19465 0.41308 0.0
C793 C 0.94619 0.20944 0.43742 0.0
C794 C 0.9718 0.16721 0.41748 0.0
C795 C 0.96852 0.15485 0.44714 0.0
C796 C 0.95496 0.17056 0.47211 0.0
C797 C 0.94343 0.19737 0.46682 0.0
C798 C 0.98542 0.15075 0.39017 0.0
C799 C 0.95198 0.15868 0.50431 0.0
C800 C 0.95793 0.06719 0.45878 0.0
C801 C 0.9919 0.06817 0.46848 0.0
C802 C 0.95052 0.09496 0.44993 0.0
C803 C 0.97747 0.12457 0.45189 0.0
C804 C 0.01218 0.12542 0.46062 0.0
C805 C 0.01908 0.09705 0.46842 0.0
C806 C 0.91341 0.09285 0.4399 0.0
C807 C 0.04142 0.15658 0.46386 0.0
H808 H 0.96294 0.20379 0.39024 0.0
H809 H 0.93219 0.2089 0.48572 0.0
H810 H 0.01171 0.14804 0.39564 0.0
H811 H 0.9673 0.12627 0.38522 0.0
H812 H 0.98767 0.16411 0.36892 0.0
H813 H 0.94362 0.17508 0.52166 0.0
H814 H 0.93244 0.13464 0.50423 0.0
H815 H 0.97774 0.15608 0.51177 0.0
H816 H 0.93691 0.04485 0.45896 0.0
H817 H 0.04522 0.09794 0.47655 0.0
H818 H 0.91393 0.10501 0.41812 0.0
H819 H 0.90085 0.10532 0.45792 0.0
H820 H 0.89671 0.06761 0.43616 0.0
H821 H 0.04276 0.17025 0.44298 0.0
H822 H 0.06763 0.15268 0.46756 0.0
H823 H 0.03586 0.17168 0.48395 0.0
C824 C 0.25467 0.61786 0.13575 0.0
C825 C 0.25087 0.64504 0.15326 0.0
C826 C 0.22743 0.59917 0.11593 0.0
C827 C 0.19551 0.60764 0.11388 0.0
C828 C 0.19153 0.63497 0.13161 0.0
C829 C 0.21927 0.65339 0.1509 0.0
C830 C 0.23278 0.57037 0.0972 0.0
C831 C 0.15774 0.64458 0.13048 0.0
C832 C 0.13075 0.57728 0.04644 0.0
C833 C 0.1048 0.55255 0.05951 0.0
C834 C 0.16118 0.59465 0.06342 0.0
C835 C 0.16555 0.58733 0.09428 0.0
C836 C 0.13995 0.56181 0.10723 0.0
C837 C 0.11008 0.54468 0.08968 0.0
C838 C 0.18814 0.62144 0.04867 0.0
C839 C 0.14338 0.55337 0.14011 0.0
H840 H 0.27908 0.61136 0.13725 0.0
H841 H 0.21604 0.6743 0.16436 0.0
H842 H 0.21295 0.54822 0.10391 0.0
H843 H 0.22872 0.57246 0.07218 0.0
H844 H 0.2596 0.56768 0.10051 0.0
H845 H 0.15898 0.66667 0.14546 0.0
H846 H 0.15209 0.64876 0.10633 0.0
H847 H 0.13524 0.62487 0.1381 0.0
H848 H 0.12706 0.58347 0.02314 0.0
H849 H 0.09031 0.52561 0.1001 0.0
H850 H 0.21497 0.61853 0.05097 0.0
H851 H 0.18844 0.64479 0.06084 0.0
H852 H 0.18247 0.62232 0.02371 0.0
H853 H 0.16933 0.54897 0.14356 0.0
H854 H 0.12217 0.53176 0.14617 0.0
H855 H 0.14218 0.5738 0.15651 0.0
C856 C 0.29287 0.42119 0.67544 0.0
C857 C 0.25845 0.42284 0.67027 0.0
C858 C 0.32146 0.43823 0.65794 0.0
C859 C 0.31563 0.45751 0.63469 0.0
C860 C 0.28105 0.4596 0.62958 0.0
C861 C 0.25288 0.44222 0.64739 0.0
C862 C 0.35793 0.43535 0.66415 0.0
C863 C 0.27377 0.48001 0.60514 0.0
C864 C 0.39684 0.52158 0.60952 0.0
C865 C 0.40703 0.50644 0.58269 0.0
C866 C 0.36649 0.50641 0.62607 0.0
C867 C 0.34583 0.47524 0.61568 0.0
C868 C 0.3552 0.4603 0.58799 0.0
C869 C 0.38561 0.47611 0.57178 0.0
C870 C 0.35725 0.52333 0.6553 0.0
C871 C 0.33387 0.42709 0.5761 0.0
H872 H 0.29748 0.4063 0.69303 0.0
H873 H 0.22641 0.44367 0.64321 0.0
H874 H 0.36831 0.42555 0.64285 0.0
H875 H 0.37632 0.45941 0.67042 0.0
H876 H 0.35809 0.41953 0.68316 0.0
H877 H 0.24553 0.47958 0.60442 0.0
H878 H 0.29015 0.50523 0.60961 0.0
H879 H 0.28123 0.47141 0.58198 0.0
H880 H 0.41301 0.54513 0.61804 0.0
H881 H 0.39321 0.46417 0.55111 0.0
H882 H 0.3602 0.51012 0.67563 0.0
H883 H 0.32928 0.52361 0.65447 0.0
H884 H 0.37436 0.54844 0.65892 0.0
H885 H 0.33546 0.40948 0.59293 0.0
H886 H 0.34332 0.41963 0.55324 0.0
H887 H 0.30561 0.42607 0.57386 0.0
C888 C 0.77102 0.66631 0.85306 0.0
C889 C 0.75514 0.68672 0.87057 0.0
C890 C 0.79823 0.65616 0.8656 0.0
C891 C 0.80953 0.66634 0.89653 0.0
C892 C 0.79299 0.68627 0.9146 0.0
C893 C 0.76614 0.69641 0.90133 0.0
C894 C 0.81546 0.63515 0.84551 0.0
C895 C 0.80401 0.69724 0.9478 0.0
C896 C 0.86181 0.61868 0.93521 0.0
C897 C 0.89667 0.63802 0.93203 0.0
C898 C 0.83311 0.6279 0.92434 0.0
C899 C 0.83944 0.65695 0.90957 0.0
C900 C 0.87449 0.6767 0.9065 0.0
C901 C 0.90264 0.6671 0.91793 0.0
C902 C 0.79608 0.60631 0.92823 0.0
C903 C 0.8823 0.70778 0.89071 0.0
H904 H 0.76274 0.65881 0.82924 0.0
H905 H 0.75385 0.71205 0.91504 0.0
H906 H 0.84392 0.64774 0.84268 0.0
H907 H 0.81379 0.61271 0.85681 0.0
H908 H 0.80306 0.62875 0.82215 0.0
H909 H 0.78737 0.71141 0.95916 0.0
H910 H 0.80232 0.67619 0.96139 0.0
H911 H 0.83194 0.71222 0.94863 0.0
H912 H 0.85692 0.59593 0.94562 0.0
H913 H 0.92941 0.68244 0.91581 0.0
H914 H 0.78387 0.59746 0.90515 0.0
H915 H 0.77946 0.61998 0.94038 0.0
H916 H 0.79556 0.58529 0.94154 0.0
H917 H 0.87237 0.70292 0.86645 0.0
H918 H 0.91101 0.7205 0.89039 0.0
H919 H 0.86834 0.72394 0.9027 0.0
C920 C 0.39629 0.81028 0.20292 0.0
C921 C 0.42041 0.794 0.21115 0.0
C922 C 0.4077 0.84044 0.19049 0.0
C923 C 0.44418 0.85452 0.18538 0.0
C924 C 0.46882 0.83867 0.19452 0.0
C925 C 0.45667 0.80875 0.20763 0.0
C926 C 0.38053 0.85676 0.1819 0.0
C927 C 0.50789 0.85258 0.18909 0.0
C928 C 0.46666 0.91298 0.12131 0.0
C929 C 0.47647 0.94283 0.1383 0.0
C930 C 0.45691 0.88413 0.13634 0.0
C931 C 0.45617 0.88505 0.16921 0.0
C932 C 0.46569 0.91515 0.18647 0.0
C933 C 0.47606 0.9436 0.17084 0.0
C934 C 0.44748 0.8526 0.117 0.0
C935 C 0.46449 0.91732 0.22146 0.0
H936 H 0.36822 0.79908 0.20568 0.0
H937 H 0.47541 0.79614 0.21358 0.0
H938 H 0.38775 0.88183 0.19223 0.0
H939 H 0.37986 0.8578 0.15636 0.0
H940 H 0.35358 0.84402 0.18977 0.0
H941 H 0.52377 0.83825 0.19894 0.0
H942 H 0.51296 0.85347 0.16381 0.0
H943 H 0.51713 0.87756 0.19951 0.0
H944 H 0.46723 0.91212 0.09619 0.0
H945 H 0.48347 0.96655 0.1842 0.0
H946 H 0.41959 0.83909 0.12115 0.0
H947 H 0.46421 0.83763 0.12391 0.0
H948 H 0.45094 0.85592 0.09179 0.0
H949 H 0.43726 0.90566 0.22932 0.0
H950 H 0.4728 0.94253 0.2315 0.0
H951 H 0.48196 0.90426 0.23085 0.0
C952 C 0.09544 0.2109 0.67262 0.0
C953 C 0.07122 0.22905 0.67369 0.0
C954 C 0.08824 0.18127 0.6552 0.0
C955 C 0.05621 0.16963 0.6382 0.0
C956 C 0.03169 0.18785 0.63912 0.0
C957 C 0.03942 0.21725 0.65695 0.0
C958 C 0.11499 0.16248 0.65487 0.0
C959 C 0.99743 0.17643 0.62102 0.0
C960 C 0.05388 0.11009 0.56922 0.0
C961 C 0.03559 0.08082 0.58116 0.0
C962 C 0.06048 0.1391 0.58745 0.0
C963 C 0.04889 0.13892 0.61858 0.0
C964 C 0.03038 0.10948 0.63084 0.0
C965 C 0.02372 0.08076 0.61189 0.0
C966 C 0.07979 0.16998 0.57331 0.0
C967 C 0.01777 0.10833 0.66398 0.0
H968 H 0.11999 0.21973 0.6856 0.0
H969 H 0.02056 0.23111 0.65758 0.0
H970 H 0.10245 0.13807 0.66256 0.0
H971 H 0.12457 0.15956 0.63089 0.0
H972 H 0.1381 0.17434 0.67011 0.0
H973 H 0.98095 0.19319 0.62455 0.0
H974 H 0.00303 0.1738 0.59589 0.0
H975 H 0.98193 0.15247 0.628 0.0
H976 H 0.06276 0.11044 0.54535 0.0
H977 H 0.00958 0.05825 0.62125 0.0
H978 H 0.10464 0.18174 0.58633 0.0
H979 H 0.06339 0.18687 0.575 0.0
H980 H 0.08638 0.16605 0.54854 0.0
H981 H 0.04057 0.11836 0.67999 0.0
H982 H 0.00392 0.08353 0.67003 0.0
H983 H 0.99953 0.1234 0.66794 0.0
C984 C 0.73726 0.32477 0.44988 0.0
C985 C 0.77119 0.34607 0.44718 0.0
C986 C 0.70826 0.33597 0.45841 0.0
C987 C 0.71324 0.36932 0.46438 0.0
C988 C 0.74764 0.39086 0.46296 0.0
C989 C 0.77624 0.37897 0.45441 0.0
C990 C 0.67204 0.3122 0.45983 0.0
C991 C 0.754 0.42657 0.46927 0.0
C992 C 0.63429 0.39989 0.45023 0.0
C993 C 0.62183 0.40364 0.48041 0.0
C994 C 0.66417 0.38903 0.44478 0.0
C995 C 0.6821 0.3817 0.47012 0.0
C996 C 0.66977 0.38552 0.50066 0.0
C997 C 0.6398 0.39647 0.50545 0.0
C998 C 0.67656 0.38538 0.41186 0.0
C999 C 0.68809 0.37782 0.52824 0.0
H1000 H 0.7331 0.29929 0.44452 0.0
H1001 H 0.80235 0.3956 0.45242 0.0
H1002 H 0.65941 0.31565 0.48239 0.0
H1003 H 0.65491 0.31632 0.44139 0.0
H1004 H 0.67301 0.28695 0.45672 0.0
H1005 H 0.78258 0.43985 0.46949 0.0
H1006 H 0.74068 0.43584 0.45117 0.0
H1007 H 0.74246 0.43178 0.4919 0.0
H1008 H 0.62092 0.40593 0.43083 0.0
H1009 H 0.63014 0.39906 0.52881 0.0
H1010 H 0.67604 0.36007 0.40589 0.0
H1011 H 0.70428 0.40033 0.40957 0.0
H1012 H 0.65994 0.39248 0.39478 0.0
H1013 H 0.68741 0.35213 0.52614 0.0
H1014 H 0.67568 0.38278 0.55055 0.0
H1015 H 0.71629 0.39211 0.52885 0.0
loop_
_geom_bond_atom_site_label_1
_geom_bond_atom_site_label_2
_geom_bond_distance
_geom_bond_site_symmetry_2
_ccdc_geom_bond_type
O0 Cd1 2.300 . S
O0 C7 1.275 . S
Cd1 O0 2.300 . S
Cd1 O9 2.381 . S
Cd1 O10 2.378 . S
O2 Cd3 2.385 . S
O2 C7 1.255 . S
Cd3 O2 2.385 . S
Cd3 O4 2.317 . S
O4 Cd3 2.317 . S
O4 C5 1.232 . S
C5 O4 1.232 . S
C5 O6 1.218 . S
O6 C5 1.218 . S
C7 O0 1.275 . S
C7 O2 1.255 . S
C8 O9 1.258 . S
C8 O10 1.256 . S
O9 Cd1 2.381 . S
O9 C8 1.258 . S
O10 Cd1 2.378 . S
O10 C8 1.256 . S
O11 Cd12 2.300 . S
O11 C18 1.275 . S
Cd12 O11 2.300 . S
Cd12 O20 2.381 . S
Cd12 O21 2.378 . S
O13 Cd14 2.385 . S
O13 C18 1.255 . S
Cd14 O13 2.385 . S
Cd14 O15 2.317 . S
O15 Cd14 2.317 . S
O15 C16 1.232 . S
C16 O15 1.232 . S
C16 O17 1.218 . S
O17 C16 1.218 . S
C18 O11 1.275 . S
C18 O13 1.255 . S
C19 O20 1.258 . S
C19 O21 1.256 . S
O20 Cd12 2.381 . S
O20 C19 1.258 . S
O21 Cd12 2.378 . S
O21 C19 1.256 . S
O22 Cd23 2.300 . S
O22 C29 1.275 . S
Cd23 O22 2.300 . S
Cd23 O31 2.381 . S
Cd23 O32 2.378 . S
O24 Cd25 2.385 . S
O24 C29 1.255 . S
Cd25 O24 2.385 . S
Cd25 O26 2.317 . S
O26 Cd25 2.317 . S
O26 C27 1.232 . S
C27 O26 1.232 . S
C27 O28 1.218 . S
O28 C27 1.218 . S
C29 O22 1.275 . S
C29 O24 1.255 . S
C30 O31 1.258 . S
C30 O32 1.256 . S
O31 Cd23 2.381 . S
O31 C30 1.258 . S
O32 Cd23 2.378 . S
O32 C30 1.256 . S
O33 Cd34 2.300 . S
O33 C40 1.275 . S
Cd34 O33 2.300 . S
Cd34 O42 2.381 . S
Cd34 O43 2.378 . S
O35 Cd36 2.385 . S
O35 C40 1.255 . S
Cd36 O35 2.385 . S
Cd36 O37 2.317 . S
O37 Cd36 2.317 . S
O37 C38 1.232 . S
C38 O37 1.232 . S
C38 O39 1.218 . S
O39 C38 1.218 . S
C40 O33 1.275 . S
C40 O35 1.255 . S
C41 O42 1.258 . S
C41 O43 1.256 . S
O42 Cd34 2.381 . S
O42 C41 1.258 . S
O43 Cd34 2.378 . S
O43 C41 1.256 . S
O44 Cd45 2.300 . S
O44 C51 1.275 . S
Cd45 O44 2.300 . S
Cd45 O53 2.381 . S
Cd45 O54 2.378 . S
O46 Cd47 2.385 . S
O46 C51 1.255 . S
Cd47 O46 2.385 . S
Cd47 O48 2.317 . S
O48 Cd47 2.317 . S
O48 C49 1.232 . S
C49 O48 1.232 . S
C49 O50 1.218 . S
O50 C49 1.218 . S
C51 O44 1.275 . S
C51 O46 1.255 . S
C52 O53 1.258 . S
C52 O54 1.256 . S
O53 Cd45 2.381 . S
O53 C52 1.258 . S
O54 Cd45 2.378 . S
O54 C52 1.256 . S
O55 Cd56 2.300 . S
O55 C62 1.275 . S
Cd56 O55 2.300 . S
Cd56 O64 2.381 . S
Cd56 O65 2.378 . S
O57 Cd58 2.385 . S
O57 C62 1.255 . S
Cd58 O57 2.385 . S
Cd58 O59 2.317 . S
O59 Cd58 2.317 . S
O59 C60 1.232 . S
C60 O59 1.232 . S
C60 O61 1.218 . S
O61 C60 1.218 . S
C62 O55 1.275 . S
C62 O57 1.255 . S
C63 O64 1.258 . S
C63 O65 1.256 . S
O64 Cd56 2.381 . S
O64 C63 1.258 . S
O65 Cd56 2.378 . S
O65 C63 1.256 . S
O66 Cd67 2.300 . S
O66 C73 1.275 . S
Cd67 O66 2.300 . S
Cd67 O75 2.381 . S
Cd67 O76 2.378 . S
O68 Cd69 2.385 . S
O68 C73 1.255 . S
Cd69 O68 2.385 . S
Cd69 O70 2.317 . S
O70 Cd69 2.317 . S
O70 C71 1.232 . S
C71 O70 1.232 . S
C71 O72 1.218 . S
O72 C71 1.218 . S
C73 O66 1.275 . S
C73 O68 1.255 . S
C74 O75 1.258 . S
C74 O76 1.256 . S
O75 Cd67 2.381 . S
O75 C74 1.258 . S
O76 Cd67 2.378 . S
O76 C74 1.256 . S
O77 Cd78 2.300 . S
O77 C84 1.275 . S
Cd78 O77 2.300 . S
Cd78 O86 2.381 . S
Cd78 O87 2.378 . S
O79 Cd80 2.385 . S
O79 C84 1.255 . S
Cd80 O79 2.385 . S
Cd80 O81 2.317 . S
O81 Cd80 2.317 . S
O81 C82 1.232 . S
C82 O81 1.232 . S
C82 O83 1.218 . S
O83 C82 1.218 . S
C84 O77 1.275 . S
C84 O79 1.255 . S
C85 O86 1.258 . S
C85 O87 1.256 . S
O86 Cd78 2.381 . S
O86 C85 1.258 . S
O87 Cd78 2.378 . S
O87 C85 1.256 . S
Dy88 O91 2.307 1_545 S
Dy88 O93 2.395 . S
Dy88 O94 2.379 . S
Dy88 O96 2.339 1_545 S
Dy88 O98 2.298 . S
Dy88 O102 2.275 . S
Dy88 C110 2.738 . S
Dy89 O92 2.298 1_645 S
Dy89 O95 2.275 1_545 S
Dy89 O97 2.307 . S
Dy89 O99 2.395 1_545 S
Dy89 O100 2.379 1_545 S
Dy89 O103 2.339 . S
Dy89 C119 2.738 1_545 S
C90 O102 1.254 . S
C90 O103 1.257 1_455 S
O91 Dy88 2.307 1_565 S
O91 C101 1.266 . S
O92 Dy89 2.298 1_465 S
O92 C101 1.236 . S
O93 Dy88 2.395 . S
O93 C110 1.255 . S
O94 Dy88 2.379 . S
O94 C110 1.249 . S
O95 Dy89 2.275 1_565 S
O95 C111 1.254 . S
O96 Dy88 2.339 1_565 S
O96 C111 1.257 1_455 S
O97 Dy89 2.307 . S
O97 C112 1.266 . S
O98 Dy88 2.298 . S
O98 C112 1.236 1_455 S
O99 Dy89 2.395 1_565 S
O99 C119 1.255 . S
O100 Dy89 2.379 1_565 S
O100 C119 1.249 . S
C101 O91 1.266 . S
C101 O92 1.236 . S
O102 Dy88 2.275 . S
O102 C90 1.254 . S
O103 Dy89 2.339 . S
O103 C90 1.257 1_655 S
C104 C107 1.344 . S
C104 C108 1.328 . S
C104 C110 1.516 . S
C105 C106 1.304 . S
C105 C109 1.323 . S
C106 C105 1.304 . S
C106 C107 1.371 . S
C106 H120 0.930 . S
C107 C104 1.344 . S
C107 C106 1.371 . S
C107 H121 0.931 . S
C108 C104 1.328 . S
C108 C109 1.433 . S
C108 H122 0.931 . S
C109 C105 1.323 . S
C109 C108 1.433 . S
C109 H123 0.933 . S
C110 Dy88 2.738 . S
C110 O93 1.255 . S
C110 O94 1.249 . S
C110 C104 1.516 . S
C111 O95 1.254 . S
C111 O96 1.257 1_655 S
C112 O97 1.266 . S
C112 O98 1.236 1_655 S
C113 C116 1.344 . S
C113 C117 1.328 . S
C113 C119 1.516 . S
C114 C115 1.304 . S
C114 C118 1.323 . S
C115 C114 1.304 . S
C115 C116 1.371 . S
C115 H124 0.930 . S
C116 C113 1.344 . S
C116 C115 1.371 . S
C116 H125 0.931 . S
C117 C113 1.328 . S
C117 C118 1.433 . S
C117 H126 0.931 . S
C118 C114 1.323 . S
C118 C117 1.433 . S
C118 H127 0.933 . S
C119 Dy89 2.738 1_565 S
C119 O99 1.255 . S
C119 O100 1.249 . S
C119 C113 1.516 . S
H120 C106 0.930 . S
H121 C107 0.931 . S
H122 C108 0.931 . S
H123 C109 0.933 . S
H124 C115 0.930 . S
H125 C116 0.931 . S
H126 C117 0.931 . S
H127 C118 0.933 . S
Dy128 O131 2.307 . S
Dy128 O133 2.395 1_545 S
Dy128 O134 2.379 1_554 S
Dy128 O136 2.339 . S
Dy128 O138 2.298 . S
Dy128 O142 2.275 1_545 S
Dy128 C150 2.738 1_544 S
Dy129 O132 2.298 . S
Dy129 O135 2.275 . S
Dy129 O137 2.307 . S
Dy129 O139 2.395 . S
Dy129 O140 2.379 . S
Dy129 O143 2.339 1_545 S
Dy129 C159 2.738 . S
C130 O142 1.254 . S
C130 O143 1.257 . S
O131 Dy128 2.307 . S
O131 C141 1.266 . S
O132 Dy129 2.298 . S
O132 C141 1.236 . S
O133 Dy128 2.395 1_565 S
O133 C150 1.255 1_554 S
O134 Dy128 2.379 1_556 S
O134 C150 1.249 1_545 S
O135 Dy129 2.275 . S
O135 C151 1.254 . S
O136 Dy128 2.339 . S
O136 C151 1.257 . S
O137 Dy129 2.307 . S
O137 C152 1.266 1_545 S
O138 Dy128 2.298 . S
O138 C152 1.236 1_545 S
O139 Dy129 2.395 . S
O139 C159 1.255 . S
O140 Dy129 2.379 . S
O140 C159 1.249 . S
C141 O131 1.266 . S
C141 O132 1.236 . S
O142 Dy128 2.275 1_565 S
O142 C130 1.254 . S
O143 Dy129 2.339 1_565 S
O143 C130 1.257 . S
C144 C147 1.344 . S
C144 C148 1.328 . S
C144 C150 1.516 . S
C145 C146 1.304 . S
C145 C149 1.323 . S
C146 C145 1.304 . S
C146 C147 1.371 . S
C146 H160 0.930 . S
C147 C144 1.344 . S
C147 C146 1.371 . S
C147 H161 0.931 . S
C148 C144 1.328 . S
C148 C149 1.433 . S
C148 H162 0.931 . S
C149 C145 1.323 . S
C149 C148 1.433 . S
C149 H163 0.933 . S
C150 Dy128 2.738 1_566 S
C150 O133 1.255 1_556 S
C150 O134 1.249 1_565 S
C150 C144 1.516 . S
C151 O135 1.254 . S
C151 O136 1.257 . S
C152 O137 1.266 1_565 S
C152 O138 1.236 1_565 S
C153 C156 1.344 . S
C153 C157 1.328 . S
C153 C159 1.516 . S
C154 C155 1.304 . S
C154 C158 1.323 . S
C155 C154 1.304 . S
C155 C156 1.371 . S
C155 H164 0.930 . S
C156 C153 1.344 . S
C156 C155 1.371 . S
C156 H165 0.931 . S
C157 C153 1.328 . S
C157 C158 1.433 . S
C157 H166 0.931 . S
C158 C154 1.323 . S
C158 C157 1.433 . S
C158 H167 0.933 . S
C159 Dy129 2.738 . S
C159 O139 1.255 . S
C159 O140 1.249 . S
C159 C153 1.516 . S
H160 C146 0.930 . S
H161 C147 0.931 . S
H162 C148 0.931 . S
H163 C149 0.933 . S
H164 C155 0.930 . S
H165 C156 0.931 . S
H166 C157 0.931 . S
H167 C158 0.933 . S
Dy168 O171 2.307 . S
Dy168 O173 2.395 . S
Dy168 O174 2.379 . S
Dy168 O176 2.339 . S
Dy168 O178 2.298 . S
Dy168 O182 2.275 . S
Dy168 C190 2.738 . S
Dy169 O172 2.298 . S
Dy169 O175 2.275 . S
Dy169 O177 2.307 . S
Dy169 O179 2.395 . S
Dy169 O180 2.379 . S
Dy169 O183 2.339 . S
Dy169 C199 2.738 . S
C170 O182 1.254 . S
C170 O183 1.257 . S
O171 Dy168 2.307 . S
O171 C181 1.266 . S
O172 Dy169 2.298 . S
O172 C181 1.236 . S
O173 Dy168 2.395 . S
O173 C190 1.255 . S
O174 Dy168 2.379 . S
O174 C190 1.249 . S
O175 Dy169 2.275 . S
O175 C191 1.254 . S
O176 Dy168 2.339 . S
O176 C191 1.257 . S
O177 Dy169 2.307 . S
O177 C192 1.266 . S
O178 Dy168 2.298 . S
O178 C192 1.236 . S
O179 Dy169 2.395 . S
O179 C199 1.255 . S
O180 Dy169 2.379 . S
O180 C199 1.249 . S
C181 O171 1.266 . S
C181 O172 1.236 . S
O182 Dy168 2.275 . S
O182 C170 1.254 . S
O183 Dy169 2.339 . S
O183 C170 1.257 . S
C184 C187 1.344 . S
C184 C188 1.328 . S
C184 C190 1.516 . S
C185 C186 1.304 . S
C185 C189 1.323 . S
C186 C185 1.304 . S
C186 C187 1.371 . S
C186 H200 0.930 . S
C187 C184 1.344 . S
C187 C186 1.371 . S
C187 H201 0.931 . S
C188 C184 1.328 . S
C188 C189 1.433 . S
C188 H202 0.931 . S
C189 C185 1.323 . S
C189 C188 1.433 . S
C189 H203 0.933 . S
C190 Dy168 2.738 . S
C190 O173 1.255 . S
C190 O174 1.249 . S
C190 C184 1.516 . S
C191 O175 1.254 . S
C191 O176 1.257 . S
C192 O177 1.266 . S
C192 O178 1.236 . S
C193 C196 1.344 . S
C193 C197 1.328 . S
C193 C199 1.516 . S
C194 C195 1.304 . S
C194 C198 1.323 . S
C195 C194 1.304 . S
C195 C196 1.371 . S
C195 H204 0.930 . S
C196 C193 1.344 . S
C196 C195 1.371 . S
C196 H205 0.931 . S
C197 C193 1.328 . S
C197 C198 1.433 . S
C197 H206 0.931 . S
C198 C194 1.323 . S
C198 C197 1.433 . S
C198 H207 0.933 . S
C199 Dy169 2.738 . S
C199 O179 1.255 . S
C199 O180 1.249 . S
C199 C193 1.516 . S
H200 C186 0.930 . S
H201 C187 0.931 . S
H202 C188 0.931 . S
H203 C189 0.933 . S
H204 C195 0.930 . S
H205 C196 0.931 . S
H206 C197 0.931 . S
H207 C198 0.933 . S
Dy208 O211 2.307 1_556 S
Dy208 O213 2.395 1_455 S
Dy208 O214 2.380 1_455 S
Dy208 O216 2.339 . S
Dy208 O218 2.298 1_455 S
Dy208 O222 2.275 1_556 S
Dy208 C230 2.738 1_455 S
Dy209 O212 2.298 . S
Dy209 O215 2.275 1_554 S
Dy209 O217 2.307 1_455 S
Dy209 O219 2.395 . S
Dy209 O220 2.379 . S
Dy209 O223 2.339 1_455 S
Dy209 C239 2.738 . S
C210 O222 1.254 1_655 S
C210 O223 1.257 . S
O211 Dy208 2.307 1_554 S
O211 C221 1.266 . S
O212 Dy209 2.298 . S
O212 C221 1.236 . S
O213 Dy208 2.395 1_655 S
O213 C230 1.255 . S
O214 Dy208 2.380 1_655 S
O214 C230 1.247 . S
O215 Dy209 2.275 1_556 S
O215 C231 1.254 . S
O216 Dy208 2.339 . S
O216 C231 1.257 . S
O217 Dy209 2.307 1_655 S
O217 C232 1.266 1_554 S
O218 Dy208 2.298 1_655 S
O218 C232 1.236 . S
O219 Dy209 2.395 . S
O219 C239 1.255 . S
O220 Dy209 2.379 . S
O220 C239 1.249 . S
C221 O211 1.266 . S
C221 O212 1.236 . S
O222 Dy208 2.275 1_554 S
O222 C210 1.254 1_455 S
O223 Dy209 2.339 1_655 S
O223 C210 1.257 . S
C224 C227 1.344 . S
C224 C228 1.328 . S
C224 C230 1.516 . S
C225 C226 1.304 . S
C225 C229 1.323 . S
C226 C225 1.304 . S
C226 C227 1.371 . S
C226 H240 0.930 . S
C227 C224 1.344 . S
C227 C226 1.371 . S
C227 H241 0.931 . S
C228 C224 1.328 . S
C228 C229 1.433 . S
C228 H242 0.931 . S
C229 C225 1.323 . S
C229 C228 1.433 . S
C229 H243 0.933 . S
C230 Dy208 2.738 1_655 S
C230 O213 1.255 . S
C230 O214 1.247 . S
C230 C224 1.516 . S
C231 O215 1.254 . S
C231 O216 1.257 . S
C232 O217 1.266 1_556 S
C232 O218 1.236 . S
C233 C236 1.344 . S
C233 C237 1.328 . S
C233 C239 1.516 . S
C234 C235 1.304 . S
C234 C238 1.323 . S
C235 C234 1.304 . S
C235 C236 1.371 . S
C235 H244 0.930 . S
C236 C233 1.344 . S
C236 C235 1.371 . S
C236 H245 0.931 . S
C237 C233 1.328 . S
C237 C238 1.433 . S
C237 H246 0.931 . S
C238 C234 1.323 . S
C238 C237 1.433 . S
C238 H247 0.933 . S
C239 Dy209 2.738 . S
C239 O219 1.255 . S
C239 O220 1.249 . S
C239 C233 1.516 . S
H240 C226 0.930 . S
H241 C227 0.931 . S
H242 C228 0.931 . S
H243 C229 0.933 . S
H244 C235 0.930 . S
H245 C236 0.931 . S
H246 C237 0.931 . S
H247 C238 0.933 . S
C248 C249 1.391 . S
C248 C250 1.394 . S
C248 H264 0.931 . S
C249 C248 1.391 . S
C249 C253 1.376 . S
C250 C248 1.394 . S
C250 C251 1.369 . S
C250 C254 1.531 . S
C251 C250 1.369 . S
C251 C252 1.410 . S
C251 C259 1.503 . S
C252 C251 1.410 . S
C252 C253 1.392 . S
C252 C255 1.511 . S
C253 C249 1.376 . S
C253 C252 1.392 . S
C253 H265 0.929 . S
C254 C250 1.531 . S
C254 H266 0.960 . S
C254 H267 0.962 . S
C254 H268 0.960 . S
C255 C252 1.511 . S
C255 H269 0.961 . S
C255 H270 0.961 . S
C255 H271 0.961 . S
C256 C257 1.370 . S
C256 C258 1.363 . S
C256 H272 0.931 . S
C257 C256 1.370 . S
C257 C261 1.408 . S
C258 C256 1.363 . S
C258 C259 1.370 . S
C258 C262 1.524 . S
C259 C251 1.503 . S
C259 C258 1.370 . S
C259 C260 1.403 . S
C260 C259 1.403 . S
C260 C261 1.404 . S
C260 C263 1.539 . S
C261 C257 1.408 . S
C261 C260 1.404 . S
C261 H273 0.930 . S
C262 C258 1.524 . S
C262 H274 0.956 . S
C262 H275 0.961 . S
C262 H276 0.961 . S
C263 C260 1.539 . S
C263 H277 0.958 . S
C263 H278 0.961 . S
C263 H279 0.960 . S
H264 C248 0.931 . S
H265 C253 0.929 . S
H266 C254 0.960 . S
H267 C254 0.962 . S
H268 C254 0.960 . S
H269 C255 0.961 . S
H270 C255 0.961 . S
H271 C255 0.961 . S
H272 C256 0.931 . S
H273 C261 0.930 . S
H274 C262 0.956 . S
H275 C262 0.961 . S
H276 C262 0.961 . S
H277 C263 0.958 . S
H278 C263 0.961 . S
H279 C263 0.960 . S
C280 C281 1.391 . S
C280 C282 1.394 . S
C280 H296 0.931 . S
C281 C280 1.391 . S
C281 C285 1.376 . S
C282 C280 1.394 . S
C282 C283 1.369 . S
C282 C286 1.531 . S
C283 C282 1.369 . S
C283 C284 1.410 . S
C283 C291 1.503 . S
C284 C283 1.410 . S
C284 C285 1.392 . S
C284 C287 1.511 . S
C285 C281 1.376 . S
C285 C284 1.392 . S
C285 H297 0.929 . S
C286 C282 1.531 . S
C286 H298 0.960 . S
C286 H299 0.962 . S
C286 H300 0.960 . S
C287 C284 1.511 . S
C287 H301 0.961 . S
C287 H302 0.961 . S
C287 H303 0.961 . S
C288 C289 1.370 . S
C288 C290 1.363 . S
C288 H304 0.931 . S
C289 C288 1.370 . S
C289 C293 1.408 . S
C290 C288 1.363 . S
C290 C291 1.370 . S
C290 C294 1.524 . S
C291 C283 1.503 . S
C291 C290 1.370 . S
C291 C292 1.403 . S
C292 C291 1.403 . S
C292 C293 1.404 . S
C292 C295 1.539 . S
C293 C289 1.408 . S
C293 C292 1.404 . S
C293 H305 0.930 . S
C294 C290 1.524 . S
C294 H306 0.956 . S
C294 H307 0.961 . S
C294 H308 0.961 . S
C295 C292 1.539 . S
C295 H309 0.958 . S
C295 H310 0.961 . S
C295 H311 0.960 . S
H296 C280 0.931 . S
H297 C285 0.929 . S
H298 C286 0.960 . S
H299 C286 0.962 . S
H300 C286 0.960 . S
H301 C287 0.961 . S
H302 C287 0.961 . S
H303 C287 0.961 . S
H304 C288 0.931 . S
H305 C293 0.930 . S
H306 C294 0.956 . S
H307 C294 0.961 . S
H308 C294 0.961 . S
H309 C295 0.958 . S
H310 C295 0.961 . S
H311 C295 0.960 . S
C312 C313 1.391 . S
C312 C314 1.394 . S
C312 H328 0.931 . S
C313 C312 1.391 . S
C313 C317 1.376 . S
C314 C312 1.394 . S
C314 C315 1.369 . S
C314 C318 1.531 . S
C315 C314 1.369 . S
C315 C316 1.410 . S
C315 C323 1.503 . S
C316 C315 1.410 . S
C316 C317 1.392 . S
C316 C319 1.511 . S
C317 C313 1.376 . S
C317 C316 1.392 . S
C317 H329 0.929 . S
C318 C314 1.531 . S
C318 H330 0.960 . S
C318 H331 0.962 . S
C318 H332 0.960 . S
C319 C316 1.511 . S
C319 H333 0.961 . S
C319 H334 0.961 . S
C319 H335 0.961 . S
C320 C321 1.370 . S
C320 C322 1.363 . S
C320 H336 0.931 . S
C321 C320 1.370 . S
C321 C325 1.408 . S
C322 C320 1.363 . S
C322 C323 1.370 . S
C322 C326 1.524 . S
C323 C315 1.503 . S
C323 C322 1.370 . S
C323 C324 1.403 . S
C324 C323 1.403 . S
C324 C325 1.404 . S
C324 C327 1.539 . S
C325 C321 1.408 . S
C325 C324 1.404 . S
C325 H337 0.930 . S
C326 C322 1.524 . S
C326 H338 0.956 . S
C326 H339 0.961 . S
C326 H340 0.961 . S
C327 C324 1.539 . S
C327 H341 0.958 . S
C327 H342 0.961 . S
C327 H343 0.960 . S
H328 C312 0.931 . S
H329 C317 0.929 . S
H330 C318 0.960 . S
H331 C318 0.962 . S
H332 C318 0.960 . S
H333 C319 0.961 . S
H334 C319 0.961 . S
H335 C319 0.961 . S
H336 C320 0.931 . S
H337 C325 0.930 . S
H338 C326 0.956 . S
H339 C326 0.961 . S
H340 C326 0.961 . S
H341 C327 0.958 . S
H342 C327 0.961 . S
H343 C327 0.960 . S
C344 C345 1.391 . S
C344 C346 1.394 . S
C344 H360 0.931 . S
C345 C344 1.391 . S
C345 C349 1.376 . S
C346 C344 1.394 . S
C346 C347 1.369 . S
C346 C350 1.531 1_655 S
C347 C346 1.369 . S
C347 C348 1.410 . S
C347 C355 1.503 . S
C348 C347 1.410 . S
C348 C349 1.392 . S
C348 C351 1.511 . S
C349 C345 1.376 . S
C349 C348 1.392 . S
C349 H361 0.929 . S
C350 C346 1.531 1_455 S
C350 H362 0.960 1_455 S
C350 H363 0.962 . S
C350 H364 0.960 . S
C351 C348 1.511 . S
C351 H365 0.961 . S
C351 H366 0.961 . S
C351 H367 0.961 . S
C352 C353 1.370 . S
C352 C354 1.363 . S
C352 H368 0.931 1_655 S
C353 C352 1.370 . S
C353 C357 1.408 . S
C354 C352 1.363 . S
C354 C355 1.370 . S
C354 C358 1.524 . S
C355 C347 1.503 . S
C355 C354 1.370 . S
C355 C356 1.403 . S
C356 C355 1.403 . S
C356 C357 1.404 . S
C356 C359 1.539 . S
C357 C353 1.408 . S
C357 C356 1.404 . S
C357 H369 0.930 . S
C358 C354 1.524 . S
C358 H370 0.956 1_655 S
C358 H371 0.961 . S
C358 H372 0.961 1_655 S
C359 C356 1.539 . S
C359 H373 0.958 . S
C359 H374 0.961 . S
C359 H375 0.960 . S
H360 C344 0.931 . S
H361 C349 0.929 . S
H362 C350 0.960 1_655 S
H363 C350 0.962 . S
H364 C350 0.960 . S
H365 C351 0.961 . S
H366 C351 0.961 . S
H367 C351 0.961 . S
H368 C352 0.931 1_455 S
H369 C357 0.930 . S
H370 C358 0.956 1_455 S
H371 C358 0.961 . S
H372 C358 0.961 1_455 S
H373 C359 0.958 . S
H374 C359 0.961 . S
H375 C359 0.960 . S
C376 C377 1.391 . S
C376 C378 1.394 . S
C376 H392 0.931 . S
C377 C376 1.391 . S
C377 C381 1.376 . S
C378 C376 1.394 . S
C378 C379 1.369 . S
C378 C382 1.531 . S
C379 C378 1.369 . S
C379 C380 1.410 . S
C379 C387 1.503 . S
C380 C379 1.410 . S
C380 C381 1.392 . S
C380 C383 1.511 . S
C381 C377 1.376 . S
C381 C380 1.392 . S
C381 H393 0.929 . S
C382 C378 1.531 . S
C382 H394 0.960 . S
C382 H395 0.962 . S
C382 H396 0.960 . S
C383 C380 1.511 . S
C383 H397 0.961 . S
C383 H398 0.961 . S
C383 H399 0.961 . S
C384 C385 1.370 . S
C384 C386 1.363 . S
C384 H400 0.931 . S
C385 C384 1.370 . S
C385 C389 1.408 . S
C386 C384 1.363 . S
C386 C387 1.370 . S
C386 C390 1.524 . S
C387 C379 1.503 . S
C387 C386 1.370 . S
C387 C388 1.403 . S
C388 C387 1.403 . S
C388 C389 1.404 . S
C388 C391 1.539 . S
C389 C385 1.408 . S
C389 C388 1.404 . S
C389 H401 0.930 . S
C390 C386 1.524 . S
C390 H402 0.956 . S
C390 H403 0.961 . S
C390 H404 0.961 . S
C391 C388 1.539 . S
C391 H405 0.958 . S
C391 H406 0.961 . S
C391 H407 0.960 . S
H392 C376 0.931 . S
H393 C381 0.929 . S
H394 C382 0.960 . S
H395 C382 0.962 . S
H396 C382 0.960 . S
H397 C383 0.961 . S
H398 C383 0.961 . S
H399 C383 0.961 . S
H400 C384 0.931 . S
H401 C389 0.930 . S
H402 C390 0.956 . S
H403 C390 0.961 . S
H404 C390 0.961 . S
H405 C391 0.958 . S
H406 C391 0.961 . S
H407 C391 0.960 . S
C408 C409 1.391 . S
C408 C410 1.394 . S
C408 H424 0.931 . S
C409 C408 1.391 . S
C409 C413 1.376 . S
C410 C408 1.394 . S
C410 C411 1.369 . S
C410 C414 1.531 . S
C411 C410 1.369 . S
C411 C412 1.410 . S
C411 C419 1.503 . S
C412 C411 1.410 . S
C412 C413 1.392 . S
C412 C415 1.511 . S
C413 C409 1.376 . S
C413 C412 1.392 . S
C413 H425 0.929 . S
C414 C410 1.531 . S
C414 H426 0.960 . S
C414 H427 0.962 . S
C414 H428 0.960 . S
C415 C412 1.511 . S
C415 H429 0.961 1_455 S
C415 H430 0.961 . S
C415 H431 0.961 . S
C416 C417 1.370 . S
C416 C418 1.363 . S
C416 H432 0.931 . S
C417 C416 1.370 . S
C417 C421 1.408 . S
C418 C416 1.363 . S
C418 C419 1.370 . S
C418 C422 1.524 . S
C419 C411 1.503 . S
C419 C418 1.370 . S
C419 C420 1.403 . S
C420 C419 1.403 . S
C420 C421 1.404 . S
C420 C423 1.539 . S
C421 C417 1.408 . S
C421 C420 1.404 . S
C421 H433 0.930 . S
C422 C418 1.524 . S
C422 H434 0.956 . S
C422 H435 0.961 . S
C422 H436 0.961 . S
C423 C420 1.539 . S
C423 H437 0.958 . S
C423 H438 0.961 . S
C423 H439 0.960 . S
H424 C408 0.931 . S
H425 C413 0.929 . S
H426 C414 0.960 . S
H427 C414 0.962 . S
H428 C414 0.960 . S
H429 C415 0.961 1_655 S
H430 C415 0.961 . S
H431 C415 0.961 . S
H432 C416 0.931 . S
H433 C421 0.930 . S
H434 C422 0.956 . S
H435 C422 0.961 . S
H436 C422 0.961 . S
H437 C423 0.958 . S
H438 C423 0.961 . S
H439 C423 0.960 . S
C440 C441 1.391 . S
C440 C442 1.394 . S
C440 H456 0.931 . S
C441 C440 1.391 . S
C441 C445 1.376 . S
C442 C440 1.394 . S
C442 C443 1.369 . S
C442 C446 1.531 . S
C443 C442 1.369 . S
C443 C444 1.410 . S
C443 C451 1.503 . S
C444 C443 1.410 . S
C444 C445 1.392 . S
C444 C447 1.511 . S
C445 C441 1.376 . S
C445 C444 1.392 . S
C445 H457 0.929 . S
C446 C442 1.531 . S
C446 H458 0.960 . S
C446 H459 0.962 . S
C446 H460 0.960 . S
C447 C444 1.511 . S
C447 H461 0.961 . S
C447 H462 0.961 . S
C447 H463 0.961 . S
C448 C449 1.370 . S
C448 C450 1.363 . S
C448 H464 0.931 . S
C449 C448 1.370 . S
C449 C453 1.408 . S
C450 C448 1.363 . S
C450 C451 1.370 . S
C450 C454 1.524 . S
C451 C443 1.503 . S
C451 C450 1.370 . S
C451 C452 1.403 . S
C452 C451 1.403 . S
C452 C453 1.404 . S
C452 C455 1.539 1_556 S
C453 C449 1.408 . S
C453 C452 1.404 . S
C453 H465 0.930 1_556 S
C454 C450 1.524 . S
C454 H466 0.956 . S
C454 H467 0.961 . S
C454 H468 0.961 . S
C455 C452 1.539 1_554 S
C455 H469 0.958 . S
C455 H470 0.961 . S
C455 H471 0.960 1_554 S
H456 C440 0.931 . S
H457 C445 0.929 . S
H458 C446 0.960 . S
H459 C446 0.962 . S
H460 C446 0.960 . S
H461 C447 0.961 . S
H462 C447 0.961 . S
H463 C447 0.961 . S
H464 C448 0.931 . S
H465 C453 0.930 1_554 S
H466 C454 0.956 . S
H467 C454 0.961 . S
H468 C454 0.961 . S
H469 C455 0.958 . S
H470 C455 0.961 . S
H471 C455 0.960 1_556 S
C472 C473 1.391 . S
C472 C474 1.394 . S
C472 H488 0.931 . S
C473 C472 1.391 . S
C473 C477 1.376 . S
C474 C472 1.394 . S
C474 C475 1.369 . S
C474 C478 1.531 . S
C475 C474 1.369 . S
C475 C476 1.410 . S
C475 C483 1.503 . S
C476 C475 1.410 . S
C476 C477 1.392 . S
C476 C479 1.511 . S
C477 C473 1.376 . S
C477 C476 1.392 . S
C477 H489 0.929 . S
C478 C474 1.531 . S
C478 H490 0.960 . S
C478 H491 0.962 . S
C478 H492 0.960 . S
C479 C476 1.511 . S
C479 H493 0.961 . S
C479 H494 0.961 . S
C479 H495 0.961 . S
C480 C481 1.370 . S
C480 C482 1.363 . S
C480 H496 0.931 . S
C481 C480 1.370 . S
C481 C485 1.408 . S
C482 C480 1.363 . S
C482 C483 1.370 . S
C482 C486 1.524 . S
C483 C475 1.503 . S
C483 C482 1.370 . S
C483 C484 1.403 . S
C484 C483 1.403 . S
C484 C485 1.404 . S
C484 C487 1.539 . S
C485 C481 1.408 . S
C485 C484 1.404 . S
C485 H497 0.930 . S
C486 C482 1.524 . S
C486 H498 0.956 . S
C486 H499 0.961 . S
C486 H500 0.961 . S
C487 C484 1.539 . S
C487 H501 0.958 . S
C487 H502 0.961 . S
C487 H503 0.960 . S
H488 C472 0.931 . S
H489 C477 0.929 . S
H490 C478 0.960 . S
H491 C478 0.962 . S
H492 C478 0.960 . S
H493 C479 0.961 . S
H494 C479 0.961 . S
H495 C479 0.961 . S
H496 C480 0.931 . S
H497 C485 0.930 . S
H498 C486 0.956 . S
H499 C486 0.961 . S
H500 C486 0.961 . S
H501 C487 0.958 . S
H502 C487 0.961 . S
H503 C487 0.960 . S
C504 C505 1.391 . S
C504 C506 1.394 . S
C504 H520 0.931 . S
C505 C504 1.391 . S
C505 C509 1.376 . S
C506 C504 1.394 . S
C506 C507 1.369 . S
C506 C510 1.531 . S
C507 C506 1.369 . S
C507 C508 1.410 . S
C507 C515 1.503 . S
C508 C507 1.410 . S
C508 C509 1.392 . S
C508 C511 1.511 . S
C509 C505 1.376 . S
C509 C508 1.392 . S
C509 H521 0.929 . S
C510 C506 1.531 . S
C510 H522 0.960 . S
C510 H523 0.962 . S
C510 H524 0.960 . S
C511 C508 1.511 . S
C511 H525 0.961 . S
C511 H526 0.961 . S
C511 H527 0.961 . S
C512 C513 1.370 . S
C512 C514 1.363 . S
C512 H528 0.931 . S
C513 C512 1.370 . S
C513 C517 1.408 . S
C514 C512 1.363 . S
C514 C515 1.370 . S
C514 C518 1.524 . S
C515 C507 1.503 . S
C515 C514 1.370 . S
C515 C516 1.403 . S
C516 C515 1.403 . S
C516 C517 1.404 . S
C516 C519 1.539 . S
C517 C513 1.408 . S
C517 C516 1.404 . S
C517 H529 0.930 . S
C518 C514 1.524 . S
C518 H530 0.956 . S
C518 H531 0.961 . S
C518 H532 0.961 . S
C519 C516 1.539 . S
C519 H533 0.958 . S
C519 H534 0.961 . S
C519 H535 0.960 . S
H520 C504 0.931 . S
H521 C509 0.929 . S
H522 C510 0.960 . S
H523 C510 0.962 . S
H524 C510 0.960 . S
H525 C511 0.961 . S
H526 C511 0.961 . S
H527 C511 0.961 . S
H528 C512 0.931 . S
H529 C517 0.930 . S
H530 C518 0.956 . S
H531 C518 0.961 . S
H532 C518 0.961 . S
H533 C519 0.958 . S
H534 C519 0.961 . S
H535 C519 0.960 . S
C536 C537 1.391 . S
C536 C538 1.394 . S
C536 H552 0.931 . S
C537 C536 1.391 . S
C537 C541 1.376 . S
C538 C536 1.394 . S
C538 C539 1.369 . S
C538 C542 1.531 . S
C539 C538 1.369 . S
C539 C540 1.410 . S
C539 C547 1.503 . S
C540 C539 1.410 . S
C540 C541 1.392 . S
C540 C543 1.511 1_556 S
C541 C537 1.376 . S
C541 C540 1.392 . S
C541 H553 0.929 . S
C542 C538 1.531 . S
C542 H554 0.960 . S
C542 H555 0.962 . S
C542 H556 0.960 . S
C543 C540 1.511 1_554 S
C543 H557 0.961 . S
C543 H558 0.961 . S
C543 H559 0.961 . S
C544 C545 1.370 1_556 S
C544 C546 1.363 . S
C544 H560 0.931 1_556 S
C545 C544 1.370 1_554 S
C545 C549 1.408 1_554 S
C546 C544 1.363 . S
C546 C547 1.370 . S
C546 C550 1.524 . S
C547 C539 1.503 . S
C547 C546 1.370 . S
C547 C548 1.403 . S
C548 C547 1.403 . S
C548 C549 1.404 . S
C548 C551 1.539 . S
C549 C545 1.408 1_556 S
C549 C548 1.404 . S
C549 H561 0.930 . S
C550 C546 1.524 . S
C550 H562 0.956 . S
C550 H563 0.961 . S
C550 H564 0.961 . S
C551 C548 1.539 . S
C551 H565 0.958 . S
C551 H566 0.961 . S
C551 H567 0.960 . S
H552 C536 0.931 . S
H553 C541 0.929 . S
H554 C542 0.960 . S
H555 C542 0.962 . S
H556 C542 0.960 . S
H557 C543 0.961 . S
H558 C543 0.961 . S
H559 C543 0.961 . S
H560 C544 0.931 1_554 S
H561 C549 0.930 . S
H562 C550 0.956 . S
H563 C550 0.961 . S
H564 C550 0.961 . S
H565 C551 0.958 . S
H566 C551 0.961 . S
H567 C551 0.960 . S
C568 C569 1.391 . S
C568 C570 1.394 . S
C568 H584 0.931 . S
C569 C568 1.391 . S
C569 C573 1.376 . S
C570 C568 1.394 . S
C570 C571 1.369 . S
C570 C574 1.531 . S
C571 C570 1.369 . S
C571 C572 1.410 . S
C571 C579 1.503 . S
C572 C571 1.410 . S
C572 C573 1.392 . S
C572 C575 1.511 . S
C573 C569 1.376 . S
C573 C572 1.392 . S
C573 H585 0.929 . S
C574 C570 1.531 . S
C574 H586 0.960 . S
C574 H587 0.962 . S
C574 H588 0.960 . S
C575 C572 1.511 . S
C575 H589 0.961 . S
C575 H590 0.961 . S
C575 H591 0.961 . S
C576 C577 1.370 . S
C576 C578 1.363 . S
C576 H592 0.931 . S
C577 C576 1.370 . S
C577 C581 1.408 . S
C578 C576 1.363 . S
C578 C579 1.370 . S
C578 C582 1.524 . S
C579 C571 1.503 . S
C579 C578 1.370 . S
C579 C580 1.403 . S
C580 C579 1.403 . S
C580 C581 1.404 . S
C580 C583 1.539 . S
C581 C577 1.408 . S
C581 C580 1.404 . S
C581 H593 0.930 . S
C582 C578 1.524 . S
C582 H594 0.956 . S
C582 H595 0.961 . S
C582 H596 0.961 . S
C583 C580 1.539 . S
C583 H597 0.958 . S
C583 H598 0.961 . S
C583 H599 0.960 . S
H584 C568 0.931 . S
H585 C573 0.929 . S
H586 C574 0.960 . S
H587 C574 0.962 . S
H588 C574 0.960 . S
H589 C575 0.961 . S
H590 C575 0.961 . S
H591 C575 0.961 . S
H592 C576 0.931 . S
H593 C581 0.930 . S
H594 C582 0.956 . S
H595 C582 0.961 . S
H596 C582 0.961 . S
H597 C583 0.958 . S
H598 C583 0.961 . S
H599 C583 0.960 . S
C600 C601 1.391 . S
C600 C602 1.394 . S
C600 H616 0.931 . S
C601 C600 1.391 . S
C601 C605 1.376 . S
C602 C600 1.394 . S
C602 C603 1.369 . S
C602 C606 1.531 . S
C603 C602 1.369 . S
C603 C604 1.410 . S
C603 C611 1.503 . S
C604 C603 1.410 . S
C604 C605 1.392 . S
C604 C607 1.511 . S
C605 C601 1.376 . S
C605 C604 1.392 . S
C605 H617 0.929 . S
C606 C602 1.531 . S
C606 H618 0.960 . S
C606 H619 0.962 . S
C606 H620 0.960 . S
C607 C604 1.511 . S
C607 H621 0.961 . S
C607 H622 0.961 . S
C607 H623 0.961 . S
C608 C609 1.370 . S
C608 C610 1.363 . S
C608 H624 0.931 . S
C609 C608 1.370 . S
C609 C613 1.408 . S
C610 C608 1.363 . S
C610 C611 1.370 . S
C610 C614 1.524 . S
C611 C603 1.503 . S
C611 C610 1.370 . S
C611 C612 1.403 . S
C612 C611 1.403 . S
C612 C613 1.404 . S
C612 C615 1.539 . S
C613 C609 1.408 . S
C613 C612 1.404 . S
C613 H625 0.930 . S
C614 C610 1.524 . S
C614 H626 0.956 . S
C614 H627 0.961 . S
C614 H628 0.961 . S
C615 C612 1.539 . S
C615 H629 0.958 . S
C615 H630 0.961 . S
C615 H631 0.960 . S
H616 C600 0.931 . S
H617 C605 0.929 . S
H618 C606 0.960 . S
H619 C606 0.962 . S
H620 C606 0.960 . S
H621 C607 0.961 . S
H622 C607 0.961 . S
H623 C607 0.961 . S
H624 C608 0.931 . S
H625 C613 0.930 . S
H626 C614 0.956 . S
H627 C614 0.961 . S
H628 C614 0.961 . S
H629 C615 0.958 . S
H630 C615 0.961 . S
H631 C615 0.960 . S
C632 C633 1.391 . S
C632 C634 1.394 . S
C632 H648 0.931 . S
C633 C632 1.391 . S
C633 C637 1.376 . S
C634 C632 1.394 . S
C634 C635 1.369 . S
C634 C638 1.531 . S
C635 C634 1.369 . S
C635 C636 1.410 . S
C635 C643 1.503 . S
C636 C635 1.410 . S
C636 C637 1.392 . S
C636 C639 1.511 . S
C637 C633 1.376 . S
C637 C636 1.392 . S
C637 H649 0.929 . S
C638 C634 1.531 . S
C638 H650 0.960 . S
C638 H651 0.962 . S
C638 H652 0.960 . S
C639 C636 1.511 . S
C639 H653 0.961 . S
C639 H654 0.961 . S
C639 H655 0.961 . S
C640 C641 1.370 . S
C640 C642 1.363 . S
C640 H656 0.931 . S
C641 C640 1.370 . S
C641 C645 1.408 . S
C642 C640 1.363 . S
C642 C643 1.370 . S
C642 C646 1.524 . S
C643 C635 1.503 . S
C643 C642 1.370 . S
C643 C644 1.403 . S
C644 C643 1.403 . S
C644 C645 1.404 . S
C644 C647 1.539 . S
C645 C641 1.408 . S
C645 C644 1.404 . S
C645 H657 0.930 . S
C646 C642 1.524 . S
C646 H658 0.956 . S
C646 H659 0.961 . S
C646 H660 0.961 . S
C647 C644 1.539 . S
C647 H661 0.958 . S
C647 H662 0.961 . S
C647 H663 0.960 . S
H648 C632 0.931 . S
H649 C637 0.929 . S
H650 C638 0.960 . S
H651 C638 0.962 . S
H652 C638 0.960 . S
H653 C639 0.961 . S
H654 C639 0.961 . S
H655 C639 0.961 . S
H656 C640 0.931 . S
H657 C645 0.930 . S
H658 C646 0.956 . S
H659 C646 0.961 . S
H660 C646 0.961 . S
H661 C647 0.958 . S
H662 C647 0.961 . S
H663 C647 0.960 . S
C664 C665 1.391 . S
C664 C666 1.394 . S
C664 H680 0.931 . S
C665 C664 1.391 . S
C665 C669 1.376 . S
C666 C664 1.394 . S
C666 C667 1.369 . S
C666 C670 1.531 . S
C667 C666 1.369 . S
C667 C668 1.410 . S
C667 C675 1.503 . S
C668 C667 1.410 . S
C668 C669 1.392 . S
C668 C671 1.511 . S
C669 C665 1.376 . S
C669 C668 1.392 . S
C669 H681 0.929 . S
C670 C666 1.531 . S
C670 H682 0.960 . S
C670 H683 0.962 . S
C670 H684 0.960 . S
C671 C668 1.511 . S
C671 H685 0.961 . S
C671 H686 0.961 . S
C671 H687 0.961 . S
C672 C673 1.370 . S
C672 C674 1.363 . S
C672 H688 0.931 . S
C673 C672 1.370 . S
C673 C677 1.408 . S
C674 C672 1.363 . S
C674 C675 1.370 . S
C674 C678 1.524 . S
C675 C667 1.503 . S
C675 C674 1.370 . S
C675 C676 1.403 . S
C676 C675 1.403 . S
C676 C677 1.404 . S
C676 C679 1.539 . S
C677 C673 1.408 . S
C677 C676 1.404 . S
C677 H689 0.930 . S
C678 C674 1.524 . S
C678 H690 0.956 . S
C678 H691 0.961 . S
C678 H692 0.961 . S
C679 C676 1.539 . S
C679 H693 0.958 . S
C679 H694 0.961 . S
C679 H695 0.960 . S
H680 C664 0.931 . S
H681 C669 0.929 . S
H682 C670 0.960 . S
H683 C670 0.962 . S
H684 C670 0.960 . S
H685 C671 0.961 . S
H686 C671 0.961 . S
H687 C671 0.961 . S
H688 C672 0.931 . S
H689 C677 0.930 . S
H690 C678 0.956 . S
H691 C678 0.961 . S
H692 C678 0.961 . S
H693 C679 0.958 . S
H694 C679 0.961 . S
H695 C679 0.960 . S
C696 C697 1.391 . S
C696 C698 1.394 . S
C696 H712 0.931 . S
C697 C696 1.391 . S
C697 C701 1.376 . S
C698 C696 1.394 . S
C698 C699 1.369 . S
C698 C702 1.531 . S
C699 C698 1.369 . S
C699 C700 1.410 . S
C699 C707 1.503 . S
C700 C699 1.410 . S
C700 C701 1.392 . S
C700 C703 1.511 . S
C701 C697 1.376 . S
C701 C700 1.392 . S
C701 H713 0.929 . S
C702 C698 1.531 . S
C702 H714 0.960 . S
C702 H715 0.962 . S
C702 H716 0.960 . S
C703 C700 1.511 . S
C703 H717 0.961 . S
C703 H718 0.961 . S
C703 H719 0.961 . S
C704 C705 1.370 . S
C704 C706 1.363 . S
C704 H720 0.931 . S
C705 C704 1.370 . S
C705 C709 1.408 . S
C706 C704 1.363 . S
C706 C707 1.370 . S
C706 C710 1.524 . S
C707 C699 1.503 . S
C707 C706 1.370 . S
C707 C708 1.403 . S
C708 C707 1.403 . S
C708 C709 1.404 . S
C708 C711 1.539 . S
C709 C705 1.408 . S
C709 C708 1.404 . S
C709 H721 0.930 . S
C710 C706 1.524 . S
C710 H722 0.956 . S
C710 H723 0.961 . S
C710 H724 0.961 . S
C711 C708 1.539 . S
C711 H725 0.958 . S
C711 H726 0.961 . S
C711 H727 0.960 . S
H712 C696 0.931 . S
H713 C701 0.929 . S
H714 C702 0.960 . S
H715 C702 0.962 . S
H716 C702 0.960 . S
H717 C703 0.961 . S
H718 C703 0.961 . S
H719 C703 0.961 . S
H720 C704 0.931 . S
H721 C709 0.930 . S
H722 C710 0.956 . S
H723 C710 0.961 . S
H724 C710 0.961 . S
H725 C711 0.958 . S
H726 C711 0.961 . S
H727 C711 0.960 . S
C728 C729 1.391 . S
C728 C730 1.394 . S
C728 H744 0.931 . S
C729 C728 1.391 . S
C729 C733 1.376 . S
C730 C728 1.394 . S
C730 C731 1.369 . S
C730 C734 1.531 . S
C731 C730 1.369 . S
C731 C732 1.410 . S
C731 C739 1.503 . S
C732 C731 1.410 . S
C732 C733 1.392 . S
C732 C735 1.511 . S
C733 C729 1.376 . S
C733 C732 1.392 . S
C733 H745 0.929 . S
C734 C730 1.531 . S
C734 H746 0.960 . S
C734 H747 0.962 . S
C734 H748 0.960 . S
C735 C732 1.511 . S
C735 H749 0.961 . S
C735 H750 0.961 . S
C735 H751 0.961 . S
C736 C737 1.370 . S
C736 C738 1.363 . S
C736 H752 0.931 . S
C737 C736 1.370 . S
C737 C741 1.408 . S
C738 C736 1.363 . S
C738 C739 1.370 . S
C738 C742 1.524 . S
C739 C731 1.503 . S
C739 C738 1.370 . S
C739 C740 1.403 . S
C740 C739 1.403 . S
C740 C741 1.404 . S
C740 C743 1.539 . S
C741 C737 1.408 . S
C741 C740 1.404 . S
C741 H753 0.930 . S
C742 C738 1.524 . S
C742 H754 0.956 . S
C742 H755 0.961 . S
C742 H756 0.961 . S
C743 C740 1.539 . S
C743 H757 0.958 . S
C743 H758 0.961 . S
C743 H759 0.960 . S
H744 C728 0.931 . S
H745 C733 0.929 . S
H746 C734 0.960 . S
H747 C734 0.962 . S
H748 C734 0.960 . S
H749 C735 0.961 . S
H750 C735 0.961 . S
H751 C735 0.961 . S
H752 C736 0.931 . S
H753 C741 0.930 . S
H754 C742 0.956 . S
H755 C742 0.961 . S
H756 C742 0.961 . S
H757 C743 0.958 . S
H758 C743 0.961 . S
H759 C743 0.960 . S
C760 C761 1.391 . S
C760 C762 1.394 . S
C760 H776 0.931 . S
C761 C760 1.391 . S
C761 C765 1.376 . S
C762 C760 1.394 . S
C762 C763 1.369 . S
C762 C766 1.531 . S
C763 C762 1.369 . S
C763 C764 1.410 . S
C763 C771 1.503 . S
C764 C763 1.410 . S
C764 C765 1.392 . S
C764 C767 1.511 . S
C765 C761 1.376 . S
C765 C764 1.392 . S
C765 H777 0.929 . S
C766 C762 1.531 . S
C766 H778 0.960 . S
C766 H779 0.962 . S
C766 H780 0.960 . S
C767 C764 1.511 . S
C767 H781 0.961 . S
C767 H782 0.961 . S
C767 H783 0.961 . S
C768 C769 1.370 . S
C768 C770 1.363 . S
C768 H784 0.931 . S
C769 C768 1.370 . S
C769 C773 1.408 1_556 S
C770 C768 1.363 . S
C770 C771 1.370 . S
C770 C774 1.524 . S
C771 C763 1.503 . S
C771 C770 1.370 . S
C771 C772 1.403 . S
C772 C771 1.403 . S
C772 C773 1.404 1_556 S
C772 C775 1.539 1_556 S
C773 C769 1.408 1_554 S
C773 C772 1.404 1_554 S
C773 H785 0.930 . S
C774 C770 1.524 . S
C774 H786 0.956 . S
C774 H787 0.961 . S
C774 H788 0.961 . S
C775 C772 1.539 1_554 S
C775 H789 0.958 . S
C775 H790 0.961 . S
C775 H791 0.969 . S
H776 C760 0.931 . S
H777 C765 0.929 . S
H778 C766 0.960 . S
H779 C766 0.962 . S
H780 C766 0.960 . S
H781 C767 0.961 . S
H782 C767 0.961 . S
H783 C767 0.961 . S
H784 C768 0.931 . S
H785 C773 0.930 . S
H786 C774 0.956 . S
H787 C774 0.961 . S
H788 C774 0.961 . S
H789 C775 0.958 . S
H790 C775 0.961 . S
H791 C775 0.969 . S
C792 C793 1.391 . S
C792 C794 1.394 . S
C792 H808 0.931 . S
C793 C792 1.391 . S
C793 C797 1.376 . S
C794 C792 1.394 . S
C794 C795 1.369 . S
C794 C798 1.531 . S
C795 C794 1.369 . S
C795 C796 1.410 . S
C795 C803 1.503 . S
C796 C795 1.410 . S
C796 C797 1.392 . S
C796 C799 1.511 . S
C797 C793 1.376 . S
C797 C796 1.392 . S
C797 H809 0.929 . S
C798 C794 1.531 . S
C798 H810 0.960 . S
C798 H811 0.962 . S
C798 H812 0.960 . S
C799 C796 1.511 . S
C799 H813 0.961 . S
C799 H814 0.961 . S
C799 H815 0.961 . S
C800 C801 1.370 . S
C800 C802 1.363 . S
C800 H816 0.931 . S
C801 C800 1.370 . S
C801 C805 1.408 1_655 S
C802 C800 1.363 . S
C802 C803 1.370 . S
C802 C806 1.524 . S
C803 C795 1.503 . S
C803 C802 1.370 . S
C803 C804 1.403 . S
C804 C803 1.403 . S
C804 C805 1.404 1_655 S
C804 C807 1.539 1_655 S
C805 C801 1.408 1_455 S
C805 C804 1.404 1_455 S
C805 H817 0.930 . S
C806 C802 1.524 . S
C806 H818 0.956 . S
C806 H819 0.961 . S
C806 H820 0.961 . S
C807 C804 1.539 1_455 S
C807 H821 0.958 . S
C807 H822 0.961 . S
C807 H823 0.960 . S
H808 C792 0.931 . S
H809 C797 0.929 . S
H810 C798 0.960 . S
H811 C798 0.962 . S
H812 C798 0.960 . S
H813 C799 0.961 . S
H814 C799 0.961 . S
H815 C799 0.961 . S
H816 C800 0.931 . S
H817 C805 0.930 . S
H818 C806 0.956 . S
H819 C806 0.961 . S
H820 C806 0.961 . S
H821 C807 0.958 . S
H822 C807 0.961 . S
H823 C807 0.960 . S
C824 C825 1.391 . S
C824 C826 1.394 . S
C824 H840 0.931 . S
C825 C824 1.391 . S
C825 C829 1.376 . S
C826 C824 1.394 . S
C826 C827 1.369 . S
C826 C830 1.531 . S
C827 C826 1.369 . S
C827 C828 1.410 . S
C827 C835 1.503 . S
C828 C827 1.410 . S
C828 C829 1.392 . S
C828 C831 1.511 . S
C829 C825 1.376 . S
C829 C828 1.392 . S
C829 H841 0.929 . S
C830 C826 1.531 . S
C830 H842 0.960 . S
C830 H843 0.962 . S
C830 H844 0.960 . S
C831 C828 1.511 . S
C831 H845 0.961 . S
C831 H846 0.961 . S
C831 H847 0.961 . S
C832 C833 1.370 . S
C832 C834 1.363 . S
C832 H848 0.931 . S
C833 C832 1.370 . S
C833 C837 1.408 . S
C834 C832 1.363 . S
C834 C835 1.370 . S
C834 C838 1.524 . S
C835 C827 1.503 . S
C835 C834 1.370 . S
C835 C836 1.403 . S
C836 C835 1.403 . S
C836 C837 1.404 . S
C836 C839 1.539 . S
C837 C833 1.408 . S
C837 C836 1.404 . S
C837 H849 0.930 . S
C838 C834 1.524 . S
C838 H850 0.956 . S
C838 H851 0.961 . S
C838 H852 0.961 . S
C839 C836 1.539 . S
C839 H853 0.958 . S
C839 H854 0.961 . S
C839 H855 0.960 . S
H840 C824 0.931 . S
H841 C829 0.929 . S
H842 C830 0.960 . S
H843 C830 0.962 . S
H844 C830 0.960 . S
H845 C831 0.961 . S
H846 C831 0.961 . S
H847 C831 0.961 . S
H848 C832 0.931 . S
H849 C837 0.930 . S
H850 C838 0.956 . S
H851 C838 0.961 . S
H852 C838 0.961 . S
H853 C839 0.958 . S
H854 C839 0.961 . S
H855 C839 0.960 . S
C856 C857 1.391 . S
C856 C858 1.394 . S
C856 H872 0.931 . S
C857 C856 1.391 . S
C857 C861 1.376 . S
C858 C856 1.394 . S
C858 C859 1.369 . S
C858 C862 1.531 . S
C859 C858 1.369 . S
C859 C860 1.410 . S
C859 C867 1.503 . S
C860 C859 1.410 . S
C860 C861 1.392 . S
C860 C863 1.511 . S
C861 C857 1.376 . S
C861 C860 1.392 . S
C861 H873 0.929 . S
C862 C858 1.531 . S
C862 H874 0.960 . S
C862 H875 0.962 . S
C862 H876 0.960 . S
C863 C860 1.511 . S
C863 H877 0.961 . S
C863 H878 0.961 . S
C863 H879 0.961 . S
C864 C865 1.370 . S
C864 C866 1.363 . S
C864 H880 0.931 . S
C865 C864 1.370 . S
C865 C869 1.408 . S
C866 C864 1.363 . S
C866 C867 1.370 . S
C866 C870 1.524 . S
C867 C859 1.503 . S
C867 C866 1.370 . S
C867 C868 1.403 . S
C868 C867 1.403 . S
C868 C869 1.404 . S
C868 C871 1.539 . S
C869 C865 1.408 . S
C869 C868 1.404 . S
C869 H881 0.930 . S
C870 C866 1.524 . S
C870 H882 0.956 . S
C870 H883 0.961 . S
C870 H884 0.961 . S
C871 C868 1.539 . S
C871 H885 0.958 . S
C871 H886 0.961 . S
C871 H887 0.960 . S
H872 C856 0.931 . S
H873 C861 0.929 . S
H874 C862 0.960 . S
H875 C862 0.962 . S
H876 C862 0.960 . S
H877 C863 0.961 . S
H878 C863 0.961 . S
H879 C863 0.961 . S
H880 C864 0.931 . S
H881 C869 0.930 . S
H882 C870 0.956 . S
H883 C870 0.961 . S
H884 C870 0.961 . S
H885 C871 0.958 . S
H886 C871 0.961 . S
H887 C871 0.960 . S
C888 C889 1.391 . S
C888 C890 1.394 . S
C888 H904 0.931 . S
C889 C888 1.391 . S
C889 C893 1.376 . S
C890 C888 1.394 . S
C890 C891 1.369 . S
C890 C894 1.531 . S
C891 C890 1.369 . S
C891 C892 1.410 . S
C891 C899 1.503 . S
C892 C891 1.410 . S
C892 C893 1.392 . S
C892 C895 1.511 . S
C893 C889 1.376 . S
C893 C892 1.392 . S
C893 H905 0.929 . S
C894 C890 1.531 . S
C894 H906 0.960 . S
C894 H907 0.962 . S
C894 H908 0.960 . S
C895 C892 1.511 . S
C895 H909 0.961 . S
C895 H910 0.961 . S
C895 H911 0.961 . S
C896 C897 1.370 . S
C896 C898 1.363 . S
C896 H912 0.931 . S
C897 C896 1.370 . S
C897 C901 1.408 . S
C898 C896 1.363 . S
C898 C899 1.370 . S
C898 C902 1.524 . S
C899 C891 1.503 . S
C899 C898 1.370 . S
C899 C900 1.403 . S
C900 C899 1.403 . S
C900 C901 1.404 . S
C900 C903 1.539 . S
C901 C897 1.408 . S
C901 C900 1.404 . S
C901 H913 0.930 . S
C902 C898 1.524 . S
C902 H914 0.956 . S
C902 H915 0.961 . S
C902 H916 0.961 . S
C903 C900 1.539 . S
C903 H917 0.958 . S
C903 H918 0.961 . S
C903 H919 0.960 . S
H904 C888 0.931 . S
H905 C893 0.929 . S
H906 C894 0.960 . S
H907 C894 0.962 . S
H908 C894 0.960 . S
H909 C895 0.961 . S
H910 C895 0.961 . S
H911 C895 0.961 . S
H912 C896 0.931 . S
H913 C901 0.930 . S
H914 C902 0.956 . S
H915 C902 0.961 . S
H916 C902 0.961 . S
H917 C903 0.958 . S
H918 C903 0.961 . S
H919 C903 0.960 . S
C920 C921 1.391 . S
C920 C922 1.394 . S
C920 H936 0.931 . S
C921 C920 1.391 . S
C921 C925 1.376 . S
C922 C920 1.394 . S
C922 C923 1.369 . S
C922 C926 1.531 . S
C923 C922 1.369 . S
C923 C924 1.410 . S
C923 C931 1.503 . S
C924 C923 1.410 . S
C924 C925 1.392 . S
C924 C927 1.511 . S
C925 C921 1.376 . S
C925 C924 1.392 . S
C925 H937 0.929 . S
C926 C922 1.531 . S
C926 H938 0.960 . S
C926 H939 0.962 . S
C926 H940 0.960 . S
C927 C924 1.511 . S
C927 H941 0.961 . S
C927 H942 0.961 . S
C927 H943 0.961 . S
C928 C929 1.370 . S
C928 C930 1.363 . S
C928 H944 0.931 . S
C929 C928 1.370 . S
C929 C933 1.408 . S
C930 C928 1.363 . S
C930 C931 1.370 . S
C930 C934 1.524 . S
C931 C923 1.503 . S
C931 C930 1.370 . S
C931 C932 1.403 . S
C932 C931 1.403 . S
C932 C933 1.404 . S
C932 C935 1.539 . S
C933 C929 1.408 . S
C933 C932 1.404 . S
C933 H945 0.930 . S
C934 C930 1.524 . S
C934 H946 0.956 . S
C934 H947 0.961 . S
C934 H948 0.961 . S
C935 C932 1.539 . S
C935 H949 0.958 . S
C935 H950 0.961 . S
C935 H951 0.960 . S
H936 C920 0.931 . S
H937 C925 0.929 . S
H938 C926 0.960 . S
H939 C926 0.962 . S
H940 C926 0.960 . S
H941 C927 0.961 . S
H942 C927 0.961 . S
H943 C927 0.961 . S
H944 C928 0.931 . S
H945 C933 0.930 . S
H946 C934 0.956 . S
H947 C934 0.961 . S
H948 C934 0.961 . S
H949 C935 0.958 . S
H950 C935 0.961 . S
H951 C935 0.960 . S
C952 C953 1.391 . S
C952 C954 1.394 . S
C952 H968 0.931 . S
C953 C952 1.391 . S
C953 C957 1.376 . S
C954 C952 1.394 . S
C954 C955 1.369 . S
C954 C958 1.531 . S
C955 C954 1.369 . S
C955 C956 1.410 . S
C955 C963 1.503 . S
C956 C955 1.410 . S
C956 C957 1.392 . S
C956 C959 1.511 . S
C957 C953 1.376 . S
C957 C956 1.392 . S
C957 H969 0.929 . S
C958 C954 1.531 . S
C958 H970 0.960 . S
C958 H971 0.962 . S
C958 H972 0.960 . S
C959 C956 1.511 . S
C959 H973 0.961 1_455 S
C959 H974 0.961 . S
C959 H975 0.961 1_455 S
C960 C961 1.370 . S
C960 C962 1.363 . S
C960 H976 0.931 . S
C961 C960 1.370 . S
C961 C965 1.408 . S
C962 C960 1.363 . S
C962 C963 1.370 . S
C962 C966 1.524 . S
C963 C955 1.503 . S
C963 C962 1.370 . S
C963 C964 1.403 . S
C964 C963 1.403 . S
C964 C965 1.404 . S
C964 C967 1.539 . S
C965 C961 1.408 . S
C965 C964 1.404 . S
C965 H977 0.930 . S
C966 C962 1.524 . S
C966 H978 0.956 . S
C966 H979 0.961 . S
C966 H980 0.961 . S
C967 C964 1.539 . S
C967 H981 0.958 . S
C967 H982 0.961 . S
C967 H983 0.960 . S
H968 C952 0.931 . S
H969 C957 0.929 . S
H970 C958 0.960 . S
H971 C958 0.962 . S
H972 C958 0.960 . S
H973 C959 0.961 1_655 S
H974 C959 0.961 . S
H975 C959 0.961 1_655 S
H976 C960 0.931 . S
H977 C965 0.930 . S
H978 C966 0.956 . S
H979 C966 0.961 . S
H980 C966 0.961 . S
H981 C967 0.958 . S
H982 C967 0.961 . S
H983 C967 0.960 . S
C984 C985 1.391 . S
C984 C986 1.394 . S
C984 H1000 0.931 . S
C985 C984 1.391 . S
C985 C989 1.376 . S
C986 C984 1.394 . S
C986 C987 1.369 . S
C986 C990 1.531 . S
C987 C986 1.369 . S
C987 C988 1.410 . S
C987 C995 1.503 . S
C988 C987 1.410 . S
C988 C989 1.392 . S
C988 C991 1.511 . S
C989 C985 1.376 . S
C989 C988 1.392 . S
C989 H1001 0.929 . S
C990 C986 1.531 . S
C990 H1002 0.960 . S
C990 H1003 0.962 . S
C990 H1004 0.960 . S
C991 C988 1.511 . S
C991 H1005 0.961 . S
C991 H1006 0.961 . S
C991 H1007 0.961 . S
C992 C993 1.370 . S
C992 C994 1.363 . S
C992 H1008 0.931 . S
C993 C992 1.370 . S
C993 C997 1.408 . S
C994 C992 1.363 . S
C994 C995 1.370 . S
C994 C998 1.524 . S
C995 C987 1.503 . S
C995 C994 1.370 . S
C995 C996 1.403 . S
C996 C995 1.403 . S
C996 C997 1.404 . S
C996 C999 1.539 . S
C997 C993 1.408 . S
C997 C996 1.404 . S
C997 H1009 0.930 . S
C998 C994 1.524 . S
C998 H1010 0.956 . S
C998 H1011 0.961 . S
C998 H1012 0.961 . S
C999 C996 1.539 . S
C999 H1013 0.958 . S
C999 H1014 0.961 . S
C999 H1015 0.960 . S
H1000 C984 0.931 . S
H1001 C989 0.929 . S
H1002 C990 0.960 . S
H1003 C990 0.962 . S
H1004 C990 0.960 . S
H1005 C991 0.961 . S
H1006 C991 0.961 . S
H1007 C991 0.961 . S
H1008 C992 0.931 . S
H1009 C997 0.930 . S
H1010 C998 0.956 . S
H1011 C998 0.961 . S
H1012 C998 0.961 . S
H1013 C999 0.958 . S
H1014 C999 0.961 . S
H1015 C999 0.960 . S
C249 C5 1.008 . S
C257 C105 1.177 . S
C281 C18 1.093 . S
C289 C145 1.124 . S
C321 C170 2.246 . S
C313 C30 2.285 . S
C345 C41 2.148 . S
C353 C210 2.107 . S
C385 C141 1.786 . S
C377 C7 1.609 . S
C417 C101 1.832 . S
C409 C16 1.783 . S
C449 C232 1.739 . S
C441 C29 1.721 . S
C481 C192 1.270 . S
C473 C38 1.200 . S
C505 C8 1.264 . S
C513 C234 1.301 . S
C545 C151 2.363 . S
C537 C27 2.083 . S
C569 C40 2.286 . S
C577 C111 2.246 . S
C601 C19 1.236 . S
C609 C194 1.196 . S
C641 C114 1.166 . S
C633 C51 1.079 . S
C665 C62 1.432 . S
C673 C154 1.414 . S
C697 C74 2.387 . S
C705 C191 2.358 . S
C729 C84 2.130 . S
C737 C231 2.187 . S
C761 C49 1.600 . S
C769 C152 2.083 1_556 S
C801 C112 1.823 . S
C793 C63 1.816 . S
C833 C221 1.554 . S
C825 C71 1.352 . S
C865 C181 1.477 . S
C857 C85 1.467 . S
C889 C52 1.280 . S
C897 C225 1.399 . S
C929 C130 2.454 . S
C921 C73 2.435 . S
C961 C90 1.822 . S
C953 C82 1.584 . S
C985 C60 1.292 . S
C993 C185 1.310 . S
