# Generated by pormake.
# Topology pyr, (3,6)-cn, num edge types: 1
# Building blocks:
#     Node 0, Type 0, BuildingBlock: WUSLED_clean_sbu_0, # of connection points: 3
#     Node 1, Type 0, BuildingBlock: WUSLED_clean_sbu_0, # of connection points: 3
#     Node 2, Type 0, BuildingBlock: WUSLED_clean_sbu_0, # of connection points: 3
#     Node 3, Type 0, BuildingBlock: WUSLED_clean_sbu_0, # of connection points: 3
#     Node 4, Type 0, BuildingBlock: WUSLED_clean_sbu_0, # of connection points: 3
#     Node 5, Type 0, BuildingBlock: WUSLED_clean_sbu_0, # of connection points: 3
#     Node 6, Type 0, BuildingBlock: WUSLED_clean_sbu_0, # of connection points: 3
#     Node 7, Type 0, BuildingBlock: WUSLED_clean_sbu_0, # of connection points: 3
#     Node 8, Type 1, BuildingBlock: MIDCAF_clean_sbu_0, # of connection points: 6
#     Node 9, Type 1, BuildingBlock: MIDCAF_clean_sbu_0, # of connection points: 6
#     Node 10, Type 1, BuildingBlock: MIDCAF_clean_sbu_0, # of connection points: 6
#     Node 11, Type 1, BuildingBlock: MIDCAF_clean_sbu_0, # of connection points: 6
#     Edge 12, Type (0, 1), BuildingBlock: XIVTED_clean_linker_0, # of connection points: 2
#     Edge 13, Type (0, 1), BuildingBlock: XIVTED_clean_linker_0, # of connection points: 2
#     Edge 14, Type (0, 1), BuildingBlock: XIVTED_clean_linker_0, # of connection points: 2
#     Edge 15, Type (0, 1), BuildingBlock: XIVTED_clean_linker_0, # of connection points: 2
#     Edge 16, Type (0, 1), BuildingBlock: XIVTED_clean_linker_0, # of connection points: 2
#     Edge 17, Type (0, 1), BuildingBlock: XIVTED_clean_linker_0, # of connection points: 2
#     Edge 18, Type (0, 1), BuildingBlock: XIVTED_clean_linker_0, # of connection points: 2
#     Edge 19, Type (0, 1), BuildingBlock: XIVTED_clean_linker_0, # of connection points: 2
#     Edge 20, Type (0, 1), BuildingBlock: XIVTED_clean_linker_0, # of connection points: 2
#     Edge 21, Type (0, 1), BuildingBlock: XIVTED_clean_linker_0, # of connection points: 2
#     Edge 22, Type (0, 1), BuildingBlock: XIVTED_clean_linker_0, # of connection points: 2
#     Edge 23, Type (0, 1), BuildingBlock: XIVTED_clean_linker_0, # of connection points: 2
#     Edge 24, Type (0, 1), BuildingBlock: XIVTED_clean_linker_0, # of connection points: 2
#     Edge 25, Type (0, 1), BuildingBlock: XIVTED_clean_linker_0, # of connection points: 2
#     Edge 26, Type (0, 1), BuildingBlock: XIVTED_clean_linker_0, # of connection points: 2
#     Edge 27, Type (0, 1), BuildingBlock: XIVTED_clean_linker_0, # of connection points: 2
#     Edge 28, Type (0, 1), BuildingBlock: XIVTED_clean_linker_0, # of connection points: 2
#     Edge 29, Type (0, 1), BuildingBlock: XIVTED_clean_linker_0, # of connection points: 2
#     Edge 30, Type (0, 1), BuildingBlock: XIVTED_clean_linker_0, # of connection points: 2
#     Edge 31, Type (0, 1), BuildingBlock: XIVTED_clean_linker_0, # of connection points: 2
#     Edge 32, Type (0, 1), BuildingBlock: XIVTED_clean_linker_0, # of connection points: 2
#     Edge 33, Type (0, 1), BuildingBlock: XIVTED_clean_linker_0, # of connection points: 2
#     Edge 34, Type (0, 1), BuildingBlock: XIVTED_clean_linker_0, # of connection points: 2
#     Edge 35, Type (0, 1), BuildingBlock: XIVTED_clean_linker_0, # of connection points: 2
# Relax obj value: 0.020
# Max RMSD: 0.063
# Mean RMSD: 0.028
data_MOF--net-pyr--node1-WUSLED_clean_sbu_0--node2-MIDCAF_clean_sbu_0--edge1-XIVTED_clean_linker_0
_symmetry_space_group_name_H-M    P1
_symmetry_Int_Tables_number       1
_symmetry_cell_setting            triclinic
loop_
_symmetry_equiv_pos_as_xyz
'x, y, z'
_cell_length_a     46.521694
_cell_length_b     46.685931
_cell_length_c     46.623408
_cell_angle_alpha  89.532723
_cell_angle_beta   90.242982
_cell_angle_gamma 90.527473
loop_
_atom_site_label
_atom_site_type_symbol
_atom_site_fract_x
_atom_site_fract_y
_atom_site_fract_z
_atom_type_partial_charge
C0 C 0.21767 0.29217 0.17662 0.0
C1 C 0.18898 0.29565 0.18497 0.0
C2 C 0.18625 0.34048 0.15769 0.0
C3 C 0.17341 0.31951 0.17555 0.0
C4 C 0.21519 0.33702 0.14979 0.0
C5 C 0.23068 0.3131 0.15914 0.0
U6 U 0.23164 0.22769 0.22634 0.0
O7 O 0.24396 0.18362 0.21536 0.0
O8 O 0.27249 0.21002 0.24208 0.0
C9 C 0.26916 0.18589 0.22803 0.0
C10 C 0.23414 0.26664 0.18533 0.0
C11 C 0.29406 0.1762 0.21124 0.0
C12 C 0.3361 0.18581 0.18164 0.0
C13 C 0.31235 0.19566 0.19699 0.0
C14 C 0.32339 0.13694 0.1943 0.0
C15 C 0.34196 0.15628 0.18005 0.0
C16 C 0.29977 0.14682 0.20973 0.0
C17 C 0.1821 0.21398 0.29107 0.0
C18 C 0.17975 0.16964 0.31877 0.0
C19 C 0.15558 0.21186 0.33592 0.0
C20 C 0.16525 0.22725 0.31188 0.0
C21 C 0.16255 0.18278 0.33965 0.0
C22 C 0.18948 0.18511 0.29476 0.0
C23 C 0.1913 0.23052 0.26556 0.0
O24 O 0.24865 0.26871 0.20948 0.0
O25 O 0.22069 0.24191 0.18261 0.0
O26 O 0.18765 0.21785 0.24071 0.0
O27 O 0.21617 0.24391 0.26773 0.0
H28 H 0.17851 0.27973 0.19847 0.0
H29 H 0.1511 0.32116 0.18178 0.0
H30 H 0.22597 0.35286 0.13648 0.0
H31 H 0.25286 0.31085 0.15256 0.0
H32 H 0.35002 0.20141 0.17127 0.0
H33 H 0.30837 0.21846 0.19782 0.0
H34 H 0.32679 0.11407 0.19317 0.0
H35 H 0.28586 0.13143 0.22048 0.0
H36 H 0.18526 0.14722 0.32064 0.0
H37 H 0.1428 0.22285 0.35168 0.0
H38 H 0.15943 0.24957 0.30947 0.0
H39 H 0.2025 0.17445 0.27894 0.0
C40 C 0.25773 0.83245 0.67623 0.0
C41 C 0.24658 0.85433 0.69331 0.0
C42 C 0.20817 0.86252 0.65836 0.0
C43 C 0.22201 0.86929 0.68442 0.0
C44 C 0.21976 0.84071 0.64134 0.0
C45 C 0.2442 0.82585 0.65022 0.0
U46 U 0.32251 0.81779 0.72569 0.0
O47 O 0.33947 0.77661 0.74117 0.0
O48 O 0.36637 0.80476 0.71432 0.0
C49 C 0.36382 0.77975 0.72724 0.0
C50 C 0.28332 0.81612 0.68495 0.0
C51 C 0.37344 0.75479 0.71081 0.0
C52 C 0.36607 0.71814 0.67456 0.0
C53 C 0.35627 0.74218 0.68943 0.0
C54 C 0.41027 0.71942 0.70217 0.0
C55 C 0.39316 0.70632 0.68091 0.0
C56 C 0.40048 0.74331 0.71694 0.0
C57 C 0.33715 0.8668 0.79033 0.0
C58 C 0.37441 0.85905 0.82635 0.0
C59 C 0.34568 0.90202 0.8275 0.0
C60 C 0.3306 0.89289 0.80322 0.0
C61 C 0.36768 0.88519 0.83955 0.0
C62 C 0.35923 0.84991 0.80194 0.0
C63 C 0.32057 0.85785 0.76491 0.0
O64 O 0.30811 0.82954 0.68215 0.0
O65 O 0.28118 0.80154 0.70909 0.0
O66 O 0.30671 0.83328 0.76713 0.0
O67 O 0.33346 0.86136 0.74009 0.0
H68 H 0.25681 0.85975 0.71349 0.0
H69 H 0.21364 0.88584 0.69813 0.0
H70 H 0.21016 0.8353 0.62087 0.0
H71 H 0.2526 0.80917 0.63666 0.0
H72 H 0.35228 0.70858 0.65843 0.0
H73 H 0.3353 0.75083 0.68437 0.0
H74 H 0.43148 0.71142 0.70723 0.0
H75 H 0.41411 0.75286 0.73324 0.0
H76 H 0.39111 0.84549 0.83509 0.0
H77 H 0.3403 0.92255 0.83659 0.0
H78 H 0.31377 0.9063 0.79445 0.0
H79 H 0.36462 0.82968 0.79219 0.0
C80 C 0.68246 0.33124 0.75432 0.0
C81 C 0.69166 0.35973 0.75058 0.0
C82 C 0.66344 0.36358 0.70646 0.0
C83 C 0.68219 0.37577 0.72693 0.0
C84 C 0.6546 0.33488 0.71024 0.0
C85 C 0.66402 0.31891 0.73395 0.0
U86 U 0.73314 0.31758 0.81773 0.0
O87 O 0.72367 0.30314 0.86168 0.0
O88 O 0.75078 0.2769 0.83412 0.0
C89 C 0.737 0.27866 0.85859 0.0
C90 C 0.69174 0.3142 0.77935 0.0
C91 C 0.72064 0.25291 0.8674 0.0
C92 C 0.67646 0.22471 0.86817 0.0
C93 C 0.69203 0.24875 0.85866 0.0
C94 C 0.71812 0.20839 0.89476 0.0
C95 C 0.68924 0.20426 0.88649 0.0
C96 C 0.73362 0.2325 0.88532 0.0
C97 C 0.79559 0.36992 0.83211 0.0
C98 C 0.83719 0.36029 0.86234 0.0
C99 C 0.82525 0.4092 0.84977 0.0
C100 C 0.80169 0.39931 0.83382 0.0
C101 C 0.84332 0.38983 0.86432 0.0
C102 C 0.81349 0.35044 0.84651 0.0
C103 C 0.77041 0.36016 0.8154 0.0
O104 O 0.71649 0.30115 0.77667 0.0
O105 O 0.68869 0.32646 0.80443 0.0
O106 O 0.74552 0.3619 0.82847 0.0
O107 O 0.77341 0.3362 0.80113 0.0
H108 H 0.70596 0.36962 0.76609 0.0
H109 H 0.68914 0.39789 0.72499 0.0
H110 H 0.64056 0.32463 0.69475 0.0
H111 H 0.65683 0.29688 0.73641 0.0
H112 H 0.65418 0.22254 0.86166 0.0
H113 H 0.68161 0.26428 0.8448 0.0
H114 H 0.72883 0.19295 0.90846 0.0
H115 H 0.75574 0.2353 0.89219 0.0
H116 H 0.85076 0.34469 0.87292 0.0
H117 H 0.8289 0.43208 0.85118 0.0
H118 H 0.78804 0.41469 0.82297 0.0
H119 H 0.80915 0.32763 0.84555 0.0
C120 C 0.76008 0.68025 0.32786 0.0
C121 C 0.75607 0.68972 0.35603 0.0
C122 C 0.71242 0.66058 0.36013 0.0
C123 C 0.73253 0.67992 0.37204 0.0
C124 C 0.71641 0.65153 0.3317 0.0
C125 C 0.74003 0.66126 0.31576 0.0
U126 U 0.82253 0.73214 0.31415 0.0
O127 O 0.86714 0.72382 0.30161 0.0
O128 O 0.83946 0.74953 0.27344 0.0
C129 C 0.86426 0.73659 0.27653 0.0
C130 C 0.78515 0.68976 0.311 0.0
C131 C 0.87399 0.72013 0.25162 0.0
C132 C 0.87616 0.67575 0.22485 0.0
C133 C 0.86605 0.69129 0.24822 0.0
C134 C 0.90182 0.71785 0.20768 0.0
C135 C 0.89428 0.68879 0.20429 0.0
C136 C 0.89178 0.73332 0.23114 0.0
C137 C 0.83419 0.79557 0.3646 0.0
C138 C 0.87808 0.82415 0.36616 0.0
C139 C 0.8361 0.83943 0.39229 0.0
C140 C 0.8209 0.81541 0.38248 0.0
C141 C 0.86497 0.84403 0.38443 0.0
C142 C 0.86281 0.8002 0.35628 0.0
C143 C 0.8181 0.76998 0.35527 0.0
O144 O 0.78213 0.71407 0.29695 0.0
O145 O 0.81016 0.68761 0.32404 0.0
O146 O 0.83154 0.74549 0.3584 0.0
O147 O 0.80461 0.77233 0.33055 0.0
H148 H 0.77132 0.70445 0.36573 0.0
H149 H 0.73044 0.68707 0.39396 0.0
H150 H 0.70119 0.63702 0.32166 0.0
H151 H 0.74271 0.65385 0.29397 0.0
H152 H 0.87022 0.65334 0.22325 0.0
H153 H 0.85228 0.68072 0.26381 0.0
H154 H 0.91535 0.72873 0.19213 0.0
H155 H 0.89802 0.75562 0.23335 0.0
H156 H 0.90036 0.82671 0.35996 0.0
H157 H 0.82516 0.85445 0.40595 0.0
H158 H 0.79876 0.81223 0.38901 0.0
H159 H 0.87344 0.78511 0.34243 0.0
C160 C 0.88619 0.8202 0.93699 0.0
C161 C 0.91357 0.81174 0.92809 0.0
C162 C 0.91256 0.77182 0.96223 0.0
C163 C 0.92665 0.7878 0.94061 0.0
C164 C 0.88493 0.78022 0.97075 0.0
C165 C 0.87192 0.80424 0.95827 0.0
U166 U 0.88236 0.88062 0.88107 0.0
O167 O 0.84491 0.89973 0.85949 0.0
O168 O 0.87264 0.92629 0.88683 0.0
C169 C 0.84849 0.92461 0.87214 0.0
C170 C 0.87252 0.84586 0.92467 0.0
C171 C 0.82282 0.93741 0.88569 0.0
C172 C 0.80157 0.97599 0.91319 0.0
C173 C 0.82557 0.96324 0.90078 0.0
C174 C 0.77129 0.93773 0.89513 0.0
C175 C 0.77413 0.96338 0.91057 0.0
C176 C 0.79532 0.92489 0.88284 0.0
C177 C 0.93892 0.88543 0.82154 0.0
C178 C 0.94387 0.92642 0.78943 0.0
C179 C 0.97205 0.88389 0.78136 0.0
C180 C 0.95936 0.87081 0.80536 0.0
C181 C 0.9646 0.91195 0.7732 0.0
C182 C 0.93111 0.91327 0.81334 0.0
C183 C 0.9262 0.87147 0.84701 0.0
O184 O 0.88755 0.86974 0.92675 0.0
O185 O 0.8605 0.8426 0.89933 0.0
O186 O 0.90072 0.85969 0.8432 0.0
O187 O 0.92825 0.88594 0.87101 0.0
H188 H 0.92486 0.82373 0.91155 0.0
H189 H 0.94772 0.78168 0.93319 0.0
H190 H 0.87358 0.76857 0.98746 0.0
H191 H 0.85077 0.8105 0.96543 0.0
H192 H 0.80449 0.99593 0.9246 0.0
H193 H 0.84635 0.97369 0.90294 0.0
H194 H 0.75053 0.92727 0.89296 0.0
H195 H 0.79229 0.90514 0.87115 0.0
H196 H 0.93727 0.94785 0.78349 0.0
H197 H 0.98807 0.87222 0.76952 0.0
H198 H 0.96565 0.84929 0.8114 0.0
H199 H 0.91522 0.92483 0.82547 0.0
C200 C 0.61555 0.16497 0.31525 0.0
C201 C 0.62745 0.16814 0.28769 0.0
C202 C 0.58804 0.14034 0.26689 0.0
C203 C 0.61386 0.15595 0.26382 0.0
C204 C 0.57603 0.13739 0.2944 0.0
C205 C 0.58954 0.14968 0.31825 0.0
U206 U 0.67265 0.16921 0.37551 0.0
O207 O 0.69623 0.20657 0.39225 0.0
O208 O 0.66755 0.18196 0.42057 0.0
C209 C 0.68367 0.20503 0.41743 0.0
C210 C 0.62913 0.17865 0.34064 0.0
C211 C 0.67092 0.23186 0.42746 0.0
C212 C 0.63844 0.27178 0.42044 0.0
C213 C 0.64985 0.24586 0.41112 0.0
C214 C 0.66865 0.26974 0.46285 0.0
C215 C 0.64784 0.28416 0.44633 0.0
C216 C 0.68012 0.24385 0.45344 0.0
C217 C 0.73077 0.11104 0.38216 0.0
C218 C 0.78208 0.11102 0.393 0.0
C219 C 0.75217 0.07113 0.40836 0.0
C220 C 0.72817 0.08427 0.39594 0.0
C221 C 0.77943 0.08433 0.40701 0.0
C222 C 0.75805 0.12425 0.38075 0.0
C223 C 0.70516 0.12409 0.36841 0.0
O224 O 0.62658 0.16481 0.3652 0.0
O225 O 0.65479 0.19015 0.33702 0.0
O226 O 0.70914 0.14846 0.35456 0.0
O227 O 0.68132 0.12348 0.38347 0.0
H228 H 0.64727 0.18004 0.28446 0.0
H229 H 0.62388 0.15836 0.243 0.0
H230 H 0.55598 0.12582 0.29748 0.0
H231 H 0.57952 0.14731 0.33907 0.0
H232 H 0.62212 0.28204 0.40742 0.0
H233 H 0.64235 0.23681 0.39108 0.0
H234 H 0.67653 0.27877 0.48274 0.0
H235 H 0.69638 0.2333 0.46633 0.0
H236 H 0.80269 0.12195 0.3919 0.0
H237 H 0.74944 0.05044 0.41872 0.0
H238 H 0.70753 0.07339 0.39702 0.0
H239 H 0.76092 0.14482 0.37019 0.0
C240 C 0.32292 0.61128 0.16342 0.0
C241 C 0.31434 0.61923 0.13564 0.0
C242 C 0.27485 0.58455 0.13754 0.0
C243 C 0.29055 0.60596 0.1228 0.0
C244 C 0.28347 0.57685 0.1655 0.0
C245 C 0.30735 0.59008 0.17828 0.0
U246 U 0.38246 0.6682 0.16494 0.0
O247 O 0.39978 0.69307 0.20104 0.0
O248 O 0.42789 0.66399 0.17769 0.0
C249 C 0.42495 0.68055 0.20013 0.0
C250 C 0.34811 0.6248 0.17702 0.0
C251 C 0.43486 0.66827 0.22755 0.0
C252 C 0.42709 0.63667 0.26845 0.0
C253 C 0.41813 0.64762 0.24194 0.0
C254 C 0.47002 0.66639 0.26623 0.0
C255 C 0.45303 0.64609 0.28105 0.0
C256 C 0.46094 0.67745 0.23971 0.0
C257 C 0.38815 0.72415 0.10496 0.0
C258 C 0.429 0.75663 0.10051 0.0
C259 C 0.38667 0.76391 0.07097 0.0
C260 C 0.37362 0.73989 0.08375 0.0
C261 C 0.41458 0.77249 0.07911 0.0
C262 C 0.41587 0.73274 0.11336 0.0
C263 C 0.37409 0.69907 0.11832 0.0
O264 O 0.37245 0.62214 0.16312 0.0
O265 O 0.34414 0.6508 0.18676 0.0
O266 O 0.36104 0.70397 0.14272 0.0
O267 O 0.38922 0.67541 0.11878 0.0
H268 H 0.32605 0.63569 0.12391 0.0
H269 H 0.28422 0.61275 0.10144 0.0
H270 H 0.27201 0.56031 0.17734 0.0
H271 H 0.31373 0.58369 0.19976 0.0
H272 H 0.41375 0.62071 0.27904 0.0
H273 H 0.39801 0.64014 0.23274 0.0
H274 H 0.48999 0.6742 0.27543 0.0
H275 H 0.47412 0.69337 0.22885 0.0
H276 H 0.45031 0.76294 0.10763 0.0
H277 H 0.37508 0.77553 0.05445 0.0
H278 H 0.35217 0.73358 0.07705 0.0
H279 H 0.42733 0.721 0.12991 0.0
C280 C 0.11698 0.32295 0.63435 0.0
C281 C 0.13986 0.31042 0.61959 0.0
C282 C 0.10663 0.27694 0.59668 0.0
C283 C 0.13474 0.28749 0.60099 0.0
C284 C 0.08381 0.28997 0.61124 0.0
C285 C 0.08896 0.31272 0.62988 0.0
U286 U 0.16269 0.38421 0.66442 0.0
O287 O 0.14969 0.42645 0.68035 0.0
O288 O 0.17149 0.39606 0.70912 0.0
C289 C 0.15789 0.42053 0.70674 0.0
C290 C 0.12185 0.34631 0.65483 0.0
C291 C 0.13685 0.42667 0.72935 0.0
C292 C 0.10115 0.41128 0.76442 0.0
C293 C 0.11998 0.40491 0.74202 0.0
C294 C 0.11525 0.46128 0.76109 0.0
C295 C 0.09867 0.43955 0.7743 0.0
C296 C 0.13414 0.45487 0.7389 0.0
C297 C 0.23575 0.4014 0.62974 0.0
C298 C 0.26388 0.44547 0.6334 0.0
C299 C 0.28659 0.40162 0.61835 0.0
C300 C 0.26041 0.38702 0.6209 0.0
C301 C 0.28868 0.43101 0.62453 0.0
C302 C 0.23762 0.43073 0.63615 0.0
C303 C 0.2085 0.3852 0.63179 0.0
O304 O 0.14274 0.3423 0.67348 0.0
O305 O 0.12161 0.37233 0.64386 0.0
O306 O 0.1849 0.39926 0.62552 0.0
O307 O 0.2059 0.36839 0.65439 0.0
H308 H 0.16166 0.31819 0.62267 0.0
H309 H 0.15273 0.27807 0.58995 0.0
H310 H 0.06197 0.28209 0.60883 0.0
H311 H 0.07106 0.32211 0.64113 0.0
H312 H 0.08854 0.39413 0.774 0.0
H313 H 0.1216 0.38298 0.73482 0.0
H314 H 0.11425 0.48319 0.76845 0.0
H315 H 0.14699 0.47193 0.72944 0.0
H316 H 0.26486 0.46806 0.63844 0.0
H317 H 0.30512 0.38994 0.61097 0.0
H318 H 0.25937 0.36443 0.61577 0.0
H319 H 0.21884 0.44223 0.64318 0.0
Zn320 Zn 0.99049 0.05609 0.55776 0.0
Zn321 Zn 0.05655 0.99309 0.49168 0.0
Zn322 Zn 0.02387 0.025 0.52538 0.0
C323 C 0.07509 0.04976 0.48395 0.0
C324 C 0.99984 0.98437 0.47383 0.0
O325 O 0.02666 0.00806 0.57038 0.0
O326 O 0.99935 0.03756 0.59495 0.0
C327 C 0.03066 0.09358 0.53338 0.0
O328 O 0.05488 0.05388 0.50233 0.0
O329 O 0.08092 0.02466 0.47608 0.0
O330 O 0.02512 0.97736 0.4673 0.0
O331 O 0.99552 1.00202 0.49449 0.0
O332 O 0.00853 0.09361 0.54893 0.0
O333 O 0.03988 0.06997 0.52276 0.0
O334 O 0.9788 0.0227 0.50859 0.0
O335 O 0.9531 0.04749 0.53934 0.0
C336 C 0.95447 0.03281 0.5168 0.0
O337 O 0.04686 0.99367 0.55345 0.0
O338 O 0.07214 0.9683 0.52274 0.0
C339 C 0.0155 0.01599 0.59431 0.0
C340 C 0.06475 0.97342 0.54821 0.0
Zn341 Zn 0.4955 0.05492 0.99029 0.0
Zn342 Zn 0.55972 0.98932 0.05756 0.0
Zn343 Zn 0.52734 0.02164 0.02409 0.0
C344 C 0.59625 0.01178 0.01587 0.0
C345 C 0.51817 0.95309 0.03361 0.0
O346 O 0.50412 0.05261 0.0519 0.0
O347 O 0.47911 0.07881 0.02112 0.0
C348 C 0.55238 0.06312 0.9731 0.0
O349 O 0.5724 0.02323 0.00762 0.0
O350 O 0.59695 0.99639 0.03824 0.0
O351 O 0.53978 0.95253 0.05006 0.0
O352 O 0.51033 0.97688 0.02179 0.0
O353 O 0.52727 0.07102 0.96663 0.0
O354 O 0.5563 0.04462 0.99344 0.0
O355 O 0.49575 0.99359 1.00131 0.0
O356 O 0.4709 0.02388 0.97436 0.0
C357 C 0.47576 0.99858 0.9827 0.0
O358 O 0.52524 0.03864 0.06863 0.0
O359 O 0.55225 0.00902 0.09413 0.0
C360 C 0.48603 0.07284 0.04668 0.0
C361 C 0.53659 0.03092 0.09276 0.0
Zn362 Zn 0.56417 0.55672 0.5544 0.0
Zn363 Zn 0.49878 0.49587 0.494 0.0
Zn364 Zn 0.52968 0.52465 0.52254 0.0
C365 C 0.54773 0.46556 0.49674 0.0
C366 C 0.50328 0.54521 0.46395 0.0
O367 O 0.5023 0.54602 0.55508 0.0
O368 O 0.53338 0.57369 0.57827 0.0
C369 C 0.58047 0.49925 0.56262 0.0
O370 O 0.54907 0.48119 0.51939 0.0
O371 O 0.52892 0.47082 0.4779 0.0
O372 O 0.48352 0.52733 0.46949 0.0
O373 O 0.52641 0.54514 0.4793 0.0
O374 O 0.58651 0.52428 0.57098 0.0
O375 O 0.56073 0.4952 0.54351 0.0
O376 O 0.55127 0.55578 0.49326 0.0
O377 O 0.5809 0.57945 0.52211 0.0
C378 C 0.57137 0.57461 0.49719 0.0
O379 O 0.48692 0.52289 0.54355 0.0
O380 O 0.47458 0.48089 0.5259 0.0
C381 C 0.50788 0.56504 0.57429 0.0
C382 C 0.47051 0.50051 0.54383 0.0
Zn383 Zn 0.06085 0.56083 0.99093 0.0
Zn384 Zn 0.99514 0.49479 0.05701 0.0
Zn385 Zn 0.02811 0.52774 0.02318 0.0
C386 C 0.05219 0.48476 0.07335 0.0
C387 C 0.98499 0.47771 1.00009 0.0
O388 O 0.01209 0.57273 0.0256 0.0
O389 O 0.04268 0.59791 0.9991 0.0
C390 C 0.09729 0.53604 0.03107 0.0
O391 O 0.05662 0.50359 0.05336 0.0
O392 O 0.02682 0.47738 0.07981 0.0
O393 O 0.97749 0.47205 0.02554 0.0
O394 O 1.004 0.49741 0.99511 0.0
O395 O 0.09815 0.55228 0.00932 0.0
O396 O 0.0732 0.52483 0.03927 0.0
O397 O 0.02465 0.51204 0.9783 0.0
O398 O 0.05179 0.54272 0.95381 0.0
C399 C 0.03559 0.52091 0.95441 0.0
O400 O 0.9982 0.55597 0.04678 0.0
O401 O 0.97256 0.52632 0.07398 0.0
C402 C 0.02053 0.59685 0.01461 0.0
C403 C 0.97856 0.55153 0.06581 0.0
H404 H 0.19037 0.14141 0.37132 0.0
H405 H 0.05442 0.1032 0.47023 0.0
H406 H 0.10966 0.18607 0.36584 0.0
H407 H 0.12978 0.05063 0.46363 0.0
H408 H 0.07736 0.13889 0.4386 0.0
H409 H 0.17109 0.11252 0.41077 0.0
C410 C 0.16858 0.14516 0.37833 0.0
C411 C 0.15158 0.1661 0.36488 0.0
C412 C 0.08903 0.11973 0.44445 0.0
C413 C 0.12942 0.13321 0.41058 0.0
C414 C 0.07609 0.09954 0.46281 0.0
C415 C 0.09025 0.07395 0.46964 0.0
C416 C 0.11632 0.11425 0.43291 0.0
C417 C 0.11804 0.07001 0.45881 0.0
C418 C 0.15763 0.12876 0.40105 0.0
C419 C 0.1237 0.17037 0.37556 0.0
N420 N 0.13005 0.08979 0.44088 0.0
N421 N 0.11345 0.15397 0.39762 0.0
H422 H 0.42564 0.88122 0.85205 0.0
H423 H 0.41831 0.99731 0.97395 0.0
H424 H 0.34596 0.91241 0.88652 0.0
H425 H 0.49471 0.94782 0.96048 0.0
H426 H 0.39127 0.96426 0.94364 0.0
H427 H 0.45144 0.90292 0.89251 0.0
C428 C 0.41348 0.89223 0.86828 0.0
C429 C 0.38356 0.8954 0.86549 0.0
C430 C 0.41382 0.9602 0.94761 0.0
C431 C 0.41306 0.92056 0.91168 0.0
C432 C 0.42923 0.97906 0.96499 0.0
C433 C 0.45872 0.97525 0.96962 0.0
C434 C 0.42814 0.93773 0.93402 0.0
C435 C 0.47193 0.95135 0.95746 0.0
C436 C 0.42826 0.90466 0.89137 0.0
C437 C 0.36907 0.91006 0.88722 0.0
N438 N 0.45665 0.93374 0.9397 0.0
N439 N 0.38396 0.92234 0.9091 0.0
H440 H 0.69304 0.40352 0.67413 0.0
H441 H 0.5562 0.44837 0.57938 0.0
H442 H 0.6095 0.36321 0.68192 0.0
H443 H 0.63591 0.49608 0.58124 0.0
H444 H 0.57763 0.41222 0.61119 0.0
H445 H 0.67441 0.43345 0.63522 0.0
C446 C 0.67077 0.40095 0.66773 0.0
C447 C 0.6528 0.3809 0.68162 0.0
C448 C 0.5906 0.43035 0.60427 0.0
C449 C 0.63138 0.41496 0.63661 0.0
C450 C 0.57849 0.45076 0.58582 0.0
C451 C 0.59448 0.47495 0.57735 0.0
C452 C 0.61884 0.43433 0.61447 0.0
C453 C 0.62293 0.4776 0.58714 0.0
C454 C 0.66019 0.41794 0.64533 0.0
C455 C 0.62428 0.37815 0.67179 0.0
N456 N 0.63416 0.45763 0.60526 0.0
N457 N 0.61444 0.39507 0.65004 0.0
H458 H 0.94807 0.69171 0.17984 0.0
H459 H 0.92369 0.55228 0.08538 0.0
H460 H 0.86655 0.64733 0.17272 0.0
H461 H 1.00024 0.60469 0.07939 0.0
H462 H 0.90168 0.58852 0.11539 0.0
H463 H 0.96694 0.66196 0.14147 0.0
C464 C 0.93398 0.67598 0.17003 0.0
C465 C 0.90566 0.67194 0.17982 0.0
C466 C 0.92314 0.59239 0.10722 0.0
C467 C 0.9274 0.63745 0.13604 0.0
C468 C 0.9357 0.57169 0.09005 0.0
C469 C 0.9638 0.57553 0.07987 0.0
C470 C 0.93897 0.61696 0.1148 0.0
C471 C 0.97841 0.60105 0.08657 0.0
C472 C 0.94486 0.65891 0.14815 0.0
C473 C 0.88866 0.65088 0.16642 0.0
N474 N 0.96596 0.62067 0.10395 0.0
N475 N 0.89985 0.63435 0.14543 0.0
H476 H 0.37778 0.11088 0.19229 0.0
H477 H 0.46412 0.12656 0.04468 0.0
H478 H 0.36312 0.17717 0.12892 0.0
H479 H 0.47275 0.05352 0.10117 0.0
H480 H 0.43228 0.14867 0.07927 0.0
H481 H 0.41668 0.09241 0.16269 0.0
C482 C 0.38265 0.12159 0.17218 0.0
C483 C 0.36684 0.14561 0.16311 0.0
C484 C 0.44135 0.12796 0.08436 0.0
C485 C 0.41184 0.12472 0.12929 0.0
C486 C 0.45967 0.11535 0.06464 0.0
C487 C 0.47115 0.08812 0.07002 0.0
C488 C 0.4341 0.11321 0.10971 0.0
C489 C 0.46466 0.07466 0.09628 0.0
C490 C 0.40504 0.1111 0.15539 0.0
C491 C 0.37474 0.15885 0.1371 0.0
N492 N 0.44631 0.08721 0.11505 0.0
N493 N 0.3965 0.14818 0.12114 0.0
H494 H 0.16037 0.84039 0.63169 0.0
H495 H 0.08657 0.99192 0.59986 0.0
H496 H 0.1959 0.92016 0.6626 0.0
H497 H 0.07458 0.91642 0.54845 0.0
H498 H 0.11791 0.96424 0.63246 0.0
H499 H 0.12034 0.86658 0.61052 0.0
C500 C 0.15977 0.86343 0.6341 0.0
C501 C 0.18199 0.8781 0.64846 0.0
C502 C 0.10796 0.95369 0.61431 0.0
C503 C 0.1357 0.90828 0.62453 0.0
C504 C 0.08993 0.96937 0.59591 0.0
C505 C 0.07819 0.95639 0.57141 0.0
C506 C 0.11379 0.92485 0.60826 0.0
C507 C 0.0834 0.92723 0.56702 0.0
C508 C 0.13677 0.87836 0.62214 0.0
C509 C 0.17937 0.90791 0.65167 0.0
N510 N 0.10087 0.91251 0.58513 0.0
N511 N 0.15682 0.92208 0.63953 0.0
H512 H 0.86263 0.3686 0.91596 0.0
H513 H 0.97363 0.49678 0.94516 0.0
H514 H 0.87994 0.43558 0.85381 0.0
H515 H 0.96095 0.42448 1.00199 0.0
H516 H 0.94261 0.47336 0.90952 0.0
H517 H 0.90115 0.38743 0.94601 0.0
C518 C 0.87472 0.38706 0.90838 0.0
C519 C 0.86781 0.40049 0.88222 0.0
C520 C 0.94698 0.46245 0.92962 0.0
C521 C 0.91192 0.42267 0.91708 0.0
C522 C 0.96498 0.47567 0.94983 0.0
C523 C 0.97006 0.46248 0.97651 0.0
C524 C 0.93378 0.436 0.93632 0.0
C525 C 0.95752 0.43549 0.98176 0.0
C526 C 0.8967 0.39795 0.92572 0.0
C527 C 0.88407 0.42476 0.874 0.0
N528 N 0.93985 0.4233 0.962 0.0
N529 N 0.90522 0.43516 0.89143 0.0
H530 H 0.6795 0.68953 0.39909 0.0
H531 H 0.58786 0.55098 0.44662 0.0
H532 H 0.68906 0.6062 0.36095 0.0
H533 H 0.58942 0.63012 0.4935 0.0
H534 H 0.61889 0.57311 0.41006 0.0
H535 H 0.64124 0.67008 0.42942 0.0
C536 C 0.67362 0.66714 0.39707 0.0
C537 C 0.68783 0.64947 0.37753 0.0
C538 C 0.61208 0.5858 0.4281 0.0
C539 C 0.64357 0.62712 0.41203 0.0
C540 C 0.5941 0.57328 0.44874 0.0
C541 C 0.58572 0.58895 0.47276 0.0
C542 C 0.62192 0.61411 0.4317 0.0
C543 C 0.59522 0.61743 0.47511 0.0
C544 C 0.6516 0.65609 0.41429 0.0
C545 C 0.67866 0.62076 0.37547 0.0
N546 N 0.61289 0.62907 0.45491 0.0
N547 N 0.65726 0.61047 0.3926 0.0
H548 H 0.14556 0.37154 0.18635 0.0
H549 H 0.10514 0.47128 0.0514 0.0
H550 H 0.18835 0.36682 0.10455 0.0
H551 H 0.05333 0.46268 0.12751 0.0
H552 H 0.14092 0.43943 0.07334 0.0
H553 H 0.11619 0.41051 0.16754 0.0
C554 C 0.1488 0.37861 0.16441 0.0
C555 C 0.16936 0.36551 0.14699 0.0
C556 C 0.12189 0.44484 0.08536 0.0
C557 C 0.13591 0.41069 0.12535 0.0
C558 C 0.10163 0.46327 0.07297 0.0
C559 C 0.07626 0.46969 0.08769 0.0
C560 C 0.11671 0.43281 0.11265 0.0
C561 C 0.07254 0.4582 0.11536 0.0
C562 C 0.13211 0.40105 0.15373 0.0
C563 C 0.17297 0.37628 0.11892 0.0
N564 N 0.0924 0.44026 0.12685 0.0
N565 N 0.15633 0.39808 0.10895 0.0
H566 H 0.6488 0.17194 0.85779 0.0
H567 H 0.60596 0.07598 0.99474 0.0
H568 H 0.69091 0.17912 0.94016 0.0
H569 H 0.55393 0.08361 0.91835 0.0
H570 H 0.64273 0.1066 0.97211 0.0
H571 H 0.61887 0.1332 0.87709 0.0
C572 C 0.6518 0.16543 0.87994 0.0
C573 C 0.67227 0.17918 0.89741 0.0
C574 C 0.62343 0.10123 0.96017 0.0
C575 C 0.63821 0.13433 0.91958 0.0
C576 C 0.60259 0.08351 0.97297 0.0
C577 C 0.57689 0.07723 0.95837 0.0
C578 C 0.61847 0.11268 0.93261 0.0
C579 C 0.57338 0.08804 0.93041 0.0
C580 C 0.63479 0.14314 0.89089 0.0
C581 C 0.67559 0.16914 0.92576 0.0
N582 N 0.59382 0.10532 0.91852 0.0
N583 N 0.65863 0.14748 0.936 0.0
H584 H 0.905 0.87757 0.35641 0.0
H585 H 0.94666 0.96978 0.49499 0.0
H586 H 0.86291 0.86765 0.4383 0.0
H587 H 0.99858 0.96558 0.41876 0.0
H588 H 0.91029 0.93946 0.47163 0.0
H589 H 0.93444 0.91614 0.37641 0.0
C590 C 0.90191 0.88346 0.3786 0.0
C591 C 0.88159 0.869 0.39574 0.0
C592 C 0.92947 0.94551 0.45989 0.0
C593 C 0.91507 0.9136 0.4187 0.0
C594 C 0.95007 0.96308 0.4731 0.0
C595 C 0.97562 0.97024 0.45875 0.0
C596 C 0.93452 0.93509 0.43217 0.0
C597 C 0.97923 0.96044 0.43064 0.0
C598 C 0.91862 0.90564 0.38995 0.0
C599 C 0.87812 0.87821 0.42416 0.0
N600 N 0.95902 0.94326 0.41834 0.0
N601 N 0.89481 0.89976 0.43479 0.0
H602 H 0.38763 0.69281 0.62353 0.0
H603 H 0.50879 0.57523 0.63132 0.0
H604 H 0.42346 0.6611 0.70309 0.0
H605 H 0.45588 0.58591 0.55601 0.0
H606 H 0.47592 0.60524 0.65816 0.0
H607 H 0.41017 0.65299 0.59834 0.0
C608 C 0.39985 0.67731 0.6358 0.0
C609 C 0.40403 0.68071 0.66548 0.0
C610 C 0.47109 0.6007 0.63591 0.0
C611 C 0.43016 0.63527 0.63666 0.0
C612 C 0.48984 0.5835 0.62062 0.0
C613 C 0.48494 0.57808 0.59149 0.0
C614 C 0.4476 0.61333 0.62181 0.0
C615 C 0.46019 0.58941 0.57855 0.0
C616 C 0.41278 0.6546 0.62136 0.0
C617 C 0.42027 0.65994 0.68012 0.0
N618 N 0.44266 0.60699 0.59367 0.0
N619 N 0.43295 0.63841 0.66556 0.0
H620 H 0.98348 0.96751 0.76824 0.0
H621 H 0.01956 0.95749 0.6008 0.0
H622 H 0.9774 0.88881 0.7206 0.0
H623 H 0.01699 0.03602 0.64869 0.0
H624 H 0.01285 0.93039 0.64577 0.0
H625 H 1.00328 0.9914 0.72593 0.0
C626 C 0.98627 0.95523 0.74885 0.0
C627 C 0.97834 0.92617 0.74793 0.0
C628 C 0.01429 0.95354 0.64646 0.0
C629 C 1.00137 0.95345 0.6992 0.0
C630 C 0.01845 0.96897 0.62085 0.0
C631 C 0.01867 0.99903 0.62105 0.0
C632 C 0.01037 0.96837 0.67231 0.0
C633 C 0.01669 0.01286 0.64756 0.0
C634 C 0.99779 0.96885 0.7247 0.0
C635 C 0.98321 0.91123 0.72234 0.0
N636 N 0.01235 0.99748 0.672 0.0
N637 N 0.99414 0.92509 0.69892 0.0
H638 H 0.58104 0.16214 0.2123 0.0
H639 H 0.53312 0.01203 0.1478 0.0
H640 H 0.56352 0.08684 0.26382 0.0
H641 H 0.53571 0.08954 0.09697 0.0
H642 H 0.53973 0.04035 0.19107 0.0
H643 H 0.56136 0.13736 0.17036 0.0
C644 C 0.57297 0.14044 0.21483 0.0
C645 C 0.57419 0.12648 0.24162 0.0
C646 C 0.53839 0.05134 0.17057 0.0
C647 C 0.55146 0.09805 0.19371 0.0
C648 C 0.53451 0.03515 0.14586 0.0
C649 C 0.53399 0.04848 0.11881 0.0
C650 C 0.54244 0.08111 0.16826 0.0
C651 C 0.53589 0.07847 0.11747 0.0
C652 C 0.56152 0.12639 0.19092 0.0
C653 C 0.56292 0.09854 0.24369 0.0
N654 N 0.54055 0.09379 0.14184 0.0
N655 N 0.55234 0.08519 0.22005 0.0
H656 H 0.41932 0.63764 0.32826 0.0
H657 H 0.54223 0.56415 0.42363 0.0
H658 H 0.50686 0.62964 0.29939 0.0
H659 H 0.45359 0.57078 0.44862 0.0
H660 H 0.53179 0.5928 0.38044 0.0
H661 H 0.43318 0.61726 0.37447 0.0
C662 C 0.44149 0.63151 0.33162 0.0
C663 C 0.46186 0.63503 0.30975 0.0
C664 C 0.51474 0.58835 0.39562 0.0
C665 C 0.47807 0.61177 0.36296 0.0
C666 C 0.52085 0.57238 0.42046 0.0
C667 C 0.49889 0.56544 0.43984 0.0
C668 C 0.4864 0.59729 0.39024 0.0
C669 C 0.47116 0.57562 0.43416 0.0
C670 C 0.44946 0.62001 0.35813 0.0
C671 C 0.49045 0.62734 0.31565 0.0
N672 N 0.46571 0.59088 0.40989 0.0
N673 N 0.49767 0.61585 0.34162 0.0
H674 H 0.09151 0.40939 0.82473 0.0
H675 H 0.0244 0.54302 0.90181 0.0
H676 H 0.06335 0.48571 0.78046 0.0
H677 H 0.03967 0.46308 0.94583 0.0
H678 H 0.031 0.5192 0.85602 0.0
H679 H 0.0662 0.42509 0.86771 0.0
C680 C 0.07955 0.42917 0.82385 0.0
C681 C 0.08001 0.44652 0.79908 0.0
C682 C 0.03238 0.50659 0.87557 0.0
C683 C 0.05125 0.46476 0.8483 0.0
C684 C 0.02846 0.5202 0.9017 0.0
C685 C 0.03173 0.50498 0.9275 0.0
C686 C 0.04046 0.47767 0.87521 0.0
C687 C 0.03699 0.4755 0.9263 0.0
C688 C 0.06516 0.43817 0.84845 0.0
C689 C 0.06422 0.47199 0.79928 0.0
N690 N 0.04186 0.46287 0.90054 0.0
N691 N 0.05084 0.48048 0.82355 0.0
H692 H 0.77109 0.98716 0.96401 0.0
H693 H 0.60127 0.01451 0.95718 0.0
H694 H 0.71919 0.96938 0.88919 0.0
H695 H 0.65139 0.01273 0.03516 0.0
H696 H 0.64562 0.00798 0.92954 0.0
H697 H 0.72874 1.00603 0.98783 0.0
C698 C 0.75086 0.98753 0.95243 0.0
C699 C 0.74872 0.97644 0.92459 0.0
C700 C 0.6469 0.00947 0.95268 0.0
C701 C 0.69991 0.9979 0.95194 0.0
C702 C 0.62167 0.01349 0.96841 0.0
C703 C 0.6227 0.01403 0.99848 0.0
C704 C 0.67326 1.00614 0.9672 0.0
C705 C 0.64964 0.01222 0.012 0.0
C706 C 0.72662 0.99819 0.96612 0.0
C707 C 0.72177 0.97725 0.91083 0.0
N708 N 0.67376 0.00817 0.99631 0.0
N709 N 0.6984 0.98766 0.92467 0.0
H710 H 0.83443 0.08027 0.38609 0.0
H711 H 0.89931 0.02772 0.53507 0.0
H712 H 0.78249 0.0574 0.45938 0.0
H713 H 0.95006 0.03384 0.45809 0.0
H714 H 0.85583 0.03454 0.50648 0.0
H715 H 0.87659 0.06068 0.41075 0.0
C716 C 0.83187 0.07105 0.40733 0.0
C717 C 0.80488 0.07072 0.42078 0.0
C718 C 0.87637 0.03392 0.49566 0.0
C719 C 0.85306 0.04812 0.44907 0.0
C720 C 0.9012 0.02992 0.512 0.0
C721 C 0.92828 0.03032 0.49892 0.0
C722 C 0.87861 0.03901 0.46602 0.0
C723 C 0.92954 0.03327 0.46897 0.0
C724 C 0.85591 0.05966 0.42129 0.0
C725 C 0.80278 0.05803 0.44811 0.0
N726 N 0.90507 0.03802 0.45355 0.0
N727 N 0.82656 0.04755 0.46143 0.0
H728 H 0.22267 0.57038 0.16169 0.0
H729 H 0.15161 0.53295 0.01066 0.0
H730 H 0.26925 0.56666 0.08198 0.0
H731 H 0.10369 0.53258 0.08959 0.0
H732 H 0.19608 0.53822 0.03798 0.0
H733 H 0.18025 0.5505 0.13741 0.0
C734 C 0.22411 0.56506 0.13918 0.0
C735 C 0.2495 0.57057 0.12377 0.0
C736 C 0.17595 0.53656 0.04949 0.0
C737 C 0.20095 0.54796 0.09583 0.0
C738 C 0.15056 0.53342 0.03387 0.0
C739 C 0.12399 0.53253 0.04791 0.0
C740 C 0.17481 0.5394 0.07943 0.0
C741 C 0.1238 0.53313 0.07799 0.0
C742 C 0.19984 0.55378 0.12532 0.0
C743 C 0.25 0.5634 0.0946 0.0
N744 N 0.14884 0.53703 0.09278 0.0
N745 N 0.22609 0.5527 0.08159 0.0
H746 H 0.34197 0.41284 0.64095 0.0
H747 H 0.42666 0.53729 0.55652 0.0
H748 H 0.29917 0.4839 0.59992 0.0
H749 H 0.46079 0.45413 0.57716 0.0
H750 H 0.38267 0.52468 0.58334 0.0
H751 H 0.38825 0.43455 0.62876 0.0
C752 C 0.34232 0.43314 0.62952 0.0
C753 C 0.31665 0.44626 0.62091 0.0
C754 C 0.40009 0.50949 0.58248 0.0
C755 C 0.3697 0.47136 0.60695 0.0
C756 C 0.42521 0.51679 0.56747 0.0
C757 C 0.44716 0.49664 0.56472 0.0
C758 C 0.39732 0.48204 0.59493 0.0
C759 C 0.4442 0.47016 0.57876 0.0
C760 C 0.36876 0.44559 0.62266 0.0
C761 C 0.31844 0.47298 0.60685 0.0
N762 N 0.41969 0.46357 0.59309 0.0
N763 N 0.34454 0.48448 0.59992 0.0
H764 H 0.88866 0.71956 0.97709 0.0
H765 H 0.04065 0.65147 0.01679 0.0
H766 H 0.9689 0.76665 0.97867 0.0
H767 H 0.96176 0.60232 0.01676 0.0
H768 H 0.01315 0.69512 0.00968 0.0
H769 H 0.91337 0.67781 0.99728 0.0
C770 C 0.9114 0.72124 0.98194 0.0
C771 C 0.92678 0.74662 0.97582 0.0
C772 C 1.00168 0.67492 0.01163 0.0
C773 C 0.9552 0.69883 0.99887 0.0
C774 C 0.01741 0.64998 0.01586 0.0
C775 C 1.00346 0.62325 0.0172 0.0
C776 C 0.97171 0.6732 0.00821 0.0
C777 C 0.97331 0.62254 0.01593 0.0
C778 C 0.9255 0.69735 0.99341 0.0
C779 C 0.95625 0.74742 0.98241 0.0
N780 N 0.95842 0.64714 0.01102 0.0
N781 N 0.96946 0.7239 0.99339 0.0
H782 H 0.47036 0.77816 0.06143 0.0
H783 H 0.45959 0.94618 0.02778 0.0
H784 H 0.39091 0.82484 0.06586 0.0
H785 H 0.53871 0.89902 0.03301 0.0
H786 H 0.43263 0.90085 0.03268 0.0
H787 H 0.49428 0.8211 0.04289 0.0
C788 C 0.45792 0.79747 0.05848 0.0
C789 C 0.42867 0.79798 0.06564 0.0
C790 C 0.45589 0.90043 0.03225 0.0
C791 C 0.45595 0.84742 0.04417 0.0
C792 C 0.47125 0.92624 0.02915 0.0
C793 C 0.50139 0.9263 0.03015 0.0
C794 C 0.4709 0.87465 0.03633 0.0
C795 C 0.51547 0.89994 0.03241 0.0
C796 C 0.47155 0.82198 0.04771 0.0
C797 C 0.4135 0.82346 0.06065 0.0
N798 N 0.50014 0.87528 0.03567 0.0
N799 N 0.42738 0.84727 0.05051 0.0
H800 H 0.13769 0.22727 0.59276 0.0
H801 H 0.00801 0.14512 0.52013 0.0
H802 H 0.06245 0.26891 0.55844 0.0
H803 H 0.08837 0.10408 0.5397 0.0
H804 H 0.03096 0.19173 0.52685 0.0
H805 H 0.12378 0.18351 0.56744 0.0
C806 C 0.11855 0.22741 0.57946 0.0
C807 C 0.10091 0.25167 0.57818 0.0
C808 C 0.04387 0.17267 0.52914 0.0
C809 C 0.08471 0.20154 0.5494 0.0
C810 C 0.03076 0.14606 0.52516 0.0
C811 C 0.04633 0.12088 0.52961 0.0
C812 C 0.07259 0.17411 0.5385 0.0
C813 C 0.0757 0.12313 0.5361 0.0
C814 C 0.11057 0.20237 0.56507 0.0
C815 C 0.0763 0.25052 0.56069 0.0
N816 N 0.0878 0.14934 0.54104 0.0
N817 N 0.06876 0.22581 0.54734 0.0
H818 H 0.63243 0.30084 0.50071 0.0
H819 H 0.5725 0.4521 0.44645 0.0
H820 H 0.63711 0.33165 0.41332 0.0
H821 H 0.56704 0.4242 0.53452 0.0
H822 H 0.60001 0.4095 0.43532 0.0
H823 H 0.61211 0.34689 0.51488 0.0
C824 C 0.6294 0.31733 0.48453 0.0
C825 C 0.63627 0.31222 0.45569 0.0
C826 C 0.5932 0.41273 0.45722 0.0
C827 C 0.61292 0.3649 0.47177 0.0
C828 C 0.57753 0.43712 0.46359 0.0
C829 C 0.56776 0.4418 0.49155 0.0
C830 C 0.59885 0.39245 0.47887 0.0
C831 C 0.5748 0.42172 0.51292 0.0
C832 C 0.61771 0.34357 0.49264 0.0
C833 C 0.63164 0.33433 0.43567 0.0
N834 N 0.5897 0.39771 0.5061 0.0
N835 N 0.62022 0.35956 0.44407 0.0
loop_
_geom_bond_atom_site_label_1
_geom_bond_atom_site_label_2
_geom_bond_distance
_geom_bond_site_symmetry_2
_ccdc_geom_bond_type
C0 C1 1.264 . S
C0 C5 1.479 . S
C0 C10 1.465 . S
C1 C0 1.264 . S
C1 C3 1.339 . S
C1 H28 0.931 . S
C2 C3 1.395 . S
C2 C4 1.320 . S
C3 C1 1.339 . S
C3 C2 1.395 . S
C3 H29 0.929 . S
C4 C2 1.320 . S
C4 C5 1.405 . S
C4 H30 0.930 . S
C5 C0 1.479 . S
C5 C4 1.405 . S
C5 H31 0.931 . S
U6 O7 2.454 . S
U6 O8 2.458 . S
U6 C9 2.984 . S
U6 C10 2.847 . S
U6 C23 2.882 . S
U6 O24 2.441 . S
U6 O25 2.420 . S
U6 O26 2.455 . S
U6 O27 2.449 . S
O7 U6 2.454 . S
O7 C9 1.353 . S
O8 U6 2.458 . S
O8 C9 1.286 . S
C9 U6 2.984 . S
C9 O7 1.353 . S
C9 O8 1.286 . S
C9 C11 1.363 . S
C10 C0 1.465 . S
C10 U6 2.847 . S
C10 O24 1.249 . S
C10 O25 1.202 . S
C11 C9 1.363 . S
C11 C13 1.408 . S
C11 C16 1.342 . S
C12 C13 1.310 . S
C12 C15 1.461 . S
C12 H32 0.932 . S
C13 C11 1.408 . S
C13 C12 1.310 . S
C13 H33 0.930 . S
C14 C15 1.474 . S
C14 C16 1.285 . S
C14 H34 0.929 . S
C15 C12 1.461 . S
C15 C14 1.474 . S
C16 C11 1.342 . S
C16 C14 1.285 . S
C16 H35 0.930 . S
C17 C20 1.424 . S
C17 C22 1.245 . S
C17 C23 1.428 . S
C18 C21 1.260 . S
C18 C22 1.477 . S
C18 H36 0.932 . S
C19 C20 1.384 . S
C19 C21 1.479 . S
C19 H37 0.929 . S
C20 C17 1.424 . S
C20 C19 1.384 . S
C20 H38 0.928 . S
C21 C18 1.260 . S
C21 C19 1.479 . S
C22 C17 1.245 . S
C22 C18 1.477 . S
C22 H39 0.932 . S
C23 U6 2.882 . S
C23 C17 1.428 . S
C23 O26 1.301 . S
C23 O27 1.282 . S
O24 U6 2.441 . S
O24 C10 1.249 . S
O25 U6 2.420 . S
O25 C10 1.202 . S
O26 U6 2.455 . S
O26 C23 1.301 . S
O27 U6 2.449 . S
O27 C23 1.282 . S
H28 C1 0.931 . S
H29 C3 0.929 . S
H30 C4 0.930 . S
H31 C5 0.931 . S
H32 C12 0.932 . S
H33 C13 0.930 . S
H34 C14 0.929 . S
H35 C16 0.930 . S
H36 C18 0.932 . S
H37 C19 0.929 . S
H38 C20 0.928 . S
H39 C22 0.932 . S
C40 C41 1.264 . S
C40 C45 1.479 . S
C40 C50 1.465 . S
C41 C40 1.264 . S
C41 C43 1.339 . S
C41 H68 0.931 . S
C42 C43 1.395 . S
C42 C44 1.320 . S
C43 C41 1.339 . S
C43 C42 1.395 . S
C43 H69 0.929 . S
C44 C42 1.320 . S
C44 C45 1.405 . S
C44 H70 0.930 . S
C45 C40 1.479 . S
C45 C44 1.405 . S
C45 H71 0.931 . S
U46 O47 2.454 . S
U46 O48 2.458 . S
U46 C49 2.984 . S
U46 C50 2.847 . S
U46 C63 2.882 . S
U46 O64 2.441 . S
U46 O65 2.420 . S
U46 O66 2.455 . S
U46 O67 2.449 . S
O47 U46 2.454 . S
O47 C49 1.353 . S
O48 U46 2.458 . S
O48 C49 1.286 . S
C49 U46 2.984 . S
C49 O47 1.353 . S
C49 O48 1.286 . S
C49 C51 1.363 . S
C50 C40 1.465 . S
C50 U46 2.847 . S
C50 O64 1.249 . S
C50 O65 1.202 . S
C51 C49 1.363 . S
C51 C53 1.408 . S
C51 C56 1.342 . S
C52 C53 1.310 . S
C52 C55 1.461 . S
C52 H72 0.932 . S
C53 C51 1.408 . S
C53 C52 1.310 . S
C53 H73 0.930 . S
C54 C55 1.474 . S
C54 C56 1.285 . S
C54 H74 0.929 . S
C55 C52 1.461 . S
C55 C54 1.474 . S
C56 C51 1.342 . S
C56 C54 1.285 . S
C56 H75 0.930 . S
C57 C60 1.424 . S
C57 C62 1.245 . S
C57 C63 1.428 . S
C58 C61 1.260 . S
C58 C62 1.477 . S
C58 H76 0.932 . S
C59 C60 1.384 . S
C59 C61 1.479 . S
C59 H77 0.929 . S
C60 C57 1.424 . S
C60 C59 1.384 . S
C60 H78 0.928 . S
C61 C58 1.260 . S
C61 C59 1.479 . S
C62 C57 1.245 . S
C62 C58 1.477 . S
C62 H79 0.932 . S
C63 U46 2.882 . S
C63 C57 1.428 . S
C63 O66 1.301 . S
C63 O67 1.282 . S
O64 U46 2.441 . S
O64 C50 1.249 . S
O65 U46 2.420 . S
O65 C50 1.202 . S
O66 U46 2.455 . S
O66 C63 1.301 . S
O67 U46 2.449 . S
O67 C63 1.282 . S
H68 C41 0.931 . S
H69 C43 0.929 . S
H70 C44 0.930 . S
H71 C45 0.931 . S
H72 C52 0.932 . S
H73 C53 0.930 . S
H74 C54 0.929 . S
H75 C56 0.930 . S
H76 C58 0.932 . S
H77 C59 0.929 . S
H78 C60 0.928 . S
H79 C62 0.932 . S
C80 C81 1.264 . S
C80 C85 1.479 . S
C80 C90 1.465 . S
C81 C80 1.264 . S
C81 C83 1.339 . S
C81 H108 0.931 . S
C82 C83 1.395 . S
C82 C84 1.320 . S
C83 C81 1.339 . S
C83 C82 1.395 . S
C83 H109 0.929 . S
C84 C82 1.320 . S
C84 C85 1.405 . S
C84 H110 0.930 . S
C85 C80 1.479 . S
C85 C84 1.405 . S
C85 H111 0.931 . S
U86 O87 2.454 . S
U86 O88 2.458 . S
U86 C89 2.984 . S
U86 C90 2.847 . S
U86 C103 2.882 . S
U86 O104 2.441 . S
U86 O105 2.420 . S
U86 O106 2.455 . S
U86 O107 2.449 . S
O87 U86 2.454 . S
O87 C89 1.353 . S
O88 U86 2.458 . S
O88 C89 1.286 . S
C89 U86 2.984 . S
C89 O87 1.353 . S
C89 O88 1.286 . S
C89 C91 1.363 . S
C90 C80 1.465 . S
C90 U86 2.847 . S
C90 O104 1.249 . S
C90 O105 1.202 . S
C91 C89 1.363 . S
C91 C93 1.408 . S
C91 C96 1.342 . S
C92 C93 1.310 . S
C92 C95 1.461 . S
C92 H112 0.932 . S
C93 C91 1.408 . S
C93 C92 1.310 . S
C93 H113 0.930 . S
C94 C95 1.474 . S
C94 C96 1.285 . S
C94 H114 0.929 . S
C95 C92 1.461 . S
C95 C94 1.474 . S
C96 C91 1.342 . S
C96 C94 1.285 . S
C96 H115 0.930 . S
C97 C100 1.424 . S
C97 C102 1.245 . S
C97 C103 1.428 . S
C98 C101 1.260 . S
C98 C102 1.477 . S
C98 H116 0.932 . S
C99 C100 1.384 . S
C99 C101 1.479 . S
C99 H117 0.929 . S
C100 C97 1.424 . S
C100 C99 1.384 . S
C100 H118 0.928 . S
C101 C98 1.260 . S
C101 C99 1.479 . S
C102 C97 1.245 . S
C102 C98 1.477 . S
C102 H119 0.932 . S
C103 U86 2.882 . S
C103 C97 1.428 . S
C103 O106 1.301 . S
C103 O107 1.282 . S
O104 U86 2.441 . S
O104 C90 1.249 . S
O105 U86 2.420 . S
O105 C90 1.202 . S
O106 U86 2.455 . S
O106 C103 1.301 . S
O107 U86 2.449 . S
O107 C103 1.282 . S
H108 C81 0.931 . S
H109 C83 0.929 . S
H110 C84 0.930 . S
H111 C85 0.931 . S
H112 C92 0.932 . S
H113 C93 0.930 . S
H114 C94 0.929 . S
H115 C96 0.930 . S
H116 C98 0.932 . S
H117 C99 0.929 . S
H118 C100 0.928 . S
H119 C102 0.932 . S
C120 C121 1.264 . S
C120 C125 1.479 . S
C120 C130 1.465 . S
C121 C120 1.264 . S
C121 C123 1.339 . S
C121 H148 0.931 . S
C122 C123 1.395 . S
C122 C124 1.320 . S
C123 C121 1.339 . S
C123 C122 1.395 . S
C123 H149 0.929 . S
C124 C122 1.320 . S
C124 C125 1.405 . S
C124 H150 0.930 . S
C125 C120 1.479 . S
C125 C124 1.405 . S
C125 H151 0.931 . S
U126 O127 2.454 . S
U126 O128 2.458 . S
U126 C129 2.984 . S
U126 C130 2.847 . S
U126 C143 2.882 . S
U126 O144 2.441 . S
U126 O145 2.420 . S
U126 O146 2.455 . S
U126 O147 2.449 . S
O127 U126 2.454 . S
O127 C129 1.353 . S
O128 U126 2.458 . S
O128 C129 1.286 . S
C129 U126 2.984 . S
C129 O127 1.353 . S
C129 O128 1.286 . S
C129 C131 1.363 . S
C130 C120 1.465 . S
C130 U126 2.847 . S
C130 O144 1.249 . S
C130 O145 1.202 . S
C131 C129 1.363 . S
C131 C133 1.408 . S
C131 C136 1.342 . S
C132 C133 1.310 . S
C132 C135 1.461 . S
C132 H152 0.932 . S
C133 C131 1.408 . S
C133 C132 1.310 . S
C133 H153 0.930 . S
C134 C135 1.474 . S
C134 C136 1.285 . S
C134 H154 0.929 . S
C135 C132 1.461 . S
C135 C134 1.474 . S
C136 C131 1.342 . S
C136 C134 1.285 . S
C136 H155 0.930 . S
C137 C140 1.424 . S
C137 C142 1.245 . S
C137 C143 1.428 . S
C138 C141 1.260 . S
C138 C142 1.477 . S
C138 H156 0.932 . S
C139 C140 1.384 . S
C139 C141 1.479 . S
C139 H157 0.929 . S
C140 C137 1.424 . S
C140 C139 1.384 . S
C140 H158 0.928 . S
C141 C138 1.260 . S
C141 C139 1.479 . S
C142 C137 1.245 . S
C142 C138 1.477 . S
C142 H159 0.932 . S
C143 U126 2.882 . S
C143 C137 1.428 . S
C143 O146 1.301 . S
C143 O147 1.282 . S
O144 U126 2.441 . S
O144 C130 1.249 . S
O145 U126 2.420 . S
O145 C130 1.202 . S
O146 U126 2.455 . S
O146 C143 1.301 . S
O147 U126 2.449 . S
O147 C143 1.282 . S
H148 C121 0.931 . S
H149 C123 0.929 . S
H150 C124 0.930 . S
H151 C125 0.931 . S
H152 C132 0.932 . S
H153 C133 0.930 . S
H154 C134 0.929 . S
H155 C136 0.930 . S
H156 C138 0.932 . S
H157 C139 0.929 . S
H158 C140 0.928 . S
H159 C142 0.932 . S
C160 C161 1.264 . S
C160 C165 1.479 . S
C160 C170 1.465 . S
C161 C160 1.264 . S
C161 C163 1.339 1_655 S
C161 H188 0.931 . S
C162 C163 1.395 1_655 S
C162 C164 1.320 . S
C163 C161 1.339 1_455 S
C163 C162 1.395 1_455 S
C163 H189 0.929 . S
C164 C162 1.320 . S
C164 C165 1.405 . S
C164 H190 0.930 1_556 S
C165 C160 1.479 . S
C165 C164 1.405 . S
C165 H191 0.931 . S
U166 O167 2.454 . S
U166 O168 2.458 . S
U166 C169 2.984 . S
U166 C170 2.847 . S
U166 C183 2.882 . S
U166 O184 2.441 . S
U166 O185 2.420 . S
U166 O186 2.455 . S
U166 O187 2.449 . S
O167 U166 2.454 . S
O167 C169 1.353 . S
O168 U166 2.458 . S
O168 C169 1.286 . S
C169 U166 2.984 . S
C169 O167 1.353 . S
C169 O168 1.286 . S
C169 C171 1.363 . S
C170 C160 1.465 . S
C170 U166 2.847 . S
C170 O184 1.249 . S
C170 O185 1.202 . S
C171 C169 1.363 . S
C171 C173 1.408 . S
C171 C176 1.342 . S
C172 C173 1.310 1_554 S
C172 C175 1.461 1_554 S
C172 H192 0.932 . S
C173 C171 1.408 . S
C173 C172 1.310 1_556 S
C173 H193 0.930 . S
C174 C175 1.480 . S
C174 C176 1.293 . S
C174 H194 0.916 1_565 S
C175 C172 1.461 1_556 S
C175 C174 1.480 . S
C176 C171 1.342 . S
C176 C174 1.293 . S
C176 H195 0.930 . S
C177 C180 1.424 . S
C177 C182 1.245 . S
C177 C183 1.428 . S
C178 C181 1.260 . S
C178 C182 1.477 . S
C178 H196 0.932 1_565 S
C179 C180 1.384 . S
C179 C181 1.479 . S
C179 H197 0.929 1_655 S
C180 C177 1.424 . S
C180 C179 1.384 . S
C180 H198 0.928 . S
C181 C178 1.260 . S
C181 C179 1.479 . S
C182 C177 1.245 . S
C182 C178 1.477 . S
C182 H199 0.932 . S
C183 U166 2.882 . S
C183 C177 1.428 . S
C183 O186 1.301 . S
C183 O187 1.282 . S
O184 U166 2.441 . S
O184 C170 1.249 . S
O185 U166 2.420 . S
O185 C170 1.202 . S
O186 U166 2.455 . S
O186 C183 1.301 . S
O187 U166 2.449 . S
O187 C183 1.282 . S
H188 C161 0.931 . S
H189 C163 0.929 . S
H190 C164 0.930 1_554 S
H191 C165 0.931 . S
H192 C172 0.932 . S
H193 C173 0.930 . S
H194 C174 0.916 1_545 S
H195 C176 0.930 . S
H196 C178 0.932 1_545 S
H197 C179 0.929 1_455 S
H198 C180 0.928 . S
H199 C182 0.932 . S
C200 C201 1.264 . S
C200 C205 1.479 . S
C200 C210 1.465 . S
C201 C200 1.264 . S
C201 C203 1.339 . S
C201 H228 0.931 . S
C202 C203 1.395 . S
C202 C204 1.320 . S
C203 C201 1.339 . S
C203 C202 1.395 . S
C203 H229 0.929 . S
C204 C202 1.320 . S
C204 C205 1.405 . S
C204 H230 0.930 . S
C205 C200 1.479 . S
C205 C204 1.405 . S
C205 H231 0.931 . S
U206 O207 2.454 . S
U206 O208 2.458 . S
U206 C209 2.984 . S
U206 C210 2.847 . S
U206 C223 2.882 . S
U206 O224 2.441 . S
U206 O225 2.420 . S
U206 O226 2.455 . S
U206 O227 2.449 . S
O207 U206 2.454 . S
O207 C209 1.353 . S
O208 U206 2.458 . S
O208 C209 1.286 . S
C209 U206 2.984 . S
C209 O207 1.353 . S
C209 O208 1.286 . S
C209 C211 1.363 . S
C210 C200 1.465 . S
C210 U206 2.847 . S
C210 O224 1.249 . S
C210 O225 1.202 . S
C211 C209 1.363 . S
C211 C213 1.408 . S
C211 C216 1.342 . S
C212 C213 1.310 . S
C212 C215 1.461 . S
C212 H232 0.932 . S
C213 C211 1.408 . S
C213 C212 1.310 . S
C213 H233 0.930 . S
C214 C215 1.474 . S
C214 C216 1.285 . S
C214 H234 0.929 . S
C215 C212 1.461 . S
C215 C214 1.474 . S
C216 C211 1.342 . S
C216 C214 1.285 . S
C216 H235 0.930 . S
C217 C220 1.424 . S
C217 C222 1.245 . S
C217 C223 1.428 . S
C218 C221 1.260 . S
C218 C222 1.477 . S
C218 H236 0.932 . S
C219 C220 1.384 . S
C219 C221 1.479 . S
C219 H237 0.929 . S
C220 C217 1.424 . S
C220 C219 1.384 . S
C220 H238 0.928 . S
C221 C218 1.260 . S
C221 C219 1.479 . S
C222 C217 1.245 . S
C222 C218 1.477 . S
C222 H239 0.932 . S
C223 U206 2.882 . S
C223 C217 1.428 . S
C223 O226 1.301 . S
C223 O227 1.282 . S
O224 U206 2.441 . S
O224 C210 1.249 . S
O225 U206 2.420 . S
O225 C210 1.202 . S
O226 U206 2.455 . S
O226 C223 1.301 . S
O227 U206 2.449 . S
O227 C223 1.282 . S
H228 C201 0.931 . S
H229 C203 0.929 . S
H230 C204 0.930 . S
H231 C205 0.931 . S
H232 C212 0.932 . S
H233 C213 0.930 . S
H234 C214 0.929 . S
H235 C216 0.930 . S
H236 C218 0.932 . S
H237 C219 0.929 . S
H238 C220 0.928 . S
H239 C222 0.932 . S
C240 C241 1.264 . S
C240 C245 1.479 . S
C240 C250 1.465 . S
C241 C240 1.264 . S
C241 C243 1.339 . S
C241 H268 0.931 . S
C242 C243 1.395 . S
C242 C244 1.320 . S
C243 C241 1.339 . S
C243 C242 1.395 . S
C243 H269 0.929 . S
C244 C242 1.320 . S
C244 C245 1.405 . S
C244 H270 0.930 . S
C245 C240 1.479 . S
C245 C244 1.405 . S
C245 H271 0.931 . S
U246 O247 2.454 . S
U246 O248 2.458 . S
U246 C249 2.984 . S
U246 C250 2.847 . S
U246 C263 2.882 . S
U246 O264 2.441 . S
U246 O265 2.420 . S
U246 O266 2.455 . S
U246 O267 2.449 . S
O247 U246 2.454 . S
O247 C249 1.353 . S
O248 U246 2.458 . S
O248 C249 1.286 . S
C249 U246 2.984 . S
C249 O247 1.353 . S
C249 O248 1.286 . S
C249 C251 1.363 . S
C250 C240 1.465 . S
C250 U246 2.847 . S
C250 O264 1.249 . S
C250 O265 1.202 . S
C251 C249 1.363 . S
C251 C253 1.408 . S
C251 C256 1.342 . S
C252 C253 1.310 . S
C252 C255 1.461 . S
C252 H272 0.932 . S
C253 C251 1.408 . S
C253 C252 1.310 . S
C253 H273 0.930 . S
C254 C255 1.474 . S
C254 C256 1.285 . S
C254 H274 0.929 . S
C255 C252 1.461 . S
C255 C254 1.474 . S
C256 C251 1.342 . S
C256 C254 1.285 . S
C256 H275 0.930 . S
C257 C260 1.424 . S
C257 C262 1.245 . S
C257 C263 1.428 . S
C258 C261 1.260 . S
C258 C262 1.477 . S
C258 H276 0.932 . S
C259 C260 1.384 . S
C259 C261 1.479 . S
C259 H277 0.929 . S
C260 C257 1.424 . S
C260 C259 1.384 . S
C260 H278 0.928 . S
C261 C258 1.260 . S
C261 C259 1.479 . S
C262 C257 1.245 . S
C262 C258 1.477 . S
C262 H279 0.932 . S
C263 U246 2.882 . S
C263 C257 1.428 . S
C263 O266 1.301 . S
C263 O267 1.282 . S
O264 U246 2.441 . S
O264 C250 1.249 . S
O265 U246 2.420 . S
O265 C250 1.202 . S
O266 U246 2.455 . S
O266 C263 1.301 . S
O267 U246 2.449 . S
O267 C263 1.282 . S
H268 C241 0.931 . S
H269 C243 0.929 . S
H270 C244 0.930 . S
H271 C245 0.931 . S
H272 C252 0.932 . S
H273 C253 0.930 . S
H274 C254 0.929 . S
H275 C256 0.930 . S
H276 C258 0.932 . S
H277 C259 0.929 . S
H278 C260 0.928 . S
H279 C262 0.932 . S
C280 C281 1.264 . S
C280 C285 1.479 . S
C280 C290 1.465 . S
C281 C280 1.264 . S
C281 C283 1.339 . S
C281 H308 0.931 . S
C282 C283 1.395 . S
C282 C284 1.320 . S
C283 C281 1.339 . S
C283 C282 1.395 . S
C283 H309 0.929 . S
C284 C282 1.320 . S
C284 C285 1.405 . S
C284 H310 0.930 . S
C285 C280 1.479 . S
C285 C284 1.405 . S
C285 H311 0.931 . S
U286 O287 2.454 . S
U286 O288 2.458 . S
U286 C289 2.984 . S
U286 C290 2.847 . S
U286 C303 2.882 . S
U286 O304 2.441 . S
U286 O305 2.420 . S
U286 O306 2.455 . S
U286 O307 2.449 . S
O287 U286 2.454 . S
O287 C289 1.353 . S
O288 U286 2.458 . S
O288 C289 1.286 . S
C289 U286 2.984 . S
C289 O287 1.353 . S
C289 O288 1.286 . S
C289 C291 1.363 . S
C290 C280 1.465 . S
C290 U286 2.847 . S
C290 O304 1.249 . S
C290 O305 1.202 . S
C291 C289 1.363 . S
C291 C293 1.408 . S
C291 C296 1.342 . S
C292 C293 1.310 . S
C292 C295 1.461 . S
C292 H312 0.932 . S
C293 C291 1.408 . S
C293 C292 1.310 . S
C293 H313 0.930 . S
C294 C295 1.474 . S
C294 C296 1.285 . S
C294 H314 0.929 . S
C295 C292 1.461 . S
C295 C294 1.474 . S
C296 C291 1.342 . S
C296 C294 1.285 . S
C296 H315 0.930 . S
C297 C300 1.424 . S
C297 C302 1.245 . S
C297 C303 1.428 . S
C298 C301 1.260 . S
C298 C302 1.477 . S
C298 H316 0.932 . S
C299 C300 1.384 . S
C299 C301 1.479 . S
C299 H317 0.929 . S
C300 C297 1.424 . S
C300 C299 1.384 . S
C300 H318 0.928 . S
C301 C298 1.260 . S
C301 C299 1.479 . S
C302 C297 1.245 . S
C302 C298 1.477 . S
C302 H319 0.932 . S
C303 U286 2.882 . S
C303 C297 1.428 . S
C303 O306 1.301 . S
C303 O307 1.282 . S
O304 U286 2.441 . S
O304 C290 1.249 . S
O305 U286 2.420 . S
O305 C290 1.202 . S
O306 U286 2.455 . S
O306 C303 1.301 . S
O307 U286 2.449 . S
O307 C303 1.282 . S
H308 C281 0.931 . S
H309 C283 0.929 . S
H310 C284 0.930 . S
H311 C285 0.931 . S
H312 C292 0.932 . S
H313 C293 0.930 . S
H314 C294 0.929 . S
H315 C296 0.930 . S
H316 C298 0.932 . S
H317 C299 0.929 . S
H318 C300 0.928 . S
H319 C302 0.932 . S
Zn320 O326 1.920 . S
Zn320 O332 1.898 . S
Zn320 O335 1.905 . S
Zn321 O329 1.905 1_565 S
Zn321 O330 1.898 . S
Zn321 O338 1.920 . S
Zn322 O325 2.080 1_455 S
Zn322 O328 2.114 . S
Zn322 O331 2.120 1_445 S
Zn322 O333 2.120 . S
Zn322 O334 2.114 1_455 S
Zn322 O337 2.080 . S
C323 O328 1.166 . S
C323 O329 1.182 . S
C324 O330 1.167 1_655 S
C324 O331 1.299 . S
O325 Zn322 2.080 1_655 S
O325 C339 1.305 . S
O326 Zn320 1.920 . S
O326 C339 1.234 . S
C327 O332 1.167 1_455 S
C327 O333 1.299 . S
O328 Zn322 2.114 . S
O328 C323 1.166 . S
O329 Zn321 1.905 1_545 S
O329 C323 1.182 . S
O330 Zn321 1.898 . S
O330 C324 1.167 1_455 S
O331 Zn322 2.120 1_665 S
O331 C324 1.299 . S
O332 Zn320 1.898 . S
O332 C327 1.167 1_655 S
O333 Zn322 2.120 . S
O333 C327 1.299 . S
O334 Zn322 2.114 1_655 S
O334 C336 1.166 . S
O335 Zn320 1.905 . S
O335 C336 1.182 . S
C336 O334 1.166 . S
C336 O335 1.182 . S
O337 Zn322 2.080 . S
O337 C340 1.305 1_545 S
O338 Zn321 1.920 . S
O338 C340 1.234 . S
C339 O325 1.305 . S
C339 O326 1.234 . S
C340 O337 1.305 1_565 S
C340 O338 1.234 . S
Zn341 O347 1.920 1_556 S
Zn341 O353 1.898 . S
Zn341 O356 1.905 . S
Zn342 O350 1.905 . S
Zn342 O351 1.898 . S
Zn342 O359 1.920 . S
Zn343 O346 2.080 . S
Zn343 O349 2.114 1_545 S
Zn343 O352 2.120 1_545 S
Zn343 O354 2.120 . S
Zn343 O355 2.114 1_544 S
Zn343 O358 2.080 . S
C344 O349 1.166 . S
C344 O350 1.182 . S
C345 O351 1.167 . S
C345 O352 1.299 . S
O346 Zn343 2.080 . S
O346 C360 1.305 . S
O347 Zn341 1.920 1_554 S
O347 C360 1.234 . S
C348 O353 1.167 . S
C348 O354 1.299 1_556 S
O349 Zn343 2.114 1_565 S
O349 C344 1.166 . S
O350 Zn342 1.905 . S
O350 C344 1.182 . S
O351 Zn342 1.898 . S
O351 C345 1.167 . S
O352 Zn343 2.120 1_565 S
O352 C345 1.299 . S
O353 Zn341 1.898 . S
O353 C348 1.167 . S
O354 Zn343 2.120 . S
O354 C348 1.299 1_554 S
O355 Zn343 2.114 1_566 S
O355 C357 1.166 . S
O356 Zn341 1.905 . S
O356 C357 1.182 1_545 S
C357 O355 1.166 . S
C357 O356 1.182 1_565 S
O358 Zn343 2.080 . S
O358 C361 1.305 . S
O359 Zn342 1.920 . S
O359 C361 1.234 1_565 S
C360 O346 1.305 . S
C360 O347 1.234 . S
C361 O358 1.305 . S
C361 O359 1.234 1_545 S
Zn362 O368 1.920 . S
Zn362 O374 1.898 . S
Zn362 O377 1.905 . S
Zn363 O371 1.905 . S
Zn363 O372 1.898 . S
Zn363 O380 1.920 . S
Zn364 O367 2.080 . S
Zn364 O370 2.114 . S
Zn364 O373 2.120 . S
Zn364 O375 2.120 . S
Zn364 O376 2.114 . S
Zn364 O379 2.080 . S
C365 O370 1.166 . S
C365 O371 1.182 . S
C366 O372 1.167 . S
C366 O373 1.299 . S
O367 Zn364 2.080 . S
O367 C381 1.305 . S
O368 Zn362 1.920 . S
O368 C381 1.234 . S
C369 O374 1.167 . S
C369 O375 1.299 . S
O370 Zn364 2.114 . S
O370 C365 1.166 . S
O371 Zn363 1.905 . S
O371 C365 1.182 . S
O372 Zn363 1.898 . S
O372 C366 1.167 . S
O373 Zn364 2.120 . S
O373 C366 1.299 . S
O374 Zn362 1.898 . S
O374 C369 1.167 . S
O375 Zn364 2.120 . S
O375 C369 1.299 . S
O376 Zn364 2.114 . S
O376 C378 1.166 . S
O377 Zn362 1.905 . S
O377 C378 1.182 . S
C378 O376 1.166 . S
C378 O377 1.182 . S
O379 Zn364 2.080 . S
O379 C382 1.305 . S
O380 Zn363 1.920 . S
O380 C382 1.234 . S
C381 O367 1.305 . S
C381 O368 1.234 . S
C382 O379 1.305 . S
C382 O380 1.234 . S
Zn383 O389 1.920 . S
Zn383 O395 1.898 . S
Zn383 O398 1.905 . S
Zn384 O392 1.905 1_655 S
Zn384 O393 1.898 . S
Zn384 O401 1.920 . S
Zn385 O388 2.080 1_554 S
Zn385 O391 2.114 . S
Zn385 O394 2.120 1_454 S
Zn385 O396 2.120 . S
Zn385 O397 2.114 1_554 S
Zn385 O400 2.080 . S
C386 O391 1.166 . S
C386 O392 1.182 . S
C387 O393 1.167 1_556 S
C387 O394 1.299 . S
O388 Zn385 2.080 1_556 S
O388 C402 1.305 . S
O389 Zn383 1.920 . S
O389 C402 1.234 . S
C390 O395 1.167 1_554 S
C390 O396 1.299 . S
O391 Zn385 2.114 . S
O391 C386 1.166 . S
O392 Zn384 1.905 1_455 S
O392 C386 1.182 . S
O393 Zn384 1.898 . S
O393 C387 1.167 1_554 S
O394 Zn385 2.120 1_656 S
O394 C387 1.299 . S
O395 Zn383 1.898 . S
O395 C390 1.167 1_556 S
O396 Zn385 2.120 . S
O396 C390 1.299 . S
O397 Zn385 2.114 1_556 S
O397 C399 1.166 . S
O398 Zn383 1.905 . S
O398 C399 1.182 . S
C399 O397 1.166 . S
C399 O398 1.182 . S
O400 Zn385 2.080 . S
O400 C403 1.305 1_455 S
O401 Zn384 1.920 . S
O401 C403 1.234 . S
C402 O388 1.305 . S
C402 O389 1.234 . S
C403 O400 1.305 1_655 S
C403 O401 1.234 . S
H404 C410 0.930 . S
H405 C414 0.930 . S
H406 C419 0.929 . S
H407 C417 0.929 . S
H408 C412 0.929 . S
H409 C418 0.929 . S
C410 H404 0.930 . S
C410 C411 1.367 . S
C410 C418 1.378 . S
C411 C410 1.367 . S
C411 C419 1.433 . S
C412 H408 0.929 . S
C412 C414 1.378 . S
C412 C416 1.350 . S
C413 C416 1.463 . S
C413 C418 1.350 . S
C413 N421 1.427 . S
C414 H405 0.930 . S
C414 C412 1.378 . S
C414 C415 1.367 . S
C415 C414 1.367 . S
C415 C417 1.433 . S
C416 C412 1.350 . S
C416 C413 1.463 . S
C416 N420 1.427 . S
C417 H407 0.929 . S
C417 C415 1.433 . S
C417 N420 1.384 . S
C418 H409 0.929 . S
C418 C410 1.378 . S
C418 C413 1.350 . S
C419 H406 0.929 . S
C419 C411 1.433 . S
C419 N421 1.384 . S
N420 C416 1.427 . S
N420 C417 1.384 . S
N421 C413 1.427 . S
N421 C419 1.384 . S
H422 C428 0.930 . S
H423 C432 0.930 . S
H424 C437 0.929 . S
H425 C435 0.929 . S
H426 C430 0.929 . S
H427 C436 0.929 . S
C428 H422 0.930 . S
C428 C429 1.367 . S
C428 C436 1.378 . S
C429 C428 1.367 . S
C429 C437 1.433 . S
C430 H426 0.929 . S
C430 C432 1.378 . S
C430 C434 1.350 . S
C431 C434 1.463 . S
C431 C436 1.350 . S
C431 N439 1.427 . S
C432 H423 0.930 . S
C432 C430 1.378 . S
C432 C433 1.367 . S
C433 C432 1.367 . S
C433 C435 1.433 . S
C434 C430 1.350 . S
C434 C431 1.463 . S
C434 N438 1.427 . S
C435 H425 0.929 . S
C435 C433 1.433 . S
C435 N438 1.384 . S
C436 H427 0.929 . S
C436 C428 1.378 . S
C436 C431 1.350 . S
C437 H424 0.929 . S
C437 C429 1.433 . S
C437 N439 1.384 . S
N438 C434 1.427 . S
N438 C435 1.384 . S
N439 C431 1.427 . S
N439 C437 1.384 . S
H440 C446 0.930 . S
H441 C450 0.930 . S
H442 C455 0.929 . S
H443 C453 0.929 . S
H444 C448 0.929 . S
H445 C454 0.929 . S
C446 H440 0.930 . S
C446 C447 1.367 . S
C446 C454 1.378 . S
C447 C446 1.367 . S
C447 C455 1.433 . S
C448 H444 0.929 . S
C448 C450 1.378 . S
C448 C452 1.350 . S
C449 C452 1.463 . S
C449 C454 1.350 . S
C449 N457 1.427 . S
C450 H441 0.930 . S
C450 C448 1.378 . S
C450 C451 1.367 . S
C451 C450 1.367 . S
C451 C453 1.433 . S
C452 C448 1.350 . S
C452 C449 1.463 . S
C452 N456 1.427 . S
C453 H443 0.929 . S
C453 C451 1.433 . S
C453 N456 1.384 . S
C454 H445 0.929 . S
C454 C446 1.378 . S
C454 C449 1.350 . S
C455 H442 0.929 . S
C455 C447 1.433 . S
C455 N457 1.384 . S
N456 C452 1.427 . S
N456 C453 1.384 . S
N457 C449 1.427 . S
N457 C455 1.384 . S
H458 C464 0.930 . S
H459 C468 0.930 . S
H460 C473 0.929 . S
H461 C471 0.929 . S
H462 C466 0.929 . S
H463 C472 0.929 . S
C464 H458 0.930 . S
C464 C465 1.367 . S
C464 C472 1.378 . S
C465 C464 1.367 . S
C465 C473 1.433 . S
C466 H462 0.929 . S
C466 C468 1.378 . S
C466 C470 1.350 . S
C467 C470 1.463 . S
C467 C472 1.350 . S
C467 N475 1.427 . S
C468 H459 0.930 . S
C468 C466 1.378 . S
C468 C469 1.367 . S
C469 C468 1.367 . S
C469 C471 1.433 1_655 S
C470 C466 1.350 . S
C470 C467 1.463 . S
C470 N474 1.427 . S
C471 H461 0.929 . S
C471 C469 1.433 1_455 S
C471 N474 1.384 1_455 S
C472 H463 0.929 . S
C472 C464 1.378 . S
C472 C467 1.350 . S
C473 H460 0.929 . S
C473 C465 1.433 . S
C473 N475 1.384 . S
N474 C470 1.427 . S
N474 C471 1.384 1_655 S
N475 C467 1.427 . S
N475 C473 1.384 . S
H476 C482 0.930 . S
H477 C486 0.930 . S
H478 C491 0.929 . S
H479 C489 0.929 . S
H480 C484 0.929 . S
H481 C490 0.929 . S
C482 H476 0.930 . S
C482 C483 1.367 . S
C482 C490 1.378 . S
C483 C482 1.367 . S
C483 C491 1.433 . S
C484 H480 0.929 . S
C484 C486 1.378 . S
C484 C488 1.350 . S
C485 C488 1.463 . S
C485 C490 1.350 . S
C485 N493 1.427 . S
C486 H477 0.930 . S
C486 C484 1.378 . S
C486 C487 1.367 . S
C487 C486 1.367 . S
C487 C489 1.433 . S
C488 C484 1.350 . S
C488 C485 1.463 . S
C488 N492 1.427 . S
C489 H479 0.929 . S
C489 C487 1.433 . S
C489 N492 1.384 . S
C490 H481 0.929 . S
C490 C482 1.378 . S
C490 C485 1.350 . S
C491 H478 0.929 . S
C491 C483 1.433 . S
C491 N493 1.384 . S
N492 C488 1.427 . S
N492 C489 1.384 . S
N493 C485 1.427 . S
N493 C491 1.384 . S
H494 C500 0.930 . S
H495 C504 0.959 . S
H496 C509 0.929 . S
H497 C507 0.929 . S
H498 C502 0.929 . S
H499 C508 0.929 . S
C500 H494 0.930 . S
C500 C501 1.367 . S
C500 C508 1.378 . S
C501 C500 1.367 . S
C501 C509 1.433 . S
C502 H498 0.929 . S
C502 C504 1.364 1_565 S
C502 C506 1.350 . S
C503 C506 1.463 . S
C503 C508 1.350 . S
C503 N511 1.427 . S
C504 H495 0.959 . S
C504 C502 1.364 1_545 S
C504 C505 1.352 1_545 S
C505 C504 1.352 1_565 S
C505 C507 1.433 . S
C506 C502 1.350 . S
C506 C503 1.463 . S
C506 N510 1.427 . S
C507 H497 0.929 . S
C507 C505 1.433 . S
C507 N510 1.384 . S
C508 H499 0.929 . S
C508 C500 1.378 . S
C508 C503 1.350 . S
C509 H496 0.929 . S
C509 C501 1.433 . S
C509 N511 1.384 . S
N510 C506 1.427 . S
N510 C507 1.384 . S
N511 C503 1.427 . S
N511 C509 1.384 . S
H512 C518 0.930 . S
H513 C522 0.930 . S
H514 C527 0.929 . S
H515 C525 0.929 . S
H516 C520 0.929 . S
H517 C526 0.929 . S
C518 H512 0.930 . S
C518 C519 1.367 . S
C518 C526 1.378 . S
C519 C518 1.367 . S
C519 C527 1.433 . S
C520 H516 0.929 . S
C520 C522 1.378 . S
C520 C524 1.350 . S
C521 C524 1.463 . S
C521 C526 1.350 . S
C521 N529 1.427 . S
C522 H513 0.930 . S
C522 C520 1.378 . S
C522 C523 1.367 . S
C523 C522 1.367 . S
C523 C525 1.433 . S
C524 C520 1.350 . S
C524 C521 1.463 . S
C524 N528 1.427 . S
C525 H515 0.929 . S
C525 C523 1.433 . S
C525 N528 1.384 . S
C526 H517 0.929 . S
C526 C518 1.378 . S
C526 C521 1.350 . S
C527 H514 0.929 . S
C527 C519 1.433 . S
C527 N529 1.384 . S
N528 C524 1.427 . S
N528 C525 1.384 . S
N529 C521 1.427 . S
N529 C527 1.384 . S
H530 C536 0.930 . S
H531 C540 0.930 . S
H532 C545 0.929 . S
H533 C543 0.929 . S
H534 C538 0.929 . S
H535 C544 0.929 . S
C536 H530 0.930 . S
C536 C537 1.367 . S
C536 C544 1.378 . S
C537 C536 1.367 . S
C537 C545 1.433 . S
C538 H534 0.929 . S
C538 C540 1.378 . S
C538 C542 1.350 . S
C539 C542 1.463 . S
C539 C544 1.350 . S
C539 N547 1.427 . S
C540 H531 0.930 . S
C540 C538 1.378 . S
C540 C541 1.367 . S
C541 C540 1.367 . S
C541 C543 1.433 . S
C542 C538 1.350 . S
C542 C539 1.463 . S
C542 N546 1.427 . S
C543 H533 0.929 . S
C543 C541 1.433 . S
C543 N546 1.384 . S
C544 H535 0.929 . S
C544 C536 1.378 . S
C544 C539 1.350 . S
C545 H532 0.929 . S
C545 C537 1.433 . S
C545 N547 1.384 . S
N546 C542 1.427 . S
N546 C543 1.384 . S
N547 C539 1.427 . S
N547 C545 1.384 . S
H548 C554 0.930 . S
H549 C558 0.930 . S
H550 C563 0.929 . S
H551 C561 0.929 . S
H552 C556 0.929 . S
H553 C562 0.929 . S
C554 H548 0.930 . S
C554 C555 1.367 . S
C554 C562 1.378 . S
C555 C554 1.367 . S
C555 C563 1.433 . S
C556 H552 0.929 . S
C556 C558 1.378 . S
C556 C560 1.350 . S
C557 C560 1.463 . S
C557 C562 1.350 . S
C557 N565 1.427 . S
C558 H549 0.930 . S
C558 C556 1.378 . S
C558 C559 1.367 . S
C559 C558 1.367 . S
C559 C561 1.433 . S
C560 C556 1.350 . S
C560 C557 1.463 . S
C560 N564 1.427 . S
C561 H551 0.929 . S
C561 C559 1.433 . S
C561 N564 1.384 . S
C562 H553 0.929 . S
C562 C554 1.378 . S
C562 C557 1.350 . S
C563 H550 0.929 . S
C563 C555 1.433 . S
C563 N565 1.384 . S
N564 C560 1.427 . S
N564 C561 1.384 . S
N565 C557 1.427 . S
N565 C563 1.384 . S
H566 C572 0.930 . S
H567 C576 0.930 1_554 S
H568 C581 0.929 . S
H569 C579 0.929 . S
H570 C574 0.929 . S
H571 C580 0.929 . S
C572 H566 0.930 . S
C572 C573 1.367 . S
C572 C580 1.378 . S
C573 C572 1.367 . S
C573 C581 1.433 . S
C574 H570 0.929 . S
C574 C576 1.378 . S
C574 C578 1.350 . S
C575 C578 1.463 . S
C575 C580 1.350 . S
C575 N583 1.427 . S
C576 H567 0.930 1_556 S
C576 C574 1.378 . S
C576 C577 1.367 . S
C577 C576 1.367 . S
C577 C579 1.433 . S
C578 C574 1.350 . S
C578 C575 1.463 . S
C578 N582 1.427 . S
C579 H569 0.929 . S
C579 C577 1.433 . S
C579 N582 1.384 . S
C580 H571 0.929 . S
C580 C572 1.378 . S
C580 C575 1.350 . S
C581 H568 0.929 . S
C581 C573 1.433 . S
C581 N583 1.384 . S
N582 C578 1.427 . S
N582 C579 1.384 . S
N583 C575 1.427 . S
N583 C581 1.384 . S
H584 C590 0.930 . S
H585 C594 0.930 . S
H586 C599 0.929 . S
H587 C597 0.929 . S
H588 C592 0.929 . S
H589 C598 0.929 . S
C590 H584 0.930 . S
C590 C591 1.367 . S
C590 C598 1.378 . S
C591 C590 1.367 . S
C591 C599 1.433 . S
C592 H588 0.929 . S
C592 C594 1.378 . S
C592 C596 1.350 . S
C593 C596 1.463 . S
C593 C598 1.350 . S
C593 N601 1.427 . S
C594 H585 0.930 . S
C594 C592 1.378 . S
C594 C595 1.367 . S
C595 C594 1.367 . S
C595 C597 1.433 . S
C596 C592 1.350 . S
C596 C593 1.463 . S
C596 N600 1.427 . S
C597 H587 0.929 . S
C597 C595 1.433 . S
C597 N600 1.384 . S
C598 H589 0.929 . S
C598 C590 1.378 . S
C598 C593 1.350 . S
C599 H586 0.929 . S
C599 C591 1.433 . S
C599 N601 1.384 . S
N600 C596 1.427 . S
N600 C597 1.384 . S
N601 C593 1.427 . S
N601 C599 1.384 . S
H602 C608 0.930 . S
H603 C612 0.930 . S
H604 C617 0.929 . S
H605 C615 0.929 . S
H606 C610 0.929 . S
H607 C616 0.929 . S
C608 H602 0.930 . S
C608 C609 1.367 . S
C608 C616 1.378 . S
C609 C608 1.367 . S
C609 C617 1.433 . S
C610 H606 0.929 . S
C610 C612 1.378 . S
C610 C614 1.350 . S
C611 C614 1.463 . S
C611 C616 1.350 . S
C611 N619 1.427 . S
C612 H603 0.930 . S
C612 C610 1.378 . S
C612 C613 1.367 . S
C613 C612 1.367 . S
C613 C615 1.433 . S
C614 C610 1.350 . S
C614 C611 1.463 . S
C614 N618 1.427 . S
C615 H605 0.929 . S
C615 C613 1.433 . S
C615 N618 1.384 . S
C616 H607 0.929 . S
C616 C608 1.378 . S
C616 C611 1.350 . S
C617 H604 0.929 . S
C617 C609 1.433 . S
C617 N619 1.384 . S
N618 C614 1.427 . S
N618 C615 1.384 . S
N619 C611 1.427 . S
N619 C617 1.384 . S
H620 C626 0.930 . S
H621 C630 0.930 . S
H622 C635 0.929 . S
H623 C633 0.929 . S
H624 C628 0.929 . S
H625 C634 0.929 . S
C626 H620 0.930 . S
C626 C627 1.367 1_455 S
C626 C634 1.378 . S
C627 C626 1.367 1_655 S
C627 C635 1.433 1_545 S
C628 H624 0.929 . S
C628 C630 1.378 . S
C628 C632 1.350 1_565 S
C629 C632 1.463 . S
C629 C634 1.350 1_655 S
C629 N637 1.427 1_545 S
C630 H621 0.930 . S
C630 C628 1.378 . S
C630 C631 1.367 1_565 S
C631 C630 1.367 1_545 S
C631 C633 1.433 1_655 S
C632 C628 1.350 1_545 S
C632 C629 1.463 . S
C632 N636 1.427 1_655 S
C633 H623 0.929 . S
C633 C631 1.433 1_455 S
C633 N636 1.384 . S
C634 H625 0.929 . S
C634 C626 1.378 . S
C634 C629 1.350 1_455 S
C635 H622 0.929 . S
C635 C627 1.433 1_565 S
C635 N637 1.384 . S
N636 C632 1.427 1_455 S
N636 C633 1.384 . S
N637 C629 1.427 1_565 S
N637 C635 1.384 . S
H638 C644 0.930 . S
H639 C648 0.956 . S
H640 C653 0.929 1_565 S
H641 C651 0.929 . S
H642 C646 0.929 1_565 S
H643 C652 0.929 . S
C644 H638 0.930 . S
C644 C645 1.367 . S
C644 C652 1.378 . S
C645 C644 1.367 . S
C645 C653 1.433 . S
C646 H642 0.929 1_545 S
C646 C648 1.376 1_545 S
C646 C650 1.350 . S
C647 C650 1.463 . S
C647 C652 1.350 . S
C647 N655 1.427 . S
C648 H639 0.956 . S
C648 C646 1.376 1_565 S
C648 C649 1.344 1_565 S
C649 C648 1.344 1_545 S
C649 C651 1.433 . S
C650 C646 1.350 . S
C650 C647 1.463 . S
C650 N654 1.427 . S
C651 H641 0.929 . S
C651 C649 1.433 . S
C651 N654 1.384 . S
C652 H643 0.929 . S
C652 C644 1.378 . S
C652 C647 1.350 . S
C653 H640 0.929 1_545 S
C653 C645 1.433 . S
C653 N655 1.384 . S
N654 C650 1.427 . S
N654 C651 1.384 . S
N655 C647 1.427 . S
N655 C653 1.384 . S
H656 C662 0.930 . S
H657 C666 0.930 . S
H658 C671 0.929 . S
H659 C669 0.929 . S
H660 C664 0.929 . S
H661 C670 0.929 . S
C662 H656 0.930 . S
C662 C663 1.367 . S
C662 C670 1.378 . S
C663 C662 1.367 . S
C663 C671 1.433 . S
C664 H660 0.929 . S
C664 C666 1.378 . S
C664 C668 1.350 . S
C665 C668 1.463 . S
C665 C670 1.350 . S
C665 N673 1.427 . S
C666 H657 0.930 . S
C666 C664 1.378 . S
C666 C667 1.367 . S
C667 C666 1.367 . S
C667 C669 1.433 . S
C668 C664 1.350 . S
C668 C665 1.463 . S
C668 N672 1.427 . S
C669 H659 0.929 . S
C669 C667 1.433 . S
C669 N672 1.384 . S
C670 H661 0.929 . S
C670 C662 1.378 . S
C670 C665 1.350 . S
C671 H658 0.929 . S
C671 C663 1.433 . S
C671 N673 1.384 . S
N672 C668 1.427 . S
N672 C669 1.384 . S
N673 C665 1.427 . S
N673 C671 1.384 . S
H674 C680 0.930 . S
H675 C684 0.930 . S
H676 C689 0.929 . S
H677 C687 0.929 . S
H678 C682 0.929 . S
H679 C688 0.929 . S
C680 H674 0.930 . S
C680 C681 1.367 . S
C680 C688 1.378 . S
C681 C680 1.367 . S
C681 C689 1.433 . S
C682 H678 0.929 . S
C682 C684 1.378 . S
C682 C686 1.350 . S
C683 C686 1.463 . S
C683 C688 1.350 . S
C683 N691 1.427 . S
C684 H675 0.930 . S
C684 C682 1.378 . S
C684 C685 1.367 . S
C685 C684 1.367 . S
C685 C687 1.433 . S
C686 C682 1.350 . S
C686 C683 1.463 . S
C686 N690 1.427 . S
C687 H677 0.929 . S
C687 C685 1.433 . S
C687 N690 1.384 . S
C688 H679 0.929 . S
C688 C680 1.378 . S
C688 C683 1.350 . S
C689 H676 0.929 . S
C689 C681 1.433 . S
C689 N691 1.384 . S
N690 C686 1.427 . S
N690 C687 1.384 . S
N691 C683 1.427 . S
N691 C689 1.384 . S
H692 C698 0.935 . S
H693 C702 0.930 . S
H694 C707 0.929 . S
H695 C705 0.929 . S
H696 C700 0.929 . S
H697 C706 0.928 . S
C698 H692 0.935 . S
C698 C699 1.365 1_556 S
C698 C706 1.376 1_556 S
C699 C698 1.365 1_554 S
C699 C707 1.433 1_565 S
C700 H696 0.929 . S
C700 C702 1.378 . S
C700 C704 1.350 1_545 S
C701 C704 1.463 . S
C701 C706 1.350 . S
C701 N709 1.427 1_565 S
C702 H693 0.930 . S
C702 C700 1.378 . S
C702 C703 1.367 1_545 S
C703 C702 1.367 1_565 S
C703 C705 1.433 . S
C704 C700 1.350 1_565 S
C704 C701 1.463 . S
C704 N708 1.427 . S
C705 H695 0.929 . S
C705 C703 1.433 . S
C705 N708 1.384 . S
C706 H697 0.928 . S
C706 C698 1.376 1_554 S
C706 C701 1.350 . S
C707 H694 0.929 . S
C707 C699 1.433 1_545 S
C707 N709 1.384 . S
N708 C704 1.427 . S
N708 C705 1.384 . S
N709 C701 1.427 1_545 S
N709 C707 1.384 . S
H710 C716 0.930 . S
H711 C720 0.930 . S
H712 C725 0.929 . S
H713 C723 0.929 . S
H714 C718 0.929 . S
H715 C724 0.929 . S
C716 H710 0.930 . S
C716 C717 1.367 . S
C716 C724 1.378 . S
C717 C716 1.367 . S
C717 C725 1.433 . S
C718 H714 0.929 . S
C718 C720 1.378 . S
C718 C722 1.350 . S
C719 C722 1.463 . S
C719 C724 1.350 . S
C719 N727 1.427 . S
C720 H711 0.930 . S
C720 C718 1.378 . S
C720 C721 1.367 . S
C721 C720 1.367 . S
C721 C723 1.433 . S
C722 C718 1.350 . S
C722 C719 1.463 . S
C722 N726 1.427 . S
C723 H713 0.929 . S
C723 C721 1.433 . S
C723 N726 1.384 . S
C724 H715 0.929 . S
C724 C716 1.378 . S
C724 C719 1.350 . S
C725 H712 0.929 . S
C725 C717 1.433 . S
C725 N727 1.384 . S
N726 C722 1.427 . S
N726 C723 1.384 . S
N727 C719 1.427 . S
N727 C725 1.384 . S
H728 C734 0.930 . S
H729 C738 0.930 1_556 S
H730 C743 0.922 1_556 S
H731 C741 0.929 . S
H732 C736 0.929 1_556 S
H733 C742 0.929 . S
C734 H728 0.930 . S
C734 C735 1.367 . S
C734 C742 1.378 . S
C735 C734 1.367 . S
C735 C743 1.433 . S
C736 H732 0.929 1_554 S
C736 C738 1.378 . S
C736 C740 1.350 . S
C737 C740 1.463 . S
C737 C742 1.350 . S
C737 N745 1.427 . S
C738 H729 0.930 1_554 S
C738 C736 1.378 . S
C738 C739 1.367 . S
C739 C738 1.367 . S
C739 C741 1.433 . S
C740 C736 1.350 . S
C740 C737 1.463 . S
C740 N744 1.427 . S
C741 H731 0.929 . S
C741 C739 1.433 . S
C741 N744 1.384 . S
C742 H733 0.929 . S
C742 C734 1.378 . S
C742 C737 1.350 . S
C743 H730 0.922 1_554 S
C743 C735 1.433 . S
C743 N745 1.384 . S
N744 C740 1.427 . S
N744 C741 1.384 . S
N745 C737 1.427 . S
N745 C743 1.384 . S
H746 C752 0.930 . S
H747 C756 0.930 . S
H748 C761 0.929 . S
H749 C759 0.929 . S
H750 C754 0.929 . S
H751 C760 0.929 . S
C752 H746 0.930 . S
C752 C753 1.367 . S
C752 C760 1.378 . S
C753 C752 1.367 . S
C753 C761 1.433 . S
C754 H750 0.929 . S
C754 C756 1.378 . S
C754 C758 1.350 . S
C755 C758 1.463 . S
C755 C760 1.350 . S
C755 N763 1.427 . S
C756 H747 0.930 . S
C756 C754 1.378 . S
C756 C757 1.367 . S
C757 C756 1.367 . S
C757 C759 1.433 . S
C758 C754 1.350 . S
C758 C755 1.463 . S
C758 N762 1.427 . S
C759 H749 0.929 . S
C759 C757 1.433 . S
C759 N762 1.384 . S
C760 H751 0.929 . S
C760 C752 1.378 . S
C760 C755 1.350 . S
C761 H748 0.929 . S
C761 C753 1.433 . S
C761 N763 1.384 . S
N762 C758 1.427 . S
N762 C759 1.384 . S
N763 C755 1.427 . S
N763 C761 1.384 . S
H764 C770 0.930 . S
H765 C774 0.930 . S
H766 C779 0.929 . S
H767 C777 0.915 1_655 S
H768 C772 0.929 . S
H769 C778 0.929 . S
C770 H764 0.930 . S
C770 C771 1.367 1_654 S
C770 C778 1.378 . S
C771 C770 1.367 1_456 S
C771 C779 1.433 . S
C772 H768 0.929 . S
C772 C774 1.378 . S
C772 C776 1.350 . S
C773 C776 1.463 . S
C773 C778 1.350 1_456 S
C773 N781 1.427 . S
C774 H765 0.930 . S
C774 C772 1.378 . S
C774 C775 1.367 . S
C775 C774 1.367 . S
C775 C777 1.451 1_556 S
C776 C772 1.350 . S
C776 C773 1.463 . S
C776 N780 1.409 1_456 S
C777 H767 0.915 1_455 S
C777 C775 1.451 1_554 S
C777 N780 1.381 1_455 S
C778 H769 0.929 . S
C778 C770 1.378 . S
C778 C773 1.350 1_654 S
C779 H766 0.929 . S
C779 C771 1.433 . S
C779 N781 1.384 . S
N780 C776 1.409 1_654 S
N780 C777 1.381 1_655 S
N781 C773 1.427 . S
N781 C779 1.384 . S
H782 C788 0.930 . S
H783 C792 0.930 . S
H784 C797 0.929 . S
H785 C795 0.929 . S
H786 C790 0.929 . S
H787 C796 0.929 . S
C788 H782 0.930 . S
C788 C789 1.367 . S
C788 C796 1.378 . S
C789 C788 1.367 . S
C789 C797 1.433 . S
C790 H786 0.929 . S
C790 C792 1.378 . S
C790 C794 1.350 . S
C791 C794 1.463 . S
C791 C796 1.350 . S
C791 N799 1.427 . S
C792 H783 0.930 . S
C792 C790 1.378 . S
C792 C793 1.367 . S
C793 C792 1.367 . S
C793 C795 1.433 . S
C794 C790 1.350 . S
C794 C791 1.463 . S
C794 N798 1.427 . S
C795 H785 0.929 . S
C795 C793 1.433 . S
C795 N798 1.384 . S
C796 H787 0.929 . S
C796 C788 1.378 . S
C796 C791 1.350 . S
C797 H784 0.929 . S
C797 C789 1.433 . S
C797 N799 1.384 . S
N798 C794 1.427 . S
N798 C795 1.384 . S
N799 C791 1.427 . S
N799 C797 1.384 . S
H800 C806 0.930 . S
H801 C810 0.930 1_655 S
H802 C815 0.929 . S
H803 C813 0.929 . S
H804 C808 0.929 1_655 S
H805 C814 0.929 . S
C806 H800 0.930 . S
C806 C807 1.367 . S
C806 C814 1.378 . S
C807 C806 1.367 . S
C807 C815 1.433 . S
C808 H804 0.929 1_455 S
C808 C810 1.378 . S
C808 C812 1.350 . S
C809 C812 1.463 . S
C809 C814 1.350 . S
C809 N817 1.427 . S
C810 H801 0.930 1_455 S
C810 C808 1.378 . S
C810 C811 1.367 . S
C811 C810 1.367 . S
C811 C813 1.433 . S
C812 C808 1.350 . S
C812 C809 1.463 . S
C812 N816 1.427 . S
C813 H803 0.929 . S
C813 C811 1.433 . S
C813 N816 1.384 . S
C814 H805 0.929 . S
C814 C806 1.378 . S
C814 C809 1.350 . S
C815 H802 0.929 . S
C815 C807 1.433 . S
C815 N817 1.384 . S
N816 C812 1.427 . S
N816 C813 1.384 . S
N817 C809 1.427 . S
N817 C815 1.384 . S
H818 C824 0.930 . S
H819 C828 0.930 . S
H820 C833 0.929 . S
H821 C831 0.929 . S
H822 C826 0.929 . S
H823 C832 0.929 . S
C824 H818 0.930 . S
C824 C825 1.367 . S
C824 C832 1.378 . S
C825 C824 1.367 . S
C825 C833 1.433 . S
C826 H822 0.929 . S
C826 C828 1.378 . S
C826 C830 1.350 . S
C827 C830 1.463 . S
C827 C832 1.350 . S
C827 N835 1.427 . S
C828 H819 0.930 . S
C828 C826 1.378 . S
C828 C829 1.367 . S
C829 C828 1.367 . S
C829 C831 1.433 . S
C830 C826 1.350 . S
C830 C827 1.463 . S
C830 N834 1.427 . S
C831 H821 0.929 . S
C831 C829 1.433 . S
C831 N834 1.384 . S
C832 H823 0.929 . S
C832 C824 1.378 . S
C832 C827 1.350 . S
C833 H820 0.929 . S
C833 C825 1.433 . S
C833 N835 1.384 . S
N834 C830 1.427 . S
N834 C831 1.384 . S
N835 C827 1.427 . S
N835 C833 1.384 . S
C411 C21 1.559 . S
C415 C323 1.470 . S
C429 C61 1.526 . S
C433 C357 1.420 . S
C451 C369 1.354 . S
C447 C82 1.436 . S
C465 C135 1.521 . S
C469 C403 1.423 . S
C487 C360 1.423 . S
C483 C15 1.538 . S
C505 C340 1.431 . S
C501 C42 1.518 . S
C523 C387 1.396 . S
C519 C101 1.480 . S
C541 C378 1.393 . S
C537 C122 1.474 . S
C555 C2 1.560 . S
C559 C386 1.458 . S
C577 C348 1.355 . S
C573 C95 1.459 . S
C591 C141 1.519 . S
C595 C324 1.409 . S
C609 C55 1.508 . S
C613 C381 1.405 . S
C631 C339 1.741 . S
C627 C181 1.757 1_545 S
C645 C202 1.700 . S
C649 C361 1.688 . S
C663 C255 1.769 . S
C667 C366 1.693 . S
C681 C295 1.786 . S
C685 C399 1.706 . S
C699 C175 1.783 1_554 S
C703 C344 1.726 . S
C721 C336 1.759 . S
C717 C221 1.758 . S
C739 C390 1.678 . S
C735 C242 1.698 . S
C757 C382 1.730 . S
C753 C301 1.858 . S
C771 C162 1.689 1_455 S
C775 C402 1.667 . S
C793 C345 1.720 . S
C789 C261 1.721 . S
C811 C327 1.688 . S
C807 C282 1.823 . S
C825 C215 1.808 . S
C829 C365 1.728 . S
