# Generated by pormake.
# Topology iac, (4,6)-cn, num edge types: 1
# Building blocks:
#     Node 0, Type 0, BuildingBlock: GALJAG_clean_sbu_0, # of connection points: 4
#     Node 1, Type 0, BuildingBlock: GALJAG_clean_sbu_0, # of connection points: 4
#     Node 2, Type 0, BuildingBlock: GALJAG_clean_sbu_0, # of connection points: 4
#     Node 3, Type 0, BuildingBlock: GALJAG_clean_sbu_0, # of connection points: 4
#     Node 4, Type 0, BuildingBlock: GALJAG_clean_sbu_0, # of connection points: 4
#     Node 5, Type 0, BuildingBlock: GALJAG_clean_sbu_0, # of connection points: 4
#     Node 6, Type 0, BuildingBlock: GALJAG_clean_sbu_0, # of connection points: 4
#     Node 7, Type 0, BuildingBlock: GALJAG_clean_sbu_0, # of connection points: 4
#     Node 8, Type 0, BuildingBlock: GALJAG_clean_sbu_0, # of connection points: 4
#     Node 9, Type 0, BuildingBlock: GALJAG_clean_sbu_0, # of connection points: 4
#     Node 10, Type 0, BuildingBlock: GALJAG_clean_sbu_0, # of connection points: 4
#     Node 11, Type 0, BuildingBlock: GALJAG_clean_sbu_0, # of connection points: 4
#     Node 12, Type 0, BuildingBlock: GALJAG_clean_sbu_0, # of connection points: 4
#     Node 13, Type 0, BuildingBlock: GALJAG_clean_sbu_0, # of connection points: 4
#     Node 14, Type 0, BuildingBlock: GALJAG_clean_sbu_0, # of connection points: 4
#     Node 15, Type 0, BuildingBlock: GALJAG_clean_sbu_0, # of connection points: 4
#     Node 16, Type 0, BuildingBlock: GALJAG_clean_sbu_0, # of connection points: 4
#     Node 17, Type 0, BuildingBlock: GALJAG_clean_sbu_0, # of connection points: 4
#     Node 18, Type 0, BuildingBlock: GALJAG_clean_sbu_0, # of connection points: 4
#     Node 19, Type 0, BuildingBlock: GALJAG_clean_sbu_0, # of connection points: 4
#     Node 20, Type 0, BuildingBlock: GALJAG_clean_sbu_0, # of connection points: 4
#     Node 21, Type 0, BuildingBlock: GALJAG_clean_sbu_0, # of connection points: 4
#     Node 22, Type 0, BuildingBlock: GALJAG_clean_sbu_0, # of connection points: 4
#     Node 23, Type 0, BuildingBlock: GALJAG_clean_sbu_0, # of connection points: 4
#     Node 24, Type 1, BuildingBlock: VOLQOD_clean_sbu_1, # of connection points: 6
#     Node 25, Type 1, BuildingBlock: VOLQOD_clean_sbu_1, # of connection points: 6
#     Node 26, Type 1, BuildingBlock: VOLQOD_clean_sbu_1, # of connection points: 6
#     Node 27, Type 1, BuildingBlock: VOLQOD_clean_sbu_1, # of connection points: 6
#     Node 28, Type 1, BuildingBlock: VOLQOD_clean_sbu_1, # of connection points: 6
#     Node 29, Type 1, BuildingBlock: VOLQOD_clean_sbu_1, # of connection points: 6
#     Node 30, Type 1, BuildingBlock: VOLQOD_clean_sbu_1, # of connection points: 6
#     Node 31, Type 1, BuildingBlock: VOLQOD_clean_sbu_1, # of connection points: 6
#     Node 32, Type 1, BuildingBlock: VOLQOD_clean_sbu_1, # of connection points: 6
#     Node 33, Type 1, BuildingBlock: VOLQOD_clean_sbu_1, # of connection points: 6
#     Node 34, Type 1, BuildingBlock: VOLQOD_clean_sbu_1, # of connection points: 6
#     Node 35, Type 1, BuildingBlock: VOLQOD_clean_sbu_1, # of connection points: 6
#     Node 36, Type 1, BuildingBlock: VOLQOD_clean_sbu_1, # of connection points: 6
#     Node 37, Type 1, BuildingBlock: VOLQOD_clean_sbu_1, # of connection points: 6
#     Node 38, Type 1, BuildingBlock: VOLQOD_clean_sbu_1, # of connection points: 6
#     Node 39, Type 1, BuildingBlock: VOLQOD_clean_sbu_1, # of connection points: 6
#     Edge 40, Type (0, 1), BuildingBlock: KIFKEQ_clean_linker_1, # of connection points: 2
#     Edge 41, Type (0, 1), BuildingBlock: KIFKEQ_clean_linker_1, # of connection points: 2
#     Edge 42, Type (0, 1), BuildingBlock: KIFKEQ_clean_linker_1, # of connection points: 2
#     Edge 43, Type (0, 1), BuildingBlock: KIFKEQ_clean_linker_1, # of connection points: 2
#     Edge 44, Type (0, 1), BuildingBlock: KIFKEQ_clean_linker_1, # of connection points: 2
#     Edge 45, Type (0, 1), BuildingBlock: KIFKEQ_clean_linker_1, # of connection points: 2
#     Edge 46, Type (0, 1), BuildingBlock: KIFKEQ_clean_linker_1, # of connection points: 2
#     Edge 47, Type (0, 1), BuildingBlock: KIFKEQ_clean_linker_1, # of connection points: 2
#     Edge 48, Type (0, 1), BuildingBlock: KIFKEQ_clean_linker_1, # of connection points: 2
#     Edge 49, Type (0, 1), BuildingBlock: KIFKEQ_clean_linker_1, # of connection points: 2
#     Edge 50, Type (0, 1), BuildingBlock: KIFKEQ_clean_linker_1, # of connection points: 2
#     Edge 51, Type (0, 1), BuildingBlock: KIFKEQ_clean_linker_1, # of connection points: 2
#     Edge 52, Type (0, 1), BuildingBlock: KIFKEQ_clean_linker_1, # of connection points: 2
#     Edge 53, Type (0, 1), BuildingBlock: KIFKEQ_clean_linker_1, # of connection points: 2
#     Edge 54, Type (0, 1), BuildingBlock: KIFKEQ_clean_linker_1, # of connection points: 2
#     Edge 55, Type (0, 1), BuildingBlock: KIFKEQ_clean_linker_1, # of connection points: 2
#     Edge 56, Type (0, 1), BuildingBlock: KIFKEQ_clean_linker_1, # of connection points: 2
#     Edge 57, Type (0, 1), BuildingBlock: KIFKEQ_clean_linker_1, # of connection points: 2
#     Edge 58, Type (0, 1), BuildingBlock: KIFKEQ_clean_linker_1, # of connection points: 2
#     Edge 59, Type (0, 1), BuildingBlock: KIFKEQ_clean_linker_1, # of connection points: 2
#     Edge 60, Type (0, 1), BuildingBlock: KIFKEQ_clean_linker_1, # of connection points: 2
#     Edge 61, Type (0, 1), BuildingBlock: KIFKEQ_clean_linker_1, # of connection points: 2
#     Edge 62, Type (0, 1), BuildingBlock: KIFKEQ_clean_linker_1, # of connection points: 2
#     Edge 63, Type (0, 1), BuildingBlock: KIFKEQ_clean_linker_1, # of connection points: 2
#     Edge 64, Type (0, 1), BuildingBlock: KIFKEQ_clean_linker_1, # of connection points: 2
#     Edge 65, Type (0, 1), BuildingBlock: KIFKEQ_clean_linker_1, # of connection points: 2
#     Edge 66, Type (0, 1), BuildingBlock: KIFKEQ_clean_linker_1, # of connection points: 2
#     Edge 67, Type (0, 1), BuildingBlock: KIFKEQ_clean_linker_1, # of connection points: 2
#     Edge 68, Type (0, 1), BuildingBlock: KIFKEQ_clean_linker_1, # of connection points: 2
#     Edge 69, Type (0, 1), BuildingBlock: KIFKEQ_clean_linker_1, # of connection points: 2
#     Edge 70, Type (0, 1), BuildingBlock: KIFKEQ_clean_linker_1, # of connection points: 2
#     Edge 71, Type (0, 1), BuildingBlock: KIFKEQ_clean_linker_1, # of connection points: 2
#     Edge 72, Type (0, 1), BuildingBlock: KIFKEQ_clean_linker_1, # of connection points: 2
#     Edge 73, Type (0, 1), BuildingBlock: KIFKEQ_clean_linker_1, # of connection points: 2
#     Edge 74, Type (0, 1), BuildingBlock: KIFKEQ_clean_linker_1, # of connection points: 2
#     Edge 75, Type (0, 1), BuildingBlock: KIFKEQ_clean_linker_1, # of connection points: 2
#     Edge 76, Type (0, 1), BuildingBlock: KIFKEQ_clean_linker_1, # of connection points: 2
#     Edge 77, Type (0, 1), BuildingBlock: KIFKEQ_clean_linker_1, # of connection points: 2
#     Edge 78, Type (0, 1), BuildingBlock: KIFKEQ_clean_linker_1, # of connection points: 2
#     Edge 79, Type (0, 1), BuildingBlock: KIFKEQ_clean_linker_1, # of connection points: 2
#     Edge 80, Type (0, 1), BuildingBlock: KIFKEQ_clean_linker_1, # of connection points: 2
#     Edge 81, Type (0, 1), BuildingBlock: KIFKEQ_clean_linker_1, # of connection points: 2
#     Edge 82, Type (0, 1), BuildingBlock: KIFKEQ_clean_linker_1, # of connection points: 2
#     Edge 83, Type (0, 1), BuildingBlock: KIFKEQ_clean_linker_1, # of connection points: 2
#     Edge 84, Type (0, 1), BuildingBlock: KIFKEQ_clean_linker_1, # of connection points: 2
#     Edge 85, Type (0, 1), BuildingBlock: KIFKEQ_clean_linker_1, # of connection points: 2
#     Edge 86, Type (0, 1), BuildingBlock: KIFKEQ_clean_linker_1, # of connection points: 2
#     Edge 87, Type (0, 1), BuildingBlock: KIFKEQ_clean_linker_1, # of connection points: 2
#     Edge 88, Type (0, 1), BuildingBlock: KIFKEQ_clean_linker_1, # of connection points: 2
#     Edge 89, Type (0, 1), BuildingBlock: KIFKEQ_clean_linker_1, # of connection points: 2
#     Edge 90, Type (0, 1), BuildingBlock: KIFKEQ_clean_linker_1, # of connection points: 2
#     Edge 91, Type (0, 1), BuildingBlock: KIFKEQ_clean_linker_1, # of connection points: 2
#     Edge 92, Type (0, 1), BuildingBlock: KIFKEQ_clean_linker_1, # of connection points: 2
#     Edge 93, Type (0, 1), BuildingBlock: KIFKEQ_clean_linker_1, # of connection points: 2
#     Edge 94, Type (0, 1), BuildingBlock: KIFKEQ_clean_linker_1, # of connection points: 2
#     Edge 95, Type (0, 1), BuildingBlock: KIFKEQ_clean_linker_1, # of connection points: 2
#     Edge 96, Type (0, 1), BuildingBlock: KIFKEQ_clean_linker_1, # of connection points: 2
#     Edge 97, Type (0, 1), BuildingBlock: KIFKEQ_clean_linker_1, # of connection points: 2
#     Edge 98, Type (0, 1), BuildingBlock: KIFKEQ_clean_linker_1, # of connection points: 2
#     Edge 99, Type (0, 1), BuildingBlock: KIFKEQ_clean_linker_1, # of connection points: 2
#     Edge 100, Type (0, 1), BuildingBlock: KIFKEQ_clean_linker_1, # of connection points: 2
#     Edge 101, Type (0, 1), BuildingBlock: KIFKEQ_clean_linker_1, # of connection points: 2
#     Edge 102, Type (0, 1), BuildingBlock: KIFKEQ_clean_linker_1, # of connection points: 2
#     Edge 103, Type (0, 1), BuildingBlock: KIFKEQ_clean_linker_1, # of connection points: 2
#     Edge 104, Type (0, 1), BuildingBlock: KIFKEQ_clean_linker_1, # of connection points: 2
#     Edge 105, Type (0, 1), BuildingBlock: KIFKEQ_clean_linker_1, # of connection points: 2
#     Edge 106, Type (0, 1), BuildingBlock: KIFKEQ_clean_linker_1, # of connection points: 2
#     Edge 107, Type (0, 1), BuildingBlock: KIFKEQ_clean_linker_1, # of connection points: 2
#     Edge 108, Type (0, 1), BuildingBlock: KIFKEQ_clean_linker_1, # of connection points: 2
#     Edge 109, Type (0, 1), BuildingBlock: KIFKEQ_clean_linker_1, # of connection points: 2
#     Edge 110, Type (0, 1), BuildingBlock: KIFKEQ_clean_linker_1, # of connection points: 2
#     Edge 111, Type (0, 1), BuildingBlock: KIFKEQ_clean_linker_1, # of connection points: 2
#     Edge 112, Type (0, 1), BuildingBlock: KIFKEQ_clean_linker_1, # of connection points: 2
#     Edge 113, Type (0, 1), BuildingBlock: KIFKEQ_clean_linker_1, # of connection points: 2
#     Edge 114, Type (0, 1), BuildingBlock: KIFKEQ_clean_linker_1, # of connection points: 2
#     Edge 115, Type (0, 1), BuildingBlock: KIFKEQ_clean_linker_1, # of connection points: 2
#     Edge 116, Type (0, 1), BuildingBlock: KIFKEQ_clean_linker_1, # of connection points: 2
#     Edge 117, Type (0, 1), BuildingBlock: KIFKEQ_clean_linker_1, # of connection points: 2
#     Edge 118, Type (0, 1), BuildingBlock: KIFKEQ_clean_linker_1, # of connection points: 2
#     Edge 119, Type (0, 1), BuildingBlock: KIFKEQ_clean_linker_1, # of connection points: 2
#     Edge 120, Type (0, 1), BuildingBlock: KIFKEQ_clean_linker_1, # of connection points: 2
#     Edge 121, Type (0, 1), BuildingBlock: KIFKEQ_clean_linker_1, # of connection points: 2
#     Edge 122, Type (0, 1), BuildingBlock: KIFKEQ_clean_linker_1, # of connection points: 2
#     Edge 123, Type (0, 1), BuildingBlock: KIFKEQ_clean_linker_1, # of connection points: 2
#     Edge 124, Type (0, 1), BuildingBlock: KIFKEQ_clean_linker_1, # of connection points: 2
#     Edge 125, Type (0, 1), BuildingBlock: KIFKEQ_clean_linker_1, # of connection points: 2
#     Edge 126, Type (0, 1), BuildingBlock: KIFKEQ_clean_linker_1, # of connection points: 2
#     Edge 127, Type (0, 1), BuildingBlock: KIFKEQ_clean_linker_1, # of connection points: 2
#     Edge 128, Type (0, 1), BuildingBlock: KIFKEQ_clean_linker_1, # of connection points: 2
#     Edge 129, Type (0, 1), BuildingBlock: KIFKEQ_clean_linker_1, # of connection points: 2
#     Edge 130, Type (0, 1), BuildingBlock: KIFKEQ_clean_linker_1, # of connection points: 2
#     Edge 131, Type (0, 1), BuildingBlock: KIFKEQ_clean_linker_1, # of connection points: 2
#     Edge 132, Type (0, 1), BuildingBlock: KIFKEQ_clean_linker_1, # of connection points: 2
#     Edge 133, Type (0, 1), BuildingBlock: KIFKEQ_clean_linker_1, # of connection points: 2
#     Edge 134, Type (0, 1), BuildingBlock: KIFKEQ_clean_linker_1, # of connection points: 2
#     Edge 135, Type (0, 1), BuildingBlock: KIFKEQ_clean_linker_1, # of connection points: 2
# Relax obj value: 0.329
# Max RMSD: 0.288
# Mean RMSD: 0.183
data_MOF--net-iac--node1-GALJAG_clean_sbu_0--node2-VOLQOD_clean_sbu_1--edge1-KIFKEQ_clean_linker_1
_symmetry_space_group_name_H-M    P1
_symmetry_Int_Tables_number       1
_symmetry_cell_setting            triclinic
loop_
_symmetry_equiv_pos_as_xyz
'x, y, z'
_cell_length_a     56.084346
_cell_length_b     56.057547
_cell_length_c     56.051884
_cell_angle_alpha  90.212226
_cell_angle_beta   90.214117
_cell_angle_gamma 90.687349
loop_
_atom_site_label
_atom_site_type_symbol
_atom_site_fract_x
_atom_site_fract_y
_atom_site_fract_z
_atom_type_partial_charge
In0 In 0.00354 0.26434 0.10139 0.0
O1 O 0.99192 0.23998 0.07062 0.0
O2 O 0.01323 0.22525 0.09803 0.0
C3 C 0.00248 0.30596 0.07792 0.0
C4 C 0.96404 0.25681 0.12711 0.0
C5 C 0.04373 0.27432 0.12572 0.0
O6 O 0.01472 0.28859 0.07083 0.0
O7 O 0.99013 0.30202 0.0963 0.0
O8 O 0.02369 0.27271 0.13578 0.0
O9 O 0.04361 0.27016 0.10359 0.0
C10 C 0.0012 0.22159 0.07933 0.0
O11 O 0.98467 0.25368 0.13555 0.0
O12 O 0.96346 0.26487 0.1061 0.0
In13 In -0.00012 0.73412 0.38773 0.0
O14 O 0.01931 0.71115 0.36063 0.0
O15 O 0.02544 0.74874 0.36012 0.0
C16 C 0.95801 0.73285 0.36404 0.0
C17 C 0.01603 0.70246 0.41952 0.0
C18 C -0.00167 0.772 0.41728 0.0
O19 O 0.97307 0.74956 0.36166 0.0
O20 O 0.96418 0.71655 0.37821 0.0
O21 O 0.01531 0.76869 0.40303 0.0
O22 O 0.98188 0.75655 0.41621 0.0
C23 C 0.03039 0.72857 0.35145 0.0
O24 O -0.00565 0.70315 0.41337 0.0
O25 O 0.02943 0.71751 0.40948 0.0
In26 In 0.50577 0.76664 0.60949 0.0
O27 O 0.52094 0.78989 0.57952 0.0
O28 O 0.49639 0.80525 0.60382 0.0
C29 C 0.49757 0.72598 0.58506 0.0
C30 C 0.547 0.76976 0.63366 0.0
C31 C 0.46794 0.76134 0.63822 0.0
O32 O 0.49204 0.74607 0.57668 0.0
O33 O 0.50838 0.72676 0.6048 0.0
O34 O 0.48898 0.75778 0.64521 0.0
O35 O 0.46607 0.76844 0.61697 0.0
C36 C 0.51016 0.80835 0.58635 0.0
O37 O 0.52897 0.78185 0.63904 0.0
O38 O 0.54424 0.75582 0.61608 0.0
In39 In 0.52302 0.23183 0.87324 0.0
O40 O 0.53337 0.22631 0.83426 0.0
O41 O 0.55624 0.21249 0.86082 0.0
C42 C 0.47635 0.23645 0.86368 0.0
C43 C 0.52368 0.20075 0.90943 0.0
C44 C 0.53575 0.27714 0.88362 0.0
O45 O 0.48901 0.22101 0.85341 0.0
O46 O 0.48709 0.24886 0.87925 0.0
O47 O 0.53552 0.26079 0.89897 0.0
O48 O 0.53071 0.27039 0.86271 0.0
C49 C 0.55218 0.21521 0.83892 0.0
O50 O 0.53996 0.21614 0.90647 0.0
O51 O 0.50725 0.20088 0.89398 0.0
In52 In 0.14763 0.0244 0.24944 0.0
O53 O 0.1767 -0.00203 0.2591 0.0
O54 O 0.15837 0.99294 0.22627 0.0
C55 C 0.17024 0.06724 0.24974 0.0
C56 C 0.11058 0.02922 0.21939 0.0
C57 C 0.12817 0.01014 0.29078 0.0
O58 O 0.17679 0.05042 0.2364 0.0
O59 O 0.15239 0.06246 0.26241 0.0
O60 O 0.11903 0.00526 0.27074 0.0
O61 O 0.1476 0.02172 0.28999 0.0
C62 C 0.17377 0.98532 0.24065 0.0
O63 O 0.10927 0.03436 0.24125 0.0
O64 O 0.131 0.02305 0.21246 0.0
In65 In 0.26615 0.89006 0.52592 0.0
O66 O 0.24352 0.92314 0.52103 0.0
O67 O 0.23114 0.89658 0.5451 0.0
C68 C 0.30557 0.9176 0.53078 0.0
C69 C 0.2621 0.85377 0.55663 0.0
C70 C 0.26564 0.87136 0.48165 0.0
O71 O 0.28602 0.9253 0.52318 0.0
O72 O 0.30527 0.89589 0.53661 0.0
O73 O 0.24787 0.88167 0.49046 0.0
O74 O 0.28378 0.871 0.49493 0.0
C75 C 0.22766 0.91655 0.53554 0.0
O76 O 0.25898 0.85126 0.53447 0.0
O77 O 0.26784 0.87466 0.56336 0.0
In78 In 0.35259 0.9927 0.75842 0.0
O79 O 0.31929 0.01498 0.75163 0.0
O80 O 0.35143 0.03287 0.76162 0.0
C81 C 0.32476 0.95326 0.75575 0.0
C82 C 0.38577 -0.00179 0.72424 0.0
C83 C 0.37398 0.98803 0.80099 0.0
O84 O 0.33847 0.95943 0.73901 0.0
O85 O 0.32483 0.96716 0.77343 0.0
O86 O 0.35797 0.00319 0.79717 0.0
O87 O 0.37904 0.975 0.78335 0.0
C88 C 0.32978 0.03457 0.75596 0.0
O89 O 0.39097 -0.00685 0.74549 0.0
O90 O 0.36371 -0.00051 0.71995 0.0
In91 In 0.23591 0.10773 0.04362 0.0
O92 O 0.25997 0.07876 0.02969 0.0
O93 O 0.2646 0.08973 0.06581 0.0
C94 C 0.19474 0.08427 0.05192 0.0
C95 C 0.2494 0.14589 0.06973 0.0
C96 C 0.23075 0.12659 1e-05 0.0
O97 O 0.21267 0.07444 0.04293 0.0
O98 O 0.19774 0.10593 0.05749 0.0
O99 O 0.21369 0.12498 0.01454 0.0
O100 O 0.25019 0.11808 0.00727 0.0
C101 C 0.2713 0.0764 0.049 0.0
O102 O 0.25197 0.14481 0.04747 0.0
O103 O 0.23972 0.12771 0.07902 0.0
In104 In 0.74988 0.40313 0.00945 0.0
O105 O 0.7525 0.36364 0.01822 0.0
O106 O 0.74481 0.38751 0.04659 0.0
C107 C 0.75511 0.3867 0.9647 0.0
C108 C 0.70765 0.42441 0.01562 0.0
C109 C 0.7863 0.43414 0.01586 0.0
O110 O 0.7375 0.39901 0.97097 0.0
O111 O 0.77028 0.38302 0.98091 0.0
O112 O 0.77195 0.43532 -0.00142 0.0
O113 O 0.78251 0.41701 0.02995 0.0
C114 C 0.74773 0.3662 0.04001 0.0
O115 O 0.72719 0.43522 0.01905 0.0
O116 O 0.70946 0.403 0.00899 0.0
In117 In 0.86329 0.48203 0.25349 0.0
O118 O 0.89345 0.50705 0.2435 0.0
O119 O 0.89142 0.47349 0.22557 0.0
C120 C 0.88683 0.47797 0.29486 0.0
C121 C 0.83221 0.51699 0.24431 0.0
C122 C 0.83593 0.44254 0.24902 0.0
O123 O 0.88877 0.4629 0.27822 0.0
O124 O 0.87253 0.49473 0.2908 0.0
O125 O 0.83793 0.45415 0.26821 0.0
O126 O 0.84779 0.45086 0.23178 0.0
C127 C 0.90246 0.49311 0.22841 0.0
O128 O 0.84425 0.50724 0.22812 0.0
O129 O 0.83557 0.50884 0.26497 0.0
In130 In 0.74488 0.61454 0.52334 0.0
O131 O 0.77161 0.58583 0.53253 0.0
O132 O 0.78101 0.61125 0.50592 0.0
C133 C 0.70881 0.58921 0.54231 0.0
C134 C 0.76081 0.65203 0.54896 0.0
C135 C 0.72357 0.62513 0.48183 0.0
O136 O 0.72404 0.58008 0.52866 0.0
O137 O 0.71241 0.61093 0.54723 0.0
O138 O 0.71967 0.63644 0.50087 0.0
O139 O 0.73833 0.60843 0.4837 0.0
C140 C 0.78708 0.59339 0.51802 0.0
O141 O 0.75483 0.65374 0.52734 0.0
O142 O 0.75823 0.63148 0.55781 0.0
In143 In 0.63788 0.53121 0.74188 0.0
O144 O 0.65789 0.50495 0.71817 0.0
O145 O 0.65005 0.49488 0.75387 0.0
C146 C 0.67344 0.56361 0.73723 0.0
C147 C 0.59832 0.52446 0.71537 0.0
C148 C 0.61717 0.54411 0.78306 0.0
O149 O 0.6713 0.55018 0.75507 0.0
O150 O 0.65755 0.56075 0.72142 0.0
O151 O 0.61237 0.55403 0.76349 0.0
O152 O 0.63277 0.52814 0.7819 0.0
C153 C 0.6591 0.48917 0.73413 0.0
O154 O 0.60474 0.51021 0.73145 0.0
O155 O 0.61205 0.54227 0.71241 0.0
In156 In 0.01008 0.76259 0.88941 0.0
O157 O 0.03294 0.76541 0.85644 0.0
O158 O 0.04414 0.74121 0.88313 0.0
C159 C 0.97461 0.76665 0.85756 0.0
C160 C 0.98869 0.73523 0.92241 0.0
C161 C 0.02448 0.80023 0.91566 0.0
O162 O 0.98647 0.78442 0.86509 0.0
O163 O 0.9803 0.7469 0.86652 0.0
O164 O 0.03347 0.77985 0.91826 0.0
O165 O 0.00908 0.80162 0.89927 0.0
C166 C 0.04784 0.75011 0.86283 0.0
O167 O 0.98839 0.75768 0.92325 0.0
O168 O -0.00037 0.72651 0.90482 0.0
In169 In 0.00806 0.24586 0.63392 0.0
O170 O 0.01362 0.2685 0.6007 0.0
O171 O 0.00367 0.28579 0.63302 0.0
C172 C 0.00919 0.20824 0.60422 0.0
C173 C 0.04387 0.24273 0.66566 0.0
C174 C 0.96536 0.25218 0.65391 0.0
O175 O 0.02504 0.22435 0.60422 0.0
O176 O -0.00692 0.2108 0.61963 0.0
O177 O 0.98322 0.2458 0.66598 0.0
O178 O 0.9687 0.25355 0.63174 0.0
C179 C 0.00769 0.28758 0.611 0.0
O180 O 0.02689 0.22782 0.66491 0.0
O181 O 0.04306 0.25881 0.65002 0.0
In182 In 0.50905 0.26693 0.38012 0.0
O183 O 0.53692 0.27728 0.35291 0.0
O184 O 0.53639 0.24129 0.36486 0.0
C185 C 0.47049 0.2765 0.35312 0.0
C186 C 0.491 0.2347 0.41061 0.0
C187 C 0.53092 0.29999 0.4074 0.0
O188 O 0.48514 0.26052 0.3479 0.0
O189 O 0.47522 0.2878 0.37206 0.0
O190 O 0.53018 0.27828 0.41323 0.0
O191 O 0.52082 0.30486 0.38789 0.0
C192 C 0.54583 0.25681 0.3515 0.0
O193 O 0.48904 0.25687 0.4138 0.0
O194 O 0.50194 0.22873 0.3919 0.0
In195 In 0.48133 0.73343 0.12975 0.0
O196 O 0.46755 0.71796 0.09478 0.0
O197 O 0.4688 0.69496 0.12469 0.0
C198 C 0.49444 0.77541 0.1112 0.0
C199 C 0.44471 0.74966 0.15543 0.0
C200 C 0.52188 0.71774 0.14958 0.0
O201 O 0.49323 0.75663 0.09871 0.0
O202 O 0.49052 0.77258 0.13316 0.0
O203 O 0.50225 0.71751 0.16043 0.0
O204 O 0.52104 0.7258 0.12862 0.0
C205 C 0.46408 0.69731 0.10284 0.0
O206 O 0.46213 0.73925 0.16492 0.0
O207 O 0.44519 0.75071 0.13299 0.0
In208 In 0.89406 0.0272 0.76321 0.0
O209 O 0.9253 0.01034 0.74423 0.0
O210 O 0.91276 0.04342 0.731 0.0
C211 C 0.90941 0.01359 0.80655 0.0
C212 C 0.87627 0.0713 0.76815 0.0
C213 C 0.86076 -0.00406 0.7471 0.0
O214 O 0.92242 0.02501 0.79218 0.0
O215 O 0.88871 0.00878 0.79896 0.0
O216 O 0.85601 0.01211 0.76199 0.0
O217 O 0.88229 -0.00476 0.74088 0.0
C218 C 0.92704 0.02634 0.72856 0.0
O219 O 0.86832 0.05631 0.75321 0.0
O220 O 0.89395 0.0644 0.78014 0.0
In221 In 0.78086 0.13135 0.49792 0.0
O222 O 0.78898 0.09429 0.48374 0.0
O223 O 0.8182 0.11778 0.49113 0.0
C224 C 0.73959 0.1165 0.5171 0.0
C225 C 0.79454 0.15617 0.53681 0.0
C226 C 0.77528 0.15313 0.45565 0.0
O227 O 0.75623 0.10231 0.51229 0.0
O228 O 0.74345 0.13796 0.51139 0.0
O229 O 0.79344 0.15636 0.4686 0.0
O230 O 0.75949 0.13961 0.46443 0.0
C231 C 0.81122 0.09772 0.48334 0.0
O232 O 0.78808 0.16617 0.51777 0.0
O233 O 0.79559 0.13372 0.53566 0.0
In234 In 0.62259 0.98007 0.27048 0.0
O235 O 0.65568 0.95986 0.28247 0.0
O236 O 0.62179 0.94377 0.28836 0.0
C237 C 0.64802 0.01428 0.24864 0.0
C238 C 0.5994 0.96599 0.23072 0.0
C239 C 0.59933 -0.00033 0.30753 0.0
O240 O 0.65748 -0.00019 0.26299 0.0
O241 O 0.62568 0.01226 0.24645 0.0
O242 O 0.59151 0.98192 0.29602 0.0
O243 O 0.61889 0.00807 0.30013 0.0
C244 C 0.64405 0.94247 0.29085 0.0
O245 O 0.58911 0.97616 0.24785 0.0
O246 O 0.62113 0.96156 0.23425 0.0
In247 In 0.72792 0.85006 0.00918 0.0
O248 O 0.71152 0.8803 0.98836 0.0
O249 O 0.68809 0.85665 0.00691 0.0
C250 C 0.76386 0.87822 0.0246 0.0
C251 C 0.72191 0.82865 0.05141 0.0
C252 C 0.73707 0.82318 0.97053 0.0
O253 O 0.74544 0.88659 0.01492 0.0
O254 O 0.76467 0.85576 0.02523 0.0
O255 O 0.71813 0.82094 0.98235 0.0
O256 O 0.75175 0.83838 0.97871 0.0
C257 C 0.69033 0.87463 -0.00648 0.0
O258 O 0.72959 0.81759 0.0334 0.0
O259 O 0.71555 0.84978 0.0475 0.0
In260 In 0.28124 0.62972 0.01252 0.0
O261 O 0.29076 0.65955 0.03855 0.0
O262 O 0.28939 0.62434 0.05209 0.0
C263 C 0.28379 0.66283 0.97816 0.0
C264 C 0.30623 0.59608 0.98973 0.0
C265 C 0.23678 0.61401 0.0212 0.0
O266 O 0.30215 0.65469 0.98817 0.0
O267 O 0.26425 0.65462 0.98589 0.0
O268 O 0.25458 0.60047 0.02224 0.0
O269 O 0.24143 0.63531 0.01542 0.0
C270 C 0.29185 0.64628 0.05656 0.0
O271 O 0.28411 0.59852 0.98677 0.0
O272 O 0.31567 0.61005 0.00489 0.0
In273 In 0.11289 0.49256 0.77395 0.0
O274 O 0.13141 0.45696 0.76928 0.0
O275 O 0.12756 0.47007 0.80453 0.0
C276 C 0.15086 0.51951 0.76127 0.0
C277 C 0.08381 0.49108 0.73587 0.0
C278 C 0.08247 0.50879 0.80679 0.0
O279 O 0.1402 0.50583 0.74682 0.0
O280 O 0.14223 0.51978 0.78199 0.0
O281 O 0.07971 0.48862 0.79694 0.0
O282 O 0.10039 0.52069 0.79988 0.0
C283 C 0.13572 0.45408 0.79115 0.0
O284 O 0.08971 0.51029 0.74622 0.0
O285 O 0.09205 0.47238 0.74517 0.0
In286 In 0.24351 0.33712 0.51613 0.0
O287 O 0.25008 0.30801 0.54404 0.0
O288 O 0.23248 0.33964 0.55458 0.0
C289 C 0.24528 0.30866 0.47745 0.0
C290 C 0.20598 0.36211 0.50124 0.0
C291 C 0.2812 0.36638 0.52255 0.0
O292 O 0.22808 0.30794 0.49186 0.0
O293 O 0.26221 0.32238 0.48359 0.0
O294 O 0.26003 0.37368 0.52258 0.0
O295 O 0.28342 0.34426 0.51889 0.0
C296 C 0.24112 0.32001 0.56078 0.0
O297 O 0.22713 0.3677 0.49583 0.0
O298 O 0.20377 0.34393 0.51434 0.0
In299 In 0.41352 0.52989 0.24397 0.0
O300 O 0.43968 0.50952 0.22093 0.0
O301 O 0.42453 0.54076 0.20634 0.0
C302 C 0.44308 0.52588 0.28165 0.0
C303 C 0.38815 0.56877 0.25542 0.0
C304 C 0.37804 0.49792 0.23774 0.0
O305 O 0.44075 0.54518 0.27045 0.0
O306 O 0.43105 0.50855 0.27341 0.0
O307 O 0.38386 0.51278 0.22186 0.0
O308 O 0.39013 0.49924 0.2568 0.0
C309 C 0.43751 0.52282 0.20302 0.0
O310 O 0.38014 0.5478 0.25723 0.0
O311 O 0.40915 0.57047 0.24744 0.0
O312 O 0.96932 0.0447 0.02939 0.0
Zn313 Zn 0.98231 0.01309 0.02065 0.0
O314 O 0.97041 0.98907 0.04248 0.0
Zn315 Zn -0.00302 0.97253 0.05704 0.0
Zn316 Zn 0.95037 0.00348 0.06716 0.0
Zn317 Zn 0.95249 0.96603 0.02439 0.0
O318 O 0.00211 0.93953 0.04386 0.0
O319 O 0.96988 0.93553 0.0212 0.0
O320 O 0.01781 0.01719 0.02345 0.0
O321 O 0.02716 0.99063 0.05108 0.0
O322 O -0.00616 0.97215 0.09242 0.0
O323 O 0.96698 0.00025 0.09902 0.0
O324 O 0.9178 0.9868 0.06889 0.0
O325 O 0.97243 0.0066 0.98684 0.0
O326 O 0.92215 0.95919 0.04059 0.0
O327 O 0.94631 0.97687 0.99094 0.0
C328 C 0.95612 0.05276 0.04585 0.0
C329 C 0.98923 0.92736 0.02949 0.0
C330 C 0.98302 0.98618 0.10653 0.0
C331 C 0.03302 0.00752 0.03714 0.0
C332 C 0.91021 0.96856 0.05733 0.0
C333 C 0.95682 0.99238 0.97807 0.0
O334 O 0.9472 0.03909 0.06172 0.0
O335 O 0.24194 0.71473 0.22823 0.0
Zn336 Zn 0.2381 0.72405 0.26255 0.0
O337 O 0.24662 0.75774 0.26556 0.0
Zn338 Zn 0.27645 0.76115 0.28287 0.0
Zn339 Zn 0.24908 0.77269 0.23432 0.0
Zn340 Zn 0.22218 0.77362 0.2829 0.0
O341 O 0.27169 0.77673 0.31465 0.0
O342 O 0.23241 0.78103 0.31641 0.0
O343 O 0.26145 0.70308 0.27992 0.0
O344 O 0.29077 0.72901 0.2877 0.0
O345 O 0.30077 0.77965 0.26431 0.0
O346 O 0.28244 0.78419 0.22958 0.0
O347 O 0.22903 0.8022 0.23109 0.0
O348 O 0.2037 0.7174 0.27214 0.0
O349 O 0.21473 0.80471 0.26781 0.0
O350 O 0.19253 0.75395 0.28263 0.0
C351 C 0.24346 0.726 0.2086 0.0
C352 C 0.25302 0.78276 0.32591 0.0
C353 C 0.3008 0.78662 0.24275 0.0
C354 C 0.28271 0.70771 0.2868 0.0
C355 C 0.21767 0.81346 0.24712 0.0
C356 C 0.18776 0.73207 0.27862 0.0
O357 O 0.24394 0.74873 0.20798 0.0
O358 O 0.52504 0.98375 0.52097 0.0
Zn359 Zn 0.50942 0.01379 0.51026 0.0
O360 O 0.51658 0.0399 0.53221 0.0
Zn361 Zn 0.48679 0.05394 0.54273 0.0
Zn362 Zn 0.53515 0.02837 0.55949 0.0
Zn363 Zn 0.53455 0.06409 0.51555 0.0
O364 O 0.48127 0.08663 0.52917 0.0
O365 O 0.51665 0.09448 0.51319 0.0
O366 O 0.47457 0.00564 0.51001 0.0
O367 O 0.459 0.03322 0.53347 0.0
O368 O 0.48563 0.05493 0.57827 0.0
O369 O 0.51639 0.03309 0.58984 0.0
O370 O 0.56738 0.0454 0.56223 0.0
O371 O 0.52019 0.02108 0.47703 0.0
O372 O 0.56484 0.0711 0.53226 0.0
O373 O 0.54214 0.054 0.482 0.0
C374 C 0.53589 0.97778 0.53997 0.0
C375 C 0.49562 0.1007 0.51854 0.0
C376 C 0.49751 0.04461 0.59456 0.0
C377 C 0.45675 0.01466 0.52053 0.0
C378 C 0.576 0.06258 0.54999 0.0
C379 C 0.53406 0.03718 0.46885 0.0
O380 O 0.54052 0.99296 0.55638 0.0
O381 O 0.24378 0.24642 0.85299 0.0
Zn382 Zn 0.25513 0.26792 0.82668 0.0
O383 O 0.24392 0.25548 0.79583 0.0
Zn384 Zn 0.2707 0.24858 0.77483 0.0
Zn385 Zn 0.22428 0.22677 0.79995 0.0
Zn386 Zn 0.22473 0.27931 0.78093 0.0
O387 O 0.26832 0.26505 0.74297 0.0
O388 O 0.23541 0.28588 0.74792 0.0
O389 O 0.29106 0.26782 0.82762 0.0
O390 O 0.30162 0.25679 0.79104 0.0
O391 O 0.27179 0.21364 0.76764 0.0
O392 O 0.23935 0.19835 0.7845 0.0
O393 O 0.19136 0.23025 0.78613 0.0
O394 O 0.24373 0.30171 0.83337 0.0
O395 O 0.19092 0.26882 0.77761 0.0
O396 O 0.22544 0.30949 0.79905 0.0
C397 C 0.23036 0.22793 0.85351 0.0
C398 C 0.25262 0.27916 0.73497 0.0
C399 C 0.25829 0.1959 0.77236 0.0
C400 C 0.30704 0.26336 0.81217 0.0
C401 C 0.18044 0.24866 0.77896 0.0
C402 C 0.23275 0.31588 0.81956 0.0
O403 O 0.22134 0.21902 0.83456 0.0
O404 O 0.01781 0.98422 0.44561 0.0
Zn405 Zn -0.00477 0.97849 0.47288 0.0
O406 O 0.0068 -0.0062 0.502 0.0
Zn407 Zn 0.01591 0.97048 0.52625 0.0
Zn408 Zn 0.03374 0.01458 0.49461 0.0
Zn409 Zn 0.98119 0.01257 0.51425 0.0
O410 O 0.00043 0.97724 0.55811 0.0
O411 O 0.97552 0.00609 0.54848 0.0
O412 O -0.0071 0.94352 0.47856 0.0
O413 O 0.00753 0.9371 0.51498 0.0
O414 O 0.05115 0.97214 0.53215 0.0
O415 O 0.06305 0.00406 0.51183 0.0
O416 O 0.02741 0.04871 0.50312 0.0
O417 O 0.9623 0.98928 0.46304 0.0
O418 O 0.98904 0.04732 0.51257 0.0
O419 O 0.95098 0.00674 0.49669 0.0
C420 C 0.03508 -0.00106 0.44304 0.0
C421 C 0.98447 0.99217 0.56382 0.0
C422 C 0.06743 0.98672 0.52568 0.0
C423 C -0.00174 0.92951 0.49553 0.0
C424 C 0.00825 0.05905 0.50907 0.0
C425 C 0.94633 -0.00136 0.476 0.0
O426 O 0.042 0.01246 0.46004 0.0
O427 O 0.31479 0.72867 0.74587 0.0
Zn428 Zn 0.28437 0.73538 0.7632 0.0
O429 O 0.25733 0.72066 0.74619 0.0
Zn430 Zn 0.23403 0.74481 0.73821 0.0
Zn431 Zn 0.26756 0.70445 0.71704 0.0
Zn432 Zn 0.24261 0.69751 0.76682 0.0
O433 O 0.20282 0.73905 0.7545 0.0
O434 O 0.20807 0.70417 0.77217 0.0
O435 O 0.28116 0.77097 0.7639 0.0
O436 O 0.246 0.77752 0.747 0.0
O437 O 0.22878 0.74636 0.70311 0.0
O438 O 0.25396 0.72024 0.6879 0.0
O439 O 0.25874 0.66928 0.71668 0.0
O440 O 0.28696 0.72463 0.79751 0.0
O441 O 0.24568 0.66478 0.75382 0.0
O442 O 0.25727 0.69827 0.79895 0.0
C443 C 0.31938 0.71782 0.72645 0.0
C444 C 0.19496 0.72178 0.767 0.0
C445 C 0.23848 0.73646 0.68523 0.0
C446 C 0.26508 0.78516 0.75685 0.0
C447 C 0.25146 0.65615 0.7337 0.0
C448 C 0.27429 0.70963 0.809 0.0
O449 O 0.303 0.70778 0.71407 0.0
O450 O 0.53639 0.00168 0.05345 0.0
Zn451 Zn 0.52699 0.00806 0.01944 0.0
O452 O 0.49474 -0.00377 0.01422 0.0
Zn453 Zn 0.4946 0.96802 -0.0061 0.0
Zn454 Zn 0.4804 0.98945 0.04491 0.0
Zn455 Zn 0.47622 0.02003 -0.00097 0.0
O456 O 0.47319 0.97188 0.96525 0.0
O457 O 0.46839 0.01115 0.96535 0.0
O458 O 0.55002 0.99051 -0.00126 0.0
O459 O 0.52756 0.96233 0.98167 0.0
O460 O 0.48614 0.93868 0.01283 0.0
O461 O 0.47881 0.9543 0.04852 0.0
O462 O 0.44712 0.00238 0.0483 0.0
O463 O 0.52972 0.04348 0.01297 0.0
O464 O 0.445 0.02337 0.01497 0.0
O465 O 0.49295 0.05132 0.00048 0.0
C466 C 0.52419 0.00045 0.07254 0.0
C467 C 0.46595 0.99087 0.95527 0.0
C468 C 0.48133 0.93635 0.03488 0.0
C469 C 0.54773 0.97248 0.98499 0.0
C470 C 0.43559 0.01564 0.03406 0.0
C471 C 0.51394 0.05812 0.00609 0.0
O472 O 0.5015 -0.00024 0.07209 0.0
O473 O 0.19728 0.29897 0.2335 0.0
Zn474 Zn 0.22461 0.28632 0.2528 0.0
O475 O 0.25498 0.29693 0.23979 0.0
Zn476 Zn 0.27597 0.26979 0.23669 0.0
Zn477 Zn 0.25072 0.31272 0.20918 0.0
Zn478 Zn 0.269 0.31936 0.26174 0.0
O479 O 0.30638 0.2743 0.25515 0.0
O480 O 0.30307 0.31145 0.26841 0.0
O481 O 0.22228 0.25082 0.25084 0.0
O482 O 0.25951 0.23895 0.24567 0.0
O483 O 0.28444 0.26531 0.20259 0.0
O484 O 0.26604 0.29391 0.18268 0.0
O485 O 0.2636 0.34679 0.20992 0.0
O486 O 0.22173 0.29403 0.2879 0.0
O487 O 0.26847 0.35227 0.24895 0.0
O488 O 0.25297 0.31805 0.29326 0.0
C489 C 0.19673 0.30803 0.21268 0.0
C490 C 0.31507 0.29251 0.26585 0.0
C491 C 0.27905 0.27543 0.18307 0.0
C492 C 0.23753 0.23428 0.24917 0.0
C493 C 0.26801 0.36033 0.22778 0.0
C494 C 0.23487 0.30696 0.30139 0.0
O495 O 0.21575 0.31335 0.20142 0.0
O496 O 0.50004 0.50842 0.92123 0.0
Zn497 Zn 0.48 0.4878 0.94278 0.0
O498 O 0.4865 0.49536 0.97613 0.0
Zn499 Zn 0.4967 0.46761 -0.00605 0.0
Zn500 Zn 0.51051 0.52069 0.97866 0.0
Zn501 Zn 0.45725 0.50555 0.99018 0.0
O502 O 0.47951 0.46349 0.02538 0.0
O503 O 0.45215 0.49142 0.02212 0.0
O504 O 0.4892 0.45379 0.93688 0.0
O505 O 0.49593 0.43852 0.97293 0.0
O506 O 0.53048 0.47208 0.00382 0.0
O507 O 0.54001 0.50977 -0.00406 0.0
O508 O 0.4969 0.54928 -0.00496 0.0
O509 O 0.44514 0.49245 0.93386 0.0
O510 O 0.45817 0.54059 -0.00366 0.0
O511 O 0.42942 0.49819 0.96967 0.0
C512 C 0.51577 0.52456 0.92513 0.0
C513 C 0.46229 0.47523 0.03408 0.0
C514 C 0.54524 0.48944 0.00439 0.0
C515 C 0.49438 0.43628 0.95031 0.0
C516 C 0.47549 0.55513 -0.00051 0.0
C517 C 0.4271 0.49481 0.94737 0.0
O518 O 0.52145 0.53088 0.94624 0.0
O519 O 0.80516 0.22075 0.22326 0.0
Zn520 Zn 0.77515 0.22851 0.24063 0.0
O521 O 0.74756 0.21775 0.22222 0.0
Zn522 Zn 0.72641 0.24448 0.21601 0.0
Zn523 Zn 0.75736 0.20302 0.19207 0.0
Zn524 Zn 0.7307 0.19461 0.24111 0.0
O525 O 0.69505 0.2415 0.23331 0.0
O526 O 0.69949 0.20694 0.25176 0.0
O527 O 0.77518 0.26395 0.24446 0.0
O528 O 0.74196 0.27531 0.22634 0.0
O529 O 0.72094 0.2484 0.18107 0.0
O530 O 0.74623 0.22311 0.16447 0.0
O531 O 0.74369 0.16944 0.18798 0.0
O532 O 0.77637 0.21399 0.27335 0.0
O533 O 0.72413 0.16553 0.22226 0.0
O534 O 0.74795 0.18625 0.27108 0.0
C535 C 0.80974 0.21067 0.20344 0.0
C536 C 0.68735 0.2254 0.24738 0.0
C537 C 0.7312 0.23989 0.16276 0.0
C538 C 0.76117 0.28023 0.23756 0.0
C539 C 0.73022 0.1576 0.20197 0.0
C540 C 0.76488 0.19655 0.28238 0.0
O541 O 0.79316 0.2026 0.18993 0.0
O542 O 0.04261 0.5013 0.55117 0.0
Zn543 Zn 0.04102 0.50426 0.51545 0.0
O544 O 0.00936 0.49544 0.50381 0.0
Zn545 Zn 0.01027 0.46588 0.48561 0.0
Zn546 Zn 0.98816 0.49194 0.53094 0.0
Zn547 Zn -0.00245 0.51984 0.48302 0.0
O548 O -0.00598 0.4686 0.4538 0.0
O549 O 0.99163 0.50784 0.44996 0.0
O550 O 0.06545 0.48257 0.50131 0.0
O551 O 0.04406 0.45636 0.48016 0.0
O552 O -0.00493 0.43928 0.50388 0.0
O553 O 0.97916 0.45767 0.53501 0.0
O554 O 0.95851 0.51109 0.52731 0.0
O555 O 0.04961 0.53828 0.50703 0.0
O556 O 0.96579 0.53125 0.49407 0.0
O557 O 0.01996 0.54747 0.48228 0.0
C558 C 0.02651 0.50145 0.56713 0.0
C559 C 0.98905 0.4869 0.44148 0.0
C560 C 0.98341 0.43874 0.52329 0.0
C561 C 0.06406 0.46439 0.48765 0.0
C562 C 0.9523 0.52609 0.51155 0.0
C563 C 0.03942 0.55266 0.49288 0.0
O564 O 0.00447 0.5005 0.5617 0.0
O565 O 0.72609 0.71934 0.32637 0.0
Zn566 Zn 0.74045 0.74126 0.30213 0.0
O567 O 0.73189 0.72976 0.27037 0.0
Zn568 Zn 0.76038 0.72594 0.2506 0.0
Zn569 Zn 0.7135 0.69998 0.27188 0.0
Zn570 Zn 0.7117 0.75315 0.25658 0.0
O571 O 0.75904 0.74697 0.22106 0.0
O572 O 0.72747 0.7689 0.22949 0.0
O573 O 0.77598 0.74125 0.30629 0.0
O574 O 0.79007 0.73359 0.27005 0.0
O575 O 0.76351 0.69144 0.24048 0.0
O576 O 0.73232 0.67375 0.25757 0.0
O577 O 0.68259 0.70096 0.25334 0.0
O578 O 0.72784 0.77427 0.30961 0.0
O579 O 0.68243 0.7389 0.24265 0.0
O580 O 0.70215 0.77784 0.2797 0.0
C581 C 0.71297 0.70065 0.32554 0.0
C582 C 0.74501 0.76403 0.21615 0.0
C583 C 0.75126 0.67275 0.24521 0.0
C584 C 0.79341 0.73842 0.29208 0.0
C585 C 0.67299 0.71823 0.24241 0.0
C586 C 0.71086 0.78514 0.29938 0.0
O587 O 0.70654 0.69126 0.3058 0.0
O588 O 0.75717 0.23058 0.70805 0.0
Zn589 Zn 0.74885 0.23897 0.74164 0.0
O590 O 0.75606 0.27241 0.74732 0.0
Zn591 Zn 0.78408 0.27526 0.76803 0.0
Zn592 Zn 0.76161 0.28839 0.71683 0.0
Zn593 Zn 0.72915 0.28667 0.76265 0.0
O594 O 0.77704 0.29501 0.7971 0.0
O595 O 0.73763 0.29845 0.79552 0.0
O596 O 0.76871 0.21832 0.76232 0.0
O597 O 0.79527 0.24294 0.77897 0.0
O598 O 0.81159 0.28944 0.75013 0.0
O599 O 0.79566 0.29874 0.71513 0.0
O600 O 0.74096 0.31737 0.71219 0.0
O601 O 0.71441 0.23053 0.74757 0.0
O602 O 0.71829 0.31489 0.74447 0.0
O603 O 0.70142 0.26419 0.76366 0.0
C604 C 0.75937 0.24268 0.68901 0.0
C605 C 0.75748 0.30189 0.80618 0.0
C606 C 0.81354 0.2977 0.7291 0.0
C607 C 0.78686 0.22201 0.77554 0.0
C608 C 0.72418 0.32519 0.72518 0.0
C609 C 0.69784 0.24283 0.75669 0.0
O610 O 0.7585 0.26538 0.68917 0.0
O611 O 0.71128 0.7734 0.73262 0.0
Zn612 Zn 0.74197 0.76655 0.74951 0.0
O613 O 0.76849 0.78209 0.73299 0.0
Zn614 Zn 0.79184 0.75819 0.72362 0.0
Zn615 Zn 0.75754 0.79987 0.70502 0.0
Zn616 Zn 0.78314 0.80437 0.75479 0.0
O617 O 0.82333 0.76319 0.74046 0.0
O618 O 0.81752 0.79753 0.75922 0.0
O619 O 0.74554 0.73129 0.74864 0.0
O620 O 0.77962 0.72466 0.72984 0.0
O621 O 0.79734 0.75963 0.68856 0.0
O622 O 0.77163 0.78622 0.67496 0.0
O623 O 0.76563 0.83525 0.70694 0.0
O624 O 0.73969 0.77578 0.7843 0.0
O625 O 0.78007 0.83765 0.7438 0.0
O626 O 0.76894 0.80253 0.78701 0.0
C627 C 0.7061 0.78528 0.71404 0.0
C628 C 0.83095 0.78036 0.75345 0.0
C629 C 0.78767 0.77073 0.67136 0.0
C630 C 0.76087 0.71707 0.74021 0.0
C631 C 0.77357 0.84747 0.72451 0.0
C632 C 0.75214 0.79057 0.79647 0.0
O633 O 0.72198 0.79635 0.70206 0.0
O634 O 0.48163 0.55754 0.51259 0.0
Zn635 Zn 0.49846 0.52804 0.50272 0.0
O636 O 0.48437 0.50112 0.51947 0.0
Zn637 Zn 0.50858 0.48259 0.53586 0.0
Zn638 Zn 0.46012 0.51099 0.54226 0.0
Zn639 Zn 0.47022 0.48133 0.49574 0.0
O640 O 0.51591 0.45118 0.51972 0.0
O641 O 0.49019 0.45317 0.48974 0.0
O642 O 0.5327 0.53245 0.51269 0.0
O643 O 0.53904 0.50129 0.53617 0.0
O644 O 0.5007 0.47847 0.57041 0.0
O645 O 0.47288 0.50592 0.57557 0.0
O646 O 0.42951 0.49107 0.53826 0.0
O647 O 0.49543 0.52547 0.46663 0.0
O648 O 0.43857 0.47012 0.50592 0.0
O649 O 0.46755 0.49723 0.46442 0.0
C650 C 0.46473 0.56259 0.52677 0.0
C651 C 0.50725 0.4429 0.50034 0.0
C652 C 0.48799 0.49135 0.58402 0.0
C653 C 0.54619 0.52051 0.52642 0.0
C654 C 0.42428 0.47515 0.52267 0.0
C655 C 0.48041 0.51314 0.45455 0.0
O656 O 0.45425 0.54653 0.53914 0.0
O657 O -0.0013 0.48603 0.0171 0.0
Zn658 Zn 0.98871 0.5187 0.00826 0.0
O659 O 0.00269 0.54198 0.02986 0.0
Zn660 Zn 0.97716 0.55648 0.0484 0.0
Zn661 Zn 0.02615 0.52649 0.05072 0.0
Zn662 Zn 0.01822 0.56634 0.01103 0.0
O663 O 0.97281 0.59123 0.04051 0.0
O664 O 0.00323 0.59793 0.01603 0.0
O665 O 0.9533 0.51826 0.01007 0.0
O666 O 0.94553 0.54021 0.04205 0.0
O667 O 0.98401 0.55295 0.08316 0.0
O668 O 0.01646 0.5306 0.08508 0.0
O669 O 0.05937 0.54073 0.04644 0.0
O670 O -0.00183 0.52405 0.97448 0.0
O671 O 0.05228 0.56928 0.02009 0.0
O672 O 0.01739 0.5588 0.97586 0.0
C673 C 0.01389 0.47735 0.03142 0.0
C674 C 0.98533 0.60521 0.0277 0.0
C675 C -0.00038 0.54181 0.09518 0.0
C676 C 0.93869 0.52643 0.02523 0.0
C677 C 0.06652 0.55817 0.03367 0.0
C678 C 0.00918 0.54101 0.96414 0.0
O679 O 0.02662 0.49074 0.04493 0.0
H680 H 0.01358 0.1797 0.09989 0.0
H681 H 0.97335 0.20877 0.0411 0.0
H682 H -0.00235 0.1401 0.0908 0.0
H683 H 0.95741 0.16888 0.03196 0.0
H684 H 0.96331 0.08641 0.0116 0.0
H685 H 0.97264 0.12851 0.01823 0.0
H686 H 0.95671 0.12034 0.09308 0.0
H687 H 0.94745 0.07814 0.08653 0.0
C688 C 0.0016 0.17757 0.0848 0.0
C689 C -0.00528 0.19732 0.07119 0.0
C690 C 0.99221 0.15496 0.07983 0.0
C691 C 0.9759 0.15157 0.06102 0.0
C692 C 0.96983 0.17109 0.04667 0.0
C693 C 0.97907 0.19383 0.0518 0.0
C694 C 0.96116 0.09375 0.02936 0.0
C695 C 0.95497 0.07891 0.04862 0.0
C696 C 0.96649 0.11785 0.03312 0.0
C697 C 0.9659 0.12748 0.05624 0.0
C698 C 0.95773 0.11317 0.07514 0.0
C699 C 0.95216 0.0891 0.07134 0.0
H700 H 0.05014 0.68688 0.33601 0.0
H701 H 0.05452 0.76341 0.32798 0.0
H702 H 0.08617 0.68264 0.3119 0.0
H703 H 0.09044 0.75932 0.30453 0.0
H704 H 0.17008 0.69649 0.30679 0.0
H705 H 0.1284 0.69185 0.31905 0.0
H706 H 0.10804 0.74585 0.26825 0.0
H707 H 0.1497 0.75115 0.25705 0.0
C708 C 0.05854 0.70273 0.32871 0.0
C709 C 0.04966 0.7255 0.33396 0.0
C710 C 0.07921 0.70031 0.31506 0.0
C711 C 0.09121 0.72061 0.30632 0.0
C712 C 0.08148 0.74324 0.3106 0.0
C713 C 0.06095 0.74565 0.32423 0.0
C714 C 0.15649 0.70675 0.29782 0.0
C715 C 0.16287 0.72434 0.28126 0.0
C716 C 0.13264 0.7041 0.30474 0.0
C717 C 0.11499 0.71887 0.29496 0.0
C718 C 0.12129 0.73466 0.27655 0.0
C719 C 0.14506 0.73758 0.27001 0.0
H720 H 0.49419 0.8504 0.60361 0.0
H721 H 0.5383 0.82056 0.5482 0.0
H722 H 0.50566 0.8904 0.59122 0.0
H723 H 0.54963 0.86105 0.53557 0.0
H724 H 0.53108 0.94059 0.50842 0.0
H725 H 0.52771 0.89829 0.51828 0.0
H726 H 0.54501 0.9145 0.59169 0.0
H727 H 0.54842 0.95674 0.58203 0.0
C728 C 0.50618 0.85239 0.58862 0.0
C729 C 0.51535 0.83235 0.57687 0.0
C730 C 0.51295 0.8753 0.58171 0.0
C731 C 0.52885 0.87874 0.56274 0.0
C732 C 0.53746 0.85879 0.55036 0.0
C733 C 0.5309 0.83572 0.55752 0.0
C734 C 0.53476 0.93509 0.52655 0.0
C735 C 0.53959 0.9521 0.54453 0.0
C736 C 0.53289 0.91086 0.53214 0.0
C737 C 0.53566 0.9033 0.5558 0.0
C738 C 0.54242 0.92001 0.57337 0.0
C739 C 0.5445 0.94418 0.56777 0.0
H740 H 0.44924 0.21209 0.83105 0.0
H741 H 0.44723 0.27083 0.8811 0.0
H742 H 0.40853 0.22071 0.81861 0.0
H743 H 0.40674 0.27981 0.86829 0.0
H744 H 0.32541 0.26942 0.85713 0.0
H745 H 0.36644 0.26347 0.86993 0.0
H746 H 0.38711 0.25122 0.79676 0.0
H747 H 0.34604 0.25663 0.78396 0.0
C748 C 0.44007 0.22682 0.8394 0.0
C749 C 0.45135 0.24076 0.85705 0.0
C750 C 0.41686 0.2319 0.83213 0.0
C751 C 0.40451 0.25108 0.84233 0.0
C752 C 0.41572 0.26481 0.86023 0.0
C753 C 0.43891 0.25969 0.86753 0.0
C754 C 0.33875 0.26578 0.84372 0.0
C755 C 0.33239 0.26328 0.81955 0.0
C756 C 0.36228 0.2624 0.85107 0.0
C757 C 0.37994 0.25655 0.83439 0.0
C758 C 0.37379 0.25518 0.8101 0.0
C759 C 0.35028 0.25849 0.80276 0.0
H760 H 0.03468 0.80265 0.42848 0.0
H761 H 0.9606 0.78714 0.44353 0.0
H762 H 0.03295 0.838 0.45396 0.0
H763 H 0.95886 0.82269 0.4689 0.0
H764 H 0.96355 0.90787 0.46938 0.0
H765 H 0.96251 0.86658 0.45569 0.0
H766 H 0.02536 0.85194 0.49766 0.0
H767 H 0.02621 0.89344 0.51172 0.0
C768 C 0.01811 0.80669 0.43742 0.0
C769 C -0.00231 0.79239 0.43384 0.0
C770 C 0.0172 0.82673 0.4522 0.0
C771 C -0.00421 0.83293 0.4634 0.0
C772 C 0.97557 0.81821 0.46043 0.0
C773 C 0.97656 0.79798 0.4459 0.0
C774 C 0.97678 0.89567 0.47616 0.0
C775 C -0.00492 0.90378 0.4914 0.0
C776 C 0.9761 0.87204 0.46844 0.0
C777 C -0.00605 0.85622 0.47554 0.0
C778 C 0.01147 0.86392 0.49191 0.0
C779 C 0.01188 0.88754 0.50002 0.0
H780 H 0.4213 0.76243 0.625 0.0
H781 H 0.46762 0.74643 0.68449 0.0
H782 H 0.38694 0.74916 0.6481 0.0
H783 H 0.4331 0.733 0.7076 0.0
H784 H 0.35853 0.74039 0.74581 0.0
H785 H 0.39574 0.75021 0.72552 0.0
H786 H 0.37218 0.70984 0.66388 0.0
H787 H 0.33494 0.70009 0.68391 0.0
C788 C 0.4241 0.75624 0.64308 0.0
C789 C 0.44708 0.75543 0.65297 0.0
C790 C 0.40448 0.74842 0.65619 0.0
C791 C 0.40747 0.73975 0.67948 0.0
C792 C 0.43037 0.73959 0.68967 0.0
C793 C 0.45006 0.74728 0.67646 0.0
C794 C 0.36145 0.73321 0.72811 0.0
C795 C 0.3436 0.71976 0.71634 0.0
C796 C 0.38278 0.73883 0.71653 0.0
C797 C 0.38655 0.73116 0.693 0.0
C798 C 0.36943 0.71639 0.68186 0.0
C799 C 0.34819 0.71068 0.69343 0.0
H800 H 0.48761 0.17135 0.92293 0.0
H801 H 0.56016 0.19167 0.94049 0.0
H802 H 0.48828 0.14116 0.9538 0.0
H803 H 0.56082 0.16121 0.97178 0.0
H804 H 0.55535 0.07668 0.98832 0.0
H805 H 0.55984 0.11618 0.97037 0.0
H806 H 0.49065 0.13563 -0.00263 0.0
H807 H 0.48592 0.09602 0.01457 0.0
C808 C 0.50362 0.16951 0.93361 0.0
C809 C 0.52387 0.18367 0.92924 0.0
C810 C 0.50393 0.15241 0.9515 0.0
C811 C 0.52455 0.14901 0.96535 0.0
C812 C 0.54471 0.16353 0.96137 0.0
C813 C 0.54431 0.18089 0.94352 0.0
C814 C 0.54156 0.08976 0.99114 0.0
C815 C 0.52008 0.08331 0.00227 0.0
C816 C 0.54412 0.11236 0.98093 0.0
C817 C 0.5253 0.12867 0.982 0.0
C818 C 0.50517 0.12314 -0.00418 0.0
C819 C 0.50249 0.10055 0.00569 0.0
H820 H 0.08151 0.29889 0.108 0.0
H821 H 0.0544 0.26684 0.17243 0.0
H822 H 0.11713 0.31225 0.12927 0.0
H823 H 0.09082 0.27837 0.19349 0.0
H824 H 0.15209 0.31232 0.23164 0.0
H825 H 0.11414 0.30783 0.21063 0.0
H826 H 0.15216 0.29859 0.1442 0.0
H827 H 0.18958 0.30484 0.16494 0.0
C828 C 0.08344 0.29442 0.1267 0.0
C829 C 0.06544 0.28171 0.1386 0.0
C830 C 0.1039 0.30196 0.13892 0.0
C831 C 0.10714 0.2963 0.16317 0.0
C832 C 0.0889 0.28357 0.17501 0.0
C833 C 0.06812 0.27666 0.16292 0.0
C834 C 0.15216 0.30988 0.21245 0.0
C835 C 0.17374 0.30894 0.19992 0.0
C836 C 0.13045 0.307 0.2004 0.0
C837 C 0.12991 0.30245 0.17566 0.0
C838 C 0.15161 0.30244 0.16312 0.0
C839 C 0.17321 0.30595 0.17505 0.0
H840 H 0.10851 0.01158 0.17429 0.0
H841 H 0.0644 0.03955 0.2307 0.0
H842 H 0.07291 -0.00012 0.15201 0.0
H843 H 0.02856 0.02788 0.20805 0.0
H844 H 0.97952 0.02559 0.13524 0.0
H845 H 0.00849 0.03735 0.16589 0.0
H846 H 0.04025 0.96774 0.16173 0.0
H847 H 0.01145 0.95588 0.1312 0.0
C848 C 0.09121 0.01559 0.18175 0.0
C849 C 0.08921 0.02634 0.20427 0.0
C850 C 0.07086 0.00864 0.16914 0.0
C851 C 0.0481 0.01247 0.17868 0.0
C852 C 0.04596 0.02453 0.20052 0.0
C853 C 0.06643 0.03129 0.21333 0.0
C854 C 0.99202 0.01245 0.14157 0.0
C855 C -0.00638 0.99 0.13039 0.0
C856 C 0.00866 0.01926 0.15903 0.0
C857 C 0.02695 0.00366 0.16548 0.0
C858 C 0.02661 0.98025 0.15653 0.0
C859 C 0.01003 0.97343 0.13919 0.0
H860 H 0.23079 0.87387 0.44786 0.0
H861 H 0.29822 0.84079 0.4635 0.0
H862 H 0.22823 0.85165 0.41045 0.0
H863 H 0.29527 0.81784 0.42664 0.0
H864 H 0.29364 0.79991 0.34705 0.0
H865 H 0.29707 0.82175 0.38446 0.0
H866 H 0.22146 0.81189 0.39634 0.0
H867 H 0.21787 0.79081 0.35843 0.0
C868 C 0.24505 0.86182 0.44326 0.0
C869 C 0.26472 0.85904 0.45848 0.0
C870 C 0.24348 0.84892 0.42198 0.0
C871 C 0.26145 0.83281 0.41566 0.0
C872 C 0.28126 0.8303 0.43083 0.0
C873 C 0.28294 0.84339 0.45198 0.0
C874 C 0.27778 0.80221 0.35775 0.0
C875 C 0.25546 0.79374 0.34974 0.0
C876 C 0.27976 0.81469 0.37924 0.0
C877 C 0.25951 0.81873 0.3933 0.0
C878 C 0.23732 0.80955 0.38566 0.0
C879 C 0.23529 0.79729 0.36404 0.0
H880 H 0.43412 -0.00184 0.73002 0.0
H881 H 0.37868 0.01305 0.67864 0.0
H882 H 0.46421 0.01236 0.7018 0.0
H883 H 0.40867 0.02689 0.65042 0.0
H884 H 0.46188 0.0715 0.61313 0.0
H885 H 0.43648 0.06104 0.64669 0.0
H886 H 0.48163 0.00126 0.66268 0.0
H887 H 0.50735 0.01191 0.62928 0.0
C888 C 0.4284 0.00425 0.71261 0.0
C889 C 0.40407 0.00454 0.70649 0.0
C890 C 0.44562 0.01238 0.69651 0.0
C891 C 0.43876 0.02108 0.67408 0.0
C892 C 0.41445 0.02082 0.66781 0.0
C893 C 0.39729 0.01263 0.68385 0.0
C894 C 0.46676 0.05648 0.62416 0.0
C895 C 0.4864 0.0423 0.61831 0.0
C896 C 0.45208 0.05037 0.64324 0.0
C897 C 0.45671 0.02995 0.65685 0.0
C898 C 0.47757 0.01705 0.65242 0.0
C899 C 0.49235 0.02321 0.63332 0.0
H900 H 0.19057 0.14428 0.97931 0.0
H901 H 0.26686 0.1392 0.9703 0.0
H902 H 0.1884 0.17005 0.9442 0.0
H903 H 0.26463 0.16496 0.93544 0.0
H904 H 0.25548 0.23417 0.89487 0.0
H905 H 0.25398 0.20912 0.93029 0.0
H906 H 0.1968 0.1673 0.89883 0.0
H907 H 0.19821 0.19229 0.86325 0.0
C908 C 0.20679 0.14847 0.96969 0.0
C909 C 0.22889 0.13984 0.9775 0.0
C910 C 0.20554 0.16318 0.94968 0.0
C911 C 0.22639 0.16967 0.93744 0.0
C912 C 0.24836 0.16049 0.94487 0.0
C913 C 0.24959 0.1456 0.96466 0.0
C914 C 0.24232 0.21989 0.89561 0.0
C915 C 0.2271 0.21507 0.87618 0.0
C916 C 0.24161 0.20546 0.9158 0.0
C917 C 0.2255 0.18616 0.91704 0.0
C918 C 0.20938 0.1821 0.89823 0.0
C919 C 0.21026 0.19636 0.87789 0.0
H920 H 0.14494 0.01671 0.33607 0.0
H921 H 0.08333 0.99203 0.29614 0.0
H922 H 0.12271 0.01209 0.37313 0.0
H923 H 0.06085 0.98821 0.33301 0.0
H924 H 0.03264 0.9669 0.40612 0.0
H925 H 0.05642 0.9669 0.36979 0.0
H926 H 0.09078 0.03274 0.3922 0.0
H927 H 0.06764 0.03235 0.42873 0.0
C928 C 0.1267 0.01014 0.33526 0.0
C929 C 0.1158 0.00485 0.31328 0.0
C930 C 0.11391 0.00769 0.35643 0.0
C931 C 0.08991 9e-05 0.35599 0.0
C932 C 0.07935 -0.00609 0.33401 0.0
C933 C 0.0922 -0.00381 0.31287 0.0
C934 C 0.04521 0.98141 0.40322 0.0
C935 C 0.04828 -0.0004 0.42031 0.0
C936 C 0.05882 0.98142 0.3824 0.0
C937 C 0.07563 -0.00029 0.37819 0.0
C938 C 0.07839 0.01808 0.39514 0.0
C939 C 0.06494 0.01798 0.41599 0.0
H940 H 0.25546 0.80659 0.54625 0.0
H941 H 0.25752 0.85699 0.60478 0.0
H942 H 0.24512 0.77451 0.57408 0.0
H943 H 0.24704 0.82506 0.63239 0.0
H944 H 0.20695 0.77104 0.67298 0.0
H945 H 0.21035 0.79769 0.63898 0.0
H946 H 0.26648 0.75439 0.61004 0.0
H947 H 0.26328 0.7276 0.64413 0.0
C948 C 0.25376 0.81077 0.56505 0.0
C949 C 0.25733 0.83422 0.57344 0.0
C950 C 0.24781 0.79246 0.58087 0.0
C951 C 0.24494 0.79746 0.60522 0.0
C952 C 0.24869 0.82087 0.61359 0.0
C953 C 0.25495 0.83907 0.59786 0.0
C954 C 0.21957 0.76675 0.65908 0.0
C955 C 0.23528 0.74755 0.66158 0.0
C956 C 0.22156 0.78209 0.63969 0.0
C957 C 0.23909 0.77836 0.62234 0.0
C958 C 0.25292 0.75768 0.62333 0.0
C959 C 0.25104 0.74235 0.64284 0.0
H960 H 0.4111 0.95916 0.81252 0.0
H961 H 0.36541 0.01366 0.84125 0.0
H962 H 0.43385 0.95899 0.84977 0.0
H963 H 0.38779 0.01315 0.87855 0.0
H964 H 0.45 0.02784 0.92834 0.0
H965 H 0.42765 0.02582 0.89121 0.0
H966 H 0.4307 0.94886 0.89248 0.0
H967 H 0.45357 0.95081 0.92961 0.0
C968 C 0.40578 0.9709 0.82689 0.0
C969 C 0.38661 0.98654 0.82399 0.0
C970 C 0.41873 0.97073 0.84822 0.0
C971 C 0.41272 0.98621 0.86697 0.0
C972 C 0.39311 0.00134 0.86424 0.0
C973 C 0.38021 0.00152 0.84295 0.0
C974 C 0.44603 0.01045 0.92071 0.0
C975 C 0.45349 0.98946 0.93202 0.0
C976 C 0.43306 0.00931 0.8995 0.0
C977 C 0.42719 0.98717 0.8891 0.0
C978 C 0.43507 0.96617 0.90005 0.0
C979 C 0.44811 0.9673 0.92134 0.0
H980 H 0.26236 0.18974 0.05303 0.0
H981 H 0.25528 0.14875 0.11782 0.0
H982 H 0.27608 0.22434 0.07637 0.0
H983 H 0.26918 0.18314 0.14099 0.0
H984 H 0.31027 0.23916 0.17655 0.0
H985 H 0.30746 0.20883 0.14545 0.0
H986 H 0.25522 0.25082 0.10826 0.0
H987 H 0.25787 0.28127 0.1394 0.0
C988 C 0.26388 0.18811 0.07223 0.0
C989 C 0.25769 0.16665 0.08371 0.0
C990 C 0.27174 0.20785 0.08549 0.0
C991 C 0.27397 0.20624 0.11035 0.0
C992 C 0.26805 0.18468 0.12175 0.0
C993 C 0.25986 0.1651 0.10856 0.0
C994 C 0.29877 0.24236 0.16135 0.0
C995 C 0.28378 0.26228 0.16076 0.0
C996 C 0.29711 0.22493 0.14363 0.0
C997 C 0.28065 0.22727 0.12493 0.0
C998 C 0.26796 0.24859 0.12263 0.0
C999 C 0.26953 0.26604 0.14046 0.0
H1000 H 0.18535 0.03715 0.04449 0.0
H1001 H 0.1516 0.10398 0.06144 0.0
H1002 H 0.14628 0.01781 0.0411 0.0
H1003 H 0.11247 0.08455 0.05811 0.0
H1004 H 0.04993 0.04895 0.01761 0.0
H1005 H 0.08931 0.06704 0.02324 0.0
H1006 H 0.11058 0.00695 0.066 0.0
H1007 H 0.07129 0.98869 0.06034 0.0
C1008 C 0.16958 0.0476 0.04783 0.0
C1009 C 0.17143 0.07206 0.05314 0.0
C1010 C 0.14726 0.03653 0.04592 0.0
C1011 C 0.12644 0.04978 0.04909 0.0
C1012 C 0.12831 0.07405 0.05524 0.0
C1013 C 0.15065 0.08509 0.05735 0.0
C1014 C 0.06306 0.03946 0.02801 0.0
C1015 C 0.05749 0.01739 0.03854 0.0
C1016 C 0.0855 0.04995 0.03143 0.0
C1017 C 0.10282 0.03848 0.04526 0.0
C1018 C 0.09752 0.01613 0.05523 0.0
C1019 C 0.07503 0.00571 0.05198 0.0
H1020 H 0.69898 0.47126 0.02572 0.0
H1021 H 0.66399 0.40341 0.01231 0.0
H1022 H 0.66004 0.49034 0.02883 0.0
H1023 H 0.6254 0.42235 0.01511 0.0
H1024 H 0.55863 0.45524 0.03563 0.0
H1025 H 0.59899 0.4419 0.04361 0.0
H1026 H 0.62707 0.49926 0.00033 0.0
H1027 H 0.58656 0.51301 0.99278 0.0
C1028 C 0.68298 0.46044 0.02362 0.0
C1029 C 0.68442 0.4359 0.01868 0.0
C1030 C 0.66077 0.47135 0.02535 0.0
C1031 C 0.63972 0.45781 0.02238 0.0
C1032 C 0.64129 0.43319 0.01795 0.0
C1033 C 0.6634 0.42236 0.01611 0.0
C1034 C 0.57345 0.46532 0.02824 0.0
C1035 C 0.56951 0.48486 0.01319 0.0
C1036 C 0.59653 0.45764 0.03277 0.0
C1037 C 0.61609 0.46921 0.02213 0.0
C1038 C 0.6123 0.49001 0.00877 0.0
C1039 C 0.58913 0.49785 0.0044 0.0
H1040 H 0.81466 0.41873 0.28544 0.0
H1041 H 0.82502 0.41645 0.20909 0.0
H1042 H 0.79334 0.38059 0.28355 0.0
H1043 H 0.80349 0.37822 0.20726 0.0
H1044 H 0.74602 0.3191 0.21274 0.0
H1045 H 0.76151 0.36 0.21576 0.0
H1046 H 0.80827 0.33879 0.27304 0.0
H1047 H 0.79304 0.29797 0.26999 0.0
C1048 C 0.81217 0.41018 0.26822 0.0
C1049 C 0.82163 0.42041 0.24741 0.0
C1050 C 0.80002 0.38837 0.26719 0.0
C1051 C 0.79688 0.37654 0.2453 0.0
C1052 C 0.80556 0.38715 0.22434 0.0
C1053 C 0.81797 0.40889 0.2254 0.0
C1054 C 0.75934 0.32327 0.22621 0.0
C1055 C 0.76839 0.30536 0.2411 0.0
C1056 C 0.76828 0.34658 0.22779 0.0
C1057 C 0.78607 0.35242 0.24457 0.0
C1058 C 0.79442 0.33474 0.26007 0.0
C1059 C 0.78578 0.31139 0.25825 0.0
H1060 H 0.80251 0.5518 0.5374 0.0
H1061 H 0.82547 0.61184 0.49482 0.0
H1062 H 0.84259 0.5355 0.53559 0.0
H1063 H 0.8657 0.59617 0.4938 0.0
H1064 H 0.92185 0.52659 0.54949 0.0
H1065 H 0.88184 0.54296 0.55082 0.0
H1066 H 0.88849 0.56489 0.47723 0.0
H1067 H 0.92873 0.54939 0.47621 0.0
C1068 C 0.81616 0.5615 0.52771 0.0
C1069 C 0.81095 0.58301 0.51621 0.0
C1070 C 0.83915 0.5523 0.52683 0.0
C1071 C 0.85738 0.5646 0.51465 0.0
C1072 C 0.85201 0.58606 0.50303 0.0
C1073 C 0.82899 0.5951 0.50369 0.0
C1074 C 0.91479 0.53504 0.53366 0.0
C1075 C 0.92845 0.53677 0.51278 0.0
C1076 C 0.8918 0.54425 0.53435 0.0
C1077 C 0.88193 0.55514 0.51409 0.0
C1078 C 0.89568 0.55694 0.49326 0.0
C1079 C 0.91874 0.54799 0.49266 0.0
H1080 H 0.16183 0.10302 0.28107 0.0
H1081 H 0.20566 0.08445 0.22071 0.0
H1082 H 0.17995 0.14257 0.28219 0.0
H1083 H 0.22351 0.12456 0.22143 0.0
H1084 H 0.26378 0.19349 0.24415 0.0
H1085 H 0.2491 0.15224 0.24512 0.0
H1086 H 0.17763 0.17746 0.25716 0.0
H1087 H 0.19217 0.21831 0.25673 0.0
C1088 C 0.17534 0.10743 0.26799 0.0
C1089 C 0.18218 0.09077 0.25065 0.0
C1090 C 0.18566 0.13013 0.26858 0.0
C1091 C 0.20295 0.13677 0.25173 0.0
C1092 C 0.21033 0.11989 0.23475 0.0
C1093 C 0.20003 0.09702 0.23424 0.0
C1094 C 0.24497 0.19018 0.24718 0.0
C1095 C 0.22917 0.20921 0.25047 0.0
C1096 C 0.23656 0.16658 0.24756 0.0
C1097 C 0.21224 0.16162 0.25133 0.0
C1098 C 0.19654 0.18066 0.25464 0.0
C1099 C 0.20489 0.20413 0.25427 0.0
H1100 H 0.30894 0.96505 0.52161 0.0
H1101 H 0.35121 0.90372 0.53976 0.0
H1102 H 0.34513 0.98923 0.51808 0.0
H1103 H 0.38751 0.92807 0.53647 0.0
H1104 H 0.44662 0.97126 0.50026 0.0
H1105 H 0.4097 0.94816 0.50346 0.0
H1106 H 0.37783 0.00558 0.5433 0.0
H1107 H 0.41458 0.02887 0.53993 0.0
C1108 C 0.32598 0.95681 0.52509 0.0
C1109 C 0.32733 0.93251 0.53092 0.0
C1110 C 0.34666 0.97067 0.52312 0.0
C1111 C 0.36909 0.96047 0.52682 0.0
C1112 C 0.37043 0.93628 0.53317 0.0
C1113 C 0.34969 0.92241 0.53527 0.0
C1114 C 0.43166 0.97911 0.50944 0.0
C1115 C 0.43357 0.0019 0.51989 0.0
C1116 C 0.41062 0.96577 0.51148 0.0
C1117 C 0.39105 0.97499 0.52387 0.0
C1118 C 0.39263 -0.00192 0.53358 0.0
C1119 C 0.4137 0.01139 0.53165 0.0
H1120 H 0.83056 0.54489 0.20453 0.0
H1121 H 0.79941 0.53559 0.27431 0.0
H1122 H 0.80813 0.58177 0.19938 0.0
H1123 H 0.77709 0.57219 0.26916 0.0
H1124 H 0.72812 0.62993 0.24935 0.0
H1125 H 0.7449 0.59044 0.24433 0.0
H1126 H 0.81111 0.6221 0.22034 0.0
H1127 H 0.79434 0.6618 0.22519 0.0
C1128 C 0.81862 0.55052 0.21856 0.0
C1129 C 0.81676 0.53753 0.23987 0.0
C1130 C 0.80591 0.57162 0.21564 0.0
C1131 C 0.79089 0.57977 0.23385 0.0
C1132 C 0.7883 0.56616 0.2547 0.0
C1133 C 0.80119 0.5453 0.25773 0.0
C1134 C 0.74614 0.62854 0.24262 0.0
C1135 C 0.76008 0.64904 0.23812 0.0
C1136 C 0.75571 0.6059 0.23977 0.0
C1137 C 0.77937 0.60328 0.23229 0.0
C1138 C 0.79276 0.62364 0.22605 0.0
C1139 C 0.78319 0.64637 0.22895 0.0
H1140 H 0.67804 0.47137 0.69278 0.0
H1141 H 0.66246 0.45318 0.76599 0.0
H1142 H 0.69229 0.43071 0.68581 0.0
H1143 H 0.67679 0.41307 0.75914 0.0
H1144 H 0.67957 0.33814 0.73752 0.0
H1145 H 0.66295 0.37795 0.73604 0.0
H1146 H 0.72571 0.40354 0.69923 0.0
H1147 H 0.74227 0.36327 0.70027 0.0
C1148 C 0.67779 0.45875 0.70736 0.0
C1149 C 0.66905 0.46534 0.72989 0.0
C1150 C 0.68594 0.43556 0.70337 0.0
C1151 C 0.68526 0.41867 0.72181 0.0
C1152 C 0.67698 0.42554 0.74441 0.0
C1153 C 0.66896 0.44859 0.7484 0.0
C1154 C 0.68962 0.35214 0.72866 0.0
C1155 C 0.71237 0.34777 0.71938 0.0
C1156 C 0.68016 0.37494 0.72791 0.0
C1157 C 0.69333 0.39391 0.71808 0.0
C1158 C 0.71522 0.3892 0.70697 0.0
C1159 C 0.72468 0.3662 0.70756 0.0
H1160 H 0.01108 0.84616 0.91076 0.0
H1161 H 0.04488 0.7979 0.96005 0.0
H1162 H 0.00667 0.8753 0.94273 0.0
H1163 H 0.04039 0.82743 0.99219 0.0
H1164 H 0.03547 0.91203 0.02689 0.0
H1165 H 0.0501 0.88021 0.00066 0.0
H1166 H 0.97759 0.86091 0.98248 0.0
H1167 H 0.96292 0.89227 0.00849 0.0
C1168 C 0.0182 0.84207 0.92825 0.0
C1169 C 0.02799 0.81968 0.93305 0.0
C1170 C 0.01564 0.8587 0.94649 0.0
C1171 C 0.02289 0.85327 0.96979 0.0
C1172 C 0.03471 0.83185 0.97427 0.0
C1173 C 0.03728 0.81508 0.95591 0.0
C1174 C 0.02268 0.90045 0.01792 0.0
C1175 C -0.00194 0.90485 0.01936 0.0
C1176 C 0.03107 0.88237 0.00292 0.0
C1177 C 0.01488 0.86864 0.9894 0.0
C1178 C 0.99033 0.87161 0.99259 0.0
C1179 C 0.98198 0.88951 0.00747 0.0
H1180 H 0.94726 0.24122 0.69764 0.0
H1181 H 0.93579 0.28513 0.63564 0.0
H1182 H 0.91235 0.2585 0.71657 0.0
H1183 H 0.90204 0.30367 0.65498 0.0
H1184 H 0.82498 0.30306 0.68229 0.0
H1185 H 0.8631 0.29496 0.66455 0.0
H1186 H 0.89534 0.29195 0.73471 0.0
H1187 H 0.85649 0.29867 0.75264 0.0
C1188 C 0.93725 0.25464 0.68816 0.0
C1189 C 0.94376 0.26148 0.66506 0.0
C1190 C 0.91752 0.26489 0.69911 0.0
C1191 C 0.90434 0.28261 0.68735 0.0
C1192 C 0.91138 0.28976 0.6644 0.0
C1193 C 0.93069 0.27909 0.65326 0.0
C1194 C 0.84026 0.30131 0.69401 0.0
C1195 C 0.83757 0.3009 0.71891 0.0
C1196 C 0.86229 0.29669 0.68376 0.0
C1197 C 0.88227 0.29212 0.69819 0.0
C1198 C 0.88013 0.29451 0.72309 0.0
C1199 C 0.85793 0.29871 0.73338 0.0
H1200 H 0.48281 0.2427 0.45773 0.0
H1201 H 0.48218 0.18734 0.4039 0.0
H1202 H 0.47679 0.21252 0.4887 0.0
H1203 H 0.47547 0.15735 0.4348 0.0
H1204 H 0.51956 0.14282 0.51998 0.0
H1205 H 0.51062 0.17833 0.49662 0.0
H1206 H 0.44522 0.14513 0.4718 0.0
H1207 H 0.45378 0.10979 0.49597 0.0
C1208 C 0.48067 0.22418 0.45248 0.0
C1209 C 0.48321 0.21722 0.42852 0.0
C1210 C 0.47718 0.20701 0.47015 0.0
C1211 C 0.47556 0.18278 0.464 0.0
C1212 C 0.47636 0.17601 0.43988 0.0
C1213 C 0.48039 0.1931 0.42227 0.0
C1214 C 0.50284 0.14354 0.51027 0.0
C1215 C 0.48734 0.12373 0.50965 0.0
C1216 C 0.49769 0.16382 0.49701 0.0
C1217 C 0.47728 0.16429 0.48247 0.0
C1218 C 0.46099 0.1451 0.48303 0.0
C1219 C 0.46584 0.12502 0.49686 0.0
H1220 H 0.52798 0.70074 0.19467 0.0
H1221 H 0.56653 0.72025 0.13088 0.0
H1222 H 0.56569 0.69636 0.21607 0.0
H1223 H 0.60415 0.71568 0.15226 0.0
H1224 H 0.6549 0.74806 0.20919 0.0
H1225 H 0.61925 0.74266 0.1852 0.0
H1226 H 0.60584 0.67446 0.21845 0.0
H1227 H 0.642 0.6798 0.24284 0.0
C1228 C 0.54452 0.70359 0.18511 0.0
C1229 C 0.54439 0.71123 0.16126 0.0
C1230 C 0.56606 0.70092 0.19731 0.0
C1231 C 0.58772 0.70596 0.18584 0.0
C1232 C 0.58761 0.71199 0.16154 0.0
C1233 C 0.56612 0.71457 0.14933 0.0
C1234 C 0.64446 0.73184 0.21147 0.0
C1235 C 0.6512 0.71439 0.22803 0.0
C1236 C 0.62417 0.72866 0.19749 0.0
C1237 C 0.61 0.70803 0.19981 0.0
C1238 C 0.61659 0.69049 0.21634 0.0
C1239 C 0.6372 0.69355 0.23024 0.0
H1240 H 0.03988 0.20107 0.56731 0.0
H1241 H 0.97804 0.17082 0.60225 0.0
H1242 H 0.03929 0.16814 0.53862 0.0
H1243 H 0.97779 0.13774 0.57411 0.0
H1244 H 0.97044 0.08876 0.51357 0.0
H1245 H 0.97052 0.12782 0.53267 0.0
H1246 H 0.04728 0.1256 0.53909 0.0
H1247 H 0.04728 0.08686 0.51934 0.0
C1248 C 0.02621 0.18735 0.56887 0.0
C1249 C 0.00906 0.18837 0.58703 0.0
C1250 C 0.02588 0.16854 0.55246 0.0
C1251 C 0.0084 0.15046 0.55399 0.0
C1252 C 0.99118 0.15166 0.57211 0.0
C1253 C 0.99147 0.17046 0.58842 0.0
C1254 C 0.98738 0.09687 0.51855 0.0
C1255 C 0.00882 0.08458 0.51539 0.0
C1256 C 0.98741 0.11916 0.52961 0.0
C1257 C 0.00884 0.12948 0.53791 0.0
C1258 C 0.03047 0.11812 0.53288 0.0
C1259 C 0.03047 0.09589 0.5216 0.0
H1260 H 0.56146 0.21313 0.33751 0.0
H1261 H 0.57415 0.28868 0.3283 0.0
H1262 H 0.59359 0.20458 0.30969 0.0
H1263 H 0.60694 0.28025 0.30139 0.0
H1264 H 0.65305 0.25899 0.23952 0.0
H1265 H 0.61711 0.26559 0.26295 0.0
H1266 H 0.63559 0.2065 0.30853 0.0
H1267 H 0.67068 0.19933 0.2847 0.0
C1268 C 0.57128 0.22788 0.32967 0.0
C1269 C 0.56545 0.25153 0.33509 0.0
C1270 C 0.58971 0.22302 0.31379 0.0
C1271 C 0.60289 0.24174 0.30332 0.0
C1272 C 0.5969 0.26541 0.30875 0.0
C1273 C 0.57827 0.27025 0.32436 0.0
C1274 C 0.64924 0.24728 0.25439 0.0
C1275 C 0.66473 0.22869 0.26027 0.0
C1276 C 0.62875 0.25114 0.26791 0.0
C1277 C 0.62352 0.23664 0.28771 0.0
C1278 C 0.6388 0.21776 0.2932 0.0
C1279 C 0.65906 0.21375 0.27957 0.0
H1280 H 0.48238 0.81708 0.13194 0.0
H1281 H 0.5088 0.78718 0.06616 0.0
H1282 H 0.47828 0.85548 0.11299 0.0
H1283 H 0.50619 0.82631 0.0473 0.0
H1284 H 0.47349 0.89268 0.01381 0.0
H1285 H 0.4781 0.85356 0.03235 0.0
H1286 H 0.49879 0.88808 0.09858 0.0
H1287 H 0.49268 0.92661 0.08063 0.0
C1288 C 0.488 0.81894 0.11356 0.0
C1289 C 0.49601 0.79924 0.10052 0.0
C1290 C 0.48569 0.84102 0.10264 0.0
C1291 C 0.4919 0.84408 0.07855 0.0
C1292 C 0.5008 0.82449 0.06574 0.0
C1293 C 0.50263 0.80218 0.07659 0.0
C1294 C 0.47865 0.89173 0.03242 0.0
C1295 C 0.48232 0.91261 0.04589 0.0
C1296 C 0.48161 0.86939 0.04298 0.0
C1297 C 0.48879 0.86762 0.06701 0.0
C1298 C 0.49264 0.88864 0.08025 0.0
C1299 C 0.48915 0.91081 0.06992 0.0
H1300 H 0.96362 0.80584 0.83144 0.0
H1301 H 0.94361 0.73203 0.8424 0.0
H1302 H 0.93201 0.80956 0.80177 0.0
H1303 H 0.91148 0.73592 0.81334 0.0
H1304 H 0.86388 0.74472 0.74978 0.0
H1305 H 0.90145 0.74174 0.77168 0.0
H1306 H 0.88943 0.81096 0.80337 0.0
H1307 H 0.85258 0.81429 0.78113 0.0
C1308 C 0.95242 0.79044 0.82751 0.0
C1309 C 0.95585 0.76873 0.83934 0.0
C1310 C 0.93432 0.79256 0.81056 0.0
C1311 C 0.9192 0.77306 0.80527 0.0
C1312 C 0.92305 0.75117 0.81673 0.0
C1313 C 0.94127 0.74901 0.83356 0.0
C1314 C 0.86951 0.75947 0.76109 0.0
C1315 C 0.85511 0.77961 0.76393 0.0
C1316 C 0.89093 0.75769 0.77375 0.0
C1317 C 0.89828 0.77602 0.78942 0.0
C1318 C 0.88444 0.79663 0.79127 0.0
C1319 C 0.86316 0.79845 0.77862 0.0
H1320 H 0.88257 -0.00489 0.84257 0.0
H1321 H 0.95399 0.01887 0.82533 0.0
H1322 H 0.89477 0.98869 0.88379 0.0
H1323 H 0.96644 0.01173 0.86637 0.0
H1324 H 0.97079 0.02675 0.94652 0.0
H1325 H 0.95997 0.02996 0.90464 0.0
H1326 H 0.91883 0.96447 0.90959 0.0
H1327 H 0.92909 0.96159 0.95173 0.0
C1328 C 0.90096 -0.00139 0.84754 0.0
C1329 C 0.9173 0.00764 0.83085 0.0
C1330 C 0.90799 -0.00518 0.87111 0.0
C1331 C 0.93155 -0.00016 0.87839 0.0
C1332 C 0.94806 0.00811 0.86143 0.0
C1333 C 0.94098 0.01205 0.8379 0.0
C1334 C 0.95949 0.01298 0.93868 0.0
C1335 C 0.95073 -0.00603 0.95248 0.0
C1336 C 0.95342 0.01474 0.91461 0.0
C1337 C 0.93859 -0.00257 0.90376 0.0
C1338 C 0.93004 0.97825 0.9175 0.0
C1339 C 0.936 0.97657 0.94163 0.0
H1340 H 0.79129 0.13735 0.58115 0.0
H1341 H 0.79932 0.2042 0.54386 0.0
H1342 H 0.78395 0.15865 0.61799 0.0
H1343 H 0.79353 0.22583 0.5812 0.0
H1344 H 0.7504 0.25614 0.64301 0.0
H1345 H 0.7624 0.23563 0.6066 0.0
H1346 H 0.7973 0.1819 0.64911 0.0
H1347 H 0.78384 0.20151 0.68516 0.0
C1348 C 0.79232 0.15667 0.58104 0.0
C1349 C 0.79576 0.16914 0.55966 0.0
C1350 C 0.78814 0.16897 0.60224 0.0
C1351 C 0.78782 0.19408 0.60266 0.0
C1352 C 0.79295 0.20652 0.58148 0.0
C1353 C 0.79663 0.19417 0.56014 0.0
C1354 C 0.76044 0.23981 0.64443 0.0
C1355 C 0.76584 0.23019 0.66683 0.0
C1356 C 0.76763 0.22818 0.6236 0.0
C1357 C 0.7809 0.20702 0.62478 0.0
C1358 C 0.78665 0.19778 0.64735 0.0
C1359 C 0.77895 0.20905 0.66809 0.0
H1360 H 0.56468 0.9771 0.33253 0.0
H1361 H 0.60723 0.04178 0.33126 0.0
H1362 H 0.54755 0.98898 0.37023 0.0
H1363 H 0.58896 0.05462 0.3686 0.0
H1364 H 0.57617 0.05227 0.44981 0.0
H1365 H 0.59024 0.04587 0.40929 0.0
H1366 H 0.52207 0.01387 0.39051 0.0
H1367 H 0.50877 0.0189 0.43147 0.0
C1368 C 0.56996 -0.00583 0.34012 0.0
C1369 C 0.58736 0.00848 0.32909 0.0
C1370 C 0.55997 0.00114 0.36171 0.0
C1371 C 0.56679 0.02283 0.37259 0.0
C1372 C 0.58359 0.0376 0.361 0.0
C1373 C 0.59394 0.03037 0.33954 0.0
C1374 C 0.56419 0.04404 0.4369 0.0
C1375 C 0.54154 0.03576 0.44377 0.0
C1376 C 0.57216 0.04052 0.4136 0.0
C1377 C 0.55742 0.02909 0.39657 0.0
C1378 C 0.5342 0.02209 0.40326 0.0
C1379 C 0.52648 0.02509 0.42668 0.0
H1380 H 0.72989 0.78267 0.0651 0.0
H1381 H 0.72126 0.85416 0.09246 0.0
H1382 H 0.73858 0.76861 0.10538 0.0
H1383 H 0.73125 0.8406 0.13222 0.0
H1384 H 0.7206 0.80336 0.20305 0.0
H1385 H 0.71534 0.81877 0.16336 0.0
H1386 H 0.76754 0.76926 0.13667 0.0
H1387 H 0.77185 0.75268 0.17675 0.0
C1388 C 0.72974 0.79531 0.07977 0.0
C1389 C 0.72454 0.81939 0.07577 0.0
C1390 C 0.73511 0.78737 0.10276 0.0
C1391 C 0.73576 0.80348 0.12208 0.0
C1392 C 0.73051 0.82758 0.11791 0.0
C1393 C 0.72471 0.83538 0.09509 0.0
C1394 C 0.73125 0.79587 0.18884 0.0
C1395 C 0.74643 0.77654 0.19304 0.0
C1396 C 0.72832 0.80487 0.16598 0.0
C1397 C 0.7408 0.79512 0.14668 0.0
C1398 C 0.75722 0.77681 0.15107 0.0
C1399 C 0.75998 0.76755 0.17408 0.0
H1400 H 0.93346 0.05785 0.69221 0.0
H1401 H 0.9525 0.98727 0.71578 0.0
H1402 H 0.95015 0.04934 0.65306 0.0
H1403 H 0.96854 0.97849 0.6764 0.0
H1404 H 0.00788 0.97715 0.60406 0.0
H1405 H -0.00188 0.98693 0.64547 0.0
H1406 H 0.93523 0.02371 0.62137 0.0
H1407 H 0.94514 0.01447 0.58034 0.0
C1408 C 0.94159 0.04068 0.68914 0.0
C1409 C 0.94143 0.02312 0.7069 0.0
C1410 C 0.95094 0.03571 0.66667 0.0
C1411 C 0.96013 0.01304 0.6615 0.0
C1412 C 0.96159 -0.00389 0.67983 0.0
C1413 C 0.95236 0.00114 0.70237 0.0
C1414 C 0.99186 0.9871 0.6077 0.0
C1415 C 0.97736 -0.00484 0.58896 0.0
C1416 C 0.98633 0.99277 0.63137 0.0
C1417 C 0.96619 0.00652 0.63663 0.0
C1418 C 0.95128 0.01374 0.61788 0.0
C1419 C 0.95683 0.0082 0.59436 0.0
H1420 H 0.73708 0.15093 0.42562 0.0
H1421 H 0.81029 0.1754 0.43022 0.0
H1422 H 0.73595 0.16193 0.38364 0.0
H1423 H 0.80946 0.18571 0.388 0.0
H1424 H 0.74944 0.15628 0.30492 0.0
H1425 H 0.7526 0.14704 0.34713 0.0
H1426 H 0.79273 0.21238 0.35886 0.0
H1427 H 0.79017 0.22131 0.31639 0.0
C1428 C 0.75288 0.15879 0.41766 0.0
C1429 C 0.77378 0.16225 0.43111 0.0
C1430 C 0.75233 0.16487 0.39357 0.0
C1431 C 0.77275 0.17433 0.38239 0.0
C1432 C 0.79341 0.17857 0.3961 0.0
C1433 C 0.79389 0.17264 0.42027 0.0
C1434 C 0.75917 0.16856 0.31644 0.0
C1435 C 0.76944 0.18959 0.30734 0.0
C1436 C 0.76078 0.16338 0.34068 0.0
C1437 C 0.77253 0.1792 0.35642 0.0
C1438 C 0.78362 0.19978 0.34718 0.0
C1439 C 0.78216 0.20489 0.32285 0.0
H1440 H 0.55213 0.96337 0.21976 0.0
H1441 H 0.6221 0.96736 0.18818 0.0
H1442 H 0.53404 0.96996 0.18077 0.0
H1443 H 0.6044 0.9757 0.14962 0.0
H1444 H 0.50966 0.01262 0.11728 0.0
H1445 H 0.52795 0.00138 0.155 0.0
H1446 H 0.58311 0.96419 0.1165 0.0
H1447 H 0.56569 0.97698 0.07903 0.0
C1448 C 0.56358 0.96534 0.20435 0.0
C1449 C 0.58844 0.9648 0.20688 0.0
C1450 C 0.55329 0.96953 0.18206 0.0
C1451 C 0.5677 0.97396 0.162 0.0
C1452 C 0.59261 0.97216 0.16447 0.0
C1453 C 0.60284 0.96735 0.18663 0.0
C1454 C 0.52593 0.00239 0.11701 0.0
C1455 C 0.53643 -0.00408 0.09532 0.0
C1456 C 0.53625 -0.00443 0.13861 0.0
C1457 C 0.55694 0.98155 0.13895 0.0
C1458 C 0.56746 0.97528 0.11709 0.0
C1459 C 0.55749 0.98263 0.09555 0.0
H1460 H 0.77784 0.82099 0.94462 0.0
H1461 H 0.70343 0.80016 0.94347 0.0
H1462 H 0.78138 0.80946 0.90287 0.0
H1463 H 0.70674 0.78936 0.90139 0.0
H1464 H 0.72683 0.76106 0.82646 0.0
H1465 H 0.72417 0.76421 0.86999 0.0
H1466 H 0.76602 0.82941 0.86797 0.0
H1467 H 0.76907 0.82607 0.82505 0.0
C1468 C 0.76234 0.81359 0.93552 0.0
C1469 C 0.7403 0.81177 0.94711 0.0
C1470 C 0.7643 0.80715 0.91158 0.0
C1471 C 0.74418 0.79908 0.89872 0.0
C1472 C 0.72255 0.79553 0.91083 0.0
C1473 C 0.72065 0.80176 0.9349 0.0
C1474 C 0.7353 0.77611 0.83539 0.0
C1475 C 0.7483 0.79322 0.82236 0.0
C1476 C 0.73383 0.77787 0.86026 0.0
C1477 C 0.74532 0.79678 0.87242 0.0
C1478 C 0.75761 0.81422 0.85923 0.0
C1479 C 0.75915 0.81243 0.83455 0.0
H1480 H 0.77416 0.92493 0.01508 0.0
H1481 H 0.79491 0.86576 0.05931 0.0
H1482 H 0.80733 0.94875 0.03112 0.0
H1483 H 0.82719 0.88981 0.07632 0.0
H1484 H 0.90197 0.92165 0.0611 0.0
H1485 H 0.8638 0.90132 0.05924 0.0
H1486 H 0.82798 0.96913 0.06362 0.0
H1487 H 0.86696 0.98966 0.06496 0.0
C1488 C 0.78561 0.91722 0.02854 0.0
C1489 C 0.78251 0.89337 0.03549 0.0
C1490 C 0.80439 0.93093 0.03799 0.0
C1491 C 0.82009 0.92109 0.05484 0.0
C1492 C 0.81577 0.89774 0.06298 0.0
C1493 C 0.79736 0.88394 0.05319 0.0
C1494 C 0.88592 0.93218 0.06237 0.0
C1495 C 0.88726 0.95715 0.06294 0.0
C1496 C 0.86396 0.92052 0.06146 0.0
C1497 C 0.84276 0.93359 0.06105 0.0
C1498 C 0.84405 0.95861 0.06358 0.0
C1499 C 0.86625 0.97034 0.06463 0.0
H1500 H 0.29002 0.55611 0.9665 0.0
H1501 H 0.35362 0.59807 0.98072 0.0
H1502 H 0.31385 0.52719 0.9441 0.0
H1503 H 0.37711 0.56973 0.95796 0.0
H1504 H 0.41682 0.52647 0.91271 0.0
H1505 H 0.38106 0.55079 0.91431 0.0
H1506 H 0.34871 0.50039 0.96275 0.0
H1507 H 0.38461 0.47643 0.96154 0.0
C1508 C 0.309 0.55929 0.96453 0.0
C1509 C 0.32013 0.57908 0.97557 0.0
C1510 C 0.3225 0.54291 0.95158 0.0
C1511 C 0.34715 0.54654 0.94894 0.0
C1512 C 0.35802 0.56683 0.95925 0.0
C1513 C 0.34468 0.58283 0.97261 0.0
C1514 C 0.40146 0.51975 0.92236 0.0
C1515 C 0.40351 0.49992 0.9374 0.0
C1516 C 0.38108 0.5338 0.92346 0.0
C1517 C 0.36253 0.52772 0.93917 0.0
C1518 C 0.36284 0.5055 0.95059 0.0
C1519 C 0.38335 0.4917 0.94981 0.0
H1520 H 0.17748 0.54816 0.79018 0.0
H1521 H 0.17032 0.52488 0.71691 0.0
H1522 H 0.20885 0.57587 0.77876 0.0
H1523 H 0.20232 0.55258 0.70537 0.0
H1524 H 0.22435 0.63521 0.69916 0.0
H1525 H 0.20489 0.59619 0.70277 0.0
H1526 H 0.2489 0.58082 0.76418 0.0
H1527 H 0.26738 0.62027 0.76111 0.0
C1528 C 0.18292 0.54871 0.77166 0.0
C1529 C 0.17134 0.53459 0.7544 0.0
C1530 C 0.20114 0.56439 0.76511 0.0
C1531 C 0.20823 0.5663 0.74113 0.0
C1532 C 0.1972 0.55153 0.72395 0.0
C1533 C 0.17893 0.53571 0.73056 0.0
C1534 C 0.23053 0.623 0.71272 0.0
C1535 C 0.24703 0.63062 0.73005 0.0
C1536 C 0.2194 0.60066 0.71485 0.0
C1537 C 0.22492 0.58574 0.7342 0.0
C1538 C 0.24384 0.59223 0.74949 0.0
C1539 C 0.25457 0.61466 0.74763 0.0
H1540 H 0.2069 0.40463 0.47788 0.0
H1541 H 0.15892 0.35167 0.50746 0.0
H1542 H 0.17298 0.42991 0.46842 0.0
H1543 H 0.12511 0.37696 0.49809 0.0
H1544 H 0.06719 0.42055 0.46649 0.0
H1545 H 0.10229 0.39543 0.46432 0.0
H1546 H 0.14513 0.45216 0.49532 0.0
H1547 H 0.11018 0.4774 0.49741 0.0
C1548 C 0.18909 0.39829 0.4821 0.0
C1549 C 0.18549 0.37634 0.49362 0.0
C1550 C 0.16975 0.41275 0.47671 0.0
C1551 C 0.1465 0.40537 0.48256 0.0
C1552 C 0.14284 0.38295 0.49313 0.0
C1553 C 0.16218 0.36858 0.49868 0.0
C1554 C 0.08417 0.42787 0.47239 0.0
C1555 C 0.08584 0.45085 0.48247 0.0
C1556 C 0.10422 0.41343 0.47122 0.0
C1557 C 0.1263 0.4218 0.47989 0.0
C1558 C 0.12833 0.44533 0.4884 0.0
C1559 C 0.10827 0.45971 0.48973 0.0
H1560 H 0.81344 -0.00671 0.75826 0.0
H1561 H 0.86772 0.95958 0.71577 0.0
H1562 H 0.78512 0.96169 0.74701 0.0
H1563 H 0.83971 0.92788 0.70497 0.0
H1564 H 0.7867 0.8732 0.68517 0.0
H1565 H 0.80249 0.9142 0.68544 0.0
H1566 H 0.785 0.92036 0.76024 0.0
H1567 H 0.76924 0.87991 0.75982 0.0
C1568 C 0.81921 0.9793 0.74629 0.0
C1569 C 0.84287 0.97858 0.73826 0.0
C1570 C 0.80301 0.96128 0.7398 0.0
C1571 C 0.81022 0.94223 0.72522 0.0
C1572 C 0.83347 0.94244 0.71597 0.0
C1573 C 0.84963 0.96045 0.72242 0.0
C1574 C 0.78551 0.88372 0.70137 0.0
C1575 C 0.77717 0.8734 0.72257 0.0
C1576 C 0.79466 0.90706 0.70158 0.0
C1577 C 0.79527 0.92037 0.72294 0.0
C1578 C 0.78468 0.91071 0.74346 0.0
C1579 C 0.77582 0.88744 0.74329 0.0
H1580 H 0.70746 0.14426 0.53989 0.0
H1581 H 0.72197 0.07115 0.52093 0.0
H1582 H 0.66932 0.13195 0.55681 0.0
H1583 H 0.68331 0.05888 0.53679 0.0
H1584 H 0.61414 0.0399 0.57039 0.0
H1585 H 0.65581 0.0536 0.56947 0.0
H1586 H 0.63343 0.12007 0.53804 0.0
H1587 H 0.59237 0.10678 0.53966 0.0
C1588 C 0.70244 0.12554 0.53937 0.0
C1589 C 0.71735 0.1087 0.52869 0.0
C1590 C 0.68064 0.11847 0.54908 0.0
C1591 C 0.67309 0.09447 0.54788 0.0
C1592 C 0.68864 0.07745 0.53828 0.0
C1593 C 0.71066 0.0845 0.52891 0.0
C1594 C 0.6182 0.05771 0.56403 0.0
C1595 C 0.60014 0.07215 0.55476 0.0
C1596 C 0.64203 0.06547 0.56328 0.0
C1597 C 0.64801 0.08781 0.55339 0.0
C1598 C 0.6296 0.10288 0.54598 0.0
C1599 C 0.60598 0.09515 0.5467 0.0
H1600 H 0.14553 0.4423 0.83755 0.0
H1601 H 0.16126 0.42311 0.7646 0.0
H1602 H 0.17381 0.41226 0.85162 0.0
H1603 H 0.18935 0.39355 0.77856 0.0
H1604 H 0.2511 0.35684 0.80255 0.0
H1605 H 0.22927 0.39416 0.8004 0.0
H1606 H 0.17652 0.36569 0.84881 0.0
H1607 H 0.19876 0.32843 0.85122 0.0
C1608 C 0.15495 0.43163 0.82458 0.0
C1609 C 0.15122 0.43498 0.79998 0.0
C1610 C 0.17115 0.41459 0.83263 0.0
C1611 C 0.18411 0.40103 0.81617 0.0
C1612 C 0.18005 0.40421 0.79164 0.0
C1613 C 0.16373 0.42092 0.78364 0.0
C1614 C 0.23561 0.35914 0.8138 0.0
C1615 C 0.22658 0.34 0.82712 0.0
C1616 C 0.22296 0.38032 0.81234 0.0
C1617 C 0.20094 0.38248 0.82397 0.0
C1618 C 0.19345 0.36444 0.83969 0.0
C1619 C 0.20625 0.34322 0.84122 0.0
H1620 H 0.4039 0.61183 0.27253 0.0
H1621 H 0.34014 0.57177 0.25465 0.0
H1622 H 0.3796 0.645 0.28621 0.0
H1623 H 0.31581 0.60523 0.2664 0.0
H1624 H 0.27321 0.66148 0.29958 0.0
H1625 H 0.30007 0.62777 0.2963 0.0
H1626 H 0.35656 0.67571 0.27346 0.0
H1627 H 0.33032 0.7092 0.27864 0.0
C1628 C 0.38466 0.61035 0.27122 0.0
C1629 C 0.37383 0.5894 0.26249 0.0
C1630 C 0.37067 0.62934 0.27899 0.0
C1631 C 0.34556 0.62797 0.27755 0.0
C1632 C 0.33494 0.6069 0.26853 0.0
C1633 C 0.34889 0.58776 0.26142 0.0
C1634 C 0.29158 0.66474 0.2945 0.0
C1635 C 0.29963 0.68791 0.28928 0.0
C1636 C 0.30695 0.64542 0.29227 0.0
C1637 C 0.33047 0.64877 0.28399 0.0
C1638 C 0.33877 0.67221 0.2801 0.0
C1639 C 0.32362 0.69154 0.28301 0.0
H1640 H 0.50169 0.68196 0.60425 0.0
H1641 H 0.47526 0.71849 0.54194 0.0
H1642 H 0.48681 0.64427 0.58833 0.0
H1643 H 0.46035 0.68032 0.52582 0.0
H1644 H 0.47623 0.60055 0.49862 0.0
H1645 H 0.47982 0.64203 0.51138 0.0
H1646 H 0.44746 0.62391 0.57879 0.0
H1647 H 0.44399 0.58229 0.56616 0.0
C1648 C 0.49275 0.68192 0.58708 0.0
C1649 C 0.48976 0.70315 0.57426 0.0
C1650 C 0.48393 0.66036 0.57813 0.0
C1651 C 0.47206 0.65945 0.55604 0.0
C1652 C 0.46931 0.6806 0.54297 0.0
C1653 C 0.47793 0.70235 0.55211 0.0
C1654 C 0.46923 0.60553 0.5159 0.0
C1655 C 0.46028 0.58808 0.5316 0.0
C1656 C 0.4712 0.62932 0.52315 0.0
C1657 C 0.46439 0.63603 0.54624 0.0
C1658 C 0.45323 0.61906 0.56102 0.0
C1659 C 0.45107 0.59528 0.55371 0.0
H1660 H 0.54965 0.22392 0.79116 0.0
H1661 H 0.59432 0.1925 0.84527 0.0
H1662 H 0.5828 0.22289 0.76309 0.0
H1663 H 0.62743 0.19177 0.81739 0.0
H1664 H 0.68627 0.19614 0.76556 0.0
H1665 H 0.64735 0.18078 0.77874 0.0
H1666 H 0.61732 0.25068 0.76861 0.0
H1667 H 0.65583 0.26584 0.75573 0.0
C1668 C 0.56632 0.21615 0.79682 0.0
C1669 C 0.5697 0.20892 0.82054 0.0
C1670 C 0.58525 0.21553 0.78076 0.0
C1671 C 0.60777 0.20767 0.78821 0.0
C1672 C 0.61027 0.19786 0.8111 0.0
C1673 C 0.59136 0.19851 0.82716 0.0
C1674 C 0.67112 0.20795 0.76557 0.0
C1675 C 0.67402 0.23224 0.7601 0.0
C1676 C 0.64893 0.19919 0.77308 0.0
C1677 C 0.62936 0.21454 0.77474 0.0
C1678 C 0.63196 0.23831 0.76725 0.0
C1679 C 0.65409 0.2471 0.76016 0.0
H1680 H 0.97012 0.34148 0.08067 0.0
H1681 H 0.03895 0.32416 0.05141 0.0
H1682 H 0.97454 0.38231 0.06597 0.0
H1683 H 0.0436 0.36532 0.03723 0.0
H1684 H 0.04732 0.45064 0.05492 0.0
H1685 H 0.04536 0.40766 0.06281 0.0
H1686 H 0.97996 0.40218 0.02231 0.0
H1687 H 0.98196 0.44472 0.01397 0.0
C1688 C 0.98607 0.34638 0.0709 0.0
C1689 C 0.00414 0.32974 0.06705 0.0
C1690 C 0.98858 0.36965 0.0625 0.0
C1691 C 0.00942 0.37678 0.05057 0.0
C1692 C 0.02742 0.36012 0.04645 0.0
C1693 C 0.02467 0.33665 0.05439 0.0
C1694 C 0.03277 0.44019 0.04736 0.0
C1695 C 0.01474 0.45113 0.03395 0.0
C1696 C 0.03171 0.41565 0.0518 0.0
C1697 C 0.01243 0.40185 0.04323 0.0
C1698 C -0.00508 0.41257 0.02915 0.0
C1699 C -0.00383 0.43692 0.02437 0.0
H1700 H 0.94344 0.76233 0.32839 0.0
H1701 H 0.91964 0.70392 0.37274 0.0
H1702 H 0.90384 0.76415 0.3101 0.0
H1703 H 0.88005 0.70585 0.35454 0.0
H1704 H 0.80682 0.73841 0.33892 0.0
H1705 H 0.84704 0.73672 0.35524 0.0
H1706 H 0.87601 0.73809 0.28402 0.0
H1707 H 0.83562 0.73967 0.26746 0.0
C1708 C 0.92979 0.74981 0.33412 0.0
C1709 C 0.93457 0.73302 0.35202 0.0
C1710 C 0.90719 0.7508 0.3236 0.0
C1711 C 0.8889 0.73524 0.33103 0.0
C1712 C 0.89379 0.71823 0.34868 0.0
C1713 C 0.91646 0.71703 0.35898 0.0
C1714 C 0.82172 0.73852 0.32667 0.0
C1715 C 0.81798 0.73913 0.30185 0.0
C1716 C 0.84474 0.73737 0.33606 0.0
C1717 C 0.86458 0.73707 0.32088 0.0
C1718 C 0.86098 0.73834 0.2961 0.0
C1719 C 0.83788 0.7392 0.28665 0.0
H1720 H 0.51977 0.31484 0.85809 0.0
H1721 H 0.55253 0.29616 0.9252 0.0
H1722 H 0.5112 0.35435 0.87355 0.0
H1723 H 0.54511 0.33617 0.9404 0.0
H1724 H 0.49639 0.39251 0.9713 0.0
H1725 H 0.51042 0.35555 0.95371 0.0
H1726 H 0.52373 0.39216 0.88719 0.0
H1727 H 0.50862 0.42881 0.90449 0.0
C1728 C 0.52592 0.31951 0.87587 0.0
C1729 C 0.53655 0.30243 0.89059 0.0
C1730 C 0.521 0.34219 0.88477 0.0
C1731 C 0.52698 0.34828 0.90844 0.0
C1732 C 0.53957 0.3318 0.92236 0.0
C1733 C 0.54413 0.309 0.91358 0.0
C1734 C 0.50213 0.39258 0.95286 0.0
C1735 C 0.50123 0.41349 0.93924 0.0
C1736 C 0.5105 0.37148 0.94285 0.0
C1737 C 0.51852 0.37092 0.91909 0.0
C1738 C 0.51748 0.39186 0.90544 0.0
C1739 C 0.50877 0.41288 0.91536 0.0
H1740 H 0.91829 0.25918 0.1112 0.0
H1741 H 0.96083 0.23714 0.17148 0.0
H1742 H 0.88252 0.24412 0.1308 0.0
H1743 H 0.92494 0.22175 0.19102 0.0
H1744 H 0.84948 0.2278 0.2265 0.0
H1745 H 0.88796 0.23728 0.20878 0.0
H1746 H 0.86464 0.20539 0.14228 0.0
H1747 H 0.82594 0.19622 0.15979 0.0
C1748 C 0.91997 0.2512 0.12868 0.0
C1749 C 0.9423 0.24939 0.13986 0.0
C1750 C 0.89954 0.24231 0.13978 0.0
C1751 C 0.90101 0.23146 0.16229 0.0
C1752 C 0.9233 0.23004 0.17368 0.0
C1753 C 0.94379 0.23889 0.16253 0.0
C1754 C 0.85267 0.22238 0.20823 0.0
C1755 C 0.83447 0.21161 0.19443 0.0
C1756 C 0.87477 0.22777 0.19811 0.0
C1757 C 0.8791 0.22249 0.17403 0.0
C1758 C 0.86156 0.21015 0.16075 0.0
C1759 C 0.83947 0.20472 0.17086 0.0
H1760 H 0.99074 0.67596 0.45128 0.0
H1761 H 0.06215 0.68896 0.42534 0.0
H1762 H 0.00536 0.64335 0.47576 0.0
H1763 H 0.07673 0.6559 0.44962 0.0
H1764 H 0.06354 0.56932 0.45484 0.0
H1765 H 0.06464 0.61102 0.44243 0.0
H1766 H 0.03464 0.63182 0.51012 0.0
H1767 H 0.03397 0.58999 0.5226 0.0
C1768 C 0.00962 0.67206 0.45114 0.0
C1769 C 0.02528 0.68469 0.43627 0.0
C1770 C 0.01805 0.65362 0.46535 0.0
C1771 C 0.0422 0.64729 0.46463 0.0
C1772 C 0.05808 0.66061 0.45054 0.0
C1773 C 0.04971 0.67938 0.43665 0.0
C1774 C 0.05851 0.58301 0.4675 0.0
C1775 C 0.04883 0.57676 0.48963 0.0
C1776 C 0.05909 0.60683 0.46044 0.0
C1777 C 0.04946 0.62449 0.47528 0.0
C1778 C 0.04211 0.61844 0.49843 0.0
C1779 C 0.04187 0.59463 0.5056 0.0
H1780 H 0.58375 0.73845 0.63457 0.0
H1781 H 0.56116 0.80659 0.66217 0.0
H1782 H 0.62156 0.74287 0.65628 0.0
H1783 H 0.59918 0.81118 0.68337 0.0
H1784 H 0.68442 0.8175 0.68504 0.0
H1785 H 0.64476 0.81398 0.66687 0.0
H1786 H 0.63303 0.74727 0.70342 0.0
H1787 H 0.6724 0.75092 0.72204 0.0
C1788 C 0.5869 0.75433 0.64524 0.0
C1789 C 0.56964 0.77217 0.64676 0.0
C1790 C 0.60839 0.75679 0.6577 0.0
C1791 C 0.61306 0.77734 0.67141 0.0
C1792 C 0.59587 0.79522 0.67283 0.0
C1793 C 0.57419 0.79255 0.66079 0.0
C1794 C 0.67324 0.80226 0.68942 0.0
C1795 C 0.68144 0.78449 0.70493 0.0
C1796 C 0.65062 0.80029 0.6791 0.0
C1797 C 0.63611 0.7803 0.68375 0.0
C1798 C 0.64407 0.76276 0.69955 0.0
C1799 C 0.66647 0.76496 0.71027 0.0
H1800 H 0.56857 0.48575 0.71686 0.0
H1801 H 0.57944 0.5531 0.68104 0.0
H1802 H 0.53497 0.4766 0.69042 0.0
H1803 H 0.54592 0.5439 0.65455 0.0
H1804 H 0.47973 0.52804 0.61501 0.0
H1805 H 0.50166 0.53617 0.65188 0.0
H1806 H 0.53462 0.46711 0.64688 0.0
H1807 H 0.51274 0.45893 0.61014 0.0
C1808 C 0.5636 0.49873 0.70352 0.0
C1809 C 0.57678 0.52002 0.70078 0.0
C1810 C 0.54436 0.49348 0.68844 0.0
C1811 C 0.53783 0.50952 0.67046 0.0
C1812 C 0.55033 0.53133 0.66848 0.0
C1813 C 0.56967 0.53651 0.68346 0.0
C1814 C 0.49097 0.51423 0.62223 0.0
C1815 C 0.49486 0.493 0.60945 0.0
C1816 C 0.50368 0.519 0.64323 0.0
C1817 C 0.52018 0.50248 0.65195 0.0
C1818 C 0.52203 0.4802 0.64059 0.0
C1819 C 0.50953 0.47552 0.61949 0.0
H1820 H 0.78813 0.35508 0.94901 0.0
H1821 H 0.72622 0.39428 0.92638 0.0
H1822 H 0.7892 0.33494 0.91042 0.0
H1823 H 0.72769 0.37471 0.88751 0.0
H1824 H 0.71937 0.3142 0.83359 0.0
H1825 H 0.71981 0.33563 0.87138 0.0
H1826 H 0.79672 0.34066 0.86856 0.0
H1827 H 0.79635 0.31857 0.83104 0.0
C1828 C 0.77496 0.35963 0.93564 0.0
C1829 C 0.75701 0.37613 0.94069 0.0
C1830 C 0.77563 0.34818 0.9135 0.0
C1831 C 0.75843 0.3531 0.89595 0.0
C1832 C 0.74092 0.37018 0.90082 0.0
C1833 C 0.74017 0.38151 0.923 0.0
C1834 C 0.7364 0.31984 0.84102 0.0
C1835 C 0.75783 0.31464 0.82931 0.0
C1836 C 0.73663 0.33229 0.86261 0.0
C1837 C 0.75829 0.33998 0.87291 0.0
C1838 C 0.77974 0.33475 0.86123 0.0
C1839 C 0.77952 0.32216 0.83968 0.0
H1840 H 0.92457 0.46708 0.19394 0.0
H1841 H 0.92821 0.53447 0.23154 0.0
H1842 H 0.95624 0.48061 0.16741 0.0
H1843 H 0.96012 0.5479 0.20515 0.0
H1844 H 0.97355 0.57002 0.12451 0.0
H1845 H 0.95653 0.5584 0.16256 0.0
H1846 H -0.00159 0.49422 0.16202 0.0
H1847 H 0.01542 0.50581 0.12368 0.0
C1848 C 0.93248 0.48459 0.19682 0.0
C1849 C 0.92365 0.4999 0.21446 0.0
C1850 C 0.9508 0.49225 0.18181 0.0
C1851 C 0.96058 0.51537 0.18418 0.0
C1852 C 0.95276 0.53008 0.20282 0.0
C1853 C 0.93447 0.5224 0.21785 0.0
C1854 C 0.97973 0.55382 0.13287 0.0
C1855 C -0.00461 0.53858 0.12091 0.0
C1856 C 0.97008 0.54721 0.15477 0.0
C1857 C 0.97583 0.52517 0.16501 0.0
C1858 C -0.00657 0.51113 0.15429 0.0
C1859 C 0.00327 0.51787 0.13243 0.0
H1860 H 0.73181 0.60563 0.4381 0.0
H1861 H 0.69277 0.66137 0.47364 0.0
H1862 H 0.72142 0.62262 0.39956 0.0
H1863 H 0.68208 0.67818 0.43502 0.0
H1864 H 0.71509 0.71975 0.37017 0.0
H1865 H 0.70989 0.69905 0.40776 0.0
H1866 H 0.69049 0.63441 0.3698 0.0
H1867 H 0.6959 0.65517 0.33188 0.0
C1868 C 0.7205 0.62115 0.43764 0.0
C1869 C 0.71352 0.63251 0.45879 0.0
C1870 C 0.71438 0.63077 0.41557 0.0
C1871 C 0.70119 0.65188 0.41436 0.0
C1872 C 0.69255 0.66207 0.43551 0.0
C1873 C 0.69866 0.65245 0.45756 0.0
C1874 C 0.70934 0.70123 0.36979 0.0
C1875 C 0.70629 0.68897 0.34809 0.0
C1876 C 0.7061 0.68943 0.39135 0.0
C1877 C 0.69986 0.6651 0.39166 0.0
C1878 C 0.69546 0.65315 0.37 0.0
C1879 C 0.69851 0.66504 0.34835 0.0
H1880 H 0.62892 0.53099 0.82819 0.0
H1881 H 0.57491 0.56724 0.78738 0.0
H1882 H 0.60368 0.53273 0.86347 0.0
H1883 H 0.54951 0.56878 0.82276 0.0
H1884 H 0.55789 0.54952 0.92654 0.0
H1885 H 0.58291 0.56078 0.89277 0.0
H1886 H 0.5292 0.53352 0.84414 0.0
H1887 H 0.50417 0.52211 0.8778 0.0
C1888 C 0.61185 0.53976 0.82692 0.0
C1889 C 0.60375 0.54879 0.80507 0.0
C1890 C 0.59748 0.54088 0.84712 0.0
C1891 C 0.57464 0.55079 0.84574 0.0
C1892 C 0.56702 0.56094 0.8242 0.0
C1893 C 0.58157 0.56013 0.80404 0.0
C1894 C 0.55119 0.54634 0.90865 0.0
C1895 C 0.52917 0.53464 0.90482 0.0
C1896 C 0.56556 0.55275 0.88937 0.0
C1897 C 0.558 0.54791 0.86593 0.0
C1898 C 0.53535 0.53763 0.86205 0.0
C1899 C 0.52111 0.53093 0.88132 0.0
H1900 H 0.75229 0.3189 0.02947 0.0
H1901 H 0.73506 0.36741 0.08677 0.0
H1902 H 0.74461 0.285 0.0558 0.0
H1903 H 0.72777 0.33369 0.11309 0.0
H1904 H 0.69709 0.27199 0.15067 0.0
H1905 H 0.69913 0.30075 0.1183 0.0
H1906 H 0.76246 0.26681 0.09158 0.0
H1907 H 0.76021 0.23771 0.12369 0.0
C1908 C 0.74698 0.3223 0.04771 0.0
C1909 C 0.7443 0.34577 0.05613 0.0
C1910 C 0.74258 0.30291 0.06274 0.0
C1911 C 0.73531 0.30668 0.08639 0.0
C1912 C 0.73282 0.33019 0.09479 0.0
C1913 C 0.73727 0.34953 0.07981 0.0
C1914 C 0.7111 0.27026 0.13754 0.0
C1915 C 0.72874 0.25284 0.13999 0.0
C1916 C 0.71237 0.28686 0.11912 0.0
C1917 C 0.73132 0.2864 0.10282 0.0
C1918 C 0.74768 0.26764 0.10392 0.0
C1919 C 0.74636 0.25094 0.12233 0.0
H1920 H 0.92094 0.44558 0.30618 0.0
H1921 H 0.8861 0.50881 0.33234 0.0
H1922 H 0.94791 0.44667 0.34055 0.0
H1923 H 0.91271 0.50967 0.36674 0.0
H1924 H 0.97232 0.44567 0.42066 0.0
H1925 H 0.94782 0.4422 0.3847 0.0
H1926 H 0.95546 0.51804 0.3731 0.0
H1927 H 0.97955 0.52166 0.40907 0.0
C1928 C 0.91889 0.45952 0.31941 0.0
C1929 C 0.90155 0.47719 0.31659 0.0
C1930 C 0.93428 0.46012 0.33905 0.0
C1931 C 0.93259 0.47844 0.35609 0.0
C1932 C 0.91474 0.49564 0.35359 0.0
C1933 C 0.89939 0.49503 0.33402 0.0
C1934 C 0.96908 0.46153 0.41023 0.0
C1935 C 0.97761 0.48399 0.41788 0.0
C1936 C 0.95507 0.45952 0.38965 0.0
C1937 C 0.9494 0.47992 0.37641 0.0
C1938 C 0.95908 0.50211 0.38332 0.0
C1939 C 0.97302 0.50413 0.40384 0.0
H1940 H 0.76252 0.69886 0.53574 0.0
H1941 H 0.78027 0.65113 0.59331 0.0
H1942 H 0.77598 0.73292 0.55997 0.0
H1943 H 0.79355 0.68491 0.61739 0.0
H1944 H 0.82447 0.74335 0.65598 0.0
H1945 H 0.82367 0.71757 0.62092 0.0
H1946 H 0.759 0.75116 0.59695 0.0
H1947 H 0.75994 0.7772 0.63175 0.0
C1948 C 0.76953 0.69566 0.55345 0.0
C1949 C 0.77014 0.67244 0.56281 0.0
C1950 C 0.77726 0.7151 0.56724 0.0
C1951 C 0.78599 0.71155 0.59046 0.0
C1952 C 0.78737 0.68819 0.59938 0.0
C1953 C 0.77947 0.66885 0.58572 0.0
C1954 C 0.81055 0.74584 0.64279 0.0
C1955 C 0.79185 0.76177 0.64696 0.0
C1956 C 0.81007 0.73102 0.62278 0.0
C1957 C 0.79088 0.7319 0.60667 0.0
C1958 C 0.77396 0.75001 0.60915 0.0
C1959 C 0.77449 0.76493 0.62915 0.0
H1960 H 0.66939 0.60811 0.56291 0.0
H1961 H 0.69742 0.54253 0.53427 0.0
H1962 H 0.62946 0.59032 0.56329 0.0
H1963 H 0.6575 0.52482 0.53462 0.0
H1964 H 0.56476 0.56465 0.51681 0.0
H1965 H 0.60438 0.57991 0.52688 0.0
H1966 H 0.62172 0.51258 0.55945 0.0
H1967 H 0.58204 0.49714 0.54937 0.0
C1968 C 0.66713 0.58969 0.55734 0.0
C1969 C 0.68638 0.57678 0.54822 0.0
C1970 C 0.64428 0.57961 0.5574 0.0
C1971 C 0.64043 0.5564 0.54859 0.0
C1972 C 0.66002 0.54276 0.54153 0.0
C1973 C 0.68284 0.5529 0.54128 0.0
C1974 C 0.57699 0.55307 0.52611 0.0
C1975 C 0.57032 0.52964 0.53214 0.0
C1976 C 0.59955 0.56191 0.53214 0.0
C1977 C 0.61596 0.54745 0.54413 0.0
C1978 C 0.60935 0.52405 0.55022 0.0
C1979 C 0.58667 0.51526 0.5444 0.0
H1980 H 0.18608 0.90054 0.55452 0.0
H1981 H 0.22052 0.96356 0.52615 0.0
H1982 H 0.14861 0.92154 0.55664 0.0
H1983 H 0.18329 0.9853 0.52963 0.0
H1984 H 0.10741 -0.00034 0.50159 0.0
H1985 H 0.14762 0.98596 0.50859 0.0
H1986 H 0.12411 0.95038 0.5729 0.0
H1987 H 0.08341 0.96297 0.56488 0.0
C1988 C 0.18571 0.91913 0.5493 0.0
C1989 C 0.206 0.93036 0.53981 0.0
C1990 C 0.16426 0.93131 0.55073 0.0
C1991 C 0.16277 0.95515 0.54313 0.0
C1992 C 0.1836 0.9668 0.53509 0.0
C1993 C 0.20496 0.95442 0.5332 0.0
C1994 C 0.11093 0.98925 0.51744 0.0
C1995 C 0.09228 0.98202 0.53249 0.0
C1996 C 0.13408 0.9815 0.52159 0.0
C1997 C 0.13916 0.96674 0.54118 0.0
C1998 C 0.12074 0.96114 0.55727 0.0
C1999 C 0.09746 0.96846 0.5528 0.0
H2000 H 0.31655 0.9232 0.71809 0.0
H2001 H 0.30293 0.93202 0.79342 0.0
H2002 H 0.29797 0.88347 0.71933 0.0
H2003 H 0.28474 0.89224 0.79465 0.0
H2004 H 0.29499 0.80857 0.78762 0.0
H2005 H 0.30549 0.85097 0.78765 0.0
H2006 H 0.2565 0.86254 0.72938 0.0
H2007 H 0.24561 0.82013 0.72952 0.0
C2008 C 0.30931 0.91677 0.73479 0.0
C2009 C 0.31129 0.93056 0.75568 0.0
C2010 C 0.29861 0.89415 0.73548 0.0
C2011 C 0.29007 0.8849 0.75712 0.0
C2012 C 0.29132 0.89901 0.7778 0.0
C2013 C 0.30166 0.92174 0.77705 0.0
C2014 C 0.28621 0.82022 0.77505 0.0
C2015 C 0.26954 0.81107 0.75855 0.0
C2016 C 0.29213 0.84445 0.77514 0.0
C2017 C 0.28179 0.85988 0.75848 0.0
C2018 C 0.26471 0.85091 0.74233 0.0
C2019 C 0.25844 0.82672 0.74253 0.0
H2020 H 0.28622 0.04365 0.01675 0.0
H2021 H 0.30405 0.07503 0.08516 0.0
H2022 H 0.32486 0.02432 0.01576 0.0
H2023 H 0.34302 0.05595 0.08392 0.0
H2024 H 0.40937 0.00756 0.0748 0.0
H2025 H 0.36727 0.01723 0.08125 0.0
H2026 H 0.36343 0.04635 0.01013 0.0
H2027 H 0.40481 0.03684 0.00363 0.0
C2028 C 0.29823 0.04605 0.03177 0.0
C2029 C 0.2924 0.06119 0.0508 0.0
C2030 C 0.32032 0.03501 0.03119 0.0
C2031 C 0.33701 0.03905 0.04955 0.0
C2032 C 0.33042 0.05254 0.06957 0.0
C2033 C 0.3082 0.06354 0.0702 0.0
C2034 C 0.39944 0.01597 0.06058 0.0
C2035 C 0.41044 0.02147 0.03874 0.0
C2036 C 0.37543 0.02147 0.06428 0.0
C2037 C 0.36209 0.03217 0.04605 0.0
C2038 C 0.37314 0.0376 0.02431 0.0
C2039 C 0.39699 0.03237 0.02071 0.0
H2040 H 0.70649 0.57479 0.77118 0.0
H2041 H 0.68253 0.59463 0.7007 0.0
H2042 H 0.73383 0.60894 0.77181 0.0
H2043 H 0.71005 0.62884 0.70138 0.0
H2044 H 0.73755 0.69333 0.77516 0.0
H2045 H 0.72171 0.65272 0.77353 0.0
H2046 H 0.75469 0.6424 0.70481 0.0
H2047 H 0.77098 0.68324 0.70664 0.0
C2048 C 0.70736 0.58621 0.75565 0.0
C2049 C 0.69213 0.58229 0.73602 0.0
C2050 C 0.72303 0.60571 0.75603 0.0
C2051 C 0.72393 0.62152 0.73671 0.0
C2052 C 0.70983 0.61676 0.71642 0.0
C2053 C 0.69396 0.59733 0.71612 0.0
C2054 C 0.74191 0.68219 0.75998 0.0
C2055 C 0.75539 0.69136 0.741 0.0
C2056 C 0.73295 0.65894 0.75909 0.0
C2057 C 0.73694 0.64451 0.739 0.0
C2058 C 0.75135 0.65326 0.72045 0.0
C2059 C 0.76077 0.67647 0.72158 0.0
H2060 H 0.79826 0.47084 0.98656 0.0
H2061 H 0.81904 0.43615 0.05203 0.0
H2062 H 0.8327 0.4976 0.98986 0.0
H2063 H 0.85366 0.46292 0.05521 0.0
H2064 H 0.90584 0.52554 0.0612 0.0
H2065 H 0.86633 0.50645 0.06021 0.0
H2066 H 0.87616 0.48905 0.98578 0.0
H2067 H 0.91537 0.50801 0.9867 0.0
C2068 C 0.81009 0.46906 0.00175 0.0
C2069 C 0.80618 0.45126 0.0189 0.0
C2070 C 0.82977 0.48438 0.00362 0.0
C2071 C 0.84583 0.48224 0.02273 0.0
C2072 C 0.84139 0.46508 0.04043 0.0
C2073 C 0.82173 0.44966 0.0385 0.0
C2074 C 0.89932 0.51803 0.04455 0.0
C2075 C 0.9137 0.51809 0.02406 0.0
C2076 C 0.87684 0.507 0.04404 0.0
C2077 C 0.86831 0.49623 0.02296 0.0
C2078 C 0.88222 0.4974 0.00222 0.0
C2079 C 0.90472 0.50812 0.00279 0.0
H2080 H 0.35022 0.07822 0.76197 0.0
H2081 H 0.28256 0.04331 0.74747 0.0
H2082 H 0.33086 0.11671 0.76199 0.0
H2083 H 0.26307 0.0822 0.74716 0.0
H2084 H 0.23816 0.153 0.78479 0.0
H2085 H 0.25401 0.1134 0.77721 0.0
H2086 H 0.31084 0.14463 0.73543 0.0
H2087 H 0.29537 0.18423 0.74334 0.0
C2088 C 0.3312 0.07881 0.75857 0.0
C2089 C 0.31786 0.05779 0.75482 0.0
C2090 C 0.32014 0.1009 0.75837 0.0
C2091 C 0.29547 0.10248 0.75443 0.0
C2092 C 0.2821 0.08147 0.75036 0.0
C2093 C 0.29324 0.05928 0.75047 0.0
C2094 C 0.25383 0.1514 0.77369 0.0
C2095 C 0.26575 0.17179 0.76501 0.0
C2096 C 0.26282 0.1287 0.76924 0.0
C2097 C 0.28383 0.12598 0.756 0.0
C2098 C 0.29487 0.14625 0.7461 0.0
C2099 C 0.28595 0.16892 0.75059 0.0
H2100 H 0.2026 0.96266 0.27222 0.0
H2101 H 0.16897 0.95444 0.20312 0.0
H2102 H 0.21402 0.92083 0.27117 0.0
H2103 H 0.18041 0.91247 0.20217 0.0
H2104 H 0.22439 0.84092 0.20704 0.0
H2105 H 0.21644 0.88362 0.20293 0.0
H2106 H 0.18627 0.88458 0.27365 0.0
H2107 H 0.19395 0.84232 0.27785 0.0
C2108 C 0.19807 0.95204 0.25657 0.0
C2109 C 0.18465 0.96169 0.23787 0.0
C2110 C 0.20448 0.9281 0.25608 0.0
C2111 C 0.19769 0.91342 0.23678 0.0
C2112 C 0.18581 0.92345 0.21725 0.0
C2113 C 0.17924 0.94743 0.21781 0.0
C2114 C 0.21576 0.85019 0.22155 0.0
C2115 C 0.21001 0.83824 0.24285 0.0
C2116 C 0.2113 0.8746 0.21921 0.0
C2117 C 0.20126 0.88739 0.23819 0.0
C2118 C 0.19458 0.87522 0.25898 0.0
C2119 C 0.19882 0.85094 0.26125 0.0
H2120 H 0.55108 0.34217 0.39493 0.0
H2121 H 0.52976 0.30039 0.45591 0.0
H2122 H 0.55466 0.37752 0.4202 0.0
H2123 H 0.5321 0.33605 0.48108 0.0
H2124 H 0.53574 0.40815 0.51993 0.0
H2125 H 0.55146 0.37284 0.49931 0.0
H2126 H 0.51807 0.39604 0.4339 0.0
H2127 H 0.50282 0.43063 0.45398 0.0
C2128 C 0.54782 0.34048 0.41389 0.0
C2129 C 0.53966 0.31887 0.42348 0.0
C2130 C 0.54982 0.36066 0.42835 0.0
C2131 C 0.54293 0.35965 0.45242 0.0
C2132 C 0.53749 0.33737 0.46259 0.0
C2133 C 0.53603 0.31699 0.44817 0.0
C2134 C 0.53206 0.40567 0.50109 0.0
C2135 C 0.51783 0.42197 0.48863 0.0
C2136 C 0.54106 0.38557 0.48934 0.0
C2137 C 0.5363 0.38187 0.46493 0.0
C2138 C 0.52261 0.39861 0.45255 0.0
C2139 C 0.5135 0.41832 0.46421 0.0
H2140 H 0.41621 0.78577 0.14144 0.0
H2141 H 0.43208 0.7402 0.20121 0.0
H2142 H 0.38485 0.8048 0.16436 0.0
H2143 H 0.39988 0.7581 0.22375 0.0
H2144 H 0.34462 0.79214 0.26407 0.0
H2145 H 0.38293 0.79079 0.24383 0.0
H2146 H 0.3466 0.79315 0.17568 0.0
H2147 H 0.30878 0.79573 0.19575 0.0
C2148 C 0.41282 0.77975 0.15947 0.0
C2149 C 0.42612 0.76124 0.16948 0.0
C2150 C 0.39493 0.79068 0.17263 0.0
C2151 C 0.38966 0.78291 0.19586 0.0
C2152 C 0.40366 0.7649 0.20609 0.0
C2153 C 0.42187 0.75433 0.19309 0.0
C2154 C 0.34493 0.79321 0.24478 0.0
C2155 C 0.32364 0.79326 0.23149 0.0
C2156 C 0.36687 0.79222 0.23318 0.0
C2157 C 0.36781 0.791 0.20814 0.0
C2158 C 0.34668 0.79398 0.19498 0.0
C2159 C 0.32483 0.7953 0.20655 0.0
H2160 H 0.97288 0.68944 0.91895 0.0
H2161 H 0.9829 0.74747 0.969 0.0
H2162 H 0.96305 0.66266 0.95182 0.0
H2163 H 0.97384 0.72035 0.00207 0.0
H2164 H 0.0119 0.64557 0.0311 0.0
H2165 H 0.00377 0.68273 0.01019 0.0
H2166 H 0.93395 0.65584 0.99059 0.0
H2167 H 0.9418 0.6189 0.01239 0.0
C2168 C 0.97243 0.69653 0.93695 0.0
C2169 C 0.97886 0.72034 0.94157 0.0
C2170 C 0.96657 0.68133 0.9557 0.0
C2171 C 0.96759 0.68959 0.97937 0.0
C2172 C 0.9727 0.71374 0.98391 0.0
C2173 C 0.97796 0.72913 0.96505 0.0
C2174 C -0.00564 0.6482 0.02344 0.0
C2175 C 0.97747 0.62957 0.02319 0.0
C2176 C 0.98967 0.66942 0.01155 0.0
C2177 C 0.96832 0.67193 -0.00128 0.0
C2178 C 0.95047 0.65425 0.0005 0.0
C2179 C 0.95493 0.63323 0.01299 0.0
H2180 H 0.04838 0.21106 0.70227 0.0
H2181 H 0.08112 0.27365 0.67096 0.0
H2182 H 0.07837 0.21181 0.73411 0.0
H2183 H 0.11111 0.27419 0.70239 0.0
H2184 H 0.14904 0.28425 0.77043 0.0
H2185 H 0.11348 0.28193 0.74552 0.0
H2186 H 0.12204 0.20574 0.73859 0.0
H2187 H 0.15747 0.20794 0.76396 0.0
C2188 C 0.06204 0.22487 0.70215 0.0
C2189 C 0.06247 0.24231 0.6842 0.0
C2190 C 0.07915 0.2253 0.72034 0.0
C2191 C 0.09684 0.24323 0.72088 0.0
C2192 C 0.09735 0.26047 0.70274 0.0
C2193 C 0.08033 0.26002 0.6846 0.0
C2194 C 0.14305 0.26692 0.76403 0.0
C2195 C 0.15626 0.24633 0.76877 0.0
C2196 C 0.12278 0.26563 0.74966 0.0
C2197 C 0.11539 0.24375 0.73967 0.0
C2198 C 0.12738 0.22284 0.74605 0.0
C2199 C 0.14766 0.22411 0.76057 0.0
H2200 H 0.45168 0.69841 0.05581 0.0
H2201 H 0.46455 0.65031 0.1145 0.0
H2202 H 0.45072 0.66443 0.02816 0.0
H2203 H 0.46382 0.6166 0.0867 0.0
H2204 H 0.50808 0.58623 0.01857 0.0
H2205 H 0.49998 0.62136 0.04289 0.0
H2206 H 0.42448 0.61158 0.03115 0.0
H2207 H 0.43228 0.57608 0.00685 0.0
C2208 C 0.45369 0.68057 0.06286 0.0
C2209 C 0.45845 0.67693 0.08721 0.0
C2210 C 0.45309 0.66126 0.04707 0.0
C2211 C 0.45731 0.63825 0.05554 0.0
C2212 C 0.46048 0.63437 0.08001 0.0
C2213 C 0.46088 0.6536 0.09582 0.0
C2214 C 0.48976 0.59172 0.02076 0.0
C2215 C 0.47081 0.57828 0.01096 0.0
C2216 C 0.48519 0.61172 0.03472 0.0
C2217 C 0.46168 0.61873 0.03881 0.0
C2218 C 0.44272 0.60623 0.02811 0.0
C2219 C 0.44725 0.58603 0.01429 0.0
H2220 H 0.05365 0.76103 0.81616 0.0
H2221 H 0.08676 0.72369 0.87462 0.0
H2222 H 0.08708 0.7513 0.79057 0.0
H2223 H 0.12079 0.71461 0.84919 0.0
H2224 H 0.1714 0.68783 0.79316 0.0
H2225 H 0.13407 0.69233 0.81474 0.0
H2226 H 0.12771 0.764 0.78742 0.0
H2227 H 0.16449 0.7593 0.76536 0.0
C2228 C 0.06816 0.75077 0.82354 0.0
C2229 C 0.0678 0.74329 0.84741 0.0
C2230 C 0.08733 0.74526 0.8089 0.0
C2231 C 0.10667 0.73236 0.81788 0.0
C2232 C 0.10602 0.72435 0.84164 0.0
C2233 C 0.08667 0.72968 0.85627 0.0
C2234 C 0.16184 0.70442 0.79148 0.0
C2235 C 0.17099 0.72327 0.77765 0.0
C2236 C 0.14055 0.70704 0.80399 0.0
C2237 C 0.12805 0.72857 0.80296 0.0
C2238 C 0.13674 0.74706 0.78838 0.0
C2239 C 0.15792 0.7444 0.77579 0.0
H2240 H 0.97597 0.32109 0.62365 0.0
H2241 H 0.02556 0.30208 0.56822 0.0
H2242 H 0.96354 0.35548 0.60074 0.0
H2243 H 0.01444 0.33751 0.54583 0.0
H2244 H 0.97401 0.43047 0.57005 0.0
H2245 H 0.97739 0.39292 0.5906 0.0
H2246 H 0.98518 0.3564 0.52296 0.0
H2247 H 0.9832 0.39455 0.50239 0.0
C2248 C 0.98457 0.32464 0.60673 0.0
C2249 C 0.00199 0.30929 0.59779 0.0
C2250 C 0.97743 0.34432 0.59356 0.0
C2251 C 0.98801 0.3494 0.57143 0.0
C2252 C 0.00551 0.33392 0.56255 0.0
C2253 C 0.01222 0.31385 0.5755 0.0
C2254 C 0.97587 0.4144 0.55946 0.0
C2255 C 0.97878 0.41551 0.53463 0.0
C2256 C 0.97776 0.39273 0.5713 0.0
C2257 C 0.98208 0.3716 0.5585 0.0
C2258 C 0.98265 0.37244 0.53343 0.0
C2259 C 0.98121 0.39424 0.5216 0.0
H2260 H 0.43321 0.30532 0.36386 0.0
H2261 H 0.45968 0.25762 0.30962 0.0
H2262 H 0.39654 0.31029 0.34101 0.0
H2263 H 0.42338 0.26314 0.28639 0.0
H2264 H 0.3436 0.25355 0.2697 0.0
H2265 H 0.38217 0.25121 0.28944 0.0
H2266 H 0.38008 0.32676 0.30489 0.0
H2267 H 0.34115 0.32901 0.28573 0.0
C2268 C 0.43129 0.29617 0.3469 0.0
C2269 C 0.44914 0.28095 0.33858 0.0
C2270 C 0.41037 0.29911 0.33373 0.0
C2271 C 0.40702 0.28701 0.31193 0.0
C2272 C 0.42526 0.27237 0.30331 0.0
C2273 C 0.44608 0.26931 0.31655 0.0
C2274 C 0.35143 0.26971 0.27716 0.0
C2275 C 0.33923 0.29142 0.2763 0.0
C2276 C 0.37361 0.26839 0.28835 0.0
C2277 C 0.38415 0.2888 0.29879 0.0
C2278 C 0.37225 0.31065 0.29736 0.0
C2279 C 0.34999 0.31195 0.28627 0.0
H2280 H 0.45948 0.56259 0.30963 0.0
H2281 H 0.45561 0.48569 0.30527 0.0
H2282 H 0.47275 0.55989 0.35111 0.0
H2283 H 0.46952 0.48297 0.34637 0.0
H2284 H 0.45005 0.48944 0.42474 0.0
H2285 H 0.44666 0.49268 0.38195 0.0
H2286 H 0.50253 0.5464 0.38153 0.0
H2287 H 0.50587 0.54338 0.4251 0.0
C2288 C 0.46216 0.54512 0.31732 0.0
C2289 C 0.4561 0.52434 0.30445 0.0
C2290 C 0.46984 0.54358 0.34103 0.0
C2291 C 0.47167 0.52123 0.3521 0.0
C2292 C 0.46769 0.50046 0.33845 0.0
C2293 C 0.45984 0.502 0.3149 0.0
C2294 C 0.46172 0.50197 0.41569 0.0
C2295 C 0.47829 0.51614 0.42842 0.0
C2296 C 0.45992 0.50363 0.39103 0.0
C2297 C 0.47463 0.51946 0.37831 0.0
C2298 C 0.49103 0.53396 0.39092 0.0
C2299 C 0.49291 0.53225 0.41581 0.0
H2300 H 0.30236 0.69155 0.07114 0.0
H2301 H 0.27672 0.62329 0.09646 0.0
H2302 H 0.2911 0.70995 0.10884 0.0
H2303 H 0.26434 0.64176 0.13365 0.0
H2304 H 0.2407 0.74152 0.16248 0.0
H2305 H 0.25493 0.72116 0.12694 0.0
H2306 H 0.27443 0.66043 0.16987 0.0
H2307 H 0.25918 0.68032 0.2051 0.0
C2308 C 0.29468 0.68043 0.08496 0.0
C2309 C 0.29034 0.65605 0.0809 0.0
C2310 C 0.28786 0.69101 0.10641 0.0
C2311 C 0.27622 0.67748 0.12408 0.0
C2312 C 0.27331 0.65275 0.12053 0.0
C2313 C 0.28048 0.64212 0.09921 0.0
C2314 C 0.24766 0.72367 0.16423 0.0
C2315 C 0.24874 0.71253 0.18658 0.0
C2316 C 0.25616 0.7121 0.14392 0.0
C2317 C 0.26627 0.68929 0.14557 0.0
C2318 C 0.26663 0.67789 0.16785 0.0
C2319 C 0.25781 0.68931 0.18809 0.0
H2320 H 0.09169 0.54508 0.83776 0.0
H2321 H 0.03894 0.49109 0.81996 0.0
H2322 H 0.0696 0.55526 0.8734 0.0
H2323 H 0.01591 0.50214 0.85507 0.0
H2324 H 0.00624 0.50101 0.93662 0.0
H2325 H 0.01996 0.49599 0.89605 0.0
H2326 H 0.03635 0.57149 0.89225 0.0
H2327 H 0.02369 0.57623 0.93355 0.0
C2328 C 0.075 0.53579 0.8412 0.0
C2329 C 0.06717 0.51707 0.82634 0.0
C2330 C 0.06217 0.54177 0.86157 0.0
C2331 C 0.04101 0.5294 0.86732 0.0
C2332 C 0.03242 0.51167 0.85152 0.0
C2333 C 0.04551 0.50541 0.83134 0.0
C2334 C 0.01246 0.51663 0.92704 0.0
C2335 C 0.01422 0.53895 0.9384 0.0
C2336 C 0.02017 0.51379 0.90362 0.0
C2337 C 0.02949 0.5333 0.89083 0.0
C2338 C 0.0298 0.55597 0.90173 0.0
C2339 C 0.02244 0.55873 0.92535 0.0
H2340 H 0.23022 0.34748 0.59881 0.0
H2341 H 0.25635 0.27777 0.57978 0.0
H2342 H 0.23523 0.33835 0.64068 0.0
H2343 H 0.26046 0.26809 0.6222 0.0
H2344 H 0.21941 0.30548 0.71192 0.0
H2345 H 0.21687 0.31412 0.66983 0.0
H2346 H 0.28351 0.27803 0.658 0.0
H2347 H 0.28565 0.26844 0.7005 0.0
C2348 C 0.2367 0.33 0.60362 0.0
C2349 C 0.24269 0.31322 0.58606 0.0
C2350 C 0.23954 0.32475 0.62766 0.0
C2351 C 0.24809 0.30243 0.6348 0.0
C2352 C 0.25407 0.28555 0.61724 0.0
C2353 C 0.25147 0.29095 0.59301 0.0
C2354 C 0.23369 0.29949 0.70048 0.0
C2355 C 0.25278 0.28629 0.70963 0.0
C2356 C 0.23226 0.30455 0.67627 0.0
C2357 C 0.25002 0.29683 0.66055 0.0
C2358 C 0.26938 0.28396 0.66965 0.0
C2359 C 0.27074 0.27869 0.69401 0.0
H2360 H 0.46047 0.48189 0.19078 0.0
H2361 H 0.43147 0.54645 0.16113 0.0
H2362 H 0.46589 0.46592 0.15055 0.0
H2363 H 0.43721 0.53067 0.12105 0.0
H2364 H 0.42143 0.4882 0.05622 0.0
H2365 H 0.41724 0.49835 0.09822 0.0
H2366 H 0.48782 0.47167 0.11228 0.0
H2367 H 0.49191 0.46112 0.07014 0.0
C2368 C 0.45575 0.49288 0.17566 0.0
C2369 C 0.44538 0.51536 0.17907 0.0
C2370 C 0.45878 0.48368 0.15266 0.0
C2371 C 0.45142 0.49679 0.13271 0.0
C2372 C 0.44242 0.51987 0.13614 0.0
C2373 C 0.43942 0.52905 0.15908 0.0
C2374 C 0.43579 0.48385 0.06838 0.0
C2375 C 0.4571 0.47413 0.05985 0.0
C2376 C 0.43351 0.48995 0.09237 0.0
C2377 C 0.45252 0.48653 0.10833 0.0
C2378 C 0.47295 0.47468 0.10032 0.0
C2379 C 0.47521 0.46847 0.07622 0.0
H2380 H 0.32264 0.67255 0.95047 0.0
H2381 H 0.24745 0.68682 0.95753 0.0
H2382 H 0.322 0.68893 0.91009 0.0
H2383 H 0.24696 0.70358 0.9175 0.0
H2384 H 0.30937 0.72901 0.83805 0.0
H2385 H 0.31334 0.72401 0.88143 0.0
H2386 H 0.25124 0.67772 0.88118 0.0
H2387 H 0.24721 0.68252 0.83858 0.0
C2388 C 0.30619 0.67992 0.94369 0.0
C2389 C 0.28496 0.67797 0.95682 0.0
C2390 C 0.30587 0.68936 0.92065 0.0
C2391 C 0.28433 0.69701 0.9106 0.0
C2392 C 0.2637 0.69733 0.92473 0.0
C2393 C 0.26399 0.68779 0.94762 0.0
C2394 C 0.29663 0.71776 0.84734 0.0
C2395 C 0.27796 0.7062 0.83486 0.0
C2396 C 0.29889 0.71498 0.87208 0.0
C2397 C 0.2823 0.7009 0.88463 0.0
C2398 C 0.26391 0.6892 0.87206 0.0
C2399 C 0.26178 0.69177 0.84753 0.0
H2400 H 0.0581 0.52717 0.71666 0.0
H2401 H 0.08083 0.45498 0.70332 0.0
H2402 H 0.04207 0.52929 0.6761 0.0
H2403 H 0.06506 0.45728 0.66266 0.0
H2404 H 0.0694 0.48855 0.5857 0.0
H2405 H 0.08009 0.48452 0.6277 0.0
H2406 H 0.01017 0.50846 0.64807 0.0
H2407 H -0.00079 0.51225 0.60594 0.0
C2408 C 0.05929 0.51164 0.70518 0.0
C2409 C 0.07081 0.49096 0.71301 0.0
C2410 C 0.0501 0.51286 0.68205 0.0
C2411 C 0.05262 0.49354 0.66631 0.0
C2412 C 0.06316 0.47248 0.67447 0.0
C2413 C 0.07201 0.47112 0.69773 0.0
C2414 C 0.05633 0.49311 0.5991 0.0
C2415 C 0.03348 0.50076 0.59253 0.0
C2416 C 0.06238 0.49056 0.6231 0.0
C2417 C 0.04584 0.49596 0.64098 0.0
C2418 C 0.02318 0.50415 0.63452 0.0
C2419 C 0.01696 0.50632 0.61048 0.0
H2420 H 0.28091 0.3045 0.44513 0.0
H2421 H 0.20519 0.29291 0.45416 0.0
H2422 H 0.276 0.3014 0.40205 0.0
H2423 H 0.20024 0.29021 0.41085 0.0
H2424 H 0.20884 0.27489 0.32796 0.0
H2425 H 0.21088 0.26971 0.37134 0.0
H2426 H 0.25617 0.33233 0.37686 0.0
H2427 H 0.25429 0.3375 0.33395 0.0
C2428 C 0.26332 0.3006 0.43793 0.0
C2429 C 0.24339 0.29933 0.45292 0.0
C2430 C 0.26048 0.29905 0.41328 0.0
C2431 C 0.23763 0.29633 0.40317 0.0
C2432 C 0.21801 0.2925 0.41821 0.0
C2433 C 0.22088 0.29396 0.44298 0.0
C2434 C 0.2188 0.28782 0.33854 0.0
C2435 C 0.23163 0.30646 0.32752 0.0
C2436 C 0.22009 0.28473 0.3633 0.0
C2437 C 0.23428 0.30019 0.37729 0.0
C2438 C 0.24574 0.31968 0.3664 0.0
C2439 C 0.24443 0.32279 0.34183 0.0
H2440 H 0.28054 0.41431 0.53121 0.0
H2441 H 0.3282 0.35501 0.52182 0.0
H2442 H 0.31482 0.44164 0.53387 0.0
H2443 H 0.36231 0.38226 0.52466 0.0
H2444 H 0.38823 0.47792 0.55605 0.0
H2445 H 0.35294 0.45164 0.55892 0.0
H2446 H 0.37524 0.41406 0.49561 0.0
H2447 H 0.40989 0.43978 0.49259 0.0
C2448 C 0.29833 0.40711 0.52997 0.0
C2449 C 0.30176 0.38261 0.52598 0.0
C2450 C 0.31788 0.42271 0.53168 0.0
C2451 C 0.34111 0.41403 0.52928 0.0
C2452 C 0.34452 0.38941 0.52627 0.0
C2453 C 0.32503 0.37383 0.52466 0.0
C2454 C 0.38546 0.46412 0.54272 0.0
C2455 C 0.40198 0.46089 0.52421 0.0
C2456 C 0.36533 0.44913 0.54437 0.0
C2457 C 0.36169 0.43062 0.5277 0.0
C2458 C 0.3779 0.42784 0.50899 0.0
C2459 C 0.39771 0.44278 0.50722 0.0
H2460 H 0.8024 0.05033 0.47554 0.0
H2461 H 0.85735 0.10473 0.47052 0.0
H2462 H 0.83135 0.01999 0.46407 0.0
H2463 H 0.88601 0.07463 0.45885 0.0
H2464 H 0.93489 0.02141 0.43497 0.0
H2465 H 0.89731 0.04225 0.4282 0.0
H2466 H 0.86707 0.00765 0.49001 0.0
H2467 H 0.90458 0.98733 0.49689 0.0
C2468 C 0.82053 0.05582 0.47156 0.0
C2469 C 0.82783 0.07974 0.47432 0.0
C2470 C 0.83698 0.03853 0.46486 0.0
C2471 C 0.8608 0.04502 0.4604 0.0
C2472 C 0.86766 0.06918 0.46177 0.0
C2473 C 0.85136 0.08636 0.46881 0.0
C2474 C 0.91976 0.01739 0.44629 0.0
C2475 C 0.92246 0.00305 0.46654 0.0
C2476 C 0.89837 0.02939 0.44253 0.0
C2477 C 0.8795 0.02678 0.4588 0.0
C2478 C 0.88128 0.0099 0.47714 0.0
C2479 C 0.90273 -0.0017 0.48113 0.0
H2480 H 0.63359 0.03849 0.20939 0.0
H2481 H 0.69399 0.02885 0.25623 0.0
H2482 H 0.65562 0.06909 0.1876 0.0
H2483 H 0.71572 0.06017 0.23518 0.0
H2484 H 0.7536 0.11568 0.19646 0.0
H2485 H 0.73488 0.07611 0.20026 0.0
H2486 H 0.6654 0.10879 0.19853 0.0
H2487 H 0.68415 0.14767 0.19421 0.0
C2488 C 0.65161 0.04295 0.215 0.0
C2489 C 0.66195 0.03176 0.2348 0.0
C2490 C 0.66426 0.06039 0.20247 0.0
C2491 C 0.68736 0.06728 0.20974 0.0
C2492 C 0.69811 0.05513 0.22883 0.0
C2493 C 0.68555 0.03742 0.24115 0.0
C2494 C 0.73435 0.11404 0.19564 0.0
C2495 C 0.72018 0.13444 0.19498 0.0
C2496 C 0.72361 0.09153 0.19817 0.0
C2497 C 0.69865 0.08932 0.20019 0.0
C2498 C 0.68461 0.10967 0.19687 0.0
C2499 C 0.69532 0.13202 0.19438 0.0
H2500 H 0.69121 0.91654 0.96899 0.0
H2501 H 0.64327 0.86388 -0.00089 0.0
H2502 H 0.65719 0.94122 0.95829 0.0
H2503 H 0.60941 0.88853 0.98858 0.0
H2504 H 0.55055 0.93031 0.96052 0.0
H2505 H 0.58613 0.90639 0.95529 0.0
H2506 H 0.62938 0.96391 0.98421 0.0
H2507 H 0.59397 0.98797 0.98926 0.0
C2508 C 0.67339 0.91012 0.97304 0.0
C2509 C 0.66983 0.88846 0.98514 0.0
C2510 C 0.65398 0.92423 0.9669 0.0
C2511 C 0.6307 0.91678 0.97257 0.0
C2512 C 0.62713 0.89457 0.98365 0.0
C2513 C 0.64652 0.88057 0.98993 0.0
C2514 C 0.56771 0.93815 0.96513 0.0
C2515 C 0.56937 0.96082 0.97589 0.0
C2516 C 0.58805 0.92439 0.9622 0.0
C2517 C 0.61039 0.93312 0.96981 0.0
C2518 C 0.61238 0.95671 0.97818 0.0
C2519 C 0.59204 0.97045 0.9812 0.0
H2520 H 0.36028 0.467 0.27052 0.0
H2521 H 0.35147 0.48977 0.19748 0.0
H2522 H 0.32854 0.43757 0.26505 0.0
H2523 H 0.31932 0.46028 0.19204 0.0
H2524 H 0.29281 0.37874 0.19008 0.0
H2525 H 0.31629 0.41577 0.19058 0.0
H2526 H 0.28531 0.43462 0.25844 0.0
H2527 H 0.26238 0.39747 0.25818 0.0
C2528 C 0.35141 0.46583 0.25335 0.0
C2529 C 0.35836 0.48059 0.23442 0.0
C2530 C 0.33305 0.44914 0.25026 0.0
C2531 C 0.32126 0.44681 0.22817 0.0
C2532 C 0.32811 0.4617 0.20924 0.0
C2533 C 0.34645 0.47854 0.21237 0.0
C2534 C 0.29043 0.39122 0.20466 0.0
C2535 C 0.27618 0.38511 0.22431 0.0
C2536 C 0.30388 0.4124 0.20498 0.0
C2537 C 0.30306 0.42773 0.22487 0.0
C2538 C 0.28675 0.4228 0.24319 0.0
C2539 C 0.27353 0.40163 0.24297 0.0
H2540 H 0.19716 0.64101 0.02552 0.0
H2541 H 0.22132 0.56817 0.02819 0.0
H2542 H 0.15632 0.62731 0.03165 0.0
H2543 H 0.18019 0.55432 0.03365 0.0
H2544 H 0.10349 0.54064 0.06073 0.0
H2545 H 0.1452 0.5542 0.06048 0.0
H2546 H 0.12809 0.60622 0.00656 0.0
H2547 H 0.08689 0.59328 0.00711 0.0
C2548 C 0.19371 0.62205 0.02741 0.0
C2549 C 0.21232 0.60562 0.02609 0.0
C2550 C 0.17033 0.61419 0.03087 0.0
C2551 C 0.16502 0.58971 0.03284 0.0
C2552 C 0.18376 0.5733 0.03235 0.0
C2553 C 0.20724 0.58121 0.02905 0.0
C2554 C 0.10869 0.55503 0.04893 0.0
C2555 C 0.09182 0.56591 0.03403 0.0
C2556 C 0.13255 0.56271 0.04873 0.0
C2557 C 0.13986 0.58142 0.03367 0.0
C2558 C 0.12296 0.59213 0.01876 0.0
C2559 C 0.09929 0.58454 0.01898 0.0
H2560 H 0.62309 0.90837 0.31824 0.0
H2561 H 0.69074 0.92977 0.28807 0.0
H2562 H 0.64035 0.87084 0.33115 0.0
H2563 H 0.70781 0.89185 0.30011 0.0
H2564 H 0.735 0.82155 0.3221 0.0
H2565 H 0.71966 0.86177 0.32944 0.0
H2566 H 0.64988 0.83819 0.30539 0.0
H2567 H 0.66506 0.79858 0.29845 0.0
C2568 C 0.64174 0.90513 0.31462 0.0
C2569 C 0.65547 0.92162 0.30166 0.0
C2570 C 0.65164 0.8837 0.32207 0.0
C2571 C 0.67531 0.87819 0.31628 0.0
C2572 C 0.68957 0.89558 0.30501 0.0
C2573 C 0.67973 0.9172 0.29786 0.0
C2574 C 0.71623 0.82494 0.31923 0.0
C2575 C 0.70122 0.80723 0.30942 0.0
C2576 C 0.7075 0.84792 0.32325 0.0
C2577 C 0.68362 0.85324 0.31778 0.0
C2578 C 0.66827 0.83476 0.31005 0.0
C2579 C 0.67701 0.81206 0.30584 0.0
H2580 H 0.83645 0.08745 0.74639 0.0
H2581 H 0.88927 0.10676 0.79961 0.0
H2582 H 0.81523 0.12403 0.75451 0.0
H2583 H 0.86769 0.14369 0.80792 0.0
H2584 H 0.76902 0.17777 0.78458 0.0
H2585 H 0.79165 0.1411 0.7874 0.0
H2586 H 0.85742 0.18198 0.7867 0.0
H2587 H 0.83468 0.21886 0.78443 0.0
C2588 C 0.84355 0.09956 0.75983 0.0
C2589 C 0.8645 0.09427 0.77237 0.0
C2590 C 0.83123 0.1204 0.76468 0.0
C2591 C 0.83958 0.13649 0.78217 0.0
C2592 C 0.86084 0.13152 0.79443 0.0
C2593 C 0.87316 0.11047 0.78964 0.0
C2594 C 0.78829 0.17897 0.78572 0.0
C2595 C 0.80013 0.20108 0.78385 0.0
C2596 C 0.80124 0.15799 0.7872 0.0
C2597 C 0.82627 0.15871 0.78658 0.0
C2598 C 0.83813 0.18093 0.78713 0.0
C2599 C 0.82511 0.20203 0.78586 0.0
loop_
_geom_bond_atom_site_label_1
_geom_bond_atom_site_label_2
_geom_bond_distance
_geom_bond_site_symmetry_2
_ccdc_geom_bond_type
In0 O1 2.294 . S
In0 O2 2.326 . S
In0 O6 2.266 . S
In0 O7 2.326 . S
In0 O8 2.266 . S
In0 O9 2.326 . S
In0 O11 2.294 1_455 S
In0 O12 2.326 1_455 S
O1 In0 2.294 . S
O1 C10 1.240 . S
O2 In0 2.326 . S
O2 C10 1.252 . S
C3 O6 1.252 . S
C3 O7 1.260 . S
C4 O11 1.240 . S
C4 O12 1.252 . S
C5 O8 1.252 . S
C5 O9 1.260 . S
O6 In0 2.266 . S
O6 C3 1.252 . S
O7 In0 2.326 . S
O7 C3 1.260 . S
O8 In0 2.266 . S
O8 C5 1.252 . S
O9 In0 2.326 . S
O9 C5 1.260 . S
C10 O1 1.240 . S
C10 O2 1.252 . S
O11 In0 2.294 1_655 S
O11 C4 1.240 . S
O12 In0 2.326 1_655 S
O12 C4 1.252 . S
In13 O14 2.294 . S
In13 O15 2.326 . S
In13 O19 2.266 1_455 S
In13 O20 2.326 1_455 S
In13 O21 2.266 . S
In13 O22 2.326 . S
In13 O24 2.294 . S
In13 O25 2.326 . S
O14 In13 2.294 . S
O14 C23 1.240 . S
O15 In13 2.326 . S
O15 C23 1.252 . S
C16 O19 1.252 . S
C16 O20 1.260 . S
C17 O24 1.240 . S
C17 O25 1.252 . S
C18 O21 1.252 . S
C18 O22 1.260 . S
O19 In13 2.266 1_655 S
O19 C16 1.252 . S
O20 In13 2.326 1_655 S
O20 C16 1.260 . S
O21 In13 2.266 . S
O21 C18 1.252 . S
O22 In13 2.326 . S
O22 C18 1.260 . S
C23 O14 1.240 . S
C23 O15 1.252 . S
O24 In13 2.294 . S
O24 C17 1.240 . S
O25 In13 2.326 . S
O25 C17 1.252 . S
In26 O27 2.294 . S
In26 O28 2.326 . S
In26 O32 2.266 . S
In26 O33 2.326 . S
In26 O34 2.266 . S
In26 O35 2.326 . S
In26 O37 2.294 . S
In26 O38 2.326 . S
O27 In26 2.294 . S
O27 C36 1.240 . S
O28 In26 2.326 . S
O28 C36 1.252 . S
C29 O32 1.252 . S
C29 O33 1.260 . S
C30 O37 1.240 . S
C30 O38 1.252 . S
C31 O34 1.252 . S
C31 O35 1.260 . S
O32 In26 2.266 . S
O32 C29 1.252 . S
O33 In26 2.326 . S
O33 C29 1.260 . S
O34 In26 2.266 . S
O34 C31 1.252 . S
O35 In26 2.326 . S
O35 C31 1.260 . S
C36 O27 1.240 . S
C36 O28 1.252 . S
O37 In26 2.294 . S
O37 C30 1.240 . S
O38 In26 2.326 . S
O38 C30 1.252 . S
In39 O40 2.294 . S
In39 O41 2.326 . S
In39 O45 2.266 . S
In39 O46 2.326 . S
In39 O47 2.266 . S
In39 O48 2.326 . S
In39 O50 2.294 . S
In39 O51 2.326 . S
O40 In39 2.294 . S
O40 C49 1.240 . S
O41 In39 2.326 . S
O41 C49 1.252 . S
C42 O45 1.252 . S
C42 O46 1.260 . S
C43 O50 1.240 . S
C43 O51 1.252 . S
C44 O47 1.252 . S
C44 O48 1.260 . S
O45 In39 2.266 . S
O45 C42 1.252 . S
O46 In39 2.326 . S
O46 C42 1.260 . S
O47 In39 2.266 . S
O47 C44 1.252 . S
O48 In39 2.326 . S
O48 C44 1.260 . S
C49 O40 1.240 . S
C49 O41 1.252 . S
O50 In39 2.294 . S
O50 C43 1.240 . S
O51 In39 2.326 . S
O51 C43 1.252 . S
In52 O53 2.294 1_545 S
In52 O54 2.326 1_545 S
In52 O58 2.266 . S
In52 O59 2.326 . S
In52 O60 2.266 . S
In52 O61 2.326 . S
In52 O63 2.294 . S
In52 O64 2.326 . S
O53 In52 2.294 1_565 S
O53 C62 1.240 . S
O54 In52 2.326 1_565 S
O54 C62 1.252 . S
C55 O58 1.252 . S
C55 O59 1.260 . S
C56 O63 1.240 . S
C56 O64 1.252 . S
C57 O60 1.252 . S
C57 O61 1.260 . S
O58 In52 2.266 . S
O58 C55 1.252 . S
O59 In52 2.326 . S
O59 C55 1.260 . S
O60 In52 2.266 . S
O60 C57 1.252 . S
O61 In52 2.326 . S
O61 C57 1.260 . S
C62 O53 1.240 . S
C62 O54 1.252 . S
O63 In52 2.294 . S
O63 C56 1.240 . S
O64 In52 2.326 . S
O64 C56 1.252 . S
In65 O66 2.294 . S
In65 O67 2.326 . S
In65 O71 2.266 . S
In65 O72 2.326 . S
In65 O73 2.266 . S
In65 O74 2.326 . S
In65 O76 2.294 . S
In65 O77 2.326 . S
O66 In65 2.294 . S
O66 C75 1.240 . S
O67 In65 2.326 . S
O67 C75 1.252 . S
C68 O71 1.252 . S
C68 O72 1.260 . S
C69 O76 1.240 . S
C69 O77 1.252 . S
C70 O73 1.252 . S
C70 O74 1.260 . S
O71 In65 2.266 . S
O71 C68 1.252 . S
O72 In65 2.326 . S
O72 C68 1.260 . S
O73 In65 2.266 . S
O73 C70 1.252 . S
O74 In65 2.326 . S
O74 C70 1.260 . S
C75 O66 1.240 . S
C75 O67 1.252 . S
O76 In65 2.294 . S
O76 C69 1.240 . S
O77 In65 2.326 . S
O77 C69 1.252 . S
In78 O79 2.294 . S
In78 O80 2.326 . S
In78 O84 2.266 1_545 S
In78 O85 2.326 1_545 S
In78 O86 2.266 1_545 S
In78 O87 2.326 1_545 S
In78 O89 2.294 . S
In78 O90 2.326 . S
O79 In78 2.294 . S
O79 C88 1.240 . S
O80 In78 2.326 . S
O80 C88 1.252 . S
C81 O84 1.252 . S
C81 O85 1.260 . S
C82 O89 1.240 . S
C82 O90 1.252 . S
C83 O86 1.252 . S
C83 O87 1.260 . S
O84 In78 2.266 1_565 S
O84 C81 1.252 . S
O85 In78 2.326 1_565 S
O85 C81 1.260 . S
O86 In78 2.266 1_565 S
O86 C83 1.252 . S
O87 In78 2.326 1_565 S
O87 C83 1.260 . S
C88 O79 1.240 . S
C88 O80 1.252 . S
O89 In78 2.294 . S
O89 C82 1.240 . S
O90 In78 2.326 . S
O90 C82 1.252 . S
In91 O92 2.294 . S
In91 O93 2.326 . S
In91 O97 2.266 . S
In91 O98 2.326 . S
In91 O99 2.266 1_554 S
In91 O100 2.326 1_554 S
In91 O102 2.294 . S
In91 O103 2.326 . S
O92 In91 2.294 . S
O92 C101 1.240 . S
O93 In91 2.326 . S
O93 C101 1.252 . S
C94 O97 1.252 . S
C94 O98 1.260 . S
C95 O102 1.240 . S
C95 O103 1.252 . S
C96 O99 1.252 . S
C96 O100 1.260 . S
O97 In91 2.266 . S
O97 C94 1.252 . S
O98 In91 2.326 . S
O98 C94 1.260 . S
O99 In91 2.266 1_556 S
O99 C96 1.252 . S
O100 In91 2.326 1_556 S
O100 C96 1.260 . S
C101 O92 1.240 . S
C101 O93 1.252 . S
O102 In91 2.294 . S
O102 C95 1.240 . S
O103 In91 2.326 . S
O103 C95 1.252 . S
In104 O105 2.294 . S
In104 O106 2.326 . S
In104 O110 2.266 1_554 S
In104 O111 2.326 1_554 S
In104 O112 2.266 . S
In104 O113 2.326 . S
In104 O115 2.294 . S
In104 O116 2.326 . S
O105 In104 2.294 . S
O105 C114 1.240 . S
O106 In104 2.326 . S
O106 C114 1.252 . S
C107 O110 1.252 . S
C107 O111 1.260 . S
C108 O115 1.240 . S
C108 O116 1.252 . S
C109 O112 1.252 . S
C109 O113 1.260 . S
O110 In104 2.266 1_556 S
O110 C107 1.252 . S
O111 In104 2.326 1_556 S
O111 C107 1.260 . S
O112 In104 2.266 . S
O112 C109 1.252 . S
O113 In104 2.326 . S
O113 C109 1.260 . S
C114 O105 1.240 . S
C114 O106 1.252 . S
O115 In104 2.294 . S
O115 C108 1.240 . S
O116 In104 2.326 . S
O116 C108 1.252 . S
In117 O118 2.294 . S
In117 O119 2.326 . S
In117 O123 2.266 . S
In117 O124 2.326 . S
In117 O125 2.266 . S
In117 O126 2.326 . S
In117 O128 2.294 . S
In117 O129 2.326 . S
O118 In117 2.294 . S
O118 C127 1.240 . S
O119 In117 2.326 . S
O119 C127 1.252 . S
C120 O123 1.252 . S
C120 O124 1.260 . S
C121 O128 1.240 . S
C121 O129 1.252 . S
C122 O125 1.252 . S
C122 O126 1.260 . S
O123 In117 2.266 . S
O123 C120 1.252 . S
O124 In117 2.326 . S
O124 C120 1.260 . S
O125 In117 2.266 . S
O125 C122 1.252 . S
O126 In117 2.326 . S
O126 C122 1.260 . S
C127 O118 1.240 . S
C127 O119 1.252 . S
O128 In117 2.294 . S
O128 C121 1.240 . S
O129 In117 2.326 . S
O129 C121 1.252 . S
In130 O131 2.294 . S
In130 O132 2.326 . S
In130 O136 2.266 . S
In130 O137 2.326 . S
In130 O138 2.266 . S
In130 O139 2.326 . S
In130 O141 2.294 . S
In130 O142 2.326 . S
O131 In130 2.294 . S
O131 C140 1.240 . S
O132 In130 2.326 . S
O132 C140 1.252 . S
C133 O136 1.252 . S
C133 O137 1.260 . S
C134 O141 1.240 . S
C134 O142 1.252 . S
C135 O138 1.252 . S
C135 O139 1.260 . S
O136 In130 2.266 . S
O136 C133 1.252 . S
O137 In130 2.326 . S
O137 C133 1.260 . S
O138 In130 2.266 . S
O138 C135 1.252 . S
O139 In130 2.326 . S
O139 C135 1.260 . S
C140 O131 1.240 . S
C140 O132 1.252 . S
O141 In130 2.294 . S
O141 C134 1.240 . S
O142 In130 2.326 . S
O142 C134 1.252 . S
In143 O144 2.294 . S
In143 O145 2.326 . S
In143 O149 2.266 . S
In143 O150 2.326 . S
In143 O151 2.266 . S
In143 O152 2.326 . S
In143 O154 2.294 . S
In143 O155 2.326 . S
O144 In143 2.294 . S
O144 C153 1.240 . S
O145 In143 2.326 . S
O145 C153 1.252 . S
C146 O149 1.252 . S
C146 O150 1.260 . S
C147 O154 1.240 . S
C147 O155 1.252 . S
C148 O151 1.252 . S
C148 O152 1.260 . S
O149 In143 2.266 . S
O149 C146 1.252 . S
O150 In143 2.326 . S
O150 C146 1.260 . S
O151 In143 2.266 . S
O151 C148 1.252 . S
O152 In143 2.326 . S
O152 C148 1.260 . S
C153 O144 1.240 . S
C153 O145 1.252 . S
O154 In143 2.294 . S
O154 C147 1.240 . S
O155 In143 2.326 . S
O155 C147 1.252 . S
In156 O157 2.294 . S
In156 O158 2.326 . S
In156 O162 2.266 1_455 S
In156 O163 2.326 1_455 S
In156 O164 2.266 . S
In156 O165 2.326 . S
In156 O167 2.294 . S
In156 O168 2.326 . S
O157 In156 2.294 . S
O157 C166 1.240 . S
O158 In156 2.326 . S
O158 C166 1.252 . S
C159 O162 1.252 . S
C159 O163 1.260 . S
C160 O167 1.240 . S
C160 O168 1.252 . S
C161 O164 1.252 . S
C161 O165 1.260 . S
O162 In156 2.266 1_655 S
O162 C159 1.252 . S
O163 In156 2.326 1_655 S
O163 C159 1.260 . S
O164 In156 2.266 . S
O164 C161 1.252 . S
O165 In156 2.326 . S
O165 C161 1.260 . S
C166 O157 1.240 . S
C166 O158 1.252 . S
O167 In156 2.294 . S
O167 C160 1.240 . S
O168 In156 2.326 . S
O168 C160 1.252 . S
In169 O170 2.294 . S
In169 O171 2.326 . S
In169 O175 2.266 . S
In169 O176 2.326 . S
In169 O177 2.266 1_455 S
In169 O178 2.326 1_455 S
In169 O180 2.294 . S
In169 O181 2.326 . S
O170 In169 2.294 . S
O170 C179 1.240 . S
O171 In169 2.326 . S
O171 C179 1.252 . S
C172 O175 1.252 . S
C172 O176 1.260 . S
C173 O180 1.240 . S
C173 O181 1.252 . S
C174 O177 1.252 . S
C174 O178 1.260 . S
O175 In169 2.266 . S
O175 C172 1.252 . S
O176 In169 2.326 . S
O176 C172 1.260 . S
O177 In169 2.266 1_655 S
O177 C174 1.252 . S
O178 In169 2.326 1_655 S
O178 C174 1.260 . S
C179 O170 1.240 . S
C179 O171 1.252 . S
O180 In169 2.294 . S
O180 C173 1.240 . S
O181 In169 2.326 . S
O181 C173 1.252 . S
In182 O183 2.294 . S
In182 O184 2.326 . S
In182 O188 2.266 . S
In182 O189 2.326 . S
In182 O190 2.266 . S
In182 O191 2.326 . S
In182 O193 2.294 . S
In182 O194 2.326 . S
O183 In182 2.294 . S
O183 C192 1.240 . S
O184 In182 2.326 . S
O184 C192 1.252 . S
C185 O188 1.252 . S
C185 O189 1.260 . S
C186 O193 1.240 . S
C186 O194 1.252 . S
C187 O190 1.252 . S
C187 O191 1.260 . S
O188 In182 2.266 . S
O188 C185 1.252 . S
O189 In182 2.326 . S
O189 C185 1.260 . S
O190 In182 2.266 . S
O190 C187 1.252 . S
O191 In182 2.326 . S
O191 C187 1.260 . S
C192 O183 1.240 . S
C192 O184 1.252 . S
O193 In182 2.294 . S
O193 C186 1.240 . S
O194 In182 2.326 . S
O194 C186 1.252 . S
In195 O196 2.294 . S
In195 O197 2.326 . S
In195 O201 2.266 . S
In195 O202 2.326 . S
In195 O203 2.266 . S
In195 O204 2.326 . S
In195 O206 2.294 . S
In195 O207 2.326 . S
O196 In195 2.294 . S
O196 C205 1.240 . S
O197 In195 2.326 . S
O197 C205 1.252 . S
C198 O201 1.252 . S
C198 O202 1.260 . S
C199 O206 1.240 . S
C199 O207 1.252 . S
C200 O203 1.252 . S
C200 O204 1.260 . S
O201 In195 2.266 . S
O201 C198 1.252 . S
O202 In195 2.326 . S
O202 C198 1.260 . S
O203 In195 2.266 . S
O203 C200 1.252 . S
O204 In195 2.326 . S
O204 C200 1.260 . S
C205 O196 1.240 . S
C205 O197 1.252 . S
O206 In195 2.294 . S
O206 C199 1.240 . S
O207 In195 2.326 . S
O207 C199 1.252 . S
In208 O209 2.294 . S
In208 O210 2.326 . S
In208 O214 2.266 . S
In208 O215 2.326 . S
In208 O216 2.266 1_545 S
In208 O217 2.326 1_545 S
In208 O219 2.294 . S
In208 O220 2.326 . S
O209 In208 2.294 . S
O209 C218 1.240 . S
O210 In208 2.326 . S
O210 C218 1.252 . S
C211 O214 1.252 . S
C211 O215 1.260 . S
C212 O219 1.240 . S
C212 O220 1.252 . S
C213 O216 1.252 . S
C213 O217 1.260 . S
O214 In208 2.266 . S
O214 C211 1.252 . S
O215 In208 2.326 . S
O215 C211 1.260 . S
O216 In208 2.266 1_565 S
O216 C213 1.252 . S
O217 In208 2.326 1_565 S
O217 C213 1.260 . S
C218 O209 1.240 . S
C218 O210 1.252 . S
O219 In208 2.294 . S
O219 C212 1.240 . S
O220 In208 2.326 . S
O220 C212 1.252 . S
In221 O222 2.294 . S
In221 O223 2.326 . S
In221 O227 2.266 . S
In221 O228 2.326 . S
In221 O229 2.266 . S
In221 O230 2.326 . S
In221 O232 2.294 . S
In221 O233 2.326 . S
O222 In221 2.294 . S
O222 C231 1.240 . S
O223 In221 2.326 . S
O223 C231 1.252 . S
C224 O227 1.252 . S
C224 O228 1.260 . S
C225 O232 1.240 . S
C225 O233 1.252 . S
C226 O229 1.252 . S
C226 O230 1.260 . S
O227 In221 2.266 . S
O227 C224 1.252 . S
O228 In221 2.326 . S
O228 C224 1.260 . S
O229 In221 2.266 . S
O229 C226 1.252 . S
O230 In221 2.326 . S
O230 C226 1.260 . S
C231 O222 1.240 . S
C231 O223 1.252 . S
O232 In221 2.294 . S
O232 C225 1.240 . S
O233 In221 2.326 . S
O233 C225 1.252 . S
In234 O235 2.264 1_545 S
In234 O236 2.280 1_545 S
In234 O240 2.296 . S
In234 O241 2.371 . S
In234 O242 2.273 . S
In234 O243 2.329 . S
In234 O245 2.289 1_545 S
In234 O246 2.322 1_545 S
O235 In234 2.264 1_565 S
O235 C244 1.240 . S
O236 In234 2.280 1_565 S
O236 C244 1.252 . S
C237 O240 1.252 . S
C237 O241 1.260 . S
C238 O245 1.240 . S
C238 O246 1.252 . S
C239 O242 1.252 . S
C239 O243 1.260 . S
O240 In234 2.296 . S
O240 C237 1.252 . S
O241 In234 2.371 . S
O241 C237 1.260 . S
O242 In234 2.273 . S
O242 C239 1.252 . S
O243 In234 2.329 . S
O243 C239 1.260 . S
C244 O235 1.240 . S
C244 O236 1.252 . S
O245 In234 2.289 1_565 S
O245 C238 1.240 . S
O246 In234 2.322 1_565 S
O246 C238 1.252 . S
In247 O248 2.294 . S
In247 O249 2.326 . S
In247 O253 2.266 . S
In247 O254 2.326 . S
In247 O255 2.266 1_554 S
In247 O256 2.326 1_554 S
In247 O258 2.294 . S
In247 O259 2.326 . S
O248 In247 2.294 . S
O248 C257 1.240 . S
O249 In247 2.326 . S
O249 C257 1.252 . S
C250 O253 1.252 . S
C250 O254 1.260 . S
C251 O258 1.240 . S
C251 O259 1.252 . S
C252 O255 1.252 . S
C252 O256 1.260 . S
O253 In247 2.266 . S
O253 C250 1.252 . S
O254 In247 2.326 . S
O254 C250 1.260 . S
O255 In247 2.266 1_556 S
O255 C252 1.252 . S
O256 In247 2.326 1_556 S
O256 C252 1.260 . S
C257 O248 1.240 . S
C257 O249 1.252 . S
O258 In247 2.294 . S
O258 C251 1.240 . S
O259 In247 2.326 . S
O259 C251 1.252 . S
In260 O261 2.294 . S
In260 O262 2.326 . S
In260 O266 2.266 1_554 S
In260 O267 2.326 1_554 S
In260 O268 2.268 . S
In260 O269 2.326 . S
In260 O271 2.294 . S
In260 O272 2.326 . S
O261 In260 2.294 . S
O261 C270 1.240 . S
O262 In260 2.326 . S
O262 C270 1.252 . S
C263 O266 1.252 . S
C263 O267 1.260 . S
C264 O271 1.240 . S
C264 O272 1.252 . S
C265 O268 1.252 . S
C265 O269 1.263 . S
O266 In260 2.266 1_556 S
O266 C263 1.252 . S
O267 In260 2.326 1_556 S
O267 C263 1.260 . S
O268 In260 2.268 . S
O268 C265 1.252 . S
O269 In260 2.326 . S
O269 C265 1.263 . S
C270 O261 1.240 . S
C270 O262 1.252 . S
O271 In260 2.294 . S
O271 C264 1.240 . S
O272 In260 2.326 . S
O272 C264 1.252 . S
In273 O274 2.294 . S
In273 O275 2.326 . S
In273 O279 2.266 . S
In273 O280 2.326 . S
In273 O281 2.266 . S
In273 O282 2.326 . S
In273 O284 2.294 . S
In273 O285 2.326 . S
O274 In273 2.294 . S
O274 C283 1.240 . S
O275 In273 2.326 . S
O275 C283 1.252 . S
C276 O279 1.252 . S
C276 O280 1.260 . S
C277 O284 1.240 . S
C277 O285 1.252 . S
C278 O281 1.252 . S
C278 O282 1.260 . S
O279 In273 2.266 . S
O279 C276 1.252 . S
O280 In273 2.326 . S
O280 C276 1.260 . S
O281 In273 2.266 . S
O281 C278 1.252 . S
O282 In273 2.326 . S
O282 C278 1.260 . S
C283 O274 1.240 . S
C283 O275 1.252 . S
O284 In273 2.294 . S
O284 C277 1.240 . S
O285 In273 2.326 . S
O285 C277 1.252 . S
In286 O287 2.294 . S
In286 O288 2.326 . S
In286 O292 2.266 . S
In286 O293 2.326 . S
In286 O294 2.266 . S
In286 O295 2.326 . S
In286 O297 2.294 . S
In286 O298 2.326 . S
O287 In286 2.294 . S
O287 C296 1.240 . S
O288 In286 2.326 . S
O288 C296 1.252 . S
C289 O292 1.252 . S
C289 O293 1.260 . S
C290 O297 1.240 . S
C290 O298 1.252 . S
C291 O294 1.252 . S
C291 O295 1.260 . S
O292 In286 2.266 . S
O292 C289 1.252 . S
O293 In286 2.326 . S
O293 C289 1.260 . S
O294 In286 2.266 . S
O294 C291 1.252 . S
O295 In286 2.326 . S
O295 C291 1.260 . S
C296 O287 1.240 . S
C296 O288 1.252 . S
O297 In286 2.294 . S
O297 C290 1.240 . S
O298 In286 2.326 . S
O298 C290 1.252 . S
In299 O300 2.294 . S
In299 O301 2.326 . S
In299 O305 2.266 . S
In299 O306 2.326 . S
In299 O307 2.266 . S
In299 O308 2.326 . S
In299 O310 2.294 . S
In299 O311 2.326 . S
O300 In299 2.294 . S
O300 C309 1.240 . S
O301 In299 2.326 . S
O301 C309 1.252 . S
C302 O305 1.252 . S
C302 O306 1.260 . S
C303 O310 1.240 . S
C303 O311 1.252 . S
C304 O307 1.252 . S
C304 O308 1.260 . S
O305 In299 2.266 . S
O305 C302 1.252 . S
O306 In299 2.326 . S
O306 C302 1.260 . S
O307 In299 2.266 . S
O307 C304 1.252 . S
O308 In299 2.326 . S
O308 C304 1.260 . S
C309 O300 1.240 . S
C309 O301 1.252 . S
O310 In299 2.294 . S
O310 C303 1.240 . S
O311 In299 2.326 . S
O311 C303 1.252 . S
O312 Zn313 1.953 . S
O312 C328 1.225 1_455 S
Zn313 O312 1.953 . S
Zn313 O314 1.955 . S
Zn313 O320 1.919 1_554 S
Zn313 O325 1.924 1_454 S
O314 Zn313 1.955 . S
O314 Zn315 1.937 1_545 S
O314 Zn316 1.939 1_455 S
O314 Zn317 1.936 1_444 S
Zn315 O314 1.937 1_565 S
Zn315 O318 1.933 . S
Zn315 O321 1.941 1_565 S
Zn315 O322 1.965 . S
Zn316 O314 1.939 1_655 S
Zn316 O323 1.938 . S
Zn316 O324 1.906 1_545 S
Zn316 O334 1.953 . S
Zn317 O314 1.936 1_666 S
Zn317 O319 1.932 . S
Zn317 O326 1.977 1_556 S
Zn317 O327 1.910 1_565 S
O318 Zn315 1.933 . S
O318 C329 1.226 1_554 S
O319 Zn317 1.932 . S
O319 C329 1.307 1_655 S
O320 Zn313 1.919 1_556 S
O320 C331 1.253 1_556 S
O321 Zn315 1.941 1_545 S
O321 C331 1.283 . S
O322 Zn315 1.965 . S
O322 C330 1.303 . S
O323 Zn316 1.938 . S
O323 C330 1.247 1_645 S
O324 Zn316 1.906 1_565 S
O324 C332 1.304 . S
O325 Zn313 1.924 1_656 S
O325 C333 1.311 . S
O326 Zn317 1.977 1_554 S
O326 C332 1.272 . S
O327 Zn317 1.910 1_545 S
O327 C333 1.231 . S
C328 O312 1.225 1_655 S
C328 O334 1.298 . S
C329 O318 1.226 1_556 S
C329 O319 1.307 1_455 S
C330 O322 1.303 . S
C330 O323 1.247 1_465 S
C331 O320 1.253 1_554 S
C331 O321 1.283 . S
C332 O324 1.304 . S
C332 O326 1.272 . S
C333 O325 1.311 . S
C333 O327 1.231 . S
O334 Zn316 1.953 . S
O334 C328 1.298 . S
O335 Zn336 1.953 . S
O335 C351 1.225 . S
Zn336 O335 1.953 . S
Zn336 O337 1.949 . S
Zn336 O343 1.919 . S
Zn336 O348 1.924 . S
O337 Zn336 1.949 . S
O337 Zn338 1.923 . S
O337 Zn339 1.950 . S
O337 Zn340 1.945 . S
Zn338 O337 1.923 . S
Zn338 O341 1.933 . S
Zn338 O344 1.941 . S
Zn338 O345 1.965 . S
Zn339 O337 1.950 . S
Zn339 O346 1.938 . S
Zn339 O347 1.906 . S
Zn339 O357 1.953 . S
Zn340 O337 1.945 . S
Zn340 O342 1.932 . S
Zn340 O349 1.977 . S
Zn340 O350 1.910 . S
O341 Zn338 1.933 . S
O341 C352 1.226 . S
O342 Zn340 1.932 . S
O342 C352 1.307 . S
O343 Zn336 1.919 . S
O343 C354 1.253 . S
O344 Zn338 1.941 . S
O344 C354 1.283 . S
O345 Zn338 1.965 . S
O345 C353 1.303 . S
O346 Zn339 1.938 . S
O346 C353 1.247 . S
O347 Zn339 1.906 . S
O347 C355 1.304 . S
O348 Zn336 1.924 . S
O348 C356 1.311 . S
O349 Zn340 1.977 . S
O349 C355 1.272 . S
O350 Zn340 1.910 . S
O350 C356 1.231 . S
C351 O335 1.225 . S
C351 O357 1.298 . S
C352 O341 1.226 . S
C352 O342 1.307 . S
C353 O345 1.303 . S
C353 O346 1.247 . S
C354 O343 1.253 . S
C354 O344 1.283 . S
C355 O347 1.304 . S
C355 O349 1.272 . S
C356 O348 1.311 . S
C356 O350 1.231 . S
O357 Zn339 1.953 . S
O357 C351 1.298 . S
O358 Zn359 1.953 . S
O358 C374 1.225 . S
Zn359 O358 1.953 . S
Zn359 O360 1.949 1_565 S
Zn359 O366 1.919 . S
Zn359 O371 1.924 . S
O360 Zn359 1.949 1_545 S
O360 Zn361 1.923 . S
O360 Zn362 1.950 . S
O360 Zn363 1.945 . S
Zn361 O360 1.923 . S
Zn361 O364 1.933 . S
Zn361 O367 1.941 . S
Zn361 O368 1.965 . S
Zn362 O360 1.950 . S
Zn362 O369 1.938 . S
Zn362 O370 1.906 . S
Zn362 O380 1.953 1_545 S
Zn363 O360 1.945 . S
Zn363 O365 1.932 . S
Zn363 O372 1.977 . S
Zn363 O373 1.910 . S
O364 Zn361 1.933 . S
O364 C375 1.226 . S
O365 Zn363 1.932 . S
O365 C375 1.307 . S
O366 Zn359 1.919 . S
O366 C377 1.253 1_565 S
O367 Zn361 1.941 . S
O367 C377 1.283 . S
O368 Zn361 1.965 . S
O368 C376 1.303 . S
O369 Zn362 1.938 . S
O369 C376 1.247 . S
O370 Zn362 1.906 . S
O370 C378 1.304 . S
O371 Zn359 1.924 . S
O371 C379 1.311 . S
O372 Zn363 1.977 . S
O372 C378 1.272 . S
O373 Zn363 1.910 . S
O373 C379 1.231 1_545 S
C374 O358 1.225 . S
C374 O380 1.298 . S
C375 O364 1.226 . S
C375 O365 1.307 . S
C376 O368 1.303 . S
C376 O369 1.247 . S
C377 O366 1.253 1_545 S
C377 O367 1.283 . S
C378 O370 1.304 . S
C378 O372 1.272 . S
C379 O371 1.311 . S
C379 O373 1.231 1_565 S
O380 Zn362 1.953 1_565 S
O380 C374 1.298 . S
O381 Zn382 1.953 . S
O381 C397 1.225 . S
Zn382 O381 1.953 . S
Zn382 O383 1.949 . S
Zn382 O389 1.919 . S
Zn382 O394 1.924 . S
O383 Zn382 1.949 . S
O383 Zn384 1.923 . S
O383 Zn385 1.950 . S
O383 Zn386 1.945 . S
Zn384 O383 1.923 . S
Zn384 O387 1.933 . S
Zn384 O390 1.941 . S
Zn384 O391 1.965 . S
Zn385 O383 1.950 . S
Zn385 O392 1.938 . S
Zn385 O393 1.906 . S
Zn385 O403 1.953 . S
Zn386 O383 1.945 . S
Zn386 O388 1.932 . S
Zn386 O395 1.977 . S
Zn386 O396 1.910 . S
O387 Zn384 1.933 . S
O387 C398 1.226 . S
O388 Zn386 1.932 . S
O388 C398 1.307 . S
O389 Zn382 1.919 . S
O389 C400 1.253 . S
O390 Zn384 1.941 . S
O390 C400 1.283 . S
O391 Zn384 1.965 . S
O391 C399 1.303 . S
O392 Zn385 1.938 . S
O392 C399 1.247 . S
O393 Zn385 1.906 . S
O393 C401 1.304 . S
O394 Zn382 1.924 . S
O394 C402 1.311 . S
O395 Zn386 1.977 . S
O395 C401 1.272 . S
O396 Zn386 1.910 . S
O396 C402 1.231 . S
C397 O381 1.225 . S
C397 O403 1.298 . S
C398 O387 1.226 . S
C398 O388 1.307 . S
C399 O391 1.303 . S
C399 O392 1.247 . S
C400 O389 1.253 . S
C400 O390 1.283 . S
C401 O393 1.304 . S
C401 O395 1.272 . S
C402 O394 1.311 . S
C402 O396 1.231 . S
O403 Zn385 1.953 . S
O403 C397 1.298 . S
O404 Zn405 1.953 1_455 S
O404 C420 1.225 . S
Zn405 O404 1.953 1_655 S
Zn405 O406 1.949 1_655 S
Zn405 O412 1.919 1_545 S
Zn405 O417 1.924 . S
O406 Zn405 1.949 1_455 S
O406 Zn407 1.923 1_545 S
O406 Zn408 1.950 . S
O406 Zn409 1.945 1_455 S
Zn407 O406 1.923 1_565 S
Zn407 O410 1.933 . S
Zn407 O413 1.941 . S
Zn407 O414 1.965 . S
Zn408 O406 1.950 . S
Zn408 O415 1.938 . S
Zn408 O416 1.906 . S
Zn408 O426 1.953 . S
Zn409 O406 1.945 1_655 S
Zn409 O411 1.932 . S
Zn409 O418 1.987 . S
Zn409 O419 1.910 . S
O410 Zn407 1.933 . S
O410 C421 1.226 1_465 S
O411 Zn409 1.932 . S
O411 C421 1.307 . S
O412 Zn405 1.919 1_565 S
O412 C423 1.253 . S
O413 Zn407 1.941 . S
O413 C423 1.283 1_455 S
O414 Zn407 1.965 . S
O414 C422 1.303 1_565 S
O415 Zn408 1.938 . S
O415 C422 1.247 . S
O416 Zn408 1.906 . S
O416 C424 1.304 . S
O417 Zn405 1.924 . S
O417 C425 1.311 . S
O418 Zn409 1.987 . S
O418 C424 1.248 1_655 S
O419 Zn409 1.910 . S
O419 C425 1.231 . S
C420 O404 1.225 . S
C420 O426 1.298 . S
C421 O410 1.226 1_645 S
C421 O411 1.307 . S
C422 O414 1.303 1_545 S
C422 O415 1.247 . S
C423 O412 1.253 . S
C423 O413 1.283 1_655 S
C424 O416 1.304 . S
C424 O418 1.248 1_455 S
C425 O417 1.311 . S
C425 O419 1.231 . S
O426 Zn408 1.953 . S
O426 C420 1.298 . S
O427 Zn428 1.953 . S
O427 C443 1.225 . S
Zn428 O427 1.953 . S
Zn428 O429 1.949 . S
Zn428 O435 1.919 . S
Zn428 O440 1.924 . S
O429 Zn428 1.949 . S
O429 Zn430 1.923 . S
O429 Zn431 1.950 . S
O429 Zn432 1.945 . S
Zn430 O429 1.923 . S
Zn430 O433 1.933 . S
Zn430 O436 1.941 . S
Zn430 O437 1.965 . S
Zn431 O429 1.950 . S
Zn431 O438 1.938 . S
Zn431 O439 1.906 . S
Zn431 O449 1.953 . S
Zn432 O429 1.945 . S
Zn432 O434 1.932 . S
Zn432 O441 1.977 . S
Zn432 O442 1.910 . S
O433 Zn430 1.933 . S
O433 C444 1.226 . S
O434 Zn432 1.932 . S
O434 C444 1.307 . S
O435 Zn428 1.919 . S
O435 C446 1.253 . S
O436 Zn430 1.941 . S
O436 C446 1.283 . S
O437 Zn430 1.965 . S
O437 C445 1.303 . S
O438 Zn431 1.938 . S
O438 C445 1.247 . S
O439 Zn431 1.906 . S
O439 C447 1.304 . S
O440 Zn428 1.924 . S
O440 C448 1.311 . S
O441 Zn432 1.977 . S
O441 C447 1.272 . S
O442 Zn432 1.910 . S
O442 C448 1.231 . S
C443 O427 1.225 . S
C443 O449 1.298 . S
C444 O433 1.226 . S
C444 O434 1.307 . S
C445 O437 1.303 . S
C445 O438 1.247 . S
C446 O435 1.253 . S
C446 O436 1.283 . S
C447 O439 1.304 . S
C447 O441 1.272 . S
C448 O440 1.311 . S
C448 O442 1.231 . S
O449 Zn431 1.953 . S
O449 C443 1.298 . S
O450 Zn451 1.953 . S
O450 C466 1.225 . S
Zn451 O450 1.953 . S
Zn451 O452 1.949 . S
Zn451 O458 1.919 1_545 S
Zn451 O463 1.924 . S
O452 Zn451 1.949 . S
O452 Zn453 1.923 1_545 S
O452 Zn454 1.950 . S
O452 Zn455 1.945 1_554 S
Zn453 O452 1.923 1_565 S
Zn453 O456 1.933 1_554 S
Zn453 O459 1.941 . S
Zn453 O460 1.965 . S
Zn454 O452 1.950 . S
Zn454 O461 1.938 1_545 S
Zn454 O462 1.906 . S
Zn454 O472 1.953 . S
Zn455 O452 1.945 1_556 S
Zn455 O457 1.932 . S
Zn455 O464 1.977 1_556 S
Zn455 O465 1.910 . S
O456 Zn453 1.933 1_556 S
O456 C467 1.226 . S
O457 Zn455 1.932 . S
O457 C467 1.307 1_545 S
O458 Zn451 1.919 1_565 S
O458 C469 1.253 . S
O459 Zn453 1.941 . S
O459 C469 1.283 . S
O460 Zn453 1.965 . S
O460 C468 1.303 . S
O461 Zn454 1.938 1_565 S
O461 C468 1.247 . S
O462 Zn454 1.906 . S
O462 C470 1.304 . S
O463 Zn451 1.924 . S
O463 C471 1.311 . S
O464 Zn455 1.977 1_554 S
O464 C470 1.272 . S
O465 Zn455 1.910 . S
O465 C471 1.231 1_556 S
C466 O450 1.225 . S
C466 O472 1.298 . S
C467 O456 1.226 . S
C467 O457 1.307 1_565 S
C468 O460 1.303 . S
C468 O461 1.247 . S
C469 O458 1.253 . S
C469 O459 1.283 . S
C470 O462 1.304 . S
C470 O464 1.272 . S
C471 O463 1.311 . S
C471 O465 1.231 1_554 S
O472 Zn454 1.953 . S
O472 C466 1.298 . S
O473 Zn474 1.953 . S
O473 C489 1.225 . S
Zn474 O473 1.953 . S
Zn474 O475 1.949 . S
Zn474 O481 1.919 . S
Zn474 O486 1.924 . S
O475 Zn474 1.949 . S
O475 Zn476 1.923 . S
O475 Zn477 1.950 . S
O475 Zn478 1.945 . S
Zn476 O475 1.923 . S
Zn476 O479 1.933 . S
Zn476 O482 1.941 . S
Zn476 O483 1.965 . S
Zn477 O475 1.950 . S
Zn477 O484 1.938 . S
Zn477 O485 1.906 . S
Zn477 O495 1.953 . S
Zn478 O475 1.945 . S
Zn478 O480 1.932 . S
Zn478 O487 1.977 . S
Zn478 O488 1.910 . S
O479 Zn476 1.933 . S
O479 C490 1.226 . S
O480 Zn478 1.932 . S
O480 C490 1.307 . S
O481 Zn474 1.919 . S
O481 C492 1.253 . S
O482 Zn476 1.941 . S
O482 C492 1.283 . S
O483 Zn476 1.965 . S
O483 C491 1.303 . S
O484 Zn477 1.938 . S
O484 C491 1.247 . S
O485 Zn477 1.906 . S
O485 C493 1.304 . S
O486 Zn474 1.924 . S
O486 C494 1.311 . S
O487 Zn478 1.977 . S
O487 C493 1.272 . S
O488 Zn478 1.910 . S
O488 C494 1.231 . S
C489 O473 1.225 . S
C489 O495 1.298 . S
C490 O479 1.226 . S
C490 O480 1.307 . S
C491 O483 1.303 . S
C491 O484 1.247 . S
C492 O481 1.253 . S
C492 O482 1.283 . S
C493 O485 1.304 . S
C493 O487 1.272 . S
C494 O486 1.311 . S
C494 O488 1.231 . S
O495 Zn477 1.953 . S
O495 C489 1.298 . S
O496 Zn497 1.953 . S
O496 C512 1.225 . S
Zn497 O496 1.953 . S
Zn497 O498 1.949 1_556 S
Zn497 O504 1.919 . S
Zn497 O509 1.924 . S
O498 Zn497 1.949 1_554 S
O498 Zn499 1.923 . S
O498 Zn500 1.950 . S
O498 Zn501 1.945 . S
Zn499 O498 1.923 . S
Zn499 O502 1.933 . S
Zn499 O505 1.941 . S
Zn499 O506 1.965 . S
Zn500 O498 1.950 . S
Zn500 O507 1.938 . S
Zn500 O508 1.906 . S
Zn500 O518 1.953 1_554 S
Zn501 O498 1.945 . S
Zn501 O503 1.932 . S
Zn501 O510 1.977 . S
Zn501 O511 1.910 . S
O502 Zn499 1.933 . S
O502 C513 1.226 . S
O503 Zn501 1.932 . S
O503 C513 1.307 . S
O504 Zn497 1.919 . S
O504 C515 1.253 1_556 S
O505 Zn499 1.941 . S
O505 C515 1.283 . S
O506 Zn499 1.965 . S
O506 C514 1.303 . S
O507 Zn500 1.938 . S
O507 C514 1.247 . S
O508 Zn500 1.906 . S
O508 C516 1.304 . S
O509 Zn497 1.924 . S
O509 C517 1.311 . S
O510 Zn501 1.977 . S
O510 C516 1.272 . S
O511 Zn501 1.910 . S
O511 C517 1.231 1_554 S
C512 O496 1.225 . S
C512 O518 1.298 . S
C513 O502 1.226 . S
C513 O503 1.307 . S
C514 O506 1.303 . S
C514 O507 1.247 . S
C515 O504 1.253 1_554 S
C515 O505 1.283 . S
C516 O508 1.304 . S
C516 O510 1.272 . S
C517 O509 1.311 . S
C517 O511 1.231 1_556 S
O518 Zn500 1.953 1_556 S
O518 C512 1.298 . S
O519 Zn520 1.953 . S
O519 C535 1.225 . S
Zn520 O519 1.953 . S
Zn520 O521 1.949 . S
Zn520 O527 1.919 . S
Zn520 O532 1.924 . S
O521 Zn520 1.949 . S
O521 Zn522 1.923 . S
O521 Zn523 1.950 . S
O521 Zn524 1.945 . S
Zn522 O521 1.923 . S
Zn522 O525 1.933 . S
Zn522 O528 1.941 . S
Zn522 O529 1.965 . S
Zn523 O521 1.950 . S
Zn523 O530 1.938 . S
Zn523 O531 1.906 . S
Zn523 O541 1.953 . S
Zn524 O521 1.945 . S
Zn524 O526 1.932 . S
Zn524 O533 1.977 . S
Zn524 O534 1.910 . S
O525 Zn522 1.933 . S
O525 C536 1.226 . S
O526 Zn524 1.932 . S
O526 C536 1.307 . S
O527 Zn520 1.919 . S
O527 C538 1.253 . S
O528 Zn522 1.941 . S
O528 C538 1.283 . S
O529 Zn522 1.965 . S
O529 C537 1.303 . S
O530 Zn523 1.938 . S
O530 C537 1.247 . S
O531 Zn523 1.906 . S
O531 C539 1.304 . S
O532 Zn520 1.924 . S
O532 C540 1.311 . S
O533 Zn524 1.977 . S
O533 C539 1.272 . S
O534 Zn524 1.910 . S
O534 C540 1.231 . S
C535 O519 1.225 . S
C535 O541 1.298 . S
C536 O525 1.226 . S
C536 O526 1.307 . S
C537 O529 1.303 . S
C537 O530 1.247 . S
C538 O527 1.253 . S
C538 O528 1.283 . S
C539 O531 1.304 . S
C539 O533 1.272 . S
C540 O532 1.311 . S
C540 O534 1.231 . S
O541 Zn523 1.953 . S
O541 C535 1.298 . S
O542 Zn543 1.953 . S
O542 C558 1.225 . S
Zn543 O542 1.953 . S
Zn543 O544 1.949 . S
Zn543 O550 1.919 . S
Zn543 O555 1.924 . S
O544 Zn543 1.949 . S
O544 Zn545 1.923 . S
O544 Zn546 1.950 1_455 S
O544 Zn547 1.945 1_455 S
Zn545 O544 1.923 . S
Zn545 O548 1.933 1_455 S
Zn545 O551 1.941 . S
Zn545 O552 1.965 1_455 S
Zn546 O544 1.950 1_655 S
Zn546 O553 1.938 . S
Zn546 O554 1.906 . S
Zn546 O564 1.953 1_655 S
Zn547 O544 1.945 1_655 S
Zn547 O549 1.932 . S
Zn547 O556 1.977 . S
Zn547 O557 1.910 1_655 S
O548 Zn545 1.933 1_655 S
O548 C559 1.226 . S
O549 Zn547 1.932 . S
O549 C559 1.307 . S
O550 Zn543 1.919 . S
O550 C561 1.253 . S
O551 Zn545 1.941 . S
O551 C561 1.283 . S
O552 Zn545 1.965 1_655 S
O552 C560 1.303 . S
O553 Zn546 1.938 . S
O553 C560 1.247 . S
O554 Zn546 1.906 . S
O554 C562 1.304 . S
O555 Zn543 1.924 . S
O555 C563 1.311 . S
O556 Zn547 1.977 . S
O556 C562 1.272 . S
O557 Zn547 1.910 1_455 S
O557 C563 1.231 . S
C558 O542 1.225 . S
C558 O564 1.298 . S
C559 O548 1.226 . S
C559 O549 1.307 . S
C560 O552 1.303 . S
C560 O553 1.247 . S
C561 O550 1.253 . S
C561 O551 1.283 . S
C562 O554 1.304 . S
C562 O556 1.272 . S
C563 O555 1.311 . S
C563 O557 1.231 . S
O564 Zn546 1.953 1_455 S
O564 C558 1.298 . S
O565 Zn566 1.953 . S
O565 C581 1.225 . S
Zn566 O565 1.953 . S
Zn566 O567 1.949 . S
Zn566 O573 1.919 . S
Zn566 O578 1.924 . S
O567 Zn566 1.949 . S
O567 Zn568 1.923 . S
O567 Zn569 1.950 . S
O567 Zn570 1.945 . S
Zn568 O567 1.923 . S
Zn568 O571 1.933 . S
Zn568 O574 1.941 . S
Zn568 O575 1.965 . S
Zn569 O567 1.950 . S
Zn569 O576 1.938 . S
Zn569 O577 1.906 . S
Zn569 O587 1.953 . S
Zn570 O567 1.945 . S
Zn570 O572 1.932 . S
Zn570 O579 1.977 . S
Zn570 O580 1.910 . S
O571 Zn568 1.933 . S
O571 C582 1.226 . S
O572 Zn570 1.932 . S
O572 C582 1.307 . S
O573 Zn566 1.919 . S
O573 C584 1.253 . S
O574 Zn568 1.941 . S
O574 C584 1.283 . S
O575 Zn568 1.965 . S
O575 C583 1.303 . S
O576 Zn569 1.938 . S
O576 C583 1.247 . S
O577 Zn569 1.906 . S
O577 C585 1.304 . S
O578 Zn566 1.924 . S
O578 C586 1.311 . S
O579 Zn570 1.977 . S
O579 C585 1.272 . S
O580 Zn570 1.910 . S
O580 C586 1.231 . S
C581 O565 1.225 . S
C581 O587 1.298 . S
C582 O571 1.226 . S
C582 O572 1.307 . S
C583 O575 1.303 . S
C583 O576 1.247 . S
C584 O573 1.253 . S
C584 O574 1.283 . S
C585 O577 1.304 . S
C585 O579 1.272 . S
C586 O578 1.311 . S
C586 O580 1.231 . S
O587 Zn569 1.953 . S
O587 C581 1.298 . S
O588 Zn589 1.953 . S
O588 C604 1.225 . S
Zn589 O588 1.953 . S
Zn589 O590 1.949 . S
Zn589 O596 1.919 . S
Zn589 O601 1.924 . S
O590 Zn589 1.949 . S
O590 Zn591 1.923 . S
O590 Zn592 1.950 . S
O590 Zn593 1.945 . S
Zn591 O590 1.923 . S
Zn591 O594 1.933 . S
Zn591 O597 1.941 . S
Zn591 O598 1.965 . S
Zn592 O590 1.950 . S
Zn592 O599 1.938 . S
Zn592 O600 1.906 . S
Zn592 O610 1.953 . S
Zn593 O590 1.945 . S
Zn593 O595 1.932 . S
Zn593 O602 1.977 . S
Zn593 O603 1.910 . S
O594 Zn591 1.933 . S
O594 C605 1.226 . S
O595 Zn593 1.932 . S
O595 C605 1.307 . S
O596 Zn589 1.919 . S
O596 C607 1.253 . S
O597 Zn591 1.941 . S
O597 C607 1.283 . S
O598 Zn591 1.965 . S
O598 C606 1.303 . S
O599 Zn592 1.938 . S
O599 C606 1.247 . S
O600 Zn592 1.906 . S
O600 C608 1.304 . S
O601 Zn589 1.924 . S
O601 C609 1.311 . S
O602 Zn593 1.977 . S
O602 C608 1.272 . S
O603 Zn593 1.910 . S
O603 C609 1.231 . S
C604 O588 1.225 . S
C604 O610 1.298 . S
C605 O594 1.226 . S
C605 O595 1.307 . S
C606 O598 1.303 . S
C606 O599 1.247 . S
C607 O596 1.253 . S
C607 O597 1.283 . S
C608 O600 1.304 . S
C608 O602 1.272 . S
C609 O601 1.311 . S
C609 O603 1.231 . S
O610 Zn592 1.953 . S
O610 C604 1.298 . S
O611 Zn612 1.953 . S
O611 C627 1.225 . S
Zn612 O611 1.953 . S
Zn612 O613 1.949 . S
Zn612 O619 1.919 . S
Zn612 O624 1.924 . S
O613 Zn612 1.949 . S
O613 Zn614 1.923 . S
O613 Zn615 1.950 . S
O613 Zn616 1.945 . S
Zn614 O613 1.923 . S
Zn614 O617 1.933 . S
Zn614 O620 1.941 . S
Zn614 O621 1.965 . S
Zn615 O613 1.950 . S
Zn615 O622 1.938 . S
Zn615 O623 1.906 . S
Zn615 O633 1.953 . S
Zn616 O613 1.945 . S
Zn616 O618 1.932 . S
Zn616 O625 1.977 . S
Zn616 O626 1.910 . S
O617 Zn614 1.933 . S
O617 C628 1.226 . S
O618 Zn616 1.932 . S
O618 C628 1.307 . S
O619 Zn612 1.919 . S
O619 C630 1.253 . S
O620 Zn614 1.941 . S
O620 C630 1.283 . S
O621 Zn614 1.965 . S
O621 C629 1.303 . S
O622 Zn615 1.938 . S
O622 C629 1.247 . S
O623 Zn615 1.906 . S
O623 C631 1.304 . S
O624 Zn612 1.924 . S
O624 C632 1.311 . S
O625 Zn616 1.977 . S
O625 C631 1.272 . S
O626 Zn616 1.910 . S
O626 C632 1.231 . S
C627 O611 1.225 . S
C627 O633 1.298 . S
C628 O617 1.226 . S
C628 O618 1.307 . S
C629 O621 1.303 . S
C629 O622 1.247 . S
C630 O619 1.253 . S
C630 O620 1.283 . S
C631 O623 1.304 . S
C631 O625 1.272 . S
C632 O624 1.311 . S
C632 O626 1.231 . S
O633 Zn615 1.953 . S
O633 C627 1.298 . S
O634 Zn635 1.953 . S
O634 C650 1.225 . S
Zn635 O634 1.953 . S
Zn635 O636 1.949 . S
Zn635 O642 1.919 . S
Zn635 O647 1.924 . S
O636 Zn635 1.949 . S
O636 Zn637 1.923 . S
O636 Zn638 1.950 . S
O636 Zn639 1.945 . S
Zn637 O636 1.923 . S
Zn637 O640 1.933 . S
Zn637 O643 1.941 . S
Zn637 O644 1.965 . S
Zn638 O636 1.950 . S
Zn638 O645 1.938 . S
Zn638 O646 1.906 . S
Zn638 O656 1.953 . S
Zn639 O636 1.945 . S
Zn639 O641 1.932 . S
Zn639 O648 1.977 . S
Zn639 O649 1.910 . S
O640 Zn637 1.933 . S
O640 C651 1.226 . S
O641 Zn639 1.932 . S
O641 C651 1.307 . S
O642 Zn635 1.919 . S
O642 C653 1.253 . S
O643 Zn637 1.941 . S
O643 C653 1.283 . S
O644 Zn637 1.965 . S
O644 C652 1.303 . S
O645 Zn638 1.938 . S
O645 C652 1.247 . S
O646 Zn638 1.906 . S
O646 C654 1.304 . S
O647 Zn635 1.924 . S
O647 C655 1.311 . S
O648 Zn639 1.977 . S
O648 C654 1.272 . S
O649 Zn639 1.910 . S
O649 C655 1.231 . S
C650 O634 1.225 . S
C650 O656 1.298 . S
C651 O640 1.226 . S
C651 O641 1.307 . S
C652 O644 1.303 . S
C652 O645 1.247 . S
C653 O642 1.253 . S
C653 O643 1.283 . S
C654 O646 1.304 . S
C654 O648 1.272 . S
C655 O647 1.311 . S
C655 O649 1.231 . S
O656 Zn638 1.953 . S
O656 C650 1.298 . S
O657 Zn658 1.953 . S
O657 C673 1.225 . S
Zn658 O657 1.953 . S
Zn658 O659 1.949 . S
Zn658 O665 1.919 1_454 S
Zn658 O670 1.924 1_554 S
O659 Zn658 1.949 . S
O659 Zn660 1.923 1_455 S
O659 Zn661 1.950 . S
O659 Zn662 1.945 1_554 S
Zn660 O659 1.923 1_655 S
Zn660 O663 1.933 . S
Zn660 O666 1.941 . S
Zn660 O667 1.965 . S
Zn661 O659 1.950 . S
Zn661 O668 1.938 . S
Zn661 O669 1.906 . S
Zn661 O679 1.953 . S
Zn662 O659 1.945 1_556 S
Zn662 O664 1.932 . S
Zn662 O671 1.977 1_556 S
Zn662 O672 1.910 . S
O663 Zn660 1.933 . S
O663 C674 1.204 1_654 S
O664 Zn662 1.932 . S
O664 C674 1.341 . S
O665 Zn658 1.919 1_656 S
O665 C676 1.253 1_556 S
O666 Zn660 1.941 . S
O666 C676 1.283 . S
O667 Zn660 1.965 . S
O667 C675 1.300 1_655 S
O668 Zn661 1.938 . S
O668 C675 1.253 . S
O669 Zn661 1.906 . S
O669 C677 1.304 . S
O670 Zn658 1.924 1_556 S
O670 C678 1.311 . S
O671 Zn662 1.977 1_554 S
O671 C677 1.272 . S
O672 Zn662 1.910 . S
O672 C678 1.231 . S
C673 O657 1.225 . S
C673 O679 1.298 . S
C674 O663 1.204 1_456 S
C674 O664 1.341 . S
C675 O667 1.300 1_455 S
C675 O668 1.253 . S
C676 O665 1.253 1_554 S
C676 O666 1.283 . S
C677 O669 1.304 . S
C677 O671 1.272 . S
C678 O670 1.311 . S
C678 O672 1.231 . S
O679 Zn661 1.953 . S
O679 C673 1.298 . S
H680 C688 0.950 . S
H681 C693 0.958 . S
H682 C690 0.950 . S
H683 C692 0.950 . S
H684 C694 0.950 . S
H685 C696 0.950 . S
H686 C698 0.950 . S
H687 C699 0.950 . S
C688 H680 0.950 . S
C688 C689 1.383 1_655 S
C688 C690 1.391 . S
C689 C688 1.383 1_455 S
C689 C693 1.392 . S
C690 H682 0.950 . S
C690 C688 1.391 . S
C690 C691 1.400 . S
C691 C690 1.400 . S
C691 C692 1.398 . S
C691 C697 1.491 . S
C692 H683 0.950 . S
C692 C691 1.398 . S
C692 C693 1.385 1_655 S
C693 H681 0.958 . S
C693 C689 1.392 . S
C693 C692 1.385 1_455 S
C694 H684 0.950 . S
C694 C695 1.386 . S
C694 C696 1.391 . S
C695 C694 1.386 . S
C695 C699 1.393 . S
C696 H685 0.950 . S
C696 C694 1.391 . S
C696 C697 1.400 . S
C697 C691 1.491 . S
C697 C696 1.400 . S
C697 C698 1.398 . S
C698 H686 0.950 . S
C698 C697 1.398 . S
C698 C699 1.391 . S
C699 H687 0.950 . S
C699 C695 1.393 . S
C699 C698 1.391 . S
H700 C708 0.950 . S
H701 C713 0.950 . S
H702 C710 0.950 . S
H703 C712 0.950 . S
H704 C714 0.950 . S
H705 C716 0.950 . S
H706 C718 0.950 . S
H707 C719 0.950 . S
C708 H700 0.950 . S
C708 C709 1.386 . S
C708 C710 1.391 . S
C709 C708 1.386 . S
C709 C713 1.393 . S
C710 H702 0.950 . S
C710 C708 1.391 . S
C710 C711 1.400 . S
C711 C710 1.400 . S
C711 C712 1.398 . S
C711 C717 1.491 . S
C712 H703 0.950 . S
C712 C711 1.398 . S
C712 C713 1.391 . S
C713 H701 0.950 . S
C713 C709 1.393 . S
C713 C712 1.391 . S
C714 H704 0.950 . S
C714 C715 1.386 . S
C714 C716 1.391 . S
C715 C714 1.386 . S
C715 C719 1.393 . S
C716 H705 0.950 . S
C716 C714 1.391 . S
C716 C717 1.400 . S
C717 C711 1.491 . S
C717 C716 1.400 . S
C717 C718 1.398 . S
C718 H706 0.950 . S
C718 C717 1.398 . S
C718 C719 1.391 . S
C719 H707 0.950 . S
C719 C715 1.393 . S
C719 C718 1.391 . S
H720 C728 0.950 . S
H721 C733 0.950 . S
H722 C730 0.950 . S
H723 C732 0.950 . S
H724 C734 0.950 . S
H725 C736 0.950 . S
H726 C738 0.950 . S
H727 C739 0.950 . S
C728 H720 0.950 . S
C728 C729 1.386 . S
C728 C730 1.391 . S
C729 C728 1.386 . S
C729 C733 1.393 . S
C730 H722 0.950 . S
C730 C728 1.391 . S
C730 C731 1.400 . S
C731 C730 1.400 . S
C731 C732 1.398 . S
C731 C737 1.491 . S
C732 H723 0.950 . S
C732 C731 1.398 . S
C732 C733 1.391 . S
C733 H721 0.950 . S
C733 C729 1.393 . S
C733 C732 1.391 . S
C734 H724 0.950 . S
C734 C735 1.386 . S
C734 C736 1.391 . S
C735 C734 1.386 . S
C735 C739 1.393 . S
C736 H725 0.950 . S
C736 C734 1.391 . S
C736 C737 1.400 . S
C737 C731 1.491 . S
C737 C736 1.400 . S
C737 C738 1.398 . S
C738 H726 0.950 . S
C738 C737 1.398 . S
C738 C739 1.391 . S
C739 H727 0.950 . S
C739 C735 1.393 . S
C739 C738 1.391 . S
H740 C748 0.950 . S
H741 C753 0.950 . S
H742 C750 0.950 . S
H743 C752 0.950 . S
H744 C754 0.950 . S
H745 C756 0.950 . S
H746 C758 0.950 . S
H747 C759 0.950 . S
C748 H740 0.950 . S
C748 C749 1.386 . S
C748 C750 1.391 . S
C749 C748 1.386 . S
C749 C753 1.393 . S
C750 H742 0.950 . S
C750 C748 1.391 . S
C750 C751 1.400 . S
C751 C750 1.400 . S
C751 C752 1.398 . S
C751 C757 1.491 . S
C752 H743 0.950 . S
C752 C751 1.398 . S
C752 C753 1.391 . S
C753 H741 0.950 . S
C753 C749 1.393 . S
C753 C752 1.391 . S
C754 H744 0.950 . S
C754 C755 1.386 . S
C754 C756 1.391 . S
C755 C754 1.386 . S
C755 C759 1.393 . S
C756 H745 0.950 . S
C756 C754 1.391 . S
C756 C757 1.400 . S
C757 C751 1.491 . S
C757 C756 1.400 . S
C757 C758 1.398 . S
C758 H746 0.950 . S
C758 C757 1.398 . S
C758 C759 1.391 . S
C759 H747 0.950 . S
C759 C755 1.393 . S
C759 C758 1.391 . S
H760 C768 0.950 . S
H761 C773 0.950 . S
H762 C770 0.950 . S
H763 C772 0.950 . S
H764 C774 0.950 . S
H765 C776 0.950 . S
H766 C778 0.950 . S
H767 C779 0.950 . S
C768 H760 0.950 . S
C768 C769 1.386 . S
C768 C770 1.391 . S
C769 C768 1.386 . S
C769 C773 1.393 1_455 S
C770 H762 0.950 . S
C770 C768 1.391 . S
C770 C771 1.400 1_455 S
C771 C770 1.400 1_655 S
C771 C772 1.398 . S
C771 C777 1.491 . S
C772 H763 0.950 . S
C772 C771 1.398 . S
C772 C773 1.391 . S
C773 H761 0.950 . S
C773 C769 1.393 1_655 S
C773 C772 1.391 . S
C774 H764 0.950 . S
C774 C775 1.386 . S
C774 C776 1.391 . S
C775 C774 1.386 . S
C775 C779 1.393 1_655 S
C776 H765 0.950 . S
C776 C774 1.391 . S
C776 C777 1.400 . S
C777 C771 1.491 . S
C777 C776 1.400 . S
C777 C778 1.398 1_655 S
C778 H766 0.950 . S
C778 C777 1.398 1_455 S
C778 C779 1.391 . S
C779 H767 0.950 . S
C779 C775 1.393 1_455 S
C779 C778 1.391 . S
H780 C788 0.950 . S
H781 C793 0.950 . S
H782 C790 0.950 . S
H783 C792 0.950 . S
H784 C794 0.950 . S
H785 C796 0.950 . S
H786 C798 0.950 . S
H787 C799 0.950 . S
C788 H780 0.950 . S
C788 C789 1.386 . S
C788 C790 1.391 . S
C789 C788 1.386 . S
C789 C793 1.393 . S
C790 H782 0.950 . S
C790 C788 1.391 . S
C790 C791 1.400 . S
C791 C790 1.400 . S
C791 C792 1.398 . S
C791 C797 1.491 . S
C792 H783 0.950 . S
C792 C791 1.398 . S
C792 C793 1.391 . S
C793 H781 0.950 . S
C793 C789 1.393 . S
C793 C792 1.391 . S
C794 H784 0.950 . S
C794 C795 1.386 . S
C794 C796 1.391 . S
C795 C794 1.386 . S
C795 C799 1.393 . S
C796 H785 0.950 . S
C796 C794 1.391 . S
C796 C797 1.400 . S
C797 C791 1.491 . S
C797 C796 1.400 . S
C797 C798 1.398 . S
C798 H786 0.950 . S
C798 C797 1.398 . S
C798 C799 1.391 . S
C799 H787 0.950 . S
C799 C795 1.393 . S
C799 C798 1.391 . S
H800 C808 0.950 . S
H801 C813 0.950 . S
H802 C810 0.950 . S
H803 C812 0.950 . S
H804 C814 0.950 1_554 S
H805 C816 0.950 . S
H806 C818 0.950 . S
H807 C819 0.950 . S
C808 H800 0.950 . S
C808 C809 1.386 . S
C808 C810 1.391 . S
C809 C808 1.386 . S
C809 C813 1.393 . S
C810 H802 0.950 . S
C810 C808 1.391 . S
C810 C811 1.400 . S
C811 C810 1.400 . S
C811 C812 1.398 . S
C811 C817 1.491 . S
C812 H803 0.950 . S
C812 C811 1.398 . S
C812 C813 1.391 . S
C813 H801 0.950 . S
C813 C809 1.393 . S
C813 C812 1.391 . S
C814 H804 0.950 1_556 S
C814 C815 1.386 1_556 S
C814 C816 1.391 . S
C815 C814 1.386 1_554 S
C815 C819 1.393 1_554 S
C816 H805 0.950 . S
C816 C814 1.391 . S
C816 C817 1.400 . S
C817 C811 1.491 . S
C817 C816 1.400 . S
C817 C818 1.398 . S
C818 H806 0.950 . S
C818 C817 1.398 . S
C818 C819 1.391 . S
C819 H807 0.950 . S
C819 C815 1.393 1_556 S
C819 C818 1.391 . S
H820 C828 0.950 . S
H821 C833 0.950 . S
H822 C830 0.950 . S
H823 C832 0.950 . S
H824 C834 0.950 . S
H825 C836 0.950 . S
H826 C838 0.950 . S
H827 C839 0.950 . S
C828 H820 0.950 . S
C828 C829 1.386 . S
C828 C830 1.391 . S
C829 C828 1.386 . S
C829 C833 1.393 . S
C830 H822 0.950 . S
C830 C828 1.391 . S
C830 C831 1.400 . S
C831 C830 1.400 . S
C831 C832 1.398 . S
C831 C837 1.491 . S
C832 H823 0.950 . S
C832 C831 1.398 . S
C832 C833 1.391 . S
C833 H821 0.950 . S
C833 C829 1.393 . S
C833 C832 1.391 . S
C834 H824 0.950 . S
C834 C835 1.386 . S
C834 C836 1.391 . S
C835 C834 1.386 . S
C835 C839 1.393 . S
C836 H825 0.950 . S
C836 C834 1.391 . S
C836 C837 1.400 . S
C837 C831 1.491 . S
C837 C836 1.400 . S
C837 C838 1.398 . S
C838 H826 0.950 . S
C838 C837 1.398 . S
C838 C839 1.391 . S
C839 H827 0.950 . S
C839 C835 1.393 . S
C839 C838 1.391 . S
H840 C848 0.950 . S
H841 C853 0.950 . S
H842 C850 0.950 . S
H843 C852 0.950 . S
H844 C854 0.950 . S
H845 C856 0.950 . S
H846 C858 0.950 . S
H847 C859 0.950 . S
C848 H840 0.950 . S
C848 C849 1.386 1_565 S
C848 C850 1.391 . S
C849 C848 1.386 1_545 S
C849 C853 1.393 . S
C850 H842 0.950 . S
C850 C848 1.391 . S
C850 C851 1.400 1_565 S
C851 C850 1.400 1_545 S
C851 C852 1.398 . S
C851 C857 1.491 . S
C852 H843 0.950 . S
C852 C851 1.398 . S
C852 C853 1.391 . S
C853 H841 0.950 . S
C853 C849 1.393 . S
C853 C852 1.391 . S
C854 H844 0.950 . S
C854 C855 1.386 . S
C854 C856 1.391 . S
C855 C854 1.386 . S
C855 C859 1.393 1_545 S
C856 H845 0.950 . S
C856 C854 1.391 . S
C856 C857 1.400 . S
C857 C851 1.491 . S
C857 C856 1.400 . S
C857 C858 1.398 1_545 S
C858 H846 0.950 . S
C858 C857 1.398 1_565 S
C858 C859 1.391 . S
C859 H847 0.950 . S
C859 C855 1.393 1_565 S
C859 C858 1.391 . S
H860 C868 0.950 . S
H861 C873 0.950 . S
H862 C870 0.950 . S
H863 C872 0.950 . S
H864 C874 0.950 . S
H865 C876 0.950 . S
H866 C878 0.950 . S
H867 C879 0.950 . S
C868 H860 0.950 . S
C868 C869 1.386 . S
C868 C870 1.391 . S
C869 C868 1.386 . S
C869 C873 1.393 . S
C870 H862 0.950 . S
C870 C868 1.391 . S
C870 C871 1.400 . S
C871 C870 1.400 . S
C871 C872 1.398 . S
C871 C877 1.491 . S
C872 H863 0.950 . S
C872 C871 1.398 . S
C872 C873 1.391 . S
C873 H861 0.950 . S
C873 C869 1.393 . S
C873 C872 1.391 . S
C874 H864 0.950 . S
C874 C875 1.386 . S
C874 C876 1.391 . S
C875 C874 1.386 . S
C875 C879 1.393 . S
C876 H865 0.950 . S
C876 C874 1.391 . S
C876 C877 1.400 . S
C877 C871 1.491 . S
C877 C876 1.400 . S
C877 C878 1.398 . S
C878 H866 0.950 . S
C878 C877 1.398 . S
C878 C879 1.391 . S
C879 H867 0.950 . S
C879 C875 1.393 . S
C879 C878 1.391 . S
H880 C888 0.938 1_565 S
H881 C893 0.950 . S
H882 C890 0.950 1_565 S
H883 C892 0.950 . S
H884 C894 0.950 . S
H885 C896 0.950 . S
H886 C898 0.950 . S
H887 C899 0.950 . S
C888 H880 0.938 1_545 S
C888 C889 1.396 . S
C888 C890 1.394 . S
C889 C888 1.396 . S
C889 C893 1.393 . S
C890 H882 0.950 1_545 S
C890 C888 1.394 . S
C890 C891 1.400 . S
C891 C890 1.400 . S
C891 C892 1.398 . S
C891 C897 1.491 . S
C892 H883 0.950 . S
C892 C891 1.398 . S
C892 C893 1.391 . S
C893 H881 0.950 . S
C893 C889 1.393 . S
C893 C892 1.391 . S
C894 H884 0.950 . S
C894 C895 1.386 . S
C894 C896 1.391 . S
C895 C894 1.386 . S
C895 C899 1.393 . S
C896 H885 0.950 . S
C896 C894 1.391 . S
C896 C897 1.400 . S
C897 C891 1.491 . S
C897 C896 1.400 . S
C897 C898 1.398 . S
C898 H886 0.950 . S
C898 C897 1.398 . S
C898 C899 1.391 . S
C899 H887 0.950 . S
C899 C895 1.393 . S
C899 C898 1.391 . S
H900 C908 0.950 . S
H901 C913 0.950 . S
H902 C910 0.950 . S
H903 C912 0.950 . S
H904 C914 0.950 . S
H905 C916 0.950 . S
H906 C918 0.950 . S
H907 C919 0.950 . S
C908 H900 0.950 . S
C908 C909 1.386 . S
C908 C910 1.391 . S
C909 C908 1.386 . S
C909 C913 1.393 . S
C910 H902 0.950 . S
C910 C908 1.391 . S
C910 C911 1.400 . S
C911 C910 1.400 . S
C911 C912 1.398 . S
C911 C917 1.491 . S
C912 H903 0.950 . S
C912 C911 1.398 . S
C912 C913 1.391 . S
C913 H901 0.950 . S
C913 C909 1.393 . S
C913 C912 1.391 . S
C914 H904 0.950 . S
C914 C915 1.386 . S
C914 C916 1.391 . S
C915 C914 1.386 . S
C915 C919 1.393 . S
C916 H905 0.950 . S
C916 C914 1.391 . S
C916 C917 1.400 . S
C917 C911 1.491 . S
C917 C916 1.400 . S
C917 C918 1.398 . S
C918 H906 0.950 . S
C918 C917 1.398 . S
C918 C919 1.391 . S
C919 H907 0.950 . S
C919 C915 1.393 . S
C919 C918 1.391 . S
H920 C928 0.950 . S
H921 C933 0.950 . S
H922 C930 0.950 . S
H923 C932 0.950 . S
H924 C934 0.950 . S
H925 C936 0.950 . S
H926 C938 0.950 . S
H927 C939 0.950 . S
C928 H920 0.950 . S
C928 C929 1.386 . S
C928 C930 1.391 . S
C929 C928 1.386 . S
C929 C933 1.393 . S
C930 H922 0.950 . S
C930 C928 1.391 . S
C930 C931 1.400 . S
C931 C930 1.400 . S
C931 C932 1.398 . S
C931 C937 1.491 . S
C932 H923 0.950 . S
C932 C931 1.398 . S
C932 C933 1.391 . S
C933 H921 0.950 . S
C933 C929 1.393 . S
C933 C932 1.391 . S
C934 H924 0.950 . S
C934 C935 1.386 . S
C934 C936 1.391 . S
C935 C934 1.386 . S
C935 C939 1.393 . S
C936 H925 0.950 . S
C936 C934 1.391 . S
C936 C937 1.400 . S
C937 C931 1.491 . S
C937 C936 1.400 . S
C937 C938 1.398 . S
C938 H926 0.950 . S
C938 C937 1.398 . S
C938 C939 1.391 . S
C939 H927 0.950 . S
C939 C935 1.393 . S
C939 C938 1.391 . S
H940 C948 0.950 . S
H941 C953 0.950 . S
H942 C950 0.950 . S
H943 C952 0.950 . S
H944 C954 0.950 . S
H945 C956 0.950 . S
H946 C958 0.950 . S
H947 C959 0.950 . S
C948 H940 0.950 . S
C948 C949 1.386 . S
C948 C950 1.391 . S
C949 C948 1.386 . S
C949 C953 1.393 . S
C950 H942 0.950 . S
C950 C948 1.391 . S
C950 C951 1.400 . S
C951 C950 1.400 . S
C951 C952 1.398 . S
C951 C957 1.491 . S
C952 H943 0.950 . S
C952 C951 1.398 . S
C952 C953 1.391 . S
C953 H941 0.950 . S
C953 C949 1.393 . S
C953 C952 1.391 . S
C954 H944 0.950 . S
C954 C955 1.386 . S
C954 C956 1.391 . S
C955 C954 1.386 . S
C955 C959 1.393 . S
C956 H945 0.950 . S
C956 C954 1.391 . S
C956 C957 1.400 . S
C957 C951 1.491 . S
C957 C956 1.400 . S
C957 C958 1.398 . S
C958 H946 0.950 . S
C958 C957 1.398 . S
C958 C959 1.391 . S
C959 H947 0.950 . S
C959 C955 1.393 . S
C959 C958 1.391 . S
H960 C968 0.950 . S
H961 C973 0.950 . S
H962 C970 0.950 . S
H963 C972 0.950 . S
H964 C974 0.950 . S
H965 C976 0.950 . S
H966 C978 0.950 . S
H967 C979 0.950 . S
C968 H960 0.950 . S
C968 C969 1.386 . S
C968 C970 1.391 . S
C969 C968 1.386 . S
C969 C973 1.393 1_565 S
C970 H962 0.950 . S
C970 C968 1.391 . S
C970 C971 1.400 . S
C971 C970 1.400 . S
C971 C972 1.398 1_565 S
C971 C977 1.491 . S
C972 H963 0.950 . S
C972 C971 1.398 1_545 S
C972 C973 1.391 . S
C973 H961 0.950 . S
C973 C969 1.393 1_545 S
C973 C972 1.391 . S
C974 H964 0.950 . S
C974 C975 1.386 1_545 S
C974 C976 1.391 . S
C975 C974 1.386 1_565 S
C975 C979 1.393 . S
C976 H965 0.950 . S
C976 C974 1.391 . S
C976 C977 1.400 1_545 S
C977 C971 1.491 . S
C977 C976 1.400 1_565 S
C977 C978 1.398 . S
C978 H966 0.950 . S
C978 C977 1.398 . S
C978 C979 1.391 . S
C979 H967 0.950 . S
C979 C975 1.393 . S
C979 C978 1.391 . S
H980 C988 0.950 . S
H981 C993 0.950 . S
H982 C990 0.950 . S
H983 C992 0.950 . S
H984 C994 0.950 . S
H985 C996 0.950 . S
H986 C998 0.950 . S
H987 C999 0.950 . S
C988 H980 0.950 . S
C988 C989 1.386 . S
C988 C990 1.391 . S
C989 C988 1.386 . S
C989 C993 1.393 . S
C990 H982 0.950 . S
C990 C988 1.391 . S
C990 C991 1.400 . S
C991 C990 1.400 . S
C991 C992 1.398 . S
C991 C997 1.491 . S
C992 H983 0.950 . S
C992 C991 1.398 . S
C992 C993 1.391 . S
C993 H981 0.950 . S
C993 C989 1.393 . S
C993 C992 1.391 . S
C994 H984 0.950 . S
C994 C995 1.386 . S
C994 C996 1.391 . S
C995 C994 1.386 . S
C995 C999 1.393 . S
C996 H985 0.950 . S
C996 C994 1.391 . S
C996 C997 1.400 . S
C997 C991 1.491 . S
C997 C996 1.400 . S
C997 C998 1.398 . S
C998 H986 0.950 . S
C998 C997 1.398 . S
C998 C999 1.391 . S
C999 H987 0.950 . S
C999 C995 1.393 . S
C999 C998 1.391 . S
H1000 C1008 0.950 . S
H1001 C1013 0.950 . S
H1002 C1010 0.950 . S
H1003 C1012 0.950 . S
H1004 C1014 0.950 . S
H1005 C1016 0.950 . S
H1006 C1018 0.950 . S
H1007 C1019 0.924 1_565 S
C1008 H1000 0.950 . S
C1008 C1009 1.386 . S
C1008 C1010 1.391 . S
C1009 C1008 1.386 . S
C1009 C1013 1.393 1_554 S
C1010 H1002 0.950 . S
C1010 C1008 1.391 . S
C1010 C1011 1.400 . S
C1011 C1010 1.400 . S
C1011 C1012 1.398 1_554 S
C1011 C1017 1.489 1_554 S
C1012 H1003 0.950 . S
C1012 C1011 1.398 1_556 S
C1012 C1013 1.391 . S
C1013 H1001 0.950 . S
C1013 C1009 1.393 1_556 S
C1013 C1012 1.391 . S
C1014 H1004 0.950 . S
C1014 C1015 1.386 . S
C1014 C1016 1.391 . S
C1015 C1014 1.386 . S
C1015 C1019 1.393 1_556 S
C1016 H1005 0.950 . S
C1016 C1014 1.391 . S
C1016 C1017 1.410 . S
C1017 C1011 1.489 1_556 S
C1017 C1016 1.410 . S
C1017 C1018 1.390 1_556 S
C1018 H1006 0.950 . S
C1018 C1017 1.390 1_554 S
C1018 C1019 1.391 . S
C1019 H1007 0.924 1_545 S
C1019 C1015 1.393 1_554 S
C1019 C1018 1.391 . S
H1020 C1028 0.985 . S
H1021 C1033 0.950 . S
H1022 C1030 0.921 1_556 S
H1023 C1032 0.950 . S
H1024 C1034 0.950 . S
H1025 C1036 0.950 . S
H1026 C1038 0.950 1_556 S
H1027 C1039 0.950 1_556 S
C1028 H1020 0.985 . S
C1028 C1029 1.355 1_556 S
C1028 C1030 1.388 1_556 S
C1029 C1028 1.355 1_554 S
C1029 C1033 1.393 . S
C1030 H1022 0.921 1_554 S
C1030 C1028 1.388 1_554 S
C1030 C1031 1.432 . S
C1031 C1030 1.432 . S
C1031 C1032 1.398 . S
C1031 C1037 1.491 . S
C1032 H1023 0.950 . S
C1032 C1031 1.398 . S
C1032 C1033 1.391 . S
C1033 H1021 0.950 . S
C1033 C1029 1.393 . S
C1033 C1032 1.391 . S
C1034 H1024 0.950 . S
C1034 C1035 1.386 . S
C1034 C1036 1.391 . S
C1035 C1034 1.386 . S
C1035 C1039 1.393 . S
C1036 H1025 0.950 . S
C1036 C1034 1.391 . S
C1036 C1037 1.400 . S
C1037 C1031 1.491 . S
C1037 C1036 1.400 . S
C1037 C1038 1.398 . S
C1038 H1026 0.950 1_554 S
C1038 C1037 1.398 . S
C1038 C1039 1.391 . S
C1039 H1027 0.950 1_554 S
C1039 C1035 1.393 . S
C1039 C1038 1.391 . S
H1040 C1048 0.950 . S
H1041 C1053 0.950 . S
H1042 C1050 0.950 . S
H1043 C1052 0.950 . S
H1044 C1054 0.950 . S
H1045 C1056 0.950 . S
H1046 C1058 0.950 . S
H1047 C1059 0.950 . S
C1048 H1040 0.950 . S
C1048 C1049 1.386 . S
C1048 C1050 1.391 . S
C1049 C1048 1.386 . S
C1049 C1053 1.393 . S
C1050 H1042 0.950 . S
C1050 C1048 1.391 . S
C1050 C1051 1.400 . S
C1051 C1050 1.400 . S
C1051 C1052 1.398 . S
C1051 C1057 1.491 . S
C1052 H1043 0.950 . S
C1052 C1051 1.398 . S
C1052 C1053 1.391 . S
C1053 H1041 0.950 . S
C1053 C1049 1.393 . S
C1053 C1052 1.391 . S
C1054 H1044 0.950 . S
C1054 C1055 1.386 . S
C1054 C1056 1.391 . S
C1055 C1054 1.386 . S
C1055 C1059 1.393 . S
C1056 H1045 0.950 . S
C1056 C1054 1.391 . S
C1056 C1057 1.400 . S
C1057 C1051 1.491 . S
C1057 C1056 1.400 . S
C1057 C1058 1.398 . S
C1058 H1046 0.950 . S
C1058 C1057 1.398 . S
C1058 C1059 1.391 . S
C1059 H1047 0.950 . S
C1059 C1055 1.393 . S
C1059 C1058 1.391 . S
H1060 C1068 0.950 . S
H1061 C1073 0.950 . S
H1062 C1070 0.950 . S
H1063 C1072 0.950 . S
H1064 C1074 0.950 . S
H1065 C1076 0.950 . S
H1066 C1078 0.950 . S
H1067 C1079 0.950 . S
C1068 H1060 0.950 . S
C1068 C1069 1.386 . S
C1068 C1070 1.391 . S
C1069 C1068 1.386 . S
C1069 C1073 1.393 . S
C1070 H1062 0.950 . S
C1070 C1068 1.391 . S
C1070 C1071 1.400 . S
C1071 C1070 1.400 . S
C1071 C1072 1.398 . S
C1071 C1077 1.491 . S
C1072 H1063 0.950 . S
C1072 C1071 1.398 . S
C1072 C1073 1.391 . S
C1073 H1061 0.950 . S
C1073 C1069 1.393 . S
C1073 C1072 1.391 . S
C1074 H1064 0.950 . S
C1074 C1075 1.386 . S
C1074 C1076 1.391 . S
C1075 C1074 1.386 . S
C1075 C1079 1.393 . S
C1076 H1065 0.950 . S
C1076 C1074 1.391 . S
C1076 C1077 1.400 . S
C1077 C1071 1.491 . S
C1077 C1076 1.400 . S
C1077 C1078 1.398 . S
C1078 H1066 0.950 . S
C1078 C1077 1.398 . S
C1078 C1079 1.391 . S
C1079 H1067 0.950 . S
C1079 C1075 1.393 . S
C1079 C1078 1.391 . S
H1080 C1088 0.950 . S
H1081 C1093 0.950 . S
H1082 C1090 0.950 . S
H1083 C1092 0.950 . S
H1084 C1094 0.950 . S
H1085 C1096 0.950 . S
H1086 C1098 0.950 . S
H1087 C1099 0.950 . S
C1088 H1080 0.950 . S
C1088 C1089 1.386 . S
C1088 C1090 1.391 . S
C1089 C1088 1.386 . S
C1089 C1093 1.393 . S
C1090 H1082 0.950 . S
C1090 C1088 1.391 . S
C1090 C1091 1.400 . S
C1091 C1090 1.400 . S
C1091 C1092 1.398 . S
C1091 C1097 1.491 . S
C1092 H1083 0.950 . S
C1092 C1091 1.398 . S
C1092 C1093 1.391 . S
C1093 H1081 0.950 . S
C1093 C1089 1.393 . S
C1093 C1092 1.391 . S
C1094 H1084 0.950 . S
C1094 C1095 1.386 . S
C1094 C1096 1.391 . S
C1095 C1094 1.386 . S
C1095 C1099 1.393 . S
C1096 H1085 0.950 . S
C1096 C1094 1.391 . S
C1096 C1097 1.400 . S
C1097 C1091 1.491 . S
C1097 C1096 1.400 . S
C1097 C1098 1.398 . S
C1098 H1086 0.950 . S
C1098 C1097 1.398 . S
C1098 C1099 1.391 . S
C1099 H1087 0.950 . S
C1099 C1095 1.393 . S
C1099 C1098 1.391 . S
H1100 C1108 0.950 . S
H1101 C1113 0.950 . S
H1102 C1110 0.950 . S
H1103 C1112 0.950 . S
H1104 C1114 0.950 . S
H1105 C1116 0.950 . S
H1106 C1118 0.952 1_545 S
H1107 C1119 0.950 . S
C1108 H1100 0.950 . S
C1108 C1109 1.386 . S
C1108 C1110 1.391 . S
C1109 C1108 1.386 . S
C1109 C1113 1.393 . S
C1110 H1102 0.950 . S
C1110 C1108 1.391 . S
C1110 C1111 1.400 . S
C1111 C1110 1.400 . S
C1111 C1112 1.398 . S
C1111 C1117 1.491 . S
C1112 H1103 0.950 . S
C1112 C1111 1.398 . S
C1112 C1113 1.391 . S
C1113 H1101 0.950 . S
C1113 C1109 1.393 . S
C1113 C1112 1.391 . S
C1114 H1104 0.950 . S
C1114 C1115 1.386 . S
C1114 C1116 1.391 . S
C1115 C1114 1.386 . S
C1115 C1119 1.393 1_565 S
C1116 H1105 0.950 . S
C1116 C1114 1.391 . S
C1116 C1117 1.400 . S
C1117 C1111 1.491 . S
C1117 C1116 1.400 . S
C1117 C1118 1.398 . S
C1118 H1106 0.952 1_565 S
C1118 C1117 1.398 . S
C1118 C1119 1.391 1_565 S
C1119 H1107 0.950 . S
C1119 C1115 1.393 1_545 S
C1119 C1118 1.391 1_545 S
H1120 C1128 0.950 . S
H1121 C1133 0.950 . S
H1122 C1130 0.950 . S
H1123 C1132 0.950 . S
H1124 C1134 0.950 . S
H1125 C1136 0.950 . S
H1126 C1138 0.950 . S
H1127 C1139 0.950 . S
C1128 H1120 0.950 . S
C1128 C1129 1.386 . S
C1128 C1130 1.391 . S
C1129 C1128 1.386 . S
C1129 C1133 1.393 . S
C1130 H1122 0.950 . S
C1130 C1128 1.391 . S
C1130 C1131 1.400 . S
C1131 C1130 1.400 . S
C1131 C1132 1.398 . S
C1131 C1137 1.491 . S
C1132 H1123 0.950 . S
C1132 C1131 1.398 . S
C1132 C1133 1.391 . S
C1133 H1121 0.950 . S
C1133 C1129 1.393 . S
C1133 C1132 1.391 . S
C1134 H1124 0.950 . S
C1134 C1135 1.386 . S
C1134 C1136 1.391 . S
C1135 C1134 1.386 . S
C1135 C1139 1.393 . S
C1136 H1125 0.950 . S
C1136 C1134 1.391 . S
C1136 C1137 1.400 . S
C1137 C1131 1.491 . S
C1137 C1136 1.400 . S
C1137 C1138 1.398 . S
C1138 H1126 0.950 . S
C1138 C1137 1.398 . S
C1138 C1139 1.391 . S
C1139 H1127 0.950 . S
C1139 C1135 1.393 . S
C1139 C1138 1.391 . S
H1140 C1148 0.950 . S
H1141 C1153 0.950 . S
H1142 C1150 0.950 . S
H1143 C1152 0.950 . S
H1144 C1154 0.950 . S
H1145 C1156 0.950 . S
H1146 C1158 0.950 . S
H1147 C1159 0.950 . S
C1148 H1140 0.950 . S
C1148 C1149 1.386 . S
C1148 C1150 1.391 . S
C1149 C1148 1.386 . S
C1149 C1153 1.393 . S
C1150 H1142 0.950 . S
C1150 C1148 1.391 . S
C1150 C1151 1.400 . S
C1151 C1150 1.400 . S
C1151 C1152 1.398 . S
C1151 C1157 1.491 . S
C1152 H1143 0.950 . S
C1152 C1151 1.398 . S
C1152 C1153 1.391 . S
C1153 H1141 0.950 . S
C1153 C1149 1.393 . S
C1153 C1152 1.391 . S
C1154 H1144 0.950 . S
C1154 C1155 1.386 . S
C1154 C1156 1.391 . S
C1155 C1154 1.386 . S
C1155 C1159 1.393 . S
C1156 H1145 0.950 . S
C1156 C1154 1.391 . S
C1156 C1157 1.400 . S
C1157 C1151 1.491 . S
C1157 C1156 1.400 . S
C1157 C1158 1.398 . S
C1158 H1146 0.950 . S
C1158 C1157 1.398 . S
C1158 C1159 1.391 . S
C1159 H1147 0.950 . S
C1159 C1155 1.393 . S
C1159 C1158 1.391 . S
H1160 C1168 0.950 1_655 S
H1161 C1173 0.950 . S
H1162 C1170 0.950 . S
H1163 C1172 0.950 . S
H1164 C1174 0.950 1_554 S
H1165 C1176 0.950 . S
H1166 C1178 0.950 . S
H1167 C1179 0.950 . S
C1168 H1160 0.950 1_455 S
C1168 C1169 1.386 . S
C1168 C1170 1.391 . S
C1169 C1168 1.386 . S
C1169 C1173 1.393 . S
C1170 H1162 0.950 . S
C1170 C1168 1.391 . S
C1170 C1171 1.400 . S
C1171 C1170 1.400 . S
C1171 C1172 1.398 . S
C1171 C1177 1.491 . S
C1172 H1163 0.950 . S
C1172 C1171 1.398 . S
C1172 C1173 1.391 . S
C1173 H1161 0.950 . S
C1173 C1169 1.393 . S
C1173 C1172 1.391 . S
C1174 H1164 0.950 1_556 S
C1174 C1175 1.386 . S
C1174 C1176 1.391 . S
C1175 C1174 1.386 . S
C1175 C1179 1.393 . S
C1176 H1165 0.950 . S
C1176 C1174 1.391 . S
C1176 C1177 1.400 . S
C1177 C1171 1.491 . S
C1177 C1176 1.400 . S
C1177 C1178 1.398 . S
C1178 H1166 0.950 . S
C1178 C1177 1.398 . S
C1178 C1179 1.391 . S
C1179 H1167 0.950 . S
C1179 C1175 1.393 . S
C1179 C1178 1.391 . S
H1180 C1188 0.950 . S
H1181 C1193 0.950 . S
H1182 C1190 0.950 . S
H1183 C1192 0.950 . S
H1184 C1194 0.950 . S
H1185 C1196 0.950 . S
H1186 C1198 0.950 . S
H1187 C1199 0.950 . S
C1188 H1180 0.950 . S
C1188 C1189 1.386 . S
C1188 C1190 1.391 . S
C1189 C1188 1.386 . S
C1189 C1193 1.393 . S
C1190 H1182 0.950 . S
C1190 C1188 1.391 . S
C1190 C1191 1.400 . S
C1191 C1190 1.400 . S
C1191 C1192 1.398 . S
C1191 C1197 1.491 . S
C1192 H1183 0.950 . S
C1192 C1191 1.398 . S
C1192 C1193 1.391 . S
C1193 H1181 0.950 . S
C1193 C1189 1.393 . S
C1193 C1192 1.391 . S
C1194 H1184 0.950 . S
C1194 C1195 1.386 . S
C1194 C1196 1.391 . S
C1195 C1194 1.386 . S
C1195 C1199 1.393 . S
C1196 H1185 0.950 . S
C1196 C1194 1.391 . S
C1196 C1197 1.400 . S
C1197 C1191 1.491 . S
C1197 C1196 1.400 . S
C1197 C1198 1.398 . S
C1198 H1186 0.950 . S
C1198 C1197 1.398 . S
C1198 C1199 1.391 . S
C1199 H1187 0.950 . S
C1199 C1195 1.393 . S
C1199 C1198 1.391 . S
H1200 C1208 0.950 . S
H1201 C1213 0.950 . S
H1202 C1210 0.950 . S
H1203 C1212 0.950 . S
H1204 C1214 0.950 . S
H1205 C1216 0.950 . S
H1206 C1218 0.950 . S
H1207 C1219 0.950 . S
C1208 H1200 0.950 . S
C1208 C1209 1.386 . S
C1208 C1210 1.391 . S
C1209 C1208 1.386 . S
C1209 C1213 1.393 . S
C1210 H1202 0.950 . S
C1210 C1208 1.391 . S
C1210 C1211 1.400 . S
C1211 C1210 1.400 . S
C1211 C1212 1.398 . S
C1211 C1217 1.491 . S
C1212 H1203 0.950 . S
C1212 C1211 1.398 . S
C1212 C1213 1.391 . S
C1213 H1201 0.950 . S
C1213 C1209 1.393 . S
C1213 C1212 1.391 . S
C1214 H1204 0.950 . S
C1214 C1215 1.386 . S
C1214 C1216 1.391 . S
C1215 C1214 1.386 . S
C1215 C1219 1.393 . S
C1216 H1205 0.950 . S
C1216 C1214 1.391 . S
C1216 C1217 1.400 . S
C1217 C1211 1.491 . S
C1217 C1216 1.400 . S
C1217 C1218 1.398 . S
C1218 H1206 0.950 . S
C1218 C1217 1.398 . S
C1218 C1219 1.391 . S
C1219 H1207 0.950 . S
C1219 C1215 1.393 . S
C1219 C1218 1.391 . S
H1220 C1228 0.950 . S
H1221 C1233 0.950 . S
H1222 C1230 0.950 . S
H1223 C1232 0.950 . S
H1224 C1234 0.950 . S
H1225 C1236 0.950 . S
H1226 C1238 0.950 . S
H1227 C1239 0.950 . S
C1228 H1220 0.950 . S
C1228 C1229 1.386 . S
C1228 C1230 1.391 . S
C1229 C1228 1.386 . S
C1229 C1233 1.393 . S
C1230 H1222 0.950 . S
C1230 C1228 1.391 . S
C1230 C1231 1.400 . S
C1231 C1230 1.400 . S
C1231 C1232 1.398 . S
C1231 C1237 1.491 . S
C1232 H1223 0.950 . S
C1232 C1231 1.398 . S
C1232 C1233 1.391 . S
C1233 H1221 0.950 . S
C1233 C1229 1.393 . S
C1233 C1232 1.391 . S
C1234 H1224 0.950 . S
C1234 C1235 1.386 . S
C1234 C1236 1.391 . S
C1235 C1234 1.386 . S
C1235 C1239 1.393 . S
C1236 H1225 0.950 . S
C1236 C1234 1.391 . S
C1236 C1237 1.400 . S
C1237 C1231 1.491 . S
C1237 C1236 1.400 . S
C1237 C1238 1.398 . S
C1238 H1226 0.950 . S
C1238 C1237 1.398 . S
C1238 C1239 1.391 . S
C1239 H1227 0.950 . S
C1239 C1235 1.393 . S
C1239 C1238 1.391 . S
H1240 C1248 0.950 . S
H1241 C1253 0.950 . S
H1242 C1250 0.950 . S
H1243 C1252 0.950 . S
H1244 C1254 0.950 . S
H1245 C1256 0.950 . S
H1246 C1258 0.950 1_655 S
H1247 C1259 0.950 . S
C1248 H1240 0.950 . S
C1248 C1249 1.386 1_655 S
C1248 C1250 1.391 . S
C1249 C1248 1.386 1_455 S
C1249 C1253 1.393 . S
C1250 H1242 0.950 . S
C1250 C1248 1.391 . S
C1250 C1251 1.400 1_655 S
C1251 C1250 1.400 1_455 S
C1251 C1252 1.398 . S
C1251 C1257 1.491 . S
C1252 H1243 0.950 . S
C1252 C1251 1.398 . S
C1252 C1253 1.391 . S
C1253 H1241 0.950 . S
C1253 C1249 1.393 . S
C1253 C1252 1.391 . S
C1254 H1244 0.950 . S
C1254 C1255 1.386 . S
C1254 C1256 1.391 . S
C1255 C1254 1.386 . S
C1255 C1259 1.393 . S
C1256 H1245 0.950 . S
C1256 C1254 1.391 . S
C1256 C1257 1.400 . S
C1257 C1251 1.491 . S
C1257 C1256 1.400 . S
C1257 C1258 1.398 . S
C1258 H1246 0.950 1_455 S
C1258 C1257 1.398 . S
C1258 C1259 1.391 . S
C1259 H1247 0.950 . S
C1259 C1255 1.393 . S
C1259 C1258 1.391 . S
H1260 C1268 0.950 . S
H1261 C1273 0.950 . S
H1262 C1270 0.950 . S
H1263 C1272 0.950 . S
H1264 C1274 0.950 . S
H1265 C1276 0.950 . S
H1266 C1278 0.950 . S
H1267 C1279 0.950 . S
C1268 H1260 0.950 . S
C1268 C1269 1.386 . S
C1268 C1270 1.391 . S
C1269 C1268 1.386 . S
C1269 C1273 1.393 . S
C1270 H1262 0.950 . S
C1270 C1268 1.391 . S
C1270 C1271 1.400 . S
C1271 C1270 1.400 . S
C1271 C1272 1.398 . S
C1271 C1277 1.491 . S
C1272 H1263 0.950 . S
C1272 C1271 1.398 . S
C1272 C1273 1.391 . S
C1273 H1261 0.950 . S
C1273 C1269 1.393 . S
C1273 C1272 1.391 . S
C1274 H1264 0.950 . S
C1274 C1275 1.386 . S
C1274 C1276 1.391 . S
C1275 C1274 1.386 . S
C1275 C1279 1.393 . S
C1276 H1265 0.950 . S
C1276 C1274 1.391 . S
C1276 C1277 1.400 . S
C1277 C1271 1.491 . S
C1277 C1276 1.400 . S
C1277 C1278 1.398 . S
C1278 H1266 0.950 . S
C1278 C1277 1.398 . S
C1278 C1279 1.391 . S
C1279 H1267 0.950 . S
C1279 C1275 1.393 . S
C1279 C1278 1.391 . S
H1280 C1288 0.950 . S
H1281 C1293 0.950 . S
H1282 C1290 0.950 . S
H1283 C1292 0.950 . S
H1284 C1294 0.950 . S
H1285 C1296 0.950 . S
H1286 C1298 0.950 . S
H1287 C1299 0.950 . S
C1288 H1280 0.950 . S
C1288 C1289 1.386 . S
C1288 C1290 1.391 . S
C1289 C1288 1.386 . S
C1289 C1293 1.393 . S
C1290 H1282 0.950 . S
C1290 C1288 1.391 . S
C1290 C1291 1.400 . S
C1291 C1290 1.400 . S
C1291 C1292 1.398 . S
C1291 C1297 1.491 . S
C1292 H1283 0.950 . S
C1292 C1291 1.398 . S
C1292 C1293 1.391 . S
C1293 H1281 0.950 . S
C1293 C1289 1.393 . S
C1293 C1292 1.391 . S
C1294 H1284 0.950 . S
C1294 C1295 1.386 . S
C1294 C1296 1.391 . S
C1295 C1294 1.386 . S
C1295 C1299 1.393 . S
C1296 H1285 0.950 . S
C1296 C1294 1.391 . S
C1296 C1297 1.400 . S
C1297 C1291 1.491 . S
C1297 C1296 1.400 . S
C1297 C1298 1.398 . S
C1298 H1286 0.950 . S
C1298 C1297 1.398 . S
C1298 C1299 1.391 . S
C1299 H1287 0.950 . S
C1299 C1295 1.393 . S
C1299 C1298 1.391 . S
H1300 C1308 0.950 . S
H1301 C1313 0.950 . S
H1302 C1310 0.950 . S
H1303 C1312 0.950 . S
H1304 C1314 0.950 . S
H1305 C1316 0.950 . S
H1306 C1318 0.950 . S
H1307 C1319 0.950 . S
C1308 H1300 0.950 . S
C1308 C1309 1.386 . S
C1308 C1310 1.391 . S
C1309 C1308 1.386 . S
C1309 C1313 1.393 . S
C1310 H1302 0.950 . S
C1310 C1308 1.391 . S
C1310 C1311 1.400 . S
C1311 C1310 1.400 . S
C1311 C1312 1.398 . S
C1311 C1317 1.491 . S
C1312 H1303 0.950 . S
C1312 C1311 1.398 . S
C1312 C1313 1.391 . S
C1313 H1301 0.950 . S
C1313 C1309 1.393 . S
C1313 C1312 1.391 . S
C1314 H1304 0.950 . S
C1314 C1315 1.386 . S
C1314 C1316 1.391 . S
C1315 C1314 1.386 . S
C1315 C1319 1.393 . S
C1316 H1305 0.950 . S
C1316 C1314 1.391 . S
C1316 C1317 1.400 . S
C1317 C1311 1.491 . S
C1317 C1316 1.400 . S
C1317 C1318 1.398 . S
C1318 H1306 0.950 . S
C1318 C1317 1.398 . S
C1318 C1319 1.391 . S
C1319 H1307 0.950 . S
C1319 C1315 1.393 . S
C1319 C1318 1.391 . S
H1320 C1328 0.950 . S
H1321 C1333 0.950 . S
H1322 C1330 0.950 . S
H1323 C1332 0.950 . S
H1324 C1334 0.942 1_455 S
H1325 C1336 0.950 . S
H1326 C1338 0.950 . S
H1327 C1339 0.950 . S
C1328 H1320 0.950 . S
C1328 C1329 1.386 . S
C1328 C1330 1.391 . S
C1329 C1328 1.386 . S
C1329 C1333 1.393 . S
C1330 H1322 0.950 . S
C1330 C1328 1.391 . S
C1330 C1331 1.400 . S
C1331 C1330 1.400 . S
C1331 C1332 1.398 . S
C1331 C1337 1.491 . S
C1332 H1323 0.950 . S
C1332 C1331 1.398 . S
C1332 C1333 1.391 . S
C1333 H1321 0.950 . S
C1333 C1329 1.393 . S
C1333 C1332 1.391 . S
C1334 H1324 0.942 1_655 S
C1334 C1335 1.386 . S
C1334 C1336 1.391 . S
C1335 C1334 1.386 . S
C1335 C1339 1.393 . S
C1336 H1325 0.950 . S
C1336 C1334 1.391 . S
C1336 C1337 1.400 . S
C1337 C1331 1.491 . S
C1337 C1336 1.400 . S
C1337 C1338 1.398 . S
C1338 H1326 0.950 . S
C1338 C1337 1.398 . S
C1338 C1339 1.391 . S
C1339 H1327 0.950 . S
C1339 C1335 1.393 . S
C1339 C1338 1.391 . S
H1340 C1348 0.950 . S
H1341 C1353 0.950 . S
H1342 C1350 0.950 . S
H1343 C1352 0.950 . S
H1344 C1354 0.950 . S
H1345 C1356 0.950 . S
H1346 C1358 0.950 . S
H1347 C1359 0.950 . S
C1348 H1340 0.950 . S
C1348 C1349 1.386 . S
C1348 C1350 1.391 . S
C1349 C1348 1.386 . S
C1349 C1353 1.393 . S
C1350 H1342 0.950 . S
C1350 C1348 1.391 . S
C1350 C1351 1.400 . S
C1351 C1350 1.400 . S
C1351 C1352 1.398 . S
C1351 C1357 1.491 . S
C1352 H1343 0.950 . S
C1352 C1351 1.398 . S
C1352 C1353 1.391 . S
C1353 H1341 0.950 . S
C1353 C1349 1.393 . S
C1353 C1352 1.391 . S
C1354 H1344 0.950 . S
C1354 C1355 1.386 . S
C1354 C1356 1.391 . S
C1355 C1354 1.386 . S
C1355 C1359 1.393 . S
C1356 H1345 0.950 . S
C1356 C1354 1.391 . S
C1356 C1357 1.400 . S
C1357 C1351 1.491 . S
C1357 C1356 1.400 . S
C1357 C1358 1.398 . S
C1358 H1346 0.950 . S
C1358 C1357 1.398 . S
C1358 C1359 1.391 . S
C1359 H1347 0.950 . S
C1359 C1355 1.393 . S
C1359 C1358 1.391 . S
H1360 C1368 0.950 . S
H1361 C1373 0.950 . S
H1362 C1370 0.950 . S
H1363 C1372 0.950 . S
H1364 C1374 0.950 . S
H1365 C1376 0.950 . S
H1366 C1378 0.950 . S
H1367 C1379 0.950 . S
C1368 H1360 0.950 . S
C1368 C1369 1.386 1_565 S
C1368 C1370 1.391 . S
C1369 C1368 1.386 1_545 S
C1369 C1373 1.393 . S
C1370 H1362 0.950 . S
C1370 C1368 1.391 . S
C1370 C1371 1.400 . S
C1371 C1370 1.400 . S
C1371 C1372 1.398 1_565 S
C1371 C1377 1.491 . S
C1372 H1363 0.950 . S
C1372 C1371 1.398 1_545 S
C1372 C1373 1.391 . S
C1373 H1361 0.950 . S
C1373 C1369 1.393 . S
C1373 C1372 1.391 . S
C1374 H1364 0.950 . S
C1374 C1375 1.386 1_545 S
C1374 C1376 1.391 . S
C1375 C1374 1.386 1_565 S
C1375 C1379 1.393 . S
C1376 H1365 0.950 . S
C1376 C1374 1.391 . S
C1376 C1377 1.400 1_545 S
C1377 C1371 1.491 . S
C1377 C1376 1.400 1_565 S
C1377 C1378 1.398 . S
C1378 H1366 0.950 . S
C1378 C1377 1.398 . S
C1378 C1379 1.391 . S
C1379 H1367 0.950 . S
C1379 C1375 1.393 . S
C1379 C1378 1.391 . S
H1380 C1388 0.950 . S
H1381 C1393 0.950 . S
H1382 C1390 0.950 . S
H1383 C1392 0.950 . S
H1384 C1394 0.950 . S
H1385 C1396 0.950 . S
H1386 C1398 0.950 . S
H1387 C1399 0.950 . S
C1388 H1380 0.950 . S
C1388 C1389 1.386 . S
C1388 C1390 1.391 . S
C1389 C1388 1.386 . S
C1389 C1393 1.393 . S
C1390 H1382 0.950 . S
C1390 C1388 1.391 . S
C1390 C1391 1.400 . S
C1391 C1390 1.400 . S
C1391 C1392 1.398 . S
C1391 C1397 1.491 . S
C1392 H1383 0.950 . S
C1392 C1391 1.398 . S
C1392 C1393 1.391 . S
C1393 H1381 0.950 . S
C1393 C1389 1.393 . S
C1393 C1392 1.391 . S
C1394 H1384 0.950 . S
C1394 C1395 1.386 . S
C1394 C1396 1.391 . S
C1395 C1394 1.386 . S
C1395 C1399 1.393 . S
C1396 H1385 0.950 . S
C1396 C1394 1.391 . S
C1396 C1397 1.400 . S
C1397 C1391 1.491 . S
C1397 C1396 1.400 . S
C1397 C1398 1.398 . S
C1398 H1386 0.950 . S
C1398 C1397 1.398 . S
C1398 C1399 1.391 . S
C1399 H1387 0.950 . S
C1399 C1395 1.393 . S
C1399 C1398 1.391 . S
H1400 C1408 0.950 1_565 S
H1401 C1413 0.950 . S
H1402 C1410 0.980 . S
H1403 C1412 0.950 . S
H1404 C1414 0.950 . S
H1405 C1416 0.950 . S
H1406 C1418 0.950 . S
H1407 C1419 0.950 . S
C1408 H1400 0.950 1_545 S
C1408 C1409 1.386 . S
C1408 C1410 1.384 1_545 S
C1409 C1408 1.386 . S
C1409 C1413 1.393 . S
C1410 H1402 0.980 . S
C1410 C1408 1.384 1_565 S
C1410 C1411 1.378 1_565 S
C1411 C1410 1.378 1_545 S
C1411 C1412 1.398 . S
C1411 C1417 1.491 . S
C1412 H1403 0.950 . S
C1412 C1411 1.398 . S
C1412 C1413 1.391 . S
C1413 H1401 0.950 . S
C1413 C1409 1.393 . S
C1413 C1412 1.391 . S
C1414 H1404 0.950 . S
C1414 C1415 1.371 1_545 S
C1414 C1416 1.391 . S
C1415 C1414 1.371 1_565 S
C1415 C1419 1.404 . S
C1416 H1405 0.950 . S
C1416 C1414 1.391 . S
C1416 C1417 1.400 . S
C1417 C1411 1.491 . S
C1417 C1416 1.400 . S
C1417 C1418 1.398 1_545 S
C1418 H1406 0.950 . S
C1418 C1417 1.398 1_565 S
C1418 C1419 1.391 . S
C1419 H1407 0.950 . S
C1419 C1415 1.404 . S
C1419 C1418 1.391 . S
H1420 C1428 0.950 . S
H1421 C1433 0.950 . S
H1422 C1430 0.950 . S
H1423 C1432 0.950 . S
H1424 C1434 0.950 . S
H1425 C1436 0.950 . S
H1426 C1438 0.950 . S
H1427 C1439 0.950 . S
C1428 H1420 0.950 . S
C1428 C1429 1.386 . S
C1428 C1430 1.391 . S
C1429 C1428 1.386 . S
C1429 C1433 1.393 . S
C1430 H1422 0.950 . S
C1430 C1428 1.391 . S
C1430 C1431 1.400 . S
C1431 C1430 1.400 . S
C1431 C1432 1.398 . S
C1431 C1437 1.491 . S
C1432 H1423 0.950 . S
C1432 C1431 1.398 . S
C1432 C1433 1.391 . S
C1433 H1421 0.950 . S
C1433 C1429 1.393 . S
C1433 C1432 1.391 . S
C1434 H1424 0.950 . S
C1434 C1435 1.386 . S
C1434 C1436 1.391 . S
C1435 C1434 1.386 . S
C1435 C1439 1.393 . S
C1436 H1425 0.950 . S
C1436 C1434 1.391 . S
C1436 C1437 1.400 . S
C1437 C1431 1.491 . S
C1437 C1436 1.400 . S
C1437 C1438 1.398 . S
C1438 H1426 0.950 . S
C1438 C1437 1.398 . S
C1438 C1439 1.391 . S
C1439 H1427 0.950 . S
C1439 C1435 1.393 . S
C1439 C1438 1.391 . S
H1440 C1448 0.950 . S
H1441 C1453 0.950 . S
H1442 C1450 0.950 . S
H1443 C1452 0.950 . S
H1444 C1454 0.950 . S
H1445 C1456 0.950 . S
H1446 C1458 0.950 . S
H1447 C1459 0.950 . S
C1448 H1440 0.950 . S
C1448 C1449 1.386 . S
C1448 C1450 1.391 . S
C1449 C1448 1.386 . S
C1449 C1453 1.393 1_565 S
C1450 H1442 0.950 . S
C1450 C1448 1.391 . S
C1450 C1451 1.400 1_565 S
C1451 C1450 1.400 1_545 S
C1451 C1452 1.398 . S
C1451 C1457 1.491 . S
C1452 H1443 0.950 . S
C1452 C1451 1.398 . S
C1452 C1453 1.391 . S
C1453 H1441 0.950 . S
C1453 C1449 1.393 1_545 S
C1453 C1452 1.391 . S
C1454 H1444 0.950 . S
C1454 C1455 1.386 . S
C1454 C1456 1.391 . S
C1455 C1454 1.386 . S
C1455 C1459 1.393 1_545 S
C1456 H1445 0.950 . S
C1456 C1454 1.391 . S
C1456 C1457 1.400 . S
C1457 C1451 1.491 . S
C1457 C1456 1.400 . S
C1457 C1458 1.398 1_545 S
C1458 H1446 0.950 . S
C1458 C1457 1.398 1_565 S
C1458 C1459 1.391 . S
C1459 H1447 0.950 . S
C1459 C1455 1.393 1_565 S
C1459 C1458 1.391 . S
H1460 C1468 0.950 . S
H1461 C1473 0.950 . S
H1462 C1470 0.950 . S
H1463 C1472 0.950 . S
H1464 C1474 0.950 . S
H1465 C1476 0.950 . S
H1466 C1478 0.950 . S
H1467 C1479 0.950 . S
C1468 H1460 0.950 . S
C1468 C1469 1.386 . S
C1468 C1470 1.391 . S
C1469 C1468 1.386 . S
C1469 C1473 1.393 . S
C1470 H1462 0.950 . S
C1470 C1468 1.391 . S
C1470 C1471 1.400 . S
C1471 C1470 1.400 . S
C1471 C1472 1.398 . S
C1471 C1477 1.491 . S
C1472 H1463 0.950 . S
C1472 C1471 1.398 . S
C1472 C1473 1.391 . S
C1473 H1461 0.950 . S
C1473 C1469 1.393 . S
C1473 C1472 1.391 . S
C1474 H1464 0.950 . S
C1474 C1475 1.386 . S
C1474 C1476 1.391 . S
C1475 C1474 1.386 . S
C1475 C1479 1.393 . S
C1476 H1465 0.950 . S
C1476 C1474 1.391 . S
C1476 C1477 1.400 . S
C1477 C1471 1.491 . S
C1477 C1476 1.400 . S
C1477 C1478 1.398 . S
C1478 H1466 0.950 . S
C1478 C1477 1.398 . S
C1478 C1479 1.391 . S
C1479 H1467 0.950 . S
C1479 C1475 1.393 . S
C1479 C1478 1.391 . S
H1480 C1488 0.950 1_556 S
H1481 C1493 0.950 . S
H1482 C1490 0.950 . S
H1483 C1492 0.950 . S
H1484 C1494 0.950 . S
H1485 C1496 0.950 . S
H1486 C1498 0.950 . S
H1487 C1499 0.950 . S
C1488 H1480 0.950 1_554 S
C1488 C1489 1.386 . S
C1488 C1490 1.391 . S
C1489 C1488 1.386 . S
C1489 C1493 1.393 . S
C1490 H1482 0.950 . S
C1490 C1488 1.391 . S
C1490 C1491 1.400 . S
C1491 C1490 1.400 . S
C1491 C1492 1.398 . S
C1491 C1497 1.491 . S
C1492 H1483 0.950 . S
C1492 C1491 1.398 . S
C1492 C1493 1.391 . S
C1493 H1481 0.950 . S
C1493 C1489 1.393 . S
C1493 C1492 1.391 . S
C1494 H1484 0.950 . S
C1494 C1495 1.386 . S
C1494 C1496 1.391 . S
C1495 C1494 1.386 . S
C1495 C1499 1.393 . S
C1496 H1485 0.950 . S
C1496 C1494 1.391 . S
C1496 C1497 1.400 . S
C1497 C1491 1.491 . S
C1497 C1496 1.400 . S
C1497 C1498 1.398 . S
C1498 H1486 0.950 . S
C1498 C1497 1.398 . S
C1498 C1499 1.391 . S
C1499 H1487 0.950 . S
C1499 C1495 1.393 . S
C1499 C1498 1.391 . S
H1500 C1508 0.950 . S
H1501 C1513 0.950 . S
H1502 C1510 0.950 . S
H1503 C1512 0.950 . S
H1504 C1514 0.950 . S
H1505 C1516 0.950 . S
H1506 C1518 0.950 . S
H1507 C1519 0.950 . S
C1508 H1500 0.950 . S
C1508 C1509 1.386 1_556 S
C1508 C1510 1.391 . S
C1509 C1508 1.386 1_554 S
C1509 C1513 1.393 . S
C1510 H1502 0.950 . S
C1510 C1508 1.391 . S
C1510 C1511 1.400 1_556 S
C1511 C1510 1.400 1_554 S
C1511 C1512 1.398 . S
C1511 C1517 1.491 1_554 S
C1512 H1503 0.950 . S
C1512 C1511 1.398 . S
C1512 C1513 1.391 . S
C1513 H1501 0.950 . S
C1513 C1509 1.393 . S
C1513 C1512 1.391 . S
C1514 H1504 0.950 . S
C1514 C1515 1.386 1_554 S
C1514 C1516 1.391 . S
C1515 C1514 1.386 1_556 S
C1515 C1519 1.393 . S
C1516 H1505 0.950 . S
C1516 C1514 1.391 . S
C1516 C1517 1.400 1_554 S
C1517 C1511 1.491 1_556 S
C1517 C1516 1.400 1_556 S
C1517 C1518 1.398 . S
C1518 H1506 0.950 . S
C1518 C1517 1.398 . S
C1518 C1519 1.391 . S
C1519 H1507 0.950 . S
C1519 C1515 1.393 . S
C1519 C1518 1.391 . S
H1520 C1528 0.950 . S
H1521 C1533 0.950 . S
H1522 C1530 0.950 . S
H1523 C1532 0.950 . S
H1524 C1534 0.950 . S
H1525 C1536 0.950 . S
H1526 C1538 0.950 . S
H1527 C1539 0.950 . S
C1528 H1520 0.950 . S
C1528 C1529 1.386 . S
C1528 C1530 1.391 . S
C1529 C1528 1.386 . S
C1529 C1533 1.393 . S
C1530 H1522 0.950 . S
C1530 C1528 1.391 . S
C1530 C1531 1.400 . S
C1531 C1530 1.400 . S
C1531 C1532 1.398 . S
C1531 C1537 1.491 . S
C1532 H1523 0.950 . S
C1532 C1531 1.398 . S
C1532 C1533 1.391 . S
C1533 H1521 0.950 . S
C1533 C1529 1.393 . S
C1533 C1532 1.391 . S
C1534 H1524 0.950 . S
C1534 C1535 1.386 . S
C1534 C1536 1.391 . S
C1535 C1534 1.386 . S
C1535 C1539 1.393 . S
C1536 H1525 0.950 . S
C1536 C1534 1.391 . S
C1536 C1537 1.400 . S
C1537 C1531 1.491 . S
C1537 C1536 1.400 . S
C1537 C1538 1.398 . S
C1538 H1526 0.950 . S
C1538 C1537 1.398 . S
C1538 C1539 1.391 . S
C1539 H1527 0.950 . S
C1539 C1535 1.393 . S
C1539 C1538 1.391 . S
H1540 C1548 0.950 . S
H1541 C1553 0.950 . S
H1542 C1550 0.950 . S
H1543 C1552 0.950 . S
H1544 C1554 0.950 . S
H1545 C1556 0.950 . S
H1546 C1558 0.950 . S
H1547 C1559 0.950 . S
C1548 H1540 0.950 . S
C1548 C1549 1.386 . S
C1548 C1550 1.391 . S
C1549 C1548 1.386 . S
C1549 C1553 1.393 . S
C1550 H1542 0.950 . S
C1550 C1548 1.391 . S
C1550 C1551 1.400 . S
C1551 C1550 1.400 . S
C1551 C1552 1.398 . S
C1551 C1557 1.491 . S
C1552 H1543 0.950 . S
C1552 C1551 1.398 . S
C1552 C1553 1.391 . S
C1553 H1541 0.950 . S
C1553 C1549 1.393 . S
C1553 C1552 1.391 . S
C1554 H1544 0.950 . S
C1554 C1555 1.386 . S
C1554 C1556 1.391 . S
C1555 C1554 1.386 . S
C1555 C1559 1.393 . S
C1556 H1545 0.950 . S
C1556 C1554 1.391 . S
C1556 C1557 1.400 . S
C1557 C1551 1.491 . S
C1557 C1556 1.400 . S
C1557 C1558 1.398 . S
C1558 H1546 0.950 . S
C1558 C1557 1.398 . S
C1558 C1559 1.391 . S
C1559 H1547 0.950 . S
C1559 C1555 1.393 . S
C1559 C1558 1.391 . S
H1560 C1568 0.950 . S
H1561 C1573 0.950 . S
H1562 C1570 0.950 . S
H1563 C1572 0.950 . S
H1564 C1574 0.950 . S
H1565 C1576 0.950 . S
H1566 C1578 0.950 . S
H1567 C1579 0.950 . S
C1568 H1560 0.950 . S
C1568 C1569 1.386 . S
C1568 C1570 1.391 . S
C1569 C1568 1.386 . S
C1569 C1573 1.393 . S
C1570 H1562 0.950 . S
C1570 C1568 1.391 . S
C1570 C1571 1.400 . S
C1571 C1570 1.400 . S
C1571 C1572 1.398 . S
C1571 C1577 1.491 . S
C1572 H1563 0.950 . S
C1572 C1571 1.398 . S
C1572 C1573 1.391 . S
C1573 H1561 0.950 . S
C1573 C1569 1.393 . S
C1573 C1572 1.391 . S
C1574 H1564 0.950 . S
C1574 C1575 1.386 . S
C1574 C1576 1.391 . S
C1575 C1574 1.386 . S
C1575 C1579 1.393 . S
C1576 H1565 0.950 . S
C1576 C1574 1.391 . S
C1576 C1577 1.400 . S
C1577 C1571 1.491 . S
C1577 C1576 1.400 . S
C1577 C1578 1.398 . S
C1578 H1566 0.950 . S
C1578 C1577 1.398 . S
C1578 C1579 1.391 . S
C1579 H1567 0.950 . S
C1579 C1575 1.393 . S
C1579 C1578 1.391 . S
H1580 C1588 0.950 . S
H1581 C1593 0.950 . S
H1582 C1590 0.950 . S
H1583 C1592 0.950 . S
H1584 C1594 0.950 . S
H1585 C1596 0.950 . S
H1586 C1598 0.950 . S
H1587 C1599 0.950 . S
C1588 H1580 0.950 . S
C1588 C1589 1.386 . S
C1588 C1590 1.391 . S
C1589 C1588 1.386 . S
C1589 C1593 1.393 . S
C1590 H1582 0.950 . S
C1590 C1588 1.391 . S
C1590 C1591 1.400 . S
C1591 C1590 1.400 . S
C1591 C1592 1.398 . S
C1591 C1597 1.491 . S
C1592 H1583 0.950 . S
C1592 C1591 1.398 . S
C1592 C1593 1.391 . S
C1593 H1581 0.950 . S
C1593 C1589 1.393 . S
C1593 C1592 1.391 . S
C1594 H1584 0.950 . S
C1594 C1595 1.386 . S
C1594 C1596 1.391 . S
C1595 C1594 1.386 . S
C1595 C1599 1.393 . S
C1596 H1585 0.950 . S
C1596 C1594 1.391 . S
C1596 C1597 1.400 . S
C1597 C1591 1.491 . S
C1597 C1596 1.400 . S
C1597 C1598 1.398 . S
C1598 H1586 0.950 . S
C1598 C1597 1.398 . S
C1598 C1599 1.391 . S
C1599 H1587 0.950 . S
C1599 C1595 1.393 . S
C1599 C1598 1.391 . S
H1600 C1608 0.950 . S
H1601 C1613 0.950 . S
H1602 C1610 0.950 . S
H1603 C1612 0.950 . S
H1604 C1614 0.950 . S
H1605 C1616 0.950 . S
H1606 C1618 0.950 . S
H1607 C1619 0.950 . S
C1608 H1600 0.950 . S
C1608 C1609 1.386 . S
C1608 C1610 1.391 . S
C1609 C1608 1.386 . S
C1609 C1613 1.393 . S
C1610 H1602 0.950 . S
C1610 C1608 1.391 . S
C1610 C1611 1.400 . S
C1611 C1610 1.400 . S
C1611 C1612 1.398 . S
C1611 C1617 1.491 . S
C1612 H1603 0.950 . S
C1612 C1611 1.398 . S
C1612 C1613 1.391 . S
C1613 H1601 0.950 . S
C1613 C1609 1.393 . S
C1613 C1612 1.391 . S
C1614 H1604 0.950 . S
C1614 C1615 1.386 . S
C1614 C1616 1.391 . S
C1615 C1614 1.386 . S
C1615 C1619 1.393 . S
C1616 H1605 0.950 . S
C1616 C1614 1.391 . S
C1616 C1617 1.400 . S
C1617 C1611 1.491 . S
C1617 C1616 1.400 . S
C1617 C1618 1.398 . S
C1618 H1606 0.950 . S
C1618 C1617 1.398 . S
C1618 C1619 1.391 . S
C1619 H1607 0.950 . S
C1619 C1615 1.393 . S
C1619 C1618 1.391 . S
H1620 C1628 0.950 . S
H1621 C1633 0.950 . S
H1622 C1630 0.950 . S
H1623 C1632 0.950 . S
H1624 C1634 0.950 . S
H1625 C1636 0.950 . S
H1626 C1638 0.950 . S
H1627 C1639 0.950 . S
C1628 H1620 0.950 . S
C1628 C1629 1.386 . S
C1628 C1630 1.391 . S
C1629 C1628 1.386 . S
C1629 C1633 1.393 . S
C1630 H1622 0.950 . S
C1630 C1628 1.391 . S
C1630 C1631 1.400 . S
C1631 C1630 1.400 . S
C1631 C1632 1.398 . S
C1631 C1637 1.491 . S
C1632 H1623 0.950 . S
C1632 C1631 1.398 . S
C1632 C1633 1.391 . S
C1633 H1621 0.950 . S
C1633 C1629 1.393 . S
C1633 C1632 1.391 . S
C1634 H1624 0.950 . S
C1634 C1635 1.386 . S
C1634 C1636 1.391 . S
C1635 C1634 1.386 . S
C1635 C1639 1.393 . S
C1636 H1625 0.950 . S
C1636 C1634 1.391 . S
C1636 C1637 1.400 . S
C1637 C1631 1.491 . S
C1637 C1636 1.400 . S
C1637 C1638 1.398 . S
C1638 H1626 0.950 . S
C1638 C1637 1.398 . S
C1638 C1639 1.391 . S
C1639 H1627 0.950 . S
C1639 C1635 1.393 . S
C1639 C1638 1.391 . S
H1640 C1648 0.950 . S
H1641 C1653 0.950 . S
H1642 C1650 0.950 . S
H1643 C1652 0.950 . S
H1644 C1654 0.950 . S
H1645 C1656 0.950 . S
H1646 C1658 0.950 . S
H1647 C1659 0.950 . S
C1648 H1640 0.950 . S
C1648 C1649 1.386 . S
C1648 C1650 1.391 . S
C1649 C1648 1.386 . S
C1649 C1653 1.393 . S
C1650 H1642 0.950 . S
C1650 C1648 1.391 . S
C1650 C1651 1.400 . S
C1651 C1650 1.400 . S
C1651 C1652 1.398 . S
C1651 C1657 1.491 . S
C1652 H1643 0.950 . S
C1652 C1651 1.398 . S
C1652 C1653 1.391 . S
C1653 H1641 0.950 . S
C1653 C1649 1.393 . S
C1653 C1652 1.391 . S
C1654 H1644 0.950 . S
C1654 C1655 1.386 . S
C1654 C1656 1.391 . S
C1655 C1654 1.386 . S
C1655 C1659 1.393 . S
C1656 H1645 0.950 . S
C1656 C1654 1.391 . S
C1656 C1657 1.400 . S
C1657 C1651 1.491 . S
C1657 C1656 1.400 . S
C1657 C1658 1.398 . S
C1658 H1646 0.950 . S
C1658 C1657 1.398 . S
C1658 C1659 1.391 . S
C1659 H1647 0.950 . S
C1659 C1655 1.393 . S
C1659 C1658 1.391 . S
H1660 C1668 0.950 . S
H1661 C1673 0.950 . S
H1662 C1670 0.950 . S
H1663 C1672 0.950 . S
H1664 C1674 0.950 . S
H1665 C1676 0.950 . S
H1666 C1678 0.950 . S
H1667 C1679 0.950 . S
C1668 H1660 0.950 . S
C1668 C1669 1.386 . S
C1668 C1670 1.391 . S
C1669 C1668 1.386 . S
C1669 C1673 1.393 . S
C1670 H1662 0.950 . S
C1670 C1668 1.391 . S
C1670 C1671 1.400 . S
C1671 C1670 1.400 . S
C1671 C1672 1.398 . S
C1671 C1677 1.491 . S
C1672 H1663 0.950 . S
C1672 C1671 1.398 . S
C1672 C1673 1.391 . S
C1673 H1661 0.950 . S
C1673 C1669 1.393 . S
C1673 C1672 1.391 . S
C1674 H1664 0.950 . S
C1674 C1675 1.386 . S
C1674 C1676 1.391 . S
C1675 C1674 1.386 . S
C1675 C1679 1.393 . S
C1676 H1665 0.950 . S
C1676 C1674 1.391 . S
C1676 C1677 1.400 . S
C1677 C1671 1.491 . S
C1677 C1676 1.400 . S
C1677 C1678 1.398 . S
C1678 H1666 0.950 . S
C1678 C1677 1.398 . S
C1678 C1679 1.391 . S
C1679 H1667 0.950 . S
C1679 C1675 1.393 . S
C1679 C1678 1.391 . S
H1680 C1688 0.950 . S
H1681 C1693 0.950 . S
H1682 C1690 0.950 1_655 S
H1683 C1692 0.950 . S
H1684 C1694 0.950 . S
H1685 C1696 0.950 . S
H1686 C1698 0.950 1_655 S
H1687 C1699 0.950 1_655 S
C1688 H1680 0.950 . S
C1688 C1689 1.386 1_655 S
C1688 C1690 1.391 1_655 S
C1689 C1688 1.386 1_455 S
C1689 C1693 1.393 . S
C1690 H1682 0.950 1_455 S
C1690 C1688 1.391 1_455 S
C1690 C1691 1.400 . S
C1691 C1690 1.400 . S
C1691 C1692 1.398 . S
C1691 C1697 1.491 . S
C1692 H1683 0.950 . S
C1692 C1691 1.398 . S
C1692 C1693 1.391 . S
C1693 H1681 0.950 . S
C1693 C1689 1.393 . S
C1693 C1692 1.391 . S
C1694 H1684 0.950 . S
C1694 C1695 1.386 . S
C1694 C1696 1.391 . S
C1695 C1694 1.386 . S
C1695 C1699 1.393 . S
C1696 H1685 0.950 . S
C1696 C1694 1.391 . S
C1696 C1697 1.400 . S
C1697 C1691 1.491 . S
C1697 C1696 1.400 . S
C1697 C1698 1.398 . S
C1698 H1686 0.950 1_455 S
C1698 C1697 1.398 . S
C1698 C1699 1.391 . S
C1699 H1687 0.950 1_455 S
C1699 C1695 1.393 . S
C1699 C1698 1.391 . S
H1700 C1708 0.950 . S
H1701 C1713 0.950 . S
H1702 C1710 0.950 . S
H1703 C1712 0.950 . S
H1704 C1714 0.950 . S
H1705 C1716 0.950 . S
H1706 C1718 0.950 . S
H1707 C1719 0.950 . S
C1708 H1700 0.950 . S
C1708 C1709 1.386 . S
C1708 C1710 1.391 . S
C1709 C1708 1.386 . S
C1709 C1713 1.393 . S
C1710 H1702 0.950 . S
C1710 C1708 1.391 . S
C1710 C1711 1.400 . S
C1711 C1710 1.400 . S
C1711 C1712 1.398 . S
C1711 C1717 1.491 . S
C1712 H1703 0.950 . S
C1712 C1711 1.398 . S
C1712 C1713 1.391 . S
C1713 H1701 0.950 . S
C1713 C1709 1.393 . S
C1713 C1712 1.391 . S
C1714 H1704 0.950 . S
C1714 C1715 1.386 . S
C1714 C1716 1.391 . S
C1715 C1714 1.386 . S
C1715 C1719 1.393 . S
C1716 H1705 0.950 . S
C1716 C1714 1.391 . S
C1716 C1717 1.400 . S
C1717 C1711 1.491 . S
C1717 C1716 1.400 . S
C1717 C1718 1.398 . S
C1718 H1706 0.950 . S
C1718 C1717 1.398 . S
C1718 C1719 1.391 . S
C1719 H1707 0.950 . S
C1719 C1715 1.393 . S
C1719 C1718 1.391 . S
H1720 C1728 0.950 . S
H1721 C1733 0.950 . S
H1722 C1730 0.950 . S
H1723 C1732 0.950 . S
H1724 C1734 0.956 . S
H1725 C1736 0.950 . S
H1726 C1738 0.950 . S
H1727 C1739 0.950 . S
C1728 H1720 0.950 . S
C1728 C1729 1.386 . S
C1728 C1730 1.391 . S
C1729 C1728 1.386 . S
C1729 C1733 1.393 . S
C1730 H1722 0.950 . S
C1730 C1728 1.391 . S
C1730 C1731 1.400 . S
C1731 C1730 1.400 . S
C1731 C1732 1.398 . S
C1731 C1737 1.491 . S
C1732 H1723 0.950 . S
C1732 C1731 1.398 . S
C1732 C1733 1.391 . S
C1733 H1721 0.950 . S
C1733 C1729 1.393 . S
C1733 C1732 1.391 . S
C1734 H1724 0.956 . S
C1734 C1735 1.385 1_554 S
C1734 C1736 1.385 1_554 S
C1735 C1734 1.385 1_556 S
C1735 C1739 1.393 . S
C1736 H1725 0.950 . S
C1736 C1734 1.385 1_556 S
C1736 C1737 1.400 . S
C1737 C1731 1.491 . S
C1737 C1736 1.400 . S
C1737 C1738 1.398 . S
C1738 H1726 0.950 . S
C1738 C1737 1.398 . S
C1738 C1739 1.391 . S
C1739 H1727 0.950 . S
C1739 C1735 1.393 . S
C1739 C1738 1.391 . S
H1740 C1748 0.950 . S
H1741 C1753 0.950 . S
H1742 C1750 0.950 . S
H1743 C1752 0.950 . S
H1744 C1754 0.950 . S
H1745 C1756 0.950 . S
H1746 C1758 0.950 . S
H1747 C1759 0.950 . S
C1748 H1740 0.950 . S
C1748 C1749 1.386 . S
C1748 C1750 1.391 . S
C1749 C1748 1.386 . S
C1749 C1753 1.393 . S
C1750 H1742 0.950 . S
C1750 C1748 1.391 . S
C1750 C1751 1.400 . S
C1751 C1750 1.400 . S
C1751 C1752 1.398 . S
C1751 C1757 1.491 . S
C1752 H1743 0.950 . S
C1752 C1751 1.398 . S
C1752 C1753 1.391 . S
C1753 H1741 0.950 . S
C1753 C1749 1.393 . S
C1753 C1752 1.391 . S
C1754 H1744 0.950 . S
C1754 C1755 1.386 . S
C1754 C1756 1.391 . S
C1755 C1754 1.386 . S
C1755 C1759 1.393 . S
C1756 H1745 0.950 . S
C1756 C1754 1.391 . S
C1756 C1757 1.400 . S
C1757 C1751 1.491 . S
C1757 C1756 1.400 . S
C1757 C1758 1.398 . S
C1758 H1746 0.950 . S
C1758 C1757 1.398 . S
C1758 C1759 1.391 . S
C1759 H1747 0.950 . S
C1759 C1755 1.393 . S
C1759 C1758 1.391 . S
H1760 C1768 0.938 1_655 S
H1761 C1773 0.950 . S
H1762 C1770 0.950 1_655 S
H1763 C1772 0.950 . S
H1764 C1774 0.950 . S
H1765 C1776 0.950 . S
H1766 C1778 0.950 1_655 S
H1767 C1779 0.948 . S
C1768 H1760 0.938 1_455 S
C1768 C1769 1.396 . S
C1768 C1770 1.393 . S
C1769 C1768 1.396 . S
C1769 C1773 1.393 . S
C1770 H1762 0.950 1_455 S
C1770 C1768 1.393 . S
C1770 C1771 1.400 . S
C1771 C1770 1.400 . S
C1771 C1772 1.398 . S
C1771 C1777 1.491 . S
C1772 H1763 0.950 . S
C1772 C1771 1.398 . S
C1772 C1773 1.391 . S
C1773 H1761 0.950 . S
C1773 C1769 1.393 . S
C1773 C1772 1.391 . S
C1774 H1764 0.950 . S
C1774 C1775 1.386 . S
C1774 C1776 1.391 . S
C1775 C1774 1.386 . S
C1775 C1779 1.393 . S
C1776 H1765 0.950 . S
C1776 C1774 1.391 . S
C1776 C1777 1.400 . S
C1777 C1771 1.491 . S
C1777 C1776 1.400 . S
C1777 C1778 1.398 . S
C1778 H1766 0.950 1_455 S
C1778 C1777 1.398 . S
C1778 C1779 1.391 . S
C1779 H1767 0.948 . S
C1779 C1775 1.393 . S
C1779 C1778 1.391 . S
H1780 C1788 0.950 . S
H1781 C1793 0.950 . S
H1782 C1790 0.950 . S
H1783 C1792 0.950 . S
H1784 C1794 0.950 . S
H1785 C1796 0.950 . S
H1786 C1798 0.950 . S
H1787 C1799 0.950 . S
C1788 H1780 0.950 . S
C1788 C1789 1.386 . S
C1788 C1790 1.391 . S
C1789 C1788 1.386 . S
C1789 C1793 1.393 . S
C1790 H1782 0.950 . S
C1790 C1788 1.391 . S
C1790 C1791 1.400 . S
C1791 C1790 1.400 . S
C1791 C1792 1.398 . S
C1791 C1797 1.491 . S
C1792 H1783 0.950 . S
C1792 C1791 1.398 . S
C1792 C1793 1.391 . S
C1793 H1781 0.950 . S
C1793 C1789 1.393 . S
C1793 C1792 1.391 . S
C1794 H1784 0.950 . S
C1794 C1795 1.386 . S
C1794 C1796 1.391 . S
C1795 C1794 1.386 . S
C1795 C1799 1.393 . S
C1796 H1785 0.950 . S
C1796 C1794 1.391 . S
C1796 C1797 1.400 . S
C1797 C1791 1.491 . S
C1797 C1796 1.400 . S
C1797 C1798 1.398 . S
C1798 H1786 0.950 . S
C1798 C1797 1.398 . S
C1798 C1799 1.391 . S
C1799 H1787 0.950 . S
C1799 C1795 1.393 . S
C1799 C1798 1.391 . S
H1800 C1808 0.950 . S
H1801 C1813 0.950 . S
H1802 C1810 0.950 . S
H1803 C1812 0.950 . S
H1804 C1814 0.950 . S
H1805 C1816 0.950 . S
H1806 C1818 0.950 . S
H1807 C1819 0.950 . S
C1808 H1800 0.950 . S
C1808 C1809 1.386 . S
C1808 C1810 1.391 . S
C1809 C1808 1.386 . S
C1809 C1813 1.393 . S
C1810 H1802 0.950 . S
C1810 C1808 1.391 . S
C1810 C1811 1.400 . S
C1811 C1810 1.400 . S
C1811 C1812 1.398 . S
C1811 C1817 1.491 . S
C1812 H1803 0.950 . S
C1812 C1811 1.398 . S
C1812 C1813 1.391 . S
C1813 H1801 0.950 . S
C1813 C1809 1.393 . S
C1813 C1812 1.391 . S
C1814 H1804 0.950 . S
C1814 C1815 1.386 . S
C1814 C1816 1.391 . S
C1815 C1814 1.386 . S
C1815 C1819 1.393 . S
C1816 H1805 0.950 . S
C1816 C1814 1.391 . S
C1816 C1817 1.400 . S
C1817 C1811 1.491 . S
C1817 C1816 1.400 . S
C1817 C1818 1.398 . S
C1818 H1806 0.950 . S
C1818 C1817 1.398 . S
C1818 C1819 1.391 . S
C1819 H1807 0.950 . S
C1819 C1815 1.393 . S
C1819 C1818 1.391 . S
H1820 C1828 0.950 . S
H1821 C1833 0.950 . S
H1822 C1830 0.950 . S
H1823 C1832 0.950 . S
H1824 C1834 0.950 . S
H1825 C1836 0.950 . S
H1826 C1838 0.950 . S
H1827 C1839 0.950 . S
C1828 H1820 0.950 . S
C1828 C1829 1.386 . S
C1828 C1830 1.391 . S
C1829 C1828 1.386 . S
C1829 C1833 1.393 . S
C1830 H1822 0.950 . S
C1830 C1828 1.391 . S
C1830 C1831 1.400 . S
C1831 C1830 1.400 . S
C1831 C1832 1.398 . S
C1831 C1837 1.491 . S
C1832 H1823 0.950 . S
C1832 C1831 1.398 . S
C1832 C1833 1.391 . S
C1833 H1821 0.950 . S
C1833 C1829 1.393 . S
C1833 C1832 1.391 . S
C1834 H1824 0.950 . S
C1834 C1835 1.386 . S
C1834 C1836 1.391 . S
C1835 C1834 1.386 . S
C1835 C1839 1.393 . S
C1836 H1825 0.950 . S
C1836 C1834 1.391 . S
C1836 C1837 1.400 . S
C1837 C1831 1.491 . S
C1837 C1836 1.400 . S
C1837 C1838 1.398 . S
C1838 H1826 0.950 . S
C1838 C1837 1.398 . S
C1838 C1839 1.391 . S
C1839 H1827 0.950 . S
C1839 C1835 1.393 . S
C1839 C1838 1.391 . S
H1840 C1848 0.950 . S
H1841 C1853 0.950 . S
H1842 C1850 0.950 . S
H1843 C1852 0.950 . S
H1844 C1854 0.935 1_455 S
H1845 C1856 0.950 . S
H1846 C1858 0.950 . S
H1847 C1859 0.950 . S
C1848 H1840 0.950 . S
C1848 C1849 1.386 . S
C1848 C1850 1.391 . S
C1849 C1848 1.386 . S
C1849 C1853 1.393 . S
C1850 H1842 0.950 . S
C1850 C1848 1.391 . S
C1850 C1851 1.400 . S
C1851 C1850 1.400 . S
C1851 C1852 1.398 . S
C1851 C1857 1.491 . S
C1852 H1843 0.950 . S
C1852 C1851 1.398 . S
C1852 C1853 1.391 . S
C1853 H1841 0.950 . S
C1853 C1849 1.393 . S
C1853 C1852 1.391 . S
C1854 H1844 0.935 1_655 S
C1854 C1855 1.386 . S
C1854 C1856 1.391 . S
C1855 C1854 1.386 . S
C1855 C1859 1.393 . S
C1856 H1845 0.950 . S
C1856 C1854 1.391 . S
C1856 C1857 1.400 . S
C1857 C1851 1.491 . S
C1857 C1856 1.400 . S
C1857 C1858 1.398 . S
C1858 H1846 0.950 . S
C1858 C1857 1.398 . S
C1858 C1859 1.391 . S
C1859 H1847 0.950 . S
C1859 C1855 1.393 . S
C1859 C1858 1.391 . S
H1860 C1868 0.950 . S
H1861 C1873 0.950 . S
H1862 C1870 0.950 . S
H1863 C1872 0.950 . S
H1864 C1874 0.950 . S
H1865 C1876 0.950 . S
H1866 C1878 0.950 . S
H1867 C1879 0.950 . S
C1868 H1860 0.950 . S
C1868 C1869 1.386 . S
C1868 C1870 1.391 . S
C1869 C1868 1.386 . S
C1869 C1873 1.393 . S
C1870 H1862 0.950 . S
C1870 C1868 1.391 . S
C1870 C1871 1.400 . S
C1871 C1870 1.400 . S
C1871 C1872 1.398 . S
C1871 C1877 1.491 . S
C1872 H1863 0.950 . S
C1872 C1871 1.398 . S
C1872 C1873 1.391 . S
C1873 H1861 0.950 . S
C1873 C1869 1.393 . S
C1873 C1872 1.391 . S
C1874 H1864 0.950 . S
C1874 C1875 1.386 . S
C1874 C1876 1.391 . S
C1875 C1874 1.386 . S
C1875 C1879 1.393 . S
C1876 H1865 0.950 . S
C1876 C1874 1.391 . S
C1876 C1877 1.400 . S
C1877 C1871 1.491 . S
C1877 C1876 1.400 . S
C1877 C1878 1.398 . S
C1878 H1866 0.950 . S
C1878 C1877 1.398 . S
C1878 C1879 1.391 . S
C1879 H1867 0.950 . S
C1879 C1875 1.393 . S
C1879 C1878 1.391 . S
H1880 C1888 0.950 . S
H1881 C1893 0.950 . S
H1882 C1890 0.950 . S
H1883 C1892 0.950 . S
H1884 C1894 0.950 . S
H1885 C1896 0.950 . S
H1886 C1898 0.950 . S
H1887 C1899 0.950 . S
C1888 H1880 0.950 . S
C1888 C1889 1.386 . S
C1888 C1890 1.391 . S
C1889 C1888 1.386 . S
C1889 C1893 1.393 . S
C1890 H1882 0.950 . S
C1890 C1888 1.391 . S
C1890 C1891 1.400 . S
C1891 C1890 1.400 . S
C1891 C1892 1.398 . S
C1891 C1897 1.491 . S
C1892 H1883 0.950 . S
C1892 C1891 1.398 . S
C1892 C1893 1.391 . S
C1893 H1881 0.950 . S
C1893 C1889 1.393 . S
C1893 C1892 1.391 . S
C1894 H1884 0.950 . S
C1894 C1895 1.386 . S
C1894 C1896 1.391 . S
C1895 C1894 1.386 . S
C1895 C1899 1.393 . S
C1896 H1885 0.950 . S
C1896 C1894 1.391 . S
C1896 C1897 1.400 . S
C1897 C1891 1.491 . S
C1897 C1896 1.400 . S
C1897 C1898 1.398 . S
C1898 H1886 0.950 . S
C1898 C1897 1.398 . S
C1898 C1899 1.391 . S
C1899 H1887 0.950 . S
C1899 C1895 1.393 . S
C1899 C1898 1.391 . S
H1900 C1908 0.950 . S
H1901 C1913 0.950 . S
H1902 C1910 0.950 . S
H1903 C1912 0.950 . S
H1904 C1914 0.950 . S
H1905 C1916 0.950 . S
H1906 C1918 0.950 . S
H1907 C1919 0.950 . S
C1908 H1900 0.950 . S
C1908 C1909 1.386 . S
C1908 C1910 1.391 . S
C1909 C1908 1.386 . S
C1909 C1913 1.393 . S
C1910 H1902 0.950 . S
C1910 C1908 1.391 . S
C1910 C1911 1.400 . S
C1911 C1910 1.400 . S
C1911 C1912 1.398 . S
C1911 C1917 1.491 . S
C1912 H1903 0.950 . S
C1912 C1911 1.398 . S
C1912 C1913 1.391 . S
C1913 H1901 0.950 . S
C1913 C1909 1.393 . S
C1913 C1912 1.391 . S
C1914 H1904 0.950 . S
C1914 C1915 1.386 . S
C1914 C1916 1.391 . S
C1915 C1914 1.386 . S
C1915 C1919 1.393 . S
C1916 H1905 0.950 . S
C1916 C1914 1.391 . S
C1916 C1917 1.400 . S
C1917 C1911 1.491 . S
C1917 C1916 1.400 . S
C1917 C1918 1.398 . S
C1918 H1906 0.950 . S
C1918 C1917 1.398 . S
C1918 C1919 1.391 . S
C1919 H1907 0.950 . S
C1919 C1915 1.393 . S
C1919 C1918 1.391 . S
H1920 C1928 0.950 . S
H1921 C1933 0.950 . S
H1922 C1930 0.950 . S
H1923 C1932 0.950 . S
H1924 C1934 0.950 . S
H1925 C1936 0.950 . S
H1926 C1938 0.950 . S
H1927 C1939 0.950 1_455 S
C1928 H1920 0.950 . S
C1928 C1929 1.386 . S
C1928 C1930 1.391 . S
C1929 C1928 1.386 . S
C1929 C1933 1.393 . S
C1930 H1922 0.950 . S
C1930 C1928 1.391 . S
C1930 C1931 1.400 . S
C1931 C1930 1.400 . S
C1931 C1932 1.398 . S
C1931 C1937 1.491 . S
C1932 H1923 0.950 . S
C1932 C1931 1.398 . S
C1932 C1933 1.391 . S
C1933 H1921 0.950 . S
C1933 C1929 1.393 . S
C1933 C1932 1.391 . S
C1934 H1924 0.950 . S
C1934 C1935 1.386 . S
C1934 C1936 1.391 . S
C1935 C1934 1.386 . S
C1935 C1939 1.393 . S
C1936 H1925 0.950 . S
C1936 C1934 1.391 . S
C1936 C1937 1.400 . S
C1937 C1931 1.491 . S
C1937 C1936 1.400 . S
C1937 C1938 1.398 . S
C1938 H1926 0.950 . S
C1938 C1937 1.398 . S
C1938 C1939 1.391 . S
C1939 H1927 0.950 1_655 S
C1939 C1935 1.393 . S
C1939 C1938 1.391 . S
H1940 C1948 0.950 . S
H1941 C1953 0.950 . S
H1942 C1950 0.950 . S
H1943 C1952 0.950 . S
H1944 C1954 0.950 . S
H1945 C1956 0.950 . S
H1946 C1958 0.950 . S
H1947 C1959 0.950 . S
C1948 H1940 0.950 . S
C1948 C1949 1.386 . S
C1948 C1950 1.391 . S
C1949 C1948 1.386 . S
C1949 C1953 1.393 . S
C1950 H1942 0.950 . S
C1950 C1948 1.391 . S
C1950 C1951 1.400 . S
C1951 C1950 1.400 . S
C1951 C1952 1.398 . S
C1951 C1957 1.491 . S
C1952 H1943 0.950 . S
C1952 C1951 1.398 . S
C1952 C1953 1.391 . S
C1953 H1941 0.950 . S
C1953 C1949 1.393 . S
C1953 C1952 1.391 . S
C1954 H1944 0.950 . S
C1954 C1955 1.386 . S
C1954 C1956 1.391 . S
C1955 C1954 1.386 . S
C1955 C1959 1.393 . S
C1956 H1945 0.950 . S
C1956 C1954 1.391 . S
C1956 C1957 1.400 . S
C1957 C1951 1.491 . S
C1957 C1956 1.400 . S
C1957 C1958 1.398 . S
C1958 H1946 0.950 . S
C1958 C1957 1.398 . S
C1958 C1959 1.391 . S
C1959 H1947 0.950 . S
C1959 C1955 1.393 . S
C1959 C1958 1.391 . S
H1960 C1968 0.950 . S
H1961 C1973 0.950 . S
H1962 C1970 0.950 . S
H1963 C1972 0.950 . S
H1964 C1974 0.950 . S
H1965 C1976 0.950 . S
H1966 C1978 0.950 . S
H1967 C1979 0.950 . S
C1968 H1960 0.950 . S
C1968 C1969 1.386 . S
C1968 C1970 1.391 . S
C1969 C1968 1.386 . S
C1969 C1973 1.393 . S
C1970 H1962 0.950 . S
C1970 C1968 1.391 . S
C1970 C1971 1.400 . S
C1971 C1970 1.400 . S
C1971 C1972 1.398 . S
C1971 C1977 1.491 . S
C1972 H1963 0.950 . S
C1972 C1971 1.398 . S
C1972 C1973 1.391 . S
C1973 H1961 0.950 . S
C1973 C1969 1.393 . S
C1973 C1972 1.391 . S
C1974 H1964 0.950 . S
C1974 C1975 1.386 . S
C1974 C1976 1.391 . S
C1975 C1974 1.386 . S
C1975 C1979 1.393 . S
C1976 H1965 0.950 . S
C1976 C1974 1.391 . S
C1976 C1977 1.400 . S
C1977 C1971 1.491 . S
C1977 C1976 1.400 . S
C1977 C1978 1.398 . S
C1978 H1966 0.950 . S
C1978 C1977 1.398 . S
C1978 C1979 1.391 . S
C1979 H1967 0.950 . S
C1979 C1975 1.393 . S
C1979 C1978 1.391 . S
H1980 C1988 0.950 . S
H1981 C1993 0.950 . S
H1982 C1990 0.950 . S
H1983 C1992 0.950 . S
H1984 C1994 0.950 1_545 S
H1985 C1996 0.950 . S
H1986 C1998 0.950 . S
H1987 C1999 0.950 . S
C1988 H1980 0.950 . S
C1988 C1989 1.386 . S
C1988 C1990 1.391 . S
C1989 C1988 1.386 . S
C1989 C1993 1.393 . S
C1990 H1982 0.950 . S
C1990 C1988 1.391 . S
C1990 C1991 1.400 . S
C1991 C1990 1.400 . S
C1991 C1992 1.398 . S
C1991 C1997 1.491 . S
C1992 H1983 0.950 . S
C1992 C1991 1.398 . S
C1992 C1993 1.391 . S
C1993 H1981 0.950 . S
C1993 C1989 1.393 . S
C1993 C1992 1.391 . S
C1994 H1984 0.950 1_565 S
C1994 C1995 1.386 . S
C1994 C1996 1.391 . S
C1995 C1994 1.386 . S
C1995 C1999 1.393 . S
C1996 H1985 0.950 . S
C1996 C1994 1.391 . S
C1996 C1997 1.400 . S
C1997 C1991 1.491 . S
C1997 C1996 1.400 . S
C1997 C1998 1.398 . S
C1998 H1986 0.950 . S
C1998 C1997 1.398 . S
C1998 C1999 1.391 . S
C1999 H1987 0.950 . S
C1999 C1995 1.393 . S
C1999 C1998 1.391 . S
H2000 C2008 0.950 . S
H2001 C2013 0.950 . S
H2002 C2010 0.950 . S
H2003 C2012 0.950 . S
H2004 C2014 0.950 . S
H2005 C2016 0.950 . S
H2006 C2018 0.950 . S
H2007 C2019 0.950 . S
C2008 H2000 0.950 . S
C2008 C2009 1.386 . S
C2008 C2010 1.391 . S
C2009 C2008 1.386 . S
C2009 C2013 1.393 . S
C2010 H2002 0.950 . S
C2010 C2008 1.391 . S
C2010 C2011 1.400 . S
C2011 C2010 1.400 . S
C2011 C2012 1.398 . S
C2011 C2017 1.491 . S
C2012 H2003 0.950 . S
C2012 C2011 1.398 . S
C2012 C2013 1.391 . S
C2013 H2001 0.950 . S
C2013 C2009 1.393 . S
C2013 C2012 1.391 . S
C2014 H2004 0.950 . S
C2014 C2015 1.386 . S
C2014 C2016 1.391 . S
C2015 C2014 1.386 . S
C2015 C2019 1.393 . S
C2016 H2005 0.950 . S
C2016 C2014 1.391 . S
C2016 C2017 1.400 . S
C2017 C2011 1.491 . S
C2017 C2016 1.400 . S
C2017 C2018 1.398 . S
C2018 H2006 0.950 . S
C2018 C2017 1.398 . S
C2018 C2019 1.391 . S
C2019 H2007 0.950 . S
C2019 C2015 1.393 . S
C2019 C2018 1.391 . S
H2020 C2028 0.950 . S
H2021 C2033 0.950 . S
H2022 C2030 0.950 . S
H2023 C2032 0.950 . S
H2024 C2034 0.950 . S
H2025 C2036 0.950 . S
H2026 C2038 0.950 . S
H2027 C2039 0.950 . S
C2028 H2020 0.950 . S
C2028 C2029 1.386 . S
C2028 C2030 1.391 . S
C2029 C2028 1.386 . S
C2029 C2033 1.393 . S
C2030 H2022 0.950 . S
C2030 C2028 1.391 . S
C2030 C2031 1.400 . S
C2031 C2030 1.400 . S
C2031 C2032 1.398 . S
C2031 C2037 1.491 . S
C2032 H2023 0.950 . S
C2032 C2031 1.398 . S
C2032 C2033 1.391 . S
C2033 H2021 0.950 . S
C2033 C2029 1.393 . S
C2033 C2032 1.391 . S
C2034 H2024 0.950 . S
C2034 C2035 1.386 . S
C2034 C2036 1.391 . S
C2035 C2034 1.386 . S
C2035 C2039 1.393 . S
C2036 H2025 0.950 . S
C2036 C2034 1.391 . S
C2036 C2037 1.400 . S
C2037 C2031 1.491 . S
C2037 C2036 1.400 . S
C2037 C2038 1.398 . S
C2038 H2026 0.950 . S
C2038 C2037 1.398 . S
C2038 C2039 1.391 . S
C2039 H2027 0.950 . S
C2039 C2035 1.393 . S
C2039 C2038 1.391 . S
H2040 C2048 0.950 . S
H2041 C2053 0.950 . S
H2042 C2050 0.950 . S
H2043 C2052 0.950 . S
H2044 C2054 0.950 . S
H2045 C2056 0.950 . S
H2046 C2058 0.950 . S
H2047 C2059 0.950 . S
C2048 H2040 0.950 . S
C2048 C2049 1.386 . S
C2048 C2050 1.391 . S
C2049 C2048 1.386 . S
C2049 C2053 1.393 . S
C2050 H2042 0.950 . S
C2050 C2048 1.391 . S
C2050 C2051 1.400 . S
C2051 C2050 1.400 . S
C2051 C2052 1.398 . S
C2051 C2057 1.491 . S
C2052 H2043 0.950 . S
C2052 C2051 1.398 . S
C2052 C2053 1.391 . S
C2053 H2041 0.950 . S
C2053 C2049 1.393 . S
C2053 C2052 1.391 . S
C2054 H2044 0.950 . S
C2054 C2055 1.386 . S
C2054 C2056 1.391 . S
C2055 C2054 1.386 . S
C2055 C2059 1.393 . S
C2056 H2045 0.950 . S
C2056 C2054 1.391 . S
C2056 C2057 1.400 . S
C2057 C2051 1.491 . S
C2057 C2056 1.400 . S
C2057 C2058 1.398 . S
C2058 H2046 0.950 . S
C2058 C2057 1.398 . S
C2058 C2059 1.391 . S
C2059 H2047 0.950 . S
C2059 C2055 1.393 . S
C2059 C2058 1.391 . S
H2060 C2068 0.950 . S
H2061 C2073 0.950 . S
H2062 C2070 0.950 . S
H2063 C2072 0.950 . S
H2064 C2074 0.950 . S
H2065 C2076 0.950 . S
H2066 C2078 0.950 . S
H2067 C2079 0.950 . S
C2068 H2060 0.950 . S
C2068 C2069 1.386 1_556 S
C2068 C2070 1.391 . S
C2069 C2068 1.386 1_554 S
C2069 C2073 1.393 . S
C2070 H2062 0.950 . S
C2070 C2068 1.391 . S
C2070 C2071 1.400 1_556 S
C2071 C2070 1.400 1_554 S
C2071 C2072 1.398 . S
C2071 C2077 1.488 1_554 S
C2072 H2063 0.950 . S
C2072 C2071 1.398 . S
C2072 C2073 1.391 . S
C2073 H2061 0.950 . S
C2073 C2069 1.393 . S
C2073 C2072 1.391 . S
C2074 H2064 0.950 . S
C2074 C2075 1.386 1_554 S
C2074 C2076 1.391 . S
C2075 C2074 1.386 1_556 S
C2075 C2079 1.393 . S
C2076 H2065 0.950 . S
C2076 C2074 1.391 . S
C2076 C2077 1.386 1_554 S
C2077 C2071 1.488 1_556 S
C2077 C2076 1.386 1_556 S
C2077 C2078 1.415 . S
C2078 H2066 0.950 . S
C2078 C2077 1.415 . S
C2078 C2079 1.391 . S
C2079 H2067 0.950 . S
C2079 C2075 1.393 . S
C2079 C2078 1.391 . S
H2080 C2088 0.950 . S
H2081 C2093 0.950 . S
H2082 C2090 0.950 . S
H2083 C2092 0.950 . S
H2084 C2094 0.950 . S
H2085 C2096 0.950 . S
H2086 C2098 0.950 . S
H2087 C2099 0.950 . S
C2088 H2080 0.950 . S
C2088 C2089 1.386 . S
C2088 C2090 1.391 . S
C2089 C2088 1.386 . S
C2089 C2093 1.393 . S
C2090 H2082 0.950 . S
C2090 C2088 1.391 . S
C2090 C2091 1.400 . S
C2091 C2090 1.400 . S
C2091 C2092 1.398 . S
C2091 C2097 1.491 . S
C2092 H2083 0.950 . S
C2092 C2091 1.398 . S
C2092 C2093 1.391 . S
C2093 H2081 0.950 . S
C2093 C2089 1.393 . S
C2093 C2092 1.391 . S
C2094 H2084 0.950 . S
C2094 C2095 1.386 . S
C2094 C2096 1.391 . S
C2095 C2094 1.386 . S
C2095 C2099 1.393 . S
C2096 H2085 0.950 . S
C2096 C2094 1.391 . S
C2096 C2097 1.400 . S
C2097 C2091 1.491 . S
C2097 C2096 1.400 . S
C2097 C2098 1.398 . S
C2098 H2086 0.950 . S
C2098 C2097 1.398 . S
C2098 C2099 1.391 . S
C2099 H2087 0.950 . S
C2099 C2095 1.393 . S
C2099 C2098 1.391 . S
H2100 C2108 0.950 . S
H2101 C2113 0.950 . S
H2102 C2110 0.950 . S
H2103 C2112 0.950 . S
H2104 C2114 0.950 . S
H2105 C2116 0.950 . S
H2106 C2118 0.950 . S
H2107 C2119 0.950 . S
C2108 H2100 0.950 . S
C2108 C2109 1.386 . S
C2108 C2110 1.391 . S
C2109 C2108 1.386 . S
C2109 C2113 1.393 . S
C2110 H2102 0.950 . S
C2110 C2108 1.391 . S
C2110 C2111 1.400 . S
C2111 C2110 1.400 . S
C2111 C2112 1.398 . S
C2111 C2117 1.491 . S
C2112 H2103 0.950 . S
C2112 C2111 1.398 . S
C2112 C2113 1.391 . S
C2113 H2101 0.950 . S
C2113 C2109 1.393 . S
C2113 C2112 1.391 . S
C2114 H2104 0.950 . S
C2114 C2115 1.386 . S
C2114 C2116 1.391 . S
C2115 C2114 1.386 . S
C2115 C2119 1.393 . S
C2116 H2105 0.950 . S
C2116 C2114 1.391 . S
C2116 C2117 1.400 . S
C2117 C2111 1.491 . S
C2117 C2116 1.400 . S
C2117 C2118 1.398 . S
C2118 H2106 0.950 . S
C2118 C2117 1.398 . S
C2118 C2119 1.391 . S
C2119 H2107 0.950 . S
C2119 C2115 1.393 . S
C2119 C2118 1.391 . S
H2120 C2128 0.950 . S
H2121 C2133 0.950 . S
H2122 C2130 0.950 . S
H2123 C2132 0.950 . S
H2124 C2134 0.950 . S
H2125 C2136 0.950 . S
H2126 C2138 0.950 . S
H2127 C2139 0.950 . S
C2128 H2120 0.950 . S
C2128 C2129 1.386 . S
C2128 C2130 1.391 . S
C2129 C2128 1.386 . S
C2129 C2133 1.393 . S
C2130 H2122 0.950 . S
C2130 C2128 1.391 . S
C2130 C2131 1.400 . S
C2131 C2130 1.400 . S
C2131 C2132 1.398 . S
C2131 C2137 1.491 . S
C2132 H2123 0.950 . S
C2132 C2131 1.398 . S
C2132 C2133 1.391 . S
C2133 H2121 0.950 . S
C2133 C2129 1.393 . S
C2133 C2132 1.391 . S
C2134 H2124 0.950 . S
C2134 C2135 1.386 . S
C2134 C2136 1.391 . S
C2135 C2134 1.386 . S
C2135 C2139 1.393 . S
C2136 H2125 0.950 . S
C2136 C2134 1.391 . S
C2136 C2137 1.400 . S
C2137 C2131 1.491 . S
C2137 C2136 1.400 . S
C2137 C2138 1.398 . S
C2138 H2126 0.950 . S
C2138 C2137 1.398 . S
C2138 C2139 1.391 . S
C2139 H2127 0.950 . S
C2139 C2135 1.393 . S
C2139 C2138 1.391 . S
H2140 C2148 0.950 . S
H2141 C2153 0.950 . S
H2142 C2150 0.950 . S
H2143 C2152 0.950 . S
H2144 C2154 0.950 . S
H2145 C2156 0.950 . S
H2146 C2158 0.950 . S
H2147 C2159 0.950 . S
C2148 H2140 0.950 . S
C2148 C2149 1.386 . S
C2148 C2150 1.391 . S
C2149 C2148 1.386 . S
C2149 C2153 1.393 . S
C2150 H2142 0.950 . S
C2150 C2148 1.391 . S
C2150 C2151 1.400 . S
C2151 C2150 1.400 . S
C2151 C2152 1.398 . S
C2151 C2157 1.491 . S
C2152 H2143 0.950 . S
C2152 C2151 1.398 . S
C2152 C2153 1.391 . S
C2153 H2141 0.950 . S
C2153 C2149 1.393 . S
C2153 C2152 1.391 . S
C2154 H2144 0.950 . S
C2154 C2155 1.386 . S
C2154 C2156 1.391 . S
C2155 C2154 1.386 . S
C2155 C2159 1.393 . S
C2156 H2145 0.950 . S
C2156 C2154 1.391 . S
C2156 C2157 1.400 . S
C2157 C2151 1.491 . S
C2157 C2156 1.400 . S
C2157 C2158 1.398 . S
C2158 H2146 0.950 . S
C2158 C2157 1.398 . S
C2158 C2159 1.391 . S
C2159 H2147 0.950 . S
C2159 C2155 1.393 . S
C2159 C2158 1.391 . S
H2160 C2168 0.950 . S
H2161 C2173 0.950 . S
H2162 C2170 0.950 . S
H2163 C2172 0.950 . S
H2164 C2174 0.950 1_554 S
H2165 C2176 0.950 . S
H2166 C2178 0.950 . S
H2167 C2179 0.950 . S
C2168 H2160 0.950 . S
C2168 C2169 1.386 . S
C2168 C2170 1.391 . S
C2169 C2168 1.386 . S
C2169 C2173 1.393 1_455 S
C2170 H2162 0.950 . S
C2170 C2168 1.391 . S
C2170 C2171 1.400 . S
C2171 C2170 1.400 . S
C2171 C2172 1.398 1_455 S
C2171 C2177 1.491 . S
C2172 H2163 0.950 . S
C2172 C2171 1.398 1_655 S
C2172 C2173 1.391 . S
C2173 H2161 0.950 . S
C2173 C2169 1.393 1_655 S
C2173 C2172 1.391 . S
C2174 H2164 0.950 1_556 S
C2174 C2175 1.386 . S
C2174 C2176 1.391 . S
C2175 C2174 1.386 . S
C2175 C2179 1.393 1_655 S
C2176 H2165 0.950 . S
C2176 C2174 1.391 . S
C2176 C2177 1.400 1_655 S
C2177 C2171 1.491 . S
C2177 C2176 1.400 1_455 S
C2177 C2178 1.398 . S
C2178 H2166 0.950 . S
C2178 C2177 1.398 . S
C2178 C2179 1.391 . S
C2179 H2167 0.950 . S
C2179 C2175 1.393 1_455 S
C2179 C2178 1.391 . S
H2180 C2188 0.950 . S
H2181 C2193 0.950 . S
H2182 C2190 0.950 . S
H2183 C2192 0.950 . S
H2184 C2194 0.950 . S
H2185 C2196 0.950 . S
H2186 C2198 0.950 . S
H2187 C2199 0.950 . S
C2188 H2180 0.950 . S
C2188 C2189 1.386 . S
C2188 C2190 1.391 . S
C2189 C2188 1.386 . S
C2189 C2193 1.393 . S
C2190 H2182 0.950 . S
C2190 C2188 1.391 . S
C2190 C2191 1.400 . S
C2191 C2190 1.400 . S
C2191 C2192 1.398 . S
C2191 C2197 1.491 . S
C2192 H2183 0.950 . S
C2192 C2191 1.398 . S
C2192 C2193 1.391 . S
C2193 H2181 0.950 . S
C2193 C2189 1.393 . S
C2193 C2192 1.391 . S
C2194 H2184 0.950 . S
C2194 C2195 1.386 . S
C2194 C2196 1.391 . S
C2195 C2194 1.386 . S
C2195 C2199 1.393 . S
C2196 H2185 0.950 . S
C2196 C2194 1.391 . S
C2196 C2197 1.400 . S
C2197 C2191 1.491 . S
C2197 C2196 1.400 . S
C2197 C2198 1.398 . S
C2198 H2186 0.950 . S
C2198 C2197 1.398 . S
C2198 C2199 1.391 . S
C2199 H2187 0.950 . S
C2199 C2195 1.393 . S
C2199 C2198 1.391 . S
H2200 C2208 0.950 . S
H2201 C2213 0.950 . S
H2202 C2210 0.950 . S
H2203 C2212 0.950 . S
H2204 C2214 0.950 . S
H2205 C2216 0.950 . S
H2206 C2218 0.950 . S
H2207 C2219 0.950 . S
C2208 H2200 0.950 . S
C2208 C2209 1.386 . S
C2208 C2210 1.391 . S
C2209 C2208 1.386 . S
C2209 C2213 1.393 . S
C2210 H2202 0.950 . S
C2210 C2208 1.391 . S
C2210 C2211 1.400 . S
C2211 C2210 1.400 . S
C2211 C2212 1.398 . S
C2211 C2217 1.491 . S
C2212 H2203 0.950 . S
C2212 C2211 1.398 . S
C2212 C2213 1.391 . S
C2213 H2201 0.950 . S
C2213 C2209 1.393 . S
C2213 C2212 1.391 . S
C2214 H2204 0.950 . S
C2214 C2215 1.386 . S
C2214 C2216 1.391 . S
C2215 C2214 1.386 . S
C2215 C2219 1.393 . S
C2216 H2205 0.950 . S
C2216 C2214 1.391 . S
C2216 C2217 1.400 . S
C2217 C2211 1.491 . S
C2217 C2216 1.400 . S
C2217 C2218 1.398 . S
C2218 H2206 0.950 . S
C2218 C2217 1.398 . S
C2218 C2219 1.391 . S
C2219 H2207 0.950 . S
C2219 C2215 1.393 . S
C2219 C2218 1.391 . S
H2220 C2228 0.950 . S
H2221 C2233 0.950 . S
H2222 C2230 0.950 . S
H2223 C2232 0.950 . S
H2224 C2234 0.950 . S
H2225 C2236 0.950 . S
H2226 C2238 0.950 . S
H2227 C2239 0.950 . S
C2228 H2220 0.950 . S
C2228 C2229 1.386 . S
C2228 C2230 1.391 . S
C2229 C2228 1.386 . S
C2229 C2233 1.393 . S
C2230 H2222 0.950 . S
C2230 C2228 1.391 . S
C2230 C2231 1.400 . S
C2231 C2230 1.400 . S
C2231 C2232 1.398 . S
C2231 C2237 1.491 . S
C2232 H2223 0.950 . S
C2232 C2231 1.398 . S
C2232 C2233 1.391 . S
C2233 H2221 0.950 . S
C2233 C2229 1.393 . S
C2233 C2232 1.391 . S
C2234 H2224 0.950 . S
C2234 C2235 1.386 . S
C2234 C2236 1.391 . S
C2235 C2234 1.386 . S
C2235 C2239 1.393 . S
C2236 H2225 0.950 . S
C2236 C2234 1.391 . S
C2236 C2237 1.400 . S
C2237 C2231 1.491 . S
C2237 C2236 1.400 . S
C2237 C2238 1.398 . S
C2238 H2226 0.950 . S
C2238 C2237 1.398 . S
C2238 C2239 1.391 . S
C2239 H2227 0.950 . S
C2239 C2235 1.393 . S
C2239 C2238 1.391 . S
H2240 C2248 0.950 . S
H2241 C2253 0.950 . S
H2242 C2250 0.950 . S
H2243 C2252 0.950 . S
H2244 C2254 0.950 . S
H2245 C2256 0.950 . S
H2246 C2258 0.950 . S
H2247 C2259 0.950 . S
C2248 H2240 0.950 . S
C2248 C2249 1.386 1_655 S
C2248 C2250 1.391 . S
C2249 C2248 1.386 1_455 S
C2249 C2253 1.393 . S
C2250 H2242 0.950 . S
C2250 C2248 1.391 . S
C2250 C2251 1.400 1_655 S
C2251 C2250 1.400 1_455 S
C2251 C2252 1.398 . S
C2251 C2257 1.491 . S
C2252 H2243 0.950 . S
C2252 C2251 1.398 . S
C2252 C2253 1.391 . S
C2253 H2241 0.950 . S
C2253 C2249 1.393 . S
C2253 C2252 1.391 . S
C2254 H2244 0.950 . S
C2254 C2255 1.386 1_455 S
C2254 C2256 1.391 . S
C2255 C2254 1.386 1_655 S
C2255 C2259 1.393 . S
C2256 H2245 0.950 . S
C2256 C2254 1.391 . S
C2256 C2257 1.400 . S
C2257 C2251 1.491 . S
C2257 C2256 1.400 . S
C2257 C2258 1.398 1_455 S
C2258 H2246 0.950 . S
C2258 C2257 1.398 1_655 S
C2258 C2259 1.391 . S
C2259 H2247 0.950 . S
C2259 C2255 1.393 . S
C2259 C2258 1.391 . S
H2260 C2268 0.950 . S
H2261 C2273 0.950 . S
H2262 C2270 0.950 . S
H2263 C2272 0.950 . S
H2264 C2274 0.950 . S
H2265 C2276 0.950 . S
H2266 C2278 0.950 . S
H2267 C2279 0.950 . S
C2268 H2260 0.950 . S
C2268 C2269 1.386 . S
C2268 C2270 1.391 . S
C2269 C2268 1.386 . S
C2269 C2273 1.393 . S
C2270 H2262 0.950 . S
C2270 C2268 1.391 . S
C2270 C2271 1.400 . S
C2271 C2270 1.400 . S
C2271 C2272 1.398 . S
C2271 C2277 1.491 . S
C2272 H2263 0.950 . S
C2272 C2271 1.398 . S
C2272 C2273 1.391 . S
C2273 H2261 0.950 . S
C2273 C2269 1.393 . S
C2273 C2272 1.391 . S
C2274 H2264 0.950 . S
C2274 C2275 1.386 . S
C2274 C2276 1.391 . S
C2275 C2274 1.386 . S
C2275 C2279 1.393 . S
C2276 H2265 0.950 . S
C2276 C2274 1.391 . S
C2276 C2277 1.400 . S
C2277 C2271 1.491 . S
C2277 C2276 1.400 . S
C2277 C2278 1.398 . S
C2278 H2266 0.950 . S
C2278 C2277 1.398 . S
C2278 C2279 1.391 . S
C2279 H2267 0.950 . S
C2279 C2275 1.393 . S
C2279 C2278 1.391 . S
H2280 C2288 0.950 . S
H2281 C2293 0.950 . S
H2282 C2290 0.950 . S
H2283 C2292 0.950 . S
H2284 C2294 0.950 . S
H2285 C2296 0.950 . S
H2286 C2298 0.950 . S
H2287 C2299 0.950 . S
C2288 H2280 0.950 . S
C2288 C2289 1.386 . S
C2288 C2290 1.391 . S
C2289 C2288 1.386 . S
C2289 C2293 1.393 . S
C2290 H2282 0.950 . S
C2290 C2288 1.391 . S
C2290 C2291 1.400 . S
C2291 C2290 1.400 . S
C2291 C2292 1.398 . S
C2291 C2297 1.491 . S
C2292 H2283 0.950 . S
C2292 C2291 1.398 . S
C2292 C2293 1.391 . S
C2293 H2281 0.950 . S
C2293 C2289 1.393 . S
C2293 C2292 1.391 . S
C2294 H2284 0.950 . S
C2294 C2295 1.386 . S
C2294 C2296 1.391 . S
C2295 C2294 1.386 . S
C2295 C2299 1.393 . S
C2296 H2285 0.950 . S
C2296 C2294 1.391 . S
C2296 C2297 1.400 . S
C2297 C2291 1.491 . S
C2297 C2296 1.400 . S
C2297 C2298 1.398 . S
C2298 H2286 0.950 . S
C2298 C2297 1.398 . S
C2298 C2299 1.391 . S
C2299 H2287 0.950 . S
C2299 C2295 1.393 . S
C2299 C2298 1.391 . S
H2300 C2308 0.950 . S
H2301 C2313 0.950 . S
H2302 C2310 0.950 . S
H2303 C2312 0.950 . S
H2304 C2314 0.950 . S
H2305 C2316 0.950 . S
H2306 C2318 0.950 . S
H2307 C2319 0.950 . S
C2308 H2300 0.950 . S
C2308 C2309 1.386 . S
C2308 C2310 1.391 . S
C2309 C2308 1.386 . S
C2309 C2313 1.393 . S
C2310 H2302 0.950 . S
C2310 C2308 1.391 . S
C2310 C2311 1.400 . S
C2311 C2310 1.400 . S
C2311 C2312 1.398 . S
C2311 C2317 1.491 . S
C2312 H2303 0.950 . S
C2312 C2311 1.398 . S
C2312 C2313 1.391 . S
C2313 H2301 0.950 . S
C2313 C2309 1.393 . S
C2313 C2312 1.391 . S
C2314 H2304 0.950 . S
C2314 C2315 1.386 . S
C2314 C2316 1.391 . S
C2315 C2314 1.386 . S
C2315 C2319 1.393 . S
C2316 H2305 0.950 . S
C2316 C2314 1.391 . S
C2316 C2317 1.400 . S
C2317 C2311 1.491 . S
C2317 C2316 1.400 . S
C2317 C2318 1.398 . S
C2318 H2306 0.950 . S
C2318 C2317 1.398 . S
C2318 C2319 1.391 . S
C2319 H2307 0.950 . S
C2319 C2315 1.393 . S
C2319 C2318 1.391 . S
H2320 C2328 0.950 . S
H2321 C2333 0.950 . S
H2322 C2330 0.950 . S
H2323 C2332 0.950 . S
H2324 C2334 0.950 . S
H2325 C2336 0.950 . S
H2326 C2338 0.950 . S
H2327 C2339 0.950 . S
C2328 H2320 0.950 . S
C2328 C2329 1.386 . S
C2328 C2330 1.391 . S
C2329 C2328 1.386 . S
C2329 C2333 1.393 . S
C2330 H2322 0.950 . S
C2330 C2328 1.391 . S
C2330 C2331 1.400 . S
C2331 C2330 1.400 . S
C2331 C2332 1.398 . S
C2331 C2337 1.491 . S
C2332 H2323 0.950 . S
C2332 C2331 1.398 . S
C2332 C2333 1.391 . S
C2333 H2321 0.950 . S
C2333 C2329 1.393 . S
C2333 C2332 1.391 . S
C2334 H2324 0.950 . S
C2334 C2335 1.386 . S
C2334 C2336 1.391 . S
C2335 C2334 1.386 . S
C2335 C2339 1.393 . S
C2336 H2325 0.950 . S
C2336 C2334 1.391 . S
C2336 C2337 1.400 . S
C2337 C2331 1.491 . S
C2337 C2336 1.400 . S
C2337 C2338 1.398 . S
C2338 H2326 0.950 . S
C2338 C2337 1.398 . S
C2338 C2339 1.391 . S
C2339 H2327 0.950 . S
C2339 C2335 1.393 . S
C2339 C2338 1.391 . S
H2340 C2348 0.950 . S
H2341 C2353 0.950 . S
H2342 C2350 0.950 . S
H2343 C2352 0.950 . S
H2344 C2354 0.950 . S
H2345 C2356 0.950 . S
H2346 C2358 0.950 . S
H2347 C2359 0.950 . S
C2348 H2340 0.950 . S
C2348 C2349 1.386 . S
C2348 C2350 1.391 . S
C2349 C2348 1.386 . S
C2349 C2353 1.393 . S
C2350 H2342 0.950 . S
C2350 C2348 1.391 . S
C2350 C2351 1.400 . S
C2351 C2350 1.400 . S
C2351 C2352 1.398 . S
C2351 C2357 1.491 . S
C2352 H2343 0.950 . S
C2352 C2351 1.398 . S
C2352 C2353 1.391 . S
C2353 H2341 0.950 . S
C2353 C2349 1.393 . S
C2353 C2352 1.391 . S
C2354 H2344 0.950 . S
C2354 C2355 1.386 . S
C2354 C2356 1.391 . S
C2355 C2354 1.386 . S
C2355 C2359 1.393 . S
C2356 H2345 0.950 . S
C2356 C2354 1.391 . S
C2356 C2357 1.400 . S
C2357 C2351 1.491 . S
C2357 C2356 1.400 . S
C2357 C2358 1.398 . S
C2358 H2346 0.950 . S
C2358 C2357 1.398 . S
C2358 C2359 1.391 . S
C2359 H2347 0.950 . S
C2359 C2355 1.393 . S
C2359 C2358 1.391 . S
H2360 C2368 0.950 . S
H2361 C2373 0.950 . S
H2362 C2370 0.950 . S
H2363 C2372 0.950 . S
H2364 C2374 0.950 . S
H2365 C2376 0.950 . S
H2366 C2378 0.950 . S
H2367 C2379 0.950 . S
C2368 H2360 0.950 . S
C2368 C2369 1.386 . S
C2368 C2370 1.391 . S
C2369 C2368 1.386 . S
C2369 C2373 1.393 . S
C2370 H2362 0.950 . S
C2370 C2368 1.391 . S
C2370 C2371 1.400 . S
C2371 C2370 1.400 . S
C2371 C2372 1.398 . S
C2371 C2377 1.491 . S
C2372 H2363 0.950 . S
C2372 C2371 1.398 . S
C2372 C2373 1.391 . S
C2373 H2361 0.950 . S
C2373 C2369 1.393 . S
C2373 C2372 1.391 . S
C2374 H2364 0.950 . S
C2374 C2375 1.386 . S
C2374 C2376 1.391 . S
C2375 C2374 1.386 . S
C2375 C2379 1.393 . S
C2376 H2365 0.950 . S
C2376 C2374 1.391 . S
C2376 C2377 1.400 . S
C2377 C2371 1.491 . S
C2377 C2376 1.400 . S
C2377 C2378 1.398 . S
C2378 H2366 0.950 . S
C2378 C2377 1.398 . S
C2378 C2379 1.391 . S
C2379 H2367 0.950 . S
C2379 C2375 1.393 . S
C2379 C2378 1.391 . S
H2380 C2388 0.950 . S
H2381 C2393 0.950 . S
H2382 C2390 0.950 . S
H2383 C2392 0.950 . S
H2384 C2394 0.950 . S
H2385 C2396 0.950 . S
H2386 C2398 0.950 . S
H2387 C2399 0.950 . S
C2388 H2380 0.950 . S
C2388 C2389 1.386 . S
C2388 C2390 1.391 . S
C2389 C2388 1.386 . S
C2389 C2393 1.393 . S
C2390 H2382 0.950 . S
C2390 C2388 1.391 . S
C2390 C2391 1.400 . S
C2391 C2390 1.400 . S
C2391 C2392 1.398 . S
C2391 C2397 1.491 . S
C2392 H2383 0.950 . S
C2392 C2391 1.398 . S
C2392 C2393 1.391 . S
C2393 H2381 0.950 . S
C2393 C2389 1.393 . S
C2393 C2392 1.391 . S
C2394 H2384 0.950 . S
C2394 C2395 1.386 . S
C2394 C2396 1.391 . S
C2395 C2394 1.386 . S
C2395 C2399 1.393 . S
C2396 H2385 0.950 . S
C2396 C2394 1.391 . S
C2396 C2397 1.400 . S
C2397 C2391 1.491 . S
C2397 C2396 1.400 . S
C2397 C2398 1.398 . S
C2398 H2386 0.950 . S
C2398 C2397 1.398 . S
C2398 C2399 1.391 . S
C2399 H2387 0.950 . S
C2399 C2395 1.393 . S
C2399 C2398 1.391 . S
H2400 C2408 0.950 . S
H2401 C2413 0.950 . S
H2402 C2410 0.950 . S
H2403 C2412 0.950 . S
H2404 C2414 0.950 . S
H2405 C2416 0.950 . S
H2406 C2418 0.950 . S
H2407 C2419 0.950 . S
C2408 H2400 0.950 . S
C2408 C2409 1.386 . S
C2408 C2410 1.391 . S
C2409 C2408 1.386 . S
C2409 C2413 1.393 . S
C2410 H2402 0.950 . S
C2410 C2408 1.391 . S
C2410 C2411 1.400 . S
C2411 C2410 1.400 . S
C2411 C2412 1.398 . S
C2411 C2417 1.491 . S
C2412 H2403 0.950 . S
C2412 C2411 1.398 . S
C2412 C2413 1.391 . S
C2413 H2401 0.950 . S
C2413 C2409 1.393 . S
C2413 C2412 1.391 . S
C2414 H2404 0.950 . S
C2414 C2415 1.386 . S
C2414 C2416 1.391 . S
C2415 C2414 1.386 . S
C2415 C2419 1.393 . S
C2416 H2405 0.950 . S
C2416 C2414 1.391 . S
C2416 C2417 1.400 . S
C2417 C2411 1.491 . S
C2417 C2416 1.400 . S
C2417 C2418 1.398 . S
C2418 H2406 0.950 . S
C2418 C2417 1.398 . S
C2418 C2419 1.391 . S
C2419 H2407 0.950 . S
C2419 C2415 1.393 . S
C2419 C2418 1.391 . S
H2420 C2428 0.950 . S
H2421 C2433 0.950 . S
H2422 C2430 0.950 . S
H2423 C2432 0.950 . S
H2424 C2434 0.950 . S
H2425 C2436 0.950 . S
H2426 C2438 0.950 . S
H2427 C2439 0.950 . S
C2428 H2420 0.950 . S
C2428 C2429 1.386 . S
C2428 C2430 1.391 . S
C2429 C2428 1.386 . S
C2429 C2433 1.393 . S
C2430 H2422 0.950 . S
C2430 C2428 1.391 . S
C2430 C2431 1.400 . S
C2431 C2430 1.400 . S
C2431 C2432 1.398 . S
C2431 C2437 1.491 . S
C2432 H2423 0.950 . S
C2432 C2431 1.398 . S
C2432 C2433 1.391 . S
C2433 H2421 0.950 . S
C2433 C2429 1.393 . S
C2433 C2432 1.391 . S
C2434 H2424 0.950 . S
C2434 C2435 1.386 . S
C2434 C2436 1.391 . S
C2435 C2434 1.386 . S
C2435 C2439 1.393 . S
C2436 H2425 0.950 . S
C2436 C2434 1.391 . S
C2436 C2437 1.400 . S
C2437 C2431 1.491 . S
C2437 C2436 1.400 . S
C2437 C2438 1.398 . S
C2438 H2426 0.950 . S
C2438 C2437 1.398 . S
C2438 C2439 1.391 . S
C2439 H2427 0.950 . S
C2439 C2435 1.393 . S
C2439 C2438 1.391 . S
H2440 C2448 0.950 . S
H2441 C2453 0.950 . S
H2442 C2450 0.950 . S
H2443 C2452 0.950 . S
H2444 C2454 0.950 . S
H2445 C2456 0.950 . S
H2446 C2458 0.950 . S
H2447 C2459 0.950 . S
C2448 H2440 0.950 . S
C2448 C2449 1.386 . S
C2448 C2450 1.391 . S
C2449 C2448 1.386 . S
C2449 C2453 1.393 . S
C2450 H2442 0.950 . S
C2450 C2448 1.391 . S
C2450 C2451 1.400 . S
C2451 C2450 1.400 . S
C2451 C2452 1.398 . S
C2451 C2457 1.491 . S
C2452 H2443 0.950 . S
C2452 C2451 1.398 . S
C2452 C2453 1.391 . S
C2453 H2441 0.950 . S
C2453 C2449 1.393 . S
C2453 C2452 1.391 . S
C2454 H2444 0.950 . S
C2454 C2455 1.386 . S
C2454 C2456 1.391 . S
C2455 C2454 1.386 . S
C2455 C2459 1.393 . S
C2456 H2445 0.950 . S
C2456 C2454 1.391 . S
C2456 C2457 1.400 . S
C2457 C2451 1.491 . S
C2457 C2456 1.400 . S
C2457 C2458 1.398 . S
C2458 H2446 0.950 . S
C2458 C2457 1.398 . S
C2458 C2459 1.391 . S
C2459 H2447 0.950 . S
C2459 C2455 1.393 . S
C2459 C2458 1.391 . S
H2460 C2468 0.950 . S
H2461 C2473 0.950 . S
H2462 C2470 0.950 . S
H2463 C2472 0.950 . S
H2464 C2474 0.950 . S
H2465 C2476 0.950 . S
H2466 C2478 0.950 . S
H2467 C2479 0.950 . S
C2468 H2460 0.950 . S
C2468 C2469 1.386 . S
C2468 C2470 1.391 . S
C2469 C2468 1.386 . S
C2469 C2473 1.393 . S
C2470 H2462 0.950 . S
C2470 C2468 1.391 . S
C2470 C2471 1.400 . S
C2471 C2470 1.400 . S
C2471 C2472 1.398 . S
C2471 C2477 1.491 . S
C2472 H2463 0.950 . S
C2472 C2471 1.398 . S
C2472 C2473 1.391 . S
C2473 H2461 0.950 . S
C2473 C2469 1.393 . S
C2473 C2472 1.391 . S
C2474 H2464 0.950 . S
C2474 C2475 1.386 . S
C2474 C2476 1.391 . S
C2475 C2474 1.386 . S
C2475 C2479 1.393 . S
C2476 H2465 0.950 . S
C2476 C2474 1.391 . S
C2476 C2477 1.400 . S
C2477 C2471 1.491 . S
C2477 C2476 1.400 . S
C2477 C2478 1.398 . S
C2478 H2466 0.950 . S
C2478 C2477 1.398 . S
C2478 C2479 1.391 . S
C2479 H2467 0.950 . S
C2479 C2475 1.393 . S
C2479 C2478 1.391 . S
H2480 C2488 0.950 . S
H2481 C2493 0.950 . S
H2482 C2490 0.950 . S
H2483 C2492 0.950 . S
H2484 C2494 0.950 . S
H2485 C2496 0.950 . S
H2486 C2498 0.950 . S
H2487 C2499 0.950 . S
C2488 H2480 0.950 . S
C2488 C2489 1.386 . S
C2488 C2490 1.391 . S
C2489 C2488 1.386 . S
C2489 C2493 1.393 . S
C2490 H2482 0.950 . S
C2490 C2488 1.391 . S
C2490 C2491 1.400 . S
C2491 C2490 1.400 . S
C2491 C2492 1.398 . S
C2491 C2497 1.491 . S
C2492 H2483 0.950 . S
C2492 C2491 1.398 . S
C2492 C2493 1.391 . S
C2493 H2481 0.950 . S
C2493 C2489 1.393 . S
C2493 C2492 1.391 . S
C2494 H2484 0.950 . S
C2494 C2495 1.386 . S
C2494 C2496 1.391 . S
C2495 C2494 1.386 . S
C2495 C2499 1.393 . S
C2496 H2485 0.950 . S
C2496 C2494 1.391 . S
C2496 C2497 1.400 . S
C2497 C2491 1.491 . S
C2497 C2496 1.400 . S
C2497 C2498 1.398 . S
C2498 H2486 0.950 . S
C2498 C2497 1.398 . S
C2498 C2499 1.391 . S
C2499 H2487 0.950 . S
C2499 C2495 1.393 . S
C2499 C2498 1.391 . S
H2500 C2508 0.950 . S
H2501 C2513 0.950 . S
H2502 C2510 0.950 . S
H2503 C2512 0.950 . S
H2504 C2514 0.950 . S
H2505 C2516 0.950 . S
H2506 C2518 0.950 . S
H2507 C2519 0.950 . S
C2508 H2500 0.950 . S
C2508 C2509 1.386 1_556 S
C2508 C2510 1.391 . S
C2509 C2508 1.386 1_554 S
C2509 C2513 1.393 . S
C2510 H2502 0.950 . S
C2510 C2508 1.391 . S
C2510 C2511 1.400 1_556 S
C2511 C2510 1.400 1_554 S
C2511 C2512 1.398 . S
C2511 C2517 1.491 . S
C2512 H2503 0.950 . S
C2512 C2511 1.398 . S
C2512 C2513 1.391 . S
C2513 H2501 0.950 . S
C2513 C2509 1.393 . S
C2513 C2512 1.391 . S
C2514 H2504 0.950 . S
C2514 C2515 1.386 1_554 S
C2514 C2516 1.391 . S
C2515 C2514 1.386 1_556 S
C2515 C2519 1.393 . S
C2516 H2505 0.950 . S
C2516 C2514 1.391 . S
C2516 C2517 1.404 . S
C2517 C2511 1.491 . S
C2517 C2516 1.404 . S
C2517 C2518 1.394 1_554 S
C2518 H2506 0.950 . S
C2518 C2517 1.394 1_556 S
C2518 C2519 1.391 . S
C2519 H2507 0.950 . S
C2519 C2515 1.393 . S
C2519 C2518 1.391 . S
H2520 C2528 0.950 . S
H2521 C2533 0.950 . S
H2522 C2530 0.950 . S
H2523 C2532 0.950 . S
H2524 C2534 0.950 . S
H2525 C2536 0.950 . S
H2526 C2538 0.950 . S
H2527 C2539 0.950 . S
C2528 H2520 0.950 . S
C2528 C2529 1.386 . S
C2528 C2530 1.391 . S
C2529 C2528 1.386 . S
C2529 C2533 1.393 . S
C2530 H2522 0.950 . S
C2530 C2528 1.391 . S
C2530 C2531 1.400 . S
C2531 C2530 1.400 . S
C2531 C2532 1.398 . S
C2531 C2537 1.491 . S
C2532 H2523 0.950 . S
C2532 C2531 1.398 . S
C2532 C2533 1.391 . S
C2533 H2521 0.950 . S
C2533 C2529 1.393 . S
C2533 C2532 1.391 . S
C2534 H2524 0.950 . S
C2534 C2535 1.386 . S
C2534 C2536 1.391 . S
C2535 C2534 1.386 . S
C2535 C2539 1.393 . S
C2536 H2525 0.950 . S
C2536 C2534 1.391 . S
C2536 C2537 1.400 . S
C2537 C2531 1.491 . S
C2537 C2536 1.400 . S
C2537 C2538 1.398 . S
C2538 H2526 0.950 . S
C2538 C2537 1.398 . S
C2538 C2539 1.391 . S
C2539 H2527 0.950 . S
C2539 C2535 1.393 . S
C2539 C2538 1.391 . S
H2540 C2548 0.950 . S
H2541 C2553 0.950 . S
H2542 C2550 0.950 . S
H2543 C2552 0.950 . S
H2544 C2554 0.950 . S
H2545 C2556 0.950 . S
H2546 C2558 0.950 . S
H2547 C2559 0.950 . S
C2548 H2540 0.950 . S
C2548 C2549 1.381 1_556 S
C2548 C2550 1.391 1_556 S
C2549 C2548 1.381 1_554 S
C2549 C2553 1.408 . S
C2550 H2542 0.950 . S
C2550 C2548 1.391 1_554 S
C2550 C2551 1.400 . S
C2551 C2550 1.400 . S
C2551 C2552 1.398 . S
C2551 C2557 1.491 . S
C2552 H2543 0.950 . S
C2552 C2551 1.398 . S
C2552 C2553 1.391 . S
C2553 H2541 0.950 . S
C2553 C2549 1.408 . S
C2553 C2552 1.391 . S
C2554 H2544 0.950 . S
C2554 C2555 1.386 . S
C2554 C2556 1.391 . S
C2555 C2554 1.386 . S
C2555 C2559 1.393 . S
C2556 H2545 0.950 . S
C2556 C2554 1.391 . S
C2556 C2557 1.400 . S
C2557 C2551 1.491 . S
C2557 C2556 1.400 . S
C2557 C2558 1.398 . S
C2558 H2546 0.950 . S
C2558 C2557 1.398 . S
C2558 C2559 1.391 . S
C2559 H2547 0.950 . S
C2559 C2555 1.393 . S
C2559 C2558 1.391 . S
H2560 C2568 0.950 . S
H2561 C2573 0.950 . S
H2562 C2570 0.950 . S
H2563 C2572 0.950 . S
H2564 C2574 0.950 . S
H2565 C2576 0.950 . S
H2566 C2578 0.950 . S
H2567 C2579 0.950 . S
C2568 H2560 0.950 . S
C2568 C2569 1.386 . S
C2568 C2570 1.391 . S
C2569 C2568 1.386 . S
C2569 C2573 1.393 . S
C2570 H2562 0.950 . S
C2570 C2568 1.391 . S
C2570 C2571 1.400 . S
C2571 C2570 1.400 . S
C2571 C2572 1.398 . S
C2571 C2577 1.491 . S
C2572 H2563 0.950 . S
C2572 C2571 1.398 . S
C2572 C2573 1.391 . S
C2573 H2561 0.950 . S
C2573 C2569 1.393 . S
C2573 C2572 1.391 . S
C2574 H2564 0.950 . S
C2574 C2575 1.386 . S
C2574 C2576 1.391 . S
C2575 C2574 1.386 . S
C2575 C2579 1.393 . S
C2576 H2565 0.950 . S
C2576 C2574 1.391 . S
C2576 C2577 1.400 . S
C2577 C2571 1.491 . S
C2577 C2576 1.400 . S
C2577 C2578 1.398 . S
C2578 H2566 0.950 . S
C2578 C2577 1.398 . S
C2578 C2579 1.391 . S
C2579 H2567 0.950 . S
C2579 C2575 1.393 . S
C2579 C2578 1.391 . S
H2580 C2588 0.950 . S
H2581 C2593 0.950 . S
H2582 C2590 0.950 . S
H2583 C2592 0.950 . S
H2584 C2594 0.950 . S
H2585 C2596 0.950 . S
H2586 C2598 0.950 . S
H2587 C2599 0.950 . S
C2588 H2580 0.950 . S
C2588 C2589 1.386 . S
C2588 C2590 1.391 . S
C2589 C2588 1.386 . S
C2589 C2593 1.393 . S
C2590 H2582 0.950 . S
C2590 C2588 1.391 . S
C2590 C2591 1.400 . S
C2591 C2590 1.400 . S
C2591 C2592 1.398 . S
C2591 C2597 1.491 . S
C2592 H2583 0.950 . S
C2592 C2591 1.398 . S
C2592 C2593 1.391 . S
C2593 H2581 0.950 . S
C2593 C2589 1.393 . S
C2593 C2592 1.391 . S
C2594 H2584 0.950 . S
C2594 C2595 1.386 . S
C2594 C2596 1.391 . S
C2595 C2594 1.386 . S
C2595 C2599 1.393 . S
C2596 H2585 0.950 . S
C2596 C2594 1.391 . S
C2596 C2597 1.400 . S
C2597 C2591 1.491 . S
C2597 C2596 1.400 . S
C2597 C2598 1.398 . S
C2598 H2586 0.950 . S
C2598 C2597 1.398 . S
C2598 C2599 1.391 . S
C2599 H2587 0.950 . S
C2599 C2595 1.393 . S
C2599 C2598 1.391 . S
C695 C328 1.260 . S
C689 C10 1.296 . S
C709 C23 1.590 . S
C715 C356 1.479 . S
C729 C36 1.295 . S
C735 C374 1.262 . S
C755 C400 1.485 . S
C749 C42 1.625 . S
C769 C18 1.625 . S
C775 C423 1.481 . S
C795 C443 1.268 . S
C789 C31 1.305 . S
C815 C471 1.482 . S
C809 C43 1.593 . S
C829 C5 1.302 . S
C835 C489 1.268 . S
C849 C56 1.551 . S
C855 C330 1.559 1_545 S
C869 C70 1.277 . S
C875 C352 1.260 . S
C895 C376 1.555 . S
C889 C82 1.557 . S
C915 C397 1.293 . S
C909 C96 1.305 . S
C929 C57 1.312 . S
C935 C420 1.282 . S
C955 C445 1.559 . S
C949 C69 1.561 . S
C975 C467 1.241 . S
C969 C83 1.269 . S
C995 C491 1.557 . S
C989 C95 1.557 . S
C1015 C331 1.142 1_556 S
C1009 C94 1.226 . S
C1035 C514 1.342 . S
C1029 C108 1.348 . S
C1049 C122 1.242 . S
C1055 C538 1.118 . S
C1075 C562 1.296 . S
C1069 C140 1.327 . S
C1089 C55 1.217 . S
C1095 C492 1.096 . S
C1115 C377 1.162 1_565 S
C1109 C68 1.250 . S
C1129 C121 1.343 . S
C1135 C583 1.344 . S
C1155 C608 1.293 . S
C1149 C153 1.328 . S
C1169 C161 1.047 . S
C1175 C329 1.042 . S
C1195 C606 0.955 . S
C1189 C174 0.944 . S
C1209 C186 1.031 . S
C1215 C375 1.015 . S
C1229 C200 0.895 . S
C1235 C585 0.867 . S
C1255 C424 0.879 . S
C1249 C172 0.893 . S
C1275 C536 1.032 . S
C1269 C192 1.038 . S
C1295 C468 0.953 . S
C1289 C198 0.961 . S
C1315 C628 1.028 . S
C1309 C159 1.037 . S
C1335 C333 0.888 . S
C1329 C211 0.898 . S
C1349 C225 1.245 . S
C1355 C604 1.224 . S
C1375 C379 0.841 . S
C1369 C239 0.889 . S
C1389 C251 1.229 . S
C1395 C582 1.205 . S
C1409 C218 1.235 . S
C1415 C421 1.215 1_565 S
C1429 C226 0.885 . S
C1435 C540 0.858 . S
C1455 C466 1.213 . S
C1449 C238 1.239 . S
C1469 C252 0.892 . S
C1475 C632 0.879 . S
C1489 C250 1.235 . S
C1495 C332 1.193 . S
C1509 C264 1.148 . S
C1515 C517 1.069 . S
C1529 C276 1.257 . S
C1535 C447 1.231 . S
C1549 C290 1.152 . S
C1555 C561 1.044 . S
C1575 C631 1.214 . S
C1569 C213 1.241 . S
C1595 C378 1.228 . S
C1589 C224 1.260 . S
C1615 C402 1.084 . S
C1609 C283 1.152 . S
C1635 C354 1.086 . S
C1629 C303 1.158 . S
C1649 C29 1.303 . S
C1655 C650 1.266 . S
C1675 C609 1.488 . S
C1669 C49 1.593 . S
C1695 C673 1.279 . S
C1689 C3 1.309 . S
C1709 C16 1.623 . S
C1715 C584 1.485 . S
C1729 C44 1.616 . S
C1735 C515 1.448 1_556 S
C1755 C535 1.262 . S
C1749 C4 1.296 . S
C1775 C563 1.489 . S
C1769 C17 1.594 . S
C1795 C627 1.267 . S
C1789 C30 1.298 . S
C1815 C652 1.556 . S
C1809 C147 1.554 . S
C1829 C107 1.269 . S
C1835 C605 1.241 . S
C1849 C127 1.559 . S
C1855 C675 1.560 1_655 S
C1875 C581 1.285 . S
C1869 C135 1.314 . S
C1895 C512 1.293 . S
C1889 C148 1.315 . S
C1909 C114 1.552 . S
C1915 C537 1.552 . S
C1935 C559 1.255 . S
C1929 C120 1.269 . S
C1949 C134 1.561 . S
C1955 C629 1.560 . S
C1975 C653 1.132 . S
C1969 C133 1.229 . S
C1995 C422 1.347 1_565 S
C1989 C75 1.343 . S
C2015 C446 1.163 . S
C2009 C81 1.254 . S
C2029 C101 1.327 . S
C2035 C470 1.288 . S
C2055 C630 1.142 . S
C2049 C146 1.226 . S
C2069 C109 1.245 . S
C2075 C676 1.143 1_556 S
C2095 C399 1.348 . S
C2089 C88 1.345 . S
C2115 C355 1.300 . S
C2109 C62 1.328 . S
C2129 C187 1.047 . S
C2135 C651 1.043 . S
C2155 C353 0.946 . S
C2149 C199 0.949 . S
C2175 C674 1.023 1_655 S
C2169 C160 1.037 . S
C2189 C173 0.886 . S
C2195 C401 0.877 . S
C2209 C205 0.893 . S
C2215 C516 0.895 . S
C2229 C166 1.031 . S
C2235 C444 1.012 . S
C2249 C179 0.948 . S
C2255 C560 0.940 . S
C2269 C185 1.047 . S
C2275 C490 1.042 . S
C2295 C655 0.830 . S
C2289 C302 0.883 . S
C2309 C270 1.241 . S
C2315 C351 1.212 . S
C2335 C678 0.876 . S
C2329 C278 0.902 . S
C2349 C296 1.236 . S
C2355 C398 1.214 . S
C2369 C309 1.228 . S
C2375 C513 1.198 . S
C2395 C448 0.885 . S
C2389 C263 0.903 . S
C2409 C277 1.247 . S
C2415 C558 1.228 . S
C2435 C494 0.877 . S
C2429 C289 0.893 . S
C2455 C654 1.215 . S
C2449 C291 1.240 . S
C2475 C425 1.084 . S
C2469 C231 1.139 . S
C2489 C237 1.261 . S
C2495 C539 1.228 . S
C2515 C469 1.041 1_556 S
C2509 C257 1.149 . S
C2535 C493 1.222 . S
C2529 C304 1.246 . S
C2549 C265 1.258 . S
C2555 C677 1.231 . S
C2575 C586 1.103 . S
C2569 C244 1.147 . S
C2595 C607 1.051 . S
C2589 C212 1.145 . S
