# Generated by pormake.
# Topology rtl, (3,6)-cn, num edge types: 1
# Building blocks:
#     Node 0, Type 0, BuildingBlock: WUSLED_clean_sbu_0, # of connection points: 3
#     Node 1, Type 0, BuildingBlock: WUSLED_clean_sbu_0, # of connection points: 3
#     Node 2, Type 0, BuildingBlock: WUSLED_clean_sbu_0, # of connection points: 3
#     Node 3, Type 0, BuildingBlock: WUSLED_clean_sbu_0, # of connection points: 3
#     Node 4, Type 1, BuildingBlock: KUMBOL_clean_sbu_1, # of connection points: 6
#     Node 5, Type 1, BuildingBlock: KUMBOL_clean_sbu_1, # of connection points: 6
#     Edge 6, Type (0, 1), None
#     Edge 7, Type (0, 1), None
#     Edge 8, Type (0, 1), None
#     Edge 9, Type (0, 1), None
#     Edge 10, Type (0, 1), None
#     Edge 11, Type (0, 1), None
#     Edge 12, Type (0, 1), None
#     Edge 13, Type (0, 1), None
#     Edge 14, Type (0, 1), None
#     Edge 15, Type (0, 1), None
#     Edge 16, Type (0, 1), None
#     Edge 17, Type (0, 1), None
# Relax obj value: 0.018
# Max RMSD: 0.140
# Mean RMSD: 0.081
data_MOF--net-rtl--node1-WUSLED_clean_sbu_0--node2-KUMBOL_clean_sbu_1--edge1-none
_symmetry_space_group_name_H-M    P1
_symmetry_Int_Tables_number       1
_symmetry_cell_setting            triclinic
loop_
_symmetry_equiv_pos_as_xyz
'x, y, z'
_cell_length_a     24.749847
_cell_length_b     25.429292
_cell_length_c     22.602422
_cell_angle_alpha  75.558587
_cell_angle_beta   99.248812
_cell_angle_gamma 90.370599
loop_
_atom_site_label
_atom_site_type_symbol
_atom_site_fract_x
_atom_site_fract_y
_atom_site_fract_z
_atom_type_partial_charge
C0 C 0.18741 0.85897 0.18211 0.0
C1 C 0.15643 0.90727 0.15411 0.0
C2 C 0.12354 0.9048 0.25116 0.0
C3 C 0.12533 0.93027 0.18843 0.0
C4 C 0.15582 0.85688 0.27905 0.0
C5 C 0.18758 0.8345 0.24493 0.0
U6 U 0.21969 0.8373 0.02912 0.0
O7 O 0.23767 0.76139 1.00494 0.0
O8 O 0.29939 0.82428 1.00247 0.0
C9 C 0.2869 0.77605 0.99414 0.0
C10 C 0.21853 0.83255 0.14645 0.0
C11 C 0.33065 0.7335 1.01246 0.0
C12 C 0.38979 0.66341 0.08749 0.0
C13 C 0.35005 0.70585 0.07425 0.0
C14 C 0.39148 0.67738 0.97777 0.0
C15 C 0.41015 0.6482 0.03906 0.0
C16 C 0.35208 0.71928 0.96476 0.0
C17 C 0.13802 0.92237 0.87377 0.0
C18 C 0.10388 0.90399 0.77378 0.0
C19 C 0.11454 0.99675 0.78152 0.0
C20 C 0.13387 0.97815 0.84495 0.0
C21 C 0.09765 0.9601 0.74543 0.0
C22 C 0.12428 0.88525 0.83727 0.0
C23 C 0.15218 0.905 0.94221 0.0
O24 O 0.1905 0.80022 0.11671 0.0
O25 O 0.25117 0.86372 0.11342 0.0
O26 O 0.20023 0.91892 0.96674 0.0
O27 O 0.13909 0.85576 0.96966 0.0
H28 H 0.15593 0.92695 0.10562 0.0
H29 H 0.10248 0.96791 0.1654 0.0
H30 H 0.15537 0.83531 0.3267 0.0
H31 H 0.21137 0.79721 0.26734 0.0
H32 H 0.40335 0.64158 0.13526 0.0
H33 H 0.33392 0.71635 0.11179 0.0
H34 H 0.40635 0.66697 0.93947 0.0
H35 H 0.33753 0.74016 0.91684 0.0
H36 H 0.09134 0.8745 0.74759 0.0
H37 H 0.11181 0.04007 0.76108 0.0
H38 H 0.14434 1.0076 0.87192 0.0
H39 H 0.12748 0.8419 0.85802 0.0
C40 C 0.65074 0.65786 0.84003 0.0
C41 C 0.60111 0.63453 0.82208 0.0
C42 C 0.59197 0.5987 0.931 0.0
C43 C 0.57185 0.60519 0.86736 0.0
C44 C 0.6426 0.62054 0.94773 0.0
C45 C 0.67128 0.65008 0.903 0.0
U46 U 0.70397 0.71015 0.68262 0.0
O47 O 0.78953 0.73 0.67146 0.0
O48 O 0.72342 0.79442 0.6399 0.0
C49 C 0.77537 0.78106 0.64406 0.0
C50 C 0.68223 0.69188 0.79573 0.0
C51 C 0.8164 0.82294 0.63401 0.0
C52 C 0.87144 0.89503 0.66241 0.0
C53 C 0.83158 0.85604 0.67474 0.0
C54 C 0.87936 0.86913 0.56794 0.0
C55 C 0.89618 0.9016 0.60902 0.0
C56 C 0.84047 0.82984 0.5808 0.0
C57 C 0.65632 0.64819 0.54339 0.0
C58 C 0.7027 0.65109 0.45579 0.0
C59 C 0.61781 0.60386 0.46336 0.0
C60 C 0.61461 0.61888 0.51811 0.0
C61 C 0.66288 0.61813 0.43257 0.0
C62 C 0.69968 0.66569 0.51102 0.0
C63 C 0.65597 0.65481 0.60621 0.0
O64 O 0.72301 0.66744 0.78133 0.0
O65 O 0.65481 0.72811 0.74863 0.0
O66 O 0.6356 0.70105 0.61051 0.0
O67 O 0.70054 0.63742 0.64659 0.0
H68 H 0.58477 0.63953 0.77351 0.0
H69 H 0.53331 0.5882 0.85246 0.0
H70 H 0.66087 0.61434 0.99538 0.0
H71 H 0.70981 0.66718 0.91782 0.0
H72 H 0.883 0.91977 0.6948 0.0
H73 H 0.81308 0.85154 0.71596 0.0
H74 H 0.89633 0.87374 0.52575 0.0
H75 H 0.82884 0.80481 0.54872 0.0
H76 H 0.73724 0.66408 0.43244 0.0
H77 H 0.58651 0.57833 0.44744 0.0
H78 H 0.58076 0.60521 0.54244 0.0
H79 H 0.73211 0.6888 0.52955 0.0
C80 C 0.86164 0.13572 0.29885 0.0
C81 C 0.91871 0.12984 0.30225 0.0
C82 C 0.92697 0.07672 0.40946 0.0
C83 C 0.9512 0.10057 0.35735 0.0
C84 C 0.86966 0.07885 0.40357 0.0
C85 C 0.83748 0.10867 0.34938 0.0
U86 U 0.80449 0.19732 0.12517 0.0
O87 O 0.71969 0.22336 0.0817 0.0
O88 O 0.78458 0.28305 0.07643 0.0
C89 C 0.73208 0.27455 0.06326 0.0
C90 C 0.82655 0.1733 0.24647 0.0
C91 C 0.69351 0.31561 0.07018 0.0
C92 C 0.64206 0.35836 0.13018 0.0
C93 C 0.68053 0.31871 0.1276 0.0
C94 C 0.63064 0.39184 0.01865 0.0
C95 C 0.61705 0.39576 0.0755 0.0
C96 C 0.66815 0.35229 1.01612 0.0
C97 C 0.86344 0.14014 1.00268 0.0
C98 C 0.89652 0.18068 0.90651 0.0
C99 C 0.89214 0.08281 0.94113 0.0
C100 C 0.87 0.08853 0.99238 0.0
C101 C 0.90838 0.12872 0.89996 0.0
C102 C 0.87382 0.18646 0.95745 0.0
C103 C 0.85656 0.14335 0.06532 0.0
O104 O 0.85096 0.21173 0.2107 0.0
O105 O 0.78646 0.15161 0.21588 0.0
O106 O 0.81004 0.12771 0.08395 0.0
O107 O 0.87594 0.18625 0.08299 0.0
H108 H 0.93839 0.1495 0.26341 0.0
H109 H 0.99525 0.09848 0.3599 0.0
H110 H 0.84952 0.05846 0.44151 0.0
H111 H 0.79359 0.11199 0.3477 0.0
H112 H 0.63148 0.35923 0.17459 0.0
H113 H 0.69955 0.29036 0.16997 0.0
H114 H 0.61231 0.41959 0.9755 0.0
H115 H 0.67735 0.35033 0.97141 0.0
H116 H 0.90816 0.21658 0.87449 0.0
H117 H 0.90086 0.04242 0.93664 0.0
H118 H 0.8621 0.05233 0.02657 0.0
H119 H 0.86842 0.22681 0.96382 0.0
C120 C 0.38032 0.37154 0.29736 0.0
C121 C 0.38918 0.42698 0.2929 0.0
C122 C 0.43565 0.43225 0.20425 0.0
C123 C 0.41674 0.45714 0.24659 0.0
C124 C 0.42914 0.37631 0.21131 0.0
C125 C 0.40138 0.34648 0.25691 0.0
U126 U 0.32214 0.31666 0.45188 0.0
O127 O 0.23579 0.29834 0.46 0.0
O128 O 0.29977 0.2316 0.48734 0.0
C129 C 0.24781 0.24601 0.48069 0.0
C130 C 0.34542 0.33928 0.33908 0.0
C131 C 0.2059 0.20618 0.49697 0.0
C132 C 0.14687 0.13486 0.47351 0.0
C133 C 0.18668 0.17286 0.45777 0.0
C134 C 0.14667 0.16176 0.56896 0.0
C135 C 0.12612 0.12893 0.52926 0.0
C136 C 0.18555 0.20061 0.55246 0.0
C137 C 0.3756 0.36952 0.59787 0.0
C138 C 0.3277 0.37519 0.68177 0.0
C139 C 0.41788 0.4122 0.67822 0.0
C140 C 0.42045 0.39446 0.62484 0.0
C141 C 0.37018 0.40538 0.70504 0.0
C142 C 0.33024 0.35754 0.62835 0.0
C143 C 0.37393 0.36469 0.53396 0.0
O144 O 0.36972 0.2993 0.38411 0.0
O145 O 0.30677 0.36534 0.35521 0.0
O146 O 0.32976 0.38555 0.49452 0.0
O147 O 0.39128 0.31839 0.52655 0.0
H148 H 0.37357 0.44723 0.32386 0.0
H149 H 0.42183 0.50013 0.24288 0.0
H150 H 0.44484 0.35553 0.18099 0.0
H151 H 0.39511 0.30378 0.25958 0.0
H152 H 0.13259 0.10997 0.44202 0.0
H153 H 0.20228 0.17636 0.41488 0.0
H154 H 0.13377 0.15678 0.61345 0.0
H155 H 0.20054 0.22562 0.58362 0.0
H156 H 0.29049 0.36942 0.70185 0.0
H157 H 0.45088 0.43575 0.69483 0.0
H158 H 0.45582 0.40398 0.60191 0.0
H159 H 0.29526 0.33815 0.60849 0.0
C160 C 0.92309 0.17413 0.52181 0.0
C161 C 0.82706 0.15994 0.48801 0.0
C162 C 0.87902 0.13994 0.52129 0.0
C163 C 0.82084 0.21375 0.45174 0.0
C164 C 0.91604 0.22911 0.48844 0.0
C165 C 0.86528 0.24819 0.45175 0.0
N166 N 0.97095 0.15516 0.55994 0.0
C167 C 1.01039 0.19039 0.57246 0.0
C168 C 0.95915 0.26406 0.49582 0.0
C169 C 1.00607 0.24485 0.53913 0.0
Gd170 Gd 0.05379 0.96123 0.54199 0.0
Gd171 Gd 0.97398 0.0626 0.61152 0.0
N172 N 0.88613 0.08801 0.55668 0.0
C173 C 0.78249 0.12583 0.49407 0.0
C174 C 0.84243 0.05573 0.56608 0.0
C175 C 0.79006 0.07382 0.53414 0.0
H176 H 0.84829 0.0159 0.59776 0.0
H177 H 0.75562 0.04777 0.54052 0.0
H178 H 0.17431 0.0255 0.5611 0.0
H179 H 0.04444 0.17696 0.60943 0.0
H180 H 0.26485 1.00602 0.62577 0.0
H181 H 0.74186 0.1398 0.46946 0.0
H182 H 0.78139 0.22965 0.42515 0.0
H183 H 0.98801 0.84492 0.56968 0.0
H184 H 0.95535 0.30657 0.47101 0.0
H185 H 0.03822 0.27226 0.54809 0.0
H186 H 0.25985 0.81949 0.7369 0.0
H187 H 0.8593 0.29018 0.42535 0.0
H188 H 0.09514 0.72434 0.70026 0.0
H189 H 1.00514 0.75121 0.6337 0.0
N190 N 0.06574 0.87199 0.60249 0.0
C191 C 0.11631 0.85768 0.63626 0.0
C192 C 0.02652 0.83432 0.60014 0.0
C193 C 0.08747 0.76584 0.67273 0.0
C194 C 0.03653 0.78087 0.63557 0.0
C195 C 0.12822 0.80429 0.67322 0.0
H196 H 0.19 0.75021 0.7383 0.0
N197 N 0.14348 0.94802 0.59793 0.0
C198 C 0.15601 0.89687 0.63465 0.0
C199 C 0.24729 0.92355 0.66857 0.0
C200 C 0.20822 0.88343 0.67109 0.0
C201 C 0.18235 0.98646 0.59324 0.0
C202 C 0.23441 0.97513 0.62915 0.0
O203 O 0.93748 0.04491 0.52039 0.0
O204 O 1.01126 0.03592 0.47429 0.0
O205 O 0.10817 0.94725 0.47998 0.0
O206 O 0.0282 0.91204 0.47811 0.0
O207 O 0.95036 0.97464 0.63305 0.0
O208 O 0.96486 0.94333 0.54885 0.0
O209 O 0.05556 0.94655 0.64583 0.0
O210 O 0.05933 0.03273 0.65777 0.0
O211 O 0.95732 0.03054 0.70557 0.0
O212 O 0.94268 0.11555 0.66014 0.0
O213 O 0.07861 0.04892 0.51605 0.0
O214 O 0.05958 0.08803 0.59345 0.0
C215 C 0.96044 0.05209 0.47071 0.0
C216 C 0.93942 0.94167 0.59638 0.0
C217 C 0.06173 0.93614 0.38383 0.0
C218 C 0.08626 0.92658 0.28617 0.0
C219 C 1.00046 0.97282 0.28729 0.0
C220 C 1.0131 0.9644 0.3513 0.0
C221 C 0.03613 0.9534 0.25503 0.0
C222 C 0.09879 0.91865 0.3511 0.0
C223 C 0.07175 0.92054 0.45198 0.0
C224 C 0.21994 0.83045 0.7086 0.0
C225 C 0.18017 0.79096 0.70943 0.0
H226 H 0.2878 0.91486 0.69605 0.0
C227 C 0.07159 0.98073 0.6796 0.0
C228 C 0.08491 0.08732 0.54635 0.0
C229 C 0.96361 0.09377 0.76724 0.0
C230 C 0.94544 0.12213 0.85724 0.0
C231 C 0.0358 0.13219 0.82759 0.0
C232 C 0.01762 0.11061 0.77718 0.0
C233 C 0.99979 0.1384 0.86719 0.0
C234 C 0.9277 0.09889 0.80773 0.0
C235 C 0.94201 0.0779 0.71052 0.0
H236 H 0.96219 0.9934 0.26271 0.0
H237 H 0.98407 0.9785 0.37556 0.0
H238 H 0.02357 0.95854 0.20577 0.0
H239 H 0.13679 0.89812 0.37672 0.0
H240 H 0.07751 0.14516 0.83525 0.0
H241 H 0.04495 0.10869 0.74485 0.0
H242 H 0.01434 0.15575 0.90577 0.0
H243 H 0.8856 0.08682 0.79941 0.0
C244 C 0.681 0.57662 0.12257 0.0
C245 C 0.67767 0.67518 0.08619 0.0
C246 C 0.65108 0.62597 0.10447 0.0
C247 C 0.73464 0.67442 0.08805 0.0
C248 C 0.73832 0.57598 0.12498 0.0
C249 C 0.76487 0.62505 0.10762 0.0
N250 N 0.65423 0.52946 0.13781 0.0
C251 C 0.6829 0.48102 0.16075 0.0
C252 C 0.76748 0.52604 0.14534 0.0
C253 C 0.73968 0.47842 0.16394 0.0
Gd254 Gd 0.45597 0.48846 1.00458 0.0
Gd255 Gd 0.55996 0.54013 0.13581 0.0
N256 N 0.59567 0.62556 0.10128 0.0
C257 C 0.64603 0.72366 0.06525 0.0
C258 C 0.56476 0.67277 0.08234 0.0
C259 C 0.58937 0.72242 0.06337 0.0
H260 H 0.52128 0.67248 0.0823 0.0
H261 H 0.56467 0.75977 0.0477 0.0
H262 H 0.49917 0.35911 0.03489 0.0
H263 H 0.66295 0.44487 0.18088 0.0
H264 H 0.46365 0.2679 0.0745 0.0
H265 H 0.66493 0.76223 0.0504 0.0
H266 H 0.75572 0.71185 0.07418 0.0
H267 H 0.3505 0.5776 0.98671 0.0
H268 H 0.81158 0.52395 0.14833 0.0
H269 H 0.7621 0.43987 0.1824 0.0
H270 H 0.28442 0.30503 0.11347 0.0
H271 H 0.80883 0.62523 0.10905 0.0
H272 H 0.22012 0.49048 0.06367 0.0
H273 H 0.25845 0.57725 1.01386 0.0
N274 N 0.36858 0.49412 0.03032 0.0
C275 C 0.34654 0.44526 0.05228 0.0
C276 C 0.33656 0.5406 1.01355 0.0
C277 C 0.2617 0.4909 0.05423 0.0
C278 C 0.28331 0.54003 0.02669 0.0
C279 C 0.29281 0.44255 0.06597 0.0
H280 H 0.22998 0.389 0.0998 0.0
N281 N 0.42816 0.40087 0.04399 0.0
C282 C 0.37673 0.39744 0.05845 0.0
C283 C 0.38663 0.29945 0.08666 0.0
C284 C 0.35474 0.34643 0.08059 0.0
C285 C 0.45905 0.35545 0.04831 0.0
C286 C 0.43894 0.304 0.07033 0.0
O287 O 0.577 0.57253 0.03729 0.0
O288 O 0.52026 0.53999 0.96213 0.0
O289 O 0.45117 0.44589 0.9286 0.0
O290 O 0.39859 0.51655 0.92228 0.0
O291 O 0.47619 0.58191 0.10708 0.0
O292 O 0.45099 0.57732 1.00556 0.0
O293 O 0.46704 0.44319 0.10612 0.0
O294 O 0.47567 0.51347 0.15101 0.0
O295 O 0.56575 0.58543 0.20616 0.0
O296 O 0.58895 0.4998 0.2325 0.0
O297 O 0.54316 0.45789 0.02202 0.0
O298 O 0.57171 0.4535 0.1261 0.0
C299 C 0.56108 0.56892 0.97973 0.0
C300 C 0.44809 0.60034 0.05115 0.0
C301 C 0.37957 0.47814 0.83525 0.0
C302 C 0.35853 0.44087 0.74472 0.0
C303 C 0.30084 0.51349 0.75588 0.0
C304 C 0.33349 0.51382 0.81176 0.0
C305 C 0.31307 0.47728 0.72266 0.0
C306 C 0.39256 0.44179 0.80102 0.0
C307 C 0.41113 0.4792 0.89633 0.0
C308 C 0.30196 0.34388 0.09618 0.0
C309 C 0.27107 0.39174 0.08874 0.0
H310 H 0.37119 0.2595 0.10371 0.0
C311 C 0.4607 0.46422 0.15193 0.0
C312 C 0.57586 0.43829 0.075 0.0
C313 C 0.63452 0.55616 0.29347 0.0
C314 C 0.67115 0.59401 0.38077 0.0
C315 C 0.73226 0.55057 0.33154 0.0
C316 C 0.68779 0.53976 0.29069 0.0
C317 C 0.72414 0.57706 0.37657 0.0
C318 C 0.62642 0.58379 0.33824 0.0
C319 C 0.58691 0.54449 0.2508 0.0
H320 H 0.26578 0.54141 0.73829 0.0
H321 H 0.32212 0.54217 0.83671 0.0
H322 H 0.28726 0.47832 0.67882 0.0
H323 H 0.42797 0.41417 0.8182 0.0
H324 H 0.77313 0.53727 0.32915 0.0
H325 H 0.69532 0.51779 0.25791 0.0
H326 H 0.75937 0.58263 0.40932 0.0
H327 H 0.58526 0.59679 0.34014 0.0
loop_
_geom_bond_atom_site_label_1
_geom_bond_atom_site_label_2
_geom_bond_distance
_geom_bond_site_symmetry_2
_ccdc_geom_bond_type
C0 C1 1.264 . S
C0 C5 1.479 . S
C0 C10 1.465 . S
C1 C0 1.264 . S
C1 C3 1.339 . S
C1 H28 0.931 . S
C2 C3 1.395 . S
C2 C4 1.320 . S
C3 C1 1.339 . S
C3 C2 1.395 . S
C3 H29 0.929 1_565 S
C4 C2 1.320 . S
C4 C5 1.405 . S
C4 H30 0.930 . S
C5 C0 1.479 . S
C5 C4 1.405 . S
C5 H31 0.931 . S
U6 O7 2.454 . S
U6 O8 2.458 1_554 S
U6 C9 2.984 . S
U6 C10 2.847 . S
U6 C23 2.882 1_554 S
U6 O24 2.441 . S
U6 O25 2.420 . S
U6 O26 2.455 1_554 S
U6 O27 2.449 1_554 S
O7 U6 2.454 . S
O7 C9 1.353 . S
O8 U6 2.458 1_556 S
O8 C9 1.286 1_556 S
C9 U6 2.984 . S
C9 O7 1.353 . S
C9 O8 1.286 1_554 S
C9 C11 1.363 . S
C10 C0 1.465 . S
C10 U6 2.847 . S
C10 O24 1.249 . S
C10 O25 1.202 . S
C11 C9 1.363 . S
C11 C13 1.408 . S
C11 C16 1.348 . S
C12 C13 1.310 . S
C12 C15 1.461 . S
C12 H32 0.932 . S
C13 C11 1.408 . S
C13 C12 1.310 . S
C13 H33 0.930 . S
C14 C15 1.474 . S
C14 C16 1.284 . S
C14 H34 0.929 1_554 S
C15 C12 1.461 . S
C15 C14 1.474 . S
C16 C11 1.348 . S
C16 C14 1.284 . S
C16 H35 0.926 1_554 S
C17 C20 1.424 . S
C17 C22 1.245 . S
C17 C23 1.428 . S
C18 C21 1.260 1_565 S
C18 C22 1.477 . S
C18 H36 0.932 . S
C19 C20 1.384 1_545 S
C19 C21 1.479 . S
C19 H37 0.929 . S
C20 C17 1.424 . S
C20 C19 1.384 1_565 S
C20 H38 0.928 1_565 S
C21 C18 1.260 1_545 S
C21 C19 1.479 . S
C22 C17 1.245 . S
C22 C18 1.477 . S
C22 H39 0.932 . S
C23 U6 2.882 1_556 S
C23 C17 1.428 . S
C23 O26 1.301 . S
C23 O27 1.282 . S
O24 U6 2.441 . S
O24 C10 1.249 . S
O25 U6 2.420 . S
O25 C10 1.202 . S
O26 U6 2.455 1_556 S
O26 C23 1.301 . S
O27 U6 2.449 1_556 S
O27 C23 1.282 . S
H28 C1 0.931 . S
H29 C3 0.929 1_545 S
H30 C4 0.930 . S
H31 C5 0.931 . S
H32 C12 0.932 . S
H33 C13 0.930 . S
H34 C14 0.929 1_556 S
H35 C16 0.926 1_556 S
H36 C18 0.932 . S
H37 C19 0.929 . S
H38 C20 0.928 1_545 S
H39 C22 0.932 . S
C40 C41 1.264 . S
C40 C45 1.479 . S
C40 C50 1.465 . S
C41 C40 1.264 . S
C41 C43 1.339 . S
C41 H68 0.931 . S
C42 C43 1.395 . S
C42 C44 1.320 . S
C43 C41 1.339 . S
C43 C42 1.395 . S
C43 H69 0.929 . S
C44 C42 1.320 . S
C44 C45 1.405 . S
C44 H70 0.930 . S
C45 C40 1.479 . S
C45 C44 1.405 . S
C45 H71 0.931 . S
U46 O47 2.454 . S
U46 O48 2.458 . S
U46 C49 2.984 . S
U46 C50 2.847 . S
U46 C63 2.882 . S
U46 O64 2.441 . S
U46 O65 2.420 . S
U46 O66 2.455 . S
U46 O67 2.449 . S
O47 U46 2.454 . S
O47 C49 1.353 . S
O48 U46 2.458 . S
O48 C49 1.286 . S
C49 U46 2.984 . S
C49 O47 1.353 . S
C49 O48 1.286 . S
C49 C51 1.363 . S
C50 C40 1.465 . S
C50 U46 2.847 . S
C50 O64 1.249 . S
C50 O65 1.202 . S
C51 C49 1.363 . S
C51 C53 1.408 . S
C51 C56 1.342 . S
C52 C53 1.310 . S
C52 C55 1.461 . S
C52 H72 0.932 . S
C53 C51 1.408 . S
C53 C52 1.310 . S
C53 H73 0.930 . S
C54 C55 1.474 . S
C54 C56 1.285 . S
C54 H74 0.929 . S
C55 C52 1.461 . S
C55 C54 1.474 . S
C56 C51 1.342 . S
C56 C54 1.285 . S
C56 H75 0.930 . S
C57 C60 1.424 . S
C57 C62 1.245 . S
C57 C63 1.428 . S
C58 C61 1.260 . S
C58 C62 1.477 . S
C58 H76 0.932 . S
C59 C60 1.384 . S
C59 C61 1.479 . S
C59 H77 0.929 . S
C60 C57 1.424 . S
C60 C59 1.384 . S
C60 H78 0.928 . S
C61 C58 1.260 . S
C61 C59 1.479 . S
C62 C57 1.245 . S
C62 C58 1.477 . S
C62 H79 0.932 . S
C63 U46 2.882 . S
C63 C57 1.428 . S
C63 O66 1.301 . S
C63 O67 1.282 . S
O64 U46 2.441 . S
O64 C50 1.249 . S
O65 U46 2.420 . S
O65 C50 1.202 . S
O66 U46 2.455 . S
O66 C63 1.301 . S
O67 U46 2.449 . S
O67 C63 1.282 . S
H68 C41 0.931 . S
H69 C43 0.929 . S
H70 C44 0.930 . S
H71 C45 0.931 . S
H72 C52 0.932 . S
H73 C53 0.930 . S
H74 C54 0.929 . S
H75 C56 0.930 . S
H76 C58 0.932 . S
H77 C59 0.929 . S
H78 C60 0.928 . S
H79 C62 0.932 . S
C80 C81 1.264 . S
C80 C85 1.479 . S
C80 C90 1.465 . S
C81 C80 1.264 . S
C81 C83 1.339 1_545 S
C81 H108 0.931 1_545 S
C82 C83 1.395 1_545 S
C82 C84 1.320 . S
C83 C81 1.339 1_565 S
C83 C82 1.395 1_565 S
C83 H109 0.929 . S
C84 C82 1.320 . S
C84 C85 1.405 . S
C84 H110 0.930 . S
C85 C80 1.479 . S
C85 C84 1.405 . S
C85 H111 0.931 . S
U86 O87 2.454 . S
U86 O88 2.458 . S
U86 C89 2.984 . S
U86 C90 2.847 . S
U86 C103 2.882 . S
U86 O104 2.441 . S
U86 O105 2.420 . S
U86 O106 2.455 1_554 S
U86 O107 2.449 . S
O87 U86 2.454 . S
O87 C89 1.353 . S
O88 U86 2.458 . S
O88 C89 1.286 . S
C89 U86 2.984 . S
C89 O87 1.353 . S
C89 O88 1.286 . S
C89 C91 1.363 . S
C90 C80 1.465 . S
C90 U86 2.847 . S
C90 O104 1.249 . S
C90 O105 1.202 . S
C91 C89 1.363 . S
C91 C93 1.408 . S
C91 C96 1.342 . S
C92 C93 1.310 . S
C92 C95 1.461 . S
C92 H112 0.932 . S
C93 C91 1.408 . S
C93 C92 1.310 . S
C93 H113 0.930 . S
C94 C95 1.474 1_556 S
C94 C96 1.285 1_556 S
C94 H114 0.929 . S
C95 C92 1.461 . S
C95 C94 1.474 1_554 S
C96 C91 1.342 . S
C96 C94 1.285 1_554 S
C96 H115 0.930 1_554 S
C97 C100 1.424 . S
C97 C102 1.245 . S
C97 C103 1.428 1_556 S
C98 C101 1.260 . S
C98 C102 1.477 . S
C98 H116 0.932 . S
C99 C100 1.384 . S
C99 C101 1.479 . S
C99 H117 0.917 1_545 S
C100 C97 1.424 . S
C100 C99 1.384 . S
C100 H118 0.928 1_556 S
C101 C98 1.260 . S
C101 C99 1.479 . S
C102 C97 1.245 . S
C102 C98 1.477 . S
C102 H119 0.932 . S
C103 U86 2.882 . S
C103 C97 1.428 1_554 S
C103 O106 1.301 1_554 S
C103 O107 1.282 . S
O104 U86 2.441 . S
O104 C90 1.249 . S
O105 U86 2.420 . S
O105 C90 1.202 . S
O106 U86 2.455 1_556 S
O106 C103 1.301 1_556 S
O107 U86 2.449 . S
O107 C103 1.282 . S
H108 C81 0.931 1_565 S
H109 C83 0.929 . S
H110 C84 0.930 . S
H111 C85 0.931 . S
H112 C92 0.932 . S
H113 C93 0.930 . S
H114 C94 0.929 . S
H115 C96 0.930 1_556 S
H116 C98 0.932 . S
H117 C99 0.917 1_565 S
H118 C100 0.928 1_554 S
H119 C102 0.932 . S
C120 C121 1.264 . S
C120 C125 1.479 . S
C120 C130 1.465 . S
C121 C120 1.264 . S
C121 C123 1.339 . S
C121 H148 0.931 . S
C122 C123 1.395 . S
C122 C124 1.320 . S
C123 C121 1.339 . S
C123 C122 1.395 . S
C123 H149 0.929 . S
C124 C122 1.320 . S
C124 C125 1.405 . S
C124 H150 0.930 . S
C125 C120 1.479 . S
C125 C124 1.405 . S
C125 H151 0.931 . S
U126 O127 2.454 . S
U126 O128 2.458 . S
U126 C129 2.984 . S
U126 C130 2.847 . S
U126 C143 2.882 . S
U126 O144 2.441 . S
U126 O145 2.420 . S
U126 O146 2.455 . S
U126 O147 2.449 . S
O127 U126 2.454 . S
O127 C129 1.353 . S
O128 U126 2.458 . S
O128 C129 1.286 . S
C129 U126 2.984 . S
C129 O127 1.353 . S
C129 O128 1.286 . S
C129 C131 1.363 . S
C130 C120 1.465 . S
C130 U126 2.847 . S
C130 O144 1.249 . S
C130 O145 1.202 . S
C131 C129 1.363 . S
C131 C133 1.408 . S
C131 C136 1.342 . S
C132 C133 1.310 . S
C132 C135 1.461 . S
C132 H152 0.932 . S
C133 C131 1.408 . S
C133 C132 1.310 . S
C133 H153 0.930 . S
C134 C135 1.474 . S
C134 C136 1.285 . S
C134 H154 0.929 . S
C135 C132 1.461 . S
C135 C134 1.474 . S
C136 C131 1.342 . S
C136 C134 1.285 . S
C136 H155 0.930 . S
C137 C140 1.424 . S
C137 C142 1.245 . S
C137 C143 1.428 . S
C138 C141 1.260 . S
C138 C142 1.477 . S
C138 H156 0.932 . S
C139 C140 1.384 . S
C139 C141 1.479 . S
C139 H157 0.929 . S
C140 C137 1.424 . S
C140 C139 1.384 . S
C140 H158 0.928 . S
C141 C138 1.260 . S
C141 C139 1.479 . S
C142 C137 1.245 . S
C142 C138 1.477 . S
C142 H159 0.932 . S
C143 U126 2.882 . S
C143 C137 1.428 . S
C143 O146 1.301 . S
C143 O147 1.282 . S
O144 U126 2.441 . S
O144 C130 1.249 . S
O145 U126 2.420 . S
O145 C130 1.202 . S
O146 U126 2.455 . S
O146 C143 1.301 . S
O147 U126 2.449 . S
O147 C143 1.282 . S
H148 C121 0.931 . S
H149 C123 0.929 . S
H150 C124 0.930 . S
H151 C125 0.931 . S
H152 C132 0.932 . S
H153 C133 0.930 . S
H154 C134 0.929 . S
H155 C136 0.930 . S
H156 C138 0.932 . S
H157 C139 0.929 . S
H158 C140 0.928 . S
H159 C142 0.932 . S
C160 C162 1.422 . S
C160 C164 1.415 . S
C160 N166 1.369 . S
C161 C162 1.421 . S
C161 C163 1.417 . S
C161 C173 1.422 . S
C162 C160 1.422 . S
C162 C161 1.421 . S
C162 N172 1.359 . S
C163 C161 1.417 . S
C163 C165 1.329 . S
C163 H182 0.930 . S
C164 C160 1.415 . S
C164 C165 1.437 . S
C164 C168 1.413 . S
C165 C163 1.329 . S
C165 C164 1.437 . S
C165 H187 0.929 . S
N166 C160 1.369 . S
N166 C167 1.338 . S
N166 Gd171 2.622 . S
C167 N166 1.338 . S
C167 C169 1.378 . S
C167 H179 0.929 1_655 S
C168 C164 1.413 . S
C168 C169 1.348 . S
C168 H184 0.931 . S
C169 C167 1.378 . S
C169 C168 1.348 . S
C169 H185 0.930 1_655 S
Gd170 N190 2.622 . S
Gd170 N197 2.570 . S
Gd170 O204 2.353 1_465 S
Gd170 O205 2.468 . S
Gd170 O206 2.427 . S
Gd170 O208 2.388 1_455 S
Gd170 O209 2.386 . S
Gd170 O213 2.307 1_565 S
Gd170 C223 2.805 . S
Gd171 N166 2.622 . S
Gd171 N172 2.570 . S
Gd171 O203 2.386 . S
Gd171 O207 2.307 1_545 S
Gd171 O210 2.353 1_655 S
Gd171 O211 2.468 . S
Gd171 O212 2.427 . S
Gd171 O214 2.388 1_655 S
Gd171 C235 2.805 . S
N172 C162 1.359 . S
N172 Gd171 2.570 . S
N172 C174 1.343 . S
C173 C161 1.422 . S
C173 C175 1.321 . S
C173 H181 0.931 . S
C174 N172 1.343 . S
C174 C175 1.390 . S
C174 H176 0.931 . S
C175 C173 1.321 . S
C175 C174 1.390 . S
C175 H177 0.930 . S
H176 C174 0.931 . S
H177 C175 0.930 . S
H178 C201 0.931 . S
H179 C167 0.929 1_455 S
H180 C202 0.930 . S
H181 C173 0.931 . S
H182 C163 0.930 . S
H183 C192 0.929 1_655 S
H184 C168 0.931 . S
H185 C169 0.930 1_455 S
H186 C224 0.930 . S
H187 C165 0.929 . S
H188 C193 0.931 . S
H189 C194 0.930 1_655 S
N190 Gd170 2.622 . S
N190 C191 1.369 . S
N190 C192 1.338 . S
C191 N190 1.369 . S
C191 C195 1.415 . S
C191 C198 1.422 . S
C192 H183 0.929 1_455 S
C192 N190 1.338 . S
C192 C194 1.378 . S
C193 H188 0.931 . S
C193 C194 1.348 . S
C193 C195 1.413 . S
C194 H189 0.930 1_455 S
C194 C192 1.378 . S
C194 C193 1.348 . S
C195 C191 1.415 . S
C195 C193 1.413 . S
C195 C225 1.437 . S
H196 C225 0.929 . S
N197 Gd170 2.570 . S
N197 C198 1.359 . S
N197 C201 1.343 . S
C198 C191 1.422 . S
C198 N197 1.359 . S
C198 C200 1.421 . S
C199 C200 1.422 . S
C199 C202 1.321 . S
C199 H226 0.931 . S
C200 C198 1.421 . S
C200 C199 1.422 . S
C200 C224 1.417 . S
C201 H178 0.931 . S
C201 N197 1.343 . S
C201 C202 1.390 . S
C202 H180 0.930 . S
C202 C199 1.321 . S
C202 C201 1.390 . S
O203 Gd171 2.386 . S
O203 C215 1.265 . S
O204 Gd170 2.353 1_645 S
O204 C215 1.242 . S
O205 Gd170 2.468 . S
O205 C223 1.263 . S
O206 Gd170 2.427 . S
O206 C223 1.252 . S
O207 Gd171 2.307 1_565 S
O207 C216 1.261 . S
O208 Gd170 2.388 1_655 S
O208 C216 1.252 . S
O209 Gd170 2.386 . S
O209 C227 1.265 . S
O210 Gd171 2.353 1_455 S
O210 C227 1.242 1_545 S
O211 Gd171 2.468 . S
O211 C235 1.263 . S
O212 Gd171 2.427 . S
O212 C235 1.252 . S
O213 Gd170 2.307 1_545 S
O213 C228 1.261 . S
O214 Gd171 2.388 1_455 S
O214 C228 1.252 . S
C215 O203 1.265 . S
C215 O204 1.242 . S
C216 O207 1.261 . S
C216 O208 1.252 . S
C217 C220 1.394 . S
C217 C222 1.370 . S
C217 C223 1.500 . S
C218 C221 1.383 . S
C218 C222 1.395 . S
C219 C220 1.396 . S
C219 C221 1.365 . S
C219 H236 0.929 . S
C220 C217 1.394 . S
C220 C219 1.396 . S
C220 H237 0.930 . S
C221 C218 1.383 . S
C221 C219 1.365 . S
C221 H238 0.931 . S
C222 C217 1.370 . S
C222 C218 1.395 . S
C222 H239 0.930 . S
C223 Gd170 2.805 . S
C223 O205 1.263 . S
C223 O206 1.252 . S
C223 C217 1.500 . S
C224 H186 0.930 . S
C224 C200 1.417 . S
C224 C225 1.329 . S
C225 C195 1.437 . S
C225 H196 0.929 . S
C225 C224 1.329 . S
H226 C199 0.931 . S
C227 O209 1.265 . S
C227 O210 1.242 1_565 S
C228 O213 1.261 . S
C228 O214 1.252 . S
C229 C232 1.394 . S
C229 C234 1.370 . S
C229 C235 1.500 . S
C230 C233 1.383 . S
C230 C234 1.395 . S
C231 C232 1.396 . S
C231 C233 1.365 . S
C231 H240 0.929 . S
C232 C229 1.394 . S
C232 C231 1.396 . S
C232 H241 0.930 . S
C233 C230 1.383 . S
C233 C231 1.365 . S
C233 H242 0.931 . S
C234 C229 1.370 . S
C234 C230 1.395 . S
C234 H243 0.930 . S
C235 Gd171 2.805 . S
C235 O211 1.263 . S
C235 O212 1.252 . S
C235 C229 1.500 . S
H236 C219 0.929 . S
H237 C220 0.930 . S
H238 C221 0.931 . S
H239 C222 0.930 . S
H240 C231 0.929 . S
H241 C232 0.930 . S
H242 C233 0.931 . S
H243 C234 0.930 . S
C244 C246 1.422 . S
C244 C248 1.415 . S
C244 N250 1.369 . S
C245 C246 1.421 . S
C245 C247 1.417 . S
C245 C257 1.422 . S
C246 C244 1.422 . S
C246 C245 1.421 . S
C246 N256 1.359 . S
C247 C245 1.417 . S
C247 C249 1.329 . S
C247 H266 0.930 . S
C248 C244 1.415 . S
C248 C249 1.437 . S
C248 C252 1.413 . S
C249 C247 1.329 . S
C249 C248 1.437 . S
C249 H271 0.929 . S
N250 C244 1.369 . S
N250 C251 1.338 . S
N250 Gd255 2.622 . S
C251 N250 1.338 . S
C251 C253 1.378 . S
C251 H263 0.929 . S
C252 C248 1.413 . S
C252 C253 1.348 . S
C252 H268 0.931 . S
C253 C251 1.378 . S
C253 C252 1.348 . S
C253 H269 0.930 . S
Gd254 N274 2.617 1_556 S
Gd254 N281 2.567 1_556 S
Gd254 O288 2.363 . S
Gd254 O289 2.486 . S
Gd254 O290 2.445 . S
Gd254 O292 2.381 1_556 S
Gd254 O293 2.366 1_556 S
Gd254 O297 2.303 1_556 S
Gd254 C307 2.825 . S
Gd255 N250 2.622 . S
Gd255 N256 2.570 . S
Gd255 O287 2.386 . S
Gd255 O291 2.307 . S
Gd255 O294 2.353 . S
Gd255 O295 2.468 . S
Gd255 O296 2.427 . S
Gd255 O298 2.388 . S
Gd255 C319 2.805 . S
N256 C246 1.359 . S
N256 Gd255 2.570 . S
N256 C258 1.343 . S
C257 C245 1.422 . S
C257 C259 1.321 . S
C257 H265 0.931 . S
C258 N256 1.343 . S
C258 C259 1.390 . S
C258 H260 0.931 . S
C259 C257 1.321 . S
C259 C258 1.390 . S
C259 H261 0.930 . S
H260 C258 0.931 . S
H261 C259 0.930 . S
H262 C285 0.931 . S
H263 C251 0.929 . S
H264 C286 0.930 . S
H265 C257 0.931 . S
H266 C247 0.930 . S
H267 C276 0.929 . S
H268 C252 0.931 . S
H269 C253 0.930 . S
H270 C308 0.930 . S
H271 C249 0.929 . S
H272 C277 0.931 . S
H273 C278 0.930 . S
N274 Gd254 2.617 1_554 S
N274 C275 1.369 . S
N274 C276 1.338 1_554 S
C275 N274 1.369 . S
C275 C279 1.415 . S
C275 C282 1.422 . S
C276 H267 0.929 . S
C276 N274 1.338 1_556 S
C276 C278 1.378 . S
C277 H272 0.931 . S
C277 C278 1.348 1_554 S
C277 C279 1.413 . S
C278 H273 0.930 . S
C278 C276 1.378 . S
C278 C277 1.348 1_556 S
C279 C275 1.415 . S
C279 C277 1.413 . S
C279 C309 1.437 . S
H280 C309 0.929 . S
N281 Gd254 2.567 1_554 S
N281 C282 1.359 . S
N281 C285 1.343 . S
C282 C275 1.422 . S
C282 N281 1.359 . S
C282 C284 1.421 . S
C283 C284 1.422 . S
C283 C286 1.321 . S
C283 H310 0.931 . S
C284 C282 1.421 . S
C284 C283 1.422 . S
C284 C308 1.417 . S
C285 H262 0.931 . S
C285 N281 1.343 . S
C285 C286 1.390 . S
C286 H264 0.930 . S
C286 C283 1.321 . S
C286 C285 1.390 . S
O287 Gd255 2.386 . S
O287 C299 1.265 1_554 S
O288 Gd254 2.363 . S
O288 C299 1.242 . S
O289 Gd254 2.486 . S
O289 C307 1.263 . S
O290 Gd254 2.445 . S
O290 C307 1.252 . S
O291 Gd255 2.307 . S
O291 C300 1.261 . S
O292 Gd254 2.381 1_554 S
O292 C300 1.252 . S
O293 Gd254 2.366 1_554 S
O293 C311 1.265 . S
O294 Gd255 2.353 . S
O294 C311 1.242 . S
O295 Gd255 2.468 . S
O295 C319 1.263 . S
O296 Gd255 2.427 . S
O296 C319 1.252 . S
O297 Gd254 2.303 1_554 S
O297 C312 1.261 . S
O298 Gd255 2.388 . S
O298 C312 1.252 . S
C299 O287 1.265 1_556 S
C299 O288 1.242 . S
C300 O291 1.261 . S
C300 O292 1.252 . S
C301 C304 1.394 . S
C301 C306 1.370 . S
C301 C307 1.500 . S
C302 C305 1.383 . S
C302 C306 1.395 . S
C303 C304 1.396 . S
C303 C305 1.365 . S
C303 H320 0.929 . S
C304 C301 1.394 . S
C304 C303 1.396 . S
C304 H321 0.930 . S
C305 C302 1.383 . S
C305 C303 1.365 . S
C305 H322 0.931 . S
C306 C301 1.370 . S
C306 C302 1.395 . S
C306 H323 0.930 . S
C307 Gd254 2.825 . S
C307 O289 1.263 . S
C307 O290 1.252 . S
C307 C301 1.500 . S
C308 H270 0.930 . S
C308 C284 1.417 . S
C308 C309 1.329 . S
C309 C279 1.437 . S
C309 H280 0.929 . S
C309 C308 1.329 . S
H310 C283 0.931 . S
C311 O293 1.265 . S
C311 O294 1.242 . S
C312 O297 1.261 . S
C312 O298 1.252 . S
C313 C316 1.394 . S
C313 C318 1.370 . S
C313 C319 1.500 . S
C314 C317 1.383 . S
C314 C318 1.395 . S
C315 C316 1.396 . S
C315 C317 1.365 . S
C315 H324 0.929 . S
C316 C313 1.394 . S
C316 C315 1.396 . S
C316 H325 0.930 . S
C317 C314 1.383 . S
C317 C315 1.365 . S
C317 H326 0.931 . S
C318 C313 1.370 . S
C318 C314 1.395 . S
C318 H327 0.930 . S
C319 Gd255 2.805 . S
C319 O295 1.263 . S
C319 O296 1.252 . S
C319 C313 1.500 . S
H320 C303 0.929 . S
H321 C304 0.930 . S
H322 C305 0.931 . S
H323 C306 0.930 . S
H324 C315 0.929 . S
H325 C316 0.930 . S
H326 C317 0.931 . S
H327 C318 0.930 . S
C228 C135 2.288 . S
C15 C300 2.285 . S
C55 C216 2.251 . S
C95 C312 2.356 . S
C218 C2 1.799 . S
C299 C42 2.088 . S
C82 C215 2.413 . S
C141 C302 1.487 . S
C314 C61 1.730 . S
C230 C101 1.838 . S
C311 C122 1.962 . S
C21 C227 2.458 1_545 S
