# Generated by pormake.
# Topology pts, (4,4)-cn, num edge types: 1
# Building blocks:
#     Node 0, Type 0, BuildingBlock: ESEHIV_clean_sbu_0, # of connection points: 4
#     Node 1, Type 0, BuildingBlock: ESEHIV_clean_sbu_0, # of connection points: 4
#     Node 2, Type 1, BuildingBlock: QUQFOY_clean_sbu_1, # of connection points: 4
#     Node 3, Type 1, BuildingBlock: QUQFOY_clean_sbu_1, # of connection points: 4
#     Edge 4, Type (0, 1), BuildingBlock: MIFKUJ_clean_linker_0, # of connection points: 2
#     Edge 5, Type (0, 1), BuildingBlock: MIFKUJ_clean_linker_0, # of connection points: 2
#     Edge 6, Type (0, 1), BuildingBlock: MIFKUJ_clean_linker_0, # of connection points: 2
#     Edge 7, Type (0, 1), BuildingBlock: MIFKUJ_clean_linker_0, # of connection points: 2
#     Edge 8, Type (0, 1), BuildingBlock: MIFKUJ_clean_linker_0, # of connection points: 2
#     Edge 9, Type (0, 1), BuildingBlock: MIFKUJ_clean_linker_0, # of connection points: 2
#     Edge 10, Type (0, 1), BuildingBlock: MIFKUJ_clean_linker_0, # of connection points: 2
#     Edge 11, Type (0, 1), BuildingBlock: MIFKUJ_clean_linker_0, # of connection points: 2
# Relax obj value: 0.097
# Max RMSD: 0.250
# Mean RMSD: 0.177
data_MOF--net-pts--node1-ESEHIV_clean_sbu_0--node2-QUQFOY_clean_sbu_1--edge1-MIFKUJ_clean_linker_0
_symmetry_space_group_name_H-M    P1
_symmetry_Int_Tables_number       1
_symmetry_cell_setting            triclinic
loop_
_symmetry_equiv_pos_as_xyz
'x, y, z'
_cell_length_a     30.333027
_cell_length_b     33.174572
_cell_length_c     50.493744
_cell_angle_alpha  92.812999
_cell_angle_beta   93.115495
_cell_angle_gamma 89.723532
loop_
_atom_site_label
_atom_site_type_symbol
_atom_site_fract_x
_atom_site_fract_y
_atom_site_fract_z
_atom_type_partial_charge
Cu0 Cu 0.53769 0.02466 0.01363 0.0
N1 N 0.57311 0.99338 0.99139 0.0
N2 N 0.62339 0.98071 0.96137 0.0
C3 C 0.60795 1.00775 0.97942 0.0
C4 C 0.59745 0.94791 0.96205 0.0
C5 C 0.56656 0.95572 0.98075 0.0
O6 O 0.57712 0.05594 0.03837 0.0
C7 C 0.47351 0.03342 0.97482 0.0
O8 O 0.47592 0.9941 0.97657 0.0
H9 H 0.62002 0.03834 0.98274 0.0
H10 H 0.53991 0.9361 0.98527 0.0
N11 N 0.50262 0.99365 0.03414 0.0
N12 N 0.45366 0.98139 0.06418 0.0
C13 C 0.46858 1.00837 0.04769 0.0
C14 C 0.50916 0.95583 0.04212 0.0
C15 C 0.47909 0.94827 0.06083 0.0
C16 C 0.6019 0.0338 0.05282 0.0
O17 O 0.59935 0.99445 0.04881 0.0
H18 H 0.45682 0.03915 0.0467 0.0
H19 H 0.53538 0.93594 0.03586 0.0
O20 O 0.49821 0.05563 0.99063 0.0
H21 H 0.5999 0.92075 0.94942 0.0
H22 H 0.4769 0.92107 0.07168 0.0
Cu23 Cu 0.07022 0.57583 0.51689 0.0
N24 N 0.10348 0.54113 0.53827 0.0
N25 N 0.11755 0.48935 0.56412 0.0
C26 C 0.08785 0.50686 0.54744 0.0
C27 C 0.15343 0.5134 0.56539 0.0
C28 C 0.14479 0.54523 0.54922 0.0
O29 O 0.03749 0.5403 0.49089 0.0
C30 C 0.04755 0.62253 0.56191 0.0
O31 O 0.08393 0.60627 0.57184 0.0
H32 H 0.05464 0.49588 0.5428 0.0
H33 H 0.16643 0.57029 0.54641 0.0
N34 N 0.10528 0.61111 0.49934 0.0
N35 N 0.12124 0.66399 0.47593 0.0
C36 C 0.09062 0.64619 0.48976 0.0
C37 C 0.14699 0.60692 0.49167 0.0
C38 C 0.15674 0.63938 0.4769 0.0
C39 C 0.05979 0.5236 0.47266 0.0
O40 O 0.10154 0.53317 0.47156 0.0
H41 H 0.05742 0.65756 0.4919 0.0
H42 H 0.16819 0.58139 0.49567 0.0
O43 O 0.03319 0.61121 0.53853 0.0
H44 H 0.18349 0.50858 0.57739 0.0
H45 H 0.18718 0.64424 0.46729 0.0
O46 O 0.97003 0.05134 0.25192 0.0
Cd47 Cd 0.0299 0.03617 0.27039 0.0
Cd48 Cd 0.04458 0.11832 0.26959 0.0
O49 O 0.98778 0.11425 0.24498 0.0
O50 O 0.02521 0.97831 0.27902 0.0
O51 O 0.03781 0.02722 0.30973 0.0
C52 C 0.0333 0.98911 0.30365 0.0
C53 C 0.04418 0.1706 0.3025 0.0
C54 C 0.96105 0.08481 0.24155 0.0
C55 C 0.11109 0.06439 0.24436 0.0
O56 O 0.10346 0.09987 0.25374 0.0
O57 O 0.0844 0.03588 0.24763 0.0
O58 O 0.05174 0.17729 0.27824 0.0
O59 O 0.03809 0.13366 0.30845 0.0
O60 O 0.97461 0.09801 0.77931 0.0
Cd61 Cd 0.03239 0.11456 0.76264 0.0
Cd62 Cd 0.04673 0.0321 0.75777 0.0
O63 O 0.99397 0.03405 0.78201 0.0
O64 O 0.02799 0.17312 0.75565 0.0
O65 O 0.03541 0.12576 0.72383 0.0
C66 C 0.03284 0.16364 0.73091 0.0
C67 C 0.04199 0.98061 0.72407 0.0
C68 C 0.96768 0.06294 0.78731 0.0
C69 C 0.11739 0.08165 0.78718 0.0
O70 O 0.10787 0.0479 0.77526 0.0
O71 O 0.09042 0.111 0.78587 0.0
O72 O 0.05251 0.97325 0.7484 0.0
O73 O 0.03531 0.0178 0.71847 0.0
H74 H 0.37593 0.01999 0.057 0.0
H75 H 0.32137 0.03439 0.09021 0.0
H76 H 0.405 0.97587 0.14881 0.0
H77 H 0.45819 0.95955 0.11506 0.0
H78 H 0.32795 0.95686 0.15683 0.0
H79 H 0.39381 0.08375 0.14553 0.0
H80 H 0.42016 0.14127 0.12164 0.0
H81 H 0.28751 0.16586 0.09269 0.0
H82 H 0.26043 0.10813 0.11612 0.0
H83 H 0.18629 0.10982 0.24287 0.0
H84 H 0.24988 0.09591 0.21587 0.0
H85 H 0.18592 0.98806 0.18173 0.0
H86 H 0.12368 1.00074 0.20945 0.0
H87 H 0.26104 0.09314 0.16658 0.0
H88 H 0.25606 0.91685 0.1633 0.0
H89 H 0.2386 0.86271 0.19282 0.0
H90 H 0.26605 0.94271 0.2611 0.0
H91 H 0.28429 0.99715 0.23203 0.0
C92 C 0.38237 1.01015 0.07698 0.0
C93 C 0.42109 0.98868 0.08354 0.0
C94 C 0.35143 0.01864 0.09604 0.0
C95 C 0.35933 1.00708 0.12232 0.0
C96 C 0.39795 0.98519 0.12875 0.0
C97 C 0.42834 0.97581 0.10949 0.0
C98 C 0.3271 0.01729 0.14294 0.0
C99 C 0.3135 0.98673 0.15898 0.0
C100 C 0.30906 0.05658 0.14654 0.0
C101 C 0.32515 0.09139 0.13242 0.0
C102 C 0.3703 0.10125 0.13393 0.0
C103 C 0.38536 0.13392 0.12049 0.0
C104 C 0.35554 0.15715 0.10561 0.0
C105 C 0.31058 0.14781 0.1042 0.0
C106 C 0.29534 0.11515 0.11758 0.0
C107 C 0.18607 0.08295 0.22977 0.0
C108 C 0.15012 0.0562 0.22849 0.0
C109 C 0.22237 0.07507 0.21428 0.0
C110 C 0.22321 0.04054 0.197 0.0
C111 C 0.18689 0.01426 0.19542 0.0
C112 C 0.15109 0.02168 0.21122 0.0
C113 C 0.26119 0.03245 0.17994 0.0
C114 C 0.27581 0.06338 0.16457 0.0
C115 C 0.28158 0.99398 0.17779 0.0
C116 C 0.27118 0.96119 0.19544 0.0
C117 C 0.25859 0.92283 0.18462 0.0
C118 C 0.24851 0.8921 0.20127 0.0
C119 C 0.25109 0.8993 0.22881 0.0
C120 C 0.26391 0.93721 0.23976 0.0
C121 C 0.27408 0.96803 0.2232 0.0
H122 H 0.24323 0.87549 0.24167 0.0
H123 H 0.36726 0.18243 0.09522 0.0
H124 H 0.14551 0.47784 0.61487 0.0
H125 H 0.1305 0.41972 0.64089 0.0
H126 H 0.05974 0.36253 0.57273 0.0
H127 H 0.07305 0.42177 0.54713 0.0
H128 H 0.0161 0.35034 0.61277 0.0
H129 H 0.16806 0.33241 0.59662 0.0
H130 H 0.24647 0.35089 0.59497 0.0
H131 H 0.25535 0.37255 0.67963 0.0
H132 H 0.1768 0.35472 0.68176 0.0
H133 H 0.02583 0.15688 0.67636 0.0
H134 H 0.03904 0.20994 0.64536 0.0
H135 H 0.06724 0.29472 0.71147 0.0
H136 H 0.05306 0.24255 0.74242 0.0
H137 H 0.13326 0.28741 0.66952 0.0
H138 H 0.97672 0.307 0.68276 0.0
H139 H 0.89941 0.28415 0.68207 0.0
H140 H 0.90225 0.25264 0.59868 0.0
H141 H 0.97986 0.27477 0.59897 0.0
C142 C 0.12716 0.45265 0.60543 0.0
C143 C 0.11067 0.45414 0.57897 0.0
C144 C 0.11868 0.41931 0.62026 0.0
C145 C 0.09467 0.38612 0.60872 0.0
C146 C 0.07834 0.38759 0.58218 0.0
C147 C 0.08602 0.42137 0.56752 0.0
C148 C 0.08559 0.35054 0.62457 0.0
C149 C 0.04201 0.33623 0.62477 0.0
C150 C 0.1191 0.33193 0.64047 0.0
C151 C 0.16642 0.34254 0.63932 0.0
C152 C 0.18665 0.34137 0.61487 0.0
C153 C 0.23113 0.35169 0.61385 0.0
C154 C 0.25585 0.36297 0.63718 0.0
C155 C 0.23615 0.36384 0.66158 0.0
C156 C 0.19166 0.35358 0.66271 0.0
C157 C 0.03445 0.18693 0.68424 0.0
C158 C 0.03826 0.19556 0.71183 0.0
C159 C 0.042 0.21714 0.66654 0.0
C160 C 0.05422 0.25614 0.6762 0.0
C161 C 0.05792 0.26478 0.70367 0.0
C162 C 0.04956 0.23495 0.7213 0.0
C163 C 0.06405 0.28803 0.65783 0.0
C164 C 0.1077 0.30147 0.65721 0.0
C165 C 0.03089 0.30519 0.64115 0.0
C166 C 0.98423 0.29206 0.64096 0.0
C167 C 0.961 0.29481 0.66434 0.0
C168 C 0.9171 0.28208 0.66401 0.0
C169 C 0.89597 0.26682 0.64036 0.0
C170 C 0.91868 0.26438 0.61699 0.0
C171 C 0.96261 0.27704 0.61722 0.0
H172 H 0.86198 0.25699 0.64014 0.0
H173 H 0.29028 0.37095 0.63635 0.0
H174 H 0.63863 0.10998 0.05883 0.0
H175 H 0.69495 0.13348 0.09311 0.0
H176 H 0.6903 0.0183 0.12898 0.0
H177 H 0.63491 0.99494 0.09524 0.0
H178 H 0.69348 0.08095 0.16628 0.0
H179 H 0.76806 0.03698 0.08665 0.0
H180 H 0.78392 0.04023 0.0394 0.0
H181 H 0.82443 0.16375 0.05277 0.0
H182 H 0.80818 0.16135 0.10006 0.0
H183 H 0.89384 0.03031 0.23227 0.0
H184 H 0.82827 0.036 0.20246 0.0
H185 H 0.86953 0.1543 0.18218 0.0
H186 H 0.93554 0.14883 0.21191 0.0
H187 H 0.8444 0.10761 0.13822 0.0
H188 H 0.78324 0.1462 0.22033 0.0
H189 H 0.76814 0.1415 0.26756 0.0
H190 H 0.70249 0.0282 0.24996 0.0
H191 H 0.71775 0.0319 0.20267 0.0
C192 C 0.64936 0.09001 0.07426 0.0
C193 C 0.6327 0.05053 0.07423 0.0
C194 C 0.68152 0.10337 0.09374 0.0
C195 C 0.69693 0.07751 0.11352 0.0
C196 C 0.67887 0.03879 0.11399 0.0
C197 C 0.64737 0.02539 0.09453 0.0
C198 C 0.73358 0.08899 0.13305 0.0
C199 C 0.72648 0.08692 0.16019 0.0
C200 C 0.77636 0.09782 0.12512 0.0
C201 C 0.78633 0.09917 0.09677 0.0
C202 C 0.77999 0.06493 0.07945 0.0
C203 C 0.78911 0.0666 0.05268 0.0
C204 C 0.80501 0.10222 0.04307 0.0
C205 C 0.81198 0.13621 0.06023 0.0
C206 C 0.80282 0.13472 0.08701 0.0
C207 C 0.8889 0.0577 0.22165 0.0
C208 C 0.92 0.08911 0.22453 0.0
C209 C 0.85124 0.06099 0.20469 0.0
C210 C 0.84375 0.09577 0.19029 0.0
C211 C 0.87458 0.12727 0.19317 0.0
C212 C 0.91222 0.12409 0.21024 0.0
C213 C 0.80459 0.09814 0.17144 0.0
C214 C 0.81124 0.10277 0.14445 0.0
C215 C 0.76136 0.09158 0.17951 0.0
C216 C 0.75187 0.08925 0.20794 0.0
C217 C 0.76584 0.12014 0.22655 0.0
C218 C 0.75722 0.11767 0.25334 0.0
C219 C 0.73442 0.08455 0.26176 0.0
C220 C 0.72014 0.05385 0.24341 0.0
C221 C 0.72871 0.05615 0.21659 0.0
H222 H 0.72778 0.08269 0.28251 0.0
H223 H 0.81206 0.10346 0.02234 0.0
H224 H 0.99631 0.68399 0.54189 0.0
H225 H 0.97859 0.74833 0.56524 0.0
H226 H 0.04115 0.70588 0.63749 0.0
H227 H 0.05819 0.64196 0.61456 0.0
H228 H 0.96873 0.74891 0.64801 0.0
H229 H 0.09696 0.7634 0.59371 0.0
H230 H 0.13319 0.76273 0.55108 0.0
H231 H 0.03976 0.84993 0.52202 0.0
H232 H 1.00276 0.85084 0.56443 0.0
H233 H 0.06358 0.9017 0.72962 0.0
H234 H 0.04967 0.84496 0.69794 0.0
H235 H 0.99203 0.92542 0.641 0.0
H236 H 0.00679 0.983 0.67272 0.0
H237 H 0.04309 0.86951 0.61703 0.0
H238 H 0.92547 0.86614 0.67482 0.0
H239 H 0.88988 0.86838 0.71763 0.0
H240 H 0.95959 0.76106 0.73956 0.0
H241 H 0.99614 0.7585 0.69707 0.0
C242 C 0.00517 0.68807 0.56291 0.0
C243 C 0.02887 0.658 0.57637 0.0
C244 C 0.99539 0.72496 0.57618 0.0
C245 C 0.00916 0.73221 0.60305 0.0
C246 C 0.03024 0.70113 0.61678 0.0
C247 C 0.04008 0.66455 0.6036 0.0
C248 C 0.00506 0.77264 0.61683 0.0
C249 C 0.98489 0.77532 0.64122 0.0
C250 C 0.0247 0.80758 0.60754 0.0
C251 C 0.0469 0.80692 0.5821 0.0
C252 C 0.08401 0.78224 0.57816 0.0
C253 C 0.10471 0.78186 0.55407 0.0
C254 C 0.08881 0.80631 0.53389 0.0
C255 C 0.05207 0.83106 0.5377 0.0
C256 C 0.03124 0.83154 0.56175 0.0
C257 C 0.04809 0.90752 0.71034 0.0
C258 C 0.03603 0.94691 0.70378 0.0
C259 C 0.03988 0.87492 0.69227 0.0
C260 C 0.0188 0.88071 0.66729 0.0
C261 C 0.00797 0.92016 0.66025 0.0
C262 C 0.01646 0.95302 0.67837 0.0
C263 C 0.00858 0.84519 0.64883 0.0
C264 C 0.0259 0.84349 0.62357 0.0
C265 C 0.98602 0.81117 0.65723 0.0
C266 C 0.96371 0.81224 0.68275 0.0
C267 C 0.9334 0.84313 0.68882 0.0
C268 C 0.91304 0.84445 0.71304 0.0
C269 C 0.92249 0.8149 0.73131 0.0
C270 C 0.95227 0.78392 0.72538 0.0
C271 C 0.97278 0.78248 0.7012 0.0
H272 H 0.90671 0.816 0.75005 0.0
H273 H 0.10508 0.8062 0.51535 0.0
H274 H 0.44205 0.99432 0.92965 0.0
H275 H 0.38808 0.01774 0.89653 0.0
H276 H 0.38125 0.13298 0.93956 0.0
H277 H 0.43628 0.10948 0.9732 0.0
H278 H 0.29811 0.09762 0.92577 0.0
H279 H 0.42601 0.13149 0.88197 0.0
H280 H 0.50033 0.1219 0.86519 0.0
H281 H 0.45341 0.02188 0.81437 0.0
H282 H 0.37892 0.03044 0.83112 0.0
H283 H 0.14366 0.14625 0.82007 0.0
H284 H 0.20935 0.15145 0.85032 0.0
H285 H 0.25073 0.03283 0.82283 0.0
H286 H 0.18526 0.02733 0.79246 0.0
H287 H 0.32018 0.08644 0.829 0.0
H288 H 0.19802 0.04476 0.87916 0.0
H289 H 0.12393 0.05157 0.89675 0.0
H290 H 0.16097 0.16503 0.93609 0.0
H291 H 0.23515 0.15912 0.91841 0.0
C292 C 0.42946 0.02482 0.93207 0.0
C293 C 0.44328 0.05003 0.95411 0.0
C294 C 0.39878 0.03826 0.91296 0.0
C295 C 0.38093 0.07721 0.91542 0.0
C296 C 0.39489 0.10286 0.93724 0.0
C297 C 0.42632 0.0895 0.95635 0.0
C298 C 0.34567 0.08922 0.89583 0.0
C299 C 0.30314 0.0964 0.90463 0.0
C300 C 0.35212 0.08675 0.86824 0.0
C301 C 0.39685 0.08153 0.85792 0.0
C302 C 0.43157 0.10727 0.86734 0.0
C303 C 0.47374 0.10204 0.85781 0.0
C304 C 0.4816 0.07128 0.83874 0.0
C305 C 0.44727 0.04572 0.82913 0.0
C306 C 0.40504 0.05079 0.83861 0.0
C307 C 0.16693 0.12138 0.82024 0.0
C308 C 0.15899 0.08621 0.80393 0.0
C309 C 0.20441 0.12441 0.83761 0.0
C310 C 0.23471 0.09239 0.839 0.0
C311 C 0.22777 0.05791 0.82206 0.0
C312 C 0.1902 0.05476 0.80478 0.0
C313 C 0.27255 0.09371 0.85896 0.0
C314 C 0.31542 0.08885 0.85016 0.0
C315 C 0.26641 0.0982 0.88656 0.0
C316 C 0.22188 0.10177 0.89718 0.0
C317 C 0.19022 0.07134 0.89136 0.0
C318 C 0.14825 0.07499 0.90139 0.0
C319 C 0.13769 0.10878 0.91745 0.0
C320 C 0.16915 0.13893 0.92359 0.0
C321 C 0.21116 0.13544 0.91358 0.0
H322 H 0.10519 0.11155 0.92521 0.0
H323 H 0.51427 0.06727 0.8314 0.0
H324 H 0.08331 0.5049 0.42274 0.0
H325 H 0.06554 0.44384 0.39551 0.0
H326 H 0.98055 0.40461 0.45495 0.0
H327 H 0.99814 0.46646 0.48244 0.0
H328 H 0.04362 0.34656 0.43961 0.0
H329 H 0.93377 0.42787 0.39721 0.0
H330 H 0.90368 0.48836 0.37615 0.0
H331 H 0.99436 0.47218 0.31408 0.0
H332 H 0.02545 0.41191 0.33495 0.0
H333 H 0.00724 0.17122 0.35101 0.0
H334 H 0.99663 0.22969 0.38166 0.0
H335 H 0.06359 0.30525 0.32947 0.0
H336 H 0.07277 0.24751 0.29853 0.0
H337 H 0.99342 0.34219 0.34439 0.0
H338 H 0.11179 0.27015 0.39014 0.0
H339 H 0.1463 0.21159 0.4114 0.0
H340 H 0.04397 0.21199 0.46694 0.0
H341 H 0.00857 0.27029 0.44578 0.0
C342 C 0.06 0.48375 0.42976 0.0
C343 C 0.04195 0.49047 0.45463 0.0
C344 C 0.04983 0.44886 0.41416 0.0
C345 C 0.0216 0.4197 0.42313 0.0
C346 C 1.00228 0.42684 0.44762 0.0
C347 C 0.01201 0.46226 0.46317 0.0
C348 C 0.01568 0.38071 0.4076 0.0
C349 C 0.03159 0.34531 0.41895 0.0
C350 C 1.00091 0.37931 0.38052 0.0
C351 C 0.98208 0.41542 0.36774 0.0
C352 C 0.9475 0.43734 0.37916 0.0
C353 C 0.93023 0.47158 0.36723 0.0
C354 C 0.94712 0.48413 0.3438 0.0
C355 C 0.98128 0.46241 0.33222 0.0
C356 C 0.99869 0.42816 0.34407 0.0
C357 C 0.02 0.20027 0.34623 0.0
C358 C 0.04086 0.20475 0.32235 0.0
C359 C 0.01396 0.23369 0.36379 0.0
C360 C 0.02946 0.27201 0.358 0.0
C361 C 0.051 0.27617 0.33436 0.0
C362 C 0.05646 0.24303 0.31671 0.0
C363 C 0.02298 0.30822 0.37608 0.0
C364 C 0.00463 0.34312 0.36518 0.0
C365 C 0.036 0.30923 0.40348 0.0
C366 C 0.05725 0.27422 0.41618 0.0
C367 C 0.09647 0.25753 0.40675 0.0
C368 C 0.11622 0.22443 0.41881 0.0
C369 C 0.09725 0.20799 0.44045 0.0
C370 C 0.05856 0.22469 0.45014 0.0
C371 C 0.03866 0.25777 0.43813 0.0
H372 H 0.11259 0.18237 0.44976 0.0
H373 H 0.93372 0.51066 0.33461 0.0
H374 H 0.7011 0.01855 0.97238 0.0
H375 H 0.75721 0.03275 0.94104 0.0
H376 H 0.67591 0.97513 0.87735 0.0
H377 H 0.62112 0.95905 0.90909 0.0
H378 H 0.75385 0.95565 0.86949 0.0
H379 H 0.68645 0.08299 0.88831 0.0
H380 H 0.65935 0.14007 0.91611 0.0
H381 H 0.79125 0.16352 0.9482 0.0
H382 H 0.81907 0.10626 0.92082 0.0
H383 H 0.89226 0.10825 0.79222 0.0
H384 H 0.82969 0.0946 0.8192 0.0
H385 H 0.89645 0.98856 0.84753 0.0
H386 H 0.95769 1.00096 0.81982 0.0
H387 H 0.8192 0.09236 0.86885 0.0
H388 H 0.8276 0.91656 0.86155 0.0
H389 H 0.84737 0.86234 0.82911 0.0
H390 H 0.81882 0.94076 0.76518 0.0
H391 H 0.79829 0.99526 0.7972 0.0
C392 C 0.69551 1.00884 0.95168 0.0
C393 C 0.65695 0.98773 0.94309 0.0
C394 C 0.72734 0.01721 0.93372 0.0
C395 C 0.72053 1.00587 0.90659 0.0
C396 C 0.68211 0.98427 0.8981 0.0
C397 C 0.65081 0.97502 0.91621 0.0
C398 C 0.75354 0.01614 0.88714 0.0
C399 C 0.76797 0.9856 0.86934 0.0
C400 C 0.77132 0.05549 0.88627 0.0
C401 C 0.75478 0.09013 0.90266 0.0
C402 C 0.70964 0.10018 0.9014 0.0
C403 C 0.69415 0.13258 0.91708 0.0
C404 C 0.72355 0.15536 0.93395 0.0
C405 C 0.76851 0.14584 0.93513 0.0
C406 C 0.78417 0.11344 0.91952 0.0
C407 C 0.89336 0.0819 0.80408 0.0
C408 C 0.9297 0.05546 0.80365 0.0
C409 C 0.85765 0.07416 0.81956 0.0
C410 C 0.85784 0.0401 0.83509 0.0
C411 C 0.89473 0.01435 0.83516 0.0
C412 C 0.92992 0.02161 0.81937 0.0
C413 C 0.82003 0.03167 0.85163 0.0
C414 C 0.80479 0.0625 0.86889 0.0
C415 C 0.80026 0.993 0.85128 0.0
C416 C 0.81177 0.96011 0.83183 0.0
C417 C 0.8253 0.92216 0.84057 0.0
C418 C 0.8367 0.8914 0.82225 0.0
C419 C 0.83448 0.89814 0.79511 0.0
C420 C 0.82067 0.93562 0.78622 0.0
C421 C 0.80919 0.96647 0.80445 0.0
H422 H 0.84341 0.87431 0.78096 0.0
H423 H 0.71149 0.18042 0.94608 0.0
H424 H 0.08512 0.73437 0.49266 0.0
H425 H 0.07231 0.79449 0.46692 0.0
H426 H 0.12747 0.73236 0.39911 0.0
H427 H 0.14321 0.67369 0.42566 0.0
H428 H 0.15217 0.80333 0.39869 0.0
H429 H 0.00802 0.74725 0.40913 0.0
H430 H 0.94715 0.72245 0.4344 0.0
H431 H 0.93743 0.83844 0.47534 0.0
H432 H 0.99851 0.86382 0.45045 0.0
H433 H 0.0448 0.90827 0.29474 0.0
H434 H 0.06054 0.85752 0.32739 0.0
H435 H 0.05202 0.94854 0.39083 0.0
H436 H 0.03701 1.00008 0.35808 0.0
H437 H 0.00489 0.8692 0.39633 0.0
H438 H 0.1473 0.9247 0.37978 0.0
H439 H 0.20494 0.94599 0.35085 0.0
H440 H 0.2137 0.82514 0.31697 0.0
H441 H 0.15561 0.80325 0.34543 0.0
C442 C 0.09479 0.73399 0.47233 0.0
C443 C 0.11516 0.69967 0.46108 0.0
C444 C 0.0871 0.76812 0.4575 0.0
C445 C 0.09785 0.76792 0.43071 0.0
C446 C 0.11881 0.73359 0.41966 0.0
C447 C 0.12779 0.7 0.43478 0.0
C448 C 0.08717 0.80309 0.41406 0.0
C449 C 0.11976 0.8173 0.39809 0.0
C450 C 0.04519 0.82229 0.41344 0.0
C451 C 0.00803 0.80731 0.4281 0.0
C452 C 0.99298 0.7674 0.42359 0.0
C453 C 0.95845 0.75325 0.43784 0.0
C454 C 0.93851 0.77883 0.45651 0.0
C455 C 0.95293 0.81866 0.46089 0.0
C456 C 0.98745 0.83296 0.44669 0.0
C457 C 0.04591 0.91759 0.31563 0.0
C458 C 0.03971 0.95828 0.32381 0.0
C459 C 0.05502 0.88851 0.33425 0.0
C460 C 0.05764 0.89934 0.36147 0.0
C461 C 0.05013 0.93965 0.36987 0.0
C462 C 0.04167 0.96902 0.35116 0.0
C463 C 0.06958 0.86843 0.38089 0.0
C464 C 0.03729 0.85517 0.39726 0.0
C465 C 0.11142 0.84945 0.38143 0.0
C466 C 0.14684 0.86243 0.36459 0.0
C467 C 0.16128 0.90273 0.36602 0.0
C468 C 0.19408 0.91489 0.34973 0.0
C469 C 0.2129 0.88696 0.33203 0.0
C470 C 0.19907 0.84675 0.33066 0.0
C471 C 0.16624 0.83445 0.3469 0.0
H472 H 0.23825 0.89644 0.31941 0.0
H473 H 0.91182 0.7678 0.46754 0.0
loop_
_geom_bond_atom_site_label_1
_geom_bond_atom_site_label_2
_geom_bond_distance
_geom_bond_site_symmetry_2
_ccdc_geom_bond_type
Cu0 N1 1.999 1_554 S
Cu0 O6 1.974 . S
Cu0 N11 1.985 . S
Cu0 O20 1.959 1_554 S
N1 Cu0 1.999 1_556 S
N1 C3 1.263 . S
N1 C5 1.389 . S
N2 C3 1.358 . S
N2 C4 1.400 . S
C3 N1 1.263 . S
C3 N2 1.358 . S
C3 H9 0.930 . S
C4 N2 1.400 . S
C4 C5 1.351 . S
C4 H21 0.930 . S
C5 N1 1.389 . S
C5 C4 1.351 . S
C5 H10 0.930 . S
O6 Cu0 1.974 . S
O6 C16 1.282 . S
C7 O8 1.261 . S
C7 O20 1.251 . S
O8 C7 1.261 . S
H9 C3 0.930 . S
H10 C5 0.930 . S
N11 Cu0 1.985 . S
N11 C13 1.335 . S
N11 C14 1.390 . S
N12 C13 1.345 . S
N12 C15 1.336 . S
C13 N11 1.335 . S
C13 N12 1.345 . S
C13 H18 0.930 . S
C14 N11 1.390 . S
C14 C15 1.346 . S
C14 H19 0.930 . S
C15 N12 1.336 . S
C15 C14 1.346 . S
C15 H22 0.929 . S
C16 O6 1.282 . S
C16 O17 1.216 . S
O17 C16 1.216 . S
H18 C13 0.930 . S
H19 C14 0.930 . S
O20 Cu0 1.959 1_556 S
O20 C7 1.251 . S
H21 C4 0.930 . S
H22 C15 0.929 . S
Cu23 N24 1.999 . S
Cu23 O29 1.974 . S
Cu23 N34 1.985 . S
Cu23 O43 1.959 . S
N24 Cu23 1.999 . S
N24 C26 1.263 . S
N24 C28 1.389 1_455 S
N25 C26 1.358 . S
N25 C27 1.400 1_455 S
C26 N24 1.263 . S
C26 N25 1.358 . S
C26 H32 0.930 . S
C27 N25 1.400 1_655 S
C27 C28 1.351 . S
C27 H44 0.930 . S
C28 N24 1.389 1_655 S
C28 C27 1.351 . S
C28 H33 0.930 . S
O29 Cu23 1.974 . S
O29 C39 1.282 . S
C30 O31 1.261 . S
C30 O43 1.251 . S
O31 C30 1.261 . S
H32 C26 0.930 . S
H33 C28 0.930 . S
N34 Cu23 1.985 . S
N34 C36 1.335 . S
N34 C37 1.390 . S
N35 C36 1.345 . S
N35 C38 1.336 . S
C36 N34 1.335 . S
C36 N35 1.345 . S
C36 H41 0.930 . S
C37 N34 1.390 . S
C37 C38 1.346 . S
C37 H42 0.930 . S
C38 N35 1.336 . S
C38 C37 1.346 . S
C38 H45 0.929 . S
C39 O29 1.282 . S
C39 O40 1.216 . S
O40 C39 1.216 . S
H41 C36 0.930 . S
H42 C37 0.930 . S
O43 Cu23 1.959 . S
O43 C30 1.251 . S
H44 C27 0.930 . S
H45 C38 0.929 . S
O46 Cd47 2.223 . S
O46 C54 1.315 1_455 S
Cd47 O46 2.223 . S
Cd47 O50 2.297 1_545 S
Cd47 O51 2.439 . S
Cd47 O57 2.240 . S
Cd48 O49 2.240 1_455 S
Cd48 O56 2.223 . S
Cd48 O58 2.297 . S
Cd48 O59 2.439 . S
O49 Cd48 2.240 1_655 S
O49 C54 1.279 . S
O50 Cd47 2.297 1_565 S
O50 C52 1.247 . S
O51 Cd47 2.439 . S
O51 C52 1.208 1_545 S
C52 O50 1.247 . S
C52 O51 1.208 1_565 S
C53 O58 1.247 . S
C53 O59 1.208 . S
C54 O46 1.315 1_655 S
C54 O49 1.279 . S
C55 O56 1.315 . S
C55 O57 1.279 . S
O56 Cd48 2.223 . S
O56 C55 1.315 . S
O57 Cd47 2.240 . S
O57 C55 1.279 . S
O58 Cd48 2.297 . S
O58 C53 1.247 . S
O59 Cd48 2.439 . S
O59 C53 1.208 . S
O60 Cd61 2.223 . S
O60 C68 1.315 . S
Cd61 O60 2.223 . S
Cd61 O64 2.297 . S
Cd61 O65 2.439 . S
Cd61 O71 2.240 . S
Cd62 O63 2.240 1_565 S
Cd62 O70 2.223 . S
Cd62 O72 2.297 . S
Cd62 O73 2.439 . S
O63 Cd62 2.240 1_545 S
O63 C68 1.279 . S
O64 Cd61 2.297 . S
O64 C66 1.247 . S
O65 Cd61 2.439 . S
O65 C66 1.208 . S
C66 O64 1.247 . S
C66 O65 1.208 . S
C67 O72 1.247 . S
C67 O73 1.208 . S
C68 O60 1.315 . S
C68 O63 1.279 . S
C69 O70 1.315 1_545 S
C69 O71 1.279 . S
O70 Cd62 2.223 . S
O70 C69 1.315 1_565 S
O71 Cd61 2.240 . S
O71 C69 1.279 . S
O72 Cd62 2.297 . S
O72 C67 1.247 . S
O73 Cd62 2.439 . S
O73 C67 1.208 . S
H74 C92 0.951 . S
H75 C94 0.951 . S
H76 C96 0.950 . S
H77 C97 0.950 . S
H78 C99 0.950 . S
H79 C102 0.950 . S
H80 C103 0.950 . S
H81 C105 0.950 . S
H82 C106 0.950 . S
H83 C107 0.951 . S
H84 C109 0.951 . S
H85 C111 0.950 . S
H86 C112 0.950 . S
H87 C114 0.950 . S
H88 C117 0.950 . S
H89 C118 0.950 . S
H90 C120 0.950 . S
H91 C121 0.950 . S
C92 H74 0.951 . S
C92 C93 1.366 . S
C92 C94 1.388 . S
C93 C92 1.366 . S
C93 C97 1.385 . S
C94 H75 0.951 . S
C94 C92 1.388 . S
C94 C95 1.366 . S
C95 C94 1.366 . S
C95 C96 1.414 . S
C95 C98 1.499 . S
C96 H76 0.950 . S
C96 C95 1.414 . S
C96 C97 1.374 . S
C97 H77 0.950 . S
C97 C93 1.385 . S
C97 C96 1.374 . S
C98 C95 1.499 . S
C98 C99 1.373 . S
C98 C100 1.389 . S
C99 H78 0.950 . S
C99 C98 1.373 . S
C99 C115 1.377 . S
C100 C98 1.389 . S
C100 C101 1.524 . S
C100 C114 1.377 . S
C101 C100 1.524 . S
C101 C102 1.397 . S
C101 C106 1.363 . S
C102 H79 0.950 . S
C102 C101 1.397 . S
C102 C103 1.334 . S
C103 H80 0.950 . S
C103 C102 1.334 . S
C103 C104 1.287 . S
C104 C103 1.287 . S
C104 C105 1.524 . S
C104 H123 0.913 . S
C105 H81 0.950 . S
C105 C104 1.524 . S
C105 C106 1.415 . S
C106 H82 0.950 . S
C106 C101 1.363 . S
C106 C105 1.415 . S
C107 H83 0.951 . S
C107 C108 1.366 . S
C107 C109 1.388 . S
C108 C107 1.366 . S
C108 C112 1.385 . S
C109 H84 0.951 . S
C109 C107 1.388 . S
C109 C110 1.366 . S
C110 C109 1.366 . S
C110 C111 1.414 . S
C110 C113 1.499 . S
C111 H85 0.950 . S
C111 C110 1.414 . S
C111 C112 1.374 . S
C112 H86 0.950 . S
C112 C108 1.385 . S
C112 C111 1.374 . S
C113 C110 1.499 . S
C113 C114 1.373 . S
C113 C115 1.389 . S
C114 H87 0.950 . S
C114 C100 1.377 . S
C114 C113 1.373 . S
C115 C99 1.377 . S
C115 C113 1.389 . S
C115 C116 1.524 . S
C116 C115 1.524 . S
C116 C117 1.397 1_545 S
C116 C121 1.363 . S
C117 H88 0.950 . S
C117 C116 1.397 1_565 S
C117 C118 1.334 . S
C118 H89 0.950 . S
C118 C117 1.334 . S
C118 C119 1.287 . S
C119 C118 1.287 . S
C119 C120 1.524 . S
C119 H122 0.999 . S
C120 H90 0.950 . S
C120 C119 1.524 . S
C120 C121 1.415 1_565 S
C121 H91 0.950 . S
C121 C116 1.363 . S
C121 C120 1.415 1_545 S
H122 C119 0.999 . S
H123 C104 0.913 . S
H124 C142 0.951 . S
H125 C144 0.951 . S
H126 C146 0.950 . S
H127 C147 0.950 . S
H128 C149 0.950 . S
H129 C152 0.950 . S
H130 C153 0.950 . S
H131 C155 0.950 . S
H132 C156 0.950 . S
H133 C157 0.951 . S
H134 C159 0.951 . S
H135 C161 0.950 . S
H136 C162 0.950 . S
H137 C164 0.950 . S
H138 C167 0.950 . S
H139 C168 0.950 . S
H140 C170 0.950 . S
H141 C171 0.950 . S
C142 H124 0.951 . S
C142 C143 1.366 . S
C142 C144 1.388 . S
C143 C142 1.366 . S
C143 C147 1.385 . S
C144 H125 0.951 . S
C144 C142 1.388 . S
C144 C145 1.366 . S
C145 C144 1.366 . S
C145 C146 1.414 . S
C145 C148 1.499 . S
C146 H126 0.950 . S
C146 C145 1.414 . S
C146 C147 1.374 . S
C147 H127 0.950 . S
C147 C143 1.385 . S
C147 C146 1.374 . S
C148 C145 1.499 . S
C148 C149 1.373 1_455 S
C148 C150 1.389 . S
C149 H128 0.950 . S
C149 C148 1.373 1_655 S
C149 C165 1.377 . S
C150 C148 1.389 . S
C150 C151 1.524 . S
C150 C164 1.377 . S
C151 C150 1.524 . S
C151 C152 1.397 . S
C151 C156 1.363 . S
C152 H129 0.950 . S
C152 C151 1.397 . S
C152 C153 1.334 . S
C153 H130 0.950 . S
C153 C152 1.334 . S
C153 C154 1.287 . S
C154 C153 1.287 . S
C154 C155 1.524 . S
C154 H173 0.913 . S
C155 H131 0.950 . S
C155 C154 1.524 . S
C155 C156 1.415 . S
C156 H132 0.950 . S
C156 C151 1.363 . S
C156 C155 1.415 . S
C157 H133 0.951 . S
C157 C158 1.366 . S
C157 C159 1.388 . S
C158 C157 1.366 . S
C158 C162 1.385 . S
C159 H134 0.951 . S
C159 C157 1.388 . S
C159 C160 1.366 . S
C160 C159 1.366 . S
C160 C161 1.414 . S
C160 C163 1.499 . S
C161 H135 0.950 . S
C161 C160 1.414 . S
C161 C162 1.374 . S
C162 H136 0.950 . S
C162 C158 1.385 . S
C162 C161 1.374 . S
C163 C160 1.499 . S
C163 C164 1.373 . S
C163 C165 1.389 1_455 S
C164 H137 0.950 . S
C164 C150 1.377 . S
C164 C163 1.373 . S
C165 C149 1.377 . S
C165 C163 1.389 1_655 S
C165 C166 1.524 . S
C166 C165 1.524 . S
C166 C167 1.397 . S
C166 C171 1.363 . S
C167 H138 0.950 . S
C167 C166 1.397 . S
C167 C168 1.334 . S
C168 H139 0.950 . S
C168 C167 1.334 . S
C168 C169 1.287 . S
C169 C168 1.287 . S
C169 C170 1.524 . S
C169 H172 0.999 . S
C170 H140 0.950 . S
C170 C169 1.524 . S
C170 C171 1.415 . S
C171 H141 0.950 . S
C171 C166 1.363 . S
C171 C170 1.415 . S
H172 C169 0.999 . S
H173 C154 0.913 . S
H174 C192 0.951 . S
H175 C194 0.951 . S
H176 C196 0.950 . S
H177 C197 0.950 . S
H178 C199 0.950 . S
H179 C202 0.950 . S
H180 C203 0.950 . S
H181 C205 0.950 . S
H182 C206 0.950 . S
H183 C207 0.951 . S
H184 C209 0.951 . S
H185 C211 0.950 . S
H186 C212 0.950 . S
H187 C214 0.950 . S
H188 C217 0.950 . S
H189 C218 0.950 . S
H190 C220 0.950 . S
H191 C221 0.950 . S
C192 H174 0.951 . S
C192 C193 1.366 . S
C192 C194 1.388 . S
C193 C192 1.366 . S
C193 C197 1.385 . S
C194 H175 0.951 . S
C194 C192 1.388 . S
C194 C195 1.366 . S
C195 C194 1.366 . S
C195 C196 1.414 . S
C195 C198 1.499 . S
C196 H176 0.950 . S
C196 C195 1.414 . S
C196 C197 1.374 . S
C197 H177 0.950 . S
C197 C193 1.385 . S
C197 C196 1.374 . S
C198 C195 1.499 . S
C198 C199 1.373 . S
C198 C200 1.389 . S
C199 H178 0.950 . S
C199 C198 1.373 . S
C199 C215 1.377 . S
C200 C198 1.389 . S
C200 C201 1.524 . S
C200 C214 1.377 . S
C201 C200 1.524 . S
C201 C202 1.397 1_545 S
C201 C206 1.363 . S
C202 H179 0.950 . S
C202 C201 1.397 1_565 S
C202 C203 1.334 . S
C203 H180 0.950 . S
C203 C202 1.334 . S
C203 C204 1.287 . S
C204 C203 1.287 . S
C204 C205 1.524 . S
C204 H223 0.913 . S
C205 H181 0.950 . S
C205 C204 1.524 . S
C205 C206 1.415 1_565 S
C206 H182 0.950 . S
C206 C201 1.363 . S
C206 C205 1.415 1_545 S
C207 H183 0.951 . S
C207 C208 1.366 . S
C207 C209 1.388 . S
C208 C207 1.366 . S
C208 C212 1.385 . S
C209 H184 0.951 . S
C209 C207 1.388 . S
C209 C210 1.366 . S
C210 C209 1.366 . S
C210 C211 1.414 . S
C210 C213 1.499 . S
C211 H185 0.950 . S
C211 C210 1.414 . S
C211 C212 1.374 . S
C212 H186 0.950 . S
C212 C208 1.385 . S
C212 C211 1.374 . S
C213 C210 1.499 . S
C213 C214 1.373 . S
C213 C215 1.389 . S
C214 H187 0.950 . S
C214 C200 1.377 . S
C214 C213 1.373 . S
C215 C199 1.377 . S
C215 C213 1.389 . S
C215 C216 1.524 . S
C216 C215 1.524 . S
C216 C217 1.397 . S
C216 C221 1.363 . S
C217 H188 0.950 . S
C217 C216 1.397 . S
C217 C218 1.334 . S
C218 H189 0.950 . S
C218 C217 1.334 . S
C218 C219 1.287 . S
C219 C218 1.287 . S
C219 C220 1.524 . S
C219 H222 0.999 . S
C220 H190 0.950 . S
C220 C219 1.524 . S
C220 C221 1.415 . S
C221 H191 0.950 . S
C221 C216 1.363 . S
C221 C220 1.415 . S
H222 C219 0.999 . S
H223 C204 0.913 . S
H224 C242 0.951 1_655 S
H225 C244 0.951 . S
H226 C246 0.950 . S
H227 C247 0.950 . S
H228 C249 0.950 . S
H229 C252 0.950 . S
H230 C253 0.950 . S
H231 C255 0.950 . S
H232 C256 0.950 . S
H233 C257 0.951 . S
H234 C259 0.951 . S
H235 C261 0.950 . S
H236 C262 0.950 . S
H237 C264 0.950 . S
H238 C267 0.950 . S
H239 C268 0.950 . S
H240 C270 0.950 . S
H241 C271 0.950 . S
C242 H224 0.951 1_455 S
C242 C243 1.366 . S
C242 C244 1.388 . S
C243 C242 1.366 . S
C243 C247 1.385 . S
C244 H225 0.951 . S
C244 C242 1.388 . S
C244 C245 1.366 . S
C245 C244 1.366 . S
C245 C246 1.414 . S
C245 C248 1.499 . S
C246 H226 0.950 . S
C246 C245 1.414 . S
C246 C247 1.374 . S
C247 H227 0.950 . S
C247 C243 1.385 . S
C247 C246 1.374 . S
C248 C245 1.499 . S
C248 C249 1.373 . S
C248 C250 1.389 . S
C249 H228 0.950 . S
C249 C248 1.373 . S
C249 C265 1.377 . S
C250 C248 1.389 . S
C250 C251 1.524 . S
C250 C264 1.377 . S
C251 C250 1.524 . S
C251 C252 1.397 . S
C251 C256 1.363 . S
C252 H229 0.950 . S
C252 C251 1.397 . S
C252 C253 1.334 . S
C253 H230 0.950 . S
C253 C252 1.334 . S
C253 C254 1.287 . S
C254 C253 1.287 . S
C254 C255 1.524 . S
C254 H273 0.913 . S
C255 H231 0.950 . S
C255 C254 1.524 . S
C255 C256 1.415 . S
C256 H232 0.950 . S
C256 C251 1.363 . S
C256 C255 1.415 . S
C257 H233 0.951 . S
C257 C258 1.366 . S
C257 C259 1.388 . S
C258 C257 1.366 . S
C258 C262 1.385 . S
C259 H234 0.951 . S
C259 C257 1.388 . S
C259 C260 1.366 . S
C260 C259 1.366 . S
C260 C261 1.414 . S
C260 C263 1.499 . S
C261 H235 0.950 . S
C261 C260 1.414 . S
C261 C262 1.374 . S
C262 H236 0.950 . S
C262 C258 1.385 . S
C262 C261 1.374 . S
C263 C260 1.499 . S
C263 C264 1.373 . S
C263 C265 1.389 . S
C264 H237 0.950 . S
C264 C250 1.377 . S
C264 C263 1.373 . S
C265 C249 1.377 . S
C265 C263 1.389 . S
C265 C266 1.524 . S
C266 C265 1.524 . S
C266 C267 1.397 . S
C266 C271 1.363 . S
C267 H238 0.950 . S
C267 C266 1.397 . S
C267 C268 1.334 . S
C268 H239 0.950 . S
C268 C267 1.334 . S
C268 C269 1.287 . S
C269 C268 1.287 . S
C269 C270 1.524 . S
C269 H272 0.999 . S
C270 H240 0.950 . S
C270 C269 1.524 . S
C270 C271 1.415 . S
C271 H241 0.950 . S
C271 C266 1.363 . S
C271 C270 1.415 . S
H272 C269 0.999 . S
H273 C254 0.913 . S
H274 C292 0.951 . S
H275 C294 0.951 . S
H276 C296 0.950 . S
H277 C297 0.950 . S
H278 C299 0.950 . S
H279 C302 0.950 . S
H280 C303 0.950 . S
H281 C305 0.950 . S
H282 C306 0.950 . S
H283 C307 0.951 . S
H284 C309 0.951 . S
H285 C311 0.950 . S
H286 C312 0.950 . S
H287 C314 0.950 . S
H288 C317 0.950 . S
H289 C318 0.950 . S
H290 C320 0.950 . S
H291 C321 0.950 1_545 S
C292 H274 0.951 . S
C292 C293 1.366 . S
C292 C294 1.388 . S
C293 C292 1.366 . S
C293 C297 1.385 . S
C294 H275 0.951 . S
C294 C292 1.388 . S
C294 C295 1.366 . S
C295 C294 1.366 . S
C295 C296 1.414 . S
C295 C298 1.499 . S
C296 H276 0.950 . S
C296 C295 1.414 . S
C296 C297 1.374 . S
C297 H277 0.950 . S
C297 C293 1.385 . S
C297 C296 1.374 . S
C298 C295 1.499 . S
C298 C299 1.373 . S
C298 C300 1.389 . S
C299 H278 0.950 . S
C299 C298 1.373 . S
C299 C315 1.377 . S
C300 C298 1.389 . S
C300 C301 1.524 . S
C300 C314 1.377 . S
C301 C300 1.524 . S
C301 C302 1.397 . S
C301 C306 1.363 . S
C302 H279 0.950 . S
C302 C301 1.397 . S
C302 C303 1.334 . S
C303 H280 0.950 . S
C303 C302 1.334 . S
C303 C304 1.287 . S
C304 C303 1.287 . S
C304 C305 1.524 . S
C304 H323 0.913 . S
C305 H281 0.950 . S
C305 C304 1.524 . S
C305 C306 1.415 . S
C306 H282 0.950 . S
C306 C301 1.363 . S
C306 C305 1.415 . S
C307 H283 0.951 . S
C307 C308 1.366 . S
C307 C309 1.388 . S
C308 C307 1.366 . S
C308 C312 1.385 . S
C309 H284 0.951 . S
C309 C307 1.388 . S
C309 C310 1.366 . S
C310 C309 1.366 . S
C310 C311 1.414 . S
C310 C313 1.499 . S
C311 H285 0.950 . S
C311 C310 1.414 . S
C311 C312 1.374 . S
C312 H286 0.950 . S
C312 C308 1.385 . S
C312 C311 1.374 . S
C313 C310 1.499 . S
C313 C314 1.373 . S
C313 C315 1.389 . S
C314 H287 0.950 . S
C314 C300 1.377 . S
C314 C313 1.373 . S
C315 C299 1.377 . S
C315 C313 1.389 . S
C315 C316 1.524 1_545 S
C316 C315 1.524 1_565 S
C316 C317 1.397 . S
C316 C321 1.363 . S
C317 H288 0.950 . S
C317 C316 1.397 . S
C317 C318 1.334 . S
C318 H289 0.950 . S
C318 C317 1.334 . S
C318 C319 1.287 . S
C319 C318 1.287 . S
C319 C320 1.524 . S
C319 H322 0.999 . S
C320 H290 0.950 . S
C320 C319 1.524 . S
C320 C321 1.415 . S
C321 H291 0.950 1_565 S
C321 C316 1.363 . S
C321 C320 1.415 . S
H322 C319 0.999 . S
H323 C304 0.913 . S
H324 C342 0.951 . S
H325 C344 0.951 . S
H326 C346 0.950 1_655 S
H327 C347 0.950 1_655 S
H328 C349 0.950 . S
H329 C352 0.950 . S
H330 C353 0.950 . S
H331 C355 0.950 . S
H332 C356 0.950 . S
H333 C357 0.951 . S
H334 C359 0.962 . S
H335 C361 0.950 . S
H336 C362 0.950 . S
H337 C364 0.950 . S
H338 C367 0.950 . S
H339 C368 0.950 . S
H340 C370 0.950 . S
H341 C371 0.950 . S
C342 H324 0.951 . S
C342 C343 1.366 . S
C342 C344 1.388 . S
C343 C342 1.366 . S
C343 C347 1.385 . S
C344 H325 0.951 . S
C344 C342 1.388 . S
C344 C345 1.366 . S
C345 C344 1.366 . S
C345 C346 1.414 . S
C345 C348 1.499 . S
C346 H326 0.950 1_455 S
C346 C345 1.414 . S
C346 C347 1.374 . S
C347 H327 0.950 1_455 S
C347 C343 1.385 . S
C347 C346 1.374 . S
C348 C345 1.499 . S
C348 C349 1.373 . S
C348 C350 1.389 . S
C349 H328 0.950 . S
C349 C348 1.373 . S
C349 C365 1.377 . S
C350 C348 1.389 . S
C350 C351 1.524 . S
C350 C364 1.377 . S
C351 C350 1.524 . S
C351 C352 1.397 . S
C351 C356 1.363 . S
C352 H329 0.950 . S
C352 C351 1.397 . S
C352 C353 1.334 . S
C353 H330 0.950 . S
C353 C352 1.334 . S
C353 C354 1.287 . S
C354 C353 1.287 . S
C354 C355 1.524 . S
C354 H373 0.913 . S
C355 H331 0.950 . S
C355 C354 1.524 . S
C355 C356 1.415 . S
C356 H332 0.950 . S
C356 C351 1.363 . S
C356 C355 1.415 . S
C357 H333 0.951 . S
C357 C358 1.366 . S
C357 C359 1.388 . S
C358 C357 1.366 . S
C358 C362 1.385 . S
C359 H334 0.962 . S
C359 C357 1.388 . S
C359 C360 1.366 . S
C360 C359 1.366 . S
C360 C361 1.414 . S
C360 C363 1.499 . S
C361 H335 0.950 . S
C361 C360 1.414 . S
C361 C362 1.374 . S
C362 H336 0.950 . S
C362 C358 1.385 . S
C362 C361 1.374 . S
C363 C360 1.499 . S
C363 C364 1.373 . S
C363 C365 1.389 . S
C364 H337 0.950 . S
C364 C350 1.377 . S
C364 C363 1.373 . S
C365 C349 1.377 . S
C365 C363 1.389 . S
C365 C366 1.524 . S
C366 C365 1.524 . S
C366 C367 1.397 . S
C366 C371 1.363 1_455 S
C367 H338 0.950 . S
C367 C366 1.397 . S
C367 C368 1.334 . S
C368 H339 0.950 . S
C368 C367 1.334 . S
C368 C369 1.287 . S
C369 C368 1.287 . S
C369 C370 1.524 1_455 S
C369 H372 0.999 . S
C370 H340 0.950 . S
C370 C369 1.524 1_655 S
C370 C371 1.415 . S
C371 H341 0.950 . S
C371 C366 1.363 1_655 S
C371 C370 1.415 . S
H372 C369 0.999 . S
H373 C354 0.913 . S
H374 C392 0.951 . S
H375 C394 0.951 . S
H376 C396 0.950 . S
H377 C397 0.950 . S
H378 C399 0.950 . S
H379 C402 0.950 . S
H380 C403 0.950 . S
H381 C405 0.950 . S
H382 C406 0.950 . S
H383 C407 0.951 . S
H384 C409 0.951 . S
H385 C411 0.950 . S
H386 C412 0.950 1_455 S
H387 C414 0.950 . S
H388 C417 0.950 . S
H389 C418 0.950 . S
H390 C420 0.950 . S
H391 C421 0.950 . S
C392 H374 0.951 . S
C392 C393 1.366 . S
C392 C394 1.388 . S
C393 C392 1.366 . S
C393 C397 1.385 . S
C394 H375 0.951 . S
C394 C392 1.388 . S
C394 C395 1.366 . S
C395 C394 1.366 . S
C395 C396 1.414 . S
C395 C398 1.499 . S
C396 H376 0.950 . S
C396 C395 1.414 . S
C396 C397 1.374 . S
C397 H377 0.950 . S
C397 C393 1.385 . S
C397 C396 1.374 . S
C398 C395 1.499 . S
C398 C399 1.373 . S
C398 C400 1.389 . S
C399 H378 0.950 . S
C399 C398 1.373 . S
C399 C415 1.377 . S
C400 C398 1.389 . S
C400 C401 1.524 . S
C400 C414 1.377 . S
C401 C400 1.524 . S
C401 C402 1.397 . S
C401 C406 1.363 . S
C402 H379 0.950 . S
C402 C401 1.397 . S
C402 C403 1.334 . S
C403 H380 0.950 . S
C403 C402 1.334 . S
C403 C404 1.287 . S
C404 C403 1.287 . S
C404 C405 1.524 . S
C404 H423 0.913 . S
C405 H381 0.950 . S
C405 C404 1.524 . S
C405 C406 1.415 . S
C406 H382 0.950 . S
C406 C401 1.363 . S
C406 C405 1.415 . S
C407 H383 0.951 . S
C407 C408 1.366 . S
C407 C409 1.388 . S
C408 C407 1.366 . S
C408 C412 1.385 . S
C409 H384 0.951 . S
C409 C407 1.388 . S
C409 C410 1.366 . S
C410 C409 1.366 . S
C410 C411 1.414 . S
C410 C413 1.499 . S
C411 H385 0.950 . S
C411 C410 1.414 . S
C411 C412 1.374 . S
C412 H386 0.950 1_655 S
C412 C408 1.385 . S
C412 C411 1.374 . S
C413 C410 1.499 . S
C413 C414 1.373 . S
C413 C415 1.389 . S
C414 H387 0.950 . S
C414 C400 1.377 . S
C414 C413 1.373 . S
C415 C399 1.377 . S
C415 C413 1.389 . S
C415 C416 1.524 . S
C416 C415 1.524 . S
C416 C417 1.397 1_545 S
C416 C421 1.363 . S
C417 H388 0.950 . S
C417 C416 1.397 1_565 S
C417 C418 1.334 . S
C418 H389 0.950 . S
C418 C417 1.334 . S
C418 C419 1.287 . S
C419 C418 1.287 . S
C419 C420 1.524 . S
C419 H422 0.999 . S
C420 H390 0.950 . S
C420 C419 1.524 . S
C420 C421 1.415 1_565 S
C421 H391 0.950 . S
C421 C416 1.363 . S
C421 C420 1.415 1_545 S
H422 C419 0.999 . S
H423 C404 0.913 . S
H424 C442 0.944 1_655 S
H425 C444 0.951 1_655 S
H426 C446 0.950 . S
H427 C447 0.950 . S
H428 C449 0.950 . S
H429 C452 0.950 . S
H430 C453 0.950 . S
H431 C455 0.950 . S
H432 C456 0.950 . S
H433 C457 0.951 . S
H434 C459 0.951 . S
H435 C461 0.959 . S
H436 C462 0.950 . S
H437 C464 0.950 . S
H438 C467 0.950 . S
H439 C468 0.950 . S
H440 C470 0.950 . S
H441 C471 0.950 . S
C442 H424 0.944 1_455 S
C442 C443 1.366 . S
C442 C444 1.388 . S
C443 C442 1.366 . S
C443 C447 1.385 . S
C444 H425 0.951 1_455 S
C444 C442 1.388 . S
C444 C445 1.366 . S
C445 C444 1.366 . S
C445 C446 1.414 . S
C445 C448 1.499 . S
C446 H426 0.950 . S
C446 C445 1.414 . S
C446 C447 1.374 . S
C447 H427 0.950 . S
C447 C443 1.385 . S
C447 C446 1.374 . S
C448 C445 1.499 . S
C448 C449 1.373 . S
C448 C450 1.389 1_455 S
C449 H428 0.950 . S
C449 C448 1.373 . S
C449 C465 1.377 . S
C450 C448 1.389 1_655 S
C450 C451 1.524 . S
C450 C464 1.377 . S
C451 C450 1.524 . S
C451 C452 1.397 . S
C451 C456 1.363 . S
C452 H429 0.950 . S
C452 C451 1.397 . S
C452 C453 1.334 . S
C453 H430 0.950 . S
C453 C452 1.334 . S
C453 C454 1.287 . S
C454 C453 1.287 . S
C454 C455 1.524 . S
C454 H473 0.913 . S
C455 H431 0.950 . S
C455 C454 1.524 . S
C455 C456 1.415 . S
C456 H432 0.950 . S
C456 C451 1.363 . S
C456 C455 1.415 . S
C457 H433 0.951 . S
C457 C458 1.366 . S
C457 C459 1.388 . S
C458 C457 1.366 . S
C458 C462 1.385 1_455 S
C459 H434 0.951 . S
C459 C457 1.388 . S
C459 C460 1.366 . S
C460 C459 1.366 . S
C460 C461 1.406 1_455 S
C460 C463 1.499 . S
C461 H435 0.959 . S
C461 C460 1.406 1_655 S
C461 C462 1.374 . S
C462 H436 0.950 . S
C462 C458 1.385 1_655 S
C462 C461 1.374 . S
C463 C460 1.499 . S
C463 C464 1.373 1_455 S
C463 C465 1.389 . S
C464 H437 0.950 . S
C464 C450 1.377 . S
C464 C463 1.373 1_655 S
C465 C449 1.377 . S
C465 C463 1.389 . S
C465 C466 1.524 . S
C466 C465 1.524 . S
C466 C467 1.397 . S
C466 C471 1.363 . S
C467 H438 0.950 . S
C467 C466 1.397 . S
C467 C468 1.334 . S
C468 H439 0.950 . S
C468 C467 1.334 . S
C468 C469 1.287 . S
C469 C468 1.287 . S
C469 C470 1.524 . S
C469 H472 0.999 . S
C470 H440 0.950 . S
C470 C469 1.524 . S
C470 C471 1.415 . S
C471 H441 0.950 . S
C471 C466 1.363 . S
C471 C470 1.415 . S
H472 C469 0.999 . S
H473 C454 0.913 . S
C108 C55 1.548 . S
C93 N12 1.507 . S
C158 C66 1.530 . S
C143 N25 1.545 . S
C208 C54 1.546 . S
C193 C16 1.533 . S
C258 C67 1.534 . S
C243 C30 1.592 . S
C308 C69 1.591 . S
C293 C7 1.590 . S
C358 C53 1.482 . S
C343 C39 1.528 . S
C408 C68 1.585 1_655 S
C393 N2 1.543 . S
C443 N35 1.509 . S
C458 C52 1.493 . S
