# Generated by pormake.
# Topology ocu, (6,8)-cn, num edge types: 1
# Building blocks:
#     Node 0, Type 0, BuildingBlock: BETDEL_clean_sbu_0, # of connection points: 6
#     Node 1, Type 0, BuildingBlock: BETDEL_clean_sbu_0, # of connection points: 6
#     Node 2, Type 0, BuildingBlock: BETDEL_clean_sbu_0, # of connection points: 6
#     Node 3, Type 0, BuildingBlock: BETDEL_clean_sbu_0, # of connection points: 6
#     Node 4, Type 0, BuildingBlock: BETDEL_clean_sbu_0, # of connection points: 6
#     Node 5, Type 0, BuildingBlock: BETDEL_clean_sbu_0, # of connection points: 6
#     Node 6, Type 0, BuildingBlock: BETDEL_clean_sbu_0, # of connection points: 6
#     Node 7, Type 0, BuildingBlock: BETDEL_clean_sbu_0, # of connection points: 6
#     Node 8, Type 1, BuildingBlock: AJUNOK_clean_sbu_0, # of connection points: 8
#     Node 9, Type 1, BuildingBlock: AJUNOK_clean_sbu_0, # of connection points: 8
#     Node 10, Type 1, BuildingBlock: AJUNOK_clean_sbu_0, # of connection points: 8
#     Node 11, Type 1, BuildingBlock: AJUNOK_clean_sbu_0, # of connection points: 8
#     Node 12, Type 1, BuildingBlock: AJUNOK_clean_sbu_0, # of connection points: 8
#     Node 13, Type 1, BuildingBlock: AJUNOK_clean_sbu_0, # of connection points: 8
#     Edge 14, Type (0, 1), BuildingBlock: ZUJKAS_clean_linker_0, # of connection points: 2
#     Edge 15, Type (0, 1), BuildingBlock: ZUJKAS_clean_linker_0, # of connection points: 2
#     Edge 16, Type (0, 1), BuildingBlock: ZUJKAS_clean_linker_0, # of connection points: 2
#     Edge 17, Type (0, 1), BuildingBlock: ZUJKAS_clean_linker_0, # of connection points: 2
#     Edge 18, Type (0, 1), BuildingBlock: ZUJKAS_clean_linker_0, # of connection points: 2
#     Edge 19, Type (0, 1), BuildingBlock: ZUJKAS_clean_linker_0, # of connection points: 2
#     Edge 20, Type (0, 1), BuildingBlock: ZUJKAS_clean_linker_0, # of connection points: 2
#     Edge 21, Type (0, 1), BuildingBlock: ZUJKAS_clean_linker_0, # of connection points: 2
#     Edge 22, Type (0, 1), BuildingBlock: ZUJKAS_clean_linker_0, # of connection points: 2
#     Edge 23, Type (0, 1), BuildingBlock: ZUJKAS_clean_linker_0, # of connection points: 2
#     Edge 24, Type (0, 1), BuildingBlock: ZUJKAS_clean_linker_0, # of connection points: 2
#     Edge 25, Type (0, 1), BuildingBlock: ZUJKAS_clean_linker_0, # of connection points: 2
#     Edge 26, Type (0, 1), BuildingBlock: ZUJKAS_clean_linker_0, # of connection points: 2
#     Edge 27, Type (0, 1), BuildingBlock: ZUJKAS_clean_linker_0, # of connection points: 2
#     Edge 28, Type (0, 1), BuildingBlock: ZUJKAS_clean_linker_0, # of connection points: 2
#     Edge 29, Type (0, 1), BuildingBlock: ZUJKAS_clean_linker_0, # of connection points: 2
#     Edge 30, Type (0, 1), BuildingBlock: ZUJKAS_clean_linker_0, # of connection points: 2
#     Edge 31, Type (0, 1), BuildingBlock: ZUJKAS_clean_linker_0, # of connection points: 2
#     Edge 32, Type (0, 1), BuildingBlock: ZUJKAS_clean_linker_0, # of connection points: 2
#     Edge 33, Type (0, 1), BuildingBlock: ZUJKAS_clean_linker_0, # of connection points: 2
#     Edge 34, Type (0, 1), BuildingBlock: ZUJKAS_clean_linker_0, # of connection points: 2
#     Edge 35, Type (0, 1), BuildingBlock: ZUJKAS_clean_linker_0, # of connection points: 2
#     Edge 36, Type (0, 1), BuildingBlock: ZUJKAS_clean_linker_0, # of connection points: 2
#     Edge 37, Type (0, 1), BuildingBlock: ZUJKAS_clean_linker_0, # of connection points: 2
#     Edge 38, Type (0, 1), BuildingBlock: ZUJKAS_clean_linker_0, # of connection points: 2
#     Edge 39, Type (0, 1), BuildingBlock: ZUJKAS_clean_linker_0, # of connection points: 2
#     Edge 40, Type (0, 1), BuildingBlock: ZUJKAS_clean_linker_0, # of connection points: 2
#     Edge 41, Type (0, 1), BuildingBlock: ZUJKAS_clean_linker_0, # of connection points: 2
#     Edge 42, Type (0, 1), BuildingBlock: ZUJKAS_clean_linker_0, # of connection points: 2
#     Edge 43, Type (0, 1), BuildingBlock: ZUJKAS_clean_linker_0, # of connection points: 2
#     Edge 44, Type (0, 1), BuildingBlock: ZUJKAS_clean_linker_0, # of connection points: 2
#     Edge 45, Type (0, 1), BuildingBlock: ZUJKAS_clean_linker_0, # of connection points: 2
#     Edge 46, Type (0, 1), BuildingBlock: ZUJKAS_clean_linker_0, # of connection points: 2
#     Edge 47, Type (0, 1), BuildingBlock: ZUJKAS_clean_linker_0, # of connection points: 2
#     Edge 48, Type (0, 1), BuildingBlock: ZUJKAS_clean_linker_0, # of connection points: 2
#     Edge 49, Type (0, 1), BuildingBlock: ZUJKAS_clean_linker_0, # of connection points: 2
#     Edge 50, Type (0, 1), BuildingBlock: ZUJKAS_clean_linker_0, # of connection points: 2
#     Edge 51, Type (0, 1), BuildingBlock: ZUJKAS_clean_linker_0, # of connection points: 2
#     Edge 52, Type (0, 1), BuildingBlock: ZUJKAS_clean_linker_0, # of connection points: 2
#     Edge 53, Type (0, 1), BuildingBlock: ZUJKAS_clean_linker_0, # of connection points: 2
#     Edge 54, Type (0, 1), BuildingBlock: ZUJKAS_clean_linker_0, # of connection points: 2
#     Edge 55, Type (0, 1), BuildingBlock: ZUJKAS_clean_linker_0, # of connection points: 2
#     Edge 56, Type (0, 1), BuildingBlock: ZUJKAS_clean_linker_0, # of connection points: 2
#     Edge 57, Type (0, 1), BuildingBlock: ZUJKAS_clean_linker_0, # of connection points: 2
#     Edge 58, Type (0, 1), BuildingBlock: ZUJKAS_clean_linker_0, # of connection points: 2
#     Edge 59, Type (0, 1), BuildingBlock: ZUJKAS_clean_linker_0, # of connection points: 2
#     Edge 60, Type (0, 1), BuildingBlock: ZUJKAS_clean_linker_0, # of connection points: 2
#     Edge 61, Type (0, 1), BuildingBlock: ZUJKAS_clean_linker_0, # of connection points: 2
# Relax obj value: 0.134
# Max RMSD: 0.241
# Mean RMSD: 0.196
data_MOF--net-ocu--node1-BETDEL_clean_sbu_0--node2-AJUNOK_clean_sbu_0--edge1-ZUJKAS_clean_linker_0
_symmetry_space_group_name_H-M    P1
_symmetry_Int_Tables_number       1
_symmetry_cell_setting            triclinic
loop_
_symmetry_equiv_pos_as_xyz
'x, y, z'
_cell_length_a     51.760569
_cell_length_b     52.775662
_cell_length_c     43.350202
_cell_angle_alpha  97.678704
_cell_angle_beta   97.71735
_cell_angle_gamma 105.4796
loop_
_atom_site_label
_atom_site_type_symbol
_atom_site_fract_x
_atom_site_fract_y
_atom_site_fract_z
_atom_type_partial_charge
Dy0 Dy 0.27457 0.25082 0.28133 0.0
C1 C 0.22409 0.27866 0.16867 0.0
C2 C 0.29435 0.22735 0.3282 0.0
Dy3 Dy 0.24458 0.25607 0.21607 0.0
O4 O 0.3057 0.25131 0.32343 0.0
O5 O 0.27179 0.21673 0.30808 0.0
O6 O 0.30144 0.29304 0.28711 0.0
O7 O 0.28613 0.26971 0.24181 0.0
C8 C 0.29907 0.29275 0.25675 0.0
C9 C 0.22053 0.21416 0.24099 0.0
O10 O 0.27308 0.23451 0.19782 0.0
O11 O 0.28607 0.22201 0.24574 0.0
O12 O 0.21275 0.25507 0.17449 0.0
O13 O 0.24707 0.28942 0.18807 0.0
O14 O 0.21823 0.2135 0.21058 0.0
O15 O 0.23319 0.23734 0.25558 0.0
O16 O 0.24605 0.27229 0.29958 0.0
O17 O 0.23298 0.28482 0.25171 0.0
C18 C 0.28559 0.22053 0.21473 0.0
C19 C 0.2334 0.2862 0.28271 0.0
Dy20 Dy 0.77665 0.23607 0.25696 0.0
C21 C 0.69211 0.27479 0.19944 0.0
C22 C 0.81266 0.21809 0.29304 0.0
Dy23 Dy 0.72723 0.25826 0.23874 0.0
O24 O 0.81234 0.21936 0.26321 0.0
O25 O 0.79346 0.22669 0.30299 0.0
O26 O 0.77894 0.2257 0.20522 0.0
O27 O 0.7419 0.22586 0.21955 0.0
C28 C 0.75344 0.22405 0.19598 0.0
C29 C 0.75049 0.27094 0.29986 0.0
O30 O 0.70401 0.21809 0.24589 0.0
O31 O 0.74125 0.20519 0.26784 0.0
O32 O 0.69264 0.27628 0.22978 0.0
O33 O 0.71055 0.26426 0.19088 0.0
O34 O 0.72516 0.26991 0.29026 0.0
O35 O 0.76192 0.26842 0.27629 0.0
O36 O 0.79973 0.27706 0.25198 0.0
O37 O 0.76271 0.28951 0.22864 0.0
C38 C 0.71459 0.20146 0.26009 0.0
C39 C 0.78932 0.29365 0.23747 0.0
Dy40 Dy 0.73524 0.75005 0.27754 0.0
C41 C 0.79618 0.73659 0.17287 0.0
C42 C 0.71512 0.76757 0.32902 0.0
Dy43 Dy 0.77228 0.74886 0.22339 0.0
O44 O 0.70508 0.744 0.31126 0.0
O45 O 0.73636 0.78084 0.31909 0.0
O46 O 0.69937 0.72227 0.24295 0.0
O47 O 0.7393 0.72173 0.23902 0.0
C48 C 0.71474 0.71277 0.22595 0.0
C49 C 0.79278 0.78613 0.2749 0.0
O50 O 0.74317 0.77033 0.20289 0.0
O51 O 0.72179 0.77672 0.24648 0.0
O52 O 0.80871 0.75234 0.19935 0.0
O53 O 0.77026 0.72842 0.17347 0.0
O54 O 0.80821 0.77818 0.25685 0.0
O55 O 0.76826 0.77676 0.26213 0.0
O56 O 0.76513 0.72912 0.29775 0.0
O57 O 0.78181 0.71856 0.25157 0.0
C58 C 0.72593 0.78031 0.21749 0.0
C59 C 0.77995 0.71678 0.28164 0.0
Dy60 Dy 0.26975 0.73215 0.21907 0.0
C61 C 0.22353 0.79928 0.29943 0.0
C62 C 0.2864 0.70136 0.17496 0.0
Dy63 Dy 0.24127 0.77076 0.2541 0.0
O64 O 0.30231 0.72208 0.19475 0.0
O65 O 0.26144 0.69718 0.17961 0.0
O66 O 0.29631 0.73367 0.26535 0.0
O67 O 0.28194 0.7663 0.25685 0.0
C68 C 0.29434 0.75691 0.27734 0.0
C69 C 0.21694 0.74684 0.19561 0.0
O70 O 0.266 0.79963 0.22891 0.0
O71 O 0.27711 0.76765 0.19449 0.0
O72 O 0.2079 0.78059 0.27687 0.0
O73 O 0.24891 0.80295 0.29674 0.0
O74 O 0.21337 0.76901 0.20875 0.0
O75 O 0.22942 0.7371 0.21566 0.0
O76 O 0.24363 0.70341 0.2433 0.0
O77 O 0.23448 0.73557 0.27912 0.0
C78 C 0.27614 0.79239 0.20375 0.0
C79 C 0.23425 0.71062 0.26903 0.0
Dy80 Dy 0.26775 0.73341 0.77886 0.0
C81 C 0.21468 0.79406 0.70306 0.0
C82 C 0.29361 0.7096 0.82014 0.0
Dy83 Dy 0.23947 0.76982 0.74474 0.0
O84 O 0.30564 0.7271 0.80439 0.0
O85 O 0.2674 0.70499 0.8133 0.0
O86 O 0.25645 0.70157 0.73533 0.0
O87 O 0.23204 0.72693 0.74254 0.0
C88 C 0.23645 0.7095 0.72279 0.0
C89 C 0.27066 0.7931 0.80111 0.0
O90 O 0.20802 0.75229 0.77213 0.0
O91 O 0.23757 0.74057 0.80909 0.0
O92 O 0.24058 0.80149 0.7145 0.0
O93 O 0.20233 0.77371 0.71473 0.0
O94 O 0.25057 0.80114 0.78899 0.0
O95 O 0.27506 0.77605 0.78095 0.0
O96 O 0.29932 0.75219 0.75199 0.0
O97 O 0.26895 0.76187 0.71417 0.0
C98 C 0.21375 0.74452 0.79938 0.0
C99 C 0.29306 0.75878 0.72414 0.0
Dy100 Dy 0.24754 0.26022 0.77964 0.0
C101 C 0.30515 0.23839 0.67422 0.0
C102 C 0.22654 0.28003 0.82909 0.0
Dy103 Dy 0.28292 0.2555 0.72419 0.0
O104 O 0.22104 0.2547 0.81729 0.0
O105 O 0.24395 0.2941 0.81452 0.0
O106 O 0.20976 0.23542 0.74539 0.0
O107 O 0.24811 0.23115 0.73992 0.0
C108 C 0.22345 0.22445 0.7274 0.0
C109 C 0.3085 0.28924 0.77785 0.0
O110 O 0.25582 0.27886 0.70387 0.0
O111 O 0.23632 0.28774 0.74833 0.0
O112 O 0.31719 0.25906 0.69626 0.0
O113 O 0.28046 0.2282 0.6786 0.0
O114 O 0.32134 0.27945 0.75777 0.0
O115 O 0.28369 0.28361 0.76579 0.0
O116 O 0.27559 0.23709 0.79923 0.0
O117 O 0.29033 0.22451 0.75229 0.0
C118 C 0.23987 0.29036 0.71896 0.0
C119 C 0.28917 0.22351 0.78264 0.0
Dy120 Dy 0.7719 0.22427 0.73816 0.0
C121 C 0.72555 0.29109 0.81834 0.0
C122 C 0.79106 0.19636 0.69373 0.0
Dy123 Dy 0.74197 0.2604 0.77382 0.0
O124 O 0.80416 0.21981 0.71013 0.0
O125 O 0.76747 0.18767 0.70205 0.0
O126 O 0.80517 0.23472 0.78092 0.0
O127 O 0.78368 0.26204 0.7703 0.0
C128 C 0.80095 0.25748 0.79041 0.0
C129 C 0.71314 0.22782 0.72101 0.0
O130 O 0.75923 0.28727 0.7417 0.0
O131 O 0.76682 0.25371 0.70651 0.0
O132 O 0.70976 0.2698 0.79938 0.0
O133 O 0.7502 0.29591 0.81256 0.0
O134 O 0.70924 0.2507 0.7308 0.0
O135 O 0.73005 0.22273 0.74118 0.0
O136 O 0.75738 0.19797 0.77206 0.0
O137 O 0.74542 0.23026 0.80493 0.0
C138 C 0.76502 0.27833 0.71418 0.0
C139 C 0.74994 0.20664 0.79866 0.0
Dy140 Dy 0.77354 0.74917 0.77775 0.0
C141 C 0.72381 0.77428 0.66261 0.0
C142 C 0.79274 0.72766 0.82697 0.0
Dy143 Dy 0.74407 0.75362 0.71203 0.0
O144 O 0.80493 0.75053 0.81994 0.0
O145 O 0.76972 0.71699 0.80764 0.0
O146 O 0.80041 0.79125 0.78285 0.0
O147 O 0.78564 0.76726 0.73774 0.0
C148 C 0.79845 0.79043 0.75244 0.0
C149 C 0.71873 0.71296 0.73834 0.0
O150 O 0.77294 0.7319 0.69513 0.0
O151 O 0.78458 0.71915 0.74322 0.0
O152 O 0.71491 0.74973 0.66681 0.0
O153 O 0.74426 0.78725 0.68494 0.0
O154 O 0.71634 0.71175 0.70788 0.0
O155 O 0.73206 0.73614 0.75223 0.0
O156 O 0.74543 0.77179 0.79486 0.0
O157 O 0.73297 0.78374 0.74639 0.0
C158 C 0.7847 0.71757 0.71231 0.0
C159 C 0.73346 0.78585 0.77745 0.0
Cd160 Cd 0.99274 0.9936 0.54219 0.0
Cd161 Cd 0.03328 0.00965 0.45492 0.0
C162 C 0.04827 0.97888 0.56363 0.0
N163 N 0.02387 0.9688 0.54375 0.0
C164 C 0.03437 0.92816 0.52768 0.0
C165 C 0.05973 0.93802 0.54799 0.0
C166 C 0.06667 0.96386 0.56594 0.0
C167 C 0.01674 0.944 0.52582 0.0
H168 H 0.05326 -0.00169 0.57836 0.0
H169 H 0.99727 0.93634 0.51027 0.0
C170 C 0.97862 0.96998 0.45778 0.0
C171 C 0.9866 0.02773 0.41694 0.0
C172 C 0.96894 0.04257 0.40898 0.0
C173 C 0.9673 0.06364 0.4314 0.0
C174 C 0.98276 0.06848 0.46193 0.0
C175 C 1.00017 0.05307 0.46889 0.0
N176 N 1.00189 0.03332 0.44636 0.0
H177 H 0.98865 0.01212 0.39939 0.0
H178 H 0.01289 0.0575 0.49192 0.0
C179 C 0.04229 0.95128 0.45971 0.0
N180 N 0.05572 0.97778 0.46435 0.0
C181 C 0.09866 0.96877 0.47401 0.0
C182 C 0.08546 0.9412 0.46834 0.0
C183 C 0.05683 0.93257 0.46167 0.0
C184 C 0.08335 0.98673 0.47163 0.0
H185 H 0.02036 0.9445 0.45359 0.0
H186 H 0.09364 0.00775 0.47402 0.0
C187 C 0.04307 0.03734 0.53725 0.0
C188 C 0.95862 0.96716 0.58189 0.0
N189 N 0.96819 0.02294 0.52895 0.0
C190 C 0.97588 0.04799 0.54632 0.0
C191 C 0.95929 0.06468 0.54298 0.0
C192 C 0.93429 0.05539 0.5219 0.0
C193 C 0.92752 0.02994 0.50305 0.0
C194 C 0.94486 0.01391 0.50708 0.0
C195 C 0.06866 0.0372 0.41745 0.0
O196 O 0.99122 0.98218 0.48505 0.0
O197 O 0.99061 0.97415 0.43441 0.0
O198 O 0.03312 0.02089 0.51163 0.0
O199 O 0.03173 0.03325 0.5611 0.0
O200 O 0.95363 0.96028 0.55202 0.0
O201 O 0.97963 0.9867 0.59362 0.0
O202 O 0.07042 0.04629 0.44657 0.0
O203 O 0.05056 0.01518 0.40592 0.0
H204 H 0.99409 0.05455 0.56416 0.0
H205 H 0.93895 0.99377 0.49399 0.0
H206 H 0.02819 0.90841 0.51331 0.0
H207 H 0.08561 0.97202 0.58265 0.0
H208 H 0.95711 0.03793 0.3853 0.0
H209 H 0.98232 0.08472 0.4798 0.0
H210 H 0.12067 0.9764 0.4783 0.0
H211 H 0.04576 0.91153 0.45733 0.0
H212 H 0.96511 0.08391 0.55849 0.0
H213 H 0.90847 0.02205 0.48647 0.0
Cd214 Cd 0.50488 -9e-05 0.05316 0.0
Cd215 Cd 0.53119 0.02184 0.94711 0.0
C216 C 0.54751 0.98191 0.10338 0.0
N217 N 0.537 0.97808 0.07204 0.0
C218 C 0.56048 0.94529 0.06066 0.0
C219 C 0.57138 0.94841 0.09298 0.0
C220 C 0.56479 0.96729 0.11437 0.0
C221 C 0.54331 0.96031 0.05072 0.0
H222 H 0.54215 0.99603 0.11996 0.0
H223 H 0.53453 0.95739 0.02595 0.0
C224 C 0.48644 0.97503 0.96955 0.0
C225 C 0.4873 0.03844 0.89646 0.0
C226 C 0.46904 0.05214 0.88554 0.0
C227 C 0.46442 0.07291 0.90612 0.0
C228 C 0.47869 0.07915 0.93749 0.0
C229 C 0.49664 0.06489 0.94742 0.0
N230 N 0.50071 0.045 0.92696 0.0
H231 H 0.49062 0.02241 0.88063 0.0
H232 H 0.50733 0.06969 0.97163 0.0
C233 C 0.53778 0.97372 0.89278 0.0
N234 N 0.54466 0.98503 0.924 0.0
C235 C 0.57695 0.96028 0.93221 0.0
C236 C 0.57097 0.94885 0.89998 0.0
C237 C 0.55055 0.95523 0.88029 0.0
C238 C 0.56341 0.97819 0.94376 0.0
H239 H 0.5232 0.97978 0.87734 0.0
H240 H 0.56872 0.98759 0.96842 0.0
C241 C 0.54805 0.04816 0.03085 0.0
C242 C 0.45771 0.96581 0.06627 0.0
N243 N 0.48836 0.03514 0.0741 0.0
C244 C 0.49102 0.04332 0.10578 0.0
C245 C 0.47698 0.06088 0.11739 0.0
C246 C 0.45974 0.06995 0.09626 0.0
C247 C 0.45811 0.06162 0.06362 0.0
C248 C 0.47258 0.04419 0.05308 0.0
C249 C 0.58291 0.05246 0.94093 0.0
O250 O 0.49988 0.98937 0.9955 0.0
O251 O 0.49329 0.98151 0.94396 0.0
O252 O 0.53516 0.03306 0.00502 0.0
O253 O 0.5414 0.04161 0.05654 0.0
O254 O 0.45775 0.97371 0.0398 0.0
O255 O 0.4799 0.97361 0.08621 0.0
O256 O 0.57932 0.04164 0.96511 0.0
O257 O 0.56205 0.04938 0.9199 0.0
H258 H 0.50328 0.0355 0.12209 0.0
H259 H 0.4703 0.03692 0.02802 0.0
H260 H 0.56453 0.93083 0.04321 0.0
H261 H 0.57289 0.9708 0.13942 0.0
H262 H 0.45835 0.04617 0.8613 0.0
H263 H 0.47633 0.09514 0.95427 0.0
H264 H 0.59234 0.95577 0.94828 0.0
H265 H 0.54543 0.94698 0.85525 0.0
H266 H 0.4793 0.06691 0.14271 0.0
H267 H 0.44486 0.06753 0.04627 0.0
Cd268 Cd 0.99356 0.49648 0.05467 0.0
Cd269 Cd 0.01883 0.51421 0.96084 0.0
C270 C 0.04087 0.47477 0.08658 0.0
N271 N 0.0253 0.47199 0.0578 0.0
C272 C 0.04505 0.43908 0.03573 0.0
C273 C 0.06088 0.44105 0.06544 0.0
C274 C 0.05882 0.45942 0.09096 0.0
C275 C 0.02708 0.45465 0.03252 0.0
H276 H 0.03893 0.4886 0.10633 0.0
H277 H 0.01406 0.45243 0.0101 0.0
C278 C 0.96842 0.4708 0.97049 0.0
C279 C 0.96663 0.52977 0.92925 0.0
C280 C 0.94845 0.54474 0.92402 0.0
C281 C 0.94854 0.5658 0.94761 0.0
C282 C 0.96658 0.57077 0.97645 0.0
C283 C 0.98456 0.55532 0.98065 0.0
N284 N 0.98431 0.53536 0.95712 0.0
H285 H 0.96737 0.51431 0.91059 0.0
H286 H 0.99938 0.55988 0.00223 0.0
C287 C 0.03027 0.45535 0.95022 0.0
N288 N 0.04252 0.48195 0.95243 0.0
C289 C 0.08477 0.47333 0.94562 0.0
C290 C 0.07266 0.44576 0.94325 0.0
C291 C 0.04506 0.43688 0.94584 0.0
C292 C 0.0693 0.49113 0.95037 0.0
H293 H 0.00903 0.44827 0.95187 0.0
H294 H 0.07868 0.51235 0.95238 0.0
C295 C 0.04167 0.53701 0.04232 0.0
C296 C 0.96141 0.47244 0.09615 0.0
N297 N 0.97201 0.53021 0.05038 0.0
C298 C 0.98279 0.55431 0.06984 0.0
C299 C 0.96887 0.57364 0.07015 0.0
C300 C 0.94332 0.56808 0.05062 0.0
C301 C 0.93282 0.54308 0.03049 0.0
C302 C 0.94757 0.52436 0.03077 0.0
C303 C 0.04854 0.55422 0.93206 0.0
O304 O 0.98194 0.48402 0.99698 0.0
O305 O 0.97687 0.47735 0.94565 0.0
O306 O 0.02711 0.52094 0.01809 0.0
O307 O 0.03532 0.53347 0.06899 0.0
O308 O 0.95677 0.46286 0.0668 0.0
O309 O 0.98146 0.49321 0.10629 0.0
O310 O 0.05327 0.55497 0.96171 0.0
O311 O 0.03079 0.53375 0.91532 0.0
H312 H 1.00179 0.55828 0.08599 0.0
H313 H 0.93921 0.50489 0.01586 0.0
H314 H 0.04583 0.42498 0.01553 0.0
H315 H 0.07084 0.46176 0.11418 0.0
H316 H 0.93487 0.54031 0.90144 0.0
H317 H 0.96756 0.58712 0.99498 0.0
H318 H 0.10604 0.48109 0.94401 0.0
H319 H 0.03481 0.41581 0.94384 0.0
H320 H 0.97755 0.59233 0.08659 0.0
H321 H 0.91334 0.53796 0.01483 0.0
Cd322 Cd 0.49241 0.49385 0.04331 0.0
Cd323 Cd 0.52841 0.50856 0.9531 0.0
C324 C 0.54993 0.47907 0.05328 0.0
N325 N 0.52254 0.46824 0.04434 0.0
C326 C 0.52707 0.42413 0.03988 0.0
C327 C 0.5554 0.43467 0.04973 0.0
C328 C 0.56686 0.46256 0.05589 0.0
C329 C 0.51098 0.44137 0.03732 0.0
H330 H 0.55871 0.50046 0.0591 0.0
H331 H 0.48911 0.43334 0.03053 0.0
C332 C 0.48085 0.46266 0.96151 0.0
C333 C 0.47055 0.5176 0.92738 0.0
C334 C 0.45086 0.53102 0.92315 0.0
C335 C 0.45569 0.55689 0.94029 0.0
C336 C 0.48016 0.56834 0.96199 0.0
C337 C 0.49924 0.55414 0.96555 0.0
N338 N 0.49414 0.52931 0.94831 0.0
H339 H 0.46718 0.49806 0.91349 0.0
H340 H 0.51845 0.56321 0.98149 0.0
C341 C 0.54834 0.45822 0.97274 0.0
N342 N 0.55773 0.48294 0.96549 0.0
C343 C 0.60214 0.47745 0.96598 0.0
C344 C 0.59276 0.45147 0.97234 0.0
C345 C 0.56553 0.44204 0.97611 0.0
C346 C 0.58415 0.4928 0.96236 0.0
H347 H 0.52735 0.45057 0.97503 0.0
H348 H 0.59108 0.51228 0.95599 0.0
C349 C 0.53981 0.53869 0.03396 0.0
C350 C 0.46106 0.46729 0.08512 0.0
N351 N 0.4656 0.52123 0.03195 0.0
C352 C 0.46839 0.54179 0.05574 0.0
C353 C 0.45093 0.55771 0.0539 0.0
C354 C 0.43021 0.55231 0.02737 0.0
C355 C 0.42828 0.53136 0.00264 0.0
C356 C 0.44637 0.51594 0.00543 0.0
C357 C 0.55942 0.53887 0.91396 0.0
O358 O 0.4902 0.48026 0.98625 0.0
O359 O 0.49148 0.46654 0.93708 0.0
O360 O 0.52884 0.52134 0.0094 0.0
O361 O 0.53025 0.5354 0.05914 0.0
O362 O 0.45482 0.46031 0.05528 0.0
O363 O 0.48207 0.48708 0.0959 0.0
O364 O 0.56233 0.547 0.94352 0.0
O365 O 0.54196 0.51641 0.90247 0.0
H366 H 0.48356 0.54512 0.07677 0.0
H367 H 0.44453 0.49935 0.98691 0.0
H368 H 0.51725 0.40281 0.03536 0.0
H369 H 0.58862 0.47156 0.06308 0.0
H370 H 0.43213 0.5213 0.90648 0.0
H371 H 0.48492 0.58836 0.97536 0.0
H372 H 0.62278 0.48535 0.96209 0.0
H373 H 0.55742 0.42212 0.98092 0.0
H374 H 0.45287 0.57329 0.07379 0.0
H375 H 0.41275 0.52673 0.98165 0.0
Cd376 Cd 0.99099 0.48198 0.54726 0.0
Cd377 Cd 0.00997 0.50317 0.44046 0.0
C378 C 0.03957 0.47046 0.59581 0.0
N379 N 0.02627 0.46323 0.56527 0.0
C380 C 0.05099 0.43125 0.55525 0.0
C381 C 0.06482 0.43792 0.58685 0.0
C382 C 0.05896 0.45811 0.60707 0.0
C383 C 0.03177 0.44415 0.54497 0.0
H384 H 0.03486 0.48561 0.6116 0.0
H385 H 0.02083 0.43853 0.52085 0.0
C386 C 0.96388 0.45891 0.46342 0.0
C387 C 0.97514 0.53085 0.39349 0.0
C388 C 0.95737 0.54522 0.38342 0.0
C389 C 0.94042 0.5528 0.40347 0.0
C390 C 0.94188 0.54509 0.43343 0.0
C391 C 0.96012 0.53083 0.44265 0.0
N392 N 0.97645 0.52413 0.42279 0.0
H393 H 0.98829 0.52553 0.37801 0.0
H394 H 0.96151 0.52541 0.4659 0.0
C395 C 0.02116 0.45318 0.39602 0.0
N396 N 0.02852 0.46777 0.42581 0.0
C397 C 0.06456 0.44788 0.43705 0.0
C398 C 0.05818 0.43327 0.406 0.0
C399 C 0.0357 0.43573 0.38563 0.0
C400 C 0.0495 0.46513 0.44643 0.0
H401 H 1.00468 0.45591 0.37987 0.0
H402 H 0.05533 0.47733 0.46978 0.0
C403 C 0.03661 0.52557 0.52345 0.0
C404 C 0.95126 0.44538 0.56959 0.0
N405 N 0.97092 0.51619 0.56392 0.0
C406 C 0.98486 0.54003 0.58283 0.0
C407 C 0.97096 0.55806 0.59367 0.0
C408 C 0.94238 0.55146 0.58526 0.0
C409 C 0.92876 0.52686 0.56531 0.0
C410 C 0.9434 0.50955 0.55503 0.0
C411 C 0.05206 0.53586 0.41655 0.0
O412 O 0.97912 0.4727 0.48884 0.0
O413 O 0.96989 0.46465 0.43718 0.0
O414 O 0.02084 0.51214 0.49829 0.0
O415 O 0.03152 0.51932 0.54976 0.0
O416 O 0.95399 0.4417 0.54073 0.0
O417 O 0.96811 0.46549 0.58811 0.0
O418 O 0.05031 0.54061 0.44566 0.0
O419 O 0.03369 0.51643 0.39883 0.0
H420 H 0.00668 0.54487 0.59015 0.0
H421 H 0.93264 0.49041 0.54045 0.0
H422 H 0.05435 0.41568 0.53872 0.0
H423 H 0.06926 0.46439 0.63145 0.0
H424 H 0.95756 0.55094 0.36036 0.0
H425 H 0.92908 0.54999 0.44969 0.0
H426 H 0.08183 0.44701 0.45356 0.0
H427 H 0.02969 0.42467 0.36165 0.0
H428 H 0.98242 0.57661 0.60925 0.0
H429 H 0.90688 0.52089 0.5577 0.0
Cd430 Cd 0.4887 0.97853 0.5434 0.0
Cd431 Cd 0.51124 0.00116 0.45129 0.0
C432 C 0.54305 0.9613 0.56438 0.0
N433 N 0.52143 0.955 0.54027 0.0
C434 C 0.53524 0.9183 0.51635 0.0
C435 C 0.55774 0.92432 0.54094 0.0
C436 C 0.56167 0.94638 0.56501 0.0
C437 C 0.5175 0.93419 0.51624 0.0
H438 H 0.54549 0.97754 0.58363 0.0
H439 H 0.50049 0.92964 0.49707 0.0
C440 C 0.46281 0.95713 0.46013 0.0
C441 C 0.46007 0.02062 0.42562 0.0
C442 C 0.44252 0.03649 0.42229 0.0
C443 C 0.44613 0.05921 0.44524 0.0
C444 C 0.46704 0.06485 0.47168 0.0
C445 C 0.48397 0.04821 0.47425 0.0
N446 N 0.48041 0.02677 0.45116 0.0
H447 H 0.45796 0.00378 0.40729 0.0
H448 H 0.50027 0.05273 0.49435 0.0
C449 C 0.52413 0.94443 0.43527 0.0
N450 N 0.53404 0.96831 0.45531 0.0
C451 C 0.57385 0.95647 0.47538 0.0
C452 C 0.56433 0.93174 0.45457 0.0
C453 C 0.53891 0.92578 0.43461 0.0
C454 C 0.55835 0.97454 0.47528 0.0
H455 H 0.50516 0.94016 0.41896 0.0
H456 H 0.56605 0.99383 0.49063 0.0
C457 C 0.53716 0.02341 0.53547 0.0
C458 C 0.45642 0.94417 0.57694 0.0
N459 N 0.47041 0.01482 0.55047 0.0
C460 C 0.47897 0.03294 0.57785 0.0
C461 C 0.46714 0.05369 0.58332 0.0
C462 C 0.44602 0.05567 0.56057 0.0
C463 C 0.43775 0.03675 0.53239 0.0
C464 C 0.45029 0.01642 0.5278 0.0
C465 C 0.54284 0.02613 0.40973 0.0
O466 O 0.47772 0.97025 0.48599 0.0
O467 O 0.46944 0.96428 0.4348 0.0
O468 O 0.52271 0.01109 0.50901 0.0
O469 O 0.52963 0.01585 0.56027 0.0
O470 O 0.44789 0.94628 0.54887 0.0
O471 O 0.47976 0.95946 0.59039 0.0
O472 O 0.54759 0.03544 0.43916 0.0
O473 O 0.52294 0.00524 0.39955 0.0
H474 H 0.49467 0.03099 0.59576 0.0
H475 H 0.44372 0.00167 0.5063 0.0
H476 H 0.53146 0.9016 0.49721 0.0
H477 H 0.57835 0.95144 0.58484 0.0
H478 H 0.42697 0.03162 0.40129 0.0
H479 H 0.47037 0.08204 0.49006 0.0
H480 H 0.59313 0.96188 0.49148 0.0
H481 H 0.53092 0.90732 0.41766 0.0
H482 H 0.47389 0.06753 0.60559 0.0
H483 H 0.42175 0.03763 0.51407 0.0
H484 H 0.19173 0.16275 0.21362 0.0
H485 H 0.16738 0.12754 0.23995 0.0
H486 H 0.19358 0.18181 0.32933 0.0
H487 H 0.21777 0.21684 0.30334 0.0
H488 H 0.19933 0.12978 0.3316 0.0
H489 H 0.09586 0.1272 0.273 0.0
H490 H 0.11951 0.12272 0.24741 0.0
H491 H 0.12578 0.15425 0.27294 0.0
C492 C 0.1923 0.16706 0.23889 0.0
C493 C 0.20661 0.19247 0.25646 0.0
C494 C 0.17836 0.14701 0.25385 0.0
C495 C 0.1785 0.1522 0.28652 0.0
C496 C 0.19323 0.17741 0.30411 0.0
H497 H 0.10852 0.08481 0.43568 0.0
H498 H 0.13621 0.11015 0.40238 0.0
C499 C 0.20706 0.19739 0.28922 0.0
C500 C 0.16295 0.13176 0.30267 0.0
H501 H 0.09829 0.09881 0.31 0.0
C502 C 0.17724 0.12281 0.32673 0.0
C503 C 0.13415 0.1227 0.29618 0.0
C504 C 0.11779 0.13227 0.27115 0.0
C505 C 0.16348 0.10532 0.34485 0.0
C506 C 0.13466 0.09701 0.33912 0.0
C507 C 0.12039 0.10527 0.31436 0.0
C508 C 0.11887 0.08091 0.35952 0.0
C509 C 0.17992 0.09594 0.36999 0.0
C510 C 0.09956 0.05628 0.34636 0.0
C511 C 0.08354 0.04184 0.36529 0.0
C512 C 0.08642 0.05188 0.39769 0.0
C513 C 0.1059 0.07648 0.41084 0.0
C514 C 0.12189 0.0909 0.39189 0.0
H515 H 0.20069 0.09726 0.36499 0.0
H516 H 0.1821 0.10885 0.39316 0.0
H517 H 0.16972 0.075 0.37196 0.0
H518 H 0.09678 0.04832 0.32138 0.0
H519 H 0.06867 0.02297 0.35445 0.0
H520 H 0.81311 0.21265 0.35452 0.0
H521 H 0.84112 0.19117 0.38595 0.0
H522 H 0.88055 0.17635 0.30665 0.0
H523 H 0.85271 0.19794 0.27517 0.0
H524 H 0.84178 0.13797 0.37017 0.0
H525 H 0.94449 0.20878 0.38113 0.0
H526 H 0.91357 0.21771 0.37032 0.0
H527 H 0.92616 0.19891 0.34119 0.0
C528 C 0.82801 0.20509 0.34395 0.0
C529 C 0.83084 0.2069 0.31247 0.0
C530 C 0.84394 0.19285 0.36191 0.0
C531 C 0.86308 0.18251 0.34872 0.0
C532 C 0.86624 0.1847 0.31743 0.0
H533 H 0.96377 0.08327 0.37653 0.0
H534 H 0.93771 0.11315 0.36102 0.0
C535 C 0.85026 0.19687 0.29943 0.0
C536 C 0.87844 0.16772 0.36676 0.0
H537 H 0.94281 0.16491 0.39145 0.0
C538 C 0.86387 0.14401 0.37535 0.0
C539 C 0.9072 0.17586 0.37359 0.0
C540 C 0.9238 0.20185 0.36637 0.0
C541 C 0.87738 0.1273 0.38888 0.0
C542 C 0.90617 0.13483 0.39429 0.0
C543 C 0.92072 0.15918 0.38709 0.0
C544 C 0.92156 0.1166 0.40441 0.0
C545 C 0.86079 0.10112 0.39569 0.0
C546 C 0.92109 0.10866 0.43402 0.0
C547 C 0.93573 0.0912 0.44279 0.0
C548 C 0.95112 0.08158 0.42216 0.0
C549 C 0.95166 0.08984 0.39269 0.0
C550 C 0.93702 0.10715 0.38392 0.0
H551 H 0.83893 0.09619 0.38491 0.0
H552 H 0.86878 0.08455 0.38668 0.0
H553 H 0.86222 0.10234 0.42165 0.0
H554 H 0.90955 0.11603 0.45034 0.0
H555 H 0.9349 0.08509 0.46555 0.0
H556 H 0.82473 0.83696 0.28636 0.0
H557 H 0.84092 0.86679 0.33779 0.0
H558 H 0.79821 0.8044 0.3833 0.0
H559 H 0.78326 0.77428 0.33213 0.0
H560 H 0.81099 0.88364 0.38605 0.0
H561 H 0.87853 0.82315 0.42608 0.0
H562 H 0.86315 0.81777 0.38499 0.0
H563 H 0.84244 0.80785 0.41382 0.0
C564 C 0.81887 0.82977 0.30741 0.0
C565 C 0.80249 0.80368 0.30555 0.0
C566 C 0.82773 0.84677 0.33658 0.0
C567 C 0.8204 0.83777 0.36414 0.0
C568 C 0.80387 0.81169 0.36223 0.0
H569 H 0.95502 0.94073 0.4987 0.0
H570 H 0.90833 0.91164 0.49103 0.0
C571 C 0.79525 0.79461 0.33304 0.0
C572 C 0.83301 0.85518 0.39475 0.0
H573 H 0.89221 0.86868 0.44669 0.0
C574 C 0.82818 0.88016 0.40031 0.0
C575 C 0.85479 0.85021 0.41394 0.0
C576 C 0.8602 0.82334 0.40962 0.0
C577 C 0.84719 0.90157 0.42112 0.0
C578 C 0.87146 0.89766 0.43591 0.0
C579 C 0.87378 0.87168 0.43466 0.0
C580 C 0.89697 0.91966 0.44424 0.0
C581 C 0.84249 0.92871 0.42456 0.0
C582 C 0.90603 0.93372 0.4205 0.0
C583 C 0.93262 0.95023 0.42497 0.0
C584 C 0.95055 0.95287 0.4532 0.0
C585 C 0.94133 0.93936 0.47716 0.0
C586 C 0.9147 0.92285 0.4728 0.0
H587 H 0.82059 0.92682 0.42453 0.0
H588 H 0.85478 0.942 0.44668 0.0
H589 H 0.84816 0.93813 0.40407 0.0
H590 H 0.89301 0.93078 0.39778 0.0
H591 H 0.93927 0.96062 0.4062 0.0
H592 H 0.25412 0.83474 0.35173 0.0
H593 H 0.23739 0.85589 0.39583 0.0
H594 H 0.1546 0.81486 0.34988 0.0
H595 H 0.17113 0.79351 0.30629 0.0
H596 H 0.20535 0.88909 0.39268 0.0
H597 H 0.1526 0.8009 0.43925 0.0
H598 H 0.17697 0.79971 0.4133 0.0
H599 H 0.14199 0.79633 0.39729 0.0
C600 C 0.23237 0.83023 0.35121 0.0
C601 C 0.21386 0.8126 0.32566 0.0
C602 C 0.22287 0.84215 0.37644 0.0
C603 C 0.19477 0.83643 0.37649 0.0
C604 C 0.17636 0.81892 0.35083 0.0
H605 H 0.07319 0.89518 0.42511 0.0
H606 H 0.10328 0.86839 0.41291 0.0
C607 C 0.18581 0.80699 0.32574 0.0
C608 C 0.18422 0.85048 0.40159 0.0
H609 H 0.13533 0.83959 0.44785 0.0
C610 C 0.19065 0.8784 0.40553 0.0
C611 C 0.16524 0.83648 0.41854 0.0
C612 C 0.15905 0.80671 0.41713 0.0
C613 C 0.17667 0.89244 0.42357 0.0
C614 C 0.156 0.87812 0.43828 0.0
C615 C 0.1511 0.85047 0.4364 0.0
C616 C 0.13642 0.89083 0.45074 0.0
C617 C 0.18258 0.92218 0.42466 0.0
C618 C 0.14466 0.91154 0.47707 0.0
C619 C 0.12737 0.92695 0.48427 0.0
C620 C 0.10158 0.92181 0.46527 0.0
C621 C 0.09271 0.89963 0.4405 0.0
C622 C 0.10996 0.8843 0.43337 0.0
H623 H 0.19738 0.92978 0.40932 0.0
H624 H 0.16349 0.92725 0.41708 0.0
H625 H 0.19115 0.93277 0.4493 0.0
H626 H 0.16491 0.91661 0.49102 0.0
H627 H 0.13466 0.9436 0.50384 0.0
H628 H 0.16128 0.77847 0.67605 0.0
H629 H 0.13785 0.80108 0.6409 0.0
H630 H 0.21379 0.86121 0.64419 0.0
H631 H 0.23747 0.83842 0.67918 0.0
H632 H 0.13737 0.85385 0.65991 0.0
H633 H 0.17939 0.84271 0.54895 0.0
H634 H 0.1816 0.82149 0.57806 0.0
H635 H 0.20398 0.85494 0.58499 0.0
C636 C 0.17303 0.79634 0.66897 0.0
C637 C 0.2011 0.80687 0.68042 0.0
C638 C 0.15966 0.80914 0.64882 0.0
C639 C 0.17416 0.83261 0.6397 0.0
C640 C 0.20236 0.84282 0.65047 0.0
H641 H 0.11562 0.95226 0.55714 0.0
H642 H 0.14489 0.92562 0.57527 0.0
C643 C 0.21579 0.82996 0.67064 0.0
C644 C 0.15912 0.8478 0.6219 0.0
H645 H 0.15023 0.87058 0.5522 0.0
C646 C 0.14011 0.85741 0.63632 0.0
C647 C 0.16305 0.85263 0.59131 0.0
C648 C 0.18296 0.84227 0.5747 0.0
C649 C 0.12478 0.8717 0.62096 0.0
C650 C 0.12823 0.87607 0.59011 0.0
C651 C 0.14758 0.86692 0.57577 0.0
C652 C 0.11154 0.89011 0.57283 0.0
C653 C 0.10513 0.88223 0.63798 0.0
C654 C 0.08333 0.87848 0.56421 0.0
C655 C 0.06656 0.89367 0.55435 0.0
C656 C 0.0778 0.92075 0.55275 0.0
C657 C 0.10632 0.93165 0.55888 0.0
C658 C 0.12309 0.91642 0.56888 0.0
H659 H 0.10928 0.88229 0.66382 0.0
H660 H 0.10616 0.90286 0.63426 0.0
H661 H 0.08406 0.86933 0.62844 0.0
H662 H 0.07415 0.8581 0.567 0.0
H663 H 0.04473 0.88462 0.55002 0.0
H664 H 0.24573 0.19139 0.6942 0.0
H665 H 0.2297 0.16802 0.63964 0.0
H666 H 0.15832 0.19602 0.63656 0.0
H667 H 0.1763 0.22217 0.68956 0.0
H668 H 0.19088 0.12934 0.62178 0.0
H669 H 0.16706 0.19969 0.54917 0.0
H670 H 0.18851 0.21131 0.58771 0.0
H671 H 0.15192 0.20469 0.58332 0.0
C672 C 0.22729 0.19352 0.68116 0.0
C673 C 0.21267 0.20918 0.69543 0.0
C674 C 0.21802 0.18002 0.65011 0.0
C675 C 0.19319 0.18088 0.63337 0.0
C676 C 0.17821 0.19608 0.64813 0.0
H677 H 0.05398 0.08557 0.57493 0.0
H678 H 0.09566 0.12264 0.58287 0.0
C679 C 0.18808 0.21044 0.67877 0.0
C680 C 0.1803 0.16204 0.60341 0.0
H681 H 0.13087 0.1545 0.53973 0.0
C682 C 0.17882 0.13503 0.60295 0.0
C683 C 0.16504 0.16923 0.57818 0.0
C684 C 0.16859 0.19792 0.57456 0.0
C685 C 0.15931 0.11495 0.58105 0.0
C686 C 0.14074 0.12223 0.55955 0.0
C687 C 0.14484 0.14911 0.55684 0.0
C688 C 0.1136 0.10345 0.5476 0.0
C689 C 0.15632 0.08612 0.58385 0.0
C690 C 0.10978 0.0809 0.52454 0.0
C691 C 0.0861 0.05966 0.52032 0.0
C692 C 0.06619 0.06085 0.53898 0.0
C693 C 0.06927 0.08416 0.56052 0.0
C694 C 0.09281 0.10542 0.56467 0.0
H695 H 0.17307 0.08392 0.60122 0.0
H696 H 0.13666 0.0773 0.59133 0.0
H697 H 0.1562 0.07447 0.56052 0.0
H698 H 0.12581 0.07901 0.51149 0.0
H699 H 0.0841 0.04165 0.50402 0.0
H700 H 0.76918 0.14513 0.66103 0.0
H701 H 0.78924 0.12155 0.62222 0.0
H702 H 0.85603 0.19298 0.63111 0.0
H703 H 0.8366 0.21626 0.67022 0.0
H704 H 0.80585 0.1321 0.56339 0.0
H705 H 0.89302 0.13737 0.65628 0.0
H706 H 0.86241 0.14444 0.66545 0.0
H707 H 0.88807 0.16934 0.65295 0.0
C708 C 0.7881 0.15572 0.65457 0.0
C709 C 0.80166 0.1823 0.66898 0.0
C710 C 0.79943 0.14233 0.63234 0.0
C711 C 0.82433 0.15544 0.62427 0.0
C712 C 0.83708 0.18238 0.63751 0.0
H713 H 0.94303 0.10941 0.52652 0.0
H714 H 0.91296 0.13477 0.54452 0.0
C715 C 0.82596 0.19563 0.65984 0.0
C716 C 0.83811 0.14076 0.60367 0.0
H717 H 0.89669 0.12286 0.60343 0.0
C718 C 0.82566 0.12996 0.57207 0.0
C719 C 0.86387 0.13788 0.61521 0.0
C720 C 0.87753 0.14763 0.6494 0.0
C721 C 0.83873 0.11684 0.55149 0.0
C722 C 0.86471 0.11453 0.56298 0.0
C723 C 0.87694 0.12512 0.59459 0.0
C724 C 0.87932 0.09987 0.54364 0.0
C725 C 0.82498 0.10583 0.51761 0.0
C726 C 0.86985 0.07193 0.53589 0.0
C727 C 0.88705 0.05738 0.52583 0.0
C728 C 0.91403 0.0706 0.52361 0.0
C729 C 0.9225 0.09868 0.52852 0.0
C730 C 0.90531 0.11319 0.53859 0.0
H731 H 0.80775 0.11394 0.51072 0.0
H732 H 0.8398 0.11047 0.50138 0.0
H733 H 0.81691 0.08377 0.51453 0.0
H734 H 0.85002 0.06128 0.54014 0.0
H735 H 0.87996 0.03579 0.52255 0.0
H736 H 0.79955 0.78924 0.68971 0.0
H737 H 0.8259 0.824 0.66477 0.0
H738 H 0.85744 0.87482 0.75602 0.0
H739 H 0.83095 0.84007 0.7812 0.0
H740 H 0.82564 0.87973 0.66816 0.0
H741 H 0.92595 0.86811 0.7179 0.0
H742 H 0.89419 0.84295 0.71666 0.0
H743 H 0.90391 0.87315 0.74541 0.0
C744 C 0.81192 0.8079 0.70444 0.0
C745 C 0.81329 0.81197 0.73739 0.0
C746 C 0.82695 0.82771 0.69017 0.0
C747 C 0.8438 0.85181 0.70861 0.0
C748 C 0.84479 0.85619 0.74146 0.0
H749 H 0.96328 0.97753 0.6464 0.0
H750 H 0.93448 0.95224 0.67905 0.0
C751 C 0.82962 0.8364 0.75577 0.0
C752 C 0.86071 0.87199 0.69329 0.0
H753 H 0.92628 0.89979 0.68454 0.0
C754 C 0.84766 0.8843 0.67187 0.0
C755 C 0.88941 0.87795 0.69836 0.0
C756 C 0.90433 0.86479 0.72065 0.0
C757 C 0.86257 0.90223 0.65503 0.0
C758 C 0.89122 0.90745 0.65921 0.0
C759 C 0.90432 0.89574 0.68135 0.0
C760 C 0.90781 0.92366 0.63949 0.0
C761 C 0.84748 0.91542 0.63297 0.0
C762 C 0.90251 0.91583 0.60649 0.0
C763 C 0.91881 0.93023 0.58784 0.0
C764 C 0.94097 0.95261 0.60184 0.0
C765 C 0.94631 0.96042 0.63492 0.0
C766 C 0.9299 0.94601 0.65359 0.0
H767 H 0.82784 0.9163 0.64003 0.0
H768 H 0.85986 0.93602 0.63238 0.0
H769 H 0.84285 0.90359 0.6087 0.0
H770 H 0.88604 0.89824 0.59515 0.0
H771 H 0.91425 0.92356 0.56244 0.0
H772 H 0.30107 0.22013 0.15617 0.0
H773 H 0.32956 0.1946 0.13358 0.0
H774 H 0.3347 0.15833 0.21668 0.0
H775 H 0.30642 0.18353 0.23931 0.0
H776 H 0.38407 0.19542 0.16122 0.0
H777 H 0.31147 0.09392 0.14297 0.0
H778 H 0.30081 0.12389 0.14849 0.0
H779 H 0.3164 0.11307 0.18192 0.0
C780 C 0.30799 0.20648 0.16948 0.0
C781 C 0.30129 0.2039 0.19957 0.0
C782 C 0.32439 0.19197 0.15658 0.0
C783 C 0.33409 0.17428 0.17325 0.0
C784 C 0.32718 0.17149 0.20309 0.0
H785 H 0.43476 0.06775 0.14855 0.0
H786 H 0.40565 0.0941 0.16659 0.0
C787 C 0.31103 0.18608 0.21608 0.0
C788 C 0.3522 0.15938 0.16021 0.0
H789 H 0.35723 0.09639 0.1383 0.0
C790 C 0.37813 0.17377 0.1559 0.0
C791 C 0.34457 0.13111 0.1535 0.0
C792 C 0.31672 0.11452 0.15666 0.0
C793 C 0.39688 0.16071 0.14603 0.0
C794 C 0.38931 0.13239 0.13944 0.0
C795 C 0.3632 0.11804 0.14337 0.0
C796 C 0.40815 0.11716 0.12885 0.0
C797 C 0.42498 0.17746 0.14392 0.0
C798 C 0.41944 0.12115 0.10151 0.0
C799 C 0.43654 0.10634 0.09134 0.0
C800 C 0.4426 0.08683 0.108 0.0
C801 C 0.43116 0.08287 0.13535 0.0
C802 C 0.41419 0.09779 0.14557 0.0
H803 H 0.43014 0.19775 0.15841 0.0
H804 H 0.44074 0.16786 0.15188 0.0
H805 H 0.42575 0.17982 0.11898 0.0
H806 H 0.41472 0.13548 0.08767 0.0
H807 H 0.44501 0.11023 0.07035 0.0
H808 H 0.8419 0.30261 0.22929 0.0
H809 H 0.87145 0.34325 0.21757 0.0
H810 H 0.8085 0.38223 0.22558 0.0
H811 H 0.77836 0.34106 0.23566 0.0
H812 H 0.8252 0.38836 0.17412 0.0
H813 H 0.91706 0.41368 0.26535 0.0
H814 H 0.90988 0.37946 0.24721 0.0
H815 H 0.88577 0.38975 0.26872 0.0
C816 C 0.83456 0.31999 0.22897 0.0
C817 C 0.80786 0.31872 0.233 0.0
C818 C 0.85158 0.34334 0.22272 0.0
C819 C 0.84242 0.36602 0.22138 0.0
C820 C 0.81604 0.36503 0.22669 0.0
H821 H 0.9607 0.49264 0.15736 0.0
H822 H 0.93027 0.47225 0.19174 0.0
C823 C 0.79881 0.34149 0.23222 0.0
C824 C 0.85888 0.38912 0.20989 0.0
H825 H 0.92457 0.42597 0.21355 0.0
C826 C 0.84678 0.39711 0.18336 0.0
C827 C 0.88688 0.40118 0.22231 0.0
C828 C 0.90048 0.39574 0.25272 0.0
C829 C 0.86243 0.41489 0.16718 0.0
C830 C 0.89097 0.4241 0.17718 0.0
C831 C 0.90272 0.41826 0.20544 0.0
C832 C 0.90904 0.43698 0.1567 0.0
C833 C 0.84832 0.4228 0.13881 0.0
C834 C 0.90748 0.42356 0.12601 0.0
C835 C 0.92457 0.43513 0.10637 0.0
C836 C 0.94388 0.46014 0.11733 0.0
C837 C 0.94593 0.47333 0.14835 0.0
C838 C 0.92858 0.46179 0.16795 0.0
H839 H 0.82731 0.42291 0.14154 0.0
H840 H 0.85969 0.44287 0.13507 0.0
H841 H 0.84669 0.40798 0.11738 0.0
H842 H 0.89313 0.40397 0.11727 0.0
H843 H 0.92274 0.42439 0.08269 0.0
H844 H 0.73012 0.79785 0.16026 0.0
H845 H 0.70626 0.82717 0.13677 0.0
H846 H 0.6637 0.82989 0.21546 0.0
H847 H 0.68734 0.80121 0.23908 0.0
H848 H 0.65054 0.82143 0.1182 0.0
H849 H 0.69603 0.90878 0.21438 0.0
H850 H 0.7094 0.88048 0.20992 0.0
H851 H 0.6802 0.87912 0.22869 0.0
C852 C 0.7157 0.80471 0.17258 0.0
C853 C 0.71101 0.79725 0.20183 0.0
C854 C 0.70205 0.8215 0.1591 0.0
C855 C 0.68355 0.83132 0.17464 0.0
C856 C 0.67835 0.82328 0.20333 0.0
H857 H 0.5728 0.92699 0.14759 0.0
H858 H 0.60074 0.89925 0.16556 0.0
C859 C 0.6919 0.80663 0.21676 0.0
C860 C 0.66931 0.8497 0.1611 0.0
H861 H 0.6569 0.91005 0.17917 0.0
C862 C 0.65219 0.84094 0.13135 0.0
C863 C 0.67136 0.87524 0.17817 0.0
C864 C 0.69045 0.88661 0.20941 0.0
C865 C 0.63634 0.85647 0.1189 0.0
C866 C 0.63789 0.88171 0.13638 0.0
C867 C 0.65548 0.89069 0.16578 0.0
C868 C 0.62102 0.89886 0.12507 0.0
C869 C 0.61727 0.84523 0.08764 0.0
C870 C 0.62327 0.9084 0.09649 0.0
C871 C 0.60738 0.92451 0.08618 0.0
C872 C 0.58888 0.93167 0.10427 0.0
C873 C 0.58698 0.92232 0.13311 0.0
C874 C 0.60288 0.90624 0.14338 0.0
H875 H 0.61347 0.8233 0.08108 0.0
H876 H 0.59743 0.84945 0.08829 0.0
H877 H 0.62647 0.85475 0.06882 0.0
H878 H 0.63755 0.90362 0.08224 0.0
H879 H 0.60989 0.93164 0.06418 0.0
H880 H 0.164 0.73242 0.16811 0.0
H881 H 0.14319 0.70201 0.11791 0.0
H882 H 0.22299 0.70171 0.09919 0.0
H883 H 0.24361 0.7311 0.15017 0.0
H884 H 0.14486 0.69757 0.05454 0.0
H885 H 0.19202 0.62536 0.10612 0.0
H886 H 0.19443 0.65715 0.12923 0.0
H887 H 0.21414 0.65536 0.09825 0.0
C888 C 0.177 0.72615 0.15294 0.0
C889 C 0.20518 0.73319 0.16314 0.0
C890 C 0.1652 0.70896 0.12422 0.0
C891 C 0.18153 0.69902 0.10519 0.0
C892 C 0.20998 0.70845 0.11394 0.0
H893 H 0.08549 0.53904 0.01347 0.0
H894 H 0.12279 0.5792 0.01277 0.0
C895 C 0.22171 0.72512 0.14306 0.0
C896 C 0.16822 0.67593 0.07945 0.0
H897 H 0.15371 0.60812 0.06725 0.0
C898 C 0.1473 0.67805 0.0566 0.0
C899 C 0.17184 0.65048 0.08155 0.0
C900 C 0.1942 0.64674 0.10513 0.0
C901 C 0.12785 0.65516 0.03874 0.0
C902 C 0.12936 0.62978 0.04427 0.0
C903 C 0.15244 0.62771 0.0635 0.0
C904 C 0.10487 0.6065 0.03792 0.0
C905 C 0.10464 0.65832 0.01605 0.0
C906 C 0.08266 0.60861 0.05242 0.0
C907 C 0.06185 0.58588 0.05328 0.0
C908 C 0.06284 0.56072 0.03949 0.0
C909 C 0.08448 0.55846 0.02409 0.0
C910 C 0.10554 0.58129 0.02345 0.0
H911 H 0.1115 0.67627 0.00512 0.0
H912 H 0.09593 0.64047 0.99709 0.0
H913 H 0.08834 0.66118 0.02917 0.0
H914 H 0.08218 0.62768 0.06478 0.0
H915 H 0.04525 0.58789 0.06529 0.0
H916 H 0.30322 0.77057 0.83571 0.0
H917 H 0.3354 0.79135 0.88497 0.0
H918 H 0.30995 0.86291 0.88475 0.0
H919 H 0.27684 0.84148 0.83662 0.0
H920 H 0.37678 0.8299 0.88884 0.0
H921 H 0.32115 0.86441 0.97659 0.0
H922 H 0.30364 0.84019 0.94151 0.0
H923 H 0.31108 0.87559 0.94097 0.0
C924 C 0.30418 0.7905 0.84666 0.0
C925 C 0.28792 0.80458 0.8323 0.0
C926 C 0.32241 0.80232 0.8749 0.0
C927 C 0.32497 0.82864 0.88901 0.0
C928 C 0.30784 0.8423 0.87515 0.0
H929 H 0.43828 0.96501 0.93113 0.0
H930 H 0.39888 0.92567 0.92382 0.0
C931 C 0.28918 0.83021 0.84731 0.0
C932 C 0.34851 0.84352 0.91432 0.0
H933 H 0.3673 0.89558 0.97651 0.0
C934 C 0.37463 0.84342 0.90883 0.0
C935 C 0.346 0.86096 0.94085 0.0
C936 C 0.31887 0.85999 0.95043 0.0
C937 C 0.39797 0.86248 0.92657 0.0
C938 C 0.39503 0.88224 0.95005 0.0
C939 C 0.36935 0.88055 0.95808 0.0
C940 C 0.41676 0.90771 0.95993 0.0
C941 C 0.42539 0.86323 0.91784 0.0
C942 C 0.43955 0.91071 0.98315 0.0
C943 C 0.46214 0.93333 0.98743 0.0
C944 C 0.46202 0.95282 0.96832 0.0
C945 C 0.43877 0.95014 0.94603 0.0
C946 C 0.41623 0.92787 0.94207 0.0
H947 H 0.4246 0.84498 0.9012 0.0
H948 H 0.43263 0.88088 0.90654 0.0
H949 H 0.44053 0.86528 0.93943 0.0
H950 H 0.4403 0.89512 0.99685 0.0
H951 H 0.48003 0.93506 0.00465 0.0
H952 H 0.24218 0.33081 0.86146 0.0
H953 H 0.21459 0.35375 0.8894 0.0
H954 H 0.1495 0.28011 0.87325 0.0
H955 H 0.17727 0.25692 0.84521 0.0
H956 H 0.13417 0.32284 0.85145 0.0
H957 H 0.189 0.35419 0.97533 0.0
H958 H 0.21084 0.36199 0.94691 0.0
H959 H 0.19427 0.32764 0.94822 0.0
C960 C 0.22227 0.31932 0.86461 0.0
C961 C 0.21186 0.29207 0.8512 0.0
C962 C 0.20655 0.33245 0.88073 0.0
C963 C 0.18003 0.31865 0.88369 0.0
C964 C 0.16999 0.29112 0.87147 0.0
H965 H 0.07361 0.4021 0.97113 0.0
H966 H 0.09827 0.36924 0.95874 0.0
C967 C 0.18589 0.27786 0.85559 0.0
C968 C 0.16195 0.33378 0.89596 0.0
H969 H 0.15789 0.3785 0.95865 0.0
C970 C 0.13911 0.33465 0.87508 0.0
C971 C 0.16827 0.34911 0.92684 0.0
C972 C 0.19178 0.34804 0.95075 0.0
C973 C 0.12331 0.35144 0.88366 0.0
C974 C 0.1306 0.36796 0.91383 0.0
C975 C 0.15253 0.36607 0.93537 0.0
C976 C 0.11653 0.3883 0.92255 0.0
C977 C 0.09919 0.35181 0.86011 0.0
C978 C 0.11909 0.41018 0.9068 0.0
C979 C 0.10524 0.42902 0.91395 0.0
C980 C 0.08839 0.42632 0.93693 0.0
C981 C 0.08621 0.40459 0.95308 0.0
C982 C 0.10035 0.38587 0.94613 0.0
H983 H 0.09238 0.33369 0.84137 0.0
H984 H 0.08184 0.35326 0.87208 0.0
H985 H 0.105 0.36954 0.84857 0.0
H986 H 0.13169 0.41257 0.88874 0.0
H987 H 0.10722 0.44537 0.90092 0.0
H988 H 0.77485 0.1682 0.81033 0.0
H989 H 0.76671 0.13908 0.84993 0.0
H990 H 0.70776 0.1772 0.87961 0.0
H991 H 0.71684 0.20692 0.84174 0.0
H992 H 0.73582 0.16522 0.92945 0.0
H993 H 0.70035 0.0766 0.83167 0.0
H994 H 0.73535 0.09635 0.83851 0.0
H995 H 0.70896 0.10996 0.82308 0.0
C996 C 0.76031 0.17034 0.82555 0.0
C997 C 0.74611 0.18944 0.82269 0.0
C998 C 0.75572 0.15378 0.84815 0.0
C999 C 0.7363 0.15565 0.86741 0.0
C1000 C 0.72299 0.17546 0.86522 0.0
H1001 H 0.59596 0.07978 0.89381 0.0
H1002 H 0.64128 0.10142 0.88454 0.0
C1003 C 0.72799 0.1923 0.84331 0.0
C1004 C 0.72673 0.13548 0.8872 0.0
H1005 H 0.68212 0.07332 0.87737 0.0
C1006 C 0.7248 0.14476 0.91855 0.0
C1007 C 0.71288 0.10862 0.87311 0.0
C1008 C 0.71432 0.09716 0.83976 0.0
C1009 C 0.70594 0.12939 0.93412 0.0
C1010 C 0.68941 0.10403 0.91808 0.0
C1011 C 0.69467 0.09309 0.88913 0.0
C1012 C 0.66256 0.09196 0.92598 0.0
C1013 C 0.70151 0.14147 0.96584 0.0
C1014 C 0.65964 0.08014 0.95287 0.0
C1015 C 0.63358 0.06791 0.9584 0.0
C1016 C 0.61031 0.06723 0.93692 0.0
C1017 C 0.61346 0.07979 0.9106 0.0
C1018 C 0.63934 0.09207 0.90524 0.0
H1019 H 0.71628 0.16146 0.97525 0.0
H1020 H 0.68055 0.14348 0.96378 0.0
H1021 H 0.70355 0.12811 0.98316 0.0
H1022 H 0.67738 0.07991 0.9691 0.0
H1023 H 0.63167 0.05847 0.97902 0.0
H1024 H 0.84533 0.74248 0.85817 0.0
H1025 H 0.86826 0.71507 0.88643 0.0
H1026 H 0.79181 0.6535 0.874 0.0
H1027 H 0.76896 0.68049 0.84481 0.0
H1028 H 0.86364 0.69071 0.93874 0.0
H1029 H 0.83751 0.61489 0.82871 0.0
H1030 H 0.83209 0.64728 0.82937 0.0
H1031 H 0.8086 0.62137 0.84322 0.0
C1032 C 0.83334 0.72329 0.86194 0.0
C1033 C 0.80544 0.71346 0.84897 0.0
C1034 C 0.84646 0.70764 0.87812 0.0
C1035 C 0.8319 0.68195 0.88173 0.0
C1036 C 0.80361 0.67297 0.87084 0.0
H1037 H 0.91422 0.58188 0.98392 0.0
H1038 H 0.88452 0.60981 0.97117 0.0
C1039 C 0.79054 0.68848 0.85434 0.0
C1040 C 0.84676 0.66387 0.89435 0.0
H1041 H 0.86185 0.60549 0.87329 0.0
C1042 C 0.86318 0.672 0.92455 0.0
C1043 C 0.84636 0.63957 0.87566 0.0
C1044 C 0.83042 0.6303 0.84234 0.0
C1045 C 0.87958 0.65674 0.93631 0.0
C1046 C 0.87918 0.63246 0.91752 0.0
C1047 C 0.86218 0.62407 0.88772 0.0
C1048 C 0.89772 0.61636 0.92674 0.0
C1049 C 0.89796 0.66734 0.96812 0.0
C1050 C 0.9147 0.6103 0.90594 0.0
C1051 C 0.93117 0.59403 0.91293 0.0
C1052 C 0.93126 0.58353 0.94103 0.0
C1053 C 0.91469 0.58993 0.96224 0.0
C1054 C 0.89783 0.60599 0.95502 0.0
H1055 H 0.90079 0.689 0.97585 0.0
H1056 H 0.8887 0.65658 0.98607 0.0
H1057 H 0.91827 0.66418 0.9676 0.0
H1058 H 0.91513 0.6181 0.88406 0.0
H1059 H 0.94399 0.58974 0.89633 0.0
H1060 H 0.24566 0.32794 0.15458 0.0
H1061 H 0.22093 0.35537 0.12892 0.0
H1062 H 0.14657 0.29062 0.11282 0.0
H1063 H 0.17136 0.26288 0.13765 0.0
H1064 H 0.15003 0.31884 0.06306 0.0
H1065 H 0.17269 0.38766 0.1784 0.0
H1066 H 0.20229 0.38385 0.16324 0.0
H1067 H 0.17958 0.35578 0.17454 0.0
C1068 C 0.22415 0.31938 0.14496 0.0
C1069 C 0.21037 0.29337 0.14836 0.0
C1070 C 0.21 0.33513 0.1305 0.0
C1071 C 0.18174 0.3253 0.11963 0.0
C1072 C 0.16832 0.29871 0.12117 0.0
H1073 H 0.06456 0.41299 0.11332 0.0
H1074 H 0.09424 0.38491 0.12312 0.0
C1075 C 0.18252 0.28286 0.13537 0.0
C1076 C 0.16576 0.34325 0.10917 0.0
H1077 H 0.14793 0.39905 0.13557 0.0
C1078 C 0.14963 0.33646 0.07882 0.0
C1079 C 0.16499 0.36607 0.1299 0.0
C1080 C 0.18059 0.37371 0.16343 0.0
C1081 C 0.13255 0.3517 0.06878 0.0
C1082 C 0.1319 0.37459 0.08953 0.0
C1083 C 0.14844 0.38157 0.11962 0.0
C1084 C 0.11292 0.39062 0.0818 0.0
C1085 C 0.11465 0.34256 0.03654 0.0
C1086 C 0.11328 0.40317 0.05512 0.0
C1087 C 0.09605 0.41918 0.04933 0.0
C1088 C 0.07852 0.42329 0.07042 0.0
C1089 C 0.0781 0.41055 0.09689 0.0
C1090 C 0.09503 0.3944 0.10245 0.0
H1091 H 0.11247 0.32133 0.02701 0.0
H1092 H 0.09405 0.3449 0.03735 0.0
H1093 H 0.12393 0.3549 0.01983 0.0
H1094 H 0.12728 0.4011 0.03916 0.0
H1095 H 0.09697 0.42893 0.02888 0.0
H1096 H 0.21868 0.73254 0.85876 0.0
H1097 H 0.18185 0.70848 0.88291 0.0
H1098 H 0.1227 0.71442 0.8062 0.0
H1099 H 0.15941 0.73847 0.7816 0.0
H1100 H 0.12722 0.71403 0.89777 0.0
H1101 H 0.12391 0.63346 0.79842 0.0
H1102 H 0.15233 0.66334 0.80989 0.0
H1103 H 0.12052 0.66475 0.78904 0.0
C1104 C 0.19784 0.72943 0.84742 0.0
C1105 C 0.19193 0.73671 0.81784 0.0
C1106 C 0.17683 0.71587 0.86141 0.0
C1107 C 0.14975 0.70945 0.84599 0.0
C1108 C 0.1436 0.71918 0.81824 0.0
H1109 H 0.03183 0.56598 0.87484 0.0
H1110 H 0.05174 0.60608 0.85375 0.0
C1111 C 0.16461 0.73284 0.80423 0.0
C1112 C 0.12913 0.68842 0.85565 0.0
H1113 H 0.09945 0.62116 0.83807 0.0
C1114 C 0.12062 0.69378 0.88453 0.0
C1115 C 0.12075 0.66212 0.83818 0.0
C1116 C 0.12986 0.65534 0.80722 0.0
C1117 C 0.10443 0.67316 0.89694 0.0
C1118 C 0.09742 0.64658 0.88036 0.0
C1119 C 0.1049 0.64154 0.85075 0.0
C1120 C 0.08428 0.62335 0.89411 0.0
C1121 C 0.09543 0.68007 0.92786 0.0
C1122 C 0.0963 0.61957 0.92348 0.0
C1123 C 0.08488 0.59682 0.93561 0.0
C1124 C 0.06164 0.5772 0.91823 0.0
C1125 C 0.04993 0.5807 0.88856 0.0
C1126 C 0.06112 0.60367 0.87664 0.0
H1127 H 0.09326 0.7006 0.93098 0.0
H1128 H 0.07575 0.66582 0.9295 0.0
H1129 H 0.11116 0.6795 0.94762 0.0
H1130 H 0.11474 0.63401 0.93685 0.0
H1131 H 0.09435 0.59454 0.95852 0.0
H1132 H 0.29811 0.21799 0.84571 0.0
H1133 H 0.32667 0.19278 0.87006 0.0
H1134 H 0.34392 0.1664 0.77872 0.0
H1135 H 0.31571 0.19105 0.75435 0.0
H1136 H 0.32387 0.13502 0.85431 0.0
H1137 H 0.42024 0.20298 0.8353 0.0
H1138 H 0.38916 0.21252 0.83435 0.0
H1139 H 0.39388 0.19129 0.80086 0.0
C1140 C 0.30777 0.20662 0.83077 0.0
C1141 C 0.30454 0.20677 0.79799 0.0
C1142 C 0.32416 0.19225 0.84475 0.0
C1143 C 0.33784 0.17799 0.8263 0.0
C1144 C 0.33401 0.17756 0.79358 0.0
H1145 H 0.45416 0.08702 0.84758 0.0
H1146 H 0.42276 0.1116 0.82988 0.0
C1147 C 0.31766 0.1917 0.77965 0.0
C1148 C 0.35644 0.16371 0.84077 0.0
H1149 H 0.42259 0.16183 0.85006 0.0
C1150 C 0.34552 0.14103 0.85375 0.0
C1151 C 0.38468 0.17138 0.83983 0.0
C1152 C 0.39783 0.196 0.82709 0.0
C1153 C 0.36183 0.12535 0.86475 0.0
C1154 C 0.39008 0.13286 0.86348 0.0
C1155 C 0.40102 0.15586 0.85101 0.0
C1156 C 0.40863 0.11702 0.87438 0.0
C1157 C 0.34835 0.10027 0.87643 0.0
C1158 C 0.41151 0.11182 0.90544 0.0
C1159 C 0.42927 0.09738 0.91558 0.0
C1160 C 0.44499 0.08796 0.89507 0.0
C1161 C 0.44219 0.09341 0.86402 0.0
C1162 C 0.42433 0.10775 0.85388 0.0
H1163 H 0.32603 0.09328 0.86748 0.0
H1164 H 0.35718 0.0839 0.8691 0.0
H1165 H 0.35153 0.10444 0.90265 0.0
H1166 H 0.40022 0.11918 0.92208 0.0
H1167 H 0.43049 0.09348 0.93953 0.0
H1168 H 0.82306 0.24317 0.84378 0.0
H1169 H 0.84239 0.27206 0.89561 0.0
H1170 H 0.82377 0.3382 0.85811 0.0
H1171 H 0.8042 0.30947 0.80699 0.0
H1172 H 0.88516 0.31317 0.90696 0.0
H1173 H 0.80243 0.35041 0.94233 0.0
H1174 H 0.7959 0.32139 0.91187 0.0
H1175 H 0.8038 0.35456 0.90225 0.0
C1176 C 0.82289 0.26383 0.84692 0.0
C1177 C 0.81219 0.27424 0.82164 0.0
C1178 C 0.83363 0.28019 0.87651 0.0
C1179 C 0.8338 0.3071 0.88106 0.0
C1180 C 0.82286 0.31727 0.85568 0.0
H1181 H 0.92485 0.4528 0.92312 0.0
H1182 H 0.88871 0.41068 0.91487 0.0
C1183 C 0.81201 0.30096 0.82631 0.0
C1184 C 0.84923 0.32591 0.91017 0.0
H1185 H 0.8487 0.38429 0.95407 0.0
C1186 C 0.877 0.32812 0.91839 0.0
C1187 C 0.8385 0.34515 0.92553 0.0
C1188 C 0.80842 0.34248 0.92019 0.0
C1189 C 0.89496 0.35103 0.93796 0.0
C1190 C 0.88469 0.37201 0.94953 0.0
C1191 C 0.8565 0.36826 0.94476 0.0
C1192 C 0.90297 0.39947 0.95886 0.0
C1193 C 0.92513 0.35398 0.94304 0.0
C1194 C 0.9224 0.40735 0.9868 0.0
C1195 C 0.94314 0.43146 0.99149 0.0
C1196 C 0.94458 0.44773 0.96826 0.0
C1197 C 0.9242 0.44047 0.94126 0.0
C1198 C 0.90346 0.41659 0.93669 0.0
H1199 H 0.92972 0.33579 0.93209 0.0
H1200 H 0.93589 0.37117 0.93281 0.0
H1201 H 0.93341 0.35806 0.96875 0.0
H1202 H 0.92234 0.39427 0.00405 0.0
H1203 H 0.95898 0.4365 0.01221 0.0
H1204 H 0.72206 0.82917 0.75724 0.0
H1205 H 0.6954 0.85654 0.77942 0.0
H1206 H 0.68197 0.80809 0.8517 0.0
H1207 H 0.70995 0.78154 0.83049 0.0
H1208 H 0.64537 0.84641 0.78394 0.0
H1209 H 0.70241 0.87862 0.90657 0.0
H1210 H 0.71502 0.86157 0.87576 0.0
H1211 H 0.69023 0.84295 0.89609 0.0
C1212 C 0.71376 0.82456 0.77815 0.0
C1213 C 0.71841 0.80329 0.79226 0.0
C1214 C 0.69837 0.84022 0.79081 0.0
C1215 C 0.68682 0.83486 0.81769 0.0
C1216 C 0.69126 0.8134 0.83165 0.0
H1217 H 0.55228 0.89929 0.86189 0.0
H1218 H 0.57924 0.87084 0.84228 0.0
C1219 C 0.70719 0.79806 0.81937 0.0
C1220 C 0.66939 0.85114 0.83008 0.0
H1221 H 0.6592 0.88672 0.89708 0.0
C1222 C 0.64858 0.85533 0.8087 0.0
C1223 C 0.67353 0.86323 0.86231 0.0
C1224 C 0.69669 0.86162 0.88642 0.0
C1225 C 0.63201 0.87108 0.81843 0.0
C1226 C 0.6354 0.88224 0.85088 0.0
C1227 C 0.65621 0.87805 0.87227 0.0
C1228 C 0.61848 0.89918 0.86305 0.0
C1229 C 0.61176 0.87633 0.79345 0.0
C1230 C 0.6312 0.92427 0.8824 0.0
C1231 C 0.61576 0.94019 0.89432 0.0
C1232 C 0.58712 0.93164 0.88698 0.0
C1233 C 0.5743 0.9066 0.86761 0.0
C1234 C 0.58978 0.89039 0.85619 0.0
H1235 H 0.61771 0.87392 0.76978 0.0
H1236 H 0.59153 0.8617 0.7918 0.0
H1237 H 0.60979 0.89679 0.7992 0.0
H1238 H 0.65321 0.93171 0.88818 0.0
H1239 H 0.62628 0.95945 0.90902 0.0
H1240 H 0.84998 0.75256 0.16897 0.0
H1241 H 0.87474 0.72803 0.13819 0.0
H1242 H 0.79913 0.66813 0.09562 0.0
H1243 H 0.77424 0.69313 0.12564 0.0
H1244 H 0.87732 0.68013 0.14633 0.0
H1245 H 0.83621 0.67374 0.02002 0.0
H1246 H 0.83038 0.69691 0.05103 0.0
H1247 H 0.80986 0.66254 0.04229 0.0
C1248 C 0.83856 0.73459 0.15231 0.0
C1249 C 0.81018 0.72474 0.14972 0.0
C1250 C 0.85274 0.72052 0.13478 0.0
C1251 C 0.83888 0.69623 0.11436 0.0
C1252 C 0.81032 0.68706 0.11059 0.0
H1253 H 0.88828 0.55787 0.04933 0.0
H1254 H 0.86305 0.59023 0.06027 0.0
C1255 C 0.79608 0.70131 0.12792 0.0
C1256 C 0.85456 0.67901 0.10048 0.0
H1257 H 0.86092 0.6425 0.03189 0.0
C1258 C 0.87395 0.67227 0.12123 0.0
C1259 C 0.85014 0.66852 0.06772 0.0
C1260 C 0.83071 0.676 0.04394 0.0
C1261 C 0.88849 0.65497 0.11035 0.0
C1262 C 0.88365 0.64407 0.0778 0.0
C1263 C 0.86453 0.65089 0.05686 0.0
C1264 C 0.89792 0.62491 0.06575 0.0
C1265 C 0.90852 0.64788 0.13386 0.0
C1266 C 0.92571 0.63375 0.0642 0.0
C1267 C 0.9402 0.61532 0.05779 0.0
C1268 C 0.9272 0.58766 0.05296 0.0
C1269 C 0.89897 0.57896 0.05275 0.0
C1270 C 0.88448 0.59743 0.05906 0.0
H1271 H 0.90747 0.65539 0.15872 0.0
H1272 H 0.90465 0.62587 0.13056 0.0
H1273 H 0.92951 0.65671 0.12979 0.0
H1274 H 0.9364 0.65491 0.06912 0.0
H1275 H 0.96177 0.62275 0.05742 0.0
H1276 H 0.31322 0.79093 0.16554 0.0
H1277 H 0.33261 0.82445 0.13512 0.0
H1278 H 0.28201 0.87213 0.1668 0.0
H1279 H 0.26323 0.83891 0.19865 0.0
H1280 H 0.31165 0.84507 0.08757 0.0
H1281 H 0.35655 0.92418 0.19463 0.0
H1282 H 0.34125 0.88988 0.19757 0.0
H1283 H 0.32015 0.91053 0.18681 0.0
C1284 C 0.30615 0.80852 0.16605 0.0
C1285 C 0.28702 0.81254 0.18479 0.0
C1286 C 0.31713 0.82759 0.14848 0.0
C1287 C 0.30896 0.85091 0.14895 0.0
C1288 C 0.28901 0.85454 0.16665 0.0
H1289 H 0.40536 0.95473 0.03486 0.0
H1290 H 0.36375 0.92975 0.05117 0.0
C1291 C 0.27833 0.8356 0.1848 0.0
C1292 C 0.32311 0.8718 0.13247 0.0
H1293 H 0.37091 0.93257 0.14743 0.0
C1294 C 0.32426 0.86446 0.10041 0.0
C1295 C 0.33934 0.89711 0.14936 0.0
C1296 C 0.33951 0.90596 0.18402 0.0
C1297 C 0.34312 0.88066 0.08561 0.0
C1298 C 0.36062 0.90511 0.10323 0.0
C1299 C 0.35753 0.91363 0.13422 0.0
C1300 C 0.38511 0.91995 0.09229 0.0
C1301 C 0.34567 0.87054 0.05222 0.0
C1302 C 0.41075 0.92279 0.1101 0.0
C1303 C 0.43433 0.93731 0.10123 0.0
C1304 C 0.43274 0.94909 0.07418 0.0
C1305 C 0.40711 0.94574 0.05581 0.0
C1306 C 0.38337 0.93143 0.06499 0.0
H1307 H 0.33313 0.84949 0.04357 0.0
H1308 H 0.33881 0.88309 0.03618 0.0
H1309 H 0.36723 0.87194 0.05068 0.0
H1310 H 0.4125 0.91386 0.13111 0.0
H1311 H 0.4538 0.93944 0.11573 0.0
H1312 H 0.69887 0.20762 0.17818 0.0
H1313 H 0.67261 0.18749 0.1261 0.0
H1314 H 0.74657 0.19975 0.087 0.0
H1315 H 0.77341 0.21922 0.14034 0.0
H1316 H 0.66526 0.20206 0.06948 0.0
H1317 H 0.71577 0.12087 0.06009 0.0
H1318 H 0.72298 0.14446 0.09646 0.0
H1319 H 0.7354 0.1549 0.06203 0.0
C1320 C 0.70967 0.20633 0.15854 0.0
C1321 C 0.7382 0.21466 0.16336 0.0
C1322 C 0.69457 0.19494 0.12859 0.0
C1323 C 0.70753 0.19174 0.10249 0.0
C1324 C 0.7361 0.20145 0.10682 0.0
H1325 H 0.55767 0.08159 0.98748 0.0
H1326 H 0.59937 0.11794 0.98899 0.0
C1327 C 0.75139 0.21265 0.13721 0.0
C1328 C 0.69039 0.1756 0.07235 0.0
H1329 H 0.67025 0.11019 0.03667 0.0
C1330 C 0.66664 0.1822 0.06128 0.0
C1331 C 0.69264 0.15003 0.06074 0.0
C1332 C 0.718 0.14196 0.0703 0.0
C1333 C 0.64327 0.16248 0.04439 0.0
C1334 C 0.64427 0.13586 0.03749 0.0
C1335 C 0.6695 0.13055 0.04295 0.0
C1336 C 0.61944 0.11311 0.03404 0.0
C1337 C 0.61693 0.16956 0.03782 0.0
C1338 C 0.61699 0.09829 0.05865 0.0
C1339 C 0.59362 0.07749 0.05757 0.0
C1340 C 0.57211 0.07096 0.03182 0.0
C1341 C 0.57419 0.08606 0.00739 0.0
C1342 C 0.59789 0.10685 0.00829 0.0
H1343 H 0.61962 0.19119 0.04549 0.0
H1344 H 0.60864 0.16423 0.01209 0.0
H1345 H 0.60165 0.15803 0.05028 0.0
H1346 H 0.63318 0.10302 0.07901 0.0
H1347 H 0.59254 0.06628 0.0768 0.0
H1348 H 0.71586 0.71753 0.8008 0.0
H1349 H 0.68857 0.6849 0.82739 0.0
H1350 H 0.65828 0.63008 0.73866 0.0
H1351 H 0.68612 0.66264 0.71188 0.0
H1352 H 0.63169 0.66428 0.8133 0.0
H1353 H 0.68207 0.58359 0.79977 0.0
H1354 H 0.69808 0.61719 0.79444 0.0
H1355 H 0.67178 0.59489 0.76404 0.0
C1356 C 0.70372 0.69837 0.787 0.0
C1357 C 0.70321 0.69252 0.7543 0.0
C1358 C 0.68807 0.6798 0.80221 0.0
C1359 C 0.67161 0.655 0.78506 0.0
C1360 C 0.67121 0.64894 0.75242 0.0
H1361 H 0.55837 0.52653 0.8503 0.0
H1362 H 0.58469 0.55401 0.81739 0.0
C1363 C 0.68697 0.66757 0.73713 0.0
C1364 C 0.6539 0.63627 0.80136 0.0
H1365 H 0.64304 0.57524 0.82391 0.0
C1366 C 0.63413 0.64479 0.81557 0.0
C1367 C 0.65705 0.61081 0.80409 0.0
C1368 C 0.67851 0.60104 0.79002 0.0
C1369 C 0.61755 0.62863 0.83271 0.0
C1370 C 0.62114 0.60346 0.83611 0.0
C1371 C 0.64043 0.59461 0.82127 0.0
C1372 C 0.60569 0.58654 0.85601 0.0
C1373 C 0.59628 0.63861 0.84697 0.0
C1374 C 0.60916 0.59559 0.88864 0.0
C1375 C 0.59423 0.58 0.90746 0.0
C1376 C 0.57559 0.555 0.89398 0.0
C1377 C 0.57249 0.54575 0.86134 0.0
C1378 C 0.58752 0.56138 0.84253 0.0
H1379 H 0.5913 0.65472 0.83545 0.0
H1380 H 0.57726 0.62211 0.84494 0.0
H1381 H 0.60414 0.64685 0.87245 0.0
H1382 H 0.62345 0.61477 0.89957 0.0
H1383 H 0.59724 0.58763 0.93256 0.0
H1384 H 0.34687 0.71132 0.82757 0.0
H1385 H 0.36961 0.68554 0.85852 0.0
H1386 H 0.29515 0.6519 0.89192 0.0
H1387 H 0.27195 0.67696 0.85976 0.0
H1388 H 0.37935 0.68346 0.92035 0.0
H1389 H 0.31154 0.58547 0.85384 0.0
H1390 H 0.31092 0.61659 0.84145 0.0
H1391 H 0.29487 0.60671 0.87399 0.0
C1392 C 0.33539 0.6985 0.8416 0.0
C1393 C 0.30763 0.6958 0.84103 0.0
C1394 C 0.3484 0.68386 0.85937 0.0
C1395 C 0.33396 0.66644 0.87711 0.0
C1396 C 0.3065 0.66471 0.87779 0.0
H1397 H 0.44058 0.58999 0.98386 0.0
H1398 H 0.40722 0.61464 0.97465 0.0
C1399 C 0.29333 0.6791 0.85958 0.0
C1400 C 0.34773 0.6494 0.89343 0.0
H1401 H 0.34814 0.58467 0.89135 0.0
C1402 C 0.37245 0.66182 0.91431 0.0
C1403 C 0.33856 0.62119 0.88549 0.0
C1404 C 0.31265 0.60662 0.8623 0.0
C1405 C 0.38921 0.64697 0.92582 0.0
C1406 C 0.38047 0.61877 0.91701 0.0
C1407 C 0.35484 0.60628 0.89792 0.0
C1408 C 0.3988 0.60211 0.92378 0.0
C1409 C 0.41682 0.66183 0.9455 0.0
C1410 C 0.40423 0.58588 0.89852 0.0
C1411 C 0.42236 0.57093 0.90395 0.0
C1412 C 0.43573 0.57213 0.93476 0.0
C1413 C 0.43029 0.5884 0.96001 0.0
C1414 C 0.41152 0.60278 0.95469 0.0
H1415 H 0.42278 0.68337 0.94381 0.0
H1416 H 0.41623 0.66035 0.97071 0.0
H1417 H 0.43281 0.65317 0.93804 0.0
H1418 H 0.39483 0.58516 0.8744 0.0
H1419 H 0.42649 0.55906 0.88385 0.0
H1420 H 0.28357 0.28195 0.8292 0.0
H1421 H 0.30345 0.29833 0.88485 0.0
H1422 H 0.38119 0.33195 0.85853 0.0
H1423 H 0.36092 0.31594 0.80258 0.0
H1424 H 0.38018 0.30264 0.91498 0.0
H1425 H 0.32602 0.38104 0.91924 0.0
H1426 H 0.30788 0.34619 0.90579 0.0
H1427 H 0.32855 0.36422 0.88121 0.0
C1428 C 0.30455 0.29348 0.83513 0.0
C1429 C 0.3203 0.29881 0.81152 0.0
C1430 C 0.31608 0.30222 0.86702 0.0
C1431 C 0.34367 0.31634 0.87563 0.0
C1432 C 0.35979 0.32085 0.85218 0.0
H1433 H 0.47496 0.41427 0.92666 0.0
H1434 H 0.43943 0.37305 0.92471 0.0
C1435 C 0.3482 0.31201 0.82033 0.0
C1436 C 0.35568 0.32938 0.90842 0.0
H1437 H 0.36978 0.39217 0.9496 0.0
C1438 C 0.37734 0.32179 0.92364 0.0
C1439 C 0.35113 0.35369 0.92053 0.0
C1440 C 0.3271 0.3619 0.90607 0.0
C1441 C 0.39734 0.34011 0.94704 0.0
C1442 C 0.39584 0.36655 0.95397 0.0
C1443 C 0.37142 0.37213 0.94347 0.0
C1444 C 0.42081 0.38939 0.96164 0.0
C1445 C 0.4214 0.33196 0.96137 0.0
C1446 C 0.42206 0.41257 0.98256 0.0
C1447 C 0.44185 0.43645 0.98267 0.0
C1448 C 0.46084 0.43737 0.96231 0.0
C1449 C 0.46041 0.41402 0.94249 0.0
C1450 C 0.44051 0.39026 0.94205 0.0
H1451 H 0.41436 0.31178 0.96754 0.0
H1452 H 0.4349 0.33068 0.94373 0.0
H1453 H 0.43329 0.34633 0.98292 0.0
H1454 H 0.40674 0.41256 0.99731 0.0
H1455 H 0.44145 0.45448 0.99739 0.0
H1456 H 0.75689 0.33504 0.8607 0.0
H1457 H 0.74182 0.36206 0.90127 0.0
H1458 H 0.65966 0.30999 0.87227 0.0
H1459 H 0.67464 0.28285 0.83212 0.0
H1460 H 0.70396 0.3888 0.88898 0.0
H1461 H 0.66947 0.31781 0.96817 0.0
H1462 H 0.69142 0.31241 0.94043 0.0
H1463 H 0.65513 0.30383 0.92746 0.0
C1464 C 0.73568 0.32928 0.86327 0.0
C1465 C 0.71685 0.30698 0.84329 0.0
C1466 C 0.72714 0.34462 0.88649 0.0
C1467 C 0.69973 0.33772 0.89018 0.0
C1468 C 0.68104 0.31524 0.87042 0.0
H1469 H 0.57826 0.39891 0.94483 0.0
H1470 H 0.60855 0.37196 0.93361 0.0
C1471 C 0.68954 0.29994 0.84726 0.0
C1472 C 0.68985 0.35543 0.91215 0.0
H1473 H 0.64969 0.35462 0.9686 0.0
C1474 C 0.69268 0.38162 0.90697 0.0
C1475 C 0.6752 0.34595 0.93562 0.0
C1476 C 0.67286 0.31853 0.94349 0.0
C1477 C 0.67948 0.39792 0.92289 0.0
C1478 C 0.66346 0.38786 0.94503 0.0
C1479 C 0.66197 0.36224 0.9516 0.0
C1480 C 0.64531 0.40225 0.95803 0.0
C1481 C 0.68123 0.42504 0.91424 0.0
C1482 C 0.65584 0.42772 0.97689 0.0
C1483 C 0.63851 0.44326 0.9834 0.0
C1484 C 0.61041 0.43347 0.97124 0.0
C1485 C 0.59975 0.40706 0.95469 0.0
C1486 C 0.61706 0.39161 0.94816 0.0
H1487 H 0.69098 0.42802 0.89316 0.0
H1488 H 0.66061 0.42776 0.90936 0.0
H1489 H 0.69349 0.44081 0.93435 0.0
H1490 H 0.67756 0.43605 0.98524 0.0
H1491 H 0.64724 0.46332 0.99682 0.0
H1492 H 0.65615 0.30203 0.21427 0.0
H1493 H 0.63164 0.32389 0.179 0.0
H1494 H 0.66561 0.29407 0.10114 0.0
H1495 H 0.69028 0.27237 0.13629 0.0
H1496 H 0.67285 0.34883 0.10917 0.0
H1497 H 0.56527 0.29348 0.10747 0.0
H1498 H 0.58473 0.30531 0.14675 0.0
H1499 H 0.59332 0.2808 0.12027 0.0
C1500 C 0.658 0.29981 0.18953 0.0
C1501 C 0.67508 0.28562 0.17796 0.0
C1502 C 0.64393 0.31217 0.16939 0.0
C1503 C 0.64664 0.31033 0.13742 0.0
C1504 C 0.66319 0.2956 0.1257 0.0
H1505 H 0.55102 0.38538 0.01568 0.0
H1506 H 0.57494 0.35341 0.03077 0.0
C1507 C 0.67723 0.28324 0.14579 0.0
C1508 C 0.63394 0.32559 0.11695 0.0
H1509 H 0.5732 0.3363 0.09125 0.0
C1510 C 0.65102 0.34583 0.10479 0.0
C1511 C 0.60546 0.32131 0.11083 0.0
C1512 C 0.58608 0.29886 0.12173 0.0
C1513 C 0.64044 0.36299 0.08828 0.0
C1514 C 0.61218 0.35992 0.08421 0.0
C1515 C 0.59493 0.33868 0.09466 0.0
C1516 C 0.60045 0.38012 0.07241 0.0
C1517 C 0.65956 0.3847 0.07599 0.0
C1518 C 0.60721 0.40573 0.09065 0.0
C1519 C 0.59339 0.42386 0.08244 0.0
C1520 C 0.5725 0.41669 0.05576 0.0
C1521 C 0.56668 0.39138 0.03666 0.0
C1522 C 0.58042 0.37316 0.04507 0.0
H1523 H 0.67883 0.3799 0.0731 0.0
H1524 H 0.64989 0.38787 0.05291 0.0
H1525 H 0.66473 0.40369 0.0931 0.0
H1526 H 0.62228 0.41126 0.11217 0.0
H1527 H 0.59812 0.44295 0.098 0.0
H1528 H 0.66583 0.70381 0.18817 0.0
H1529 H 0.65125 0.67901 0.13411 0.0
H1530 H 0.72967 0.66437 0.13656 0.0
H1531 H 0.74312 0.68672 0.19186 0.0
H1532 H 0.66874 0.68518 0.07936 0.0
H1533 H 0.68286 0.59035 0.11275 0.0
H1534 H 0.68659 0.61886 0.14261 0.0
H1535 H 0.71233 0.61875 0.11854 0.0
C1536 C 0.67977 0.695 0.17724 0.0
C1537 C 0.70563 0.69732 0.19384 0.0
C1538 C 0.67167 0.68124 0.14622 0.0
C1539 C 0.68944 0.66987 0.13121 0.0
C1540 C 0.71552 0.67265 0.1477 0.0
H1541 H 0.5805 0.53788 0.00144 0.0
H1542 H 0.62334 0.57319 0.00618 0.0
C1543 C 0.72326 0.68566 0.17911 0.0
C1544 C 0.67899 0.65313 0.09955 0.0
H1545 H 0.65225 0.58723 0.06762 0.0
C1546 C 0.66581 0.6638 0.07622 0.0
C1547 C 0.67605 0.62535 0.0948 0.0
C1548 C 0.69009 0.61252 0.11844 0.0
C1549 C 0.646 0.64697 0.05145 0.0
C1550 C 0.63981 0.61916 0.05006 0.0
C1551 C 0.65679 0.60872 0.06941 0.0
C1552 C 0.61193 0.60171 0.03821 0.0
C1553 C 0.62959 0.65893 0.02932 0.0
C1554 C 0.59126 0.60628 0.05423 0.0
C1555 C 0.56718 0.58601 0.05203 0.0
C1556 C 0.56336 0.5611 0.03339 0.0
C1557 C 0.58309 0.55715 0.01555 0.0
C1558 C 0.60739 0.5773 0.01806 0.0
H1559 H 0.6424 0.67813 0.02479 0.0
H1560 H 0.62072 0.64504 0.00645 0.0
H1561 H 0.61271 0.66315 0.0404 0.0
H1562 H 0.59469 0.62474 0.07063 0.0
H1563 H 0.55207 0.58942 0.06583 0.0
H1564 H 0.25549 0.65686 0.1334 0.0
H1565 H 0.27065 0.62986 0.09293 0.0
H1566 H 0.35252 0.68266 0.12119 0.0
H1567 H 0.33732 0.71001 0.16102 0.0
H1568 H 0.33486 0.66651 0.05382 0.0
H1569 H 0.31663 0.58097 0.11902 0.0
H1570 H 0.28822 0.59343 0.10816 0.0
H1571 H 0.317 0.61398 0.13687 0.0
C1572 C 0.27663 0.6628 0.13065 0.0
C1573 C 0.29529 0.68537 0.15032 0.0
C1574 C 0.28526 0.64736 0.10765 0.0
C1575 C 0.31273 0.65419 0.10427 0.0
C1576 C 0.33122 0.67714 0.12338 0.0
H1577 H 0.43941 0.60586 0.04666 0.0
H1578 H 0.40562 0.62926 0.05515 0.0
C1579 C 0.32257 0.6926 0.14626 0.0
C1580 C 0.32295 0.6366 0.08262 0.0
H1581 H 0.33869 0.57762 0.07581 0.0
C1582 C 0.33531 0.64686 0.0582 0.0
C1583 C 0.32324 0.61088 0.08825 0.0
C1584 C 0.31075 0.5991 0.11457 0.0
C1585 C 0.34919 0.63257 0.04028 0.0
C1586 C 0.35109 0.60772 0.04746 0.0
C1587 C 0.33714 0.59669 0.07035 0.0
C1588 C 0.37084 0.59485 0.03565 0.0
C1589 C 0.3624 0.64452 0.0145 0.0
C1590 C 0.36254 0.56777 0.02154 0.0
C1591 C 0.3819 0.5542 0.01702 0.0
C1592 C 0.40984 0.56747 0.02695 0.0
C1593 C 0.41803 0.59497 0.03933 0.0
C1594 C 0.39872 0.6085 0.04366 0.0
H1595 H 0.35132 0.65771 0.00434 0.0
H1596 H 0.38357 0.65689 0.02462 0.0
H1597 H 0.36315 0.62878 0.99517 0.0
H1598 H 0.34109 0.55684 0.01554 0.0
H1599 H 0.37493 0.53299 0.00761 0.0
H1600 H 0.30126 0.29106 0.19431 0.0
H1601 H 0.33002 0.3243 0.16977 0.0
H1602 H 0.36248 0.37494 0.26101 0.0
H1603 H 0.33312 0.34181 0.28579 0.0
H1604 H 0.35019 0.40262 0.2115 0.0
H1605 H 0.41246 0.33612 0.17829 0.0
H1606 H 0.37661 0.3209 0.16466 0.0
H1607 H 0.38984 0.32965 0.20644 0.0
C1608 C 0.31427 0.30939 0.20914 0.0
C1609 C 0.31505 0.31384 0.24197 0.0
C1610 C 0.33086 0.32827 0.19512 0.0
C1611 C 0.34877 0.3518 0.21368 0.0
C1612 C 0.34893 0.35678 0.24634 0.0
H1613 H 0.46741 0.47846 0.14985 0.0
H1614 H 0.44103 0.45241 0.18402 0.0
C1615 C 0.3322 0.33788 0.26043 0.0
C1616 C 0.3676 0.37077 0.19875 0.0
H1617 H 0.41693 0.37437 0.15321 0.0
C1618 C 0.36506 0.39664 0.19911 0.0
C1619 C 0.38712 0.36293 0.18286 0.0
C1620 C 0.39192 0.33598 0.18326 0.0
C1621 C 0.38065 0.41442 0.18257 0.0
C1622 C 0.39926 0.40607 0.16555 0.0
C1623 C 0.40247 0.38058 0.16615 0.0
C1624 C 0.41449 0.42276 0.14534 0.0
C1625 C 0.37641 0.44157 0.18228 0.0
C1626 C 0.40831 0.41457 0.11243 0.0
C1627 C 0.42323 0.42932 0.09294 0.0
C1628 C 0.44481 0.45246 0.10605 0.0
C1629 C 0.45088 0.46075 0.13908 0.0
C1630 C 0.4358 0.44598 0.1586 0.0
H1631 H 0.35878 0.44371 0.19337 0.0
H1632 H 0.39496 0.45718 0.19546 0.0
H1633 H 0.3731 0.44524 0.15762 0.0
H1634 H 0.39199 0.39663 0.10181 0.0
H1635 H 0.41805 0.42236 0.06761 0.0
H1636 H 0.80893 0.68362 0.73935 0.0
H1637 H 0.83579 0.65699 0.71626 0.0
H1638 H 0.82303 0.68586 0.6287 0.0
H1639 H 0.79562 0.71241 0.65153 0.0
H1640 H 0.81712 0.63219 0.6184 0.0
H1641 H 0.91326 0.68423 0.70195 0.0
H1642 H 0.88554 0.6712 0.72163 0.0
H1643 H 0.88423 0.69712 0.6989 0.0
C1644 C 0.81176 0.68441 0.71515 0.0
C1645 C 0.80013 0.70042 0.69744 0.0
C1646 C 0.82737 0.66924 0.70202 0.0
C1647 C 0.83207 0.66979 0.67091 0.0
C1648 C 0.81996 0.68522 0.65285 0.0
H1649 H 0.9562 0.60658 0.59454 0.0
H1650 H 0.92979 0.63565 0.61394 0.0
C1651 C 0.80423 0.70041 0.66596 0.0
C1652 C 0.84926 0.65395 0.65723 0.0
H1653 H 0.91195 0.64324 0.66997 0.0
C1654 C 0.8379 0.63475 0.6296 0.0
C1655 C 0.87661 0.65746 0.67141 0.0
C1656 C 0.89075 0.6788 0.69992 0.0
C1657 C 0.85275 0.61852 0.61641 0.0
C1658 C 0.87964 0.62114 0.63148 0.0
C1659 C 0.89128 0.6409 0.65854 0.0
C1660 C 0.89587 0.6034 0.61977 0.0
C1661 C 0.83953 0.59892 0.58616 0.0
C1662 C 0.88602 0.57554 0.61711 0.0
C1663 C 0.90111 0.55887 0.60611 0.0
C1664 C 0.92665 0.56956 0.59762 0.0
C1665 C 0.93675 0.59755 0.60095 0.0
C1666 C 0.92158 0.61423 0.61194 0.0
H1667 H 0.82285 0.60482 0.57281 0.0
H1668 H 0.85461 0.59722 0.57064 0.0
H1669 H 0.83057 0.57894 0.59195 0.0
H1670 H 0.86669 0.56661 0.62386 0.0
H1671 H 0.89287 0.53752 0.60469 0.0
H1672 H 0.28577 0.75653 0.66064 0.0
H1673 H 0.31833 0.78107 0.63152 0.0
H1674 H 0.38018 0.80428 0.7156 0.0
H1675 H 0.34782 0.77925 0.74473 0.0
H1676 H 0.33602 0.83544 0.65575 0.0
H1677 H 0.42398 0.79551 0.6442 0.0
H1678 H 0.39161 0.77521 0.65043 0.0
H1679 H 0.41508 0.79814 0.68294 0.0
C1680 C 0.30661 0.76602 0.67257 0.0
C1681 C 0.31425 0.76647 0.705 0.0
C1682 C 0.32518 0.77992 0.6559 0.0
C1683 C 0.35154 0.79453 0.67149 0.0
C1684 C 0.36003 0.79278 0.70306 0.0
H1685 H 0.46958 0.93362 0.63616 0.0
H1686 H 0.44443 0.89673 0.65933 0.0
C1687 C 0.34149 0.77859 0.71971 0.0
C1688 C 0.36762 0.8158 0.65712 0.0
H1689 H 0.42868 0.83978 0.6342 0.0
C1690 C 0.35618 0.83624 0.65071 0.0
C1691 C 0.39403 0.81694 0.65123 0.0
C1692 C 0.40689 0.79519 0.6573 0.0
C1693 C 0.37051 0.85799 0.63868 0.0
C1694 C 0.39682 0.85906 0.63248 0.0
C1695 C 0.40844 0.83875 0.63904 0.0
C1696 C 0.4122 0.88096 0.61851 0.0
C1697 C 0.35757 0.87988 0.63325 0.0
C1698 C 0.40223 0.88409 0.58802 0.0
C1699 C 0.41628 0.90516 0.57492 0.0
C1700 C 0.44068 0.9233 0.59204 0.0
C1701 C 0.4507 0.92006 0.62258 0.0
C1702 C 0.43653 0.89895 0.63572 0.0
H1703 H 0.34058 0.87939 0.64655 0.0
H1704 H 0.37282 0.89986 0.64037 0.0
H1705 H 0.34919 0.87722 0.60771 0.0
H1706 H 0.38363 0.87014 0.5743 0.0
H1707 H 0.40823 0.90695 0.55118 0.0
H1708 H 0.20668 0.31726 0.74353 0.0
H1709 H 0.17983 0.34235 0.71772 0.0
H1710 H 0.21082 0.32668 0.63193 0.0
H1711 H 0.23765 0.30074 0.65761 0.0
H1712 H 0.19453 0.38703 0.69292 0.0
H1713 H 0.1297 0.30426 0.59837 0.0
H1714 H 0.15111 0.2986 0.63159 0.0
H1715 H 0.16569 0.31089 0.59918 0.0
C1716 C 0.20794 0.31898 0.71912 0.0
C1717 C 0.22447 0.30671 0.70274 0.0
C1718 C 0.19245 0.33349 0.70435 0.0
C1719 C 0.19281 0.33624 0.67263 0.0
C1720 C 0.20961 0.32444 0.6562 0.0
H1721 H 0.10086 0.41892 0.55538 0.0
H1722 H 0.13252 0.39507 0.57492 0.0
C1723 C 0.22519 0.30977 0.67103 0.0
C1724 C 0.17575 0.35178 0.65749 0.0
H1725 H 0.12288 0.34672 0.59793 0.0
C1726 C 0.17893 0.37816 0.67209 0.0
C1727 C 0.15531 0.34042 0.63021 0.0
C1728 C 0.14998 0.31193 0.614 0.0
C1729 C 0.16233 0.3933 0.66046 0.0
C1730 C 0.14151 0.38175 0.63364 0.0
C1731 C 0.13873 0.35563 0.61851 0.0
C1732 C 0.12198 0.3962 0.62159 0.0
C1733 C 0.16742 0.42168 0.67694 0.0
C1734 C 0.10504 0.40456 0.64101 0.0
C1735 C 0.08673 0.41807 0.62984 0.0
C1736 C 0.08467 0.42359 0.5988 0.0
C1737 C 0.10151 0.41492 0.57928 0.0
C1738 C 0.1198 0.40132 0.59048 0.0
H1739 H 0.18841 0.42994 0.69086 0.0
H1740 H 0.16432 0.43484 0.6597 0.0
H1741 H 0.15293 0.42212 0.69355 0.0
H1742 H 0.10574 0.40034 0.66483 0.0
H1743 H 0.07379 0.42374 0.64547 0.0
H1744 H 0.71083 0.17624 0.70161 0.0
H1745 H 0.69023 0.14878 0.64988 0.0
H1746 H 0.67164 0.21654 0.61649 0.0
H1747 H 0.69146 0.24388 0.66894 0.0
H1748 H 0.62871 0.17715 0.6051 0.0
H1749 H 0.70754 0.13658 0.56407 0.0
H1750 H 0.70678 0.13147 0.60394 0.0
H1751 H 0.71586 0.16507 0.59566 0.0
C1752 C 0.70276 0.18535 0.68304 0.0
C1753 C 0.70242 0.21198 0.68917 0.0
C1754 C 0.69136 0.16977 0.65329 0.0
C1755 C 0.67995 0.18072 0.62892 0.0
C1756 C 0.68057 0.20773 0.63478 0.0
H1757 H 0.5485 0.05907 0.4953 0.0
H1758 H 0.58716 0.09977 0.50456 0.0
C1759 C 0.69164 0.22323 0.66476 0.0
C1760 C 0.66335 0.16269 0.59975 0.0
H1761 H 0.66034 0.10462 0.55232 0.0
C1762 C 0.63587 0.16194 0.59252 0.0
C1763 C 0.67271 0.14308 0.58284 0.0
C1764 C 0.70246 0.14437 0.58688 0.0
C1765 C 0.61686 0.14013 0.57222 0.0
C1766 C 0.6257 0.11868 0.55893 0.0
C1767 C 0.65362 0.121 0.56295 0.0
C1768 C 0.60613 0.09192 0.54844 0.0
C1769 C 0.58705 0.13877 0.56805 0.0
C1770 C 0.60472 0.07376 0.56942 0.0
C1771 C 0.58277 0.05081 0.56429 0.0
C1772 C 0.56202 0.0455 0.5379 0.0
C1773 C 0.5644 0.06267 0.51564 0.0
C1774 C 0.58637 0.08588 0.52093 0.0
H1775 H 0.58361 0.15712 0.58037 0.0
H1776 H 0.57857 0.13601 0.54252 0.0
H1777 H 0.57556 0.12136 0.57739 0.0
H1778 H 0.61973 0.0782 0.59089 0.0
H1779 H 0.58152 0.0377 0.58162 0.0
H1780 H 0.73231 0.29134 0.35173 0.0
H1781 H 0.7609 0.3191 0.40104 0.0
H1782 H 0.83242 0.30668 0.36826 0.0
H1783 H 0.80433 0.27924 0.31964 0.0
H1784 H 0.83463 0.30828 0.4345 0.0
H1785 H 0.80566 0.39421 0.39266 0.0
H1786 H 0.77927 0.36644 0.39909 0.0
H1787 H 0.79727 0.36222 0.36705 0.0
C1788 C 0.75407 0.29407 0.35551 0.0
C1789 C 0.76616 0.28335 0.33178 0.0
C1790 C 0.77034 0.30995 0.38358 0.0
C1791 C 0.7988 0.31522 0.38808 0.0
C1792 C 0.81051 0.30283 0.36536 0.0
H1793 H 0.95209 0.40818 0.43258 0.0
H1794 H 0.90947 0.37251 0.42683 0.0
C1795 C 0.79439 0.28714 0.33748 0.0
C1796 C 0.81723 0.33621 0.41368 0.0
H1797 H 0.8459 0.40376 0.42888 0.0
C1798 C 0.83664 0.32922 0.43408 0.0
C1799 C 0.81969 0.36354 0.41334 0.0
C1800 C 0.7995 0.37226 0.39187 0.0
C1801 C 0.85982 0.34872 0.45176 0.0
C1802 C 0.86375 0.3757 0.44854 0.0
C1803 C 0.84289 0.38297 0.43105 0.0
C1804 C 0.89095 0.39561 0.45739 0.0
C1805 C 0.88071 0.34015 0.47223 0.0
C1806 C 0.89464 0.42049 0.47633 0.0
C1807 C 0.91903 0.44088 0.47953 0.0
C1808 C 0.93986 0.43667 0.4637 0.0
C1809 C 0.93638 0.41167 0.44535 0.0
C1810 C 0.91218 0.39125 0.44235 0.0
H1811 H 0.87098 0.32186 0.48129 0.0
H1812 H 0.89559 0.33542 0.45789 0.0
H1813 H 0.89193 0.3562 0.49258 0.0
H1814 H 0.87831 0.42443 0.48759 0.0
H1815 H 0.9211 0.4603 0.49304 0.0
H1816 H 0.73577 0.81601 0.36709 0.0
H1817 H 0.71125 0.8408 0.39779 0.0
H1818 H 0.6395 0.77287 0.37382 0.0
H1819 H 0.66408 0.7478 0.34291 0.0
H1820 H 0.66345 0.84999 0.36569 0.0
H1821 H 0.64331 0.80191 0.47005 0.0
H1822 H 0.67042 0.79848 0.44903 0.0
H1823 H 0.63579 0.77994 0.43239 0.0
C1824 C 0.71497 0.80607 0.36899 0.0
C1825 C 0.70178 0.78 0.35248 0.0
C1826 C 0.70099 0.82028 0.38657 0.0
C1827 C 0.67357 0.8087 0.38823 0.0
C1828 C 0.66076 0.78208 0.37328 0.0
H1829 H 0.54761 0.8767 0.44452 0.0
H1830 H 0.57468 0.84643 0.43159 0.0
C1831 C 0.6748 0.76779 0.35557 0.0
C1832 C 0.65768 0.82573 0.40175 0.0
H1833 H 0.62181 0.83536 0.46085 0.0
C1834 C 0.65452 0.8469 0.38664 0.0
C1835 C 0.64577 0.82147 0.42884 0.0
C1836 C 0.64905 0.79935 0.44628 0.0
C1837 C 0.63967 0.86382 0.39766 0.0
C1838 C 0.62813 0.85995 0.42511 0.0
C1839 C 0.63096 0.83855 0.44008 0.0
C1840 C 0.61266 0.87779 0.43787 0.0
C1841 C 0.63589 0.8853 0.3792 0.0
C1842 C 0.6252 0.90537 0.44712 0.0
C1843 C 0.60974 0.92278 0.45399 0.0
C1844 C 0.58136 0.91295 0.45209 0.0
C1845 C 0.56925 0.88507 0.44531 0.0
C1846 C 0.58475 0.86768 0.43824 0.0
H1847 H 0.63967 0.88113 0.35466 0.0
H1848 H 0.61497 0.88728 0.37808 0.0
H1849 H 0.65056 0.90472 0.39107 0.0
H1850 H 0.64684 0.91358 0.44768 0.0
H1851 H 0.61988 0.94405 0.45912 0.0
H1852 H 0.21713 0.65635 0.24985 0.0
H1853 H 0.19143 0.6232 0.27745 0.0
H1854 H 0.19806 0.68535 0.35605 0.0
H1855 H 0.2237 0.7186 0.32887 0.0
H1856 H 0.20503 0.63101 0.36947 0.0
H1857 H 0.11153 0.62923 0.28755 0.0
H1858 H 0.14037 0.62535 0.27042 0.0
H1859 H 0.14245 0.65659 0.29423 0.0
C1860 C 0.21356 0.66289 0.27325 0.0
C1861 C 0.22203 0.6901 0.28699 0.0
C1862 C 0.19893 0.64396 0.28893 0.0
C1863 C 0.19284 0.65202 0.31857 0.0
C1864 C 0.20267 0.67888 0.33317 0.0
H1865 H 0.09072 0.58228 0.44587 0.0
H1866 H 0.127 0.60939 0.42299 0.0
C1867 C 0.21711 0.69782 0.31747 0.0
C1868 C 0.17364 0.63315 0.33281 0.0
H1869 H 0.10592 0.60228 0.32637 0.0
C1870 C 0.18337 0.62449 0.36005 0.0
C1871 C 0.14549 0.62504 0.3204 0.0
C1872 C 0.13413 0.63457 0.29165 0.0
C1873 C 0.16544 0.60749 0.37516 0.0
C1874 C 0.13718 0.59964 0.36295 0.0
C1875 C 0.12761 0.6083 0.33559 0.0
C1876 C 0.11689 0.58249 0.37793 0.0
C1877 C 0.17691 0.59785 0.40372 0.0
C1878 C 0.09899 0.5587 0.35999 0.0
C1879 C 0.07803 0.54353 0.37271 0.0
C1880 C 0.07463 0.55186 0.40367 0.0
C1881 C 0.09289 0.57542 0.42192 0.0
C1882 C 0.11377 0.59076 0.40902 0.0
H1883 H 0.19884 0.59941 0.40459 0.0
H1884 H 0.17497 0.61037 0.42548 0.0
H1885 H 0.16563 0.57678 0.40383 0.0
H1886 H 0.10101 0.55207 0.33591 0.0
H1887 H 0.06439 0.52535 0.35817 0.0
H1888 H 0.34623 0.24334 0.36193 0.0
H1889 H 0.3705 0.21544 0.38741 0.0
H1890 H 0.29693 0.14943 0.36519 0.0
H1891 H 0.27277 0.17704 0.33913 0.0
H1892 H 0.36342 0.18628 0.43629 0.0
H1893 H 0.34999 0.11918 0.32161 0.0
H1894 H 0.34269 0.15088 0.32435 0.0
H1895 H 0.31859 0.12218 0.33261 0.0
C1896 C 0.33515 0.22301 0.36295 0.0
C1897 C 0.30769 0.21228 0.34833 0.0
C1898 C 0.34904 0.20707 0.37745 0.0
C1899 C 0.33571 0.18015 0.37755 0.0
C1900 C 0.30782 0.16994 0.36472 0.0
H1901 H 0.39099 0.04614 0.42527 0.0
H1902 H 0.36393 0.07603 0.41194 0.0
C1903 C 0.29397 0.1858 0.35006 0.0
C1904 C 0.35127 0.16244 0.38959 0.0
H1905 H 0.36976 0.10621 0.36699 0.0
C1906 C 0.36481 0.16876 0.42117 0.0
C1907 C 0.3533 0.1397 0.36977 0.0
C1908 C 0.34061 0.13266 0.33513 0.0
C1909 C 0.37985 0.15266 0.43364 0.0
C1910 C 0.38167 0.12978 0.41387 0.0
C1911 C 0.36816 0.12356 0.38227 0.0
C1912 C 0.39779 0.11214 0.425 0.0
C1913 C 0.39329 0.1602 0.46797 0.0
C1914 C 0.42582 0.12243 0.43713 0.0
C1915 C 0.4413 0.10536 0.44499 0.0
C1916 C 0.42915 0.07759 0.44039 0.0
C1917 C 0.40099 0.0674 0.42885 0.0
C1918 C 0.3855 0.08448 0.42127 0.0
H1919 H 0.38272 0.17208 0.48202 0.0
H1920 H 0.3937 0.14226 0.4785 0.0
H1921 H 0.4146 0.17268 0.46982 0.0
H1922 H 0.43597 0.14356 0.43952 0.0
H1923 H 0.46301 0.1138 0.45336 0.0
H1924 H 0.73798 0.82648 0.65537 0.0
H1925 H 0.71051 0.84869 0.62428 0.0
H1926 H 0.65005 0.77291 0.58782 0.0
H1927 H 0.67732 0.75061 0.6191 0.0
H1928 H 0.68629 0.84098 0.55739 0.0
H1929 H 0.60982 0.81915 0.63638 0.0
H1930 H 0.64366 0.81591 0.64609 0.0
H1931 H 0.61826 0.79076 0.61739 0.0
C1932 C 0.71908 0.81449 0.64026 0.0
C1933 C 0.70965 0.78685 0.63986 0.0
C1934 C 0.70342 0.8272 0.62248 0.0
C1935 C 0.67806 0.81251 0.60409 0.0
C1936 C 0.66941 0.78467 0.60216 0.0
H1937 H 0.5438 0.86967 0.52739 0.0
H1938 H 0.57322 0.84108 0.53648 0.0
C1939 C 0.68505 0.77194 0.61994 0.0
C1940 C 0.65967 0.82664 0.58942 0.0
H1941 H 0.60043 0.84224 0.59562 0.0
C1942 C 0.66743 0.84114 0.56557 0.0
C1943 C 0.63508 0.82688 0.60017 0.0
C1944 C 0.62619 0.81255 0.62657 0.0
C1945 C 0.65122 0.85591 0.55224 0.0
C1946 C 0.62693 0.85656 0.5635 0.0
C1947 C 0.61897 0.84163 0.58688 0.0
C1948 C 0.61012 0.87375 0.55303 0.0
C1949 C 0.66026 0.87065 0.52624 0.0
C1950 C 0.62116 0.90166 0.55864 0.0
C1951 C 0.60437 0.91808 0.55339 0.0
C1952 C 0.57617 0.90694 0.54259 0.0
C1953 C 0.56543 0.87895 0.53553 0.0
C1954 C 0.58221 0.86255 0.54084 0.0
H1955 H 0.67286 0.86085 0.51279 0.0
H1956 H 0.64262 0.8719 0.50949 0.0
H1957 H 0.67289 0.89128 0.53691 0.0
H1958 H 0.64255 0.9108 0.56842 0.0
H1959 H 0.61338 0.93955 0.55859 0.0
H1960 H 0.72501 0.15414 0.26522 0.0
H1961 H 0.69482 0.11448 0.27853 0.0
H1962 H 0.63282 0.15494 0.28409 0.0
H1963 H 0.66237 0.19403 0.26928 0.0
H1964 H 0.67846 0.11121 0.33097 0.0
H1965 H 0.58629 0.08359 0.23964 0.0
H1966 H 0.61773 0.10666 0.23516 0.0
H1967 H 0.59403 0.11828 0.25613 0.0
C1968 C 0.70475 0.15435 0.26881 0.0
C1969 C 0.69598 0.17711 0.26638 0.0
C1970 C 0.6875 0.13166 0.27623 0.0
C1971 C 0.66136 0.13152 0.28174 0.0
C1972 C 0.65249 0.15417 0.27884 0.0
H1973 H 0.58061 0.07477 0.42308 0.0
H1974 H 0.60995 0.0957 0.38849 0.0
C1975 C 0.66952 0.17664 0.27078 0.0
C1976 C 0.64477 0.10936 0.29464 0.0
H1977 H 0.57913 0.07274 0.29187 0.0
C1978 C 0.65687 0.1023 0.32189 0.0
C1979 C 0.61675 0.09714 0.28246 0.0
C1980 C 0.60311 0.10163 0.25151 0.0
C1981 C 0.64127 0.08512 0.33875 0.0
C1982 C 0.61274 0.07558 0.3287 0.0
C1983 C 0.60095 0.08069 0.29999 0.0
C1984 C 0.59468 0.06256 0.34916 0.0
C1985 C 0.65547 0.078 0.36767 0.0
C1986 C 0.57554 0.03751 0.33796 0.0
C1987 C 0.55832 0.02569 0.35754 0.0
C1988 C 0.56012 0.03882 0.38852 0.0
C1989 C 0.57899 0.06408 0.39942 0.0
C1990 C 0.59593 0.07595 0.37979 0.0
H1991 H 0.67661 0.07813 0.36532 0.0
H1992 H 0.65674 0.0931 0.38868 0.0
H1993 H 0.64435 0.058 0.37187 0.0
H1994 H 0.57409 0.02704 0.31424 0.0
H1995 H 0.5439 0.00619 0.34856 0.0
H1996 H 0.79251 0.71455 0.34519 0.0
H1997 H 0.81928 0.68769 0.36909 0.0
H1998 H 0.82646 0.65248 0.2762 0.0
H1999 H 0.80058 0.67941 0.2524 0.0
H2000 H 0.81249 0.63407 0.36457 0.0
H2001 H 0.90512 0.67872 0.31764 0.0
H2002 H 0.87686 0.69271 0.31623 0.0
H2003 H 0.87603 0.6649 0.28667 0.0
C2004 C 0.79976 0.70104 0.32988 0.0
C2005 C 0.79458 0.69948 0.29683 0.0
C2006 C 0.81512 0.6857 0.34359 0.0
C2007 C 0.82562 0.66847 0.32456 0.0
C2008 C 0.81948 0.66618 0.29157 0.0
H2009 H 0.91286 0.5509 0.34365 0.0
H2010 H 0.88522 0.5792 0.32679 0.0
C2011 C 0.80443 0.68158 0.27794 0.0
C2012 C 0.84287 0.65275 0.33877 0.0
H2013 H 0.90334 0.63807 0.33715 0.0
C2014 C 0.83248 0.6352 0.35886 0.0
C2015 C 0.86913 0.65418 0.33158 0.0
C2016 C 0.88257 0.67385 0.31213 0.0
C2017 C 0.84709 0.61846 0.37082 0.0
C2018 C 0.87285 0.61929 0.36267 0.0
C2019 C 0.88348 0.63719 0.34317 0.0
C2020 C 0.88899 0.60148 0.37359 0.0
C2021 C 0.83453 0.59937 0.39134 0.0
C2022 C 0.90051 0.60453 0.4056 0.0
C2023 C 0.9168 0.58859 0.41537 0.0
C2024 C 0.92197 0.56909 0.39337 0.0
C2025 C 0.90995 0.56591 0.36135 0.0
C2026 C 0.89388 0.58199 0.35161 0.0
H2027 H 0.81268 0.59787 0.39109 0.0
H2028 H 0.83641 0.57915 0.38338 0.0
H2029 H 0.84558 0.60643 0.41609 0.0
H2030 H 0.89742 0.61969 0.42298 0.0
H2031 H 0.92594 0.59212 0.4401 0.0
H2032 H 0.31085 0.73582 0.32826 0.0
H2033 H 0.32965 0.76002 0.38271 0.0
H2034 H 0.31965 0.83253 0.35387 0.0
H2035 H 0.3014 0.80876 0.30017 0.0
H2036 H 0.37556 0.79975 0.39802 0.0
H2037 H 0.29607 0.83961 0.43817 0.0
H2038 H 0.28825 0.81144 0.40621 0.0
H2039 H 0.29744 0.84522 0.39855 0.0
C2040 C 0.31237 0.75685 0.33389 0.0
C2041 C 0.30452 0.77048 0.31027 0.0
C2042 C 0.32278 0.77052 0.36494 0.0
C2043 C 0.32521 0.79788 0.37262 0.0
C2044 C 0.3169 0.81121 0.34894 0.0
H2045 H 0.41687 0.93994 0.41593 0.0
H2046 H 0.38056 0.89811 0.4092 0.0
C2047 C 0.30669 0.79767 0.31812 0.0
C2048 C 0.34086 0.81409 0.40319 0.0
H2049 H 0.34334 0.8723 0.44974 0.0
C2050 C 0.36834 0.81495 0.41056 0.0
C2051 C 0.3313 0.83352 0.42005 0.0
C2052 C 0.30152 0.83212 0.41547 0.0
C2053 C 0.3873 0.83721 0.43022 0.0
C2054 C 0.37825 0.85877 0.44283 0.0
C2055 C 0.35025 0.85592 0.43949 0.0
C2056 C 0.39728 0.88597 0.45141 0.0
C2057 C 0.4172 0.83899 0.43398 0.0
C2058 C 0.41827 0.89322 0.47779 0.0
C2059 C 0.43919 0.91705 0.48143 0.0
C2060 C 0.43921 0.93394 0.45896 0.0
C2061 C 0.41738 0.92724 0.43355 0.0
C2062 C 0.39653 0.90351 0.42988 0.0
H2063 H 0.42076 0.82056 0.42207 0.0
H2064 H 0.42824 0.85617 0.42395 0.0
H2065 H 0.42606 0.84235 0.45947 0.0
H2066 H 0.41919 0.8799 0.4946 0.0
H2067 H 0.45603 0.92142 0.50079 0.0
H2068 H 0.22199 0.28954 0.34332 0.0
H2069 H 0.19231 0.31345 0.36602 0.0
H2070 H 0.17855 0.34327 0.27932 0.0
H2071 H 0.20772 0.31938 0.2564 0.0
H2072 H 0.19452 0.36754 0.37621 0.0
H2073 H 0.10116 0.30881 0.29131 0.0
H2074 H 0.13188 0.2986 0.29562 0.0
H2075 H 0.12875 0.32383 0.27243 0.0
C2076 C 0.21276 0.30128 0.32911 0.0
C2077 C 0.21718 0.30226 0.29787 0.0
C2078 C 0.19573 0.31493 0.34214 0.0
C2079 C 0.18263 0.32974 0.32418 0.0
C2080 C 0.18778 0.33146 0.29342 0.0
H2081 H 0.07349 0.42737 0.34772 0.0
H2082 H 0.10331 0.40186 0.32952 0.0
C2083 C 0.2047 0.31785 0.2804 0.0
C2084 C 0.16362 0.34344 0.33739 0.0
H2085 H 0.0985 0.34808 0.32324 0.0
C2086 C 0.17346 0.36312 0.3648 0.0
C2087 C 0.13607 0.33772 0.32257 0.0
C2088 C 0.12371 0.31591 0.29404 0.0
C2089 C 0.15686 0.37779 0.3771 0.0
C2090 C 0.12943 0.37235 0.36197 0.0
C2091 C 0.1195 0.35239 0.33484 0.0
C2092 C 0.11086 0.38752 0.37335 0.0
C2093 C 0.16916 0.39963 0.40559 0.0
C2094 C 0.10461 0.38768 0.40394 0.0
C2095 C 0.08736 0.4022 0.41443 0.0
C2096 C 0.07571 0.41678 0.39451 0.0
C2097 C 0.08166 0.41615 0.36367 0.0
C2098 C 0.09892 0.40167 0.35324 0.0
H2099 H 0.19178 0.40584 0.4094 0.0
H2100 H 0.16202 0.41744 0.40309 0.0
H2101 H 0.16281 0.39223 0.42699 0.0
H2102 H 0.11294 0.37642 0.4197 0.0
H2103 H 0.08296 0.40179 0.43812 0.0
H2104 H 0.28371 0.19048 0.63437 0.0
H2105 H 0.30884 0.16232 0.61002 0.0
H2106 H 0.38403 0.22516 0.64433 0.0
H2107 H 0.35902 0.25325 0.66926 0.0
H2108 H 0.34422 0.16683 0.56642 0.0
H2109 H 0.39747 0.16335 0.68516 0.0
H2110 H 0.36868 0.17645 0.67981 0.0
H2111 H 0.40194 0.19642 0.67651 0.0
C2112 C 0.30553 0.19851 0.63616 0.0
C2113 C 0.31943 0.22401 0.6539 0.0
C2114 C 0.31989 0.18236 0.62231 0.0
C2115 C 0.34841 0.19135 0.62599 0.0
C2116 C 0.3621 0.21754 0.64181 0.0
H2117 H 0.46896 0.10848 0.58751 0.0
H2118 H 0.44564 0.14205 0.60103 0.0
C2119 C 0.34776 0.23369 0.65576 0.0
C2120 C 0.3638 0.17277 0.61494 0.0
H2121 H 0.41031 0.14155 0.64121 0.0
C2122 C 0.35873 0.16135 0.58274 0.0
C2123 C 0.3826 0.16543 0.63627 0.0
C2124 C 0.38788 0.17581 0.6714 0.0
C2125 C 0.37217 0.14309 0.57125 0.0
C2126 C 0.39094 0.13572 0.59261 0.0
C2127 C 0.3961 0.14729 0.62477 0.0
C2128 C 0.40508 0.11565 0.58242 0.0
C2129 C 0.36634 0.13217 0.53628 0.0
C2130 C 0.39013 0.08955 0.56742 0.0
C2131 C 0.40344 0.07034 0.55954 0.0
C2132 C 0.43201 0.07666 0.56692 0.0
C2133 C 0.44694 0.10286 0.58174 0.0
C2134 C 0.43363 0.1221 0.58941 0.0
H2135 H 0.35895 0.14584 0.52233 0.0
H2136 H 0.38472 0.12878 0.52801 0.0
H2137 H 0.35014 0.11278 0.53141 0.0
H2138 H 0.36809 0.08379 0.56252 0.0
H2139 H 0.39127 0.05026 0.54864 0.0
H2140 H 0.76967 0.26588 0.65248 0.0
H2141 H 0.79374 0.29642 0.62118 0.0
H2142 H 0.80221 0.36316 0.69478 0.0
H2143 H 0.77823 0.33283 0.72649 0.0
H2144 H 0.79224 0.35486 0.6052 0.0
H2145 H 0.87984 0.34471 0.68786 0.0
H2146 H 0.84692 0.31999 0.67956 0.0
H2147 H 0.85176 0.35151 0.70438 0.0
C2148 C 0.77594 0.28714 0.66166 0.0
C2149 C 0.77271 0.29695 0.69228 0.0
C2150 C 0.78944 0.30453 0.6436 0.0
C2151 C 0.7998 0.33184 0.65593 0.0
C2152 C 0.79418 0.34204 0.68501 0.0
H2153 H 0.93723 0.45248 0.62755 0.0
H2154 H 0.89843 0.42509 0.64584 0.0
C2155 C 0.78059 0.32467 0.7031 0.0
C2156 C 0.82099 0.34847 0.64185 0.0
H2157 H 0.88996 0.37262 0.65074 0.0
C2158 C 0.81363 0.35889 0.61504 0.0
C2159 C 0.84874 0.35321 0.65476 0.0
C2160 C 0.85749 0.34172 0.68313 0.0
C2161 C 0.83363 0.37474 0.60116 0.0
C2162 C 0.86142 0.37965 0.6143 0.0
C2163 C 0.8686 0.36883 0.64085 0.0
C2164 C 0.88365 0.39677 0.6019 0.0
C2165 C 0.82493 0.38656 0.57312 0.0
C2166 C 0.88823 0.3897 0.57118 0.0
C2167 C 0.91043 0.40537 0.56061 0.0
C2168 C 0.92845 0.4281 0.5808 0.0
C2169 C 0.92382 0.43498 0.61155 0.0
C2170 C 0.90159 0.41946 0.62198 0.0
H2171 H 0.80313 0.38602 0.57057 0.0
H2172 H 0.83751 0.40757 0.57523 0.0
H2173 H 0.82777 0.3749 0.55122 0.0
H2174 H 0.87493 0.37189 0.55561 0.0
H2175 H 0.91354 0.39965 0.53676 0.0
H2176 H 0.19929 0.7283 0.68973 0.0
H2177 H 0.16901 0.70694 0.6394 0.0
H2178 H 0.20365 0.64096 0.63621 0.0
H2179 H 0.23514 0.66328 0.68555 0.0
H2180 H 0.19153 0.65153 0.57765 0.0
H2181 H 0.10337 0.64686 0.63988 0.0
H2182 H 0.12419 0.67996 0.63972 0.0
H2183 H 0.138 0.65798 0.66077 0.0
C2184 C 0.20066 0.70949 0.67804 0.0
C2185 C 0.21922 0.6973 0.69169 0.0
C2186 C 0.18329 0.6972 0.64935 0.0
C2187 C 0.18357 0.67202 0.63443 0.0
C2188 C 0.20299 0.66036 0.64735 0.0
H2189 H 0.08906 0.5284 0.54267 0.0
H2190 H 0.12713 0.56927 0.55724 0.0
C2191 C 0.22082 0.67301 0.67565 0.0
C2192 C 0.16222 0.65653 0.60717 0.0
H2193 H 0.09407 0.62482 0.58773 0.0
C2194 C 0.17015 0.64603 0.57961 0.0
C2195 C 0.13427 0.64948 0.60967 0.0
C2196 C 0.12438 0.65893 0.63914 0.0
C2197 C 0.15106 0.62741 0.55539 0.0
C2198 C 0.12351 0.61929 0.55887 0.0
C2199 C 0.11527 0.63136 0.58512 0.0
C2200 C 0.10397 0.59468 0.53988 0.0
C2201 C 0.16058 0.61558 0.52697 0.0
C2202 C 0.07865 0.5953 0.52413 0.0
C2203 C 0.05696 0.57183 0.51549 0.0
C2204 C 0.06041 0.54778 0.52304 0.0
C2205 C 0.08621 0.5468 0.5364 0.0
C2206 C 0.10796 0.57009 0.5445 0.0
H2207 H 0.17973 0.62923 0.52284 0.0
H2208 H 0.16464 0.59659 0.53111 0.0
H2209 H 0.14477 0.61114 0.50538 0.0
H2210 H 0.07511 0.61417 0.52087 0.0
H2211 H 0.037 0.5729 0.50555 0.0
loop_
_geom_bond_atom_site_label_1
_geom_bond_atom_site_label_2
_geom_bond_distance
_geom_bond_site_symmetry_2
_ccdc_geom_bond_type
Dy0 O4 2.398 . S
Dy0 O5 2.491 . S
Dy0 O6 2.403 . S
Dy0 O7 2.664 . S
Dy0 O11 2.326 . S
Dy0 O15 2.310 . S
Dy0 O16 2.351 . S
C1 O12 1.185 . S
C1 O13 1.355 . S
C2 O4 1.185 . S
C2 O5 1.355 . S
Dy3 O7 2.310 . S
Dy3 O10 2.351 . S
Dy3 O12 2.398 . S
Dy3 O13 2.491 . S
Dy3 O14 2.403 . S
Dy3 O15 2.664 . S
Dy3 O17 2.326 . S
O4 Dy0 2.398 . S
O4 C2 1.185 . S
O5 Dy0 2.491 . S
O5 C2 1.355 . S
O6 Dy0 2.403 . S
O6 C8 1.254 . S
O7 Dy0 2.664 . S
O7 Dy3 2.310 . S
O7 C8 1.268 . S
C8 O6 1.254 . S
C8 O7 1.268 . S
C9 O14 1.254 . S
C9 O15 1.268 . S
O10 Dy3 2.351 . S
O10 C18 1.249 . S
O11 Dy0 2.326 . S
O11 C18 1.267 . S
O12 C1 1.185 . S
O12 Dy3 2.398 . S
O13 C1 1.355 . S
O13 Dy3 2.491 . S
O14 Dy3 2.403 . S
O14 C9 1.254 . S
O15 Dy0 2.310 . S
O15 Dy3 2.664 . S
O15 C9 1.268 . S
O16 Dy0 2.351 . S
O16 C19 1.249 . S
O17 Dy3 2.326 . S
O17 C19 1.267 . S
C18 O10 1.249 . S
C18 O11 1.267 . S
C19 O16 1.249 . S
C19 O17 1.267 . S
Dy20 O24 2.398 . S
Dy20 O25 2.491 . S
Dy20 O26 2.403 . S
Dy20 O27 2.664 . S
Dy20 O31 2.326 . S
Dy20 O35 2.310 . S
Dy20 O36 2.351 . S
C21 O32 1.185 . S
C21 O33 1.355 . S
C22 O24 1.185 . S
C22 O25 1.355 . S
Dy23 O27 2.310 . S
Dy23 O30 2.351 . S
Dy23 O32 2.398 . S
Dy23 O33 2.491 . S
Dy23 O34 2.403 . S
Dy23 O35 2.664 . S
Dy23 O37 2.326 . S
O24 Dy20 2.398 . S
O24 C22 1.185 . S
O25 Dy20 2.491 . S
O25 C22 1.355 . S
O26 Dy20 2.403 . S
O26 C28 1.254 . S
O27 Dy20 2.664 . S
O27 Dy23 2.310 . S
O27 C28 1.268 . S
C28 O26 1.254 . S
C28 O27 1.268 . S
C29 O34 1.254 . S
C29 O35 1.268 . S
O30 Dy23 2.351 . S
O30 C38 1.249 . S
O31 Dy20 2.326 . S
O31 C38 1.267 . S
O32 C21 1.185 . S
O32 Dy23 2.398 . S
O33 C21 1.355 . S
O33 Dy23 2.491 . S
O34 Dy23 2.403 . S
O34 C29 1.254 . S
O35 Dy20 2.310 . S
O35 Dy23 2.664 . S
O35 C29 1.268 . S
O36 Dy20 2.351 . S
O36 C39 1.249 . S
O37 Dy23 2.326 . S
O37 C39 1.267 . S
C38 O30 1.249 . S
C38 O31 1.267 . S
C39 O36 1.249 . S
C39 O37 1.267 . S
Dy40 O44 2.398 . S
Dy40 O45 2.491 . S
Dy40 O46 2.403 . S
Dy40 O47 2.664 . S
Dy40 O51 2.326 . S
Dy40 O55 2.310 . S
Dy40 O56 2.351 . S
C41 O52 1.185 . S
C41 O53 1.355 . S
C42 O44 1.185 . S
C42 O45 1.355 . S
Dy43 O47 2.310 . S
Dy43 O50 2.351 . S
Dy43 O52 2.398 . S
Dy43 O53 2.491 . S
Dy43 O54 2.403 . S
Dy43 O55 2.664 . S
Dy43 O57 2.326 . S
O44 Dy40 2.398 . S
O44 C42 1.185 . S
O45 Dy40 2.491 . S
O45 C42 1.355 . S
O46 Dy40 2.403 . S
O46 C48 1.254 . S
O47 Dy40 2.664 . S
O47 Dy43 2.310 . S
O47 C48 1.268 . S
C48 O46 1.254 . S
C48 O47 1.268 . S
C49 O54 1.254 . S
C49 O55 1.268 . S
O50 Dy43 2.351 . S
O50 C58 1.249 . S
O51 Dy40 2.326 . S
O51 C58 1.267 . S
O52 C41 1.185 . S
O52 Dy43 2.398 . S
O53 C41 1.355 . S
O53 Dy43 2.491 . S
O54 Dy43 2.403 . S
O54 C49 1.254 . S
O55 Dy40 2.310 . S
O55 Dy43 2.664 . S
O55 C49 1.268 . S
O56 Dy40 2.351 . S
O56 C59 1.249 . S
O57 Dy43 2.326 . S
O57 C59 1.267 . S
C58 O50 1.249 . S
C58 O51 1.267 . S
C59 O56 1.249 . S
C59 O57 1.267 . S
Dy60 O64 2.398 . S
Dy60 O65 2.491 . S
Dy60 O66 2.403 . S
Dy60 O67 2.664 . S
Dy60 O71 2.326 . S
Dy60 O75 2.310 . S
Dy60 O76 2.351 . S
C61 O72 1.185 . S
C61 O73 1.355 . S
C62 O64 1.185 . S
C62 O65 1.355 . S
Dy63 O67 2.310 . S
Dy63 O70 2.351 . S
Dy63 O72 2.398 . S
Dy63 O73 2.491 . S
Dy63 O74 2.403 . S
Dy63 O75 2.664 . S
Dy63 O77 2.326 . S
O64 Dy60 2.398 . S
O64 C62 1.185 . S
O65 Dy60 2.491 . S
O65 C62 1.355 . S
O66 Dy60 2.403 . S
O66 C68 1.254 . S
O67 Dy60 2.664 . S
O67 Dy63 2.310 . S
O67 C68 1.268 . S
C68 O66 1.254 . S
C68 O67 1.268 . S
C69 O74 1.254 . S
C69 O75 1.268 . S
O70 Dy63 2.351 . S
O70 C78 1.249 . S
O71 Dy60 2.326 . S
O71 C78 1.267 . S
O72 C61 1.185 . S
O72 Dy63 2.398 . S
O73 C61 1.355 . S
O73 Dy63 2.491 . S
O74 Dy63 2.403 . S
O74 C69 1.254 . S
O75 Dy60 2.310 . S
O75 Dy63 2.664 . S
O75 C69 1.268 . S
O76 Dy60 2.351 . S
O76 C79 1.249 . S
O77 Dy63 2.326 . S
O77 C79 1.267 . S
C78 O70 1.249 . S
C78 O71 1.267 . S
C79 O76 1.249 . S
C79 O77 1.267 . S
Dy80 O84 2.398 . S
Dy80 O85 2.491 . S
Dy80 O86 2.403 . S
Dy80 O87 2.664 . S
Dy80 O91 2.326 . S
Dy80 O95 2.310 . S
Dy80 O96 2.351 . S
C81 O92 1.185 . S
C81 O93 1.355 . S
C82 O84 1.185 . S
C82 O85 1.355 . S
Dy83 O87 2.310 . S
Dy83 O90 2.351 . S
Dy83 O92 2.398 . S
Dy83 O93 2.491 . S
Dy83 O94 2.403 . S
Dy83 O95 2.664 . S
Dy83 O97 2.326 . S
O84 Dy80 2.398 . S
O84 C82 1.185 . S
O85 Dy80 2.491 . S
O85 C82 1.355 . S
O86 Dy80 2.403 . S
O86 C88 1.254 . S
O87 Dy80 2.664 . S
O87 Dy83 2.310 . S
O87 C88 1.268 . S
C88 O86 1.254 . S
C88 O87 1.268 . S
C89 O94 1.254 . S
C89 O95 1.268 . S
O90 Dy83 2.351 . S
O90 C98 1.249 . S
O91 Dy80 2.326 . S
O91 C98 1.267 . S
O92 C81 1.185 . S
O92 Dy83 2.398 . S
O93 C81 1.355 . S
O93 Dy83 2.491 . S
O94 Dy83 2.403 . S
O94 C89 1.254 . S
O95 Dy80 2.310 . S
O95 Dy83 2.664 . S
O95 C89 1.268 . S
O96 Dy80 2.351 . S
O96 C99 1.249 . S
O97 Dy83 2.326 . S
O97 C99 1.267 . S
C98 O90 1.249 . S
C98 O91 1.267 . S
C99 O96 1.249 . S
C99 O97 1.267 . S
Dy100 O104 2.398 . S
Dy100 O105 2.491 . S
Dy100 O106 2.403 . S
Dy100 O107 2.664 . S
Dy100 O111 2.326 . S
Dy100 O115 2.310 . S
Dy100 O116 2.351 . S
C101 O112 1.185 . S
C101 O113 1.355 . S
C102 O104 1.185 . S
C102 O105 1.355 . S
Dy103 O107 2.310 . S
Dy103 O110 2.351 . S
Dy103 O112 2.398 . S
Dy103 O113 2.491 . S
Dy103 O114 2.403 . S
Dy103 O115 2.664 . S
Dy103 O117 2.326 . S
O104 Dy100 2.398 . S
O104 C102 1.185 . S
O105 Dy100 2.491 . S
O105 C102 1.355 . S
O106 Dy100 2.403 . S
O106 C108 1.254 . S
O107 Dy100 2.664 . S
O107 Dy103 2.310 . S
O107 C108 1.268 . S
C108 O106 1.254 . S
C108 O107 1.268 . S
C109 O114 1.254 . S
C109 O115 1.268 . S
O110 Dy103 2.351 . S
O110 C118 1.249 . S
O111 Dy100 2.326 . S
O111 C118 1.267 . S
O112 C101 1.185 . S
O112 Dy103 2.398 . S
O113 C101 1.355 . S
O113 Dy103 2.491 . S
O114 Dy103 2.403 . S
O114 C109 1.254 . S
O115 Dy100 2.310 . S
O115 Dy103 2.664 . S
O115 C109 1.268 . S
O116 Dy100 2.351 . S
O116 C119 1.249 . S
O117 Dy103 2.326 . S
O117 C119 1.267 . S
C118 O110 1.249 . S
C118 O111 1.267 . S
C119 O116 1.249 . S
C119 O117 1.267 . S
Dy120 O124 2.398 . S
Dy120 O125 2.491 . S
Dy120 O126 2.403 . S
Dy120 O127 2.664 . S
Dy120 O131 2.326 . S
Dy120 O135 2.310 . S
Dy120 O136 2.351 . S
C121 O132 1.185 . S
C121 O133 1.355 . S
C122 O124 1.185 . S
C122 O125 1.355 . S
Dy123 O127 2.310 . S
Dy123 O130 2.351 . S
Dy123 O132 2.398 . S
Dy123 O133 2.491 . S
Dy123 O134 2.403 . S
Dy123 O135 2.664 . S
Dy123 O137 2.326 . S
O124 Dy120 2.398 . S
O124 C122 1.185 . S
O125 Dy120 2.491 . S
O125 C122 1.355 . S
O126 Dy120 2.403 . S
O126 C128 1.254 . S
O127 Dy120 2.664 . S
O127 Dy123 2.310 . S
O127 C128 1.268 . S
C128 O126 1.254 . S
C128 O127 1.268 . S
C129 O134 1.254 . S
C129 O135 1.268 . S
O130 Dy123 2.351 . S
O130 C138 1.249 . S
O131 Dy120 2.326 . S
O131 C138 1.267 . S
O132 C121 1.185 . S
O132 Dy123 2.398 . S
O133 C121 1.355 . S
O133 Dy123 2.491 . S
O134 Dy123 2.403 . S
O134 C129 1.254 . S
O135 Dy120 2.310 . S
O135 Dy123 2.664 . S
O135 C129 1.268 . S
O136 Dy120 2.351 . S
O136 C139 1.249 . S
O137 Dy123 2.326 . S
O137 C139 1.267 . S
C138 O130 1.249 . S
C138 O131 1.267 . S
C139 O136 1.249 . S
C139 O137 1.267 . S
Dy140 O144 2.398 . S
Dy140 O145 2.491 . S
Dy140 O146 2.403 . S
Dy140 O147 2.664 . S
Dy140 O151 2.326 . S
Dy140 O155 2.310 . S
Dy140 O156 2.351 . S
C141 O152 1.185 . S
C141 O153 1.355 . S
C142 O144 1.185 . S
C142 O145 1.355 . S
Dy143 O147 2.310 . S
Dy143 O150 2.351 . S
Dy143 O152 2.398 . S
Dy143 O153 2.491 . S
Dy143 O154 2.403 . S
Dy143 O155 2.664 . S
Dy143 O157 2.326 . S
O144 Dy140 2.398 . S
O144 C142 1.185 . S
O145 Dy140 2.491 . S
O145 C142 1.355 . S
O146 Dy140 2.403 . S
O146 C148 1.254 . S
O147 Dy140 2.664 . S
O147 Dy143 2.310 . S
O147 C148 1.268 . S
C148 O146 1.254 . S
C148 O147 1.268 . S
C149 O154 1.254 . S
C149 O155 1.268 . S
O150 Dy143 2.351 . S
O150 C158 1.249 . S
O151 Dy140 2.326 . S
O151 C158 1.267 . S
O152 C141 1.185 . S
O152 Dy143 2.398 . S
O153 C141 1.355 . S
O153 Dy143 2.491 . S
O154 Dy143 2.403 . S
O154 C149 1.254 . S
O155 Dy140 2.310 . S
O155 Dy143 2.664 . S
O155 C149 1.268 . S
O156 Dy140 2.351 . S
O156 C159 1.249 . S
O157 Dy143 2.326 . S
O157 C159 1.267 . S
C158 O150 1.249 . S
C158 O151 1.267 . S
C159 O156 1.249 . S
C159 O157 1.267 . S
Cd160 N163 2.334 1_655 S
Cd160 N189 2.304 1_565 S
Cd160 O196 2.268 . S
Cd160 O199 2.273 1_665 S
Cd160 O200 2.417 . S
Cd160 O201 2.330 . S
Cd161 N176 2.304 1_455 S
Cd161 N180 2.334 1_545 S
Cd161 O197 2.273 1_445 S
Cd161 O198 2.268 . S
Cd161 O202 2.417 . S
Cd161 O203 2.330 . S
C162 N163 1.332 . S
C162 C166 1.381 . S
C162 H168 0.931 . S
N163 Cd160 2.334 1_455 S
N163 C162 1.332 . S
N163 C167 1.328 . S
C164 C165 1.396 . S
C164 C167 1.378 . S
C164 H206 0.931 . S
C165 C164 1.396 . S
C165 C166 1.382 . S
C166 C162 1.381 . S
C166 C165 1.382 . S
C166 H207 0.930 . S
C167 N163 1.328 . S
C167 C164 1.378 . S
C167 H169 0.930 1_455 S
H168 C162 0.931 . S
H169 C167 0.930 1_655 S
C170 O196 1.238 . S
C170 O197 1.253 . S
C171 C172 1.379 . S
C171 N176 1.337 . S
C171 H177 0.929 . S
C172 C171 1.379 . S
C172 C173 1.380 . S
C172 H208 0.929 . S
C173 C172 1.380 . S
C173 C174 1.399 . S
C174 C173 1.399 . S
C174 C175 1.376 . S
C174 H209 0.931 . S
C175 C174 1.376 . S
C175 N176 1.338 . S
C175 H178 0.930 1_655 S
N176 Cd161 2.304 1_655 S
N176 C171 1.337 . S
N176 C175 1.338 . S
H177 C171 0.929 . S
H178 C175 0.930 1_455 S
C179 N180 1.332 . S
C179 C183 1.381 . S
C179 H185 0.931 . S
N180 Cd161 2.334 1_565 S
N180 C179 1.332 . S
N180 C184 1.328 . S
C181 C182 1.396 . S
C181 C184 1.378 . S
C181 H210 0.931 . S
C182 C181 1.396 . S
C182 C183 1.382 . S
C183 C179 1.381 . S
C183 C182 1.382 . S
C183 H211 0.930 . S
C184 N180 1.328 . S
C184 C181 1.378 . S
C184 H186 0.930 1_565 S
H185 C179 0.931 . S
H186 C184 0.930 1_545 S
C187 O198 1.238 . S
C187 O199 1.253 . S
C188 O200 1.239 . S
C188 O201 1.230 . S
N189 Cd160 2.304 1_545 S
N189 C190 1.337 . S
N189 C194 1.338 . S
C190 N189 1.337 . S
C190 C191 1.379 . S
C190 H204 0.929 . S
C191 C190 1.379 . S
C191 C192 1.380 . S
C191 H212 0.929 . S
C192 C191 1.380 . S
C192 C193 1.399 . S
C193 C192 1.399 . S
C193 C194 1.376 . S
C193 H213 0.931 . S
C194 N189 1.338 . S
C194 C193 1.376 . S
C194 H205 0.930 1_545 S
C195 O202 1.239 . S
C195 O203 1.230 . S
O196 Cd160 2.268 . S
O196 C170 1.238 . S
O197 Cd161 2.273 1_665 S
O197 C170 1.253 . S
O198 Cd161 2.268 . S
O198 C187 1.238 . S
O199 Cd160 2.273 1_445 S
O199 C187 1.253 . S
O200 Cd160 2.417 . S
O200 C188 1.239 . S
O201 Cd160 2.330 . S
O201 C188 1.230 . S
O202 Cd161 2.417 . S
O202 C195 1.239 . S
O203 Cd161 2.330 . S
O203 C195 1.230 . S
H204 C190 0.929 . S
H205 C194 0.930 1_565 S
H206 C164 0.931 . S
H207 C166 0.930 . S
H208 C172 0.929 . S
H209 C174 0.931 . S
H210 C181 0.931 . S
H211 C183 0.930 . S
H212 C191 0.929 . S
H213 C193 0.931 . S
Cd214 N217 2.334 . S
Cd214 N243 2.304 1_565 S
Cd214 O250 2.268 1_554 S
Cd214 O253 2.273 1_565 S
Cd214 O254 2.417 . S
Cd214 O255 2.330 . S
Cd215 N230 2.304 . S
Cd215 N234 2.334 1_545 S
Cd215 O251 2.273 1_545 S
Cd215 O252 2.268 1_556 S
Cd215 O256 2.417 . S
Cd215 O257 2.330 . S
C216 N217 1.332 . S
C216 C220 1.381 . S
C216 H222 0.931 . S
N217 Cd214 2.334 . S
N217 C216 1.332 . S
N217 C221 1.328 . S
C218 C219 1.396 . S
C218 C221 1.378 . S
C218 H260 0.931 1_554 S
C219 C218 1.396 . S
C219 C220 1.382 . S
C220 C216 1.381 . S
C220 C219 1.382 . S
C220 H261 0.930 . S
C221 N217 1.328 . S
C221 C218 1.378 . S
C221 H223 0.930 1_554 S
H222 C216 0.931 . S
H223 C221 0.930 1_556 S
C224 O250 1.238 . S
C224 O251 1.253 . S
C225 C226 1.379 . S
C225 N230 1.337 . S
C225 H231 0.929 . S
C226 C225 1.379 . S
C226 C227 1.380 . S
C226 H262 0.929 . S
C227 C226 1.380 . S
C227 C228 1.399 . S
C228 C227 1.399 . S
C228 C229 1.376 . S
C228 H263 0.931 1_556 S
C229 C228 1.376 . S
C229 N230 1.338 . S
C229 H232 0.930 1_556 S
N230 Cd215 2.304 . S
N230 C225 1.337 . S
N230 C229 1.338 . S
H231 C225 0.929 . S
H232 C229 0.930 1_554 S
C233 N234 1.332 . S
C233 C237 1.381 . S
C233 H239 0.931 . S
N234 Cd215 2.334 1_565 S
N234 C233 1.332 . S
N234 C238 1.328 . S
C235 C236 1.396 . S
C235 C238 1.378 . S
C235 H264 0.931 1_556 S
C236 C235 1.396 . S
C236 C237 1.382 . S
C237 C233 1.381 . S
C237 C236 1.382 . S
C237 H265 0.930 . S
C238 N234 1.328 . S
C238 C235 1.378 . S
C238 H240 0.930 1_566 S
H239 C233 0.931 . S
H240 C238 0.930 1_544 S
C241 O252 1.238 . S
C241 O253 1.253 . S
C242 O254 1.239 . S
C242 O255 1.230 . S
N243 Cd214 2.304 1_545 S
N243 C244 1.337 . S
N243 C248 1.338 . S
C244 N243 1.337 . S
C244 C245 1.379 . S
C244 H258 0.929 . S
C245 C244 1.379 . S
C245 C246 1.380 . S
C245 H266 0.929 . S
C246 C245 1.380 . S
C246 C247 1.399 . S
C247 C246 1.399 . S
C247 C248 1.376 . S
C247 H267 0.931 1_554 S
C248 N243 1.338 . S
C248 C247 1.376 . S
C248 H259 0.930 1_544 S
C249 O256 1.239 . S
C249 O257 1.230 . S
O250 Cd214 2.268 1_556 S
O250 C224 1.238 . S
O251 Cd215 2.273 1_565 S
O251 C224 1.253 . S
O252 Cd215 2.268 1_554 S
O252 C241 1.238 . S
O253 Cd214 2.273 1_545 S
O253 C241 1.253 . S
O254 Cd214 2.417 . S
O254 C242 1.239 . S
O255 Cd214 2.330 . S
O255 C242 1.230 . S
O256 Cd215 2.417 . S
O256 C249 1.239 . S
O257 Cd215 2.330 . S
O257 C249 1.230 . S
H258 C244 0.929 . S
H259 C248 0.930 1_566 S
H260 C218 0.931 1_556 S
H261 C220 0.930 . S
H262 C226 0.929 . S
H263 C228 0.931 1_554 S
H264 C235 0.931 1_554 S
H265 C237 0.930 . S
H266 C245 0.929 . S
H267 C247 0.931 1_556 S
Cd268 N271 2.334 1_655 S
Cd268 N297 2.304 . S
Cd268 O304 2.268 1_554 S
Cd268 O307 2.273 1_655 S
Cd268 O308 2.417 . S
Cd268 O309 2.330 . S
Cd269 N284 2.304 1_455 S
Cd269 N288 2.334 . S
Cd269 O305 2.273 1_455 S
Cd269 O306 2.268 1_556 S
Cd269 O310 2.417 . S
Cd269 O311 2.330 . S
C270 N271 1.332 . S
C270 C274 1.381 . S
C270 H276 0.931 . S
N271 Cd268 2.334 1_455 S
N271 C270 1.332 . S
N271 C275 1.328 . S
C272 C273 1.396 . S
C272 C275 1.378 . S
C272 H314 0.931 1_554 S
C273 C272 1.396 . S
C273 C274 1.382 . S
C274 C270 1.381 . S
C274 C273 1.382 . S
C274 H315 0.930 . S
C275 N271 1.328 . S
C275 C272 1.378 . S
C275 H277 0.930 1_454 S
H276 C270 0.931 . S
H277 C275 0.930 1_656 S
C278 O304 1.238 . S
C278 O305 1.253 . S
C279 C280 1.379 . S
C279 N284 1.337 . S
C279 H285 0.929 . S
C280 C279 1.379 . S
C280 C281 1.380 . S
C280 H316 0.929 . S
C281 C280 1.380 . S
C281 C282 1.399 . S
C282 C281 1.399 . S
C282 C283 1.376 . S
C282 H317 0.931 1_556 S
C283 C282 1.376 . S
C283 N284 1.338 . S
C283 H286 0.930 1_656 S
N284 Cd269 2.304 1_655 S
N284 C279 1.337 . S
N284 C283 1.338 . S
H285 C279 0.929 . S
H286 C283 0.930 1_454 S
C287 N288 1.332 . S
C287 C291 1.381 . S
C287 H293 0.931 . S
N288 Cd269 2.334 . S
N288 C287 1.332 . S
N288 C292 1.328 . S
C289 C290 1.396 . S
C289 C292 1.378 . S
C289 H318 0.931 1_556 S
C290 C289 1.396 . S
C290 C291 1.382 . S
C291 C287 1.381 . S
C291 C290 1.382 . S
C291 H319 0.930 . S
C292 N288 1.328 . S
C292 C289 1.378 . S
C292 H294 0.930 1_556 S
H293 C287 0.931 . S
H294 C292 0.930 1_554 S
C295 O306 1.238 . S
C295 O307 1.253 . S
C296 O308 1.239 . S
C296 O309 1.230 . S
N297 Cd268 2.304 . S
N297 C298 1.337 . S
N297 C302 1.338 . S
C298 N297 1.337 . S
C298 C299 1.379 . S
C298 H312 0.929 . S
C299 C298 1.379 . S
C299 C300 1.380 . S
C299 H320 0.929 . S
C300 C299 1.380 . S
C300 C301 1.399 . S
C301 C300 1.399 . S
C301 C302 1.376 . S
C301 H321 0.931 1_554 S
C302 N297 1.338 . S
C302 C301 1.376 . S
C302 H313 0.930 1_554 S
C303 O310 1.239 . S
C303 O311 1.230 . S
O304 Cd268 2.268 1_556 S
O304 C278 1.238 . S
O305 Cd269 2.273 1_655 S
O305 C278 1.253 . S
O306 Cd269 2.268 1_554 S
O306 C295 1.238 . S
O307 Cd268 2.273 1_455 S
O307 C295 1.253 . S
O308 Cd268 2.417 . S
O308 C296 1.239 . S
O309 Cd268 2.330 . S
O309 C296 1.230 . S
O310 Cd269 2.417 . S
O310 C303 1.239 . S
O311 Cd269 2.330 . S
O311 C303 1.230 . S
H312 C298 0.929 . S
H313 C302 0.930 1_556 S
H314 C272 0.931 1_556 S
H315 C274 0.930 . S
H316 C280 0.929 . S
H317 C282 0.931 1_554 S
H318 C289 0.931 1_554 S
H319 C291 0.930 . S
H320 C299 0.929 . S
H321 C301 0.931 1_556 S
Cd322 N325 2.334 . S
Cd322 N351 2.304 . S
Cd322 O358 2.268 1_554 S
Cd322 O361 2.273 . S
Cd322 O362 2.417 . S
Cd322 O363 2.330 . S
Cd323 N338 2.304 . S
Cd323 N342 2.334 . S
Cd323 O359 2.273 . S
Cd323 O360 2.268 1_556 S
Cd323 O364 2.417 . S
Cd323 O365 2.330 . S
C324 N325 1.332 . S
C324 C328 1.381 . S
C324 H330 0.931 . S
N325 Cd322 2.334 . S
N325 C324 1.332 . S
N325 C329 1.328 . S
C326 C327 1.396 . S
C326 C329 1.378 . S
C326 H368 0.931 1_554 S
C327 C326 1.396 . S
C327 C328 1.382 . S
C328 C324 1.381 . S
C328 C327 1.382 . S
C328 H369 0.930 . S
C329 N325 1.328 . S
C329 C326 1.378 . S
C329 H331 0.930 1_554 S
H330 C324 0.931 . S
H331 C329 0.930 1_556 S
C332 O358 1.238 . S
C332 O359 1.253 . S
C333 C334 1.379 . S
C333 N338 1.337 . S
C333 H339 0.929 . S
C334 C333 1.379 . S
C334 C335 1.380 . S
C334 H370 0.929 . S
C335 C334 1.380 . S
C335 C336 1.399 . S
C336 C335 1.399 . S
C336 C337 1.376 . S
C336 H371 0.931 1_556 S
C337 C336 1.376 . S
C337 N338 1.338 . S
C337 H340 0.930 1_556 S
N338 Cd323 2.304 . S
N338 C333 1.337 . S
N338 C337 1.338 . S
H339 C333 0.929 . S
H340 C337 0.930 1_554 S
C341 N342 1.332 . S
C341 C345 1.381 . S
C341 H347 0.931 . S
N342 Cd323 2.334 . S
N342 C341 1.332 . S
N342 C346 1.328 . S
C343 C344 1.396 . S
C343 C346 1.378 . S
C343 H372 0.931 1_556 S
C344 C343 1.396 . S
C344 C345 1.382 . S
C345 C341 1.381 . S
C345 C344 1.382 . S
C345 H373 0.930 . S
C346 N342 1.328 . S
C346 C343 1.378 . S
C346 H348 0.930 1_556 S
H347 C341 0.931 . S
H348 C346 0.930 1_554 S
C349 O360 1.238 . S
C349 O361 1.253 . S
C350 O362 1.239 . S
C350 O363 1.230 . S
N351 Cd322 2.304 . S
N351 C352 1.337 . S
N351 C356 1.338 . S
C352 N351 1.337 . S
C352 C353 1.379 . S
C352 H366 0.929 . S
C353 C352 1.379 . S
C353 C354 1.380 . S
C353 H374 0.929 . S
C354 C353 1.380 . S
C354 C355 1.399 . S
C355 C354 1.399 . S
C355 C356 1.376 . S
C355 H375 0.931 1_554 S
C356 N351 1.338 . S
C356 C355 1.376 . S
C356 H367 0.930 1_554 S
C357 O364 1.239 . S
C357 O365 1.230 . S
O358 Cd322 2.268 1_556 S
O358 C332 1.238 . S
O359 Cd323 2.273 . S
O359 C332 1.253 . S
O360 Cd323 2.268 1_554 S
O360 C349 1.238 . S
O361 Cd322 2.273 . S
O361 C349 1.253 . S
O362 Cd322 2.417 . S
O362 C350 1.239 . S
O363 Cd322 2.330 . S
O363 C350 1.230 . S
O364 Cd323 2.417 . S
O364 C357 1.239 . S
O365 Cd323 2.330 . S
O365 C357 1.230 . S
H366 C352 0.929 . S
H367 C356 0.930 1_556 S
H368 C326 0.931 1_556 S
H369 C328 0.930 . S
H370 C334 0.929 . S
H371 C336 0.931 1_554 S
H372 C343 0.931 1_554 S
H373 C345 0.930 . S
H374 C353 0.929 . S
H375 C355 0.931 1_556 S
Cd376 N379 2.334 1_655 S
Cd376 N405 2.304 . S
Cd376 O412 2.268 . S
Cd376 O415 2.273 1_655 S
Cd376 O416 2.417 . S
Cd376 O417 2.330 . S
Cd377 N392 2.304 1_455 S
Cd377 N396 2.334 . S
Cd377 O413 2.273 1_455 S
Cd377 O414 2.268 . S
Cd377 O418 2.417 . S
Cd377 O419 2.330 . S
C378 N379 1.332 . S
C378 C382 1.381 . S
C378 H384 0.931 . S
N379 Cd376 2.334 1_455 S
N379 C378 1.332 . S
N379 C383 1.328 . S
C380 C381 1.396 . S
C380 C383 1.378 . S
C380 H422 0.931 . S
C381 C380 1.396 . S
C381 C382 1.382 . S
C382 C378 1.381 . S
C382 C381 1.382 . S
C382 H423 0.930 . S
C383 N379 1.328 . S
C383 C380 1.378 . S
C383 H385 0.930 1_455 S
H384 C378 0.931 . S
H385 C383 0.930 1_655 S
C386 O412 1.238 . S
C386 O413 1.253 . S
C387 C388 1.379 . S
C387 N392 1.337 . S
C387 H393 0.929 . S
C388 C387 1.379 . S
C388 C389 1.380 . S
C388 H424 0.929 . S
C389 C388 1.380 . S
C389 C390 1.399 . S
C390 C389 1.399 . S
C390 C391 1.376 . S
C390 H425 0.931 . S
C391 C390 1.376 . S
C391 N392 1.338 . S
C391 H394 0.930 1_655 S
N392 Cd377 2.304 1_655 S
N392 C387 1.337 . S
N392 C391 1.338 . S
H393 C387 0.929 . S
H394 C391 0.930 1_455 S
C395 N396 1.332 . S
C395 C399 1.381 . S
C395 H401 0.931 . S
N396 Cd377 2.334 . S
N396 C395 1.332 . S
N396 C400 1.328 . S
C397 C398 1.396 . S
C397 C400 1.378 . S
C397 H426 0.931 . S
C398 C397 1.396 . S
C398 C399 1.382 . S
C399 C395 1.381 . S
C399 C398 1.382 . S
C399 H427 0.930 . S
C400 N396 1.328 . S
C400 C397 1.378 . S
C400 H402 0.930 . S
H401 C395 0.931 . S
H402 C400 0.930 . S
C403 O414 1.238 . S
C403 O415 1.253 . S
C404 O416 1.239 . S
C404 O417 1.230 . S
N405 Cd376 2.304 . S
N405 C406 1.337 . S
N405 C410 1.338 . S
C406 N405 1.337 . S
C406 C407 1.379 . S
C406 H420 0.929 . S
C407 C406 1.379 . S
C407 C408 1.380 . S
C407 H428 0.929 . S
C408 C407 1.380 . S
C408 C409 1.399 . S
C409 C408 1.399 . S
C409 C410 1.376 . S
C409 H429 0.931 . S
C410 N405 1.338 . S
C410 C409 1.376 . S
C410 H421 0.930 . S
C411 O418 1.239 . S
C411 O419 1.230 . S
O412 Cd376 2.268 . S
O412 C386 1.238 . S
O413 Cd377 2.273 1_655 S
O413 C386 1.253 . S
O414 Cd377 2.268 . S
O414 C403 1.238 . S
O415 Cd376 2.273 1_455 S
O415 C403 1.253 . S
O416 Cd376 2.417 . S
O416 C404 1.239 . S
O417 Cd376 2.330 . S
O417 C404 1.230 . S
O418 Cd377 2.417 . S
O418 C411 1.239 . S
O419 Cd377 2.330 . S
O419 C411 1.230 . S
H420 C406 0.929 . S
H421 C410 0.930 . S
H422 C380 0.931 . S
H423 C382 0.930 . S
H424 C388 0.929 . S
H425 C390 0.931 . S
H426 C397 0.931 . S
H427 C399 0.930 . S
H428 C407 0.929 . S
H429 C409 0.931 . S
Cd430 N433 2.334 . S
Cd430 N459 2.304 1_565 S
Cd430 O466 2.268 . S
Cd430 O469 2.273 1_565 S
Cd430 O470 2.417 . S
Cd430 O471 2.330 . S
Cd431 N446 2.304 . S
Cd431 N450 2.334 1_545 S
Cd431 O467 2.273 1_545 S
Cd431 O468 2.268 . S
Cd431 O472 2.417 . S
Cd431 O473 2.330 . S
C432 N433 1.332 . S
C432 C436 1.381 . S
C432 H438 0.931 . S
N433 Cd430 2.334 . S
N433 C432 1.332 . S
N433 C437 1.328 . S
C434 C435 1.396 . S
C434 C437 1.378 . S
C434 H476 0.931 . S
C435 C434 1.396 . S
C435 C436 1.382 . S
C436 C432 1.381 . S
C436 C435 1.382 . S
C436 H477 0.930 . S
C437 N433 1.328 . S
C437 C434 1.378 . S
C437 H439 0.930 . S
H438 C432 0.931 . S
H439 C437 0.930 . S
C440 O466 1.238 . S
C440 O467 1.253 . S
C441 C442 1.379 . S
C441 N446 1.337 . S
C441 H447 0.929 . S
C442 C441 1.379 . S
C442 C443 1.380 . S
C442 H478 0.929 . S
C443 C442 1.380 . S
C443 C444 1.399 . S
C444 C443 1.399 . S
C444 C445 1.376 . S
C444 H479 0.931 . S
C445 C444 1.376 . S
C445 N446 1.338 . S
C445 H448 0.930 . S
N446 Cd431 2.304 . S
N446 C441 1.337 . S
N446 C445 1.338 . S
H447 C441 0.929 . S
H448 C445 0.930 . S
C449 N450 1.332 . S
C449 C453 1.381 . S
C449 H455 0.931 . S
N450 Cd431 2.334 1_565 S
N450 C449 1.332 . S
N450 C454 1.328 . S
C451 C452 1.396 . S
C451 C454 1.378 . S
C451 H480 0.931 . S
C452 C451 1.396 . S
C452 C453 1.382 . S
C453 C449 1.381 . S
C453 C452 1.382 . S
C453 H481 0.930 . S
C454 N450 1.328 . S
C454 C451 1.378 . S
C454 H456 0.930 1_565 S
H455 C449 0.931 . S
H456 C454 0.930 1_545 S
C457 O468 1.238 . S
C457 O469 1.253 . S
C458 O470 1.239 . S
C458 O471 1.230 . S
N459 Cd430 2.304 1_545 S
N459 C460 1.337 . S
N459 C464 1.338 . S
C460 N459 1.337 . S
C460 C461 1.379 . S
C460 H474 0.929 . S
C461 C460 1.379 . S
C461 C462 1.380 . S
C461 H482 0.929 . S
C462 C461 1.380 . S
C462 C463 1.399 . S
C463 C462 1.399 . S
C463 C464 1.376 . S
C463 H483 0.931 . S
C464 N459 1.338 . S
C464 C463 1.376 . S
C464 H475 0.930 1_545 S
C465 O472 1.239 . S
C465 O473 1.230 . S
O466 Cd430 2.268 . S
O466 C440 1.238 . S
O467 Cd431 2.273 1_565 S
O467 C440 1.253 . S
O468 Cd431 2.268 . S
O468 C457 1.238 . S
O469 Cd430 2.273 1_545 S
O469 C457 1.253 . S
O470 Cd430 2.417 . S
O470 C458 1.239 . S
O471 Cd430 2.330 . S
O471 C458 1.230 . S
O472 Cd431 2.417 . S
O472 C465 1.239 . S
O473 Cd431 2.330 . S
O473 C465 1.230 . S
H474 C460 0.929 . S
H475 C464 0.930 1_565 S
H476 C434 0.931 . S
H477 C436 0.930 . S
H478 C442 0.929 . S
H479 C444 0.931 . S
H480 C451 0.931 . S
H481 C453 0.930 . S
H482 C461 0.929 . S
H483 C463 0.931 . S
H484 C492 0.929 . S
H485 C494 0.930 . S
H486 C496 0.930 . S
H487 C499 0.929 . S
H488 C502 0.930 . S
H489 C504 0.960 . S
H490 C504 0.960 . S
H491 C504 0.960 . S
C492 H484 0.929 . S
C492 C493 1.377 . S
C492 C494 1.384 . S
C493 C492 1.377 . S
C493 C499 1.390 . S
C494 H485 0.930 . S
C494 C492 1.384 . S
C494 C495 1.372 . S
C495 C494 1.372 . S
C495 C496 1.400 . S
C495 C500 1.490 . S
C496 H486 0.930 . S
C496 C495 1.400 . S
C496 C499 1.386 . S
H497 C513 0.930 . S
H498 C514 0.931 . S
C499 H487 0.929 . S
C499 C493 1.390 . S
C499 C496 1.386 . S
C500 C495 1.490 . S
C500 C502 1.395 . S
C500 C503 1.403 . S
H501 C507 0.930 . S
C502 H488 0.930 . S
C502 C500 1.395 . S
C502 C505 1.403 . S
C503 C500 1.403 . S
C503 C504 1.524 . S
C503 C507 1.400 . S
C504 H489 0.960 . S
C504 H490 0.960 . S
C504 H491 0.960 . S
C504 C503 1.524 . S
C505 C502 1.403 . S
C505 C506 1.392 . S
C505 C509 1.495 . S
C506 C505 1.392 . S
C506 C507 1.385 . S
C506 C508 1.478 . S
C507 H501 0.930 . S
C507 C503 1.400 . S
C507 C506 1.385 . S
C508 C506 1.478 . S
C508 C510 1.381 . S
C508 C514 1.383 . S
C509 C505 1.495 . S
C509 H515 0.959 . S
C509 H516 0.961 . S
C509 H517 0.960 . S
C510 C508 1.381 . S
C510 C511 1.394 . S
C510 H518 0.930 . S
C511 C510 1.394 . S
C511 C512 1.383 . S
C511 H519 0.929 . S
C512 C511 1.383 . S
C512 C513 1.377 . S
C513 H497 0.930 . S
C513 C512 1.377 . S
C513 C514 1.379 . S
C514 H498 0.931 . S
C514 C508 1.383 . S
C514 C513 1.379 . S
H515 C509 0.959 . S
H516 C509 0.961 . S
H517 C509 0.960 . S
H518 C510 0.930 . S
H519 C511 0.929 . S
H520 C528 0.929 . S
H521 C530 0.930 . S
H522 C532 0.930 . S
H523 C535 0.929 . S
H524 C538 0.930 . S
H525 C540 0.960 . S
H526 C540 0.960 . S
H527 C540 0.960 . S
C528 H520 0.929 . S
C528 C529 1.377 . S
C528 C530 1.384 . S
C529 C528 1.377 . S
C529 C535 1.390 . S
C530 H521 0.930 . S
C530 C528 1.384 . S
C530 C531 1.372 . S
C531 C530 1.372 . S
C531 C532 1.400 . S
C531 C536 1.490 . S
C532 H522 0.930 . S
C532 C531 1.400 . S
C532 C535 1.386 . S
H533 C549 0.930 . S
H534 C550 0.931 . S
C535 H523 0.929 . S
C535 C529 1.390 . S
C535 C532 1.386 . S
C536 C531 1.490 . S
C536 C538 1.395 . S
C536 C539 1.403 . S
H537 C543 0.930 . S
C538 H524 0.930 . S
C538 C536 1.395 . S
C538 C541 1.403 . S
C539 C536 1.403 . S
C539 C540 1.524 . S
C539 C543 1.400 . S
C540 H525 0.960 . S
C540 H526 0.960 . S
C540 H527 0.960 . S
C540 C539 1.524 . S
C541 C538 1.403 . S
C541 C542 1.392 . S
C541 C545 1.495 . S
C542 C541 1.392 . S
C542 C543 1.385 . S
C542 C544 1.478 . S
C543 H537 0.930 . S
C543 C539 1.400 . S
C543 C542 1.385 . S
C544 C542 1.478 . S
C544 C546 1.381 . S
C544 C550 1.383 . S
C545 C541 1.495 . S
C545 H551 0.959 . S
C545 H552 0.961 . S
C545 H553 0.960 . S
C546 C544 1.381 . S
C546 C547 1.394 . S
C546 H554 0.930 . S
C547 C546 1.394 . S
C547 C548 1.383 . S
C547 H555 0.929 . S
C548 C547 1.383 . S
C548 C549 1.377 . S
C549 H533 0.930 . S
C549 C548 1.377 . S
C549 C550 1.379 . S
C550 H534 0.931 . S
C550 C544 1.383 . S
C550 C549 1.379 . S
H551 C545 0.959 . S
H552 C545 0.961 . S
H553 C545 0.960 . S
H554 C546 0.930 . S
H555 C547 0.929 . S
H556 C564 0.929 . S
H557 C566 0.930 . S
H558 C568 0.930 . S
H559 C571 0.929 . S
H560 C574 0.930 . S
H561 C576 0.960 . S
H562 C576 0.960 . S
H563 C576 0.960 . S
C564 H556 0.929 . S
C564 C565 1.377 . S
C564 C566 1.384 . S
C565 C564 1.377 . S
C565 C571 1.390 . S
C566 H557 0.930 . S
C566 C564 1.384 . S
C566 C567 1.372 . S
C567 C566 1.372 . S
C567 C568 1.400 . S
C567 C572 1.490 . S
C568 H558 0.930 . S
C568 C567 1.400 . S
C568 C571 1.386 . S
H569 C585 0.930 . S
H570 C586 0.931 . S
C571 H559 0.929 . S
C571 C565 1.390 . S
C571 C568 1.386 . S
C572 C567 1.490 . S
C572 C574 1.395 . S
C572 C575 1.403 . S
H573 C579 0.930 . S
C574 H560 0.930 . S
C574 C572 1.395 . S
C574 C577 1.403 . S
C575 C572 1.403 . S
C575 C576 1.524 . S
C575 C579 1.400 . S
C576 H561 0.960 . S
C576 H562 0.960 . S
C576 H563 0.960 . S
C576 C575 1.524 . S
C577 C574 1.403 . S
C577 C578 1.392 . S
C577 C581 1.495 . S
C578 C577 1.392 . S
C578 C579 1.385 . S
C578 C580 1.478 . S
C579 H573 0.930 . S
C579 C575 1.400 . S
C579 C578 1.385 . S
C580 C578 1.478 . S
C580 C582 1.381 . S
C580 C586 1.383 . S
C581 C577 1.495 . S
C581 H587 0.959 . S
C581 H588 0.961 . S
C581 H589 0.960 . S
C582 C580 1.381 . S
C582 C583 1.394 . S
C582 H590 0.930 . S
C583 C582 1.394 . S
C583 C584 1.383 . S
C583 H591 0.929 . S
C584 C583 1.383 . S
C584 C585 1.377 . S
C585 H569 0.930 . S
C585 C584 1.377 . S
C585 C586 1.379 . S
C586 H570 0.931 . S
C586 C580 1.383 . S
C586 C585 1.379 . S
H587 C581 0.959 . S
H588 C581 0.961 . S
H589 C581 0.960 . S
H590 C582 0.930 . S
H591 C583 0.929 . S
H592 C600 0.929 . S
H593 C602 0.930 . S
H594 C604 0.930 . S
H595 C607 0.929 . S
H596 C610 0.930 . S
H597 C612 0.960 . S
H598 C612 0.960 . S
H599 C612 0.960 . S
C600 H592 0.929 . S
C600 C601 1.377 . S
C600 C602 1.384 . S
C601 C600 1.377 . S
C601 C607 1.390 . S
C602 H593 0.930 . S
C602 C600 1.384 . S
C602 C603 1.372 . S
C603 C602 1.372 . S
C603 C604 1.400 . S
C603 C608 1.490 . S
C604 H594 0.930 . S
C604 C603 1.400 . S
C604 C607 1.386 . S
H605 C621 0.930 . S
H606 C622 0.931 . S
C607 H595 0.929 . S
C607 C601 1.390 . S
C607 C604 1.386 . S
C608 C603 1.490 . S
C608 C610 1.395 . S
C608 C611 1.403 . S
H609 C615 0.930 . S
C610 H596 0.930 . S
C610 C608 1.395 . S
C610 C613 1.403 . S
C611 C608 1.403 . S
C611 C612 1.524 . S
C611 C615 1.400 . S
C612 H597 0.960 . S
C612 H598 0.960 . S
C612 H599 0.960 . S
C612 C611 1.524 . S
C613 C610 1.403 . S
C613 C614 1.392 . S
C613 C617 1.495 . S
C614 C613 1.392 . S
C614 C615 1.385 . S
C614 C616 1.478 . S
C615 H609 0.930 . S
C615 C611 1.400 . S
C615 C614 1.385 . S
C616 C614 1.478 . S
C616 C618 1.381 . S
C616 C622 1.383 . S
C617 C613 1.495 . S
C617 H623 0.959 . S
C617 H624 0.961 . S
C617 H625 0.960 . S
C618 C616 1.381 . S
C618 C619 1.394 . S
C618 H626 0.930 . S
C619 C618 1.394 . S
C619 C620 1.383 . S
C619 H627 0.929 . S
C620 C619 1.383 . S
C620 C621 1.377 . S
C621 H605 0.930 . S
C621 C620 1.377 . S
C621 C622 1.379 . S
C622 H606 0.931 . S
C622 C616 1.383 . S
C622 C621 1.379 . S
H623 C617 0.959 . S
H624 C617 0.961 . S
H625 C617 0.960 . S
H626 C618 0.930 . S
H627 C619 0.929 . S
H628 C636 0.929 . S
H629 C638 0.930 . S
H630 C640 0.930 . S
H631 C643 0.929 . S
H632 C646 0.930 . S
H633 C648 0.960 . S
H634 C648 0.960 . S
H635 C648 0.960 . S
C636 H628 0.929 . S
C636 C637 1.377 . S
C636 C638 1.384 . S
C637 C636 1.377 . S
C637 C643 1.390 . S
C638 H629 0.930 . S
C638 C636 1.384 . S
C638 C639 1.372 . S
C639 C638 1.372 . S
C639 C640 1.400 . S
C639 C644 1.490 . S
C640 H630 0.930 . S
C640 C639 1.400 . S
C640 C643 1.386 . S
H641 C657 0.930 . S
H642 C658 0.931 . S
C643 H631 0.929 . S
C643 C637 1.390 . S
C643 C640 1.386 . S
C644 C639 1.490 . S
C644 C646 1.395 . S
C644 C647 1.403 . S
H645 C651 0.930 . S
C646 H632 0.930 . S
C646 C644 1.395 . S
C646 C649 1.403 . S
C647 C644 1.403 . S
C647 C648 1.524 . S
C647 C651 1.400 . S
C648 H633 0.960 . S
C648 H634 0.960 . S
C648 H635 0.960 . S
C648 C647 1.524 . S
C649 C646 1.403 . S
C649 C650 1.392 . S
C649 C653 1.495 . S
C650 C649 1.392 . S
C650 C651 1.385 . S
C650 C652 1.478 . S
C651 H645 0.930 . S
C651 C647 1.400 . S
C651 C650 1.385 . S
C652 C650 1.478 . S
C652 C654 1.381 . S
C652 C658 1.383 . S
C653 C649 1.495 . S
C653 H659 0.959 . S
C653 H660 0.961 . S
C653 H661 0.960 . S
C654 C652 1.381 . S
C654 C655 1.394 . S
C654 H662 0.930 . S
C655 C654 1.394 . S
C655 C656 1.383 . S
C655 H663 0.929 . S
C656 C655 1.383 . S
C656 C657 1.377 . S
C657 H641 0.930 . S
C657 C656 1.377 . S
C657 C658 1.379 . S
C658 H642 0.931 . S
C658 C652 1.383 . S
C658 C657 1.379 . S
H659 C653 0.959 . S
H660 C653 0.961 . S
H661 C653 0.960 . S
H662 C654 0.930 . S
H663 C655 0.929 . S
H664 C672 0.929 . S
H665 C674 0.930 . S
H666 C676 0.930 . S
H667 C679 0.929 . S
H668 C682 0.930 . S
H669 C684 0.960 . S
H670 C684 0.960 . S
H671 C684 0.960 . S
C672 H664 0.929 . S
C672 C673 1.377 . S
C672 C674 1.384 . S
C673 C672 1.377 . S
C673 C679 1.390 . S
C674 H665 0.930 . S
C674 C672 1.384 . S
C674 C675 1.372 . S
C675 C674 1.372 . S
C675 C676 1.400 . S
C675 C680 1.490 . S
C676 H666 0.930 . S
C676 C675 1.400 . S
C676 C679 1.386 . S
H677 C693 0.930 . S
H678 C694 0.931 . S
C679 H667 0.929 . S
C679 C673 1.390 . S
C679 C676 1.386 . S
C680 C675 1.490 . S
C680 C682 1.395 . S
C680 C683 1.403 . S
H681 C687 0.930 . S
C682 H668 0.930 . S
C682 C680 1.395 . S
C682 C685 1.403 . S
C683 C680 1.403 . S
C683 C684 1.524 . S
C683 C687 1.400 . S
C684 H669 0.960 . S
C684 H670 0.960 . S
C684 H671 0.960 . S
C684 C683 1.524 . S
C685 C682 1.403 . S
C685 C686 1.392 . S
C685 C689 1.495 . S
C686 C685 1.392 . S
C686 C687 1.385 . S
C686 C688 1.478 . S
C687 H681 0.930 . S
C687 C683 1.400 . S
C687 C686 1.385 . S
C688 C686 1.478 . S
C688 C690 1.381 . S
C688 C694 1.383 . S
C689 C685 1.495 . S
C689 H695 0.959 . S
C689 H696 0.961 . S
C689 H697 0.960 . S
C690 C688 1.381 . S
C690 C691 1.394 . S
C690 H698 0.930 . S
C691 C690 1.394 . S
C691 C692 1.383 . S
C691 H699 0.929 . S
C692 C691 1.383 . S
C692 C693 1.377 . S
C693 H677 0.930 . S
C693 C692 1.377 . S
C693 C694 1.379 . S
C694 H678 0.931 . S
C694 C688 1.383 . S
C694 C693 1.379 . S
H695 C689 0.959 . S
H696 C689 0.961 . S
H697 C689 0.960 . S
H698 C690 0.930 . S
H699 C691 0.929 . S
H700 C708 0.929 . S
H701 C710 0.930 . S
H702 C712 0.930 . S
H703 C715 0.929 . S
H704 C718 0.930 . S
H705 C720 0.960 . S
H706 C720 0.960 . S
H707 C720 0.960 . S
C708 H700 0.929 . S
C708 C709 1.377 . S
C708 C710 1.384 . S
C709 C708 1.377 . S
C709 C715 1.390 . S
C710 H701 0.930 . S
C710 C708 1.384 . S
C710 C711 1.372 . S
C711 C710 1.372 . S
C711 C712 1.400 . S
C711 C716 1.490 . S
C712 H702 0.930 . S
C712 C711 1.400 . S
C712 C715 1.386 . S
H713 C729 0.930 . S
H714 C730 0.931 . S
C715 H703 0.929 . S
C715 C709 1.390 . S
C715 C712 1.386 . S
C716 C711 1.490 . S
C716 C718 1.395 . S
C716 C719 1.403 . S
H717 C723 0.930 . S
C718 H704 0.930 . S
C718 C716 1.395 . S
C718 C721 1.403 . S
C719 C716 1.403 . S
C719 C720 1.524 . S
C719 C723 1.400 . S
C720 H705 0.960 . S
C720 H706 0.960 . S
C720 H707 0.960 . S
C720 C719 1.524 . S
C721 C718 1.403 . S
C721 C722 1.392 . S
C721 C725 1.495 . S
C722 C721 1.392 . S
C722 C723 1.385 . S
C722 C724 1.478 . S
C723 H717 0.930 . S
C723 C719 1.400 . S
C723 C722 1.385 . S
C724 C722 1.478 . S
C724 C726 1.381 . S
C724 C730 1.383 . S
C725 C721 1.495 . S
C725 H731 0.959 . S
C725 H732 0.961 . S
C725 H733 0.960 . S
C726 C724 1.381 . S
C726 C727 1.394 . S
C726 H734 0.930 . S
C727 C726 1.394 . S
C727 C728 1.383 . S
C727 H735 0.929 . S
C728 C727 1.383 . S
C728 C729 1.377 . S
C729 H713 0.930 . S
C729 C728 1.377 . S
C729 C730 1.379 . S
C730 H714 0.931 . S
C730 C724 1.383 . S
C730 C729 1.379 . S
H731 C725 0.959 . S
H732 C725 0.961 . S
H733 C725 0.960 . S
H734 C726 0.930 . S
H735 C727 0.929 . S
H736 C744 0.929 . S
H737 C746 0.930 . S
H738 C748 0.930 . S
H739 C751 0.929 . S
H740 C754 0.930 . S
H741 C756 0.960 . S
H742 C756 0.960 . S
H743 C756 0.960 . S
C744 H736 0.929 . S
C744 C745 1.377 . S
C744 C746 1.384 . S
C745 C744 1.377 . S
C745 C751 1.390 . S
C746 H737 0.930 . S
C746 C744 1.384 . S
C746 C747 1.372 . S
C747 C746 1.372 . S
C747 C748 1.400 . S
C747 C752 1.490 . S
C748 H738 0.930 . S
C748 C747 1.400 . S
C748 C751 1.386 . S
H749 C765 0.930 . S
H750 C766 0.931 . S
C751 H739 0.929 . S
C751 C745 1.390 . S
C751 C748 1.386 . S
C752 C747 1.490 . S
C752 C754 1.395 . S
C752 C755 1.403 . S
H753 C759 0.930 . S
C754 H740 0.930 . S
C754 C752 1.395 . S
C754 C757 1.403 . S
C755 C752 1.403 . S
C755 C756 1.524 . S
C755 C759 1.400 . S
C756 H741 0.960 . S
C756 H742 0.960 . S
C756 H743 0.960 . S
C756 C755 1.524 . S
C757 C754 1.403 . S
C757 C758 1.392 . S
C757 C761 1.495 . S
C758 C757 1.392 . S
C758 C759 1.385 . S
C758 C760 1.478 . S
C759 H753 0.930 . S
C759 C755 1.400 . S
C759 C758 1.385 . S
C760 C758 1.478 . S
C760 C762 1.381 . S
C760 C766 1.383 . S
C761 C757 1.495 . S
C761 H767 0.959 . S
C761 H768 0.961 . S
C761 H769 0.960 . S
C762 C760 1.381 . S
C762 C763 1.394 . S
C762 H770 0.930 . S
C763 C762 1.394 . S
C763 C764 1.383 . S
C763 H771 0.929 . S
C764 C763 1.383 . S
C764 C765 1.377 . S
C765 H749 0.930 . S
C765 C764 1.377 . S
C765 C766 1.379 . S
C766 H750 0.931 . S
C766 C760 1.383 . S
C766 C765 1.379 . S
H767 C761 0.959 . S
H768 C761 0.961 . S
H769 C761 0.960 . S
H770 C762 0.930 . S
H771 C763 0.929 . S
H772 C780 0.929 . S
H773 C782 0.930 . S
H774 C784 0.930 . S
H775 C787 0.929 . S
H776 C790 0.930 . S
H777 C792 0.960 . S
H778 C792 0.960 . S
H779 C792 0.960 . S
C780 H772 0.929 . S
C780 C781 1.377 . S
C780 C782 1.384 . S
C781 C780 1.377 . S
C781 C787 1.390 . S
C782 H773 0.930 . S
C782 C780 1.384 . S
C782 C783 1.372 . S
C783 C782 1.372 . S
C783 C784 1.400 . S
C783 C788 1.490 . S
C784 H774 0.930 . S
C784 C783 1.400 . S
C784 C787 1.386 . S
H785 C801 0.930 . S
H786 C802 0.931 . S
C787 H775 0.929 . S
C787 C781 1.390 . S
C787 C784 1.386 . S
C788 C783 1.490 . S
C788 C790 1.395 . S
C788 C791 1.403 . S
H789 C795 0.930 . S
C790 H776 0.930 . S
C790 C788 1.395 . S
C790 C793 1.403 . S
C791 C788 1.403 . S
C791 C792 1.524 . S
C791 C795 1.400 . S
C792 H777 0.960 . S
C792 H778 0.960 . S
C792 H779 0.960 . S
C792 C791 1.524 . S
C793 C790 1.403 . S
C793 C794 1.392 . S
C793 C797 1.495 . S
C794 C793 1.392 . S
C794 C795 1.385 . S
C794 C796 1.478 . S
C795 H789 0.930 . S
C795 C791 1.400 . S
C795 C794 1.385 . S
C796 C794 1.478 . S
C796 C798 1.381 . S
C796 C802 1.383 . S
C797 C793 1.495 . S
C797 H803 0.959 . S
C797 H804 0.961 . S
C797 H805 0.960 . S
C798 C796 1.381 . S
C798 C799 1.394 . S
C798 H806 0.930 . S
C799 C798 1.394 . S
C799 C800 1.383 . S
C799 H807 0.929 . S
C800 C799 1.383 . S
C800 C801 1.377 . S
C801 H785 0.930 . S
C801 C800 1.377 . S
C801 C802 1.379 . S
C802 H786 0.931 . S
C802 C796 1.383 . S
C802 C801 1.379 . S
H803 C797 0.959 . S
H804 C797 0.961 . S
H805 C797 0.960 . S
H806 C798 0.930 . S
H807 C799 0.929 . S
H808 C816 0.929 . S
H809 C818 0.930 . S
H810 C820 0.930 . S
H811 C823 0.929 . S
H812 C826 0.930 . S
H813 C828 0.960 . S
H814 C828 0.960 . S
H815 C828 0.960 . S
C816 H808 0.929 . S
C816 C817 1.377 . S
C816 C818 1.384 . S
C817 C816 1.377 . S
C817 C823 1.390 . S
C818 H809 0.930 . S
C818 C816 1.384 . S
C818 C819 1.372 . S
C819 C818 1.372 . S
C819 C820 1.400 . S
C819 C824 1.490 . S
C820 H810 0.930 . S
C820 C819 1.400 . S
C820 C823 1.386 . S
H821 C837 0.930 . S
H822 C838 0.931 . S
C823 H811 0.929 . S
C823 C817 1.390 . S
C823 C820 1.386 . S
C824 C819 1.490 . S
C824 C826 1.395 . S
C824 C827 1.403 . S
H825 C831 0.930 . S
C826 H812 0.930 . S
C826 C824 1.395 . S
C826 C829 1.403 . S
C827 C824 1.403 . S
C827 C828 1.524 . S
C827 C831 1.400 . S
C828 H813 0.960 . S
C828 H814 0.960 . S
C828 H815 0.960 . S
C828 C827 1.524 . S
C829 C826 1.403 . S
C829 C830 1.392 . S
C829 C833 1.495 . S
C830 C829 1.392 . S
C830 C831 1.385 . S
C830 C832 1.478 . S
C831 H825 0.930 . S
C831 C827 1.400 . S
C831 C830 1.385 . S
C832 C830 1.478 . S
C832 C834 1.381 . S
C832 C838 1.383 . S
C833 C829 1.495 . S
C833 H839 0.959 . S
C833 H840 0.961 . S
C833 H841 0.960 . S
C834 C832 1.381 . S
C834 C835 1.394 . S
C834 H842 0.930 . S
C835 C834 1.394 . S
C835 C836 1.383 . S
C835 H843 0.929 . S
C836 C835 1.383 . S
C836 C837 1.377 . S
C837 H821 0.930 . S
C837 C836 1.377 . S
C837 C838 1.379 . S
C838 H822 0.931 . S
C838 C832 1.383 . S
C838 C837 1.379 . S
H839 C833 0.959 . S
H840 C833 0.961 . S
H841 C833 0.960 . S
H842 C834 0.930 . S
H843 C835 0.929 . S
H844 C852 0.929 . S
H845 C854 0.930 . S
H846 C856 0.930 . S
H847 C859 0.929 . S
H848 C862 0.930 . S
H849 C864 0.960 . S
H850 C864 0.960 . S
H851 C864 0.960 . S
C852 H844 0.929 . S
C852 C853 1.377 . S
C852 C854 1.384 . S
C853 C852 1.377 . S
C853 C859 1.390 . S
C854 H845 0.930 . S
C854 C852 1.384 . S
C854 C855 1.372 . S
C855 C854 1.372 . S
C855 C856 1.400 . S
C855 C860 1.490 . S
C856 H846 0.930 . S
C856 C855 1.400 . S
C856 C859 1.386 . S
H857 C873 0.930 . S
H858 C874 0.931 . S
C859 H847 0.929 . S
C859 C853 1.390 . S
C859 C856 1.386 . S
C860 C855 1.490 . S
C860 C862 1.395 . S
C860 C863 1.403 . S
H861 C867 0.930 . S
C862 H848 0.930 . S
C862 C860 1.395 . S
C862 C865 1.403 . S
C863 C860 1.403 . S
C863 C864 1.524 . S
C863 C867 1.400 . S
C864 H849 0.960 . S
C864 H850 0.960 . S
C864 H851 0.960 . S
C864 C863 1.524 . S
C865 C862 1.403 . S
C865 C866 1.392 . S
C865 C869 1.495 . S
C866 C865 1.392 . S
C866 C867 1.385 . S
C866 C868 1.478 . S
C867 H861 0.930 . S
C867 C863 1.400 . S
C867 C866 1.385 . S
C868 C866 1.478 . S
C868 C870 1.381 . S
C868 C874 1.383 . S
C869 C865 1.495 . S
C869 H875 0.959 . S
C869 H876 0.961 . S
C869 H877 0.960 . S
C870 C868 1.381 . S
C870 C871 1.394 . S
C870 H878 0.930 . S
C871 C870 1.394 . S
C871 C872 1.383 . S
C871 H879 0.929 . S
C872 C871 1.383 . S
C872 C873 1.377 . S
C873 H857 0.930 . S
C873 C872 1.377 . S
C873 C874 1.379 . S
C874 H858 0.931 . S
C874 C868 1.383 . S
C874 C873 1.379 . S
H875 C869 0.959 . S
H876 C869 0.961 . S
H877 C869 0.960 . S
H878 C870 0.930 . S
H879 C871 0.929 . S
H880 C888 0.929 . S
H881 C890 0.930 . S
H882 C892 0.930 . S
H883 C895 0.929 . S
H884 C898 0.930 . S
H885 C900 0.960 . S
H886 C900 0.960 . S
H887 C900 0.960 . S
C888 H880 0.929 . S
C888 C889 1.377 . S
C888 C890 1.384 . S
C889 C888 1.377 . S
C889 C895 1.390 . S
C890 H881 0.930 . S
C890 C888 1.384 . S
C890 C891 1.372 . S
C891 C890 1.372 . S
C891 C892 1.400 . S
C891 C896 1.490 . S
C892 H882 0.930 . S
C892 C891 1.400 . S
C892 C895 1.386 . S
H893 C909 0.930 . S
H894 C910 0.931 . S
C895 H883 0.929 . S
C895 C889 1.390 . S
C895 C892 1.386 . S
C896 C891 1.490 . S
C896 C898 1.395 . S
C896 C899 1.403 . S
H897 C903 0.930 . S
C898 H884 0.930 . S
C898 C896 1.395 . S
C898 C901 1.403 . S
C899 C896 1.403 . S
C899 C900 1.524 . S
C899 C903 1.400 . S
C900 H885 0.960 . S
C900 H886 0.960 . S
C900 H887 0.960 . S
C900 C899 1.524 . S
C901 C898 1.403 . S
C901 C902 1.392 . S
C901 C905 1.495 . S
C902 C901 1.392 . S
C902 C903 1.385 . S
C902 C904 1.478 . S
C903 H897 0.930 . S
C903 C899 1.400 . S
C903 C902 1.385 . S
C904 C902 1.478 . S
C904 C906 1.381 . S
C904 C910 1.383 . S
C905 C901 1.495 . S
C905 H911 0.959 . S
C905 H912 0.961 . S
C905 H913 0.960 . S
C906 C904 1.381 . S
C906 C907 1.394 . S
C906 H914 0.930 . S
C907 C906 1.394 . S
C907 C908 1.383 . S
C907 H915 0.929 . S
C908 C907 1.383 . S
C908 C909 1.377 . S
C909 H893 0.930 . S
C909 C908 1.377 . S
C909 C910 1.379 . S
C910 H894 0.931 . S
C910 C904 1.383 . S
C910 C909 1.379 . S
H911 C905 0.959 . S
H912 C905 0.961 . S
H913 C905 0.960 . S
H914 C906 0.930 . S
H915 C907 0.929 . S
H916 C924 0.929 . S
H917 C926 0.930 . S
H918 C928 0.930 . S
H919 C931 0.929 . S
H920 C934 0.930 . S
H921 C936 0.960 . S
H922 C936 0.960 . S
H923 C936 0.960 . S
C924 H916 0.929 . S
C924 C925 1.377 . S
C924 C926 1.384 . S
C925 C924 1.377 . S
C925 C931 1.390 . S
C926 H917 0.930 . S
C926 C924 1.384 . S
C926 C927 1.372 . S
C927 C926 1.372 . S
C927 C928 1.400 . S
C927 C932 1.490 . S
C928 H918 0.930 . S
C928 C927 1.400 . S
C928 C931 1.386 . S
H929 C945 0.930 . S
H930 C946 0.931 . S
C931 H919 0.929 . S
C931 C925 1.390 . S
C931 C928 1.386 . S
C932 C927 1.490 . S
C932 C934 1.395 . S
C932 C935 1.403 . S
H933 C939 0.930 . S
C934 H920 0.930 . S
C934 C932 1.395 . S
C934 C937 1.403 . S
C935 C932 1.403 . S
C935 C936 1.524 . S
C935 C939 1.400 . S
C936 H921 0.960 . S
C936 H922 0.960 . S
C936 H923 0.960 . S
C936 C935 1.524 . S
C937 C934 1.403 . S
C937 C938 1.392 . S
C937 C941 1.495 . S
C938 C937 1.392 . S
C938 C939 1.385 . S
C938 C940 1.478 . S
C939 H933 0.930 . S
C939 C935 1.400 . S
C939 C938 1.385 . S
C940 C938 1.478 . S
C940 C942 1.381 . S
C940 C946 1.383 . S
C941 C937 1.495 . S
C941 H947 0.959 . S
C941 H948 0.961 . S
C941 H949 0.960 . S
C942 C940 1.381 . S
C942 C943 1.394 . S
C942 H950 0.930 . S
C943 C942 1.394 . S
C943 C944 1.383 . S
C943 H951 0.929 . S
C944 C943 1.383 . S
C944 C945 1.377 . S
C945 H929 0.930 . S
C945 C944 1.377 . S
C945 C946 1.379 . S
C946 H930 0.931 . S
C946 C940 1.383 . S
C946 C945 1.379 . S
H947 C941 0.959 . S
H948 C941 0.961 . S
H949 C941 0.960 . S
H950 C942 0.930 . S
H951 C943 0.929 . S
H952 C960 0.929 . S
H953 C962 0.930 . S
H954 C964 0.930 . S
H955 C967 0.929 . S
H956 C970 0.930 . S
H957 C972 0.960 . S
H958 C972 0.960 . S
H959 C972 0.960 . S
C960 H952 0.929 . S
C960 C961 1.377 . S
C960 C962 1.384 . S
C961 C960 1.377 . S
C961 C967 1.390 . S
C962 H953 0.930 . S
C962 C960 1.384 . S
C962 C963 1.372 . S
C963 C962 1.372 . S
C963 C964 1.400 . S
C963 C968 1.490 . S
C964 H954 0.930 . S
C964 C963 1.400 . S
C964 C967 1.386 . S
H965 C981 0.930 . S
H966 C982 0.931 . S
C967 H955 0.929 . S
C967 C961 1.390 . S
C967 C964 1.386 . S
C968 C963 1.490 . S
C968 C970 1.395 . S
C968 C971 1.403 . S
H969 C975 0.930 . S
C970 H956 0.930 . S
C970 C968 1.395 . S
C970 C973 1.403 . S
C971 C968 1.403 . S
C971 C972 1.524 . S
C971 C975 1.400 . S
C972 H957 0.960 . S
C972 H958 0.960 . S
C972 H959 0.960 . S
C972 C971 1.524 . S
C973 C970 1.403 . S
C973 C974 1.392 . S
C973 C977 1.495 . S
C974 C973 1.392 . S
C974 C975 1.385 . S
C974 C976 1.478 . S
C975 H969 0.930 . S
C975 C971 1.400 . S
C975 C974 1.385 . S
C976 C974 1.478 . S
C976 C978 1.381 . S
C976 C982 1.383 . S
C977 C973 1.495 . S
C977 H983 0.959 . S
C977 H984 0.961 . S
C977 H985 0.960 . S
C978 C976 1.381 . S
C978 C979 1.394 . S
C978 H986 0.930 . S
C979 C978 1.394 . S
C979 C980 1.383 . S
C979 H987 0.929 . S
C980 C979 1.383 . S
C980 C981 1.377 . S
C981 H965 0.930 . S
C981 C980 1.377 . S
C981 C982 1.379 . S
C982 H966 0.931 . S
C982 C976 1.383 . S
C982 C981 1.379 . S
H983 C977 0.959 . S
H984 C977 0.961 . S
H985 C977 0.960 . S
H986 C978 0.930 . S
H987 C979 0.929 . S
H988 C996 0.929 . S
H989 C998 0.930 . S
H990 C1000 0.930 . S
H991 C1003 0.929 . S
H992 C1006 0.930 . S
H993 C1008 0.960 . S
H994 C1008 0.960 . S
H995 C1008 0.960 . S
C996 H988 0.929 . S
C996 C997 1.377 . S
C996 C998 1.384 . S
C997 C996 1.377 . S
C997 C1003 1.390 . S
C998 H989 0.930 . S
C998 C996 1.384 . S
C998 C999 1.372 . S
C999 C998 1.372 . S
C999 C1000 1.400 . S
C999 C1004 1.490 . S
C1000 H990 0.930 . S
C1000 C999 1.400 . S
C1000 C1003 1.386 . S
H1001 C1017 0.930 . S
H1002 C1018 0.931 . S
C1003 H991 0.929 . S
C1003 C997 1.390 . S
C1003 C1000 1.386 . S
C1004 C999 1.490 . S
C1004 C1006 1.395 . S
C1004 C1007 1.403 . S
H1005 C1011 0.930 . S
C1006 H992 0.930 . S
C1006 C1004 1.395 . S
C1006 C1009 1.403 . S
C1007 C1004 1.403 . S
C1007 C1008 1.524 . S
C1007 C1011 1.400 . S
C1008 H993 0.960 . S
C1008 H994 0.960 . S
C1008 H995 0.960 . S
C1008 C1007 1.524 . S
C1009 C1006 1.403 . S
C1009 C1010 1.392 . S
C1009 C1013 1.495 . S
C1010 C1009 1.392 . S
C1010 C1011 1.385 . S
C1010 C1012 1.478 . S
C1011 H1005 0.930 . S
C1011 C1007 1.400 . S
C1011 C1010 1.385 . S
C1012 C1010 1.478 . S
C1012 C1014 1.381 . S
C1012 C1018 1.383 . S
C1013 C1009 1.495 . S
C1013 H1019 0.959 . S
C1013 H1020 0.961 . S
C1013 H1021 0.960 . S
C1014 C1012 1.381 . S
C1014 C1015 1.394 . S
C1014 H1022 0.930 . S
C1015 C1014 1.394 . S
C1015 C1016 1.383 . S
C1015 H1023 0.929 . S
C1016 C1015 1.383 . S
C1016 C1017 1.377 . S
C1017 H1001 0.930 . S
C1017 C1016 1.377 . S
C1017 C1018 1.379 . S
C1018 H1002 0.931 . S
C1018 C1012 1.383 . S
C1018 C1017 1.379 . S
H1019 C1013 0.959 . S
H1020 C1013 0.961 . S
H1021 C1013 0.960 . S
H1022 C1014 0.930 . S
H1023 C1015 0.929 . S
H1024 C1032 0.929 . S
H1025 C1034 0.930 . S
H1026 C1036 0.930 . S
H1027 C1039 0.929 . S
H1028 C1042 0.930 . S
H1029 C1044 0.960 . S
H1030 C1044 0.960 . S
H1031 C1044 0.960 . S
C1032 H1024 0.929 . S
C1032 C1033 1.377 . S
C1032 C1034 1.384 . S
C1033 C1032 1.377 . S
C1033 C1039 1.390 . S
C1034 H1025 0.930 . S
C1034 C1032 1.384 . S
C1034 C1035 1.372 . S
C1035 C1034 1.372 . S
C1035 C1036 1.400 . S
C1035 C1040 1.490 . S
C1036 H1026 0.930 . S
C1036 C1035 1.400 . S
C1036 C1039 1.386 . S
H1037 C1053 0.930 . S
H1038 C1054 0.931 . S
C1039 H1027 0.929 . S
C1039 C1033 1.390 . S
C1039 C1036 1.386 . S
C1040 C1035 1.490 . S
C1040 C1042 1.395 . S
C1040 C1043 1.403 . S
H1041 C1047 0.930 . S
C1042 H1028 0.930 . S
C1042 C1040 1.395 . S
C1042 C1045 1.403 . S
C1043 C1040 1.403 . S
C1043 C1044 1.524 . S
C1043 C1047 1.400 . S
C1044 H1029 0.960 . S
C1044 H1030 0.960 . S
C1044 H1031 0.960 . S
C1044 C1043 1.524 . S
C1045 C1042 1.403 . S
C1045 C1046 1.392 . S
C1045 C1049 1.495 . S
C1046 C1045 1.392 . S
C1046 C1047 1.385 . S
C1046 C1048 1.478 . S
C1047 H1041 0.930 . S
C1047 C1043 1.400 . S
C1047 C1046 1.385 . S
C1048 C1046 1.478 . S
C1048 C1050 1.381 . S
C1048 C1054 1.383 . S
C1049 C1045 1.495 . S
C1049 H1055 0.959 . S
C1049 H1056 0.961 . S
C1049 H1057 0.960 . S
C1050 C1048 1.381 . S
C1050 C1051 1.394 . S
C1050 H1058 0.930 . S
C1051 C1050 1.394 . S
C1051 C1052 1.383 . S
C1051 H1059 0.929 . S
C1052 C1051 1.383 . S
C1052 C1053 1.377 . S
C1053 H1037 0.930 . S
C1053 C1052 1.377 . S
C1053 C1054 1.379 . S
C1054 H1038 0.931 . S
C1054 C1048 1.383 . S
C1054 C1053 1.379 . S
H1055 C1049 0.959 . S
H1056 C1049 0.961 . S
H1057 C1049 0.960 . S
H1058 C1050 0.930 . S
H1059 C1051 0.929 . S
H1060 C1068 0.929 . S
H1061 C1070 0.930 . S
H1062 C1072 0.930 . S
H1063 C1075 0.929 . S
H1064 C1078 0.930 . S
H1065 C1080 0.960 . S
H1066 C1080 0.960 . S
H1067 C1080 0.960 . S
C1068 H1060 0.929 . S
C1068 C1069 1.377 . S
C1068 C1070 1.384 . S
C1069 C1068 1.377 . S
C1069 C1075 1.390 . S
C1070 H1061 0.930 . S
C1070 C1068 1.384 . S
C1070 C1071 1.372 . S
C1071 C1070 1.372 . S
C1071 C1072 1.400 . S
C1071 C1076 1.490 . S
C1072 H1062 0.930 . S
C1072 C1071 1.400 . S
C1072 C1075 1.386 . S
H1073 C1089 0.930 . S
H1074 C1090 0.931 . S
C1075 H1063 0.929 . S
C1075 C1069 1.390 . S
C1075 C1072 1.386 . S
C1076 C1071 1.490 . S
C1076 C1078 1.395 . S
C1076 C1079 1.403 . S
H1077 C1083 0.930 . S
C1078 H1064 0.930 . S
C1078 C1076 1.395 . S
C1078 C1081 1.403 . S
C1079 C1076 1.403 . S
C1079 C1080 1.524 . S
C1079 C1083 1.400 . S
C1080 H1065 0.960 . S
C1080 H1066 0.960 . S
C1080 H1067 0.960 . S
C1080 C1079 1.524 . S
C1081 C1078 1.403 . S
C1081 C1082 1.392 . S
C1081 C1085 1.495 . S
C1082 C1081 1.392 . S
C1082 C1083 1.385 . S
C1082 C1084 1.478 . S
C1083 H1077 0.930 . S
C1083 C1079 1.400 . S
C1083 C1082 1.385 . S
C1084 C1082 1.478 . S
C1084 C1086 1.381 . S
C1084 C1090 1.383 . S
C1085 C1081 1.495 . S
C1085 H1091 0.959 . S
C1085 H1092 0.961 . S
C1085 H1093 0.960 . S
C1086 C1084 1.381 . S
C1086 C1087 1.394 . S
C1086 H1094 0.930 . S
C1087 C1086 1.394 . S
C1087 C1088 1.383 . S
C1087 H1095 0.929 . S
C1088 C1087 1.383 . S
C1088 C1089 1.377 . S
C1089 H1073 0.930 . S
C1089 C1088 1.377 . S
C1089 C1090 1.379 . S
C1090 H1074 0.931 . S
C1090 C1084 1.383 . S
C1090 C1089 1.379 . S
H1091 C1085 0.959 . S
H1092 C1085 0.961 . S
H1093 C1085 0.960 . S
H1094 C1086 0.930 . S
H1095 C1087 0.929 . S
H1096 C1104 0.929 . S
H1097 C1106 0.930 . S
H1098 C1108 0.930 . S
H1099 C1111 0.929 . S
H1100 C1114 0.930 . S
H1101 C1116 0.960 . S
H1102 C1116 0.960 . S
H1103 C1116 0.960 . S
C1104 H1096 0.929 . S
C1104 C1105 1.377 . S
C1104 C1106 1.384 . S
C1105 C1104 1.377 . S
C1105 C1111 1.390 . S
C1106 H1097 0.930 . S
C1106 C1104 1.384 . S
C1106 C1107 1.372 . S
C1107 C1106 1.372 . S
C1107 C1108 1.400 . S
C1107 C1112 1.490 . S
C1108 H1098 0.930 . S
C1108 C1107 1.400 . S
C1108 C1111 1.386 . S
H1109 C1125 0.930 . S
H1110 C1126 0.931 . S
C1111 H1099 0.929 . S
C1111 C1105 1.390 . S
C1111 C1108 1.386 . S
C1112 C1107 1.490 . S
C1112 C1114 1.395 . S
C1112 C1115 1.403 . S
H1113 C1119 0.930 . S
C1114 H1100 0.930 . S
C1114 C1112 1.395 . S
C1114 C1117 1.403 . S
C1115 C1112 1.403 . S
C1115 C1116 1.524 . S
C1115 C1119 1.400 . S
C1116 H1101 0.960 . S
C1116 H1102 0.960 . S
C1116 H1103 0.960 . S
C1116 C1115 1.524 . S
C1117 C1114 1.403 . S
C1117 C1118 1.392 . S
C1117 C1121 1.495 . S
C1118 C1117 1.392 . S
C1118 C1119 1.385 . S
C1118 C1120 1.478 . S
C1119 H1113 0.930 . S
C1119 C1115 1.400 . S
C1119 C1118 1.385 . S
C1120 C1118 1.478 . S
C1120 C1122 1.381 . S
C1120 C1126 1.383 . S
C1121 C1117 1.495 . S
C1121 H1127 0.959 . S
C1121 H1128 0.961 . S
C1121 H1129 0.960 . S
C1122 C1120 1.381 . S
C1122 C1123 1.394 . S
C1122 H1130 0.930 . S
C1123 C1122 1.394 . S
C1123 C1124 1.383 . S
C1123 H1131 0.929 . S
C1124 C1123 1.383 . S
C1124 C1125 1.377 . S
C1125 H1109 0.930 . S
C1125 C1124 1.377 . S
C1125 C1126 1.379 . S
C1126 H1110 0.931 . S
C1126 C1120 1.383 . S
C1126 C1125 1.379 . S
H1127 C1121 0.959 . S
H1128 C1121 0.961 . S
H1129 C1121 0.960 . S
H1130 C1122 0.930 . S
H1131 C1123 0.929 . S
H1132 C1140 0.929 . S
H1133 C1142 0.930 . S
H1134 C1144 0.930 . S
H1135 C1147 0.929 . S
H1136 C1150 0.930 . S
H1137 C1152 0.960 . S
H1138 C1152 0.960 . S
H1139 C1152 0.960 . S
C1140 H1132 0.929 . S
C1140 C1141 1.377 . S
C1140 C1142 1.384 . S
C1141 C1140 1.377 . S
C1141 C1147 1.390 . S
C1142 H1133 0.930 . S
C1142 C1140 1.384 . S
C1142 C1143 1.372 . S
C1143 C1142 1.372 . S
C1143 C1144 1.400 . S
C1143 C1148 1.490 . S
C1144 H1134 0.930 . S
C1144 C1143 1.400 . S
C1144 C1147 1.386 . S
H1145 C1161 0.930 . S
H1146 C1162 0.931 . S
C1147 H1135 0.929 . S
C1147 C1141 1.390 . S
C1147 C1144 1.386 . S
C1148 C1143 1.490 . S
C1148 C1150 1.395 . S
C1148 C1151 1.403 . S
H1149 C1155 0.930 . S
C1150 H1136 0.930 . S
C1150 C1148 1.395 . S
C1150 C1153 1.403 . S
C1151 C1148 1.403 . S
C1151 C1152 1.524 . S
C1151 C1155 1.400 . S
C1152 H1137 0.960 . S
C1152 H1138 0.960 . S
C1152 H1139 0.960 . S
C1152 C1151 1.524 . S
C1153 C1150 1.403 . S
C1153 C1154 1.392 . S
C1153 C1157 1.495 . S
C1154 C1153 1.392 . S
C1154 C1155 1.385 . S
C1154 C1156 1.478 . S
C1155 H1149 0.930 . S
C1155 C1151 1.400 . S
C1155 C1154 1.385 . S
C1156 C1154 1.478 . S
C1156 C1158 1.381 . S
C1156 C1162 1.383 . S
C1157 C1153 1.495 . S
C1157 H1163 0.959 . S
C1157 H1164 0.961 . S
C1157 H1165 0.960 . S
C1158 C1156 1.381 . S
C1158 C1159 1.394 . S
C1158 H1166 0.930 . S
C1159 C1158 1.394 . S
C1159 C1160 1.383 . S
C1159 H1167 0.929 . S
C1160 C1159 1.383 . S
C1160 C1161 1.377 . S
C1161 H1145 0.930 . S
C1161 C1160 1.377 . S
C1161 C1162 1.379 . S
C1162 H1146 0.931 . S
C1162 C1156 1.383 . S
C1162 C1161 1.379 . S
H1163 C1157 0.959 . S
H1164 C1157 0.961 . S
H1165 C1157 0.960 . S
H1166 C1158 0.930 . S
H1167 C1159 0.929 . S
H1168 C1176 0.929 . S
H1169 C1178 0.930 . S
H1170 C1180 0.930 . S
H1171 C1183 0.929 . S
H1172 C1186 0.930 . S
H1173 C1188 0.960 . S
H1174 C1188 0.960 . S
H1175 C1188 0.960 . S
C1176 H1168 0.929 . S
C1176 C1177 1.377 . S
C1176 C1178 1.384 . S
C1177 C1176 1.377 . S
C1177 C1183 1.390 . S
C1178 H1169 0.930 . S
C1178 C1176 1.384 . S
C1178 C1179 1.372 . S
C1179 C1178 1.372 . S
C1179 C1180 1.400 . S
C1179 C1184 1.490 . S
C1180 H1170 0.930 . S
C1180 C1179 1.400 . S
C1180 C1183 1.386 . S
H1181 C1197 0.930 . S
H1182 C1198 0.931 . S
C1183 H1171 0.929 . S
C1183 C1177 1.390 . S
C1183 C1180 1.386 . S
C1184 C1179 1.490 . S
C1184 C1186 1.395 . S
C1184 C1187 1.403 . S
H1185 C1191 0.930 . S
C1186 H1172 0.930 . S
C1186 C1184 1.395 . S
C1186 C1189 1.403 . S
C1187 C1184 1.403 . S
C1187 C1188 1.524 . S
C1187 C1191 1.400 . S
C1188 H1173 0.960 . S
C1188 H1174 0.960 . S
C1188 H1175 0.960 . S
C1188 C1187 1.524 . S
C1189 C1186 1.403 . S
C1189 C1190 1.392 . S
C1189 C1193 1.495 . S
C1190 C1189 1.392 . S
C1190 C1191 1.385 . S
C1190 C1192 1.478 . S
C1191 H1185 0.930 . S
C1191 C1187 1.400 . S
C1191 C1190 1.385 . S
C1192 C1190 1.478 . S
C1192 C1194 1.381 . S
C1192 C1198 1.383 . S
C1193 C1189 1.495 . S
C1193 H1199 0.959 . S
C1193 H1200 0.961 . S
C1193 H1201 0.960 . S
C1194 C1192 1.381 . S
C1194 C1195 1.394 . S
C1194 H1202 0.930 . S
C1195 C1194 1.394 . S
C1195 C1196 1.383 . S
C1195 H1203 0.929 . S
C1196 C1195 1.383 . S
C1196 C1197 1.377 . S
C1197 H1181 0.930 . S
C1197 C1196 1.377 . S
C1197 C1198 1.379 . S
C1198 H1182 0.931 . S
C1198 C1192 1.383 . S
C1198 C1197 1.379 . S
H1199 C1193 0.959 . S
H1200 C1193 0.961 . S
H1201 C1193 0.960 . S
H1202 C1194 0.930 . S
H1203 C1195 0.929 . S
H1204 C1212 0.929 . S
H1205 C1214 0.930 . S
H1206 C1216 0.930 . S
H1207 C1219 0.929 . S
H1208 C1222 0.930 . S
H1209 C1224 0.960 . S
H1210 C1224 0.960 . S
H1211 C1224 0.960 . S
C1212 H1204 0.929 . S
C1212 C1213 1.377 . S
C1212 C1214 1.384 . S
C1213 C1212 1.377 . S
C1213 C1219 1.390 . S
C1214 H1205 0.930 . S
C1214 C1212 1.384 . S
C1214 C1215 1.372 . S
C1215 C1214 1.372 . S
C1215 C1216 1.400 . S
C1215 C1220 1.490 . S
C1216 H1206 0.930 . S
C1216 C1215 1.400 . S
C1216 C1219 1.386 . S
H1217 C1233 0.930 . S
H1218 C1234 0.931 . S
C1219 H1207 0.929 . S
C1219 C1213 1.390 . S
C1219 C1216 1.386 . S
C1220 C1215 1.490 . S
C1220 C1222 1.395 . S
C1220 C1223 1.403 . S
H1221 C1227 0.930 . S
C1222 H1208 0.930 . S
C1222 C1220 1.395 . S
C1222 C1225 1.403 . S
C1223 C1220 1.403 . S
C1223 C1224 1.524 . S
C1223 C1227 1.400 . S
C1224 H1209 0.960 . S
C1224 H1210 0.960 . S
C1224 H1211 0.960 . S
C1224 C1223 1.524 . S
C1225 C1222 1.403 . S
C1225 C1226 1.392 . S
C1225 C1229 1.495 . S
C1226 C1225 1.392 . S
C1226 C1227 1.385 . S
C1226 C1228 1.478 . S
C1227 H1221 0.930 . S
C1227 C1223 1.400 . S
C1227 C1226 1.385 . S
C1228 C1226 1.478 . S
C1228 C1230 1.381 . S
C1228 C1234 1.383 . S
C1229 C1225 1.495 . S
C1229 H1235 0.959 . S
C1229 H1236 0.961 . S
C1229 H1237 0.960 . S
C1230 C1228 1.381 . S
C1230 C1231 1.394 . S
C1230 H1238 0.930 . S
C1231 C1230 1.394 . S
C1231 C1232 1.383 . S
C1231 H1239 0.929 . S
C1232 C1231 1.383 . S
C1232 C1233 1.377 . S
C1233 H1217 0.930 . S
C1233 C1232 1.377 . S
C1233 C1234 1.379 . S
C1234 H1218 0.931 . S
C1234 C1228 1.383 . S
C1234 C1233 1.379 . S
H1235 C1229 0.959 . S
H1236 C1229 0.961 . S
H1237 C1229 0.960 . S
H1238 C1230 0.930 . S
H1239 C1231 0.929 . S
H1240 C1248 0.929 . S
H1241 C1250 0.930 . S
H1242 C1252 0.930 . S
H1243 C1255 0.929 . S
H1244 C1258 0.930 . S
H1245 C1260 0.960 . S
H1246 C1260 0.960 . S
H1247 C1260 0.960 . S
C1248 H1240 0.929 . S
C1248 C1249 1.377 . S
C1248 C1250 1.384 . S
C1249 C1248 1.377 . S
C1249 C1255 1.390 . S
C1250 H1241 0.930 . S
C1250 C1248 1.384 . S
C1250 C1251 1.372 . S
C1251 C1250 1.372 . S
C1251 C1252 1.400 . S
C1251 C1256 1.490 . S
C1252 H1242 0.930 . S
C1252 C1251 1.400 . S
C1252 C1255 1.386 . S
H1253 C1269 0.930 . S
H1254 C1270 0.931 . S
C1255 H1243 0.929 . S
C1255 C1249 1.390 . S
C1255 C1252 1.386 . S
C1256 C1251 1.490 . S
C1256 C1258 1.395 . S
C1256 C1259 1.403 . S
H1257 C1263 0.930 . S
C1258 H1244 0.930 . S
C1258 C1256 1.395 . S
C1258 C1261 1.403 . S
C1259 C1256 1.403 . S
C1259 C1260 1.524 . S
C1259 C1263 1.400 . S
C1260 H1245 0.960 . S
C1260 H1246 0.960 . S
C1260 H1247 0.960 . S
C1260 C1259 1.524 . S
C1261 C1258 1.403 . S
C1261 C1262 1.392 . S
C1261 C1265 1.495 . S
C1262 C1261 1.392 . S
C1262 C1263 1.385 . S
C1262 C1264 1.478 . S
C1263 H1257 0.930 . S
C1263 C1259 1.400 . S
C1263 C1262 1.385 . S
C1264 C1262 1.478 . S
C1264 C1266 1.381 . S
C1264 C1270 1.383 . S
C1265 C1261 1.495 . S
C1265 H1271 0.959 . S
C1265 H1272 0.961 . S
C1265 H1273 0.960 . S
C1266 C1264 1.381 . S
C1266 C1267 1.394 . S
C1266 H1274 0.930 . S
C1267 C1266 1.394 . S
C1267 C1268 1.383 . S
C1267 H1275 0.929 . S
C1268 C1267 1.383 . S
C1268 C1269 1.377 . S
C1269 H1253 0.930 . S
C1269 C1268 1.377 . S
C1269 C1270 1.379 . S
C1270 H1254 0.931 . S
C1270 C1264 1.383 . S
C1270 C1269 1.379 . S
H1271 C1265 0.959 . S
H1272 C1265 0.961 . S
H1273 C1265 0.960 . S
H1274 C1266 0.930 . S
H1275 C1267 0.929 . S
H1276 C1284 0.929 . S
H1277 C1286 0.930 . S
H1278 C1288 0.930 . S
H1279 C1291 0.929 . S
H1280 C1294 0.930 . S
H1281 C1296 0.960 . S
H1282 C1296 0.960 . S
H1283 C1296 0.960 . S
C1284 H1276 0.929 . S
C1284 C1285 1.377 . S
C1284 C1286 1.384 . S
C1285 C1284 1.377 . S
C1285 C1291 1.390 . S
C1286 H1277 0.930 . S
C1286 C1284 1.384 . S
C1286 C1287 1.372 . S
C1287 C1286 1.372 . S
C1287 C1288 1.400 . S
C1287 C1292 1.490 . S
C1288 H1278 0.930 . S
C1288 C1287 1.400 . S
C1288 C1291 1.386 . S
H1289 C1305 0.930 . S
H1290 C1306 0.931 . S
C1291 H1279 0.929 . S
C1291 C1285 1.390 . S
C1291 C1288 1.386 . S
C1292 C1287 1.490 . S
C1292 C1294 1.395 . S
C1292 C1295 1.403 . S
H1293 C1299 0.930 . S
C1294 H1280 0.930 . S
C1294 C1292 1.395 . S
C1294 C1297 1.403 . S
C1295 C1292 1.403 . S
C1295 C1296 1.524 . S
C1295 C1299 1.400 . S
C1296 H1281 0.960 . S
C1296 H1282 0.960 . S
C1296 H1283 0.960 . S
C1296 C1295 1.524 . S
C1297 C1294 1.403 . S
C1297 C1298 1.392 . S
C1297 C1301 1.495 . S
C1298 C1297 1.392 . S
C1298 C1299 1.385 . S
C1298 C1300 1.478 . S
C1299 H1293 0.930 . S
C1299 C1295 1.400 . S
C1299 C1298 1.385 . S
C1300 C1298 1.478 . S
C1300 C1302 1.381 . S
C1300 C1306 1.383 . S
C1301 C1297 1.495 . S
C1301 H1307 0.959 . S
C1301 H1308 0.961 . S
C1301 H1309 0.960 . S
C1302 C1300 1.381 . S
C1302 C1303 1.394 . S
C1302 H1310 0.930 . S
C1303 C1302 1.394 . S
C1303 C1304 1.383 . S
C1303 H1311 0.929 . S
C1304 C1303 1.383 . S
C1304 C1305 1.377 . S
C1305 H1289 0.930 . S
C1305 C1304 1.377 . S
C1305 C1306 1.379 . S
C1306 H1290 0.931 . S
C1306 C1300 1.383 . S
C1306 C1305 1.379 . S
H1307 C1301 0.959 . S
H1308 C1301 0.961 . S
H1309 C1301 0.960 . S
H1310 C1302 0.930 . S
H1311 C1303 0.929 . S
H1312 C1320 0.929 . S
H1313 C1322 0.930 . S
H1314 C1324 0.930 . S
H1315 C1327 0.929 . S
H1316 C1330 0.930 . S
H1317 C1332 0.960 . S
H1318 C1332 0.960 . S
H1319 C1332 0.960 . S
C1320 H1312 0.929 . S
C1320 C1321 1.377 . S
C1320 C1322 1.384 . S
C1321 C1320 1.377 . S
C1321 C1327 1.390 . S
C1322 H1313 0.930 . S
C1322 C1320 1.384 . S
C1322 C1323 1.372 . S
C1323 C1322 1.372 . S
C1323 C1324 1.400 . S
C1323 C1328 1.490 . S
C1324 H1314 0.930 . S
C1324 C1323 1.400 . S
C1324 C1327 1.386 . S
H1325 C1341 0.930 . S
H1326 C1342 0.931 . S
C1327 H1315 0.929 . S
C1327 C1321 1.390 . S
C1327 C1324 1.386 . S
C1328 C1323 1.490 . S
C1328 C1330 1.395 . S
C1328 C1331 1.403 . S
H1329 C1335 0.930 . S
C1330 H1316 0.930 . S
C1330 C1328 1.395 . S
C1330 C1333 1.403 . S
C1331 C1328 1.403 . S
C1331 C1332 1.524 . S
C1331 C1335 1.400 . S
C1332 H1317 0.960 . S
C1332 H1318 0.960 . S
C1332 H1319 0.960 . S
C1332 C1331 1.524 . S
C1333 C1330 1.403 . S
C1333 C1334 1.392 . S
C1333 C1337 1.495 . S
C1334 C1333 1.392 . S
C1334 C1335 1.385 . S
C1334 C1336 1.478 . S
C1335 H1329 0.930 . S
C1335 C1331 1.400 . S
C1335 C1334 1.385 . S
C1336 C1334 1.478 . S
C1336 C1338 1.381 . S
C1336 C1342 1.383 . S
C1337 C1333 1.495 . S
C1337 H1343 0.959 . S
C1337 H1344 0.961 . S
C1337 H1345 0.960 . S
C1338 C1336 1.381 . S
C1338 C1339 1.394 . S
C1338 H1346 0.930 . S
C1339 C1338 1.394 . S
C1339 C1340 1.383 . S
C1339 H1347 0.929 . S
C1340 C1339 1.383 . S
C1340 C1341 1.377 . S
C1341 H1325 0.930 . S
C1341 C1340 1.377 . S
C1341 C1342 1.379 . S
C1342 H1326 0.931 . S
C1342 C1336 1.383 . S
C1342 C1341 1.379 . S
H1343 C1337 0.959 . S
H1344 C1337 0.961 . S
H1345 C1337 0.960 . S
H1346 C1338 0.930 . S
H1347 C1339 0.929 . S
H1348 C1356 0.929 . S
H1349 C1358 0.930 . S
H1350 C1360 0.930 . S
H1351 C1363 0.929 . S
H1352 C1366 0.930 . S
H1353 C1368 0.960 . S
H1354 C1368 0.960 . S
H1355 C1368 0.960 . S
C1356 H1348 0.929 . S
C1356 C1357 1.377 . S
C1356 C1358 1.384 . S
C1357 C1356 1.377 . S
C1357 C1363 1.390 . S
C1358 H1349 0.930 . S
C1358 C1356 1.384 . S
C1358 C1359 1.372 . S
C1359 C1358 1.372 . S
C1359 C1360 1.400 . S
C1359 C1364 1.490 . S
C1360 H1350 0.930 . S
C1360 C1359 1.400 . S
C1360 C1363 1.386 . S
H1361 C1377 0.930 . S
H1362 C1378 0.931 . S
C1363 H1351 0.929 . S
C1363 C1357 1.390 . S
C1363 C1360 1.386 . S
C1364 C1359 1.490 . S
C1364 C1366 1.395 . S
C1364 C1367 1.403 . S
H1365 C1371 0.930 . S
C1366 H1352 0.930 . S
C1366 C1364 1.395 . S
C1366 C1369 1.403 . S
C1367 C1364 1.403 . S
C1367 C1368 1.524 . S
C1367 C1371 1.400 . S
C1368 H1353 0.960 . S
C1368 H1354 0.960 . S
C1368 H1355 0.960 . S
C1368 C1367 1.524 . S
C1369 C1366 1.403 . S
C1369 C1370 1.392 . S
C1369 C1373 1.495 . S
C1370 C1369 1.392 . S
C1370 C1371 1.385 . S
C1370 C1372 1.478 . S
C1371 H1365 0.930 . S
C1371 C1367 1.400 . S
C1371 C1370 1.385 . S
C1372 C1370 1.478 . S
C1372 C1374 1.381 . S
C1372 C1378 1.383 . S
C1373 C1369 1.495 . S
C1373 H1379 0.959 . S
C1373 H1380 0.961 . S
C1373 H1381 0.960 . S
C1374 C1372 1.381 . S
C1374 C1375 1.394 . S
C1374 H1382 0.930 . S
C1375 C1374 1.394 . S
C1375 C1376 1.383 . S
C1375 H1383 0.929 . S
C1376 C1375 1.383 . S
C1376 C1377 1.377 . S
C1377 H1361 0.930 . S
C1377 C1376 1.377 . S
C1377 C1378 1.379 . S
C1378 H1362 0.931 . S
C1378 C1372 1.383 . S
C1378 C1377 1.379 . S
H1379 C1373 0.959 . S
H1380 C1373 0.961 . S
H1381 C1373 0.960 . S
H1382 C1374 0.930 . S
H1383 C1375 0.929 . S
H1384 C1392 0.929 . S
H1385 C1394 0.930 . S
H1386 C1396 0.930 . S
H1387 C1399 0.929 . S
H1388 C1402 0.930 . S
H1389 C1404 0.960 . S
H1390 C1404 0.960 . S
H1391 C1404 0.960 . S
C1392 H1384 0.929 . S
C1392 C1393 1.377 . S
C1392 C1394 1.384 . S
C1393 C1392 1.377 . S
C1393 C1399 1.390 . S
C1394 H1385 0.930 . S
C1394 C1392 1.384 . S
C1394 C1395 1.372 . S
C1395 C1394 1.372 . S
C1395 C1396 1.400 . S
C1395 C1400 1.490 . S
C1396 H1386 0.930 . S
C1396 C1395 1.400 . S
C1396 C1399 1.386 . S
H1397 C1413 0.930 . S
H1398 C1414 0.931 . S
C1399 H1387 0.929 . S
C1399 C1393 1.390 . S
C1399 C1396 1.386 . S
C1400 C1395 1.490 . S
C1400 C1402 1.395 . S
C1400 C1403 1.403 . S
H1401 C1407 0.930 . S
C1402 H1388 0.930 . S
C1402 C1400 1.395 . S
C1402 C1405 1.403 . S
C1403 C1400 1.403 . S
C1403 C1404 1.524 . S
C1403 C1407 1.400 . S
C1404 H1389 0.960 . S
C1404 H1390 0.960 . S
C1404 H1391 0.960 . S
C1404 C1403 1.524 . S
C1405 C1402 1.403 . S
C1405 C1406 1.392 . S
C1405 C1409 1.495 . S
C1406 C1405 1.392 . S
C1406 C1407 1.385 . S
C1406 C1408 1.478 . S
C1407 H1401 0.930 . S
C1407 C1403 1.400 . S
C1407 C1406 1.385 . S
C1408 C1406 1.478 . S
C1408 C1410 1.381 . S
C1408 C1414 1.383 . S
C1409 C1405 1.495 . S
C1409 H1415 0.959 . S
C1409 H1416 0.961 . S
C1409 H1417 0.960 . S
C1410 C1408 1.381 . S
C1410 C1411 1.394 . S
C1410 H1418 0.930 . S
C1411 C1410 1.394 . S
C1411 C1412 1.383 . S
C1411 H1419 0.929 . S
C1412 C1411 1.383 . S
C1412 C1413 1.377 . S
C1413 H1397 0.930 . S
C1413 C1412 1.377 . S
C1413 C1414 1.379 . S
C1414 H1398 0.931 . S
C1414 C1408 1.383 . S
C1414 C1413 1.379 . S
H1415 C1409 0.959 . S
H1416 C1409 0.961 . S
H1417 C1409 0.960 . S
H1418 C1410 0.930 . S
H1419 C1411 0.929 . S
H1420 C1428 0.929 . S
H1421 C1430 0.930 . S
H1422 C1432 0.930 . S
H1423 C1435 0.929 . S
H1424 C1438 0.930 . S
H1425 C1440 0.960 . S
H1426 C1440 0.960 . S
H1427 C1440 0.960 . S
C1428 H1420 0.929 . S
C1428 C1429 1.377 . S
C1428 C1430 1.384 . S
C1429 C1428 1.377 . S
C1429 C1435 1.390 . S
C1430 H1421 0.930 . S
C1430 C1428 1.384 . S
C1430 C1431 1.372 . S
C1431 C1430 1.372 . S
C1431 C1432 1.400 . S
C1431 C1436 1.490 . S
C1432 H1422 0.930 . S
C1432 C1431 1.400 . S
C1432 C1435 1.386 . S
H1433 C1449 0.930 . S
H1434 C1450 0.931 . S
C1435 H1423 0.929 . S
C1435 C1429 1.390 . S
C1435 C1432 1.386 . S
C1436 C1431 1.490 . S
C1436 C1438 1.395 . S
C1436 C1439 1.403 . S
H1437 C1443 0.930 . S
C1438 H1424 0.930 . S
C1438 C1436 1.395 . S
C1438 C1441 1.403 . S
C1439 C1436 1.403 . S
C1439 C1440 1.524 . S
C1439 C1443 1.400 . S
C1440 H1425 0.960 . S
C1440 H1426 0.960 . S
C1440 H1427 0.960 . S
C1440 C1439 1.524 . S
C1441 C1438 1.403 . S
C1441 C1442 1.392 . S
C1441 C1445 1.495 . S
C1442 C1441 1.392 . S
C1442 C1443 1.385 . S
C1442 C1444 1.478 . S
C1443 H1437 0.930 . S
C1443 C1439 1.400 . S
C1443 C1442 1.385 . S
C1444 C1442 1.478 . S
C1444 C1446 1.381 . S
C1444 C1450 1.383 . S
C1445 C1441 1.495 . S
C1445 H1451 0.959 . S
C1445 H1452 0.961 . S
C1445 H1453 0.960 . S
C1446 C1444 1.381 . S
C1446 C1447 1.394 . S
C1446 H1454 0.930 . S
C1447 C1446 1.394 . S
C1447 C1448 1.383 . S
C1447 H1455 0.929 . S
C1448 C1447 1.383 . S
C1448 C1449 1.377 . S
C1449 H1433 0.930 . S
C1449 C1448 1.377 . S
C1449 C1450 1.379 . S
C1450 H1434 0.931 . S
C1450 C1444 1.383 . S
C1450 C1449 1.379 . S
H1451 C1445 0.959 . S
H1452 C1445 0.961 . S
H1453 C1445 0.960 . S
H1454 C1446 0.930 . S
H1455 C1447 0.929 . S
H1456 C1464 0.929 . S
H1457 C1466 0.930 . S
H1458 C1468 0.930 . S
H1459 C1471 0.929 . S
H1460 C1474 0.930 . S
H1461 C1476 0.960 . S
H1462 C1476 0.960 . S
H1463 C1476 0.960 . S
C1464 H1456 0.929 . S
C1464 C1465 1.377 . S
C1464 C1466 1.384 . S
C1465 C1464 1.377 . S
C1465 C1471 1.390 . S
C1466 H1457 0.930 . S
C1466 C1464 1.384 . S
C1466 C1467 1.372 . S
C1467 C1466 1.372 . S
C1467 C1468 1.400 . S
C1467 C1472 1.490 . S
C1468 H1458 0.930 . S
C1468 C1467 1.400 . S
C1468 C1471 1.386 . S
H1469 C1485 0.930 . S
H1470 C1486 0.931 . S
C1471 H1459 0.929 . S
C1471 C1465 1.390 . S
C1471 C1468 1.386 . S
C1472 C1467 1.490 . S
C1472 C1474 1.395 . S
C1472 C1475 1.403 . S
H1473 C1479 0.930 . S
C1474 H1460 0.930 . S
C1474 C1472 1.395 . S
C1474 C1477 1.403 . S
C1475 C1472 1.403 . S
C1475 C1476 1.524 . S
C1475 C1479 1.400 . S
C1476 H1461 0.960 . S
C1476 H1462 0.960 . S
C1476 H1463 0.960 . S
C1476 C1475 1.524 . S
C1477 C1474 1.403 . S
C1477 C1478 1.392 . S
C1477 C1481 1.495 . S
C1478 C1477 1.392 . S
C1478 C1479 1.385 . S
C1478 C1480 1.478 . S
C1479 H1473 0.930 . S
C1479 C1475 1.400 . S
C1479 C1478 1.385 . S
C1480 C1478 1.478 . S
C1480 C1482 1.381 . S
C1480 C1486 1.383 . S
C1481 C1477 1.495 . S
C1481 H1487 0.959 . S
C1481 H1488 0.961 . S
C1481 H1489 0.960 . S
C1482 C1480 1.381 . S
C1482 C1483 1.394 . S
C1482 H1490 0.930 . S
C1483 C1482 1.394 . S
C1483 C1484 1.383 . S
C1483 H1491 0.929 . S
C1484 C1483 1.383 . S
C1484 C1485 1.377 . S
C1485 H1469 0.930 . S
C1485 C1484 1.377 . S
C1485 C1486 1.379 . S
C1486 H1470 0.931 . S
C1486 C1480 1.383 . S
C1486 C1485 1.379 . S
H1487 C1481 0.959 . S
H1488 C1481 0.961 . S
H1489 C1481 0.960 . S
H1490 C1482 0.930 . S
H1491 C1483 0.929 . S
H1492 C1500 0.929 . S
H1493 C1502 0.930 . S
H1494 C1504 0.930 . S
H1495 C1507 0.929 . S
H1496 C1510 0.930 . S
H1497 C1512 0.960 . S
H1498 C1512 0.960 . S
H1499 C1512 0.960 . S
C1500 H1492 0.929 . S
C1500 C1501 1.377 . S
C1500 C1502 1.384 . S
C1501 C1500 1.377 . S
C1501 C1507 1.390 . S
C1502 H1493 0.930 . S
C1502 C1500 1.384 . S
C1502 C1503 1.372 . S
C1503 C1502 1.372 . S
C1503 C1504 1.400 . S
C1503 C1508 1.490 . S
C1504 H1494 0.930 . S
C1504 C1503 1.400 . S
C1504 C1507 1.386 . S
H1505 C1521 0.930 . S
H1506 C1522 0.931 . S
C1507 H1495 0.929 . S
C1507 C1501 1.390 . S
C1507 C1504 1.386 . S
C1508 C1503 1.490 . S
C1508 C1510 1.395 . S
C1508 C1511 1.403 . S
H1509 C1515 0.930 . S
C1510 H1496 0.930 . S
C1510 C1508 1.395 . S
C1510 C1513 1.403 . S
C1511 C1508 1.403 . S
C1511 C1512 1.524 . S
C1511 C1515 1.400 . S
C1512 H1497 0.960 . S
C1512 H1498 0.960 . S
C1512 H1499 0.960 . S
C1512 C1511 1.524 . S
C1513 C1510 1.403 . S
C1513 C1514 1.392 . S
C1513 C1517 1.495 . S
C1514 C1513 1.392 . S
C1514 C1515 1.385 . S
C1514 C1516 1.478 . S
C1515 H1509 0.930 . S
C1515 C1511 1.400 . S
C1515 C1514 1.385 . S
C1516 C1514 1.478 . S
C1516 C1518 1.381 . S
C1516 C1522 1.383 . S
C1517 C1513 1.495 . S
C1517 H1523 0.959 . S
C1517 H1524 0.961 . S
C1517 H1525 0.960 . S
C1518 C1516 1.381 . S
C1518 C1519 1.394 . S
C1518 H1526 0.930 . S
C1519 C1518 1.394 . S
C1519 C1520 1.383 . S
C1519 H1527 0.929 . S
C1520 C1519 1.383 . S
C1520 C1521 1.377 . S
C1521 H1505 0.930 . S
C1521 C1520 1.377 . S
C1521 C1522 1.379 . S
C1522 H1506 0.931 . S
C1522 C1516 1.383 . S
C1522 C1521 1.379 . S
H1523 C1517 0.959 . S
H1524 C1517 0.961 . S
H1525 C1517 0.960 . S
H1526 C1518 0.930 . S
H1527 C1519 0.929 . S
H1528 C1536 0.929 . S
H1529 C1538 0.930 . S
H1530 C1540 0.930 . S
H1531 C1543 0.929 . S
H1532 C1546 0.930 . S
H1533 C1548 0.960 . S
H1534 C1548 0.960 . S
H1535 C1548 0.960 . S
C1536 H1528 0.929 . S
C1536 C1537 1.377 . S
C1536 C1538 1.384 . S
C1537 C1536 1.377 . S
C1537 C1543 1.390 . S
C1538 H1529 0.930 . S
C1538 C1536 1.384 . S
C1538 C1539 1.372 . S
C1539 C1538 1.372 . S
C1539 C1540 1.400 . S
C1539 C1544 1.490 . S
C1540 H1530 0.930 . S
C1540 C1539 1.400 . S
C1540 C1543 1.386 . S
H1541 C1557 0.930 . S
H1542 C1558 0.931 . S
C1543 H1531 0.929 . S
C1543 C1537 1.390 . S
C1543 C1540 1.386 . S
C1544 C1539 1.490 . S
C1544 C1546 1.395 . S
C1544 C1547 1.403 . S
H1545 C1551 0.930 . S
C1546 H1532 0.930 . S
C1546 C1544 1.395 . S
C1546 C1549 1.403 . S
C1547 C1544 1.403 . S
C1547 C1548 1.524 . S
C1547 C1551 1.400 . S
C1548 H1533 0.960 . S
C1548 H1534 0.960 . S
C1548 H1535 0.960 . S
C1548 C1547 1.524 . S
C1549 C1546 1.403 . S
C1549 C1550 1.392 . S
C1549 C1553 1.495 . S
C1550 C1549 1.392 . S
C1550 C1551 1.385 . S
C1550 C1552 1.478 . S
C1551 H1545 0.930 . S
C1551 C1547 1.400 . S
C1551 C1550 1.385 . S
C1552 C1550 1.478 . S
C1552 C1554 1.381 . S
C1552 C1558 1.383 . S
C1553 C1549 1.495 . S
C1553 H1559 0.959 . S
C1553 H1560 0.961 . S
C1553 H1561 0.960 . S
C1554 C1552 1.381 . S
C1554 C1555 1.394 . S
C1554 H1562 0.930 . S
C1555 C1554 1.394 . S
C1555 C1556 1.383 . S
C1555 H1563 0.929 . S
C1556 C1555 1.383 . S
C1556 C1557 1.377 . S
C1557 H1541 0.930 . S
C1557 C1556 1.377 . S
C1557 C1558 1.379 . S
C1558 H1542 0.931 . S
C1558 C1552 1.383 . S
C1558 C1557 1.379 . S
H1559 C1553 0.959 . S
H1560 C1553 0.961 . S
H1561 C1553 0.960 . S
H1562 C1554 0.930 . S
H1563 C1555 0.929 . S
H1564 C1572 0.929 . S
H1565 C1574 0.930 . S
H1566 C1576 0.930 . S
H1567 C1579 0.929 . S
H1568 C1582 0.930 . S
H1569 C1584 0.960 . S
H1570 C1584 0.960 . S
H1571 C1584 0.960 . S
C1572 H1564 0.929 . S
C1572 C1573 1.377 . S
C1572 C1574 1.384 . S
C1573 C1572 1.377 . S
C1573 C1579 1.390 . S
C1574 H1565 0.930 . S
C1574 C1572 1.384 . S
C1574 C1575 1.372 . S
C1575 C1574 1.372 . S
C1575 C1576 1.400 . S
C1575 C1580 1.490 . S
C1576 H1566 0.930 . S
C1576 C1575 1.400 . S
C1576 C1579 1.386 . S
H1577 C1593 0.930 . S
H1578 C1594 0.931 . S
C1579 H1567 0.929 . S
C1579 C1573 1.390 . S
C1579 C1576 1.386 . S
C1580 C1575 1.490 . S
C1580 C1582 1.395 . S
C1580 C1583 1.403 . S
H1581 C1587 0.930 . S
C1582 H1568 0.930 . S
C1582 C1580 1.395 . S
C1582 C1585 1.403 . S
C1583 C1580 1.403 . S
C1583 C1584 1.524 . S
C1583 C1587 1.400 . S
C1584 H1569 0.960 . S
C1584 H1570 0.960 . S
C1584 H1571 0.960 . S
C1584 C1583 1.524 . S
C1585 C1582 1.403 . S
C1585 C1586 1.392 . S
C1585 C1589 1.495 . S
C1586 C1585 1.392 . S
C1586 C1587 1.385 . S
C1586 C1588 1.478 . S
C1587 H1581 0.930 . S
C1587 C1583 1.400 . S
C1587 C1586 1.385 . S
C1588 C1586 1.478 . S
C1588 C1590 1.381 . S
C1588 C1594 1.383 . S
C1589 C1585 1.495 . S
C1589 H1595 0.959 . S
C1589 H1596 0.961 . S
C1589 H1597 0.960 . S
C1590 C1588 1.381 . S
C1590 C1591 1.394 . S
C1590 H1598 0.930 . S
C1591 C1590 1.394 . S
C1591 C1592 1.383 . S
C1591 H1599 0.929 . S
C1592 C1591 1.383 . S
C1592 C1593 1.377 . S
C1593 H1577 0.930 . S
C1593 C1592 1.377 . S
C1593 C1594 1.379 . S
C1594 H1578 0.931 . S
C1594 C1588 1.383 . S
C1594 C1593 1.379 . S
H1595 C1589 0.959 . S
H1596 C1589 0.961 . S
H1597 C1589 0.960 . S
H1598 C1590 0.930 . S
H1599 C1591 0.929 . S
H1600 C1608 0.929 . S
H1601 C1610 0.930 . S
H1602 C1612 0.930 . S
H1603 C1615 0.929 . S
H1604 C1618 0.930 . S
H1605 C1620 0.960 . S
H1606 C1620 0.960 . S
H1607 C1620 0.960 . S
C1608 H1600 0.929 . S
C1608 C1609 1.377 . S
C1608 C1610 1.384 . S
C1609 C1608 1.377 . S
C1609 C1615 1.390 . S
C1610 H1601 0.930 . S
C1610 C1608 1.384 . S
C1610 C1611 1.372 . S
C1611 C1610 1.372 . S
C1611 C1612 1.400 . S
C1611 C1616 1.490 . S
C1612 H1602 0.930 . S
C1612 C1611 1.400 . S
C1612 C1615 1.386 . S
H1613 C1629 0.930 . S
H1614 C1630 0.931 . S
C1615 H1603 0.929 . S
C1615 C1609 1.390 . S
C1615 C1612 1.386 . S
C1616 C1611 1.490 . S
C1616 C1618 1.395 . S
C1616 C1619 1.403 . S
H1617 C1623 0.930 . S
C1618 H1604 0.930 . S
C1618 C1616 1.395 . S
C1618 C1621 1.403 . S
C1619 C1616 1.403 . S
C1619 C1620 1.524 . S
C1619 C1623 1.400 . S
C1620 H1605 0.960 . S
C1620 H1606 0.960 . S
C1620 H1607 0.960 . S
C1620 C1619 1.524 . S
C1621 C1618 1.403 . S
C1621 C1622 1.392 . S
C1621 C1625 1.495 . S
C1622 C1621 1.392 . S
C1622 C1623 1.385 . S
C1622 C1624 1.478 . S
C1623 H1617 0.930 . S
C1623 C1619 1.400 . S
C1623 C1622 1.385 . S
C1624 C1622 1.478 . S
C1624 C1626 1.381 . S
C1624 C1630 1.383 . S
C1625 C1621 1.495 . S
C1625 H1631 0.959 . S
C1625 H1632 0.961 . S
C1625 H1633 0.960 . S
C1626 C1624 1.381 . S
C1626 C1627 1.394 . S
C1626 H1634 0.930 . S
C1627 C1626 1.394 . S
C1627 C1628 1.383 . S
C1627 H1635 0.929 . S
C1628 C1627 1.383 . S
C1628 C1629 1.377 . S
C1629 H1613 0.930 . S
C1629 C1628 1.377 . S
C1629 C1630 1.379 . S
C1630 H1614 0.931 . S
C1630 C1624 1.383 . S
C1630 C1629 1.379 . S
H1631 C1625 0.959 . S
H1632 C1625 0.961 . S
H1633 C1625 0.960 . S
H1634 C1626 0.930 . S
H1635 C1627 0.929 . S
H1636 C1644 0.929 . S
H1637 C1646 0.930 . S
H1638 C1648 0.930 . S
H1639 C1651 0.929 . S
H1640 C1654 0.930 . S
H1641 C1656 0.960 . S
H1642 C1656 0.960 . S
H1643 C1656 0.960 . S
C1644 H1636 0.929 . S
C1644 C1645 1.377 . S
C1644 C1646 1.384 . S
C1645 C1644 1.377 . S
C1645 C1651 1.390 . S
C1646 H1637 0.930 . S
C1646 C1644 1.384 . S
C1646 C1647 1.372 . S
C1647 C1646 1.372 . S
C1647 C1648 1.400 . S
C1647 C1652 1.490 . S
C1648 H1638 0.930 . S
C1648 C1647 1.400 . S
C1648 C1651 1.386 . S
H1649 C1665 0.930 . S
H1650 C1666 0.931 . S
C1651 H1639 0.929 . S
C1651 C1645 1.390 . S
C1651 C1648 1.386 . S
C1652 C1647 1.490 . S
C1652 C1654 1.395 . S
C1652 C1655 1.403 . S
H1653 C1659 0.930 . S
C1654 H1640 0.930 . S
C1654 C1652 1.395 . S
C1654 C1657 1.403 . S
C1655 C1652 1.403 . S
C1655 C1656 1.524 . S
C1655 C1659 1.400 . S
C1656 H1641 0.960 . S
C1656 H1642 0.960 . S
C1656 H1643 0.960 . S
C1656 C1655 1.524 . S
C1657 C1654 1.403 . S
C1657 C1658 1.392 . S
C1657 C1661 1.495 . S
C1658 C1657 1.392 . S
C1658 C1659 1.385 . S
C1658 C1660 1.478 . S
C1659 H1653 0.930 . S
C1659 C1655 1.400 . S
C1659 C1658 1.385 . S
C1660 C1658 1.478 . S
C1660 C1662 1.381 . S
C1660 C1666 1.383 . S
C1661 C1657 1.495 . S
C1661 H1667 0.959 . S
C1661 H1668 0.961 . S
C1661 H1669 0.960 . S
C1662 C1660 1.381 . S
C1662 C1663 1.394 . S
C1662 H1670 0.930 . S
C1663 C1662 1.394 . S
C1663 C1664 1.383 . S
C1663 H1671 0.929 . S
C1664 C1663 1.383 . S
C1664 C1665 1.377 . S
C1665 H1649 0.930 . S
C1665 C1664 1.377 . S
C1665 C1666 1.379 . S
C1666 H1650 0.931 . S
C1666 C1660 1.383 . S
C1666 C1665 1.379 . S
H1667 C1661 0.959 . S
H1668 C1661 0.961 . S
H1669 C1661 0.960 . S
H1670 C1662 0.930 . S
H1671 C1663 0.929 . S
H1672 C1680 0.929 . S
H1673 C1682 0.930 . S
H1674 C1684 0.930 . S
H1675 C1687 0.929 . S
H1676 C1690 0.930 . S
H1677 C1692 0.960 . S
H1678 C1692 0.960 . S
H1679 C1692 0.960 . S
C1680 H1672 0.929 . S
C1680 C1681 1.377 . S
C1680 C1682 1.384 . S
C1681 C1680 1.377 . S
C1681 C1687 1.390 . S
C1682 H1673 0.930 . S
C1682 C1680 1.384 . S
C1682 C1683 1.372 . S
C1683 C1682 1.372 . S
C1683 C1684 1.400 . S
C1683 C1688 1.490 . S
C1684 H1674 0.930 . S
C1684 C1683 1.400 . S
C1684 C1687 1.386 . S
H1685 C1701 0.930 . S
H1686 C1702 0.931 . S
C1687 H1675 0.929 . S
C1687 C1681 1.390 . S
C1687 C1684 1.386 . S
C1688 C1683 1.490 . S
C1688 C1690 1.395 . S
C1688 C1691 1.403 . S
H1689 C1695 0.930 . S
C1690 H1676 0.930 . S
C1690 C1688 1.395 . S
C1690 C1693 1.403 . S
C1691 C1688 1.403 . S
C1691 C1692 1.524 . S
C1691 C1695 1.400 . S
C1692 H1677 0.960 . S
C1692 H1678 0.960 . S
C1692 H1679 0.960 . S
C1692 C1691 1.524 . S
C1693 C1690 1.403 . S
C1693 C1694 1.392 . S
C1693 C1697 1.495 . S
C1694 C1693 1.392 . S
C1694 C1695 1.385 . S
C1694 C1696 1.478 . S
C1695 H1689 0.930 . S
C1695 C1691 1.400 . S
C1695 C1694 1.385 . S
C1696 C1694 1.478 . S
C1696 C1698 1.381 . S
C1696 C1702 1.383 . S
C1697 C1693 1.495 . S
C1697 H1703 0.959 . S
C1697 H1704 0.961 . S
C1697 H1705 0.960 . S
C1698 C1696 1.381 . S
C1698 C1699 1.394 . S
C1698 H1706 0.930 . S
C1699 C1698 1.394 . S
C1699 C1700 1.383 . S
C1699 H1707 0.929 . S
C1700 C1699 1.383 . S
C1700 C1701 1.377 . S
C1701 H1685 0.930 . S
C1701 C1700 1.377 . S
C1701 C1702 1.379 . S
C1702 H1686 0.931 . S
C1702 C1696 1.383 . S
C1702 C1701 1.379 . S
H1703 C1697 0.959 . S
H1704 C1697 0.961 . S
H1705 C1697 0.960 . S
H1706 C1698 0.930 . S
H1707 C1699 0.929 . S
H1708 C1716 0.929 . S
H1709 C1718 0.930 . S
H1710 C1720 0.930 . S
H1711 C1723 0.929 . S
H1712 C1726 0.930 . S
H1713 C1728 0.960 . S
H1714 C1728 0.960 . S
H1715 C1728 0.960 . S
C1716 H1708 0.929 . S
C1716 C1717 1.377 . S
C1716 C1718 1.384 . S
C1717 C1716 1.377 . S
C1717 C1723 1.390 . S
C1718 H1709 0.930 . S
C1718 C1716 1.384 . S
C1718 C1719 1.372 . S
C1719 C1718 1.372 . S
C1719 C1720 1.400 . S
C1719 C1724 1.490 . S
C1720 H1710 0.930 . S
C1720 C1719 1.400 . S
C1720 C1723 1.386 . S
H1721 C1737 0.930 . S
H1722 C1738 0.931 . S
C1723 H1711 0.929 . S
C1723 C1717 1.390 . S
C1723 C1720 1.386 . S
C1724 C1719 1.490 . S
C1724 C1726 1.395 . S
C1724 C1727 1.403 . S
H1725 C1731 0.930 . S
C1726 H1712 0.930 . S
C1726 C1724 1.395 . S
C1726 C1729 1.403 . S
C1727 C1724 1.403 . S
C1727 C1728 1.524 . S
C1727 C1731 1.400 . S
C1728 H1713 0.960 . S
C1728 H1714 0.960 . S
C1728 H1715 0.960 . S
C1728 C1727 1.524 . S
C1729 C1726 1.403 . S
C1729 C1730 1.392 . S
C1729 C1733 1.495 . S
C1730 C1729 1.392 . S
C1730 C1731 1.385 . S
C1730 C1732 1.478 . S
C1731 H1725 0.930 . S
C1731 C1727 1.400 . S
C1731 C1730 1.385 . S
C1732 C1730 1.478 . S
C1732 C1734 1.381 . S
C1732 C1738 1.383 . S
C1733 C1729 1.495 . S
C1733 H1739 0.959 . S
C1733 H1740 0.961 . S
C1733 H1741 0.960 . S
C1734 C1732 1.381 . S
C1734 C1735 1.394 . S
C1734 H1742 0.930 . S
C1735 C1734 1.394 . S
C1735 C1736 1.383 . S
C1735 H1743 0.929 . S
C1736 C1735 1.383 . S
C1736 C1737 1.377 . S
C1737 H1721 0.930 . S
C1737 C1736 1.377 . S
C1737 C1738 1.379 . S
C1738 H1722 0.931 . S
C1738 C1732 1.383 . S
C1738 C1737 1.379 . S
H1739 C1733 0.959 . S
H1740 C1733 0.961 . S
H1741 C1733 0.960 . S
H1742 C1734 0.930 . S
H1743 C1735 0.929 . S
H1744 C1752 0.929 . S
H1745 C1754 0.930 . S
H1746 C1756 0.930 . S
H1747 C1759 0.929 . S
H1748 C1762 0.930 . S
H1749 C1764 0.960 . S
H1750 C1764 0.960 . S
H1751 C1764 0.960 . S
C1752 H1744 0.929 . S
C1752 C1753 1.377 . S
C1752 C1754 1.384 . S
C1753 C1752 1.377 . S
C1753 C1759 1.390 . S
C1754 H1745 0.930 . S
C1754 C1752 1.384 . S
C1754 C1755 1.372 . S
C1755 C1754 1.372 . S
C1755 C1756 1.400 . S
C1755 C1760 1.490 . S
C1756 H1746 0.930 . S
C1756 C1755 1.400 . S
C1756 C1759 1.386 . S
H1757 C1773 0.930 . S
H1758 C1774 0.931 . S
C1759 H1747 0.929 . S
C1759 C1753 1.390 . S
C1759 C1756 1.386 . S
C1760 C1755 1.490 . S
C1760 C1762 1.395 . S
C1760 C1763 1.403 . S
H1761 C1767 0.930 . S
C1762 H1748 0.930 . S
C1762 C1760 1.395 . S
C1762 C1765 1.403 . S
C1763 C1760 1.403 . S
C1763 C1764 1.524 . S
C1763 C1767 1.400 . S
C1764 H1749 0.960 . S
C1764 H1750 0.960 . S
C1764 H1751 0.960 . S
C1764 C1763 1.524 . S
C1765 C1762 1.403 . S
C1765 C1766 1.392 . S
C1765 C1769 1.495 . S
C1766 C1765 1.392 . S
C1766 C1767 1.385 . S
C1766 C1768 1.478 . S
C1767 H1761 0.930 . S
C1767 C1763 1.400 . S
C1767 C1766 1.385 . S
C1768 C1766 1.478 . S
C1768 C1770 1.381 . S
C1768 C1774 1.383 . S
C1769 C1765 1.495 . S
C1769 H1775 0.959 . S
C1769 H1776 0.961 . S
C1769 H1777 0.960 . S
C1770 C1768 1.381 . S
C1770 C1771 1.394 . S
C1770 H1778 0.930 . S
C1771 C1770 1.394 . S
C1771 C1772 1.383 . S
C1771 H1779 0.929 . S
C1772 C1771 1.383 . S
C1772 C1773 1.377 . S
C1773 H1757 0.930 . S
C1773 C1772 1.377 . S
C1773 C1774 1.379 . S
C1774 H1758 0.931 . S
C1774 C1768 1.383 . S
C1774 C1773 1.379 . S
H1775 C1769 0.959 . S
H1776 C1769 0.961 . S
H1777 C1769 0.960 . S
H1778 C1770 0.930 . S
H1779 C1771 0.929 . S
H1780 C1788 0.929 . S
H1781 C1790 0.930 . S
H1782 C1792 0.930 . S
H1783 C1795 0.929 . S
H1784 C1798 0.930 . S
H1785 C1800 0.960 . S
H1786 C1800 0.960 . S
H1787 C1800 0.960 . S
C1788 H1780 0.929 . S
C1788 C1789 1.377 . S
C1788 C1790 1.384 . S
C1789 C1788 1.377 . S
C1789 C1795 1.390 . S
C1790 H1781 0.930 . S
C1790 C1788 1.384 . S
C1790 C1791 1.372 . S
C1791 C1790 1.372 . S
C1791 C1792 1.400 . S
C1791 C1796 1.490 . S
C1792 H1782 0.930 . S
C1792 C1791 1.400 . S
C1792 C1795 1.386 . S
H1793 C1809 0.930 . S
H1794 C1810 0.931 . S
C1795 H1783 0.929 . S
C1795 C1789 1.390 . S
C1795 C1792 1.386 . S
C1796 C1791 1.490 . S
C1796 C1798 1.395 . S
C1796 C1799 1.403 . S
H1797 C1803 0.930 . S
C1798 H1784 0.930 . S
C1798 C1796 1.395 . S
C1798 C1801 1.403 . S
C1799 C1796 1.403 . S
C1799 C1800 1.524 . S
C1799 C1803 1.400 . S
C1800 H1785 0.960 . S
C1800 H1786 0.960 . S
C1800 H1787 0.960 . S
C1800 C1799 1.524 . S
C1801 C1798 1.403 . S
C1801 C1802 1.392 . S
C1801 C1805 1.495 . S
C1802 C1801 1.392 . S
C1802 C1803 1.385 . S
C1802 C1804 1.478 . S
C1803 H1797 0.930 . S
C1803 C1799 1.400 . S
C1803 C1802 1.385 . S
C1804 C1802 1.478 . S
C1804 C1806 1.381 . S
C1804 C1810 1.383 . S
C1805 C1801 1.495 . S
C1805 H1811 0.959 . S
C1805 H1812 0.961 . S
C1805 H1813 0.960 . S
C1806 C1804 1.381 . S
C1806 C1807 1.394 . S
C1806 H1814 0.930 . S
C1807 C1806 1.394 . S
C1807 C1808 1.383 . S
C1807 H1815 0.929 . S
C1808 C1807 1.383 . S
C1808 C1809 1.377 . S
C1809 H1793 0.930 . S
C1809 C1808 1.377 . S
C1809 C1810 1.379 . S
C1810 H1794 0.931 . S
C1810 C1804 1.383 . S
C1810 C1809 1.379 . S
H1811 C1805 0.959 . S
H1812 C1805 0.961 . S
H1813 C1805 0.960 . S
H1814 C1806 0.930 . S
H1815 C1807 0.929 . S
H1816 C1824 0.929 . S
H1817 C1826 0.930 . S
H1818 C1828 0.930 . S
H1819 C1831 0.929 . S
H1820 C1834 0.930 . S
H1821 C1836 0.960 . S
H1822 C1836 0.960 . S
H1823 C1836 0.960 . S
C1824 H1816 0.929 . S
C1824 C1825 1.377 . S
C1824 C1826 1.384 . S
C1825 C1824 1.377 . S
C1825 C1831 1.390 . S
C1826 H1817 0.930 . S
C1826 C1824 1.384 . S
C1826 C1827 1.372 . S
C1827 C1826 1.372 . S
C1827 C1828 1.400 . S
C1827 C1832 1.490 . S
C1828 H1818 0.930 . S
C1828 C1827 1.400 . S
C1828 C1831 1.386 . S
H1829 C1845 0.930 . S
H1830 C1846 0.931 . S
C1831 H1819 0.929 . S
C1831 C1825 1.390 . S
C1831 C1828 1.386 . S
C1832 C1827 1.490 . S
C1832 C1834 1.395 . S
C1832 C1835 1.403 . S
H1833 C1839 0.930 . S
C1834 H1820 0.930 . S
C1834 C1832 1.395 . S
C1834 C1837 1.403 . S
C1835 C1832 1.403 . S
C1835 C1836 1.524 . S
C1835 C1839 1.400 . S
C1836 H1821 0.960 . S
C1836 H1822 0.960 . S
C1836 H1823 0.960 . S
C1836 C1835 1.524 . S
C1837 C1834 1.403 . S
C1837 C1838 1.392 . S
C1837 C1841 1.495 . S
C1838 C1837 1.392 . S
C1838 C1839 1.385 . S
C1838 C1840 1.478 . S
C1839 H1833 0.930 . S
C1839 C1835 1.400 . S
C1839 C1838 1.385 . S
C1840 C1838 1.478 . S
C1840 C1842 1.381 . S
C1840 C1846 1.383 . S
C1841 C1837 1.495 . S
C1841 H1847 0.959 . S
C1841 H1848 0.961 . S
C1841 H1849 0.960 . S
C1842 C1840 1.381 . S
C1842 C1843 1.394 . S
C1842 H1850 0.930 . S
C1843 C1842 1.394 . S
C1843 C1844 1.383 . S
C1843 H1851 0.929 . S
C1844 C1843 1.383 . S
C1844 C1845 1.377 . S
C1845 H1829 0.930 . S
C1845 C1844 1.377 . S
C1845 C1846 1.379 . S
C1846 H1830 0.931 . S
C1846 C1840 1.383 . S
C1846 C1845 1.379 . S
H1847 C1841 0.959 . S
H1848 C1841 0.961 . S
H1849 C1841 0.960 . S
H1850 C1842 0.930 . S
H1851 C1843 0.929 . S
H1852 C1860 0.929 . S
H1853 C1862 0.930 . S
H1854 C1864 0.930 . S
H1855 C1867 0.929 . S
H1856 C1870 0.930 . S
H1857 C1872 0.960 . S
H1858 C1872 0.960 . S
H1859 C1872 0.960 . S
C1860 H1852 0.929 . S
C1860 C1861 1.377 . S
C1860 C1862 1.384 . S
C1861 C1860 1.377 . S
C1861 C1867 1.390 . S
C1862 H1853 0.930 . S
C1862 C1860 1.384 . S
C1862 C1863 1.372 . S
C1863 C1862 1.372 . S
C1863 C1864 1.400 . S
C1863 C1868 1.490 . S
C1864 H1854 0.930 . S
C1864 C1863 1.400 . S
C1864 C1867 1.386 . S
H1865 C1881 0.930 . S
H1866 C1882 0.931 . S
C1867 H1855 0.929 . S
C1867 C1861 1.390 . S
C1867 C1864 1.386 . S
C1868 C1863 1.490 . S
C1868 C1870 1.395 . S
C1868 C1871 1.403 . S
H1869 C1875 0.930 . S
C1870 H1856 0.930 . S
C1870 C1868 1.395 . S
C1870 C1873 1.403 . S
C1871 C1868 1.403 . S
C1871 C1872 1.524 . S
C1871 C1875 1.400 . S
C1872 H1857 0.960 . S
C1872 H1858 0.960 . S
C1872 H1859 0.960 . S
C1872 C1871 1.524 . S
C1873 C1870 1.403 . S
C1873 C1874 1.392 . S
C1873 C1877 1.495 . S
C1874 C1873 1.392 . S
C1874 C1875 1.385 . S
C1874 C1876 1.478 . S
C1875 H1869 0.930 . S
C1875 C1871 1.400 . S
C1875 C1874 1.385 . S
C1876 C1874 1.478 . S
C1876 C1878 1.381 . S
C1876 C1882 1.383 . S
C1877 C1873 1.495 . S
C1877 H1883 0.959 . S
C1877 H1884 0.961 . S
C1877 H1885 0.960 . S
C1878 C1876 1.381 . S
C1878 C1879 1.394 . S
C1878 H1886 0.930 . S
C1879 C1878 1.394 . S
C1879 C1880 1.383 . S
C1879 H1887 0.929 . S
C1880 C1879 1.383 . S
C1880 C1881 1.377 . S
C1881 H1865 0.930 . S
C1881 C1880 1.377 . S
C1881 C1882 1.379 . S
C1882 H1866 0.931 . S
C1882 C1876 1.383 . S
C1882 C1881 1.379 . S
H1883 C1877 0.959 . S
H1884 C1877 0.961 . S
H1885 C1877 0.960 . S
H1886 C1878 0.930 . S
H1887 C1879 0.929 . S
H1888 C1896 0.929 . S
H1889 C1898 0.930 . S
H1890 C1900 0.930 . S
H1891 C1903 0.929 . S
H1892 C1906 0.930 . S
H1893 C1908 0.960 . S
H1894 C1908 0.960 . S
H1895 C1908 0.960 . S
C1896 H1888 0.929 . S
C1896 C1897 1.377 . S
C1896 C1898 1.384 . S
C1897 C1896 1.377 . S
C1897 C1903 1.390 . S
C1898 H1889 0.930 . S
C1898 C1896 1.384 . S
C1898 C1899 1.372 . S
C1899 C1898 1.372 . S
C1899 C1900 1.400 . S
C1899 C1904 1.490 . S
C1900 H1890 0.930 . S
C1900 C1899 1.400 . S
C1900 C1903 1.386 . S
H1901 C1917 0.930 . S
H1902 C1918 0.931 . S
C1903 H1891 0.929 . S
C1903 C1897 1.390 . S
C1903 C1900 1.386 . S
C1904 C1899 1.490 . S
C1904 C1906 1.395 . S
C1904 C1907 1.403 . S
H1905 C1911 0.930 . S
C1906 H1892 0.930 . S
C1906 C1904 1.395 . S
C1906 C1909 1.403 . S
C1907 C1904 1.403 . S
C1907 C1908 1.524 . S
C1907 C1911 1.400 . S
C1908 H1893 0.960 . S
C1908 H1894 0.960 . S
C1908 H1895 0.960 . S
C1908 C1907 1.524 . S
C1909 C1906 1.403 . S
C1909 C1910 1.392 . S
C1909 C1913 1.495 . S
C1910 C1909 1.392 . S
C1910 C1911 1.385 . S
C1910 C1912 1.478 . S
C1911 H1905 0.930 . S
C1911 C1907 1.400 . S
C1911 C1910 1.385 . S
C1912 C1910 1.478 . S
C1912 C1914 1.381 . S
C1912 C1918 1.383 . S
C1913 C1909 1.495 . S
C1913 H1919 0.959 . S
C1913 H1920 0.961 . S
C1913 H1921 0.960 . S
C1914 C1912 1.381 . S
C1914 C1915 1.394 . S
C1914 H1922 0.930 . S
C1915 C1914 1.394 . S
C1915 C1916 1.383 . S
C1915 H1923 0.929 . S
C1916 C1915 1.383 . S
C1916 C1917 1.377 . S
C1917 H1901 0.930 . S
C1917 C1916 1.377 . S
C1917 C1918 1.379 . S
C1918 H1902 0.931 . S
C1918 C1912 1.383 . S
C1918 C1917 1.379 . S
H1919 C1913 0.959 . S
H1920 C1913 0.961 . S
H1921 C1913 0.960 . S
H1922 C1914 0.930 . S
H1923 C1915 0.929 . S
H1924 C1932 0.929 . S
H1925 C1934 0.930 . S
H1926 C1936 0.930 . S
H1927 C1939 0.929 . S
H1928 C1942 0.930 . S
H1929 C1944 0.960 . S
H1930 C1944 0.960 . S
H1931 C1944 0.960 . S
C1932 H1924 0.929 . S
C1932 C1933 1.377 . S
C1932 C1934 1.384 . S
C1933 C1932 1.377 . S
C1933 C1939 1.390 . S
C1934 H1925 0.930 . S
C1934 C1932 1.384 . S
C1934 C1935 1.372 . S
C1935 C1934 1.372 . S
C1935 C1936 1.400 . S
C1935 C1940 1.490 . S
C1936 H1926 0.930 . S
C1936 C1935 1.400 . S
C1936 C1939 1.386 . S
H1937 C1953 0.930 . S
H1938 C1954 0.931 . S
C1939 H1927 0.929 . S
C1939 C1933 1.390 . S
C1939 C1936 1.386 . S
C1940 C1935 1.490 . S
C1940 C1942 1.395 . S
C1940 C1943 1.403 . S
H1941 C1947 0.930 . S
C1942 H1928 0.930 . S
C1942 C1940 1.395 . S
C1942 C1945 1.403 . S
C1943 C1940 1.403 . S
C1943 C1944 1.524 . S
C1943 C1947 1.400 . S
C1944 H1929 0.960 . S
C1944 H1930 0.960 . S
C1944 H1931 0.960 . S
C1944 C1943 1.524 . S
C1945 C1942 1.403 . S
C1945 C1946 1.392 . S
C1945 C1949 1.495 . S
C1946 C1945 1.392 . S
C1946 C1947 1.385 . S
C1946 C1948 1.478 . S
C1947 H1941 0.930 . S
C1947 C1943 1.400 . S
C1947 C1946 1.385 . S
C1948 C1946 1.478 . S
C1948 C1950 1.381 . S
C1948 C1954 1.383 . S
C1949 C1945 1.495 . S
C1949 H1955 0.959 . S
C1949 H1956 0.961 . S
C1949 H1957 0.960 . S
C1950 C1948 1.381 . S
C1950 C1951 1.394 . S
C1950 H1958 0.930 . S
C1951 C1950 1.394 . S
C1951 C1952 1.383 . S
C1951 H1959 0.929 . S
C1952 C1951 1.383 . S
C1952 C1953 1.377 . S
C1953 H1937 0.930 . S
C1953 C1952 1.377 . S
C1953 C1954 1.379 . S
C1954 H1938 0.931 . S
C1954 C1948 1.383 . S
C1954 C1953 1.379 . S
H1955 C1949 0.959 . S
H1956 C1949 0.961 . S
H1957 C1949 0.960 . S
H1958 C1950 0.930 . S
H1959 C1951 0.929 . S
H1960 C1968 0.929 . S
H1961 C1970 0.930 . S
H1962 C1972 0.930 . S
H1963 C1975 0.929 . S
H1964 C1978 0.930 . S
H1965 C1980 0.960 . S
H1966 C1980 0.960 . S
H1967 C1980 0.960 . S
C1968 H1960 0.929 . S
C1968 C1969 1.377 . S
C1968 C1970 1.384 . S
C1969 C1968 1.377 . S
C1969 C1975 1.390 . S
C1970 H1961 0.930 . S
C1970 C1968 1.384 . S
C1970 C1971 1.372 . S
C1971 C1970 1.372 . S
C1971 C1972 1.400 . S
C1971 C1976 1.490 . S
C1972 H1962 0.930 . S
C1972 C1971 1.400 . S
C1972 C1975 1.386 . S
H1973 C1989 0.930 . S
H1974 C1990 0.931 . S
C1975 H1963 0.929 . S
C1975 C1969 1.390 . S
C1975 C1972 1.386 . S
C1976 C1971 1.490 . S
C1976 C1978 1.395 . S
C1976 C1979 1.403 . S
H1977 C1983 0.930 . S
C1978 H1964 0.930 . S
C1978 C1976 1.395 . S
C1978 C1981 1.403 . S
C1979 C1976 1.403 . S
C1979 C1980 1.524 . S
C1979 C1983 1.400 . S
C1980 H1965 0.960 . S
C1980 H1966 0.960 . S
C1980 H1967 0.960 . S
C1980 C1979 1.524 . S
C1981 C1978 1.403 . S
C1981 C1982 1.392 . S
C1981 C1985 1.495 . S
C1982 C1981 1.392 . S
C1982 C1983 1.385 . S
C1982 C1984 1.478 . S
C1983 H1977 0.930 . S
C1983 C1979 1.400 . S
C1983 C1982 1.385 . S
C1984 C1982 1.478 . S
C1984 C1986 1.381 . S
C1984 C1990 1.383 . S
C1985 C1981 1.495 . S
C1985 H1991 0.959 . S
C1985 H1992 0.961 . S
C1985 H1993 0.960 . S
C1986 C1984 1.381 . S
C1986 C1987 1.394 . S
C1986 H1994 0.930 . S
C1987 C1986 1.394 . S
C1987 C1988 1.383 . S
C1987 H1995 0.929 . S
C1988 C1987 1.383 . S
C1988 C1989 1.377 . S
C1989 H1973 0.930 . S
C1989 C1988 1.377 . S
C1989 C1990 1.379 . S
C1990 H1974 0.931 . S
C1990 C1984 1.383 . S
C1990 C1989 1.379 . S
H1991 C1985 0.959 . S
H1992 C1985 0.961 . S
H1993 C1985 0.960 . S
H1994 C1986 0.930 . S
H1995 C1987 0.929 . S
H1996 C2004 0.929 . S
H1997 C2006 0.930 . S
H1998 C2008 0.930 . S
H1999 C2011 0.929 . S
H2000 C2014 0.930 . S
H2001 C2016 0.960 . S
H2002 C2016 0.960 . S
H2003 C2016 0.960 . S
C2004 H1996 0.929 . S
C2004 C2005 1.377 . S
C2004 C2006 1.384 . S
C2005 C2004 1.377 . S
C2005 C2011 1.390 . S
C2006 H1997 0.930 . S
C2006 C2004 1.384 . S
C2006 C2007 1.372 . S
C2007 C2006 1.372 . S
C2007 C2008 1.400 . S
C2007 C2012 1.490 . S
C2008 H1998 0.930 . S
C2008 C2007 1.400 . S
C2008 C2011 1.386 . S
H2009 C2025 0.930 . S
H2010 C2026 0.931 . S
C2011 H1999 0.929 . S
C2011 C2005 1.390 . S
C2011 C2008 1.386 . S
C2012 C2007 1.490 . S
C2012 C2014 1.395 . S
C2012 C2015 1.403 . S
H2013 C2019 0.930 . S
C2014 H2000 0.930 . S
C2014 C2012 1.395 . S
C2014 C2017 1.403 . S
C2015 C2012 1.403 . S
C2015 C2016 1.524 . S
C2015 C2019 1.400 . S
C2016 H2001 0.960 . S
C2016 H2002 0.960 . S
C2016 H2003 0.960 . S
C2016 C2015 1.524 . S
C2017 C2014 1.403 . S
C2017 C2018 1.392 . S
C2017 C2021 1.495 . S
C2018 C2017 1.392 . S
C2018 C2019 1.385 . S
C2018 C2020 1.478 . S
C2019 H2013 0.930 . S
C2019 C2015 1.400 . S
C2019 C2018 1.385 . S
C2020 C2018 1.478 . S
C2020 C2022 1.381 . S
C2020 C2026 1.383 . S
C2021 C2017 1.495 . S
C2021 H2027 0.959 . S
C2021 H2028 0.961 . S
C2021 H2029 0.960 . S
C2022 C2020 1.381 . S
C2022 C2023 1.394 . S
C2022 H2030 0.930 . S
C2023 C2022 1.394 . S
C2023 C2024 1.383 . S
C2023 H2031 0.929 . S
C2024 C2023 1.383 . S
C2024 C2025 1.377 . S
C2025 H2009 0.930 . S
C2025 C2024 1.377 . S
C2025 C2026 1.379 . S
C2026 H2010 0.931 . S
C2026 C2020 1.383 . S
C2026 C2025 1.379 . S
H2027 C2021 0.959 . S
H2028 C2021 0.961 . S
H2029 C2021 0.960 . S
H2030 C2022 0.930 . S
H2031 C2023 0.929 . S
H2032 C2040 0.929 . S
H2033 C2042 0.930 . S
H2034 C2044 0.930 . S
H2035 C2047 0.929 . S
H2036 C2050 0.930 . S
H2037 C2052 0.960 . S
H2038 C2052 0.960 . S
H2039 C2052 0.960 . S
C2040 H2032 0.929 . S
C2040 C2041 1.377 . S
C2040 C2042 1.384 . S
C2041 C2040 1.377 . S
C2041 C2047 1.390 . S
C2042 H2033 0.930 . S
C2042 C2040 1.384 . S
C2042 C2043 1.372 . S
C2043 C2042 1.372 . S
C2043 C2044 1.400 . S
C2043 C2048 1.490 . S
C2044 H2034 0.930 . S
C2044 C2043 1.400 . S
C2044 C2047 1.386 . S
H2045 C2061 0.930 . S
H2046 C2062 0.931 . S
C2047 H2035 0.929 . S
C2047 C2041 1.390 . S
C2047 C2044 1.386 . S
C2048 C2043 1.490 . S
C2048 C2050 1.395 . S
C2048 C2051 1.403 . S
H2049 C2055 0.930 . S
C2050 H2036 0.930 . S
C2050 C2048 1.395 . S
C2050 C2053 1.403 . S
C2051 C2048 1.403 . S
C2051 C2052 1.524 . S
C2051 C2055 1.400 . S
C2052 H2037 0.960 . S
C2052 H2038 0.960 . S
C2052 H2039 0.960 . S
C2052 C2051 1.524 . S
C2053 C2050 1.403 . S
C2053 C2054 1.392 . S
C2053 C2057 1.495 . S
C2054 C2053 1.392 . S
C2054 C2055 1.385 . S
C2054 C2056 1.478 . S
C2055 H2049 0.930 . S
C2055 C2051 1.400 . S
C2055 C2054 1.385 . S
C2056 C2054 1.478 . S
C2056 C2058 1.381 . S
C2056 C2062 1.383 . S
C2057 C2053 1.495 . S
C2057 H2063 0.959 . S
C2057 H2064 0.961 . S
C2057 H2065 0.960 . S
C2058 C2056 1.381 . S
C2058 C2059 1.394 . S
C2058 H2066 0.930 . S
C2059 C2058 1.394 . S
C2059 C2060 1.383 . S
C2059 H2067 0.929 . S
C2060 C2059 1.383 . S
C2060 C2061 1.377 . S
C2061 H2045 0.930 . S
C2061 C2060 1.377 . S
C2061 C2062 1.379 . S
C2062 H2046 0.931 . S
C2062 C2056 1.383 . S
C2062 C2061 1.379 . S
H2063 C2057 0.959 . S
H2064 C2057 0.961 . S
H2065 C2057 0.960 . S
H2066 C2058 0.930 . S
H2067 C2059 0.929 . S
H2068 C2076 0.929 . S
H2069 C2078 0.930 . S
H2070 C2080 0.930 . S
H2071 C2083 0.929 . S
H2072 C2086 0.930 . S
H2073 C2088 0.960 . S
H2074 C2088 0.960 . S
H2075 C2088 0.960 . S
C2076 H2068 0.929 . S
C2076 C2077 1.377 . S
C2076 C2078 1.384 . S
C2077 C2076 1.377 . S
C2077 C2083 1.390 . S
C2078 H2069 0.930 . S
C2078 C2076 1.384 . S
C2078 C2079 1.372 . S
C2079 C2078 1.372 . S
C2079 C2080 1.400 . S
C2079 C2084 1.490 . S
C2080 H2070 0.930 . S
C2080 C2079 1.400 . S
C2080 C2083 1.386 . S
H2081 C2097 0.930 . S
H2082 C2098 0.931 . S
C2083 H2071 0.929 . S
C2083 C2077 1.390 . S
C2083 C2080 1.386 . S
C2084 C2079 1.490 . S
C2084 C2086 1.395 . S
C2084 C2087 1.403 . S
H2085 C2091 0.930 . S
C2086 H2072 0.930 . S
C2086 C2084 1.395 . S
C2086 C2089 1.403 . S
C2087 C2084 1.403 . S
C2087 C2088 1.524 . S
C2087 C2091 1.400 . S
C2088 H2073 0.960 . S
C2088 H2074 0.960 . S
C2088 H2075 0.960 . S
C2088 C2087 1.524 . S
C2089 C2086 1.403 . S
C2089 C2090 1.392 . S
C2089 C2093 1.495 . S
C2090 C2089 1.392 . S
C2090 C2091 1.385 . S
C2090 C2092 1.478 . S
C2091 H2085 0.930 . S
C2091 C2087 1.400 . S
C2091 C2090 1.385 . S
C2092 C2090 1.478 . S
C2092 C2094 1.381 . S
C2092 C2098 1.383 . S
C2093 C2089 1.495 . S
C2093 H2099 0.959 . S
C2093 H2100 0.961 . S
C2093 H2101 0.960 . S
C2094 C2092 1.381 . S
C2094 C2095 1.394 . S
C2094 H2102 0.930 . S
C2095 C2094 1.394 . S
C2095 C2096 1.383 . S
C2095 H2103 0.929 . S
C2096 C2095 1.383 . S
C2096 C2097 1.377 . S
C2097 H2081 0.930 . S
C2097 C2096 1.377 . S
C2097 C2098 1.379 . S
C2098 H2082 0.931 . S
C2098 C2092 1.383 . S
C2098 C2097 1.379 . S
H2099 C2093 0.959 . S
H2100 C2093 0.961 . S
H2101 C2093 0.960 . S
H2102 C2094 0.930 . S
H2103 C2095 0.929 . S
H2104 C2112 0.929 . S
H2105 C2114 0.930 . S
H2106 C2116 0.930 . S
H2107 C2119 0.929 . S
H2108 C2122 0.930 . S
H2109 C2124 0.960 . S
H2110 C2124 0.960 . S
H2111 C2124 0.960 . S
C2112 H2104 0.929 . S
C2112 C2113 1.377 . S
C2112 C2114 1.384 . S
C2113 C2112 1.377 . S
C2113 C2119 1.390 . S
C2114 H2105 0.930 . S
C2114 C2112 1.384 . S
C2114 C2115 1.372 . S
C2115 C2114 1.372 . S
C2115 C2116 1.400 . S
C2115 C2120 1.490 . S
C2116 H2106 0.930 . S
C2116 C2115 1.400 . S
C2116 C2119 1.386 . S
H2117 C2133 0.930 . S
H2118 C2134 0.931 . S
C2119 H2107 0.929 . S
C2119 C2113 1.390 . S
C2119 C2116 1.386 . S
C2120 C2115 1.490 . S
C2120 C2122 1.395 . S
C2120 C2123 1.403 . S
H2121 C2127 0.930 . S
C2122 H2108 0.930 . S
C2122 C2120 1.395 . S
C2122 C2125 1.403 . S
C2123 C2120 1.403 . S
C2123 C2124 1.524 . S
C2123 C2127 1.400 . S
C2124 H2109 0.960 . S
C2124 H2110 0.960 . S
C2124 H2111 0.960 . S
C2124 C2123 1.524 . S
C2125 C2122 1.403 . S
C2125 C2126 1.392 . S
C2125 C2129 1.495 . S
C2126 C2125 1.392 . S
C2126 C2127 1.385 . S
C2126 C2128 1.478 . S
C2127 H2121 0.930 . S
C2127 C2123 1.400 . S
C2127 C2126 1.385 . S
C2128 C2126 1.478 . S
C2128 C2130 1.381 . S
C2128 C2134 1.383 . S
C2129 C2125 1.495 . S
C2129 H2135 0.959 . S
C2129 H2136 0.961 . S
C2129 H2137 0.960 . S
C2130 C2128 1.381 . S
C2130 C2131 1.394 . S
C2130 H2138 0.930 . S
C2131 C2130 1.394 . S
C2131 C2132 1.383 . S
C2131 H2139 0.929 . S
C2132 C2131 1.383 . S
C2132 C2133 1.377 . S
C2133 H2117 0.930 . S
C2133 C2132 1.377 . S
C2133 C2134 1.379 . S
C2134 H2118 0.931 . S
C2134 C2128 1.383 . S
C2134 C2133 1.379 . S
H2135 C2129 0.959 . S
H2136 C2129 0.961 . S
H2137 C2129 0.960 . S
H2138 C2130 0.930 . S
H2139 C2131 0.929 . S
H2140 C2148 0.929 . S
H2141 C2150 0.930 . S
H2142 C2152 0.930 . S
H2143 C2155 0.929 . S
H2144 C2158 0.930 . S
H2145 C2160 0.960 . S
H2146 C2160 0.960 . S
H2147 C2160 0.960 . S
C2148 H2140 0.929 . S
C2148 C2149 1.377 . S
C2148 C2150 1.384 . S
C2149 C2148 1.377 . S
C2149 C2155 1.390 . S
C2150 H2141 0.930 . S
C2150 C2148 1.384 . S
C2150 C2151 1.372 . S
C2151 C2150 1.372 . S
C2151 C2152 1.400 . S
C2151 C2156 1.490 . S
C2152 H2142 0.930 . S
C2152 C2151 1.400 . S
C2152 C2155 1.386 . S
H2153 C2169 0.930 . S
H2154 C2170 0.931 . S
C2155 H2143 0.929 . S
C2155 C2149 1.390 . S
C2155 C2152 1.386 . S
C2156 C2151 1.490 . S
C2156 C2158 1.395 . S
C2156 C2159 1.403 . S
H2157 C2163 0.930 . S
C2158 H2144 0.930 . S
C2158 C2156 1.395 . S
C2158 C2161 1.403 . S
C2159 C2156 1.403 . S
C2159 C2160 1.524 . S
C2159 C2163 1.400 . S
C2160 H2145 0.960 . S
C2160 H2146 0.960 . S
C2160 H2147 0.960 . S
C2160 C2159 1.524 . S
C2161 C2158 1.403 . S
C2161 C2162 1.392 . S
C2161 C2165 1.495 . S
C2162 C2161 1.392 . S
C2162 C2163 1.385 . S
C2162 C2164 1.478 . S
C2163 H2157 0.930 . S
C2163 C2159 1.400 . S
C2163 C2162 1.385 . S
C2164 C2162 1.478 . S
C2164 C2166 1.381 . S
C2164 C2170 1.383 . S
C2165 C2161 1.495 . S
C2165 H2171 0.959 . S
C2165 H2172 0.961 . S
C2165 H2173 0.960 . S
C2166 C2164 1.381 . S
C2166 C2167 1.394 . S
C2166 H2174 0.930 . S
C2167 C2166 1.394 . S
C2167 C2168 1.383 . S
C2167 H2175 0.929 . S
C2168 C2167 1.383 . S
C2168 C2169 1.377 . S
C2169 H2153 0.930 . S
C2169 C2168 1.377 . S
C2169 C2170 1.379 . S
C2170 H2154 0.931 . S
C2170 C2164 1.383 . S
C2170 C2169 1.379 . S
H2171 C2165 0.959 . S
H2172 C2165 0.961 . S
H2173 C2165 0.960 . S
H2174 C2166 0.930 . S
H2175 C2167 0.929 . S
H2176 C2184 0.929 . S
H2177 C2186 0.930 . S
H2178 C2188 0.930 . S
H2179 C2191 0.929 . S
H2180 C2194 0.930 . S
H2181 C2196 0.960 . S
H2182 C2196 0.960 . S
H2183 C2196 0.960 . S
C2184 H2176 0.929 . S
C2184 C2185 1.377 . S
C2184 C2186 1.384 . S
C2185 C2184 1.377 . S
C2185 C2191 1.390 . S
C2186 H2177 0.930 . S
C2186 C2184 1.384 . S
C2186 C2187 1.372 . S
C2187 C2186 1.372 . S
C2187 C2188 1.400 . S
C2187 C2192 1.490 . S
C2188 H2178 0.930 . S
C2188 C2187 1.400 . S
C2188 C2191 1.386 . S
H2189 C2205 0.930 . S
H2190 C2206 0.931 . S
C2191 H2179 0.929 . S
C2191 C2185 1.390 . S
C2191 C2188 1.386 . S
C2192 C2187 1.490 . S
C2192 C2194 1.395 . S
C2192 C2195 1.403 . S
H2193 C2199 0.930 . S
C2194 H2180 0.930 . S
C2194 C2192 1.395 . S
C2194 C2197 1.403 . S
C2195 C2192 1.403 . S
C2195 C2196 1.524 . S
C2195 C2199 1.400 . S
C2196 H2181 0.960 . S
C2196 H2182 0.960 . S
C2196 H2183 0.960 . S
C2196 C2195 1.524 . S
C2197 C2194 1.403 . S
C2197 C2198 1.392 . S
C2197 C2201 1.495 . S
C2198 C2197 1.392 . S
C2198 C2199 1.385 . S
C2198 C2200 1.478 . S
C2199 H2193 0.930 . S
C2199 C2195 1.400 . S
C2199 C2198 1.385 . S
C2200 C2198 1.478 . S
C2200 C2202 1.381 . S
C2200 C2206 1.383 . S
C2201 C2197 1.495 . S
C2201 H2207 0.959 . S
C2201 H2208 0.961 . S
C2201 H2209 0.960 . S
C2202 C2200 1.381 . S
C2202 C2203 1.394 . S
C2202 H2210 0.930 . S
C2203 C2202 1.394 . S
C2203 C2204 1.383 . S
C2203 H2211 0.929 . S
C2204 C2203 1.383 . S
C2204 C2205 1.377 . S
C2205 H2189 0.930 . S
C2205 C2204 1.377 . S
C2205 C2206 1.379 . S
C2206 H2190 0.931 . S
C2206 C2200 1.383 . S
C2206 C2205 1.379 . S
H2207 C2201 0.959 . S
H2208 C2201 0.961 . S
H2209 C2201 0.960 . S
H2210 C2202 0.930 . S
H2211 C2203 0.929 . S
C512 C195 1.232 . S
C493 C9 1.232 . S
C548 C173 1.540 . S
C529 C22 1.576 . S
C584 C170 0.297 . S
C565 C49 0.327 . S
C601 C61 1.587 . S
C620 C182 1.547 . S
C637 C81 1.573 . S
C656 C165 1.511 . S
C692 C187 0.242 . S
C673 C108 0.358 . S
C709 C122 1.585 . S
C728 C192 1.573 . S
C745 C148 1.228 . S
C764 C188 1.232 . S
C800 C246 2.426 . S
C781 C18 2.435 . S
C817 C39 1.165 . S
C836 C296 1.189 . S
C872 C219 2.410 . S
C853 C58 2.426 . S
C908 C295 0.331 . S
C889 C69 0.355 . S
C925 C89 0.393 . S
C944 C224 0.270 . S
C980 C290 1.509 . S
C961 C102 1.578 . S
C997 C139 1.167 . S
C1016 C249 1.193 . S
C1033 C142 1.599 . S
C1052 C281 1.541 . S
C1069 C1 1.602 . S
C1088 C273 1.575 . S
C1105 C98 1.184 . S
C1124 C303 1.214 . S
C1160 C227 2.423 . S
C1141 C119 2.433 . S
C1196 C278 0.298 . S
C1177 C128 0.385 . S
C1213 C159 2.438 . S
C1232 C236 2.398 . S
C1249 C41 1.593 . S
C1268 C300 1.526 . S
C1304 C242 1.203 . S
C1285 C78 1.173 . S
C1321 C28 0.367 . S
C1340 C241 0.293 . S
C1357 C149 1.237 . S
C1376 C357 1.241 . S
C1393 C82 1.576 . S
C1412 C335 1.541 . S
C1448 C332 0.324 . S
C1429 C109 0.361 . S
C1484 C344 1.543 . S
C1465 C121 1.587 . S
C1501 C21 1.571 . S
C1520 C327 1.519 . S
C1556 C349 0.294 . S
C1537 C48 0.341 . S
C1573 C62 1.584 . S
C1592 C354 1.577 . S
C1609 C8 1.235 . S
C1628 C350 1.251 . S
C1645 C158 2.435 . S
C1664 C408 2.422 . S
C1700 C458 1.212 . S
C1681 C99 1.175 . S
C1717 C118 2.424 . S
C1736 C381 2.397 . S
C1753 C129 0.383 . S
C1772 C457 0.270 . S
C1808 C386 0.318 . S
C1789 C29 0.371 . S
C1825 C42 1.576 . S
C1844 C452 1.506 . S
C1880 C411 1.202 . S
C1861 C79 1.163 . S
C1916 C443 1.577 . S
C1897 C2 1.599 . S
C1952 C435 1.576 . S
C1933 C141 1.606 . S
C1969 C38 1.171 . S
C1988 C465 1.198 . S
C2005 C59 2.433 . S
C2024 C389 2.425 . S
C2060 C440 0.295 . S
C2041 C68 0.384 . S
C2077 C19 2.434 . S
C2096 C398 2.422 . S
C2113 C101 1.595 . S
C2132 C462 1.566 . S
C2168 C404 1.201 . S
C2149 C138 1.177 . S
C2204 C403 0.347 . S
C2185 C88 0.384 . S
