# Generated by pormake.
# Topology gar, (4,6)-cn, num edge types: 1
# Building blocks:
#     Node 0, Type 0, BuildingBlock: AZAVOO_clean_sbu_0, # of connection points: 4
#     Node 1, Type 0, BuildingBlock: AZAVOO_clean_sbu_0, # of connection points: 4
#     Node 2, Type 0, BuildingBlock: AZAVOO_clean_sbu_0, # of connection points: 4
#     Node 3, Type 0, BuildingBlock: AZAVOO_clean_sbu_0, # of connection points: 4
#     Node 4, Type 0, BuildingBlock: AZAVOO_clean_sbu_0, # of connection points: 4
#     Node 5, Type 0, BuildingBlock: AZAVOO_clean_sbu_0, # of connection points: 4
#     Node 6, Type 0, BuildingBlock: AZAVOO_clean_sbu_0, # of connection points: 4
#     Node 7, Type 0, BuildingBlock: AZAVOO_clean_sbu_0, # of connection points: 4
#     Node 8, Type 0, BuildingBlock: AZAVOO_clean_sbu_0, # of connection points: 4
#     Node 9, Type 0, BuildingBlock: AZAVOO_clean_sbu_0, # of connection points: 4
#     Node 10, Type 0, BuildingBlock: AZAVOO_clean_sbu_0, # of connection points: 4
#     Node 11, Type 0, BuildingBlock: AZAVOO_clean_sbu_0, # of connection points: 4
#     Node 12, Type 0, BuildingBlock: AZAVOO_clean_sbu_0, # of connection points: 4
#     Node 13, Type 0, BuildingBlock: AZAVOO_clean_sbu_0, # of connection points: 4
#     Node 14, Type 0, BuildingBlock: AZAVOO_clean_sbu_0, # of connection points: 4
#     Node 15, Type 0, BuildingBlock: AZAVOO_clean_sbu_0, # of connection points: 4
#     Node 16, Type 0, BuildingBlock: AZAVOO_clean_sbu_0, # of connection points: 4
#     Node 17, Type 0, BuildingBlock: AZAVOO_clean_sbu_0, # of connection points: 4
#     Node 18, Type 0, BuildingBlock: AZAVOO_clean_sbu_0, # of connection points: 4
#     Node 19, Type 0, BuildingBlock: AZAVOO_clean_sbu_0, # of connection points: 4
#     Node 20, Type 0, BuildingBlock: AZAVOO_clean_sbu_0, # of connection points: 4
#     Node 21, Type 0, BuildingBlock: AZAVOO_clean_sbu_0, # of connection points: 4
#     Node 22, Type 0, BuildingBlock: AZAVOO_clean_sbu_0, # of connection points: 4
#     Node 23, Type 0, BuildingBlock: AZAVOO_clean_sbu_0, # of connection points: 4
#     Node 24, Type 1, BuildingBlock: PAMTOO_clean_sbu_0, # of connection points: 6
#     Node 25, Type 1, BuildingBlock: PAMTOO_clean_sbu_0, # of connection points: 6
#     Node 26, Type 1, BuildingBlock: PAMTOO_clean_sbu_0, # of connection points: 6
#     Node 27, Type 1, BuildingBlock: PAMTOO_clean_sbu_0, # of connection points: 6
#     Node 28, Type 1, BuildingBlock: PAMTOO_clean_sbu_0, # of connection points: 6
#     Node 29, Type 1, BuildingBlock: PAMTOO_clean_sbu_0, # of connection points: 6
#     Node 30, Type 1, BuildingBlock: PAMTOO_clean_sbu_0, # of connection points: 6
#     Node 31, Type 1, BuildingBlock: PAMTOO_clean_sbu_0, # of connection points: 6
#     Node 32, Type 1, BuildingBlock: PAMTOO_clean_sbu_0, # of connection points: 6
#     Node 33, Type 1, BuildingBlock: PAMTOO_clean_sbu_0, # of connection points: 6
#     Node 34, Type 1, BuildingBlock: PAMTOO_clean_sbu_0, # of connection points: 6
#     Node 35, Type 1, BuildingBlock: PAMTOO_clean_sbu_0, # of connection points: 6
#     Node 36, Type 1, BuildingBlock: PAMTOO_clean_sbu_0, # of connection points: 6
#     Node 37, Type 1, BuildingBlock: PAMTOO_clean_sbu_0, # of connection points: 6
#     Node 38, Type 1, BuildingBlock: PAMTOO_clean_sbu_0, # of connection points: 6
#     Node 39, Type 1, BuildingBlock: PAMTOO_clean_sbu_0, # of connection points: 6
#     Edge 40, Type (0, 1), BuildingBlock: ZUJKAS_clean_linker_0, # of connection points: 2
#     Edge 41, Type (0, 1), BuildingBlock: ZUJKAS_clean_linker_0, # of connection points: 2
#     Edge 42, Type (0, 1), BuildingBlock: ZUJKAS_clean_linker_0, # of connection points: 2
#     Edge 43, Type (0, 1), BuildingBlock: ZUJKAS_clean_linker_0, # of connection points: 2
#     Edge 44, Type (0, 1), BuildingBlock: ZUJKAS_clean_linker_0, # of connection points: 2
#     Edge 45, Type (0, 1), BuildingBlock: ZUJKAS_clean_linker_0, # of connection points: 2
#     Edge 46, Type (0, 1), BuildingBlock: ZUJKAS_clean_linker_0, # of connection points: 2
#     Edge 47, Type (0, 1), BuildingBlock: ZUJKAS_clean_linker_0, # of connection points: 2
#     Edge 48, Type (0, 1), BuildingBlock: ZUJKAS_clean_linker_0, # of connection points: 2
#     Edge 49, Type (0, 1), BuildingBlock: ZUJKAS_clean_linker_0, # of connection points: 2
#     Edge 50, Type (0, 1), BuildingBlock: ZUJKAS_clean_linker_0, # of connection points: 2
#     Edge 51, Type (0, 1), BuildingBlock: ZUJKAS_clean_linker_0, # of connection points: 2
#     Edge 52, Type (0, 1), BuildingBlock: ZUJKAS_clean_linker_0, # of connection points: 2
#     Edge 53, Type (0, 1), BuildingBlock: ZUJKAS_clean_linker_0, # of connection points: 2
#     Edge 54, Type (0, 1), BuildingBlock: ZUJKAS_clean_linker_0, # of connection points: 2
#     Edge 55, Type (0, 1), BuildingBlock: ZUJKAS_clean_linker_0, # of connection points: 2
#     Edge 56, Type (0, 1), BuildingBlock: ZUJKAS_clean_linker_0, # of connection points: 2
#     Edge 57, Type (0, 1), BuildingBlock: ZUJKAS_clean_linker_0, # of connection points: 2
#     Edge 58, Type (0, 1), BuildingBlock: ZUJKAS_clean_linker_0, # of connection points: 2
#     Edge 59, Type (0, 1), BuildingBlock: ZUJKAS_clean_linker_0, # of connection points: 2
#     Edge 60, Type (0, 1), BuildingBlock: ZUJKAS_clean_linker_0, # of connection points: 2
#     Edge 61, Type (0, 1), BuildingBlock: ZUJKAS_clean_linker_0, # of connection points: 2
#     Edge 62, Type (0, 1), BuildingBlock: ZUJKAS_clean_linker_0, # of connection points: 2
#     Edge 63, Type (0, 1), BuildingBlock: ZUJKAS_clean_linker_0, # of connection points: 2
#     Edge 64, Type (0, 1), BuildingBlock: ZUJKAS_clean_linker_0, # of connection points: 2
#     Edge 65, Type (0, 1), BuildingBlock: ZUJKAS_clean_linker_0, # of connection points: 2
#     Edge 66, Type (0, 1), BuildingBlock: ZUJKAS_clean_linker_0, # of connection points: 2
#     Edge 67, Type (0, 1), BuildingBlock: ZUJKAS_clean_linker_0, # of connection points: 2
#     Edge 68, Type (0, 1), BuildingBlock: ZUJKAS_clean_linker_0, # of connection points: 2
#     Edge 69, Type (0, 1), BuildingBlock: ZUJKAS_clean_linker_0, # of connection points: 2
#     Edge 70, Type (0, 1), BuildingBlock: ZUJKAS_clean_linker_0, # of connection points: 2
#     Edge 71, Type (0, 1), BuildingBlock: ZUJKAS_clean_linker_0, # of connection points: 2
#     Edge 72, Type (0, 1), BuildingBlock: ZUJKAS_clean_linker_0, # of connection points: 2
#     Edge 73, Type (0, 1), BuildingBlock: ZUJKAS_clean_linker_0, # of connection points: 2
#     Edge 74, Type (0, 1), BuildingBlock: ZUJKAS_clean_linker_0, # of connection points: 2
#     Edge 75, Type (0, 1), BuildingBlock: ZUJKAS_clean_linker_0, # of connection points: 2
#     Edge 76, Type (0, 1), BuildingBlock: ZUJKAS_clean_linker_0, # of connection points: 2
#     Edge 77, Type (0, 1), BuildingBlock: ZUJKAS_clean_linker_0, # of connection points: 2
#     Edge 78, Type (0, 1), BuildingBlock: ZUJKAS_clean_linker_0, # of connection points: 2
#     Edge 79, Type (0, 1), BuildingBlock: ZUJKAS_clean_linker_0, # of connection points: 2
#     Edge 80, Type (0, 1), BuildingBlock: ZUJKAS_clean_linker_0, # of connection points: 2
#     Edge 81, Type (0, 1), BuildingBlock: ZUJKAS_clean_linker_0, # of connection points: 2
#     Edge 82, Type (0, 1), BuildingBlock: ZUJKAS_clean_linker_0, # of connection points: 2
#     Edge 83, Type (0, 1), BuildingBlock: ZUJKAS_clean_linker_0, # of connection points: 2
#     Edge 84, Type (0, 1), BuildingBlock: ZUJKAS_clean_linker_0, # of connection points: 2
#     Edge 85, Type (0, 1), BuildingBlock: ZUJKAS_clean_linker_0, # of connection points: 2
#     Edge 86, Type (0, 1), BuildingBlock: ZUJKAS_clean_linker_0, # of connection points: 2
#     Edge 87, Type (0, 1), BuildingBlock: ZUJKAS_clean_linker_0, # of connection points: 2
#     Edge 88, Type (0, 1), BuildingBlock: ZUJKAS_clean_linker_0, # of connection points: 2
#     Edge 89, Type (0, 1), BuildingBlock: ZUJKAS_clean_linker_0, # of connection points: 2
#     Edge 90, Type (0, 1), BuildingBlock: ZUJKAS_clean_linker_0, # of connection points: 2
#     Edge 91, Type (0, 1), BuildingBlock: ZUJKAS_clean_linker_0, # of connection points: 2
#     Edge 92, Type (0, 1), BuildingBlock: ZUJKAS_clean_linker_0, # of connection points: 2
#     Edge 93, Type (0, 1), BuildingBlock: ZUJKAS_clean_linker_0, # of connection points: 2
#     Edge 94, Type (0, 1), BuildingBlock: ZUJKAS_clean_linker_0, # of connection points: 2
#     Edge 95, Type (0, 1), BuildingBlock: ZUJKAS_clean_linker_0, # of connection points: 2
#     Edge 96, Type (0, 1), BuildingBlock: ZUJKAS_clean_linker_0, # of connection points: 2
#     Edge 97, Type (0, 1), BuildingBlock: ZUJKAS_clean_linker_0, # of connection points: 2
#     Edge 98, Type (0, 1), BuildingBlock: ZUJKAS_clean_linker_0, # of connection points: 2
#     Edge 99, Type (0, 1), BuildingBlock: ZUJKAS_clean_linker_0, # of connection points: 2
#     Edge 100, Type (0, 1), BuildingBlock: ZUJKAS_clean_linker_0, # of connection points: 2
#     Edge 101, Type (0, 1), BuildingBlock: ZUJKAS_clean_linker_0, # of connection points: 2
#     Edge 102, Type (0, 1), BuildingBlock: ZUJKAS_clean_linker_0, # of connection points: 2
#     Edge 103, Type (0, 1), BuildingBlock: ZUJKAS_clean_linker_0, # of connection points: 2
#     Edge 104, Type (0, 1), BuildingBlock: ZUJKAS_clean_linker_0, # of connection points: 2
#     Edge 105, Type (0, 1), BuildingBlock: ZUJKAS_clean_linker_0, # of connection points: 2
#     Edge 106, Type (0, 1), BuildingBlock: ZUJKAS_clean_linker_0, # of connection points: 2
#     Edge 107, Type (0, 1), BuildingBlock: ZUJKAS_clean_linker_0, # of connection points: 2
#     Edge 108, Type (0, 1), BuildingBlock: ZUJKAS_clean_linker_0, # of connection points: 2
#     Edge 109, Type (0, 1), BuildingBlock: ZUJKAS_clean_linker_0, # of connection points: 2
#     Edge 110, Type (0, 1), BuildingBlock: ZUJKAS_clean_linker_0, # of connection points: 2
#     Edge 111, Type (0, 1), BuildingBlock: ZUJKAS_clean_linker_0, # of connection points: 2
#     Edge 112, Type (0, 1), BuildingBlock: ZUJKAS_clean_linker_0, # of connection points: 2
#     Edge 113, Type (0, 1), BuildingBlock: ZUJKAS_clean_linker_0, # of connection points: 2
#     Edge 114, Type (0, 1), BuildingBlock: ZUJKAS_clean_linker_0, # of connection points: 2
#     Edge 115, Type (0, 1), BuildingBlock: ZUJKAS_clean_linker_0, # of connection points: 2
#     Edge 116, Type (0, 1), BuildingBlock: ZUJKAS_clean_linker_0, # of connection points: 2
#     Edge 117, Type (0, 1), BuildingBlock: ZUJKAS_clean_linker_0, # of connection points: 2
#     Edge 118, Type (0, 1), BuildingBlock: ZUJKAS_clean_linker_0, # of connection points: 2
#     Edge 119, Type (0, 1), BuildingBlock: ZUJKAS_clean_linker_0, # of connection points: 2
#     Edge 120, Type (0, 1), BuildingBlock: ZUJKAS_clean_linker_0, # of connection points: 2
#     Edge 121, Type (0, 1), BuildingBlock: ZUJKAS_clean_linker_0, # of connection points: 2
#     Edge 122, Type (0, 1), BuildingBlock: ZUJKAS_clean_linker_0, # of connection points: 2
#     Edge 123, Type (0, 1), BuildingBlock: ZUJKAS_clean_linker_0, # of connection points: 2
#     Edge 124, Type (0, 1), BuildingBlock: ZUJKAS_clean_linker_0, # of connection points: 2
#     Edge 125, Type (0, 1), BuildingBlock: ZUJKAS_clean_linker_0, # of connection points: 2
#     Edge 126, Type (0, 1), BuildingBlock: ZUJKAS_clean_linker_0, # of connection points: 2
#     Edge 127, Type (0, 1), BuildingBlock: ZUJKAS_clean_linker_0, # of connection points: 2
#     Edge 128, Type (0, 1), BuildingBlock: ZUJKAS_clean_linker_0, # of connection points: 2
#     Edge 129, Type (0, 1), BuildingBlock: ZUJKAS_clean_linker_0, # of connection points: 2
#     Edge 130, Type (0, 1), BuildingBlock: ZUJKAS_clean_linker_0, # of connection points: 2
#     Edge 131, Type (0, 1), BuildingBlock: ZUJKAS_clean_linker_0, # of connection points: 2
#     Edge 132, Type (0, 1), BuildingBlock: ZUJKAS_clean_linker_0, # of connection points: 2
#     Edge 133, Type (0, 1), BuildingBlock: ZUJKAS_clean_linker_0, # of connection points: 2
#     Edge 134, Type (0, 1), BuildingBlock: ZUJKAS_clean_linker_0, # of connection points: 2
#     Edge 135, Type (0, 1), BuildingBlock: ZUJKAS_clean_linker_0, # of connection points: 2
# Relax obj value: 0.154
# Max RMSD: 0.264
# Mean RMSD: 0.193
data_MOF--net-gar--node1-AZAVOO_clean_sbu_0--node2-PAMTOO_clean_sbu_0--edge1-ZUJKAS_clean_linker_0
_symmetry_space_group_name_H-M    P1
_symmetry_Int_Tables_number       1
_symmetry_cell_setting            triclinic
loop_
_symmetry_equiv_pos_as_xyz
'x, y, z'
_cell_length_a     76.661217
_cell_length_b     74.207808
_cell_length_c     73.272836
_cell_angle_alpha  98.343638
_cell_angle_beta   94.998998
_cell_angle_gamma 105.81797
loop_
_atom_site_label
_atom_site_type_symbol
_atom_site_fract_x
_atom_site_fract_y
_atom_site_fract_z
_atom_type_partial_charge
Mg0 Mg 0.02976 0.29599 0.34298 0.0
O1 O 0.03096 0.32284 0.3653 0.0
O2 O 0.00366 0.31522 0.37552 0.0
Mg3 Mg 0.98553 0.28584 0.36175 0.0
C4 C 0.01941 0.32689 0.37572 0.0
C5 C 0.06629 0.29102 0.33237 0.0
O6 O 0.05411 0.27422 0.32787 0.0
O7 O 0.03346 0.27842 0.36618 0.0
O8 O 0.00568 0.27268 0.3754 0.0
O9 O 0.01514 0.30755 0.32052 0.0
O10 O 0.00122 0.2888 0.33857 0.0
C11 C 0.02178 0.27079 0.37639 0.0
C12 C 0.99997 0.29849 0.32571 0.0
O13 O 0.06107 0.30487 0.34015 0.0
Mg14 Mg 0.00906 0.76321 0.69089 0.0
O15 O 0.00397 0.73433 0.67146 0.0
O16 O 0.97917 0.72979 0.65113 0.0
Mg17 Mg 0.96575 0.75342 0.66002 0.0
C18 C 0.99286 0.72463 0.65718 0.0
C19 C 0.05003 0.77413 0.71219 0.0
O20 O 0.04478 0.78778 0.72154 0.0
O21 O 0.01706 0.78 0.66691 0.0
O22 O 0.98918 0.776 0.65186 0.0
O23 O 0.99126 0.75087 0.71241 0.0
O24 O 0.98078 0.76098 0.68839 0.0
C25 C 0.00643 0.784 0.65461 0.0
C26 C 0.97759 0.75419 0.70327 0.0
O27 O 0.03879 0.76235 0.69914 0.0
Mg28 Mg 0.52993 0.79755 0.84144 0.0
O29 O 0.53252 0.82378 0.86446 0.0
O30 O 0.50602 0.81697 0.8764 0.0
Mg31 Mg 0.48602 0.789 0.86074 0.0
C32 C 0.52201 0.82795 0.87606 0.0
C33 C 0.56622 0.79201 0.82992 0.0
O34 O 0.55374 0.77563 0.8238 0.0
O35 O 0.53256 0.77857 0.86358 0.0
O36 O 0.5042 0.77206 0.8715 0.0
O37 O 0.51668 0.81105 0.81993 0.0
O38 O 0.50146 0.79225 0.83735 0.0
C39 C 0.52006 0.76958 0.87223 0.0
C40 C 0.5012 0.80278 0.82505 0.0
O41 O 0.56124 0.80544 0.8389 0.0
Mg42 Mg 0.50992 0.26369 0.19141 0.0
O43 O 0.50491 0.23472 0.17161 0.0
O44 O 0.48075 0.23127 0.15067 0.0
Mg45 Mg 0.46776 0.25523 0.159 0.0
C46 C 0.494 0.2256 0.15695 0.0
C47 C 0.54606 0.26271 0.21709 0.0
O48 O 0.5352 0.26199 0.23005 0.0
O49 O 0.519 0.28073 0.16795 0.0
O50 O 0.49222 0.27611 0.15031 0.0
O51 O 0.49078 0.25108 0.21188 0.0
O52 O 0.4819 0.26212 0.18776 0.0
C53 C 0.50947 0.28385 0.15411 0.0
C54 C 0.47775 0.25504 0.20229 0.0
O55 O 0.53974 0.26334 0.20058 0.0
Mg56 Mg 0.05396 0.8056 0.12031 0.0
O57 O 0.0482 0.77717 0.09988 0.0
O58 O 0.02005 0.77018 0.08473 0.0
Mg59 Mg 0.00781 0.79439 0.09462 0.0
C60 C 0.03499 0.76608 0.08814 0.0
C61 C 0.09137 0.81067 0.14376 0.0
O62 O 0.08188 0.8174 0.1557 0.0
O63 O 0.05817 0.82439 0.09688 0.0
O64 O 0.02912 0.817 0.08352 0.0
O65 O 0.03968 0.78976 0.14167 0.0
O66 O 0.02579 0.80211 0.12138 0.0
C67 C 0.04592 0.82663 0.08496 0.0
C68 C 0.02484 0.79291 0.13497 0.0
O69 O 0.08424 0.80534 0.12674 0.0
Mg70 Mg 0.49329 0.75953 0.41937 0.0
O71 O 0.49674 0.78593 0.44223 0.0
O72 O 0.4717 0.7798 0.45639 0.0
Mg73 Mg 0.45349 0.74961 0.44403 0.0
C74 C 0.48694 0.79103 0.45411 0.0
C75 C 0.52848 0.75893 0.40283 0.0
O76 O 0.51679 0.74227 0.39578 0.0
O77 O 0.49966 0.74054 0.43978 0.0
O78 O 0.47457 0.7344 0.45398 0.0
O79 O 0.47863 0.77292 0.40027 0.0
O80 O 0.46442 0.75256 0.4172 0.0
C81 C 0.49019 0.7322 0.45131 0.0
C82 C 0.46351 0.76398 0.40566 0.0
O83 O 0.5234 0.77026 0.41453 0.0
Mg84 Mg 0.55336 0.3047 0.61964 0.0
O85 O 0.54834 0.27647 0.59916 0.0
O86 O 0.52065 0.26923 0.58293 0.0
Mg87 Mg 0.50767 0.29284 0.5928 0.0
C88 C 0.53563 0.26538 0.58688 0.0
C89 C 0.59209 0.31327 0.64256 0.0
O90 O 0.58392 0.32281 0.65373 0.0
O91 O 0.55796 0.32354 0.59645 0.0
O92 O 0.52912 0.31602 0.58248 0.0
O93 O 0.53912 0.28869 0.64075 0.0
O94 O 0.52498 0.3003 0.61999 0.0
C95 C 0.54591 0.32582 0.58435 0.0
C96 C 0.52406 0.29112 0.63362 0.0
O97 O 0.58365 0.30502 0.62646 0.0
Mg98 Mg 0.99284 0.25807 0.9188 0.0
O99 O 0.997 0.28558 0.94036 0.0
O100 O 0.97207 0.28122 0.95474 0.0
Mg101 Mg 0.95242 0.25149 0.94276 0.0
C102 C 0.9876 0.29164 0.95213 0.0
C103 C 0.02539 0.26546 0.89696 0.0
O104 O 0.01078 0.25892 0.88444 0.0
O105 O 0.99797 0.23996 0.9408 0.0
O106 O 0.97193 0.23499 0.95334 0.0
O107 O 0.97924 0.27109 0.89828 0.0
O108 O 0.96404 0.2527 0.9162 0.0
C109 C 0.98745 0.23199 0.95179 0.0
C110 C 0.96381 0.26343 0.90386 0.0
O111 O 0.02316 0.26714 0.91409 0.0
Mg112 Mg 0.41214 0.04755 0.30142 0.0
O113 O 0.38979 0.02005 0.30045 0.0
O114 O 0.37564 0.02114 0.32581 0.0
Mg115 Mg 0.38886 0.0508 0.3429 0.0
C116 C 0.37777 0.01245 0.31018 0.0
C117 C 0.41665 0.02147 0.2675 0.0
O118 O 0.41766 0.01189 0.2811 0.0
O119 O 0.39014 0.06064 0.29355 0.0
O120 O 0.37679 0.06307 0.31939 0.0
O121 O 0.43167 0.03608 0.31594 0.0
O122 O 0.41418 0.05129 0.33038 0.0
C123 C 0.37815 0.06537 0.30257 0.0
C124 C 0.42522 0.04089 0.33103 0.0
O125 O 0.41433 0.03788 0.27113 0.0
Mg126 Mg 0.27759 0.17887 0.5033 0.0
O127 O 0.27934 0.19954 0.53027 0.0
O128 O 0.30768 0.21924 0.53688 0.0
Mg129 Mg 0.32412 0.21107 0.51394 0.0
C130 C 0.29137 0.21343 0.5407 0.0
C131 C 0.23975 0.15252 0.5054 0.0
O132 O 0.25086 0.14234 0.50871 0.0
O133 O 0.27718 0.20183 0.48582 0.0
O134 O 0.30634 0.2198 0.49164 0.0
O135 O 0.28692 0.15934 0.5195 0.0
O136 O 0.30575 0.18169 0.50797 0.0
C137 C 0.29013 0.21576 0.48301 0.0
C138 C 0.30349 0.16811 0.51747 0.0
O139 O 0.2464 0.16915 0.50194 0.0
Mg140 Mg 0.11162 0.0207 0.7777 0.0
O141 O 0.13258 0.05014 0.78247 0.0
O142 O 0.14987 0.05442 0.80975 0.0
Mg143 Mg 0.13937 0.02801 0.82292 0.0
C144 C 0.14572 0.06022 0.79485 0.0
C145 C 0.08799 0.0185 0.74124 0.0
O146 O 0.07585 0.01168 0.75198 0.0
O147 O 0.13383 0.00659 0.77118 0.0
O148 O 0.14864 0.01003 0.79974 0.0
O149 O 0.09183 0.0324 0.79282 0.0
O150 O 0.11256 0.02106 0.80605 0.0
C151 C 0.14614 0.00359 0.78227 0.0
C152 C 0.09956 0.02879 0.80774 0.0
O153 O 0.10486 0.02328 0.74761 0.0
Mg154 Mg 0.27253 0.92315 0.01899 0.0
O155 O 0.27856 0.90951 0.99126 0.0
O156 O 0.30643 0.90554 0.9952 0.0
Mg157 Mg 0.31704 0.91447 0.02604 0.0
C158 C 0.2917 0.90427 0.98488 0.0
C159 C 0.24104 0.93548 0.01235 0.0
O160 O 0.25382 0.94836 0.02418 0.0
O161 O 0.26529 0.89423 0.02746 0.0
O162 O 0.29314 0.89005 0.03072 0.0
O163 O 0.28703 0.95114 0.01267 0.0
O164 O 0.30005 0.93378 0.0285 0.0
C165 C 0.27585 0.88413 0.03077 0.0
C166 C 0.30161 0.94831 0.02042 0.0
O167 O 0.24369 0.9196 0.00668 0.0
Mg168 Mg 0.27187 0.37836 0.03338 0.0
O169 O 0.2703 0.35743 0.00643 0.0
O170 O 0.29316 0.34442 0.01017 0.0
Mg171 Mg 0.31005 0.35812 0.03858 0.0
C172 C 0.2793 0.34616 0.0004 0.0
C173 C 0.23811 0.39166 0.03577 0.0
O174 O 0.24845 0.39963 0.05173 0.0
O175 O 0.26188 0.35505 0.0505 0.0
O176 O 0.28663 0.3449 0.05458 0.0
O177 O 0.28932 0.40127 0.02123 0.0
O178 O 0.30011 0.38335 0.03816 0.0
C179 C 0.27044 0.34469 0.0577 0.0
C180 C 0.30321 0.39659 0.02823 0.0
O181 O 0.24333 0.38009 0.02457 0.0
Mg182 Mg 0.79166 0.14433 0.02562 0.0
O183 O 0.79222 0.16574 0.05108 0.0
O184 O 0.81907 0.18824 0.05774 0.0
Mg185 Mg 0.83544 0.18161 0.03445 0.0
C186 C 0.80286 0.18082 0.06112 0.0
C187 C 0.75559 0.12765 0.04058 0.0
O188 O 0.76729 0.13022 0.0556 0.0
O189 O 0.78692 0.16536 0.00813 0.0
O190 O 0.81374 0.18824 0.01511 0.0
O191 O 0.8043 0.12797 0.04269 0.0
O192 O 0.8197 0.15136 0.02951 0.0
C193 C 0.79737 0.18156 0.00679 0.0
C194 C 0.81986 0.1387 0.03977 0.0
O195 O 0.76146 0.13195 0.02564 0.0
Mg196 Mg 0.13326 0.50544 0.24518 0.0
O197 O 0.14869 0.53683 0.24145 0.0
O198 O 0.16539 0.55294 0.2688 0.0
Mg199 Mg 0.16234 0.53285 0.28914 0.0
C200 C 0.15957 0.552 0.25173 0.0
C201 C 0.12002 0.51993 0.21315 0.0
O202 O 0.10837 0.50364 0.21443 0.0
O203 O 0.16053 0.50017 0.24214 0.0
O204 O 0.17623 0.51593 0.26966 0.0
O205 O 0.10937 0.51501 0.25635 0.0
O206 O 0.13587 0.52029 0.27234 0.0
C207 C 0.17506 0.50562 0.25381 0.0
C208 C 0.12023 0.52306 0.27136 0.0
O209 O 0.13431 0.52645 0.22514 0.0
Mg210 Mg 0.77201 0.87708 0.53271 0.0
O211 O 0.77243 0.85592 0.50646 0.0
O212 O 0.79758 0.84671 0.51145 0.0
Mg213 Mg 0.81297 0.86149 0.54025 0.0
C214 C 0.78315 0.84629 0.50107 0.0
C215 C 0.73825 0.88927 0.53396 0.0
O216 O 0.74922 0.89787 0.54942 0.0
O217 O 0.76322 0.85351 0.54994 0.0
O218 O 0.78953 0.84639 0.55523 0.0
O219 O 0.78859 0.90072 0.52046 0.0
O220 O 0.80036 0.88454 0.53868 0.0
C221 C 0.77284 0.84438 0.5577 0.0
C222 C 0.8029 0.89749 0.52845 0.0
O223 O 0.74296 0.87701 0.52306 0.0
Mg224 Mg 0.94202 0.04214 0.26932 0.0
O225 O 0.9199 0.0139 0.26885 0.0
O226 O 0.9116 0.01504 0.2974 0.0
Mg227 Mg 0.92812 0.0432 0.31579 0.0
C228 C 0.9102 0.00647 0.28067 0.0
C229 C 0.95663 0.04557 0.23397 0.0
O230 O 0.96915 0.0562 0.24757 0.0
O231 O 0.92027 0.05801 0.26841 0.0
O232 O 0.91394 0.05913 0.2977 0.0
O233 O 0.9635 0.02919 0.27916 0.0
O234 O 0.94936 0.04522 0.29756 0.0
C235 C 0.91181 0.06333 0.28151 0.0
C236 C 0.96083 0.0355 0.29578 0.0
O237 O 0.94121 0.03664 0.23801 0.0
Mg238 Mg 0.29102 0.64679 0.5266 0.0
O239 O 0.29225 0.66549 0.55394 0.0
O240 O 0.31972 0.68665 0.56226 0.0
Mg241 Mg 0.33658 0.68051 0.53899 0.0
C242 C 0.30326 0.67947 0.56509 0.0
C243 C 0.25302 0.63222 0.53904 0.0
O244 O 0.26334 0.6333 0.55468 0.0
O245 O 0.28941 0.67139 0.51301 0.0
O246 O 0.31785 0.6913 0.51961 0.0
O247 O 0.30084 0.62633 0.54048 0.0
O248 O 0.31869 0.65104 0.53081 0.0
C249 C 0.30126 0.68685 0.51189 0.0
C250 C 0.31713 0.6364 0.53875 0.0
O251 O 0.26046 0.63668 0.52489 0.0
Mg252 Mg 0.44241 0.54001 0.769 0.0
O253 O 0.42018 0.51184 0.76864 0.0
O254 O 0.4108 0.51391 0.79677 0.0
Mg255 Mg 0.428 0.54163 0.81547 0.0
C256 C 0.40983 0.50498 0.78026 0.0
C257 C 0.45553 0.54437 0.73215 0.0
O258 O 0.46812 0.55658 0.74473 0.0
O259 O 0.42068 0.55586 0.76791 0.0
O260 O 0.41509 0.55874 0.79753 0.0
O261 O 0.46425 0.52754 0.77897 0.0
O262 O 0.44914 0.54234 0.79732 0.0
C263 C 0.41298 0.56237 0.7811 0.0
C264 C 0.46077 0.53283 0.79553 0.0
O265 O 0.44129 0.53438 0.73751 0.0
Mg266 Mg 0.63576 0.01401 0.73965 0.0
O267 O 0.65392 0.0444 0.7453 0.0
O268 O 0.65907 0.05554 0.77588 0.0
Mg269 Mg 0.64496 0.03104 0.79011 0.0
C270 C 0.66107 0.05772 0.75914 0.0
C271 C 0.64616 0.01619 0.69586 0.0
O272 O 0.65553 0.00958 0.6837 0.0
O273 O 0.65987 0.00473 0.74976 0.0
O274 O 0.66554 0.01546 0.78041 0.0
O275 O 0.61126 0.02566 0.74035 0.0
O276 O 0.62554 0.01839 0.76447 0.0
C277 C 0.66931 0.00688 0.76553 0.0
C278 C 0.61331 0.02541 0.75803 0.0
O279 O 0.64536 0.00999 0.71112 0.0
Mg280 Mg 0.77727 0.67789 0.00191 0.0
O281 O 0.7789 0.69791 0.02933 0.0
O282 O 0.80689 0.71836 0.03557 0.0
Mg283 Mg 0.82336 0.71099 0.01231 0.0
C284 C 0.79078 0.71197 0.03971 0.0
C285 C 0.7401 0.65678 0.01214 0.0
O286 O 0.75176 0.65283 0.02402 0.0
O287 O 0.776 0.70095 0.98476 0.0
O288 O 0.80502 0.71927 0.9903 0.0
O289 O 0.78755 0.65837 0.0175 0.0
O290 O 0.80547 0.68143 0.00594 0.0
C291 C 0.78873 0.71502 0.98184 0.0
C292 C 0.80387 0.66778 0.01527 0.0
O293 O 0.74622 0.66762 0.00079 0.0
Mg294 Mg 0.90867 0.54495 0.80175 0.0
O295 O 0.88541 0.51755 0.79735 0.0
O296 O 0.86963 0.51593 0.82154 0.0
Mg297 Mg 0.88158 0.5447 0.84054 0.0
C298 C 0.87271 0.50876 0.80568 0.0
C299 C 0.91415 0.52031 0.7671 0.0
O300 O 0.91405 0.50962 0.77992 0.0
O301 O 0.88856 0.56038 0.79368 0.0
O302 O 0.87136 0.55822 0.81693 0.0
O303 O 0.92549 0.5308 0.81669 0.0
O304 O 0.90833 0.54705 0.83043 0.0
C305 C 0.87503 0.56316 0.80137 0.0
C306 C 0.91833 0.53565 0.83128 0.0
O307 O 0.91277 0.53702 0.77166 0.0
Mg308 Mg 0.77542 0.42597 0.52095 0.0
O309 O 0.77303 0.40321 0.49574 0.0
O310 O 0.79893 0.39473 0.49734 0.0
Mg311 Mg 0.81803 0.41288 0.52316 0.0
C312 C 0.78295 0.39314 0.48933 0.0
C313 C 0.73715 0.42289 0.50101 0.0
O314 O 0.74645 0.42528 0.48687 0.0
O315 O 0.77098 0.40318 0.5387 0.0
O316 O 0.79809 0.39726 0.54096 0.0
O317 O 0.78708 0.44839 0.50465 0.0
O318 O 0.80323 0.43408 0.52098 0.0
C319 C 0.78182 0.39458 0.54499 0.0
C320 C 0.80254 0.44524 0.50917 0.0
O321 O 0.74527 0.42199 0.51654 0.0
Mg322 Mg 0.61165 0.52288 0.2757 0.0
O323 O 0.63338 0.55179 0.28186 0.0
O324 O 0.65093 0.55411 0.30849 0.0
Mg325 Mg 0.63953 0.5266 0.31987 0.0
C326 C 0.6468 0.56097 0.29428 0.0
C327 C 0.5896 0.51796 0.23771 0.0
O328 O 0.57892 0.50517 0.24563 0.0
O329 O 0.63275 0.50788 0.26756 0.0
O330 O 0.64825 0.50948 0.29548 0.0
O331 O 0.59275 0.53465 0.29207 0.0
O332 O 0.6125 0.52091 0.3035 0.0
C333 C 0.64515 0.50412 0.27784 0.0
C334 C 0.59991 0.52907 0.30609 0.0
O335 O 0.60509 0.52773 0.24648 0.0
Dy336 Dy 0.04134 0.04114 0.02651 0.0
Dy337 Dy 1.00018 0.01663 0.00758 0.0
C338 C 0.03259 0.02669 0.9835 0.0
O339 O 0.03053 0.06153 0.01276 0.0
O340 O 0.99997 0.04741 0.0127 0.0
O341 O 0.0673 0.06175 0.02611 0.0
O342 O 0.06198 0.04885 0.05054 0.0
O343 O 0.00171 0.0173 0.03811 0.0
O344 O 0.02256 0.04636 0.04686 0.0
O345 O 0.01471 0.99423 0.00866 0.0
O346 O 0.0388 0.01129 0.03093 0.0
O347 O 0.97256 0.00145 0.01042 0.0
O348 O 0.98037 0.00365 0.98306 0.0
C349 C 0.01353 0.06213 0.01092 0.0
O350 O 0.04385 0.02705 0.99816 0.0
O351 O 0.01576 0.02681 0.98506 0.0
C352 C 0.08953 0.04945 0.03947 0.0
C353 C 0.11027 0.0237 0.03696 0.0
C354 C 0.10057 0.02623 0.02091 0.0
C355 C 0.09032 0.039 0.02213 0.0
C356 C 0.10024 0.0479 0.0554 0.0
C357 C 0.11072 0.03512 0.05412 0.0
C358 C 0.07442 0.05782 0.04136 0.0
C359 C 0.00935 0.03258 0.0506 0.0
C360 C 0.02862 0.99503 0.02095 0.0
C361 C 0.95191 0.00734 0.98861 0.0
C362 C 0.92335 0.0234 0.98292 0.0
C363 C 0.93992 0.03431 0.9935 0.0
C364 C 0.95403 0.02631 0.99639 0.0
C365 C 0.9355 0.99643 0.97759 0.0
C366 C 0.9211 0.00442 0.97489 0.0
C367 C 0.96686 0.99927 0.99275 0.0
H368 H 0.10043 0.01783 0.00747 0.0
H369 H 0.08208 0.03969 0.00961 0.0
H370 H 0.09955 0.05561 0.06893 0.0
H371 H 0.11835 0.03343 0.06659 0.0
H372 H 0.94167 0.04883 0.00021 0.0
H373 H 0.96642 0.03484 0.00519 0.0
H374 H 0.93371 0.98173 0.97151 0.0
H375 H 0.9082 0.99581 0.96694 0.0
Dy376 Dy 0.28893 0.77281 0.24926 0.0
Dy377 Dy 0.26532 0.77881 0.28342 0.0
C378 C 0.29167 0.81329 0.26982 0.0
O379 O 0.30807 0.77848 0.2759 0.0
O380 O 0.28738 0.76785 0.29557 0.0
O381 O 0.31397 0.78219 0.23746 0.0
O382 O 0.29236 0.75744 0.22312 0.0
O383 O 0.25409 0.7486 0.26918 0.0
O384 O 0.27971 0.7445 0.25745 0.0
O385 O 0.25118 0.78734 0.25964 0.0
O386 O 0.26074 0.77085 0.23548 0.0
O387 O 0.24171 0.76995 0.29758 0.0
O388 O 0.26199 0.79703 0.3078 0.0
C389 C 0.30421 0.77254 0.29155 0.0
O390 O 0.28856 0.80284 0.25328 0.0
O391 O 0.28766 0.80551 0.28441 0.0
C392 C 0.30694 0.77893 0.20521 0.0
C393 C 0.2988 0.79157 0.17215 0.0
C394 C 0.29623 0.80105 0.18926 0.0
C395 C 0.30019 0.79473 0.20563 0.0
C396 C 0.31059 0.7701 0.18834 0.0
C397 C 0.30662 0.77646 0.17184 0.0
C398 C 0.30749 0.77027 0.22187 0.0
C399 C 0.26353 0.73754 0.26227 0.0
C400 C 0.24938 0.77997 0.24193 0.0
C401 C 0.24899 0.78009 0.32999 0.0
C402 C 0.25605 0.77433 0.36657 0.0
C403 C 0.25752 0.76109 0.35144 0.0
C404 C 0.25411 0.76399 0.3333 0.0
C405 C 0.24701 0.7931 0.34501 0.0
C406 C 0.25047 0.79021 0.36323 0.0
C407 C 0.24769 0.78444 0.31118 0.0
H408 H 0.29051 0.81293 0.1899 0.0
H409 H 0.29715 0.80165 0.21851 0.0
H410 H 0.31564 0.75777 0.1878 0.0
H411 H 0.30868 0.76892 0.15878 0.0
H412 H 0.2615 0.74855 0.35365 0.0
H413 H 0.25593 0.75389 0.3219 0.0
H414 H 0.24332 0.80574 0.34265 0.0
H415 H 0.24933 0.80064 0.37469 0.0
Dy416 Dy 0.5002 0.0281 0.52611 0.0
Dy417 Dy 0.55055 0.03533 0.52106 0.0
C418 C 0.52425 0.02731 0.49003 0.0
O419 O 0.50497 0.99902 0.52004 0.0
O420 O 0.53606 0.00374 0.51521 0.0
O421 O 0.48009 0.03225 0.50605 0.0
O422 O 0.47163 0.01868 0.52959 0.0
O423 O 0.53085 0.03394 0.54104 0.0
O424 O 0.50876 0.03251 0.55707 0.0
O425 O 0.54561 0.06437 0.52617 0.0
O426 O 0.51455 0.05965 0.53114 0.0
O427 O 0.57097 0.0311 0.54075 0.0
O428 O 0.57899 0.04545 0.51749 0.0
C429 C 0.51919 0.99277 0.51584 0.0
O430 O 0.52053 0.03021 0.50693 0.0
O431 O 0.54173 0.03016 0.49007 0.0
C432 C 0.45519 0.03932 0.51952 0.0
C433 C 0.43358 0.06428 0.52673 0.0
C434 C 0.44351 0.06495 0.51147 0.0
C435 C 0.45413 0.05258 0.50787 0.0
C436 C 0.44515 0.03854 0.5347 0.0
C437 C 0.43449 0.05091 0.53828 0.0
C438 C 0.46676 0.02648 0.51577 0.0
C439 C 0.52634 0.03559 0.55772 0.0
C440 C 0.53126 0.07057 0.52992 0.0
C441 C 0.5958 0.02481 0.52674 0.0
C442 C 0.61728 0.99984 0.51914 0.0
C443 C 0.61188 0.00322 0.53688 0.0
C444 C 0.60135 0.01563 0.54065 0.0
C445 C 0.60111 0.02142 0.50895 0.0
C446 C 0.61174 0.00904 0.5052 0.0
C447 C 0.58413 0.03739 0.53097 0.0
H448 H 0.44282 0.07481 0.50208 0.0
H449 H 0.46149 0.05341 0.49591 0.0
H450 H 0.44556 0.02842 0.54388 0.0
H451 H 0.42706 0.0501 0.5502 0.0
H452 H 0.61567 0.99613 0.54786 0.0
H453 H 0.59742 0.01793 0.55446 0.0
H454 H 0.59706 0.02827 0.4979 0.0
H455 H 0.61585 0.00689 0.49146 0.0
Dy456 Dy 0.29442 0.273 0.76833 0.0
Dy457 Dy 0.25593 0.2855 0.76604 0.0
C458 C 0.29466 0.3145 0.76338 0.0
O459 O 0.2926 0.28723 0.79709 0.0
O460 O 0.26138 0.27951 0.79455 0.0
O461 O 0.32349 0.27997 0.77702 0.0
O462 O 0.30867 0.25188 0.76173 0.0
O463 O 0.24805 0.25373 0.7603 0.0
O464 O 0.27316 0.24937 0.77644 0.0
O465 O 0.26268 0.28391 0.73683 0.0
O466 O 0.28124 0.26431 0.73878 0.0
O467 O 0.22699 0.28052 0.75732 0.0
O468 O 0.24261 0.30656 0.7756 0.0
C469 C 0.27742 0.2849 0.80475 0.0
O470 O 0.30056 0.30006 0.75727 0.0
O471 O 0.27957 0.31203 0.77113 0.0
C472 C 0.33907 0.26471 0.75575 0.0
C473 C 0.36698 0.26572 0.73256 0.0
C474 C 0.36128 0.28201 0.73787 0.0
C475 C 0.34746 0.2815 0.74928 0.0
C476 C 0.34457 0.2484 0.75031 0.0
C477 C 0.3583 0.24886 0.73883 0.0
C478 C 0.32469 0.26385 0.76815 0.0
C479 C 0.25601 0.24301 0.76869 0.0
C480 C 0.27151 0.27257 0.72898 0.0
C481 C 0.21191 0.29425 0.78002 0.0
C482 C 0.18467 0.29262 0.80397 0.0
C483 C 0.19889 0.28436 0.80739 0.0
C484 C 0.21238 0.28517 0.79552 0.0
C485 C 0.19784 0.30251 0.77658 0.0
C486 C 0.18437 0.30172 0.7884 0.0
C487 C 0.2264 0.29604 0.76785 0.0
H488 H 0.36774 0.29531 0.73353 0.0
H489 H 0.34345 0.29431 0.75315 0.0
H490 H 0.33823 0.23525 0.75499 0.0
H491 H 0.36204 0.23594 0.73479 0.0
H492 H 0.19948 0.27709 0.81911 0.0
H493 H 0.22322 0.2788 0.79847 0.0
H494 H 0.19737 0.30977 0.76482 0.0
H495 H 0.17386 0.30852 0.78548 0.0
Dy496 Dy 0.02664 0.01198 0.51871 0.0
Dy497 Dy 0.01386 0.05174 0.52146 0.0
C498 C 0.98512 0.01177 0.52055 0.0
O499 O 0.02593 0.01752 0.48965 0.0
O500 O 0.00765 0.03773 0.49162 0.0
O501 O 0.02276 0.98191 0.5095 0.0
O502 O 0.047 0.99897 0.52809 0.0
O503 O 0.04017 0.05795 0.5099 0.0
O504 O 0.0518 0.037 0.52328 0.0
O505 O 0.02728 0.05098 0.54969 0.0
O506 O 0.01934 0.01863 0.54704 0.0
O507 O 0.01996 0.08198 0.53114 0.0
O508 O 0.99377 0.06625 0.51509 0.0
C509 C 0.01564 0.02667 0.48194 0.0
O510 O 0.99619 0.00339 0.51246 0.0
O511 O 0.99069 0.02966 0.52885 0.0
C512 C 0.03638 0.96661 0.53086 0.0
C513 C 0.03536 0.93717 0.5518 0.0
C514 C 0.0196 0.94295 0.54771 0.0
C515 C 0.02011 0.95756 0.53737 0.0
C516 C 0.0521 0.96101 0.53505 0.0
C517 C 0.05164 0.94653 0.54541 0.0
C518 C 0.03755 0.98192 0.51978 0.0
C519 C 0.05408 0.05229 0.51563 0.0
C520 C 0.02474 0.03564 0.55729 0.0
C521 C 0.00723 0.09724 0.50972 0.0
C522 C 0.01189 0.12478 0.48623 0.0
C523 C 0.01984 0.10976 0.48326 0.0
C524 C 0.0175 0.09611 0.49487 0.0
C525 C 0.99915 0.11204 0.51269 0.0
C526 C 0.00143 0.12568 0.50105 0.0
C527 C 0.00493 0.08302 0.5221 0.0
H528 H 0.00678 0.93599 0.55222 0.0
H529 H 0.0078 0.96169 0.53442 0.0
H530 H 0.06484 0.9679 0.53029 0.0
H531 H 0.06413 0.9428 0.54856 0.0
H532 H 0.02773 0.10845 0.47184 0.0
H533 H 0.02375 0.08469 0.49228 0.0
H534 H 0.99117 0.11312 0.52408 0.0
H535 H 0.99528 0.13714 0.50387 0.0
Dy536 Dy 0.27729 0.80108 0.76721 0.0
Dy537 Dy 0.26914 0.75719 0.77623 0.0
C538 C 0.268 0.79141 0.80686 0.0
O539 O 0.30477 0.79607 0.7693 0.0
O540 O 0.29911 0.77111 0.78551 0.0
O541 O 0.28598 0.83149 0.7764 0.0
O542 O 0.27819 0.81985 0.74711 0.0
O543 O 0.28015 0.7581 0.74926 0.0
O544 O 0.26763 0.78051 0.74068 0.0
O545 O 0.2421 0.75944 0.7635 0.0
O546 O 0.24742 0.79195 0.76944 0.0
O547 O 0.25787 0.72697 0.76649 0.0
O548 O 0.27156 0.73758 0.79475 0.0
C549 C 0.31046 0.78491 0.77928 0.0
O550 O 0.27836 0.80313 0.79777 0.0
O551 O 0.26059 0.77332 0.80011 0.0
C552 C 0.27003 0.8471 0.75858 0.0
C553 C 0.24659 0.87012 0.7559 0.0
C554 C 0.24154 0.85384 0.76417 0.0
C555 C 0.25317 0.84241 0.76549 0.0
C556 C 0.27512 0.86324 0.75026 0.0
C557 C 0.26348 0.87469 0.74892 0.0
C558 C 0.28217 0.83503 0.75987 0.0
C559 C 0.27345 0.76567 0.7363 0.0
C560 C 0.23619 0.77464 0.76453 0.0
C561 C 0.27581 0.7092 0.77936 0.0
C562 C 0.29803 0.68452 0.7761 0.0
C563 C 0.29291 0.69209 0.76067 0.0
C564 C 0.28198 0.7044 0.7623 0.0
C565 C 0.28075 0.70146 0.7947 0.0
C566 C 0.29182 0.6893 0.79312 0.0
C567 C 0.26482 0.72271 0.78163 0.0
H568 H 0.22853 0.84983 0.76948 0.0
H569 H 0.24902 0.82992 0.7719 0.0
H570 H 0.2881 0.867 0.74486 0.0
H571 H 0.26784 0.88729 0.74269 0.0
H572 H 0.29766 0.68879 0.74744 0.0
H573 H 0.27855 0.71029 0.75025 0.0
H574 H 0.27617 0.70497 0.80798 0.0
H575 H 0.2954 0.68352 0.80518 0.0
Dy576 Dy 0.52506 0.04432 -0.00029 0.0
Dy577 Dy 0.52615 0.02124 0.03495 0.0
C578 C 0.53025 0.00308 0.99351 0.0
O579 O 0.4977 0.02336 0.9978 0.0
O580 O 0.49783 0.02269 0.02884 0.0
O581 O 0.51615 0.04458 0.97101 0.0
O582 O 0.53188 0.07072 0.98918 0.0
O583 O 0.52879 0.05132 0.04785 0.0
O584 O 0.51532 0.06058 0.02303 0.0
O585 O 0.55507 0.03011 0.02988 0.0
O586 O 0.55378 0.05411 0.0135 0.0
O587 O 0.5333 0.01924 0.06368 0.0
O588 O 0.51789 0.99417 0.04392 0.0
C589 C 0.48907 0.01943 0.01202 0.0
O590 O 0.53596 0.02018 0.98937 0.0
O591 O 0.52248 0.0004 0.00856 0.0
C592 C 0.53735 0.06662 0.95807 0.0
C593 C 0.55969 0.07263 0.92971 0.0
C594 C 0.56396 0.06305 0.94393 0.0
C595 C 0.55287 0.06007 0.958 0.0
C596 C 0.53331 0.07665 0.9443 0.0
C597 C 0.5444 0.07966 0.93022 0.0
C598 C 0.52507 0.06247 0.97213 0.0
C599 C 0.52111 0.06314 0.04093 0.0
C600 C 0.56296 0.04506 0.02283 0.0
C601 C 0.51007 0.99673 0.07402 0.0
C602 C 0.48379 0.98812 0.0984 0.0
C603 C 0.48035 0.99661 0.08304 0.0
C604 C 0.49342 0.00096 0.07104 0.0
C605 C 0.51344 0.98784 0.08898 0.0
C606 C 0.50042 0.98361 0.10113 0.0
C607 C 0.52373 0.00142 0.06137 0.0
H608 H 0.57572 0.05763 0.94403 0.0
H609 H 0.55619 0.05235 0.96864 0.0
H610 H 0.52136 0.08177 0.94419 0.0
H611 H 0.54058 0.08684 0.91934 0.0
H612 H 0.46761 1.00004 0.08037 0.0
H613 H 0.49058 0.00773 0.05946 0.0
H614 H 0.52622 0.98443 0.0914 0.0
H615 H 0.50366 0.97736 0.11298 0.0
Dy616 Dy 0.26597 0.26161 0.26283 0.0
Dy617 Dy 0.28742 0.30556 0.28066 0.0
C618 C 0.28084 0.27433 0.30614 0.0
O619 O 0.24339 0.2753 0.26471 0.0
O620 O 0.25849 0.30134 0.28695 0.0
O621 O 0.24819 0.23401 0.26463 0.0
O622 O 0.25902 0.23899 0.23896 0.0
O623 O 0.27292 0.30654 0.25305 0.0
O624 O 0.27261 0.27694 0.23925 0.0
O625 O 0.30811 0.29393 0.26697 0.0
O626 O 0.29556 0.26235 0.2677 0.0
O627 O 0.30636 0.33252 0.27893 0.0
O628 O 0.29374 0.32875 0.30398 0.0
C629 C 0.24322 0.28963 0.27751 0.0
O630 O 0.26709 0.26408 0.29367 0.0
O631 O 0.29327 0.28862 0.30201 0.0
C632 C 0.25801 0.20996 0.2479 0.0
C633 C 0.27549 0.18122 0.24552 0.0
C634 C 0.27848 0.19463 0.26197 0.0
C635 C 0.26995 0.20896 0.26309 0.0
C636 C 0.25465 0.1964 0.23158 0.0
C637 C 0.26333 0.18207 0.23039 0.0
C638 C 0.25082 0.22633 0.24834 0.0
C639 C 0.27142 0.29397 0.23801 0.0
C640 C 0.30949 0.27652 0.26558 0.0
C641 C 0.29578 0.35704 0.29308 0.0
C642 C 0.27979 0.38654 0.29093 0.0
C643 C 0.27385 0.36977 0.27762 0.0
C644 C 0.28169 0.35513 0.27876 0.0
C645 C 0.30188 0.37374 0.3064 0.0
C646 C 0.29396 0.38851 0.30531 0.0
C647 C 0.30287 0.34087 0.29455 0.0
H648 H 0.2875 0.19411 0.27399 0.0
H649 H 0.273 0.21948 0.27573 0.0
H650 H 0.24571 0.19723 0.21963 0.0
H651 H 0.26089 0.17198 0.21752 0.0
H652 H 0.26323 0.368 0.26619 0.0
H653 H 0.27664 0.34223 0.26847 0.0
H654 H 0.31257 0.37524 0.3177 0.0
H655 H 0.29869 0.4013 0.31577 0.0
Dy656 Dy 0.52763 0.51249 0.01943 0.0
Dy657 Dy 0.51286 0.55078 0.01932 0.0
C658 C 0.4855 0.51078 0.02227 0.0
O659 O 0.52713 0.51797 0.99025 0.0
O660 O 0.50455 0.53292 0.99101 0.0
O661 O 0.52633 0.48317 0.00921 0.0
O662 O 0.54755 0.50035 0.03127 0.0
O663 O 0.53956 0.55709 0.00829 0.0
O664 O 0.5518 0.53841 0.02452 0.0
O665 O 0.52538 0.55162 0.04842 0.0
O666 O 0.51981 0.51957 0.0474 0.0
O667 O 0.51754 0.58085 0.02869 0.0
O668 O 0.49309 0.56463 0.00997 0.0
C669 C 0.51427 0.5236 0.9818 0.0
O670 O 0.49713 0.50199 0.01601 0.0
O671 O 0.48986 0.52933 0.02759 0.0
C672 C 0.5371 0.4675 0.03184 0.0
C673 C 0.53411 0.43765 0.05248 0.0
C674 C 0.52708 0.45291 0.05827 0.0
C675 C 0.52853 0.46769 0.04802 0.0
C676 C 0.54392 0.45225 0.02591 0.0
C677 C 0.54242 0.43746 0.03609 0.0
C678 C 0.53985 0.48343 0.02147 0.0
C679 C 0.55379 0.55283 0.01562 0.0
C680 C 0.52363 0.53686 0.05682 0.0
C681 C 0.50625 0.59645 0.00634 0.0
C682 C 0.51149 0.62525 0.98426 0.0
C683 C 0.52575 0.61752 0.98901 0.0
C684 C 0.52314 0.60319 -0.00014 0.0
C685 C 0.49198 0.60408 0.00159 0.0
C686 C 0.49454 0.61829 0.9906 0.0
C687 C 0.50327 0.58152 0.01801 0.0
H688 H 0.5204 0.45339 0.07068 0.0
H689 H 0.52316 0.47936 0.05282 0.0
H690 H 0.55067 0.45191 0.01353 0.0
H691 H 0.54817 0.42609 0.03133 0.0
H692 H 0.53888 0.62238 0.98412 0.0
H693 H 0.53433 0.5974 0.00317 0.0
H694 H 0.47885 0.59906 0.00642 0.0
H695 H 0.48333 0.62405 0.98732 0.0
Dy696 Dy 0.77757 0.30149 0.26436 0.0
Dy697 Dy 0.77062 0.26039 0.27858 0.0
C698 C 0.76922 0.29755 0.30532 0.0
O699 O 0.80473 0.30157 0.27833 0.0
O700 O 0.80012 0.26937 0.27418 0.0
O701 O 0.78906 0.33197 0.26941 0.0
O702 O 0.77418 0.31727 0.24241 0.0
O703 O 0.76576 0.2546 0.24764 0.0
O704 O 0.78528 0.28215 0.24258 0.0
O705 O 0.743 0.26558 0.27674 0.0
O706 O 0.748 0.28557 0.25531 0.0
O707 O 0.75821 0.22997 0.27451 0.0
O708 O 0.77692 0.24446 0.29939 0.0
C709 C 0.81116 0.28683 0.2778 0.0
O710 O 0.76563 0.30495 0.29078 0.0
O711 O 0.77524 0.28256 0.30383 0.0
C712 C 0.77062 0.34703 0.25375 0.0
C713 C 0.74896 0.37213 0.25394 0.0
C714 C 0.74775 0.35992 0.26707 0.0
C715 C 0.75843 0.34741 0.26692 0.0
C716 C 0.77183 0.35906 0.24057 0.0
C717 C 0.76108 0.37153 0.24065 0.0
C718 C 0.78159 0.33366 0.25329 0.0
C719 C 0.77542 0.26451 0.23666 0.0
C720 C 0.73682 0.27412 0.26413 0.0
C721 C 0.7786 0.21448 0.28616 0.0
C722 C 0.80049 0.18961 0.28172 0.0
C723 C 0.80239 0.20446 0.27142 0.0
C724 C 0.79157 0.21681 0.27366 0.0
C725 C 0.77654 0.19966 0.29639 0.0
C726 C 0.78739 0.1873 0.29418 0.0
C727 C 0.76796 0.22809 0.28922 0.0
H728 H 0.73872 0.3602 0.27762 0.0
H729 H 0.7572 0.33806 0.2771 0.0
H730 H 0.78101 0.35874 0.23017 0.0
H731 H 0.7621 0.38053 0.23017 0.0
H732 H 0.81253 0.2068 0.26193 0.0
H733 H 0.79347 0.22833 0.2658 0.0
H734 H 0.76666 0.19776 0.30618 0.0
H735 H 0.78547 0.17589 0.30218 0.0
Dy736 Dy 0.02376 0.54308 0.50443 0.0
Dy737 Dy 0.02682 0.5182 0.53745 0.0
C738 C 0.02713 0.50094 0.49548 0.0
O739 O 0.99728 0.53779 0.51527 0.0
O740 O 0.99754 0.5099 0.5247 0.0
O741 O 0.01131 0.5457 0.47769 0.0
O742 O 0.03238 0.5695 0.49441 0.0
O743 O 0.01967 0.54367 0.55159 0.0
O744 O 0.02942 0.56381 0.53112 0.0
O745 O 0.0551 0.5365 0.53712 0.0
O746 O 0.05214 0.54111 0.50685 0.0
O747 O 0.03525 0.51541 0.56556 0.0
O748 O 0.02071 0.49043 0.54518 0.0
C749 C 0.98869 0.5216 0.51968 0.0
O750 O 0.01798 0.5125 0.4906 0.0
O751 O 0.03545 0.50351 0.51246 0.0
C752 C 0.03221 0.5657 0.46244 0.0
C753 C 0.05407 0.57378 0.43422 0.0
C754 C 0.05514 0.55906 0.44399 0.0
C755 C 0.04431 0.55508 0.45803 0.0
C756 C 0.03092 0.58024 0.45267 0.0
C757 C 0.04175 0.58424 0.43857 0.0
C758 C 0.02227 0.56275 0.47834 0.0
C759 C 0.02414 0.56078 0.54725 0.0
C760 C 0.06227 0.54144 0.52231 0.0
C761 C 0.01275 0.49194 0.57527 0.0
C762 C 0.98746 0.48498 0.60079 0.0
C763 C 0.98335 0.49227 0.58482 0.0
C764 C 0.99593 0.4958 0.57223 0.0
C765 C 0.01668 0.48395 0.59074 0.0
C766 C 0.00408 0.48046 0.60344 0.0
C767 C 0.02639 0.49733 0.56275 0.0
H768 H 0.06423 0.55051 0.44068 0.0
H769 H 0.04555 0.5439 0.46564 0.0
H770 H 0.02178 0.58869 0.45615 0.0
H771 H 0.04071 0.59568 0.43128 0.0
H772 H 0.97059 0.49569 0.58229 0.0
H773 H 0.9927 0.502 0.56033 0.0
H774 H 0.02966 0.48096 0.59327 0.0
H775 H 0.0077 0.47504 0.61574 0.0
Dy776 Dy 0.79345 0.77447 0.26753 0.0
Dy777 Dy 0.75497 0.78803 0.26529 0.0
C778 C 0.7938 0.81697 0.26244 0.0
O779 O 0.78673 0.77707 0.29682 0.0
O780 O 0.76849 0.79691 0.29464 0.0
O781 O 0.82192 0.7785 0.27768 0.0
O782 O 0.80694 0.75384 0.25715 0.0
O783 O 0.74794 0.76045 0.27542 0.0
O784 O 0.77002 0.748 0.2641 0.0
O785 O 0.75626 0.77412 0.2363 0.0
O786 O 0.78732 0.77898 0.23855 0.0
O787 O 0.7259 0.78176 0.25699 0.0
O788 O 0.74123 0.80944 0.2727 0.0
C789 C 0.77794 0.78852 0.30454 0.0
O790 O 0.80232 0.80603 0.26977 0.0
O791 O 0.77607 0.81161 0.25699 0.0
C792 C 0.83838 0.7661 0.25544 0.0
C793 C 0.86718 0.76859 0.23328 0.0
C794 C 0.85474 0.77931 0.23112 0.0
C795 C 0.84046 0.77805 0.24207 0.0
C796 C 0.85079 0.75557 0.25777 0.0
C797 C 0.86504 0.75681 0.24687 0.0
C798 C 0.82284 0.7636 0.26634 0.0
C799 C 0.75428 0.74599 0.27058 0.0
C800 C 0.77124 0.77489 0.22856 0.0
C801 C 0.7113 0.79648 0.27951 0.0
C802 C 0.68489 0.79442 0.30447 0.0
C803 C 0.6938 0.78017 0.30155 0.0
C804 C 0.70692 0.78124 0.28928 0.0
C805 C 0.70266 0.81085 0.28257 0.0
C806 C 0.68962 0.80987 0.29495 0.0
C807 C 0.72505 0.79777 0.26643 0.0
H808 H 0.85579 0.78837 0.2207 0.0
H809 H 0.83089 0.78618 0.23994 0.0
H810 H 0.84937 0.74622 0.26796 0.0
H811 H 0.87447 0.74859 0.2492 0.0
H812 H 0.69069 0.76822 0.30885 0.0
H813 H 0.71361 0.77011 0.2874 0.0
H814 H 0.70593 0.82281 0.27529 0.0
H815 H 0.68293 0.821 0.29673 0.0
Dy816 Dy 0.79124 0.28139 0.75025 0.0
Dy817 Dy 0.76157 0.27695 0.78457 0.0
C818 C 0.78626 0.31442 0.78536 0.0
O819 O 0.80923 0.28236 0.77627 0.0
O820 O 0.78852 0.27441 0.79745 0.0
O821 O 0.80319 0.30376 0.73542 0.0
O822 O 0.81282 0.27859 0.73412 0.0
O823 O 0.75533 0.25194 0.76134 0.0
O824 O 0.78181 0.25062 0.74909 0.0
O825 O 0.74898 0.28723 0.76071 0.0
O826 O 0.76316 0.27809 0.73559 0.0
O827 O 0.74677 0.25503 0.79835 0.0
O828 O 0.74074 0.28209 0.80097 0.0
C829 C 0.80521 0.27808 0.79258 0.0
O830 O 0.78811 0.302 0.77219 0.0
O831 O 0.77433 0.30794 0.79596 0.0
C832 C 0.81041 0.29155 0.7069 0.0
C833 C 0.79944 0.2892 0.66891 0.0
C834 C 0.81182 0.30596 0.67927 0.0
C835 C 0.81725 0.30713 0.6982 0.0
C836 C 0.79888 0.27449 0.69636 0.0
C837 C 0.79352 0.27329 0.67748 0.0
C838 C 0.813 0.29393 0.7272 0.0
C839 C 0.76623 0.24244 0.75449 0.0
C840 C 0.74992 0.28396 0.74264 0.0
C841 C 0.74056 0.26717 0.82752 0.0
C842 C 0.7507 0.2683 0.86544 0.0
C843 C 0.74341 0.25079 0.8534 0.0
C844 C 0.73822 0.25022 0.83462 0.0
C845 C 0.747 0.28473 0.8398 0.0
C846 C 0.75193 0.28527 0.85873 0.0
C847 C 0.73853 0.26613 0.80722 0.0
H848 H 0.81637 0.31855 0.67307 0.0
H849 H 0.82595 0.32049 0.70622 0.0
H850 H 0.79325 0.26236 0.70288 0.0
H851 H 0.78406 0.26021 0.66978 0.0
H852 H 0.74222 0.23755 0.85848 0.0
H853 H 0.73324 0.23653 0.82544 0.0
H854 H 0.74896 0.29804 0.83471 0.0
H855 H 0.75749 0.29888 0.86793 0.0
Dy856 Dy 0.76608 0.76269 0.76153 0.0
Dy857 Dy 0.7877 0.80654 0.77995 0.0
C858 C 0.78249 0.77371 0.8046 0.0
O859 O 0.74533 0.77312 0.77599 0.0
O860 O 0.75781 0.80526 0.77769 0.0
O861 O 0.74859 0.73474 0.76254 0.0
O862 O 0.75973 0.74068 0.73717 0.0
O863 O 0.7839 0.80459 0.74901 0.0
O864 O 0.75743 0.78034 0.74239 0.0
O865 O 0.80956 0.7916 0.77853 0.0
O866 O 0.79449 0.76891 0.75355 0.0
O867 O 0.80862 0.83243 0.77881 0.0
O868 O 0.79217 0.83117 0.8014 0.0
C869 C 0.744 0.79055 0.77903 0.0
O870 O 0.77967 0.76098 0.78934 0.0
O871 O 0.78335 0.79148 0.80398 0.0
C872 C 0.7588 0.71134 0.74547 0.0
C873 C 0.77472 0.68138 0.74337 0.0
C874 C 0.78127 0.69724 0.75774 0.0
C875 C 0.77345 0.71213 0.75872 0.0
C876 C 0.75212 0.69556 0.73112 0.0
C877 C 0.76001 0.68059 0.73009 0.0
C878 C 0.75144 0.7276 0.74611 0.0
C879 C 0.76908 0.79484 0.73766 0.0
C880 C 0.80975 0.77877 0.76423 0.0
C881 C 0.79903 0.85921 0.78924 0.0
C882 C 0.78574 0.89008 0.78416 0.0
C883 C 0.78262 0.87453 0.76963 0.0
C884 C 0.78912 0.85916 0.77218 0.0
C885 C 0.80265 0.87493 0.80358 0.0
C886 C 0.79603 0.89029 0.80108 0.0
C887 C 0.80373 0.84208 0.79277 0.0
H888 H 0.79236 0.69809 0.76837 0.0
H889 H 0.77891 0.72433 0.7698 0.0
H890 H 0.74098 0.69492 0.72065 0.0
H891 H 0.7548 0.66856 0.71881 0.0
H892 H 0.77447 0.87387 0.75657 0.0
H893 H 0.78587 0.84695 0.76105 0.0
H894 H 0.81009 0.87506 0.8169 0.0
H895 H 0.79866 0.90216 0.81247 0.0
Dy896 Dy 0.54444 0.54287 0.52873 0.0
Dy897 Dy 0.50462 0.51775 0.50552 0.0
C898 C 0.53912 0.52712 0.48528 0.0
O899 O 0.52927 0.56447 0.52712 0.0
O900 O 0.50878 0.54812 0.50148 0.0
O901 O 0.56935 0.56577 0.53068 0.0
O902 O 0.56583 0.54781 0.55166 0.0
O903 O 0.49776 0.52847 0.5333 0.0
O904 O 0.52632 0.53828 0.55065 0.0
O905 O 0.51481 0.4963 0.51817 0.0
O906 O 0.54544 0.51251 0.52441 0.0
O907 O 0.47796 0.49735 0.50245 0.0
O908 O 0.48709 0.51077 0.47927 0.0
C909 C 0.51738 0.56411 0.51294 0.0
O910 O 0.54603 0.54204 0.49839 0.0
O911 O 0.52563 0.51301 0.48789 0.0
C912 C 0.59375 0.5544 0.54023 0.0
C913 C 0.62022 0.53532 0.53412 0.0
C914 C 0.60718 0.53518 0.51938 0.0
C915 C 0.59403 0.54459 0.52242 0.0
C916 C 0.60733 0.55548 0.55476 0.0
C917 C 0.62055 0.546 0.55172 0.0
C918 C 0.5774 0.56001 0.54418 0.0
C919 C 0.50845 0.53407 0.54932 0.0
C920 C 0.53188 0.49679 0.52293 0.0
C921 C 0.45734 0.50817 0.48515 0.0
C922 C 0.42731 0.52253 0.48546 0.0
C923 C 0.44401 0.53305 0.49603 0.0
C924 C 0.45893 0.52592 0.49589 0.0
C925 C 0.44076 0.49775 0.47417 0.0
C926 C 0.42566 0.50493 0.47437 0.0
C927 C 0.47318 0.50093 0.48614 0.0
H928 H 0.60637 0.52681 0.50577 0.0
H929 H 0.58341 0.54317 0.51108 0.0
H930 H 0.60711 0.56274 0.56864 0.0
H931 H 0.63057 0.54642 0.56327 0.0
H932 H 0.44537 0.54661 0.50475 0.0
H933 H 0.47166 0.53411 0.50444 0.0
H934 H 0.43944 0.48405 0.46579 0.0
H935 H 0.41272 0.4967 0.46624 0.0
Dy936 Dy 0.99997 0.52764 0.02564 0.0
Dy937 Dy 0.04926 0.53658 0.01556 0.0
C938 C 0.02057 0.5305 0.98711 0.0
O939 O 0.00518 0.49898 0.01832 0.0
O940 O 0.03505 0.50485 0.00939 0.0
O941 O 0.97711 0.52772 0.00647 0.0
O942 O 0.97291 0.52106 0.03405 0.0
O943 O 0.03142 0.53278 0.03719 0.0
O944 O 0.01133 0.53053 0.05568 0.0
O945 O 0.0442 0.5653 0.02311 0.0
O946 O 0.01391 0.55939 0.03104 0.0
O947 O 0.0721 0.53593 0.0344 0.0
O948 O 0.07626 0.54319 0.00701 0.0
C949 C 0.01897 0.49337 0.0118 0.0
O950 O 0.01822 0.53201 0.00449 0.0
O951 O 0.03784 0.53385 0.98556 0.0
C952 C 0.95487 0.53875 0.02147 0.0
C953 C 0.93351 0.56419 0.02645 0.0
C954 C 0.94863 0.56826 0.01659 0.0
C955 C 0.95924 0.55571 0.01417 0.0
C956 C 0.93988 0.53474 0.03145 0.0
C957 C 0.92932 0.54736 0.03397 0.0
C958 C 0.96581 0.52523 0.01888 0.0
C959 C 0.02869 0.53399 0.05447 0.0
C960 C 0.03011 0.57088 0.02894 0.0
C961 C 0.09334 0.52401 0.01849 0.0
C962 C 0.11281 0.49695 0.01208 0.0
C963 C 0.09945 0.4947 0.02421 0.0
C964 C 0.08982 0.50805 0.02737 0.0
C965 C 0.10647 0.52612 0.00612 0.0
C966 C 0.11607 0.51267 0.00289 0.0
C967 C 0.08323 0.53825 0.02181 0.0
H968 H 0.95236 0.58123 0.01085 0.0
H969 H 0.97086 0.55933 0.00658 0.0
H970 H 0.93628 0.52178 0.03722 0.0
H971 H 0.91765 0.54374 0.04148 0.0
H972 H 0.09646 0.48259 0.03129 0.0
H973 H 0.07964 0.50583 0.03682 0.0
H974 H 0.10938 0.53825 0.99906 0.0
H975 H 0.1264 0.51485 0.99359 0.0
H976 H 0.97012 0.21429 0.97845 0.0
H977 H 0.97502 0.187 0.99094 0.0
H978 H 0.01954 0.1876 0.95871 0.0
H979 H 0.01494 0.21514 0.94638 0.0
H980 H 0.97157 0.15196 0.97158 0.0
H981 H 0.0421 0.18166 0.00852 0.0
H982 H 0.02888 0.19654 0.00081 0.0
H983 H 0.04034 0.18475 0.98466 0.0
C984 C 0.9812 0.20888 0.97424 0.0
C985 C 0.99216 0.21708 0.96138 0.0
C986 C 0.98394 0.19317 0.98138 0.0
C987 C 0.99775 0.1852 0.97595 0.0
C988 C 0.00903 0.19364 0.96349 0.0
H989 H 0.03383 0.08718 0.99186 0.0
H990 H 0.0288 0.11632 0.98395 0.0
C991 C 0.00635 0.20943 0.95639 0.0
C992 C 0.99951 0.1674 0.98236 0.0
H993 H 0.02973 0.14799 0.00356 0.0
C994 C 0.98426 0.15112 0.97869 0.0
C995 C 0.01603 0.16621 0.99167 0.0
C996 C 0.03272 0.18326 0.99682 0.0
C997 C 0.98523 0.1336 0.98337 0.0
C998 C 0.00186 0.13231 0.99248 0.0
C999 C 0.01698 0.14876 0.99651 0.0
C1000 C 0.00428 0.11399 0.99716 0.0
C1001 C 0.96858 0.11654 0.97776 0.0
C1002 C 0.9922 0.10262 0.00726 0.0
C1003 C 0.99482 0.08552 0.01141 0.0
C1004 C 0.00993 0.07974 0.00611 0.0
C1005 C 0.02211 0.09125 0.99629 0.0
C1006 C 0.01925 0.10801 0.99177 0.0
H1007 H 0.95915 0.11851 0.96632 0.0
H1008 H 0.97245 0.1034 0.97317 0.0
H1009 H 0.96093 0.11452 0.98985 0.0
H1010 H 0.98086 0.10705 0.01219 0.0
H1011 H 0.98529 0.07708 0.01916 0.0
H1012 H 0.11174 0.78981 0.12564 0.0
H1013 H 0.13917 0.78271 0.1391 0.0
H1014 H 0.1386 0.81801 0.19109 0.0
H1015 H 0.11134 0.82495 0.17797 0.0
H1016 H 0.17474 0.80618 0.1565 0.0
H1017 H 0.13696 0.7667 0.20635 0.0
H1018 H 0.12551 0.77275 0.18655 0.0
H1019 H 0.13449 0.79018 0.20741 0.0
C1020 C 0.11758 0.79621 0.13988 0.0
C1021 C 0.10916 0.80782 0.15075 0.0
C1022 C 0.13325 0.7921 0.14758 0.0
C1023 C 0.14076 0.79947 0.16628 0.0
C1024 C 0.13286 0.81176 0.17679 0.0
H1025 H 0.22507 0.79976 0.2506 0.0
H1026 H 0.19957 0.80315 0.23057 0.0
C1027 C 0.11726 0.81579 0.16919 0.0
C1028 C 0.15653 0.79417 0.17519 0.0
H1029 H 0.16951 0.77571 0.21251 0.0
C1030 C 0.17358 0.79929 0.1686 0.0
C1031 C 0.15504 0.78505 0.19092 0.0
C1032 C 0.13698 0.77817 0.19813 0.0
C1033 C 0.18931 0.7965 0.17792 0.0
C1034 C 0.18793 0.78809 0.19413 0.0
C1035 C 0.17071 0.7823 0.20022 0.0
C1036 C 0.2042 0.78628 0.20581 0.0
C1037 C 0.20741 0.80335 0.1708 0.0
C1038 C 0.2155 0.7756 0.1987 0.0
C1039 C 0.23033 0.77366 0.21024 0.0
C1040 C 0.23408 0.78223 0.22917 0.0
C1041 C 0.22271 0.7929 0.23614 0.0
C1042 C 0.20802 0.79486 0.22466 0.0
H1043 H 0.20694 0.81323 0.16086 0.0
H1044 H 0.21846 0.81069 0.18248 0.0
H1045 H 0.21098 0.79095 0.16346 0.0
H1046 H 0.21268 0.76848 0.18433 0.0
H1047 H 0.2387 0.76526 0.20437 0.0
H1048 H 0.51845 0.81983 0.45389 0.0
H1049 H 0.52477 0.85373 0.46652 0.0
H1050 H 0.47281 0.84226 0.48761 0.0
H1051 H 0.46667 0.80847 0.47565 0.0
H1052 H 0.50661 0.87741 0.45691 0.0
H1053 H 0.50439 0.87681 0.53211 0.0
H1054 H 0.5054 0.85632 0.51612 0.0
H1055 H 0.48392 0.86143 0.51818 0.0
C1056 C 0.50854 0.82445 0.46158 0.0
C1057 C 0.49208 0.81127 0.46379 0.0
C1058 C 0.51214 0.84389 0.46874 0.0
C1059 C 0.4994 0.85066 0.47829 0.0
C1060 C 0.48313 0.83748 0.4808 0.0
H1061 H 0.4877 0.96375 0.51589 0.0
H1062 H 0.4828 0.92943 0.50673 0.0
C1063 C 0.47959 0.81806 0.47381 0.0
C1064 C 0.50248 0.87154 0.4844 0.0
H1065 H 0.50295 0.90548 0.52165 0.0
C1066 C 0.50597 0.88353 0.47112 0.0
C1067 C 0.50154 0.87964 0.50293 0.0
C1068 C 0.49879 0.8679 0.51818 0.0
C1069 C 0.50826 0.90318 0.47572 0.0
C1070 C 0.50719 0.91122 0.49418 0.0
C1071 C 0.50367 0.8993 0.50748 0.0
C1072 C 0.51019 0.93204 0.50001 0.0
C1073 C 0.51145 0.91517 0.46069 0.0
C1074 C 0.5273 0.94493 0.49956 0.0
C1075 C 0.53019 0.96451 0.50485 0.0
C1076 C 0.51604 0.97178 0.51077 0.0
C1077 C 0.49894 0.95878 0.51141 0.0
C1078 C 0.49609 0.93912 0.50618 0.0
H1079 H 0.50758 0.90634 0.44654 0.0
H1080 H 0.50356 0.92572 0.46191 0.0
H1081 H 0.52619 0.92309 0.46219 0.0
H1082 H 0.53847 0.93981 0.49514 0.0
H1083 H 0.54358 0.97394 0.50417 0.0
H1084 H 0.49259 0.30062 0.62587 0.0
H1085 H 0.46532 0.29385 0.64156 0.0
H1086 H 0.48839 0.26028 0.6746 0.0
H1087 H 0.51611 0.26764 0.65941 0.0
H1088 H 0.43959 0.26268 0.64516 0.0
H1089 H 0.47805 0.29702 0.71485 0.0
H1090 H 0.48846 0.29877 0.6938 0.0
H1091 H 0.48561 0.27771 0.70409 0.0
C1092 C 0.49184 0.29166 0.63637 0.0
C1093 C 0.50665 0.28483 0.64152 0.0
C1094 C 0.4762 0.28781 0.64536 0.0
C1095 C 0.47493 0.27696 0.65964 0.0
C1096 C 0.48926 0.26921 0.66407 0.0
H1097 H 0.39421 0.24831 0.73547 0.0
H1098 H 0.41928 0.24977 0.71681 0.0
C1099 C 0.50504 0.27327 0.65524 0.0
C1100 C 0.45882 0.27426 0.67012 0.0
H1101 H 0.44659 0.28143 0.71378 0.0
C1102 C 0.44114 0.26679 0.66017 0.0
C1103 C 0.46076 0.27973 0.68972 0.0
C1104 C 0.47922 0.28893 0.70124 0.0
C1105 C 0.42543 0.26442 0.66925 0.0
C1106 C 0.42741 0.26983 0.68884 0.0
C1107 C 0.44506 0.27719 0.69879 0.0
C1108 C 0.41143 0.26817 0.69938 0.0
C1109 C 0.40687 0.25589 0.6578 0.0
C1110 C 0.39864 0.27809 0.69589 0.0
C1111 C 0.38413 0.27715 0.70646 0.0
C1112 C 0.38215 0.26638 0.72088 0.0
C1113 C 0.39503 0.25648 0.72431 0.0
C1114 C 0.40949 0.2574 0.71372 0.0
H1115 H 0.40776 0.24781 0.64408 0.0
H1116 H 0.3974 0.24624 0.66522 0.0
H1117 H 0.40091 0.26749 0.65522 0.0
H1118 H 0.40003 0.28683 0.68518 0.0
H1119 H 0.37444 0.28484 0.70327 0.0
H1120 H 0.04043 0.79659 0.64284 0.0
H1121 H 0.05046 0.82312 0.62561 0.0
H1122 H 0.99826 0.8342 0.62753 0.0
H1123 H 0.98813 0.80793 0.64419 0.0
H1124 H 0.01977 0.827 0.58844 0.0
H1125 H 0.04966 0.88587 0.64867 0.0
H1126 H 0.05094 0.86194 0.64902 0.0
H1127 H 0.02964 0.8672 0.65092 0.0
C1128 C 0.03117 0.80475 0.63958 0.0
C1129 C 0.01341 0.8 0.64464 0.0
C1130 C 0.03689 0.81985 0.62978 0.0
C1131 C 0.02504 0.83055 0.62533 0.0
C1132 C 0.00756 0.82607 0.63077 0.0
H1133 H 0.01701 0.92916 0.58166 0.0
H1134 H 0.01619 0.90313 0.59891 0.0
C1135 C 0.00178 0.81095 0.64021 0.0
C1136 C 0.03022 0.84611 0.61446 0.0
H1137 H 0.04373 0.89457 0.61941 0.0
C1138 C 0.0254 0.84178 0.59509 0.0
C1139 C 0.03715 0.86531 0.62331 0.0
C1140 C 0.04225 0.87053 0.64413 0.0
C1141 C 0.02673 0.85623 0.58435 0.0
C1142 C 0.03339 0.87554 0.59322 0.0
C1143 C 0.03867 0.8798 0.61259 0.0
C1144 C 0.03417 0.89147 0.58277 0.0
C1145 C 0.02008 0.85066 0.56375 0.0
C1146 C 0.04463 0.89371 0.56802 0.0
C1147 C 0.04491 0.90841 0.55794 0.0
C1148 C 0.0349 0.92141 0.56252 0.0
C1149 C 0.02464 0.91928 0.57751 0.0
C1150 C 0.02431 0.9045 0.58752 0.0
H1151 H 0.01122 0.83572 0.56002 0.0
H1152 H 0.01228 0.86014 0.55907 0.0
H1153 H 0.03202 0.85194 0.55597 0.0
H1154 H 0.05262 0.88407 0.56427 0.0
H1155 H 0.05282 0.90942 0.5464 0.0
H1156 H 0.47625 0.7782 0.79818 0.0
H1157 H 0.44442 0.77779 0.78984 0.0
H1158 H 0.45398 0.83073 0.82772 0.0
H1159 H 0.48595 0.83113 0.83608 0.0
H1160 H 0.42004 0.77944 0.81988 0.0
H1161 H 0.42527 0.83647 0.77715 0.0
H1162 H 0.44261 0.82425 0.77902 0.0
H1163 H 0.44082 0.84117 0.79834 0.0
C1164 C 0.47168 0.79004 0.80426 0.0
C1165 C 0.48358 0.80493 0.8174 0.0
C1166 C 0.4535 0.78973 0.7996 0.0
C1167 C 0.44685 0.80429 0.80804 0.0
C1168 C 0.45889 0.81951 0.8208 0.0
H1169 H 0.337 0.81852 0.79164 0.0
H1170 H 0.36986 0.82342 0.79988 0.0
C1171 C 0.47714 0.8198 0.8255 0.0
C1172 C 0.42697 0.8025 0.80465 0.0
H1173 H 0.39581 0.8199 0.78234 0.0
C1174 C 0.41469 0.7883 0.8117 0.0
C1175 C 0.42009 0.81429 0.79429 0.0
C1176 C 0.43278 0.8299 0.78664 0.0
C1177 C 0.39569 0.78551 0.80871 0.0
C1178 C 0.38861 0.79669 0.79754 0.0
C1179 C 0.40103 0.81116 0.79075 0.0
C1180 C 0.36847 0.79363 0.7927 0.0
C1181 C 0.3836 0.77097 0.8181 0.0
C1182 C 0.35653 0.77532 0.78569 0.0
C1183 C 0.33767 0.77246 0.78164 0.0
C1184 C 0.33038 0.78795 0.78367 0.0
C1185 C 0.3423 0.80634 0.78994 0.0
C1186 C 0.36109 0.80913 0.79462 0.0
H1187 H 0.39113 0.76901 0.83098 0.0
H1188 H 0.37134 0.77513 0.82184 0.0
H1189 H 0.37911 0.75702 0.80859 0.0
H1190 H 0.36178 0.76316 0.78322 0.0
H1191 H 0.3288 0.75817 0.77652 0.0
H1192 H 0.50872 0.19924 0.17001 0.0
H1193 H 0.51403 0.17111 0.15173 0.0
H1194 H 0.4925 0.18553 0.10131 0.0
H1195 H 0.48692 0.21338 0.11942 0.0
H1196 H 0.47805 0.14413 0.10918 0.0
H1197 H 0.55373 0.17288 0.11289 0.0
H1198 H 0.54268 0.17803 0.13295 0.0
H1199 H 0.53913 0.18832 0.11281 0.0
C1200 C 0.50517 0.19642 0.15503 0.0
C1201 C 0.4973 0.20849 0.14619 0.0
C1202 C 0.50821 0.18036 0.14461 0.0
C1203 C 0.50372 0.17627 0.12515 0.0
C1204 C 0.49599 0.18836 0.11631 0.0
H1205 H 0.50896 0.09266 0.0318 0.0
H1206 H 0.50482 0.11956 0.05286 0.0
C1207 C 0.49276 0.20424 0.1267 0.0
C1208 C 0.50675 0.15925 0.1139 0.0
H1209 H 0.53983 0.14222 0.09539 0.0
C1210 C 0.49156 0.14367 0.10624 0.0
C1211 C 0.52438 0.15868 0.11006 0.0
C1212 C 0.54101 0.17532 0.11751 0.0
C1213 C 0.49355 0.12757 0.0948 0.0
C1214 C 0.51113 0.12711 0.09074 0.0
C1215 C 0.52636 0.14259 0.09856 0.0
C1216 C 0.51381 0.11079 0.07803 0.0
C1217 C 0.47689 0.11103 0.08714 0.0
C1218 C 0.52031 0.09695 0.08519 0.0
C1219 C 0.52266 0.08148 0.07319 0.0
C1220 C 0.51861 0.07957 0.05373 0.0
C1221 C 0.51215 0.09356 0.04666 0.0
C1222 C 0.50979 0.10899 0.05868 0.0
H1223 H 0.46439 0.11288 0.09281 0.0
H1224 H 0.47456 0.10948 0.07175 0.0
H1225 H 0.47917 0.09765 0.09046 0.0
H1226 H 0.52344 0.09804 0.10008 0.0
H1227 H 0.52759 0.071 0.07919 0.0
H1228 H 0.09545 0.32387 0.3362 0.0
H1229 H 0.12595 0.32655 0.32656 0.0
H1230 H 0.11052 0.26585 0.30819 0.0
H1231 H 0.08035 0.26306 0.31754 0.0
H1232 H 0.15329 0.30917 0.33742 0.0
H1233 H 0.12857 0.28594 0.2621 0.0
H1234 H 0.11453 0.29325 0.27855 0.0
H1235 H 0.11713 0.26968 0.27612 0.0
C1236 C 0.09858 0.31111 0.33013 0.0
C1237 C 0.08528 0.29327 0.32755 0.0
C1238 C 0.11603 0.31266 0.3246 0.0
C1239 C 0.12048 0.29644 0.31625 0.0
C1240 C 0.10737 0.27864 0.31414 0.0
H1241 H 0.2096 0.26297 0.27057 0.0
H1242 H 0.18069 0.26615 0.2802 0.0
C1243 C 0.09006 0.27709 0.31963 0.0
C1244 C 0.1388 0.29778 0.30989 0.0
H1245 H 0.15909 0.28616 0.27186 0.0
C1246 C 0.15461 0.30436 0.32305 0.0
C1247 C 0.14059 0.29142 0.29114 0.0
C1248 C 0.12433 0.28484 0.27612 0.0
C1249 C 0.17195 0.30397 0.31818 0.0
C1250 C 0.17372 0.29729 0.29944 0.0
C1251 C 0.15791 0.2912 0.28622 0.0
C1252 C 0.19156 0.29574 0.29331 0.0
C1253 C 0.18801 0.3099 0.33341 0.0
C1254 C 0.20745 0.31136 0.29703 0.0
C1255 C 0.22415 0.30947 0.29176 0.0
C1256 C 0.22531 0.29203 0.2822 0.0
C1257 C 0.20926 0.27663 0.27785 0.0
C1258 C 0.19266 0.27844 0.2834 0.0
H1259 H 0.1835 0.3092 0.34737 0.0
H1260 H 0.19724 0.30078 0.33128 0.0
H1261 H 0.19591 0.32485 0.33341 0.0
H1262 H 0.207 0.32508 0.30401 0.0
H1263 H 0.23617 0.3217 0.29515 0.0
H1264 H 0.98777 0.06445 0.22167 0.0
H1265 H 0.99555 0.06119 0.19005 0.0
H1266 H 0.94358 0.01894 0.17097 0.0
H1267 H 0.93548 0.02234 0.20268 0.0
H1268 H 0.99861 0.02925 0.16761 0.0
H1269 H 0.94504 0.05666 0.13524 0.0
H1270 H 0.95073 0.05961 0.16013 0.0
H1271 H 0.93656 0.03717 0.14714 0.0
C1272 C 0.9779 0.05453 0.21076 0.0
C1273 C 0.96094 0.04373 0.21465 0.0
C1274 C 0.98241 0.05266 0.1927 0.0
C1275 C 0.97006 0.04001 0.17816 0.0
C1276 C 0.95315 0.02907 0.18197 0.0
H1277 H 0.97914 0.00958 0.06124 0.0
H1278 H 0.9697 0.01095 0.09231 0.0
C1279 C 0.94858 0.03097 0.20008 0.0
C1280 C 0.97514 0.03819 0.15911 0.0
H1281 H 0.96326 0.04461 0.11504 0.0
C1282 C 0.9909 0.03261 0.15611 0.0
C1283 C 0.96505 0.04264 0.14418 0.0
C1284 C 0.94849 0.04952 0.14679 0.0
C1285 C 0.99681 0.03131 0.13852 0.0
C1286 C 0.98675 0.03583 0.12366 0.0
C1287 C 0.97089 0.04118 0.12656 0.0
C1288 C 0.99253 0.03517 0.10497 0.0
C1289 C 0.01365 0.02496 0.13586 0.0
C1290 C 0.00836 0.04855 0.10186 0.0
C1291 C 0.01375 0.04792 0.08411 0.0
C1292 C 0.0034 0.03382 0.06924 0.0
C1293 C 0.98745 0.02056 0.07242 0.0
C1294 C 0.98202 0.0213 0.09013 0.0
H1295 H 0.01787 0.01865 0.14775 0.0
H1296 H 0.01124 0.01435 0.12287 0.0
H1297 H 0.02512 0.03741 0.13458 0.0
H1298 H 0.0165 0.05949 0.11317 0.0
H1299 H 0.0261 0.05831 0.08209 0.0
H1300 H 0.26702 0.69046 0.50582 0.0
H1301 H 0.25678 0.71063 0.48627 0.0
H1302 H 0.31192 0.73252 0.47415 0.0
H1303 H 0.32239 0.71288 0.49421 0.0
H1304 H 0.29403 0.76023 0.47958 0.0
H1305 H 0.25135 0.6959 0.43007 0.0
H1306 H 0.24615 0.69739 0.45356 0.0
H1307 H 0.26791 0.69466 0.44853 0.0
C1308 C 0.27697 0.69968 0.49907 0.0
C1309 C 0.29544 0.69997 0.50125 0.0
C1310 C 0.2711 0.71115 0.48794 0.0
C1311 C 0.28355 0.72272 0.47854 0.0
C1312 C 0.30213 0.72363 0.48132 0.0
H1313 H 0.28581 0.76497 0.3803 0.0
H1314 H 0.29141 0.75593 0.41054 0.0
C1315 C 0.30808 0.71239 0.4927 0.0
C1316 C 0.27715 0.73291 0.46479 0.0
H1317 H 0.25221 0.72555 0.42213 0.0
C1318 C 0.28467 0.75272 0.46713 0.0
C1319 C 0.26503 0.72295 0.44856 0.0
C1320 C 0.25723 0.70154 0.44487 0.0
C1321 C 0.28087 0.76277 0.45326 0.0
C1322 C 0.2692 0.75272 0.43691 0.0
C1323 C 0.26101 0.73311 0.43492 0.0
C1324 C 0.26734 0.76155 0.4205 0.0
C1325 C 0.2899 0.78387 0.45566 0.0
C1326 C 0.25211 0.76794 0.41643 0.0
C1327 C 0.24883 0.77306 0.39913 0.0
C1328 C 0.26063 0.77151 0.38572 0.0
C1329 C 0.27636 0.76598 0.39029 0.0
C1330 C 0.27967 0.76101 0.40757 0.0
H1331 H 0.29706 0.78995 0.47 0.0
H1332 H 0.30001 0.78663 0.44569 0.0
H1333 H 0.27954 0.79129 0.45245 0.0
H1334 H 0.24241 0.7682 0.42631 0.0
H1335 H 0.2366 0.77726 0.39588 0.0
H1336 H 0.65896 0.04573 0.67842 0.0
H1337 H 0.64023 0.06018 0.65999 0.0
H1338 H 0.59238 0.03014 0.6819 0.0
H1339 H 0.61126 0.016 0.70075 0.0
H1340 H 0.61541 0.03355 0.63392 0.0
H1341 H 0.5805 0.07928 0.6738 0.0
H1342 H 0.60096 0.07462 0.68364 0.0
H1343 H 0.579 0.0574 0.68218 0.0
C1344 C 0.64459 0.04297 0.67999 0.0
C1345 C 0.63645 0.02967 0.69081 0.0
C1346 C 0.63391 0.05122 0.66946 0.0
C1347 C 0.6149 0.04613 0.66945 0.0
C1348 C 0.60706 0.03449 0.68188 0.0
H1349 H 0.51994 0.02661 0.59162 0.0
H1350 H 0.54249 0.03284 0.61938 0.0
C1351 C 0.61784 0.02639 0.69266 0.0
C1352 C 0.60319 0.0491 0.65366 0.0
H1353 H 0.56672 0.06519 0.64224 0.0
C1354 C 0.605 0.04082 0.6357 0.0
C1355 C 0.58952 0.05838 0.65606 0.0
C1356 C 0.58746 0.06809 0.67495 0.0
C1357 C 0.59302 0.04079 0.62015 0.0
C1358 C 0.57902 0.04965 0.62256 0.0
C1359 C 0.5775 0.05845 0.64045 0.0
C1360 C 0.56507 0.0485 0.60681 0.0
C1361 C 0.59489 0.03036 0.60143 0.0
C1362 C 0.57019 0.0558 0.5908 0.0
C1363 C 0.55742 0.05197 0.5749 0.0
C1364 C 0.53934 0.04102 0.57489 0.0
C1365 C 0.5339 0.0349 0.59129 0.0
C1366 C 0.54672 0.03853 0.60714 0.0
H1367 H 0.60363 0.02076 0.60276 0.0
H1368 H 0.5813 0.02175 0.59389 0.0
H1369 H 0.60129 0.04084 0.59283 0.0
H1370 H 0.58418 0.06394 0.59042 0.0
H1371 H 0.56171 0.05744 0.56259 0.0
H1372 H 0.28189 0.31123 0.98526 0.0
H1373 H 0.27973 0.29827 0.95215 0.0
H1374 H 0.26763 0.34841 0.93789 0.0
H1375 H 0.2685 0.36068 0.97085 0.0
H1376 H 0.249 0.32003 0.9137 0.0
H1377 H 0.31957 0.31407 0.92213 0.0
H1378 H 0.3051 0.29943 0.93548 0.0
H1379 H 0.3101 0.32496 0.9409 0.0
C1380 C 0.27844 0.31927 0.97499 0.0
C1381 C 0.27539 0.33696 0.9806 0.0
C1382 C 0.27746 0.312 0.95608 0.0
C1383 C 0.27418 0.32264 0.94244 0.0
C1384 C 0.27033 0.33993 0.94806 0.0
H1385 H 0.30483 0.30945 0.83048 0.0
H1386 H 0.30391 0.31828 0.86389 0.0
C1387 C 0.27076 0.34693 0.96693 0.0
C1388 C 0.2751 0.31612 0.92239 0.0
H1389 H 0.30209 0.30097 0.89244 0.0
C1390 C 0.26066 0.31592 0.90909 0.0
C1391 C 0.29048 0.31113 0.9162 0.0
C1392 C 0.30726 0.3126 0.92941 0.0
C1393 C 0.2611 0.31088 0.88993 0.0
C1394 C 0.27603 0.30495 0.88383 0.0
C1395 C 0.29052 0.30523 0.89708 0.0
C1396 C 0.27704 0.29883 0.86375 0.0
C1397 C 0.24582 0.31264 0.87646 0.0
C1398 C 0.26256 0.28455 0.8526 0.0
C1399 C 0.26293 0.27979 0.83351 0.0
C1400 C 0.27804 0.28879 0.82521 0.0
C1401 C 0.29302 0.30228 0.8365 0.0
C1402 C 0.29247 0.30734 0.85559 0.0
H1403 H 0.23906 0.323 0.88285 0.0
H1404 H 0.2509 0.31724 0.86366 0.0
H1405 H 0.23528 0.29864 0.87247 0.0
H1406 H 0.25082 0.27723 0.85861 0.0
H1407 H 0.25129 0.26912 0.8252 0.0
H1408 H 0.9762 0.06047 0.32703 0.0
H1409 H 0.98791 0.0538 0.35656 0.0
H1410 H 0.97669 0.99462 0.33205 0.0
H1411 H 0.96562 0.00155 0.30199 0.0
H1412 H 0.96443 0.02861 0.37445 0.0
H1413 H 0.02719 0.00651 0.36353 0.0
H1414 H 0.01813 0.01955 0.34796 0.0
H1415 H 0.00678 0.99486 0.34737 0.0
C1416 C 0.97664 0.04613 0.32786 0.0
C1417 C 0.97003 0.03148 0.31242 0.0
C1418 C 0.98332 0.04233 0.34468 0.0
C1419 C 0.98317 0.02374 0.34648 0.0
C1420 C 0.97721 0.00913 0.33085 0.0
H1421 H 0.01113 0.99483 0.45588 0.0
H1422 H 0.00279 0.99138 0.42207 0.0
C1423 C 0.97085 0.01305 0.31377 0.0
C1424 C 0.98724 0.01976 0.36532 0.0
H1425 H 0.01913 0.00907 0.39394 0.0
C1426 C 0.97629 0.02415 0.37867 0.0
C1427 C 0.00248 0.01356 0.37066 0.0
C1428 C 0.01444 0.0084 0.35671 0.0
C1429 C 0.98073 0.02356 0.39743 0.0
C1430 C 0.99673 0.01871 0.40306 0.0
C1431 C 0.00703 0.01305 0.38956 0.0
C1432 C 0.0035 0.02086 0.423 0.0
C1433 C 0.96839 0.02855 0.41108 0.0
C1434 C 0.00728 0.03868 0.4345 0.0
C1435 C 0.01163 0.04057 0.45366 0.0
C1436 C 0.01282 0.02477 0.46159 0.0
C1437 C 0.01026 0.00718 0.45 0.0
C1438 C 0.00551 0.00521 0.43077 0.0
H1439 H 0.95419 0.02574 0.40416 0.0
H1440 H 0.96803 0.0204 0.42268 0.0
H1441 H 0.97356 0.04396 0.41701 0.0
H1442 H 0.00634 0.05106 0.4287 0.0
H1443 H 0.01387 0.05435 0.46231 0.0
H1444 H 0.26753 0.67297 0.57057 0.0
H1445 H 0.25511 0.6886 0.5957 0.0
H1446 H 0.30976 0.72163 0.62034 0.0
H1447 H 0.32237 0.70637 0.59497 0.0
H1448 H 0.26013 0.68802 0.63187 0.0
H1449 H 0.28364 0.76221 0.62079 0.0
H1450 H 0.28361 0.74229 0.60338 0.0
H1451 H 0.30249 0.75228 0.6218 0.0
C1452 C 0.27696 0.68356 0.58133 0.0
C1453 C 0.29599 0.68843 0.58081 0.0
C1454 C 0.26979 0.69255 0.59559 0.0
C1455 C 0.28149 0.70654 0.60959 0.0
C1456 C 0.30048 0.71125 0.60931 0.0
H1457 H 0.28582 0.73622 0.7221 0.0
H1458 H 0.28236 0.72131 0.68963 0.0
C1459 C 0.30769 0.70238 0.59494 0.0
C1460 C 0.27407 0.71527 0.62531 0.0
H1461 H 0.2791 0.75801 0.65267 0.0
C1462 C 0.2639 0.70333 0.63622 0.0
C1463 C 0.27833 0.73522 0.63057 0.0
C1464 C 0.28742 0.74871 0.61836 0.0
C1465 C 0.25959 0.71087 0.65329 0.0
C1466 C 0.26612 0.73071 0.65971 0.0
C1467 C 0.27453 0.74273 0.64791 0.0
C1468 C 0.26676 0.73895 0.67936 0.0
C1469 C 0.24872 0.69748 0.6646 0.0
C1470 C 0.25961 0.7542 0.68424 0.0
C1471 C 0.26185 0.763 0.7028 0.0
C1472 C 0.27133 0.75668 0.71669 0.0
C1473 C 0.27841 0.74137 0.71173 0.0
C1474 C 0.27624 0.73267 0.69321 0.0
H1475 H 0.23907 0.68482 0.6554 0.0
H1476 H 0.25821 0.69237 0.67344 0.0
H1477 H 0.24085 0.7046 0.67374 0.0
H1478 H 0.25245 0.75936 0.67368 0.0
H1479 H 0.25616 0.77472 0.70623 0.0
H1480 H 0.59352 0.00926 0.78276 0.0
H1481 H 0.58721 0.02577 0.81164 0.0
H1482 H 0.60836 0.07966 0.79411 0.0
H1483 H 0.61462 0.06298 0.76485 0.0
H1484 H 0.62063 0.05702 0.83528 0.0
H1485 H 0.55773 0.07851 0.81816 0.0
H1486 H 0.56113 0.0577 0.80457 0.0
H1487 H 0.57528 0.08087 0.80301 0.0
C1488 C 0.59604 0.02456 0.7847 0.0
C1489 C 0.60413 0.03486 0.77149 0.0
C1490 C 0.59264 0.03398 0.80126 0.0
C1491 C 0.59741 0.05388 0.80499 0.0
C1492 C 0.60447 0.06425 0.79136 0.0
H1493 H 0.57073 0.10298 0.91169 0.0
H1494 H 0.58421 0.10322 0.88255 0.0
C1495 C 0.6078 0.05474 0.7746 0.0
C1496 C 0.59655 0.06337 0.82394 0.0
H1497 H 0.56767 0.08012 0.84986 0.0
C1498 C 0.60929 0.06249 0.83851 0.0
C1499 C 0.58194 0.07071 0.82801 0.0
C1500 C 0.56816 0.07211 0.8127 0.0
C1501 C 0.60707 0.0676 0.85716 0.0
C1502 C 0.59148 0.07329 0.86128 0.0
C1503 C 0.57956 0.07561 0.84669 0.0
C1504 C 0.58592 0.07437 0.8802 0.0
C1505 C 0.62112 0.06624 0.87226 0.0
C1506 C 0.58262 0.05817 0.88865 0.0
C1507 C 0.5749 0.05796 0.90519 0.0
C1508 C 0.57013 0.07391 0.91357 0.0
C1509 C 0.57407 0.0904 0.90546 0.0
C1510 C 0.58184 0.0906 0.88888 0.0
H1511 H 0.63484 0.0688 0.86756 0.0
H1512 H 0.62207 0.07661 0.88513 0.0
H1513 H 0.61721 0.05169 0.87564 0.0
H1514 H 0.58518 0.04529 0.88198 0.0
H1515 H 0.57176 0.04493 0.91087 0.0
H1516 H 0.25308 0.35818 0.08497 0.0
H1517 H 0.25004 0.34783 0.11502 0.0
H1518 H 0.26857 0.29946 0.09533 0.0
H1519 H 0.27284 0.31057 0.06568 0.0
H1520 H 0.2333 0.3191 0.12991 0.0
H1521 H 0.30716 0.32427 0.138 0.0
H1522 H 0.29638 0.3317 0.11878 0.0
H1523 H 0.29461 0.3069 0.11834 0.0
C1524 C 0.25605 0.34506 0.08689 0.0
C1525 C 0.26337 0.33526 0.07308 0.0
C1526 C 0.25441 0.33921 0.10414 0.0
C1527 C 0.25977 0.32327 0.10776 0.0
C1528 C 0.26512 0.31227 0.0932 0.0
H1529 H 0.26963 0.27148 0.2046 0.0
H1530 H 0.26584 0.27914 0.17356 0.0
C1531 C 0.26728 0.31844 0.07614 0.0
C1532 C 0.26103 0.31907 0.12705 0.0
H1533 H 0.29041 0.31199 0.16135 0.0
C1534 C 0.24582 0.31762 0.13678 0.0
C1535 C 0.27748 0.31743 0.13624 0.0
C1536 C 0.29488 0.32036 0.12738 0.0
C1537 C 0.24648 0.31415 0.15518 0.0
C1538 C 0.26273 0.31203 0.16405 0.0
C1539 C 0.27794 0.31356 0.15444 0.0
C1540 C 0.26414 0.30748 0.18309 0.0
C1541 C 0.22974 0.31246 0.16495 0.0
C1542 C 0.26453 0.32097 0.19882 0.0
C1543 C 0.26682 0.31669 0.21676 0.0
C1544 C 0.26873 0.29883 0.2192 0.0
C1545 C 0.2682 0.28538 0.20332 0.0
C1546 C 0.26601 0.2897 0.18551 0.0
H1547 H 0.21745 0.31169 0.1553 0.0
H1548 H 0.2269 0.29961 0.1716 0.0
H1549 H 0.23227 0.32505 0.17612 0.0
H1550 H 0.26335 0.3349 0.19723 0.0
H1551 H 0.2672 0.32738 0.22866 0.0
H1552 H 0.20803 0.91055 0.99584 0.0
H1553 H 0.17903 0.91839 0.99056 0.0
H1554 H 0.20746 0.97778 0.0105 0.0
H1555 H 0.23604 0.97022 0.01539 0.0
H1556 H 0.16546 0.93375 0.01993 0.0
H1557 H 0.17231 0.982 0.96897 0.0
H1558 H 0.1865 0.96625 0.97045 0.0
H1559 H 0.19278 0.98932 0.98525 0.0
C1560 C 0.20805 0.9253 0.99857 0.0
C1561 C 0.22412 0.93977 0.00633 0.0
C1562 C 0.19157 0.92974 0.99549 0.0
C1563 C 0.19119 0.94867 -0.00013 0.0
C1564 C 0.20749 0.96315 0.00651 0.0
H1565 H 0.14614 0.02777 0.04748 0.0
H1566 H 0.16265 0.00476 0.03769 0.0
C1567 C 0.2238 0.95875 0.00962 0.0
C1568 C 0.17388 0.95338 0.00116 0.0
H1569 H 0.15632 0.98998 0.99569 0.0
C1570 C 0.16293 0.94557 0.0141 0.0
C1571 C 0.17061 0.96873 0.99346 0.0
C1572 C 0.18112 0.97688 0.97861 0.0
C1573 C 0.15024 0.9542 0.0212 0.0
C1574 C 0.14858 0.97084 0.01502 0.0
C1575 C 0.15807 0.97742 0.00067 0.0
C1576 C 0.1383 0.98266 0.02418 0.0
C1577 C 0.13977 0.94651 0.03625 0.0
C1578 C 0.11923 0.97733 0.02043 0.0
C1579 C 0.10986 0.99036 0.02604 0.0
C1580 C 0.11955 0.00882 0.03531 0.0
C1581 C 0.13848 0.01358 0.04039 0.0
C1582 C 0.14785 0.00054 0.03475 0.0
H1583 H 0.14339 0.93396 0.04021 0.0
H1584 H 0.14252 0.95775 0.0488 0.0
H1585 H 0.12487 0.94228 0.03135 0.0
H1586 H 0.11175 0.96358 0.01223 0.0
H1587 H 0.09517 0.98645 0.02217 0.0
H1588 H 0.72366 0.62838 0.03002 0.0
H1589 H 0.69105 0.61314 0.02892 0.0
H1590 H 0.67884 0.65003 0.99242 0.0
H1591 H 0.71167 0.66515 0.99307 0.0
H1592 H 0.66463 0.62916 0.03991 0.0
H1593 H 0.64884 0.59763 0.96453 0.0
H1594 H 0.67197 0.607 0.97628 0.0
H1595 H 0.65945 0.62287 0.96989 0.0
C1596 C 0.71408 0.63328 0.02172 0.0
C1597 C 0.72025 0.64795 0.0116 0.0
C1598 C 0.69543 0.62453 0.0211 0.0
C1599 C 0.68254 0.63028 0.01041 0.0
C1600 C 0.68859 0.6451 0.00044 0.0
H1601 H 0.56323 0.58326 0.99763 0.0
H1602 H 0.59404 0.60342 0.99617 0.0
C1603 C 0.70732 0.65379 0.00092 0.0
C1604 C 0.66281 0.62087 0.01022 0.0
H1605 H 0.6243 0.59236 0.98229 0.0
C1606 C 0.65579 0.6212 0.02729 0.0
C1607 C 0.65129 0.61059 0.99372 0.0
C1608 C 0.65824 0.60931 0.97506 0.0
C1609 C 0.63767 0.61118 0.02838 0.0
C1610 C 0.62635 0.6004 0.012 0.0
C1611 C 0.63311 0.60061 0.99482 0.0
C1612 C 0.60775 0.58809 0.0126 0.0
C1613 C 0.63081 0.61213 0.04709 0.0
C1614 C 0.60535 0.57263 0.02205 0.0
C1615 C 0.58782 0.56109 0.02291 0.0
C1616 C 0.57236 0.56476 0.01426 0.0
C1617 C 0.57484 0.58009 0.00451 0.0
C1618 C 0.59242 0.59161 0.00363 0.0
H1619 H 0.63936 0.62475 0.0572 0.0
H1620 H 0.61642 0.61263 0.04581 0.0
H1621 H 0.63134 0.59922 0.05283 0.0
H1622 H 0.61707 0.5695 0.02877 0.0
H1623 H 0.58642 0.54935 0.03044 0.0
H1624 H 0.67983 0.51246 0.26918 0.0
H1625 H 0.697 0.48959 0.26093 0.0
H1626 H 0.64909 0.44329 0.26275 0.0
H1627 H 0.63183 0.46609 0.27002 0.0
H1628 H 0.70444 0.46675 0.28286 0.0
H1629 H 0.66588 0.42187 0.21685 0.0
H1630 H 0.66217 0.44425 0.22604 0.0
H1631 H 0.65159 0.423 0.23482 0.0
C1632 C 0.67291 0.49735 0.26711 0.0
C1633 C 0.65454 0.49085 0.26976 0.0
C1634 C 0.68268 0.48433 0.26253 0.0
C1635 C 0.67424 0.4647 0.2609 0.0
C1636 C 0.65573 0.45828 0.26328 0.0
H1637 H 0.71314 0.36559 0.25975 0.0
H1638 H 0.69515 0.3883 0.26134 0.0
C1639 C 0.6459 0.47127 0.2675 0.0
C1640 C 0.68526 0.45114 0.25875 0.0
H1641 H 0.68702 0.40944 0.23336 0.0
C1642 C 0.70076 0.45436 0.27187 0.0
C1643 C 0.68027 0.43482 0.24458 0.0
C1644 C 0.66416 0.43087 0.22968 0.0
C1645 C 0.71127 0.4416 0.27138 0.0
C1646 C 0.70625 0.4253 0.25726 0.0
C1647 C 0.69077 0.422 0.24415 0.0
C1648 C 0.71699 0.41155 0.2559 0.0
C1649 C 0.7274 0.44539 0.28624 0.0
C1650 C 0.7351 0.41712 0.25209 0.0
C1651 C 0.74545 0.40428 0.25134 0.0
C1652 C 0.7378 0.3856 0.25426 0.0
C1653 C 0.7195 0.37997 0.25773 0.0
C1654 C 0.70917 0.39285 0.2585 0.0
H1655 H 0.72685 0.45598 0.29841 0.0
H1656 H 0.728 0.43206 0.29113 0.0
H1657 H 0.74022 0.4511 0.28037 0.0
H1658 H 0.74126 0.43145 0.24981 0.0
H1659 H 0.75954 0.4091 0.24881 0.0
H1660 H 0.81254 0.48027 0.49937 0.0
H1661 H 0.84285 0.49668 0.49212 0.0
H1662 H 0.85923 0.44558 0.49332 0.0
H1663 H 0.82904 0.42915 0.49964 0.0
H1664 H 0.87068 0.50157 0.51873 0.0
H1665 H 0.887 0.46633 0.45365 0.0
H1666 H 0.86371 0.46295 0.45849 0.0
H1667 H 0.87726 0.44883 0.46722 0.0
C1668 C 0.82247 0.47244 0.49743 0.0
C1669 C 0.81884 0.45373 0.50082 0.0
C1670 C 0.8397 0.48177 0.49324 0.0
C1671 C 0.85327 0.47235 0.49222 0.0
C1672 C 0.84893 0.45308 0.49379 0.0
H1673 H 0.96521 0.48749 0.52308 0.0
H1674 H 0.9318 0.47763 0.51587 0.0
C1675 C 0.83179 0.44382 0.49793 0.0
C1676 C 0.87269 0.48323 0.49379 0.0
H1677 H 0.9128 0.4804 0.47866 0.0
C1678 C 0.87986 0.49737 0.50965 0.0
C1679 C 0.88461 0.47756 0.48204 0.0
C1680 C 0.87766 0.4632 0.46431 0.0
C1681 C 0.89874 0.50499 0.51481 0.0
C1682 C 0.91059 0.49838 0.50369 0.0
C1683 C 0.90351 0.48512 0.48726 0.0
C1684 C 0.93045 0.50472 0.50916 0.0
C1685 C 0.90591 0.51916 0.53266 0.0
C1686 C 0.94043 0.52324 0.50806 0.0
C1687 C 0.95938 0.52891 0.51218 0.0
C1688 C 0.96861 0.51605 0.51735 0.0
C1689 C 0.95847 0.49765 0.51905 0.0
C1690 C 0.93946 0.49199 0.51489 0.0
H1691 H 0.8948 0.52104 0.54083 0.0
H1692 H 0.91585 0.51451 0.54142 0.0
H1693 H 0.91321 0.53318 0.52938 0.0
H1694 H 0.93359 0.53316 0.50359 0.0
H1695 H 0.9668 0.54323 0.51085 0.0
H1696 H 0.36684 0.05941 0.26539 0.0
H1697 H 0.34592 0.07353 0.24945 0.0
H1698 H 0.33964 0.10373 0.30227 0.0
H1699 H 0.35993 0.08904 0.31836 0.0
H1700 H 0.30756 0.08948 0.27944 0.0
H1701 H 0.36198 0.12805 0.24184 0.0
H1702 H 0.35717 0.10263 0.23754 0.0
H1703 H 0.3668 0.11592 0.26041 0.0
C1704 C 0.36097 0.06905 0.27358 0.0
C1705 C 0.36518 0.07341 0.29306 0.0
C1706 C 0.34907 0.0771 0.26446 0.0
C1707 C 0.34161 0.08996 0.27467 0.0
C1708 C 0.34534 0.09386 0.29417 0.0
H1709 H 0.31112 0.18578 0.25816 0.0
H1710 H 0.32571 0.16084 0.26111 0.0
C1711 C 0.35696 0.08554 0.30332 0.0
C1712 C 0.33056 0.10013 0.26516 0.0
H1713 H 0.33327 0.13335 0.23708 0.0
C1714 C 0.31303 0.09891 0.26998 0.0
C1715 C 0.33791 0.11244 0.25293 0.0
C1716 C 0.35704 0.11502 0.24796 0.0
C1717 C 0.30296 0.11045 0.26366 0.0
C1718 C 0.31046 0.12303 0.2517 0.0
C1719 C 0.32757 0.1235 0.24609 0.0
C1720 C 0.30216 0.13786 0.24733 0.0
C1721 C 0.28501 0.11003 0.27087 0.0
C1722 C 0.28433 0.1332 0.23799 0.0
C1723 C 0.27579 0.14742 0.23665 0.0
C1724 C 0.28511 0.16645 0.24446 0.0
C1725 C 0.30344 0.17116 0.25249 0.0
C1726 C 0.31186 0.15697 0.254 0.0
H1727 H 0.28285 0.10196 0.28254 0.0
H1728 H 0.28439 0.12469 0.27576 0.0
H1729 H 0.27359 0.10308 0.25948 0.0
H1730 H 0.27681 0.11852 0.23241 0.0
H1731 H 0.26167 0.14342 0.23031 0.0
H1732 H 0.33957 0.18138 0.51278 0.0
H1733 H 0.36363 0.16615 0.51879 0.0
H1734 H 0.32629 0.12408 0.54263 0.0
H1735 H 0.30221 0.13913 0.53676 0.0
H1736 H 0.37796 0.15319 0.55411 0.0
H1737 H 0.34186 0.09616 0.49409 0.0
H1738 H 0.33814 0.11935 0.49741 0.0
H1739 H 0.32813 0.10226 0.51134 0.0
C1740 C 0.3366 0.16916 0.5197 0.0
C1741 C 0.31893 0.16135 0.52413 0.0
C1742 C 0.35035 0.1605 0.52312 0.0
C1743 C 0.3466 0.14393 0.53095 0.0
C1744 C 0.32936 0.13682 0.53646 0.0
H1745 H 0.39909 0.05533 0.53661 0.0
H1746 H 0.37894 0.07574 0.53993 0.0
C1747 C 0.31564 0.14546 0.53311 0.0
C1748 C 0.35996 0.13292 0.53164 0.0
H1749 H 0.36748 0.09192 0.51115 0.0
C1750 C 0.37576 0.13981 0.54474 0.0
C1751 C 0.35695 0.11553 0.51933 0.0
C1752 C 0.34044 0.10787 0.50463 0.0
C1753 C 0.38855 0.12946 0.54606 0.0
C1754 C 0.3855 0.11201 0.53376 0.0
C1755 C 0.36971 0.10524 0.52063 0.0
C1756 C 0.39854 0.10053 0.53391 0.0
C1757 C 0.405 0.13705 0.56083 0.0
C1758 C 0.41629 0.10777 0.52957 0.0
C1759 C 0.42787 0.09617 0.52775 0.0
C1760 C 0.42186 0.07707 0.53012 0.0
C1761 C 0.40422 0.07002 0.53492 0.0
C1762 C 0.39266 0.08163 0.53673 0.0
H1763 H 0.40292 0.14776 0.57205 0.0
H1764 H 0.40812 0.12536 0.56713 0.0
H1765 H 0.41706 0.14403 0.5544 0.0
H1766 H 0.42098 0.12222 0.52701 0.0
H1767 H 0.44145 0.10207 0.52423 0.0
H1768 H 0.63973 0.58215 0.26842 0.0
H1769 H 0.65832 0.61346 0.26434 0.0
H1770 H 0.6977 0.6144 0.31042 0.0
H1771 H 0.67924 0.58306 0.31473 0.0
H1772 H 0.67751 0.64954 0.3043 0.0
H1773 H 0.71816 0.62381 0.25231 0.0
H1774 H 0.6945 0.61088 0.25241 0.0
H1775 H 0.71139 0.61112 0.27101 0.0
C1776 C 0.65234 0.58896 0.27771 0.0
C1777 C 0.65797 0.58005 0.29193 0.0
C1778 C 0.66292 0.60684 0.27534 0.0
C1779 C 0.67934 0.6161 0.28705 0.0
C1780 C 0.68504 0.60738 0.30126 0.0
H1781 H 0.76652 0.71621 0.27802 0.0
H1782 H 0.74815 0.68492 0.28253 0.0
C1783 C 0.67445 0.58951 0.3037 0.0
C1784 C 0.69045 0.63503 0.28455 0.0
H1785 H 0.72383 0.6569 0.26055 0.0
C1786 C 0.68767 0.65125 0.29477 0.0
C1787 C 0.70372 0.63704 0.27223 0.0
C1788 C 0.70727 0.61986 0.26129 0.0
C1789 C 0.69794 0.66959 0.29303 0.0
C1790 C 0.71102 0.67171 0.28034 0.0
C1791 C 0.7138 0.65535 0.27021 0.0
C1792 C 0.72209 0.6907 0.27749 0.0
C1793 C 0.69493 0.68643 0.3052 0.0
C1794 C 0.71361 0.70429 0.27284 0.0
C1795 C 0.72411 0.7223 0.27074 0.0
C1796 C 0.74328 0.72685 0.27259 0.0
C1797 C 0.75176 0.71305 0.27651 0.0
C1798 C 0.74127 0.69518 0.27908 0.0
H1799 H 0.6891 0.68238 0.31789 0.0
H1800 H 0.70787 0.69809 0.30954 0.0
H1801 H 0.68501 0.69187 0.29734 0.0
H1802 H 0.69885 0.70098 0.27081 0.0
H1803 H 0.7172 0.73258 0.26741 0.0
H1804 H 0.88087 0.48591 0.77696 0.0
H1805 H 0.86667 0.45184 0.76656 0.0
H1806 H 0.82704 0.45281 0.80469 0.0
H1807 H 0.84137 0.48685 0.8156 0.0
H1808 H 0.86287 0.42724 0.79811 0.0
H1809 H 0.79995 0.41937 0.75003 0.0
H1810 H 0.82015 0.43954 0.75269 0.0
H1811 H 0.80501 0.43799 0.77013 0.0
C1812 C 0.86896 0.479 0.78296 0.0
C1813 C 0.8624 0.48901 0.79735 0.0
C1814 C 0.86086 0.45958 0.77691 0.0
C1815 C 0.84586 0.45008 0.78484 0.0
C1816 C 0.83856 0.46014 0.79835 0.0
H1817 H 0.77959 0.34655 0.80287 0.0
H1818 H 0.79599 0.37939 0.80033 0.0
C1819 C 0.84681 0.47951 0.80463 0.0
C1820 C 0.83932 0.4293 0.78114 0.0
H1821 H 0.80131 0.39251 0.76389 0.0
C1822 C 0.8496 0.41948 0.7903 0.0
C1823 C 0.82212 0.41949 0.77085 0.0
C1824 C 0.81115 0.42955 0.7602 0.0
C1825 C 0.84238 0.40011 0.79059 0.0
C1826 C 0.82458 0.39063 0.78141 0.0
C1827 C 0.81485 0.40013 0.77115 0.0
C1828 C 0.81532 0.3712 0.78342 0.0
C1829 C 0.85327 0.39018 0.80159 0.0
C1830 C 0.82114 0.35619 0.77496 0.0
C1831 C 0.81212 0.33776 0.77668 0.0
C1832 C 0.79699 0.33411 0.78662 0.0
C1833 C 0.79136 0.34916 0.7954 0.0
C1834 C 0.80053 0.36774 0.79375 0.0
H1835 H 0.86598 0.40023 0.80972 0.0
H1836 H 0.84487 0.38264 0.81131 0.0
H1837 H 0.85715 0.37939 0.79194 0.0
H1838 H 0.83246 0.35871 0.76685 0.0
H1839 H 0.81676 0.3263 0.76981 0.0
H1840 H 0.02833 0.82859 0.05164 0.0
H1841 H 0.02895 0.85718 0.03845 0.0
H1842 H 0.07208 0.89046 0.08174 0.0
H1843 H 0.07164 0.86176 0.09506 0.0
H1844 H 0.02931 0.89673 0.07204 0.0
H1845 H 0.07691 0.89986 0.01855 0.0
H1846 H 0.06262 0.87721 0.02207 0.0
H1847 H 0.08111 0.89081 0.03962 0.0
C1848 C 0.03837 0.84186 0.05807 0.0
C1849 C 0.04999 0.84279 0.07443 0.0
C1850 C 0.03865 0.85823 0.05052 0.0
C1851 C 0.0505 0.87598 0.05911 0.0
C1852 C 0.06287 0.87688 0.07481 0.0
H1853 H 0.06041 0.991 0.03777 0.0
H1854 H 0.06608 0.96206 0.04602 0.0
C1855 C 0.06272 0.86041 0.08233 0.0
C1856 C 0.04842 0.89366 0.05286 0.0
H1857 H 0.06137 0.92337 0.02167 0.0
C1858 C 0.03637 0.90259 0.06108 0.0
C1859 C 0.05751 0.90122 0.03847 0.0
C1860 C 0.07032 0.8919 0.02906 0.0
C1861 C 0.03317 0.91884 0.0553 0.0
C1862 C 0.04218 0.9264 0.04083 0.0
C1863 C 0.0544 0.91757 0.03271 0.0
C1864 C 0.03919 0.94362 0.03427 0.0
C1865 C 0.02023 0.92795 0.0648 0.0
C1866 C 0.02233 0.94287 0.02446 0.0
C1867 C 0.01908 0.9594 0.01953 0.0
C1868 C 0.03257 0.97711 0.02449 0.0
C1869 C 0.04963 0.97768 0.03385 0.0
C1870 C 0.05294 0.96111 0.03855 0.0
H1871 H 0.01673 0.92238 0.07771 0.0
H1872 H 0.02631 0.94362 0.06836 0.0
H1873 H 0.00739 0.92503 0.05518 0.0
H1874 H 0.01155 0.92953 0.02088 0.0
H1875 H 0.0058 0.95839 0.01236 0.0
H1876 H 0.9285 0.24156 0.90336 0.0
H1877 H 0.9007 0.24451 0.88624 0.0
H1878 H 0.93248 0.2954 0.86935 0.0
H1879 H 0.96028 0.29213 0.88578 0.0
H1880 H 0.8826 0.27168 0.88746 0.0
H1881 H 0.90899 0.26343 0.81965 0.0
H1882 H 0.9202 0.25902 0.84051 0.0
H1883 H 0.9236 0.28298 0.83632 0.0
C1884 C 0.92951 0.25346 0.89612 0.0
C1885 C 0.94663 0.26647 0.89572 0.0
C1886 C 0.91361 0.25512 0.88631 0.0
C1887 C 0.91452 0.26988 0.87603 0.0
C1888 C 0.93146 0.28352 0.87661 0.0
H1889 H 0.84052 0.30059 0.79802 0.0
H1890 H 0.86605 0.29891 0.81952 0.0
C1891 C 0.94735 0.28171 0.88615 0.0
C1892 C 0.89795 0.27078 0.8643 0.0
H1893 H 0.8816 0.27227 0.8198 0.0
C1894 C 0.88233 0.27174 0.87265 0.0
C1895 C 0.89752 0.27078 0.84492 0.0
C1896 C 0.9134 0.26881 0.83477 0.0
C1897 C 0.86658 0.27334 0.86233 0.0
C1898 C 0.86624 0.27356 0.84296 0.0
C1899 C 0.8818 0.27229 0.83462 0.0
C1900 C 0.85015 0.27531 0.83096 0.0
C1901 C 0.85074 0.27538 0.87248 0.0
C1902 C 0.83254 0.26273 0.83016 0.0
C1903 C 0.81779 0.264 0.81814 0.0
C1904 C 0.82045 0.27747 0.80622 0.0
C1905 C 0.83805 0.28998 0.80695 0.0
C1906 C 0.85267 0.28902 0.81926 0.0
H1907 H 0.85521 0.28086 0.88759 0.0
H1908 H 0.8439 0.2851 0.86669 0.0
H1909 H 0.84059 0.2612 0.87108 0.0
H1910 H 0.83022 0.2516 0.83848 0.0
H1911 H 0.80443 0.25401 0.81771 0.0
H1912 H 0.51024 0.23625 0.56294 0.0
H1913 H 0.5125 0.2045 0.55135 0.0
H1914 H 0.56791 0.22044 0.57885 0.0
H1915 H 0.56567 0.25213 0.59089 0.0
H1916 H 0.53485 0.19064 0.52958 0.0
H1917 H 0.54436 0.17407 0.60063 0.0
H1918 H 0.53762 0.19466 0.59624 0.0
H1919 H 0.56118 0.19486 0.59687 0.0
C1920 C 0.52298 0.23311 0.56646 0.0
C1921 C 0.5377 0.24678 0.57808 0.0
C1922 C 0.52425 0.21489 0.55978 0.0
C1923 C 0.54022 0.20988 0.56455 0.0
C1924 C 0.55526 0.22377 0.57537 0.0
H1925 H 0.56336 0.09955 0.5408 0.0
H1926 H 0.56699 0.13387 0.5479 0.0
C1927 C 0.55399 0.24197 0.58214 0.0
C1928 C 0.54085 0.18998 0.5587 0.0
H1929 H 0.54613 0.15091 0.57567 0.0
C1930 C 0.53737 0.18199 0.53966 0.0
C1931 C 0.54406 0.17859 0.57185 0.0
C1932 C 0.54685 0.18587 0.59255 0.0
C1933 C 0.537 0.163 0.53347 0.0
C1934 C 0.54011 0.15167 0.54663 0.0
C1935 C 0.5439 0.1597 0.5656 0.0
C1936 C 0.53824 0.13107 0.54114 0.0
C1937 C 0.53326 0.15512 0.51289 0.0
C1938 C 0.52089 0.11814 0.53504 0.0
C1939 C 0.51873 0.09858 0.5312 0.0
C1940 C 0.53392 0.09147 0.53326 0.0
C1941 C 0.55139 0.10451 0.53899 0.0
C1942 C 0.55349 0.12412 0.54308 0.0
H1943 H 0.53471 0.16655 0.50439 0.0
H1944 H 0.54271 0.14665 0.50896 0.0
H1945 H 0.51908 0.1455 0.50947 0.0
H1946 H 0.50891 0.12317 0.53363 0.0
H1947 H 0.50509 0.08902 0.52669 0.0
H1948 H 0.54247 0.73732 0.37823 0.0
H1949 H 0.5707 0.74693 0.36459 0.0
H1950 H 0.58363 0.80311 0.39747 0.0
H1951 H 0.55523 0.79352 0.41141 0.0
H1952 H 0.57908 0.7768 0.34388 0.0
H1953 H 0.63201 0.78847 0.40492 0.0
H1954 H 0.6085 0.77486 0.40466 0.0
H1955 H 0.61457 0.80032 0.40766 0.0
C1956 C 0.55136 0.75168 0.38278 0.0
C1957 C 0.54651 0.76465 0.39591 0.0
C1958 C 0.56752 0.75716 0.37492 0.0
C1959 C 0.57935 0.7757 0.38004 0.0
C1960 C 0.57484 0.78864 0.39348 0.0
H1961 H 0.67919 0.82249 0.33017 0.0
H1962 H 0.65416 0.81982 0.34934 0.0
C1963 C 0.55857 0.78316 0.40139 0.0
C1964 C 0.59571 0.78147 0.37033 0.0
H1965 H 0.64246 0.79334 0.37614 0.0
C1966 C 0.59293 0.78054 0.35097 0.0
C1967 C 0.6138 0.78653 0.37961 0.0
C1968 C 0.61753 0.78753 0.40034 0.0
C1969 C 0.60767 0.78403 0.34059 0.0
C1970 C 0.62571 0.78825 0.34972 0.0
C1971 C 0.6286 0.78996 0.36917 0.0
C1972 C 0.64149 0.78983 0.339 0.0
C1973 C 0.60384 0.78302 0.31985 0.0
C1974 C 0.64283 0.7738 0.32708 0.0
C1975 C 0.65706 0.77525 0.31615 0.0
C1976 C 0.67028 0.79281 0.31686 0.0
C1977 C 0.66911 0.80881 0.32911 0.0
C1978 C 0.6549 0.80729 0.34017 0.0
H1979 H 0.59001 0.78435 0.31571 0.0
H1980 H 0.61418 0.79441 0.31508 0.0
H1981 H 0.60454 0.7691 0.31256 0.0
H1982 H 0.6327 0.76015 0.32607 0.0
H1983 H 0.65743 0.76269 0.30678 0.0
H1984 H 0.00562 0.26245 0.40684 0.0
H1985 H 0.00803 0.23781 0.42476 0.0
H1986 H 0.04898 0.22514 0.39258 0.0
H1987 H 0.04669 0.25004 0.37434 0.0
H1988 H 0.00801 0.1938 0.39856 0.0
H1989 H 0.05965 0.23437 0.45923 0.0
H1990 H 0.04392 0.24557 0.44917 0.0
H1991 H 0.0612 0.24025 0.4362 0.0
C1992 C 0.01539 0.25468 0.4037 0.0
C1993 C 0.02593 0.25818 0.38908 0.0
C1994 C 0.01672 0.24059 0.41398 0.0
C1995 C 0.0286 0.22966 0.40993 0.0
C1996 C 0.03974 0.23351 0.39589 0.0
H1997 H 0.04339 0.14202 0.47286 0.0
H1998 H 0.04801 0.16641 0.45312 0.0
C1999 C 0.03851 0.2478 0.38559 0.0
C2000 C 0.02821 0.21347 0.41973 0.0
H2001 H 0.04338 0.20279 0.46087 0.0
C2002 C 0.01592 0.19564 0.41206 0.0
C2003 C 0.03842 0.21603 0.43737 0.0
C2004 C 0.05162 0.23504 0.4461 0.0
C2005 C 0.01332 0.18031 0.42179 0.0
C2006 C 0.02313 0.18301 0.43975 0.0
C2007 C 0.03583 0.20074 0.44715 0.0
C2008 C 0.0201 0.16778 0.45127 0.0
C2009 C 1.00003 0.16141 0.41278 0.0
C2010 C 0.00291 0.16054 0.45695 0.0
C2011 C 1.00021 0.14654 0.46819 0.0
C2012 C 0.01467 0.13953 0.47407 0.0
C2013 C 0.03189 0.14688 0.46838 0.0
C2014 C 0.03459 0.16091 0.45719 0.0
H2015 H 0.99755 0.16019 0.39742 0.0
H2016 H 0.0051 0.14942 0.41603 0.0
H2017 H 0.98674 0.16004 0.41819 0.0
H2018 H 0.99161 0.16586 0.45284 0.0
H2019 H 0.98674 0.14113 0.47219 0.0
H2020 H 0.5634 0.26081 0.25082 0.0
H2021 H 0.59538 0.26193 0.25885 0.0
H2022 H 0.60494 0.26635 0.20236 0.0
H2023 H 0.57295 0.26534 0.19419 0.0
H2024 H 0.61533 0.23735 0.2433 0.0
H2025 H 0.6453 0.31187 0.2337 0.0
H2026 H 0.6214 0.30231 0.23586 0.0
H2027 H 0.62977 0.29663 0.21425 0.0
C2028 C 0.57226 0.26204 0.24006 0.0
C2029 C 0.56552 0.26307 0.22184 0.0
C2030 C 0.59058 0.26264 0.2447 0.0
C2031 C 0.60268 0.26446 0.2313 0.0
C2032 C 0.59598 0.26527 0.21304 0.0
H2033 H 0.71891 0.27883 0.23219 0.0
H2034 H 0.68639 0.27526 0.22467 0.0
C2035 C 0.57763 0.2646 0.20836 0.0
C2036 C 0.62225 0.26544 0.23644 0.0
H2037 H 0.66597 0.2943 0.23957 0.0
C2038 C 0.62642 0.24981 0.24254 0.0
C2039 C 0.63674 0.28168 0.23546 0.0
C2040 C 0.63316 0.29917 0.22962 0.0
C2041 C 0.64466 0.24978 0.24717 0.0
C2042 C 0.65921 0.26607 0.24622 0.0
C2043 C 0.65494 0.28176 0.2403 0.0
C2044 C 0.67895 0.26713 0.25078 0.0
C2045 C 0.64809 0.23199 0.25241 0.0
C2046 C 0.68585 0.26371 0.268 0.0
C2047 C 0.70454 0.26541 0.27222 0.0
C2048 C 0.71681 0.27106 0.25951 0.0
C2049 C 0.70988 0.27453 0.24236 0.0
C2050 C 0.69123 0.27251 0.23803 0.0
H2051 H 0.63625 0.21925 0.24702 0.0
H2052 H 0.66045 0.22947 0.24697 0.0
H2053 H 0.65018 0.23356 0.26779 0.0
H2054 H 0.67688 0.2601 0.27837 0.0
H2055 H 0.70945 0.26286 0.28564 0.0
H2056 H 0.54462 0.862 0.87071 0.0
H2057 H 0.55002 0.89347 0.89018 0.0
H2058 H 0.51727 0.86745 0.92951 0.0
H2059 H 0.51156 0.83617 0.9101 0.0
H2060 H 0.51739 0.9079 0.90193 0.0
H2061 H 0.56759 0.90517 0.96024 0.0
H2062 H 0.5654 0.89154 0.93717 0.0
H2063 H 0.54863 0.88412 0.95228 0.0
C2064 C 0.53888 0.86297 0.88369 0.0
C2065 C 0.52767 0.84659 0.88886 0.0
C2066 C 0.54189 0.88094 0.89474 0.0
C2067 C 0.5341 0.88275 0.91132 0.0
C2068 C 0.52351 0.86635 0.91684 0.0
H2069 H 0.5214 0.96617 0.99889 0.0
H2070 H 0.52348 0.93823 0.97813 0.0
C2071 C 0.52025 0.84849 0.9057 0.0
C2072 C 0.53582 0.90176 0.92235 0.0
H2073 H 0.55364 0.93004 0.9646 0.0
C2074 C 0.52554 0.91294 0.91551 0.0
C2075 C 0.54626 0.90812 0.94014 0.0
C2076 C 0.55773 0.89673 0.94795 0.0
C2077 C 0.5249 0.93001 0.92629 0.0
C2078 C 0.5352 0.93631 0.94422 0.0
C2079 C 0.54581 0.92529 0.95085 0.0
C2080 C 0.53431 0.95365 0.95677 0.0
C2081 C 0.51252 0.94067 0.91876 0.0
C2082 C 0.53991 0.97177 0.95182 0.0
C2083 C 0.53874 0.9879 0.96372 0.0
C2084 C 0.53197 0.98622 0.98085 0.0
C2085 C 0.52661 0.96807 0.98582 0.0
C2086 C 0.52783 0.95202 0.97396 0.0
H2087 H 0.50254 0.93182 0.90672 0.0
H2088 H 0.50485 0.94552 0.92972 0.0
H2089 H 0.52092 0.95343 0.91405 0.0
H2090 H 0.54527 0.97345 0.93877 0.0
H2091 H 0.54305 0.00164 0.95947 0.0
H2092 H 0.94555 0.75544 0.68454 0.0
H2093 H 0.91767 0.75779 0.69719 0.0
H2094 H 0.94104 0.75302 0.75127 0.0
H2095 H 0.96912 0.75043 0.7386 0.0
H2096 H 0.89366 0.73118 0.71897 0.0
H2097 H 0.92613 0.80493 0.75759 0.0
H2098 H 0.93556 0.79488 0.73818 0.0
H2099 H 0.93771 0.78714 0.76012 0.0
C2100 C 0.94474 0.75454 0.69905 0.0
C2101 C 0.95967 0.75265 0.71049 0.0
C2102 C 0.92874 0.75597 0.70629 0.0
C2103 C 0.92728 0.75582 0.72523 0.0
C2104 C 0.94189 0.75335 0.73664 0.0
H2105 H 0.84203 0.78505 0.78731 0.0
H2106 H 0.87038 0.77855 0.77899 0.0
C2107 C 0.95789 0.75169 0.72933 0.0
C2108 C 0.91059 0.7587 0.7329 0.0
H2109 H 0.89471 0.79182 0.75844 0.0
C2110 C 0.89389 0.74438 0.7277 0.0
C2111 C 0.9109 0.77584 0.74446 0.0
C2112 C 0.92847 0.7917 0.75043 0.0
C2113 C 0.87752 0.74674 0.73363 0.0
C2114 C 0.87758 0.76427 0.74448 0.0
C2115 C 0.89445 0.77842 0.75005 0.0
C2116 C 0.86031 0.76838 0.7497 0.0
C2117 C 0.86042 0.73012 0.72846 0.0
C2118 C 0.84519 0.76531 0.73609 0.0
C2119 C 0.82888 0.76858 0.74091 0.0
C2120 C 0.82736 0.77567 0.7594 0.0
C2121 C 0.8427 0.77953 0.77295 0.0
C2122 C 0.85894 0.77582 0.76818 0.0
H2123 H 0.86378 0.71638 0.7265 0.0
H2124 H 0.85108 0.72992 0.73924 0.0
H2125 H 0.85311 0.73111 0.71505 0.0
H2126 H 0.84596 0.76042 0.72161 0.0
H2127 H 0.81748 0.76579 0.73003 0.0
H2128 H 0.07234 0.04479 0.81647 0.0
H2129 H 0.06056 0.04799 0.84654 0.0
H2130 H 0.10063 0.0238 0.86999 0.0
H2131 H 0.11238 0.02056 0.84035 0.0
H2132 H 0.04646 0.01699 0.86524 0.0
H2133 H 0.10547 0.07132 0.90877 0.0
H2134 H 0.10252 0.06777 0.88364 0.0
H2135 H 0.11167 0.05217 0.89564 0.0
C2136 C 0.07882 0.04048 0.82815 0.0
C2137 C 0.09343 0.03262 0.82608 0.0
C2138 C 0.07207 0.04228 0.84526 0.0
C2139 C 0.07996 0.03643 0.86052 0.0
C2140 C 0.09467 0.02885 0.85851 0.0
H2141 H 0.06338 0.01918 0.97203 0.0
H2142 H 0.07393 0.02154 0.94157 0.0
C2143 C 0.10136 0.027 0.8415 0.0
C2144 C 0.07215 0.03676 0.87824 0.0
H2145 H 0.08361 0.05255 0.925 0.0
C2146 C 0.05443 0.02497 0.87831 0.0
C2147 C 0.0827 0.04706 0.89521 0.0
C2148 C 0.10159 0.06044 0.89585 0.0
C2149 C 0.04723 0.02255 0.89504 0.0
C2150 C 0.05795 0.03255 0.91209 0.0
C2151 C 0.07548 0.04476 0.91194 0.0
C2152 C 0.05129 0.0306 0.93029 0.0
C2153 C 0.02853 0.00872 0.8943 0.0
C2154 C 0.03521 0.03506 0.93406 0.0
C2155 C 0.02905 0.03345 0.95127 0.0
C2156 C 0.03907 0.02773 0.9652 0.0
C2157 C 0.05536 0.02356 0.96154 0.0
C2158 C 0.06139 0.02493 0.94418 0.0
H2159 H 0.02455 0.99834 0.88103 0.0
H2160 H 0.028 0.00073 0.90603 0.0
H2161 H 0.01824 0.0167 0.89527 0.0
H2162 H 0.02751 0.04002 0.92378 0.0
H2163 H 0.01659 0.03707 0.95375 0.0
H2164 H 0.74736 0.37036 0.5418 0.0
H2165 H 0.73782 0.34269 0.55739 0.0
H2166 H 0.79175 0.35819 0.58844 0.0
H2167 H 0.80143 0.38547 0.57281 0.0
H2168 H 0.77066 0.31604 0.56086 0.0
H2169 H 0.73922 0.3439 0.62022 0.0
H2170 H 0.73688 0.35062 0.59755 0.0
H2171 H 0.75802 0.36055 0.61288 0.0
C2172 C 0.757 0.36801 0.55224 0.0
C2173 C 0.77513 0.37989 0.55614 0.0
C2174 C 0.75157 0.35223 0.56099 0.0
C2175 C 0.76417 0.34854 0.57387 0.0
C2176 C 0.78194 0.36092 0.57842 0.0
H2177 H 0.8161 0.30322 0.64041 0.0
H2178 H 0.80107 0.3097 0.61239 0.0
C2179 C 0.78743 0.37644 0.56954 0.0
C2180 C 0.75971 0.33128 0.58211 0.0
H2181 H 0.75322 0.31948 0.62457 0.0
C2182 C 0.76613 0.31624 0.57449 0.0
C2183 C 0.75362 0.33163 0.59969 0.0
C2184 C 0.74641 0.34747 0.60811 0.0
C2185 C 0.76875 0.30275 0.58512 0.0
C2186 C 0.76495 0.30461 0.60369 0.0
C2187 C 0.75624 0.31815 0.61033 0.0
C2188 C 0.77357 0.29613 0.6176 0.0
C2189 C 0.77699 0.28766 0.57694 0.0
C2190 C 0.76309 0.28614 0.62964 0.0
C2191 C 0.77168 0.28263 0.64576 0.0
C2192 C 0.79084 0.28924 0.65011 0.0
C2193 C 0.80133 0.29808 0.63739 0.0
C2194 C 0.79274 0.30152 0.62126 0.0
H2195 H 0.77258 0.28341 0.5617 0.0
H2196 H 0.79212 0.29347 0.57912 0.0
H2197 H 0.77313 0.27487 0.5836 0.0
H2198 H 0.74829 0.28217 0.62717 0.0
H2199 H 0.76324 0.276 0.65545 0.0
H2200 H 0.40791 0.03997 0.36246 0.0
H2201 H 0.41601 0.02802 0.39034 0.0
H2202 H 0.45984 0.01227 0.36536 0.0
H2203 H 0.4514 0.02343 0.33718 0.0
H2204 H 0.44277 0.98681 0.38832 0.0
H2205 H 0.46236 0.06311 0.42248 0.0
H2206 H 0.43885 0.05235 0.41272 0.0
H2207 H 0.45631 0.05592 0.39766 0.0
C2208 C 0.4191 0.03377 0.36275 0.0
C2209 C 0.42926 0.03306 0.34774 0.0
C2210 C 0.42364 0.02683 0.37868 0.0
C2211 C 0.43867 0.01955 0.37996 0.0
C2212 C 0.44815 0.01781 0.3646 0.0
H2213 H 0.52898 0.03337 0.45504 0.0
H2214 H 0.505 0.0265 0.42848 0.0
C2215 C 0.44344 0.02443 0.3486 0.0
C2216 C 0.44658 0.01666 0.39797 0.0
H2217 H 0.47228 0.04214 0.43853 0.0
C2218 C 0.44889 0.99877 0.39953 0.0
C2219 C 0.4546 0.03237 0.41246 0.0
C2220 C 0.45306 0.05207 0.41132 0.0
C2221 C 0.45996 0.9965 0.41482 0.0
C2222 C 0.4688 0.01251 0.42862 0.0
C2223 C 0.46546 0.02999 0.42771 0.0
C2224 C 0.4833 0.01237 0.44302 0.0
C2225 C 0.46308 0.97745 0.41571 0.0
C2226 C 0.47897 0.00607 0.45961 0.0
C2227 C 0.49264 0.00994 0.47472 0.0
C2228 C 0.5106 0.02046 0.47343 0.0
C2229 C 0.51514 0.02545 0.45637 0.0
C2230 C 0.50152 0.0215 0.44125 0.0
H2231 H 0.45491 0.96627 0.40399 0.0
H2232 H 0.47781 0.97865 0.41541 0.0
H2233 H 0.45941 0.97299 0.42904 0.0
H2234 H 0.46494 0.99902 0.46115 0.0
H2235 H 0.48908 0.00523 0.48755 0.0
H2236 H 0.81195 0.74253 0.06529 0.0
H2237 H 0.80535 0.75424 0.09611 0.0
H2238 H 0.7526 0.7122 0.08588 0.0
H2239 H 0.759 0.70028 0.05497 0.0
H2240 H 0.757 0.75529 0.1047 0.0
H2241 H 0.80091 0.71674 0.13721 0.0
H2242 H 0.80943 0.72963 0.11927 0.0
H2243 H 0.78981 0.70911 0.11346 0.0
C2244 C 0.79885 0.73586 0.06945 0.0
C2245 C 0.78608 0.72033 0.05765 0.0
C2246 C 0.7951 0.74261 0.08707 0.0
C2247 C 0.77854 0.73401 0.09324 0.0
C2248 C 0.76545 0.71903 0.0813 0.0
H2249 H 0.74144 0.75562 0.20249 0.0
H2250 H 0.74144 0.74605 0.16894 0.0
C2251 C 0.76917 0.71223 0.06366 0.0
C2252 C 0.77556 0.73981 0.11265 0.0
H2253 H 0.78947 0.73705 0.1574 0.0
C2254 C 0.76395 0.75123 0.11626 0.0
C2255 C 0.78464 0.7344 0.12761 0.0
C2256 C 0.79685 0.7217 0.12434 0.0
C2257 C 0.76166 0.75792 0.13464 0.0
C2258 C 0.77105 0.75279 0.14963 0.0
C2259 C 0.78233 0.74102 0.14589 0.0
C2260 C 0.77023 0.76013 0.1694 0.0
C2261 C 0.7498 0.77096 0.13794 0.0
C2262 C 0.78637 0.77121 0.18075 0.0
C2263 C 0.78645 0.7765 0.19982 0.0
C2264 C 0.77036 0.77083 0.20803 0.0
C2265 C 0.75401 0.76031 0.19656 0.0
C2266 C 0.75398 0.75489 0.17739 0.0
H2267 H 0.74591 0.77603 0.12507 0.0
H2268 H 0.7371 0.76325 0.14296 0.0
H2269 H 0.757 0.78349 0.14883 0.0
H2270 H 0.79905 0.77542 0.17488 0.0
H2271 H 0.79925 0.78475 0.2082 0.0
H2272 H 0.10938 0.03436 0.71632 0.0
H2273 H 0.09917 0.04068 0.68592 0.0
H2274 H 0.04302 0.01593 0.69338 0.0
H2275 H 0.05303 0.00973 0.72381 0.0
H2276 H 0.07822 0.01455 0.65503 0.0
H2277 H 0.04319 0.06791 0.67996 0.0
H2278 H 0.05916 0.06102 0.69513 0.0
H2279 H 0.036 0.04609 0.6888 0.0
C2280 C 0.09486 0.03027 0.7115 0.0
C2281 C 0.082 0.02163 0.72253 0.0
C2282 C 0.08906 0.03393 0.69416 0.0
C2283 C 0.07034 0.02911 0.6876 0.0
C2284 C 0.05751 0.02017 0.6984 0.0
H2285 H 0.01398 0.00793 0.57789 0.0
H2286 H 0.02533 0.00841 0.61016 0.0
C2287 C 0.06327 0.01651 0.71573 0.0
C2288 C 0.06419 0.03277 0.66916 0.0
H2289 H 0.03721 0.05519 0.64734 0.0
C2290 C 0.06941 0.02359 0.65335 0.0
C2291 C 0.05287 0.04474 0.66706 0.0
C2292 C 0.0476 0.05567 0.68364 0.0
C2293 C 0.06301 0.02546 0.63542 0.0
C2294 C 0.05098 0.03668 0.63331 0.0
C2295 C 0.04632 0.04648 0.64909 0.0
C2296 C 0.04252 0.0375 0.61469 0.0
C2297 C 0.06893 0.01524 0.61882 0.0
C2298 C 0.04788 0.05402 0.60689 0.0
C2299 C 0.04135 0.05385 0.58839 0.0
C2300 C 0.02943 0.03711 0.57753 0.0
C2301 C 0.02333 0.02097 0.58581 0.0
C2302 C 0.02979 0.02119 0.60423 0.0
H2303 H 0.08108 0.01054 0.6228 0.0
H2304 H 0.05758 0.00246 0.61226 0.0
H2305 H 0.07219 0.02455 0.60825 0.0
H2306 H 0.05767 0.06676 0.61485 0.0
H2307 H 0.04629 0.06649 0.58236 0.0
H2308 H 0.75559 0.39348 0.46299 0.0
H2309 H 0.74758 0.37486 0.43144 0.0
H2310 H 0.78696 0.34496 0.44348 0.0
H2311 H 0.79521 0.36353 0.47502 0.0
H2312 H 0.78847 0.37119 0.41116 0.0
H2313 H 0.7256 0.31155 0.41063 0.0
H2314 H 0.72891 0.33466 0.42465 0.0
H2315 H 0.74266 0.31995 0.43097 0.0
C2316 C 0.76227 0.38265 0.45908 0.0
C2317 C 0.77622 0.38012 0.47138 0.0
C2318 C 0.75762 0.37202 0.4411 0.0
C2319 C 0.76667 0.3586 0.43533 0.0
C2320 C 0.77982 0.35526 0.44786 0.0
H2321 H 0.77324 0.28482 0.3381 0.0
H2322 H 0.77032 0.30012 0.36903 0.0
C2323 C 0.78457 0.36594 0.46578 0.0
C2324 C 0.76446 0.35008 0.4156 0.0
H2325 H 0.73915 0.31243 0.38287 0.0
C2326 C 0.7776 0.35846 0.40485 0.0
C2327 C 0.75025 0.33353 0.40767 0.0
C2328 C 0.73596 0.32427 0.41897 0.0
C2329 C 0.77719 0.35037 0.3863 0.0
C2330 C 0.76315 0.3336 0.37838 0.0
C2331 C 0.74979 0.32538 0.38905 0.0
C2332 C 0.7631 0.32369 0.35946 0.0
C2333 C 0.79216 0.35935 0.37551 0.0
C2334 C 0.75974 0.33186 0.34393 0.0
C2335 C 0.76145 0.32321 0.32622 0.0
C2336 C 0.76656 0.30629 0.32385 0.0
C2337 C 0.7694 0.29791 0.33945 0.0
C2338 C 0.76763 0.30654 0.35712 0.0
H2339 H 0.80345 0.37064 0.38456 0.0
H2340 H 0.79791 0.34841 0.36846 0.0
H2341 H 0.78637 0.36583 0.36461 0.0
H2342 H 0.75613 0.34509 0.34557 0.0
H2343 H 0.75908 0.32996 0.31446 0.0
H2344 H 0.42565 0.98886 0.25668 0.0
H2345 H 0.43199 0.97681 0.22591 0.0
H2346 H 0.41957 0.02381 0.20478 0.0
H2347 H 0.41313 0.03604 0.23558 0.0
H2348 H 0.40504 0.98576 0.18049 0.0
H2349 H 0.47948 0.00673 0.20663 0.0
H2350 H 0.46449 0.99204 0.21968 0.0
H2351 H 0.46345 0.01581 0.219 0.0
C2352 C 0.42409 0.99656 0.24546 0.0
C2353 C 0.41911 0.01353 0.24858 0.0
C2354 C 0.4277 0.98963 0.22791 0.0
C2355 C 0.42635 0.99953 0.21322 0.0
C2356 C 0.42065 0.01602 0.21603 0.0
H2357 H 0.46425 0.01195 0.11119 0.0
H2358 H 0.44644 0.00994 0.13715 0.0
C2359 C 0.41709 0.02303 0.23362 0.0
C2360 C 0.43228 0.99355 0.19531 0.0
H2361 H 0.47051 0.9924 0.17522 0.0
C2362 C 0.41931 0.98702 0.1793 0.0
C2363 C 0.45093 0.99528 0.19394 0.0
C2364 C 0.46547 0.00297 0.21066 0.0
C2365 C 0.42464 0.98249 0.16177 0.0
C2366 C 0.44331 0.98467 0.16041 0.0
C2367 C 0.45616 0.99059 0.17648 0.0
C2368 C 0.45032 0.98327 0.14236 0.0
C2369 C 0.41046 0.97572 0.14477 0.0
C2370 C 0.45803 0.96868 0.13654 0.0
C2371 C 0.46807 0.96964 0.12151 0.0
C2372 C 0.4708 0.98539 0.11234 0.0
C2373 C 0.46223 0.99948 0.11771 0.0
C2374 C 0.45204 0.99838 0.13257 0.0
H2375 H 0.39632 0.97175 0.14847 0.0
H2376 H 0.41182 0.98723 0.13638 0.0
H2377 H 0.41267 0.96327 0.13592 0.0
H2378 H 0.4569 0.95699 0.1441 0.0
H2379 H 0.47421 0.95839 0.1175 0.0
H2380 H 0.81199 0.74625 0.97226 0.0
H2381 H 0.80941 0.75825 0.94317 0.0
H2382 H 0.75588 0.71821 0.92663 0.0
H2383 H 0.75826 0.70606 0.95577 0.0
H2384 H 0.80525 0.73322 0.90868 0.0
H2385 H 0.75002 0.76854 0.91193 0.0
H2386 H 0.76227 0.7646 0.93249 0.0
H2387 H 0.74474 0.74529 0.91823 0.0
C2388 C 0.79946 0.74025 0.96267 0.0
C2389 C 0.78542 0.725 0.9663 0.0
C2390 C 0.79803 0.74714 0.94602 0.0
C2391 C 0.7825 0.73908 0.93272 0.0
C2392 C 0.76792 0.72476 0.93679 0.0
H2393 H 0.77473 0.73761 0.81285 0.0
H2394 H 0.77479 0.72876 0.84386 0.0
C2395 C 0.76933 0.71781 0.95347 0.0
C2396 C 0.78251 0.74415 0.91388 0.0
H2397 H 0.76094 0.76377 0.88279 0.0
C2398 C 0.79557 0.73992 0.90301 0.0
C2399 C 0.76992 0.75293 0.90659 0.0
C2400 C 0.75601 0.75828 0.91791 0.0
C2401 C 0.7963 0.74412 0.88497 0.0
C2402 C 0.78355 0.75264 0.87757 0.0
C2403 C 0.77058 0.75705 0.88847 0.0
C2404 C 0.78396 0.75777 0.85878 0.0
C2405 C 0.8109 0.73978 0.87405 0.0
C2406 C 0.78916 0.77697 0.85695 0.0
C2407 C 0.78918 0.78205 0.83933 0.0
C2408 C 0.78391 0.76802 0.82314 0.0
C2409 C 0.77899 0.74875 0.82501 0.0
C2410 C 0.77897 0.74368 0.84271 0.0
H2411 H 0.82128 0.73564 0.88273 0.0
H2412 H 0.80448 0.7279 0.86229 0.0
H2413 H 0.81791 0.75236 0.86812 0.0
H2414 H 0.79314 0.78804 0.86919 0.0
H2415 H 0.79313 0.79704 0.83845 0.0
H2416 H 0.85276 0.1532 0.02817 0.0
H2417 H 0.87359 0.13447 0.02121 0.0
H2418 H 0.84682 0.09403 0.05404 0.0
H2419 H 0.82518 0.11223 0.06032 0.0
H2420 H 0.89604 0.11497 0.03386 0.0
H2421 H 0.82845 0.06629 0.00062 0.0
H2422 H 0.8313 0.09028 0.01205 0.0
H2423 H 0.8304 0.07167 0.02551 0.0
C2424 C 0.85172 0.14075 0.03457 0.0
C2425 C 0.83676 0.13352 0.04389 0.0
C2426 C 0.8637 0.13006 0.03059 0.0
C2427 C 0.86098 0.11241 0.0363 0.0
C2428 C 0.84854 0.1073 0.04892 0.0
H2429 H 0.89486 0.0148 0.00216 0.0
H2430 H 0.87771 0.03682 0.01268 0.0
C2431 C 0.83627 0.11777 0.05259 0.0
C2432 C 0.86804 0.09801 0.02597 0.0
H2433 H 0.85409 0.05519 0.99653 0.0
C2434 C 0.88694 0.10187 0.02574 0.0
C2435 C 0.85595 0.08128 0.01484 0.0
C2436 C 0.8354 0.07718 0.01306 0.0
C2437 C 0.89417 0.089 0.01524 0.0
C2438 C 0.88208 0.07196 0.00474 0.0
C2439 C 0.8632 0.06829 0.00468 0.0
C2440 C 0.88888 0.057 0.99509 0.0
C2441 C 0.91467 0.09356 0.01582 0.0
C2442 C 0.89965 0.06052 0.98078 0.0
C2443 C 0.90942 0.04796 0.97479 0.0
C2444 C 0.90814 0.0317 0.98285 0.0
C2445 C 0.8957 0.0271 0.99555 0.0
C2446 C 0.88611 0.03976 0.00169 0.0
H2447 H 0.92206 0.1056 0.02714 0.0
H2448 H 0.9193 0.08096 0.01778 0.0
H2449 H 0.91856 0.0976 0.00241 0.0
H2450 H 0.90156 0.0736 0.97527 0.0
H2451 H 0.91919 0.05178 0.96515 0.0
H2452 H 0.31365 0.42573 0.00903 0.0
H2453 H 0.34484 0.44441 0.00696 0.0
H2454 H 0.36632 0.40911 0.03909 0.0
H2455 H 0.33519 0.39038 0.0414 0.0
H2456 H 0.37185 0.46332 0.04131 0.0
H2457 H 0.39421 0.41273 0.99147 0.0
H2458 H 0.37037 0.41119 0.99243 0.0
H2459 H 0.3829 0.40359 0.01015 0.0
C2460 C 0.325 0.42176 0.01546 0.0
C2461 C 0.32196 0.40656 0.02537 0.0
C2462 C 0.34277 0.43247 0.01428 0.0
C2463 C 0.35776 0.42802 0.0228 0.0
C2464 C 0.35485 0.41257 0.03227 0.0
H2465 H 0.47499 0.4752 0.03053 0.0
H2466 H 0.44382 0.45576 0.03164 0.0
C2467 C 0.33706 0.40191 0.03356 0.0
C2468 C 0.37644 0.44029 0.02278 0.0
H2469 H 0.41643 0.4414 0.00541 0.0
C2470 C 0.38165 0.45863 0.03345 0.0
C2471 C 0.38908 0.43392 0.01264 0.0
C2472 C 0.38393 0.41432 0.0009 0.0
C2473 C 0.39942 0.47077 0.03453 0.0
C2474 C 0.41207 0.46456 0.02412 0.0
C2475 C 0.40675 0.44617 0.01338 0.0
C2476 C 0.43095 0.47678 0.0242 0.0
C2477 C 0.40451 0.48985 0.04727 0.0
C2478 C 0.43409 0.49504 0.01964 0.0
C2479 C 0.45191 0.50634 0.01951 0.0
C2480 C 0.46681 0.49928 0.02329 0.0
C2481 C 0.46368 0.48092 0.02753 0.0
C2482 C 0.4459 0.46982 0.02814 0.0
H2483 H 0.39562 0.48976 0.05847 0.0
H2484 H 0.41897 0.49404 0.05383 0.0
H2485 H 0.40265 0.50082 0.0391 0.0
H2486 H 0.42277 0.50048 0.01591 0.0
H2487 H 0.45401 0.52036 0.0159 0.0
H2488 H 0.39287 0.56325 0.74848 0.0
H2489 H 0.37322 0.58399 0.74397 0.0
H2490 H 0.38849 0.61106 0.8015 0.0
H2491 H 0.40777 0.59037 0.80622 0.0
H2492 H 0.34408 0.58937 0.77567 0.0
H2493 H 0.39598 0.65204 0.75996 0.0
H2494 H 0.39716 0.628 0.75332 0.0
H2495 H 0.40263 0.63931 0.77726 0.0
C2496 C 0.39209 0.57371 0.7601 0.0
C2497 C 0.40171 0.57512 0.77773 0.0
C2498 C 0.38089 0.58548 0.75751 0.0
C2499 C 0.37953 0.59898 0.77242 0.0
C2500 C 0.38942 0.60068 0.78987 0.0
H2501 H 0.32784 0.68592 0.80015 0.0
H2502 H 0.34727 0.6646 0.79775 0.0
C2503 C 0.40034 0.5888 0.79253 0.0
C2504 C 0.36723 0.61093 0.77027 0.0
H2505 H 0.36717 0.65596 0.76552 0.0
C2506 C 0.34897 0.60382 0.77313 0.0
C2507 C 0.37388 0.6298 0.76727 0.0
C2508 C 0.39348 0.63786 0.76419 0.0
C2509 C 0.3372 0.61537 0.7735 0.0
C2510 C 0.3439 0.63435 0.77071 0.0
C2511 C 0.36211 0.64135 0.76756 0.0
C2512 C 0.33234 0.64737 0.7718 0.0
C2513 C 0.31792 0.60749 0.77761 0.0
C2514 C 0.31766 0.64475 0.7579 0.0
C2515 C 0.30657 0.65691 0.75921 0.0
C2516 C 0.30995 0.67179 0.77451 0.0
C2517 C 0.32478 0.67443 0.78833 0.0
C2518 C 0.33594 0.66236 0.78693 0.0
H2519 H 0.31571 0.59348 0.78215 0.0
H2520 H 0.31469 0.61756 0.78865 0.0
H2521 H 0.30818 0.6057 0.7649 0.0
H2522 H 0.31478 0.63329 0.74607 0.0
H2523 H 0.29518 0.65448 0.74842 0.0
H2524 H 0.22842 0.62472 0.50778 0.0
H2525 H 0.19545 0.60979 0.50464 0.0
H2526 H 0.19932 0.60824 0.56341 0.0
H2527 H 0.23242 0.62308 0.56678 0.0
H2528 H 0.18139 0.57129 0.51986 0.0
H2529 H 0.15493 0.63186 0.54583 0.0
H2530 H 0.17555 0.63518 0.53489 0.0
H2531 H 0.17569 0.63008 0.55806 0.0
C2532 C 0.22227 0.62139 0.52009 0.0
C2533 C 0.233 0.62484 0.5375 0.0
C2534 C 0.20347 0.61291 0.51825 0.0
C2535 C 0.19519 0.608 0.53379 0.0
C2536 C 0.20566 0.61207 0.55132 0.0
H2537 H 0.08803 0.54639 0.55224 0.0
H2538 H 0.12103 0.56086 0.55417 0.0
C2539 C 0.2245 0.62045 0.55318 0.0
C2540 C 0.17582 0.59722 0.53142 0.0
H2541 H 0.13368 0.60125 0.53862 0.0
C2542 C 0.1709 0.57778 0.52389 0.0
C2543 C 0.1624 0.60594 0.53667 0.0
C2544 C 0.16725 0.62694 0.54425 0.0
C2545 C 0.15266 0.56664 0.52172 0.0
C2546 C 0.13929 0.5753 0.52724 0.0
C2547 C 0.14418 0.59478 0.53459 0.0
C2548 C 0.12001 0.56444 0.52538 0.0
C2549 C 0.1477 0.5457 0.51379 0.0
C2550 C 0.10887 0.56149 0.50843 0.0
C2551 C 0.09008 0.55334 0.50726 0.0
C2552 C 0.08226 0.54813 0.52309 0.0
C2553 C 0.09365 0.55037 0.53985 0.0
C2554 C 0.11245 0.55858 0.541 0.0
H2555 H 0.15989 0.541 0.51083 0.0
H2556 H 0.14052 0.5373 0.52371 0.0
H2557 H 0.13814 0.54256 0.50069 0.0
H2558 H 0.11464 0.56606 0.49631 0.0
H2559 H 0.08168 0.55166 0.4941 0.0
H2560 H 0.68272 0.98987 0.73661 0.0
H2561 H 0.70639 0.97365 0.73843 0.0
H2562 H 0.71502 0.98951 0.7982 0.0
H2563 H 0.69135 0.00588 0.79665 0.0
H2564 H 0.74863 0.99144 0.77683 0.0
H2565 H 0.69226 0.92326 0.76268 0.0
H2566 H 0.69181 0.94014 0.74743 0.0
H2567 H 0.68851 0.94579 0.77128 0.0
C2568 C 0.68975 0.99011 0.75016 0.0
C2569 C 0.68488 0.99882 0.76654 0.0
C2570 C 0.70332 0.98094 0.75112 0.0
C2571 C 0.71221 0.98034 0.76843 0.0
C2572 C 0.70822 0.98991 0.78473 0.0
H2573 H 0.76703 0.90556 0.80884 0.0
H2574 H 0.75054 0.92889 0.8044 0.0
C2575 C 0.69463 0.99912 0.78381 0.0
C2576 C 0.72408 0.96791 0.76968 0.0
H2577 H 0.72239 0.92121 0.76693 0.0
C2578 C 0.74299 0.97609 0.77456 0.0
C2579 C 0.71649 0.94795 0.76678 0.0
C2580 C 0.69615 0.93865 0.76185 0.0
C2581 C 0.75459 0.96462 0.77667 0.0
C2582 C 0.74694 0.9447 0.77395 0.0
C2583 C 0.72808 0.93655 0.76893 0.0
C2584 C 0.75818 0.93201 0.77706 0.0
C2585 C 0.77486 0.9737 0.78213 0.0
C2586 C 0.76787 0.92625 0.7631 0.0
C2587 C 0.77729 0.91294 0.76557 0.0
C2588 C 0.77712 0.90532 0.78206 0.0
C2589 C 0.76765 0.91146 0.79614 0.0
C2590 C 0.75817 0.92466 0.79361 0.0
H2591 H 0.77858 0.98949 0.78444 0.0
H2592 H 0.77948 0.96918 0.79506 0.0
H2593 H 0.78233 0.96878 0.77102 0.0
H2594 H 0.76782 0.93176 0.75019 0.0
H2595 H 0.78454 0.90846 0.75454 0.0
H2596 H 0.72512 0.91465 0.55485 0.0
H2597 H 0.7025 0.92985 0.54462 0.0
H2598 H 0.69339 0.89549 0.49002 0.0
H2599 H 0.71625 0.88003 0.50015 0.0
H2600 H 0.70698 0.94951 0.51101 0.0
H2601 H 0.64074 0.89337 0.50737 0.0
H2602 H 0.6608 0.89331 0.52224 0.0
H2603 H 0.65971 0.88759 0.49748 0.0
C2604 C 0.71815 0.91005 0.54073 0.0
C2605 C 0.72256 0.89618 0.52829 0.0
C2606 C 0.70524 0.91879 0.53491 0.0
C2607 C 0.69636 0.9138 0.51659 0.0
C2608 C 0.70008 0.89942 0.50426 0.0
H2609 H 0.6146 0.97299 0.48807 0.0
H2610 H 0.63377 0.95152 0.48281 0.0
C2611 C 0.7131 0.89061 0.51008 0.0
C2612 C 0.6842 0.92479 0.51048 0.0
H2613 H 0.63943 0.92445 0.50572 0.0
C2614 C 0.69219 0.94395 0.50944 0.0
C2615 C 0.66496 0.91739 0.50817 0.0
C2616 C 0.65589 0.89679 0.50886 0.0
C2617 C 0.68145 0.95624 0.50741 0.0
C2618 C 0.66228 0.94926 0.50682 0.0
C2619 C 0.65417 0.92977 0.50635 0.0
C2620 C 0.6509 0.96241 0.50934 0.0
C2621 C 0.69075 0.97679 0.50665 0.0
C2622 C 0.65415 0.97547 0.52601 0.0
C2623 C 0.64337 0.9877 0.52902 0.0
C2624 C 0.62896 0.98705 0.51548 0.0
C2625 C 0.62572 0.97396 0.4987 0.0
C2626 C 0.63656 0.96163 0.49571 0.0
H2627 H 0.70415 0.97848 0.50136 0.0
H2628 H 0.68206 0.98265 0.49763 0.0
H2629 H 0.6933 0.9853 0.52089 0.0
H2630 H 0.66498 0.97607 0.53683 0.0
H2631 H 0.64639 0.99774 0.54198 0.0
H2632 H 0.4106 0.47639 0.75233 0.0
H2633 H 0.39021 0.44367 0.74542 0.0
H2634 H 0.35921 0.45738 0.78899 0.0
H2635 H 0.37954 0.48992 0.79617 0.0
H2636 H 0.38364 0.41918 0.77612 0.0
H2637 H 0.32119 0.42941 0.73979 0.0
H2638 H 0.34382 0.44529 0.74007 0.0
H2639 H 0.33238 0.44652 0.76035 0.0
C2640 C 0.39929 0.4725 0.76027 0.0
C2641 C 0.39671 0.48573 0.77484 0.0
C2642 C 0.38771 0.45383 0.75632 0.0
C2643 C 0.37318 0.44824 0.76662 0.0
C2644 C 0.37026 0.46152 0.78079 0.0
H2645 H 0.28976 0.34839 0.77873 0.0
H2646 H 0.3091 0.38044 0.77805 0.0
C2647 C 0.38195 0.48007 0.78492 0.0
C2648 C 0.36177 0.42822 0.76362 0.0
H2649 H 0.31823 0.39958 0.74917 0.0
C2650 C 0.36939 0.41477 0.77002 0.0
C2651 C 0.3432 0.42269 0.75582 0.0
C2652 C 0.33459 0.43665 0.74847 0.0
C2653 C 0.35872 0.39598 0.76943 0.0
C2654 C 0.34004 0.39043 0.76178 0.0
C2655 C 0.33254 0.40385 0.75502 0.0
C2656 C 0.32791 0.37097 0.76133 0.0
C2657 C 0.36737 0.3825 0.77774 0.0
C2658 C 0.33184 0.35502 0.75182 0.0
C2659 C 0.32091 0.33668 0.75232 0.0
C2660 C 0.30568 0.33395 0.76213 0.0
C2661 C 0.30141 0.34998 0.77109 0.0
C2662 C 0.31243 0.36831 0.7707 0.0
H2663 H 0.38019 0.39023 0.78721 0.0
H2664 H 0.35782 0.37354 0.78564 0.0
H2665 H 0.37082 0.37299 0.7664 0.0
H2666 H 0.34345 0.35675 0.74412 0.0
H2667 H 0.32449 0.32466 0.74508 0.0
H2668 H 0.15811 0.58673 0.26633 0.0
H2669 H 0.17522 0.61688 0.25865 0.0
H2670 H 0.19375 0.58673 0.21294 0.0
H2671 H 0.17637 0.55624 0.22066 0.0
H2672 H 0.22185 0.61205 0.24033 0.0
H2673 H 0.17163 0.64791 0.21729 0.0
H2674 H 0.16597 0.63766 0.23749 0.0
H2675 H 0.16587 0.6224 0.21596 0.0
C2676 C 0.16529 0.58658 0.25422 0.0
C2677 C 0.16592 0.56935 0.24397 0.0
C2678 C 0.17499 0.60376 0.24979 0.0
C2679 C 0.18557 0.60399 0.23511 0.0
C2680 C 0.18546 0.58677 0.22418 0.0
H2681 H 0.27122 0.71147 0.23637 0.0
H2682 H 0.25407 0.6778 0.22696 0.0
C2683 C 0.17551 0.56945 0.22851 0.0
C2684 C 0.1987 0.62215 0.23347 0.0
H2685 H 0.20082 0.66857 0.23354 0.0
C2686 C 0.2174 0.62438 0.23828 0.0
C2687 C 0.19277 0.63811 0.23084 0.0
C2688 C 0.17296 0.63636 0.22493 0.0
C2689 C 0.23014 0.64251 0.24222 0.0
C2690 C 0.22391 0.65859 0.24101 0.0
C2691 C 0.20547 0.65617 0.23471 0.0
C2692 C 0.23574 0.67816 0.24777 0.0
C2693 C 0.24985 0.64447 0.24897 0.0
C2694 C 0.23118 0.68936 0.26268 0.0
C2695 C 0.2407 0.70858 0.26788 0.0
C2696 C 0.25505 0.71684 0.25833 0.0
C2697 C 0.26025 0.70539 0.24402 0.0
C2698 C 0.25052 0.68617 0.23866 0.0
H2699 H 0.25192 0.63073 0.25146 0.0
H2700 H 0.25854 0.64968 0.2384 0.0
H2701 H 0.25459 0.65503 0.26207 0.0
H2702 H 0.21985 0.68333 0.26993 0.0
H2703 H 0.23657 0.71706 0.27908 0.0
H2704 H 0.48927 0.72554 0.48718 0.0
H2705 H 0.49615 0.699 0.49985 0.0
H2706 H 0.50845 0.67723 0.44613 0.0
H2707 H 0.5031 0.7045 0.43404 0.0
H2708 H 0.48072 0.66377 0.49338 0.0
H2709 H 0.5503 0.67036 0.47517 0.0
H2710 H 0.53929 0.68864 0.47289 0.0
H2711 H 0.53469 0.66804 0.45477 0.0
C2712 C 0.49396 0.71534 0.47828 0.0
C2713 C 0.49605 0.71736 0.45974 0.0
C2714 C 0.49777 0.70005 0.48547 0.0
C2715 C 0.50327 0.68609 0.47416 0.0
C2716 C 0.50508 0.68805 0.45553 0.0
H2717 H 0.4915 0.56903 0.48726 0.0
H2718 H 0.48809 0.59895 0.47931 0.0
C2719 C 0.50189 0.70366 0.44854 0.0
C2720 C 0.50602 0.66898 0.48149 0.0
H2721 H 0.53425 0.64026 0.48256 0.0
C2722 C 0.49255 0.65883 0.49112 0.0
C2723 C 0.52154 0.66238 0.47888 0.0
C2724 C 0.53734 0.67306 0.47004 0.0
C2725 C 0.49389 0.6422 0.49759 0.0
C2726 C 0.50888 0.63517 0.4941 0.0
C2727 C 0.5226 0.64549 0.48499 0.0
C2728 C 0.51045 0.61702 0.49963 0.0
C2729 C 0.47938 0.6323 0.50835 0.0
C2730 C 0.52414 0.61715 0.51373 0.0
C2731 C 0.52606 0.60004 0.51843 0.0
C2732 C 0.51449 0.58235 0.50893 0.0
C2733 C 0.50067 0.58231 0.4949 0.0
C2734 C 0.49866 0.59944 0.49035 0.0
H2735 H 0.47022 0.64106 0.51243 0.0
H2736 H 0.47094 0.61867 0.49967 0.0
H2737 H 0.48582 0.62893 0.5211 0.0
H2738 H 0.53342 0.63053 0.52107 0.0
H2739 H 0.53689 0.60069 0.52925 0.0
H2740 H 0.6156 0.33351 0.67339 0.0
H2741 H 0.64305 0.32736 0.68724 0.0
H2742 H 0.63613 0.28033 0.64247 0.0
H2743 H 0.60871 0.28669 0.62825 0.0
H2744 H 0.64427 0.29476 0.69991 0.0
H2745 H 0.69043 0.30713 0.64568 0.0
H2746 H 0.67006 0.31489 0.64563 0.0
H2747 H 0.66833 0.29028 0.63795 0.0
C2748 C 0.62003 0.32202 0.66628 0.0
C2749 C 0.60991 0.31063 0.64965 0.0
C2750 C 0.63576 0.31849 0.67427 0.0
C2751 C 0.64184 0.30346 0.6659 0.0
C2752 C 0.63201 0.29226 0.64906 0.0
H2753 H 0.73576 0.26568 0.70669 0.0
H2754 H 0.70929 0.26913 0.68747 0.0
C2755 C 0.61627 0.29588 0.64094 0.0
C2756 C 0.65773 0.29898 0.67563 0.0
H2757 H 0.70129 0.29652 0.67212 0.0
C2758 C 0.65673 0.29515 0.69379 0.0
C2759 C 0.67391 0.29911 0.6676 0.0
C2760 C 0.6759 0.3032 0.6482 0.0
C2761 C 0.67141 0.2917 0.70421 0.0
C2762 C 0.68796 0.29271 0.69656 0.0
C2763 C 0.68876 0.29593 0.67814 0.0
C2764 C 0.70464 0.2911 0.70771 0.0
C2765 C 0.6688 0.28669 0.72324 0.0
C2766 C 0.71134 0.30268 0.72524 0.0
C2767 C 0.72616 0.30046 0.73633 0.0
C2768 C 0.7351 0.287 0.72999 0.0
C2769 C 0.72914 0.27614 0.712 0.0
C2770 C 0.71398 0.27809 0.70102 0.0
H2771 H 0.65414 0.27997 0.7242 0.0
H2772 H 0.67667 0.27683 0.72669 0.0
H2773 H 0.67348 0.29989 0.73386 0.0
H2774 H 0.70499 0.31338 0.7305 0.0
H2775 H 0.73062 0.30933 0.74995 0.0
H2776 H 0.01562 0.32071 0.94476 0.0
H2777 H 0.02234 0.35483 0.95652 0.0
H2778 H 0.97938 0.3433 0.99116 0.0
H2779 H 0.97265 0.30923 0.97965 0.0
H2780 H 0.9981 0.3763 0.95246 0.0
H2781 H 0.02134 0.38111 0.02729 0.0
H2782 H 0.0202 0.36068 0.01001 0.0
H2783 H 0.9998 0.36351 0.01892 0.0
C2784 C 0.00784 0.32536 0.95519 0.0
C2785 C 0.99359 0.31209 0.96126 0.0
C2786 C 0.01165 0.34493 0.96183 0.0
C2787 C 0.00148 0.3517 0.97486 0.0
C2788 C 0.98765 0.33848 0.98138 0.0
H2789 H 0.99212 0.46373 0.02023 0.0
H2790 H 0.98787 0.42952 0.01119 0.0
C2791 C 0.98377 0.31893 0.9747 0.0
C2792 C 0.00444 0.37257 0.98062 0.0
H2793 H 0.01471 0.40842 0.01845 0.0
C2794 C 0.00187 0.38333 0.96688 0.0
C2795 C 0.00925 0.38178 -0.00055 0.0
C2796 C 0.01298 0.37124 0.01477 0.0
C2797 C 0.00369 0.4029 0.97146 0.0
C2798 C 0.00842 0.41208 0.99028 0.0
C2799 C 0.011 0.40136 0.00404 0.0
C2800 C 0.01107 0.43287 0.99586 0.0
C2801 C 1.00014 0.41356 0.95617 0.0
C2802 C 0.02564 0.44615 0.99043 0.0
C2803 C 0.02821 0.4657 0.99568 0.0
C2804 C 0.0162 0.47249 0.00643 0.0
C2805 C 0.00161 0.4591 0.01189 0.0
C2806 C 0.99917 0.43951 0.00677 0.0
H2807 H 0.99288 0.40378 0.94314 0.0
H2808 H 0.9919 0.42323 0.96059 0.0
H2809 H 0.01338 0.42239 0.95309 0.0
H2810 H 0.03512 0.44137 0.98219 0.0
H2811 H 0.03959 0.47548 0.99115 0.0
H2812 H 0.99984 0.81242 0.13766 0.0
H2813 H 0.97268 0.80589 0.15342 0.0
H2814 H 0.98283 0.7542 0.16571 0.0
H2815 H 0.01105 0.76168 0.15121 0.0
H2816 H 0.9424 0.78096 0.14813 0.0
H2817 H 0.97604 0.77432 0.21596 0.0
H2818 H 0.98898 0.78198 0.19771 0.0
H2819 H 0.97815 0.75704 0.19718 0.0
C2820 C 0.99631 0.79968 0.14378 0.0
C2821 C 0.00765 0.78764 0.14335 0.0
C2822 C 0.98072 0.79592 0.1528 0.0
C2823 C 0.97575 0.77975 0.16127 0.0
C2824 C 0.98664 0.76718 0.16005 0.0
H2825 H 0.88035 0.73951 0.21839 0.0
H2826 H 0.90594 0.74139 0.20028 0.0
C2827 C 0.00267 0.77132 0.15155 0.0
C2828 C 0.95916 0.77633 0.17119 0.0
H2829 H 0.94385 0.76752 0.21249 0.0
C2830 C 0.94284 0.7781 0.16224 0.0
C2831 C 0.9595 0.77252 0.18965 0.0
C2832 C 0.97665 0.77154 0.20075 0.0
C2833 C 0.92711 0.77644 0.1712 0.0
C2834 C 0.92754 0.77267 0.18955 0.0
C2835 C 0.94358 0.77038 0.19838 0.0
C2836 C 0.91161 0.77151 0.20004 0.0
C2837 C 0.91013 0.77877 0.16099 0.0
C2838 C 0.90633 0.78786 0.20599 0.0
C2839 C 0.89183 0.78692 0.21658 0.0
C2840 C 0.88229 0.76958 0.22146 0.0
C2841 C 0.88754 0.75319 0.21523 0.0
C2842 C 0.9021 0.75418 0.20475 0.0
H2843 H 0.91086 0.7781 0.14584 0.0
H2844 H 0.89781 0.7676 0.163 0.0
H2845 H 0.90846 0.7928 0.16671 0.0
H2846 H 0.91366 0.80145 0.20273 0.0
H2847 H 0.8884 0.79989 0.22131 0.0
H2848 H 0.50088 0.28296 0.11724 0.0
H2849 H 0.50887 0.30948 0.10037 0.0
H2850 H 0.54333 0.34478 0.14946 0.0
H2851 H 0.53586 0.31791 0.16621 0.0
H2852 H 0.49943 0.34096 0.1094 0.0
H2853 H 0.57473 0.36083 0.11014 0.0
H2854 H 0.56195 0.33855 0.11586 0.0
H2855 H 0.56766 0.3601 0.1328 0.0
C2856 C 0.51064 0.2962 0.12426 0.0
C2857 C 0.5178 0.29835 0.14303 0.0
C2858 C 0.51513 0.31139 0.11463 0.0
C2859 C 0.52671 0.3292 0.12358 0.0
C2860 C 0.53466 0.33113 0.14208 0.0
H2861 H 0.54011 0.44062 0.09047 0.0
H2862 H 0.53869 0.41487 0.10839 0.0
C2863 C 0.53039 0.31575 0.15167 0.0
C2864 C 0.52865 0.34599 0.11409 0.0
H2865 H 0.5595 0.3823 0.09985 0.0
C2866 C 0.5126 0.34991 0.10727 0.0
C2867 C 0.54581 0.35784 0.11141 0.0
C2868 C 0.56352 0.35406 0.11778 0.0
C2869 C 0.51322 0.36515 0.09778 0.0
C2870 C 0.53031 0.37686 0.09501 0.0
C2871 C 0.54641 0.37326 0.10205 0.0
C2872 C 0.53154 0.3925 0.08423 0.0
C2873 C 0.49559 0.3687 0.0907 0.0
C2874 C 0.52792 0.38839 0.06475 0.0
C2875 C 0.52866 0.40301 0.05448 0.0
C2876 C 0.53299 0.42207 0.0635 0.0
C2877 C 0.53654 0.42611 0.08308 0.0
C2878 C 0.5359 0.41145 0.09334 0.0
H2879 H 0.48356 0.3597 0.09582 0.0
H2880 H 0.49635 0.3839 0.09507 0.0
H2881 H 0.49349 0.36558 0.07526 0.0
H2882 H 0.52445 0.37382 0.05749 0.0
H2883 H 0.52563 0.39935 0.03947 0.0
H2884 H 0.99092 0.32568 0.3075 0.0
H2885 H 0.9598 0.32741 0.29789 0.0
H2886 H 0.93688 0.27475 0.31698 0.0
H2887 H 0.96743 0.27311 0.32675 0.0
H2888 H 0.92906 0.30187 0.27348 0.0
H2889 H 0.91346 0.31096 0.34596 0.0
H2890 H 0.93648 0.31417 0.34042 0.0
H2891 H 0.92167 0.29068 0.34029 0.0
C2892 C 0.9792 0.31447 0.30954 0.0
C2893 C 0.98165 0.29945 0.31821 0.0
C2894 C 0.96145 0.31547 0.30407 0.0
C2895 C 0.94598 0.30144 0.30716 0.0
C2896 C 0.94854 0.28603 0.31494 0.0
H2897 H 0.82948 0.26084 0.28397 0.0
H2898 H 0.8626 0.26626 0.29022 0.0
C2899 C 0.96609 0.28511 0.3205 0.0
C2900 C 0.92703 0.30265 0.30269 0.0
H2901 H 0.88759 0.30041 0.32198 0.0
C2902 C 0.92007 0.3019 0.28411 0.0
C2903 C 0.91528 0.30281 0.31659 0.0
C2904 C 0.92214 0.3049 0.33695 0.0
C2905 C 0.90147 0.30029 0.279 0.0
C2906 C 0.88958 0.29934 0.29278 0.0
C2907 C 0.89669 0.30088 0.3114 0.0
C2908 C 0.86958 0.29608 0.28811 0.0
C2909 C 0.89438 0.29892 0.25885 0.0
C2910 C 0.86253 0.31108 0.28494 0.0
C2911 C 0.84358 0.30809 0.28155 0.0
C2912 C 0.8313 0.28998 0.28114 0.0
C2913 C 0.83848 0.27494 0.28412 0.0
C2914 C 0.85742 0.278 0.28769 0.0
H2915 H 0.90516 0.29895 0.24964 0.0
H2916 H 0.8829 0.2857 0.25418 0.0
H2917 H 0.88896 0.31112 0.25729 0.0
H2918 H 0.87169 0.32516 0.28533 0.0
H2919 H 0.83856 0.31999 0.27925 0.0
H2920 H 0.01891 0.70734 0.66703 0.0
H2921 H 0.02524 0.67959 0.64954 0.0
H2922 H 0.98137 0.67495 0.60654 0.0
H2923 H 0.97485 0.70259 0.62389 0.0
H2924 H 0.99961 0.64106 0.63617 0.0
H2925 H 0.02751 0.67697 0.57909 0.0
H2926 H 0.02577 0.69002 0.60135 0.0
H2927 H 0.00577 0.67946 0.5845 0.0
C2928 C 0.01054 0.70042 0.65388 0.0
C2929 C 0.99636 0.70731 0.64691 0.0
C2930 C 0.0142 0.68453 0.64389 0.0
C2931 C 0.00393 0.67532 0.62662 0.0
C2932 C 0.98964 0.68198 0.61972 0.0
H2933 H 0.00637 0.5857 0.53819 0.0
H2934 H 0.00167 0.6127 0.5584 0.0
C2935 C 0.98587 0.69776 0.62974 0.0
C2936 C 0.00802 0.65867 0.61584 0.0
H2937 H 0.02284 0.64382 0.57527 0.0
C2938 C 0.00476 0.64161 0.62288 0.0
C2939 C 0.0147 0.65943 0.59849 0.0
C2940 C 0.0188 0.67747 0.5904 0.0
C2941 C 0.00731 0.62508 0.61274 0.0
C2942 C 0.01399 0.62577 0.59528 0.0
C2943 C 0.01765 0.64307 0.58853 0.0
C2944 C 0.01654 0.60871 0.58332 0.0
C2945 C 0.00204 0.60693 0.62059 0.0
C2946 C 0.02647 0.5972 0.59038 0.0
C2947 C 0.02858 0.58125 0.57887 0.0
C2948 C 0.0215 0.577 0.55991 0.0
C2949 C 0.01201 0.58871 0.55276 0.0
C2950 C 0.00938 0.60421 0.56434 0.0
H2951 H 0.99204 0.60738 0.63063 0.0
H2952 H 0.99597 0.59436 0.60942 0.0
H2953 H 0.0144 0.60506 0.6282 0.0
H2954 H 0.0328 0.60064 0.60471 0.0
H2955 H 0.03619 0.57259 0.58464 0.0
H2956 H 0.59615 0.82434 0.83773 0.0
H2957 H 0.62706 0.82756 0.82907 0.0
H2958 H 0.61051 0.7682 0.8041 0.0
H2959 H 0.5799 0.76494 0.81235 0.0
H2960 H 0.65331 0.80954 0.83786 0.0
H2961 H 0.63152 0.79256 0.76188 0.0
H2962 H 0.61664 0.79804 0.77827 0.0
H2963 H 0.61921 0.77445 0.77358 0.0
C2964 C 0.59911 0.81199 0.83038 0.0
C2965 C 0.58538 0.79442 0.82563 0.0
C2966 C 0.6168 0.81385 0.82543 0.0
C2967 C 0.62109 0.79822 0.81551 0.0
C2968 C 0.60752 0.78062 0.81125 0.0
H2969 H 0.71132 0.76331 0.77726 0.0
H2970 H 0.68252 0.76729 0.78627 0.0
C2971 C 0.58995 0.77877 0.81613 0.0
C2972 C 0.63969 0.79996 0.80975 0.0
H2973 H 0.66131 0.79033 0.77212 0.0
C2974 C 0.6551 0.80564 0.82345 0.0
C2975 C 0.64216 0.79492 0.79092 0.0
C2976 C 0.62653 0.78984 0.7753 0.0
C2977 C 0.67262 0.80553 0.81895 0.0
C2978 C 0.67489 0.79978 0.80022 0.0
C2979 C 0.65961 0.79466 0.78648 0.0
C2980 C 0.69271 0.79783 0.79471 0.0
C2981 C 0.68845 0.81078 0.83434 0.0
C2982 C 0.70812 0.81373 0.79617 0.0
C2983 C 0.72474 0.81152 0.79085 0.0
C2984 C 0.72631 0.79335 0.78405 0.0
C2985 C 0.71075 0.77753 0.78248 0.0
C2986 C 0.69419 0.77977 0.78763 0.0
H2987 H 0.68392 0.81194 0.84835 0.0
H2988 H 0.69613 0.80004 0.83303 0.0
H2989 H 0.698 0.8247 0.83325 0.0
H2990 H 0.70729 0.82785 0.80135 0.0
H2991 H 0.73638 0.82403 0.79226 0.0
H2992 H 0.48337 0.56554 0.71675 0.0
H2993 H 0.48923 0.56111 0.68448 0.0
H2994 H 0.44087 0.51301 0.67047 0.0
H2995 H 0.4347 0.5175 0.70287 0.0
H2996 H 0.49485 0.52846 0.66417 0.0
H2997 H 0.43476 0.54581 0.63095 0.0
H2998 H 0.44192 0.55174 0.65575 0.0
H2999 H 0.43002 0.52763 0.6451 0.0
C3000 C 0.47387 0.55408 0.70682 0.0
C3001 C 0.45851 0.54192 0.71237 0.0
C3002 C 0.47727 0.55156 0.68837 0.0
C3003 C 0.46539 0.53687 0.67505 0.0
C3004 C 0.45002 0.52466 0.68048 0.0
H3005 H 0.47503 0.5129 0.55583 0.0
H3006 H 0.46351 0.51197 0.58602 0.0
C3007 C 0.44655 0.52721 0.69899 0.0
C3008 C 0.46961 0.53422 0.65567 0.0
H3009 H 0.45533 0.53804 0.6113 0.0
C3010 C 0.48617 0.53045 0.65258 0.0
C3011 C 0.45813 0.53658 0.64056 0.0
C3012 C 0.44025 0.54079 0.64316 0.0
C3013 C 0.49179 0.5294 0.63486 0.0
C3014 C 0.48076 0.53269 0.6199 0.0
C3015 C 0.46383 0.5357 0.62282 0.0
C3016 C 0.48701 0.53395 0.60141 0.0
C3017 C 0.50951 0.52473 0.63239 0.0
C3018 C 0.50367 0.5471 0.59995 0.0
C3019 C 0.51034 0.54747 0.58286 0.0
C3020 C 0.50026 0.53504 0.56679 0.0
C3021 C 0.48306 0.52266 0.56801 0.0
C3022 C 0.47651 0.52207 0.58523 0.0
H3023 H 0.51298 0.51661 0.64307 0.0
H3024 H 0.50884 0.51629 0.61839 0.0
H3025 H 0.52077 0.53815 0.634 0.0
H3026 H 0.51169 0.55687 0.61212 0.0
H3027 H 0.52352 0.55737 0.58228 0.0
H3028 H 0.79915 0.21827 0.01803 0.0
H3029 H 0.78824 0.23914 -0.00021 0.0
H3030 H 0.76935 0.19278 0.95304 0.0
H3031 H 0.77927 0.17165 0.9717 0.0
H3032 H 0.80127 0.2493 0.9699 0.0
H3033 H 0.72706 0.21409 0.95115 0.0
H3034 H 0.74063 0.20762 0.96911 0.0
H3035 H 0.74001 0.19792 0.94495 0.0
C3036 C 0.7924 0.21257 0.00393 0.0
C3037 C 0.79006 0.19356 0.99607 0.0
C3038 C 0.78612 0.2244 0.9936 0.0
C3039 C 0.77774 0.21743 0.97519 0.0
C3040 C 0.77522 0.19829 0.96742 0.0
H3041 H 0.77905 0.25588 0.87659 0.0
H3042 H 0.78714 0.24973 0.90761 0.0
C3043 C 0.78106 0.18631 0.97795 0.0
C3044 C 0.77365 0.23065 0.96343 0.0
H3045 H 0.74141 0.23508 0.93078 0.0
C3046 C 0.78802 0.24648 0.9617 0.0
C3047 C 0.75635 0.22704 0.95287 0.0
C3048 C 0.74011 0.21083 0.95477 0.0
C3049 C 0.78592 0.25802 0.94868 0.0
C3050 C 0.76909 0.25347 0.93711 0.0
C3051 C 0.75432 0.23851 0.93975 0.0
C3052 C 0.7673 0.26166 0.92021 0.0
C3053 C 0.80195 0.27441 0.94679 0.0
C3054 C 0.75378 0.2708 0.91723 0.0
C3055 C 0.7492 0.27437 0.89951 0.0
C3056 C 0.75791 0.26849 0.88468 0.0
C3057 C 0.77221 0.26048 0.88795 0.0
C3058 C 0.77692 0.25713 0.90564 0.0
H3059 H 0.81159 0.27957 0.95994 0.0
H3060 H 0.80953 0.26961 0.93573 0.0
H3061 H 0.79731 0.28642 0.94285 0.0
H3062 H 0.74612 0.27416 0.92834 0.0
H3063 H 0.73807 0.2805 0.89712 0.0
H3064 H 0.14318 0.55037 0.20157 0.0
H3065 H 0.13619 0.56589 0.17542 0.0
H3066 H 0.08119 0.52812 0.16534 0.0
H3067 H 0.08797 0.51264 0.19095 0.0
H3068 H 0.11966 0.54233 0.13562 0.0
H3069 H 0.07767 0.58496 0.16768 0.0
H3070 H 0.09583 0.57917 0.18095 0.0
H3071 H 0.07371 0.56197 0.17437 0.0
C3072 C 0.12958 0.54556 0.19384 0.0
C3073 C 0.11614 0.53026 0.19826 0.0
C3074 C 0.12564 0.55441 0.17897 0.0
C3075 C 0.10814 0.54822 0.16867 0.0
C3076 C 0.09471 0.53322 0.17331 0.0
H3077 H 0.02669 0.52338 0.08805 0.0
H3078 H 0.0504 0.53338 0.11504 0.0
C3079 C 0.09866 0.52432 0.1879 0.0
C3080 C 0.10352 0.55606 0.15214 0.0
H3081 H 0.06874 0.57163 0.13473 0.0
C3082 C 0.10909 0.54951 0.13533 0.0
C3083 C 0.08985 0.56551 0.15195 0.0
C3084 C 0.08401 0.57349 0.16974 0.0
C3085 C 0.09957 0.54989 0.11818 0.0
C3086 C 0.0843 0.55713 0.11809 0.0
C3087 C 0.08032 0.56588 0.13488 0.0
C3088 C 0.07017 0.55209 0.10167 0.0
C3089 C 0.10459 0.54073 0.10043 0.0
C3090 C 0.07343 0.55942 0.08528 0.0
C3091 C 0.05987 0.55359 0.0698 0.0
C3092 C 0.04302 0.54035 0.07058 0.0
C3093 C 0.03965 0.53347 0.08712 0.0
C3094 C 0.05315 0.53921 0.1025 0.0
H3095 H 0.11645 0.53512 0.10301 0.0
H3096 H 0.09275 0.52885 0.09305 0.0
H3097 H 0.10809 0.55131 0.09108 0.0
H3098 H 0.08635 0.56964 0.0845 0.0
H3099 H 0.06242 0.55969 0.0574 0.0
H3100 H 0.75651 0.84529 0.47295 0.0
H3101 H 0.75424 0.83206 0.43995 0.0
H3102 H 0.80064 0.81136 0.45172 0.0
H3103 H 0.80289 0.82425 0.48469 0.0
H3104 H 0.78193 0.84371 0.4185 0.0
H3105 H 0.76535 0.76582 0.41658 0.0
H3106 H 0.76241 0.78197 0.43623 0.0
H3107 H 0.78473 0.77959 0.43315 0.0
C3108 C 0.766 0.83757 0.46862 0.0
C3109 C 0.77994 0.83593 0.48155 0.0
C3110 C 0.7647 0.83004 0.44971 0.0
C3111 C 0.77719 0.82059 0.44335 0.0
C3112 C 0.79064 0.81828 0.45631 0.0
H3113 H 0.80125 0.78171 0.33192 0.0
H3114 H 0.80149 0.7891 0.36581 0.0
C3115 C 0.79197 0.82579 0.47519 0.0
C3116 C 0.77729 0.81487 0.42306 0.0
H3117 H 0.77434 0.77702 0.38896 0.0
C3118 C 0.78014 0.82911 0.41203 0.0
C3119 C 0.77521 0.79585 0.41467 0.0
C3120 C 0.77159 0.77988 0.42571 0.0
C3121 C 0.78112 0.82492 0.39291 0.0
C3122 C 0.77882 0.80587 0.38443 0.0
C3123 C 0.77614 0.79162 0.39547 0.0
C3124 C 0.77836 0.8005 0.364 0.0
C3125 C 0.78493 0.84103 0.38201 0.0
C3126 C 0.76506 0.80403 0.35178 0.0
C3127 C 0.76501 0.80003 0.33258 0.0
C3128 C 0.77812 0.79213 0.32504 0.0
C3129 C 0.79106 0.7879 0.33727 0.0
C3130 C 0.79118 0.79209 0.35661 0.0
H3131 H 0.79162 0.85495 0.39122 0.0
H3132 H 0.79382 0.83879 0.37124 0.0
H3133 H 0.77182 0.84179 0.37495 0.0
H3134 H 0.75473 0.81002 0.35712 0.0
H3135 H 0.75458 0.80312 0.32363 0.0
H3136 H 0.49604 0.54613 0.8115 0.0
H3137 H 0.50855 0.54118 0.84185 0.0
H3138 H 0.45626 0.50284 0.8466 0.0
H3139 H 0.44361 0.5082 0.81654 0.0
H3140 H 0.48663 0.54824 0.87563 0.0
H3141 H 0.50081 0.47814 0.86147 0.0
H3142 H 0.50173 0.49339 0.84421 0.0
H3143 H 0.48005 0.48054 0.84982 0.0
C3144 C 0.48743 0.5363 0.81888 0.0
C3145 C 0.46899 0.5274 0.81185 0.0
C3146 C 0.49453 0.53351 0.83613 0.0
C3147 C 0.48333 0.52153 0.84627 0.0
C3148 C 0.46511 0.51197 0.83882 0.0
H3149 H 0.48135 0.51086 0.96041 0.0
H3150 H 0.47516 0.50899 0.92667 0.0
C3151 C 0.45793 0.51503 0.82175 0.0
C3152 C 0.4899 0.52078 0.86558 0.0
H3153 H 0.50307 0.49221 0.89317 0.0
C3154 C 0.49041 0.5361 0.87948 0.0
C3155 C 0.49471 0.50487 0.87041 0.0
C3156 C 0.49443 0.48826 0.85575 0.0
C3157 C 0.49521 0.5357 0.89827 0.0
C3158 C 0.49972 0.51965 0.90317 0.0
C3159 C 0.49963 0.50449 0.88925 0.0
C3160 C 0.50369 0.51824 0.92286 0.0
C3161 C 0.4952 0.55227 0.91289 0.0
C3162 C 0.5218 0.52355 0.93164 0.0
C3163 C 0.52536 0.52436 0.95084 0.0
C3164 C 0.51082 0.52013 0.96141 0.0
C3165 C 0.49274 0.51423 0.95247 0.0
C3166 C 0.4892 0.51312 0.93329 0.0
H3167 H 0.49233 0.56414 0.9067 0.0
H3168 H 0.48463 0.54749 0.92199 0.0
H3169 H 0.50865 0.55765 0.92182 0.0
H3170 H 0.5331 0.52772 0.92375 0.0
H3171 H 0.53939 0.52919 0.95756 0.0
H3172 H 0.82034 0.21405 0.08507 0.0
H3173 H 0.80901 0.22834 0.11205 0.0
H3174 H 0.75821 0.18326 0.09948 0.0
H3175 H 0.76927 0.1688 0.0725 0.0
H3176 H 0.77188 0.23787 0.11549 0.0
H3177 H 0.78553 0.18156 0.15265 0.0
H3178 H 0.79618 0.18732 0.13239 0.0
H3179 H 0.77236 0.17452 0.12988 0.0
C3180 C 0.80672 0.20723 0.08795 0.0
C3181 C 0.79586 0.19009 0.07687 0.0
C3182 C 0.80022 0.2155 0.10323 0.0
C3183 C 0.78286 0.20673 0.10763 0.0
C3184 C 0.77166 0.19013 0.0962 0.0
H3185 H 0.75255 0.23051 0.21839 0.0
H3186 H 0.75051 0.21644 0.18575 0.0
C3187 C 0.7781 0.18186 0.0809 0.0
C3188 C 0.77747 0.2138 0.12536 0.0
H3189 H 0.77715 0.20612 0.17 0.0
C3190 C 0.77277 0.23088 0.12741 0.0
C3191 C 0.77848 0.2044 0.14066 0.0
C3192 C 0.78347 0.18596 0.13896 0.0
C3193 C 0.76962 0.2392 0.14475 0.0
C3194 C 0.77178 0.23041 0.16034 0.0
C3195 C 0.7756 0.21285 0.15801 0.0
C3196 C 0.77172 0.23978 0.17947 0.0
C3197 C 0.76417 0.25736 0.14626 0.0
C3198 C 0.78447 0.25746 0.18672 0.0
C3199 C 0.78568 0.26555 0.20534 0.0
C3200 C 0.77432 0.25594 0.21704 0.0
C3201 C 0.76156 0.23822 0.20973 0.0
C3202 C 0.76028 0.23021 0.19108 0.0
H3203 H 0.75701 0.25849 0.13281 0.0
H3204 H 0.75512 0.25827 0.15718 0.0
H3205 H 0.77665 0.26969 0.14993 0.0
H3206 H 0.79382 0.26478 0.1781 0.0
H3207 H 0.79569 0.27919 0.21059 0.0
H3208 H 0.14322 0.55255 0.2963 0.0
H3209 H 0.13582 0.56919 0.32445 0.0
H3210 H 0.07879 0.53836 0.30864 0.0
H3211 H 0.08616 0.52134 0.2804 0.0
H3212 H 0.10302 0.58928 0.33064 0.0
H3213 H 0.10417 0.52434 0.36002 0.0
H3214 H 0.117 0.53141 0.34141 0.0
H3215 H 0.09268 0.52103 0.33672 0.0
C3216 C 0.1291 0.54933 0.29874 0.0
C3217 C 0.11531 0.5352 0.28653 0.0
C3218 C 0.12489 0.55909 0.31467 0.0
C3219 C 0.10684 0.55485 0.31853 0.0
C3220 C 0.09282 0.54176 0.30573 0.0
H3221 H 0.04323 0.58005 0.39988 0.0
H3222 H 0.06021 0.58081 0.37322 0.0
C3223 C 0.09703 0.53204 0.2897 0.0
C3224 C 0.10301 0.56188 0.33707 0.0
H3225 H 0.09378 0.54724 0.37799 0.0
C3226 C 0.10111 0.58023 0.34111 0.0
C3227 C 0.10114 0.55016 0.35074 0.0
C3228 C 0.10394 0.53065 0.34718 0.0
C3229 C 0.09633 0.5868 0.35837 0.0
C3230 C 0.09322 0.57453 0.37157 0.0
C3231 C 0.09615 0.55659 0.36781 0.0
C3232 C 0.08492 0.57882 0.38845 0.0
C3233 C 0.09446 0.60664 0.36228 0.0
C3234 C 0.09332 0.57775 0.40588 0.0
C3235 C 0.0836 0.57719 0.42111 0.0
C3236 C 0.06531 0.57756 0.41906 0.0
C3237 C 0.05735 0.5799 0.40189 0.0
C3238 C 0.06708 0.58046 0.38667 0.0
H3239 H 0.1029 0.61607 0.35389 0.0
H3240 H 0.07996 0.60608 0.35853 0.0
H3241 H 0.09857 0.61297 0.37726 0.0
H3242 H 0.10705 0.57635 0.40746 0.0
H3243 H 0.09014 0.57571 0.43429 0.0
H3244 H 0.74468 0.84744 0.57747 0.0
H3245 H 0.73883 0.83611 0.60678 0.0
H3246 H 0.77978 0.80652 0.6011 0.0
H3247 H 0.78571 0.81769 0.57185 0.0
H3248 H 0.74729 0.78694 0.61684 0.0
H3249 H 0.78087 0.86186 0.65156 0.0
H3250 H 0.76195 0.85812 0.63369 0.0
H3251 H 0.78261 0.85325 0.62765 0.0
C3252 C 0.75203 0.83803 0.58214 0.0
C3253 C 0.76584 0.83368 0.57243 0.0
C3254 C 0.74876 0.83168 0.59897 0.0
C3255 C 0.75913 0.82079 0.60626 0.0
C3256 C 0.77172 0.81501 0.59577 0.0
H3257 H 0.79466 0.8152 0.71907 0.0
H3258 H 0.79072 0.82077 0.68715 0.0
C3259 C 0.77509 0.82143 0.57905 0.0
C3260 C 0.75846 0.81718 0.62561 0.0
H3261 H 0.77105 0.83954 0.67089 0.0
C3262 C 0.7523 0.7984 0.62871 0.0
C3263 C 0.76542 0.83217 0.64101 0.0
C3264 C 0.77325 0.85249 0.63844 0.0
C3265 C 0.753 0.79419 0.64683 0.0
C3266 C 0.75974 0.80924 0.66228 0.0
C3267 C 0.76574 0.82802 0.6591 0.0
C3268 C 0.76177 0.80584 0.68179 0.0
C3269 C 0.74722 0.77362 0.64916 0.0
C3270 C 0.74676 0.79584 0.6896 0.0
C3271 C 0.74904 0.79239 0.70783 0.0
C3272 C 0.7663 0.79925 0.71873 0.0
C3273 C 0.78116 0.80978 0.71108 0.0
C3274 C 0.77893 0.81296 0.6928 0.0
H3275 H 0.74712 0.76387 0.63609 0.0
H3276 H 0.75644 0.77099 0.66037 0.0
H3277 H 0.73314 0.76999 0.65297 0.0
H3278 H 0.73327 0.7907 0.68162 0.0
H3279 H 0.73729 0.78439 0.7134 0.0
H3280 H 0.71335 0.41532 0.52622 0.0
H3281 H 0.68794 0.4287 0.53048 0.0
H3282 H 0.69465 0.45094 0.47951 0.0
H3283 H 0.72008 0.43756 0.47505 0.0
H3284 H 0.6988 0.46923 0.5338 0.0
H3285 H 0.63822 0.43443 0.48042 0.0
H3286 H 0.65446 0.42228 0.48757 0.0
H3287 H 0.66007 0.4389 0.47195 0.0
C3288 C 0.70901 0.42248 0.51557 0.0
C3289 C 0.7189 0.42577 0.5005 0.0
C3290 C 0.69446 0.43004 0.51801 0.0
C3291 C 0.68955 0.44079 0.50534 0.0
C3292 C 0.69816 0.44244 0.48929 0.0
H3293 H 0.63849 0.52944 0.50448 0.0
H3294 H 0.6548 0.50554 0.49834 0.0
C3295 C 0.71272 0.43485 0.48681 0.0
C3296 C 0.67837 0.4534 0.51076 0.0
H3297 H 0.63979 0.46499 0.49727 0.0
C3298 C 0.68575 0.46817 0.52602 0.0
C3299 C 0.66153 0.45196 0.50039 0.0
C3300 C 0.65297 0.43596 0.48424 0.0
C3301 C 0.67696 0.48203 0.53086 0.0
C3302 C 0.66026 0.48081 0.5203 0.0
C3303 C 0.65266 0.4658 0.50526 0.0
C3304 C 0.65078 0.49538 0.52432 0.0
C3305 C 0.68593 0.49826 0.54674 0.0
C3306 C 0.64338 0.49755 0.54103 0.0
C3307 C 0.63409 0.51116 0.54458 0.0
C3308 C 0.63204 0.52269 0.53141 0.0
C3309 C 0.6398 0.52067 0.51482 0.0
C3310 C 0.64905 0.50705 0.51128 0.0
H3311 H 0.70048 0.49919 0.55091 0.0
H3312 H 0.68528 0.51203 0.54292 0.0
H3313 H 0.67855 0.49612 0.55899 0.0
H3314 H 0.64446 0.48846 0.55113 0.0
H3315 H 0.62791 0.51212 0.5573 0.0
H3316 H 0.22335 0.12116 0.51937 0.0
H3317 H 0.19084 0.10743 0.52055 0.0
H3318 H 0.1787 0.15199 0.49467 0.0
H3319 H 0.2115 0.16604 0.49347 0.0
H3320 H 0.16593 0.12701 0.53803 0.0
H3321 H 0.14657 0.09943 0.46191 0.0
H3322 H 0.16988 0.10538 0.473 0.0
H3323 H 0.15986 0.12394 0.46925 0.0
C3324 C 0.21382 0.12808 0.51388 0.0
C3325 C 0.21999 0.14463 0.50621 0.0
C3326 C 0.19525 0.12023 0.51463 0.0
C3327 C 0.18244 0.12863 0.50758 0.0
C3328 C 0.18845 0.14525 0.50004 0.0
H3329 H 0.06358 0.08302 0.49818 0.0
H3330 H 0.09435 0.10289 0.49636 0.0
C3331 C 0.20714 0.15326 0.49942 0.0
C3332 C 0.16282 0.11969 0.50817 0.0
H3333 H 0.12351 0.09197 0.48108 0.0
C3334 C 0.15658 0.1195 0.52559 0.0
C3335 C 0.15074 0.10996 0.49188 0.0
C3336 C 0.157 0.10951 0.4729 0.0
C3337 C 0.13857 0.10949 0.52719 0.0
C3338 C 0.12669 0.09913 0.51097 0.0
C3339 C 0.13274 0.09986 0.49348 0.0
C3340 C 0.10811 0.08696 0.51193 0.0
C3341 C 0.13241 0.11004 0.54622 0.0
C3342 C 0.10573 0.07121 0.521 0.0
C3343 C 0.08818 0.05977 0.52204 0.0
C3344 C 0.07272 0.06389 0.51399 0.0
C3345 C 0.07519 0.0795 0.50463 0.0
C3346 C 0.09275 0.09088 0.50354 0.0
H3347 H 0.14134 0.12241 0.55637 0.0
H3348 H 0.11809 0.11074 0.54563 0.0
H3349 H 0.13302 0.09689 0.55145 0.0
H3350 H 0.11748 0.06777 0.52725 0.0
H3351 H 0.08675 0.04783 0.52928 0.0
H3352 H 0.1718 0.99261 0.80238 0.0
H3353 H 0.18729 0.96923 0.79175 0.0
H3354 H 0.1605 0.96202 0.73587 0.0
H3355 H 0.14469 0.98557 0.74633 0.0
H3356 H 0.16017 0.92689 0.76147 0.0
H3357 H 0.22561 0.97463 0.74736 0.0
H3358 H 0.2146 0.98273 0.76639 0.0
H3359 H 0.20399 0.97967 0.74293 0.0
C3360 C 0.16929 0.9863 0.78775 0.0
C3361 C 0.15693 0.99096 0.7752 0.0
C3362 C 0.17816 0.97293 0.78175 0.0
C3363 C 0.17494 0.96402 0.76311 0.0
C3364 C 0.16306 0.96886 0.75034 0.0
H3365 H 0.23824 0.88674 0.72663 0.0
H3366 H 0.219 0.90815 0.72554 0.0
C3367 C 0.15411 0.98231 0.75634 0.0
C3368 C 0.18358 0.94905 0.75749 0.0
H3369 H 0.22473 0.94282 0.74906 0.0
C3370 C 0.17416 0.93022 0.75838 0.0
C3371 C 0.20177 0.95361 0.75352 0.0
C3372 C 0.21219 0.97373 0.75239 0.0
C3373 C 0.18283 0.91583 0.75615 0.0
C3374 C 0.2014 0.92059 0.75321 0.0
C3375 C 0.2105 0.93927 0.75137 0.0
C3376 C 0.21206 0.90678 0.75339 0.0
C3377 C 0.17217 0.89579 0.75735 0.0
C3378 C 0.21461 0.89912 0.76949 0.0
C3379 C 0.22564 0.88702 0.7702 0.0
C3380 C 0.23442 0.88248 0.75486 0.0
C3381 C 0.23179 0.89014 0.73872 0.0
C3382 C 0.22073 0.90225 0.73802 0.0
H3383 H 0.15722 0.89341 0.75392 0.0
H3384 H 0.17642 0.88519 0.74782 0.0
H3385 H 0.17474 0.89331 0.77178 0.0
H3386 H 0.20842 0.90287 0.78167 0.0
H3387 H 0.22767 0.88162 0.78294 0.0
H3388 H 0.33203 0.96424 0.04498 0.0
H3389 H 0.36327 0.97516 0.03756 0.0
H3390 H 0.34261 0.96286 0.97896 0.0
H3391 H 0.31127 0.95302 0.98653 0.0
H3392 H 0.3788 0.95178 0.01769 0.0
H3393 H 0.37958 0.01384 0.98276 0.0
H3394 H 0.3614 0.00398 0.99572 0.0
H3395 H 0.36234 0.99202 0.97283 0.0
C3396 C 0.33423 0.96459 0.03061 0.0
C3397 C 0.31952 0.95826 0.01631 0.0
C3398 C 0.35197 0.97062 0.02635 0.0
C3399 C 0.35516 0.96988 0.00772 0.0
C3400 C 0.34037 0.96398 0.99342 0.0
H3401 H 0.46695 0.00422 0.97894 0.0
H3402 H 0.43391 0.98867 0.97451 0.0
C3403 C 0.32255 0.95843 0.99773 0.0
C3404 C 0.37409 0.97391 0.00353 0.0
H3405 H 0.40699 0.00556 0.98655 0.0
C3406 C 0.38494 0.96343 0.01072 0.0
C3407 C 0.38186 0.98878 0.99402 0.0
C3408 C 0.37076 0.00041 0.98597 0.0
C3409 C 0.40371 0.96832 0.00982 0.0
C3410 C 0.41169 0.98407 0.00154 0.0
C3411 C 0.40067 0.99356 0.99299 0.0
C3412 C 0.43157 0.99254 0.00393 0.0
C3413 C 0.41492 0.95709 0.01841 0.0
C3414 C 0.44087 1.00008 0.02191 0.0
C3415 C 0.45957 0.00898 0.02449 0.0
C3416 C 0.46922 0.01059 0.0091 0.0
C3417 C 0.45981 0.00322 0.99105 0.0
C3418 C 0.44103 0.99426 0.98848 0.0
H3419 H 0.40651 0.94233 0.01852 0.0
H3420 H 0.42674 0.95653 0.01083 0.0
H3421 H 0.42024 0.96402 0.03306 0.0
H3422 H 0.4336 0.9993 0.03394 0.0
H3423 H 0.46639 0.0147 0.03854 0.0
H3424 H 0.83796 0.55187 0.79604 0.0
H3425 H 0.81776 0.56648 0.77953 0.0
H3426 H 0.86497 0.60973 0.76992 0.0
H3427 H 0.88509 0.59431 0.78521 0.0
H3428 H 0.8129 0.59895 0.7883 0.0
H3429 H 0.83743 0.598 0.71969 0.0
H3430 H 0.84421 0.58472 0.73638 0.0
H3431 H 0.85609 0.60958 0.73772 0.0
C3432 C 0.84392 0.56438 0.79017 0.0
C3433 C 0.86296 0.57204 0.79175 0.0
C3434 C 0.83243 0.57266 0.78071 0.0
C3435 C 0.83984 0.58893 0.77305 0.0
C3436 C 0.85893 0.59674 0.77498 0.0
H3437 H 0.811 0.68408 0.74861 0.0
H3438 H 0.82465 0.65851 0.75253 0.0
C3439 C 0.87041 0.58811 0.78393 0.0
C3440 C 0.82768 0.59876 0.76458 0.0
H3441 H 0.82168 0.62164 0.72838 0.0
C3442 C 0.81451 0.60349 0.77497 0.0
C3443 C 0.82972 0.60462 0.74714 0.0
C3444 C 0.84251 0.59876 0.73454 0.0
C3445 C 0.80415 0.6149 0.76897 0.0
C3446 C 0.80708 0.62175 0.75215 0.0
C3447 C 0.81959 0.61636 0.74131 0.0
C3448 C 0.79886 0.63629 0.74688 0.0
C3449 C 0.79088 0.62045 0.78115 0.0
C3450 C 0.77994 0.63203 0.74181 0.0
C3451 C 0.77207 0.64663 0.73974 0.0
C3452 C 0.78309 0.66562 0.74272 0.0
C3453 C 0.80217 0.66961 0.7466 0.0
C3454 C 0.80999 0.65504 0.74868 0.0
H3455 H 0.79178 0.61563 0.79478 0.0
H3456 H 0.79348 0.63613 0.7837 0.0
H3457 H 0.77671 0.61395 0.77395 0.0
H3458 H 0.77123 0.61755 0.74023 0.0
H3459 H 0.75733 0.64318 0.73677 0.0
H3460 H 0.80731 0.64797 0.04331 0.0
H3461 H 0.83222 0.6344 0.05086 0.0
H3462 H 0.86048 0.6593 0.00803 0.0
H3463 H 0.83623 0.67379 0.0013 0.0
H3464 H 0.84058 0.60862 0.02949 0.0
H3465 H 0.90297 0.66969 0.04628 0.0
H3466 H 0.88039 0.67282 0.04478 0.0
H3467 H 0.89112 0.66954 0.02408 0.0
C3468 C 0.81912 0.65098 0.03591 0.0
C3469 C 0.81991 0.66197 0.02178 0.0
C3470 C 0.83332 0.64319 0.04019 0.0
C3471 C 0.8484 0.646 0.0302 0.0
C3472 C 0.84937 0.65742 0.0164 0.0
H3473 H 0.92155 0.58203 -5e-05 0.0
H3474 H 0.9017 0.60283 0.00302 0.0
C3475 C 0.8354 0.66559 0.01245 0.0
C3476 C 0.8619 0.63519 0.03262 0.0
H3477 H 0.90756 0.63892 0.03617 0.0
C3478 C 0.85523 0.61536 0.03135 0.0
C3479 C 0.88106 0.64389 0.035 0.0
C3480 C 0.88927 0.66518 0.03781 0.0
C3481 C 0.8671 0.60398 0.03168 0.0
C3482 C 0.8861 0.61261 0.03313 0.0
C3483 C 0.8929 0.63241 0.0349 0.0
C3484 C 0.89897 0.60105 0.03187 0.0
C3485 C 0.8593 0.58271 0.02983 0.0
C3486 C 0.90403 0.59336 0.04717 0.0
C3487 C 0.91543 0.58153 0.0455 0.0
C3488 C 0.92192 0.57724 0.0285 0.0
C3489 C 0.91698 0.58525 0.01329 0.0
C3490 C 0.90562 0.59708 0.01499 0.0
H3491 H 0.8441 0.57812 0.02801 0.0
H3492 H 0.86403 0.57542 0.01774 0.0
H3493 H 0.86435 0.57803 0.04246 0.0
H3494 H 0.89902 0.59637 0.0603 0.0
H3495 H 0.91918 0.57577 0.05752 0.0
H3496 H 0.14153 0.07739 0.76468 0.0
H3497 H 0.16032 0.10799 0.75911 0.0
H3498 H 0.19345 0.1163 0.81199 0.0
H3499 H 0.17489 0.08573 0.8177 0.0
H3500 H 0.16745 0.14489 0.78182 0.0
H3501 H 0.23084 0.12357 0.77416 0.0
H3502 H 0.20864 0.10647 0.77247 0.0
H3503 H 0.22084 0.11872 0.79486 0.0
C3504 C 0.15281 0.0857 0.77515 0.0
C3505 C 0.15674 0.07901 0.79162 0.0
C3506 C 0.16353 0.10318 0.77193 0.0
C3507 C 0.17843 0.11423 0.78501 0.0
C3508 C 0.18222 0.10779 0.80156 0.0
H3509 H 0.26206 0.22142 0.7944 0.0
H3510 H 0.24277 0.19015 0.79775 0.0
C3511 C 0.17151 0.09034 0.80483 0.0
C3512 C 0.18987 0.13267 0.78152 0.0
H3513 H 0.23337 0.15632 0.7758 0.0
C3514 C 0.18185 0.14741 0.78039 0.0
C3515 C 0.20862 0.13585 0.77971 0.0
C3516 C 0.21777 0.12029 0.7802 0.0
C3517 C 0.19223 0.1655 0.77806 0.0
C3518 C 0.21105 0.16874 0.7763 0.0
C3519 C 0.21898 0.15386 0.77719 0.0
C3520 C 0.22288 0.18753 0.7739 0.0
C3521 C 0.18302 0.18107 0.77816 0.0
C3522 C 0.21835 0.1963 0.75917 0.0
C3523 C 0.22919 0.2143 0.75742 0.0
C3524 C 0.24503 0.22364 0.77009 0.0
C3525 C 0.24995 0.21455 0.7844 0.0
C3526 C 0.23892 0.19669 0.78634 0.0
H3527 H 0.17045 0.17791 0.78506 0.0
H3528 H 0.19235 0.195 0.78538 0.0
H3529 H 0.17892 0.18231 0.76359 0.0
H3530 H 0.2064 0.18927 0.74903 0.0
H3531 H 0.22519 0.22085 0.74609 0.0
H3532 H 0.37817 0.98998 0.27733 0.0
H3533 H 0.36157 0.95646 0.26707 0.0
H3534 H 0.33566 0.95642 0.317 0.0
H3535 H 0.3521 0.99005 0.32744 0.0
H3536 H 0.36531 0.92824 0.28741 0.0
H3537 H 0.29308 0.92903 0.27518 0.0
H3538 H 0.31219 0.94997 0.27636 0.0
H3539 H 0.30503 0.94221 0.29736 0.0
C3540 C 0.36879 0.98295 0.28607 0.0
C3541 C 0.36654 0.99266 0.30329 0.0
C3542 C 0.3593 0.96382 0.28013 0.0
C3543 C 0.34732 0.95413 0.29121 0.0
C3544 C 0.34463 0.96383 0.30814 0.0
H3545 H 0.29647 0.83964 0.30125 0.0
H3546 H 0.31048 0.87397 0.30502 0.0
C3547 C 0.35412 0.983 0.31412 0.0
C3548 C 0.33896 0.93347 0.28594 0.0
H3549 H 0.29804 0.89894 0.27746 0.0
C3550 C 0.35061 0.9218 0.28496 0.0
C3551 C 0.3198 0.92527 0.28278 0.0
C3552 C 0.30677 0.93726 0.28279 0.0
C3553 C 0.34352 0.90198 0.28156 0.0
C3554 C 0.3244 0.89383 0.27903 0.0
C3555 C 0.31273 0.90544 0.27952 0.0
C3556 C 0.31625 0.87322 0.27661 0.0
C3557 C 0.35641 0.88982 0.28129 0.0
C3558 C 0.31495 0.86171 0.25934 0.0
C3559 C 0.3069 0.84213 0.25709 0.0
C3560 C 0.30014 0.83391 0.27212 0.0
C3561 C 0.30158 0.84557 0.28943 0.0
C3562 C 0.30953 0.86513 0.29162 0.0
H3563 H 0.37098 0.89847 0.28462 0.0
H3564 H 0.35329 0.88007 0.2915 0.0
H3565 H 0.35443 0.88091 0.26731 0.0
H3566 H 0.32009 0.86789 0.24765 0.0
H3567 H 0.30604 0.83348 0.24361 0.0
H3568 H 0.52823 0.32866 0.55146 0.0
H3569 H 0.52941 0.35757 0.53882 0.0
H3570 H 0.5734 0.38952 0.5819 0.0
H3571 H 0.57239 0.36044 0.5946 0.0
H3572 H 0.5219 0.38805 0.55976 0.0
H3573 H 0.58983 0.41177 0.53579 0.0
H3574 H 0.5801 0.38775 0.53957 0.0
H3575 H 0.59027 0.40659 0.55901 0.0
C3576 C 0.53857 0.3417 0.55796 0.0
C3577 C 0.55022 0.34215 0.57409 0.0
C3578 C 0.53916 0.35829 0.55073 0.0
C3579 C 0.55146 0.37582 0.55936 0.0
C3580 C 0.56395 0.37616 0.57478 0.0
H3581 H 0.56116 0.49333 0.5451 0.0
H3582 H 0.56605 0.46413 0.55361 0.0
C3583 C 0.56341 0.35947 0.58202 0.0
C3584 C 0.54957 0.39379 0.55351 0.0
H3585 H 0.57181 0.43317 0.53647 0.0
C3586 C 0.5328 0.39787 0.55459 0.0
C3587 C 0.56382 0.40676 0.54695 0.0
C3588 C 0.582 0.403 0.54508 0.0
C3589 C 0.52993 0.41454 0.54957 0.0
C3590 C 0.54405 0.42742 0.54265 0.0
C3591 C 0.5609 0.42338 0.54166 0.0
C3592 C 0.54162 0.44517 0.53659 0.0
C3593 C 0.51189 0.41835 0.55236 0.0
C3594 C 0.52658 0.4444 0.52372 0.0
C3595 C 0.52355 0.46111 0.51917 0.0
C3596 C 0.53581 0.47904 0.52688 0.0
C3597 C 0.55142 0.47977 0.53893 0.0
C3598 C 0.55423 0.46304 0.54381 0.0
H3599 H 0.50531 0.41076 0.56311 0.0
H3600 H 0.51362 0.43378 0.55662 0.0
H3601 H 0.50242 0.41309 0.53914 0.0
H3602 H 0.51701 0.43086 0.51729 0.0
H3603 H 0.51156 0.45998 0.50958 0.0
H3604 H 0.43021 0.73708 0.39788 0.0
H3605 H 0.40234 0.73938 0.3804 0.0
H3606 H 0.4289 0.79839 0.37921 0.0
H3607 H 0.45707 0.79576 0.39562 0.0
H3608 H 0.37882 0.7594 0.38499 0.0
H3609 H 0.41432 0.77987 0.3251 0.0
H3610 H 0.42525 0.77227 0.34413 0.0
H3611 H 0.4238 0.79631 0.34633 0.0
C3612 C 0.43001 0.75057 0.39401 0.0
C3613 C 0.44585 0.76618 0.39789 0.0
C3614 C 0.41408 0.75188 0.38398 0.0
C3615 C 0.41362 0.76889 0.37788 0.0
C3616 C 0.42907 0.78488 0.38302 0.0
H3617 H 0.33567 0.80068 0.30451 0.0
H3618 H 0.36112 0.80003 0.32682 0.0
C3619 C 0.44512 0.78343 0.39259 0.0
C3620 C 0.39721 0.76972 0.36576 0.0
H3621 H 0.3837 0.7806 0.32403 0.0
C3622 C 0.37988 0.76401 0.37164 0.0
C3623 C 0.3985 0.77571 0.34827 0.0
C3624 C 0.41644 0.78121 0.34049 0.0
C3625 C 0.36394 0.76447 0.3608 0.0
C3626 C 0.36524 0.77045 0.34329 0.0
C3627 C 0.38259 0.77612 0.33744 0.0
C3628 C 0.34899 0.77108 0.33073 0.0
C3629 C 0.346 0.75901 0.36854 0.0
C3630 C 0.3335 0.75511 0.3254 0.0
C3631 C 0.31868 0.75573 0.31308 0.0
C3632 C 0.31936 0.77205 0.30525 0.0
C3633 C 0.33487 0.7879 0.31031 0.0
C3634 C 0.34942 0.7875 0.32306 0.0
H3635 H 0.34813 0.76091 0.38398 0.0
H3636 H 0.33696 0.76755 0.36442 0.0
H3637 H 0.33891 0.74374 0.36317 0.0
H3638 H 0.33298 0.742 0.33045 0.0
H3639 H 0.30694 0.74324 0.30918 0.0
H3640 H 0.06568 0.75367 0.08757 0.0
H3641 H 0.06745 0.72189 0.07497 0.0
H3642 H 0.00927 0.70364 0.05726 0.0
H3643 H 0.00751 0.73542 0.06915 0.0
H3644 H 0.05297 0.68918 0.08489 0.0
H3645 H 0.02574 0.68249 0.01117 0.0
H3646 H 0.03207 0.7049 0.02705 0.0
H3647 H 0.00993 0.688 0.02612 0.0
C3648 C 0.05331 0.74298 0.08071 0.0
C3649 C 0.03647 0.74723 0.07928 0.0
C3650 C 0.05433 0.72477 0.07353 0.0
C3651 C 0.03856 0.71033 0.0648 0.0
C3652 C 0.02177 0.71458 0.06334 0.0
H3653 H 0.00361 0.58877 0.03447 0.0
H3654 H 0.00738 0.6228 0.04265 0.0
C3655 C 0.02076 0.73282 0.0703 0.0
C3656 C 0.03938 0.69055 0.05833 0.0
H3657 H 0.02523 0.65316 0.02186 0.0
C3658 C 0.04716 0.68144 0.071 0.0
C3659 C 0.0319 0.68034 0.04016 0.0
C3660 C 0.02464 0.68953 0.02531 0.0
C3661 C 0.04694 0.66229 0.06629 0.0
C3662 C 0.03871 0.65191 0.04845 0.0
C3663 C 0.03139 0.6611 0.0356 0.0
C3664 C 0.03675 0.63125 0.04319 0.0
C3665 C 0.05493 0.65306 0.08063 0.0
C3666 C 0.05202 0.62465 0.04055 0.0
C3667 C 0.04994 0.60509 0.03576 0.0
C3668 C 0.03252 0.59174 0.03361 0.0
C3669 C 0.01727 0.59852 0.03613 0.0
C3670 C 0.01936 0.61803 0.04076 0.0
H3671 H 0.05858 0.66227 0.09459 0.0
H3672 H 0.0451 0.6393 0.08175 0.0
H3673 H 0.0675 0.65004 0.07624 0.0
H3674 H 0.06556 0.63463 0.04217 0.0
H3675 H 0.062 0.60046 0.03395 0.0
H3676 H 0.03326 0.26473 0.86143 0.0
H3677 H 0.06311 0.27251 0.85066 0.0
H3678 H 0.08944 0.28581 0.90738 0.0
H3679 H 0.05932 0.27786 0.91842 0.0
H3680 H 0.09171 0.30767 0.85961 0.0
H3681 H 0.1136 0.24723 0.88096 0.0
H3682 H 0.09001 0.24743 0.87933 0.0
H3683 H 0.10629 0.26229 0.89835 0.0
C3684 C 0.04533 0.26928 0.87171 0.0
C3685 C 0.04383 0.27058 0.89083 0.0
C3686 C 0.06243 0.27377 0.86548 0.0
C3687 C 0.07852 0.27958 0.87816 0.0
C3688 C 0.07719 0.2811 0.89732 0.0
H3689 H 0.18819 0.29646 0.84223 0.0
H3690 H 0.16405 0.29523 0.86232 0.0
C3691 C 0.05998 0.27663 0.90361 0.0
C3692 C 0.09648 0.28398 0.87093 0.0
H3693 H 0.13257 0.26638 0.8634 0.0
C3694 C 0.10076 0.29878 0.86063 0.0
C3695 C 0.1084 0.27252 0.87244 0.0
C3696 C 0.10442 0.25639 0.88327 0.0
C3697 C 0.11624 0.302 0.85125 0.0
C3698 C 0.12752 0.28978 0.85174 0.0
C3699 C 0.12382 0.27562 0.86286 0.0
C3700 C 0.14233 0.29059 0.83971 0.0
C3701 C 0.12026 0.31839 0.84074 0.0
C3702 C 0.13812 0.288 0.8203 0.0
C3703 C 0.15181 0.28859 0.8088 0.0
C3704 C 0.1701 0.29167 0.81639 0.0
C3705 C 0.17426 0.29392 0.83586 0.0
C3706 C 0.16049 0.29333 0.84739 0.0
H3707 H 0.11441 0.32977 0.84664 0.0
H3708 H 0.13521 0.32465 0.84098 0.0
H3709 H 0.11394 0.31322 0.82603 0.0
H3710 H 0.12414 0.28532 0.81398 0.0
H3711 H 0.14799 0.28636 0.79388 0.0
H3712 H 0.49598 0.73551 0.87203 0.0
H3713 H 0.49848 0.71169 0.89104 0.0
H3714 H 0.55277 0.74611 0.91522 0.0
H3715 H 0.55044 0.77012 0.89577 0.0
H3716 H 0.52723 0.69173 0.89436 0.0
H3717 H 0.52007 0.73657 0.95956 0.0
H3718 H 0.51311 0.74082 0.93677 0.0
H3719 H 0.53694 0.74715 0.94558 0.0
C3720 C 0.50855 0.73795 0.88127 0.0
C3721 C 0.523 0.7547 0.88252 0.0
C3722 C 0.50995 0.72431 0.89208 0.0
C3723 C 0.5257 0.72723 0.90466 0.0
C3724 C 0.54044 0.74368 0.90565 0.0
H3725 H 0.54091 0.65686 0.98757 0.0
H3726 H 0.5456 0.68175 0.96832 0.0
C3727 C 0.53916 0.7573 0.8945 0.0
C3728 C 0.52612 0.71316 0.91703 0.0
H3729 H 0.52148 0.70563 0.96152 0.0
C3730 C 0.5262 0.69481 0.90909 0.0
C3731 C 0.52451 0.71718 0.93618 0.0
C3732 C 0.52353 0.73644 0.94514 0.0
C3733 C 0.52462 0.68032 0.91978 0.0
C3734 C 0.52269 0.68424 0.93885 0.0
C3735 C 0.523 0.7027 0.9469 0.0
C3736 C 0.5198 0.66919 0.95052 0.0
C3737 C 0.52495 0.66088 0.9106 0.0
C3738 C 0.50361 0.65403 0.94705 0.0
C3739 C 0.50086 0.63983 0.95805 0.0
C3740 C 0.51428 0.64049 0.97271 0.0
C3741 C 0.53042 0.6558 0.97623 0.0
C3742 C 0.53309 0.67008 0.96532 0.0
H3743 H 0.53048 0.66127 0.8971 0.0
H3744 H 0.53333 0.6549 0.91982 0.0
H3745 H 0.5108 0.65115 0.90793 0.0
H3746 H 0.49308 0.65321 0.93584 0.0
H3747 H 0.48834 0.62818 0.9549 0.0
H3748 H 0.0654 0.74699 0.69668 0.0
H3749 H 0.09611 0.74424 0.70533 0.0
H3750 H 0.10792 0.79489 0.74694 0.0
H3751 H 0.07731 0.79755 0.73867 0.0
H3752 H 0.13004 0.7682 0.70467 0.0
H3753 H 0.12196 0.75841 0.77717 0.0
H3754 H 0.10279 0.75663 0.76018 0.0
H3755 H 0.11689 0.77957 0.77228 0.0
C3756 C 0.07451 0.75751 0.70773 0.0
C3757 C 0.06877 0.77243 0.71706 0.0
C3758 C 0.09209 0.75592 0.71266 0.0
C3759 C 0.10427 0.76913 0.72708 0.0
C3760 C 0.09867 0.78421 0.73613 0.0
H3761 H 0.21822 0.80172 0.77058 0.0
H3762 H 0.18605 0.79868 0.76095 0.0
C3763 C 0.08114 0.78579 0.73127 0.0
C3764 C 0.12299 0.76754 0.73243 0.0
H3765 H 0.15271 0.76681 0.76983 0.0
C3766 C 0.1349 0.76763 0.71886 0.0
C3767 C 0.12939 0.76665 0.75094 0.0
C3768 C 0.11703 0.7651 0.76593 0.0
C3769 C 0.15315 0.76768 0.72348 0.0
C3770 C 0.15968 0.76763 0.74212 0.0
C3771 C 0.1477 0.76701 0.75557 0.0
C3772 C 0.17915 0.76909 0.74807 0.0
C3773 C 0.16557 0.76839 0.70857 0.0
C3774 C 0.18593 0.75336 0.74424 0.0
C3775 C 0.20435 0.75498 0.74989 0.0
C3776 C 0.21638 0.77242 0.75937 0.0
C3777 C 0.20943 0.78808 0.76328 0.0
C3778 C 0.19101 0.78639 0.75779 0.0
H3779 H 0.15879 0.76971 0.695 0.0
H3780 H 0.17809 0.78062 0.71291 0.0
H3781 H 0.16992 0.75522 0.70666 0.0
H3782 H 0.17696 0.73985 0.73684 0.0
H3783 H 0.20922 0.74265 0.74656 0.0
H3784 H 0.04956 0.35874 0.37911 0.0
H3785 H 0.05492 0.38977 0.3995 0.0
H3786 H 0.00385 0.36865 0.42055 0.0
H3787 H 0.99855 0.33802 0.40083 0.0
H3788 H 0.03349 0.41523 0.40101 0.0
H3789 H 0.03894 0.39045 0.46829 0.0
H3790 H 0.0407 0.37639 0.44662 0.0
H3791 H 0.01861 0.37637 0.45324 0.0
C3792 C 0.03959 0.36067 0.38824 0.0
C3793 C 0.02367 0.34572 0.38832 0.0
C3794 C 0.04264 0.37844 0.39985 0.0
C3795 C 0.02994 0.38147 0.41186 0.0
C3796 C 0.01408 0.3666 0.41181 0.0
H3797 H 0.99916 0.47054 0.47761 0.0
H3798 H 0.00144 0.44227 0.45683 0.0
C3799 C 0.01104 0.34901 0.40034 0.0
C3800 C 0.03257 0.40019 0.42409 0.0
H3801 H 0.03154 0.42005 0.46903 0.0
C3802 C 0.0334 0.41637 0.41592 0.0
C3803 C 0.03251 0.40177 0.44361 0.0
C3804 C 0.03283 0.38536 0.45348 0.0
C3805 C 0.03323 0.43372 0.4266 0.0
C3806 C 0.0322 0.43492 0.44589 0.0
C3807 C 0.03208 0.41901 0.45418 0.0
C3808 C 0.03081 0.45244 0.45767 0.0
C3809 C 0.03362 0.45057 0.41722 0.0
C3810 C 0.04657 0.46745 0.46506 0.0
C3811 C 0.04531 0.48339 0.47715 0.0
C3812 C 0.02824 0.48473 0.48176 0.0
C3813 C 0.01243 0.46991 0.47405 0.0
C3814 C 0.01374 0.45379 0.46225 0.0
H3815 H 0.0334 0.44708 0.40192 0.0
H3816 H 0.0217 0.45581 0.42007 0.0
H3817 H 0.04618 0.46232 0.42306 0.0
H3818 H 0.05987 0.46665 0.46175 0.0
H3819 H 0.05767 0.49466 0.48299 0.0
H3820 H 0.46353 0.2401 0.23218 0.0
H3821 H 0.43449 0.24106 0.2436 0.0
H3822 H 0.4223 0.26941 0.19887 0.0
H3823 H 0.45069 0.26793 0.18714 0.0
H3824 H 0.42256 0.27072 0.25649 0.0
H3825 H 0.37466 0.22947 0.19417 0.0
H3826 H 0.39847 0.23021 0.19693 0.0
H3827 H 0.3915 0.24928 0.18877 0.0
C3828 C 0.45446 0.24616 0.22456 0.0
C3829 C 0.45941 0.25364 0.20852 0.0
C3830 C 0.43788 0.24682 0.23117 0.0
C3831 C 0.42586 0.25498 0.22194 0.0
C3832 C 0.43088 0.26247 0.20598 0.0
H3833 H 0.34125 0.30242 0.2607 0.0
H3834 H 0.36931 0.29637 0.25143 0.0
C3835 C 0.44727 0.26165 0.19929 0.0
C3836 C 0.40851 0.25648 0.2293 0.0
H3837 H 0.36247 0.24784 0.21657 0.0
C3838 C 0.40942 0.26554 0.24777 0.0
C3839 C 0.39119 0.24965 0.21808 0.0
C3840 C 0.38884 0.23895 0.19846 0.0
C3841 C 0.39375 0.26848 0.25504 0.0
C3842 C 0.37663 0.26227 0.24359 0.0
C3843 C 0.37559 0.25273 0.22534 0.0
C3844 C 0.35975 0.26592 0.25013 0.0
C3845 C 0.39554 0.27815 0.27497 0.0
C3846 C 0.34485 0.25083 0.25241 0.0
C3847 C 0.3287 0.25423 0.25781 0.0
C3848 C 0.32698 0.27283 0.26084 0.0
C3849 C 0.342 0.28791 0.2586 0.0
C3850 C 0.35815 0.2845 0.25333 0.0
H3851 H 0.40894 0.27926 0.28289 0.0
H3852 H 0.39426 0.29272 0.27527 0.0
H3853 H 0.38441 0.27026 0.28206 0.0
H3854 H 0.34569 0.23636 0.24996 0.0
H3855 H 0.31748 0.24224 0.25933 0.0
H3856 H 0.59678 0.5032 0.32861 0.0
H3857 H 0.58445 0.50354 0.3581 0.0
H3858 H 0.57557 0.55796 0.35421 0.0
H3859 H 0.58689 0.55697 0.32378 0.0
H3860 H 0.59751 0.52651 0.38899 0.0
H3861 H 0.52761 0.53106 0.36839 0.0
H3862 H 0.54229 0.52632 0.3515 0.0
H3863 H 0.5454 0.55025 0.36324 0.0
C3864 C 0.59213 0.51521 0.33401 0.0
C3865 C 0.59285 0.53013 0.32407 0.0
C3866 C 0.58504 0.51537 0.35084 0.0
C3867 C 0.57892 0.53068 0.35834 0.0
C3868 C 0.57976 0.54576 0.34848 0.0
H3869 H 0.56541 0.555 0.47453 0.0
H3870 H 0.57446 0.55609 0.44347 0.0
C3871 C 0.5864 0.54531 0.33125 0.0
C3872 C 0.57267 0.53099 0.37694 0.0
H3873 H 0.53687 0.53384 0.4008 0.0
C3874 C 0.58422 0.52809 0.3915 0.0
C3875 C 0.55526 0.53289 0.38021 0.0
C3876 C 0.54185 0.53512 0.36497 0.0
C3877 C 0.57885 0.52691 0.40915 0.0
C3878 C 0.5617 0.52923 0.4125 0.0
C3879 C 0.55009 0.53219 0.39808 0.0
C3880 C 0.55576 0.52865 0.43104 0.0
C3881 C 0.59133 0.52276 0.42406 0.0
C3882 C 0.54228 0.5128 0.4342 0.0
C3883 C 0.53712 0.51205 0.45196 0.0
C3884 C 0.54533 0.52721 0.46677 0.0
C3885 C 0.55888 0.54304 0.46347 0.0
C3886 C 0.56402 0.54375 0.44574 0.0
H3887 H 0.60298 0.51866 0.41846 0.0
H3888 H 0.59689 0.53559 0.43503 0.0
H3889 H 0.58355 0.51109 0.4307 0.0
H3890 H 0.53587 0.50099 0.42296 0.0
H3891 H 0.52659 0.49969 0.45403 0.0
H3892 H 0.29099 0.85498 0.02927 0.0
H3893 H 0.28463 0.83 0.04787 0.0
H3894 H 0.2377 0.84651 0.06433 0.0
H3895 H 0.24423 0.87194 0.04589 0.0
H3896 H 0.26535 0.85363 0.09251 0.0
H3897 H 0.25209 0.77977 0.05584 0.0
H3898 H 0.27053 0.79572 0.04755 0.0
H3899 H 0.24786 0.79838 0.04425 0.0
C3900 C 0.27892 0.85287 0.03631 0.0
C3901 C 0.26848 0.86577 0.03673 0.0
C3902 C 0.27511 0.83835 0.04671 0.0
C3903 C 0.26076 0.83649 0.05757 0.0
C3904 C 0.24884 0.84775 0.056 0.0
H3905 H 0.26564 0.7969 0.16363 0.0
H3906 H 0.25409 0.80606 0.13532 0.0
C3907 C 0.25264 0.86232 0.04554 0.0
C3908 C 0.26169 0.82715 0.0739 0.0
H3909 H 0.26838 0.7872 0.08745 0.0
C3910 C 0.26545 0.83892 0.09145 0.0
C3911 C 0.26225 0.80813 0.07241 0.0
C3912 C 0.25779 0.79475 0.05397 0.0
C3913 C 0.27077 0.83252 0.10745 0.0
C3914 C 0.27196 0.81373 0.10586 0.0
C3915 C 0.26749 0.80164 0.08848 0.0
C3916 C 0.27839 0.80674 0.12217 0.0
C3917 C 0.27612 0.84621 0.12576 0.0
C3918 C 0.29576 0.80388 0.12388 0.0
C3919 C 0.30246 0.79874 0.14008 0.0
C3920 C 0.29184 0.7965 0.15472 0.0
C3921 C 0.27426 0.79894 0.1527 0.0
C3922 C 0.26758 0.80401 0.13653 0.0
H3923 H 0.27727 0.86109 0.124 0.0
H3924 H 0.26563 0.84199 0.13509 0.0
H3925 H 0.2894 0.84575 0.13276 0.0
H3926 H 0.30428 0.80608 0.11288 0.0
H3927 H 0.31605 0.79697 0.14136 0.0
H3928 H 0.91948 0.49959 0.83206 0.0
H3929 H 0.92687 0.48634 0.85941 0.0
H3930 H 0.93036 0.53955 0.89464 0.0
H3931 H 0.92168 0.55219 0.86745 0.0
H3932 H 0.95731 0.49725 0.87807 0.0
H3933 H 0.91083 0.50574 0.929 0.0
H3934 H 0.90531 0.50741 0.90495 0.0
H3935 H 0.91836 0.5282 0.92162 0.0
C3936 C 0.92136 0.5082 0.84576 0.0
C3937 C 0.92032 0.52696 0.84779 0.0
C3938 C 0.92547 0.50061 0.86136 0.0
C3939 C 0.92907 0.51183 0.8792 0.0
C3940 C 0.92708 0.5303 0.8812 0.0
H3941 H 0.02079 0.54154 0.95369 0.0
H3942 H 0.99625 0.53096 0.92749 0.0
C3943 C 0.92241 0.53768 0.86563 0.0
C3944 C 0.93829 0.50595 0.89499 0.0
H3945 H 0.94375 0.51287 0.94241 0.0
C3946 C 0.95391 0.50005 0.89206 0.0
C3947 C 0.93375 0.50889 0.91329 0.0
C3948 C 0.91599 0.51267 0.91728 0.0
C3949 C 0.96618 0.49933 0.90702 0.0
C3950 C 0.9631 0.50536 0.92532 0.0
C3951 C 0.94642 0.50892 0.92831 0.0
C3952 C 0.97804 0.51081 0.94103 0.0
C3953 C 0.98282 0.49309 0.90302 0.0
C3954 C 0.97575 0.50335 0.95748 0.0
C3955 C 0.98972 0.50962 0.97253 0.0
C3956 C 0.00596 0.52357 0.97135 0.0
C3957 C 0.00833 0.53079 0.95485 0.0
C3958 C 0.99439 0.52463 0.93988 0.0
H3959 H 0.97965 0.48216 0.89016 0.0
H3960 H 0.99379 0.50547 0.90069 0.0
H3961 H 0.98801 0.48716 0.91473 0.0
H3962 H 0.96322 0.49271 0.95864 0.0
H3963 H 0.98793 0.50342 0.98497 0.0
H3964 H 0.25759 0.20674 0.55255 0.0
H3965 H 0.25003 0.21976 0.58243 0.0
H3966 H 0.30641 0.25284 0.5987 0.0
H3967 H 0.31405 0.24024 0.56878 0.0
H3968 H 0.26308 0.21497 0.61608 0.0
H3969 H 0.28046 0.29202 0.61432 0.0
H3970 H 0.27791 0.27442 0.59371 0.0
H3971 H 0.29902 0.28253 0.60938 0.0
C3972 C 0.26836 0.21701 0.56236 0.0
C3973 C 0.28645 0.22242 0.55822 0.0
C3974 C 0.26399 0.22445 0.57944 0.0
C3975 C 0.27758 0.23751 0.59272 0.0
C3976 C 0.29558 0.24319 0.58851 0.0
H3977 H 0.29493 0.25861 0.70946 0.0
H3978 H 0.2938 0.251 0.67584 0.0
C3979 C 0.29996 0.23583 0.57141 0.0
C3980 C 0.27336 0.24383 0.6116 0.0
H3981 H 0.27893 0.28317 0.64478 0.0
C3982 C 0.26623 0.22988 0.62221 0.0
C3983 C 0.27729 0.26329 0.61959 0.0
C3984 C 0.28391 0.27892 0.60858 0.0
C3985 C 0.26392 0.23488 0.64086 0.0
C3986 C 0.26899 0.25428 0.64918 0.0
C3987 C 0.27517 0.26828 0.63836 0.0
C3988 C 0.26977 0.26002 0.66951 0.0
C3989 C 0.25661 0.21938 0.65182 0.0
C3990 C 0.2568 0.26803 0.67708 0.0
C3991 C 0.25738 0.27245 0.69647 0.0
C3992 C 0.27094 0.26887 0.70846 0.0
C3993 C 0.28412 0.26129 0.70068 0.0
C3994 C 0.28355 0.25697 0.68144 0.0
H3995 H 0.25011 0.20541 0.64262 0.0
H3996 H 0.26803 0.21794 0.66135 0.0
H3997 H 0.24644 0.22307 0.66044 0.0
H3998 H 0.24607 0.2705 0.66802 0.0
H3999 H 0.24706 0.27829 0.70203 0.0
H4000 H 0.60661 0.54615 0.21952 0.0
H4001 H 0.59489 0.55377 0.19036 0.0
H4002 H 0.54645 0.5063 0.18562 0.0
H4003 H 0.55787 0.49878 0.21489 0.0
H4004 H 0.58582 0.532 0.15539 0.0
H4005 H 0.52509 0.54994 0.17953 0.0
H4006 H 0.54353 0.54781 0.19537 0.0
H4007 H 0.52614 0.52688 0.18331 0.0
C4008 C 0.59346 0.53733 0.21227 0.0
C4009 C 0.58309 0.52194 0.21958 0.0
C4010 C 0.58678 0.54173 0.19565 0.0
C4011 C 0.56963 0.53087 0.18609 0.0
C4012 C 0.55949 0.51519 0.19307 0.0
H4013 H 0.51124 0.51106 0.07889 0.0
H4014 H 0.52216 0.51295 0.11164 0.0
C4015 C 0.56611 0.51082 0.20972 0.0
C4016 C 0.56257 0.5355 0.16846 0.0
H4017 H 0.52556 0.54459 0.14647 0.0
C4018 C 0.5728 0.53508 0.15352 0.0
C4019 C 0.54561 0.53958 0.16612 0.0
C4020 C 0.53454 0.54128 0.182 0.0
C4021 C 0.56609 0.53776 0.13601 0.0
C4022 C 0.54882 0.54108 0.1335 0.0
C4023 C 0.53883 0.54209 0.14855 0.0
C4024 C 0.54026 0.54153 0.11484 0.0
C4025 C 0.57707 0.53618 0.12003 0.0
C4026 C 0.54642 0.55729 0.1061 0.0
C4027 C 0.54008 0.55632 0.08739 0.0
C4028 C 0.52773 0.53949 0.07722 0.0
C4029 C 0.52087 0.52416 0.08637 0.0
C4030 C 0.52703 0.52522 0.10506 0.0
H4031 H 0.5896 0.5321 0.12397 0.0
H4032 H 0.56858 0.52547 0.10814 0.0
H4033 H 0.58118 0.55006 0.11522 0.0
H4034 H 0.55666 0.56998 0.11354 0.0
H4035 H 0.54564 0.5683 0.08064 0.0
H4036 H 0.26383 0.90145 0.95762 0.0
H4037 H 0.2573 0.88177 0.92664 0.0
H4038 H 0.30657 0.8654 0.93708 0.0
H4039 H 0.31342 0.88521 0.96791 0.0
H4040 H 0.30036 0.87388 0.90137 0.0
H4041 H 0.23917 0.82314 0.91981 0.0
H4042 H 0.23932 0.84766 0.92348 0.0
H4043 H 0.25603 0.84045 0.93708 0.0
C4044 C 0.27338 0.89382 0.95327 0.0
C4045 C 0.28901 0.89466 0.96533 0.0
C4046 C 0.26956 0.88252 0.93563 0.0
C4047 C 0.28122 0.87182 0.92988 0.0
C4048 C 0.29733 0.87345 0.94143 0.0
H4049 H 0.27267 0.77937 0.83988 0.0
H4050 H 0.27322 0.79775 0.87087 0.0
C4051 C 0.30123 0.8848 0.95902 0.0
C4052 C 0.27648 0.8585 0.91203 0.0
H4053 H 0.24531 0.81764 0.88864 0.0
C4054 C 0.28833 0.86161 0.89856 0.0
C4055 C 0.26088 0.84239 0.90862 0.0
C4056 C 0.24816 0.83804 0.92304 0.0
C4057 C 0.28487 0.84909 0.88158 0.0
C4058 C 0.26909 0.83322 0.87802 0.0
C4059 C 0.25731 0.82994 0.89151 0.0
C4060 C 0.26479 0.82016 0.8601 0.0
C4061 C 0.29816 0.85276 0.86755 0.0
C4062 C 0.25914 0.82645 0.84411 0.0
C4063 C 0.2591 0.81623 0.82663 0.0
C4064 C 0.2644 0.79948 0.82501 0.0
C4065 C 0.26847 0.79225 0.84098 0.0
C4066 C 0.26878 0.80267 0.85856 0.0
H4067 H 0.31104 0.86401 0.87356 0.0
H4068 H 0.30156 0.83952 0.86217 0.0
H4069 H 0.29176 0.85737 0.85557 0.0
H4070 H 0.25595 0.83988 0.84516 0.0
H4071 H 0.25579 0.82188 0.81437 0.0
H4072 H 0.91973 0.53994 0.73829 0.0
H4073 H 0.92689 0.52854 0.7076 0.0
H4074 H 0.92103 0.47304 0.72186 0.0
H4075 H 0.91386 0.48424 0.7526 0.0
H4076 H 0.95914 0.5106 0.70794 0.0
H4077 H 0.89352 0.46629 0.66537 0.0
H4078 H 0.89425 0.48611 0.68329 0.0
H4079 H 0.89776 0.46483 0.68966 0.0
C4080 C 0.91967 0.52523 0.7348 0.0
C4081 C 0.91653 0.51307 0.74793 0.0
C4082 C 0.92366 0.51874 0.71727 0.0
C4083 C 0.92434 0.49996 0.71256 0.0
C4084 C 0.92034 0.48751 0.72526 0.0
H4085 H 0.97693 0.45654 0.62123 0.0
H4086 H 0.95965 0.45715 0.64795 0.0
C4087 C 0.91643 0.49401 0.74284 0.0
C4088 C 0.93185 0.49435 0.69556 0.0
H4089 H 0.92038 0.47013 0.65089 0.0
C4090 C 0.95072 0.50162 0.69551 0.0
C4091 C 0.92073 0.48249 0.67956 0.0
C4092 C 0.9004 0.47442 0.67928 0.0
C4093 C 0.95879 0.49773 0.6796 0.0
C4094 C 0.94763 0.48649 0.66334 0.0
C4095 C 0.9288 0.47871 0.66349 0.0
C4096 C 0.95533 0.4844 0.64576 0.0
C4097 C 0.97913 0.50612 0.68002 0.0
C4098 C 0.95824 0.49939 0.63573 0.0
C4099 C 0.96815 0.49918 0.62071 0.0
C4100 C 0.97529 0.48393 0.61545 0.0
C4101 C 0.9717 0.46853 0.6251 0.0
C4102 C 0.96174 0.46876 0.64019 0.0
H4103 H 0.98619 0.51212 0.69441 0.0
H4104 H 0.98525 0.49514 0.67374 0.0
H4105 H 0.98165 0.51768 0.67165 0.0
H4106 H 0.95353 0.51165 0.64006 0.0
H4107 H 0.97093 0.5114 0.61378 0.0
H4108 H 0.31369 0.24714 0.47382 0.0
H4109 H 0.31073 0.26042 0.44546 0.0
H4110 H 0.25696 0.22095 0.42879 0.0
H4111 H 0.25967 0.20755 0.45714 0.0
H4112 H 0.28627 0.22078 0.4034 0.0
H4113 H 0.27623 0.29195 0.42529 0.0
H4114 H 0.29234 0.28472 0.43984 0.0
H4115 H 0.26843 0.27248 0.43765 0.0
C4116 C 0.30104 0.24153 0.46436 0.0
C4117 C 0.28699 0.22612 0.46772 0.0
C4118 C 0.29937 0.24921 0.44818 0.0
C4119 C 0.28363 0.24166 0.43508 0.0
C4120 C 0.26919 0.227 0.4388 0.0
H4121 H 0.2548 0.24951 0.32067 0.0
H4122 H 0.25581 0.24269 0.35229 0.0
C4123 C 0.27078 0.21937 0.45504 0.0
C4124 C 0.28322 0.24742 0.41656 0.0
H4125 H 0.28053 0.28388 0.39387 0.0
C4126 C 0.28493 0.23454 0.40128 0.0
C4127 C 0.2817 0.26545 0.41396 0.0
C4128 C 0.27948 0.27952 0.42997 0.0
C4129 C 0.28522 0.23923 0.38343 0.0
C4130 C 0.28348 0.25717 0.38073 0.0
C4131 C 0.28189 0.27016 0.39602 0.0
C4132 C 0.2827 0.26224 0.36192 0.0
C4133 C 0.28765 0.22512 0.36754 0.0
C4134 C 0.29744 0.2757 0.35694 0.0
C4135 C 0.29695 0.27964 0.3388 0.0
C4136 C 0.28169 0.27017 0.32536 0.0
C4137 C 0.26687 0.2569 0.33056 0.0
C4138 C 0.26737 0.25302 0.34865 0.0
H4139 H 0.29179 0.21323 0.37246 0.0
H4140 H 0.27456 0.21904 0.35809 0.0
H4141 H 0.29813 0.23231 0.35935 0.0
H4142 H 0.30942 0.28292 0.36701 0.0
H4143 H 0.30856 0.28999 0.33528 0.0
H4144 H 0.34962 0.64754 0.52553 0.0
H4145 H 0.36937 0.62748 0.51908 0.0
H4146 H 0.34063 0.58848 0.55224 0.0
H4147 H 0.31984 0.60794 0.55773 0.0
H4148 H 0.39149 0.61113 0.5337 0.0
H4149 H 0.32705 0.55576 0.50193 0.0
H4150 H 0.32754 0.5797 0.51139 0.0
H4151 H 0.32812 0.56274 0.52656 0.0
C4152 C 0.34779 0.63499 0.53193 0.0
C4153 C 0.33278 0.62885 0.54152 0.0
C4154 C 0.35911 0.62351 0.5282 0.0
C4155 C 0.35581 0.60604 0.53441 0.0
C4156 C 0.34278 0.6015 0.54661 0.0
H4157 H 0.40447 0.51593 0.51104 0.0
H4158 H 0.38508 0.5357 0.5214 0.0
C4159 C 0.33108 0.61273 0.54992 0.0
C4160 C 0.36433 0.59179 0.52612 0.0
H4161 H 0.35439 0.5471 0.50051 0.0
C4162 C 0.38338 0.59714 0.52647 0.0
C4163 C 0.35361 0.5737 0.51624 0.0
C4164 C 0.33295 0.56768 0.5138 0.0
C4165 C 0.39206 0.58476 0.51744 0.0
C4166 C 0.38137 0.56656 0.50813 0.0
C4167 C 0.36239 0.56113 0.50776 0.0
C4168 C 0.38991 0.55258 0.49964 0.0
C4169 C 0.41258 0.59114 0.51799 0.0
C4170 C 0.39814 0.55509 0.48348 0.0
C4171 C 0.40908 0.54376 0.47751 0.0
C4172 C 0.41162 0.52981 0.48759 0.0
C4173 C 0.40224 0.52638 0.50289 0.0
C4174 C 0.39136 0.53771 0.50887 0.0
H4175 H 0.41903 0.60489 0.52757 0.0
H4176 H 0.41862 0.5802 0.52241 0.0
H4177 H 0.416 0.59292 0.50382 0.0
H4178 H 0.39698 0.56651 0.4762 0.0
H4179 H 0.41658 0.54677 0.4659 0.0
H4180 H 0.81288 0.91941 0.50207 0.0
H4181 H 0.84373 0.93841 0.49904 0.0
H4182 H 0.86538 0.91997 0.54706 0.0
H4183 H 0.83478 0.9004 0.54969 0.0
H4184 H 0.86659 0.96767 0.52226 0.0
H4185 H 0.89932 0.90981 0.5112 0.0
H4186 H 0.87488 0.90519 0.51021 0.0
H4187 H 0.88913 0.91014 0.5323 0.0
C4188 C 0.82428 0.91923 0.51182 0.0
C4189 C 0.82149 0.90829 0.526 0.0
C4190 C 0.84186 0.93012 0.51011 0.0
C4191 C 0.85691 0.93035 0.52263 0.0
C4192 C 0.85408 0.91957 0.53691 0.0
H4193 H 0.96158 0.01791 0.54504 0.0
H4194 H 0.93015 0.99857 0.54512 0.0
C4195 C 0.83656 0.90845 0.53844 0.0
C4196 C 0.87545 0.94241 0.5212 0.0
H4197 H 0.91946 0.94146 0.51911 0.0
C4198 C 0.87814 0.96192 0.52139 0.0
C4199 C 0.89045 0.93485 0.51981 0.0
C4200 C 0.88828 0.91382 0.51816 0.0
C4201 C 0.89548 0.97417 0.52056 0.0
C4202 C 0.91064 0.96676 0.52014 0.0
C4203 C 0.90788 0.94719 0.51964 0.0
C4204 C 0.9295 0.9789 0.51996 0.0
C4205 C 0.89725 0.99479 0.5198 0.0
C4206 C 0.93979 0.97396 0.50614 0.0
C4207 C 0.95787 0.98466 0.50637 0.0
C4208 C 0.96595 0.00067 0.5203 0.0
C4209 C 0.95561 0.00576 0.53402 0.0
C4210 C 0.93761 0.99481 0.53399 0.0
H4211 H 0.88404 0.99673 0.51427 0.0
H4212 H 0.90137 0.00323 0.53407 0.0
H4213 H 0.90773 0.00058 0.51096 0.0
H4214 H 0.93384 0.96173 0.4952 0.0
H4215 H 0.96549 0.98047 0.49556 0.0
H4216 H 0.89355 0.07852 0.30698 0.0
H4217 H 0.8752 0.10006 0.30305 0.0
H4218 H 0.8842 0.0977 0.24561 0.0
H4219 H 0.90287 0.07597 0.24936 0.0
H4220 H 0.88936 0.13703 0.28925 0.0
H4221 H 0.82639 0.08598 0.24751 0.0
H4222 H 0.84199 0.0782 0.26226 0.0
H4223 H 0.84841 0.08551 0.24094 0.0
C4224 C 0.8916 0.08239 0.29342 0.0
C4225 C 0.89975 0.07549 0.27847 0.0
C4226 C 0.8811 0.09475 0.29124 0.0
C4227 C 0.87836 0.10037 0.27407 0.0
C4228 C 0.88613 0.09336 0.25895 0.0
H4229 H 0.81038 0.17371 0.2496 0.0
H4230 H 0.83038 0.15304 0.24642 0.0
C4231 C 0.89678 0.08099 0.26113 0.0
C4232 C 0.86783 0.11414 0.27247 0.0
H4233 H 0.8257 0.11741 0.25709 0.0
C4234 C 0.87551 0.13284 0.28205 0.0
C4235 C 0.84983 0.10855 0.26304 0.0
C4236 C 0.84101 0.08846 0.25287 0.0
C4237 C 0.86548 0.14608 0.28277 0.0
C4238 C 0.84718 0.14029 0.274 0.0
C4239 C 0.83972 0.12175 0.26385 0.0
C4240 C 0.83531 0.15299 0.27592 0.0
C4241 C 0.87453 0.16611 0.29301 0.0
C4242 C 0.8313 0.15957 0.29355 0.0
C4243 C 0.81996 0.17141 0.29542 0.0
C4244 C 0.81233 0.17681 0.27968 0.0
C4245 C 0.81624 0.17001 0.26201 0.0
C4246 C 0.82757 0.15813 0.26015 0.0
H4247 H 0.88968 0.16971 0.29411 0.0
H4248 H 0.86996 0.17663 0.28596 0.0
H4249 H 0.8708 0.16744 0.30733 0.0
H4250 H 0.83688 0.15547 0.30586 0.0
H4251 H 0.81736 0.17653 0.30923 0.0
H4252 H 0.73813 0.1189 0.07053 0.0
H4253 H 0.70521 0.10522 0.07065 0.0
H4254 H 0.69566 0.10516 0.01178 0.0
H4255 H 0.7284 0.11877 0.01142 0.0
H4256 H 0.67247 0.12168 0.03839 0.0
H4257 H 0.67597 0.04822 0.04245 0.0
H4258 H 0.69219 0.06817 0.0576 0.0
H4259 H 0.69327 0.06482 0.03305 0.0
C4260 C 0.72902 0.11596 0.05761 0.0
C4261 C 0.73583 0.11978 0.04094 0.0
C4262 C 0.71029 0.10818 0.05773 0.0
C4263 C 0.69823 0.10415 0.0412 0.0
C4264 C 0.7049 0.10821 0.02463 0.0
H4265 H 0.58453 0.06368 8e-05 0.0
H4266 H 0.61764 0.0779 0.00582 0.0
C4267 C 0.72358 0.11595 0.02447 0.0
C4268 C 0.67857 0.09544 0.04094 0.0
H4269 H 0.64681 0.05278 0.03923 0.0
C4270 C 0.66679 0.10667 0.03875 0.0
C4271 C 0.67143 0.07593 0.04153 0.0
C4272 C 0.68378 0.06345 0.04373 0.0
C4273 C 0.64781 0.09872 0.03682 0.0
C4274 C 0.6406 0.07898 0.03656 0.0
C4275 C 0.65244 0.06789 0.03935 0.0
C4276 C 0.6208 0.06943 0.0327 0.0
C4277 C 0.63573 0.11157 0.03509 0.0
C4278 C 0.61185 0.05906 0.04544 0.0
C4279 C 0.593 0.05052 0.04197 0.0
C4280 C 0.58293 0.05246 0.02581 0.0
C4281 C 0.592 0.06231 0.0128 0.0
C4282 C 0.61085 0.07053 0.01612 0.0
H4283 H 0.64311 0.12657 0.04139 0.0
H4284 H 0.63146 0.11118 0.02014 0.0
H4285 H 0.62326 0.10692 0.04188 0.0
H4286 H 0.61939 0.0579 0.05822 0.0
H4287 H 0.58624 0.04297 0.05219 0.0
H4288 H 0.17311 0.47063 0.23502 0.0
H4289 H 0.19657 0.45431 0.23862 0.0
H4290 H 0.23483 0.50667 0.26812 0.0
H4291 H 0.21119 0.5229 0.2652 0.0
H4292 H 0.23271 0.45696 0.23351 0.0
H4293 H 0.22428 0.47361 0.30823 0.0
H4294 H 0.2097 0.47803 0.2898 0.0
H4295 H 0.23227 0.49403 0.29744 0.0
C4296 C 0.18672 0.4788 0.24166 0.0
C4297 C 0.1903 0.49783 0.25029 0.0
C4298 C 0.20009 0.46948 0.24372 0.0
C4299 C 0.21714 0.47922 0.25418 0.0
C4300 C 0.22153 0.49887 0.26046 0.0
H4301 H 0.29705 0.42455 0.29456 0.0
H4302 H 0.28327 0.44914 0.28672 0.0
C4303 C 0.20808 0.50811 0.25873 0.0
C4304 C 0.22885 0.46829 0.26113 0.0
H4305 H 0.24383 0.45496 0.3009 0.0
C4306 C 0.2354 0.45673 0.24824 0.0
C4307 C 0.23189 0.46775 0.28038 0.0
C4308 C 0.22405 0.47886 0.29478 0.0
C4309 C 0.24483 0.44445 0.25413 0.0
C4310 C 0.24781 0.44396 0.27331 0.0
C4311 C 0.24165 0.45575 0.28624 0.0
C4312 C 0.25585 0.42997 0.27997 0.0
C4313 C 0.25099 0.43153 0.23988 0.0
C4314 C 0.24469 0.41147 0.27944 0.0
C4315 C 0.2524 0.39756 0.28408 0.0
C4316 C 0.2714 0.40196 0.28918 0.0
C4317 C 0.28238 0.42082 0.29073 0.0
C4318 C 0.2746 0.43479 0.28614 0.0
H4319 H 0.24954 0.43521 0.22577 0.0
H4320 H 0.2655 0.4323 0.244 0.0
H4321 H 0.24264 0.4166 0.23926 0.0
H4322 H 0.23012 0.40771 0.2749 0.0
H4323 H 0.24359 0.3832 0.28312 0.0
H4324 H 0.21734 0.38322 0.00143 0.0
H4325 H 0.1944 0.39837 0.99101 0.0
H4326 H 0.20076 0.43065 0.04629 0.0
H4327 H 0.2236 0.41578 0.0568 0.0
H4328 H 0.16042 0.40165 0.0053 0.0
H4329 H 0.2133 0.4709 0.01147 0.0
H4330 H 0.21884 0.44866 0.01061 0.0
H4331 H 0.2141 0.46046 0.03204 0.0
C4332 C 0.21365 0.39335 0.01142 0.0
C4333 C 0.22243 0.39847 0.02991 0.0
C4334 C 0.20059 0.40199 0.00543 0.0
C4335 C 0.19623 0.41587 0.01781 0.0
C4336 C 0.20424 0.42021 0.03646 0.0
H4337 H 0.1281 0.4827 0.03943 0.0
H4338 H 0.1472 0.46125 0.03637 0.0
C4339 C 0.21723 0.41163 0.04245 0.0
C4340 C 0.18384 0.4265 0.01142 0.0
H4341 H 0.18217 0.47192 0.0111 0.0
C4342 C 0.16518 0.41695 0.00613 0.0
C4343 C 0.19019 0.44641 0.01224 0.0
C4344 C 0.21024 0.4572 0.01671 0.0
C4345 C 0.1525 0.42711 0.00308 0.0
C4346 C 0.15874 0.44714 0.00544 0.0
C4347 C 0.1775 0.45652 0.00942 0.0
C4348 C 0.14599 0.4588 0.0065 0.0
C4349 C 0.13242 0.41663 0.99836 0.0
C4350 C 0.13906 0.46443 0.99063 0.0
C4351 C 0.12805 0.47671 0.99231 0.0
C4352 C 0.1239 0.48344 0.0099 0.0
C4353 C 0.13079 0.47752 0.02567 0.0
C4354 C 0.14175 0.46534 0.02397 0.0
H4355 H 0.12987 0.40094 0.99561 0.0
H4356 H 0.12509 0.42044 0.01008 0.0
H4357 H 0.1266 0.42103 0.98591 0.0
H4358 H 0.14234 0.45954 0.97705 0.0
H4359 H 0.12281 0.48093 0.97991 0.0
H4360 H 0.88355 0.98866 0.29981 0.0
H4361 H 0.86352 0.95605 0.29192 0.0
H4362 H 0.88727 0.94752 0.24136 0.0
H4363 H 0.90751 0.98029 0.24908 0.0
H4364 H 0.84195 0.93458 0.24405 0.0
H4365 H 0.88952 0.90821 0.28773 0.0
H4366 H 0.88679 0.93132 0.29576 0.0
H4367 H 0.89762 0.92762 0.2754 0.0
C4368 C 0.8845 0.97995 0.28694 0.0
C4369 C 0.89724 0.98709 0.27513 0.0
C4370 C 0.87298 0.96135 0.28244 0.0
C4371 C 0.87398 0.9495 0.2661 0.0
C4372 C 0.8863 0.95658 0.254 0.0
H4373 H 0.82824 0.82667 0.25319 0.0
H4374 H 0.84724 0.85835 0.25076 0.0
C4375 C 0.89784 0.97528 0.25846 0.0
C4376 C 0.86278 0.92939 0.26243 0.0
H4377 H 0.86033 0.88712 0.27653 0.0
C4378 C 0.84597 0.92407 0.25093 0.0
C4379 C 0.86826 0.91579 0.27127 0.0
C4380 C 0.88656 0.92085 0.2832 0.0
C4381 C 0.83418 0.90544 0.24843 0.0
C4382 C 0.83919 0.89202 0.25815 0.0
C4383 C 0.85636 0.89734 0.26916 0.0
C4384 C 0.82683 0.87257 0.25762 0.0
C4385 C 0.8166 0.90038 0.2353 0.0
C4386 C 0.80893 0.86987 0.26209 0.0
C4387 C 0.79789 0.85166 0.26301 0.0
C4388 C 0.8048 0.83595 0.26012 0.0
C4389 C 0.82265 0.8386 0.25561 0.0
C4390 C 0.83349 0.85669 0.2542 0.0
H4391 H 0.81789 0.90943 0.22437 0.0
H4392 H 0.81249 0.88523 0.22842 0.0
H4393 H 0.80555 0.90293 0.24322 0.0
H4394 H 0.80363 0.88189 0.26543 0.0
H4395 H 0.78424 0.84998 0.26671 0.0
H4396 H 0.67803 0.0901 0.78444 0.0
H4397 H 0.69851 0.1196 0.7785 0.0
H4398 H 0.69104 0.09606 0.72001 0.0
H4399 H 0.67032 0.06662 0.72566 0.0
H4400 H 0.7314 0.1225 0.76253 0.0
H4401 H 0.68165 0.14824 0.72103 0.0
H4402 H 0.67451 0.1305 0.73543 0.0
H4403 H 0.6819 0.12417 0.71344 0.0
C4404 C 0.6806 0.09123 0.77029 0.0
C4405 C 0.6726 0.07598 0.75555 0.0
C4406 C 0.69232 0.10805 0.76694 0.0
C4407 C 0.69617 0.10992 0.74883 0.0
C4408 C 0.68802 0.09491 0.73404 0.0
H4409 H 0.76529 0.21697 0.72324 0.0
H4410 H 0.75136 0.1822 0.71869 0.0
C4411 C 0.67625 0.07809 0.73734 0.0
C4412 C 0.70925 0.12742 0.74566 0.0
H4413 H 0.71215 0.16735 0.72687 0.0
C4414 C 0.72729 0.1322 0.75451 0.0
C4415 C 0.70379 0.13988 0.73505 0.0
C4416 C 0.68439 0.1356 0.72577 0.0
C4417 C 0.73984 0.14964 0.75376 0.0
C4418 C 0.7341 0.16245 0.74394 0.0
C4419 C 0.71644 0.15724 0.73415 0.0
C4420 C 0.74469 0.18252 0.74682 0.0
C4421 C 0.75885 0.1547 0.7642 0.0
C4422 C 0.74542 0.19382 0.76407 0.0
C4423 C 0.75282 0.21338 0.76648 0.0
C4424 C 0.75979 0.22182 0.75175 0.0
C4425 C 0.75991 0.21053 0.7347 0.0
C4426 C 0.75207 0.19084 0.73214 0.0
H4427 H 0.76274 0.14179 0.76664 0.0
H4428 H 0.76907 0.1631 0.7565 0.0
H4429 H 0.75935 0.16352 0.77794 0.0
H4430 H 0.73955 0.18756 0.77543 0.0
H4431 H 0.75288 0.22196 0.77979 0.0
loop_
_geom_bond_atom_site_label_1
_geom_bond_atom_site_label_2
_geom_bond_distance
_geom_bond_site_symmetry_2
_ccdc_geom_bond_type
Mg0 O1 2.028 . S
Mg0 O7 1.986 . S
Mg0 O9 2.114 . S
Mg0 O10 2.251 1_455 S
Mg0 O13 2.010 . S
O1 Mg0 2.028 . S
O1 C4 1.250 . S
O2 Mg3 2.028 1_455 S
O2 C4 1.248 . S
Mg3 O2 2.028 1_655 S
Mg3 O8 2.032 1_655 S
Mg3 O10 2.079 . S
C4 O1 1.250 . S
C4 O2 1.248 . S
C5 O6 1.264 . S
C5 O13 1.249 . S
O6 C5 1.264 . S
O7 Mg0 1.986 . S
O7 C11 1.246 . S
O8 Mg3 2.032 1_455 S
O8 C11 1.259 . S
O9 Mg0 2.114 . S
O9 C12 1.252 1_455 S
O10 Mg0 2.251 1_655 S
O10 Mg3 2.079 . S
O10 C12 1.273 . S
C11 O7 1.246 . S
C11 O8 1.259 . S
C12 O9 1.252 1_655 S
C12 O10 1.273 . S
O13 Mg0 2.010 . S
O13 C5 1.249 . S
Mg14 O15 2.028 . S
Mg14 O21 1.986 . S
Mg14 O23 2.114 . S
Mg14 O24 2.251 1_455 S
Mg14 O27 2.010 . S
O15 Mg14 2.028 . S
O15 C18 1.250 . S
O16 Mg17 2.028 . S
O16 C18 1.248 1_655 S
Mg17 O16 2.028 . S
Mg17 O22 2.032 1_655 S
Mg17 O24 2.079 . S
C18 O15 1.250 . S
C18 O16 1.248 1_455 S
C19 O20 1.264 . S
C19 O27 1.249 . S
O20 C19 1.264 . S
O21 Mg14 1.986 . S
O21 C25 1.246 . S
O22 Mg17 2.032 1_455 S
O22 C25 1.259 . S
O23 Mg14 2.114 . S
O23 C26 1.252 1_455 S
O24 Mg14 2.251 1_655 S
O24 Mg17 2.079 . S
O24 C26 1.273 . S
C25 O21 1.246 . S
C25 O22 1.259 . S
C26 O23 1.252 1_655 S
C26 O24 1.273 . S
O27 Mg14 2.010 . S
O27 C19 1.249 . S
Mg28 O29 2.028 . S
Mg28 O35 1.986 . S
Mg28 O37 2.114 . S
Mg28 O38 2.251 . S
Mg28 O41 2.010 . S
O29 Mg28 2.028 . S
O29 C32 1.250 . S
O30 Mg31 2.028 . S
O30 C32 1.248 . S
Mg31 O30 2.028 . S
Mg31 O36 2.032 . S
Mg31 O38 2.079 . S
C32 O29 1.250 . S
C32 O30 1.248 . S
C33 O34 1.264 . S
C33 O41 1.249 . S
O34 C33 1.264 . S
O35 Mg28 1.986 . S
O35 C39 1.246 . S
O36 Mg31 2.032 . S
O36 C39 1.259 . S
O37 Mg28 2.114 . S
O37 C40 1.252 . S
O38 Mg28 2.251 . S
O38 Mg31 2.079 . S
O38 C40 1.273 . S
C39 O35 1.246 . S
C39 O36 1.259 . S
C40 O37 1.252 . S
C40 O38 1.273 . S
O41 Mg28 2.010 . S
O41 C33 1.249 . S
Mg42 O43 2.028 . S
Mg42 O49 1.986 . S
Mg42 O51 2.114 . S
Mg42 O52 2.251 . S
Mg42 O55 2.010 . S
O43 Mg42 2.028 . S
O43 C46 1.250 . S
O44 Mg45 2.028 . S
O44 C46 1.248 . S
Mg45 O44 2.028 . S
Mg45 O50 2.032 . S
Mg45 O52 2.079 . S
C46 O43 1.250 . S
C46 O44 1.248 . S
C47 O48 1.264 . S
C47 O55 1.249 . S
O48 C47 1.264 . S
O49 Mg42 1.986 . S
O49 C53 1.246 . S
O50 Mg45 2.032 . S
O50 C53 1.259 . S
O51 Mg42 2.114 . S
O51 C54 1.252 . S
O52 Mg42 2.251 . S
O52 Mg45 2.079 . S
O52 C54 1.273 . S
C53 O49 1.246 . S
C53 O50 1.259 . S
C54 O51 1.252 . S
C54 O52 1.273 . S
O55 Mg42 2.010 . S
O55 C47 1.249 . S
Mg56 O57 2.028 . S
Mg56 O63 1.986 . S
Mg56 O65 2.114 . S
Mg56 O66 2.251 . S
Mg56 O69 2.010 . S
O57 Mg56 2.028 . S
O57 C60 1.250 . S
O58 Mg59 2.028 . S
O58 C60 1.248 . S
Mg59 O58 2.028 . S
Mg59 O64 2.032 . S
Mg59 O66 2.079 . S
C60 O57 1.250 . S
C60 O58 1.248 . S
C61 O62 1.264 . S
C61 O69 1.249 . S
O62 C61 1.264 . S
O63 Mg56 1.986 . S
O63 C67 1.246 . S
O64 Mg59 2.032 . S
O64 C67 1.259 . S
O65 Mg56 2.114 . S
O65 C68 1.252 . S
O66 Mg56 2.251 . S
O66 Mg59 2.079 . S
O66 C68 1.273 . S
C67 O63 1.246 . S
C67 O64 1.259 . S
C68 O65 1.252 . S
C68 O66 1.273 . S
O69 Mg56 2.010 . S
O69 C61 1.249 . S
Mg70 O71 2.028 . S
Mg70 O77 1.986 . S
Mg70 O79 2.114 . S
Mg70 O80 2.251 . S
Mg70 O83 2.010 . S
O71 Mg70 2.028 . S
O71 C74 1.250 . S
O72 Mg73 2.028 . S
O72 C74 1.248 . S
Mg73 O72 2.028 . S
Mg73 O78 2.032 . S
Mg73 O80 2.079 . S
C74 O71 1.250 . S
C74 O72 1.248 . S
C75 O76 1.264 . S
C75 O83 1.249 . S
O76 C75 1.264 . S
O77 Mg70 1.986 . S
O77 C81 1.246 . S
O78 Mg73 2.032 . S
O78 C81 1.259 . S
O79 Mg70 2.114 . S
O79 C82 1.252 . S
O80 Mg70 2.251 . S
O80 Mg73 2.079 . S
O80 C82 1.273 . S
C81 O77 1.246 . S
C81 O78 1.259 . S
C82 O79 1.252 . S
C82 O80 1.273 . S
O83 Mg70 2.010 . S
O83 C75 1.249 . S
Mg84 O85 2.028 . S
Mg84 O91 1.986 . S
Mg84 O93 2.114 . S
Mg84 O94 2.251 . S
Mg84 O97 2.010 . S
O85 Mg84 2.028 . S
O85 C88 1.250 . S
O86 Mg87 2.028 . S
O86 C88 1.248 . S
Mg87 O86 2.028 . S
Mg87 O92 2.032 . S
Mg87 O94 2.079 . S
C88 O85 1.250 . S
C88 O86 1.248 . S
C89 O90 1.264 . S
C89 O97 1.249 . S
O90 C89 1.264 . S
O91 Mg84 1.986 . S
O91 C95 1.246 . S
O92 Mg87 2.032 . S
O92 C95 1.259 . S
O93 Mg84 2.114 . S
O93 C96 1.252 . S
O94 Mg84 2.251 . S
O94 Mg87 2.079 . S
O94 C96 1.273 . S
C95 O91 1.246 . S
C95 O92 1.259 . S
C96 O93 1.252 . S
C96 O94 1.273 . S
O97 Mg84 2.010 . S
O97 C89 1.249 . S
Mg98 O99 2.028 1_655 S
Mg98 O105 1.986 1_655 S
Mg98 O107 2.114 . S
Mg98 O108 2.251 . S
Mg98 O111 2.010 1_655 S
O99 Mg98 2.028 1_455 S
O99 C102 1.268 . S
O100 Mg101 2.028 . S
O100 C102 1.224 1_655 S
Mg101 O100 2.028 . S
Mg101 O106 2.032 . S
Mg101 O108 2.079 . S
C102 O99 1.268 . S
C102 O100 1.224 1_455 S
C103 O104 1.264 . S
C103 O111 1.249 . S
O104 C103 1.264 . S
O105 Mg98 1.986 1_455 S
O105 C109 1.246 1_455 S
O106 Mg101 2.032 . S
O106 C109 1.259 . S
O107 Mg98 2.114 . S
O107 C110 1.252 . S
O108 Mg98 2.251 . S
O108 Mg101 2.079 . S
O108 C110 1.273 . S
C109 O105 1.246 1_655 S
C109 O106 1.259 . S
C110 O107 1.252 . S
C110 O108 1.273 . S
O111 Mg98 2.010 1_455 S
O111 C103 1.249 . S
Mg112 O113 2.028 1_545 S
Mg112 O119 1.986 . S
Mg112 O121 2.114 . S
Mg112 O122 2.251 . S
Mg112 O125 2.010 . S
O113 Mg112 2.028 1_565 S
O113 C116 1.250 . S
O114 Mg115 2.028 1_565 S
O114 C116 1.248 . S
Mg115 O114 2.028 1_545 S
Mg115 O120 2.032 . S
Mg115 O122 2.079 . S
C116 O113 1.250 . S
C116 O114 1.248 . S
C117 O118 1.264 . S
C117 O125 1.249 . S
O118 C117 1.264 . S
O119 Mg112 1.986 . S
O119 C123 1.246 . S
O120 Mg115 2.032 . S
O120 C123 1.259 . S
O121 Mg112 2.114 . S
O121 C124 1.252 . S
O122 Mg112 2.251 . S
O122 Mg115 2.079 . S
O122 C124 1.273 . S
C123 O119 1.246 . S
C123 O120 1.259 . S
C124 O121 1.252 . S
C124 O122 1.273 . S
O125 Mg112 2.010 . S
O125 C117 1.249 . S
Mg126 O127 2.028 . S
Mg126 O133 1.986 . S
Mg126 O135 2.114 . S
Mg126 O136 2.251 . S
Mg126 O139 2.010 . S
O127 Mg126 2.028 . S
O127 C130 1.250 . S
O128 Mg129 2.028 . S
O128 C130 1.248 . S
Mg129 O128 2.028 . S
Mg129 O134 2.032 . S
Mg129 O136 2.079 . S
C130 O127 1.250 . S
C130 O128 1.248 . S
C131 O132 1.264 . S
C131 O139 1.249 . S
O132 C131 1.264 . S
O133 Mg126 1.986 . S
O133 C137 1.246 . S
O134 Mg129 2.032 . S
O134 C137 1.259 . S
O135 Mg126 2.114 . S
O135 C138 1.252 . S
O136 Mg126 2.251 . S
O136 Mg129 2.079 . S
O136 C138 1.273 . S
C137 O133 1.246 . S
C137 O134 1.259 . S
C138 O135 1.252 . S
C138 O136 1.273 . S
O139 Mg126 2.010 . S
O139 C131 1.249 . S
Mg140 O141 2.028 . S
Mg140 O147 1.986 . S
Mg140 O149 2.114 . S
Mg140 O150 2.251 . S
Mg140 O153 2.010 . S
O141 Mg140 2.028 . S
O141 C144 1.250 . S
O142 Mg143 2.028 . S
O142 C144 1.248 . S
Mg143 O142 2.028 . S
Mg143 O148 2.032 . S
Mg143 O150 2.079 . S
C144 O141 1.250 . S
C144 O142 1.248 . S
C145 O146 1.264 . S
C145 O153 1.249 . S
O146 C145 1.264 . S
O147 Mg140 1.986 . S
O147 C151 1.246 . S
O148 Mg143 2.032 . S
O148 C151 1.259 . S
O149 Mg140 2.114 . S
O149 C152 1.252 . S
O150 Mg140 2.251 . S
O150 Mg143 2.079 . S
O150 C152 1.273 . S
C151 O147 1.246 . S
C151 O148 1.259 . S
C152 O149 1.252 . S
C152 O150 1.273 . S
O153 Mg140 2.010 . S
O153 C145 1.249 . S
Mg154 O155 2.028 1_554 S
Mg154 O161 1.986 . S
Mg154 O163 2.114 1_554 S
Mg154 O164 2.251 . S
Mg154 O167 2.010 . S
O155 Mg154 2.028 1_556 S
O155 C158 1.250 . S
O156 Mg157 2.028 1_556 S
O156 C158 1.248 . S
Mg157 O156 2.028 1_554 S
Mg157 O162 2.032 . S
Mg157 O164 2.079 . S
C158 O155 1.250 . S
C158 O156 1.248 . S
C159 O160 1.264 . S
C159 O167 1.249 . S
O160 C159 1.264 . S
O161 Mg154 1.986 . S
O161 C165 1.246 . S
O162 Mg157 2.032 . S
O162 C165 1.259 . S
O163 Mg154 2.114 1_556 S
O163 C166 1.252 1_556 S
O164 Mg154 2.251 . S
O164 Mg157 2.079 . S
O164 C166 1.273 . S
C165 O161 1.246 . S
C165 O162 1.259 . S
C166 O163 1.252 1_554 S
C166 O164 1.273 . S
O167 Mg154 2.010 . S
O167 C159 1.249 . S
Mg168 O169 2.028 . S
Mg168 O175 1.986 . S
Mg168 O177 2.114 . S
Mg168 O178 2.251 . S
Mg168 O181 2.010 . S
O169 Mg168 2.028 . S
O169 C172 1.250 1_554 S
O170 Mg171 2.028 . S
O170 C172 1.248 1_554 S
Mg171 O170 2.028 . S
Mg171 O176 2.032 . S
Mg171 O178 2.079 . S
C172 O169 1.250 1_556 S
C172 O170 1.248 1_556 S
C173 O174 1.264 . S
C173 O181 1.249 . S
O174 C173 1.264 . S
O175 Mg168 1.986 . S
O175 C179 1.246 . S
O176 Mg171 2.032 . S
O176 C179 1.259 . S
O177 Mg168 2.114 . S
O177 C180 1.252 . S
O178 Mg168 2.251 . S
O178 Mg171 2.079 . S
O178 C180 1.273 . S
C179 O175 1.246 . S
C179 O176 1.259 . S
C180 O177 1.252 . S
C180 O178 1.273 . S
O181 Mg168 2.010 . S
O181 C173 1.249 . S
Mg182 O183 2.028 . S
Mg182 O189 1.986 . S
Mg182 O191 2.114 . S
Mg182 O192 2.251 . S
Mg182 O195 2.010 . S
O183 Mg182 2.028 . S
O183 C186 1.250 . S
O184 Mg185 2.028 . S
O184 C186 1.248 . S
Mg185 O184 2.028 . S
Mg185 O190 2.032 . S
Mg185 O192 2.079 . S
C186 O183 1.250 . S
C186 O184 1.248 . S
C187 O188 1.264 . S
C187 O195 1.249 . S
O188 C187 1.264 . S
O189 Mg182 1.986 . S
O189 C193 1.246 . S
O190 Mg185 2.032 . S
O190 C193 1.259 . S
O191 Mg182 2.114 . S
O191 C194 1.252 . S
O192 Mg182 2.251 . S
O192 Mg185 2.079 . S
O192 C194 1.273 . S
C193 O189 1.246 . S
C193 O190 1.259 . S
C194 O191 1.252 . S
C194 O192 1.273 . S
O195 Mg182 2.010 . S
O195 C187 1.249 . S
Mg196 O197 2.028 . S
Mg196 O203 1.986 . S
Mg196 O205 2.114 . S
Mg196 O206 2.251 . S
Mg196 O209 2.010 . S
O197 Mg196 2.028 . S
O197 C200 1.250 . S
O198 Mg199 2.028 . S
O198 C200 1.248 . S
Mg199 O198 2.028 . S
Mg199 O204 2.032 . S
Mg199 O206 2.079 . S
C200 O197 1.250 . S
C200 O198 1.248 . S
C201 O202 1.264 . S
C201 O209 1.249 . S
O202 C201 1.264 . S
O203 Mg196 1.986 . S
O203 C207 1.246 . S
O204 Mg199 2.032 . S
O204 C207 1.259 . S
O205 Mg196 2.114 . S
O205 C208 1.252 . S
O206 Mg196 2.251 . S
O206 Mg199 2.079 . S
O206 C208 1.273 . S
C207 O203 1.246 . S
C207 O204 1.259 . S
C208 O205 1.252 . S
C208 O206 1.273 . S
O209 Mg196 2.010 . S
O209 C201 1.249 . S
Mg210 O211 2.028 . S
Mg210 O217 1.986 . S
Mg210 O219 2.114 . S
Mg210 O220 2.251 . S
Mg210 O223 2.010 . S
O211 Mg210 2.028 . S
O211 C214 1.250 . S
O212 Mg213 2.028 . S
O212 C214 1.248 . S
Mg213 O212 2.028 . S
Mg213 O218 2.032 . S
Mg213 O220 2.079 . S
C214 O211 1.250 . S
C214 O212 1.248 . S
C215 O216 1.264 . S
C215 O223 1.249 . S
O216 C215 1.264 . S
O217 Mg210 1.986 . S
O217 C221 1.246 . S
O218 Mg213 2.032 . S
O218 C221 1.259 . S
O219 Mg210 2.114 . S
O219 C222 1.252 . S
O220 Mg210 2.251 . S
O220 Mg213 2.079 . S
O220 C222 1.273 . S
C221 O217 1.246 . S
C221 O218 1.259 . S
C222 O219 1.252 . S
C222 O220 1.273 . S
O223 Mg210 2.010 . S
O223 C215 1.249 . S
Mg224 O225 2.028 . S
Mg224 O231 1.986 . S
Mg224 O233 2.114 . S
Mg224 O234 2.251 . S
Mg224 O237 2.010 . S
O225 Mg224 2.028 . S
O225 C228 1.266 . S
O226 Mg227 2.028 . S
O226 C228 1.257 . S
Mg227 O226 2.028 . S
Mg227 O232 2.032 . S
Mg227 O234 2.079 . S
C228 O225 1.266 . S
C228 O226 1.257 . S
C229 O230 1.264 . S
C229 O237 1.249 . S
O230 C229 1.264 . S
O231 Mg224 1.986 . S
O231 C235 1.246 . S
O232 Mg227 2.032 . S
O232 C235 1.259 . S
O233 Mg224 2.114 . S
O233 C236 1.252 . S
O234 Mg224 2.251 . S
O234 Mg227 2.079 . S
O234 C236 1.273 . S
C235 O231 1.246 . S
C235 O232 1.259 . S
C236 O233 1.252 . S
C236 O234 1.273 . S
O237 Mg224 2.010 . S
O237 C229 1.249 . S
Mg238 O239 2.028 . S
Mg238 O245 1.986 . S
Mg238 O247 2.114 . S
Mg238 O248 2.251 . S
Mg238 O251 2.010 . S
O239 Mg238 2.028 . S
O239 C242 1.250 . S
O240 Mg241 2.028 . S
O240 C242 1.248 . S
Mg241 O240 2.028 . S
Mg241 O246 2.032 . S
Mg241 O248 2.079 . S
C242 O239 1.250 . S
C242 O240 1.248 . S
C243 O244 1.264 . S
C243 O251 1.249 . S
O244 C243 1.264 . S
O245 Mg238 1.986 . S
O245 C249 1.246 . S
O246 Mg241 2.032 . S
O246 C249 1.259 . S
O247 Mg238 2.114 . S
O247 C250 1.252 . S
O248 Mg238 2.251 . S
O248 Mg241 2.079 . S
O248 C250 1.273 . S
C249 O245 1.246 . S
C249 O246 1.259 . S
C250 O247 1.252 . S
C250 O248 1.273 . S
O251 Mg238 2.010 . S
O251 C243 1.249 . S
Mg252 O253 2.028 . S
Mg252 O259 1.986 . S
Mg252 O261 2.114 . S
Mg252 O262 2.251 . S
Mg252 O265 2.010 . S
O253 Mg252 2.028 . S
O253 C256 1.250 . S
O254 Mg255 2.028 . S
O254 C256 1.248 . S
Mg255 O254 2.028 . S
Mg255 O260 2.032 . S
Mg255 O262 2.079 . S
C256 O253 1.250 . S
C256 O254 1.248 . S
C257 O258 1.264 . S
C257 O265 1.249 . S
O258 C257 1.264 . S
O259 Mg252 1.986 . S
O259 C263 1.246 . S
O260 Mg255 2.032 . S
O260 C263 1.259 . S
O261 Mg252 2.114 . S
O261 C264 1.252 . S
O262 Mg252 2.251 . S
O262 Mg255 2.079 . S
O262 C264 1.273 . S
C263 O259 1.246 . S
C263 O260 1.259 . S
C264 O261 1.252 . S
C264 O262 1.273 . S
O265 Mg252 2.010 . S
O265 C257 1.249 . S
Mg266 O267 2.028 . S
Mg266 O273 1.986 . S
Mg266 O275 2.114 . S
Mg266 O276 2.251 . S
Mg266 O279 2.010 . S
O267 Mg266 2.028 . S
O267 C270 1.250 . S
O268 Mg269 2.028 . S
O268 C270 1.248 . S
Mg269 O268 2.028 . S
Mg269 O274 2.032 . S
Mg269 O276 2.079 . S
C270 O267 1.250 . S
C270 O268 1.248 . S
C271 O272 1.264 . S
C271 O279 1.249 . S
O272 C271 1.264 . S
O273 Mg266 1.986 . S
O273 C277 1.246 . S
O274 Mg269 2.032 . S
O274 C277 1.259 . S
O275 Mg266 2.114 . S
O275 C278 1.252 . S
O276 Mg266 2.251 . S
O276 Mg269 2.079 . S
O276 C278 1.273 . S
C277 O273 1.246 . S
C277 O274 1.259 . S
C278 O275 1.252 . S
C278 O276 1.273 . S
O279 Mg266 2.010 . S
O279 C271 1.249 . S
Mg280 O281 2.028 . S
Mg280 O287 1.986 1_554 S
Mg280 O289 2.114 . S
Mg280 O290 2.251 . S
Mg280 O293 2.010 . S
O281 Mg280 2.028 . S
O281 C284 1.250 . S
O282 Mg283 2.028 . S
O282 C284 1.248 . S
Mg283 O282 2.028 . S
Mg283 O288 2.032 1_554 S
Mg283 O290 2.079 . S
C284 O281 1.250 . S
C284 O282 1.248 . S
C285 O286 1.264 1_554 S
C285 O293 1.249 . S
O286 C285 1.264 1_556 S
O287 Mg280 1.986 1_556 S
O287 C291 1.246 . S
O288 Mg283 2.032 1_556 S
O288 C291 1.259 . S
O289 Mg280 2.114 . S
O289 C292 1.252 . S
O290 Mg280 2.251 . S
O290 Mg283 2.079 . S
O290 C292 1.273 . S
C291 O287 1.246 . S
C291 O288 1.259 . S
C292 O289 1.252 . S
C292 O290 1.273 . S
O293 Mg280 2.010 . S
O293 C285 1.249 . S
Mg294 O295 2.028 . S
Mg294 O301 1.986 . S
Mg294 O303 2.114 . S
Mg294 O304 2.251 . S
Mg294 O307 2.010 . S
O295 Mg294 2.028 . S
O295 C298 1.250 . S
O296 Mg297 2.028 . S
O296 C298 1.248 . S
Mg297 O296 2.028 . S
Mg297 O302 2.032 . S
Mg297 O304 2.079 . S
C298 O295 1.250 . S
C298 O296 1.248 . S
C299 O300 1.264 . S
C299 O307 1.249 . S
O300 C299 1.264 . S
O301 Mg294 1.986 . S
O301 C305 1.246 . S
O302 Mg297 2.032 . S
O302 C305 1.259 . S
O303 Mg294 2.114 . S
O303 C306 1.252 . S
O304 Mg294 2.251 . S
O304 Mg297 2.079 . S
O304 C306 1.273 . S
C305 O301 1.246 . S
C305 O302 1.259 . S
C306 O303 1.252 . S
C306 O304 1.273 . S
O307 Mg294 2.010 . S
O307 C299 1.249 . S
Mg308 O309 2.028 . S
Mg308 O315 1.986 . S
Mg308 O317 2.114 . S
Mg308 O318 2.251 . S
Mg308 O321 2.010 . S
O309 Mg308 2.028 . S
O309 C312 1.250 . S
O310 Mg311 2.028 . S
O310 C312 1.248 . S
Mg311 O310 2.028 . S
Mg311 O316 2.032 . S
Mg311 O318 2.079 . S
C312 O309 1.250 . S
C312 O310 1.248 . S
C313 O314 1.264 . S
C313 O321 1.249 . S
O314 C313 1.264 . S
O315 Mg308 1.986 . S
O315 C319 1.246 . S
O316 Mg311 2.032 . S
O316 C319 1.259 . S
O317 Mg308 2.114 . S
O317 C320 1.252 . S
O318 Mg308 2.251 . S
O318 Mg311 2.079 . S
O318 C320 1.273 . S
C319 O315 1.246 . S
C319 O316 1.259 . S
C320 O317 1.252 . S
C320 O318 1.273 . S
O321 Mg308 2.010 . S
O321 C313 1.249 . S
Mg322 O323 2.028 . S
Mg322 O329 1.986 . S
Mg322 O331 2.114 . S
Mg322 O332 2.251 . S
Mg322 O335 2.010 . S
O323 Mg322 2.028 . S
O323 C326 1.250 . S
O324 Mg325 2.028 . S
O324 C326 1.248 . S
Mg325 O324 2.028 . S
Mg325 O330 2.032 . S
Mg325 O332 2.079 . S
C326 O323 1.250 . S
C326 O324 1.248 . S
C327 O328 1.264 . S
C327 O335 1.249 . S
O328 C327 1.264 . S
O329 Mg322 1.986 . S
O329 C333 1.246 . S
O330 Mg325 2.032 . S
O330 C333 1.259 . S
O331 Mg322 2.114 . S
O331 C334 1.252 . S
O332 Mg322 2.251 . S
O332 Mg325 2.079 . S
O332 C334 1.273 . S
C333 O329 1.246 . S
C333 O330 1.259 . S
C334 O331 1.252 . S
C334 O332 1.273 . S
O335 Mg322 2.010 . S
O335 C327 1.249 . S
Dy336 O339 2.307 . S
Dy336 O341 2.395 . S
Dy336 O342 2.379 . S
Dy336 O344 2.339 . S
Dy336 O346 2.298 . S
Dy336 O350 2.275 1_554 S
Dy336 C358 2.738 . S
Dy337 O340 2.298 1_655 S
Dy337 O343 2.275 1_655 S
Dy337 O345 2.307 1_645 S
Dy337 O347 2.395 . S
Dy337 O348 2.379 1_554 S
Dy337 O351 2.339 1_654 S
Dy337 C367 2.738 . S
C338 O350 1.254 . S
C338 O351 1.257 . S
O339 Dy336 2.307 . S
O339 C349 1.266 . S
O340 Dy337 2.298 1_455 S
O340 C349 1.236 . S
O341 Dy336 2.395 . S
O341 C358 1.255 . S
O342 Dy336 2.379 . S
O342 C358 1.249 . S
O343 Dy337 2.275 1_455 S
O343 C359 1.254 . S
O344 Dy336 2.339 . S
O344 C359 1.257 . S
O345 Dy337 2.307 1_465 S
O345 C360 1.266 . S
O346 Dy336 2.298 . S
O346 C360 1.236 1_545 S
O347 Dy337 2.395 . S
O347 C367 1.255 . S
O348 Dy337 2.379 1_556 S
O348 C367 1.249 1_556 S
C349 O339 1.266 . S
C349 O340 1.236 . S
O350 Dy336 2.275 1_556 S
O350 C338 1.254 . S
O351 Dy337 2.339 1_456 S
O351 C338 1.257 . S
C352 C355 1.344 . S
C352 C356 1.328 . S
C352 C358 1.516 . S
C353 C354 1.304 1_545 S
C353 C357 1.323 . S
C354 C353 1.304 1_565 S
C354 C355 1.371 1_565 S
C354 H368 0.930 . S
C355 C352 1.344 . S
C355 C354 1.371 1_545 S
C355 H369 0.933 1_545 S
C356 C352 1.328 . S
C356 C357 1.433 . S
C356 H370 0.931 . S
C357 C353 1.323 . S
C357 C356 1.433 . S
C357 H371 0.933 . S
C358 Dy336 2.738 . S
C358 O341 1.255 . S
C358 O342 1.249 . S
C358 C352 1.516 . S
C359 O343 1.254 . S
C359 O344 1.257 . S
C360 O345 1.266 . S
C360 O346 1.236 1_565 S
C361 C364 1.328 1_556 S
C361 C365 1.346 . S
C361 C367 1.514 1_556 S
C362 C363 1.304 1_556 S
C362 C366 1.323 . S
C363 C362 1.304 1_554 S
C363 C364 1.371 . S
C363 H372 0.930 . S
C364 C361 1.328 1_554 S
C364 C363 1.371 . S
C364 H373 0.931 . S
C365 C361 1.346 . S
C365 C366 1.433 . S
C365 H374 0.931 . S
C366 C362 1.323 . S
C366 C365 1.433 . S
C366 H375 0.933 . S
C367 Dy337 2.738 . S
C367 O347 1.255 . S
C367 O348 1.249 1_554 S
C367 C361 1.514 1_554 S
H368 C354 0.930 . S
H369 C355 0.933 1_565 S
H370 C356 0.931 . S
H371 C357 0.933 . S
H372 C363 0.930 . S
H373 C364 0.931 . S
H374 C365 0.931 . S
H375 C366 0.933 . S
Dy376 O379 2.307 . S
Dy376 O381 2.395 . S
Dy376 O382 2.379 . S
Dy376 O384 2.339 . S
Dy376 O386 2.298 . S
Dy376 O390 2.275 . S
Dy376 C398 2.738 . S
Dy377 O380 2.298 . S
Dy377 O383 2.275 . S
Dy377 O385 2.307 . S
Dy377 O387 2.395 . S
Dy377 O388 2.379 . S
Dy377 O391 2.339 . S
Dy377 C407 2.738 . S
C378 O390 1.254 . S
C378 O391 1.257 . S
O379 Dy376 2.307 . S
O379 C389 1.266 . S
O380 Dy377 2.298 . S
O380 C389 1.236 . S
O381 Dy376 2.395 . S
O381 C398 1.255 . S
O382 Dy376 2.379 . S
O382 C398 1.249 . S
O383 Dy377 2.275 . S
O383 C399 1.254 . S
O384 Dy376 2.339 . S
O384 C399 1.257 . S
O385 Dy377 2.307 . S
O385 C400 1.266 . S
O386 Dy376 2.298 . S
O386 C400 1.236 . S
O387 Dy377 2.395 . S
O387 C407 1.255 . S
O388 Dy377 2.379 . S
O388 C407 1.249 . S
C389 O379 1.266 . S
C389 O380 1.236 . S
O390 Dy376 2.275 . S
O390 C378 1.254 . S
O391 Dy377 2.339 . S
O391 C378 1.257 . S
C392 C395 1.344 . S
C392 C396 1.328 . S
C392 C398 1.516 . S
C393 C394 1.304 . S
C393 C397 1.323 . S
C394 C393 1.304 . S
C394 C395 1.371 . S
C394 H408 0.930 . S
C395 C392 1.344 . S
C395 C394 1.371 . S
C395 H409 0.931 . S
C396 C392 1.328 . S
C396 C397 1.433 . S
C396 H410 0.931 . S
C397 C393 1.323 . S
C397 C396 1.433 . S
C397 H411 0.933 . S
C398 Dy376 2.738 . S
C398 O381 1.255 . S
C398 O382 1.249 . S
C398 C392 1.516 . S
C399 O383 1.254 . S
C399 O384 1.257 . S
C400 O385 1.266 . S
C400 O386 1.236 . S
C401 C404 1.344 . S
C401 C405 1.328 . S
C401 C407 1.516 . S
C402 C403 1.304 . S
C402 C406 1.323 . S
C403 C402 1.304 . S
C403 C404 1.371 . S
C403 H412 0.930 . S
C404 C401 1.344 . S
C404 C403 1.371 . S
C404 H413 0.931 . S
C405 C401 1.328 . S
C405 C406 1.433 . S
C405 H414 0.931 . S
C406 C402 1.323 . S
C406 C405 1.433 . S
C406 H415 0.933 . S
C407 Dy377 2.738 . S
C407 O387 1.255 . S
C407 O388 1.249 . S
C407 C401 1.516 . S
H408 C394 0.930 . S
H409 C395 0.931 . S
H410 C396 0.931 . S
H411 C397 0.933 . S
H412 C403 0.930 . S
H413 C404 0.931 . S
H414 C405 0.931 . S
H415 C406 0.933 . S
Dy416 O419 2.320 . S
Dy416 O421 2.395 . S
Dy416 O422 2.379 . S
Dy416 O424 2.339 . S
Dy416 O426 2.298 . S
Dy416 O430 2.275 . S
Dy416 C438 2.738 . S
Dy417 O420 2.298 . S
Dy417 O423 2.275 . S
Dy417 O425 2.307 . S
Dy417 O427 2.395 . S
Dy417 O428 2.379 . S
Dy417 O431 2.339 . S
Dy417 C447 2.738 . S
C418 O430 1.254 . S
C418 O431 1.257 . S
O419 Dy416 2.320 . S
O419 C429 1.259 1_545 S
O420 Dy417 2.298 . S
O420 C429 1.236 1_545 S
O421 Dy416 2.395 . S
O421 C438 1.255 . S
O422 Dy416 2.379 . S
O422 C438 1.249 . S
O423 Dy417 2.275 . S
O423 C439 1.254 . S
O424 Dy416 2.339 . S
O424 C439 1.257 . S
O425 Dy417 2.307 . S
O425 C440 1.266 . S
O426 Dy416 2.298 . S
O426 C440 1.236 . S
O427 Dy417 2.395 . S
O427 C447 1.255 . S
O428 Dy417 2.379 . S
O428 C447 1.249 . S
C429 O419 1.259 1_565 S
C429 O420 1.236 1_565 S
O430 Dy416 2.275 . S
O430 C418 1.254 . S
O431 Dy417 2.339 . S
O431 C418 1.257 . S
C432 C435 1.344 . S
C432 C436 1.328 . S
C432 C438 1.516 . S
C433 C434 1.304 . S
C433 C437 1.323 . S
C434 C433 1.304 . S
C434 C435 1.371 . S
C434 H448 0.930 . S
C435 C432 1.344 . S
C435 C434 1.371 . S
C435 H449 0.931 . S
C436 C432 1.328 . S
C436 C437 1.433 . S
C436 H450 0.931 . S
C437 C433 1.323 . S
C437 C436 1.433 . S
C437 H451 0.933 . S
C438 Dy416 2.738 . S
C438 O421 1.255 . S
C438 O422 1.249 . S
C438 C432 1.516 . S
C439 O423 1.254 . S
C439 O424 1.257 . S
C440 O425 1.266 . S
C440 O426 1.236 . S
C441 C444 1.344 1_545 S
C441 C445 1.328 . S
C441 C447 1.516 . S
C442 C443 1.304 . S
C442 C446 1.323 . S
C443 C442 1.304 . S
C443 C444 1.371 . S
C443 H452 0.930 . S
C444 C441 1.344 1_565 S
C444 C443 1.371 . S
C444 H453 0.931 . S
C445 C441 1.328 . S
C445 C446 1.433 1_545 S
C445 H454 0.931 . S
C446 C442 1.323 . S
C446 C445 1.433 1_565 S
C446 H455 0.933 . S
C447 Dy417 2.738 . S
C447 O427 1.255 . S
C447 O428 1.249 . S
C447 C441 1.516 . S
H448 C434 0.930 . S
H449 C435 0.931 . S
H450 C436 0.931 . S
H451 C437 0.933 . S
H452 C443 0.930 . S
H453 C444 0.931 . S
H454 C445 0.931 . S
H455 C446 0.933 . S
Dy456 O459 2.307 . S
Dy456 O461 2.395 . S
Dy456 O462 2.379 . S
Dy456 O464 2.339 . S
Dy456 O466 2.298 . S
Dy456 O470 2.275 . S
Dy456 C478 2.738 . S
Dy457 O460 2.298 . S
Dy457 O463 2.275 . S
Dy457 O465 2.307 . S
Dy457 O467 2.395 . S
Dy457 O468 2.379 . S
Dy457 O471 2.339 . S
Dy457 C487 2.738 . S
C458 O470 1.254 . S
C458 O471 1.257 . S
O459 Dy456 2.307 . S
O459 C469 1.266 . S
O460 Dy457 2.298 . S
O460 C469 1.236 . S
O461 Dy456 2.395 . S
O461 C478 1.255 . S
O462 Dy456 2.379 . S
O462 C478 1.249 . S
O463 Dy457 2.275 . S
O463 C479 1.254 . S
O464 Dy456 2.339 . S
O464 C479 1.257 . S
O465 Dy457 2.307 . S
O465 C480 1.266 . S
O466 Dy456 2.298 . S
O466 C480 1.236 . S
O467 Dy457 2.395 . S
O467 C487 1.255 . S
O468 Dy457 2.379 . S
O468 C487 1.249 . S
C469 O459 1.266 . S
C469 O460 1.236 . S
O470 Dy456 2.275 . S
O470 C458 1.254 . S
O471 Dy457 2.339 . S
O471 C458 1.257 . S
C472 C475 1.344 . S
C472 C476 1.328 . S
C472 C478 1.516 . S
C473 C474 1.304 . S
C473 C477 1.323 . S
C474 C473 1.304 . S
C474 C475 1.371 . S
C474 H488 0.930 . S
C475 C472 1.344 . S
C475 C474 1.371 . S
C475 H489 0.931 . S
C476 C472 1.328 . S
C476 C477 1.433 . S
C476 H490 0.931 . S
C477 C473 1.323 . S
C477 C476 1.433 . S
C477 H491 0.933 . S
C478 Dy456 2.738 . S
C478 O461 1.255 . S
C478 O462 1.249 . S
C478 C472 1.516 . S
C479 O463 1.254 . S
C479 O464 1.257 . S
C480 O465 1.266 . S
C480 O466 1.236 . S
C481 C484 1.344 . S
C481 C485 1.328 . S
C481 C487 1.516 . S
C482 C483 1.304 . S
C482 C486 1.323 . S
C483 C482 1.304 . S
C483 C484 1.371 . S
C483 H492 0.930 . S
C484 C481 1.344 . S
C484 C483 1.371 . S
C484 H493 0.931 . S
C485 C481 1.328 . S
C485 C486 1.433 . S
C485 H494 0.931 . S
C486 C482 1.323 . S
C486 C485 1.433 . S
C486 H495 0.933 . S
C487 Dy457 2.738 . S
C487 O467 1.255 . S
C487 O468 1.249 . S
C487 C481 1.516 . S
H488 C474 0.930 . S
H489 C475 0.931 . S
H490 C476 0.931 . S
H491 C477 0.933 . S
H492 C483 0.930 . S
H493 C484 0.931 . S
H494 C485 0.931 . S
H495 C486 0.933 . S
Dy496 O499 2.307 . S
Dy496 O501 2.395 1_545 S
Dy496 O502 2.379 1_545 S
Dy496 O504 2.339 . S
Dy496 O506 2.298 . S
Dy496 O510 2.275 1_455 S
Dy496 C518 2.738 1_545 S
Dy497 O500 2.298 . S
Dy497 O503 2.275 . S
Dy497 O505 2.307 . S
Dy497 O507 2.395 . S
Dy497 O508 2.379 1_455 S
Dy497 O511 2.339 1_455 S
Dy497 C527 2.738 . S
C498 O510 1.254 . S
C498 O511 1.257 . S
O499 Dy496 2.307 . S
O499 C509 1.266 . S
O500 Dy497 2.298 . S
O500 C509 1.236 . S
O501 Dy496 2.395 1_565 S
O501 C518 1.255 . S
O502 Dy496 2.379 1_565 S
O502 C518 1.249 . S
O503 Dy497 2.275 . S
O503 C519 1.254 . S
O504 Dy496 2.339 . S
O504 C519 1.257 . S
O505 Dy497 2.307 . S
O505 C520 1.266 . S
O506 Dy496 2.298 . S
O506 C520 1.236 . S
O507 Dy497 2.395 . S
O507 C527 1.255 . S
O508 Dy497 2.379 1_655 S
O508 C527 1.249 1_655 S
C509 O499 1.266 . S
C509 O500 1.236 . S
O510 Dy496 2.275 1_655 S
O510 C498 1.254 . S
O511 Dy497 2.339 1_655 S
O511 C498 1.257 . S
C512 C515 1.344 . S
C512 C516 1.328 . S
C512 C518 1.516 . S
C513 C514 1.304 . S
C513 C517 1.323 . S
C514 C513 1.304 . S
C514 C515 1.371 . S
C514 H528 0.930 . S
C515 C512 1.344 . S
C515 C514 1.371 . S
C515 H529 0.931 . S
C516 C512 1.328 . S
C516 C517 1.433 . S
C516 H530 0.931 . S
C517 C513 1.323 . S
C517 C516 1.433 . S
C517 H531 0.933 . S
C518 Dy496 2.738 1_565 S
C518 O501 1.255 . S
C518 O502 1.249 . S
C518 C512 1.516 . S
C519 O503 1.254 . S
C519 O504 1.257 . S
C520 O505 1.266 . S
C520 O506 1.236 . S
C521 C524 1.344 . S
C521 C525 1.328 1_455 S
C521 C527 1.516 . S
C522 C523 1.304 . S
C522 C526 1.323 1_455 S
C523 C522 1.304 . S
C523 C524 1.371 . S
C523 H532 0.930 . S
C524 C521 1.344 . S
C524 C523 1.371 . S
C524 H533 0.931 . S
C525 C521 1.328 1_655 S
C525 C526 1.433 . S
C525 H534 0.931 . S
C526 C522 1.323 1_655 S
C526 C525 1.433 . S
C526 H535 0.933 . S
C527 Dy497 2.738 . S
C527 O507 1.255 . S
C527 O508 1.249 1_455 S
C527 C521 1.516 . S
H528 C514 0.930 . S
H529 C515 0.931 . S
H530 C516 0.931 . S
H531 C517 0.933 . S
H532 C523 0.930 . S
H533 C524 0.931 . S
H534 C525 0.931 . S
H535 C526 0.933 . S
Dy536 O539 2.307 . S
Dy536 O541 2.395 . S
Dy536 O542 2.379 . S
Dy536 O544 2.339 . S
Dy536 O546 2.298 . S
Dy536 O550 2.275 . S
Dy536 C558 2.738 . S
Dy537 O540 2.298 . S
Dy537 O543 2.275 . S
Dy537 O545 2.307 . S
Dy537 O547 2.395 . S
Dy537 O548 2.379 . S
Dy537 O551 2.339 . S
Dy537 C567 2.738 . S
C538 O550 1.254 . S
C538 O551 1.257 . S
O539 Dy536 2.307 . S
O539 C549 1.266 . S
O540 Dy537 2.298 . S
O540 C549 1.236 . S
O541 Dy536 2.395 . S
O541 C558 1.255 . S
O542 Dy536 2.379 . S
O542 C558 1.249 . S
O543 Dy537 2.275 . S
O543 C559 1.254 . S
O544 Dy536 2.339 . S
O544 C559 1.257 . S
O545 Dy537 2.307 . S
O545 C560 1.266 . S
O546 Dy536 2.298 . S
O546 C560 1.236 . S
O547 Dy537 2.395 . S
O547 C567 1.255 . S
O548 Dy537 2.379 . S
O548 C567 1.249 . S
C549 O539 1.266 . S
C549 O540 1.236 . S
O550 Dy536 2.275 . S
O550 C538 1.254 . S
O551 Dy537 2.339 . S
O551 C538 1.257 . S
C552 C555 1.344 . S
C552 C556 1.328 . S
C552 C558 1.516 . S
C553 C554 1.304 . S
C553 C557 1.323 . S
C554 C553 1.304 . S
C554 C555 1.371 . S
C554 H568 0.930 . S
C555 C552 1.344 . S
C555 C554 1.371 . S
C555 H569 0.931 . S
C556 C552 1.328 . S
C556 C557 1.433 . S
C556 H570 0.931 . S
C557 C553 1.323 . S
C557 C556 1.433 . S
C557 H571 0.933 . S
C558 Dy536 2.738 . S
C558 O541 1.255 . S
C558 O542 1.249 . S
C558 C552 1.516 . S
C559 O543 1.254 . S
C559 O544 1.257 . S
C560 O545 1.266 . S
C560 O546 1.236 . S
C561 C564 1.344 . S
C561 C565 1.328 . S
C561 C567 1.516 . S
C562 C563 1.304 . S
C562 C566 1.323 . S
C563 C562 1.304 . S
C563 C564 1.371 . S
C563 H572 0.930 . S
C564 C561 1.344 . S
C564 C563 1.371 . S
C564 H573 0.931 . S
C565 C561 1.328 . S
C565 C566 1.433 . S
C565 H574 0.931 . S
C566 C562 1.323 . S
C566 C565 1.433 . S
C566 H575 0.933 . S
C567 Dy537 2.738 . S
C567 O547 1.255 . S
C567 O548 1.249 . S
C567 C561 1.516 . S
H568 C554 0.930 . S
H569 C555 0.931 . S
H570 C556 0.931 . S
H571 C557 0.933 . S
H572 C563 0.930 . S
H573 C564 0.931 . S
H574 C565 0.931 . S
H575 C566 0.933 . S
Dy576 O579 2.307 1_556 S
Dy576 O581 2.395 . S
Dy576 O582 2.379 . S
Dy576 O584 2.339 1_556 S
Dy576 O586 2.298 1_556 S
Dy576 O590 2.275 1_556 S
Dy576 C598 2.738 . S
Dy577 O580 2.298 . S
Dy577 O583 2.275 . S
Dy577 O585 2.307 . S
Dy577 O587 2.395 . S
Dy577 O588 2.379 1_545 S
Dy577 O591 2.339 1_545 S
Dy577 C607 2.738 . S
C578 O590 1.254 1_565 S
C578 O591 1.257 . S
O579 Dy576 2.307 1_554 S
O579 C589 1.266 . S
O580 Dy577 2.298 . S
O580 C589 1.236 . S
O581 Dy576 2.395 . S
O581 C598 1.255 . S
O582 Dy576 2.379 . S
O582 C598 1.249 . S
O583 Dy577 2.275 . S
O583 C599 1.254 . S
O584 Dy576 2.339 1_554 S
O584 C599 1.257 . S
O585 Dy577 2.307 . S
O585 C600 1.266 . S
O586 Dy576 2.298 1_554 S
O586 C600 1.236 . S
O587 Dy577 2.395 . S
O587 C607 1.255 . S
O588 Dy577 2.379 1_565 S
O588 C607 1.249 1_565 S
C589 O579 1.266 . S
C589 O580 1.236 . S
O590 Dy576 2.275 1_554 S
O590 C578 1.254 1_545 S
O591 Dy577 2.339 1_565 S
O591 C578 1.257 . S
C592 C595 1.344 . S
C592 C596 1.328 . S
C592 C598 1.516 . S
C593 C594 1.304 . S
C593 C597 1.323 . S
C594 C593 1.304 . S
C594 C595 1.371 . S
C594 H608 0.930 . S
C595 C592 1.344 . S
C595 C594 1.371 . S
C595 H609 0.931 . S
C596 C592 1.328 . S
C596 C597 1.433 . S
C596 H610 0.931 . S
C597 C593 1.323 . S
C597 C596 1.433 . S
C597 H611 0.933 . S
C598 Dy576 2.738 . S
C598 O581 1.255 . S
C598 O582 1.249 . S
C598 C592 1.516 . S
C599 O583 1.254 . S
C599 O584 1.257 . S
C600 O585 1.266 . S
C600 O586 1.236 . S
C601 C604 1.344 . S
C601 C605 1.328 1_545 S
C601 C607 1.516 . S
C602 C603 1.304 1_565 S
C602 C606 1.323 . S
C603 C602 1.304 1_545 S
C603 C604 1.371 . S
C603 H612 0.930 . S
C604 C601 1.344 . S
C604 C603 1.371 . S
C604 H613 0.931 . S
C605 C601 1.328 1_565 S
C605 C606 1.433 . S
C605 H614 0.931 . S
C606 C602 1.323 . S
C606 C605 1.433 . S
C606 H615 0.933 . S
C607 Dy577 2.738 . S
C607 O587 1.255 . S
C607 O588 1.249 1_545 S
C607 C601 1.516 . S
H608 C594 0.930 . S
H609 C595 0.931 . S
H610 C596 0.931 . S
H611 C597 0.933 . S
H612 C603 0.930 . S
H613 C604 0.931 . S
H614 C605 0.931 . S
H615 C606 0.933 . S
Dy616 O619 2.307 . S
Dy616 O621 2.395 . S
Dy616 O622 2.379 . S
Dy616 O624 2.339 . S
Dy616 O626 2.298 . S
Dy616 O630 2.275 . S
Dy616 C638 2.738 . S
Dy617 O620 2.298 . S
Dy617 O623 2.275 . S
Dy617 O625 2.307 . S
Dy617 O627 2.395 . S
Dy617 O628 2.379 . S
Dy617 O631 2.339 . S
Dy617 C647 2.738 . S
C618 O630 1.254 . S
C618 O631 1.257 . S
O619 Dy616 2.307 . S
O619 C629 1.266 . S
O620 Dy617 2.298 . S
O620 C629 1.236 . S
O621 Dy616 2.395 . S
O621 C638 1.255 . S
O622 Dy616 2.379 . S
O622 C638 1.249 . S
O623 Dy617 2.275 . S
O623 C639 1.254 . S
O624 Dy616 2.339 . S
O624 C639 1.257 . S
O625 Dy617 2.307 . S
O625 C640 1.266 . S
O626 Dy616 2.298 . S
O626 C640 1.236 . S
O627 Dy617 2.395 . S
O627 C647 1.255 . S
O628 Dy617 2.379 . S
O628 C647 1.249 . S
C629 O619 1.266 . S
C629 O620 1.236 . S
O630 Dy616 2.275 . S
O630 C618 1.254 . S
O631 Dy617 2.339 . S
O631 C618 1.257 . S
C632 C635 1.344 . S
C632 C636 1.328 . S
C632 C638 1.516 . S
C633 C634 1.304 . S
C633 C637 1.323 . S
C634 C633 1.304 . S
C634 C635 1.371 . S
C634 H648 0.930 . S
C635 C632 1.344 . S
C635 C634 1.371 . S
C635 H649 0.931 . S
C636 C632 1.328 . S
C636 C637 1.433 . S
C636 H650 0.931 . S
C637 C633 1.323 . S
C637 C636 1.433 . S
C637 H651 0.933 . S
C638 Dy616 2.738 . S
C638 O621 1.255 . S
C638 O622 1.249 . S
C638 C632 1.516 . S
C639 O623 1.254 . S
C639 O624 1.257 . S
C640 O625 1.266 . S
C640 O626 1.236 . S
C641 C644 1.344 . S
C641 C645 1.328 . S
C641 C647 1.516 . S
C642 C643 1.304 . S
C642 C646 1.323 . S
C643 C642 1.304 . S
C643 C644 1.371 . S
C643 H652 0.930 . S
C644 C641 1.344 . S
C644 C643 1.371 . S
C644 H653 0.931 . S
C645 C641 1.328 . S
C645 C646 1.433 . S
C645 H654 0.931 . S
C646 C642 1.323 . S
C646 C645 1.433 . S
C646 H655 0.933 . S
C647 Dy617 2.738 . S
C647 O627 1.255 . S
C647 O628 1.249 . S
C647 C641 1.516 . S
H648 C634 0.930 . S
H649 C635 0.931 . S
H650 C636 0.931 . S
H651 C637 0.933 . S
H652 C643 0.930 . S
H653 C644 0.931 . S
H654 C645 0.931 . S
H655 C646 0.933 . S
Dy656 O659 2.307 1_554 S
Dy656 O661 2.395 . S
Dy656 O662 2.379 . S
Dy656 O664 2.339 . S
Dy656 O666 2.298 . S
Dy656 O670 2.275 . S
Dy656 C678 2.738 . S
Dy657 O660 2.298 1_554 S
Dy657 O663 2.275 . S
Dy657 O665 2.307 . S
Dy657 O667 2.395 . S
Dy657 O668 2.379 . S
Dy657 O671 2.339 . S
Dy657 C687 2.738 . S
C658 O670 1.254 . S
C658 O671 1.257 . S
O659 Dy656 2.307 1_556 S
O659 C669 1.266 . S
O660 Dy657 2.298 1_556 S
O660 C669 1.236 . S
O661 Dy656 2.395 . S
O661 C678 1.255 . S
O662 Dy656 2.379 . S
O662 C678 1.249 . S
O663 Dy657 2.275 . S
O663 C679 1.254 . S
O664 Dy656 2.339 . S
O664 C679 1.257 . S
O665 Dy657 2.307 . S
O665 C680 1.266 . S
O666 Dy656 2.298 . S
O666 C680 1.236 . S
O667 Dy657 2.395 . S
O667 C687 1.255 . S
O668 Dy657 2.379 . S
O668 C687 1.249 . S
C669 O659 1.266 . S
C669 O660 1.236 . S
O670 Dy656 2.275 . S
O670 C658 1.254 . S
O671 Dy657 2.339 . S
O671 C658 1.257 . S
C672 C675 1.344 . S
C672 C676 1.328 . S
C672 C678 1.516 . S
C673 C674 1.304 . S
C673 C677 1.323 . S
C674 C673 1.304 . S
C674 C675 1.371 . S
C674 H688 0.930 . S
C675 C672 1.344 . S
C675 C674 1.371 . S
C675 H689 0.931 . S
C676 C672 1.328 . S
C676 C677 1.433 . S
C676 H690 0.931 . S
C677 C673 1.323 . S
C677 C676 1.433 . S
C677 H691 0.933 . S
C678 Dy656 2.738 . S
C678 O661 1.255 . S
C678 O662 1.249 . S
C678 C672 1.516 . S
C679 O663 1.254 . S
C679 O664 1.257 . S
C680 O665 1.266 . S
C680 O666 1.236 . S
C681 C684 1.344 . S
C681 C685 1.328 . S
C681 C687 1.516 1_556 S
C682 C683 1.304 . S
C682 C686 1.323 . S
C683 C682 1.304 . S
C683 C684 1.371 . S
C683 H692 0.930 . S
C684 C681 1.344 . S
C684 C683 1.371 . S
C684 H693 0.931 . S
C685 C681 1.328 . S
C685 C686 1.433 . S
C685 H694 0.930 1_556 S
C686 C682 1.323 . S
C686 C685 1.433 . S
C686 H695 0.933 . S
C687 Dy657 2.738 . S
C687 O667 1.255 . S
C687 O668 1.249 . S
C687 C681 1.516 1_554 S
H688 C674 0.930 . S
H689 C675 0.931 . S
H690 C676 0.931 . S
H691 C677 0.933 . S
H692 C683 0.930 . S
H693 C684 0.931 . S
H694 C685 0.930 1_554 S
H695 C686 0.933 . S
Dy696 O699 2.307 . S
Dy696 O701 2.395 . S
Dy696 O702 2.379 . S
Dy696 O704 2.339 . S
Dy696 O706 2.298 . S
Dy696 O710 2.275 . S
Dy696 C718 2.738 . S
Dy697 O700 2.298 . S
Dy697 O703 2.275 . S
Dy697 O705 2.307 . S
Dy697 O707 2.395 . S
Dy697 O708 2.379 . S
Dy697 O711 2.339 . S
Dy697 C727 2.738 . S
C698 O710 1.254 . S
C698 O711 1.257 . S
O699 Dy696 2.307 . S
O699 C709 1.266 . S
O700 Dy697 2.298 . S
O700 C709 1.236 . S
O701 Dy696 2.395 . S
O701 C718 1.255 . S
O702 Dy696 2.379 . S
O702 C718 1.249 . S
O703 Dy697 2.275 . S
O703 C719 1.254 . S
O704 Dy696 2.339 . S
O704 C719 1.257 . S
O705 Dy697 2.307 . S
O705 C720 1.266 . S
O706 Dy696 2.298 . S
O706 C720 1.236 . S
O707 Dy697 2.395 . S
O707 C727 1.255 . S
O708 Dy697 2.379 . S
O708 C727 1.249 . S
C709 O699 1.266 . S
C709 O700 1.236 . S
O710 Dy696 2.275 . S
O710 C698 1.254 . S
O711 Dy697 2.339 . S
O711 C698 1.257 . S
C712 C715 1.344 . S
C712 C716 1.328 . S
C712 C718 1.516 . S
C713 C714 1.304 . S
C713 C717 1.323 . S
C714 C713 1.304 . S
C714 C715 1.371 . S
C714 H728 0.930 . S
C715 C712 1.344 . S
C715 C714 1.371 . S
C715 H729 0.931 . S
C716 C712 1.328 . S
C716 C717 1.433 . S
C716 H730 0.931 . S
C717 C713 1.323 . S
C717 C716 1.433 . S
C717 H731 0.933 . S
C718 Dy696 2.738 . S
C718 O701 1.255 . S
C718 O702 1.249 . S
C718 C712 1.516 . S
C719 O703 1.254 . S
C719 O704 1.257 . S
C720 O705 1.266 . S
C720 O706 1.236 . S
C721 C724 1.344 . S
C721 C725 1.328 . S
C721 C727 1.516 . S
C722 C723 1.304 . S
C722 C726 1.323 . S
C723 C722 1.304 . S
C723 C724 1.371 . S
C723 H732 0.930 . S
C724 C721 1.344 . S
C724 C723 1.371 . S
C724 H733 0.931 . S
C725 C721 1.328 . S
C725 C726 1.433 . S
C725 H734 0.931 . S
C726 C722 1.323 . S
C726 C725 1.433 . S
C726 H735 0.933 . S
C727 Dy697 2.738 . S
C727 O707 1.255 . S
C727 O708 1.249 . S
C727 C721 1.516 . S
H728 C714 0.930 . S
H729 C715 0.931 . S
H730 C716 0.931 . S
H731 C717 0.933 . S
H732 C723 0.930 . S
H733 C724 0.931 . S
H734 C725 0.931 . S
H735 C726 0.933 . S
Dy736 O739 2.307 1_455 S
Dy736 O741 2.395 . S
Dy736 O742 2.379 . S
Dy736 O744 2.339 . S
Dy736 O746 2.298 . S
Dy736 O750 2.275 . S
Dy736 C758 2.738 . S
Dy737 O740 2.298 1_455 S
Dy737 O743 2.275 . S
Dy737 O745 2.307 . S
Dy737 O747 2.395 . S
Dy737 O748 2.379 . S
Dy737 O751 2.339 . S
Dy737 C767 2.738 . S
C738 O750 1.254 . S
C738 O751 1.257 . S
O739 Dy736 2.307 1_655 S
O739 C749 1.266 . S
O740 Dy737 2.298 1_655 S
O740 C749 1.236 . S
O741 Dy736 2.395 . S
O741 C758 1.255 . S
O742 Dy736 2.379 . S
O742 C758 1.249 . S
O743 Dy737 2.275 . S
O743 C759 1.254 . S
O744 Dy736 2.339 . S
O744 C759 1.257 . S
O745 Dy737 2.307 . S
O745 C760 1.266 . S
O746 Dy736 2.298 . S
O746 C760 1.236 . S
O747 Dy737 2.395 . S
O747 C767 1.255 . S
O748 Dy737 2.379 . S
O748 C767 1.249 . S
C749 O739 1.266 . S
C749 O740 1.236 . S
O750 Dy736 2.275 . S
O750 C738 1.254 . S
O751 Dy737 2.339 . S
O751 C738 1.257 . S
C752 C755 1.344 . S
C752 C756 1.328 . S
C752 C758 1.516 . S
C753 C754 1.304 . S
C753 C757 1.323 . S
C754 C753 1.304 . S
C754 C755 1.371 . S
C754 H768 0.930 . S
C755 C752 1.344 . S
C755 C754 1.371 . S
C755 H769 0.931 . S
C756 C752 1.328 . S
C756 C757 1.433 . S
C756 H770 0.931 . S
C757 C753 1.323 . S
C757 C756 1.433 . S
C757 H771 0.933 . S
C758 Dy736 2.738 . S
C758 O741 1.255 . S
C758 O742 1.249 . S
C758 C752 1.516 . S
C759 O743 1.254 . S
C759 O744 1.257 . S
C760 O745 1.266 . S
C760 O746 1.236 . S
C761 C764 1.344 . S
C761 C765 1.328 . S
C761 C767 1.516 1_655 S
C762 C763 1.304 . S
C762 C766 1.323 . S
C763 C762 1.304 . S
C763 C764 1.371 . S
C763 H772 0.930 . S
C764 C761 1.344 . S
C764 C763 1.371 . S
C764 H773 0.931 . S
C765 C761 1.328 . S
C765 C766 1.433 . S
C765 H774 0.962 . S
C766 C762 1.323 . S
C766 C765 1.433 . S
C766 H775 0.933 . S
C767 Dy737 2.738 . S
C767 O747 1.255 . S
C767 O748 1.249 . S
C767 C761 1.516 1_455 S
H768 C754 0.930 . S
H769 C755 0.931 . S
H770 C756 0.931 . S
H771 C757 0.933 . S
H772 C763 0.930 . S
H773 C764 0.931 . S
H774 C765 0.962 . S
H775 C766 0.933 . S
Dy776 O779 2.307 . S
Dy776 O781 2.395 . S
Dy776 O782 2.379 . S
Dy776 O784 2.339 . S
Dy776 O786 2.298 . S
Dy776 O790 2.275 . S
Dy776 C798 2.738 . S
Dy777 O780 2.298 . S
Dy777 O783 2.275 . S
Dy777 O785 2.307 . S
Dy777 O787 2.395 . S
Dy777 O788 2.379 . S
Dy777 O791 2.339 . S
Dy777 C807 2.738 . S
C778 O790 1.254 . S
C778 O791 1.257 . S
O779 Dy776 2.307 . S
O779 C789 1.266 . S
O780 Dy777 2.298 . S
O780 C789 1.236 . S
O781 Dy776 2.395 . S
O781 C798 1.255 . S
O782 Dy776 2.379 . S
O782 C798 1.249 . S
O783 Dy777 2.275 . S
O783 C799 1.254 . S
O784 Dy776 2.339 . S
O784 C799 1.257 . S
O785 Dy777 2.307 . S
O785 C800 1.266 . S
O786 Dy776 2.298 . S
O786 C800 1.236 . S
O787 Dy777 2.395 . S
O787 C807 1.255 . S
O788 Dy777 2.379 . S
O788 C807 1.249 . S
C789 O779 1.266 . S
C789 O780 1.236 . S
O790 Dy776 2.275 . S
O790 C778 1.254 . S
O791 Dy777 2.339 . S
O791 C778 1.257 . S
C792 C795 1.344 . S
C792 C796 1.328 . S
C792 C798 1.516 . S
C793 C794 1.304 . S
C793 C797 1.323 . S
C794 C793 1.304 . S
C794 C795 1.371 . S
C794 H808 0.930 . S
C795 C792 1.344 . S
C795 C794 1.371 . S
C795 H809 0.931 . S
C796 C792 1.328 . S
C796 C797 1.433 . S
C796 H810 0.931 . S
C797 C793 1.323 . S
C797 C796 1.433 . S
C797 H811 0.933 . S
C798 Dy776 2.738 . S
C798 O781 1.255 . S
C798 O782 1.249 . S
C798 C792 1.516 . S
C799 O783 1.254 . S
C799 O784 1.257 . S
C800 O785 1.266 . S
C800 O786 1.236 . S
C801 C804 1.344 . S
C801 C805 1.328 . S
C801 C807 1.516 . S
C802 C803 1.304 . S
C802 C806 1.323 . S
C803 C802 1.304 . S
C803 C804 1.371 . S
C803 H812 0.930 . S
C804 C801 1.344 . S
C804 C803 1.371 . S
C804 H813 0.931 . S
C805 C801 1.328 . S
C805 C806 1.433 . S
C805 H814 0.931 . S
C806 C802 1.323 . S
C806 C805 1.433 . S
C806 H815 0.933 . S
C807 Dy777 2.738 . S
C807 O787 1.255 . S
C807 O788 1.249 . S
C807 C801 1.516 . S
H808 C794 0.930 . S
H809 C795 0.931 . S
H810 C796 0.931 . S
H811 C797 0.933 . S
H812 C803 0.930 . S
H813 C804 0.931 . S
H814 C805 0.931 . S
H815 C806 0.933 . S
Dy816 O819 2.307 . S
Dy816 O821 2.395 . S
Dy816 O822 2.379 . S
Dy816 O824 2.339 . S
Dy816 O826 2.298 . S
Dy816 O830 2.275 . S
Dy816 C838 2.738 . S
Dy817 O820 2.298 . S
Dy817 O823 2.275 . S
Dy817 O825 2.307 . S
Dy817 O827 2.395 . S
Dy817 O828 2.379 . S
Dy817 O831 2.339 . S
Dy817 C847 2.738 . S
C818 O830 1.254 . S
C818 O831 1.257 . S
O819 Dy816 2.307 . S
O819 C829 1.266 . S
O820 Dy817 2.298 . S
O820 C829 1.236 . S
O821 Dy816 2.395 . S
O821 C838 1.255 . S
O822 Dy816 2.379 . S
O822 C838 1.249 . S
O823 Dy817 2.275 . S
O823 C839 1.254 . S
O824 Dy816 2.339 . S
O824 C839 1.257 . S
O825 Dy817 2.307 . S
O825 C840 1.266 . S
O826 Dy816 2.298 . S
O826 C840 1.236 . S
O827 Dy817 2.395 . S
O827 C847 1.255 . S
O828 Dy817 2.379 . S
O828 C847 1.249 . S
C829 O819 1.266 . S
C829 O820 1.236 . S
O830 Dy816 2.275 . S
O830 C818 1.254 . S
O831 Dy817 2.339 . S
O831 C818 1.257 . S
C832 C835 1.344 . S
C832 C836 1.328 . S
C832 C838 1.516 . S
C833 C834 1.304 . S
C833 C837 1.323 . S
C834 C833 1.304 . S
C834 C835 1.371 . S
C834 H848 0.930 . S
C835 C832 1.344 . S
C835 C834 1.371 . S
C835 H849 0.931 . S
C836 C832 1.328 . S
C836 C837 1.433 . S
C836 H850 0.931 . S
C837 C833 1.323 . S
C837 C836 1.433 . S
C837 H851 0.933 . S
C838 Dy816 2.738 . S
C838 O821 1.255 . S
C838 O822 1.249 . S
C838 C832 1.516 . S
C839 O823 1.254 . S
C839 O824 1.257 . S
C840 O825 1.266 . S
C840 O826 1.236 . S
C841 C844 1.344 . S
C841 C845 1.328 . S
C841 C847 1.516 . S
C842 C843 1.304 . S
C842 C846 1.323 . S
C843 C842 1.304 . S
C843 C844 1.371 . S
C843 H852 0.930 . S
C844 C841 1.344 . S
C844 C843 1.371 . S
C844 H853 0.931 . S
C845 C841 1.328 . S
C845 C846 1.433 . S
C845 H854 0.931 . S
C846 C842 1.323 . S
C846 C845 1.433 . S
C846 H855 0.933 . S
C847 Dy817 2.738 . S
C847 O827 1.255 . S
C847 O828 1.249 . S
C847 C841 1.516 . S
H848 C834 0.930 . S
H849 C835 0.931 . S
H850 C836 0.931 . S
H851 C837 0.933 . S
H852 C843 0.930 . S
H853 C844 0.931 . S
H854 C845 0.931 . S
H855 C846 0.933 . S
Dy856 O859 2.307 . S
Dy856 O861 2.395 . S
Dy856 O862 2.379 . S
Dy856 O864 2.339 . S
Dy856 O866 2.298 . S
Dy856 O870 2.275 . S
Dy856 C878 2.738 . S
Dy857 O860 2.298 . S
Dy857 O863 2.275 . S
Dy857 O865 2.307 . S
Dy857 O867 2.395 . S
Dy857 O868 2.379 . S
Dy857 O871 2.339 . S
Dy857 C887 2.738 . S
C858 O870 1.254 . S
C858 O871 1.257 . S
O859 Dy856 2.307 . S
O859 C869 1.266 . S
O860 Dy857 2.298 . S
O860 C869 1.236 . S
O861 Dy856 2.395 . S
O861 C878 1.255 . S
O862 Dy856 2.379 . S
O862 C878 1.249 . S
O863 Dy857 2.275 . S
O863 C879 1.254 . S
O864 Dy856 2.339 . S
O864 C879 1.257 . S
O865 Dy857 2.307 . S
O865 C880 1.266 . S
O866 Dy856 2.298 . S
O866 C880 1.236 . S
O867 Dy857 2.395 . S
O867 C887 1.255 . S
O868 Dy857 2.379 . S
O868 C887 1.249 . S
C869 O859 1.266 . S
C869 O860 1.236 . S
O870 Dy856 2.275 . S
O870 C858 1.254 . S
O871 Dy857 2.339 . S
O871 C858 1.257 . S
C872 C875 1.344 . S
C872 C876 1.328 . S
C872 C878 1.516 . S
C873 C874 1.304 . S
C873 C877 1.323 . S
C874 C873 1.304 . S
C874 C875 1.371 . S
C874 H888 0.930 . S
C875 C872 1.344 . S
C875 C874 1.371 . S
C875 H889 0.931 . S
C876 C872 1.328 . S
C876 C877 1.433 . S
C876 H890 0.931 . S
C877 C873 1.323 . S
C877 C876 1.433 . S
C877 H891 0.933 . S
C878 Dy856 2.738 . S
C878 O861 1.255 . S
C878 O862 1.249 . S
C878 C872 1.516 . S
C879 O863 1.254 . S
C879 O864 1.257 . S
C880 O865 1.266 . S
C880 O866 1.236 . S
C881 C884 1.344 . S
C881 C885 1.328 . S
C881 C887 1.516 . S
C882 C883 1.304 . S
C882 C886 1.323 . S
C883 C882 1.304 . S
C883 C884 1.371 . S
C883 H892 0.930 . S
C884 C881 1.344 . S
C884 C883 1.371 . S
C884 H893 0.931 . S
C885 C881 1.328 . S
C885 C886 1.433 . S
C885 H894 0.931 . S
C886 C882 1.323 . S
C886 C885 1.433 . S
C886 H895 0.933 . S
C887 Dy857 2.738 . S
C887 O867 1.255 . S
C887 O868 1.249 . S
C887 C881 1.516 . S
H888 C874 0.930 . S
H889 C875 0.931 . S
H890 C876 0.931 . S
H891 C877 0.933 . S
H892 C883 0.930 . S
H893 C884 0.931 . S
H894 C885 0.931 . S
H895 C886 0.933 . S
Dy896 O899 2.307 . S
Dy896 O901 2.395 . S
Dy896 O902 2.379 . S
Dy896 O904 2.339 . S
Dy896 O906 2.298 . S
Dy896 O910 2.275 . S
Dy896 C918 2.738 . S
Dy897 O900 2.298 . S
Dy897 O903 2.275 . S
Dy897 O905 2.307 . S
Dy897 O907 2.395 . S
Dy897 O908 2.379 . S
Dy897 O911 2.339 . S
Dy897 C927 2.738 . S
C898 O910 1.254 . S
C898 O911 1.257 . S
O899 Dy896 2.307 . S
O899 C909 1.266 . S
O900 Dy897 2.298 . S
O900 C909 1.236 . S
O901 Dy896 2.395 . S
O901 C918 1.255 . S
O902 Dy896 2.379 . S
O902 C918 1.249 . S
O903 Dy897 2.275 . S
O903 C919 1.254 . S
O904 Dy896 2.339 . S
O904 C919 1.257 . S
O905 Dy897 2.307 . S
O905 C920 1.266 . S
O906 Dy896 2.298 . S
O906 C920 1.236 . S
O907 Dy897 2.395 . S
O907 C927 1.255 . S
O908 Dy897 2.379 . S
O908 C927 1.249 . S
C909 O899 1.266 . S
C909 O900 1.236 . S
O910 Dy896 2.275 . S
O910 C898 1.254 . S
O911 Dy897 2.339 . S
O911 C898 1.257 . S
C912 C915 1.344 . S
C912 C916 1.328 . S
C912 C918 1.516 . S
C913 C914 1.304 . S
C913 C917 1.323 . S
C914 C913 1.304 . S
C914 C915 1.371 . S
C914 H928 0.930 . S
C915 C912 1.344 . S
C915 C914 1.371 . S
C915 H929 0.931 . S
C916 C912 1.328 . S
C916 C917 1.433 . S
C916 H930 0.931 . S
C917 C913 1.323 . S
C917 C916 1.433 . S
C917 H931 0.933 . S
C918 Dy896 2.738 . S
C918 O901 1.255 . S
C918 O902 1.249 . S
C918 C912 1.516 . S
C919 O903 1.254 . S
C919 O904 1.257 . S
C920 O905 1.266 . S
C920 O906 1.236 . S
C921 C924 1.344 . S
C921 C925 1.328 . S
C921 C927 1.516 . S
C922 C923 1.304 . S
C922 C926 1.323 . S
C923 C922 1.304 . S
C923 C924 1.371 . S
C923 H932 0.930 . S
C924 C921 1.344 . S
C924 C923 1.371 . S
C924 H933 0.931 . S
C925 C921 1.328 . S
C925 C926 1.433 . S
C925 H934 0.931 . S
C926 C922 1.323 . S
C926 C925 1.433 . S
C926 H935 0.933 . S
C927 Dy897 2.738 . S
C927 O907 1.255 . S
C927 O908 1.249 . S
C927 C921 1.516 . S
H928 C914 0.930 . S
H929 C915 0.931 . S
H930 C916 0.931 . S
H931 C917 0.933 . S
H932 C923 0.930 . S
H933 C924 0.931 . S
H934 C925 0.931 . S
H935 C926 0.933 . S
Dy936 O939 2.307 1_655 S
Dy936 O941 2.395 . S
Dy936 O942 2.379 . S
Dy936 O944 2.339 1_655 S
Dy936 O946 2.298 1_655 S
Dy936 O950 2.275 1_654 S
Dy936 C958 2.738 . S
Dy937 O940 2.298 . S
Dy937 O943 2.275 . S
Dy937 O945 2.307 . S
Dy937 O947 2.395 . S
Dy937 O948 2.379 1_554 S
Dy937 O951 2.339 1_554 S
Dy937 C967 2.738 . S
C938 O950 1.254 . S
C938 O951 1.257 . S
O939 Dy936 2.307 1_455 S
O939 C949 1.266 . S
O940 Dy937 2.298 . S
O940 C949 1.236 . S
O941 Dy936 2.395 . S
O941 C958 1.255 . S
O942 Dy936 2.379 . S
O942 C958 1.249 . S
O943 Dy937 2.275 . S
O943 C959 1.254 . S
O944 Dy936 2.339 1_455 S
O944 C959 1.257 . S
O945 Dy937 2.307 . S
O945 C960 1.266 . S
O946 Dy936 2.298 1_455 S
O946 C960 1.236 . S
O947 Dy937 2.395 . S
O947 C967 1.255 . S
O948 Dy937 2.379 1_556 S
O948 C967 1.249 1_556 S
C949 O939 1.266 . S
C949 O940 1.236 . S
O950 Dy936 2.275 1_456 S
O950 C938 1.254 . S
O951 Dy937 2.339 1_556 S
O951 C938 1.257 . S
C952 C955 1.344 . S
C952 C956 1.328 . S
C952 C958 1.516 . S
C953 C954 1.304 . S
C953 C957 1.323 . S
C954 C953 1.304 . S
C954 C955 1.371 . S
C954 H968 0.930 . S
C955 C952 1.344 . S
C955 C954 1.371 . S
C955 H969 0.931 . S
C956 C952 1.328 . S
C956 C957 1.433 . S
C956 H970 0.931 . S
C957 C953 1.323 . S
C957 C956 1.433 . S
C957 H971 0.933 . S
C958 Dy936 2.738 . S
C958 O941 1.255 . S
C958 O942 1.249 . S
C958 C952 1.516 . S
C959 O943 1.254 . S
C959 O944 1.257 . S
C960 O945 1.266 . S
C960 O946 1.236 . S
C961 C964 1.344 1_556 S
C961 C965 1.328 . S
C961 C967 1.516 1_556 S
C962 C963 1.304 1_556 S
C962 C966 1.323 . S
C963 C962 1.304 1_554 S
C963 C964 1.371 . S
C963 H972 0.930 . S
C964 C961 1.344 1_554 S
C964 C963 1.371 . S
C964 H973 0.931 . S
C965 C961 1.328 . S
C965 C966 1.433 . S
C965 H974 0.931 . S
C966 C962 1.323 . S
C966 C965 1.433 . S
C966 H975 0.933 . S
C967 Dy937 2.738 . S
C967 O947 1.255 . S
C967 O948 1.249 1_554 S
C967 C961 1.516 1_554 S
H968 C954 0.930 . S
H969 C955 0.931 . S
H970 C956 0.931 . S
H971 C957 0.933 . S
H972 C963 0.930 . S
H973 C964 0.931 . S
H974 C965 0.931 . S
H975 C966 0.933 . S
H976 C984 0.929 . S
H977 C986 0.930 1_554 S
H978 C988 0.930 . S
H979 C991 0.929 . S
H980 C994 0.930 . S
H981 C996 0.960 . S
H982 C996 0.960 1_554 S
H983 C996 0.960 . S
C984 H976 0.929 . S
C984 C985 1.377 . S
C984 C986 1.384 . S
C985 C984 1.377 . S
C985 C991 1.390 1_655 S
C986 H977 0.930 1_556 S
C986 C984 1.384 . S
C986 C987 1.372 1_655 S
C987 C986 1.372 1_455 S
C987 C988 1.400 . S
C987 C992 1.490 . S
C988 H978 0.930 . S
C988 C987 1.400 . S
C988 C991 1.386 . S
H989 C1005 0.930 . S
H990 C1006 0.931 . S
C991 H979 0.929 . S
C991 C985 1.390 1_455 S
C991 C988 1.386 . S
C992 C987 1.490 . S
C992 C994 1.395 1_455 S
C992 C995 1.403 . S
H993 C999 0.940 . S
C994 H980 0.930 . S
C994 C992 1.395 1_655 S
C994 C997 1.403 . S
C995 C992 1.403 . S
C995 C996 1.524 . S
C995 C999 1.400 . S
C996 H981 0.960 . S
C996 H982 0.960 1_556 S
C996 H983 0.960 . S
C996 C995 1.524 . S
C997 C994 1.403 . S
C997 C998 1.392 1_655 S
C997 C1001 1.495 . S
C998 C997 1.392 1_455 S
C998 C999 1.385 . S
C998 C1000 1.478 1_556 S
C999 H993 0.940 . S
C999 C995 1.400 . S
C999 C998 1.385 . S
C1000 C998 1.478 1_554 S
C1000 C1002 1.381 . S
C1000 C1006 1.383 1_554 S
C1001 C997 1.495 . S
C1001 H1007 0.959 . S
C1001 H1008 0.961 . S
C1001 H1009 0.960 1_556 S
C1002 C1000 1.381 . S
C1002 C1003 1.394 . S
C1002 H1010 0.930 1_455 S
C1003 C1002 1.394 . S
C1003 C1004 1.383 . S
C1003 H1011 0.929 . S
C1004 C1003 1.383 . S
C1004 C1005 1.377 1_554 S
C1005 H989 0.930 . S
C1005 C1004 1.377 1_556 S
C1005 C1006 1.379 . S
C1006 H990 0.931 . S
C1006 C1000 1.383 1_556 S
C1006 C1005 1.379 . S
H1007 C1001 0.959 . S
H1008 C1001 0.961 . S
H1009 C1001 0.960 1_554 S
H1010 C1002 0.930 1_655 S
H1011 C1003 0.929 . S
H1012 C1020 0.929 . S
H1013 C1022 0.930 . S
H1014 C1024 0.930 . S
H1015 C1027 0.929 . S
H1016 C1030 0.930 . S
H1017 C1032 0.960 . S
H1018 C1032 0.960 . S
H1019 C1032 0.960 . S
C1020 H1012 0.929 . S
C1020 C1021 1.377 . S
C1020 C1022 1.384 . S
C1021 C1020 1.377 . S
C1021 C1027 1.390 . S
C1022 H1013 0.930 . S
C1022 C1020 1.384 . S
C1022 C1023 1.372 . S
C1023 C1022 1.372 . S
C1023 C1024 1.400 . S
C1023 C1028 1.490 . S
C1024 H1014 0.930 . S
C1024 C1023 1.400 . S
C1024 C1027 1.386 . S
H1025 C1041 0.930 . S
H1026 C1042 0.931 . S
C1027 H1015 0.929 . S
C1027 C1021 1.390 . S
C1027 C1024 1.386 . S
C1028 C1023 1.490 . S
C1028 C1030 1.395 . S
C1028 C1031 1.403 . S
H1029 C1035 0.930 . S
C1030 H1016 0.930 . S
C1030 C1028 1.395 . S
C1030 C1033 1.403 . S
C1031 C1028 1.403 . S
C1031 C1032 1.524 . S
C1031 C1035 1.400 . S
C1032 H1017 0.960 . S
C1032 H1018 0.960 . S
C1032 H1019 0.960 . S
C1032 C1031 1.524 . S
C1033 C1030 1.403 . S
C1033 C1034 1.392 . S
C1033 C1037 1.495 . S
C1034 C1033 1.392 . S
C1034 C1035 1.385 . S
C1034 C1036 1.478 . S
C1035 H1029 0.930 . S
C1035 C1031 1.400 . S
C1035 C1034 1.385 . S
C1036 C1034 1.478 . S
C1036 C1038 1.381 . S
C1036 C1042 1.383 . S
C1037 C1033 1.495 . S
C1037 H1043 0.959 . S
C1037 H1044 0.961 . S
C1037 H1045 0.960 . S
C1038 C1036 1.381 . S
C1038 C1039 1.394 . S
C1038 H1046 0.930 . S
C1039 C1038 1.394 . S
C1039 C1040 1.383 . S
C1039 H1047 0.929 . S
C1040 C1039 1.383 . S
C1040 C1041 1.377 . S
C1041 H1025 0.930 . S
C1041 C1040 1.377 . S
C1041 C1042 1.379 . S
C1042 H1026 0.931 . S
C1042 C1036 1.383 . S
C1042 C1041 1.379 . S
H1043 C1037 0.959 . S
H1044 C1037 0.961 . S
H1045 C1037 0.960 . S
H1046 C1038 0.930 . S
H1047 C1039 0.929 . S
H1048 C1056 0.929 . S
H1049 C1058 0.930 . S
H1050 C1060 0.930 . S
H1051 C1063 0.929 . S
H1052 C1066 0.930 . S
H1053 C1068 0.960 . S
H1054 C1068 0.960 . S
H1055 C1068 0.960 . S
C1056 H1048 0.929 . S
C1056 C1057 1.377 . S
C1056 C1058 1.384 . S
C1057 C1056 1.377 . S
C1057 C1063 1.390 . S
C1058 H1049 0.930 . S
C1058 C1056 1.384 . S
C1058 C1059 1.372 . S
C1059 C1058 1.372 . S
C1059 C1060 1.400 . S
C1059 C1064 1.490 . S
C1060 H1050 0.930 . S
C1060 C1059 1.400 . S
C1060 C1063 1.386 . S
H1061 C1077 0.930 . S
H1062 C1078 0.931 . S
C1063 H1051 0.929 . S
C1063 C1057 1.390 . S
C1063 C1060 1.386 . S
C1064 C1059 1.490 . S
C1064 C1066 1.395 . S
C1064 C1067 1.403 . S
H1065 C1071 0.930 . S
C1066 H1052 0.930 . S
C1066 C1064 1.395 . S
C1066 C1069 1.403 . S
C1067 C1064 1.403 . S
C1067 C1068 1.524 . S
C1067 C1071 1.400 . S
C1068 H1053 0.960 . S
C1068 H1054 0.960 . S
C1068 H1055 0.960 . S
C1068 C1067 1.524 . S
C1069 C1066 1.403 . S
C1069 C1070 1.392 . S
C1069 C1073 1.495 . S
C1070 C1069 1.392 . S
C1070 C1071 1.385 . S
C1070 C1072 1.478 . S
C1071 H1065 0.930 . S
C1071 C1067 1.400 . S
C1071 C1070 1.385 . S
C1072 C1070 1.478 . S
C1072 C1074 1.381 . S
C1072 C1078 1.383 . S
C1073 C1069 1.495 . S
C1073 H1079 0.959 . S
C1073 H1080 0.961 . S
C1073 H1081 0.960 . S
C1074 C1072 1.381 . S
C1074 C1075 1.394 . S
C1074 H1082 0.930 . S
C1075 C1074 1.394 . S
C1075 C1076 1.383 . S
C1075 H1083 0.929 . S
C1076 C1075 1.383 . S
C1076 C1077 1.377 . S
C1077 H1061 0.930 . S
C1077 C1076 1.377 . S
C1077 C1078 1.379 . S
C1078 H1062 0.931 . S
C1078 C1072 1.383 . S
C1078 C1077 1.379 . S
H1079 C1073 0.959 . S
H1080 C1073 0.961 . S
H1081 C1073 0.960 . S
H1082 C1074 0.930 . S
H1083 C1075 0.929 . S
H1084 C1092 0.929 . S
H1085 C1094 0.930 . S
H1086 C1096 0.930 . S
H1087 C1099 0.929 . S
H1088 C1102 0.930 . S
H1089 C1104 0.960 . S
H1090 C1104 0.960 . S
H1091 C1104 0.960 . S
C1092 H1084 0.929 . S
C1092 C1093 1.377 . S
C1092 C1094 1.384 . S
C1093 C1092 1.377 . S
C1093 C1099 1.390 . S
C1094 H1085 0.930 . S
C1094 C1092 1.384 . S
C1094 C1095 1.372 . S
C1095 C1094 1.372 . S
C1095 C1096 1.400 . S
C1095 C1100 1.490 . S
C1096 H1086 0.930 . S
C1096 C1095 1.400 . S
C1096 C1099 1.386 . S
H1097 C1113 0.930 . S
H1098 C1114 0.931 . S
C1099 H1087 0.929 . S
C1099 C1093 1.390 . S
C1099 C1096 1.386 . S
C1100 C1095 1.490 . S
C1100 C1102 1.395 . S
C1100 C1103 1.403 . S
H1101 C1107 0.930 . S
C1102 H1088 0.930 . S
C1102 C1100 1.395 . S
C1102 C1105 1.403 . S
C1103 C1100 1.403 . S
C1103 C1104 1.524 . S
C1103 C1107 1.400 . S
C1104 H1089 0.960 . S
C1104 H1090 0.960 . S
C1104 H1091 0.960 . S
C1104 C1103 1.524 . S
C1105 C1102 1.403 . S
C1105 C1106 1.392 . S
C1105 C1109 1.495 . S
C1106 C1105 1.392 . S
C1106 C1107 1.385 . S
C1106 C1108 1.478 . S
C1107 H1101 0.930 . S
C1107 C1103 1.400 . S
C1107 C1106 1.385 . S
C1108 C1106 1.478 . S
C1108 C1110 1.381 . S
C1108 C1114 1.383 . S
C1109 C1105 1.495 . S
C1109 H1115 0.959 . S
C1109 H1116 0.961 . S
C1109 H1117 0.960 . S
C1110 C1108 1.381 . S
C1110 C1111 1.394 . S
C1110 H1118 0.930 . S
C1111 C1110 1.394 . S
C1111 C1112 1.383 . S
C1111 H1119 0.929 . S
C1112 C1111 1.383 . S
C1112 C1113 1.377 . S
C1113 H1097 0.930 . S
C1113 C1112 1.377 . S
C1113 C1114 1.379 . S
C1114 H1098 0.931 . S
C1114 C1108 1.383 . S
C1114 C1113 1.379 . S
H1115 C1109 0.959 . S
H1116 C1109 0.961 . S
H1117 C1109 0.960 . S
H1118 C1110 0.930 . S
H1119 C1111 0.929 . S
H1120 C1128 0.929 . S
H1121 C1130 0.930 . S
H1122 C1132 0.930 . S
H1123 C1135 0.929 . S
H1124 C1138 0.930 . S
H1125 C1140 0.960 . S
H1126 C1140 0.960 . S
H1127 C1140 0.960 . S
C1128 H1120 0.929 . S
C1128 C1129 1.377 . S
C1128 C1130 1.384 . S
C1129 C1128 1.377 . S
C1129 C1135 1.390 . S
C1130 H1121 0.930 . S
C1130 C1128 1.384 . S
C1130 C1131 1.372 . S
C1131 C1130 1.372 . S
C1131 C1132 1.400 . S
C1131 C1136 1.490 . S
C1132 H1122 0.930 . S
C1132 C1131 1.400 . S
C1132 C1135 1.386 . S
H1133 C1149 0.930 . S
H1134 C1150 0.931 . S
C1135 H1123 0.929 . S
C1135 C1129 1.390 . S
C1135 C1132 1.386 . S
C1136 C1131 1.490 . S
C1136 C1138 1.395 . S
C1136 C1139 1.403 . S
H1137 C1143 0.930 . S
C1138 H1124 0.930 . S
C1138 C1136 1.395 . S
C1138 C1141 1.403 . S
C1139 C1136 1.403 . S
C1139 C1140 1.524 . S
C1139 C1143 1.400 . S
C1140 H1125 0.960 . S
C1140 H1126 0.960 . S
C1140 H1127 0.960 . S
C1140 C1139 1.524 . S
C1141 C1138 1.403 . S
C1141 C1142 1.392 . S
C1141 C1145 1.495 . S
C1142 C1141 1.392 . S
C1142 C1143 1.385 . S
C1142 C1144 1.478 . S
C1143 H1137 0.930 . S
C1143 C1139 1.400 . S
C1143 C1142 1.385 . S
C1144 C1142 1.478 . S
C1144 C1146 1.381 . S
C1144 C1150 1.383 . S
C1145 C1141 1.495 . S
C1145 H1151 0.959 . S
C1145 H1152 0.961 . S
C1145 H1153 0.960 . S
C1146 C1144 1.381 . S
C1146 C1147 1.394 . S
C1146 H1154 0.930 . S
C1147 C1146 1.394 . S
C1147 C1148 1.383 . S
C1147 H1155 0.929 . S
C1148 C1147 1.383 . S
C1148 C1149 1.377 . S
C1149 H1133 0.930 . S
C1149 C1148 1.377 . S
C1149 C1150 1.379 . S
C1150 H1134 0.931 . S
C1150 C1144 1.383 . S
C1150 C1149 1.379 . S
H1151 C1145 0.959 . S
H1152 C1145 0.961 . S
H1153 C1145 0.960 . S
H1154 C1146 0.930 . S
H1155 C1147 0.929 . S
H1156 C1164 0.929 . S
H1157 C1166 0.930 . S
H1158 C1168 0.930 . S
H1159 C1171 0.929 . S
H1160 C1174 0.930 . S
H1161 C1176 0.960 . S
H1162 C1176 0.960 . S
H1163 C1176 0.960 . S
C1164 H1156 0.929 . S
C1164 C1165 1.377 . S
C1164 C1166 1.384 . S
C1165 C1164 1.377 . S
C1165 C1171 1.390 . S
C1166 H1157 0.930 . S
C1166 C1164 1.384 . S
C1166 C1167 1.372 . S
C1167 C1166 1.372 . S
C1167 C1168 1.400 . S
C1167 C1172 1.490 . S
C1168 H1158 0.930 . S
C1168 C1167 1.400 . S
C1168 C1171 1.386 . S
H1169 C1185 0.930 . S
H1170 C1186 0.931 . S
C1171 H1159 0.929 . S
C1171 C1165 1.390 . S
C1171 C1168 1.386 . S
C1172 C1167 1.490 . S
C1172 C1174 1.395 . S
C1172 C1175 1.403 . S
H1173 C1179 0.930 . S
C1174 H1160 0.930 . S
C1174 C1172 1.395 . S
C1174 C1177 1.403 . S
C1175 C1172 1.403 . S
C1175 C1176 1.524 . S
C1175 C1179 1.400 . S
C1176 H1161 0.960 . S
C1176 H1162 0.960 . S
C1176 H1163 0.960 . S
C1176 C1175 1.524 . S
C1177 C1174 1.403 . S
C1177 C1178 1.392 . S
C1177 C1181 1.495 . S
C1178 C1177 1.392 . S
C1178 C1179 1.385 . S
C1178 C1180 1.478 . S
C1179 H1173 0.930 . S
C1179 C1175 1.400 . S
C1179 C1178 1.385 . S
C1180 C1178 1.478 . S
C1180 C1182 1.381 . S
C1180 C1186 1.383 . S
C1181 C1177 1.495 . S
C1181 H1187 0.959 . S
C1181 H1188 0.961 . S
C1181 H1189 0.960 . S
C1182 C1180 1.381 . S
C1182 C1183 1.394 . S
C1182 H1190 0.930 . S
C1183 C1182 1.394 . S
C1183 C1184 1.383 . S
C1183 H1191 0.929 . S
C1184 C1183 1.383 . S
C1184 C1185 1.377 . S
C1185 H1169 0.930 . S
C1185 C1184 1.377 . S
C1185 C1186 1.379 . S
C1186 H1170 0.931 . S
C1186 C1180 1.383 . S
C1186 C1185 1.379 . S
H1187 C1181 0.959 . S
H1188 C1181 0.961 . S
H1189 C1181 0.960 . S
H1190 C1182 0.930 . S
H1191 C1183 0.929 . S
H1192 C1200 0.929 . S
H1193 C1202 0.930 . S
H1194 C1204 0.930 . S
H1195 C1207 0.929 . S
H1196 C1210 0.930 . S
H1197 C1212 0.960 . S
H1198 C1212 0.960 . S
H1199 C1212 0.960 . S
C1200 H1192 0.929 . S
C1200 C1201 1.377 . S
C1200 C1202 1.384 . S
C1201 C1200 1.377 . S
C1201 C1207 1.390 . S
C1202 H1193 0.930 . S
C1202 C1200 1.384 . S
C1202 C1203 1.372 . S
C1203 C1202 1.372 . S
C1203 C1204 1.400 . S
C1203 C1208 1.490 . S
C1204 H1194 0.930 . S
C1204 C1203 1.400 . S
C1204 C1207 1.386 . S
H1205 C1221 0.930 . S
H1206 C1222 0.931 . S
C1207 H1195 0.929 . S
C1207 C1201 1.390 . S
C1207 C1204 1.386 . S
C1208 C1203 1.490 . S
C1208 C1210 1.395 . S
C1208 C1211 1.403 . S
H1209 C1215 0.930 . S
C1210 H1196 0.930 . S
C1210 C1208 1.395 . S
C1210 C1213 1.403 . S
C1211 C1208 1.403 . S
C1211 C1212 1.524 . S
C1211 C1215 1.400 . S
C1212 H1197 0.960 . S
C1212 H1198 0.960 . S
C1212 H1199 0.960 . S
C1212 C1211 1.524 . S
C1213 C1210 1.403 . S
C1213 C1214 1.392 . S
C1213 C1217 1.495 . S
C1214 C1213 1.392 . S
C1214 C1215 1.385 . S
C1214 C1216 1.478 . S
C1215 H1209 0.930 . S
C1215 C1211 1.400 . S
C1215 C1214 1.385 . S
C1216 C1214 1.478 . S
C1216 C1218 1.381 . S
C1216 C1222 1.383 . S
C1217 C1213 1.495 . S
C1217 H1223 0.959 . S
C1217 H1224 0.961 . S
C1217 H1225 0.960 . S
C1218 C1216 1.381 . S
C1218 C1219 1.394 . S
C1218 H1226 0.930 . S
C1219 C1218 1.394 . S
C1219 C1220 1.383 . S
C1219 H1227 0.929 . S
C1220 C1219 1.383 . S
C1220 C1221 1.377 . S
C1221 H1205 0.930 . S
C1221 C1220 1.377 . S
C1221 C1222 1.379 . S
C1222 H1206 0.931 . S
C1222 C1216 1.383 . S
C1222 C1221 1.379 . S
H1223 C1217 0.959 . S
H1224 C1217 0.961 . S
H1225 C1217 0.960 . S
H1226 C1218 0.930 . S
H1227 C1219 0.929 . S
H1228 C1236 0.929 . S
H1229 C1238 0.930 . S
H1230 C1240 0.930 . S
H1231 C1243 0.929 . S
H1232 C1246 0.930 . S
H1233 C1248 0.960 . S
H1234 C1248 0.960 . S
H1235 C1248 0.960 . S
C1236 H1228 0.929 . S
C1236 C1237 1.377 . S
C1236 C1238 1.384 . S
C1237 C1236 1.377 . S
C1237 C1243 1.390 . S
C1238 H1229 0.930 . S
C1238 C1236 1.384 . S
C1238 C1239 1.372 . S
C1239 C1238 1.372 . S
C1239 C1240 1.400 . S
C1239 C1244 1.490 . S
C1240 H1230 0.930 . S
C1240 C1239 1.400 . S
C1240 C1243 1.386 . S
H1241 C1257 0.930 . S
H1242 C1258 0.931 . S
C1243 H1231 0.929 . S
C1243 C1237 1.390 . S
C1243 C1240 1.386 . S
C1244 C1239 1.490 . S
C1244 C1246 1.395 . S
C1244 C1247 1.403 . S
H1245 C1251 0.930 . S
C1246 H1232 0.930 . S
C1246 C1244 1.395 . S
C1246 C1249 1.403 . S
C1247 C1244 1.403 . S
C1247 C1248 1.524 . S
C1247 C1251 1.400 . S
C1248 H1233 0.960 . S
C1248 H1234 0.960 . S
C1248 H1235 0.960 . S
C1248 C1247 1.524 . S
C1249 C1246 1.403 . S
C1249 C1250 1.392 . S
C1249 C1253 1.495 . S
C1250 C1249 1.392 . S
C1250 C1251 1.385 . S
C1250 C1252 1.478 . S
C1251 H1245 0.930 . S
C1251 C1247 1.400 . S
C1251 C1250 1.385 . S
C1252 C1250 1.478 . S
C1252 C1254 1.381 . S
C1252 C1258 1.383 . S
C1253 C1249 1.495 . S
C1253 H1259 0.959 . S
C1253 H1260 0.961 . S
C1253 H1261 0.960 . S
C1254 C1252 1.381 . S
C1254 C1255 1.394 . S
C1254 H1262 0.930 . S
C1255 C1254 1.394 . S
C1255 C1256 1.383 . S
C1255 H1263 0.929 . S
C1256 C1255 1.383 . S
C1256 C1257 1.377 . S
C1257 H1241 0.930 . S
C1257 C1256 1.377 . S
C1257 C1258 1.379 . S
C1258 H1242 0.931 . S
C1258 C1252 1.383 . S
C1258 C1257 1.379 . S
H1259 C1253 0.959 . S
H1260 C1253 0.961 . S
H1261 C1253 0.960 . S
H1262 C1254 0.930 . S
H1263 C1255 0.929 . S
H1264 C1272 0.929 . S
H1265 C1274 0.930 . S
H1266 C1276 0.930 . S
H1267 C1279 0.929 . S
H1268 C1282 0.930 1_455 S
H1269 C1284 0.960 . S
H1270 C1284 0.960 . S
H1271 C1284 0.960 . S
C1272 H1264 0.929 . S
C1272 C1273 1.377 . S
C1272 C1274 1.384 . S
C1273 C1272 1.377 . S
C1273 C1279 1.390 . S
C1274 H1265 0.930 . S
C1274 C1272 1.384 . S
C1274 C1275 1.372 . S
C1275 C1274 1.372 . S
C1275 C1276 1.400 . S
C1275 C1280 1.490 . S
C1276 H1266 0.930 . S
C1276 C1275 1.400 . S
C1276 C1279 1.386 . S
H1277 C1293 0.930 . S
H1278 C1294 0.931 . S
C1279 H1267 0.929 . S
C1279 C1273 1.390 . S
C1279 C1276 1.386 . S
C1280 C1275 1.490 . S
C1280 C1282 1.395 . S
C1280 C1283 1.403 . S
H1281 C1287 0.930 . S
C1282 H1268 0.930 1_655 S
C1282 C1280 1.395 . S
C1282 C1285 1.403 1_655 S
C1283 C1280 1.403 . S
C1283 C1284 1.524 . S
C1283 C1287 1.400 . S
C1284 H1269 0.960 . S
C1284 H1270 0.960 . S
C1284 H1271 0.960 . S
C1284 C1283 1.524 . S
C1285 C1282 1.403 1_455 S
C1285 C1286 1.392 1_455 S
C1285 C1289 1.495 . S
C1286 C1285 1.392 1_655 S
C1286 C1287 1.385 . S
C1286 C1288 1.486 . S
C1287 H1281 0.930 . S
C1287 C1283 1.400 . S
C1287 C1286 1.385 . S
C1288 C1286 1.486 . S
C1288 C1290 1.366 1_655 S
C1288 C1294 1.390 . S
C1289 C1285 1.495 . S
C1289 H1295 0.959 . S
C1289 H1296 0.961 . S
C1289 H1297 0.960 . S
C1290 C1288 1.366 1_455 S
C1290 C1291 1.394 . S
C1290 H1298 0.930 . S
C1291 C1290 1.394 . S
C1291 C1292 1.383 . S
C1291 H1299 0.929 . S
C1292 C1291 1.383 . S
C1292 C1293 1.377 1_455 S
C1293 H1277 0.930 . S
C1293 C1292 1.377 1_655 S
C1293 C1294 1.379 . S
C1294 H1278 0.931 . S
C1294 C1288 1.390 . S
C1294 C1293 1.379 . S
H1295 C1289 0.959 . S
H1296 C1289 0.961 . S
H1297 C1289 0.960 . S
H1298 C1290 0.930 . S
H1299 C1291 0.929 . S
H1300 C1308 0.929 . S
H1301 C1310 0.930 . S
H1302 C1312 0.930 . S
H1303 C1315 0.929 . S
H1304 C1318 0.930 . S
H1305 C1320 0.960 . S
H1306 C1320 0.960 . S
H1307 C1320 0.960 . S
C1308 H1300 0.929 . S
C1308 C1309 1.377 . S
C1308 C1310 1.384 . S
C1309 C1308 1.377 . S
C1309 C1315 1.390 . S
C1310 H1301 0.930 . S
C1310 C1308 1.384 . S
C1310 C1311 1.372 . S
C1311 C1310 1.372 . S
C1311 C1312 1.400 . S
C1311 C1316 1.490 . S
C1312 H1302 0.930 . S
C1312 C1311 1.400 . S
C1312 C1315 1.386 . S
H1313 C1329 0.930 . S
H1314 C1330 0.931 . S
C1315 H1303 0.929 . S
C1315 C1309 1.390 . S
C1315 C1312 1.386 . S
C1316 C1311 1.490 . S
C1316 C1318 1.395 . S
C1316 C1319 1.403 . S
H1317 C1323 0.930 . S
C1318 H1304 0.930 . S
C1318 C1316 1.395 . S
C1318 C1321 1.403 . S
C1319 C1316 1.403 . S
C1319 C1320 1.524 . S
C1319 C1323 1.400 . S
C1320 H1305 0.960 . S
C1320 H1306 0.960 . S
C1320 H1307 0.960 . S
C1320 C1319 1.524 . S
C1321 C1318 1.403 . S
C1321 C1322 1.392 . S
C1321 C1325 1.495 . S
C1322 C1321 1.392 . S
C1322 C1323 1.385 . S
C1322 C1324 1.478 . S
C1323 H1317 0.930 . S
C1323 C1319 1.400 . S
C1323 C1322 1.385 . S
C1324 C1322 1.478 . S
C1324 C1326 1.381 . S
C1324 C1330 1.383 . S
C1325 C1321 1.495 . S
C1325 H1331 0.959 . S
C1325 H1332 0.961 . S
C1325 H1333 0.960 . S
C1326 C1324 1.381 . S
C1326 C1327 1.394 . S
C1326 H1334 0.930 . S
C1327 C1326 1.394 . S
C1327 C1328 1.383 . S
C1327 H1335 0.929 . S
C1328 C1327 1.383 . S
C1328 C1329 1.377 . S
C1329 H1313 0.930 . S
C1329 C1328 1.377 . S
C1329 C1330 1.379 . S
C1330 H1314 0.931 . S
C1330 C1324 1.383 . S
C1330 C1329 1.379 . S
H1331 C1325 0.959 . S
H1332 C1325 0.961 . S
H1333 C1325 0.960 . S
H1334 C1326 0.930 . S
H1335 C1327 0.929 . S
H1336 C1344 0.929 . S
H1337 C1346 0.930 . S
H1338 C1348 0.930 . S
H1339 C1351 0.929 . S
H1340 C1354 0.930 . S
H1341 C1356 0.960 . S
H1342 C1356 0.960 . S
H1343 C1356 0.960 . S
C1344 H1336 0.929 . S
C1344 C1345 1.377 . S
C1344 C1346 1.384 . S
C1345 C1344 1.377 . S
C1345 C1351 1.390 . S
C1346 H1337 0.930 . S
C1346 C1344 1.384 . S
C1346 C1347 1.372 . S
C1347 C1346 1.372 . S
C1347 C1348 1.400 . S
C1347 C1352 1.490 . S
C1348 H1338 0.930 . S
C1348 C1347 1.400 . S
C1348 C1351 1.386 . S
H1349 C1365 0.930 . S
H1350 C1366 0.931 . S
C1351 H1339 0.929 . S
C1351 C1345 1.390 . S
C1351 C1348 1.386 . S
C1352 C1347 1.490 . S
C1352 C1354 1.395 . S
C1352 C1355 1.403 . S
H1353 C1359 0.930 . S
C1354 H1340 0.930 . S
C1354 C1352 1.395 . S
C1354 C1357 1.403 . S
C1355 C1352 1.403 . S
C1355 C1356 1.524 . S
C1355 C1359 1.400 . S
C1356 H1341 0.960 . S
C1356 H1342 0.960 . S
C1356 H1343 0.960 . S
C1356 C1355 1.524 . S
C1357 C1354 1.403 . S
C1357 C1358 1.392 . S
C1357 C1361 1.495 . S
C1358 C1357 1.392 . S
C1358 C1359 1.385 . S
C1358 C1360 1.478 . S
C1359 H1353 0.930 . S
C1359 C1355 1.400 . S
C1359 C1358 1.385 . S
C1360 C1358 1.478 . S
C1360 C1362 1.381 . S
C1360 C1366 1.383 . S
C1361 C1357 1.495 . S
C1361 H1367 0.959 . S
C1361 H1368 0.961 . S
C1361 H1369 0.960 . S
C1362 C1360 1.381 . S
C1362 C1363 1.394 . S
C1362 H1370 0.930 . S
C1363 C1362 1.394 . S
C1363 C1364 1.383 . S
C1363 H1371 0.929 . S
C1364 C1363 1.383 . S
C1364 C1365 1.377 . S
C1365 H1349 0.930 . S
C1365 C1364 1.377 . S
C1365 C1366 1.379 . S
C1366 H1350 0.931 . S
C1366 C1360 1.383 . S
C1366 C1365 1.379 . S
H1367 C1361 0.959 . S
H1368 C1361 0.961 . S
H1369 C1361 0.960 . S
H1370 C1362 0.930 . S
H1371 C1363 0.929 . S
H1372 C1380 0.929 . S
H1373 C1382 0.930 . S
H1374 C1384 0.930 . S
H1375 C1387 0.929 . S
H1376 C1390 0.930 . S
H1377 C1392 0.960 . S
H1378 C1392 0.960 . S
H1379 C1392 0.960 . S
C1380 H1372 0.929 . S
C1380 C1381 1.377 . S
C1380 C1382 1.384 . S
C1381 C1380 1.377 . S
C1381 C1387 1.390 . S
C1382 H1373 0.930 . S
C1382 C1380 1.384 . S
C1382 C1383 1.372 . S
C1383 C1382 1.372 . S
C1383 C1384 1.400 . S
C1383 C1388 1.490 . S
C1384 H1374 0.930 . S
C1384 C1383 1.400 . S
C1384 C1387 1.386 . S
H1385 C1401 0.930 . S
H1386 C1402 0.931 . S
C1387 H1375 0.929 . S
C1387 C1381 1.390 . S
C1387 C1384 1.386 . S
C1388 C1383 1.490 . S
C1388 C1390 1.395 . S
C1388 C1391 1.403 . S
H1389 C1395 0.930 . S
C1390 H1376 0.930 . S
C1390 C1388 1.395 . S
C1390 C1393 1.403 . S
C1391 C1388 1.403 . S
C1391 C1392 1.524 . S
C1391 C1395 1.400 . S
C1392 H1377 0.960 . S
C1392 H1378 0.960 . S
C1392 H1379 0.960 . S
C1392 C1391 1.524 . S
C1393 C1390 1.403 . S
C1393 C1394 1.392 . S
C1393 C1397 1.495 . S
C1394 C1393 1.392 . S
C1394 C1395 1.385 . S
C1394 C1396 1.478 . S
C1395 H1389 0.930 . S
C1395 C1391 1.400 . S
C1395 C1394 1.385 . S
C1396 C1394 1.478 . S
C1396 C1398 1.381 . S
C1396 C1402 1.383 . S
C1397 C1393 1.495 . S
C1397 H1403 0.959 . S
C1397 H1404 0.961 . S
C1397 H1405 0.960 . S
C1398 C1396 1.381 . S
C1398 C1399 1.394 . S
C1398 H1406 0.930 . S
C1399 C1398 1.394 . S
C1399 C1400 1.383 . S
C1399 H1407 0.929 . S
C1400 C1399 1.383 . S
C1400 C1401 1.377 . S
C1401 H1385 0.930 . S
C1401 C1400 1.377 . S
C1401 C1402 1.379 . S
C1402 H1386 0.931 . S
C1402 C1396 1.383 . S
C1402 C1401 1.379 . S
H1403 C1397 0.959 . S
H1404 C1397 0.961 . S
H1405 C1397 0.960 . S
H1406 C1398 0.930 . S
H1407 C1399 0.929 . S
H1408 C1416 0.929 . S
H1409 C1418 0.930 . S
H1410 C1420 0.930 . S
H1411 C1423 0.929 . S
H1412 C1426 0.930 . S
H1413 C1428 0.915 1_455 S
H1414 C1428 0.932 1_455 S
H1415 C1428 0.995 . S
C1416 H1408 0.929 . S
C1416 C1417 1.377 . S
C1416 C1418 1.384 . S
C1417 C1416 1.377 . S
C1417 C1423 1.390 . S
C1418 H1409 0.930 . S
C1418 C1416 1.384 . S
C1418 C1419 1.372 . S
C1419 C1418 1.372 . S
C1419 C1420 1.400 . S
C1419 C1424 1.490 . S
C1420 H1410 0.930 . S
C1420 C1419 1.400 . S
C1420 C1423 1.386 . S
H1421 C1437 0.930 . S
H1422 C1438 0.931 . S
C1423 H1411 0.929 . S
C1423 C1417 1.390 . S
C1423 C1420 1.386 . S
C1424 C1419 1.490 . S
C1424 C1426 1.395 . S
C1424 C1427 1.403 . S
H1425 C1431 0.930 1_455 S
C1426 H1412 0.930 . S
C1426 C1424 1.395 . S
C1426 C1429 1.403 . S
C1427 C1424 1.403 . S
C1427 C1428 1.567 . S
C1427 C1431 1.400 . S
C1428 H1413 0.915 1_655 S
C1428 H1414 0.932 1_655 S
C1428 H1415 0.995 . S
C1428 C1427 1.567 . S
C1429 C1426 1.403 . S
C1429 C1430 1.392 . S
C1429 C1433 1.495 . S
C1430 C1429 1.392 . S
C1430 C1431 1.385 . S
C1430 C1432 1.478 . S
C1431 H1425 0.930 1_655 S
C1431 C1427 1.400 . S
C1431 C1430 1.385 . S
C1432 C1430 1.478 . S
C1432 C1434 1.381 1_655 S
C1432 C1438 1.383 . S
C1433 C1429 1.495 . S
C1433 H1439 0.959 . S
C1433 H1440 0.961 . S
C1433 H1441 0.960 . S
C1434 C1432 1.381 1_455 S
C1434 C1435 1.394 . S
C1434 H1442 0.930 . S
C1435 C1434 1.394 . S
C1435 C1436 1.383 . S
C1435 H1443 0.929 . S
C1436 C1435 1.383 . S
C1436 C1437 1.377 1_455 S
C1437 H1421 0.930 . S
C1437 C1436 1.377 1_655 S
C1437 C1438 1.379 . S
C1438 H1422 0.931 . S
C1438 C1432 1.383 . S
C1438 C1437 1.379 . S
H1439 C1433 0.959 . S
H1440 C1433 0.961 . S
H1441 C1433 0.960 . S
H1442 C1434 0.930 . S
H1443 C1435 0.929 . S
H1444 C1452 0.929 . S
H1445 C1454 0.930 . S
H1446 C1456 0.930 . S
H1447 C1459 0.929 . S
H1448 C1462 0.930 . S
H1449 C1464 0.960 . S
H1450 C1464 0.960 . S
H1451 C1464 0.960 . S
C1452 H1444 0.929 . S
C1452 C1453 1.377 . S
C1452 C1454 1.384 . S
C1453 C1452 1.377 . S
C1453 C1459 1.390 . S
C1454 H1445 0.930 . S
C1454 C1452 1.384 . S
C1454 C1455 1.372 . S
C1455 C1454 1.372 . S
C1455 C1456 1.400 . S
C1455 C1460 1.490 . S
C1456 H1446 0.930 . S
C1456 C1455 1.400 . S
C1456 C1459 1.386 . S
H1457 C1473 0.930 . S
H1458 C1474 0.931 . S
C1459 H1447 0.929 . S
C1459 C1453 1.390 . S
C1459 C1456 1.386 . S
C1460 C1455 1.490 . S
C1460 C1462 1.395 . S
C1460 C1463 1.403 . S
H1461 C1467 0.930 . S
C1462 H1448 0.930 . S
C1462 C1460 1.395 . S
C1462 C1465 1.403 . S
C1463 C1460 1.403 . S
C1463 C1464 1.524 . S
C1463 C1467 1.400 . S
C1464 H1449 0.960 . S
C1464 H1450 0.960 . S
C1464 H1451 0.960 . S
C1464 C1463 1.524 . S
C1465 C1462 1.403 . S
C1465 C1466 1.392 . S
C1465 C1469 1.495 . S
C1466 C1465 1.392 . S
C1466 C1467 1.385 . S
C1466 C1468 1.478 . S
C1467 H1461 0.930 . S
C1467 C1463 1.400 . S
C1467 C1466 1.385 . S
C1468 C1466 1.478 . S
C1468 C1470 1.381 . S
C1468 C1474 1.383 . S
C1469 C1465 1.495 . S
C1469 H1475 0.959 . S
C1469 H1476 0.961 . S
C1469 H1477 0.960 . S
C1470 C1468 1.381 . S
C1470 C1471 1.394 . S
C1470 H1478 0.930 . S
C1471 C1470 1.394 . S
C1471 C1472 1.383 . S
C1471 H1479 0.929 . S
C1472 C1471 1.383 . S
C1472 C1473 1.377 . S
C1473 H1457 0.930 . S
C1473 C1472 1.377 . S
C1473 C1474 1.379 . S
C1474 H1458 0.931 . S
C1474 C1468 1.383 . S
C1474 C1473 1.379 . S
H1475 C1469 0.959 . S
H1476 C1469 0.961 . S
H1477 C1469 0.960 . S
H1478 C1470 0.930 . S
H1479 C1471 0.929 . S
H1480 C1488 0.929 . S
H1481 C1490 0.930 . S
H1482 C1492 0.930 . S
H1483 C1495 0.929 . S
H1484 C1498 0.930 . S
H1485 C1500 0.960 . S
H1486 C1500 0.960 . S
H1487 C1500 0.960 . S
C1488 H1480 0.929 . S
C1488 C1489 1.377 . S
C1488 C1490 1.384 . S
C1489 C1488 1.377 . S
C1489 C1495 1.390 . S
C1490 H1481 0.930 . S
C1490 C1488 1.384 . S
C1490 C1491 1.372 . S
C1491 C1490 1.372 . S
C1491 C1492 1.400 . S
C1491 C1496 1.490 . S
C1492 H1482 0.930 . S
C1492 C1491 1.400 . S
C1492 C1495 1.386 . S
H1493 C1509 0.930 . S
H1494 C1510 0.931 . S
C1495 H1483 0.929 . S
C1495 C1489 1.390 . S
C1495 C1492 1.386 . S
C1496 C1491 1.490 . S
C1496 C1498 1.395 . S
C1496 C1499 1.403 . S
H1497 C1503 0.930 . S
C1498 H1484 0.930 . S
C1498 C1496 1.395 . S
C1498 C1501 1.403 . S
C1499 C1496 1.403 . S
C1499 C1500 1.524 . S
C1499 C1503 1.400 . S
C1500 H1485 0.960 . S
C1500 H1486 0.960 . S
C1500 H1487 0.960 . S
C1500 C1499 1.524 . S
C1501 C1498 1.403 . S
C1501 C1502 1.392 . S
C1501 C1505 1.495 . S
C1502 C1501 1.392 . S
C1502 C1503 1.385 . S
C1502 C1504 1.478 . S
C1503 H1497 0.930 . S
C1503 C1499 1.400 . S
C1503 C1502 1.385 . S
C1504 C1502 1.478 . S
C1504 C1506 1.381 . S
C1504 C1510 1.383 . S
C1505 C1501 1.495 . S
C1505 H1511 0.959 . S
C1505 H1512 0.961 . S
C1505 H1513 0.960 . S
C1506 C1504 1.381 . S
C1506 C1507 1.394 . S
C1506 H1514 0.930 . S
C1507 C1506 1.394 . S
C1507 C1508 1.383 . S
C1507 H1515 0.929 . S
C1508 C1507 1.383 . S
C1508 C1509 1.377 . S
C1509 H1493 0.930 . S
C1509 C1508 1.377 . S
C1509 C1510 1.379 . S
C1510 H1494 0.931 . S
C1510 C1504 1.383 . S
C1510 C1509 1.379 . S
H1511 C1505 0.959 . S
H1512 C1505 0.961 . S
H1513 C1505 0.960 . S
H1514 C1506 0.930 . S
H1515 C1507 0.929 . S
H1516 C1524 0.929 . S
H1517 C1526 0.930 . S
H1518 C1528 0.930 . S
H1519 C1531 0.929 . S
H1520 C1534 0.930 . S
H1521 C1536 0.960 . S
H1522 C1536 0.960 . S
H1523 C1536 0.960 . S
C1524 H1516 0.929 . S
C1524 C1525 1.377 . S
C1524 C1526 1.384 . S
C1525 C1524 1.377 . S
C1525 C1531 1.390 . S
C1526 H1517 0.930 . S
C1526 C1524 1.384 . S
C1526 C1527 1.372 . S
C1527 C1526 1.372 . S
C1527 C1528 1.400 . S
C1527 C1532 1.490 . S
C1528 H1518 0.930 . S
C1528 C1527 1.400 . S
C1528 C1531 1.386 . S
H1529 C1545 0.930 . S
H1530 C1546 0.931 . S
C1531 H1519 0.929 . S
C1531 C1525 1.390 . S
C1531 C1528 1.386 . S
C1532 C1527 1.490 . S
C1532 C1534 1.395 . S
C1532 C1535 1.403 . S
H1533 C1539 0.930 . S
C1534 H1520 0.930 . S
C1534 C1532 1.395 . S
C1534 C1537 1.403 . S
C1535 C1532 1.403 . S
C1535 C1536 1.524 . S
C1535 C1539 1.400 . S
C1536 H1521 0.960 . S
C1536 H1522 0.960 . S
C1536 H1523 0.960 . S
C1536 C1535 1.524 . S
C1537 C1534 1.403 . S
C1537 C1538 1.392 . S
C1537 C1541 1.495 . S
C1538 C1537 1.392 . S
C1538 C1539 1.385 . S
C1538 C1540 1.478 . S
C1539 H1533 0.930 . S
C1539 C1535 1.400 . S
C1539 C1538 1.385 . S
C1540 C1538 1.478 . S
C1540 C1542 1.381 . S
C1540 C1546 1.383 . S
C1541 C1537 1.495 . S
C1541 H1547 0.959 . S
C1541 H1548 0.961 . S
C1541 H1549 0.960 . S
C1542 C1540 1.381 . S
C1542 C1543 1.394 . S
C1542 H1550 0.930 . S
C1543 C1542 1.394 . S
C1543 C1544 1.383 . S
C1543 H1551 0.929 . S
C1544 C1543 1.383 . S
C1544 C1545 1.377 . S
C1545 H1529 0.930 . S
C1545 C1544 1.377 . S
C1545 C1546 1.379 . S
C1546 H1530 0.931 . S
C1546 C1540 1.383 . S
C1546 C1545 1.379 . S
H1547 C1541 0.959 . S
H1548 C1541 0.961 . S
H1549 C1541 0.960 . S
H1550 C1542 0.930 . S
H1551 C1543 0.929 . S
H1552 C1560 0.929 . S
H1553 C1562 0.930 . S
H1554 C1564 0.930 . S
H1555 C1567 0.929 . S
H1556 C1570 0.930 . S
H1557 C1572 0.960 . S
H1558 C1572 0.960 . S
H1559 C1572 0.960 1_554 S
C1560 H1552 0.929 . S
C1560 C1561 1.377 . S
C1560 C1562 1.384 . S
C1561 C1560 1.377 . S
C1561 C1567 1.390 1_556 S
C1562 H1553 0.930 . S
C1562 C1560 1.384 . S
C1562 C1563 1.372 1_556 S
C1563 C1562 1.372 1_554 S
C1563 C1564 1.400 . S
C1563 C1568 1.490 . S
C1564 H1554 0.930 . S
C1564 C1563 1.400 . S
C1564 C1567 1.386 . S
H1565 C1581 0.930 . S
H1566 C1582 0.931 . S
C1567 H1555 0.929 . S
C1567 C1561 1.390 1_554 S
C1567 C1564 1.386 . S
C1568 C1563 1.490 . S
C1568 C1570 1.395 . S
C1568 C1571 1.403 . S
H1569 C1575 0.930 . S
C1570 H1556 0.930 . S
C1570 C1568 1.395 . S
C1570 C1573 1.403 . S
C1571 C1568 1.403 . S
C1571 C1572 1.524 1_554 S
C1571 C1575 1.400 . S
C1572 H1557 0.960 . S
C1572 H1558 0.960 . S
C1572 H1559 0.960 1_556 S
C1572 C1571 1.524 1_556 S
C1573 C1570 1.403 . S
C1573 C1574 1.392 . S
C1573 C1577 1.495 . S
C1574 C1573 1.392 . S
C1574 C1575 1.385 . S
C1574 C1576 1.478 . S
C1575 H1569 0.930 . S
C1575 C1571 1.400 . S
C1575 C1574 1.385 . S
C1576 C1574 1.478 . S
C1576 C1578 1.381 . S
C1576 C1582 1.383 . S
C1577 C1573 1.495 . S
C1577 H1583 0.959 . S
C1577 H1584 0.961 . S
C1577 H1585 0.960 . S
C1578 C1576 1.381 . S
C1578 C1579 1.394 . S
C1578 H1586 0.930 . S
C1579 C1578 1.394 . S
C1579 C1580 1.383 . S
C1579 H1587 0.929 . S
C1580 C1579 1.383 . S
C1580 C1581 1.377 1_565 S
C1581 H1565 0.930 . S
C1581 C1580 1.377 1_545 S
C1581 C1582 1.379 1_545 S
C1582 H1566 0.931 . S
C1582 C1576 1.383 . S
C1582 C1581 1.379 1_565 S
H1583 C1577 0.959 . S
H1584 C1577 0.961 . S
H1585 C1577 0.960 . S
H1586 C1578 0.930 . S
H1587 C1579 0.929 . S
H1588 C1596 0.929 . S
H1589 C1598 0.930 . S
H1590 C1600 0.930 1_556 S
H1591 C1603 0.929 1_556 S
H1592 C1606 0.930 . S
H1593 C1608 0.960 . S
H1594 C1608 0.960 . S
H1595 C1608 0.960 . S
C1596 H1588 0.929 . S
C1596 C1597 1.377 . S
C1596 C1598 1.384 . S
C1597 C1596 1.377 . S
C1597 C1603 1.390 . S
C1598 H1589 0.930 . S
C1598 C1596 1.384 . S
C1598 C1599 1.372 . S
C1599 C1598 1.372 . S
C1599 C1600 1.400 . S
C1599 C1604 1.490 . S
C1600 H1590 0.930 1_554 S
C1600 C1599 1.400 . S
C1600 C1603 1.386 . S
H1601 C1617 0.930 1_556 S
H1602 C1618 0.969 . S
C1603 H1591 0.929 1_554 S
C1603 C1597 1.390 . S
C1603 C1600 1.386 . S
C1604 C1599 1.490 . S
C1604 C1606 1.395 . S
C1604 C1607 1.403 1_554 S
H1605 C1611 0.931 . S
C1606 H1592 0.930 . S
C1606 C1604 1.395 . S
C1606 C1609 1.403 . S
C1607 C1604 1.403 1_556 S
C1607 C1608 1.524 . S
C1607 C1611 1.400 . S
C1608 H1593 0.960 . S
C1608 H1594 0.960 . S
C1608 H1595 0.960 . S
C1608 C1607 1.524 . S
C1609 C1606 1.403 . S
C1609 C1610 1.392 . S
C1609 C1613 1.495 . S
C1610 C1609 1.392 . S
C1610 C1611 1.384 1_554 S
C1610 C1612 1.478 . S
C1611 H1605 0.931 . S
C1611 C1607 1.400 . S
C1611 C1610 1.384 1_556 S
C1612 C1610 1.478 . S
C1612 C1614 1.381 . S
C1612 C1618 1.383 . S
C1613 C1609 1.495 . S
C1613 H1619 0.959 . S
C1613 H1620 0.961 . S
C1613 H1621 0.960 . S
C1614 C1612 1.381 . S
C1614 C1615 1.394 . S
C1614 H1622 0.930 . S
C1615 C1614 1.394 . S
C1615 C1616 1.383 . S
C1615 H1623 0.929 . S
C1616 C1615 1.383 . S
C1616 C1617 1.377 . S
C1617 H1601 0.930 1_554 S
C1617 C1616 1.377 . S
C1617 C1618 1.379 . S
C1618 H1602 0.969 . S
C1618 C1612 1.383 . S
C1618 C1617 1.379 . S
H1619 C1613 0.959 . S
H1620 C1613 0.961 . S
H1621 C1613 0.960 . S
H1622 C1614 0.930 . S
H1623 C1615 0.929 . S
H1624 C1632 0.929 . S
H1625 C1634 0.930 . S
H1626 C1636 0.930 . S
H1627 C1639 0.929 . S
H1628 C1642 0.930 . S
H1629 C1644 0.960 . S
H1630 C1644 0.960 . S
H1631 C1644 0.960 . S
C1632 H1624 0.929 . S
C1632 C1633 1.377 . S
C1632 C1634 1.384 . S
C1633 C1632 1.377 . S
C1633 C1639 1.390 . S
C1634 H1625 0.930 . S
C1634 C1632 1.384 . S
C1634 C1635 1.372 . S
C1635 C1634 1.372 . S
C1635 C1636 1.400 . S
C1635 C1640 1.490 . S
C1636 H1626 0.930 . S
C1636 C1635 1.400 . S
C1636 C1639 1.386 . S
H1637 C1653 0.930 . S
H1638 C1654 0.931 . S
C1639 H1627 0.929 . S
C1639 C1633 1.390 . S
C1639 C1636 1.386 . S
C1640 C1635 1.490 . S
C1640 C1642 1.395 . S
C1640 C1643 1.403 . S
H1641 C1647 0.930 . S
C1642 H1628 0.930 . S
C1642 C1640 1.395 . S
C1642 C1645 1.403 . S
C1643 C1640 1.403 . S
C1643 C1644 1.524 . S
C1643 C1647 1.400 . S
C1644 H1629 0.960 . S
C1644 H1630 0.960 . S
C1644 H1631 0.960 . S
C1644 C1643 1.524 . S
C1645 C1642 1.403 . S
C1645 C1646 1.392 . S
C1645 C1649 1.495 . S
C1646 C1645 1.392 . S
C1646 C1647 1.385 . S
C1646 C1648 1.478 . S
C1647 H1641 0.930 . S
C1647 C1643 1.400 . S
C1647 C1646 1.385 . S
C1648 C1646 1.478 . S
C1648 C1650 1.381 . S
C1648 C1654 1.383 . S
C1649 C1645 1.495 . S
C1649 H1655 0.959 . S
C1649 H1656 0.961 . S
C1649 H1657 0.960 . S
C1650 C1648 1.381 . S
C1650 C1651 1.394 . S
C1650 H1658 0.930 . S
C1651 C1650 1.394 . S
C1651 C1652 1.383 . S
C1651 H1659 0.929 . S
C1652 C1651 1.383 . S
C1652 C1653 1.377 . S
C1653 H1637 0.930 . S
C1653 C1652 1.377 . S
C1653 C1654 1.379 . S
C1654 H1638 0.931 . S
C1654 C1648 1.383 . S
C1654 C1653 1.379 . S
H1655 C1649 0.959 . S
H1656 C1649 0.961 . S
H1657 C1649 0.960 . S
H1658 C1650 0.930 . S
H1659 C1651 0.929 . S
H1660 C1668 0.929 . S
H1661 C1670 0.930 . S
H1662 C1672 0.930 . S
H1663 C1675 0.929 . S
H1664 C1678 0.930 . S
H1665 C1680 0.960 . S
H1666 C1680 0.960 . S
H1667 C1680 0.960 . S
C1668 H1660 0.929 . S
C1668 C1669 1.377 . S
C1668 C1670 1.384 . S
C1669 C1668 1.377 . S
C1669 C1675 1.390 . S
C1670 H1661 0.930 . S
C1670 C1668 1.384 . S
C1670 C1671 1.372 . S
C1671 C1670 1.372 . S
C1671 C1672 1.400 . S
C1671 C1676 1.490 . S
C1672 H1662 0.930 . S
C1672 C1671 1.400 . S
C1672 C1675 1.386 . S
H1673 C1689 0.930 . S
H1674 C1690 0.931 . S
C1675 H1663 0.929 . S
C1675 C1669 1.390 . S
C1675 C1672 1.386 . S
C1676 C1671 1.490 . S
C1676 C1678 1.395 . S
C1676 C1679 1.403 . S
H1677 C1683 0.930 . S
C1678 H1664 0.930 . S
C1678 C1676 1.395 . S
C1678 C1681 1.403 . S
C1679 C1676 1.403 . S
C1679 C1680 1.524 . S
C1679 C1683 1.400 . S
C1680 H1665 0.960 . S
C1680 H1666 0.960 . S
C1680 H1667 0.960 . S
C1680 C1679 1.524 . S
C1681 C1678 1.403 . S
C1681 C1682 1.392 . S
C1681 C1685 1.495 . S
C1682 C1681 1.392 . S
C1682 C1683 1.385 . S
C1682 C1684 1.478 . S
C1683 H1677 0.930 . S
C1683 C1679 1.400 . S
C1683 C1682 1.385 . S
C1684 C1682 1.478 . S
C1684 C1686 1.381 . S
C1684 C1690 1.383 . S
C1685 C1681 1.495 . S
C1685 H1691 0.959 . S
C1685 H1692 0.961 . S
C1685 H1693 0.960 . S
C1686 C1684 1.381 . S
C1686 C1687 1.394 . S
C1686 H1694 0.930 . S
C1687 C1686 1.394 . S
C1687 C1688 1.383 . S
C1687 H1695 0.929 . S
C1688 C1687 1.383 . S
C1688 C1689 1.377 . S
C1689 H1673 0.930 . S
C1689 C1688 1.377 . S
C1689 C1690 1.379 . S
C1690 H1674 0.931 . S
C1690 C1684 1.383 . S
C1690 C1689 1.379 . S
H1691 C1685 0.959 . S
H1692 C1685 0.961 . S
H1693 C1685 0.960 . S
H1694 C1686 0.930 . S
H1695 C1687 0.929 . S
H1696 C1704 0.929 . S
H1697 C1706 0.930 . S
H1698 C1708 0.930 . S
H1699 C1711 0.929 . S
H1700 C1714 0.930 . S
H1701 C1716 0.960 . S
H1702 C1716 0.960 . S
H1703 C1716 0.960 . S
C1704 H1696 0.929 . S
C1704 C1705 1.377 . S
C1704 C1706 1.384 . S
C1705 C1704 1.377 . S
C1705 C1711 1.390 . S
C1706 H1697 0.930 . S
C1706 C1704 1.384 . S
C1706 C1707 1.372 . S
C1707 C1706 1.372 . S
C1707 C1708 1.400 . S
C1707 C1712 1.490 . S
C1708 H1698 0.930 . S
C1708 C1707 1.400 . S
C1708 C1711 1.386 . S
H1709 C1725 0.930 . S
H1710 C1726 0.931 . S
C1711 H1699 0.929 . S
C1711 C1705 1.390 . S
C1711 C1708 1.386 . S
C1712 C1707 1.490 . S
C1712 C1714 1.395 . S
C1712 C1715 1.403 . S
H1713 C1719 0.930 . S
C1714 H1700 0.930 . S
C1714 C1712 1.395 . S
C1714 C1717 1.403 . S
C1715 C1712 1.403 . S
C1715 C1716 1.524 . S
C1715 C1719 1.400 . S
C1716 H1701 0.960 . S
C1716 H1702 0.960 . S
C1716 H1703 0.960 . S
C1716 C1715 1.524 . S
C1717 C1714 1.403 . S
C1717 C1718 1.392 . S
C1717 C1721 1.495 . S
C1718 C1717 1.392 . S
C1718 C1719 1.385 . S
C1718 C1720 1.478 . S
C1719 H1713 0.930 . S
C1719 C1715 1.400 . S
C1719 C1718 1.385 . S
C1720 C1718 1.478 . S
C1720 C1722 1.381 . S
C1720 C1726 1.383 . S
C1721 C1717 1.495 . S
C1721 H1727 0.959 . S
C1721 H1728 0.961 . S
C1721 H1729 0.960 . S
C1722 C1720 1.381 . S
C1722 C1723 1.394 . S
C1722 H1730 0.930 . S
C1723 C1722 1.394 . S
C1723 C1724 1.383 . S
C1723 H1731 0.929 . S
C1724 C1723 1.383 . S
C1724 C1725 1.377 . S
C1725 H1709 0.930 . S
C1725 C1724 1.377 . S
C1725 C1726 1.379 . S
C1726 H1710 0.931 . S
C1726 C1720 1.383 . S
C1726 C1725 1.379 . S
H1727 C1721 0.959 . S
H1728 C1721 0.961 . S
H1729 C1721 0.960 . S
H1730 C1722 0.930 . S
H1731 C1723 0.929 . S
H1732 C1740 0.929 . S
H1733 C1742 0.930 . S
H1734 C1744 0.930 . S
H1735 C1747 0.929 . S
H1736 C1750 0.930 . S
H1737 C1752 0.960 . S
H1738 C1752 0.960 . S
H1739 C1752 0.960 . S
C1740 H1732 0.929 . S
C1740 C1741 1.377 . S
C1740 C1742 1.384 . S
C1741 C1740 1.377 . S
C1741 C1747 1.390 . S
C1742 H1733 0.930 . S
C1742 C1740 1.384 . S
C1742 C1743 1.372 . S
C1743 C1742 1.372 . S
C1743 C1744 1.400 . S
C1743 C1748 1.490 . S
C1744 H1734 0.930 . S
C1744 C1743 1.400 . S
C1744 C1747 1.386 . S
H1745 C1761 0.930 . S
H1746 C1762 0.931 . S
C1747 H1735 0.929 . S
C1747 C1741 1.390 . S
C1747 C1744 1.386 . S
C1748 C1743 1.490 . S
C1748 C1750 1.395 . S
C1748 C1751 1.403 . S
H1749 C1755 0.930 . S
C1750 H1736 0.930 . S
C1750 C1748 1.395 . S
C1750 C1753 1.403 . S
C1751 C1748 1.403 . S
C1751 C1752 1.524 . S
C1751 C1755 1.400 . S
C1752 H1737 0.960 . S
C1752 H1738 0.960 . S
C1752 H1739 0.960 . S
C1752 C1751 1.524 . S
C1753 C1750 1.403 . S
C1753 C1754 1.392 . S
C1753 C1757 1.495 . S
C1754 C1753 1.392 . S
C1754 C1755 1.385 . S
C1754 C1756 1.478 . S
C1755 H1749 0.930 . S
C1755 C1751 1.400 . S
C1755 C1754 1.385 . S
C1756 C1754 1.478 . S
C1756 C1758 1.381 . S
C1756 C1762 1.383 . S
C1757 C1753 1.495 . S
C1757 H1763 0.959 . S
C1757 H1764 0.961 . S
C1757 H1765 0.960 . S
C1758 C1756 1.381 . S
C1758 C1759 1.394 . S
C1758 H1766 0.930 . S
C1759 C1758 1.394 . S
C1759 C1760 1.383 . S
C1759 H1767 0.929 . S
C1760 C1759 1.383 . S
C1760 C1761 1.377 . S
C1761 H1745 0.930 . S
C1761 C1760 1.377 . S
C1761 C1762 1.379 . S
C1762 H1746 0.931 . S
C1762 C1756 1.383 . S
C1762 C1761 1.379 . S
H1763 C1757 0.959 . S
H1764 C1757 0.961 . S
H1765 C1757 0.960 . S
H1766 C1758 0.930 . S
H1767 C1759 0.929 . S
H1768 C1776 0.929 . S
H1769 C1778 0.930 . S
H1770 C1780 0.930 . S
H1771 C1783 0.929 . S
H1772 C1786 0.930 . S
H1773 C1788 0.960 . S
H1774 C1788 0.960 . S
H1775 C1788 0.960 . S
C1776 H1768 0.929 . S
C1776 C1777 1.377 . S
C1776 C1778 1.384 . S
C1777 C1776 1.377 . S
C1777 C1783 1.390 . S
C1778 H1769 0.930 . S
C1778 C1776 1.384 . S
C1778 C1779 1.372 . S
C1779 C1778 1.372 . S
C1779 C1780 1.400 . S
C1779 C1784 1.490 . S
C1780 H1770 0.930 . S
C1780 C1779 1.400 . S
C1780 C1783 1.386 . S
H1781 C1797 0.930 . S
H1782 C1798 0.931 . S
C1783 H1771 0.929 . S
C1783 C1777 1.390 . S
C1783 C1780 1.386 . S
C1784 C1779 1.490 . S
C1784 C1786 1.395 . S
C1784 C1787 1.403 . S
H1785 C1791 0.930 . S
C1786 H1772 0.930 . S
C1786 C1784 1.395 . S
C1786 C1789 1.403 . S
C1787 C1784 1.403 . S
C1787 C1788 1.524 . S
C1787 C1791 1.400 . S
C1788 H1773 0.960 . S
C1788 H1774 0.960 . S
C1788 H1775 0.960 . S
C1788 C1787 1.524 . S
C1789 C1786 1.403 . S
C1789 C1790 1.392 . S
C1789 C1793 1.495 . S
C1790 C1789 1.392 . S
C1790 C1791 1.385 . S
C1790 C1792 1.478 . S
C1791 H1785 0.930 . S
C1791 C1787 1.400 . S
C1791 C1790 1.385 . S
C1792 C1790 1.478 . S
C1792 C1794 1.381 . S
C1792 C1798 1.383 . S
C1793 C1789 1.495 . S
C1793 H1799 0.959 . S
C1793 H1800 0.961 . S
C1793 H1801 0.960 . S
C1794 C1792 1.381 . S
C1794 C1795 1.394 . S
C1794 H1802 0.930 . S
C1795 C1794 1.394 . S
C1795 C1796 1.383 . S
C1795 H1803 0.929 . S
C1796 C1795 1.383 . S
C1796 C1797 1.377 . S
C1797 H1781 0.930 . S
C1797 C1796 1.377 . S
C1797 C1798 1.379 . S
C1798 H1782 0.931 . S
C1798 C1792 1.383 . S
C1798 C1797 1.379 . S
H1799 C1793 0.959 . S
H1800 C1793 0.961 . S
H1801 C1793 0.960 . S
H1802 C1794 0.930 . S
H1803 C1795 0.929 . S
H1804 C1812 0.929 . S
H1805 C1814 0.930 . S
H1806 C1816 0.930 . S
H1807 C1819 0.929 . S
H1808 C1822 0.930 . S
H1809 C1824 0.960 . S
H1810 C1824 0.960 . S
H1811 C1824 0.960 . S
C1812 H1804 0.929 . S
C1812 C1813 1.377 . S
C1812 C1814 1.384 . S
C1813 C1812 1.377 . S
C1813 C1819 1.390 . S
C1814 H1805 0.930 . S
C1814 C1812 1.384 . S
C1814 C1815 1.372 . S
C1815 C1814 1.372 . S
C1815 C1816 1.400 . S
C1815 C1820 1.490 . S
C1816 H1806 0.930 . S
C1816 C1815 1.400 . S
C1816 C1819 1.386 . S
H1817 C1833 0.930 . S
H1818 C1834 0.931 . S
C1819 H1807 0.929 . S
C1819 C1813 1.390 . S
C1819 C1816 1.386 . S
C1820 C1815 1.490 . S
C1820 C1822 1.395 . S
C1820 C1823 1.403 . S
H1821 C1827 0.930 . S
C1822 H1808 0.930 . S
C1822 C1820 1.395 . S
C1822 C1825 1.403 . S
C1823 C1820 1.403 . S
C1823 C1824 1.524 . S
C1823 C1827 1.400 . S
C1824 H1809 0.960 . S
C1824 H1810 0.960 . S
C1824 H1811 0.960 . S
C1824 C1823 1.524 . S
C1825 C1822 1.403 . S
C1825 C1826 1.392 . S
C1825 C1829 1.495 . S
C1826 C1825 1.392 . S
C1826 C1827 1.385 . S
C1826 C1828 1.478 . S
C1827 H1821 0.930 . S
C1827 C1823 1.400 . S
C1827 C1826 1.385 . S
C1828 C1826 1.478 . S
C1828 C1830 1.381 . S
C1828 C1834 1.383 . S
C1829 C1825 1.495 . S
C1829 H1835 0.959 . S
C1829 H1836 0.961 . S
C1829 H1837 0.960 . S
C1830 C1828 1.381 . S
C1830 C1831 1.394 . S
C1830 H1838 0.930 . S
C1831 C1830 1.394 . S
C1831 C1832 1.383 . S
C1831 H1839 0.929 . S
C1832 C1831 1.383 . S
C1832 C1833 1.377 . S
C1833 H1817 0.930 . S
C1833 C1832 1.377 . S
C1833 C1834 1.379 . S
C1834 H1818 0.931 . S
C1834 C1828 1.383 . S
C1834 C1833 1.379 . S
H1835 C1829 0.959 . S
H1836 C1829 0.961 . S
H1837 C1829 0.960 . S
H1838 C1830 0.930 . S
H1839 C1831 0.929 . S
H1840 C1848 0.929 . S
H1841 C1850 0.930 . S
H1842 C1852 0.930 . S
H1843 C1855 0.929 . S
H1844 C1858 0.930 . S
H1845 C1860 0.960 . S
H1846 C1860 0.960 . S
H1847 C1860 0.960 . S
C1848 H1840 0.929 . S
C1848 C1849 1.377 . S
C1848 C1850 1.384 . S
C1849 C1848 1.377 . S
C1849 C1855 1.390 . S
C1850 H1841 0.930 . S
C1850 C1848 1.384 . S
C1850 C1851 1.372 . S
C1851 C1850 1.372 . S
C1851 C1852 1.400 . S
C1851 C1856 1.490 . S
C1852 H1842 0.930 . S
C1852 C1851 1.400 . S
C1852 C1855 1.386 . S
H1853 C1869 0.930 . S
H1854 C1870 0.931 . S
C1855 H1843 0.929 . S
C1855 C1849 1.390 . S
C1855 C1852 1.386 . S
C1856 C1851 1.490 . S
C1856 C1858 1.395 . S
C1856 C1859 1.403 . S
H1857 C1863 0.930 . S
C1858 H1844 0.930 . S
C1858 C1856 1.395 . S
C1858 C1861 1.403 . S
C1859 C1856 1.403 . S
C1859 C1860 1.524 . S
C1859 C1863 1.400 . S
C1860 H1845 0.960 . S
C1860 H1846 0.960 . S
C1860 H1847 0.960 . S
C1860 C1859 1.524 . S
C1861 C1858 1.403 . S
C1861 C1862 1.392 . S
C1861 C1865 1.495 . S
C1862 C1861 1.392 . S
C1862 C1863 1.385 . S
C1862 C1864 1.478 . S
C1863 H1857 0.930 . S
C1863 C1859 1.400 . S
C1863 C1862 1.385 . S
C1864 C1862 1.478 . S
C1864 C1866 1.381 . S
C1864 C1870 1.383 . S
C1865 C1861 1.495 . S
C1865 H1871 0.959 . S
C1865 H1872 0.961 . S
C1865 H1873 1.013 . S
C1866 C1864 1.381 . S
C1866 C1867 1.394 . S
C1866 H1874 0.902 1_455 S
C1867 C1866 1.394 . S
C1867 C1868 1.383 . S
C1867 H1875 0.929 1_455 S
C1868 C1867 1.383 . S
C1868 C1869 1.377 . S
C1869 H1853 0.930 . S
C1869 C1868 1.377 . S
C1869 C1870 1.379 . S
C1870 H1854 0.931 . S
C1870 C1864 1.383 . S
C1870 C1869 1.379 . S
H1871 C1865 0.959 . S
H1872 C1865 0.961 . S
H1873 C1865 1.013 . S
H1874 C1866 0.902 1_655 S
H1875 C1867 0.929 1_655 S
H1876 C1884 0.929 . S
H1877 C1886 0.930 . S
H1878 C1888 0.930 . S
H1879 C1891 0.929 . S
H1880 C1894 0.930 . S
H1881 C1896 0.960 . S
H1882 C1896 0.960 . S
H1883 C1896 0.960 . S
C1884 H1876 0.929 . S
C1884 C1885 1.377 . S
C1884 C1886 1.384 . S
C1885 C1884 1.377 . S
C1885 C1891 1.390 . S
C1886 H1877 0.930 . S
C1886 C1884 1.384 . S
C1886 C1887 1.372 . S
C1887 C1886 1.372 . S
C1887 C1888 1.400 . S
C1887 C1892 1.490 . S
C1888 H1878 0.930 . S
C1888 C1887 1.400 . S
C1888 C1891 1.386 . S
H1889 C1905 0.930 . S
H1890 C1906 0.931 . S
C1891 H1879 0.929 . S
C1891 C1885 1.390 . S
C1891 C1888 1.386 . S
C1892 C1887 1.490 . S
C1892 C1894 1.395 . S
C1892 C1895 1.403 . S
H1893 C1899 0.930 . S
C1894 H1880 0.930 . S
C1894 C1892 1.395 . S
C1894 C1897 1.403 . S
C1895 C1892 1.403 . S
C1895 C1896 1.524 . S
C1895 C1899 1.400 . S
C1896 H1881 0.960 . S
C1896 H1882 0.960 . S
C1896 H1883 0.960 . S
C1896 C1895 1.524 . S
C1897 C1894 1.403 . S
C1897 C1898 1.392 . S
C1897 C1901 1.495 . S
C1898 C1897 1.392 . S
C1898 C1899 1.385 . S
C1898 C1900 1.478 . S
C1899 H1893 0.930 . S
C1899 C1895 1.400 . S
C1899 C1898 1.385 . S
C1900 C1898 1.478 . S
C1900 C1902 1.381 . S
C1900 C1906 1.383 . S
C1901 C1897 1.495 . S
C1901 H1907 0.959 . S
C1901 H1908 0.961 . S
C1901 H1909 0.960 . S
C1902 C1900 1.381 . S
C1902 C1903 1.394 . S
C1902 H1910 0.930 . S
C1903 C1902 1.394 . S
C1903 C1904 1.383 . S
C1903 H1911 0.929 . S
C1904 C1903 1.383 . S
C1904 C1905 1.377 . S
C1905 H1889 0.930 . S
C1905 C1904 1.377 . S
C1905 C1906 1.379 . S
C1906 H1890 0.931 . S
C1906 C1900 1.383 . S
C1906 C1905 1.379 . S
H1907 C1901 0.959 . S
H1908 C1901 0.961 . S
H1909 C1901 0.960 . S
H1910 C1902 0.930 . S
H1911 C1903 0.929 . S
H1912 C1920 0.929 . S
H1913 C1922 0.930 . S
H1914 C1924 0.930 . S
H1915 C1927 0.929 . S
H1916 C1930 0.930 . S
H1917 C1932 0.960 . S
H1918 C1932 0.960 . S
H1919 C1932 0.960 . S
C1920 H1912 0.929 . S
C1920 C1921 1.377 . S
C1920 C1922 1.384 . S
C1921 C1920 1.377 . S
C1921 C1927 1.390 . S
C1922 H1913 0.930 . S
C1922 C1920 1.384 . S
C1922 C1923 1.372 . S
C1923 C1922 1.372 . S
C1923 C1924 1.400 . S
C1923 C1928 1.490 . S
C1924 H1914 0.930 . S
C1924 C1923 1.400 . S
C1924 C1927 1.386 . S
H1925 C1941 0.930 . S
H1926 C1942 0.931 . S
C1927 H1915 0.929 . S
C1927 C1921 1.390 . S
C1927 C1924 1.386 . S
C1928 C1923 1.490 . S
C1928 C1930 1.395 . S
C1928 C1931 1.403 . S
H1929 C1935 0.930 . S
C1930 H1916 0.930 . S
C1930 C1928 1.395 . S
C1930 C1933 1.403 . S
C1931 C1928 1.403 . S
C1931 C1932 1.524 . S
C1931 C1935 1.400 . S
C1932 H1917 0.960 . S
C1932 H1918 0.960 . S
C1932 H1919 0.960 . S
C1932 C1931 1.524 . S
C1933 C1930 1.403 . S
C1933 C1934 1.392 . S
C1933 C1937 1.495 . S
C1934 C1933 1.392 . S
C1934 C1935 1.385 . S
C1934 C1936 1.478 . S
C1935 H1929 0.930 . S
C1935 C1931 1.400 . S
C1935 C1934 1.385 . S
C1936 C1934 1.478 . S
C1936 C1938 1.381 . S
C1936 C1942 1.383 . S
C1937 C1933 1.495 . S
C1937 H1943 0.959 . S
C1937 H1944 0.961 . S
C1937 H1945 0.960 . S
C1938 C1936 1.381 . S
C1938 C1939 1.394 . S
C1938 H1946 0.930 . S
C1939 C1938 1.394 . S
C1939 C1940 1.383 . S
C1939 H1947 0.929 . S
C1940 C1939 1.383 . S
C1940 C1941 1.377 . S
C1941 H1925 0.930 . S
C1941 C1940 1.377 . S
C1941 C1942 1.379 . S
C1942 H1926 0.931 . S
C1942 C1936 1.383 . S
C1942 C1941 1.379 . S
H1943 C1937 0.959 . S
H1944 C1937 0.961 . S
H1945 C1937 0.960 . S
H1946 C1938 0.930 . S
H1947 C1939 0.929 . S
H1948 C1956 0.929 . S
H1949 C1958 0.930 . S
H1950 C1960 0.930 . S
H1951 C1963 0.929 . S
H1952 C1966 0.930 . S
H1953 C1968 0.960 . S
H1954 C1968 0.960 . S
H1955 C1968 0.960 . S
C1956 H1948 0.929 . S
C1956 C1957 1.377 . S
C1956 C1958 1.384 . S
C1957 C1956 1.377 . S
C1957 C1963 1.390 . S
C1958 H1949 0.930 . S
C1958 C1956 1.384 . S
C1958 C1959 1.372 . S
C1959 C1958 1.372 . S
C1959 C1960 1.400 . S
C1959 C1964 1.490 . S
C1960 H1950 0.930 . S
C1960 C1959 1.400 . S
C1960 C1963 1.386 . S
H1961 C1977 0.930 . S
H1962 C1978 0.931 . S
C1963 H1951 0.929 . S
C1963 C1957 1.390 . S
C1963 C1960 1.386 . S
C1964 C1959 1.490 . S
C1964 C1966 1.395 . S
C1964 C1967 1.403 . S
H1965 C1971 0.930 . S
C1966 H1952 0.930 . S
C1966 C1964 1.395 . S
C1966 C1969 1.403 . S
C1967 C1964 1.403 . S
C1967 C1968 1.524 . S
C1967 C1971 1.400 . S
C1968 H1953 0.960 . S
C1968 H1954 0.960 . S
C1968 H1955 0.960 . S
C1968 C1967 1.524 . S
C1969 C1966 1.403 . S
C1969 C1970 1.392 . S
C1969 C1973 1.495 . S
C1970 C1969 1.392 . S
C1970 C1971 1.385 . S
C1970 C1972 1.478 . S
C1971 H1965 0.930 . S
C1971 C1967 1.400 . S
C1971 C1970 1.385 . S
C1972 C1970 1.478 . S
C1972 C1974 1.381 . S
C1972 C1978 1.383 . S
C1973 C1969 1.495 . S
C1973 H1979 0.959 . S
C1973 H1980 0.961 . S
C1973 H1981 0.960 . S
C1974 C1972 1.381 . S
C1974 C1975 1.394 . S
C1974 H1982 0.930 . S
C1975 C1974 1.394 . S
C1975 C1976 1.383 . S
C1975 H1983 0.929 . S
C1976 C1975 1.383 . S
C1976 C1977 1.377 . S
C1977 H1961 0.930 . S
C1977 C1976 1.377 . S
C1977 C1978 1.379 . S
C1978 H1962 0.931 . S
C1978 C1972 1.383 . S
C1978 C1977 1.379 . S
H1979 C1973 0.959 . S
H1980 C1973 0.961 . S
H1981 C1973 0.960 . S
H1982 C1974 0.930 . S
H1983 C1975 0.929 . S
H1984 C1992 0.929 1_655 S
H1985 C1994 0.930 1_655 S
H1986 C1996 0.930 . S
H1987 C1999 0.929 . S
H1988 C2002 0.952 . S
H1989 C2004 0.960 . S
H1990 C2004 0.960 . S
H1991 C2004 0.960 . S
C1992 H1984 0.929 1_455 S
C1992 C1993 1.377 . S
C1992 C1994 1.384 . S
C1993 C1992 1.377 . S
C1993 C1999 1.390 . S
C1994 H1985 0.930 1_455 S
C1994 C1992 1.384 . S
C1994 C1995 1.372 . S
C1995 C1994 1.372 . S
C1995 C1996 1.400 . S
C1995 C2000 1.490 . S
C1996 H1986 0.930 . S
C1996 C1995 1.400 . S
C1996 C1999 1.386 . S
H1997 C2013 0.930 . S
H1998 C2014 0.931 . S
C1999 H1987 0.929 . S
C1999 C1993 1.390 . S
C1999 C1996 1.386 . S
C2000 C1995 1.490 . S
C2000 C2002 1.374 1_455 S
C2000 C2003 1.403 . S
H2001 C2007 0.930 . S
C2002 H1988 0.952 . S
C2002 C2000 1.374 1_655 S
C2002 C2005 1.405 . S
C2003 C2000 1.403 . S
C2003 C2004 1.524 . S
C2003 C2007 1.400 . S
C2004 H1989 0.960 . S
C2004 H1990 0.960 . S
C2004 H1991 0.960 . S
C2004 C2003 1.524 . S
C2005 C2002 1.405 . S
C2005 C2006 1.392 1_655 S
C2005 C2009 1.495 . S
C2006 C2005 1.392 1_455 S
C2006 C2007 1.385 . S
C2006 C2008 1.478 . S
C2007 H2001 0.930 . S
C2007 C2003 1.400 . S
C2007 C2006 1.385 . S
C2008 C2006 1.478 . S
C2008 C2010 1.381 1_455 S
C2008 C2014 1.383 . S
C2009 C2005 1.495 . S
C2009 H2015 0.959 . S
C2009 H2016 0.961 . S
C2009 H2017 0.960 . S
C2010 C2008 1.381 1_655 S
C2010 C2011 1.394 . S
C2010 H2018 0.930 . S
C2011 C2010 1.394 . S
C2011 C2012 1.432 . S
C2011 H2019 0.929 . S
C2012 C2011 1.432 . S
C2012 C2013 1.332 1_655 S
C2013 H1997 0.930 . S
C2013 C2012 1.332 1_455 S
C2013 C2014 1.379 . S
C2014 H1998 0.931 . S
C2014 C2008 1.383 . S
C2014 C2013 1.379 . S
H2015 C2009 0.959 . S
H2016 C2009 0.961 . S
H2017 C2009 0.960 . S
H2018 C2010 0.930 . S
H2019 C2011 0.929 . S
H2020 C2028 0.929 . S
H2021 C2030 0.930 . S
H2022 C2032 0.930 . S
H2023 C2035 0.929 . S
H2024 C2038 0.930 . S
H2025 C2040 0.960 . S
H2026 C2040 0.960 . S
H2027 C2040 0.960 . S
C2028 H2020 0.929 . S
C2028 C2029 1.377 . S
C2028 C2030 1.384 . S
C2029 C2028 1.377 . S
C2029 C2035 1.390 . S
C2030 H2021 0.930 . S
C2030 C2028 1.384 . S
C2030 C2031 1.372 . S
C2031 C2030 1.372 . S
C2031 C2032 1.400 . S
C2031 C2036 1.490 . S
C2032 H2022 0.930 . S
C2032 C2031 1.400 . S
C2032 C2035 1.386 . S
H2033 C2049 0.930 . S
H2034 C2050 0.931 . S
C2035 H2023 0.929 . S
C2035 C2029 1.390 . S
C2035 C2032 1.386 . S
C2036 C2031 1.490 . S
C2036 C2038 1.395 . S
C2036 C2039 1.403 . S
H2037 C2043 0.930 . S
C2038 H2024 0.930 . S
C2038 C2036 1.395 . S
C2038 C2041 1.403 . S
C2039 C2036 1.403 . S
C2039 C2040 1.524 . S
C2039 C2043 1.400 . S
C2040 H2025 0.960 . S
C2040 H2026 0.960 . S
C2040 H2027 0.960 . S
C2040 C2039 1.524 . S
C2041 C2038 1.403 . S
C2041 C2042 1.392 . S
C2041 C2045 1.495 . S
C2042 C2041 1.392 . S
C2042 C2043 1.385 . S
C2042 C2044 1.478 . S
C2043 H2037 0.930 . S
C2043 C2039 1.400 . S
C2043 C2042 1.385 . S
C2044 C2042 1.478 . S
C2044 C2046 1.381 . S
C2044 C2050 1.383 . S
C2045 C2041 1.495 . S
C2045 H2051 0.959 . S
C2045 H2052 0.961 . S
C2045 H2053 0.960 . S
C2046 C2044 1.381 . S
C2046 C2047 1.394 . S
C2046 H2054 0.930 . S
C2047 C2046 1.394 . S
C2047 C2048 1.383 . S
C2047 H2055 0.929 . S
C2048 C2047 1.383 . S
C2048 C2049 1.377 . S
C2049 H2033 0.930 . S
C2049 C2048 1.377 . S
C2049 C2050 1.379 . S
C2050 H2034 0.931 . S
C2050 C2044 1.383 . S
C2050 C2049 1.379 . S
H2051 C2045 0.959 . S
H2052 C2045 0.961 . S
H2053 C2045 0.960 . S
H2054 C2046 0.930 . S
H2055 C2047 0.929 . S
H2056 C2064 0.929 . S
H2057 C2066 0.930 . S
H2058 C2068 0.930 . S
H2059 C2071 0.929 . S
H2060 C2074 0.930 . S
H2061 C2076 0.960 . S
H2062 C2076 0.960 . S
H2063 C2076 0.960 . S
C2064 H2056 0.929 . S
C2064 C2065 1.377 . S
C2064 C2066 1.384 . S
C2065 C2064 1.377 . S
C2065 C2071 1.390 . S
C2066 H2057 0.930 . S
C2066 C2064 1.384 . S
C2066 C2067 1.372 . S
C2067 C2066 1.372 . S
C2067 C2068 1.400 . S
C2067 C2072 1.490 . S
C2068 H2058 0.930 . S
C2068 C2067 1.400 . S
C2068 C2071 1.386 . S
H2069 C2085 0.930 1_554 S
H2070 C2086 0.931 . S
C2071 H2059 0.929 . S
C2071 C2065 1.390 . S
C2071 C2068 1.386 . S
C2072 C2067 1.490 . S
C2072 C2074 1.395 . S
C2072 C2075 1.403 . S
H2073 C2079 0.930 . S
C2074 H2060 0.930 . S
C2074 C2072 1.395 . S
C2074 C2077 1.403 . S
C2075 C2072 1.403 . S
C2075 C2076 1.524 . S
C2075 C2079 1.400 . S
C2076 H2061 0.960 . S
C2076 H2062 0.960 . S
C2076 H2063 0.960 . S
C2076 C2075 1.524 . S
C2077 C2074 1.403 . S
C2077 C2078 1.392 . S
C2077 C2081 1.495 . S
C2078 C2077 1.392 . S
C2078 C2079 1.385 . S
C2078 C2080 1.478 . S
C2079 H2073 0.930 . S
C2079 C2075 1.400 . S
C2079 C2078 1.385 . S
C2080 C2078 1.478 . S
C2080 C2082 1.381 . S
C2080 C2086 1.383 . S
C2081 C2077 1.495 . S
C2081 H2087 0.959 . S
C2081 H2088 0.961 . S
C2081 H2089 0.960 . S
C2082 C2080 1.381 . S
C2082 C2083 1.394 . S
C2082 H2090 0.930 . S
C2083 C2082 1.394 . S
C2083 C2084 1.383 . S
C2083 H2091 0.929 . S
C2084 C2083 1.383 . S
C2084 C2085 1.377 . S
C2085 H2069 0.930 1_556 S
C2085 C2084 1.377 . S
C2085 C2086 1.379 . S
C2086 H2070 0.931 . S
C2086 C2080 1.383 . S
C2086 C2085 1.379 . S
H2087 C2081 0.959 . S
H2088 C2081 0.961 . S
H2089 C2081 0.960 . S
H2090 C2082 0.930 . S
H2091 C2083 0.929 . S
H2092 C2100 0.929 . S
H2093 C2102 0.930 . S
H2094 C2104 0.930 . S
H2095 C2107 0.929 . S
H2096 C2110 0.930 . S
H2097 C2112 0.960 . S
H2098 C2112 0.960 . S
H2099 C2112 0.960 . S
C2100 H2092 0.929 . S
C2100 C2101 1.377 . S
C2100 C2102 1.384 . S
C2101 C2100 1.377 . S
C2101 C2107 1.390 . S
C2102 H2093 0.930 . S
C2102 C2100 1.384 . S
C2102 C2103 1.372 . S
C2103 C2102 1.372 . S
C2103 C2104 1.400 . S
C2103 C2108 1.490 . S
C2104 H2094 0.930 . S
C2104 C2103 1.400 . S
C2104 C2107 1.386 . S
H2105 C2121 0.930 . S
H2106 C2122 0.931 . S
C2107 H2095 0.929 . S
C2107 C2101 1.390 . S
C2107 C2104 1.386 . S
C2108 C2103 1.490 . S
C2108 C2110 1.395 . S
C2108 C2111 1.403 . S
H2109 C2115 0.930 . S
C2110 H2096 0.930 . S
C2110 C2108 1.395 . S
C2110 C2113 1.403 . S
C2111 C2108 1.403 . S
C2111 C2112 1.524 . S
C2111 C2115 1.400 . S
C2112 H2097 0.960 . S
C2112 H2098 0.960 . S
C2112 H2099 0.960 . S
C2112 C2111 1.524 . S
C2113 C2110 1.403 . S
C2113 C2114 1.392 . S
C2113 C2117 1.495 . S
C2114 C2113 1.392 . S
C2114 C2115 1.385 . S
C2114 C2116 1.478 . S
C2115 H2109 0.930 . S
C2115 C2111 1.400 . S
C2115 C2114 1.385 . S
C2116 C2114 1.478 . S
C2116 C2118 1.381 . S
C2116 C2122 1.383 . S
C2117 C2113 1.495 . S
C2117 H2123 0.959 . S
C2117 H2124 0.961 . S
C2117 H2125 0.960 . S
C2118 C2116 1.381 . S
C2118 C2119 1.394 . S
C2118 H2126 0.930 . S
C2119 C2118 1.394 . S
C2119 C2120 1.383 . S
C2119 H2127 0.929 . S
C2120 C2119 1.383 . S
C2120 C2121 1.377 . S
C2121 H2105 0.930 . S
C2121 C2120 1.377 . S
C2121 C2122 1.379 . S
C2122 H2106 0.931 . S
C2122 C2116 1.383 . S
C2122 C2121 1.379 . S
H2123 C2117 0.959 . S
H2124 C2117 0.961 . S
H2125 C2117 0.960 . S
H2126 C2118 0.930 . S
H2127 C2119 0.929 . S
H2128 C2136 0.929 . S
H2129 C2138 0.930 . S
H2130 C2140 0.930 . S
H2131 C2143 0.929 . S
H2132 C2146 0.930 . S
H2133 C2148 0.960 . S
H2134 C2148 0.960 . S
H2135 C2148 0.960 . S
C2136 H2128 0.929 . S
C2136 C2137 1.377 . S
C2136 C2138 1.384 . S
C2137 C2136 1.377 . S
C2137 C2143 1.390 . S
C2138 H2129 0.930 . S
C2138 C2136 1.384 . S
C2138 C2139 1.372 . S
C2139 C2138 1.372 . S
C2139 C2140 1.400 . S
C2139 C2144 1.490 . S
C2140 H2130 0.930 . S
C2140 C2139 1.400 . S
C2140 C2143 1.386 . S
H2141 C2157 0.930 1_565 S
H2142 C2158 0.944 . S
C2143 H2131 0.929 . S
C2143 C2137 1.390 . S
C2143 C2140 1.386 . S
C2144 C2139 1.490 . S
C2144 C2146 1.395 . S
C2144 C2147 1.403 . S
H2145 C2151 0.930 . S
C2146 H2132 0.930 . S
C2146 C2144 1.395 . S
C2146 C2149 1.403 . S
C2147 C2144 1.403 . S
C2147 C2148 1.524 . S
C2147 C2151 1.400 . S
C2148 H2133 0.960 . S
C2148 H2134 0.960 . S
C2148 H2135 0.960 . S
C2148 C2147 1.524 . S
C2149 C2146 1.403 . S
C2149 C2150 1.392 . S
C2149 C2153 1.495 . S
C2150 C2149 1.392 . S
C2150 C2151 1.385 . S
C2150 C2152 1.478 . S
C2151 H2145 0.930 . S
C2151 C2147 1.400 . S
C2151 C2150 1.385 . S
C2152 C2150 1.478 . S
C2152 C2154 1.381 . S
C2152 C2158 1.383 . S
C2153 C2149 1.495 . S
C2153 H2159 0.959 . S
C2153 H2160 0.961 1_545 S
C2153 H2161 0.960 . S
C2154 C2152 1.381 . S
C2154 C2155 1.394 . S
C2154 H2162 0.930 . S
C2155 C2154 1.394 . S
C2155 C2156 1.383 . S
C2155 H2163 0.929 . S
C2156 C2155 1.383 . S
C2156 C2157 1.377 . S
C2157 H2141 0.930 1_545 S
C2157 C2156 1.377 . S
C2157 C2158 1.379 . S
C2158 H2142 0.944 . S
C2158 C2152 1.383 . S
C2158 C2157 1.379 . S
H2159 C2153 0.959 . S
H2160 C2153 0.961 1_565 S
H2161 C2153 0.960 . S
H2162 C2154 0.930 . S
H2163 C2155 0.929 . S
H2164 C2172 0.929 . S
H2165 C2174 0.930 . S
H2166 C2176 0.930 . S
H2167 C2179 0.929 . S
H2168 C2182 0.930 . S
H2169 C2184 0.960 . S
H2170 C2184 0.960 . S
H2171 C2184 0.960 . S
C2172 H2164 0.929 . S
C2172 C2173 1.377 . S
C2172 C2174 1.384 . S
C2173 C2172 1.377 . S
C2173 C2179 1.390 . S
C2174 H2165 0.930 . S
C2174 C2172 1.384 . S
C2174 C2175 1.372 . S
C2175 C2174 1.372 . S
C2175 C2176 1.400 . S
C2175 C2180 1.490 . S
C2176 H2166 0.930 . S
C2176 C2175 1.400 . S
C2176 C2179 1.386 . S
H2177 C2193 0.930 . S
H2178 C2194 0.931 . S
C2179 H2167 0.929 . S
C2179 C2173 1.390 . S
C2179 C2176 1.386 . S
C2180 C2175 1.490 . S
C2180 C2182 1.395 . S
C2180 C2183 1.403 . S
H2181 C2187 0.930 . S
C2182 H2168 0.930 . S
C2182 C2180 1.395 . S
C2182 C2185 1.403 . S
C2183 C2180 1.403 . S
C2183 C2184 1.524 . S
C2183 C2187 1.400 . S
C2184 H2169 0.960 . S
C2184 H2170 0.960 . S
C2184 H2171 0.960 . S
C2184 C2183 1.524 . S
C2185 C2182 1.403 . S
C2185 C2186 1.392 . S
C2185 C2189 1.495 . S
C2186 C2185 1.392 . S
C2186 C2187 1.385 . S
C2186 C2188 1.478 . S
C2187 H2181 0.930 . S
C2187 C2183 1.400 . S
C2187 C2186 1.385 . S
C2188 C2186 1.478 . S
C2188 C2190 1.381 . S
C2188 C2194 1.383 . S
C2189 C2185 1.495 . S
C2189 H2195 0.959 . S
C2189 H2196 0.961 . S
C2189 H2197 0.960 . S
C2190 C2188 1.381 . S
C2190 C2191 1.394 . S
C2190 H2198 0.930 . S
C2191 C2190 1.394 . S
C2191 C2192 1.383 . S
C2191 H2199 0.929 . S
C2192 C2191 1.383 . S
C2192 C2193 1.377 . S
C2193 H2177 0.930 . S
C2193 C2192 1.377 . S
C2193 C2194 1.379 . S
C2194 H2178 0.931 . S
C2194 C2188 1.383 . S
C2194 C2193 1.379 . S
H2195 C2189 0.959 . S
H2196 C2189 0.961 . S
H2197 C2189 0.960 . S
H2198 C2190 0.930 . S
H2199 C2191 0.929 . S
H2200 C2208 0.928 1_565 S
H2201 C2210 0.930 . S
H2202 C2212 0.930 . S
H2203 C2215 0.929 . S
H2204 C2218 0.933 1_565 S
H2205 C2220 0.960 . S
H2206 C2220 0.960 . S
H2207 C2220 0.960 . S
C2208 H2200 0.928 1_545 S
C2208 C2209 1.377 . S
C2208 C2210 1.384 . S
C2209 C2208 1.377 . S
C2209 C2215 1.390 . S
C2210 H2201 0.930 . S
C2210 C2208 1.384 . S
C2210 C2211 1.372 . S
C2211 C2210 1.372 . S
C2211 C2212 1.400 . S
C2211 C2216 1.490 . S
C2212 H2202 0.930 . S
C2212 C2211 1.400 . S
C2212 C2215 1.386 . S
H2213 C2229 0.930 . S
H2214 C2230 0.931 . S
C2215 H2203 0.929 . S
C2215 C2209 1.390 . S
C2215 C2212 1.386 . S
C2216 C2211 1.490 . S
C2216 C2218 1.391 . S
C2216 C2219 1.403 . S
H2217 C2223 0.930 . S
C2218 H2204 0.933 1_545 S
C2218 C2216 1.391 . S
C2218 C2221 1.404 . S
C2219 C2216 1.403 . S
C2219 C2220 1.524 . S
C2219 C2223 1.400 . S
C2220 H2205 0.960 . S
C2220 H2206 0.960 . S
C2220 H2207 0.960 . S
C2220 C2219 1.524 . S
C2221 C2218 1.404 . S
C2221 C2222 1.392 . S
C2221 C2225 1.495 1_545 S
C2222 C2221 1.392 . S
C2222 C2223 1.385 . S
C2222 C2224 1.478 . S
C2223 H2217 0.930 . S
C2223 C2219 1.400 . S
C2223 C2222 1.385 . S
C2224 C2222 1.478 . S
C2224 C2226 1.381 . S
C2224 C2230 1.383 . S
C2225 C2221 1.495 1_565 S
C2225 H2231 0.959 . S
C2225 H2232 0.961 . S
C2225 H2233 0.960 . S
C2226 C2224 1.381 . S
C2226 C2227 1.394 . S
C2226 H2234 0.930 . S
C2227 C2226 1.394 . S
C2227 C2228 1.383 . S
C2227 H2235 0.929 . S
C2228 C2227 1.383 . S
C2228 C2229 1.377 . S
C2229 H2213 0.930 . S
C2229 C2228 1.377 . S
C2229 C2230 1.379 . S
C2230 H2214 0.931 . S
C2230 C2224 1.383 . S
C2230 C2229 1.379 . S
H2231 C2225 0.959 . S
H2232 C2225 0.961 . S
H2233 C2225 0.960 . S
H2234 C2226 0.930 . S
H2235 C2227 0.929 . S
H2236 C2244 0.929 . S
H2237 C2246 0.930 . S
H2238 C2248 0.930 . S
H2239 C2251 0.929 . S
H2240 C2254 0.930 . S
H2241 C2256 0.960 . S
H2242 C2256 0.960 . S
H2243 C2256 0.960 . S
C2244 H2236 0.929 . S
C2244 C2245 1.377 . S
C2244 C2246 1.384 . S
C2245 C2244 1.377 . S
C2245 C2251 1.390 . S
C2246 H2237 0.930 . S
C2246 C2244 1.384 . S
C2246 C2247 1.372 . S
C2247 C2246 1.372 . S
C2247 C2248 1.400 . S
C2247 C2252 1.490 . S
C2248 H2238 0.930 . S
C2248 C2247 1.400 . S
C2248 C2251 1.386 . S
H2249 C2265 0.930 . S
H2250 C2266 0.931 . S
C2251 H2239 0.929 . S
C2251 C2245 1.390 . S
C2251 C2248 1.386 . S
C2252 C2247 1.490 . S
C2252 C2254 1.395 . S
C2252 C2255 1.403 . S
H2253 C2259 0.930 . S
C2254 H2240 0.930 . S
C2254 C2252 1.395 . S
C2254 C2257 1.403 . S
C2255 C2252 1.403 . S
C2255 C2256 1.524 . S
C2255 C2259 1.400 . S
C2256 H2241 0.960 . S
C2256 H2242 0.960 . S
C2256 H2243 0.960 . S
C2256 C2255 1.524 . S
C2257 C2254 1.403 . S
C2257 C2258 1.392 . S
C2257 C2261 1.495 . S
C2258 C2257 1.392 . S
C2258 C2259 1.385 . S
C2258 C2260 1.478 . S
C2259 H2253 0.930 . S
C2259 C2255 1.400 . S
C2259 C2258 1.385 . S
C2260 C2258 1.478 . S
C2260 C2262 1.381 . S
C2260 C2266 1.383 . S
C2261 C2257 1.495 . S
C2261 H2267 0.959 . S
C2261 H2268 0.961 . S
C2261 H2269 0.960 . S
C2262 C2260 1.381 . S
C2262 C2263 1.394 . S
C2262 H2270 0.930 . S
C2263 C2262 1.394 . S
C2263 C2264 1.383 . S
C2263 H2271 0.929 . S
C2264 C2263 1.383 . S
C2264 C2265 1.377 . S
C2265 H2249 0.930 . S
C2265 C2264 1.377 . S
C2265 C2266 1.379 . S
C2266 H2250 0.931 . S
C2266 C2260 1.383 . S
C2266 C2265 1.379 . S
H2267 C2261 0.959 . S
H2268 C2261 0.961 . S
H2269 C2261 0.960 . S
H2270 C2262 0.930 . S
H2271 C2263 0.929 . S
H2272 C2280 0.929 . S
H2273 C2282 0.930 . S
H2274 C2284 0.930 . S
H2275 C2287 0.929 . S
H2276 C2290 0.930 . S
H2277 C2292 0.960 . S
H2278 C2292 0.960 . S
H2279 C2292 0.960 . S
C2280 H2272 0.929 . S
C2280 C2281 1.377 . S
C2280 C2282 1.384 . S
C2281 C2280 1.377 . S
C2281 C2287 1.390 . S
C2282 H2273 0.930 . S
C2282 C2280 1.384 . S
C2282 C2283 1.372 . S
C2283 C2282 1.372 . S
C2283 C2284 1.400 . S
C2283 C2288 1.490 . S
C2284 H2274 0.930 . S
C2284 C2283 1.400 . S
C2284 C2287 1.386 . S
H2285 C2301 0.930 . S
H2286 C2302 0.931 . S
C2287 H2275 0.929 . S
C2287 C2281 1.390 . S
C2287 C2284 1.386 . S
C2288 C2283 1.490 . S
C2288 C2290 1.395 . S
C2288 C2291 1.403 . S
H2289 C2295 0.930 . S
C2290 H2276 0.930 . S
C2290 C2288 1.395 . S
C2290 C2293 1.403 . S
C2291 C2288 1.403 . S
C2291 C2292 1.524 . S
C2291 C2295 1.400 . S
C2292 H2277 0.960 . S
C2292 H2278 0.960 . S
C2292 H2279 0.960 . S
C2292 C2291 1.524 . S
C2293 C2290 1.403 . S
C2293 C2294 1.392 . S
C2293 C2297 1.495 . S
C2294 C2293 1.392 . S
C2294 C2295 1.385 . S
C2294 C2296 1.478 . S
C2295 H2289 0.930 . S
C2295 C2291 1.400 . S
C2295 C2294 1.385 . S
C2296 C2294 1.478 . S
C2296 C2298 1.381 . S
C2296 C2302 1.383 . S
C2297 C2293 1.495 . S
C2297 H2303 0.959 . S
C2297 H2304 0.961 1_545 S
C2297 H2305 0.960 . S
C2298 C2296 1.381 . S
C2298 C2299 1.394 . S
C2298 H2306 0.930 . S
C2299 C2298 1.394 . S
C2299 C2300 1.383 . S
C2299 H2307 0.929 . S
C2300 C2299 1.383 . S
C2300 C2301 1.377 . S
C2301 H2285 0.930 . S
C2301 C2300 1.377 . S
C2301 C2302 1.379 . S
C2302 H2286 0.931 . S
C2302 C2296 1.383 . S
C2302 C2301 1.379 . S
H2303 C2297 0.959 . S
H2304 C2297 0.961 1_565 S
H2305 C2297 0.960 . S
H2306 C2298 0.930 . S
H2307 C2299 0.929 . S
H2308 C2316 0.929 . S
H2309 C2318 0.930 . S
H2310 C2320 0.930 . S
H2311 C2323 0.929 . S
H2312 C2326 0.930 . S
H2313 C2328 0.960 . S
H2314 C2328 0.960 . S
H2315 C2328 0.960 . S
C2316 H2308 0.929 . S
C2316 C2317 1.377 . S
C2316 C2318 1.384 . S
C2317 C2316 1.377 . S
C2317 C2323 1.390 . S
C2318 H2309 0.930 . S
C2318 C2316 1.384 . S
C2318 C2319 1.372 . S
C2319 C2318 1.372 . S
C2319 C2320 1.400 . S
C2319 C2324 1.490 . S
C2320 H2310 0.930 . S
C2320 C2319 1.400 . S
C2320 C2323 1.386 . S
H2321 C2337 0.930 . S
H2322 C2338 0.931 . S
C2323 H2311 0.929 . S
C2323 C2317 1.390 . S
C2323 C2320 1.386 . S
C2324 C2319 1.490 . S
C2324 C2326 1.395 . S
C2324 C2327 1.403 . S
H2325 C2331 0.930 . S
C2326 H2312 0.930 . S
C2326 C2324 1.395 . S
C2326 C2329 1.403 . S
C2327 C2324 1.403 . S
C2327 C2328 1.524 . S
C2327 C2331 1.400 . S
C2328 H2313 0.960 . S
C2328 H2314 0.960 . S
C2328 H2315 0.960 . S
C2328 C2327 1.524 . S
C2329 C2326 1.403 . S
C2329 C2330 1.392 . S
C2329 C2333 1.495 . S
C2330 C2329 1.392 . S
C2330 C2331 1.385 . S
C2330 C2332 1.478 . S
C2331 H2325 0.930 . S
C2331 C2327 1.400 . S
C2331 C2330 1.385 . S
C2332 C2330 1.478 . S
C2332 C2334 1.381 . S
C2332 C2338 1.383 . S
C2333 C2329 1.495 . S
C2333 H2339 0.959 . S
C2333 H2340 0.961 . S
C2333 H2341 0.960 . S
C2334 C2332 1.381 . S
C2334 C2335 1.394 . S
C2334 H2342 0.930 . S
C2335 C2334 1.394 . S
C2335 C2336 1.383 . S
C2335 H2343 0.929 . S
C2336 C2335 1.383 . S
C2336 C2337 1.377 . S
C2337 H2321 0.930 . S
C2337 C2336 1.377 . S
C2337 C2338 1.379 . S
C2338 H2322 0.931 . S
C2338 C2332 1.383 . S
C2338 C2337 1.379 . S
H2339 C2333 0.959 . S
H2340 C2333 0.961 . S
H2341 C2333 0.960 . S
H2342 C2334 0.930 . S
H2343 C2335 0.929 . S
H2344 C2352 0.929 . S
H2345 C2354 0.930 . S
H2346 C2356 0.930 . S
H2347 C2359 0.929 . S
H2348 C2362 0.930 . S
H2349 C2364 0.960 . S
H2350 C2364 0.960 . S
H2351 C2364 0.960 . S
C2352 H2344 0.929 . S
C2352 C2353 1.383 1_565 S
C2352 C2354 1.384 . S
C2353 C2352 1.383 1_545 S
C2353 C2359 1.385 . S
C2354 H2345 0.930 . S
C2354 C2352 1.384 . S
C2354 C2355 1.372 . S
C2355 C2354 1.372 . S
C2355 C2356 1.400 1_565 S
C2355 C2360 1.490 . S
C2356 H2346 0.930 . S
C2356 C2355 1.400 1_545 S
C2356 C2359 1.386 . S
H2357 C2373 0.930 . S
H2358 C2374 0.931 . S
C2359 H2347 0.929 . S
C2359 C2353 1.385 . S
C2359 C2356 1.386 . S
C2360 C2355 1.490 . S
C2360 C2362 1.395 . S
C2360 C2363 1.403 1_565 S
H2361 C2367 0.930 . S
C2362 H2348 0.930 . S
C2362 C2360 1.395 . S
C2362 C2365 1.403 . S
C2363 C2360 1.403 1_545 S
C2363 C2364 1.524 . S
C2363 C2367 1.400 . S
C2364 H2349 0.960 . S
C2364 H2350 0.960 . S
C2364 H2351 0.960 . S
C2364 C2363 1.524 . S
C2365 C2362 1.403 . S
C2365 C2366 1.392 . S
C2365 C2369 1.495 . S
C2366 C2365 1.392 . S
C2366 C2367 1.385 1_565 S
C2366 C2368 1.478 . S
C2367 H2361 0.930 . S
C2367 C2363 1.400 . S
C2367 C2366 1.385 1_545 S
C2368 C2366 1.478 . S
C2368 C2370 1.381 . S
C2368 C2374 1.383 1_565 S
C2369 C2365 1.495 . S
C2369 H2375 0.959 . S
C2369 H2376 0.961 . S
C2369 H2377 0.960 . S
C2370 C2368 1.381 . S
C2370 C2371 1.394 . S
C2370 H2378 0.930 . S
C2371 C2370 1.394 . S
C2371 C2372 1.383 . S
C2371 H2379 0.929 . S
C2372 C2371 1.383 . S
C2372 C2373 1.377 1_565 S
C2373 H2357 0.930 . S
C2373 C2372 1.377 1_545 S
C2373 C2374 1.379 . S
C2374 H2358 0.931 . S
C2374 C2368 1.383 1_545 S
C2374 C2373 1.379 . S
H2375 C2369 0.959 . S
H2376 C2369 0.961 . S
H2377 C2369 0.960 . S
H2378 C2370 0.930 . S
H2379 C2371 0.929 . S
H2380 C2388 0.929 . S
H2381 C2390 0.930 . S
H2382 C2392 0.930 . S
H2383 C2395 0.929 . S
H2384 C2398 0.930 . S
H2385 C2400 0.960 . S
H2386 C2400 0.960 . S
H2387 C2400 0.960 . S
C2388 H2380 0.929 . S
C2388 C2389 1.377 . S
C2388 C2390 1.384 . S
C2389 C2388 1.377 . S
C2389 C2395 1.390 . S
C2390 H2381 0.930 . S
C2390 C2388 1.384 . S
C2390 C2391 1.372 . S
C2391 C2390 1.372 . S
C2391 C2392 1.400 . S
C2391 C2396 1.490 . S
C2392 H2382 0.930 . S
C2392 C2391 1.400 . S
C2392 C2395 1.386 . S
H2393 C2409 0.930 . S
H2394 C2410 0.931 . S
C2395 H2383 0.929 . S
C2395 C2389 1.390 . S
C2395 C2392 1.386 . S
C2396 C2391 1.490 . S
C2396 C2398 1.395 . S
C2396 C2399 1.403 . S
H2397 C2403 0.930 . S
C2398 H2384 0.930 . S
C2398 C2396 1.395 . S
C2398 C2401 1.403 . S
C2399 C2396 1.403 . S
C2399 C2400 1.524 . S
C2399 C2403 1.400 . S
C2400 H2385 0.960 . S
C2400 H2386 0.960 . S
C2400 H2387 0.960 . S
C2400 C2399 1.524 . S
C2401 C2398 1.403 . S
C2401 C2402 1.392 . S
C2401 C2405 1.495 . S
C2402 C2401 1.392 . S
C2402 C2403 1.385 . S
C2402 C2404 1.478 . S
C2403 H2397 0.930 . S
C2403 C2399 1.400 . S
C2403 C2402 1.385 . S
C2404 C2402 1.478 . S
C2404 C2406 1.381 . S
C2404 C2410 1.383 . S
C2405 C2401 1.495 . S
C2405 H2411 0.959 . S
C2405 H2412 0.961 . S
C2405 H2413 0.960 . S
C2406 C2404 1.381 . S
C2406 C2407 1.394 . S
C2406 H2414 0.930 . S
C2407 C2406 1.394 . S
C2407 C2408 1.383 . S
C2407 H2415 0.929 . S
C2408 C2407 1.383 . S
C2408 C2409 1.377 . S
C2409 H2393 0.930 . S
C2409 C2408 1.377 . S
C2409 C2410 1.379 . S
C2410 H2394 0.931 . S
C2410 C2404 1.383 . S
C2410 C2409 1.379 . S
H2411 C2405 0.959 . S
H2412 C2405 0.961 . S
H2413 C2405 0.960 . S
H2414 C2406 0.930 . S
H2415 C2407 0.929 . S
H2416 C2424 0.929 . S
H2417 C2426 0.930 . S
H2418 C2428 0.930 . S
H2419 C2431 0.929 . S
H2420 C2434 0.930 . S
H2421 C2436 0.960 . S
H2422 C2436 0.960 . S
H2423 C2436 0.960 . S
C2424 H2416 0.929 . S
C2424 C2425 1.377 . S
C2424 C2426 1.384 . S
C2425 C2424 1.377 . S
C2425 C2431 1.390 . S
C2426 H2417 0.930 . S
C2426 C2424 1.384 . S
C2426 C2427 1.372 . S
C2427 C2426 1.372 . S
C2427 C2428 1.400 . S
C2427 C2432 1.490 . S
C2428 H2418 0.930 . S
C2428 C2427 1.400 . S
C2428 C2431 1.386 . S
H2429 C2445 0.930 . S
H2430 C2446 0.931 . S
C2431 H2419 0.929 . S
C2431 C2425 1.390 . S
C2431 C2428 1.386 . S
C2432 C2427 1.490 . S
C2432 C2434 1.395 . S
C2432 C2435 1.403 . S
H2433 C2439 0.930 . S
C2434 H2420 0.930 . S
C2434 C2432 1.395 . S
C2434 C2437 1.403 . S
C2435 C2432 1.403 . S
C2435 C2436 1.524 . S
C2435 C2439 1.400 . S
C2436 H2421 0.960 . S
C2436 H2422 0.960 . S
C2436 H2423 0.960 . S
C2436 C2435 1.524 . S
C2437 C2434 1.403 . S
C2437 C2438 1.392 . S
C2437 C2441 1.495 . S
C2438 C2437 1.392 . S
C2438 C2439 1.385 . S
C2438 C2440 1.478 . S
C2439 H2433 0.930 . S
C2439 C2435 1.400 . S
C2439 C2438 1.385 . S
C2440 C2438 1.478 . S
C2440 C2442 1.381 1_554 S
C2440 C2446 1.383 . S
C2441 C2437 1.495 . S
C2441 H2447 0.959 . S
C2441 H2448 0.961 . S
C2441 H2449 0.960 1_554 S
C2442 C2440 1.381 1_556 S
C2442 C2443 1.394 . S
C2442 H2450 0.930 . S
C2443 C2442 1.394 . S
C2443 C2444 1.383 . S
C2443 H2451 0.929 . S
C2444 C2443 1.383 . S
C2444 C2445 1.377 1_556 S
C2445 H2429 0.930 . S
C2445 C2444 1.377 1_554 S
C2445 C2446 1.379 . S
C2446 H2430 0.931 . S
C2446 C2440 1.383 . S
C2446 C2445 1.379 . S
H2447 C2441 0.959 . S
H2448 C2441 0.961 . S
H2449 C2441 0.960 1_556 S
H2450 C2442 0.930 . S
H2451 C2443 0.929 . S
H2452 C2460 0.929 . S
H2453 C2462 0.930 . S
H2454 C2464 0.930 . S
H2455 C2467 0.929 . S
H2456 C2470 0.930 . S
H2457 C2472 0.960 . S
H2458 C2472 0.960 1_556 S
H2459 C2472 0.960 . S
C2460 H2452 0.929 . S
C2460 C2461 1.377 . S
C2460 C2462 1.384 . S
C2461 C2460 1.377 . S
C2461 C2467 1.390 . S
C2462 H2453 0.930 . S
C2462 C2460 1.384 . S
C2462 C2463 1.372 . S
C2463 C2462 1.372 . S
C2463 C2464 1.400 . S
C2463 C2468 1.490 . S
C2464 H2454 0.930 . S
C2464 C2463 1.400 . S
C2464 C2467 1.386 . S
H2465 C2481 0.930 . S
H2466 C2482 0.931 . S
C2467 H2455 0.929 . S
C2467 C2461 1.390 . S
C2467 C2464 1.386 . S
C2468 C2463 1.490 . S
C2468 C2470 1.395 . S
C2468 C2471 1.403 . S
H2469 C2475 0.930 . S
C2470 H2456 0.930 . S
C2470 C2468 1.395 . S
C2470 C2473 1.403 . S
C2471 C2468 1.403 . S
C2471 C2472 1.524 . S
C2471 C2475 1.400 . S
C2472 H2457 0.960 . S
C2472 H2458 0.960 1_554 S
C2472 H2459 0.960 . S
C2472 C2471 1.524 . S
C2473 C2470 1.403 . S
C2473 C2474 1.392 . S
C2473 C2477 1.495 . S
C2474 C2473 1.392 . S
C2474 C2475 1.385 . S
C2474 C2476 1.478 . S
C2475 H2469 0.930 . S
C2475 C2471 1.400 . S
C2475 C2474 1.385 . S
C2476 C2474 1.478 . S
C2476 C2478 1.381 . S
C2476 C2482 1.383 . S
C2477 C2473 1.495 . S
C2477 H2483 0.959 . S
C2477 H2484 0.961 . S
C2477 H2485 0.960 . S
C2478 C2476 1.381 . S
C2478 C2479 1.394 . S
C2478 H2486 0.930 . S
C2479 C2478 1.394 . S
C2479 C2480 1.383 . S
C2479 H2487 0.929 . S
C2480 C2479 1.383 . S
C2480 C2481 1.377 . S
C2481 H2465 0.930 . S
C2481 C2480 1.377 . S
C2481 C2482 1.379 . S
C2482 H2466 0.931 . S
C2482 C2476 1.383 . S
C2482 C2481 1.379 . S
H2483 C2477 0.959 . S
H2484 C2477 0.961 . S
H2485 C2477 0.960 . S
H2486 C2478 0.930 . S
H2487 C2479 0.929 . S
H2488 C2496 0.929 . S
H2489 C2498 0.930 . S
H2490 C2500 0.930 . S
H2491 C2503 0.929 . S
H2492 C2506 0.930 . S
H2493 C2508 0.960 . S
H2494 C2508 0.960 . S
H2495 C2508 0.960 . S
C2496 H2488 0.929 . S
C2496 C2497 1.377 . S
C2496 C2498 1.384 . S
C2497 C2496 1.377 . S
C2497 C2503 1.390 . S
C2498 H2489 0.930 . S
C2498 C2496 1.384 . S
C2498 C2499 1.372 . S
C2499 C2498 1.372 . S
C2499 C2500 1.400 . S
C2499 C2504 1.490 . S
C2500 H2490 0.930 . S
C2500 C2499 1.400 . S
C2500 C2503 1.386 . S
H2501 C2517 0.930 . S
H2502 C2518 0.931 . S
C2503 H2491 0.929 . S
C2503 C2497 1.390 . S
C2503 C2500 1.386 . S
C2504 C2499 1.490 . S
C2504 C2506 1.395 . S
C2504 C2507 1.403 . S
H2505 C2511 0.930 . S
C2506 H2492 0.930 . S
C2506 C2504 1.395 . S
C2506 C2509 1.403 . S
C2507 C2504 1.403 . S
C2507 C2508 1.524 . S
C2507 C2511 1.400 . S
C2508 H2493 0.960 . S
C2508 H2494 0.960 . S
C2508 H2495 0.960 . S
C2508 C2507 1.524 . S
C2509 C2506 1.403 . S
C2509 C2510 1.392 . S
C2509 C2513 1.495 . S
C2510 C2509 1.392 . S
C2510 C2511 1.385 . S
C2510 C2512 1.478 . S
C2511 H2505 0.930 . S
C2511 C2507 1.400 . S
C2511 C2510 1.385 . S
C2512 C2510 1.478 . S
C2512 C2514 1.381 . S
C2512 C2518 1.383 . S
C2513 C2509 1.495 . S
C2513 H2519 0.959 . S
C2513 H2520 0.961 . S
C2513 H2521 0.960 . S
C2514 C2512 1.381 . S
C2514 C2515 1.394 . S
C2514 H2522 0.930 . S
C2515 C2514 1.394 . S
C2515 C2516 1.383 . S
C2515 H2523 0.929 . S
C2516 C2515 1.383 . S
C2516 C2517 1.377 . S
C2517 H2501 0.930 . S
C2517 C2516 1.377 . S
C2517 C2518 1.379 . S
C2518 H2502 0.931 . S
C2518 C2512 1.383 . S
C2518 C2517 1.379 . S
H2519 C2513 0.959 . S
H2520 C2513 0.961 . S
H2521 C2513 0.960 . S
H2522 C2514 0.930 . S
H2523 C2515 0.929 . S
H2524 C2532 0.929 . S
H2525 C2534 0.930 . S
H2526 C2536 0.930 . S
H2527 C2539 0.929 . S
H2528 C2542 0.930 . S
H2529 C2544 0.960 . S
H2530 C2544 0.960 . S
H2531 C2544 0.960 . S
C2532 H2524 0.929 . S
C2532 C2533 1.377 . S
C2532 C2534 1.384 . S
C2533 C2532 1.377 . S
C2533 C2539 1.390 . S
C2534 H2525 0.930 . S
C2534 C2532 1.384 . S
C2534 C2535 1.372 . S
C2535 C2534 1.372 . S
C2535 C2536 1.400 . S
C2535 C2540 1.490 . S
C2536 H2526 0.930 . S
C2536 C2535 1.400 . S
C2536 C2539 1.386 . S
H2537 C2553 0.930 . S
H2538 C2554 0.931 . S
C2539 H2527 0.929 . S
C2539 C2533 1.390 . S
C2539 C2536 1.386 . S
C2540 C2535 1.490 . S
C2540 C2542 1.395 . S
C2540 C2543 1.403 . S
H2541 C2547 0.930 . S
C2542 H2528 0.930 . S
C2542 C2540 1.395 . S
C2542 C2545 1.403 . S
C2543 C2540 1.403 . S
C2543 C2544 1.524 . S
C2543 C2547 1.400 . S
C2544 H2529 0.960 . S
C2544 H2530 0.960 . S
C2544 H2531 0.960 . S
C2544 C2543 1.524 . S
C2545 C2542 1.403 . S
C2545 C2546 1.392 . S
C2545 C2549 1.495 . S
C2546 C2545 1.392 . S
C2546 C2547 1.385 . S
C2546 C2548 1.478 . S
C2547 H2541 0.930 . S
C2547 C2543 1.400 . S
C2547 C2546 1.385 . S
C2548 C2546 1.478 . S
C2548 C2550 1.381 . S
C2548 C2554 1.383 . S
C2549 C2545 1.495 . S
C2549 H2555 0.959 . S
C2549 H2556 0.961 . S
C2549 H2557 0.960 . S
C2550 C2548 1.381 . S
C2550 C2551 1.394 . S
C2550 H2558 0.930 . S
C2551 C2550 1.394 . S
C2551 C2552 1.383 . S
C2551 H2559 0.929 . S
C2552 C2551 1.383 . S
C2552 C2553 1.377 . S
C2553 H2537 0.930 . S
C2553 C2552 1.377 . S
C2553 C2554 1.379 . S
C2554 H2538 0.931 . S
C2554 C2548 1.383 . S
C2554 C2553 1.379 . S
H2555 C2549 0.959 . S
H2556 C2549 0.961 . S
H2557 C2549 0.960 . S
H2558 C2550 0.930 . S
H2559 C2551 0.929 . S
H2560 C2568 0.929 . S
H2561 C2570 0.930 1_565 S
H2562 C2572 0.930 . S
H2563 C2575 0.929 . S
H2564 C2578 0.930 . S
H2565 C2580 0.960 . S
H2566 C2580 0.960 . S
H2567 C2580 0.960 . S
C2568 H2560 0.929 . S
C2568 C2569 1.377 . S
C2568 C2570 1.384 . S
C2569 C2568 1.377 . S
C2569 C2575 1.390 . S
C2570 H2561 0.930 1_545 S
C2570 C2568 1.384 . S
C2570 C2571 1.372 1_545 S
C2571 C2570 1.372 1_565 S
C2571 C2572 1.400 . S
C2571 C2576 1.490 . S
C2572 H2562 0.930 . S
C2572 C2571 1.400 . S
C2572 C2575 1.386 1_565 S
H2573 C2589 0.930 . S
H2574 C2590 0.931 . S
C2575 H2563 0.929 . S
C2575 C2569 1.390 . S
C2575 C2572 1.386 1_545 S
C2576 C2571 1.490 . S
C2576 C2578 1.395 . S
C2576 C2579 1.403 . S
H2577 C2583 0.930 . S
C2578 H2564 0.930 . S
C2578 C2576 1.395 . S
C2578 C2581 1.403 . S
C2579 C2576 1.403 . S
C2579 C2580 1.524 . S
C2579 C2583 1.400 . S
C2580 H2565 0.960 . S
C2580 H2566 0.960 . S
C2580 H2567 0.960 . S
C2580 C2579 1.524 . S
C2581 C2578 1.403 . S
C2581 C2582 1.392 . S
C2581 C2585 1.495 . S
C2582 C2581 1.392 . S
C2582 C2583 1.385 . S
C2582 C2584 1.478 . S
C2583 H2577 0.930 . S
C2583 C2579 1.400 . S
C2583 C2582 1.385 . S
C2584 C2582 1.478 . S
C2584 C2586 1.381 . S
C2584 C2590 1.383 . S
C2585 C2581 1.495 . S
C2585 H2591 0.959 . S
C2585 H2592 0.961 . S
C2585 H2593 0.960 . S
C2586 C2584 1.381 . S
C2586 C2587 1.394 . S
C2586 H2594 0.930 . S
C2587 C2586 1.394 . S
C2587 C2588 1.383 . S
C2587 H2595 0.929 . S
C2588 C2587 1.383 . S
C2588 C2589 1.377 . S
C2589 H2573 0.930 . S
C2589 C2588 1.377 . S
C2589 C2590 1.379 . S
C2590 H2574 0.931 . S
C2590 C2584 1.383 . S
C2590 C2589 1.379 . S
H2591 C2585 0.959 . S
H2592 C2585 0.961 . S
H2593 C2585 0.960 . S
H2594 C2586 0.930 . S
H2595 C2587 0.929 . S
H2596 C2604 0.929 . S
H2597 C2606 0.930 . S
H2598 C2608 0.930 . S
H2599 C2611 0.929 . S
H2600 C2614 0.930 . S
H2601 C2616 0.960 . S
H2602 C2616 0.960 . S
H2603 C2616 0.960 . S
C2604 H2596 0.929 . S
C2604 C2605 1.377 . S
C2604 C2606 1.384 . S
C2605 C2604 1.377 . S
C2605 C2611 1.390 . S
C2606 H2597 0.930 . S
C2606 C2604 1.384 . S
C2606 C2607 1.372 . S
C2607 C2606 1.372 . S
C2607 C2608 1.400 . S
C2607 C2612 1.490 . S
C2608 H2598 0.930 . S
C2608 C2607 1.400 . S
C2608 C2611 1.386 . S
H2609 C2625 0.930 . S
H2610 C2626 0.931 . S
C2611 H2599 0.929 . S
C2611 C2605 1.390 . S
C2611 C2608 1.386 . S
C2612 C2607 1.490 . S
C2612 C2614 1.395 . S
C2612 C2615 1.403 . S
H2613 C2619 0.930 . S
C2614 H2600 0.930 . S
C2614 C2612 1.395 . S
C2614 C2617 1.403 . S
C2615 C2612 1.403 . S
C2615 C2616 1.524 . S
C2615 C2619 1.400 . S
C2616 H2601 0.960 . S
C2616 H2602 0.960 . S
C2616 H2603 0.960 . S
C2616 C2615 1.524 . S
C2617 C2614 1.403 . S
C2617 C2618 1.392 . S
C2617 C2621 1.495 . S
C2618 C2617 1.392 . S
C2618 C2619 1.385 . S
C2618 C2620 1.478 . S
C2619 H2613 0.930 . S
C2619 C2615 1.400 . S
C2619 C2618 1.385 . S
C2620 C2618 1.478 . S
C2620 C2622 1.381 . S
C2620 C2626 1.383 . S
C2621 C2617 1.495 . S
C2621 H2627 0.959 . S
C2621 H2628 0.961 . S
C2621 H2629 0.960 . S
C2622 C2620 1.381 . S
C2622 C2623 1.394 . S
C2622 H2630 0.930 . S
C2623 C2622 1.394 . S
C2623 C2624 1.383 . S
C2623 H2631 0.929 . S
C2624 C2623 1.383 . S
C2624 C2625 1.377 . S
C2625 H2609 0.930 . S
C2625 C2624 1.377 . S
C2625 C2626 1.379 . S
C2626 H2610 0.931 . S
C2626 C2620 1.383 . S
C2626 C2625 1.379 . S
H2627 C2621 0.959 . S
H2628 C2621 0.961 . S
H2629 C2621 0.960 . S
H2630 C2622 0.930 . S
H2631 C2623 0.929 . S
H2632 C2640 0.929 . S
H2633 C2642 0.930 . S
H2634 C2644 0.930 . S
H2635 C2647 0.929 . S
H2636 C2650 0.930 . S
H2637 C2652 0.960 . S
H2638 C2652 0.960 . S
H2639 C2652 0.960 . S
C2640 H2632 0.929 . S
C2640 C2641 1.377 . S
C2640 C2642 1.384 . S
C2641 C2640 1.377 . S
C2641 C2647 1.390 . S
C2642 H2633 0.930 . S
C2642 C2640 1.384 . S
C2642 C2643 1.372 . S
C2643 C2642 1.372 . S
C2643 C2644 1.400 . S
C2643 C2648 1.490 . S
C2644 H2634 0.930 . S
C2644 C2643 1.400 . S
C2644 C2647 1.386 . S
H2645 C2661 0.930 . S
H2646 C2662 0.931 . S
C2647 H2635 0.929 . S
C2647 C2641 1.390 . S
C2647 C2644 1.386 . S
C2648 C2643 1.490 . S
C2648 C2650 1.395 . S
C2648 C2651 1.403 . S
H2649 C2655 0.930 . S
C2650 H2636 0.930 . S
C2650 C2648 1.395 . S
C2650 C2653 1.403 . S
C2651 C2648 1.403 . S
C2651 C2652 1.524 . S
C2651 C2655 1.400 . S
C2652 H2637 0.960 . S
C2652 H2638 0.960 . S
C2652 H2639 0.960 . S
C2652 C2651 1.524 . S
C2653 C2650 1.403 . S
C2653 C2654 1.392 . S
C2653 C2657 1.495 . S
C2654 C2653 1.392 . S
C2654 C2655 1.385 . S
C2654 C2656 1.478 . S
C2655 H2649 0.930 . S
C2655 C2651 1.400 . S
C2655 C2654 1.385 . S
C2656 C2654 1.478 . S
C2656 C2658 1.381 . S
C2656 C2662 1.383 . S
C2657 C2653 1.495 . S
C2657 H2663 0.959 . S
C2657 H2664 0.961 . S
C2657 H2665 0.960 . S
C2658 C2656 1.381 . S
C2658 C2659 1.394 . S
C2658 H2666 0.930 . S
C2659 C2658 1.394 . S
C2659 C2660 1.383 . S
C2659 H2667 0.929 . S
C2660 C2659 1.383 . S
C2660 C2661 1.377 . S
C2661 H2645 0.930 . S
C2661 C2660 1.377 . S
C2661 C2662 1.379 . S
C2662 H2646 0.931 . S
C2662 C2656 1.383 . S
C2662 C2661 1.379 . S
H2663 C2657 0.959 . S
H2664 C2657 0.961 . S
H2665 C2657 0.960 . S
H2666 C2658 0.930 . S
H2667 C2659 0.929 . S
H2668 C2676 0.929 . S
H2669 C2678 0.930 . S
H2670 C2680 0.930 . S
H2671 C2683 0.929 . S
H2672 C2686 0.930 . S
H2673 C2688 0.960 . S
H2674 C2688 0.960 . S
H2675 C2688 0.960 . S
C2676 H2668 0.929 . S
C2676 C2677 1.377 . S
C2676 C2678 1.384 . S
C2677 C2676 1.377 . S
C2677 C2683 1.390 . S
C2678 H2669 0.930 . S
C2678 C2676 1.384 . S
C2678 C2679 1.372 . S
C2679 C2678 1.372 . S
C2679 C2680 1.400 . S
C2679 C2684 1.490 . S
C2680 H2670 0.930 . S
C2680 C2679 1.400 . S
C2680 C2683 1.386 . S
H2681 C2697 0.930 . S
H2682 C2698 0.931 . S
C2683 H2671 0.929 . S
C2683 C2677 1.390 . S
C2683 C2680 1.386 . S
C2684 C2679 1.490 . S
C2684 C2686 1.395 . S
C2684 C2687 1.403 . S
H2685 C2691 0.930 . S
C2686 H2672 0.930 . S
C2686 C2684 1.395 . S
C2686 C2689 1.403 . S
C2687 C2684 1.403 . S
C2687 C2688 1.524 . S
C2687 C2691 1.400 . S
C2688 H2673 0.960 . S
C2688 H2674 0.960 . S
C2688 H2675 0.960 . S
C2688 C2687 1.524 . S
C2689 C2686 1.403 . S
C2689 C2690 1.392 . S
C2689 C2693 1.495 . S
C2690 C2689 1.392 . S
C2690 C2691 1.385 . S
C2690 C2692 1.478 . S
C2691 H2685 0.930 . S
C2691 C2687 1.400 . S
C2691 C2690 1.385 . S
C2692 C2690 1.478 . S
C2692 C2694 1.381 . S
C2692 C2698 1.383 . S
C2693 C2689 1.495 . S
C2693 H2699 0.959 . S
C2693 H2700 0.961 . S
C2693 H2701 0.960 . S
C2694 C2692 1.381 . S
C2694 C2695 1.394 . S
C2694 H2702 0.930 . S
C2695 C2694 1.394 . S
C2695 C2696 1.383 . S
C2695 H2703 0.929 . S
C2696 C2695 1.383 . S
C2696 C2697 1.377 . S
C2697 H2681 0.930 . S
C2697 C2696 1.377 . S
C2697 C2698 1.379 . S
C2698 H2682 0.931 . S
C2698 C2692 1.383 . S
C2698 C2697 1.379 . S
H2699 C2693 0.959 . S
H2700 C2693 0.961 . S
H2701 C2693 0.960 . S
H2702 C2694 0.930 . S
H2703 C2695 0.929 . S
H2704 C2712 0.929 . S
H2705 C2714 0.930 . S
H2706 C2716 0.930 . S
H2707 C2719 0.929 . S
H2708 C2722 0.930 . S
H2709 C2724 0.960 . S
H2710 C2724 0.960 . S
H2711 C2724 0.960 . S
C2712 H2704 0.929 . S
C2712 C2713 1.377 . S
C2712 C2714 1.384 . S
C2713 C2712 1.377 . S
C2713 C2719 1.390 . S
C2714 H2705 0.930 . S
C2714 C2712 1.384 . S
C2714 C2715 1.372 . S
C2715 C2714 1.372 . S
C2715 C2716 1.400 . S
C2715 C2720 1.490 . S
C2716 H2706 0.930 . S
C2716 C2715 1.400 . S
C2716 C2719 1.386 . S
H2717 C2733 0.930 . S
H2718 C2734 0.931 . S
C2719 H2707 0.929 . S
C2719 C2713 1.390 . S
C2719 C2716 1.386 . S
C2720 C2715 1.490 . S
C2720 C2722 1.395 . S
C2720 C2723 1.403 . S
H2721 C2727 0.930 . S
C2722 H2708 0.930 . S
C2722 C2720 1.395 . S
C2722 C2725 1.403 . S
C2723 C2720 1.403 . S
C2723 C2724 1.524 . S
C2723 C2727 1.400 . S
C2724 H2709 0.960 . S
C2724 H2710 0.960 . S
C2724 H2711 0.960 . S
C2724 C2723 1.524 . S
C2725 C2722 1.403 . S
C2725 C2726 1.392 . S
C2725 C2729 1.495 . S
C2726 C2725 1.392 . S
C2726 C2727 1.385 . S
C2726 C2728 1.478 . S
C2727 H2721 0.930 . S
C2727 C2723 1.400 . S
C2727 C2726 1.385 . S
C2728 C2726 1.478 . S
C2728 C2730 1.381 . S
C2728 C2734 1.383 . S
C2729 C2725 1.495 . S
C2729 H2735 0.959 . S
C2729 H2736 0.961 . S
C2729 H2737 0.960 . S
C2730 C2728 1.381 . S
C2730 C2731 1.394 . S
C2730 H2738 0.930 . S
C2731 C2730 1.394 . S
C2731 C2732 1.383 . S
C2731 H2739 0.929 . S
C2732 C2731 1.383 . S
C2732 C2733 1.377 . S
C2733 H2717 0.930 . S
C2733 C2732 1.377 . S
C2733 C2734 1.379 . S
C2734 H2718 0.931 . S
C2734 C2728 1.383 . S
C2734 C2733 1.379 . S
H2735 C2729 0.959 . S
H2736 C2729 0.961 . S
H2737 C2729 0.960 . S
H2738 C2730 0.930 . S
H2739 C2731 0.929 . S
H2740 C2748 0.929 . S
H2741 C2750 0.930 . S
H2742 C2752 0.930 . S
H2743 C2755 0.929 . S
H2744 C2758 0.930 . S
H2745 C2760 0.960 . S
H2746 C2760 0.960 . S
H2747 C2760 0.960 . S
C2748 H2740 0.929 . S
C2748 C2749 1.377 . S
C2748 C2750 1.384 . S
C2749 C2748 1.377 . S
C2749 C2755 1.390 . S
C2750 H2741 0.930 . S
C2750 C2748 1.384 . S
C2750 C2751 1.372 . S
C2751 C2750 1.372 . S
C2751 C2752 1.400 . S
C2751 C2756 1.490 . S
C2752 H2742 0.930 . S
C2752 C2751 1.400 . S
C2752 C2755 1.386 . S
H2753 C2769 0.930 . S
H2754 C2770 0.931 . S
C2755 H2743 0.929 . S
C2755 C2749 1.390 . S
C2755 C2752 1.386 . S
C2756 C2751 1.490 . S
C2756 C2758 1.395 . S
C2756 C2759 1.403 . S
H2757 C2763 0.930 . S
C2758 H2744 0.930 . S
C2758 C2756 1.395 . S
C2758 C2761 1.403 . S
C2759 C2756 1.403 . S
C2759 C2760 1.524 . S
C2759 C2763 1.400 . S
C2760 H2745 0.960 . S
C2760 H2746 0.960 . S
C2760 H2747 0.960 . S
C2760 C2759 1.524 . S
C2761 C2758 1.403 . S
C2761 C2762 1.392 . S
C2761 C2765 1.495 . S
C2762 C2761 1.392 . S
C2762 C2763 1.385 . S
C2762 C2764 1.478 . S
C2763 H2757 0.930 . S
C2763 C2759 1.400 . S
C2763 C2762 1.385 . S
C2764 C2762 1.478 . S
C2764 C2766 1.381 . S
C2764 C2770 1.383 . S
C2765 C2761 1.495 . S
C2765 H2771 0.959 . S
C2765 H2772 0.961 . S
C2765 H2773 0.960 . S
C2766 C2764 1.381 . S
C2766 C2767 1.394 . S
C2766 H2774 0.930 . S
C2767 C2766 1.394 . S
C2767 C2768 1.383 . S
C2767 H2775 0.929 . S
C2768 C2767 1.383 . S
C2768 C2769 1.377 . S
C2769 H2753 0.930 . S
C2769 C2768 1.377 . S
C2769 C2770 1.379 . S
C2770 H2754 0.931 . S
C2770 C2764 1.383 . S
C2770 C2769 1.379 . S
H2771 C2765 0.959 . S
H2772 C2765 0.961 . S
H2773 C2765 0.960 . S
H2774 C2766 0.930 . S
H2775 C2767 0.929 . S
H2776 C2784 0.929 . S
H2777 C2786 0.930 . S
H2778 C2788 0.930 . S
H2779 C2791 0.929 . S
H2780 C2794 0.929 1_655 S
H2781 C2796 0.960 . S
H2782 C2796 0.960 . S
H2783 C2796 0.960 . S
C2784 H2776 0.929 . S
C2784 C2785 1.377 . S
C2784 C2786 1.384 . S
C2785 C2784 1.377 . S
C2785 C2791 1.390 1_455 S
C2786 H2777 0.930 . S
C2786 C2784 1.384 . S
C2786 C2787 1.372 . S
C2787 C2786 1.372 . S
C2787 C2788 1.400 1_455 S
C2787 C2792 1.490 . S
C2788 H2778 0.930 . S
C2788 C2787 1.400 1_655 S
C2788 C2791 1.386 . S
H2789 C2805 0.884 1_655 S
H2790 C2806 0.942 . S
C2791 H2779 0.929 . S
C2791 C2785 1.390 1_655 S
C2791 C2788 1.386 . S
C2792 C2787 1.490 . S
C2792 C2794 1.395 . S
C2792 C2795 1.403 1_556 S
H2793 C2799 0.930 . S
C2794 H2780 0.929 1_455 S
C2794 C2792 1.395 . S
C2794 C2797 1.403 . S
C2795 C2792 1.403 1_554 S
C2795 C2796 1.524 . S
C2795 C2799 1.400 . S
C2796 H2781 0.960 . S
C2796 H2782 0.960 . S
C2796 H2783 0.960 . S
C2796 C2795 1.524 . S
C2797 C2794 1.403 . S
C2797 C2798 1.392 . S
C2797 C2801 1.495 1_455 S
C2798 C2797 1.392 . S
C2798 C2799 1.385 1_556 S
C2798 C2800 1.478 . S
C2799 H2793 0.930 . S
C2799 C2795 1.400 . S
C2799 C2798 1.385 1_554 S
C2800 C2798 1.478 . S
C2800 C2802 1.381 . S
C2800 C2806 1.366 1_456 S
C2801 C2797 1.495 1_655 S
C2801 H2807 0.959 . S
C2801 H2808 0.961 . S
C2801 H2809 0.960 1_655 S
C2802 C2800 1.381 . S
C2802 C2803 1.394 . S
C2802 H2810 0.930 . S
C2803 C2802 1.394 . S
C2803 C2804 1.383 1_556 S
C2803 H2811 0.929 . S
C2804 C2803 1.383 1_554 S
C2804 C2805 1.409 . S
C2805 H2789 0.884 1_455 S
C2805 C2804 1.409 . S
C2805 C2806 1.402 1_455 S
C2806 H2790 0.942 . S
C2806 C2800 1.366 1_654 S
C2806 C2805 1.402 1_655 S
H2807 C2801 0.959 . S
H2808 C2801 0.961 . S
H2809 C2801 0.960 1_455 S
H2810 C2802 0.930 . S
H2811 C2803 0.929 . S
H2812 C2820 0.932 . S
H2813 C2822 0.930 . S
H2814 C2824 0.930 . S
H2815 C2827 0.929 . S
H2816 C2830 0.930 . S
H2817 C2832 0.960 . S
H2818 C2832 0.960 . S
H2819 C2832 0.960 . S
C2820 H2812 0.932 . S
C2820 C2821 1.382 . S
C2820 C2822 1.377 1_455 S
C2821 C2820 1.382 . S
C2821 C2827 1.390 1_455 S
C2822 H2813 0.930 . S
C2822 C2820 1.377 1_655 S
C2822 C2823 1.372 . S
C2823 C2822 1.372 . S
C2823 C2824 1.400 . S
C2823 C2828 1.490 . S
C2824 H2814 0.930 . S
C2824 C2823 1.400 . S
C2824 C2827 1.386 . S
H2825 C2841 0.930 . S
H2826 C2842 0.931 . S
C2827 H2815 0.929 . S
C2827 C2821 1.390 1_655 S
C2827 C2824 1.386 . S
C2828 C2823 1.490 . S
C2828 C2830 1.395 . S
C2828 C2831 1.403 . S
H2829 C2835 0.930 . S
C2830 H2816 0.930 . S
C2830 C2828 1.395 . S
C2830 C2833 1.403 . S
C2831 C2828 1.403 . S
C2831 C2832 1.524 . S
C2831 C2835 1.400 . S
C2832 H2817 0.960 . S
C2832 H2818 0.960 . S
C2832 H2819 0.960 . S
C2832 C2831 1.524 . S
C2833 C2830 1.403 . S
C2833 C2834 1.392 . S
C2833 C2837 1.495 . S
C2834 C2833 1.392 . S
C2834 C2835 1.385 . S
C2834 C2836 1.478 . S
C2835 H2829 0.930 . S
C2835 C2831 1.400 . S
C2835 C2834 1.385 . S
C2836 C2834 1.478 . S
C2836 C2838 1.381 . S
C2836 C2842 1.383 . S
C2837 C2833 1.495 . S
C2837 H2843 0.959 . S
C2837 H2844 0.961 . S
C2837 H2845 0.960 . S
C2838 C2836 1.381 . S
C2838 C2839 1.394 . S
C2838 H2846 0.930 . S
C2839 C2838 1.394 . S
C2839 C2840 1.383 . S
C2839 H2847 0.929 . S
C2840 C2839 1.383 . S
C2840 C2841 1.377 . S
C2841 H2825 0.930 . S
C2841 C2840 1.377 . S
C2841 C2842 1.379 . S
C2842 H2826 0.931 . S
C2842 C2836 1.383 . S
C2842 C2841 1.379 . S
H2843 C2837 0.959 . S
H2844 C2837 0.961 . S
H2845 C2837 0.960 . S
H2846 C2838 0.930 . S
H2847 C2839 0.929 . S
H2848 C2856 0.929 . S
H2849 C2858 0.930 . S
H2850 C2860 0.930 . S
H2851 C2863 0.929 . S
H2852 C2866 0.930 . S
H2853 C2868 0.960 . S
H2854 C2868 0.960 . S
H2855 C2868 0.960 . S
C2856 H2848 0.929 . S
C2856 C2857 1.377 . S
C2856 C2858 1.384 . S
C2857 C2856 1.377 . S
C2857 C2863 1.390 . S
C2858 H2849 0.930 . S
C2858 C2856 1.384 . S
C2858 C2859 1.372 . S
C2859 C2858 1.372 . S
C2859 C2860 1.400 . S
C2859 C2864 1.490 . S
C2860 H2850 0.930 . S
C2860 C2859 1.400 . S
C2860 C2863 1.386 . S
H2861 C2877 0.930 . S
H2862 C2878 0.931 . S
C2863 H2851 0.929 . S
C2863 C2857 1.390 . S
C2863 C2860 1.386 . S
C2864 C2859 1.490 . S
C2864 C2866 1.395 . S
C2864 C2867 1.403 . S
H2865 C2871 0.930 . S
C2866 H2852 0.930 . S
C2866 C2864 1.395 . S
C2866 C2869 1.403 . S
C2867 C2864 1.403 . S
C2867 C2868 1.524 . S
C2867 C2871 1.400 . S
C2868 H2853 0.960 . S
C2868 H2854 0.960 . S
C2868 H2855 0.960 . S
C2868 C2867 1.524 . S
C2869 C2866 1.403 . S
C2869 C2870 1.392 . S
C2869 C2873 1.495 . S
C2870 C2869 1.392 . S
C2870 C2871 1.385 . S
C2870 C2872 1.478 . S
C2871 H2865 0.930 . S
C2871 C2867 1.400 . S
C2871 C2870 1.385 . S
C2872 C2870 1.478 . S
C2872 C2874 1.381 . S
C2872 C2878 1.383 . S
C2873 C2869 1.495 . S
C2873 H2879 0.959 . S
C2873 H2880 0.961 . S
C2873 H2881 0.960 . S
C2874 C2872 1.381 . S
C2874 C2875 1.394 . S
C2874 H2882 0.930 . S
C2875 C2874 1.394 . S
C2875 C2876 1.383 . S
C2875 H2883 0.929 . S
C2876 C2875 1.383 . S
C2876 C2877 1.377 . S
C2877 H2861 0.930 . S
C2877 C2876 1.377 . S
C2877 C2878 1.379 . S
C2878 H2862 0.931 . S
C2878 C2872 1.383 . S
C2878 C2877 1.379 . S
H2879 C2873 0.959 . S
H2880 C2873 0.961 . S
H2881 C2873 0.960 . S
H2882 C2874 0.930 . S
H2883 C2875 0.929 . S
H2884 C2892 0.929 . S
H2885 C2894 0.930 . S
H2886 C2896 0.930 . S
H2887 C2899 0.929 . S
H2888 C2902 0.930 . S
H2889 C2904 0.960 . S
H2890 C2904 0.960 . S
H2891 C2904 0.960 . S
C2892 H2884 0.929 . S
C2892 C2893 1.377 . S
C2892 C2894 1.384 . S
C2893 C2892 1.377 . S
C2893 C2899 1.390 . S
C2894 H2885 0.930 . S
C2894 C2892 1.384 . S
C2894 C2895 1.372 . S
C2895 C2894 1.372 . S
C2895 C2896 1.400 . S
C2895 C2900 1.490 . S
C2896 H2886 0.930 . S
C2896 C2895 1.400 . S
C2896 C2899 1.386 . S
H2897 C2913 0.930 . S
H2898 C2914 0.931 . S
C2899 H2887 0.929 . S
C2899 C2893 1.390 . S
C2899 C2896 1.386 . S
C2900 C2895 1.490 . S
C2900 C2902 1.395 . S
C2900 C2903 1.403 . S
H2901 C2907 0.930 . S
C2902 H2888 0.930 . S
C2902 C2900 1.395 . S
C2902 C2905 1.403 . S
C2903 C2900 1.403 . S
C2903 C2904 1.524 . S
C2903 C2907 1.400 . S
C2904 H2889 0.960 . S
C2904 H2890 0.960 . S
C2904 H2891 0.960 . S
C2904 C2903 1.524 . S
C2905 C2902 1.403 . S
C2905 C2906 1.392 . S
C2905 C2909 1.495 . S
C2906 C2905 1.392 . S
C2906 C2907 1.385 . S
C2906 C2908 1.478 . S
C2907 H2901 0.930 . S
C2907 C2903 1.400 . S
C2907 C2906 1.385 . S
C2908 C2906 1.478 . S
C2908 C2910 1.381 . S
C2908 C2914 1.383 . S
C2909 C2905 1.495 . S
C2909 H2915 0.959 . S
C2909 H2916 0.961 . S
C2909 H2917 0.960 . S
C2910 C2908 1.381 . S
C2910 C2911 1.394 . S
C2910 H2918 0.930 . S
C2911 C2910 1.394 . S
C2911 C2912 1.383 . S
C2911 H2919 0.929 . S
C2912 C2911 1.383 . S
C2912 C2913 1.377 . S
C2913 H2897 0.930 . S
C2913 C2912 1.377 . S
C2913 C2914 1.379 . S
C2914 H2898 0.931 . S
C2914 C2908 1.383 . S
C2914 C2913 1.379 . S
H2915 C2909 0.959 . S
H2916 C2909 0.961 . S
H2917 C2909 0.960 . S
H2918 C2910 0.930 . S
H2919 C2911 0.929 . S
H2920 C2928 0.929 . S
H2921 C2930 0.930 . S
H2922 C2932 0.902 1_655 S
H2923 C2935 0.934 . S
H2924 C2938 0.930 . S
H2925 C2940 0.960 . S
H2926 C2940 0.960 . S
H2927 C2940 0.960 . S
C2928 H2920 0.929 . S
C2928 C2929 1.377 . S
C2928 C2930 1.384 . S
C2929 C2928 1.377 . S
C2929 C2935 1.387 1_455 S
C2930 H2921 0.930 . S
C2930 C2928 1.384 . S
C2930 C2931 1.372 . S
C2931 C2930 1.372 . S
C2931 C2932 1.446 . S
C2931 C2936 1.490 . S
C2932 H2922 0.902 1_455 S
C2932 C2931 1.446 . S
C2932 C2935 1.368 1_455 S
H2933 C2949 0.930 1_655 S
H2934 C2950 0.931 1_655 S
C2935 H2923 0.934 . S
C2935 C2929 1.387 1_655 S
C2935 C2932 1.368 1_655 S
C2936 C2931 1.490 . S
C2936 C2938 1.395 . S
C2936 C2939 1.403 . S
H2937 C2943 0.930 . S
C2938 H2924 0.930 . S
C2938 C2936 1.395 . S
C2938 C2941 1.403 . S
C2939 C2936 1.403 . S
C2939 C2940 1.524 . S
C2939 C2943 1.400 . S
C2940 H2925 0.960 . S
C2940 H2926 0.960 . S
C2940 H2927 0.960 . S
C2940 C2939 1.524 . S
C2941 C2938 1.403 . S
C2941 C2942 1.392 . S
C2941 C2945 1.495 . S
C2942 C2941 1.392 . S
C2942 C2943 1.385 . S
C2942 C2944 1.478 . S
C2943 H2937 0.930 . S
C2943 C2939 1.400 . S
C2943 C2942 1.385 . S
C2944 C2942 1.478 . S
C2944 C2946 1.381 . S
C2944 C2950 1.383 . S
C2945 C2941 1.495 . S
C2945 H2951 0.959 . S
C2945 H2952 0.961 . S
C2945 H2953 0.960 . S
C2946 C2944 1.381 . S
C2946 C2947 1.394 . S
C2946 H2954 0.930 . S
C2947 C2946 1.394 . S
C2947 C2948 1.383 . S
C2947 H2955 0.929 . S
C2948 C2947 1.383 . S
C2948 C2949 1.377 . S
C2949 H2933 0.930 1_455 S
C2949 C2948 1.377 . S
C2949 C2950 1.379 . S
C2950 H2934 0.931 1_455 S
C2950 C2944 1.383 . S
C2950 C2949 1.379 . S
H2951 C2945 0.959 . S
H2952 C2945 0.961 . S
H2953 C2945 0.960 . S
H2954 C2946 0.930 . S
H2955 C2947 0.929 . S
H2956 C2964 0.929 . S
H2957 C2966 0.930 . S
H2958 C2968 0.930 . S
H2959 C2971 0.929 . S
H2960 C2974 0.930 . S
H2961 C2976 0.960 . S
H2962 C2976 0.960 . S
H2963 C2976 0.960 . S
C2964 H2956 0.929 . S
C2964 C2965 1.377 . S
C2964 C2966 1.384 . S
C2965 C2964 1.377 . S
C2965 C2971 1.390 . S
C2966 H2957 0.930 . S
C2966 C2964 1.384 . S
C2966 C2967 1.372 . S
C2967 C2966 1.372 . S
C2967 C2968 1.400 . S
C2967 C2972 1.490 . S
C2968 H2958 0.930 . S
C2968 C2967 1.400 . S
C2968 C2971 1.386 . S
H2969 C2985 0.930 . S
H2970 C2986 0.931 . S
C2971 H2959 0.929 . S
C2971 C2965 1.390 . S
C2971 C2968 1.386 . S
C2972 C2967 1.490 . S
C2972 C2974 1.395 . S
C2972 C2975 1.403 . S
H2973 C2979 0.930 . S
C2974 H2960 0.930 . S
C2974 C2972 1.395 . S
C2974 C2977 1.403 . S
C2975 C2972 1.403 . S
C2975 C2976 1.524 . S
C2975 C2979 1.400 . S
C2976 H2961 0.960 . S
C2976 H2962 0.960 . S
C2976 H2963 0.960 . S
C2976 C2975 1.524 . S
C2977 C2974 1.403 . S
C2977 C2978 1.392 . S
C2977 C2981 1.495 . S
C2978 C2977 1.392 . S
C2978 C2979 1.385 . S
C2978 C2980 1.478 . S
C2979 H2973 0.930 . S
C2979 C2975 1.400 . S
C2979 C2978 1.385 . S
C2980 C2978 1.478 . S
C2980 C2982 1.381 . S
C2980 C2986 1.383 . S
C2981 C2977 1.495 . S
C2981 H2987 0.959 . S
C2981 H2988 0.961 . S
C2981 H2989 0.960 . S
C2982 C2980 1.381 . S
C2982 C2983 1.394 . S
C2982 H2990 0.930 . S
C2983 C2982 1.394 . S
C2983 C2984 1.383 . S
C2983 H2991 0.929 . S
C2984 C2983 1.383 . S
C2984 C2985 1.377 . S
C2985 H2969 0.930 . S
C2985 C2984 1.377 . S
C2985 C2986 1.379 . S
C2986 H2970 0.931 . S
C2986 C2980 1.383 . S
C2986 C2985 1.379 . S
H2987 C2981 0.959 . S
H2988 C2981 0.961 . S
H2989 C2981 0.960 . S
H2990 C2982 0.930 . S
H2991 C2983 0.929 . S
H2992 C3000 0.929 . S
H2993 C3002 0.930 . S
H2994 C3004 0.930 . S
H2995 C3007 0.929 . S
H2996 C3010 0.930 . S
H2997 C3012 0.960 . S
H2998 C3012 0.960 . S
H2999 C3012 0.960 . S
C3000 H2992 0.929 . S
C3000 C3001 1.377 . S
C3000 C3002 1.384 . S
C3001 C3000 1.377 . S
C3001 C3007 1.390 . S
C3002 H2993 0.930 . S
C3002 C3000 1.384 . S
C3002 C3003 1.372 . S
C3003 C3002 1.372 . S
C3003 C3004 1.400 . S
C3003 C3008 1.490 . S
C3004 H2994 0.930 . S
C3004 C3003 1.400 . S
C3004 C3007 1.386 . S
H3005 C3021 0.930 . S
H3006 C3022 0.931 . S
C3007 H2995 0.929 . S
C3007 C3001 1.390 . S
C3007 C3004 1.386 . S
C3008 C3003 1.490 . S
C3008 C3010 1.395 . S
C3008 C3011 1.403 . S
H3009 C3015 0.930 . S
C3010 H2996 0.930 . S
C3010 C3008 1.395 . S
C3010 C3013 1.403 . S
C3011 C3008 1.403 . S
C3011 C3012 1.524 . S
C3011 C3015 1.400 . S
C3012 H2997 0.960 . S
C3012 H2998 0.960 . S
C3012 H2999 0.960 . S
C3012 C3011 1.524 . S
C3013 C3010 1.403 . S
C3013 C3014 1.392 . S
C3013 C3017 1.495 . S
C3014 C3013 1.392 . S
C3014 C3015 1.385 . S
C3014 C3016 1.478 . S
C3015 H3009 0.930 . S
C3015 C3011 1.400 . S
C3015 C3014 1.385 . S
C3016 C3014 1.478 . S
C3016 C3018 1.381 . S
C3016 C3022 1.383 . S
C3017 C3013 1.495 . S
C3017 H3023 0.959 . S
C3017 H3024 0.961 . S
C3017 H3025 0.960 . S
C3018 C3016 1.381 . S
C3018 C3019 1.394 . S
C3018 H3026 0.930 . S
C3019 C3018 1.394 . S
C3019 C3020 1.383 . S
C3019 H3027 0.929 . S
C3020 C3019 1.383 . S
C3020 C3021 1.377 . S
C3021 H3005 0.930 . S
C3021 C3020 1.377 . S
C3021 C3022 1.379 . S
C3022 H3006 0.931 . S
C3022 C3016 1.383 . S
C3022 C3021 1.379 . S
H3023 C3017 0.959 . S
H3024 C3017 0.961 . S
H3025 C3017 0.960 . S
H3026 C3018 0.930 . S
H3027 C3019 0.929 . S
H3028 C3036 0.929 . S
H3029 C3038 0.933 . S
H3030 C3040 0.930 . S
H3031 C3043 0.929 . S
H3032 C3046 0.930 . S
H3033 C3048 0.960 . S
H3034 C3048 0.960 . S
H3035 C3048 0.960 . S
C3036 H3028 0.929 . S
C3036 C3037 1.377 . S
C3036 C3038 1.384 1_554 S
C3037 C3036 1.377 . S
C3037 C3043 1.390 1_554 S
C3038 H3029 0.933 . S
C3038 C3036 1.384 1_556 S
C3038 C3039 1.372 . S
C3039 C3038 1.372 . S
C3039 C3040 1.400 . S
C3039 C3044 1.490 . S
C3040 H3030 0.930 . S
C3040 C3039 1.400 . S
C3040 C3043 1.386 . S
H3041 C3057 0.930 . S
H3042 C3058 0.931 . S
C3043 H3031 0.929 . S
C3043 C3037 1.390 1_556 S
C3043 C3040 1.386 . S
C3044 C3039 1.490 . S
C3044 C3046 1.395 . S
C3044 C3047 1.403 . S
H3045 C3051 0.930 . S
C3046 H3032 0.930 . S
C3046 C3044 1.395 . S
C3046 C3049 1.403 . S
C3047 C3044 1.403 . S
C3047 C3048 1.524 . S
C3047 C3051 1.400 . S
C3048 H3033 0.960 . S
C3048 H3034 0.960 . S
C3048 H3035 0.960 . S
C3048 C3047 1.524 . S
C3049 C3046 1.403 . S
C3049 C3050 1.392 . S
C3049 C3053 1.495 . S
C3050 C3049 1.392 . S
C3050 C3051 1.385 . S
C3050 C3052 1.478 . S
C3051 H3045 0.930 . S
C3051 C3047 1.400 . S
C3051 C3050 1.385 . S
C3052 C3050 1.478 . S
C3052 C3054 1.381 . S
C3052 C3058 1.383 . S
C3053 C3049 1.495 . S
C3053 H3059 0.959 . S
C3053 H3060 0.961 . S
C3053 H3061 0.960 . S
C3054 C3052 1.381 . S
C3054 C3055 1.394 . S
C3054 H3062 0.930 . S
C3055 C3054 1.394 . S
C3055 C3056 1.383 . S
C3055 H3063 0.929 . S
C3056 C3055 1.383 . S
C3056 C3057 1.377 . S
C3057 H3041 0.930 . S
C3057 C3056 1.377 . S
C3057 C3058 1.379 . S
C3058 H3042 0.931 . S
C3058 C3052 1.383 . S
C3058 C3057 1.379 . S
H3059 C3053 0.959 . S
H3060 C3053 0.961 . S
H3061 C3053 0.960 . S
H3062 C3054 0.930 . S
H3063 C3055 0.929 . S
H3064 C3072 0.929 . S
H3065 C3074 0.930 . S
H3066 C3076 0.930 . S
H3067 C3079 0.929 . S
H3068 C3082 0.930 . S
H3069 C3084 0.960 . S
H3070 C3084 0.960 . S
H3071 C3084 0.960 . S
C3072 H3064 0.929 . S
C3072 C3073 1.377 . S
C3072 C3074 1.384 . S
C3073 C3072 1.377 . S
C3073 C3079 1.390 . S
C3074 H3065 0.930 . S
C3074 C3072 1.384 . S
C3074 C3075 1.372 . S
C3075 C3074 1.372 . S
C3075 C3076 1.400 . S
C3075 C3080 1.490 . S
C3076 H3066 0.930 . S
C3076 C3075 1.400 . S
C3076 C3079 1.386 . S
H3077 C3093 0.930 . S
H3078 C3094 0.931 . S
C3079 H3067 0.929 . S
C3079 C3073 1.390 . S
C3079 C3076 1.386 . S
C3080 C3075 1.490 . S
C3080 C3082 1.395 . S
C3080 C3083 1.403 . S
H3081 C3087 0.930 . S
C3082 H3068 0.930 . S
C3082 C3080 1.395 . S
C3082 C3085 1.403 . S
C3083 C3080 1.403 . S
C3083 C3084 1.524 . S
C3083 C3087 1.400 . S
C3084 H3069 0.960 . S
C3084 H3070 0.960 . S
C3084 H3071 0.960 . S
C3084 C3083 1.524 . S
C3085 C3082 1.403 . S
C3085 C3086 1.392 . S
C3085 C3089 1.495 . S
C3086 C3085 1.392 . S
C3086 C3087 1.385 . S
C3086 C3088 1.478 . S
C3087 H3081 0.930 . S
C3087 C3083 1.400 . S
C3087 C3086 1.385 . S
C3088 C3086 1.478 . S
C3088 C3090 1.381 . S
C3088 C3094 1.383 . S
C3089 C3085 1.495 . S
C3089 H3095 0.959 . S
C3089 H3096 0.961 . S
C3089 H3097 0.960 . S
C3090 C3088 1.381 . S
C3090 C3091 1.394 . S
C3090 H3098 0.930 . S
C3091 C3090 1.394 . S
C3091 C3092 1.383 . S
C3091 H3099 0.929 . S
C3092 C3091 1.383 . S
C3092 C3093 1.377 . S
C3093 H3077 0.930 . S
C3093 C3092 1.377 . S
C3093 C3094 1.379 . S
C3094 H3078 0.931 . S
C3094 C3088 1.383 . S
C3094 C3093 1.379 . S
H3095 C3089 0.959 . S
H3096 C3089 0.961 . S
H3097 C3089 0.960 . S
H3098 C3090 0.930 . S
H3099 C3091 0.929 . S
H3100 C3108 0.929 . S
H3101 C3110 0.930 . S
H3102 C3112 0.930 . S
H3103 C3115 0.929 . S
H3104 C3118 0.930 . S
H3105 C3120 0.960 . S
H3106 C3120 0.960 . S
H3107 C3120 0.960 . S
C3108 H3100 0.929 . S
C3108 C3109 1.377 . S
C3108 C3110 1.384 . S
C3109 C3108 1.377 . S
C3109 C3115 1.390 . S
C3110 H3101 0.930 . S
C3110 C3108 1.384 . S
C3110 C3111 1.372 . S
C3111 C3110 1.372 . S
C3111 C3112 1.400 . S
C3111 C3116 1.490 . S
C3112 H3102 0.930 . S
C3112 C3111 1.400 . S
C3112 C3115 1.386 . S
H3113 C3129 0.930 . S
H3114 C3130 0.931 . S
C3115 H3103 0.929 . S
C3115 C3109 1.390 . S
C3115 C3112 1.386 . S
C3116 C3111 1.490 . S
C3116 C3118 1.395 . S
C3116 C3119 1.403 . S
H3117 C3123 0.930 . S
C3118 H3104 0.930 . S
C3118 C3116 1.395 . S
C3118 C3121 1.403 . S
C3119 C3116 1.403 . S
C3119 C3120 1.524 . S
C3119 C3123 1.400 . S
C3120 H3105 0.960 . S
C3120 H3106 0.960 . S
C3120 H3107 0.960 . S
C3120 C3119 1.524 . S
C3121 C3118 1.403 . S
C3121 C3122 1.392 . S
C3121 C3125 1.495 . S
C3122 C3121 1.392 . S
C3122 C3123 1.385 . S
C3122 C3124 1.478 . S
C3123 H3117 0.930 . S
C3123 C3119 1.400 . S
C3123 C3122 1.385 . S
C3124 C3122 1.478 . S
C3124 C3126 1.381 . S
C3124 C3130 1.383 . S
C3125 C3121 1.495 . S
C3125 H3131 0.959 . S
C3125 H3132 0.961 . S
C3125 H3133 0.960 . S
C3126 C3124 1.381 . S
C3126 C3127 1.394 . S
C3126 H3134 0.930 . S
C3127 C3126 1.394 . S
C3127 C3128 1.383 . S
C3127 H3135 0.929 . S
C3128 C3127 1.383 . S
C3128 C3129 1.377 . S
C3129 H3113 0.930 . S
C3129 C3128 1.377 . S
C3129 C3130 1.379 . S
C3130 H3114 0.931 . S
C3130 C3124 1.383 . S
C3130 C3129 1.379 . S
H3131 C3125 0.959 . S
H3132 C3125 0.961 . S
H3133 C3125 0.960 . S
H3134 C3126 0.930 . S
H3135 C3127 0.929 . S
H3136 C3144 0.929 . S
H3137 C3146 0.930 . S
H3138 C3148 0.930 . S
H3139 C3151 0.929 . S
H3140 C3154 0.930 . S
H3141 C3156 0.960 . S
H3142 C3156 0.960 . S
H3143 C3156 0.960 . S
C3144 H3136 0.929 . S
C3144 C3145 1.377 . S
C3144 C3146 1.384 . S
C3145 C3144 1.377 . S
C3145 C3151 1.390 . S
C3146 H3137 0.930 . S
C3146 C3144 1.384 . S
C3146 C3147 1.372 . S
C3147 C3146 1.372 . S
C3147 C3148 1.400 . S
C3147 C3152 1.490 . S
C3148 H3138 0.930 . S
C3148 C3147 1.400 . S
C3148 C3151 1.386 . S
H3149 C3165 0.930 . S
H3150 C3166 0.931 . S
C3151 H3139 0.929 . S
C3151 C3145 1.390 . S
C3151 C3148 1.386 . S
C3152 C3147 1.490 . S
C3152 C3154 1.395 . S
C3152 C3155 1.403 . S
H3153 C3159 0.930 . S
C3154 H3140 0.930 . S
C3154 C3152 1.395 . S
C3154 C3157 1.403 . S
C3155 C3152 1.403 . S
C3155 C3156 1.524 . S
C3155 C3159 1.400 . S
C3156 H3141 0.960 . S
C3156 H3142 0.960 . S
C3156 H3143 0.960 . S
C3156 C3155 1.524 . S
C3157 C3154 1.403 . S
C3157 C3158 1.392 . S
C3157 C3161 1.495 . S
C3158 C3157 1.392 . S
C3158 C3159 1.385 . S
C3158 C3160 1.478 . S
C3159 H3153 0.930 . S
C3159 C3155 1.400 . S
C3159 C3158 1.385 . S
C3160 C3158 1.478 . S
C3160 C3162 1.381 . S
C3160 C3166 1.383 . S
C3161 C3157 1.495 . S
C3161 H3167 0.959 . S
C3161 H3168 0.961 . S
C3161 H3169 0.960 . S
C3162 C3160 1.381 . S
C3162 C3163 1.394 . S
C3162 H3170 0.930 . S
C3163 C3162 1.394 . S
C3163 C3164 1.383 . S
C3163 H3171 0.929 . S
C3164 C3163 1.383 . S
C3164 C3165 1.377 . S
C3165 H3149 0.930 . S
C3165 C3164 1.377 . S
C3165 C3166 1.379 . S
C3166 H3150 0.931 . S
C3166 C3160 1.383 . S
C3166 C3165 1.379 . S
H3167 C3161 0.959 . S
H3168 C3161 0.961 . S
H3169 C3161 0.960 . S
H3170 C3162 0.930 . S
H3171 C3163 0.929 . S
H3172 C3180 0.929 . S
H3173 C3182 0.930 . S
H3174 C3184 0.930 . S
H3175 C3187 0.929 . S
H3176 C3190 0.930 . S
H3177 C3192 0.960 . S
H3178 C3192 0.960 . S
H3179 C3192 0.960 . S
C3180 H3172 0.929 . S
C3180 C3181 1.377 . S
C3180 C3182 1.384 . S
C3181 C3180 1.377 . S
C3181 C3187 1.390 . S
C3182 H3173 0.930 . S
C3182 C3180 1.384 . S
C3182 C3183 1.372 . S
C3183 C3182 1.372 . S
C3183 C3184 1.400 . S
C3183 C3188 1.490 . S
C3184 H3174 0.930 . S
C3184 C3183 1.400 . S
C3184 C3187 1.386 . S
H3185 C3201 0.930 . S
H3186 C3202 0.931 . S
C3187 H3175 0.929 . S
C3187 C3181 1.390 . S
C3187 C3184 1.386 . S
C3188 C3183 1.490 . S
C3188 C3190 1.395 . S
C3188 C3191 1.403 . S
H3189 C3195 0.930 . S
C3190 H3176 0.930 . S
C3190 C3188 1.395 . S
C3190 C3193 1.403 . S
C3191 C3188 1.403 . S
C3191 C3192 1.524 . S
C3191 C3195 1.400 . S
C3192 H3177 0.960 . S
C3192 H3178 0.960 . S
C3192 H3179 0.960 . S
C3192 C3191 1.524 . S
C3193 C3190 1.403 . S
C3193 C3194 1.392 . S
C3193 C3197 1.495 . S
C3194 C3193 1.392 . S
C3194 C3195 1.385 . S
C3194 C3196 1.478 . S
C3195 H3189 0.930 . S
C3195 C3191 1.400 . S
C3195 C3194 1.385 . S
C3196 C3194 1.478 . S
C3196 C3198 1.381 . S
C3196 C3202 1.383 . S
C3197 C3193 1.495 . S
C3197 H3203 0.959 . S
C3197 H3204 0.961 . S
C3197 H3205 0.960 . S
C3198 C3196 1.381 . S
C3198 C3199 1.394 . S
C3198 H3206 0.930 . S
C3199 C3198 1.394 . S
C3199 C3200 1.383 . S
C3199 H3207 0.929 . S
C3200 C3199 1.383 . S
C3200 C3201 1.377 . S
C3201 H3185 0.930 . S
C3201 C3200 1.377 . S
C3201 C3202 1.379 . S
C3202 H3186 0.931 . S
C3202 C3196 1.383 . S
C3202 C3201 1.379 . S
H3203 C3197 0.959 . S
H3204 C3197 0.961 . S
H3205 C3197 0.960 . S
H3206 C3198 0.930 . S
H3207 C3199 0.929 . S
H3208 C3216 0.929 . S
H3209 C3218 0.930 . S
H3210 C3220 0.930 . S
H3211 C3223 0.929 . S
H3212 C3226 0.930 . S
H3213 C3228 0.960 . S
H3214 C3228 0.960 . S
H3215 C3228 0.960 . S
C3216 H3208 0.929 . S
C3216 C3217 1.377 . S
C3216 C3218 1.384 . S
C3217 C3216 1.377 . S
C3217 C3223 1.390 . S
C3218 H3209 0.930 . S
C3218 C3216 1.384 . S
C3218 C3219 1.372 . S
C3219 C3218 1.372 . S
C3219 C3220 1.400 . S
C3219 C3224 1.490 . S
C3220 H3210 0.930 . S
C3220 C3219 1.400 . S
C3220 C3223 1.386 . S
H3221 C3237 0.930 . S
H3222 C3238 0.931 . S
C3223 H3211 0.929 . S
C3223 C3217 1.390 . S
C3223 C3220 1.386 . S
C3224 C3219 1.490 . S
C3224 C3226 1.395 . S
C3224 C3227 1.403 . S
H3225 C3231 0.930 . S
C3226 H3212 0.930 . S
C3226 C3224 1.395 . S
C3226 C3229 1.403 . S
C3227 C3224 1.403 . S
C3227 C3228 1.524 . S
C3227 C3231 1.400 . S
C3228 H3213 0.960 . S
C3228 H3214 0.960 . S
C3228 H3215 0.960 . S
C3228 C3227 1.524 . S
C3229 C3226 1.403 . S
C3229 C3230 1.392 . S
C3229 C3233 1.495 . S
C3230 C3229 1.392 . S
C3230 C3231 1.385 . S
C3230 C3232 1.478 . S
C3231 H3225 0.930 . S
C3231 C3227 1.400 . S
C3231 C3230 1.385 . S
C3232 C3230 1.478 . S
C3232 C3234 1.381 . S
C3232 C3238 1.383 . S
C3233 C3229 1.495 . S
C3233 H3239 0.959 . S
C3233 H3240 0.961 . S
C3233 H3241 0.960 . S
C3234 C3232 1.381 . S
C3234 C3235 1.394 . S
C3234 H3242 0.930 . S
C3235 C3234 1.394 . S
C3235 C3236 1.383 . S
C3235 H3243 0.929 . S
C3236 C3235 1.383 . S
C3236 C3237 1.377 . S
C3237 H3221 0.930 . S
C3237 C3236 1.377 . S
C3237 C3238 1.379 . S
C3238 H3222 0.931 . S
C3238 C3232 1.383 . S
C3238 C3237 1.379 . S
H3239 C3233 0.959 . S
H3240 C3233 0.961 . S
H3241 C3233 0.960 . S
H3242 C3234 0.930 . S
H3243 C3235 0.929 . S
H3244 C3252 0.929 . S
H3245 C3254 0.930 . S
H3246 C3256 0.930 . S
H3247 C3259 0.929 . S
H3248 C3262 0.930 . S
H3249 C3264 0.960 . S
H3250 C3264 0.960 . S
H3251 C3264 0.960 . S
C3252 H3244 0.929 . S
C3252 C3253 1.377 . S
C3252 C3254 1.384 . S
C3253 C3252 1.377 . S
C3253 C3259 1.390 . S
C3254 H3245 0.930 . S
C3254 C3252 1.384 . S
C3254 C3255 1.372 . S
C3255 C3254 1.372 . S
C3255 C3256 1.400 . S
C3255 C3260 1.490 . S
C3256 H3246 0.930 . S
C3256 C3255 1.400 . S
C3256 C3259 1.386 . S
H3257 C3273 0.930 . S
H3258 C3274 0.931 . S
C3259 H3247 0.929 . S
C3259 C3253 1.390 . S
C3259 C3256 1.386 . S
C3260 C3255 1.490 . S
C3260 C3262 1.395 . S
C3260 C3263 1.403 . S
H3261 C3267 0.930 . S
C3262 H3248 0.930 . S
C3262 C3260 1.395 . S
C3262 C3265 1.403 . S
C3263 C3260 1.403 . S
C3263 C3264 1.524 . S
C3263 C3267 1.400 . S
C3264 H3249 0.960 . S
C3264 H3250 0.960 . S
C3264 H3251 0.960 . S
C3264 C3263 1.524 . S
C3265 C3262 1.403 . S
C3265 C3266 1.392 . S
C3265 C3269 1.495 . S
C3266 C3265 1.392 . S
C3266 C3267 1.385 . S
C3266 C3268 1.478 . S
C3267 H3261 0.930 . S
C3267 C3263 1.400 . S
C3267 C3266 1.385 . S
C3268 C3266 1.478 . S
C3268 C3270 1.381 . S
C3268 C3274 1.383 . S
C3269 C3265 1.495 . S
C3269 H3275 0.959 . S
C3269 H3276 0.961 . S
C3269 H3277 0.960 . S
C3270 C3268 1.381 . S
C3270 C3271 1.394 . S
C3270 H3278 0.930 . S
C3271 C3270 1.394 . S
C3271 C3272 1.383 . S
C3271 H3279 0.929 . S
C3272 C3271 1.383 . S
C3272 C3273 1.377 . S
C3273 H3257 0.930 . S
C3273 C3272 1.377 . S
C3273 C3274 1.379 . S
C3274 H3258 0.931 . S
C3274 C3268 1.383 . S
C3274 C3273 1.379 . S
H3275 C3269 0.959 . S
H3276 C3269 0.961 . S
H3277 C3269 0.960 . S
H3278 C3270 0.930 . S
H3279 C3271 0.929 . S
H3280 C3288 0.929 . S
H3281 C3290 0.930 . S
H3282 C3292 0.930 . S
H3283 C3295 0.929 . S
H3284 C3298 0.930 . S
H3285 C3300 0.960 . S
H3286 C3300 0.960 . S
H3287 C3300 0.960 . S
C3288 H3280 0.929 . S
C3288 C3289 1.377 . S
C3288 C3290 1.384 . S
C3289 C3288 1.377 . S
C3289 C3295 1.390 . S
C3290 H3281 0.930 . S
C3290 C3288 1.384 . S
C3290 C3291 1.372 . S
C3291 C3290 1.372 . S
C3291 C3292 1.400 . S
C3291 C3296 1.490 . S
C3292 H3282 0.930 . S
C3292 C3291 1.400 . S
C3292 C3295 1.386 . S
H3293 C3309 0.930 . S
H3294 C3310 0.931 . S
C3295 H3283 0.929 . S
C3295 C3289 1.390 . S
C3295 C3292 1.386 . S
C3296 C3291 1.490 . S
C3296 C3298 1.395 . S
C3296 C3299 1.403 . S
H3297 C3303 0.930 . S
C3298 H3284 0.930 . S
C3298 C3296 1.395 . S
C3298 C3301 1.403 . S
C3299 C3296 1.403 . S
C3299 C3300 1.524 . S
C3299 C3303 1.400 . S
C3300 H3285 0.960 . S
C3300 H3286 0.960 . S
C3300 H3287 0.960 . S
C3300 C3299 1.524 . S
C3301 C3298 1.403 . S
C3301 C3302 1.392 . S
C3301 C3305 1.495 . S
C3302 C3301 1.392 . S
C3302 C3303 1.385 . S
C3302 C3304 1.478 . S
C3303 H3297 0.930 . S
C3303 C3299 1.400 . S
C3303 C3302 1.385 . S
C3304 C3302 1.478 . S
C3304 C3306 1.381 . S
C3304 C3310 1.383 . S
C3305 C3301 1.495 . S
C3305 H3311 0.959 . S
C3305 H3312 0.961 . S
C3305 H3313 0.960 . S
C3306 C3304 1.381 . S
C3306 C3307 1.394 . S
C3306 H3314 0.930 . S
C3307 C3306 1.394 . S
C3307 C3308 1.383 . S
C3307 H3315 0.929 . S
C3308 C3307 1.383 . S
C3308 C3309 1.377 . S
C3309 H3293 0.930 . S
C3309 C3308 1.377 . S
C3309 C3310 1.379 . S
C3310 H3294 0.931 . S
C3310 C3304 1.383 . S
C3310 C3309 1.379 . S
H3311 C3305 0.959 . S
H3312 C3305 0.961 . S
H3313 C3305 0.960 . S
H3314 C3306 0.930 . S
H3315 C3307 0.929 . S
H3316 C3324 0.929 . S
H3317 C3326 0.930 . S
H3318 C3328 0.930 . S
H3319 C3331 0.929 . S
H3320 C3334 0.930 . S
H3321 C3336 0.960 . S
H3322 C3336 0.960 . S
H3323 C3336 0.960 . S
C3324 H3316 0.929 . S
C3324 C3325 1.377 . S
C3324 C3326 1.384 . S
C3325 C3324 1.377 . S
C3325 C3331 1.390 . S
C3326 H3317 0.930 . S
C3326 C3324 1.384 . S
C3326 C3327 1.372 . S
C3327 C3326 1.372 . S
C3327 C3328 1.400 . S
C3327 C3332 1.490 . S
C3328 H3318 0.930 . S
C3328 C3327 1.400 . S
C3328 C3331 1.386 . S
H3329 C3345 0.930 . S
H3330 C3346 0.931 . S
C3331 H3319 0.929 . S
C3331 C3325 1.390 . S
C3331 C3328 1.386 . S
C3332 C3327 1.490 . S
C3332 C3334 1.395 . S
C3332 C3335 1.403 . S
H3333 C3339 0.930 . S
C3334 H3320 0.930 . S
C3334 C3332 1.395 . S
C3334 C3337 1.403 . S
C3335 C3332 1.403 . S
C3335 C3336 1.524 . S
C3335 C3339 1.400 . S
C3336 H3321 0.960 . S
C3336 H3322 0.960 . S
C3336 H3323 0.960 . S
C3336 C3335 1.524 . S
C3337 C3334 1.403 . S
C3337 C3338 1.392 . S
C3337 C3341 1.495 . S
C3338 C3337 1.392 . S
C3338 C3339 1.385 . S
C3338 C3340 1.478 . S
C3339 H3333 0.930 . S
C3339 C3335 1.400 . S
C3339 C3338 1.385 . S
C3340 C3338 1.478 . S
C3340 C3342 1.381 . S
C3340 C3346 1.383 . S
C3341 C3337 1.495 . S
C3341 H3347 0.959 . S
C3341 H3348 0.961 . S
C3341 H3349 0.960 . S
C3342 C3340 1.381 . S
C3342 C3343 1.394 . S
C3342 H3350 0.930 . S
C3343 C3342 1.394 . S
C3343 C3344 1.383 . S
C3343 H3351 0.929 . S
C3344 C3343 1.383 . S
C3344 C3345 1.377 . S
C3345 H3329 0.930 . S
C3345 C3344 1.377 . S
C3345 C3346 1.379 . S
C3346 H3330 0.931 . S
C3346 C3340 1.383 . S
C3346 C3345 1.379 . S
H3347 C3341 0.959 . S
H3348 C3341 0.961 . S
H3349 C3341 0.960 . S
H3350 C3342 0.930 . S
H3351 C3343 0.929 . S
H3352 C3360 0.929 . S
H3353 C3362 0.930 . S
H3354 C3364 0.930 . S
H3355 C3367 0.929 . S
H3356 C3370 0.930 . S
H3357 C3372 0.960 . S
H3358 C3372 0.960 . S
H3359 C3372 0.960 . S
C3360 H3352 0.929 . S
C3360 C3361 1.377 . S
C3360 C3362 1.384 . S
C3361 C3360 1.377 . S
C3361 C3367 1.390 . S
C3362 H3353 0.930 . S
C3362 C3360 1.384 . S
C3362 C3363 1.372 . S
C3363 C3362 1.372 . S
C3363 C3364 1.400 . S
C3363 C3368 1.490 . S
C3364 H3354 0.930 . S
C3364 C3363 1.400 . S
C3364 C3367 1.386 . S
H3365 C3381 0.930 . S
H3366 C3382 0.931 . S
C3367 H3355 0.929 . S
C3367 C3361 1.390 . S
C3367 C3364 1.386 . S
C3368 C3363 1.490 . S
C3368 C3370 1.395 . S
C3368 C3371 1.403 . S
H3369 C3375 0.930 . S
C3370 H3356 0.930 . S
C3370 C3368 1.395 . S
C3370 C3373 1.403 . S
C3371 C3368 1.403 . S
C3371 C3372 1.524 . S
C3371 C3375 1.400 . S
C3372 H3357 0.960 . S
C3372 H3358 0.960 . S
C3372 H3359 0.960 . S
C3372 C3371 1.524 . S
C3373 C3370 1.403 . S
C3373 C3374 1.392 . S
C3373 C3377 1.495 . S
C3374 C3373 1.392 . S
C3374 C3375 1.385 . S
C3374 C3376 1.478 . S
C3375 H3369 0.930 . S
C3375 C3371 1.400 . S
C3375 C3374 1.385 . S
C3376 C3374 1.478 . S
C3376 C3378 1.381 . S
C3376 C3382 1.383 . S
C3377 C3373 1.495 . S
C3377 H3383 0.959 . S
C3377 H3384 0.961 . S
C3377 H3385 0.960 . S
C3378 C3376 1.381 . S
C3378 C3379 1.394 . S
C3378 H3386 0.930 . S
C3379 C3378 1.394 . S
C3379 C3380 1.383 . S
C3379 H3387 0.929 . S
C3380 C3379 1.383 . S
C3380 C3381 1.377 . S
C3381 H3365 0.930 . S
C3381 C3380 1.377 . S
C3381 C3382 1.379 . S
C3382 H3366 0.931 . S
C3382 C3376 1.383 . S
C3382 C3381 1.379 . S
H3383 C3377 0.959 . S
H3384 C3377 0.961 . S
H3385 C3377 0.960 . S
H3386 C3378 0.930 . S
H3387 C3379 0.929 . S
H3388 C3396 0.929 . S
H3389 C3398 0.930 . S
H3390 C3400 0.930 . S
H3391 C3403 0.929 . S
H3392 C3406 0.930 . S
H3393 C3408 0.960 . S
H3394 C3408 0.960 . S
H3395 C3408 0.960 . S
C3396 H3388 0.929 . S
C3396 C3397 1.377 . S
C3396 C3398 1.384 . S
C3397 C3396 1.377 . S
C3397 C3403 1.390 1_554 S
C3398 H3389 0.930 . S
C3398 C3396 1.384 . S
C3398 C3399 1.372 . S
C3399 C3398 1.372 . S
C3399 C3400 1.400 1_554 S
C3399 C3404 1.490 . S
C3400 H3390 0.930 . S
C3400 C3399 1.400 1_556 S
C3400 C3403 1.386 . S
H3401 C3417 0.930 1_556 S
H3402 C3418 0.931 1_556 S
C3403 H3391 0.929 . S
C3403 C3397 1.390 1_556 S
C3403 C3400 1.386 . S
C3404 C3399 1.490 . S
C3404 C3406 1.395 . S
C3404 C3407 1.403 1_554 S
H3405 C3411 0.885 1_556 S
C3406 H3392 0.930 . S
C3406 C3404 1.395 . S
C3406 C3409 1.403 . S
C3407 C3404 1.403 1_556 S
C3407 C3408 1.524 . S
C3407 C3411 1.401 1_556 S
C3408 H3393 0.960 . S
C3408 H3394 0.960 . S
C3408 H3395 0.960 . S
C3408 C3407 1.524 . S
C3409 C3406 1.403 . S
C3409 C3410 1.392 . S
C3409 C3413 1.495 . S
C3410 C3409 1.392 . S
C3410 C3411 1.430 . S
C3410 C3412 1.478 . S
C3411 H3405 0.885 1_554 S
C3411 C3407 1.401 1_554 S
C3411 C3410 1.430 . S
C3412 C3410 1.478 . S
C3412 C3414 1.381 1_565 S
C3412 C3418 1.383 . S
C3413 C3409 1.495 . S
C3413 H3419 0.959 . S
C3413 H3420 0.961 . S
C3413 H3421 0.960 . S
C3414 C3412 1.381 1_545 S
C3414 C3415 1.394 . S
C3414 H3422 0.930 . S
C3415 C3414 1.394 . S
C3415 C3416 1.383 . S
C3415 H3423 0.929 . S
C3416 C3415 1.383 . S
C3416 C3417 1.377 1_545 S
C3417 H3401 0.930 1_554 S
C3417 C3416 1.377 1_565 S
C3417 C3418 1.379 . S
C3418 H3402 0.931 1_554 S
C3418 C3412 1.383 . S
C3418 C3417 1.379 . S
H3419 C3413 0.959 . S
H3420 C3413 0.961 . S
H3421 C3413 0.960 . S
H3422 C3414 0.930 . S
H3423 C3415 0.929 . S
H3424 C3432 0.929 . S
H3425 C3434 0.930 . S
H3426 C3436 0.930 . S
H3427 C3439 0.929 . S
H3428 C3442 0.930 . S
H3429 C3444 0.960 . S
H3430 C3444 0.960 . S
H3431 C3444 0.960 . S
C3432 H3424 0.929 . S
C3432 C3433 1.377 . S
C3432 C3434 1.384 . S
C3433 C3432 1.377 . S
C3433 C3439 1.390 . S
C3434 H3425 0.930 . S
C3434 C3432 1.384 . S
C3434 C3435 1.372 . S
C3435 C3434 1.372 . S
C3435 C3436 1.400 . S
C3435 C3440 1.490 . S
C3436 H3426 0.930 . S
C3436 C3435 1.400 . S
C3436 C3439 1.386 . S
H3437 C3453 0.930 . S
H3438 C3454 0.931 . S
C3439 H3427 0.929 . S
C3439 C3433 1.390 . S
C3439 C3436 1.386 . S
C3440 C3435 1.490 . S
C3440 C3442 1.395 . S
C3440 C3443 1.403 . S
H3441 C3447 0.930 . S
C3442 H3428 0.930 . S
C3442 C3440 1.395 . S
C3442 C3445 1.403 . S
C3443 C3440 1.403 . S
C3443 C3444 1.524 . S
C3443 C3447 1.400 . S
C3444 H3429 0.960 . S
C3444 H3430 0.960 . S
C3444 H3431 0.960 . S
C3444 C3443 1.524 . S
C3445 C3442 1.403 . S
C3445 C3446 1.392 . S
C3445 C3449 1.495 . S
C3446 C3445 1.392 . S
C3446 C3447 1.385 . S
C3446 C3448 1.478 . S
C3447 H3441 0.930 . S
C3447 C3443 1.400 . S
C3447 C3446 1.385 . S
C3448 C3446 1.478 . S
C3448 C3450 1.381 . S
C3448 C3454 1.383 . S
C3449 C3445 1.495 . S
C3449 H3455 0.959 . S
C3449 H3456 0.961 . S
C3449 H3457 0.960 . S
C3450 C3448 1.381 . S
C3450 C3451 1.394 . S
C3450 H3458 0.930 . S
C3451 C3450 1.394 . S
C3451 C3452 1.383 . S
C3451 H3459 0.929 . S
C3452 C3451 1.383 . S
C3452 C3453 1.377 . S
C3453 H3437 0.930 . S
C3453 C3452 1.377 . S
C3453 C3454 1.379 . S
C3454 H3438 0.931 . S
C3454 C3448 1.383 . S
C3454 C3453 1.379 . S
H3455 C3449 0.959 . S
H3456 C3449 0.961 . S
H3457 C3449 0.960 . S
H3458 C3450 0.930 . S
H3459 C3451 0.929 . S
H3460 C3468 0.929 . S
H3461 C3470 0.930 . S
H3462 C3472 0.930 1_556 S
H3463 C3475 0.929 1_556 S
H3464 C3478 0.930 . S
H3465 C3480 0.960 . S
H3466 C3480 0.960 . S
H3467 C3480 0.960 . S
C3468 H3460 0.929 . S
C3468 C3469 1.377 . S
C3468 C3470 1.384 . S
C3469 C3468 1.377 . S
C3469 C3475 1.390 . S
C3470 H3461 0.930 . S
C3470 C3468 1.384 . S
C3470 C3471 1.372 . S
C3471 C3470 1.372 . S
C3471 C3472 1.400 . S
C3471 C3476 1.490 . S
C3472 H3462 0.930 1_554 S
C3472 C3471 1.400 . S
C3472 C3475 1.386 . S
H3473 C3489 0.930 . S
H3474 C3490 0.931 . S
C3475 H3463 0.929 1_554 S
C3475 C3469 1.390 . S
C3475 C3472 1.386 . S
C3476 C3471 1.490 . S
C3476 C3478 1.395 . S
C3476 C3479 1.403 . S
H3477 C3483 0.930 . S
C3478 H3464 0.930 . S
C3478 C3476 1.395 . S
C3478 C3481 1.403 . S
C3479 C3476 1.403 . S
C3479 C3480 1.524 . S
C3479 C3483 1.400 . S
C3480 H3465 0.960 . S
C3480 H3466 0.960 . S
C3480 H3467 0.960 . S
C3480 C3479 1.524 . S
C3481 C3478 1.403 . S
C3481 C3482 1.392 . S
C3481 C3485 1.495 . S
C3482 C3481 1.392 . S
C3482 C3483 1.385 . S
C3482 C3484 1.478 . S
C3483 H3477 0.930 . S
C3483 C3479 1.400 . S
C3483 C3482 1.385 . S
C3484 C3482 1.478 . S
C3484 C3486 1.381 . S
C3484 C3490 1.383 . S
C3485 C3481 1.495 . S
C3485 H3491 0.959 . S
C3485 H3492 0.961 . S
C3485 H3493 0.960 . S
C3486 C3484 1.381 . S
C3486 C3487 1.394 . S
C3486 H3494 0.930 . S
C3487 C3486 1.394 . S
C3487 C3488 1.383 . S
C3487 H3495 0.929 . S
C3488 C3487 1.383 . S
C3488 C3489 1.377 . S
C3489 H3473 0.930 . S
C3489 C3488 1.377 . S
C3489 C3490 1.379 . S
C3490 H3474 0.931 . S
C3490 C3484 1.383 . S
C3490 C3489 1.379 . S
H3491 C3485 0.959 . S
H3492 C3485 0.961 . S
H3493 C3485 0.960 . S
H3494 C3486 0.930 . S
H3495 C3487 0.929 . S
H3496 C3504 0.929 . S
H3497 C3506 0.930 . S
H3498 C3508 0.930 . S
H3499 C3511 0.929 . S
H3500 C3514 0.930 . S
H3501 C3516 0.960 . S
H3502 C3516 0.960 . S
H3503 C3516 0.960 . S
C3504 H3496 0.929 . S
C3504 C3505 1.377 . S
C3504 C3506 1.384 . S
C3505 C3504 1.377 . S
C3505 C3511 1.390 . S
C3506 H3497 0.930 . S
C3506 C3504 1.384 . S
C3506 C3507 1.372 . S
C3507 C3506 1.372 . S
C3507 C3508 1.400 . S
C3507 C3512 1.490 . S
C3508 H3498 0.930 . S
C3508 C3507 1.400 . S
C3508 C3511 1.386 . S
H3509 C3525 0.930 . S
H3510 C3526 0.931 . S
C3511 H3499 0.929 . S
C3511 C3505 1.390 . S
C3511 C3508 1.386 . S
C3512 C3507 1.490 . S
C3512 C3514 1.395 . S
C3512 C3515 1.403 . S
H3513 C3519 0.930 . S
C3514 H3500 0.930 . S
C3514 C3512 1.395 . S
C3514 C3517 1.403 . S
C3515 C3512 1.403 . S
C3515 C3516 1.524 . S
C3515 C3519 1.400 . S
C3516 H3501 0.960 . S
C3516 H3502 0.960 . S
C3516 H3503 0.960 . S
C3516 C3515 1.524 . S
C3517 C3514 1.403 . S
C3517 C3518 1.392 . S
C3517 C3521 1.495 . S
C3518 C3517 1.392 . S
C3518 C3519 1.385 . S
C3518 C3520 1.478 . S
C3519 H3513 0.930 . S
C3519 C3515 1.400 . S
C3519 C3518 1.385 . S
C3520 C3518 1.478 . S
C3520 C3522 1.381 . S
C3520 C3526 1.383 . S
C3521 C3517 1.495 . S
C3521 H3527 0.959 . S
C3521 H3528 0.961 . S
C3521 H3529 0.960 . S
C3522 C3520 1.381 . S
C3522 C3523 1.394 . S
C3522 H3530 0.930 . S
C3523 C3522 1.394 . S
C3523 C3524 1.383 . S
C3523 H3531 0.929 . S
C3524 C3523 1.383 . S
C3524 C3525 1.377 . S
C3525 H3509 0.930 . S
C3525 C3524 1.377 . S
C3525 C3526 1.379 . S
C3526 H3510 0.931 . S
C3526 C3520 1.383 . S
C3526 C3525 1.379 . S
H3527 C3521 0.959 . S
H3528 C3521 0.961 . S
H3529 C3521 0.960 . S
H3530 C3522 0.930 . S
H3531 C3523 0.929 . S
H3532 C3540 0.929 . S
H3533 C3542 0.930 . S
H3534 C3544 0.930 . S
H3535 C3547 0.929 . S
H3536 C3550 0.930 . S
H3537 C3552 0.960 . S
H3538 C3552 0.960 . S
H3539 C3552 0.960 . S
C3540 H3532 0.929 . S
C3540 C3541 1.377 . S
C3540 C3542 1.384 . S
C3541 C3540 1.377 . S
C3541 C3547 1.390 . S
C3542 H3533 0.930 . S
C3542 C3540 1.384 . S
C3542 C3543 1.372 . S
C3543 C3542 1.372 . S
C3543 C3544 1.400 . S
C3543 C3548 1.490 . S
C3544 H3534 0.930 . S
C3544 C3543 1.400 . S
C3544 C3547 1.386 . S
H3545 C3561 0.930 . S
H3546 C3562 0.931 . S
C3547 H3535 0.929 . S
C3547 C3541 1.390 . S
C3547 C3544 1.386 . S
C3548 C3543 1.490 . S
C3548 C3550 1.395 . S
C3548 C3551 1.403 . S
H3549 C3555 0.930 . S
C3550 H3536 0.930 . S
C3550 C3548 1.395 . S
C3550 C3553 1.403 . S
C3551 C3548 1.403 . S
C3551 C3552 1.524 . S
C3551 C3555 1.400 . S
C3552 H3537 0.960 . S
C3552 H3538 0.960 . S
C3552 H3539 0.960 . S
C3552 C3551 1.524 . S
C3553 C3550 1.403 . S
C3553 C3554 1.392 . S
C3553 C3557 1.495 . S
C3554 C3553 1.392 . S
C3554 C3555 1.385 . S
C3554 C3556 1.478 . S
C3555 H3549 0.930 . S
C3555 C3551 1.400 . S
C3555 C3554 1.385 . S
C3556 C3554 1.478 . S
C3556 C3558 1.381 . S
C3556 C3562 1.383 . S
C3557 C3553 1.495 . S
C3557 H3563 0.959 . S
C3557 H3564 0.961 . S
C3557 H3565 0.960 . S
C3558 C3556 1.381 . S
C3558 C3559 1.394 . S
C3558 H3566 0.930 . S
C3559 C3558 1.394 . S
C3559 C3560 1.383 . S
C3559 H3567 0.929 . S
C3560 C3559 1.383 . S
C3560 C3561 1.377 . S
C3561 H3545 0.930 . S
C3561 C3560 1.377 . S
C3561 C3562 1.379 . S
C3562 H3546 0.931 . S
C3562 C3556 1.383 . S
C3562 C3561 1.379 . S
H3563 C3557 0.959 . S
H3564 C3557 0.961 . S
H3565 C3557 0.960 . S
H3566 C3558 0.930 . S
H3567 C3559 0.929 . S
H3568 C3576 0.929 . S
H3569 C3578 0.930 . S
H3570 C3580 0.930 . S
H3571 C3583 0.929 . S
H3572 C3586 0.930 . S
H3573 C3588 0.960 . S
H3574 C3588 0.960 . S
H3575 C3588 0.960 . S
C3576 H3568 0.929 . S
C3576 C3577 1.377 . S
C3576 C3578 1.384 . S
C3577 C3576 1.377 . S
C3577 C3583 1.390 . S
C3578 H3569 0.930 . S
C3578 C3576 1.384 . S
C3578 C3579 1.372 . S
C3579 C3578 1.372 . S
C3579 C3580 1.400 . S
C3579 C3584 1.490 . S
C3580 H3570 0.930 . S
C3580 C3579 1.400 . S
C3580 C3583 1.386 . S
H3581 C3597 0.930 . S
H3582 C3598 0.931 . S
C3583 H3571 0.929 . S
C3583 C3577 1.390 . S
C3583 C3580 1.386 . S
C3584 C3579 1.490 . S
C3584 C3586 1.395 . S
C3584 C3587 1.403 . S
H3585 C3591 0.930 . S
C3586 H3572 0.930 . S
C3586 C3584 1.395 . S
C3586 C3589 1.403 . S
C3587 C3584 1.403 . S
C3587 C3588 1.524 . S
C3587 C3591 1.400 . S
C3588 H3573 0.960 . S
C3588 H3574 0.960 . S
C3588 H3575 0.960 . S
C3588 C3587 1.524 . S
C3589 C3586 1.403 . S
C3589 C3590 1.392 . S
C3589 C3593 1.495 . S
C3590 C3589 1.392 . S
C3590 C3591 1.385 . S
C3590 C3592 1.478 . S
C3591 H3585 0.930 . S
C3591 C3587 1.400 . S
C3591 C3590 1.385 . S
C3592 C3590 1.478 . S
C3592 C3594 1.381 . S
C3592 C3598 1.383 . S
C3593 C3589 1.495 . S
C3593 H3599 0.959 . S
C3593 H3600 0.961 . S
C3593 H3601 0.960 . S
C3594 C3592 1.381 . S
C3594 C3595 1.394 . S
C3594 H3602 0.930 . S
C3595 C3594 1.394 . S
C3595 C3596 1.383 . S
C3595 H3603 0.929 . S
C3596 C3595 1.383 . S
C3596 C3597 1.377 . S
C3597 H3581 0.930 . S
C3597 C3596 1.377 . S
C3597 C3598 1.379 . S
C3598 H3582 0.931 . S
C3598 C3592 1.383 . S
C3598 C3597 1.379 . S
H3599 C3593 0.959 . S
H3600 C3593 0.961 . S
H3601 C3593 0.960 . S
H3602 C3594 0.930 . S
H3603 C3595 0.929 . S
H3604 C3612 0.929 . S
H3605 C3614 0.930 . S
H3606 C3616 0.930 . S
H3607 C3619 0.929 . S
H3608 C3622 0.930 . S
H3609 C3624 0.960 . S
H3610 C3624 0.960 . S
H3611 C3624 0.960 . S
C3612 H3604 0.929 . S
C3612 C3613 1.377 . S
C3612 C3614 1.384 . S
C3613 C3612 1.377 . S
C3613 C3619 1.390 . S
C3614 H3605 0.930 . S
C3614 C3612 1.384 . S
C3614 C3615 1.372 . S
C3615 C3614 1.372 . S
C3615 C3616 1.400 . S
C3615 C3620 1.490 . S
C3616 H3606 0.930 . S
C3616 C3615 1.400 . S
C3616 C3619 1.386 . S
H3617 C3633 0.930 . S
H3618 C3634 0.931 . S
C3619 H3607 0.929 . S
C3619 C3613 1.390 . S
C3619 C3616 1.386 . S
C3620 C3615 1.490 . S
C3620 C3622 1.395 . S
C3620 C3623 1.403 . S
H3621 C3627 0.930 . S
C3622 H3608 0.930 . S
C3622 C3620 1.395 . S
C3622 C3625 1.403 . S
C3623 C3620 1.403 . S
C3623 C3624 1.524 . S
C3623 C3627 1.400 . S
C3624 H3609 0.960 . S
C3624 H3610 0.960 . S
C3624 H3611 0.960 . S
C3624 C3623 1.524 . S
C3625 C3622 1.403 . S
C3625 C3626 1.392 . S
C3625 C3629 1.495 . S
C3626 C3625 1.392 . S
C3626 C3627 1.385 . S
C3626 C3628 1.478 . S
C3627 H3621 0.930 . S
C3627 C3623 1.400 . S
C3627 C3626 1.385 . S
C3628 C3626 1.478 . S
C3628 C3630 1.381 . S
C3628 C3634 1.383 . S
C3629 C3625 1.495 . S
C3629 H3635 0.959 . S
C3629 H3636 0.961 . S
C3629 H3637 0.960 . S
C3630 C3628 1.381 . S
C3630 C3631 1.394 . S
C3630 H3638 0.930 . S
C3631 C3630 1.394 . S
C3631 C3632 1.383 . S
C3631 H3639 0.929 . S
C3632 C3631 1.383 . S
C3632 C3633 1.377 . S
C3633 H3617 0.930 . S
C3633 C3632 1.377 . S
C3633 C3634 1.379 . S
C3634 H3618 0.931 . S
C3634 C3628 1.383 . S
C3634 C3633 1.379 . S
H3635 C3629 0.959 . S
H3636 C3629 0.961 . S
H3637 C3629 0.960 . S
H3638 C3630 0.930 . S
H3639 C3631 0.929 . S
H3640 C3648 0.929 . S
H3641 C3650 0.930 . S
H3642 C3652 0.930 . S
H3643 C3655 0.929 . S
H3644 C3658 0.930 . S
H3645 C3660 0.960 . S
H3646 C3660 0.960 . S
H3647 C3660 0.960 . S
C3648 H3640 0.929 . S
C3648 C3649 1.377 . S
C3648 C3650 1.384 . S
C3649 C3648 1.377 . S
C3649 C3655 1.390 . S
C3650 H3641 0.930 . S
C3650 C3648 1.384 . S
C3650 C3651 1.372 . S
C3651 C3650 1.372 . S
C3651 C3652 1.400 . S
C3651 C3656 1.490 . S
C3652 H3642 0.930 . S
C3652 C3651 1.400 . S
C3652 C3655 1.386 . S
H3653 C3669 0.930 . S
H3654 C3670 0.931 . S
C3655 H3643 0.929 . S
C3655 C3649 1.390 . S
C3655 C3652 1.386 . S
C3656 C3651 1.490 . S
C3656 C3658 1.395 . S
C3656 C3659 1.403 . S
H3657 C3663 0.930 . S
C3658 H3644 0.930 . S
C3658 C3656 1.395 . S
C3658 C3661 1.403 . S
C3659 C3656 1.403 . S
C3659 C3660 1.524 . S
C3659 C3663 1.400 . S
C3660 H3645 0.960 . S
C3660 H3646 0.960 . S
C3660 H3647 0.960 . S
C3660 C3659 1.524 . S
C3661 C3658 1.403 . S
C3661 C3662 1.392 . S
C3661 C3665 1.495 . S
C3662 C3661 1.392 . S
C3662 C3663 1.385 . S
C3662 C3664 1.478 . S
C3663 H3657 0.930 . S
C3663 C3659 1.400 . S
C3663 C3662 1.385 . S
C3664 C3662 1.478 . S
C3664 C3666 1.381 . S
C3664 C3670 1.383 . S
C3665 C3661 1.495 . S
C3665 H3671 0.959 . S
C3665 H3672 0.961 . S
C3665 H3673 0.960 . S
C3666 C3664 1.381 . S
C3666 C3667 1.394 . S
C3666 H3674 0.930 . S
C3667 C3666 1.394 . S
C3667 C3668 1.383 . S
C3667 H3675 0.929 . S
C3668 C3667 1.383 . S
C3668 C3669 1.377 . S
C3669 H3653 0.930 . S
C3669 C3668 1.377 . S
C3669 C3670 1.379 . S
C3670 H3654 0.931 . S
C3670 C3664 1.383 . S
C3670 C3669 1.379 . S
H3671 C3665 0.959 . S
H3672 C3665 0.961 . S
H3673 C3665 0.960 . S
H3674 C3666 0.930 . S
H3675 C3667 0.929 . S
H3676 C3684 0.929 . S
H3677 C3686 0.930 . S
H3678 C3688 0.930 . S
H3679 C3691 0.929 . S
H3680 C3694 0.930 . S
H3681 C3696 0.960 . S
H3682 C3696 0.960 . S
H3683 C3696 0.960 . S
C3684 H3676 0.929 . S
C3684 C3685 1.377 . S
C3684 C3686 1.384 . S
C3685 C3684 1.377 . S
C3685 C3691 1.390 . S
C3686 H3677 0.930 . S
C3686 C3684 1.384 . S
C3686 C3687 1.372 . S
C3687 C3686 1.372 . S
C3687 C3688 1.400 . S
C3687 C3692 1.490 . S
C3688 H3678 0.930 . S
C3688 C3687 1.400 . S
C3688 C3691 1.386 . S
H3689 C3705 0.930 . S
H3690 C3706 0.931 . S
C3691 H3679 0.929 . S
C3691 C3685 1.390 . S
C3691 C3688 1.386 . S
C3692 C3687 1.490 . S
C3692 C3694 1.395 . S
C3692 C3695 1.403 . S
H3693 C3699 0.930 . S
C3694 H3680 0.930 . S
C3694 C3692 1.395 . S
C3694 C3697 1.403 . S
C3695 C3692 1.403 . S
C3695 C3696 1.524 . S
C3695 C3699 1.400 . S
C3696 H3681 0.960 . S
C3696 H3682 0.960 . S
C3696 H3683 0.960 . S
C3696 C3695 1.524 . S
C3697 C3694 1.403 . S
C3697 C3698 1.392 . S
C3697 C3701 1.495 . S
C3698 C3697 1.392 . S
C3698 C3699 1.385 . S
C3698 C3700 1.478 . S
C3699 H3693 0.930 . S
C3699 C3695 1.400 . S
C3699 C3698 1.385 . S
C3700 C3698 1.478 . S
C3700 C3702 1.381 . S
C3700 C3706 1.383 . S
C3701 C3697 1.495 . S
C3701 H3707 0.959 . S
C3701 H3708 0.961 . S
C3701 H3709 0.960 . S
C3702 C3700 1.381 . S
C3702 C3703 1.394 . S
C3702 H3710 0.930 . S
C3703 C3702 1.394 . S
C3703 C3704 1.383 . S
C3703 H3711 0.929 . S
C3704 C3703 1.383 . S
C3704 C3705 1.377 . S
C3705 H3689 0.930 . S
C3705 C3704 1.377 . S
C3705 C3706 1.379 . S
C3706 H3690 0.931 . S
C3706 C3700 1.383 . S
C3706 C3705 1.379 . S
H3707 C3701 0.959 . S
H3708 C3701 0.961 . S
H3709 C3701 0.960 . S
H3710 C3702 0.930 . S
H3711 C3703 0.929 . S
H3712 C3720 0.929 . S
H3713 C3722 0.930 . S
H3714 C3724 0.930 . S
H3715 C3727 0.929 . S
H3716 C3730 0.930 . S
H3717 C3732 0.960 . S
H3718 C3732 0.960 . S
H3719 C3732 0.960 . S
C3720 H3712 0.929 . S
C3720 C3721 1.377 . S
C3720 C3722 1.384 . S
C3721 C3720 1.377 . S
C3721 C3727 1.390 . S
C3722 H3713 0.930 . S
C3722 C3720 1.384 . S
C3722 C3723 1.372 . S
C3723 C3722 1.372 . S
C3723 C3724 1.400 . S
C3723 C3728 1.490 . S
C3724 H3714 0.930 . S
C3724 C3723 1.400 . S
C3724 C3727 1.386 . S
H3725 C3741 0.930 . S
H3726 C3742 0.931 . S
C3727 H3715 0.929 . S
C3727 C3721 1.390 . S
C3727 C3724 1.386 . S
C3728 C3723 1.490 . S
C3728 C3730 1.395 . S
C3728 C3731 1.403 . S
H3729 C3735 0.930 . S
C3730 H3716 0.930 . S
C3730 C3728 1.395 . S
C3730 C3733 1.403 . S
C3731 C3728 1.403 . S
C3731 C3732 1.524 . S
C3731 C3735 1.400 . S
C3732 H3717 0.960 . S
C3732 H3718 0.960 . S
C3732 H3719 0.960 . S
C3732 C3731 1.524 . S
C3733 C3730 1.403 . S
C3733 C3734 1.392 . S
C3733 C3737 1.495 . S
C3734 C3733 1.392 . S
C3734 C3735 1.385 . S
C3734 C3736 1.478 . S
C3735 H3729 0.930 . S
C3735 C3731 1.400 . S
C3735 C3734 1.385 . S
C3736 C3734 1.478 . S
C3736 C3738 1.381 . S
C3736 C3742 1.383 . S
C3737 C3733 1.495 . S
C3737 H3743 0.959 . S
C3737 H3744 0.961 . S
C3737 H3745 0.960 . S
C3738 C3736 1.381 . S
C3738 C3739 1.394 . S
C3738 H3746 0.930 . S
C3739 C3738 1.394 . S
C3739 C3740 1.383 . S
C3739 H3747 0.929 . S
C3740 C3739 1.383 . S
C3740 C3741 1.377 . S
C3741 H3725 0.930 . S
C3741 C3740 1.377 . S
C3741 C3742 1.379 . S
C3742 H3726 0.931 . S
C3742 C3736 1.383 . S
C3742 C3741 1.379 . S
H3743 C3737 0.959 . S
H3744 C3737 0.961 . S
H3745 C3737 0.960 . S
H3746 C3738 0.930 . S
H3747 C3739 0.929 . S
H3748 C3756 0.929 . S
H3749 C3758 0.930 . S
H3750 C3760 0.930 . S
H3751 C3763 0.929 . S
H3752 C3766 0.930 . S
H3753 C3768 0.960 . S
H3754 C3768 0.960 . S
H3755 C3768 0.960 . S
C3756 H3748 0.929 . S
C3756 C3757 1.377 . S
C3756 C3758 1.384 . S
C3757 C3756 1.377 . S
C3757 C3763 1.390 . S
C3758 H3749 0.930 . S
C3758 C3756 1.384 . S
C3758 C3759 1.372 . S
C3759 C3758 1.372 . S
C3759 C3760 1.400 . S
C3759 C3764 1.490 . S
C3760 H3750 0.930 . S
C3760 C3759 1.400 . S
C3760 C3763 1.386 . S
H3761 C3777 0.930 . S
H3762 C3778 0.931 . S
C3763 H3751 0.929 . S
C3763 C3757 1.390 . S
C3763 C3760 1.386 . S
C3764 C3759 1.490 . S
C3764 C3766 1.395 . S
C3764 C3767 1.403 . S
H3765 C3771 0.930 . S
C3766 H3752 0.930 . S
C3766 C3764 1.395 . S
C3766 C3769 1.403 . S
C3767 C3764 1.403 . S
C3767 C3768 1.524 . S
C3767 C3771 1.400 . S
C3768 H3753 0.960 . S
C3768 H3754 0.960 . S
C3768 H3755 0.960 . S
C3768 C3767 1.524 . S
C3769 C3766 1.403 . S
C3769 C3770 1.392 . S
C3769 C3773 1.495 . S
C3770 C3769 1.392 . S
C3770 C3771 1.385 . S
C3770 C3772 1.478 . S
C3771 H3765 0.930 . S
C3771 C3767 1.400 . S
C3771 C3770 1.385 . S
C3772 C3770 1.478 . S
C3772 C3774 1.381 . S
C3772 C3778 1.383 . S
C3773 C3769 1.495 . S
C3773 H3779 0.959 . S
C3773 H3780 0.961 . S
C3773 H3781 0.960 . S
C3774 C3772 1.381 . S
C3774 C3775 1.394 . S
C3774 H3782 0.930 . S
C3775 C3774 1.394 . S
C3775 C3776 1.383 . S
C3775 H3783 0.929 . S
C3776 C3775 1.383 . S
C3776 C3777 1.377 . S
C3777 H3761 0.930 . S
C3777 C3776 1.377 . S
C3777 C3778 1.379 . S
C3778 H3762 0.931 . S
C3778 C3772 1.383 . S
C3778 C3777 1.379 . S
H3779 C3773 0.959 . S
H3780 C3773 0.961 . S
H3781 C3773 0.960 . S
H3782 C3774 0.930 . S
H3783 C3775 0.929 . S
H3784 C3792 0.929 . S
H3785 C3794 0.930 . S
H3786 C3796 0.930 . S
H3787 C3799 0.929 . S
H3788 C3802 0.930 . S
H3789 C3804 0.960 . S
H3790 C3804 0.960 . S
H3791 C3804 0.960 . S
C3792 H3784 0.929 . S
C3792 C3793 1.377 . S
C3792 C3794 1.384 . S
C3793 C3792 1.377 . S
C3793 C3799 1.390 . S
C3794 H3785 0.930 . S
C3794 C3792 1.384 . S
C3794 C3795 1.372 . S
C3795 C3794 1.372 . S
C3795 C3796 1.400 . S
C3795 C3800 1.490 . S
C3796 H3786 0.930 . S
C3796 C3795 1.400 . S
C3796 C3799 1.386 . S
H3797 C3813 0.930 . S
H3798 C3814 0.931 . S
C3799 H3787 0.929 . S
C3799 C3793 1.390 . S
C3799 C3796 1.386 . S
C3800 C3795 1.490 . S
C3800 C3802 1.395 . S
C3800 C3803 1.403 . S
H3801 C3807 0.930 . S
C3802 H3788 0.930 . S
C3802 C3800 1.395 . S
C3802 C3805 1.403 . S
C3803 C3800 1.403 . S
C3803 C3804 1.524 . S
C3803 C3807 1.400 . S
C3804 H3789 0.960 . S
C3804 H3790 0.960 . S
C3804 H3791 0.960 . S
C3804 C3803 1.524 . S
C3805 C3802 1.403 . S
C3805 C3806 1.392 . S
C3805 C3809 1.495 . S
C3806 C3805 1.392 . S
C3806 C3807 1.385 . S
C3806 C3808 1.478 . S
C3807 H3801 0.930 . S
C3807 C3803 1.400 . S
C3807 C3806 1.385 . S
C3808 C3806 1.478 . S
C3808 C3810 1.381 . S
C3808 C3814 1.383 . S
C3809 C3805 1.495 . S
C3809 H3815 0.959 . S
C3809 H3816 0.961 . S
C3809 H3817 0.960 . S
C3810 C3808 1.381 . S
C3810 C3811 1.394 . S
C3810 H3818 0.930 . S
C3811 C3810 1.394 . S
C3811 C3812 1.383 . S
C3811 H3819 0.929 . S
C3812 C3811 1.383 . S
C3812 C3813 1.377 . S
C3813 H3797 0.930 . S
C3813 C3812 1.377 . S
C3813 C3814 1.379 . S
C3814 H3798 0.931 . S
C3814 C3808 1.383 . S
C3814 C3813 1.379 . S
H3815 C3809 0.959 . S
H3816 C3809 0.961 . S
H3817 C3809 0.960 . S
H3818 C3810 0.930 . S
H3819 C3811 0.929 . S
H3820 C3828 0.929 . S
H3821 C3830 0.930 . S
H3822 C3832 0.930 . S
H3823 C3835 0.929 . S
H3824 C3838 0.930 . S
H3825 C3840 0.960 . S
H3826 C3840 0.960 . S
H3827 C3840 0.960 . S
C3828 H3820 0.929 . S
C3828 C3829 1.377 . S
C3828 C3830 1.384 . S
C3829 C3828 1.377 . S
C3829 C3835 1.390 . S
C3830 H3821 0.930 . S
C3830 C3828 1.384 . S
C3830 C3831 1.372 . S
C3831 C3830 1.372 . S
C3831 C3832 1.400 . S
C3831 C3836 1.490 . S
C3832 H3822 0.930 . S
C3832 C3831 1.400 . S
C3832 C3835 1.386 . S
H3833 C3849 0.930 . S
H3834 C3850 0.931 . S
C3835 H3823 0.929 . S
C3835 C3829 1.390 . S
C3835 C3832 1.386 . S
C3836 C3831 1.490 . S
C3836 C3838 1.395 . S
C3836 C3839 1.403 . S
H3837 C3843 0.930 . S
C3838 H3824 0.930 . S
C3838 C3836 1.395 . S
C3838 C3841 1.403 . S
C3839 C3836 1.403 . S
C3839 C3840 1.524 . S
C3839 C3843 1.400 . S
C3840 H3825 0.960 . S
C3840 H3826 0.960 . S
C3840 H3827 0.960 . S
C3840 C3839 1.524 . S
C3841 C3838 1.403 . S
C3841 C3842 1.392 . S
C3841 C3845 1.495 . S
C3842 C3841 1.392 . S
C3842 C3843 1.385 . S
C3842 C3844 1.478 . S
C3843 H3837 0.930 . S
C3843 C3839 1.400 . S
C3843 C3842 1.385 . S
C3844 C3842 1.478 . S
C3844 C3846 1.381 . S
C3844 C3850 1.383 . S
C3845 C3841 1.495 . S
C3845 H3851 0.959 . S
C3845 H3852 0.961 . S
C3845 H3853 0.960 . S
C3846 C3844 1.381 . S
C3846 C3847 1.394 . S
C3846 H3854 0.930 . S
C3847 C3846 1.394 . S
C3847 C3848 1.383 . S
C3847 H3855 0.929 . S
C3848 C3847 1.383 . S
C3848 C3849 1.377 . S
C3849 H3833 0.930 . S
C3849 C3848 1.377 . S
C3849 C3850 1.379 . S
C3850 H3834 0.931 . S
C3850 C3844 1.383 . S
C3850 C3849 1.379 . S
H3851 C3845 0.959 . S
H3852 C3845 0.961 . S
H3853 C3845 0.960 . S
H3854 C3846 0.930 . S
H3855 C3847 0.929 . S
H3856 C3864 0.929 . S
H3857 C3866 0.930 . S
H3858 C3868 0.930 . S
H3859 C3871 0.929 . S
H3860 C3874 0.930 . S
H3861 C3876 0.960 . S
H3862 C3876 0.960 . S
H3863 C3876 0.960 . S
C3864 H3856 0.929 . S
C3864 C3865 1.377 . S
C3864 C3866 1.384 . S
C3865 C3864 1.377 . S
C3865 C3871 1.390 . S
C3866 H3857 0.930 . S
C3866 C3864 1.384 . S
C3866 C3867 1.372 . S
C3867 C3866 1.372 . S
C3867 C3868 1.400 . S
C3867 C3872 1.490 . S
C3868 H3858 0.930 . S
C3868 C3867 1.400 . S
C3868 C3871 1.386 . S
H3869 C3885 0.930 . S
H3870 C3886 0.931 . S
C3871 H3859 0.929 . S
C3871 C3865 1.390 . S
C3871 C3868 1.386 . S
C3872 C3867 1.490 . S
C3872 C3874 1.395 . S
C3872 C3875 1.403 . S
H3873 C3879 0.930 . S
C3874 H3860 0.930 . S
C3874 C3872 1.395 . S
C3874 C3877 1.403 . S
C3875 C3872 1.403 . S
C3875 C3876 1.524 . S
C3875 C3879 1.400 . S
C3876 H3861 0.960 . S
C3876 H3862 0.960 . S
C3876 H3863 0.960 . S
C3876 C3875 1.524 . S
C3877 C3874 1.403 . S
C3877 C3878 1.392 . S
C3877 C3881 1.495 . S
C3878 C3877 1.392 . S
C3878 C3879 1.385 . S
C3878 C3880 1.478 . S
C3879 H3873 0.930 . S
C3879 C3875 1.400 . S
C3879 C3878 1.385 . S
C3880 C3878 1.478 . S
C3880 C3882 1.381 . S
C3880 C3886 1.383 . S
C3881 C3877 1.495 . S
C3881 H3887 0.959 . S
C3881 H3888 0.961 . S
C3881 H3889 0.960 . S
C3882 C3880 1.381 . S
C3882 C3883 1.394 . S
C3882 H3890 0.930 . S
C3883 C3882 1.394 . S
C3883 C3884 1.383 . S
C3883 H3891 0.929 . S
C3884 C3883 1.383 . S
C3884 C3885 1.377 . S
C3885 H3869 0.930 . S
C3885 C3884 1.377 . S
C3885 C3886 1.379 . S
C3886 H3870 0.931 . S
C3886 C3880 1.383 . S
C3886 C3885 1.379 . S
H3887 C3881 0.959 . S
H3888 C3881 0.961 . S
H3889 C3881 0.960 . S
H3890 C3882 0.930 . S
H3891 C3883 0.929 . S
H3892 C3900 0.929 . S
H3893 C3902 0.930 . S
H3894 C3904 0.930 . S
H3895 C3907 0.929 . S
H3896 C3910 0.930 . S
H3897 C3912 0.960 . S
H3898 C3912 0.960 . S
H3899 C3912 0.960 . S
C3900 H3892 0.929 . S
C3900 C3901 1.377 . S
C3900 C3902 1.384 . S
C3901 C3900 1.377 . S
C3901 C3907 1.390 . S
C3902 H3893 0.930 . S
C3902 C3900 1.384 . S
C3902 C3903 1.372 . S
C3903 C3902 1.372 . S
C3903 C3904 1.400 . S
C3903 C3908 1.490 . S
C3904 H3894 0.930 . S
C3904 C3903 1.400 . S
C3904 C3907 1.386 . S
H3905 C3921 0.930 . S
H3906 C3922 0.931 . S
C3907 H3895 0.929 . S
C3907 C3901 1.390 . S
C3907 C3904 1.386 . S
C3908 C3903 1.490 . S
C3908 C3910 1.395 . S
C3908 C3911 1.403 . S
H3909 C3915 0.930 . S
C3910 H3896 0.930 . S
C3910 C3908 1.395 . S
C3910 C3913 1.403 . S
C3911 C3908 1.403 . S
C3911 C3912 1.524 . S
C3911 C3915 1.400 . S
C3912 H3897 0.960 . S
C3912 H3898 0.960 . S
C3912 H3899 0.960 . S
C3912 C3911 1.524 . S
C3913 C3910 1.403 . S
C3913 C3914 1.392 . S
C3913 C3917 1.495 . S
C3914 C3913 1.392 . S
C3914 C3915 1.385 . S
C3914 C3916 1.478 . S
C3915 H3909 0.930 . S
C3915 C3911 1.400 . S
C3915 C3914 1.385 . S
C3916 C3914 1.478 . S
C3916 C3918 1.381 . S
C3916 C3922 1.383 . S
C3917 C3913 1.495 . S
C3917 H3923 0.959 . S
C3917 H3924 0.961 . S
C3917 H3925 0.960 . S
C3918 C3916 1.381 . S
C3918 C3919 1.394 . S
C3918 H3926 0.930 . S
C3919 C3918 1.394 . S
C3919 C3920 1.383 . S
C3919 H3927 0.929 . S
C3920 C3919 1.383 . S
C3920 C3921 1.377 . S
C3921 H3905 0.930 . S
C3921 C3920 1.377 . S
C3921 C3922 1.379 . S
C3922 H3906 0.931 . S
C3922 C3916 1.383 . S
C3922 C3921 1.379 . S
H3923 C3917 0.959 . S
H3924 C3917 0.961 . S
H3925 C3917 0.960 . S
H3926 C3918 0.930 . S
H3927 C3919 0.929 . S
H3928 C3936 0.929 . S
H3929 C3938 0.930 . S
H3930 C3940 0.930 . S
H3931 C3943 0.929 . S
H3932 C3946 0.930 . S
H3933 C3948 0.960 . S
H3934 C3948 0.960 . S
H3935 C3948 0.960 . S
C3936 H3928 0.929 . S
C3936 C3937 1.377 . S
C3936 C3938 1.384 . S
C3937 C3936 1.377 . S
C3937 C3943 1.390 . S
C3938 H3929 0.930 . S
C3938 C3936 1.384 . S
C3938 C3939 1.372 . S
C3939 C3938 1.372 . S
C3939 C3940 1.400 . S
C3939 C3944 1.490 . S
C3940 H3930 0.930 . S
C3940 C3939 1.400 . S
C3940 C3943 1.386 . S
H3941 C3957 0.930 . S
H3942 C3958 0.931 . S
C3943 H3931 0.929 . S
C3943 C3937 1.390 . S
C3943 C3940 1.386 . S
C3944 C3939 1.490 . S
C3944 C3946 1.395 . S
C3944 C3947 1.403 . S
H3945 C3951 0.930 . S
C3946 H3932 0.930 . S
C3946 C3944 1.395 . S
C3946 C3949 1.403 . S
C3947 C3944 1.403 . S
C3947 C3948 1.524 . S
C3947 C3951 1.400 . S
C3948 H3933 0.960 . S
C3948 H3934 0.960 . S
C3948 H3935 0.960 . S
C3948 C3947 1.524 . S
C3949 C3946 1.403 . S
C3949 C3950 1.392 . S
C3949 C3953 1.495 . S
C3950 C3949 1.392 . S
C3950 C3951 1.385 . S
C3950 C3952 1.478 . S
C3951 H3945 0.930 . S
C3951 C3947 1.400 . S
C3951 C3950 1.385 . S
C3952 C3950 1.478 . S
C3952 C3954 1.381 . S
C3952 C3958 1.383 . S
C3953 C3949 1.495 . S
C3953 H3959 0.959 . S
C3953 H3960 0.965 . S
C3953 H3961 0.960 . S
C3954 C3952 1.381 . S
C3954 C3955 1.394 . S
C3954 H3962 0.930 . S
C3955 C3954 1.394 . S
C3955 C3956 1.383 1_655 S
C3955 H3963 0.929 . S
C3956 C3955 1.383 1_455 S
C3956 C3957 1.377 . S
C3957 H3941 0.930 . S
C3957 C3956 1.377 . S
C3957 C3958 1.379 1_455 S
C3958 H3942 0.931 . S
C3958 C3952 1.383 . S
C3958 C3957 1.379 1_655 S
H3959 C3953 0.959 . S
H3960 C3953 0.965 . S
H3961 C3953 0.960 . S
H3962 C3954 0.930 . S
H3963 C3955 0.929 . S
H3964 C3972 0.929 . S
H3965 C3974 0.930 . S
H3966 C3976 0.930 . S
H3967 C3979 0.929 . S
H3968 C3982 0.930 . S
H3969 C3984 0.960 . S
H3970 C3984 0.960 . S
H3971 C3984 0.960 . S
C3972 H3964 0.929 . S
C3972 C3973 1.377 . S
C3972 C3974 1.384 . S
C3973 C3972 1.377 . S
C3973 C3979 1.390 . S
C3974 H3965 0.930 . S
C3974 C3972 1.384 . S
C3974 C3975 1.372 . S
C3975 C3974 1.372 . S
C3975 C3976 1.400 . S
C3975 C3980 1.490 . S
C3976 H3966 0.930 . S
C3976 C3975 1.400 . S
C3976 C3979 1.386 . S
H3977 C3993 0.930 . S
H3978 C3994 0.931 . S
C3979 H3967 0.929 . S
C3979 C3973 1.390 . S
C3979 C3976 1.386 . S
C3980 C3975 1.490 . S
C3980 C3982 1.395 . S
C3980 C3983 1.403 . S
H3981 C3987 0.930 . S
C3982 H3968 0.930 . S
C3982 C3980 1.395 . S
C3982 C3985 1.403 . S
C3983 C3980 1.403 . S
C3983 C3984 1.524 . S
C3983 C3987 1.400 . S
C3984 H3969 0.960 . S
C3984 H3970 0.960 . S
C3984 H3971 0.960 . S
C3984 C3983 1.524 . S
C3985 C3982 1.403 . S
C3985 C3986 1.392 . S
C3985 C3989 1.495 . S
C3986 C3985 1.392 . S
C3986 C3987 1.385 . S
C3986 C3988 1.478 . S
C3987 H3981 0.930 . S
C3987 C3983 1.400 . S
C3987 C3986 1.385 . S
C3988 C3986 1.478 . S
C3988 C3990 1.381 . S
C3988 C3994 1.383 . S
C3989 C3985 1.495 . S
C3989 H3995 0.959 . S
C3989 H3996 0.961 . S
C3989 H3997 0.960 . S
C3990 C3988 1.381 . S
C3990 C3991 1.394 . S
C3990 H3998 0.930 . S
C3991 C3990 1.394 . S
C3991 C3992 1.383 . S
C3991 H3999 0.929 . S
C3992 C3991 1.383 . S
C3992 C3993 1.377 . S
C3993 H3977 0.930 . S
C3993 C3992 1.377 . S
C3993 C3994 1.379 . S
C3994 H3978 0.931 . S
C3994 C3988 1.383 . S
C3994 C3993 1.379 . S
H3995 C3989 0.959 . S
H3996 C3989 0.961 . S
H3997 C3989 0.960 . S
H3998 C3990 0.930 . S
H3999 C3991 0.929 . S
H4000 C4008 0.929 . S
H4001 C4010 0.930 . S
H4002 C4012 0.930 . S
H4003 C4015 0.929 . S
H4004 C4018 0.930 . S
H4005 C4020 0.960 . S
H4006 C4020 0.960 . S
H4007 C4020 0.960 . S
C4008 H4000 0.929 . S
C4008 C4009 1.377 . S
C4008 C4010 1.384 . S
C4009 C4008 1.377 . S
C4009 C4015 1.390 . S
C4010 H4001 0.930 . S
C4010 C4008 1.384 . S
C4010 C4011 1.372 . S
C4011 C4010 1.372 . S
C4011 C4012 1.400 . S
C4011 C4016 1.490 . S
C4012 H4002 0.930 . S
C4012 C4011 1.400 . S
C4012 C4015 1.386 . S
H4013 C4029 0.930 . S
H4014 C4030 0.931 . S
C4015 H4003 0.929 . S
C4015 C4009 1.390 . S
C4015 C4012 1.386 . S
C4016 C4011 1.490 . S
C4016 C4018 1.395 . S
C4016 C4019 1.403 . S
H4017 C4023 0.930 . S
C4018 H4004 0.930 . S
C4018 C4016 1.395 . S
C4018 C4021 1.403 . S
C4019 C4016 1.403 . S
C4019 C4020 1.524 . S
C4019 C4023 1.400 . S
C4020 H4005 0.960 . S
C4020 H4006 0.960 . S
C4020 H4007 0.960 . S
C4020 C4019 1.524 . S
C4021 C4018 1.403 . S
C4021 C4022 1.392 . S
C4021 C4025 1.495 . S
C4022 C4021 1.392 . S
C4022 C4023 1.385 . S
C4022 C4024 1.478 . S
C4023 H4017 0.930 . S
C4023 C4019 1.400 . S
C4023 C4022 1.385 . S
C4024 C4022 1.478 . S
C4024 C4026 1.381 . S
C4024 C4030 1.383 . S
C4025 C4021 1.495 . S
C4025 H4031 0.959 . S
C4025 H4032 0.961 . S
C4025 H4033 0.960 . S
C4026 C4024 1.381 . S
C4026 C4027 1.394 . S
C4026 H4034 0.930 . S
C4027 C4026 1.394 . S
C4027 C4028 1.383 . S
C4027 H4035 0.929 . S
C4028 C4027 1.383 . S
C4028 C4029 1.377 . S
C4029 H4013 0.930 . S
C4029 C4028 1.377 . S
C4029 C4030 1.379 . S
C4030 H4014 0.931 . S
C4030 C4024 1.383 . S
C4030 C4029 1.379 . S
H4031 C4025 0.959 . S
H4032 C4025 0.961 . S
H4033 C4025 0.960 . S
H4034 C4026 0.930 . S
H4035 C4027 0.929 . S
H4036 C4044 0.929 . S
H4037 C4046 0.930 . S
H4038 C4048 0.930 . S
H4039 C4051 0.929 . S
H4040 C4054 0.930 . S
H4041 C4056 0.960 . S
H4042 C4056 0.960 . S
H4043 C4056 0.960 . S
C4044 H4036 0.929 . S
C4044 C4045 1.377 . S
C4044 C4046 1.384 . S
C4045 C4044 1.377 . S
C4045 C4051 1.390 . S
C4046 H4037 0.930 . S
C4046 C4044 1.384 . S
C4046 C4047 1.372 . S
C4047 C4046 1.372 . S
C4047 C4048 1.400 . S
C4047 C4052 1.490 . S
C4048 H4038 0.930 . S
C4048 C4047 1.400 . S
C4048 C4051 1.386 . S
H4049 C4065 0.930 . S
H4050 C4066 0.931 . S
C4051 H4039 0.929 . S
C4051 C4045 1.390 . S
C4051 C4048 1.386 . S
C4052 C4047 1.490 . S
C4052 C4054 1.395 . S
C4052 C4055 1.403 . S
H4053 C4059 0.930 . S
C4054 H4040 0.930 . S
C4054 C4052 1.395 . S
C4054 C4057 1.403 . S
C4055 C4052 1.403 . S
C4055 C4056 1.524 . S
C4055 C4059 1.400 . S
C4056 H4041 0.960 . S
C4056 H4042 0.960 . S
C4056 H4043 0.960 . S
C4056 C4055 1.524 . S
C4057 C4054 1.403 . S
C4057 C4058 1.392 . S
C4057 C4061 1.495 . S
C4058 C4057 1.392 . S
C4058 C4059 1.385 . S
C4058 C4060 1.478 . S
C4059 H4053 0.930 . S
C4059 C4055 1.400 . S
C4059 C4058 1.385 . S
C4060 C4058 1.478 . S
C4060 C4062 1.381 . S
C4060 C4066 1.383 . S
C4061 C4057 1.495 . S
C4061 H4067 0.959 . S
C4061 H4068 0.961 . S
C4061 H4069 0.960 . S
C4062 C4060 1.381 . S
C4062 C4063 1.394 . S
C4062 H4070 0.930 . S
C4063 C4062 1.394 . S
C4063 C4064 1.383 . S
C4063 H4071 0.929 . S
C4064 C4063 1.383 . S
C4064 C4065 1.377 . S
C4065 H4049 0.930 . S
C4065 C4064 1.377 . S
C4065 C4066 1.379 . S
C4066 H4050 0.931 . S
C4066 C4060 1.383 . S
C4066 C4065 1.379 . S
H4067 C4061 0.959 . S
H4068 C4061 0.961 . S
H4069 C4061 0.960 . S
H4070 C4062 0.930 . S
H4071 C4063 0.929 . S
H4072 C4080 0.929 . S
H4073 C4082 0.930 . S
H4074 C4084 0.930 . S
H4075 C4087 0.929 . S
H4076 C4090 0.930 . S
H4077 C4092 0.960 . S
H4078 C4092 0.960 . S
H4079 C4092 0.960 . S
C4080 H4072 0.929 . S
C4080 C4081 1.377 . S
C4080 C4082 1.384 . S
C4081 C4080 1.377 . S
C4081 C4087 1.390 . S
C4082 H4073 0.930 . S
C4082 C4080 1.384 . S
C4082 C4083 1.372 . S
C4083 C4082 1.372 . S
C4083 C4084 1.400 . S
C4083 C4088 1.490 . S
C4084 H4074 0.930 . S
C4084 C4083 1.400 . S
C4084 C4087 1.386 . S
H4085 C4101 0.930 . S
H4086 C4102 0.931 . S
C4087 H4075 0.929 . S
C4087 C4081 1.390 . S
C4087 C4084 1.386 . S
C4088 C4083 1.490 . S
C4088 C4090 1.395 . S
C4088 C4091 1.403 . S
H4089 C4095 0.930 . S
C4090 H4076 0.930 . S
C4090 C4088 1.395 . S
C4090 C4093 1.403 . S
C4091 C4088 1.403 . S
C4091 C4092 1.524 . S
C4091 C4095 1.400 . S
C4092 H4077 0.960 . S
C4092 H4078 0.960 . S
C4092 H4079 0.960 . S
C4092 C4091 1.524 . S
C4093 C4090 1.403 . S
C4093 C4094 1.392 . S
C4093 C4097 1.495 . S
C4094 C4093 1.392 . S
C4094 C4095 1.385 . S
C4094 C4096 1.478 . S
C4095 H4089 0.930 . S
C4095 C4091 1.400 . S
C4095 C4094 1.385 . S
C4096 C4094 1.478 . S
C4096 C4098 1.381 . S
C4096 C4102 1.383 . S
C4097 C4093 1.495 . S
C4097 H4103 0.959 . S
C4097 H4104 0.961 . S
C4097 H4105 0.960 . S
C4098 C4096 1.381 . S
C4098 C4099 1.394 . S
C4098 H4106 0.930 . S
C4099 C4098 1.394 . S
C4099 C4100 1.383 . S
C4099 H4107 0.929 . S
C4100 C4099 1.383 . S
C4100 C4101 1.377 . S
C4101 H4085 0.930 . S
C4101 C4100 1.377 . S
C4101 C4102 1.379 . S
C4102 H4086 0.931 . S
C4102 C4096 1.383 . S
C4102 C4101 1.379 . S
H4103 C4097 0.959 . S
H4104 C4097 0.961 . S
H4105 C4097 0.960 . S
H4106 C4098 0.930 . S
H4107 C4099 0.929 . S
H4108 C4116 0.929 . S
H4109 C4118 0.930 . S
H4110 C4120 0.930 . S
H4111 C4123 0.929 . S
H4112 C4126 0.930 . S
H4113 C4128 0.960 . S
H4114 C4128 0.960 . S
H4115 C4128 0.960 . S
C4116 H4108 0.929 . S
C4116 C4117 1.377 . S
C4116 C4118 1.384 . S
C4117 C4116 1.377 . S
C4117 C4123 1.390 . S
C4118 H4109 0.930 . S
C4118 C4116 1.384 . S
C4118 C4119 1.372 . S
C4119 C4118 1.372 . S
C4119 C4120 1.400 . S
C4119 C4124 1.490 . S
C4120 H4110 0.930 . S
C4120 C4119 1.400 . S
C4120 C4123 1.386 . S
H4121 C4137 0.930 . S
H4122 C4138 0.931 . S
C4123 H4111 0.929 . S
C4123 C4117 1.390 . S
C4123 C4120 1.386 . S
C4124 C4119 1.490 . S
C4124 C4126 1.395 . S
C4124 C4127 1.403 . S
H4125 C4131 0.930 . S
C4126 H4112 0.930 . S
C4126 C4124 1.395 . S
C4126 C4129 1.403 . S
C4127 C4124 1.403 . S
C4127 C4128 1.524 . S
C4127 C4131 1.400 . S
C4128 H4113 0.960 . S
C4128 H4114 0.960 . S
C4128 H4115 0.960 . S
C4128 C4127 1.524 . S
C4129 C4126 1.403 . S
C4129 C4130 1.392 . S
C4129 C4133 1.495 . S
C4130 C4129 1.392 . S
C4130 C4131 1.385 . S
C4130 C4132 1.478 . S
C4131 H4125 0.930 . S
C4131 C4127 1.400 . S
C4131 C4130 1.385 . S
C4132 C4130 1.478 . S
C4132 C4134 1.381 . S
C4132 C4138 1.383 . S
C4133 C4129 1.495 . S
C4133 H4139 0.959 . S
C4133 H4140 0.961 . S
C4133 H4141 0.960 . S
C4134 C4132 1.381 . S
C4134 C4135 1.394 . S
C4134 H4142 0.930 . S
C4135 C4134 1.394 . S
C4135 C4136 1.383 . S
C4135 H4143 0.929 . S
C4136 C4135 1.383 . S
C4136 C4137 1.377 . S
C4137 H4121 0.930 . S
C4137 C4136 1.377 . S
C4137 C4138 1.379 . S
C4138 H4122 0.931 . S
C4138 C4132 1.383 . S
C4138 C4137 1.379 . S
H4139 C4133 0.959 . S
H4140 C4133 0.961 . S
H4141 C4133 0.960 . S
H4142 C4134 0.930 . S
H4143 C4135 0.929 . S
H4144 C4152 0.929 . S
H4145 C4154 0.930 . S
H4146 C4156 0.930 . S
H4147 C4159 0.929 . S
H4148 C4162 0.930 . S
H4149 C4164 0.960 . S
H4150 C4164 0.960 . S
H4151 C4164 0.960 . S
C4152 H4144 0.929 . S
C4152 C4153 1.377 . S
C4152 C4154 1.384 . S
C4153 C4152 1.377 . S
C4153 C4159 1.390 . S
C4154 H4145 0.930 . S
C4154 C4152 1.384 . S
C4154 C4155 1.372 . S
C4155 C4154 1.372 . S
C4155 C4156 1.400 . S
C4155 C4160 1.490 . S
C4156 H4146 0.930 . S
C4156 C4155 1.400 . S
C4156 C4159 1.386 . S
H4157 C4173 0.930 . S
H4158 C4174 0.931 . S
C4159 H4147 0.929 . S
C4159 C4153 1.390 . S
C4159 C4156 1.386 . S
C4160 C4155 1.490 . S
C4160 C4162 1.395 . S
C4160 C4163 1.403 . S
H4161 C4167 0.930 . S
C4162 H4148 0.930 . S
C4162 C4160 1.395 . S
C4162 C4165 1.403 . S
C4163 C4160 1.403 . S
C4163 C4164 1.524 . S
C4163 C4167 1.400 . S
C4164 H4149 0.960 . S
C4164 H4150 0.960 . S
C4164 H4151 0.960 . S
C4164 C4163 1.524 . S
C4165 C4162 1.403 . S
C4165 C4166 1.392 . S
C4165 C4169 1.495 . S
C4166 C4165 1.392 . S
C4166 C4167 1.385 . S
C4166 C4168 1.478 . S
C4167 H4161 0.930 . S
C4167 C4163 1.400 . S
C4167 C4166 1.385 . S
C4168 C4166 1.478 . S
C4168 C4170 1.381 . S
C4168 C4174 1.383 . S
C4169 C4165 1.495 . S
C4169 H4175 0.959 . S
C4169 H4176 0.961 . S
C4169 H4177 0.960 . S
C4170 C4168 1.381 . S
C4170 C4171 1.394 . S
C4170 H4178 0.930 . S
C4171 C4170 1.394 . S
C4171 C4172 1.383 . S
C4171 H4179 0.929 . S
C4172 C4171 1.383 . S
C4172 C4173 1.377 . S
C4173 H4157 0.930 . S
C4173 C4172 1.377 . S
C4173 C4174 1.379 . S
C4174 H4158 0.931 . S
C4174 C4168 1.383 . S
C4174 C4173 1.379 . S
H4175 C4169 0.959 . S
H4176 C4169 0.961 . S
H4177 C4169 0.960 . S
H4178 C4170 0.930 . S
H4179 C4171 0.929 . S
H4180 C4188 0.929 . S
H4181 C4190 0.930 . S
H4182 C4192 0.930 . S
H4183 C4195 0.929 . S
H4184 C4198 0.930 . S
H4185 C4200 0.960 . S
H4186 C4200 0.960 . S
H4187 C4200 0.960 . S
C4188 H4180 0.929 . S
C4188 C4189 1.377 . S
C4188 C4190 1.384 . S
C4189 C4188 1.377 . S
C4189 C4195 1.390 . S
C4190 H4181 0.930 . S
C4190 C4188 1.384 . S
C4190 C4191 1.372 . S
C4191 C4190 1.372 . S
C4191 C4192 1.400 . S
C4191 C4196 1.490 . S
C4192 H4182 0.930 . S
C4192 C4191 1.400 . S
C4192 C4195 1.386 . S
H4193 C4209 0.930 1_545 S
H4194 C4210 0.931 . S
C4195 H4183 0.929 . S
C4195 C4189 1.390 . S
C4195 C4192 1.386 . S
C4196 C4191 1.490 . S
C4196 C4198 1.395 . S
C4196 C4199 1.403 . S
H4197 C4203 0.930 . S
C4198 H4184 0.930 . S
C4198 C4196 1.395 . S
C4198 C4201 1.403 . S
C4199 C4196 1.403 . S
C4199 C4200 1.524 . S
C4199 C4203 1.400 . S
C4200 H4185 0.960 . S
C4200 H4186 0.960 . S
C4200 H4187 0.960 . S
C4200 C4199 1.524 . S
C4201 C4198 1.403 . S
C4201 C4202 1.392 . S
C4201 C4205 1.495 . S
C4202 C4201 1.392 . S
C4202 C4203 1.385 . S
C4202 C4204 1.478 . S
C4203 H4197 0.930 . S
C4203 C4199 1.400 . S
C4203 C4202 1.385 . S
C4204 C4202 1.478 . S
C4204 C4206 1.381 . S
C4204 C4210 1.383 . S
C4205 C4201 1.495 . S
C4205 H4211 0.959 . S
C4205 H4212 0.961 1_565 S
C4205 H4213 0.960 . S
C4206 C4204 1.381 . S
C4206 C4207 1.394 . S
C4206 H4214 0.930 . S
C4207 C4206 1.394 . S
C4207 C4208 1.383 1_565 S
C4207 H4215 0.929 1_565 S
C4208 C4207 1.383 1_545 S
C4208 C4209 1.377 1_545 S
C4209 H4193 0.930 1_565 S
C4209 C4208 1.377 1_565 S
C4209 C4210 1.379 . S
C4210 H4194 0.931 . S
C4210 C4204 1.383 . S
C4210 C4209 1.379 . S
H4211 C4205 0.959 . S
H4212 C4205 0.961 1_545 S
H4213 C4205 0.960 . S
H4214 C4206 0.930 . S
H4215 C4207 0.929 1_545 S
H4216 C4224 0.929 . S
H4217 C4226 0.930 . S
H4218 C4228 0.930 . S
H4219 C4231 0.929 . S
H4220 C4234 0.930 . S
H4221 C4236 0.960 . S
H4222 C4236 0.960 . S
H4223 C4236 0.960 . S
C4224 H4216 0.929 . S
C4224 C4225 1.377 . S
C4224 C4226 1.384 . S
C4225 C4224 1.377 . S
C4225 C4231 1.390 . S
C4226 H4217 0.930 . S
C4226 C4224 1.384 . S
C4226 C4227 1.372 . S
C4227 C4226 1.372 . S
C4227 C4228 1.400 . S
C4227 C4232 1.490 . S
C4228 H4218 0.930 . S
C4228 C4227 1.400 . S
C4228 C4231 1.386 . S
H4229 C4245 0.930 . S
H4230 C4246 0.931 . S
C4231 H4219 0.929 . S
C4231 C4225 1.390 . S
C4231 C4228 1.386 . S
C4232 C4227 1.490 . S
C4232 C4234 1.395 . S
C4232 C4235 1.403 . S
H4233 C4239 0.930 . S
C4234 H4220 0.930 . S
C4234 C4232 1.395 . S
C4234 C4237 1.403 . S
C4235 C4232 1.403 . S
C4235 C4236 1.524 . S
C4235 C4239 1.400 . S
C4236 H4221 0.960 . S
C4236 H4222 0.960 . S
C4236 H4223 0.960 . S
C4236 C4235 1.524 . S
C4237 C4234 1.403 . S
C4237 C4238 1.392 . S
C4237 C4241 1.495 . S
C4238 C4237 1.392 . S
C4238 C4239 1.385 . S
C4238 C4240 1.478 . S
C4239 H4233 0.930 . S
C4239 C4235 1.400 . S
C4239 C4238 1.385 . S
C4240 C4238 1.478 . S
C4240 C4242 1.381 . S
C4240 C4246 1.383 . S
C4241 C4237 1.495 . S
C4241 H4247 0.959 . S
C4241 H4248 0.961 . S
C4241 H4249 0.960 . S
C4242 C4240 1.381 . S
C4242 C4243 1.394 . S
C4242 H4250 0.930 . S
C4243 C4242 1.394 . S
C4243 C4244 1.383 . S
C4243 H4251 0.929 . S
C4244 C4243 1.383 . S
C4244 C4245 1.377 . S
C4245 H4229 0.930 . S
C4245 C4244 1.377 . S
C4245 C4246 1.379 . S
C4246 H4230 0.931 . S
C4246 C4240 1.383 . S
C4246 C4245 1.379 . S
H4247 C4241 0.959 . S
H4248 C4241 0.961 . S
H4249 C4241 0.960 . S
H4250 C4242 0.930 . S
H4251 C4243 0.929 . S
H4252 C4260 0.929 . S
H4253 C4262 0.930 . S
H4254 C4264 0.930 . S
H4255 C4267 0.929 . S
H4256 C4270 0.930 . S
H4257 C4272 0.960 . S
H4258 C4272 0.960 . S
H4259 C4272 0.960 . S
C4260 H4252 0.929 . S
C4260 C4261 1.377 . S
C4260 C4262 1.384 . S
C4261 C4260 1.377 . S
C4261 C4267 1.390 . S
C4262 H4253 0.930 . S
C4262 C4260 1.384 . S
C4262 C4263 1.372 . S
C4263 C4262 1.372 . S
C4263 C4264 1.400 . S
C4263 C4268 1.490 . S
C4264 H4254 0.930 . S
C4264 C4263 1.400 . S
C4264 C4267 1.386 . S
H4265 C4281 0.930 1_556 S
H4266 C4282 0.903 1_556 S
C4267 H4255 0.929 . S
C4267 C4261 1.390 . S
C4267 C4264 1.386 . S
C4268 C4263 1.490 . S
C4268 C4270 1.395 . S
C4268 C4271 1.403 . S
H4269 C4275 0.930 . S
C4270 H4256 0.930 . S
C4270 C4268 1.395 . S
C4270 C4273 1.403 . S
C4271 C4268 1.403 . S
C4271 C4272 1.524 . S
C4271 C4275 1.400 . S
C4272 H4257 0.960 . S
C4272 H4258 0.960 . S
C4272 H4259 0.960 . S
C4272 C4271 1.524 . S
C4273 C4270 1.403 . S
C4273 C4274 1.392 . S
C4273 C4277 1.495 . S
C4274 C4273 1.392 . S
C4274 C4275 1.385 . S
C4274 C4276 1.478 . S
C4275 H4269 0.930 . S
C4275 C4271 1.400 . S
C4275 C4274 1.385 . S
C4276 C4274 1.478 . S
C4276 C4278 1.381 . S
C4276 C4282 1.383 . S
C4277 C4273 1.495 . S
C4277 H4283 0.959 . S
C4277 H4284 0.961 . S
C4277 H4285 0.960 . S
C4278 C4276 1.381 . S
C4278 C4279 1.394 . S
C4278 H4286 0.930 . S
C4279 C4278 1.394 . S
C4279 C4280 1.383 . S
C4279 H4287 0.929 . S
C4280 C4279 1.383 . S
C4280 C4281 1.377 . S
C4281 H4265 0.930 1_554 S
C4281 C4280 1.377 . S
C4281 C4282 1.379 . S
C4282 H4266 0.903 1_554 S
C4282 C4276 1.383 . S
C4282 C4281 1.379 . S
H4283 C4277 0.959 . S
H4284 C4277 0.961 . S
H4285 C4277 0.960 . S
H4286 C4278 0.930 . S
H4287 C4279 0.929 . S
H4288 C4296 0.929 . S
H4289 C4298 0.930 . S
H4290 C4300 0.930 . S
H4291 C4303 0.929 . S
H4292 C4306 0.930 . S
H4293 C4308 0.960 . S
H4294 C4308 0.960 . S
H4295 C4308 0.960 . S
C4296 H4288 0.929 . S
C4296 C4297 1.377 . S
C4296 C4298 1.384 . S
C4297 C4296 1.377 . S
C4297 C4303 1.390 . S
C4298 H4289 0.930 . S
C4298 C4296 1.384 . S
C4298 C4299 1.372 . S
C4299 C4298 1.372 . S
C4299 C4300 1.400 . S
C4299 C4304 1.490 . S
C4300 H4290 0.930 . S
C4300 C4299 1.400 . S
C4300 C4303 1.386 . S
H4301 C4317 0.930 . S
H4302 C4318 0.931 . S
C4303 H4291 0.929 . S
C4303 C4297 1.390 . S
C4303 C4300 1.386 . S
C4304 C4299 1.490 . S
C4304 C4306 1.395 . S
C4304 C4307 1.403 . S
H4305 C4311 0.930 . S
C4306 H4292 0.930 . S
C4306 C4304 1.395 . S
C4306 C4309 1.403 . S
C4307 C4304 1.403 . S
C4307 C4308 1.524 . S
C4307 C4311 1.400 . S
C4308 H4293 0.960 . S
C4308 H4294 0.960 . S
C4308 H4295 0.960 . S
C4308 C4307 1.524 . S
C4309 C4306 1.403 . S
C4309 C4310 1.392 . S
C4309 C4313 1.495 . S
C4310 C4309 1.392 . S
C4310 C4311 1.385 . S
C4310 C4312 1.478 . S
C4311 H4305 0.930 . S
C4311 C4307 1.400 . S
C4311 C4310 1.385 . S
C4312 C4310 1.478 . S
C4312 C4314 1.381 . S
C4312 C4318 1.383 . S
C4313 C4309 1.495 . S
C4313 H4319 0.959 . S
C4313 H4320 0.961 . S
C4313 H4321 0.960 . S
C4314 C4312 1.381 . S
C4314 C4315 1.394 . S
C4314 H4322 0.930 . S
C4315 C4314 1.394 . S
C4315 C4316 1.383 . S
C4315 H4323 0.929 . S
C4316 C4315 1.383 . S
C4316 C4317 1.377 . S
C4317 H4301 0.930 . S
C4317 C4316 1.377 . S
C4317 C4318 1.379 . S
C4318 H4302 0.931 . S
C4318 C4312 1.383 . S
C4318 C4317 1.379 . S
H4319 C4313 0.959 . S
H4320 C4313 0.961 . S
H4321 C4313 0.960 . S
H4322 C4314 0.930 . S
H4323 C4315 0.929 . S
H4324 C4332 0.920 1_556 S
H4325 C4334 0.930 . S
H4326 C4336 0.930 . S
H4327 C4339 0.929 . S
H4328 C4342 0.933 . S
H4329 C4344 0.960 . S
H4330 C4344 0.960 . S
H4331 C4344 0.960 . S
C4332 H4324 0.920 1_554 S
C4332 C4333 1.389 . S
C4332 C4334 1.381 1_554 S
C4333 C4332 1.389 . S
C4333 C4339 1.390 . S
C4334 H4325 0.930 . S
C4334 C4332 1.381 1_556 S
C4334 C4335 1.372 1_556 S
C4335 C4334 1.372 1_554 S
C4335 C4336 1.400 . S
C4335 C4340 1.490 . S
C4336 H4326 0.930 . S
C4336 C4335 1.400 . S
C4336 C4339 1.386 . S
H4337 C4353 0.930 . S
H4338 C4354 0.931 . S
C4339 H4327 0.929 . S
C4339 C4333 1.390 . S
C4339 C4336 1.386 . S
C4340 C4335 1.490 . S
C4340 C4342 1.387 1_554 S
C4340 C4343 1.403 . S
H4341 C4347 0.930 . S
C4342 H4328 0.933 . S
C4342 C4340 1.387 1_556 S
C4342 C4345 1.410 . S
C4343 C4340 1.403 . S
C4343 C4344 1.524 . S
C4343 C4347 1.400 . S
C4344 H4329 0.960 . S
C4344 H4330 0.960 . S
C4344 H4331 0.960 . S
C4344 C4343 1.524 . S
C4345 C4342 1.410 . S
C4345 C4346 1.391 1_556 S
C4345 C4349 1.495 . S
C4346 C4345 1.391 1_554 S
C4346 C4347 1.390 . S
C4346 C4348 1.474 1_554 S
C4347 H4341 0.930 . S
C4347 C4343 1.400 . S
C4347 C4346 1.390 . S
C4348 C4346 1.474 1_556 S
C4348 C4350 1.381 . S
C4348 C4354 1.383 1_556 S
C4349 C4345 1.495 . S
C4349 H4355 0.959 . S
C4349 H4356 0.961 . S
C4349 H4357 0.960 . S
C4350 C4348 1.381 . S
C4350 C4351 1.394 . S
C4350 H4358 0.930 . S
C4351 C4350 1.394 . S
C4351 C4352 1.383 . S
C4351 H4359 0.929 . S
C4352 C4351 1.383 . S
C4352 C4353 1.377 1_556 S
C4353 H4337 0.930 . S
C4353 C4352 1.377 1_554 S
C4353 C4354 1.379 . S
C4354 H4338 0.931 . S
C4354 C4348 1.383 1_554 S
C4354 C4353 1.379 . S
H4355 C4349 0.959 . S
H4356 C4349 0.961 . S
H4357 C4349 0.960 . S
H4358 C4350 0.930 . S
H4359 C4351 0.929 . S
H4360 C4368 0.929 . S
H4361 C4370 0.930 . S
H4362 C4372 0.930 . S
H4363 C4375 0.929 . S
H4364 C4378 0.930 . S
H4365 C4380 0.960 . S
H4366 C4380 0.960 . S
H4367 C4380 0.960 . S
C4368 H4360 0.929 . S
C4368 C4369 1.377 . S
C4368 C4370 1.384 . S
C4369 C4368 1.377 . S
C4369 C4375 1.390 . S
C4370 H4361 0.930 . S
C4370 C4368 1.384 . S
C4370 C4371 1.372 . S
C4371 C4370 1.372 . S
C4371 C4372 1.400 . S
C4371 C4376 1.490 . S
C4372 H4362 0.930 . S
C4372 C4371 1.400 . S
C4372 C4375 1.386 . S
H4373 C4389 0.930 . S
H4374 C4390 0.931 . S
C4375 H4363 0.929 . S
C4375 C4369 1.390 . S
C4375 C4372 1.386 . S
C4376 C4371 1.490 . S
C4376 C4378 1.395 . S
C4376 C4379 1.403 . S
H4377 C4383 0.930 . S
C4378 H4364 0.930 . S
C4378 C4376 1.395 . S
C4378 C4381 1.403 . S
C4379 C4376 1.403 . S
C4379 C4380 1.524 . S
C4379 C4383 1.400 . S
C4380 H4365 0.960 . S
C4380 H4366 0.960 . S
C4380 H4367 0.960 . S
C4380 C4379 1.524 . S
C4381 C4378 1.403 . S
C4381 C4382 1.392 . S
C4381 C4385 1.495 . S
C4382 C4381 1.392 . S
C4382 C4383 1.385 . S
C4382 C4384 1.478 . S
C4383 H4377 0.930 . S
C4383 C4379 1.400 . S
C4383 C4382 1.385 . S
C4384 C4382 1.478 . S
C4384 C4386 1.381 . S
C4384 C4390 1.383 . S
C4385 C4381 1.495 . S
C4385 H4391 0.959 . S
C4385 H4392 0.961 . S
C4385 H4393 0.960 . S
C4386 C4384 1.381 . S
C4386 C4387 1.394 . S
C4386 H4394 0.930 . S
C4387 C4386 1.394 . S
C4387 C4388 1.383 . S
C4387 H4395 0.929 . S
C4388 C4387 1.383 . S
C4388 C4389 1.377 . S
C4389 H4373 0.930 . S
C4389 C4388 1.377 . S
C4389 C4390 1.379 . S
C4390 H4374 0.931 . S
C4390 C4384 1.383 . S
C4390 C4389 1.379 . S
H4391 C4385 0.959 . S
H4392 C4385 0.961 . S
H4393 C4385 0.960 . S
H4394 C4386 0.930 . S
H4395 C4387 0.929 . S
H4396 C4404 0.929 . S
H4397 C4406 0.930 . S
H4398 C4408 0.930 . S
H4399 C4411 0.929 . S
H4400 C4414 0.930 . S
H4401 C4416 0.960 . S
H4402 C4416 0.960 . S
H4403 C4416 0.960 . S
C4404 H4396 0.929 . S
C4404 C4405 1.377 . S
C4404 C4406 1.384 . S
C4405 C4404 1.377 . S
C4405 C4411 1.390 . S
C4406 H4397 0.930 . S
C4406 C4404 1.384 . S
C4406 C4407 1.372 . S
C4407 C4406 1.372 . S
C4407 C4408 1.400 . S
C4407 C4412 1.490 . S
C4408 H4398 0.930 . S
C4408 C4407 1.400 . S
C4408 C4411 1.386 . S
H4409 C4425 0.930 . S
H4410 C4426 0.931 . S
C4411 H4399 0.929 . S
C4411 C4405 1.390 . S
C4411 C4408 1.386 . S
C4412 C4407 1.490 . S
C4412 C4414 1.395 . S
C4412 C4415 1.403 . S
H4413 C4419 0.930 . S
C4414 H4400 0.930 . S
C4414 C4412 1.395 . S
C4414 C4417 1.403 . S
C4415 C4412 1.403 . S
C4415 C4416 1.524 . S
C4415 C4419 1.400 . S
C4416 H4401 0.960 . S
C4416 H4402 0.960 . S
C4416 H4403 0.960 . S
C4416 C4415 1.524 . S
C4417 C4414 1.403 . S
C4417 C4418 1.392 . S
C4417 C4421 1.495 . S
C4418 C4417 1.392 . S
C4418 C4419 1.385 . S
C4418 C4420 1.478 . S
C4419 H4413 0.930 . S
C4419 C4415 1.400 . S
C4419 C4418 1.385 . S
C4420 C4418 1.478 . S
C4420 C4422 1.381 . S
C4420 C4426 1.383 . S
C4421 C4417 1.495 . S
C4421 H4427 0.959 . S
C4421 H4428 0.961 . S
C4421 H4429 0.960 . S
C4422 C4420 1.381 . S
C4422 C4423 1.394 . S
C4422 H4430 0.930 . S
C4423 C4422 1.394 . S
C4423 C4424 1.383 . S
C4423 H4431 0.929 . S
C4424 C4423 1.383 . S
C4424 C4425 1.377 . S
C4425 H4409 0.930 . S
C4425 C4424 1.377 . S
C4425 C4426 1.379 . S
C4426 H4410 0.931 . S
C4426 C4420 1.383 . S
C4426 C4425 1.379 . S
H4427 C4421 0.959 . S
H4428 C4421 0.961 . S
H4429 C4421 0.960 . S
H4430 C4422 0.930 . S
H4431 C4423 0.929 . S
C985 C109 1.887 . S
C1004 C349 1.851 . S
C1021 C61 1.736 . S
C1040 C400 1.967 . S
C1057 C74 1.359 . S
C1076 C429 1.369 . S
C1112 C473 1.469 . S
C1093 C96 1.521 . S
C1129 C25 1.271 . S
C1148 C513 1.259 . S
C1184 C549 1.418 . S
C1165 C40 1.428 . S
C1220 C599 1.791 . S
C1201 C46 1.780 . S
C1237 C5 1.767 . S
C1256 C629 2.102 . S
C1292 C359 1.659 . S
C1273 C229 1.438 . S
C1309 C249 0.345 . S
C1328 C402 0.467 . S
C1364 C439 1.018 . S
C1345 C271 0.897 . S
C1400 C469 1.389 . S
C1381 C172 1.354 . S
C1417 C236 1.279 . S
C1436 C509 1.260 . S
C1472 C559 1.052 . S
C1453 C242 1.051 . S
C1508 C593 0.578 . S
C1489 C278 0.575 . S
C1544 C639 1.819 . S
C1525 C179 1.818 . S
C1580 C353 0.864 1_565 S
C1561 C159 0.801 1_556 S
C1597 C285 1.361 . S
C1616 C679 1.568 . S
C1652 C713 1.210 . S
C1633 C333 1.239 . S
C1688 C749 0.812 . S
C1669 C320 0.793 . S
C1705 C123 1.208 . S
C1724 C633 1.164 . S
C1741 C138 1.483 . S
C1760 C433 1.447 . S
C1777 C326 1.652 . S
C1796 C799 1.667 . S
C1832 C818 0.125 . S
C1813 C298 0.344 . S
C1868 C360 1.810 . S
C1849 C67 1.790 . S
C1904 C829 1.879 . S
C1885 C110 1.906 . S
C1921 C88 1.353 . S
C1940 C440 1.375 . S
C1957 C75 1.167 . S
C1976 C802 1.385 . S
C2012 C522 1.196 1_655 S
C1993 C11 1.224 . S
C2029 C47 1.232 . S
C2048 C720 1.386 . S
C2084 C578 1.646 1_556 S
C2065 C32 1.581 . S
C2120 C880 2.108 . S
C2101 C26 2.130 . S
C2156 C338 1.755 . S
C2137 C152 1.792 . S
C2192 C833 0.489 . S
C2173 C319 0.380 . S
C2209 C124 0.966 . S
C2228 C418 0.942 . S
C2245 C284 1.400 . S
C2264 C800 1.410 . S
C2281 C145 1.105 . S
C2300 C520 1.181 . S
C2336 C698 0.877 . S
C2317 C312 0.880 . S
C2353 C117 0.661 . S
C2372 C602 0.496 . S
C2389 C291 1.695 . S
C2408 C858 1.701 . S
C2425 C194 0.952 . S
C2444 C362 0.913 . S
C2461 C180 1.535 . S
C2480 C658 1.510 . S
C2497 C263 1.146 . S
C2516 C562 1.160 . S
C2533 C243 0.719 . S
C2552 C760 0.730 . S
C2588 C882 1.219 . S
C2569 C277 1.205 . S
C2605 C215 1.238 . S
C2624 C442 1.418 . S
C2660 C458 1.532 . S
C2641 C256 1.490 . S
C2696 C399 0.287 . S
C2677 C200 0.255 . S
C2713 C81 1.887 . S
C2732 C909 1.866 . S
C2768 C840 1.972 . S
C2749 C89 1.728 . S
C2785 C102 1.360 . S
C2804 C949 1.374 . S
C2821 C68 1.521 . S
C2840 C793 1.459 . S
C2857 C53 1.268 . S
C2876 C673 1.231 . S
C2912 C709 1.440 . S
C2893 C12 1.423 . S
C2948 C759 1.794 . S
C2929 C18 1.778 . S
C2984 C869 2.102 . S
C2965 C33 1.769 . S
C3020 C919 1.661 . S
C3001 C257 1.439 . S
C3037 C193 0.343 . S
C3056 C842 0.447 . S
C3092 C959 1.015 . S
C3073 C201 0.893 . S
C3128 C789 1.383 . S
C3109 C214 1.360 . S
C3164 C669 1.264 . S
C3145 C264 1.279 . S
C3181 C186 1.046 . S
C3200 C719 1.023 . S
C3236 C753 0.653 . S
C3217 C208 0.574 . S
C3253 C221 1.820 . S
C3272 C879 1.798 . S
C3308 C913 0.903 . S
C3289 C313 0.784 . S
C3325 C131 1.361 . S
C3344 C519 1.568 . S
C3380 C553 1.200 . S
C3361 C151 1.234 1_565 S
C3416 C589 0.780 . S
C3397 C166 0.794 . S
C3452 C873 1.152 . S
C3433 C305 1.208 . S
C3469 C292 1.481 . S
C3488 C953 1.450 . S
C3524 C479 1.664 . S
C3505 C144 1.651 . S
C3560 C378 0.211 . S
C3541 C116 0.342 . S
C3577 C95 1.794 . S
C3596 C920 1.822 . S
C3632 C389 1.883 . S
C3613 C82 1.899 . S
C3649 C60 1.360 . S
C3668 C960 1.343 . S
C3685 C103 1.161 . S
C3704 C482 1.387 . S
C3721 C39 1.223 . S
C3740 C682 1.188 . S
C3776 C560 1.362 . S
C3757 C19 1.249 . S
C3793 C4 1.578 . S
C3812 C738 1.654 . S
C3829 C54 2.135 . S
C3848 C640 2.132 . S
C3884 C898 1.776 . S
C3865 C334 1.791 . S
C3901 C165 0.347 . S
C3920 C393 0.323 . S
C3956 C938 0.936 . S
C3937 C306 0.967 . S
C3973 C130 1.405 . S
C3992 C480 1.388 . S
C4009 C327 1.103 . S
C4028 C680 1.177 . S
C4064 C538 0.878 . S
C4045 C158 0.880 . S
C4081 C299 0.660 . S
C4100 C762 0.474 . S
C4136 C618 1.698 . S
C4117 C137 1.693 . S
C4172 C922 0.916 . S
C4153 C250 0.952 . S
C4208 C498 1.504 . S
C4189 C222 1.536 . S
C4225 C235 1.135 . S
C4244 C722 1.126 . S
C4280 C600 0.667 . S
C4261 C187 0.742 . S
C4297 C207 1.195 . S
C4316 C642 1.169 . S
C4333 C173 1.246 . S
C4352 C962 1.398 . S
C4388 C778 1.520 . S
C4369 C228 1.452 1_565 S
C4424 C839 0.304 . S
C4405 C270 0.260 . S
