# Generated by pormake.
# Topology iac, (4,6)-cn, num edge types: 1
# Building blocks:
#     Node 0, Type 0, BuildingBlock: CEKHIL_clean_sbu_0, # of connection points: 4
#     Node 1, Type 0, BuildingBlock: CEKHIL_clean_sbu_0, # of connection points: 4
#     Node 2, Type 0, BuildingBlock: CEKHIL_clean_sbu_0, # of connection points: 4
#     Node 3, Type 0, BuildingBlock: CEKHIL_clean_sbu_0, # of connection points: 4
#     Node 4, Type 0, BuildingBlock: CEKHIL_clean_sbu_0, # of connection points: 4
#     Node 5, Type 0, BuildingBlock: CEKHIL_clean_sbu_0, # of connection points: 4
#     Node 6, Type 0, BuildingBlock: CEKHIL_clean_sbu_0, # of connection points: 4
#     Node 7, Type 0, BuildingBlock: CEKHIL_clean_sbu_0, # of connection points: 4
#     Node 8, Type 0, BuildingBlock: CEKHIL_clean_sbu_0, # of connection points: 4
#     Node 9, Type 0, BuildingBlock: CEKHIL_clean_sbu_0, # of connection points: 4
#     Node 10, Type 0, BuildingBlock: CEKHIL_clean_sbu_0, # of connection points: 4
#     Node 11, Type 0, BuildingBlock: CEKHIL_clean_sbu_0, # of connection points: 4
#     Node 12, Type 0, BuildingBlock: CEKHIL_clean_sbu_0, # of connection points: 4
#     Node 13, Type 0, BuildingBlock: CEKHIL_clean_sbu_0, # of connection points: 4
#     Node 14, Type 0, BuildingBlock: CEKHIL_clean_sbu_0, # of connection points: 4
#     Node 15, Type 0, BuildingBlock: CEKHIL_clean_sbu_0, # of connection points: 4
#     Node 16, Type 0, BuildingBlock: CEKHIL_clean_sbu_0, # of connection points: 4
#     Node 17, Type 0, BuildingBlock: CEKHIL_clean_sbu_0, # of connection points: 4
#     Node 18, Type 0, BuildingBlock: CEKHIL_clean_sbu_0, # of connection points: 4
#     Node 19, Type 0, BuildingBlock: CEKHIL_clean_sbu_0, # of connection points: 4
#     Node 20, Type 0, BuildingBlock: CEKHIL_clean_sbu_0, # of connection points: 4
#     Node 21, Type 0, BuildingBlock: CEKHIL_clean_sbu_0, # of connection points: 4
#     Node 22, Type 0, BuildingBlock: CEKHIL_clean_sbu_0, # of connection points: 4
#     Node 23, Type 0, BuildingBlock: CEKHIL_clean_sbu_0, # of connection points: 4
#     Node 24, Type 1, BuildingBlock: JUFBIX_clean_sbu_0, # of connection points: 6
#     Node 25, Type 1, BuildingBlock: JUFBIX_clean_sbu_0, # of connection points: 6
#     Node 26, Type 1, BuildingBlock: JUFBIX_clean_sbu_0, # of connection points: 6
#     Node 27, Type 1, BuildingBlock: JUFBIX_clean_sbu_0, # of connection points: 6
#     Node 28, Type 1, BuildingBlock: JUFBIX_clean_sbu_0, # of connection points: 6
#     Node 29, Type 1, BuildingBlock: JUFBIX_clean_sbu_0, # of connection points: 6
#     Node 30, Type 1, BuildingBlock: JUFBIX_clean_sbu_0, # of connection points: 6
#     Node 31, Type 1, BuildingBlock: JUFBIX_clean_sbu_0, # of connection points: 6
#     Node 32, Type 1, BuildingBlock: JUFBIX_clean_sbu_0, # of connection points: 6
#     Node 33, Type 1, BuildingBlock: JUFBIX_clean_sbu_0, # of connection points: 6
#     Node 34, Type 1, BuildingBlock: JUFBIX_clean_sbu_0, # of connection points: 6
#     Node 35, Type 1, BuildingBlock: JUFBIX_clean_sbu_0, # of connection points: 6
#     Node 36, Type 1, BuildingBlock: JUFBIX_clean_sbu_0, # of connection points: 6
#     Node 37, Type 1, BuildingBlock: JUFBIX_clean_sbu_0, # of connection points: 6
#     Node 38, Type 1, BuildingBlock: JUFBIX_clean_sbu_0, # of connection points: 6
#     Node 39, Type 1, BuildingBlock: JUFBIX_clean_sbu_0, # of connection points: 6
#     Edge 40, Type (0, 1), BuildingBlock: XIVTED_clean_linker_0, # of connection points: 2
#     Edge 41, Type (0, 1), BuildingBlock: XIVTED_clean_linker_0, # of connection points: 2
#     Edge 42, Type (0, 1), BuildingBlock: XIVTED_clean_linker_0, # of connection points: 2
#     Edge 43, Type (0, 1), BuildingBlock: XIVTED_clean_linker_0, # of connection points: 2
#     Edge 44, Type (0, 1), BuildingBlock: XIVTED_clean_linker_0, # of connection points: 2
#     Edge 45, Type (0, 1), BuildingBlock: XIVTED_clean_linker_0, # of connection points: 2
#     Edge 46, Type (0, 1), BuildingBlock: XIVTED_clean_linker_0, # of connection points: 2
#     Edge 47, Type (0, 1), BuildingBlock: XIVTED_clean_linker_0, # of connection points: 2
#     Edge 48, Type (0, 1), BuildingBlock: XIVTED_clean_linker_0, # of connection points: 2
#     Edge 49, Type (0, 1), BuildingBlock: XIVTED_clean_linker_0, # of connection points: 2
#     Edge 50, Type (0, 1), BuildingBlock: XIVTED_clean_linker_0, # of connection points: 2
#     Edge 51, Type (0, 1), BuildingBlock: XIVTED_clean_linker_0, # of connection points: 2
#     Edge 52, Type (0, 1), BuildingBlock: XIVTED_clean_linker_0, # of connection points: 2
#     Edge 53, Type (0, 1), BuildingBlock: XIVTED_clean_linker_0, # of connection points: 2
#     Edge 54, Type (0, 1), BuildingBlock: XIVTED_clean_linker_0, # of connection points: 2
#     Edge 55, Type (0, 1), BuildingBlock: XIVTED_clean_linker_0, # of connection points: 2
#     Edge 56, Type (0, 1), BuildingBlock: XIVTED_clean_linker_0, # of connection points: 2
#     Edge 57, Type (0, 1), BuildingBlock: XIVTED_clean_linker_0, # of connection points: 2
#     Edge 58, Type (0, 1), BuildingBlock: XIVTED_clean_linker_0, # of connection points: 2
#     Edge 59, Type (0, 1), BuildingBlock: XIVTED_clean_linker_0, # of connection points: 2
#     Edge 60, Type (0, 1), BuildingBlock: XIVTED_clean_linker_0, # of connection points: 2
#     Edge 61, Type (0, 1), BuildingBlock: XIVTED_clean_linker_0, # of connection points: 2
#     Edge 62, Type (0, 1), BuildingBlock: XIVTED_clean_linker_0, # of connection points: 2
#     Edge 63, Type (0, 1), BuildingBlock: XIVTED_clean_linker_0, # of connection points: 2
#     Edge 64, Type (0, 1), BuildingBlock: XIVTED_clean_linker_0, # of connection points: 2
#     Edge 65, Type (0, 1), BuildingBlock: XIVTED_clean_linker_0, # of connection points: 2
#     Edge 66, Type (0, 1), BuildingBlock: XIVTED_clean_linker_0, # of connection points: 2
#     Edge 67, Type (0, 1), BuildingBlock: XIVTED_clean_linker_0, # of connection points: 2
#     Edge 68, Type (0, 1), BuildingBlock: XIVTED_clean_linker_0, # of connection points: 2
#     Edge 69, Type (0, 1), BuildingBlock: XIVTED_clean_linker_0, # of connection points: 2
#     Edge 70, Type (0, 1), BuildingBlock: XIVTED_clean_linker_0, # of connection points: 2
#     Edge 71, Type (0, 1), BuildingBlock: XIVTED_clean_linker_0, # of connection points: 2
#     Edge 72, Type (0, 1), BuildingBlock: XIVTED_clean_linker_0, # of connection points: 2
#     Edge 73, Type (0, 1), BuildingBlock: XIVTED_clean_linker_0, # of connection points: 2
#     Edge 74, Type (0, 1), BuildingBlock: XIVTED_clean_linker_0, # of connection points: 2
#     Edge 75, Type (0, 1), BuildingBlock: XIVTED_clean_linker_0, # of connection points: 2
#     Edge 76, Type (0, 1), BuildingBlock: XIVTED_clean_linker_0, # of connection points: 2
#     Edge 77, Type (0, 1), BuildingBlock: XIVTED_clean_linker_0, # of connection points: 2
#     Edge 78, Type (0, 1), BuildingBlock: XIVTED_clean_linker_0, # of connection points: 2
#     Edge 79, Type (0, 1), BuildingBlock: XIVTED_clean_linker_0, # of connection points: 2
#     Edge 80, Type (0, 1), BuildingBlock: XIVTED_clean_linker_0, # of connection points: 2
#     Edge 81, Type (0, 1), BuildingBlock: XIVTED_clean_linker_0, # of connection points: 2
#     Edge 82, Type (0, 1), BuildingBlock: XIVTED_clean_linker_0, # of connection points: 2
#     Edge 83, Type (0, 1), BuildingBlock: XIVTED_clean_linker_0, # of connection points: 2
#     Edge 84, Type (0, 1), BuildingBlock: XIVTED_clean_linker_0, # of connection points: 2
#     Edge 85, Type (0, 1), BuildingBlock: XIVTED_clean_linker_0, # of connection points: 2
#     Edge 86, Type (0, 1), BuildingBlock: XIVTED_clean_linker_0, # of connection points: 2
#     Edge 87, Type (0, 1), BuildingBlock: XIVTED_clean_linker_0, # of connection points: 2
#     Edge 88, Type (0, 1), BuildingBlock: XIVTED_clean_linker_0, # of connection points: 2
#     Edge 89, Type (0, 1), BuildingBlock: XIVTED_clean_linker_0, # of connection points: 2
#     Edge 90, Type (0, 1), BuildingBlock: XIVTED_clean_linker_0, # of connection points: 2
#     Edge 91, Type (0, 1), BuildingBlock: XIVTED_clean_linker_0, # of connection points: 2
#     Edge 92, Type (0, 1), BuildingBlock: XIVTED_clean_linker_0, # of connection points: 2
#     Edge 93, Type (0, 1), BuildingBlock: XIVTED_clean_linker_0, # of connection points: 2
#     Edge 94, Type (0, 1), BuildingBlock: XIVTED_clean_linker_0, # of connection points: 2
#     Edge 95, Type (0, 1), BuildingBlock: XIVTED_clean_linker_0, # of connection points: 2
#     Edge 96, Type (0, 1), BuildingBlock: XIVTED_clean_linker_0, # of connection points: 2
#     Edge 97, Type (0, 1), BuildingBlock: XIVTED_clean_linker_0, # of connection points: 2
#     Edge 98, Type (0, 1), BuildingBlock: XIVTED_clean_linker_0, # of connection points: 2
#     Edge 99, Type (0, 1), BuildingBlock: XIVTED_clean_linker_0, # of connection points: 2
#     Edge 100, Type (0, 1), BuildingBlock: XIVTED_clean_linker_0, # of connection points: 2
#     Edge 101, Type (0, 1), BuildingBlock: XIVTED_clean_linker_0, # of connection points: 2
#     Edge 102, Type (0, 1), BuildingBlock: XIVTED_clean_linker_0, # of connection points: 2
#     Edge 103, Type (0, 1), BuildingBlock: XIVTED_clean_linker_0, # of connection points: 2
#     Edge 104, Type (0, 1), BuildingBlock: XIVTED_clean_linker_0, # of connection points: 2
#     Edge 105, Type (0, 1), BuildingBlock: XIVTED_clean_linker_0, # of connection points: 2
#     Edge 106, Type (0, 1), BuildingBlock: XIVTED_clean_linker_0, # of connection points: 2
#     Edge 107, Type (0, 1), BuildingBlock: XIVTED_clean_linker_0, # of connection points: 2
#     Edge 108, Type (0, 1), BuildingBlock: XIVTED_clean_linker_0, # of connection points: 2
#     Edge 109, Type (0, 1), BuildingBlock: XIVTED_clean_linker_0, # of connection points: 2
#     Edge 110, Type (0, 1), BuildingBlock: XIVTED_clean_linker_0, # of connection points: 2
#     Edge 111, Type (0, 1), BuildingBlock: XIVTED_clean_linker_0, # of connection points: 2
#     Edge 112, Type (0, 1), BuildingBlock: XIVTED_clean_linker_0, # of connection points: 2
#     Edge 113, Type (0, 1), BuildingBlock: XIVTED_clean_linker_0, # of connection points: 2
#     Edge 114, Type (0, 1), BuildingBlock: XIVTED_clean_linker_0, # of connection points: 2
#     Edge 115, Type (0, 1), BuildingBlock: XIVTED_clean_linker_0, # of connection points: 2
#     Edge 116, Type (0, 1), BuildingBlock: XIVTED_clean_linker_0, # of connection points: 2
#     Edge 117, Type (0, 1), BuildingBlock: XIVTED_clean_linker_0, # of connection points: 2
#     Edge 118, Type (0, 1), BuildingBlock: XIVTED_clean_linker_0, # of connection points: 2
#     Edge 119, Type (0, 1), BuildingBlock: XIVTED_clean_linker_0, # of connection points: 2
#     Edge 120, Type (0, 1), BuildingBlock: XIVTED_clean_linker_0, # of connection points: 2
#     Edge 121, Type (0, 1), BuildingBlock: XIVTED_clean_linker_0, # of connection points: 2
#     Edge 122, Type (0, 1), BuildingBlock: XIVTED_clean_linker_0, # of connection points: 2
#     Edge 123, Type (0, 1), BuildingBlock: XIVTED_clean_linker_0, # of connection points: 2
#     Edge 124, Type (0, 1), BuildingBlock: XIVTED_clean_linker_0, # of connection points: 2
#     Edge 125, Type (0, 1), BuildingBlock: XIVTED_clean_linker_0, # of connection points: 2
#     Edge 126, Type (0, 1), BuildingBlock: XIVTED_clean_linker_0, # of connection points: 2
#     Edge 127, Type (0, 1), BuildingBlock: XIVTED_clean_linker_0, # of connection points: 2
#     Edge 128, Type (0, 1), BuildingBlock: XIVTED_clean_linker_0, # of connection points: 2
#     Edge 129, Type (0, 1), BuildingBlock: XIVTED_clean_linker_0, # of connection points: 2
#     Edge 130, Type (0, 1), BuildingBlock: XIVTED_clean_linker_0, # of connection points: 2
#     Edge 131, Type (0, 1), BuildingBlock: XIVTED_clean_linker_0, # of connection points: 2
#     Edge 132, Type (0, 1), BuildingBlock: XIVTED_clean_linker_0, # of connection points: 2
#     Edge 133, Type (0, 1), BuildingBlock: XIVTED_clean_linker_0, # of connection points: 2
#     Edge 134, Type (0, 1), BuildingBlock: XIVTED_clean_linker_0, # of connection points: 2
#     Edge 135, Type (0, 1), BuildingBlock: XIVTED_clean_linker_0, # of connection points: 2
# Relax obj value: 0.230
# Max RMSD: 0.237
# Mean RMSD: 0.114
data_MOF--net-iac--node1-CEKHIL_clean_sbu_0--node2-JUFBIX_clean_sbu_0--edge1-XIVTED_clean_linker_0
_symmetry_space_group_name_H-M    P1
_symmetry_Int_Tables_number       1
_symmetry_cell_setting            triclinic
loop_
_symmetry_equiv_pos_as_xyz
'x, y, z'
_cell_length_a     54.842138
_cell_length_b     55.46429
_cell_length_c     54.446785
_cell_angle_alpha  89.239426
_cell_angle_beta   88.316089
_cell_angle_gamma 88.99185
loop_
_atom_site_label
_atom_site_type_symbol
_atom_site_fract_x
_atom_site_fract_y
_atom_site_fract_z
_atom_type_partial_charge
Co0 Co 0.03474 0.27937 0.14821 0.0
O1 O 0.99938 0.2808 0.14441 0.0
O2 O 0.01707 0.26776 0.17782 0.0
C3 C 0.04106 0.3179 0.1321 0.0
O4 O 0.0702 0.27695 0.16132 0.0
Co5 Co 0.07172 0.28212 0.10604 0.0
O6 O 0.09622 0.28861 0.13123 0.0
C7 C 0.04462 0.23679 0.11278 0.0
C8 C 0.99685 0.2726 0.16675 0.0
C9 C 0.09185 0.2832 0.15371 0.0
O10 O 0.03633 0.24484 0.13379 0.0
O11 O 0.05767 0.24987 0.09818 0.0
O12 O 0.0345 0.31438 0.15498 0.0
O13 O 0.04259 0.29836 0.11935 0.0
Co14 Co 0.04616 0.78584 0.41042 0.0
O15 O 0.08108 0.78802 0.41137 0.0
O16 O 0.05997 0.78011 0.3783 0.0
C17 C 0.03661 0.81902 0.43171 0.0
O18 O 0.01076 0.78344 0.4018 0.0
Co19 Co 0.01391 0.77853 0.45771 0.0
O20 O 0.98628 0.78507 0.43558 0.0
C21 C 0.04537 0.7391 0.43887 0.0
C22 C 0.08099 0.78341 0.38802 0.0
C23 C 0.98954 0.78504 0.41231 0.0
O24 O 0.04836 0.75051 0.41841 0.0
O25 O 0.03449 0.7482 0.45779 0.0
O26 O 0.04286 0.82073 0.40855 0.0
O27 O 0.03904 0.7979 0.44173 0.0
Co28 Co 0.53522 0.77937 0.64844 0.0
O29 O 0.5 0.78009 0.64424 0.0
O30 O 0.51752 0.76754 0.67795 0.0
C31 C 0.54079 0.81799 0.63243 0.0
O32 O 0.57068 0.77771 0.66159 0.0
Co33 Co 0.57191 0.7824 0.60622 0.0
O34 O 0.59637 0.78948 0.63125 0.0
C35 C 0.54589 0.73658 0.61348 0.0
C36 C 0.49737 0.77192 0.66657 0.0
C37 C 0.59219 0.78424 0.65381 0.0
O38 O 0.53748 0.74479 0.63434 0.0
O39 O 0.55865 0.74972 0.59865 0.0
O40 O 0.53424 0.81428 0.65527 0.0
O41 O 0.54268 0.79851 0.61956 0.0
Co42 Co 0.53806 0.28521 0.90845 0.0
O43 O 0.57218 0.29155 0.90508 0.0
O44 O 0.54871 0.27972 0.87505 0.0
C45 C 0.5275 0.3181 0.92979 0.0
O46 O 0.50253 0.27792 0.9046 0.0
Co47 Co 0.5122 0.27693 0.95945 0.0
O48 O 0.48199 0.28248 0.94064 0.0
C49 C 0.54586 0.24005 0.93837 0.0
C50 C 0.57012 0.28588 0.88215 0.0
C51 C 0.48261 0.27984 0.91742 0.0
O52 O 0.5456 0.25079 0.91736 0.0
O53 O 0.53571 0.24873 0.95789 0.0
O54 O 0.53035 0.31955 0.90603 0.0
O55 O 0.53336 0.29768 0.93983 0.0
Co56 Co 0.13135 0.02623 0.31053 0.0
O57 O 0.12946 0.99325 0.30027 0.0
O58 O 0.16164 0.01671 0.2948 0.0
C59 C 0.1151 0.02148 0.3483 0.0
O60 O 0.14094 0.05996 0.31895 0.0
Co61 Co 0.08578 0.05799 0.32285 0.0
O62 O 0.10923 0.08325 0.33158 0.0
C63 C 0.0966 0.04295 0.2722 0.0
C64 C 0.15168 0.99593 0.29175 0.0
C65 C 0.13198 0.0798 0.32736 0.0
O66 O 0.11838 0.03723 0.27827 0.0
O67 O 0.07984 0.0492 0.28781 0.0
O68 O 0.138 0.01611 0.34396 0.0
O69 O 0.10238 0.0273 0.32944 0.0
Co70 Co 0.25216 0.89269 0.53294 0.0
O71 O 0.21736 0.88933 0.53545 0.0
O72 O 0.23817 0.91921 0.55108 0.0
C73 C 0.25712 0.88457 0.49298 0.0
O74 O 0.28743 0.90294 0.53318 0.0
Co75 Co 0.28626 0.84908 0.52006 0.0
O76 O 0.31226 0.87358 0.51824 0.0
C77 C 0.26107 0.85128 0.56826 0.0
C78 C 0.21726 0.90924 0.54778 0.0
C79 C 0.30856 0.89496 0.526 0.0
O80 O 0.25562 0.87355 0.56417 0.0
O81 O 0.27113 0.83759 0.55202 0.0
O82 O 0.24992 0.90599 0.49978 0.0
O83 O 0.25827 0.86838 0.51019 0.0
Co84 Co 0.40263 0.05183 0.77291 0.0
O85 O 0.40406 0.08591 0.77788 0.0
O86 O 0.37485 0.06728 0.75844 0.0
C87 C 0.41155 0.03926 0.81077 0.0
O88 O 0.39456 0.0173 0.76529 0.0
Co89 Co 0.44962 0.01996 0.77723 0.0
O90 O 0.42672 0.99302 0.77353 0.0
C91 C 0.4449 0.05394 0.73626 0.0
C92 C 0.38395 0.08732 0.76585 0.0
C93 C 0.40458 0.9963 0.76759 0.0
O94 O 0.42189 0.05575 0.74116 0.0
O95 O 0.45976 0.0427 0.75019 0.0
O96 O 0.38946 0.04661 0.80628 0.0
O97 O 0.4277 0.04289 0.79346 0.0
Co98 Co 0.28689 0.15714 0.01617 0.0
O99 O 0.32181 0.16362 0.01374 0.0
O100 O 0.3066 0.12917 0.02661 0.0
C101 C 0.2788 0.17322 0.97784 0.0
O102 O 0.2523 0.1418 0.01918 0.0
Co103 Co 0.24715 0.19629 0.01536 0.0
O104 O 0.22456 0.16983 0.00833 0.0
C105 C 0.27634 0.19073 0.06005 0.0
C106 C 0.32591 0.14163 0.02117 0.0
C107 C 0.23027 0.14797 0.01322 0.0
O108 O 0.28506 0.17047 0.05156 0.0
O109 O 0.26237 0.20449 0.04736 0.0
O110 O 0.28736 0.15138 0.98047 0.0
O111 O 0.27661 0.18512 0.99809 0.0
Co112 Co 0.76355 0.38464 0.03393 0.0
O113 O 0.72856 0.38254 0.03565 0.0
O114 O 0.7499 0.41429 0.04615 0.0
C115 C 0.76963 0.3689 0.99666 0.0
O116 O 0.7989 0.39423 0.03386 0.0
Co117 Co 0.79771 0.33942 0.03046 0.0
O118 O 0.8244 0.36299 0.0259 0.0
C119 C 0.76833 0.34934 0.07531 0.0
C120 C 0.7288 0.40433 0.0442 0.0
C121 C 0.82035 0.38538 0.02949 0.0
O122 O 0.76509 0.37125 0.06817 0.0
O123 O 0.77851 0.33313 0.06178 0.0
O124 O 0.76309 0.39147 0.99874 0.0
O125 O 0.76987 0.35636 0.01676 0.0
Co126 Co 0.90939 0.55076 0.26707 0.0
O127 O 0.90972 0.5851 0.27062 0.0
O128 O 0.88134 0.56483 0.25169 0.0
C129 C 0.91816 0.5403 0.30557 0.0
O130 O 0.90226 0.51561 0.26102 0.0
Co131 Co 0.95683 0.52005 0.2736 0.0
O132 O 0.93443 0.49247 0.27191 0.0
C133 C 0.95245 0.55309 0.23175 0.0
C134 C 0.88961 0.58543 0.25856 0.0
C135 C 0.91242 0.49495 0.26527 0.0
O136 O 0.92921 0.55398 0.23558 0.0
O137 O 0.96708 0.5427 0.24655 0.0
O138 O 0.89591 0.54665 0.30046 0.0
O139 O 0.93439 0.5435 0.28825 0.0
Co140 Co 0.78662 0.65645 0.51751 0.0
O141 O 0.82161 0.66229 0.51473 0.0
O142 O 0.80591 0.62793 0.52724 0.0
C143 C 0.77842 0.67361 0.47961 0.0
O144 O 0.75182 0.64178 0.52081 0.0
Co145 Co 0.7478 0.69633 0.51789 0.0
O146 O 0.72448 0.67047 0.51081 0.0
C147 C 0.77724 0.68929 0.56216 0.0
C148 C 0.8254 0.6402 0.52194 0.0
C149 C 0.72983 0.64844 0.51528 0.0
O150 O 0.78556 0.66911 0.55314 0.0
O151 O 0.76342 0.70358 0.54992 0.0
O152 O 0.78609 0.65138 0.48162 0.0
O153 O 0.77695 0.68503 0.50017 0.0
Co154 Co 0.64494 0.51139 0.81954 0.0
O155 O 0.64678 0.47676 0.81723 0.0
O156 O 0.6764 0.50192 0.80634 0.0
C157 C 0.62795 0.5127 0.85741 0.0
O158 O 0.65143 0.54704 0.82029 0.0
Co159 Co 0.59737 0.5417 0.82557 0.0
O160 O 0.61856 0.56985 0.83019 0.0
C161 C 0.6113 0.52116 0.77729 0.0
C162 C 0.66887 0.47994 0.80854 0.0
C163 C 0.64133 0.56743 0.82549 0.0
O164 O 0.63196 0.51401 0.78551 0.0
O165 O 0.59452 0.53112 0.7907 0.0
O166 O 0.65137 0.50924 0.85442 0.0
O167 O 0.61543 0.51361 0.83768 0.0
Co168 Co 0.04103 0.78277 0.90031 0.0
O169 O 0.07636 0.78232 0.90465 0.0
O170 O 0.05885 0.77094 0.87107 0.0
C171 C 0.03539 0.82141 0.91605 0.0
O172 O 0.00595 0.78177 0.8863 0.0
Co173 Co 1.00274 0.78679 0.94092 0.0
O174 O 0.9774 0.78848 0.91573 0.0
C175 C 0.02748 0.73947 0.93439 0.0
C176 C 0.079 0.77451 0.88233 0.0
C177 C 0.98329 0.78462 0.89335 0.0
O178 O 0.03866 0.74812 0.91494 0.0
O179 O 0.01324 0.75253 0.94792 0.0
O180 O 0.04209 0.81782 0.89328 0.0
O181 O 0.03284 0.80175 0.92896 0.0
Co182 Co 1.00147 0.31713 0.63455 0.0
O183 O 0.96762 0.31299 0.62864 0.0
O184 O 0.9868 0.29914 0.66144 0.0
C185 C 1.00163 0.35634 0.62481 0.0
O186 O 0.03576 0.31824 0.64711 0.0
Co187 Co 0.03732 0.33238 0.59229 0.0
O188 O 0.06223 0.33171 0.61796 0.0
C189 C 0.02245 0.28167 0.59713 0.0
C190 C 0.96659 0.30169 0.64965 0.0
C191 C 0.05735 0.32391 0.63964 0.0
O192 O 0.01007 0.28665 0.61686 0.0
O193 O 0.03323 0.29762 0.58374 0.0
O194 O 0.9948 0.34943 0.64678 0.0
O195 O 0.0065 0.33952 0.60914 0.0
Co196 Co 0.54 0.2829 0.40162 0.0
O197 O 0.57527 0.28246 0.40686 0.0
O198 O 0.55856 0.27079 0.373 0.0
C199 C 0.53446 0.32172 0.41683 0.0
O200 O 0.50535 0.28171 0.3865 0.0
Co201 Co 0.49993 0.28831 0.44003 0.0
O202 O 0.47699 0.29558 0.41327 0.0
C203 C 0.52442 0.24035 0.43555 0.0
C204 C 0.57845 0.2746 0.38461 0.0
C205 C 0.48315 0.28874 0.39175 0.0
O206 O 0.53698 0.24856 0.41675 0.0
O207 O 0.50932 0.25377 0.44777 0.0
O208 O 0.54152 0.31784 0.39422 0.0
O209 O 0.53108 0.30224 0.42983 0.0
Co210 Co 0.49834 0.81276 0.12936 0.0
O211 O 0.46597 0.80955 0.11749 0.0
O212 O 0.47853 0.79625 0.15368 0.0
C213 C 0.50117 0.85169 0.11859 0.0
O214 O 0.52959 0.81302 0.14823 0.0
Co215 Co 0.54214 0.82682 0.09519 0.0
O216 O 0.56018 0.82972 0.12605 0.0
C217 C 0.52519 0.77635 0.09727 0.0
C218 C 0.46075 0.7995 0.13861 0.0
C219 C 0.55159 0.82044 0.14593 0.0
O220 O 0.50909 0.78166 0.11405 0.0
O221 O 0.53881 0.79199 0.08643 0.0
O222 O 0.49055 0.84565 0.13934 0.0
O223 O 0.50866 0.83423 0.1047 0.0
Co224 Co 0.86713 0.07104 0.78665 0.0
O225 O 0.86099 0.10339 0.77545 0.0
O226 O 0.84021 0.07125 0.76475 0.0
C227 C 0.87054 0.0799 0.82634 0.0
O228 O 0.86758 0.03536 0.79432 0.0
Co229 Co 0.91546 0.05559 0.81164 0.0
O230 O 0.90183 0.02261 0.81255 0.0
C231 C 0.9149 0.06634 0.75856 0.0
C232 C 0.84346 0.09436 0.76314 0.0
C233 C 0.88109 0.01869 0.8036 0.0
O234 O 0.89144 0.06601 0.75879 0.0
O235 O 0.92743 0.06563 0.77802 0.0
O236 O 0.84899 0.07709 0.81761 0.0
O237 O 0.88869 0.07879 0.81086 0.0
Co238 Co 0.81629 0.16253 0.50298 0.0
O239 O 0.84773 0.17439 0.51153 0.0
O240 O 0.82743 0.14563 0.53153 0.0
C241 C 0.82601 0.15968 0.46307 0.0
O242 O 0.78497 0.14415 0.49999 0.0
Co243 Co 0.78096 0.18703 0.46691 0.0
O244 O 0.76198 0.15697 0.46901 0.0
C245 C 0.78487 0.20554 0.51739 0.0
C246 C 0.84726 0.15796 0.52879 0.0
C247 C 0.76638 0.14219 0.48645 0.0
O248 O 0.79909 0.18782 0.5233 0.0
O249 O 0.77688 0.20903 0.49575 0.0
O250 O 0.83239 0.1424 0.478 0.0
O251 O 0.81476 0.1781 0.47251 0.0
Co252 Co 0.64248 0.99974 0.29487 0.0
O253 O 0.63496 0.96871 0.28222 0.0
O254 O 0.67003 0.98762 0.27619 0.0
C255 C 0.62793 0.99139 0.33265 0.0
O256 O 0.65781 0.03068 0.3051 0.0
Co257 Co 0.60439 0.03559 0.31727 0.0
O258 O 0.63246 0.05555 0.32594 0.0
C259 C 0.61113 0.03163 0.26313 0.0
C260 C 0.65731 0.96832 0.27358 0.0
C261 C 0.65349 0.05023 0.31685 0.0
O262 O 0.62899 0.01654 0.26547 0.0
O263 O 0.59827 0.03982 0.28129 0.0
O264 O 0.65001 0.98472 0.32627 0.0
O265 O 0.61524 1.00218 0.31609 0.0
Co266 Co 0.77943 0.91046 0.01378 0.0
O267 O 0.74394 0.90767 0.01325 0.0
O268 O 0.76276 0.94019 0.02439 0.0
C269 C 0.78561 0.89345 0.97544 0.0
O270 O 0.81513 0.9225 0.01553 0.0
Co271 Co 0.81576 0.86832 0.01134 0.0
O272 O 0.84233 0.89217 0.01091 0.0
C273 C 0.78618 0.87522 0.05688 0.0
C274 C 0.74219 0.92993 0.02026 0.0
C275 C 0.83745 0.91448 0.01394 0.0
O276 O 0.77982 0.89661 0.04916 0.0
O277 O 0.79829 0.86035 0.0433 0.0
O278 O 0.78003 0.9162 0.97782 0.0
O279 O 0.78684 0.88165 0.996 0.0
Co280 Co 0.32236 0.65435 0.00248 0.0
O281 O 0.35195 0.66463 0.0171 0.0
O282 O 0.33283 0.63058 0.026 0.0
C283 C 0.33524 0.66373 0.96421 0.0
O284 O 0.29259 0.63671 0.99152 0.0
Co285 Co 0.28868 0.68704 0.9711 0.0
O286 O 0.26982 0.65767 0.96497 0.0
C287 C 0.28613 0.68922 0.02572 0.0
C288 C 0.35151 0.64422 0.02907 0.0
C289 C 0.2742 0.63865 0.97754 0.0
O290 O 0.30162 0.67165 0.02787 0.0
O291 O 0.28031 0.69863 0.00504 0.0
O292 O 0.34139 0.643 0.97378 0.0
O293 O 0.32204 0.67794 0.97781 0.0
Co294 Co 0.14262 0.50291 0.78986 0.0
O295 O 0.13703 0.47231 0.77541 0.0
O296 O 0.17136 0.4928 0.77157 0.0
C297 C 0.12776 0.4922 0.82692 0.0
O298 O 0.15568 0.53411 0.80243 0.0
Co299 Co 0.10089 0.53507 0.81205 0.0
O300 O 0.12702 0.55701 0.8216 0.0
C301 C 0.11097 0.53495 0.75823 0.0
C302 C 0.15966 0.47306 0.76776 0.0
C303 C 0.14895 0.55311 0.81418 0.0
O304 O 0.12934 0.52052 0.76077 0.0
O305 O 0.09666 0.54142 0.77605 0.0
O306 O 0.15017 0.48681 0.82059 0.0
O307 O 0.11473 0.50275 0.81044 0.0
Co308 Co 0.27997 0.41071 0.51298 0.0
O309 O 0.24454 0.40804 0.51178 0.0
O310 O 0.26312 0.44048 0.52346 0.0
C311 C 0.28667 0.39393 0.47452 0.0
O312 O 0.3158 0.42237 0.51562 0.0
Co313 Co 0.31562 0.36806 0.51106 0.0
O314 O 0.3425 0.39151 0.51166 0.0
C315 C 0.28558 0.37535 0.55619 0.0
C316 C 0.24263 0.43023 0.51895 0.0
C317 C 0.338 0.41389 0.5147 0.0
O318 O 0.27957 0.39676 0.54831 0.0
O319 O 0.29769 0.36029 0.54282 0.0
O320 O 0.28131 0.41671 0.47706 0.0
O321 O 0.28737 0.38193 0.49501 0.0
Co322 Co 0.37922 0.57724 0.2889 0.0
O323 O 0.3848 0.61087 0.28392 0.0
O324 O 0.35797 0.5896 0.26393 0.0
C325 C 0.37756 0.5786 0.32987 0.0
O326 O 0.36822 0.54264 0.28957 0.0
Co327 Co 0.41664 0.54495 0.31712 0.0
O328 O 0.39131 0.52002 0.31478 0.0
C329 C 0.42742 0.56054 0.26598 0.0
C330 C 0.3676 0.61038 0.26808 0.0
C331 C 0.37337 0.52264 0.30056 0.0
O332 O 0.40552 0.56889 0.26383 0.0
O333 O 0.43597 0.55268 0.28626 0.0
O334 O 0.3582 0.58435 0.31781 0.0
O335 O 0.3972 0.57425 0.31706 0.0
Co336 Co 0.03028 0.03734 0.00019 0.0
C337 C 0.02766 0.06871 0.041 0.0
Co338 Co 0.04035 0.0195 0.03451 0.0
C339 C 1.00151 0.04806 0.95862 0.0
C340 C 0.02872 0.07467 0.96314 0.0
N341 N 0.02114 0.05309 0.9718 0.0
N342 N 0.99587 0.06597 0.94273 0.0
C343 C 0.01317 0.08266 0.94526 0.0
H344 H 0.99029 0.03248 0.96212 0.0
H345 H 0.0434 0.08477 0.97063 0.0
C346 C 0.04272 0.98826 0.99354 0.0
N347 N 0.04874 0.00395 0.06303 0.0
C348 C 0.06007 0.01351 0.08209 0.0
C349 C 0.04198 0.98178 0.0708 0.0
N350 N 0.06019 0.99844 0.10166 0.0
C351 C 0.04885 0.97842 0.09471 0.0
C352 C 0.99076 0.01395 0.02432 0.0
O353 O 0.03617 0.00745 0.98211 0.0
O354 O 0.04691 0.98986 0.01638 0.0
O355 O 0.00701 0.00891 0.03986 0.0
O356 O 0.99668 0.02749 0.00619 0.0
O357 O 0.03357 0.04949 0.05268 0.0
H358 H 0.03154 0.96944 0.06024 0.0
H359 H 0.06655 0.03184 0.08223 0.0
O360 O 0.02437 0.06705 0.01804 0.0
O361 O 0.0638 0.0472 0.99458 0.0
O362 O 0.07389 0.03002 0.02928 0.0
C363 C 0.07988 0.04297 0.01061 0.0
H364 H 0.01383 0.09996 0.93586 0.0
H365 H 0.04492 0.96295 0.10641 0.0
Co366 Co 0.27286 0.8142 0.26132 0.0
C367 C 0.27894 0.76611 0.25123 0.0
Co368 Co 0.25047 0.80265 0.23096 0.0
C369 C 0.28427 0.83748 0.3059 0.0
C370 C 0.3154 0.81884 0.29029 0.0
N371 N 0.29173 0.82428 0.28644 0.0
N372 N 0.30221 0.84027 0.32194 0.0
C373 C 0.32186 0.82855 0.31225 0.0
H374 H 0.26565 0.84385 0.30885 0.0
H375 H 0.32695 0.80788 0.27829 0.0
C376 C 0.24487 0.85087 0.24103 0.0
N377 N 0.23188 0.79219 0.20588 0.0
C378 C 0.2392 0.77525 0.18975 0.0
C379 C 0.20891 0.79827 0.19967 0.0
N380 N 0.22181 0.77025 0.17382 0.0
C381 C 0.20271 0.78487 0.17965 0.0
C382 C 0.22709 0.79908 0.27631 0.0
O383 O 0.26036 0.84576 0.25725 0.0
O384 O 0.23787 0.83447 0.22691 0.0
O385 O 0.22481 0.79589 0.25348 0.0
O386 O 0.24697 0.80712 0.28402 0.0
O387 O 0.26311 0.77083 0.2353 0.0
H388 H 0.19746 0.81149 0.20908 0.0
H389 H 0.25726 0.76704 0.18935 0.0
O390 O 0.28555 0.78269 0.26524 0.0
O391 O 0.29836 0.82085 0.23883 0.0
O392 O 0.27663 0.80911 0.20822 0.0
C393 C 0.29667 0.81657 0.21614 0.0
H394 H 0.33941 0.82661 0.32073 0.0
H395 H 0.18561 0.78571 0.17023 0.0
Co396 Co 0.51797 0.02618 0.52769 0.0
C397 C 0.53547 0.07175 0.51253 0.0
Co398 Co 0.55436 0.03301 0.54154 0.0
C399 C 0.4703 0.00554 0.52684 0.0
C400 C 0.47693 0.02907 0.496 0.0
N401 N 0.48712 0.02033 0.51664 0.0
N402 N 0.45012 0.00463 0.51339 0.0
C403 C 0.4541 0.01953 0.49403 0.0
H404 H 0.47284 0.99543 0.54374 0.0
H405 H 0.48575 0.04111 0.48287 0.0
C406 C 0.53709 0.98727 0.55626 0.0
N407 N 0.58539 0.03876 0.55174 0.0
C408 C 0.6033 0.04797 0.53724 0.0
C409 C 0.59579 0.03402 0.57343 0.0
N410 N 0.62464 0.04914 0.54877 0.0
C411 C 0.61998 0.04045 0.57168 0.0
C412 C 0.51766 0.04869 0.57275 0.0
O413 O 0.51926 0.99422 0.54324 0.0
O414 O 0.55456 1.00185 0.55878 0.0
O415 O 0.54071 0.04791 0.56968 0.0
O416 O 0.50428 0.03958 0.55675 0.0
O417 O 0.55407 0.06428 0.52411 0.0
H418 H 0.5865 0.02614 0.5893 0.0
H419 H 0.60052 0.05379 0.51849 0.0
O420 O 0.51714 0.05799 0.51214 0.0
O421 O 0.53162 0.01285 0.4988 0.0
O422 O 0.56788 0.01799 0.51345 0.0
C423 C 0.55461 0.01039 0.49666 0.0
H424 H 0.44181 0.02252 0.47904 0.0
H425 H 0.6331 0.0385 0.58606 0.0
Co426 Co 0.28681 0.28899 0.77389 0.0
C427 C 0.273 0.29962 0.72614 0.0
Co428 Co 0.25339 0.27025 0.76496 0.0
C429 C 0.33278 0.29325 0.79539 0.0
C430 C 0.32067 0.32727 0.78078 0.0
N431 N 0.31486 0.30375 0.78253 0.0
N432 N 0.34932 0.30924 0.80223 0.0
C433 C 0.34187 0.33075 0.79315 0.0
H434 H 0.33281 0.27446 0.80106 0.0
H435 H 0.30959 0.34112 0.77217 0.0
C436 C 0.26734 0.25967 0.81281 0.0
N437 N 0.22488 0.25589 0.75619 0.0
C438 C 0.20527 0.26807 0.74792 0.0
C439 C 0.21929 0.23238 0.75425 0.0
N440 N 0.18774 0.25331 0.74093 0.0
C441 C 0.19641 0.23074 0.74446 0.0
C442 C 0.29488 0.2435 0.75465 0.0
O443 O 0.28451 0.27374 0.80622 0.0
O444 O 0.25065 0.25579 0.79761 0.0
O445 O 0.27178 0.24321 0.75404 0.0
O446 O 0.30522 0.26214 0.76232 0.0
O447 O 0.25619 0.28488 0.73219 0.0
H448 H 0.23134 0.21744 0.7588 0.0
H449 H 0.20432 0.28748 0.74564 0.0
O450 O 0.28903 0.30401 0.74184 0.0
O451 O 0.26852 0.31592 0.78514 0.0
O452 O 0.23528 0.29748 0.77582 0.0
C453 C 0.24557 0.31617 0.78322 0.0
H454 H 0.35067 0.34778 0.79594 0.0
H455 H 0.18715 0.21442 0.7398 0.0
Co456 Co 0.01773 0.01603 0.55931 0.0
C457 C 0.01373 0.03045 0.60713 0.0
Co458 Co 0.04187 0.04593 0.56726 0.0
C459 C 1.00372 0.97387 0.53496 0.0
C460 C 0.97615 0.98425 0.56151 0.0
N461 N 0.9982 0.99054 0.55203 0.0
N462 N 0.98606 0.95755 0.53317 0.0
C463 C 0.96869 0.9637 0.55002 0.0
H464 H 0.02064 0.97342 0.5242 0.0
H465 H 0.96613 0.99399 0.57574 0.0
C466 C 0.04543 0.0322 0.51911 0.0
N467 N 0.06142 0.07136 0.5741 0.0
C468 C 0.05359 0.0922 0.58411 0.0
C469 C 0.0848 0.07515 0.56691 0.0
N470 N 0.07081 0.10919 0.58287 0.0
C471 C 0.09059 0.09858 0.57212 0.0
C472 C 0.06399 1.00172 0.57359 0.0
O473 O 0.02864 0.01796 0.52593 0.0
O474 O 0.05423 0.04621 0.53462 0.0
O475 O 0.06684 0.0242 0.57604 0.0
O476 O 0.04379 0.99413 0.56618 0.0
O477 O 0.02944 0.04573 0.59992 0.0
H478 H 0.09631 0.06227 0.55706 0.0
H479 H 0.03488 0.09551 0.59023 0.0
O480 O 0.00682 0.01463 0.59235 0.0
O481 O 0.9919 0.03776 0.55274 0.0
O482 O 0.01639 0.06782 0.55841 0.0
C483 C 0.99538 0.06028 0.5536 0.0
H484 H 0.95181 0.95425 0.55347 0.0
H485 H 0.10748 0.10747 0.56718 0.0
Co486 Co 0.29119 0.77973 0.77981 0.0
C487 C 0.24561 0.76288 0.79569 0.0
Co488 Co 0.28372 0.74441 0.76436 0.0
C489 C 0.30921 0.82741 0.77953 0.0
C490 C 0.29256 0.81848 0.81444 0.0
N491 N 0.29788 0.80951 0.79197 0.0
N492 N 0.31126 0.84719 0.79328 0.0
C493 C 0.30072 0.84179 0.81527 0.0
H494 H 0.31565 0.82604 0.7606 0.0
H495 H 0.28346 0.80866 0.82926 0.0
C496 C 0.32928 0.76168 0.74867 0.0
N497 N 0.27651 0.71455 0.7525 0.0
C498 C 0.26794 0.69627 0.76657 0.0
C499 C 0.27458 0.70714 0.72914 0.0
N500 N 0.26036 0.67793 0.75306 0.0
C501 C 0.26425 0.68463 0.72944 0.0
C502 C 0.26794 0.78209 0.7354 0.0
O503 O 0.32197 0.77941 0.7617 0.0
O504 O 0.31538 0.74358 0.74713 0.0
O505 O 0.26959 0.75931 0.73699 0.0
O506 O 0.27598 0.79476 0.75254 0.0
O507 O 0.25194 0.74541 0.78178 0.0
H508 H 0.2789 0.718 0.71299 0.0
H509 H 0.2653 0.69722 0.78632 0.0
O510 O 0.26047 0.78001 0.79781 0.0
O511 O 0.30661 0.76463 0.80692 0.0
O512 O 0.29808 0.72959 0.79158 0.0
C513 C 0.30764 0.74175 0.80816 0.0
H514 H 0.29954 0.85362 0.83094 0.0
H515 H 0.25885 0.67455 0.71366 0.0
Co516 Co 0.53419 0.03575 0.0005 0.0
C517 C 0.5805 0.0226 0.01818 0.0
Co518 Co 0.54331 0.05491 0.03372 0.0
C519 C 0.50336 0.01062 0.96883 0.0
C520 C 0.5405 0.00952 0.95562 0.0
N521 N 0.52592 0.01775 0.97411 0.0
N522 N 0.50304 0.99868 0.94747 0.0
C523 C 0.52646 0.99781 0.93917 0.0
H524 H 0.48731 0.01487 0.98009 0.0
H525 H 0.55987 0.01268 0.95371 0.0
C526 C 0.49663 0.06745 0.01652 0.0
N527 N 0.55144 0.07295 0.06001 0.0
C528 C 0.56388 0.06511 0.0795 0.0
C529 C 0.54656 0.0965 0.06418 0.0
N530 N 0.56697 0.08275 0.09576 0.0
C531 C 0.55596 0.10256 0.08639 0.0
C532 C 0.5576 0.07723 0.98948 0.0
O533 O 0.50326 0.05331 0.99926 0.0
O534 O 0.5114 0.07079 0.03371 0.0
O535 O 0.55641 0.07881 0.0127 0.0
O536 O 0.5486 0.05913 0.97927 0.0
O537 O 0.57506 0.03872 0.03394 0.0
H538 H 0.53665 0.10839 0.05195 0.0
H539 H 0.5699 0.04658 0.08206 0.0
O540 O 0.56502 0.01823 0.00193 0.0
O541 O 0.5198 0.01256 0.02153 0.0
O542 O 0.53041 0.03082 0.05489 0.0
C543 C 0.52022 0.01334 0.04479 0.0
H544 H 0.53279 0.99079 0.9216 0.0
H545 H 0.55471 0.12003 0.09502 0.0
Co546 Co 0.28505 0.26539 0.28058 0.0
C547 C 0.33407 0.27936 0.2854 0.0
Co548 Co 0.2931 0.29959 0.26185 0.0
C549 C 0.25911 0.22231 0.29466 0.0
C550 C 0.28957 0.2283 0.31733 0.0
N551 N 0.2782 0.23695 0.2973 0.0
N552 N 0.25798 0.20509 0.31236 0.0
C553 C 0.27726 0.20865 0.32653 0.0
H554 H 0.24587 0.22461 0.28044 0.0
H555 H 0.30506 0.23645 0.32556 0.0
C556 C 0.24417 0.28612 0.25694 0.0
N557 N 0.29972 0.32848 0.24637 0.0
C558 C 0.31077 0.3468 0.25718 0.0
C559 C 0.29157 0.33776 0.22506 0.0
N560 N 0.30918 0.36749 0.24408 0.0
C561 C 0.29739 0.36185 0.22359 0.0
C562 C 0.29785 0.25958 0.23046 0.0
O563 O 0.25079 0.26883 0.27108 0.0
O564 O 0.25979 0.30213 0.25135 0.0
O565 O 0.30106 0.28226 0.23192 0.0
O566 O 0.29165 0.24803 0.25007 0.0
O567 O 0.32667 0.29724 0.27253 0.0
H568 H 0.28079 0.32807 0.21224 0.0
H569 H 0.31884 0.34511 0.27502 0.0
O570 O 0.31924 0.26229 0.28971 0.0
O571 O 0.27847 0.28276 0.31103 0.0
O572 O 0.28488 0.31685 0.29181 0.0
C573 C 0.28012 0.30561 0.31182 0.0
H574 H 0.2814 0.19861 0.34312 0.0
H575 H 0.292 0.37448 0.20934 0.0
Co576 Co 0.52811 0.5103 0.06665 0.0
C577 C 0.5265 0.52357 0.11525 0.0
Co578 Co 0.55093 0.54134 0.07421 0.0
C579 C 0.51238 0.46892 0.04161 0.0
C580 C 0.48715 0.47831 0.07077 0.0
N581 N 0.50868 0.48457 0.06005 0.0
N582 N 0.49399 0.45336 0.04014 0.0
C583 C 0.47813 0.45887 0.05862 0.0
H584 H 0.52827 0.46895 0.02934 0.0
H585 H 0.47828 0.48763 0.08599 0.0
C586 C 0.55257 0.52876 0.02546 0.0
N587 N 0.5702 0.56717 0.08039 0.0
C588 C 0.56242 0.58818 0.09008 0.0
C589 C 0.59344 0.57097 0.0727 0.0
N590 N 0.57951 0.60527 0.08811 0.0
C591 C 0.59918 0.59453 0.07729 0.0
C592 C 0.57539 0.49754 0.07738 0.0
O593 O 0.5373 0.51309 0.03271 0.0
O594 O 0.5608 0.54322 0.04086 0.0
O595 O 0.57743 0.5201 0.08015 0.0
O596 O 0.55498 0.48917 0.07155 0.0
O597 O 0.54118 0.53963 0.10763 0.0
H598 H 0.60484 0.55799 0.06286 0.0
H599 H 0.5438 0.59149 0.09645 0.0
O600 O 0.51906 0.5081 0.10033 0.0
O601 O 0.50142 0.53103 0.06185 0.0
O602 O 0.52369 0.56258 0.06811 0.0
C603 C 0.50313 0.55367 0.06366 0.0
H604 H 0.46101 0.44997 0.06254 0.0
H605 H 0.61592 0.6034 0.07178 0.0
Co606 Co 0.793 0.28227 0.28626 0.0
C607 C 0.74708 0.26631 0.30137 0.0
Co608 Co 0.78464 0.24822 0.26854 0.0
C609 C 0.81283 0.3292 0.28662 0.0
C610 C 0.79599 0.32054 0.32151 0.0
N611 N 0.80089 0.31159 0.29894 0.0
N612 N 0.81569 0.34876 0.30051 0.0
C613 C 0.80502 0.34355 0.32249 0.0
H614 H 0.81906 0.32783 0.26763 0.0
H615 H 0.78653 0.31096 0.33625 0.0
C616 C 0.83036 0.26441 0.25323 0.0
N617 N 0.7763 0.2187 0.2566 0.0
C618 C 0.76484 0.20221 0.27085 0.0
C619 C 0.77857 0.20859 0.23424 0.0
N620 N 0.75939 0.18236 0.25848 0.0
C621 C 0.76816 0.18601 0.23537 0.0
C622 C 0.76898 0.28684 0.24195 0.0
O623 O 0.82377 0.28148 0.26752 0.0
O624 O 0.81585 0.24695 0.25072 0.0
O625 O 0.77038 0.26399 0.24208 0.0
O626 O 0.77774 0.29845 0.25954 0.0
O627 O 0.75336 0.24976 0.28639 0.0
H628 H 0.78679 0.21719 0.21817 0.0
H629 H 0.76046 0.20476 0.29017 0.0
O630 O 0.76217 0.28301 0.3048 0.0
O631 O 0.8084 0.26579 0.31288 0.0
O632 O 0.79896 0.23236 0.29483 0.0
C633 C 0.8088 0.24287 0.31233 0.0
H634 H 0.80426 0.3553 0.33822 0.0
H635 H 0.76649 0.17367 0.2203 0.0
Co636 Co 0.03315 0.53393 0.50456 0.0
C637 C 0.08073 0.52294 0.52007 0.0
Co638 Co 0.04401 0.55616 0.5352 0.0
C639 C 0.00545 0.51701 0.46493 0.0
C640 C 0.02808 0.48898 0.47983 0.0
N641 N 0.02279 0.51279 0.48147 0.0
N642 N 0.99939 0.49679 0.45333 0.0
C643 C 0.01381 0.4791 0.46231 0.0
H644 H 0.99714 0.53456 0.46164 0.0
H645 H 0.04075 0.47923 0.49132 0.0
C646 C 0.99619 0.56665 0.52005 0.0
N647 N 0.05402 0.57695 0.55857 0.0
C648 C 0.06809 0.57106 0.57756 0.0
C649 C 0.04873 0.60065 0.56116 0.0
N650 N 0.07174 0.59001 0.59206 0.0
C651 C 0.05944 0.60872 0.58205 0.0
C652 C 0.05491 0.57419 0.48777 0.0
O653 O 1.00192 0.55074 0.50421 0.0
O654 O 0.01195 0.57199 0.53572 0.0
O655 O 0.05542 0.57765 0.51074 0.0
O656 O 0.04536 0.55524 0.47981 0.0
O657 O 0.07583 0.54009 0.53483 0.0
H658 H 0.0374 0.61121 0.54898 0.0
H659 H 0.07457 0.55287 0.58137 0.0
O660 O 0.06448 0.51715 0.50511 0.0
O661 O 0.02074 0.51303 0.52906 0.0
O662 O 0.03273 0.53448 0.55982 0.0
C663 C 0.02209 0.51614 0.552 0.0
H664 H 0.01348 0.46033 0.45715 0.0
H665 H 0.05789 0.62666 0.58957 0.0
Co666 Co 0.78735 0.78558 0.27335 0.0
C667 C 0.77433 0.79514 0.22493 0.0
Co668 Co 0.75459 0.76597 0.26375 0.0
C669 C 0.83235 0.79168 0.29735 0.0
C670 C 0.82372 0.82215 0.27448 0.0
N671 N 0.81567 0.80024 0.28167 0.0
N672 N 0.85041 0.80739 0.30039 0.0
C673 C 0.84522 0.82656 0.28591 0.0
H674 H 0.83124 0.77424 0.30645 0.0
H675 H 0.81431 0.83434 0.26215 0.0
C676 C 0.76767 0.75658 0.31233 0.0
N677 N 0.7254 0.75261 0.25544 0.0
C678 C 0.70835 0.76545 0.24345 0.0
C679 C 0.71434 0.73198 0.26236 0.0
N680 N 0.68681 0.75425 0.24303 0.0
C681 C 0.69051 0.73291 0.25463 0.0
C682 C 0.79549 0.73926 0.25448 0.0
O683 O 0.78417 0.77161 0.30629 0.0
O684 O 0.75209 0.75142 0.29637 0.0
O685 O 0.77244 0.73876 0.2528 0.0
O686 O 0.80537 0.75792 0.26285 0.0
O687 O 0.75752 0.78048 0.23097 0.0
H688 H 0.72258 0.71785 0.27339 0.0
H689 H 0.71152 0.78331 0.23597 0.0
O690 O 0.79021 0.7996 0.24071 0.0
O691 O 0.76953 0.81301 0.28342 0.0
O692 O 0.73674 0.79347 0.27471 0.0
C693 C 0.74658 0.81259 0.28167 0.0
H694 H 0.85577 0.84284 0.28432 0.0
H695 H 0.67674 0.7195 0.25836 0.0
Co696 Co 0.77093 0.28508 0.7695 0.0
C697 C 0.76192 0.2429 0.74596 0.0
Co698 Co 0.75181 0.29079 0.73493 0.0
C699 C 0.78198 0.29507 0.81865 0.0
C700 C 0.80432 0.26581 0.80533 0.0
N701 N 0.78602 0.28103 0.79899 0.0
N702 N 0.79726 0.28971 0.83685 0.0
C703 C 0.81123 0.27106 0.82882 0.0
H704 H 0.76817 0.30924 0.81952 0.0
H705 H 0.81258 0.25233 0.79339 0.0
C706 C 0.75988 0.33307 0.75872 0.0
N707 N 0.7372 0.29519 0.70522 0.0
C708 C 0.74694 0.28702 0.68396 0.0
C709 C 0.717 0.3078 0.69887 0.0
N710 N 0.73416 0.29432 0.6645 0.0
C711 C 0.71497 0.30713 0.67361 0.0
C712 C 0.72061 0.28513 0.77465 0.0
O713 O 0.77063 0.31904 0.77366 0.0
O714 O 0.75047 0.32437 0.73986 0.0
O715 O 0.72074 0.28792 0.75141 0.0
O716 O 0.74065 0.28359 0.7856 0.0
O717 O 0.7531 0.25699 0.72984 0.0
H718 H 0.70494 0.31731 0.71165 0.0
H719 H 0.76337 0.27593 0.68269 0.0
O720 O 0.77066 0.25147 0.76526 0.0
O721 O 0.80144 0.28642 0.75357 0.0
O722 O 0.7832 0.2936 0.719 0.0
C723 C 0.80272 0.29033 0.73064 0.0
H724 H 0.82587 0.26249 0.8388 0.0
H725 H 0.70105 0.31591 0.66281 0.0
Co726 Co 0.78367 0.7656 0.78186 0.0
C727 C 0.83316 0.77706 0.78808 0.0
Co728 Co 0.79419 0.79899 0.76284 0.0
C729 C 0.75761 0.72181 0.79365 0.0
C730 C 0.78456 0.72991 0.81984 0.0
N731 N 0.77518 0.73765 0.79844 0.0
N732 N 0.75578 0.7045 0.81123 0.0
C733 C 0.77278 0.70949 0.82766 0.0
H734 H 0.74623 0.72308 0.77776 0.0
H735 H 0.79855 0.73898 0.82961 0.0
C736 C 0.74474 0.78761 0.75663 0.0
N737 N 0.80331 0.82747 0.74765 0.0
C738 C 0.8134 0.84565 0.75967 0.0
C739 C 0.80179 0.83545 0.72419 0.0
N740 N 0.81795 0.8647 0.74498 0.0
C741 C 0.81092 0.85855 0.72248 0.0
C742 C 0.7981 0.7588 0.73205 0.0
O743 O 0.75023 0.77033 0.77126 0.0
O744 O 0.76117 0.80293 0.75105 0.0
O745 O 0.80237 0.78127 0.73344 0.0
O746 O 0.79062 0.74774 0.75153 0.0
O747 O 0.82738 0.79505 0.77457 0.0
H748 H 0.7942 0.82535 0.70946 0.0
H749 H 0.81732 0.84511 0.77905 0.0
O750 O 0.81707 0.76116 0.79233 0.0
O751 O 0.77673 0.78335 0.81195 0.0
O752 O 0.7856 0.81668 0.79244 0.0
C753 C 0.7795 0.80606 0.81242 0.0
H754 H 0.77586 0.6996 0.8446 0.0
H755 H 0.81157 0.87015 0.70634 0.0
Co756 Co 0.53145 0.53576 0.50451 0.0
C757 C 0.52874 0.56706 0.54542 0.0
Co758 Co 0.54116 0.51791 0.53895 0.0
C759 C 0.50219 0.54649 0.46354 0.0
C760 C 0.52886 0.5736 0.46811 0.0
N761 N 0.52197 0.55166 0.47638 0.0
N762 N 0.4957 0.56467 0.44833 0.0
C763 C 0.51267 0.58168 0.45084 0.0
H764 H 0.4914 0.5306 0.46696 0.0
H765 H 0.54341 0.58389 0.47561 0.0
C766 C 0.5436 0.48683 0.49764 0.0
N767 N 0.55023 0.50226 0.56732 0.0
C768 C 0.56144 0.51193 0.58641 0.0
C769 C 0.54667 0.47901 0.57384 0.0
N770 N 0.56491 0.49573 0.60468 0.0
C771 C 0.55577 0.47491 0.59684 0.0
C772 C 0.49175 0.51232 0.52882 0.0
O773 O 0.53712 0.50602 0.48622 0.0
O774 O 0.54776 0.48841 0.52049 0.0
O775 O 0.50783 0.50698 0.5445 0.0
O776 O 0.49797 0.52594 0.51085 0.0
O777 O 0.53434 0.54786 0.5573 0.0
H778 H 0.53757 0.46601 0.56282 0.0
H779 H 0.56682 0.5306 0.58698 0.0
O780 O 0.52572 0.5653 0.52244 0.0
O781 O 0.56479 0.54567 0.49855 0.0
O782 O 0.57462 0.52872 0.53344 0.0
C783 C 0.58074 0.54155 0.51471 0.0
H784 H 0.51265 0.59925 0.44197 0.0
H785 H 0.55487 0.45823 0.60735 0.0
Co786 Co 0.02345 0.52481 0.02421 0.0
C787 C 0.04084 0.56979 0.0078 0.0
Co788 Co 0.06055 0.53108 0.0366 0.0
C789 C 0.97588 0.50383 0.02505 0.0
C790 C 0.98111 0.52796 0.99444 0.0
N791 N 0.99208 0.51914 0.01462 0.0
N792 N 0.9554 0.50261 0.01211 0.0
C793 C 0.95848 0.5179 0.99292 0.0
H794 H 0.97918 0.49339 0.04159 0.0
H795 H 0.98935 0.5402 0.98112 0.0
C796 C 0.0432 0.48598 0.05283 0.0
N797 N 0.09229 0.53693 0.04481 0.0
C798 C 0.1091 0.54581 0.02876 0.0
C799 C 0.104 0.53407 0.0661 0.0
N800 N 0.13086 0.54886 0.03899 0.0
C801 C 0.12783 0.54138 0.06255 0.0
C802 C 0.02531 0.54794 0.06879 0.0
O803 O 0.02505 0.49318 0.04039 0.0
O804 O 0.0612 0.50013 0.0544 0.0
O805 O 0.0483 0.5466 0.06519 0.0
O806 O 0.0113 0.5389 0.05332 0.0
O807 O 0.05974 0.56215 0.01874 0.0
H808 H 0.09572 0.52734 0.08305 0.0
H809 H 0.10539 0.54981 0.00972 0.0
O810 O 0.02233 0.55627 0.00816 0.0
O811 O 0.03546 0.51081 0.99518 0.0
O812 O 0.07248 0.51538 0.00806 0.0
C813 C 0.05826 0.50783 0.99204 0.0
H814 H 0.94582 0.52069 0.97822 0.0
H815 H 0.14162 0.54169 0.07636 0.0
H816 H 0.03269 0.19492 0.13997 0.0
H817 H 0.02196 0.11328 0.01909 0.0
H818 H 0.04464 0.22054 0.06558 0.0
H819 H 0.03248 0.08066 0.09039 0.0
H820 H 0.02431 0.15308 0.03741 0.0
H821 H 0.02704 0.15384 0.12395 0.0
C822 C 0.03393 0.19208 0.12034 0.0
C823 C 0.03929 0.21154 0.10424 0.0
C824 C 0.02598 0.13729 0.04919 0.0
C825 C 0.0326 0.16433 0.08566 0.0
C826 C 0.0245 0.11437 0.0387 0.0
C827 C 0.02696 0.0932 0.05306 0.0
C828 C 0.02976 0.13962 0.07452 0.0
C829 C 0.0304 0.09627 0.07845 0.0
C830 C 0.03083 0.16853 0.11119 0.0
C831 C 0.04074 0.20638 0.07891 0.0
N832 N 0.03167 0.11889 0.08832 0.0
N833 N 0.03737 0.18361 0.07057 0.0
H834 H 0.12727 0.79319 0.40201 0.0
H835 H 0.18318 0.78026 0.26554 0.0
H836 H 0.08615 0.77206 0.33963 0.0
H837 H 0.22421 0.80615 0.32607 0.0
H838 H 0.14855 0.77358 0.29358 0.0
H839 H 0.16411 0.79444 0.37559 0.0
C840 C 0.12604 0.78866 0.3828 0.0
C841 C 0.10364 0.7827 0.37291 0.0
C842 C 0.16514 0.78063 0.30079 0.0
C843 C 0.14553 0.78412 0.34269 0.0
C844 C 0.18494 0.78447 0.28478 0.0
C845 C 0.20654 0.79395 0.29347 0.0
C846 C 0.16688 0.78637 0.3257 0.0
C847 C 0.20783 0.79891 0.3186 0.0
C848 C 0.14704 0.7894 0.36775 0.0
C849 C 0.10303 0.77692 0.34796 0.0
N850 N 0.18818 0.79518 0.33385 0.0
N851 N 0.12366 0.77788 0.33369 0.0
H852 H 0.54951 0.86111 0.65507 0.0
H853 H 0.51258 0.94685 0.54246 0.0
H854 H 0.53423 0.83226 0.5842 0.0
H855 H 0.56319 0.97022 0.59596 0.0
H856 H 0.51459 0.90594 0.56037 0.0
H857 H 0.54933 0.902 0.63679 0.0
C858 C 0.54619 0.86331 0.63565 0.0
C859 C 0.54203 0.84298 0.62121 0.0
C860 C 0.52525 0.92001 0.56821 0.0
C861 C 0.54111 0.89016 0.60018 0.0
C862 C 0.52403 0.94349 0.55805 0.0
C863 C 0.53777 0.96226 0.56758 0.0
C864 C 0.53982 0.91509 0.5886 0.0
C865 C 0.55233 0.95648 0.58784 0.0
C866 C 0.54611 0.88672 0.62521 0.0
C867 C 0.53774 0.84721 0.5961 0.0
N868 N 0.55277 0.93362 0.59776 0.0
N869 N 0.5371 0.87018 0.58653 0.0
H870 H 0.44129 0.30656 0.92748 0.0
H871 H 0.37786 0.26938 0.80383 0.0
H872 H 0.47295 0.25534 0.87624 0.0
H873 H 0.36362 0.33754 0.83905 0.0
H874 H 0.40816 0.25947 0.83463 0.0
H875 H 0.40703 0.313 0.89993 0.0
C876 C 0.44069 0.29628 0.91073 0.0
C877 C 0.45988 0.28051 0.90393 0.0
C878 C 0.39845 0.27663 0.83558 0.0
C879 C 0.42128 0.28788 0.87256 0.0
C880 C 0.38127 0.28227 0.81804 0.0
C881 C 0.36851 0.30434 0.81892 0.0
C882 C 0.40262 0.29309 0.85427 0.0
C883 C 0.37345 0.32051 0.83762 0.0
C884 C 0.42137 0.30015 0.89495 0.0
C885 C 0.45852 0.26779 0.88197 0.0
N886 N 0.39011 0.31451 0.85472 0.0
N887 N 0.43957 0.27182 0.86698 0.0
H888 H 0.02967 0.86518 0.41517 0.0
H889 H 0.97224 0.91176 0.54312 0.0
H890 H 0.01717 0.81886 0.47848 0.0
H891 H 1.0018 0.95817 0.486 0.0
H892 H 0.98021 0.87686 0.51648 0.0
H893 H 0.01162 0.89892 0.43809 0.0
C894 C 0.02306 0.86211 0.43388 0.0
C895 C 0.02518 0.83932 0.44509 0.0
C896 C 0.98464 0.89474 0.5097 0.0
C897 C 1.00441 0.8777 0.47131 0.0
C898 C 0.97992 0.91456 0.52477 0.0
C899 C 0.98671 0.93763 0.51671 0.0
C900 C 0.99596 0.89825 0.48645 0.0
C901 C 0.99672 0.94052 0.49291 0.0
C902 C 0.01272 0.88133 0.44692 0.0
C903 C 0.01611 0.83624 0.46927 0.0
N904 N 1.00122 0.92103 0.47866 0.0
N905 N 0.00621 0.85528 0.48166 0.0
H906 H 0.483 0.74083 0.70426 0.0
H907 H 0.35287 0.80124 0.72999 0.0
H908 H 0.45516 0.79666 0.65638 0.0
H909 H 0.36173 0.72421 0.73802 0.0
H910 H 0.39339 0.80294 0.70963 0.0
H911 H 0.44186 0.73717 0.72351 0.0
C912 C 0.4683 0.75234 0.69781 0.0
C913 C 0.47261 0.76903 0.67856 0.0
C914 C 0.38645 0.78566 0.71581 0.0
C915 C 0.42563 0.76532 0.70095 0.0
C916 C 0.36333 0.78466 0.72749 0.0
C917 C 0.35371 0.76251 0.73563 0.0
C918 C 0.40062 0.76448 0.71287 0.0
C919 C 0.36826 0.74163 0.73186 0.0
C920 C 0.44482 0.75016 0.70874 0.0
C921 C 0.45275 0.78344 0.67101 0.0
N922 N 0.39106 0.74315 0.72106 0.0
N923 N 0.43033 0.78149 0.68238 0.0
H924 H 0.54793 0.20493 0.90354 0.0
H925 H 0.5908 0.1094 0.00369 0.0
H926 H 0.56981 0.22072 0.97699 0.0
H927 H 0.5462 0.09154 0.94276 0.0
H928 H 0.59816 0.14884 0.98496 0.0
H929 H 0.56111 0.16278 0.90979 0.0
C930 C 0.55602 0.19961 0.92074 0.0
C931 C 0.55731 0.21601 0.94005 0.0
C932 C 0.58721 0.13611 0.97539 0.0
C933 C 0.57263 0.1684 0.94706 0.0
C934 C 0.58301 0.11363 0.98605 0.0
C935 C 0.56728 0.09762 0.97505 0.0
C936 C 0.57523 0.14271 0.95385 0.0
C937 C 0.55811 0.10365 0.95197 0.0
C938 C 0.5635 0.17566 0.92427 0.0
C939 C 0.56801 0.20842 0.9619 0.0
N940 N 0.5617 0.1261 0.94236 0.0
N941 N 0.57506 0.18508 0.9649 0.0
H942 H 0.13427 0.30797 0.14716 0.0
H943 H 0.2047 0.25543 0.26412 0.0
H944 H 0.09818 0.26093 0.1998 0.0
H945 H 0.22771 0.31729 0.2212 0.0
H946 H 0.16669 0.255 0.24091 0.0
H947 H 0.16935 0.30918 0.17347 0.0
C948 C 0.13362 0.29782 0.16429 0.0
C949 C 0.11291 0.28427 0.17101 0.0
C950 C 0.17998 0.26877 0.23675 0.0
C951 C 0.15397 0.28548 0.20171 0.0
C952 C 0.20175 0.26908 0.25005 0.0
C953 C 0.21969 0.28651 0.24485 0.0
C954 C 0.17611 0.28578 0.21773 0.0
C955 C 0.21463 0.30353 0.22615 0.0
C956 C 0.15381 0.29861 0.17945 0.0
C957 C 0.11353 0.2717 0.19372 0.0
N958 N 0.19364 0.30259 0.21331 0.0
N959 N 0.13371 0.27244 0.20808 0.0
H960 H 0.0516 0.03613 0.25352 0.0
H961 H 0.09874 0.02447 0.11452 0.0
H962 H 0.12765 0.04298 0.23209 0.0
H963 H 0.03562 0.98752 0.14389 0.0
H964 H 0.10739 0.03811 0.15604 0.0
H965 H 0.0427 0.02595 0.21117 0.0
C966 C 0.06634 0.03589 0.23983 0.0
C967 C 0.09041 0.04024 0.24629 0.0
C968 C 0.09173 0.02691 0.15335 0.0
C969 C 0.08038 0.02855 0.19812 0.0
C970 C 0.08685 0.01916 0.1298 0.0
C971 C 0.06661 0.00475 0.12601 0.0
C972 C 0.07593 0.02056 0.17302 0.0
C973 C 0.05162 0.99829 0.14622 0.0
C974 C 0.06128 0.02986 0.21578 0.0
C975 C 0.10886 0.03954 0.22788 0.0
N976 N 0.05647 0.00642 0.16891 0.0
N977 N 0.10346 0.03374 0.20456 0.0
H978 H 0.28209 0.84476 0.47673 0.0
H979 H 0.27351 0.87817 0.33557 0.0
H980 H 0.25215 0.91305 0.45197 0.0
H981 H 0.32402 0.82465 0.36325 0.0
H982 H 0.26457 0.89123 0.37774 0.0
H983 H 0.29641 0.8365 0.43487 0.0
C984 C 0.27855 0.85805 0.46247 0.0
C985 C 0.26584 0.87958 0.46775 0.0
C986 C 0.27787 0.87687 0.37453 0.0
C987 C 0.28209 0.8702 0.41981 0.0
C988 C 0.28288 0.86938 0.35055 0.0
C989 C 0.29937 0.85023 0.34605 0.0
C990 C 0.28916 0.86481 0.39408 0.0
C991 C 0.31129 0.83956 0.36596 0.0
C992 C 0.28687 0.85338 0.4386 0.0
C993 C 0.26185 0.8962 0.44859 0.0
N994 N 0.30569 0.84678 0.38918 0.0
N995 N 0.26977 0.89106 0.42534 0.0
H996 H 0.41931 0.06604 0.69528 0.0
H997 H 0.54089 0.06665 0.61211 0.0
H998 H 0.49228 0.06287 0.72307 0.0
H999 H 0.46914 0.05377 0.58487 0.0
H1000 H 0.52228 0.07756 0.65175 0.0
H1001 H 0.43652 0.07394 0.65409 0.0
C1002 C 0.43891 0.06746 0.69281 0.0
C1003 C 0.45446 0.06312 0.71245 0.0
C1004 C 0.51061 0.07268 0.63697 0.0
C1005 C 0.47413 0.07212 0.66558 0.0
C1006 C 0.5212 0.06642 0.61436 0.0
C1007 C 0.50655 0.05871 0.59541 0.0
C1008 C 0.48524 0.07111 0.64063 0.0
C1009 C 0.48114 0.05914 0.59919 0.0
C1010 C 0.4487 0.07192 0.66931 0.0
C1011 C 0.47967 0.06546 0.70829 0.0
N1012 N 0.47128 0.06487 0.62153 0.0
N1013 N 0.48875 0.06947 0.68522 0.0
H1014 H 0.3041 0.16369 0.93476 0.0
H1015 H 0.22856 0.24622 0.84338 0.0
H1016 H 0.24683 0.20985 0.96445 0.0
H1017 H 0.30712 0.24397 0.83825 0.0
H1018 H 0.23034 0.22529 0.88367 0.0
H1019 H 0.30095 0.18485 0.89493 0.0
C1020 C 0.29063 0.17806 0.93285 0.0
C1021 C 0.27571 0.18496 0.9531 0.0
C1022 C 0.24715 0.22942 0.87367 0.0
C1023 C 0.2717 0.20899 0.9072 0.0
C1024 C 0.24616 0.24129 0.85065 0.0
C1025 C 0.26773 0.24705 0.83738 0.0
C1026 C 0.26982 0.22241 0.88315 0.0
C1027 C 0.29002 0.24013 0.84783 0.0
C1028 C 0.28897 0.19022 0.91013 0.0
C1029 C 0.25875 0.20394 0.94943 0.0
N1030 N 0.29048 0.22795 0.86981 0.0
N1031 N 0.25702 0.2151 0.92693 0.0
H1032 H 0.06703 0.02137 0.362 0.0
H1033 H 0.08877 0.05002 0.50187 0.0
H1034 H 0.13919 0.02455 0.39126 0.0
H1035 H 0.02493 0.01282 0.47892 0.0
H1036 H 0.10592 0.04724 0.46 0.0
H1037 H 0.04959 0.02432 0.40379 0.0
C1038 C 0.07917 0.02268 0.37725 0.0
C1039 C 0.10454 0.02266 0.37333 0.0
C1040 C 0.08816 0.03972 0.46419 0.0
C1041 C 0.0848 0.02637 0.42081 0.0
C1042 C 0.07829 0.04144 0.48797 0.0
C1043 C 0.05541 0.03164 0.49378 0.0
C1044 C 0.07484 0.02853 0.44609 0.0
C1045 C 0.04267 0.02056 0.47516 0.0
C1046 C 0.06923 0.02429 0.40101 0.0
C1047 C 0.11952 0.02437 0.39361 0.0
N1048 N 0.05252 0.01941 0.45204 0.0
N1049 N 0.1094 0.02635 0.41657 0.0
H1050 H 0.25883 0.80386 0.58208 0.0
H1051 H 0.26511 0.8303 0.7238 0.0
H1052 H 0.25236 0.87592 0.61097 0.0
H1053 H 0.25146 0.75979 0.69494 0.0
H1054 H 0.25766 0.84792 0.68325 0.0
H1055 H 0.25394 0.78761 0.62367 0.0
C1056 C 0.25627 0.81626 0.59717 0.0
C1057 C 0.25634 0.84127 0.59311 0.0
C1058 C 0.2559 0.82864 0.68594 0.0
C1059 C 0.25081 0.82281 0.64078 0.0
C1060 C 0.26014 0.81858 0.70907 0.0
C1061 C 0.25932 0.79351 0.71261 0.0
C1062 C 0.25109 0.81345 0.66628 0.0
C1063 C 0.25264 0.77918 0.69295 0.0
C1064 C 0.25332 0.80698 0.62092 0.0
C1065 C 0.25259 0.8565 0.61331 0.0
N1066 N 0.24915 0.78933 0.67052 0.0
N1067 N 0.25031 0.84702 0.63637 0.0
H1068 H 0.38892 0.04078 0.85631 0.0
H1069 H 0.49932 0.9657 0.91158 0.0
H1070 H 0.44771 0.00569 0.81542 0.0
H1071 H 0.4584 0.02088 0.95089 0.0
H1072 H 0.46843 0.96662 0.88015 0.0
H1073 H 0.40346 0.02096 0.89402 0.0
C1074 C 0.40453 0.02855 0.85521 0.0
C1075 C 0.41755 0.0253 0.83293 0.0
C1076 C 0.46594 0.97807 0.89603 0.0
C1077 C 0.43369 1.00231 0.87536 0.0
C1078 C 0.4836 0.97761 0.91388 0.0
C1079 C 0.48198 0.99392 0.93331 0.0
C1080 C 0.44676 0.99513 0.89759 0.0
C1081 C 0.46074 0.00834 0.93595 0.0
C1082 C 0.4127 0.01721 0.8766 0.0
C1083 C 0.43746 0.00914 0.83227 0.0
N1084 N 0.44423 0.00909 0.91788 0.0
N1085 N 0.44503 0.99841 0.85321 0.0
H1086 H 0.27688 0.23725 0.07555 0.0
H1087 H 0.29342 0.21102 0.21925 0.0
H1088 H 0.2896 0.16482 0.1025 0.0
H1089 H 0.30281 0.28074 0.18465 0.0
H1090 H 0.29041 0.19309 0.17823 0.0
H1091 H 0.28428 0.25263 0.11626 0.0
C1092 C 0.28127 0.22445 0.09002 0.0
C1093 C 0.28251 0.19955 0.08525 0.0
C1094 C 0.29338 0.21226 0.17964 0.0
C1095 C 0.29092 0.21742 0.13289 0.0
C1096 C 0.29514 0.22256 0.20312 0.0
C1097 C 0.2985 0.24756 0.2057 0.0
C1098 C 0.29456 0.22703 0.15841 0.0
C1099 C 0.30037 0.26144 0.18389 0.0
C1100 C 0.2856 0.23336 0.11342 0.0
C1101 C 0.2885 0.18412 0.10508 0.0
N1102 N 0.29816 0.2511 0.16144 0.0
N1103 N 0.29222 0.19326 0.128 0.0
H1104 H 0.22565 0.10272 0.03633 0.0
H1105 H 0.09548 0.07724 0.97697 0.0
H1106 H 0.18845 0.15158 0.98723 0.0
H1107 H 0.11969 0.03807 0.04096 0.0
H1108 H 0.1328 0.1007 0.97693 0.0
H1109 H 0.19054 0.07538 0.03501 0.0
C1110 C 0.21031 0.10766 0.02513 0.0
C1111 C 0.2102 0.12973 0.01199 0.0
C1112 C 0.13013 0.08686 0.99092 0.0
C1113 C 0.16987 0.09828 0.01021 0.0
C1114 C 0.10875 0.07326 0.99087 0.0
C1115 C 0.10416 0.05543 0.00896 0.0
C1116 C 0.14753 0.08273 0.00909 0.0
C1117 C 0.12228 0.0515 0.02656 0.0
C1118 C 0.19018 0.09207 0.02448 0.0
C1119 C 0.18954 0.135 0.99789 0.0
N1120 N 0.14304 0.06497 0.02619 0.0
N1121 N 0.1705 0.11953 0.99735 0.0
H1122 H 0.72435 0.44898 0.06429 0.0
H1123 H 0.57873 0.44931 0.06751 0.0
H1124 H 0.68191 0.38856 0.04217 0.0
H1125 H 0.6218 0.50983 0.08824 0.0
H1126 H 0.61613 0.42511 0.06252 0.0
H1127 H 0.68679 0.47013 0.0768 0.0
C1128 C 0.7071 0.44015 0.06208 0.0
C1129 C 0.70619 0.41708 0.05199 0.0
C1130 C 0.61736 0.4436 0.06842 0.0
C1131 C 0.66313 0.44114 0.06634 0.0
C1132 C 0.59601 0.4574 0.07138 0.0
C1133 C 0.59719 0.48169 0.07806 0.0
C1134 C 0.63999 0.45422 0.07211 0.0
C1135 C 0.62006 0.49123 0.08287 0.0
C1136 C 0.68566 0.45221 0.0693 0.0
C1137 C 0.68338 0.40642 0.04972 0.0
N1138 N 0.64058 0.47752 0.07957 0.0
N1139 N 0.6627 0.4186 0.05673 0.0
H1140 H 0.92735 0.44807 0.25912 0.0
H1141 H 0.80455 0.39455 0.31387 0.0
H1142 H 0.86301 0.49265 0.2719 0.0
H1143 H 0.85582 0.35167 0.2708 0.0
H1144 H 0.827 0.43085 0.30149 0.0
H1145 H 0.90247 0.41219 0.26528 0.0
C1146 C 0.90794 0.45029 0.26288 0.0
C1147 C 0.89721 0.47333 0.26506 0.0
C1148 C 0.83318 0.41349 0.29462 0.0
C1149 C 0.86887 0.43251 0.27264 0.0
C1150 C 0.82054 0.39285 0.30185 0.0
C1151 C 0.82842 0.37022 0.29333 0.0
C1152 C 0.85407 0.41131 0.2792 0.0
C1153 C 0.84908 0.36886 0.27757 0.0
C1154 C 0.89377 0.42984 0.26638 0.0
C1155 C 0.87198 0.47521 0.26994 0.0
N1156 N 0.86137 0.38912 0.27119 0.0
N1157 N 0.8587 0.45503 0.27396 0.0
H1158 H 0.8434 0.60504 0.55335 0.0
H1159 H 0.96745 0.57793 0.48096 0.0
H1160 H 0.86496 0.65052 0.49202 0.0
H1161 H 0.96784 0.58135 0.55996 0.0
H1162 H 0.9262 0.59626 0.48185 0.0
H1163 H 0.88524 0.58779 0.55368 0.0
C1164 C 0.85687 0.61136 0.53993 0.0
C1165 C 0.85062 0.62939 0.52271 0.0
C1166 C 0.93535 0.593 0.49897 0.0
C1167 C 0.89831 0.60919 0.52255 0.0
C1168 C 0.95887 0.58251 0.4985 0.0
C1169 C 0.9713 0.57826 0.52041 0.0
C1170 C 0.92364 0.59851 0.52156 0.0
C1171 C 0.95911 0.58452 0.54261 0.0
C1172 C 0.88074 0.60157 0.54019 0.0
C1173 C 0.86894 0.63683 0.50575 0.0
N1174 N 0.9359 0.594 0.54265 0.0
N1175 N 0.89174 0.6265 0.50586 0.0
H1176 H 0.1795 0.07544 0.33922 0.0
H1177 H 0.21019 0.2105 0.30148 0.0
H1178 H 0.12369 0.12859 0.32292 0.0
H1179 H 0.26207 0.16104 0.33381 0.0
H1180 H 0.17806 0.18113 0.30932 0.0
H1181 H 0.2097 0.10708 0.33854 0.0
C1182 C 0.17358 0.09389 0.33578 0.0
C1183 C 0.14915 0.09945 0.33089 0.0
C1184 C 0.19644 0.17679 0.31483 0.0
C1185 C 0.18369 0.13573 0.32969 0.0
C1186 C 0.21484 0.19341 0.31011 0.0
C1187 C 0.23888 0.18805 0.3168 0.0
C1188 C 0.20221 0.1546 0.32611 0.0
C1189 C 0.24378 0.16588 0.32844 0.0
C1190 C 0.19083 0.11195 0.33541 0.0
C1191 C 0.14238 0.12362 0.32678 0.0
N1192 N 0.22564 0.14989 0.33256 0.0
N1193 N 0.15968 0.1409 0.32589 0.0
H1194 H 0.30684 0.94418 0.52701 0.0
H1195 H 0.45075 0.95938 0.5325 0.0
H1196 H 0.3574 0.8836 0.52543 0.0
H1197 H 0.40299 0.01465 0.50344 0.0
H1198 H 0.41588 0.93258 0.53752 0.0
H1199 H 0.34135 0.97152 0.52574 0.0
C1200 C 0.32519 0.93662 0.52657 0.0
C1201 C 0.32927 0.91157 0.52623 0.0
C1202 C 0.41305 0.95061 0.53013 0.0
C1203 C 0.3687 0.94273 0.52493 0.0
C1204 C 0.43285 0.96593 0.52745 0.0
C1205 C 0.42964 0.9892 0.51753 0.0
C1206 C 0.38987 0.95878 0.52318 0.0
C1207 C 0.40617 0.99674 0.51095 0.0
C1208 C 0.34483 0.95224 0.52574 0.0
C1209 C 0.35344 0.90279 0.52555 0.0
N1210 N 0.38711 0.98158 0.51397 0.0
N1211 N 0.37228 0.91837 0.52499 0.0
H1212 H 0.84471 0.59177 0.23855 0.0
H1213 H 0.84499 0.73446 0.25651 0.0
H1214 H 0.90518 0.631 0.26626 0.0
H1215 H 0.78044 0.69489 0.24009 0.0
H1216 H 0.86914 0.69735 0.25283 0.0
H1217 H 0.82269 0.63003 0.23227 0.0
C1218 C 0.85341 0.60844 0.24315 0.0
C1219 C 0.87666 0.60826 0.2532 0.0
C1220 C 0.84973 0.69681 0.24981 0.0
C1221 C 0.85172 0.6519 0.246 0.0
C1222 C 0.83593 0.71801 0.25185 0.0
C1223 C 0.81061 0.71769 0.24893 0.0
C1224 C 0.83814 0.67511 0.2449 0.0
C1225 C 0.79989 0.6959 0.2427 0.0
C1226 C 0.84085 0.63023 0.23956 0.0
C1227 C 0.88717 0.63032 0.25872 0.0
N1228 N 0.8137 0.67538 0.24113 0.0
N1229 N 0.87455 0.65125 0.25515 0.0
H1230 H 0.66952 0.43478 0.82869 0.0
H1231 H 0.74843 0.37114 0.72851 0.0
H1232 H 0.70478 0.47911 0.77297 0.0
H1233 H 0.75678 0.35137 0.8048 0.0
H1234 H 0.72938 0.4095 0.74145 0.0
H1235 H 0.69718 0.40123 0.81731 0.0
C1236 C 0.68303 0.43736 0.81402 0.0
C1237 C 0.68496 0.45957 0.80167 0.0
C1238 C 0.73591 0.3969 0.75525 0.0
C1239 C 0.71621 0.42155 0.78853 0.0
C1240 C 0.74678 0.37513 0.74792 0.0
C1241 C 0.75405 0.35809 0.76563 0.0
C1242 C 0.73168 0.40114 0.78035 0.0
C1243 C 0.75145 0.36403 0.79056 0.0
C1244 C 0.69889 0.41839 0.80773 0.0
C1245 C 0.70285 0.46218 0.78291 0.0
N1246 N 0.73989 0.38486 0.79722 0.0
N1247 N 0.71763 0.44321 0.7766 0.0
H1248 H 0.03177 0.83343 0.96516 0.0
H1249 H 0.0382 0.97764 0.94416 0.0
H1250 H 0.03918 0.86623 0.89322 0.0
H1251 H 0.04721 0.94286 0.01465 0.0
H1252 H 0.036 0.9377 0.92525 0.0
H1253 H 0.03424 0.8735 0.9835 0.0
C1254 C 0.03373 0.84903 0.95313 0.0
C1255 C 0.03523 0.84615 0.92746 0.0
C1256 C 0.03859 0.93878 0.94484 0.0
C1257 C 0.03812 0.89269 0.94861 0.0
C1258 C 0.03992 0.96168 0.9557 0.0
C1259 C 0.04312 0.96395 0.98116 0.0
C1260 C 0.04009 0.91765 0.95944 0.0
C1261 C 0.04497 0.94231 0.99498 0.0
C1262 C 0.03527 0.87201 0.96369 0.0
C1263 C 0.03791 0.86733 0.91304 0.0
N1264 N 0.0433 0.92031 0.98405 0.0
N1265 N 0.0392 0.88951 0.92373 0.0
H1266 H 0.95688 0.28404 0.69602 0.0
H1267 H 0.81254 0.29638 0.68135 0.0
H1268 H 0.92256 0.303 0.62789 0.0
H1269 H 0.84726 0.28245 0.75045 0.0
H1270 H 0.85257 0.29457 0.66046 0.0
H1271 H 0.91654 0.27806 0.71519 0.0
C1272 C 0.94088 0.28659 0.68502 0.0
C1273 C 0.94298 0.29433 0.66046 0.0
C1274 C 0.85139 0.29186 0.68019 0.0
C1275 C 0.89694 0.28783 0.68223 0.0
C1276 C 0.82858 0.29301 0.69212 0.0
C1277 C 0.82663 0.28982 0.71768 0.0
C1278 C 0.87234 0.2875 0.69396 0.0
C1279 C 0.84795 0.28523 0.73072 0.0
C1280 C 0.91787 0.2833 0.69598 0.0
C1281 C 0.92171 0.2973 0.64698 0.0
N1282 N 0.86993 0.28429 0.71871 0.0
N1283 N 0.89953 0.29427 0.65812 0.0
H1284 H 0.48867 0.21233 0.45616 0.0
H1285 H 0.57384 0.10225 0.50065 0.0
H1286 H 0.56497 0.20885 0.43506 0.0
H1287 H 0.49586 0.09729 0.4951 0.0
H1288 H 0.57201 0.14208 0.48 0.0
H1289 H 0.49185 0.17156 0.47341 0.0
C1290 C 0.50615 0.20297 0.45499 0.0
C1291 C 0.52655 0.21432 0.44392 0.0
C1292 C 0.55533 0.13223 0.48324 0.0
C1293 C 0.53046 0.16704 0.46447 0.0
C1294 C 0.55632 0.10947 0.49516 0.0
C1295 C 0.53496 0.09614 0.4998 0.0
C1296 C 0.53274 0.1422 0.47619 0.0
C1297 C 0.51286 0.10665 0.49203 0.0
C1298 C 0.50793 0.17954 0.46491 0.0
C1299 C 0.54867 0.20093 0.44313 0.0
N1300 N 0.51234 0.12892 0.48092 0.0
N1301 N 0.5501 0.17822 0.45349 0.0
H1302 H 0.59448 0.84222 0.15626 0.0
H1303 H 0.64708 0.73027 0.22796 0.0
H1304 H 0.54787 0.78379 0.17958 0.0
H1305 H 0.6751 0.8018 0.23717 0.0
H1306 H 0.61113 0.74835 0.20861 0.0
H1307 H 0.62549 0.82696 0.18423 0.0
C1308 C 0.59063 0.82644 0.16756 0.0
C1309 C 0.56862 0.81425 0.1656 0.0
C1310 C 0.62516 0.75998 0.2151 0.0
C1311 C 0.60413 0.79637 0.197 0.0
C1312 C 0.64564 0.74969 0.22613 0.0
C1313 C 0.66452 0.76441 0.23364 0.0
C1314 C 0.62379 0.78508 0.21135 0.0
C1315 C 0.6616 0.78956 0.23083 0.0
C1316 C 0.60829 0.81774 0.18349 0.0
C1317 C 0.56456 0.79382 0.18063 0.0
N1318 N 0.64184 0.79904 0.2196 0.0
N1319 N 0.58235 0.78524 0.19539 0.0
H1320 H 0.05388 0.26237 0.56218 0.0
H1321 H 0.041 0.12897 0.61753 0.0
H1322 H 1.00235 0.2424 0.6202 0.0
H1323 H 0.08944 0.14667 0.55637 0.0
H1324 H 0.02765 0.17108 0.61942 0.0
H1325 H 0.06683 0.22017 0.55901 0.0
C1326 C 0.04499 0.2491 0.57397 0.0
C1327 C 0.02716 0.25601 0.59167 0.0
C1328 C 0.04131 0.16584 0.60565 0.0
C1329 C 0.04224 0.20785 0.58841 0.0
C1330 C 0.049 0.14186 0.60468 0.0
C1331 C 0.06623 0.1344 0.58673 0.0
C1332 C 0.05093 0.18251 0.58851 0.0
C1333 C 0.07627 0.15176 0.57064 0.0
C1334 C 0.05256 0.22505 0.57228 0.0
C1335 C 0.01632 0.238 0.60644 0.0
N1336 N 0.06833 0.17506 0.57178 0.0
N1337 N 0.0242 0.21479 0.60462 0.0
H1338 H 0.59049 0.25406 0.34008 0.0
H1339 H 0.70958 0.23501 0.29475 0.0
H1340 H 0.62325 0.28876 0.40099 0.0
H1341 H 0.72767 0.29705 0.33704 0.0
H1342 H 0.66906 0.23512 0.3145 0.0
H1343 H 0.63059 0.251 0.31949 0.0
C1344 C 0.60617 0.2608 0.34931 0.0
C1345 C 0.6033 0.27148 0.37251 0.0
C1346 C 0.68164 0.24898 0.31931 0.0
C1347 C 0.64998 0.26786 0.34887 0.0
C1348 C 0.70504 0.24879 0.30812 0.0
C1349 C 0.72226 0.26618 0.31396 0.0
C1350 C 0.67505 0.26669 0.3367 0.0
C1351 C 0.71509 0.28337 0.33173 0.0
C1352 C 0.62926 0.2589 0.33755 0.0
C1353 C 0.62447 0.28015 0.38326 0.0
N1354 N 0.69218 0.28313 0.34246 0.0
N1355 N 0.64675 0.27831 0.37133 0.0
H1356 H 0.50784 0.86673 0.07163 0.0
H1357 H 0.52659 0.00315 0.09378 0.0
H1358 H 0.49638 0.89327 0.14536 0.0
H1359 H 0.49341 0.97644 0.02871 0.0
H1360 H 0.51845 0.96432 0.11448 0.0
H1361 H 0.50753 0.90796 0.05611 0.0
C1362 C 0.50539 0.8813 0.08458 0.0
C1363 C 0.50215 0.87671 0.10978 0.0
C1364 C 0.51255 0.96732 0.09586 0.0
C1365 C 0.50172 0.92389 0.09212 0.0
C1366 C 0.51715 0.98936 0.08406 0.0
C1367 C 0.51117 0.99271 0.05933 0.0
C1368 C 0.50226 0.94874 0.08259 0.0
C1369 C 0.49884 0.97441 0.0476 0.0
C1370 C 0.50495 0.90479 0.07569 0.0
C1371 C 0.49889 0.89623 0.12576 0.0
N1372 N 0.4952 0.95303 0.05919 0.0
N1373 N 0.499 0.91919 0.11666 0.0
H1374 H 0.98244 0.79502 0.84296 0.0
H1375 H 0.84578 0.74844 0.82746 0.0
H1376 H 0.93697 0.76902 0.9032 0.0
H1377 H 0.87516 0.80373 0.77931 0.0
H1378 H 0.88281 0.74952 0.85142 0.0
H1379 H 0.94716 0.79252 0.8158 0.0
C1380 C 0.9652 0.78861 0.85047 0.0
C1381 C 0.96284 0.78233 0.87558 0.0
C1382 C 0.8813 0.7613 0.8355 0.0
C1383 C 0.92239 0.77903 0.84439 0.0
C1384 C 0.86012 0.7606 0.82163 0.0
C1385 C 0.85709 0.77599 0.80113 0.0
C1386 C 0.90014 0.77721 0.82883 0.0
C1387 C 0.87653 0.79148 0.79487 0.0
C1388 C 0.94501 0.78731 0.83496 0.0
C1389 C 0.93983 0.77426 0.88412 0.0
N1390 N 0.89716 0.79164 0.80854 0.0
N1391 N 0.92078 0.7727 0.86867 0.0
H1392 H 0.88292 0.11836 0.8525 0.0
H1393 H 0.96749 0.02997 0.9272 0.0
H1394 H 0.87239 0.04173 0.85752 0.0
H1395 H 0.97239 0.10752 0.9294 0.0
H1396 H 0.9286 0.03434 0.90705 0.0
H1397 H 0.90972 0.11571 0.88748 0.0
C1398 C 0.88531 0.10116 0.86188 0.0
C1399 C 0.87547 0.08025 0.85244 0.0
C1400 C 0.93806 0.05042 0.91213 0.0
C1401 C 0.90717 0.07673 0.89123 0.0
C1402 C 0.96035 0.04794 0.92357 0.0
C1403 C 0.97342 0.0684 0.9298 0.0
C1404 C 0.92881 0.07355 0.9066 0.0
C1405 C 0.96331 0.09122 0.92443 0.0
C1406 C 0.90093 0.09955 0.88157 0.0
C1407 C 0.87953 0.05826 0.86461 0.0
N1408 N 0.9417 0.09317 0.91297 0.0
N1409 N 0.89563 0.05693 0.88307 0.0
H1410 H 0.74294 0.23293 0.51995 0.0
H1411 H 0.7795 0.29428 0.64462 0.0
H1412 H 0.80942 0.21732 0.55811 0.0
H1413 H 0.70436 0.28272 0.62769 0.0
H1414 H 0.79221 0.27678 0.60535 0.0
H1415 H 0.7301 0.26056 0.55293 0.0
C1416 C 0.7549 0.23549 0.53515 0.0
C1417 C 0.77719 0.22274 0.53651 0.0
C1418 C 0.77292 0.27837 0.61005 0.0
C1419 C 0.76286 0.25442 0.57364 0.0
C1420 C 0.76568 0.28834 0.63236 0.0
C1421 C 0.74092 0.2893 0.63947 0.0
C1422 C 0.75527 0.26933 0.59473 0.0
C1423 C 0.72363 0.28204 0.62279 0.0
C1424 C 0.74755 0.25118 0.55386 0.0
C1425 C 0.79199 0.22661 0.55654 0.0
N1426 N 0.73115 0.27191 0.60118 0.0
N1427 N 0.78457 0.24217 0.57432 0.0
H1428 H 0.58012 0.98962 0.34547 0.0
H1429 H 0.60317 0.00293 0.48636 0.0
H1430 H 0.65197 0.9832 0.37542 0.0
H1431 H 0.53182 0.99403 0.45645 0.0
H1432 H 0.62169 0.9908 0.44707 0.0
H1433 H 0.56227 0.98642 0.3867 0.0
C1434 C 0.59212 0.9874 0.36083 0.0
C1435 C 0.6175 0.98714 0.35728 0.0
C1436 C 0.602 0.99111 0.44925 0.0
C1437 C 0.59727 0.98366 0.40448 0.0
C1438 C 0.5914 0.99812 0.47161 0.0
C1439 C 0.56593 1.00001 0.47439 0.0
C1440 C 0.58696 0.98623 0.42958 0.0
C1441 C 0.55155 0.99324 0.4549 0.0
C1442 C 0.58193 0.9854 0.38435 0.0
C1443 C 0.63228 0.98374 0.37759 0.0
N1444 N 0.56229 0.98698 0.43316 0.0
N1445 N 0.62192 0.98256 0.40053 0.0
H1446 H 0.79175 0.89814 0.1014 0.0
H1447 H 0.7497 0.78345 0.18348 0.0
H1448 H 0.76797 0.83169 0.07064 0.0
H1449 H 0.79938 0.83585 0.21007 0.0
H1450 H 0.75007 0.80449 0.14355 0.0
H1451 H 0.78805 0.87955 0.14286 0.0
C1452 C 0.78519 0.8799 0.10338 0.0
C1453 C 0.77999 0.86654 0.08245 0.0
C1454 C 0.7609 0.81142 0.15811 0.0
C1455 C 0.77586 0.84507 0.12981 0.0
C1456 C 0.76071 0.79937 0.18097 0.0
C1457 C 0.77473 0.80764 0.20026 0.0
C1458 C 0.77482 0.83231 0.15439 0.0
C1459 C 0.78849 0.82857 0.19575 0.0
C1460 C 0.78336 0.86918 0.12702 0.0
C1461 C 0.77209 0.84273 0.08619 0.0
N1462 N 0.78811 0.84019 0.17343 0.0
N1463 N 0.77022 0.83286 0.10923 0.0
H1464 H 0.96108 0.08131 0.74817 0.0
H1465 H 0.97217 0.00837 0.62355 0.0
H1466 H 0.89998 0.04689 0.7158 0.0
H1467 H 0.02516 0.06058 0.64418 0.0
H1468 H 0.94719 0.01902 0.65974 0.0
H1469 H 0.98598 0.07209 0.71152 0.0
C1470 C 0.95284 0.07208 0.73317 0.0
C1471 C 0.92851 0.06472 0.735 0.0
C1472 C 0.96434 0.02804 0.65638 0.0
C1473 C 0.95696 0.0537 0.69338 0.0
C1474 C 0.97875 0.02177 0.63592 0.0
C1475 C 1.00076 0.03363 0.63089 0.0
C1476 C 0.97211 0.04611 0.67198 0.0
C1477 C 0.0083 0.051 0.6474 0.0
C1478 C 0.96706 0.06678 0.71233 0.0
C1479 C 0.91865 0.05294 0.71505 0.0
N1480 N 0.99395 0.05677 0.66723 0.0
N1481 N 0.93305 0.0475 0.69512 0.0
H1482 H 0.86611 0.18255 0.44676 0.0
H1483 H 0.83364 0.25748 0.35257 0.0
H1484 H 0.80446 0.14311 0.42265 0.0
H1485 H 0.80895 0.19402 0.31612 0.0
H1486 H 0.84774 0.23166 0.38629 0.0
H1487 H 0.87066 0.20083 0.40571 0.0
C1488 C 0.85428 0.17693 0.43238 0.0
C1489 C 0.83495 0.16138 0.43774 0.0
C1490 C 0.83993 0.22336 0.37052 0.0
C1491 C 0.83914 0.18293 0.39166 0.0
C1492 C 0.83158 0.23814 0.35148 0.0
C1493 C 0.81978 0.22794 0.33177 0.0
C1494 C 0.8362 0.19833 0.36978 0.0
C1495 C 0.81768 0.20273 0.33113 0.0
C1496 C 0.85656 0.1877 0.40921 0.0
C1497 C 0.81969 0.15491 0.41894 0.0
N1498 N 0.82534 0.18885 0.35012 0.0
N1499 N 0.82188 0.16605 0.39667 0.0
H1500 H 0.57794 0.06676 0.25063 0.0
H1501 H 0.60509 0.05383 0.10701 0.0
H1502 H 0.63282 0.01841 0.21931 0.0
H1503 H 0.55263 0.10449 0.13806 0.0
H1504 H 0.61837 0.04349 0.14825 0.0
H1505 H 0.57048 0.08295 0.20974 0.0
C1506 C 0.58838 0.05946 0.23516 0.0
C1507 C 0.6059 0.04102 0.23839 0.0
C1508 C 0.60414 0.05707 0.14608 0.0
C1509 C 0.59756 0.05968 0.19157 0.0
C1510 C 0.59658 0.06293 0.12259 0.0
C1511 C 0.57754 0.07972 0.11933 0.0
C1512 C 0.59238 0.06796 0.16641 0.0
C1513 C 0.56737 0.09143 0.13992 0.0
C1514 C 0.58421 0.06886 0.21183 0.0
C1515 C 0.61903 0.0325 0.21769 0.0
N1516 N 0.57469 0.08506 0.16271 0.0
N1517 N 0.6145 0.04184 0.19512 0.0
H1518 H 0.78949 0.84482 0.96676 0.0
H1519 H 0.78194 0.85516 0.81953 0.0
H1520 H 0.78185 0.91294 0.92849 0.0
H1521 H 0.77543 0.78807 0.85992 0.0
H1522 H 0.78377 0.87661 0.85856 0.0
H1523 H 0.78698 0.82397 0.92757 0.0
C1524 C 0.78748 0.85548 0.95011 0.0
C1525 C 0.78594 0.88081 0.95114 0.0
C1526 C 0.78177 0.85722 0.85893 0.0
C1527 C 0.78292 0.85675 0.90571 0.0
C1528 C 0.78064 0.8449 0.83657 0.0
C1529 C 0.77833 0.81964 0.83621 0.0
C1530 C 0.78092 0.8443 0.88136 0.0
C1531 C 0.77699 0.8075 0.85909 0.0
C1532 C 0.7859 0.84348 0.92765 0.0
C1533 C 0.78319 0.89344 0.92874 0.0
N1534 N 0.77844 0.81986 0.88056 0.0
N1535 N 0.78181 0.88135 0.90707 0.0
H1536 H 0.84048 0.96384 0.004 0.0
H1537 H 0.97694 0.97475 0.05254 0.0
H1538 H 0.88312 0.90325 0.03015 0.0
H1539 H 0.9491 0.02443 0.99816 0.0
H1540 H 0.93914 0.95199 0.05091 0.0
H1541 H 0.87655 0.98956 0.00758 0.0
C1542 C 0.85728 0.95594 0.01063 0.0
C1543 C 0.8586 0.93117 0.01663 0.0
C1544 C 0.94117 0.96799 0.03947 0.0
C1545 C 0.89996 0.96071 0.02121 0.0
C1546 C 0.96276 0.98117 0.04053 0.0
C1547 C 0.96642 1.00173 0.02553 0.0
C1548 C 0.92262 0.97543 0.02358 0.0
C1549 C 0.94722 0.0088 0.01014 0.0
C1550 C 0.87792 0.97063 0.01257 0.0
C1551 C 0.88107 0.92209 0.02507 0.0
N1552 N 0.92624 0.99578 0.00961 0.0
N1553 N 0.9006 0.93676 0.02723 0.0
H1554 H 0.39647 0.66472 0.03152 0.0
H1555 H 0.4564 0.53863 0.06665 0.0
H1556 H 0.35572 0.60239 0.0555 0.0
H1557 H 0.49905 0.60311 0.05852 0.0
H1558 H 0.41937 0.56297 0.06463 0.0
H1559 H 0.43403 0.64441 0.0445 0.0
C1560 C 0.39534 0.64701 0.04006 0.0
C1561 C 0.37302 0.63502 0.04206 0.0
C1562 C 0.43676 0.57193 0.06341 0.0
C1563 C 0.41581 0.61165 0.05652 0.0
C1564 C 0.45798 0.55798 0.06433 0.0
C1565 C 0.48087 0.56885 0.06238 0.0
C1566 C 0.43827 0.59699 0.06015 0.0
C1567 C 0.48174 0.59403 0.05986 0.0
C1568 C 0.4168 0.6354 0.04735 0.0
C1569 C 0.37257 0.61216 0.05329 0.0
N1570 N 0.46067 0.6073 0.05852 0.0
N1571 N 0.39371 0.60108 0.05974 0.0
H1572 H 0.19845 0.55022 0.81802 0.0
H1573 H 0.21573 0.66626 0.73848 0.0
H1574 H 0.13879 0.60082 0.80805 0.0
H1575 H 0.27124 0.64718 0.78992 0.0
H1576 H 0.18836 0.63718 0.75895 0.0
H1577 H 0.22715 0.58177 0.80512 0.0
C1578 C 0.19149 0.56817 0.81384 0.0
C1579 C 0.16628 0.573 0.81407 0.0
C1580 C 0.20659 0.63932 0.76565 0.0
C1581 C 0.19865 0.60843 0.79837 0.0
C1582 C 0.22222 0.65551 0.75378 0.0
C1583 C 0.24568 0.65868 0.76248 0.0
C1584 C 0.21476 0.62595 0.78596 0.0
C1585 C 0.25326 0.64488 0.78271 0.0
C1586 C 0.2078 0.58602 0.80637 0.0
C1587 C 0.1581 0.59643 0.80828 0.0
N1588 N 0.23788 0.62884 0.79373 0.0
N1589 N 0.17423 0.61316 0.80002 0.0
H1590 H 0.19814 0.41519 0.50358 0.0
H1591 H 0.12212 0.53403 0.54514 0.0
H1592 H 0.23176 0.47565 0.53723 0.0
H1593 H 0.0946 0.48118 0.49611 0.0
H1594 H 0.16122 0.5117 0.5456 0.0
H1595 H 0.1592 0.43754 0.50408 0.0
C1596 C 0.19736 0.43312 0.51124 0.0
C1597 C 0.21846 0.44344 0.52039 0.0
C1598 C 0.14664 0.505 0.53471 0.0
C1599 C 0.17347 0.46937 0.52105 0.0
C1600 C 0.12423 0.51775 0.53445 0.0
C1601 C 0.10486 0.50963 0.52049 0.0
C1602 C 0.14982 0.48367 0.52116 0.0
C1603 C 0.10889 0.48831 0.50708 0.0
C1604 C 0.17504 0.44595 0.51142 0.0
C1605 C 0.2161 0.46687 0.52996 0.0
N1606 N 0.13074 0.47612 0.50784 0.0
N1607 N 0.19411 0.47895 0.5301 0.0
H1608 H 0.90882 0.98013 0.78862 0.0
H1609 H 0.79788 0.89063 0.78161 0.0
H1610 H 0.83527 1.00151 0.80981 0.0
H1611 H 0.8571 0.88943 0.72795 0.0
H1612 H 0.81434 0.9272 0.79916 0.0
H1613 H 0.89341 0.9416 0.77419 0.0
C1614 C 0.88956 0.97637 0.79091 0.0
C1615 C 0.87322 0.99381 0.80048 0.0
C1616 C 0.82366 0.91903 0.78346 0.0
C1617 C 0.85565 0.95033 0.7839 0.0
C1618 C 0.81425 0.89837 0.77344 0.0
C1619 C 0.82611 0.88746 0.75324 0.0
C1620 C 0.84538 0.92847 0.77352 0.0
C1621 C 0.84739 0.89774 0.74332 0.0
C1622 C 0.88078 0.95465 0.78235 0.0
C1623 C 0.84839 0.98841 0.80258 0.0
N1624 N 0.85657 0.91768 0.75373 0.0
N1625 N 0.84032 0.96709 0.79434 0.0
H1626 H 0.76538 0.11339 0.52756 0.0
H1627 H 0.63758 0.05488 0.50031 0.0
H1628 H 0.72578 0.12906 0.4616 0.0
H1629 H 0.66388 0.06438 0.57355 0.0
H1630 H 0.67402 0.07421 0.48356 0.0
H1631 H 0.73264 0.08707 0.54178 0.0
C1632 C 0.74998 0.11108 0.51586 0.0
C1633 C 0.74822 0.12373 0.49342 0.0
C1634 C 0.6718 0.07193 0.50329 0.0
C1635 C 0.71071 0.09354 0.50974 0.0
C1636 C 0.65088 0.06104 0.51297 0.0
C1637 C 0.64723 0.05841 0.53855 0.0
C1638 C 0.68942 0.07997 0.51921 0.0
C1639 C 0.66575 0.066 0.55379 0.0
C1640 C 0.73125 0.09611 0.5241 0.0
C1641 C 0.72781 0.11987 0.47911 0.0
N1642 N 0.686 0.07655 0.54388 0.0
N1643 N 0.70975 0.10518 0.48758 0.0
H1644 H 0.20893 0.46591 0.76249 0.0
H1645 H 0.19653 0.32332 0.77849 0.0
H1646 H 0.14045 0.42887 0.76022 0.0
H1647 H 0.26364 0.36145 0.78754 0.0
H1648 H 0.17592 0.36156 0.76946 0.0
H1649 H 0.23011 0.42705 0.76615 0.0
C1650 C 0.19841 0.44958 0.76204 0.0
C1651 C 0.17286 0.45059 0.76152 0.0
C1652 C 0.19512 0.36158 0.7736 0.0
C1653 C 0.19686 0.40624 0.7664 0.0
C1654 C 0.20683 0.33979 0.77906 0.0
C1655 C 0.23186 0.3392 0.78373 0.0
C1656 C 0.20854 0.3829 0.77276 0.0
C1657 C 0.24431 0.36107 0.78411 0.0
C1658 C 0.21048 0.42741 0.7645 0.0
C1659 C 0.16016 0.42889 0.76093 0.0
N1660 N 0.23254 0.38204 0.77848 0.0
N1661 N 0.17227 0.40757 0.7638 0.0
H1662 H 0.3869 0.65497 0.27046 0.0
H1663 H 0.2672 0.72509 0.22685 0.0
H1664 H 0.32462 0.61749 0.24423 0.0
H1665 H 0.31967 0.75358 0.276 0.0
H1666 H 0.29059 0.68695 0.22576 0.0
H1667 H 0.36575 0.69322 0.2632 0.0
C1668 C 0.36891 0.65481 0.26276 0.0
C1669 C 0.35728 0.63307 0.25834 0.0
C1670 C 0.29686 0.7016 0.23677 0.0
C1671 C 0.33287 0.67674 0.25038 0.0
C1672 C 0.28352 0.72327 0.23752 0.0
C1673 C 0.29143 0.74242 0.25171 0.0
C1674 C 0.31837 0.69936 0.25 0.0
C1675 C 0.31277 0.73923 0.265 0.0
C1676 C 0.3568 0.67664 0.25878 0.0
C1677 C 0.33412 0.63391 0.24805 0.0
N1678 N 0.32553 0.71814 0.26373 0.0
N1679 N 0.32244 0.65548 0.24471 0.0
H1680 H 0.53351 0.69545 0.64152 0.0
H1681 H 0.52316 0.61118 0.52277 0.0
H1682 H 0.54716 0.71904 0.5667 0.0
H1683 H 0.53375 0.57985 0.59465 0.0
H1684 H 0.52579 0.65128 0.54021 0.0
H1685 H 0.52793 0.65399 0.62653 0.0
C1686 C 0.53517 0.69208 0.622 0.0
C1687 C 0.54095 0.71109 0.60547 0.0
C1688 C 0.52742 0.63572 0.55232 0.0
C1689 C 0.5343 0.66345 0.58808 0.0
C1690 C 0.52578 0.61262 0.54233 0.0
C1691 C 0.52817 0.59171 0.55711 0.0
C1692 C 0.53129 0.63852 0.57755 0.0
C1693 C 0.5317 0.59525 0.58241 0.0
C1694 C 0.5321 0.66831 0.61345 0.0
C1695 C 0.54293 0.70525 0.58034 0.0
N1696 N 0.53312 0.61807 0.59179 0.0
N1697 N 0.53953 0.68228 0.57256 0.0
H1698 H 0.57148 0.27779 0.83253 0.0
H1699 H 0.71637 0.2839 0.82429 0.0
H1700 H 0.6171 0.29445 0.89314 0.0
H1701 H 0.67308 0.28534 0.7592 0.0
H1702 H 0.67943 0.28415 0.84953 0.0
H1703 H 0.60779 0.27748 0.80507 0.0
C1704 C 0.5891 0.28141 0.84002 0.0
C1705 C 0.59138 0.28608 0.86512 0.0
C1706 C 0.67789 0.28445 0.82974 0.0
C1707 C 0.63264 0.28565 0.83405 0.0
C1708 C 0.69903 0.2842 0.81524 0.0
C1709 C 0.6978 0.28461 0.78954 0.0
C1710 C 0.65518 0.28502 0.81862 0.0
C1711 C 0.67478 0.28504 0.77896 0.0
C1712 C 0.60973 0.28128 0.82436 0.0
C1713 C 0.61452 0.29073 0.87393 0.0
N1714 N 0.65423 0.2852 0.79361 0.0
N1715 N 0.63424 0.2903 0.85841 0.0
H1716 H 0.05095 0.36113 0.1543 0.0
H1717 H 0.01733 0.44614 0.04016 0.0
H1718 H 0.03534 0.33181 0.08372 0.0
H1719 H 0.0694 0.46876 0.09255 0.0
H1720 H 0.01796 0.40561 0.05896 0.0
H1721 H 0.05244 0.40174 0.13532 0.0
C1722 C 0.04788 0.36316 0.13482 0.0
C1723 C 0.04313 0.34278 0.12066 0.0
C1724 C 0.02926 0.41942 0.06637 0.0
C1725 C 0.04416 0.38964 0.09883 0.0
C1726 C 0.02885 0.44268 0.05568 0.0
C1727 C 0.0434 0.46114 0.06462 0.0
C1728 C 0.0438 0.41439 0.08674 0.0
C1729 C 0.05796 0.45525 0.08485 0.0
C1730 C 0.04878 0.3864 0.12398 0.0
C1731 C 0.03925 0.34679 0.09544 0.0
N1732 N 0.05759 0.43261 0.09533 0.0
N1733 N 0.03954 0.36961 0.08549 0.0
H1734 H 0.94095 0.77965 0.42469 0.0
H1735 H 0.89602 0.82426 0.2934 0.0
H1736 H 0.98993 0.79709 0.36366 0.0
H1737 H 0.85011 0.78436 0.3445 0.0
H1738 H 0.92996 0.81898 0.32128 0.0
H1739 H 0.9064 0.78543 0.39752 0.0
C1740 C 0.94444 0.78465 0.40563 0.0
C1741 C 0.96835 0.7878 0.39641 0.0
C1742 C 0.91245 0.81134 0.32636 0.0
C1743 C 0.92909 0.79464 0.36549 0.0
C1744 C 0.89312 0.81449 0.31055 0.0
C1745 C 0.87039 0.80461 0.31666 0.0
C1746 C 0.90887 0.79851 0.34855 0.0
C1747 C 0.86751 0.79193 0.339 0.0
C1748 C 0.92476 0.78789 0.39016 0.0
C1749 C 0.97184 0.79429 0.37155 0.0
N1750 N 0.88654 0.7893 0.35423 0.0
N1751 N 0.95242 0.7976 0.357 0.0
H1752 H 0.51086 0.31601 0.97733 0.0
H1753 H 0.50695 0.45681 0.99217 0.0
H1754 H 0.51986 0.36502 0.9156 0.0
H1755 H 0.47693 0.4083 0.04717 0.0
H1756 H 0.50942 0.42378 0.96295 0.0
H1757 H 0.49617 0.34946 0.00253 0.0
C1758 C 0.50957 0.33382 0.96902 0.0
C1759 C 0.51687 0.33788 0.94445 0.0
C1760 C 0.50192 0.42038 0.98127 0.0
C1761 C 0.50023 0.37623 0.97323 0.0
C1762 C 0.50066 0.43917 0.99794 0.0
C1763 C 0.49211 0.43501 0.0221 0.0
C1764 C 0.49499 0.39721 0.98902 0.0
C1765 C 0.48371 0.41207 0.02868 0.0
C1766 C 0.50104 0.35288 0.9834 0.0
C1767 C 0.51459 0.36122 0.93456 0.0
N1768 N 0.48577 0.39384 0.01231 0.0
N1769 N 0.50678 0.37965 0.94912 0.0
H1770 H 0.98239 0.24088 0.20377 0.0
H1771 H 0.85512 0.30416 0.2364 0.0
H1772 H 0.95503 0.29897 0.15843 0.0
H1773 H 0.86129 0.22663 0.23963 0.0
H1774 H 0.89513 0.30553 0.21483 0.0
H1775 H 0.94168 0.23795 0.2241 0.0
C1776 C 0.96788 0.25303 0.19809 0.0
C1777 C 0.97221 0.27013 0.17921 0.0
C1778 C 0.88771 0.28822 0.22025 0.0
C1779 C 0.92571 0.26729 0.20294 0.0
C1780 C 0.86488 0.2874 0.23263 0.0
C1781 C 0.85463 0.26522 0.23977 0.0
C1782 C 0.90098 0.26677 0.2156 0.0
C1783 C 0.86831 0.24412 0.23433 0.0
C1784 C 0.94463 0.25128 0.20965 0.0
C1785 C 0.95258 0.2854 0.17271 0.0
N1786 N 0.89084 0.24542 0.2229 0.0
N1787 N 0.93041 0.28385 0.18472 0.0
H1788 H 0.06803 0.71805 0.47723 0.0
H1789 H 0.03598 0.58881 0.44388 0.0
H1790 H 0.04311 0.70377 0.40454 0.0
H1791 H 0.09206 0.6043 0.49497 0.0
H1792 H 0.04123 0.62908 0.4254 0.0
H1793 H 0.07929 0.6756 0.48199 0.0
C1794 C 0.06516 0.7059 0.4622 0.0
C1795 C 0.0544 0.71414 0.44064 0.0
C1796 C 0.05297 0.6233 0.44008 0.0
C1797 C 0.06685 0.66558 0.44596 0.0
C1798 C 0.05005 0.60032 0.45052 0.0
C1799 C 0.0632 0.59367 0.47129 0.0
C1800 C 0.06892 0.63942 0.45081 0.0
C1801 C 0.08117 0.60912 0.47931 0.0
C1802 C 0.07177 0.68173 0.46478 0.0
C1803 C 0.05129 0.69788 0.42151 0.0
N1804 N 0.08312 0.63153 0.46943 0.0
N1805 N 0.05695 0.67411 0.42483 0.0
H1806 H 0.63474 0.80868 0.64631 0.0
H1807 H 0.70415 0.75904 0.76514 0.0
H1808 H 0.59861 0.76328 0.70045 0.0
H1809 H 0.72975 0.81766 0.71901 0.0
H1810 H 0.66623 0.75878 0.74197 0.0
H1811 H 0.67001 0.81038 0.67235 0.0
C1812 C 0.63411 0.799 0.66372 0.0
C1813 C 0.61335 0.78573 0.67093 0.0
C1814 C 0.68005 0.77182 0.73706 0.0
C1815 C 0.65459 0.78755 0.70131 0.0
C1816 C 0.70179 0.77204 0.75034 0.0
C1817 C 0.72041 0.7885 0.74425 0.0
C1818 C 0.67683 0.78795 0.71717 0.0
C1819 C 0.71608 0.8047 0.72465 0.0
C1820 C 0.65442 0.80007 0.67871 0.0
C1821 C 0.614 0.7738 0.69397 0.0
N1822 N 0.69504 0.80387 0.71185 0.0
N1823 N 0.63426 0.77482 0.70817 0.0
H1824 H 0.63334 0.48902 0.74552 0.0
H1825 H 0.56003 0.53719 0.62998 0.0
H1826 H 0.57869 0.54598 0.74936 0.0
H1827 H 0.59029 0.46497 0.63383 0.0
H1828 H 0.57364 0.5443 0.67149 0.0
H1829 H 0.62408 0.48339 0.70218 0.0
C1830 C 0.61951 0.50041 0.73722 0.0
C1831 C 0.60662 0.51789 0.75105 0.0
C1832 C 0.5774 0.52693 0.66321 0.0
C1833 C 0.59624 0.5117 0.70173 0.0
C1834 C 0.56982 0.52293 0.63947 0.0
C1835 C 0.57402 0.50043 0.62855 0.0
C1836 C 0.58947 0.50838 0.67601 0.0
C1837 C 0.58649 0.48245 0.64179 0.0
C1838 C 0.61421 0.49712 0.71259 0.0
C1839 C 0.58888 0.53213 0.73944 0.0
N1840 N 0.59383 0.48681 0.66491 0.0
N1841 N 0.58426 0.52876 0.71542 0.0
H1842 H 0.78764 0.32351 0.98919 0.0
H1843 H 0.7895 0.33735 0.84354 0.0
H1844 H 0.77047 0.39007 0.95094 0.0
H1845 H 0.80822 0.27119 0.88154 0.0
H1846 H 0.78686 0.35809 0.8827 0.0
H1847 H 0.79938 0.30519 0.95013 0.0
C1848 C 0.78644 0.33432 0.97255 0.0
C1849 C 0.77782 0.35827 0.97321 0.0
C1850 C 0.79174 0.33909 0.88254 0.0
C1851 C 0.7912 0.33737 0.92846 0.0
C1852 C 0.79312 0.32722 0.86021 0.0
C1853 C 0.7986 0.30245 0.85948 0.0
C1854 C 0.7957 0.32603 0.90432 0.0
C1855 C 0.80383 0.29029 0.88144 0.0
C1856 C 0.79322 0.32385 0.95026 0.0
C1857 C 0.77684 0.37149 0.95117 0.0
N1858 N 0.80194 0.30216 0.90309 0.0
N1859 N 0.78327 0.36077 0.9296 0.0
H1860 H 0.99999 0.56357 0.22086 0.0
H1861 H 0.97755 0.55943 0.07873 0.0
H1862 H 0.92856 0.5643 0.18949 0.0
H1863 H 0.04891 0.5607 0.11013 0.0
H1864 H 0.95937 0.57061 0.11838 0.0
H1865 H 0.01796 0.57208 0.18035 0.0
C1866 C 0.98804 0.56579 0.20547 0.0
C1867 C 0.96281 0.56249 0.20837 0.0
C1868 C 0.97903 0.56883 0.11654 0.0
C1869 C 0.98329 0.57207 0.16195 0.0
C1870 C 0.98943 0.56236 0.09393 0.0
C1871 C 0.01472 0.55851 0.09138 0.0
C1872 C 0.99402 0.57114 0.13679 0.0
C1873 C 0.02928 0.56307 0.11146 0.0
C1874 C 0.99832 0.57076 0.18235 0.0
C1875 C 0.94815 0.56624 0.18796 0.0
N1876 N 0.01866 0.56872 0.1335 0.0
N1877 N 0.95868 0.57035 0.16547 0.0
H1878 H 0.77836 0.72222 0.46917 0.0
H1879 H 0.74651 0.71366 0.32686 0.0
H1880 H 0.77076 0.65362 0.43419 0.0
H1881 H 0.78866 0.77159 0.35481 0.0
H1882 H 0.74823 0.69333 0.36728 0.0
H1883 H 0.77505 0.74242 0.42896 0.0
C1884 C 0.77576 0.71136 0.45309 0.0
C1885 C 0.77488 0.68607 0.45524 0.0
C1886 C 0.75702 0.71053 0.36457 0.0
C1887 C 0.77076 0.70933 0.40885 0.0
C1888 C 0.75593 0.72226 0.34151 0.0
C1889 C 0.76742 0.7445 0.33726 0.0
C1890 C 0.76918 0.72129 0.3839 0.0
C1891 C 0.77952 0.75453 0.35707 0.0
C1892 C 0.77401 0.72295 0.43007 0.0
C1893 C 0.77161 0.6731 0.43354 0.0
N1894 N 0.77991 0.74301 0.37944 0.0
N1895 N 0.76951 0.68483 0.41138 0.0
H1896 H 0.57966 0.50946 0.86955 0.0
H1897 H 0.59316 0.55136 0.00746 0.0
H1898 H 0.64944 0.52397 0.90037 0.0
H1899 H 0.53451 0.50606 0.98565 0.0
H1900 H 0.61123 0.54855 0.96602 0.0
H1901 H 0.56018 0.51492 0.91016 0.0
C1902 C 0.59085 0.51388 0.88487 0.0
C1903 C 0.61618 0.51619 0.88173 0.0
C1904 C 0.59435 0.53934 0.97033 0.0
C1905 C 0.59403 0.5227 0.92792 0.0
C1906 C 0.58393 0.54105 0.99388 0.0
C1907 C 0.56231 0.52888 -3e-05 0.0
C1908 C 0.5829 0.52567 0.95268 0.0
C1909 C 0.55122 0.51567 0.9817 0.0
C1910 C 0.57974 0.5169 0.90798 0.0
C1911 C 0.62987 0.52189 0.90212 0.0
N1912 N 0.56163 0.51445 0.9588 0.0
N1913 N 0.61858 0.52508 0.92441 0.0
H1914 H 0.75389 0.30524 0.09145 0.0
H1915 H 0.77266 0.33477 0.22972 0.0
H1916 H 0.7646 0.37789 0.11592 0.0
H1917 H 0.74359 0.26772 0.20499 0.0
H1918 H 0.76429 0.35298 0.18962 0.0
H1919 H 0.74493 0.29278 0.13368 0.0
C1920 C 0.75422 0.31859 0.10579 0.0
C1921 C 0.7605 0.34247 0.10039 0.0
C1922 C 0.75925 0.33445 0.19318 0.0
C1923 C 0.75047 0.32837 0.14879 0.0
C1924 C 0.76402 0.32405 0.21605 0.0
C1925 C 0.75943 0.29954 0.22035 0.0
C1926 C 0.75004 0.32009 0.17464 0.0
C1927 C 0.74801 0.28653 0.20218 0.0
C1928 C 0.74891 0.31154 0.12988 0.0
C1929 C 0.76011 0.35921 0.11948 0.0
N1930 N 0.7441 0.29685 0.17995 0.0
N1931 N 0.75569 0.35173 0.14301 0.0
H1932 H 0.89346 0.54132 0.35007 0.0
H1933 H 1.00105 0.4677 0.41391 0.0
H1934 H 0.95682 0.51018 0.31286 0.0
H1935 H 0.95682 0.52186 0.45095 0.0
H1936 H 0.97439 0.47098 0.3787 0.0
H1937 H 0.90722 0.52292 0.38879 0.0
C1938 C 0.90998 0.53031 0.34998 0.0
C1939 C 0.92431 0.52762 0.32843 0.0
C1940 C 0.97027 0.48178 0.39477 0.0
C1941 C 0.93961 0.50626 0.37197 0.0
C1942 C 0.98539 0.47985 0.41482 0.0
C1943 C 0.98146 0.49508 0.43488 0.0
C1944 C 0.95119 0.49902 0.39498 0.0
C1945 C 0.96085 0.51043 0.43535 0.0
C1946 C 0.91773 0.51981 0.37194 0.0
C1947 C 0.94543 0.51308 0.3291 0.0
N1948 N 0.94663 0.51234 0.41544 0.0
N1949 N 0.95251 0.50305 0.35055 0.0
H1950 H 0.78853 0.66197 0.60419 0.0
H1951 H 0.80724 0.77949 0.68674 0.0
H1952 H 0.78024 0.73539 0.5784 0.0
H1953 H 0.79034 0.71071 0.72034 0.0
H1954 H 0.80438 0.76149 0.64631 0.0
H1955 H 0.79565 0.67731 0.64587 0.0
C1956 C 0.78845 0.68124 0.60713 0.0
C1957 C 0.78364 0.69732 0.58753 0.0
C1958 C 0.80145 0.7502 0.66247 0.0
C1959 C 0.79202 0.71504 0.63526 0.0
C1960 C 0.80323 0.76048 0.68573 0.0
C1961 C 0.79905 0.74674 0.70732 0.0
C1962 C 0.79563 0.72573 0.66028 0.0
C1963 C 0.79377 0.72212 0.70438 0.0
C1964 C 0.79237 0.68999 0.631 0.0
C1965 C 0.78365 0.72215 0.59274 0.0
N1966 N 0.7922 0.71245 0.68141 0.0
N1967 N 0.78781 0.73011 0.6158 0.0
H1968 H 0.68757 0.65322 0.49017 0.0
H1969 H 0.62062 0.53602 0.54476 0.0
H1970 H 0.72499 0.60277 0.53745 0.0
H1971 H 0.59612 0.57662 0.4818 0.0
H1972 H 0.65801 0.56008 0.54421 0.0
H1973 H 0.65334 0.62591 0.48896 0.0
C1974 C 0.68869 0.63635 0.50036 0.0
C1975 C 0.70947 0.63053 0.514 0.0
C1976 C 0.64456 0.56354 0.53037 0.0
C1977 C 0.66948 0.59873 0.51282 0.0
C1978 C 0.62315 0.54975 0.53062 0.0
C1979 C 0.60498 0.55406 0.51321 0.0
C1980 C 0.64783 0.58218 0.51284 0.0
C1981 C 0.60945 0.57235 0.49554 0.0
C1982 C 0.66901 0.62063 0.49957 0.0
C1983 C 0.70954 0.60814 0.5266 0.0
N1984 N 0.63012 0.58573 0.49597 0.0
N1985 N 0.68984 0.59322 0.52591 0.0
H1986 H 0.21157 0.95027 0.57463 0.0
H1987 H 0.06698 0.95361 0.56296 0.0
H1988 H 0.17084 0.89345 0.54234 0.0
H1989 H 0.10867 0.01196 0.59113 0.0
H1990 H 0.10392 0.92831 0.56197 0.0
H1991 H 0.17326 0.97019 0.58707 0.0
C1992 C 0.19455 0.9419 0.57031 0.0
C1993 C 0.19433 0.92038 0.55712 0.0
C1994 C 0.10489 0.94655 0.56867 0.0
C1995 C 0.15045 0.94306 0.57124 0.0
C1996 C 0.0838 0.96097 0.56932 0.0
C1997 C 0.08487 0.98503 0.57677 0.0
C1998 C 0.12713 0.95632 0.57546 0.0
C1999 C 0.1071 0.9936 0.58493 0.0
C2000 C 0.17268 0.95326 0.57745 0.0
C2001 C 0.17179 0.91018 0.55224 0.0
N2002 N 0.12742 0.97934 0.58378 0.0
N2003 N 0.15072 0.92175 0.5591 0.0
H2004 H 0.355 0.9943 0.77288 0.0
H2005 H 0.35119 0.85114 0.76341 0.0
H2006 H 0.41911 0.94981 0.75839 0.0
H2007 H 0.299 0.89266 0.80683 0.0
H2008 H 0.37255 0.88825 0.75236 0.0
H2009 H 0.33046 0.95793 0.77581 0.0
C2010 C 0.36384 0.97693 0.76985 0.0
C2011 C 0.38916 0.975 0.7656 0.0
C2012 C 0.35634 0.88922 0.76418 0.0
C2013 C 0.36125 0.93357 0.76897 0.0
C2014 C 0.34411 0.86814 0.77039 0.0
C2015 C 0.32342 0.86896 0.78613 0.0
C2016 C 0.34761 0.91126 0.77355 0.0
C2017 C 0.31509 0.89135 0.7949 0.0
C2018 C 0.34985 0.95623 0.77171 0.0
C2019 C 0.39968 0.95205 0.76195 0.0
N2020 N 0.32723 0.91171 0.78847 0.0
N2021 N 0.38567 0.93217 0.76381 0.0
H2022 H 0.34417 0.10575 0.05157 0.0
H2023 H 0.46853 0.08167 0.97762 0.0
H2024 H 0.36542 0.15286 0.99143 0.0
H2025 H 0.46754 0.07934 0.05678 0.0
H2026 H 0.42736 0.10024 0.97916 0.0
H2027 H 0.3859 0.08827 0.05101 0.0
C2028 C 0.35756 0.11242 0.03825 0.0
C2029 C 0.35124 0.13097 0.02164 0.0
C2030 C 0.4362 0.09567 0.99617 0.0
C2031 C 0.39884 0.11046 0.0204 0.0
C2032 C 0.45968 0.08502 0.99532 0.0
C2033 C 0.47171 0.07908 0.0171 0.0
C2034 C 0.42414 0.09967 0.01895 0.0
C2035 C 0.45915 0.08382 0.03952 0.0
C2036 C 0.38137 0.10247 0.03799 0.0
C2037 C 0.36946 0.13879 0.00474 0.0
N2038 N 0.43603 0.0935 0.03987 0.0
N2039 N 0.39222 0.12832 0.00433 0.0
H2040 H 0.68983 0.56735 0.8334 0.0
H2041 H 0.70925 0.7049 0.79541 0.0
H2042 H 0.62928 0.61527 0.81749 0.0
H2043 H 0.76307 0.66046 0.8315 0.0
H2044 H 0.67998 0.67204 0.80025 0.0
H2045 H 0.71722 0.60122 0.83025 0.0
C2046 C 0.68227 0.58509 0.82933 0.0
C2047 C 0.65726 0.58852 0.82558 0.0
C2048 C 0.69818 0.66959 0.80715 0.0
C2049 C 0.68866 0.62747 0.82177 0.0
C2050 C 0.71492 0.68818 0.80419 0.0
C2051 C 0.73857 0.68531 0.81308 0.0
C2052 C 0.70536 0.64798 0.81879 0.0
C2053 C 0.74495 0.66347 0.82462 0.0
C2054 C 0.69794 0.60445 0.82759 0.0
C2055 C 0.64846 0.61192 0.82057 0.0
N2056 N 0.72848 0.64563 0.82705 0.0
N2057 N 0.66423 0.63058 0.81857 0.0
H2058 H 0.86956 0.37501 0.03018 0.0
H2059 H 0.90795 0.51076 0.00243 0.0
H2060 H 0.81776 0.43437 0.02555 0.0
H2061 H 0.95806 0.45716 0.03069 0.0
H2062 H 0.87485 0.48194 0.00755 0.0
H2063 H 0.90284 0.40393 0.02719 0.0
C2064 C 0.86519 0.39407 0.02856 0.0
C2065 C 0.84085 0.40228 0.02812 0.0
C2066 C 0.89307 0.47654 0.01278 0.0
C2067 C 0.87867 0.43528 0.02457 0.0
C2068 C 0.9119 0.49292 0.00976 0.0
C2069 C 0.93564 0.48629 0.01621 0.0
C2070 C 0.89813 0.45326 0.02197 0.0
C2071 C 0.9399 0.46303 0.0258 0.0
C2072 C 0.88415 0.41054 0.02696 0.0
C2073 C 0.83622 0.4272 0.02606 0.0
N2074 N 0.92132 0.44724 0.02823 0.0
N2075 N 0.85495 0.44278 0.02422 0.0
H2076 H 0.4016 0.13198 0.77427 0.0
H2077 H 0.27876 0.20026 0.73848 0.0
H2078 H 0.33996 0.09596 0.74476 0.0
H2079 H 0.34389 0.23647 0.75953 0.0
H2080 H 0.30187 0.16227 0.73697 0.0
H2081 H 0.38161 0.17074 0.76613 0.0
C2082 C 0.38385 0.13225 0.76604 0.0
C2083 C 0.37227 0.11077 0.76042 0.0
C2084 C 0.31118 0.17858 0.74159 0.0
C2085 C 0.3493 0.15502 0.75101 0.0
C2086 C 0.29801 0.20029 0.7424 0.0
C2087 C 0.30936 0.22147 0.74946 0.0
C2088 C 0.33577 0.1781 0.74808 0.0
C2089 C 0.33436 0.22051 0.7542 0.0
C2090 C 0.3725 0.15438 0.76127 0.0
C2091 C 0.34942 0.11213 0.74953 0.0
N2092 N 0.34666 0.1991 0.75374 0.0
N2093 N 0.33856 0.13393 0.74537 0.0
H2094 H 0.13383 0.95355 0.27525 0.0
H2095 H 0.26333 0.89271 0.25739 0.0
H2096 H 0.20021 0.99376 0.27964 0.0
H2097 H 0.19944 0.86323 0.22536 0.0
H2098 H 0.24078 0.93037 0.26472 0.0
H2099 H 0.1573 0.92026 0.25653 0.0
C2100 C 0.15331 0.9554 0.27216 0.0
C2101 C 0.16518 0.97626 0.27925 0.0
C2102 C 0.23181 0.91585 0.25566 0.0
C2103 C 0.19202 0.93842 0.25797 0.0
C2104 C 0.24467 0.89437 0.25148 0.0
C2105 C 0.23312 0.87487 0.24094 0.0
C2106 C 0.20709 0.91757 0.24977 0.0
C2107 C 0.20897 0.87791 0.23355 0.0
C2108 C 0.16664 0.93651 0.26132 0.0
C2109 C 0.19039 0.97789 0.27461 0.0
N2110 N 0.19654 0.89876 0.23855 0.0
N2111 N 0.20305 0.95906 0.26454 0.0
H2112 H 0.53881 0.36629 0.3937 0.0
H2113 H 0.54838 0.44153 0.51878 0.0
H2114 H 0.53116 0.33408 0.4659 0.0
H2115 H 0.53859 0.47606 0.44829 0.0
H2116 H 0.54552 0.40213 0.4993 0.0
H2117 H 0.5415 0.40616 0.41265 0.0
C2118 C 0.53756 0.36753 0.41353 0.0
C2119 C 0.53464 0.34652 0.42809 0.0
C2120 C 0.5441 0.41828 0.48801 0.0
C2121 C 0.53817 0.39257 0.45015 0.0
C2122 C 0.5459 0.44094 0.49914 0.0
C2123 C 0.54389 0.4625 0.48529 0.0
C2124 C 0.54045 0.41674 0.46258 0.0
C2125 C 0.54039 0.46015 0.45985 0.0
C2126 C 0.53914 0.3904 0.42438 0.0
C2127 C 0.53327 0.34958 0.45377 0.0
N2128 N 0.53887 0.43786 0.44941 0.0
N2129 N 0.53519 0.37194 0.46387 0.0
H2130 H 0.42004 0.80316 0.11084 0.0
H2131 H 0.30228 0.80209 0.16813 0.0
H2132 H 0.44336 0.78923 0.18483 0.0
H2133 H 0.34224 0.82872 0.2291 0.0
H2134 H 0.34117 0.79408 0.14604 0.0
H2135 H 0.37788 0.807 0.1265 0.0
C2136 C 0.41621 0.80027 0.13028 0.0
C2137 C 0.4352 0.79606 0.14663 0.0
C2138 C 0.34128 0.80211 0.16405 0.0
C2139 C 0.3873 0.80065 0.16455 0.0
C2140 C 0.31915 0.80678 0.17662 0.0
C2141 C 0.31902 0.81611 0.20048 0.0
C2142 C 0.36325 0.80664 0.17565 0.0
C2143 C 0.3414 0.82152 0.21076 0.0
C2144 C 0.39215 0.80246 0.13916 0.0
C2145 C 0.42929 0.79256 0.1716 0.0
N2146 N 0.36259 0.81639 0.19841 0.0
N2147 N 0.40589 0.79541 0.17986 0.0
H2148 H 0.99238 0.71084 0.95499 0.0
H2149 H 0.079 0.60031 0.99513 0.0
H2150 H 0.06819 0.7082 0.93193 0.0
H2151 H 1.00083 0.59542 0.99156 0.0
H2152 H 0.07663 0.64041 0.9751 0.0
H2153 H 0.99616 0.66973 0.97118 0.0
C2154 C 0.00988 0.70157 0.95316 0.0
C2155 C 0.02995 0.71325 0.94188 0.0
C2156 C 0.06003 0.63051 0.97861 0.0
C2157 C 0.03459 0.66559 0.96119 0.0
C2158 C 0.06133 0.60758 0.99018 0.0
C2159 C 0.04007 0.59422 0.99521 0.0
C2160 C 0.03724 0.64056 0.97234 0.0
C2161 C 0.01776 0.6048 0.98815 0.0
C2162 C 0.01201 0.67795 0.96247 0.0
C2163 C 0.05212 0.70001 0.9402 0.0
N2164 N 0.01696 0.62721 0.9774 0.0
N2165 N 0.05392 0.67708 0.94999 0.0
H2166 H 0.10369 0.31083 0.62553 0.0
H2167 H 0.15413 0.28522 0.75758 0.0
H2168 H 0.0568 0.32071 0.68984 0.0
H2169 H 0.17401 0.24039 0.69601 0.0
H2170 H 0.1217 0.3043 0.73339 0.0
H2171 H 0.1346 0.29219 0.65149 0.0
C2172 C 0.10013 0.3096 0.64518 0.0
C2173 C 0.07767 0.31731 0.6556 0.0
C2174 C 0.13294 0.29004 0.72534 0.0
C2175 C 0.11275 0.29586 0.68515 0.0
C2176 C 0.15118 0.27913 0.7391 0.0
C2177 C 0.16626 0.26111 0.7287 0.0
C2178 C 0.13042 0.28331 0.70084 0.0
C2179 C 0.16233 0.25396 0.70463 0.0
C2180 C 0.1176 0.29866 0.65987 0.0
C2181 C 0.07388 0.31495 0.68113 0.0
N2182 N 0.14495 0.26537 0.69128 0.0
N2183 N 0.09131 0.30444 0.69511 0.0
H2184 H 0.50342 0.73722 0.11908 0.0
H2185 H 0.59832 0.64194 0.06048 0.0
H2186 H 0.55985 0.75677 0.06575 0.0
H2187 H 0.54902 0.62619 0.12157 0.0
H2188 H 0.58403 0.68391 0.061 0.0
H2189 H 0.51782 0.69554 0.11733 0.0
C2190 C 0.51862 0.73274 0.10672 0.0
C2191 C 0.53062 0.75062 0.09275 0.0
C2192 C 0.57649 0.6713 0.07441 0.0
C2193 C 0.54744 0.70295 0.09101 0.0
C2194 C 0.58487 0.64743 0.07433 0.0
C2195 C 0.57471 0.6306 0.09094 0.0
C2196 C 0.5578 0.67824 0.09117 0.0
C2197 C 0.55705 0.63858 0.10825 0.0
C2198 C 0.52697 0.70894 0.10591 0.0
C2199 C 0.55014 0.74364 0.07699 0.0
N2200 N 0.549 0.66181 0.10779 0.0
N2201 N 0.55808 0.72034 0.0767 0.0
H2202 H 0.09083 0.75164 0.83872 0.0
H2203 H 0.23058 0.79232 0.83363 0.0
H2204 H 0.12359 0.78986 0.8974 0.0
H2205 H 0.2048 0.73533 0.78852 0.0
H2206 H 0.19067 0.79411 0.855 0.0
H2207 H 0.13119 0.74777 0.8181 0.0
C2208 C 0.10648 0.75916 0.84735 0.0
C2209 C 0.10365 0.77106 0.86996 0.0
C2210 C 0.19371 0.78115 0.84048 0.0
C2211 C 0.15012 0.76699 0.84611 0.0
C2212 C 0.21656 0.78014 0.82817 0.0
C2213 C 0.22127 0.76362 0.80914 0.0
C2214 C 0.17499 0.76581 0.83361 0.0
C2215 C 0.20217 0.74832 0.80306 0.0
C2216 C 0.12958 0.75691 0.83554 0.0
C2217 C 0.12475 0.78044 0.8801 0.0
N2218 N 0.17993 0.74991 0.81507 0.0
N2219 N 0.14691 0.77838 0.86808 0.0
H2220 H 0.99502 0.37367 0.57905 0.0
H2221 H 0.03697 0.50407 0.59839 0.0
H2222 H 0.00705 0.39627 0.65321 0.0
H2223 H 0.98571 0.48565 0.54326 0.0
H2224 H 0.02728 0.46629 0.6205 0.0
H2225 H 0.9941 0.4156 0.56573 0.0
C2226 C 0.99752 0.38755 0.59252 0.0
C2227 C 1.00128 0.38169 0.61717 0.0
C2228 C 0.01773 0.47097 0.60393 0.0
C2229 C 1.00024 0.42966 0.60211 0.0
C2230 C 0.02321 0.49243 0.59137 0.0
C2231 C 0.01258 0.49745 0.56872 0.0
C2232 C 1.00177 0.45476 0.59344 0.0
C2233 C 0.99479 0.48201 0.56036 0.0
C2234 C 0.99671 0.41148 0.58499 0.0
C2235 C 1.00415 0.40029 0.63399 0.0
N2236 N 0.99027 0.4611 0.57249 0.0
N2237 N 1.00396 0.42366 0.62607 0.0
H2238 H 0.44672 0.32207 0.38389 0.0
H2239 H 0.36197 0.24135 0.30386 0.0
H2240 H 0.47378 0.25354 0.35746 0.0
H2241 H 0.36133 0.3188 0.29639 0.0
H2242 H 0.39973 0.24356 0.32726 0.0
H2243 H 0.41236 0.31973 0.35614 0.0
C2244 C 0.44557 0.30657 0.3721 0.0
C2245 C 0.46349 0.28811 0.37296 0.0
C2246 C 0.39144 0.26003 0.32027 0.0
C2247 C 0.42331 0.2849 0.34145 0.0
C2248 C 0.36983 0.2588 0.30688 0.0
C2249 C 0.35836 0.27989 0.29777 0.0
C2250 C 0.40142 0.28258 0.32542 0.0
C2251 C 0.36949 0.30199 0.30266 0.0
C2252 C 0.42588 0.30525 0.35623 0.0
C2253 C 0.4607 0.26838 0.35727 0.0
N2254 N 0.39 0.30275 0.31634 0.0
N2255 N 0.44089 0.26712 0.3425 0.0
H2256 H 0.38248 0.61642 0.35976 0.0
H2257 H 0.46745 0.52837 0.43334 0.0
H2258 H 0.37765 0.53908 0.35927 0.0
H2259 H 0.47098 0.60599 0.43643 0.0
H2260 H 0.42812 0.53222 0.41423 0.0
H2261 H 0.40608 0.61348 0.39708 0.0
C2262 C 0.38526 0.5989 0.36837 0.0
C2263 C 0.37849 0.57793 0.35653 0.0
C2264 C 0.43735 0.54845 0.41929 0.0
C2265 C 0.40641 0.57425 0.39808 0.0
C2266 C 0.45992 0.54626 0.43015 0.0
C2267 C 0.47279 0.56689 0.43622 0.0
C2268 C 0.42766 0.57146 0.41401 0.0
C2269 C 0.46209 0.58959 0.43147 0.0
C2270 C 0.39911 0.59716 0.3894 0.0
C2271 C 0.38282 0.55561 0.36794 0.0
N2272 N 0.44025 0.59126 0.42038 0.0
N2273 N 0.39713 0.55427 0.3878 0.0
H2274 H 0.24967 0.72337 0.02805 0.0
H2275 H 0.24612 0.72766 0.17397 0.0
H2276 H 0.29319 0.67643 0.07398 0.0
H2277 H 0.20463 0.77601 0.12801 0.0
H2278 H 0.25848 0.70439 0.13784 0.0
H2279 H 0.22888 0.73911 0.06455 0.0
C2280 C 0.25493 0.71635 0.04581 0.0
C2281 C 0.2735 0.69874 0.04793 0.0
C2282 C 0.24641 0.71988 0.13564 0.0
C2283 C 0.2495 0.71669 0.08989 0.0
C2284 C 0.23936 0.73312 0.15622 0.0
C2285 C 0.22475 0.75396 0.15374 0.0
C2286 C 0.23892 0.7277 0.11241 0.0
C2287 C 0.21599 0.76008 0.13057 0.0
C2288 C 0.24289 0.72529 0.06667 0.0
C2289 C 0.27918 0.69016 0.07146 0.0
N2290 N 0.22356 0.7472 0.11064 0.0
N2291 N 0.26732 0.69937 0.09157 0.0
H2292 H 0.15273 0.4795 0.8679 0.0
H2293 H 0.03299 0.49174 0.9533 0.0
H2294 H 0.08017 0.4933 0.84176 0.0
H2295 H 0.10612 0.49927 0.97932 0.0
H2296 H 0.05006 0.47974 0.91338 0.0
H2297 H 0.13554 0.47487 0.9097 0.0
C2298 C 0.13318 0.48129 0.87096 0.0
C2299 C 0.11782 0.48728 0.85163 0.0
C2300 C 0.06234 0.48371 0.92796 0.0
C2301 C 0.0982 0.48178 0.89888 0.0
C2302 C 0.05263 0.49057 0.95071 0.0
C2303 C 0.06821 0.4971 0.96935 0.0
C2304 C 0.08771 0.4835 0.92391 0.0
C2305 C 0.09349 0.49484 0.96521 0.0
C2306 C 0.12342 0.4786 0.89471 0.0
C2307 C 0.09264 0.48915 0.85634 0.0
N2308 N 0.10251 0.48855 0.94272 0.0
N2309 N 0.0836 0.4866 0.8796 0.0
H2310 H 0.26567 0.33257 0.56989 0.0
H2311 H 0.29879 0.33975 0.71127 0.0
H2312 H 0.29197 0.39798 0.60069 0.0
H2313 H 0.2481 0.28835 0.6846 0.0
H2314 H 0.29905 0.36013 0.6709 0.0
H2315 H 0.261 0.31526 0.61132 0.0
C2316 C 0.27008 0.34348 0.58546 0.0
C2317 C 0.27894 0.36692 0.58172 0.0
C2318 C 0.28782 0.34445 0.67391 0.0
C2319 C 0.27446 0.34673 0.62957 0.0
C2320 C 0.28776 0.33266 0.69694 0.0
C2321 C 0.2735 0.3121 0.70148 0.0
C2322 C 0.27383 0.33549 0.65491 0.0
C2323 C 0.25944 0.30402 0.6821 0.0
C2324 C 0.26749 0.33352 0.60916 0.0
C2325 C 0.28469 0.38002 0.60267 0.0
N2326 N 0.26015 0.31554 0.65974 0.0
N2327 N 0.28268 0.36965 0.62562 0.0
H2328 H 0.4125 0.55405 0.2193 0.0
H2329 H 0.54305 0.5476 0.15482 0.0
H2330 H 0.47721 0.55912 0.26212 0.0
H2331 H 0.48292 0.50544 0.13087 0.0
H2332 H 0.51941 0.55738 0.19245 0.0
H2333 H 0.43819 0.54323 0.18351 0.0
C2334 C 0.43213 0.55328 0.22105 0.0
C2335 C 0.4428 0.5574 0.24365 0.0
C2336 C 0.51164 0.54572 0.17905 0.0
C2337 C 0.47207 0.54495 0.20302 0.0
C2338 C 0.52508 0.54006 0.15771 0.0
C2339 C 0.51488 0.52569 0.13979 0.0
C2340 C 0.48772 0.53742 0.18203 0.0
C2341 C 0.49151 0.51646 0.14429 0.0
C2342 C 0.4467 0.54682 0.20075 0.0
C2343 C 0.46831 0.55593 0.245 0.0
N2344 N 0.47853 0.52282 0.16483 0.0
N2345 N 0.48217 0.54987 0.22488 0.0
H2346 H 0.33436 0.63797 0.9216 0.0
H2347 H 0.33234 0.76137 0.84577 0.0
H2348 H 0.35108 0.70745 0.9507 0.0
H2349 H 0.31025 0.69323 0.81686 0.0
H2350 H 0.34884 0.73999 0.8812 0.0
H2351 H 0.33565 0.65573 0.87995 0.0
C2352 C 0.33908 0.65674 0.91906 0.0
C2353 C 0.34223 0.67149 0.93931 0.0
C2354 C 0.34062 0.72968 0.86697 0.0
C2355 C 0.3434 0.69186 0.89242 0.0
C2356 C 0.3311 0.74191 0.84682 0.0
C2357 C 0.31944 0.72911 0.82868 0.0
C2358 C 0.3382 0.70453 0.86909 0.0
C2359 C 0.31873 0.70385 0.83069 0.0
C2360 C 0.33964 0.66692 0.89543 0.0
C2361 C 0.34816 0.69569 0.93537 0.0
N2362 N 0.32765 0.6924 0.85075 0.0
N2363 N 0.34822 0.70523 0.91239 0.0
H2364 H 0.07744 0.56986 0.74585 0.0
H2365 H 0.11209 0.56453 0.60338 0.0
H2366 H 0.13602 0.5255 0.71509 0.0
H2367 H 0.05609 0.61162 0.63396 0.0
H2368 H 0.12502 0.55437 0.64481 0.0
H2369 H 0.07217 0.58859 0.70563 0.0
C2370 C 0.08915 0.56397 0.73064 0.0
C2371 C 0.10702 0.54584 0.73381 0.0
C2372 C 0.11016 0.56724 0.64253 0.0
C2373 C 0.10122 0.56746 0.68779 0.0
C2374 C 0.10288 0.57306 0.61892 0.0
C2375 C 0.08284 0.5886 0.61548 0.0
C2376 C 0.09704 0.57682 0.66276 0.0
C2377 C 0.07161 0.59952 0.63599 0.0
C2378 C 0.08625 0.57485 0.70772 0.0
C2379 C 0.12185 0.53923 0.71349 0.0
N2380 N 0.07858 0.59307 0.65889 0.0
N2381 N 0.11851 0.54995 0.6913 0.0
H2382 H 0.28388 0.41414 0.42788 0.0
H2383 H 0.27671 0.28662 0.35894 0.0
H2384 H 0.28955 0.34527 0.46506 0.0
H2385 H 0.28229 0.35463 0.32008 0.0
H2386 H 0.27888 0.30801 0.39794 0.0
H2387 H 0.28153 0.39313 0.38854 0.0
C2388 C 0.2848 0.39462 0.42783 0.0
C2389 C 0.28701 0.38157 0.45003 0.0
C2390 C 0.27952 0.31832 0.38091 0.0
C2391 C 0.28393 0.35719 0.40473 0.0
C2392 C 0.27811 0.30607 0.35853 0.0
C2393 C 0.27916 0.31871 0.33594 0.0
C2394 C 0.28191 0.34357 0.38101 0.0
C2395 C 0.28127 0.34399 0.33688 0.0
C2396 C 0.28339 0.38259 0.40528 0.0
C2397 C 0.28796 0.35622 0.44857 0.0
N2398 N 0.28255 0.35549 0.35889 0.0
N2399 N 0.28631 0.34496 0.42649 0.0
H2400 H 0.38271 0.40111 0.5322 0.0
H2401 H 0.45064 0.52475 0.5029 0.0
H2402 H 0.34287 0.46342 0.50573 0.0
H2403 H 0.47679 0.47219 0.55534 0.0
H2404 H 0.41236 0.50247 0.50078 0.0
H2405 H 0.41831 0.42613 0.53747 0.0
C2406 C 0.38137 0.42009 0.52742 0.0
C2407 C 0.35948 0.42999 0.51841 0.0
C2408 C 0.42635 0.49597 0.51295 0.0
C2409 C 0.40097 0.45908 0.52425 0.0
C2410 C 0.44829 0.50872 0.51423 0.0
C2411 C 0.46715 0.50056 0.5295 0.0
C2412 C 0.42325 0.47445 0.52659 0.0
C2413 C 0.46287 0.47944 0.54349 0.0
C2414 C 0.40182 0.43445 0.53058 0.0
C2415 C 0.35917 0.45488 0.51279 0.0
N2416 N 0.44167 0.46708 0.54147 0.0
N2417 N 0.37959 0.46846 0.51552 0.0
H2418 H 0.85188 0.1227 0.56371 0.0
H2419 H 0.99635 0.10926 0.54574 0.0
H2420 H 0.89389 0.17379 0.52034 0.0
H2421 H 0.9472 0.05015 0.55863 0.0
H2422 H 0.96105 0.13723 0.54561 0.0
H2423 H 0.88952 0.10107 0.57345 0.0
C2424 C 0.86908 0.12976 0.55676 0.0
C2425 C 0.86974 0.14976 0.54074 0.0
C2426 C 0.95814 0.11812 0.54851 0.0
C2427 C 0.91272 0.12489 0.55154 0.0
C2428 C 0.97817 0.10218 0.54844 0.0
C2429 C 0.97461 0.07734 0.55186 0.0
C2430 C 0.9346 0.10912 0.55258 0.0
C2431 C 0.95075 0.06911 0.55555 0.0
C2432 C 0.89051 0.11727 0.56216 0.0
C2433 C 0.89257 0.15825 0.53252 0.0
N2434 N 0.93167 0.08497 0.5559 0.0
N2435 N 0.91323 0.1455 0.53767 0.0
H2436 H 0.65034 0.09726 0.33211 0.0
H2437 H 0.76437 0.13504 0.24701 0.0
H2438 H 0.69996 0.04564 0.29773 0.0
H2439 H 0.72282 0.1848 0.29259 0.0
H2440 H 0.74135 0.10165 0.26591 0.0
H2441 H 0.67825 0.12938 0.32007 0.0
C2442 C 0.66731 0.09258 0.32251 0.0
C2443 C 0.67254 0.06876 0.31552 0.0
C2444 C 0.73743 0.11989 0.27188 0.0
C2445 C 0.70427 0.10548 0.30117 0.0
C2446 C 0.75036 0.13887 0.26091 0.0
C2447 C 0.74553 0.16258 0.26835 0.0
C2448 C 0.71941 0.12482 0.29016 0.0
C2449 C 0.72736 0.16671 0.2866 0.0
C2450 C 0.68318 0.11097 0.31547 0.0
C2451 C 0.69492 0.0638 0.30317 0.0
N2452 N 0.71491 0.14805 0.2968 0.0
N2453 N 0.70975 0.08206 0.29601 0.0
H2454 H 0.73182 0.97483 0.03971 0.0
H2455 H 0.59447 0.9821 0.99232 0.0
H2456 H 0.69765 0.91602 0.00379 0.0
H2457 H 0.62105 0.03129 0.04564 0.0
H2458 H 0.63316 0.95943 0.99381 0.0
H2459 H 0.69272 0.99722 0.0399 0.0
C2460 C 0.71611 0.96654 0.03196 0.0
C2461 C 0.71818 0.94337 0.02179 0.0
C2462 C 0.63057 0.97516 0.00522 0.0
C2463 C 0.67318 0.96923 0.02159 0.0
C2464 C 0.60843 0.98822 0.00432 0.0
C2465 C 0.6043 0.00877 0.01886 0.0
C2466 C 0.64912 0.98271 0.02054 0.0
C2467 C 0.62327 0.01562 0.03409 0.0
C2468 C 0.69373 0.97937 0.03208 0.0
C2469 C 0.69704 0.93371 0.01196 0.0
N2470 N 0.64478 0.00276 0.03442 0.0
N2471 N 0.67562 0.94668 0.01195 0.0
H2472 H 0.36923 0.4805 0.32682 0.0
H2473 H 0.31839 0.40742 0.21594 0.0
H2474 H 0.34679 0.51566 0.25972 0.0
H2475 H 0.31437 0.38173 0.2912 0.0
H2476 H 0.33056 0.44688 0.23067 0.0
H2477 H 0.35083 0.44333 0.31336 0.0
C2478 C 0.36019 0.48046 0.3094 0.0
C2479 C 0.35959 0.50113 0.29433 0.0
C2480 C 0.32688 0.43252 0.24387 0.0
C2481 C 0.33893 0.45867 0.27866 0.0
C2482 C 0.31996 0.41003 0.23549 0.0
C2483 C 0.31578 0.39102 0.25225 0.0
C2484 C 0.3298 0.43587 0.26913 0.0
C2485 C 0.31813 0.39547 0.27743 0.0
C2486 C 0.34968 0.45927 0.30173 0.0
C2487 C 0.34758 0.50012 0.27194 0.0
N2488 N 0.32518 0.41734 0.28505 0.0
N2489 N 0.33799 0.4791 0.2646 0.0
H2490 H 0.2762 0.59605 0.00357 0.0
H2491 H 0.13222 0.57987 -0.0 0.0
H2492 H 0.22865 0.63883 0.95776 0.0
H2493 H 0.17835 0.54129 0.05061 0.0
H2494 H 0.16822 0.59713 0.98009 0.0
H2495 H 0.24178 0.57093 0.01575 0.0
C2496 C 0.25865 0.59991 0.99565 0.0
C2497 C 0.25528 0.61994 0.97993 0.0
C2498 C 0.17054 0.58476 0.99543 0.0
C2499 C 0.21568 0.59132 0.99414 0.0
C2500 C 0.14994 0.57476 0.0068 0.0
C2501 C 0.15221 0.55902 0.02707 0.0
C2502 C 0.1937 0.57914 0.00438 0.0
C2503 C 0.17571 0.55355 0.03527 0.0
C2504 C 0.23895 0.5856 0.00277 0.0
C2505 C 0.23212 0.62379 0.97011 0.0
N2506 N 0.19555 0.56367 0.02394 0.0
N2507 N 0.21314 0.60984 0.97766 0.0
H2508 H 0.70525 0.96067 0.26091 0.0
H2509 H 0.69716 0.81801 0.2785 0.0
H2510 H 0.63701 0.92378 0.27182 0.0
H2511 H 0.76321 0.85843 0.28525 0.0
H2512 H 0.6747 0.85573 0.27133 0.0
H2513 H 0.72681 0.9219 0.26213 0.0
C2514 C 0.69474 0.94437 0.26295 0.0
C2515 C 0.66936 0.94542 0.26674 0.0
C2516 C 0.69407 0.85631 0.27458 0.0
C2517 C 0.69391 0.90118 0.26872 0.0
C2518 C 0.70685 0.83484 0.27893 0.0
C2519 C 0.73209 0.83512 0.28253 0.0
C2520 C 0.70667 0.87811 0.27367 0.0
C2521 C 0.74376 0.85739 0.2827 0.0
C2522 C 0.70709 0.92227 0.26396 0.0
C2523 C 0.65665 0.92375 0.26912 0.0
N2524 N 0.73096 0.87801 0.27812 0.0
N2525 N 0.66912 0.90246 0.27044 0.0
H2526 H 0.85498 0.13176 0.73274 0.0
H2527 H 0.75257 0.20631 0.77814 0.0
H2528 H 0.794 0.09356 0.76506 0.0
H2529 H 0.77794 0.2213 0.70391 0.0
H2530 H 0.76582 0.16419 0.77337 0.0
H2531 H 0.82701 0.16411 0.71984 0.0
C2532 C 0.83557 0.12994 0.73643 0.0
C2533 C 0.82662 0.11029 0.75005 0.0
C2534 C 0.76772 0.17651 0.75785 0.0
C2535 C 0.79493 0.14722 0.73624 0.0
C2536 C 0.76034 0.20047 0.76063 0.0
C2537 C 0.76443 0.21705 0.74144 0.0
C2538 C 0.78015 0.16954 0.73613 0.0
C2539 C 0.77457 0.20886 0.71908 0.0
C2540 C 0.81965 0.14825 0.72899 0.0
C2541 C 0.80143 0.10858 0.75455 0.0
N2542 N 0.78289 0.18572 0.71727 0.0
N2543 N 0.78643 0.12731 0.74839 0.0
loop_
_geom_bond_atom_site_label_1
_geom_bond_atom_site_label_2
_geom_bond_distance
_geom_bond_site_symmetry_2
_ccdc_geom_bond_type
Co0 O1 2.216 1_455 S
Co0 O2 2.091 1_455 S
Co0 O4 2.004 . S
Co0 O10 2.021 . S
Co0 O12 2.137 . S
Co0 O13 2.244 . S
O1 Co0 2.216 1_655 S
O1 C8 1.247 . S
O2 Co0 2.091 1_655 S
O2 C8 1.261 . S
C3 O12 1.247 . S
C3 O13 1.272 . S
O4 Co0 2.004 . S
O4 C9 1.259 . S
Co5 O6 2.061 . S
Co5 O11 2.052 . S
Co5 O13 2.135 . S
O6 Co5 2.061 . S
O6 C9 1.235 . S
C7 O10 1.238 . S
C7 O11 1.241 . S
C8 O1 1.247 . S
C8 O2 1.261 . S
C9 O4 1.259 . S
C9 O6 1.235 . S
O10 Co0 2.021 . S
O10 C7 1.238 . S
O11 Co5 2.052 . S
O11 C7 1.241 . S
O12 Co0 2.137 . S
O12 C3 1.247 . S
O13 Co0 2.244 . S
O13 C3 1.272 . S
O13 Co5 2.135 . S
Co14 O15 2.216 . S
Co14 O16 2.091 . S
Co14 O18 2.004 . S
Co14 O24 2.021 . S
Co14 O26 2.137 . S
Co14 O27 2.244 . S
O15 Co14 2.216 . S
O15 C22 1.247 . S
O16 Co14 2.091 . S
O16 C22 1.261 . S
C17 O26 1.247 . S
C17 O27 1.272 . S
O18 Co14 2.004 . S
O18 C23 1.259 . S
Co19 O20 2.061 1_455 S
Co19 O25 2.052 . S
Co19 O27 2.135 . S
O20 Co19 2.061 1_655 S
O20 C23 1.235 1_655 S
C21 O24 1.238 . S
C21 O25 1.241 . S
C22 O15 1.247 . S
C22 O16 1.261 . S
C23 O18 1.259 . S
C23 O20 1.235 1_455 S
O24 Co14 2.021 . S
O24 C21 1.238 . S
O25 Co19 2.052 . S
O25 C21 1.241 . S
O26 Co14 2.137 . S
O26 C17 1.247 . S
O27 Co14 2.244 . S
O27 C17 1.272 . S
O27 Co19 2.135 . S
Co28 O29 2.216 . S
Co28 O30 2.091 . S
Co28 O32 2.004 . S
Co28 O38 2.021 . S
Co28 O40 2.137 . S
Co28 O41 2.244 . S
O29 Co28 2.216 . S
O29 C36 1.247 . S
O30 Co28 2.091 . S
O30 C36 1.261 . S
C31 O40 1.247 . S
C31 O41 1.272 . S
O32 Co28 2.004 . S
O32 C37 1.259 . S
Co33 O34 2.061 . S
Co33 O39 2.052 . S
Co33 O41 2.135 . S
O34 Co33 2.061 . S
O34 C37 1.235 . S
C35 O38 1.238 . S
C35 O39 1.241 . S
C36 O29 1.247 . S
C36 O30 1.261 . S
C37 O32 1.259 . S
C37 O34 1.235 . S
O38 Co28 2.021 . S
O38 C35 1.238 . S
O39 Co33 2.052 . S
O39 C35 1.241 . S
O40 Co28 2.137 . S
O40 C31 1.247 . S
O41 Co28 2.244 . S
O41 C31 1.272 . S
O41 Co33 2.135 . S
Co42 O43 2.216 . S
Co42 O44 2.091 . S
Co42 O46 2.004 . S
Co42 O52 2.021 . S
Co42 O54 2.137 . S
Co42 O55 2.244 . S
O43 Co42 2.216 . S
O43 C50 1.247 . S
O44 Co42 2.091 . S
O44 C50 1.261 . S
C45 O54 1.247 . S
C45 O55 1.272 . S
O46 Co42 2.004 . S
O46 C51 1.259 . S
Co47 O48 2.061 . S
Co47 O53 2.052 . S
Co47 O55 2.135 . S
O48 Co47 2.061 . S
O48 C51 1.235 . S
C49 O52 1.238 . S
C49 O53 1.241 . S
C50 O43 1.247 . S
C50 O44 1.261 . S
C51 O46 1.259 . S
C51 O48 1.235 . S
O52 Co42 2.021 . S
O52 C49 1.238 . S
O53 Co47 2.052 . S
O53 C49 1.241 . S
O54 Co42 2.137 . S
O54 C45 1.247 . S
O55 Co42 2.244 . S
O55 C45 1.272 . S
O55 Co47 2.135 . S
Co56 O57 2.216 1_545 S
Co56 O58 2.091 1_545 S
Co56 O60 2.004 . S
Co56 O66 2.021 . S
Co56 O68 2.137 1_545 S
Co56 O69 2.244 . S
O57 Co56 2.216 1_565 S
O57 C64 1.247 . S
O58 Co56 2.091 1_565 S
O58 C64 1.261 . S
C59 O68 1.247 1_545 S
C59 O69 1.272 . S
O60 Co56 2.004 . S
O60 C65 1.259 . S
Co61 O62 2.061 . S
Co61 O67 2.052 . S
Co61 O69 2.135 . S
O62 Co61 2.061 . S
O62 C65 1.235 . S
C63 O66 1.238 . S
C63 O67 1.241 . S
C64 O57 1.247 . S
C64 O58 1.261 . S
C65 O60 1.259 . S
C65 O62 1.235 . S
O66 Co56 2.021 . S
O66 C63 1.238 . S
O67 Co61 2.052 . S
O67 C63 1.241 . S
O68 Co56 2.137 1_565 S
O68 C59 1.247 1_565 S
O69 Co56 2.244 . S
O69 C59 1.272 . S
O69 Co61 2.135 . S
Co70 O71 2.216 . S
Co70 O72 2.091 . S
Co70 O74 2.004 . S
Co70 O80 2.021 . S
Co70 O82 2.137 . S
Co70 O83 2.244 . S
O71 Co70 2.216 . S
O71 C78 1.247 . S
O72 Co70 2.091 . S
O72 C78 1.261 . S
C73 O82 1.247 . S
C73 O83 1.272 . S
O74 Co70 2.004 . S
O74 C79 1.259 . S
Co75 O76 2.061 . S
Co75 O81 2.052 . S
Co75 O83 2.135 . S
O76 Co75 2.061 . S
O76 C79 1.235 . S
C77 O80 1.238 . S
C77 O81 1.241 . S
C78 O71 1.247 . S
C78 O72 1.261 . S
C79 O74 1.259 . S
C79 O76 1.235 . S
O80 Co70 2.021 . S
O80 C77 1.238 . S
O81 Co75 2.052 . S
O81 C77 1.241 . S
O82 Co70 2.137 . S
O82 C73 1.247 . S
O83 Co70 2.244 . S
O83 C73 1.272 . S
O83 Co75 2.135 . S
Co84 O85 2.216 . S
Co84 O86 2.091 . S
Co84 O88 2.004 . S
Co84 O94 2.021 . S
Co84 O96 2.137 . S
Co84 O97 2.244 . S
O85 Co84 2.216 . S
O85 C92 1.247 . S
O86 Co84 2.091 . S
O86 C92 1.261 . S
C87 O96 1.247 . S
C87 O97 1.272 . S
O88 Co84 2.004 . S
O88 C93 1.259 . S
Co89 O90 2.061 . S
Co89 O95 2.052 . S
Co89 O97 2.135 . S
O90 Co89 2.061 . S
O90 C93 1.235 . S
C91 O94 1.238 . S
C91 O95 1.241 . S
C92 O85 1.247 . S
C92 O86 1.261 . S
C93 O88 1.259 . S
C93 O90 1.235 . S
O94 Co84 2.021 . S
O94 C91 1.238 . S
O95 Co89 2.052 . S
O95 C91 1.241 . S
O96 Co84 2.137 . S
O96 C87 1.247 . S
O97 Co84 2.244 . S
O97 C87 1.272 . S
O97 Co89 2.135 . S
Co98 O99 2.216 . S
Co98 O100 2.091 . S
Co98 O102 2.004 . S
Co98 O108 2.021 . S
Co98 O110 2.137 1_554 S
Co98 O111 2.244 . S
O99 Co98 2.216 . S
O99 C106 1.247 . S
O100 Co98 2.091 . S
O100 C106 1.261 . S
C101 O110 1.247 . S
C101 O111 1.272 1_556 S
O102 Co98 2.004 . S
O102 C107 1.259 . S
Co103 O104 2.061 . S
Co103 O109 2.052 . S
Co103 O111 2.135 . S
O104 Co103 2.061 . S
O104 C107 1.235 . S
C105 O108 1.238 . S
C105 O109 1.241 . S
C106 O99 1.247 . S
C106 O100 1.261 . S
C107 O102 1.259 . S
C107 O104 1.235 . S
O108 Co98 2.021 . S
O108 C105 1.238 . S
O109 Co103 2.052 . S
O109 C105 1.241 . S
O110 Co98 2.137 1_556 S
O110 C101 1.247 . S
O111 Co98 2.244 . S
O111 C101 1.272 1_554 S
O111 Co103 2.135 . S
Co112 O113 2.216 . S
Co112 O114 2.091 . S
Co112 O116 2.004 . S
Co112 O122 2.021 . S
Co112 O124 2.137 . S
Co112 O125 2.244 . S
O113 Co112 2.216 . S
O113 C120 1.247 . S
O114 Co112 2.091 . S
O114 C120 1.261 . S
C115 O124 1.247 . S
C115 O125 1.272 . S
O116 Co112 2.004 . S
O116 C121 1.259 . S
Co117 O118 2.061 . S
Co117 O123 2.052 . S
Co117 O125 2.135 . S
O118 Co117 2.061 . S
O118 C121 1.235 . S
C119 O122 1.238 . S
C119 O123 1.241 . S
C120 O113 1.247 . S
C120 O114 1.261 . S
C121 O116 1.259 . S
C121 O118 1.235 . S
O122 Co112 2.021 . S
O122 C119 1.238 . S
O123 Co117 2.052 . S
O123 C119 1.241 . S
O124 Co112 2.137 . S
O124 C115 1.247 . S
O125 Co112 2.244 . S
O125 C115 1.272 . S
O125 Co117 2.135 . S
Co126 O127 2.216 . S
Co126 O128 2.091 . S
Co126 O130 2.004 . S
Co126 O136 2.021 . S
Co126 O138 2.137 . S
Co126 O139 2.244 . S
O127 Co126 2.216 . S
O127 C134 1.247 . S
O128 Co126 2.091 . S
O128 C134 1.261 . S
C129 O138 1.247 . S
C129 O139 1.272 . S
O130 Co126 2.004 . S
O130 C135 1.259 . S
Co131 O132 2.061 . S
Co131 O137 2.052 . S
Co131 O139 2.135 . S
O132 Co131 2.061 . S
O132 C135 1.235 . S
C133 O136 1.238 . S
C133 O137 1.241 . S
C134 O127 1.247 . S
C134 O128 1.261 . S
C135 O130 1.259 . S
C135 O132 1.235 . S
O136 Co126 2.021 . S
O136 C133 1.238 . S
O137 Co131 2.052 . S
O137 C133 1.241 . S
O138 Co126 2.137 . S
O138 C129 1.247 . S
O139 Co126 2.244 . S
O139 C129 1.272 . S
O139 Co131 2.135 . S
Co140 O141 2.216 . S
Co140 O142 2.091 . S
Co140 O144 2.004 . S
Co140 O150 2.021 . S
Co140 O152 2.137 . S
Co140 O153 2.244 . S
O141 Co140 2.216 . S
O141 C148 1.247 . S
O142 Co140 2.091 . S
O142 C148 1.261 . S
C143 O152 1.247 . S
C143 O153 1.272 . S
O144 Co140 2.004 . S
O144 C149 1.259 . S
Co145 O146 2.061 . S
Co145 O151 2.052 . S
Co145 O153 2.135 . S
O146 Co145 2.061 . S
O146 C149 1.235 . S
C147 O150 1.238 . S
C147 O151 1.241 . S
C148 O141 1.247 . S
C148 O142 1.261 . S
C149 O144 1.259 . S
C149 O146 1.235 . S
O150 Co140 2.021 . S
O150 C147 1.238 . S
O151 Co145 2.052 . S
O151 C147 1.241 . S
O152 Co140 2.137 . S
O152 C143 1.247 . S
O153 Co140 2.244 . S
O153 C143 1.272 . S
O153 Co145 2.135 . S
Co154 O155 2.216 . S
Co154 O156 2.091 . S
Co154 O158 2.004 . S
Co154 O164 2.021 . S
Co154 O166 2.137 . S
Co154 O167 2.244 . S
O155 Co154 2.216 . S
O155 C162 1.247 . S
O156 Co154 2.091 . S
O156 C162 1.261 . S
C157 O166 1.247 . S
C157 O167 1.272 . S
O158 Co154 2.004 . S
O158 C163 1.259 . S
Co159 O160 2.061 . S
Co159 O165 2.052 . S
Co159 O167 2.135 . S
O160 Co159 2.061 . S
O160 C163 1.235 . S
C161 O164 1.238 . S
C161 O165 1.241 . S
C162 O155 1.247 . S
C162 O156 1.261 . S
C163 O158 1.259 . S
C163 O160 1.235 . S
O164 Co154 2.021 . S
O164 C161 1.238 . S
O165 Co159 2.052 . S
O165 C161 1.241 . S
O166 Co154 2.137 . S
O166 C157 1.247 . S
O167 Co154 2.244 . S
O167 C157 1.272 . S
O167 Co159 2.135 . S
Co168 O169 2.216 . S
Co168 O170 2.091 . S
Co168 O172 2.004 1_455 S
Co168 O178 2.021 . S
Co168 O180 2.137 . S
Co168 O181 2.244 . S
O169 Co168 2.216 . S
O169 C176 1.247 . S
O170 Co168 2.091 . S
O170 C176 1.261 . S
C171 O180 1.247 . S
C171 O181 1.272 . S
O172 Co168 2.004 1_655 S
O172 C177 1.259 . S
Co173 O174 2.061 . S
Co173 O179 2.052 1_655 S
Co173 O181 2.135 1_655 S
O174 Co173 2.061 . S
O174 C177 1.235 . S
C175 O178 1.238 . S
C175 O179 1.241 . S
C176 O169 1.247 . S
C176 O170 1.261 . S
C177 O172 1.259 . S
C177 O174 1.235 . S
O178 Co168 2.021 . S
O178 C175 1.238 . S
O179 Co173 2.052 1_455 S
O179 C175 1.241 . S
O180 Co168 2.137 . S
O180 C171 1.247 . S
O181 Co168 2.244 . S
O181 C171 1.272 . S
O181 Co173 2.135 1_455 S
Co182 O183 2.216 . S
Co182 O184 2.091 . S
Co182 O186 2.004 1_655 S
Co182 O192 2.021 . S
Co182 O194 2.137 . S
Co182 O195 2.244 1_655 S
O183 Co182 2.216 . S
O183 C190 1.247 . S
O184 Co182 2.091 . S
O184 C190 1.261 . S
C185 O194 1.234 1_455 S
C185 O195 1.283 . S
O186 Co182 2.004 1_455 S
O186 C191 1.259 . S
Co187 O188 2.061 . S
Co187 O193 2.052 . S
Co187 O195 2.135 . S
O188 Co187 2.061 . S
O188 C191 1.235 . S
C189 O192 1.238 1_455 S
C189 O193 1.241 . S
C190 O183 1.247 . S
C190 O184 1.261 . S
C191 O186 1.259 . S
C191 O188 1.235 . S
O192 Co182 2.021 . S
O192 C189 1.238 1_655 S
O193 Co187 2.052 . S
O193 C189 1.241 . S
O194 Co182 2.137 . S
O194 C185 1.234 1_655 S
O195 Co182 2.244 1_455 S
O195 C185 1.283 . S
O195 Co187 2.135 . S
Co196 O197 2.216 . S
Co196 O198 2.091 . S
Co196 O200 2.004 . S
Co196 O206 2.021 . S
Co196 O208 2.137 . S
Co196 O209 2.244 . S
O197 Co196 2.216 . S
O197 C204 1.247 . S
O198 Co196 2.091 . S
O198 C204 1.261 . S
C199 O208 1.247 . S
C199 O209 1.272 . S
O200 Co196 2.004 . S
O200 C205 1.259 . S
Co201 O202 2.061 . S
Co201 O207 2.052 . S
Co201 O209 2.135 . S
O202 Co201 2.061 . S
O202 C205 1.235 . S
C203 O206 1.238 . S
C203 O207 1.241 . S
C204 O197 1.247 . S
C204 O198 1.261 . S
C205 O200 1.259 . S
C205 O202 1.235 . S
O206 Co196 2.021 . S
O206 C203 1.238 . S
O207 Co201 2.052 . S
O207 C203 1.241 . S
O208 Co196 2.137 . S
O208 C199 1.247 . S
O209 Co196 2.244 . S
O209 C199 1.272 . S
O209 Co201 2.135 . S
Co210 O211 2.216 . S
Co210 O212 2.091 . S
Co210 O214 2.004 . S
Co210 O220 2.021 . S
Co210 O222 2.137 . S
Co210 O223 2.244 . S
O211 Co210 2.216 . S
O211 C218 1.247 . S
O212 Co210 2.091 . S
O212 C218 1.261 . S
C213 O222 1.247 . S
C213 O223 1.272 . S
O214 Co210 2.004 . S
O214 C219 1.259 . S
Co215 O216 2.061 . S
Co215 O221 2.052 . S
Co215 O223 2.135 . S
O216 Co215 2.061 . S
O216 C219 1.235 . S
C217 O220 1.238 . S
C217 O221 1.241 . S
C218 O211 1.247 . S
C218 O212 1.261 . S
C219 O214 1.259 . S
C219 O216 1.235 . S
O220 Co210 2.021 . S
O220 C217 1.238 . S
O221 Co215 2.052 . S
O221 C217 1.241 . S
O222 Co210 2.137 . S
O222 C213 1.247 . S
O223 Co210 2.244 . S
O223 C213 1.272 . S
O223 Co215 2.135 . S
Co224 O225 2.216 . S
Co224 O226 2.091 . S
Co224 O228 2.004 . S
Co224 O234 2.021 . S
Co224 O236 2.137 . S
Co224 O237 2.244 . S
O225 Co224 2.216 . S
O225 C232 1.247 . S
O226 Co224 2.091 . S
O226 C232 1.261 . S
C227 O236 1.247 . S
C227 O237 1.272 . S
O228 Co224 2.004 . S
O228 C233 1.259 . S
Co229 O230 2.061 . S
Co229 O235 2.052 . S
Co229 O237 2.135 . S
O230 Co229 2.061 . S
O230 C233 1.235 . S
C231 O234 1.238 . S
C231 O235 1.241 . S
C232 O225 1.247 . S
C232 O226 1.261 . S
C233 O228 1.259 . S
C233 O230 1.235 . S
O234 Co224 2.021 . S
O234 C231 1.238 . S
O235 Co229 2.052 . S
O235 C231 1.241 . S
O236 Co224 2.137 . S
O236 C227 1.247 . S
O237 Co224 2.244 . S
O237 C227 1.272 . S
O237 Co229 2.135 . S
Co238 O239 2.216 . S
Co238 O240 2.091 . S
Co238 O242 2.004 . S
Co238 O248 2.021 . S
Co238 O250 2.137 . S
Co238 O251 2.244 . S
O239 Co238 2.216 . S
O239 C246 1.247 . S
O240 Co238 2.091 . S
O240 C246 1.261 . S
C241 O250 1.247 . S
C241 O251 1.272 . S
O242 Co238 2.004 . S
O242 C247 1.259 . S
Co243 O244 2.061 . S
Co243 O249 2.052 . S
Co243 O251 2.135 . S
O244 Co243 2.061 . S
O244 C247 1.235 . S
C245 O248 1.238 . S
C245 O249 1.241 . S
C246 O239 1.247 . S
C246 O240 1.261 . S
C247 O242 1.259 . S
C247 O244 1.235 . S
O248 Co238 2.021 . S
O248 C245 1.238 . S
O249 Co243 2.052 . S
O249 C245 1.241 . S
O250 Co238 2.137 . S
O250 C241 1.247 . S
O251 Co238 2.244 . S
O251 C241 1.272 . S
O251 Co243 2.135 . S
Co252 O253 2.216 1_545 S
Co252 O254 2.091 1_545 S
Co252 O256 2.004 . S
Co252 O262 2.021 . S
Co252 O264 2.137 1_545 S
Co252 O265 2.244 . S
O253 Co252 2.216 1_565 S
O253 C260 1.247 . S
O254 Co252 2.091 1_565 S
O254 C260 1.261 . S
C255 O264 1.247 1_545 S
C255 O265 1.272 . S
O256 Co252 2.004 . S
O256 C261 1.259 . S
Co257 O258 2.061 . S
Co257 O263 2.052 . S
Co257 O265 2.135 . S
O258 Co257 2.061 . S
O258 C261 1.235 . S
C259 O262 1.238 . S
C259 O263 1.241 . S
C260 O253 1.247 . S
C260 O254 1.261 . S
C261 O256 1.259 . S
C261 O258 1.235 . S
O262 Co252 2.021 . S
O262 C259 1.238 . S
O263 Co257 2.052 . S
O263 C259 1.241 . S
O264 Co252 2.137 1_565 S
O264 C255 1.247 1_565 S
O265 Co252 2.244 . S
O265 C255 1.272 . S
O265 Co257 2.135 . S
Co266 O267 2.216 . S
Co266 O268 2.091 . S
Co266 O270 2.004 . S
Co266 O276 2.021 . S
Co266 O278 2.137 1_554 S
Co266 O279 2.244 . S
O267 Co266 2.216 . S
O267 C274 1.247 . S
O268 Co266 2.091 . S
O268 C274 1.261 . S
C269 O278 1.247 . S
C269 O279 1.272 1_556 S
O270 Co266 2.004 . S
O270 C275 1.259 . S
Co271 O272 2.061 . S
Co271 O277 2.052 . S
Co271 O279 2.135 . S
O272 Co271 2.061 . S
O272 C275 1.235 . S
C273 O276 1.238 . S
C273 O277 1.241 . S
C274 O267 1.247 . S
C274 O268 1.261 . S
C275 O270 1.259 . S
C275 O272 1.235 . S
O276 Co266 2.021 . S
O276 C273 1.238 . S
O277 Co271 2.052 . S
O277 C273 1.241 . S
O278 Co266 2.137 1_556 S
O278 C269 1.247 . S
O279 Co266 2.244 . S
O279 C269 1.272 1_554 S
O279 Co271 2.135 . S
Co280 O281 2.216 . S
Co280 O282 2.090 1_556 S
Co280 O284 2.004 . S
Co280 O290 2.021 1_556 S
Co280 O292 2.137 . S
Co280 O293 2.244 . S
O281 Co280 2.216 . S
O281 C288 1.249 . S
O282 Co280 2.090 1_554 S
O282 C288 1.262 1_554 S
C283 O292 1.247 . S
C283 O293 1.272 . S
O284 Co280 2.004 . S
O284 C289 1.260 . S
Co285 O286 2.061 1_556 S
Co285 O291 2.046 1_556 S
Co285 O293 2.138 . S
O286 Co285 2.061 1_554 S
O286 C289 1.234 1_554 S
C287 O290 1.238 . S
C287 O291 1.241 . S
C288 O281 1.249 . S
C288 O282 1.262 1_556 S
C289 O284 1.260 . S
C289 O286 1.234 1_556 S
O290 Co280 2.021 1_554 S
O290 C287 1.238 . S
O291 Co285 2.046 1_554 S
O291 C287 1.241 . S
O292 Co280 2.137 . S
O292 C283 1.247 . S
O293 Co280 2.244 . S
O293 C283 1.272 . S
O293 Co285 2.138 . S
Co294 O295 2.216 . S
Co294 O296 2.091 . S
Co294 O298 2.004 . S
Co294 O304 2.021 . S
Co294 O306 2.137 . S
Co294 O307 2.244 . S
O295 Co294 2.216 . S
O295 C302 1.247 . S
O296 Co294 2.091 . S
O296 C302 1.261 . S
C297 O306 1.247 . S
C297 O307 1.272 . S
O298 Co294 2.004 . S
O298 C303 1.259 . S
Co299 O300 2.061 . S
Co299 O305 2.052 . S
Co299 O307 2.135 . S
O300 Co299 2.061 . S
O300 C303 1.235 . S
C301 O304 1.238 . S
C301 O305 1.241 . S
C302 O295 1.247 . S
C302 O296 1.261 . S
C303 O298 1.259 . S
C303 O300 1.235 . S
O304 Co294 2.021 . S
O304 C301 1.238 . S
O305 Co299 2.052 . S
O305 C301 1.241 . S
O306 Co294 2.137 . S
O306 C297 1.247 . S
O307 Co294 2.244 . S
O307 C297 1.272 . S
O307 Co299 2.135 . S
Co308 O309 2.216 . S
Co308 O310 2.091 . S
Co308 O312 2.004 . S
Co308 O318 2.021 . S
Co308 O320 2.137 . S
Co308 O321 2.244 . S
O309 Co308 2.216 . S
O309 C316 1.247 . S
O310 Co308 2.091 . S
O310 C316 1.261 . S
C311 O320 1.247 . S
C311 O321 1.272 . S
O312 Co308 2.004 . S
O312 C317 1.259 . S
Co313 O314 2.061 . S
Co313 O319 2.052 . S
Co313 O321 2.135 . S
O314 Co313 2.061 . S
O314 C317 1.235 . S
C315 O318 1.238 . S
C315 O319 1.241 . S
C316 O309 1.247 . S
C316 O310 1.261 . S
C317 O312 1.259 . S
C317 O314 1.235 . S
O318 Co308 2.021 . S
O318 C315 1.238 . S
O319 Co313 2.052 . S
O319 C315 1.241 . S
O320 Co308 2.137 . S
O320 C311 1.247 . S
O321 Co308 2.244 . S
O321 C311 1.272 . S
O321 Co313 2.135 . S
Co322 O323 2.216 . S
Co322 O324 2.091 . S
Co322 O326 2.004 . S
Co322 O332 2.021 . S
Co322 O334 2.137 . S
Co322 O335 2.244 . S
O323 Co322 2.216 . S
O323 C330 1.247 . S
O324 Co322 2.091 . S
O324 C330 1.261 . S
C325 O334 1.247 . S
C325 O335 1.272 . S
O326 Co322 2.004 . S
O326 C331 1.259 . S
Co327 O328 2.061 . S
Co327 O333 2.052 . S
Co327 O335 2.135 . S
O328 Co327 2.061 . S
O328 C331 1.235 . S
C329 O332 1.238 . S
C329 O333 1.241 . S
C330 O323 1.247 . S
C330 O324 1.261 . S
C331 O326 1.259 . S
C331 O328 1.235 . S
O332 Co322 2.021 . S
O332 C329 1.238 . S
O333 Co327 2.052 . S
O333 C329 1.241 . S
O334 Co322 2.137 . S
O334 C325 1.247 . S
O335 Co322 2.244 . S
O335 C325 1.272 . S
O335 Co327 2.135 . S
Co336 N341 2.021 1_554 S
Co336 O353 2.008 1_554 S
Co336 O356 2.075 1_455 S
Co336 O360 2.144 . S
Co336 O361 2.020 . S
C337 O357 1.259 . S
C337 O360 1.258 . S
Co338 N347 2.057 . S
Co338 O354 2.117 1_545 S
Co338 O355 2.020 1_455 S
Co338 O357 2.021 . S
Co338 O362 2.062 . S
C339 N341 1.307 1_655 S
C339 N342 1.364 . S
C339 H344 0.925 1_655 S
C340 N341 1.375 1_655 S
C340 C343 1.350 . S
C340 H345 0.930 . S
N341 Co336 2.021 1_556 S
N341 C339 1.307 1_455 S
N341 C340 1.375 1_455 S
N342 C339 1.364 . S
N342 C343 1.373 . S
C343 C340 1.350 . S
C343 N342 1.373 . S
C343 H364 0.931 . S
H344 C339 0.925 1_455 S
H345 C340 0.930 . S
C346 O353 1.259 1_564 S
C346 O354 1.258 . S
N347 Co338 2.057 . S
N347 C348 1.316 . S
N347 C349 1.375 1_545 S
C348 N347 1.316 . S
C348 N350 1.368 . S
C348 H359 0.931 . S
C349 N347 1.375 1_565 S
C349 C351 1.350 . S
C349 H358 0.930 . S
N350 C348 1.368 . S
N350 C351 1.344 1_545 S
C351 C349 1.350 . S
C351 N350 1.344 1_565 S
C351 H365 0.931 . S
C352 O355 1.256 . S
C352 O356 1.255 . S
O353 Co336 2.008 1_556 S
O353 C346 1.259 1_546 S
O354 Co338 2.117 1_565 S
O354 C346 1.258 . S
O355 Co338 2.020 1_655 S
O355 C352 1.256 . S
O356 Co336 2.075 1_655 S
O356 C352 1.255 . S
O357 C337 1.259 . S
O357 Co338 2.021 . S
H358 C349 0.930 . S
H359 C348 0.931 . S
O360 Co336 2.144 . S
O360 C337 1.258 . S
O361 Co336 2.020 . S
O361 C363 1.281 . S
O362 Co338 2.062 . S
O362 C363 1.255 . S
C363 O361 1.281 . S
C363 O362 1.255 . S
H364 C343 0.931 . S
H365 C351 0.931 . S
Co366 N371 2.057 . S
Co366 O383 2.021 . S
Co366 O386 2.062 . S
Co366 O390 2.117 . S
Co366 O391 2.020 . S
C367 O387 1.259 . S
C367 O390 1.258 . S
Co368 N377 2.057 . S
Co368 O384 2.117 . S
Co368 O385 2.020 . S
Co368 O387 2.021 . S
Co368 O392 2.062 . S
C369 N371 1.316 . S
C369 N372 1.347 . S
C369 H374 0.931 . S
C370 N371 1.375 . S
C370 C373 1.350 . S
C370 H375 0.930 . S
N371 Co366 2.057 . S
N371 C369 1.316 . S
N371 C370 1.375 . S
N372 C369 1.347 . S
N372 C373 1.373 . S
C373 C370 1.350 . S
C373 N372 1.373 . S
C373 H394 0.931 . S
H374 C369 0.931 . S
H375 C370 0.930 . S
C376 O383 1.259 . S
C376 O384 1.258 . S
N377 Co368 2.057 . S
N377 C378 1.316 . S
N377 C379 1.375 . S
C378 N377 1.316 . S
C378 N380 1.347 . S
C378 H389 0.931 . S
C379 N377 1.375 . S
C379 C381 1.350 . S
C379 H388 0.930 . S
N380 C378 1.347 . S
N380 C381 1.373 . S
C381 C379 1.350 . S
C381 N380 1.373 . S
C381 H395 0.931 . S
C382 O385 1.256 . S
C382 O386 1.255 . S
O383 Co366 2.021 . S
O383 C376 1.259 . S
O384 Co368 2.117 . S
O384 C376 1.258 . S
O385 Co368 2.020 . S
O385 C382 1.256 . S
O386 Co366 2.062 . S
O386 C382 1.255 . S
O387 C367 1.259 . S
O387 Co368 2.021 . S
H388 C379 0.930 . S
H389 C378 0.931 . S
O390 Co366 2.117 . S
O390 C367 1.258 . S
O391 Co366 2.020 . S
O391 C393 1.256 . S
O392 Co368 2.062 . S
O392 C393 1.255 . S
C393 O391 1.256 . S
C393 O392 1.255 . S
H394 C373 0.931 . S
H395 C381 0.931 . S
Co396 N401 2.057 . S
Co396 O413 2.021 1_545 S
Co396 O416 2.062 . S
Co396 O420 2.117 . S
Co396 O421 2.020 . S
C397 O417 1.259 . S
C397 O420 1.258 . S
Co398 N407 2.057 . S
Co398 O414 2.117 . S
Co398 O415 2.020 . S
Co398 O417 2.021 . S
Co398 O422 2.062 . S
C399 N401 1.316 1_565 S
C399 N402 1.347 1_565 S
C399 H404 0.931 . S
C400 N401 1.375 . S
C400 C403 1.350 . S
C400 H405 0.930 . S
N401 Co396 2.057 . S
N401 C399 1.316 1_545 S
N401 C400 1.375 . S
N402 C399 1.347 1_545 S
N402 C403 1.373 . S
C403 C400 1.350 . S
C403 N402 1.373 . S
C403 H424 0.931 . S
H404 C399 0.931 . S
H405 C400 0.930 . S
C406 O413 1.259 . S
C406 O414 1.258 1_565 S
N407 Co398 2.057 . S
N407 C408 1.316 . S
N407 C409 1.375 . S
C408 N407 1.316 . S
C408 N410 1.347 . S
C408 H419 0.931 . S
C409 N407 1.375 . S
C409 C411 1.350 . S
C409 H418 0.930 . S
N410 C408 1.347 . S
N410 C411 1.373 . S
C411 C409 1.350 . S
C411 N410 1.373 . S
C411 H425 0.931 . S
C412 O415 1.256 . S
C412 O416 1.255 . S
O413 Co396 2.021 1_565 S
O413 C406 1.259 . S
O414 Co398 2.117 . S
O414 C406 1.258 1_545 S
O415 Co398 2.020 . S
O415 C412 1.256 . S
O416 Co396 2.062 . S
O416 C412 1.255 . S
O417 C397 1.259 . S
O417 Co398 2.021 . S
H418 C409 0.930 . S
H419 C408 0.931 . S
O420 Co396 2.117 . S
O420 C397 1.258 . S
O421 Co396 2.020 . S
O421 C423 1.256 . S
O422 Co398 2.062 . S
O422 C423 1.255 . S
C423 O421 1.256 . S
C423 O422 1.255 . S
H424 C403 0.931 . S
H425 C411 0.931 . S
Co426 N431 2.057 . S
Co426 O443 2.021 . S
Co426 O446 2.062 . S
Co426 O450 2.117 . S
Co426 O451 2.020 . S
C427 O447 1.259 . S
C427 O450 1.258 . S
Co428 N437 2.057 . S
Co428 O444 2.117 . S
Co428 O445 2.020 . S
Co428 O447 2.021 . S
Co428 O452 2.062 . S
C429 N431 1.316 . S
C429 N432 1.347 . S
C429 H434 0.931 . S
C430 N431 1.375 . S
C430 C433 1.350 . S
C430 H435 0.930 . S
N431 Co426 2.057 . S
N431 C429 1.316 . S
N431 C430 1.375 . S
N432 C429 1.347 . S
N432 C433 1.373 . S
C433 C430 1.350 . S
C433 N432 1.373 . S
C433 H454 0.931 . S
H434 C429 0.931 . S
H435 C430 0.930 . S
C436 O443 1.259 . S
C436 O444 1.258 . S
N437 Co428 2.057 . S
N437 C438 1.316 . S
N437 C439 1.375 . S
C438 N437 1.316 . S
C438 N440 1.347 . S
C438 H449 0.931 . S
C439 N437 1.375 . S
C439 C441 1.350 . S
C439 H448 0.930 . S
N440 C438 1.347 . S
N440 C441 1.373 . S
C441 C439 1.350 . S
C441 N440 1.373 . S
C441 H455 0.931 . S
C442 O445 1.256 . S
C442 O446 1.255 . S
O443 Co426 2.021 . S
O443 C436 1.259 . S
O444 Co428 2.117 . S
O444 C436 1.258 . S
O445 Co428 2.020 . S
O445 C442 1.256 . S
O446 Co426 2.062 . S
O446 C442 1.255 . S
O447 C427 1.259 . S
O447 Co428 2.021 . S
H448 C439 0.930 . S
H449 C438 0.931 . S
O450 Co426 2.117 . S
O450 C427 1.258 . S
O451 Co426 2.020 . S
O451 C453 1.256 . S
O452 Co428 2.062 . S
O452 C453 1.255 . S
C453 O451 1.256 . S
C453 O452 1.255 . S
H454 C433 0.931 . S
H455 C441 0.931 . S
Co456 N461 2.057 1_545 S
Co456 O473 2.021 . S
Co456 O476 2.055 1_545 S
Co456 O480 2.117 . S
Co456 O481 2.020 1_455 S
C457 O477 1.259 . S
C457 O480 1.258 . S
Co458 N467 2.057 . S
Co458 O474 2.117 . S
Co458 O475 2.020 . S
Co458 O477 2.021 . S
Co458 O482 2.062 1_455 S
C459 N461 1.316 . S
C459 N462 1.347 . S
C459 H464 0.931 . S
C460 N461 1.375 1_655 S
C460 C463 1.350 . S
C460 H465 0.930 . S
N461 Co456 2.057 1_565 S
N461 C459 1.316 . S
N461 C460 1.375 1_455 S
N462 C459 1.347 . S
N462 C463 1.373 1_455 S
C463 C460 1.350 . S
C463 N462 1.373 1_655 S
C463 H484 0.931 . S
H464 C459 0.931 . S
H465 C460 0.930 . S
C466 O473 1.259 . S
C466 O474 1.258 . S
N467 Co458 2.057 . S
N467 C468 1.316 . S
N467 C469 1.375 . S
C468 N467 1.316 . S
C468 N470 1.347 . S
C468 H479 0.931 . S
C469 N467 1.375 . S
C469 C471 1.350 . S
C469 H478 0.930 . S
N470 C468 1.347 . S
N470 C471 1.373 . S
C471 C469 1.350 . S
C471 N470 1.373 . S
C471 H485 0.931 . S
C472 O475 1.256 . S
C472 O476 1.236 1_545 S
O473 Co456 2.021 . S
O473 C466 1.259 . S
O474 Co458 2.117 . S
O474 C466 1.258 . S
O475 Co458 2.020 . S
O475 C472 1.256 . S
O476 Co456 2.055 1_565 S
O476 C472 1.236 1_565 S
O477 C457 1.259 . S
O477 Co458 2.021 . S
H478 C469 0.930 . S
H479 C468 0.931 . S
O480 Co456 2.117 . S
O480 C457 1.258 . S
O481 Co456 2.020 1_655 S
O481 C483 1.256 . S
O482 Co458 2.062 1_655 S
O482 C483 1.255 . S
C483 O481 1.256 . S
C483 O482 1.255 . S
H484 C463 0.931 . S
H485 C471 0.931 . S
Co486 N491 2.057 . S
Co486 O503 2.021 . S
Co486 O506 2.062 . S
Co486 O510 2.117 . S
Co486 O511 2.020 . S
C487 O507 1.259 . S
C487 O510 1.258 . S
Co488 N497 2.057 . S
Co488 O504 2.117 . S
Co488 O505 2.020 . S
Co488 O507 2.021 . S
Co488 O512 2.062 . S
C489 N491 1.316 . S
C489 N492 1.347 . S
C489 H494 0.931 . S
C490 N491 1.375 . S
C490 C493 1.350 . S
C490 H495 0.930 . S
N491 Co486 2.057 . S
N491 C489 1.316 . S
N491 C490 1.375 . S
N492 C489 1.347 . S
N492 C493 1.373 . S
C493 C490 1.350 . S
C493 N492 1.373 . S
C493 H514 0.931 . S
H494 C489 0.931 . S
H495 C490 0.930 . S
C496 O503 1.259 . S
C496 O504 1.258 . S
N497 Co488 2.057 . S
N497 C498 1.316 . S
N497 C499 1.375 . S
C498 N497 1.316 . S
C498 N500 1.347 . S
C498 H509 0.931 . S
C499 N497 1.375 . S
C499 C501 1.350 . S
C499 H508 0.930 . S
N500 C498 1.347 . S
N500 C501 1.373 . S
C501 C499 1.350 . S
C501 N500 1.373 . S
C501 H515 0.931 . S
C502 O505 1.256 . S
C502 O506 1.255 . S
O503 Co486 2.021 . S
O503 C496 1.259 . S
O504 Co488 2.117 . S
O504 C496 1.258 . S
O505 Co488 2.020 . S
O505 C502 1.256 . S
O506 Co486 2.062 . S
O506 C502 1.255 . S
O507 C487 1.259 . S
O507 Co488 2.021 . S
H508 C499 0.930 . S
H509 C498 0.931 . S
O510 Co486 2.117 . S
O510 C487 1.258 . S
O511 Co486 2.020 . S
O511 C513 1.256 . S
O512 Co488 2.062 . S
O512 C513 1.255 . S
C513 O511 1.256 . S
C513 O512 1.255 . S
H514 C493 0.931 . S
H515 C501 0.931 . S
Co516 N521 2.057 1_554 S
Co516 O533 2.021 . S
Co516 O536 2.062 1_554 S
Co516 O540 2.117 . S
Co516 O541 2.020 1_545 S
C517 O537 1.259 . S
C517 O540 1.258 . S
Co518 N527 2.057 . S
Co518 O534 2.117 . S
Co518 O535 2.020 . S
Co518 O537 2.021 . S
Co518 O542 2.062 . S
C519 N521 1.316 . S
C519 N522 1.347 . S
C519 H524 0.931 . S
C520 N521 1.375 . S
C520 C523 1.350 . S
C520 H525 0.930 1_545 S
N521 Co516 2.057 1_556 S
N521 C519 1.316 . S
N521 C520 1.375 . S
N522 C519 1.347 . S
N522 C523 1.373 . S
C523 C520 1.350 . S
C523 N522 1.373 . S
C523 H544 0.931 1_545 S
H524 C519 0.931 . S
H525 C520 0.930 1_565 S
C526 O533 1.259 . S
C526 O534 1.258 . S
N527 Co518 2.057 . S
N527 C528 1.316 . S
N527 C529 1.375 . S
C528 N527 1.316 . S
C528 N530 1.347 . S
C528 H539 0.931 . S
C529 N527 1.375 . S
C529 C531 1.350 . S
C529 H538 0.930 . S
N530 C528 1.347 . S
N530 C531 1.373 . S
C531 C529 1.350 . S
C531 N530 1.373 . S
C531 H545 0.931 . S
C532 O535 1.256 . S
C532 O536 1.255 1_554 S
O533 Co516 2.021 . S
O533 C526 1.259 . S
O534 Co518 2.117 . S
O534 C526 1.258 . S
O535 Co518 2.020 . S
O535 C532 1.256 . S
O536 Co516 2.062 1_556 S
O536 C532 1.255 1_556 S
O537 C517 1.259 . S
O537 Co518 2.021 . S
H538 C529 0.930 . S
H539 C528 0.931 . S
O540 Co516 2.117 . S
O540 C517 1.258 . S
O541 Co516 2.020 1_565 S
O541 C543 1.256 . S
O542 Co518 2.062 . S
O542 C543 1.255 1_545 S
C543 O541 1.256 . S
C543 O542 1.255 1_565 S
H544 C523 0.931 1_565 S
H545 C531 0.931 . S
Co546 N551 2.057 . S
Co546 O563 2.021 . S
Co546 O566 2.062 . S
Co546 O570 2.117 . S
Co546 O571 2.020 . S
C547 O567 1.259 . S
C547 O570 1.258 . S
Co548 N557 2.057 . S
Co548 O564 2.117 . S
Co548 O565 2.020 . S
Co548 O567 2.021 . S
Co548 O572 2.062 . S
C549 N551 1.316 . S
C549 N552 1.347 . S
C549 H554 0.931 . S
C550 N551 1.375 . S
C550 C553 1.350 . S
C550 H555 0.930 . S
N551 Co546 2.057 . S
N551 C549 1.316 . S
N551 C550 1.375 . S
N552 C549 1.347 . S
N552 C553 1.373 . S
C553 C550 1.350 . S
C553 N552 1.373 . S
C553 H574 0.931 . S
H554 C549 0.931 . S
H555 C550 0.930 . S
C556 O563 1.259 . S
C556 O564 1.258 . S
N557 Co548 2.057 . S
N557 C558 1.316 . S
N557 C559 1.375 . S
C558 N557 1.316 . S
C558 N560 1.347 . S
C558 H569 0.931 . S
C559 N557 1.375 . S
C559 C561 1.350 . S
C559 H568 0.930 . S
N560 C558 1.347 . S
N560 C561 1.373 . S
C561 C559 1.350 . S
C561 N560 1.373 . S
C561 H575 0.931 . S
C562 O565 1.256 . S
C562 O566 1.255 . S
O563 Co546 2.021 . S
O563 C556 1.259 . S
O564 Co548 2.117 . S
O564 C556 1.258 . S
O565 Co548 2.020 . S
O565 C562 1.256 . S
O566 Co546 2.062 . S
O566 C562 1.255 . S
O567 C547 1.259 . S
O567 Co548 2.021 . S
H568 C559 0.930 . S
H569 C558 0.931 . S
O570 Co546 2.117 . S
O570 C547 1.258 . S
O571 Co546 2.020 . S
O571 C573 1.256 . S
O572 Co548 2.062 . S
O572 C573 1.255 . S
C573 O571 1.256 . S
C573 O572 1.255 . S
H574 C553 0.931 . S
H575 C561 0.931 . S
Co576 N581 2.057 . S
Co576 O593 2.021 1_554 S
Co576 O596 2.062 . S
Co576 O600 2.117 . S
Co576 O601 2.020 . S
C577 O597 1.259 . S
C577 O600 1.258 . S
Co578 N587 2.057 . S
Co578 O594 2.140 . S
Co578 O595 2.020 . S
Co578 O597 2.021 . S
Co578 O602 2.062 . S
C579 N581 1.316 1_556 S
C579 N582 1.347 1_556 S
C579 H584 0.931 . S
C580 N581 1.375 . S
C580 C583 1.350 . S
C580 H585 0.930 . S
N581 Co576 2.057 . S
N581 C579 1.316 1_554 S
N581 C580 1.375 . S
N582 C579 1.347 1_554 S
N582 C583 1.373 . S
C583 C580 1.350 . S
C583 N582 1.373 . S
C583 H604 0.931 . S
H584 C579 0.931 . S
H585 C580 0.930 . S
C586 O593 1.259 . S
C586 O594 1.240 1_556 S
N587 Co578 2.057 . S
N587 C588 1.316 . S
N587 C589 1.375 . S
C588 N587 1.316 . S
C588 N590 1.347 . S
C588 H599 0.931 . S
C589 N587 1.375 . S
C589 C591 1.350 . S
C589 H598 0.930 . S
N590 C588 1.347 . S
N590 C591 1.373 . S
C591 C589 1.350 . S
C591 N590 1.373 . S
C591 H605 0.931 . S
C592 O595 1.256 . S
C592 O596 1.255 . S
O593 Co576 2.021 1_556 S
O593 C586 1.259 . S
O594 Co578 2.140 . S
O594 C586 1.240 1_554 S
O595 Co578 2.020 . S
O595 C592 1.256 . S
O596 Co576 2.062 . S
O596 C592 1.255 . S
O597 C577 1.259 . S
O597 Co578 2.021 . S
H598 C589 0.930 . S
H599 C588 0.931 . S
O600 Co576 2.117 . S
O600 C577 1.258 . S
O601 Co576 2.020 . S
O601 C603 1.256 . S
O602 Co578 2.062 . S
O602 C603 1.255 . S
C603 O601 1.256 . S
C603 O602 1.255 . S
H604 C583 0.931 . S
H605 C591 0.931 . S
Co606 N611 2.057 . S
Co606 O623 2.021 . S
Co606 O626 2.062 . S
Co606 O630 2.117 . S
Co606 O631 2.020 . S
C607 O627 1.259 . S
C607 O630 1.258 . S
Co608 N617 2.057 . S
Co608 O624 2.117 . S
Co608 O625 2.020 . S
Co608 O627 2.021 . S
Co608 O632 2.062 . S
C609 N611 1.316 . S
C609 N612 1.347 . S
C609 H614 0.931 . S
C610 N611 1.375 . S
C610 C613 1.350 . S
C610 H615 0.930 . S
N611 Co606 2.057 . S
N611 C609 1.316 . S
N611 C610 1.375 . S
N612 C609 1.347 . S
N612 C613 1.373 . S
C613 C610 1.350 . S
C613 N612 1.373 . S
C613 H634 0.931 . S
H614 C609 0.931 . S
H615 C610 0.930 . S
C616 O623 1.259 . S
C616 O624 1.258 . S
N617 Co608 2.057 . S
N617 C618 1.316 . S
N617 C619 1.375 . S
C618 N617 1.316 . S
C618 N620 1.347 . S
C618 H629 0.931 . S
C619 N617 1.375 . S
C619 C621 1.350 . S
C619 H628 0.930 . S
N620 C618 1.347 . S
N620 C621 1.373 . S
C621 C619 1.350 . S
C621 N620 1.373 . S
C621 H635 0.931 . S
C622 O625 1.256 . S
C622 O626 1.255 . S
O623 Co606 2.021 . S
O623 C616 1.259 . S
O624 Co608 2.117 . S
O624 C616 1.258 . S
O625 Co608 2.020 . S
O625 C622 1.256 . S
O626 Co606 2.062 . S
O626 C622 1.255 . S
O627 C607 1.259 . S
O627 Co608 2.021 . S
H628 C619 0.930 . S
H629 C618 0.931 . S
O630 Co606 2.117 . S
O630 C607 1.258 . S
O631 Co606 2.020 . S
O631 C633 1.256 . S
O632 Co608 2.062 . S
O632 C633 1.255 . S
C633 O631 1.256 . S
C633 O632 1.255 . S
H634 C613 0.931 . S
H635 C621 0.931 . S
Co636 N641 2.057 . S
Co636 O653 2.021 1_455 S
Co636 O656 2.062 . S
Co636 O660 2.117 . S
Co636 O661 2.020 . S
C637 O657 1.259 . S
C637 O660 1.258 . S
Co638 N647 2.057 . S
Co638 O654 2.117 1_455 S
Co638 O655 2.020 . S
Co638 O657 2.021 . S
Co638 O662 2.062 . S
C639 N641 1.316 1_655 S
C639 N642 1.347 . S
C639 H644 0.931 . S
C640 N641 1.375 . S
C640 C643 1.350 . S
C640 H645 0.930 . S
N641 Co636 2.057 . S
N641 C639 1.316 1_455 S
N641 C640 1.375 . S
N642 C639 1.347 . S
N642 C643 1.373 1_655 S
C643 C640 1.350 . S
C643 N642 1.373 1_455 S
C643 H664 0.931 . S
H644 C639 0.931 . S
H645 C640 0.930 . S
C646 O653 1.259 . S
C646 O654 1.258 . S
N647 Co638 2.057 . S
N647 C648 1.316 . S
N647 C649 1.375 . S
C648 N647 1.316 . S
C648 N650 1.347 . S
C648 H659 0.931 . S
C649 N647 1.375 . S
C649 C651 1.350 . S
C649 H658 0.930 . S
N650 C648 1.347 . S
N650 C651 1.373 . S
C651 C649 1.350 . S
C651 N650 1.373 . S
C651 H665 0.931 . S
C652 O655 1.256 . S
C652 O656 1.255 . S
O653 Co636 2.021 1_655 S
O653 C646 1.259 . S
O654 Co638 2.117 1_655 S
O654 C646 1.258 . S
O655 Co638 2.020 . S
O655 C652 1.256 . S
O656 Co636 2.062 . S
O656 C652 1.255 . S
O657 C637 1.259 . S
O657 Co638 2.021 . S
H658 C649 0.930 . S
H659 C648 0.931 . S
O660 Co636 2.117 . S
O660 C637 1.258 . S
O661 Co636 2.020 . S
O661 C663 1.256 . S
O662 Co638 2.062 . S
O662 C663 1.255 . S
C663 O661 1.256 . S
C663 O662 1.255 . S
H664 C643 0.931 . S
H665 C651 0.931 . S
Co666 N671 2.057 . S
Co666 O683 2.021 . S
Co666 O686 2.062 . S
Co666 O690 2.117 . S
Co666 O691 2.020 . S
C667 O687 1.259 . S
C667 O690 1.258 . S
Co668 N677 2.057 . S
Co668 O684 2.117 . S
Co668 O685 2.020 . S
Co668 O687 2.021 . S
Co668 O692 2.062 . S
C669 N671 1.316 . S
C669 N672 1.347 . S
C669 H674 0.931 . S
C670 N671 1.375 . S
C670 C673 1.350 . S
C670 H675 0.930 . S
N671 Co666 2.057 . S
N671 C669 1.316 . S
N671 C670 1.375 . S
N672 C669 1.347 . S
N672 C673 1.373 . S
C673 C670 1.350 . S
C673 N672 1.373 . S
C673 H694 0.931 . S
H674 C669 0.931 . S
H675 C670 0.930 . S
C676 O683 1.259 . S
C676 O684 1.258 . S
N677 Co668 2.057 . S
N677 C678 1.316 . S
N677 C679 1.375 . S
C678 N677 1.316 . S
C678 N680 1.347 . S
C678 H689 0.931 . S
C679 N677 1.375 . S
C679 C681 1.350 . S
C679 H688 0.930 . S
N680 C678 1.347 . S
N680 C681 1.373 . S
C681 C679 1.350 . S
C681 N680 1.373 . S
C681 H695 0.931 . S
C682 O685 1.256 . S
C682 O686 1.255 . S
O683 Co666 2.021 . S
O683 C676 1.259 . S
O684 Co668 2.117 . S
O684 C676 1.258 . S
O685 Co668 2.020 . S
O685 C682 1.256 . S
O686 Co666 2.062 . S
O686 C682 1.255 . S
O687 C667 1.259 . S
O687 Co668 2.021 . S
H688 C679 0.930 . S
H689 C678 0.931 . S
O690 Co666 2.117 . S
O690 C667 1.258 . S
O691 Co666 2.020 . S
O691 C693 1.256 . S
O692 Co668 2.062 . S
O692 C693 1.255 . S
C693 O691 1.256 . S
C693 O692 1.255 . S
H694 C673 0.931 . S
H695 C681 0.931 . S
Co696 N701 2.057 . S
Co696 O713 2.021 . S
Co696 O716 2.062 . S
Co696 O720 2.117 . S
Co696 O721 2.020 . S
C697 O717 1.259 . S
C697 O720 1.258 . S
Co698 N707 2.057 . S
Co698 O714 2.117 . S
Co698 O715 2.020 . S
Co698 O717 2.021 . S
Co698 O722 2.062 . S
C699 N701 1.316 . S
C699 N702 1.347 . S
C699 H704 0.931 . S
C700 N701 1.375 . S
C700 C703 1.350 . S
C700 H705 0.930 . S
N701 Co696 2.057 . S
N701 C699 1.316 . S
N701 C700 1.375 . S
N702 C699 1.347 . S
N702 C703 1.373 . S
C703 C700 1.350 . S
C703 N702 1.373 . S
C703 H724 0.931 . S
H704 C699 0.931 . S
H705 C700 0.930 . S
C706 O713 1.259 . S
C706 O714 1.258 . S
N707 Co698 2.057 . S
N707 C708 1.316 . S
N707 C709 1.375 . S
C708 N707 1.316 . S
C708 N710 1.347 . S
C708 H719 0.931 . S
C709 N707 1.375 . S
C709 C711 1.350 . S
C709 H718 0.930 . S
N710 C708 1.347 . S
N710 C711 1.373 . S
C711 C709 1.350 . S
C711 N710 1.373 . S
C711 H725 0.931 . S
C712 O715 1.256 . S
C712 O716 1.255 . S
O713 Co696 2.021 . S
O713 C706 1.259 . S
O714 Co698 2.117 . S
O714 C706 1.258 . S
O715 Co698 2.020 . S
O715 C712 1.256 . S
O716 Co696 2.062 . S
O716 C712 1.255 . S
O717 C697 1.259 . S
O717 Co698 2.021 . S
H718 C709 0.930 . S
H719 C708 0.931 . S
O720 Co696 2.117 . S
O720 C697 1.258 . S
O721 Co696 2.020 . S
O721 C723 1.256 . S
O722 Co698 2.062 . S
O722 C723 1.255 . S
C723 O721 1.256 . S
C723 O722 1.255 . S
H724 C703 0.931 . S
H725 C711 0.931 . S
Co726 N731 2.057 . S
Co726 O743 2.021 . S
Co726 O746 2.062 . S
Co726 O750 2.117 . S
Co726 O751 2.020 . S
C727 O747 1.259 . S
C727 O750 1.258 . S
Co728 N737 2.057 . S
Co728 O744 2.117 . S
Co728 O745 2.020 . S
Co728 O747 2.021 . S
Co728 O752 2.062 . S
C729 N731 1.316 . S
C729 N732 1.347 . S
C729 H734 0.931 . S
C730 N731 1.375 . S
C730 C733 1.350 . S
C730 H735 0.930 . S
N731 Co726 2.057 . S
N731 C729 1.316 . S
N731 C730 1.375 . S
N732 C729 1.347 . S
N732 C733 1.373 . S
C733 C730 1.350 . S
C733 N732 1.373 . S
C733 H754 0.931 . S
H734 C729 0.931 . S
H735 C730 0.930 . S
C736 O743 1.259 . S
C736 O744 1.258 . S
N737 Co728 2.057 . S
N737 C738 1.316 . S
N737 C739 1.375 . S
C738 N737 1.316 . S
C738 N740 1.347 . S
C738 H749 0.931 . S
C739 N737 1.375 . S
C739 C741 1.350 . S
C739 H748 0.930 . S
N740 C738 1.347 . S
N740 C741 1.373 . S
C741 C739 1.350 . S
C741 N740 1.373 . S
C741 H755 0.931 . S
C742 O745 1.256 . S
C742 O746 1.255 . S
O743 Co726 2.021 . S
O743 C736 1.259 . S
O744 Co728 2.117 . S
O744 C736 1.258 . S
O745 Co728 2.020 . S
O745 C742 1.256 . S
O746 Co726 2.062 . S
O746 C742 1.255 . S
O747 C727 1.259 . S
O747 Co728 2.021 . S
H748 C739 0.930 . S
H749 C738 0.931 . S
O750 Co726 2.117 . S
O750 C727 1.258 . S
O751 Co726 2.020 . S
O751 C753 1.256 . S
O752 Co728 2.062 . S
O752 C753 1.255 . S
C753 O751 1.256 . S
C753 O752 1.255 . S
H754 C733 0.931 . S
H755 C741 0.931 . S
Co756 N761 2.057 . S
Co756 O773 2.021 . S
Co756 O776 2.062 . S
Co756 O780 2.117 . S
Co756 O781 2.020 . S
C757 O777 1.259 . S
C757 O780 1.258 . S
Co758 N767 2.057 . S
Co758 O774 2.117 . S
Co758 O775 2.020 . S
Co758 O777 2.021 . S
Co758 O782 2.062 . S
C759 N761 1.316 . S
C759 N762 1.347 . S
C759 H764 0.931 . S
C760 N761 1.375 . S
C760 C763 1.350 . S
C760 H765 0.930 . S
N761 Co756 2.057 . S
N761 C759 1.316 . S
N761 C760 1.375 . S
N762 C759 1.347 . S
N762 C763 1.373 . S
C763 C760 1.350 . S
C763 N762 1.373 . S
C763 H784 0.931 . S
H764 C759 0.931 . S
H765 C760 0.930 . S
C766 O773 1.259 . S
C766 O774 1.258 . S
N767 Co758 2.057 . S
N767 C768 1.316 . S
N767 C769 1.375 . S
C768 N767 1.316 . S
C768 N770 1.347 . S
C768 H779 0.931 . S
C769 N767 1.375 . S
C769 C771 1.350 . S
C769 H778 0.930 . S
N770 C768 1.347 . S
N770 C771 1.373 . S
C771 C769 1.350 . S
C771 N770 1.373 . S
C771 H785 0.931 . S
C772 O775 1.256 . S
C772 O776 1.255 . S
O773 Co756 2.021 . S
O773 C766 1.259 . S
O774 Co758 2.117 . S
O774 C766 1.258 . S
O775 Co758 2.020 . S
O775 C772 1.256 . S
O776 Co756 2.062 . S
O776 C772 1.255 . S
O777 C757 1.259 . S
O777 Co758 2.021 . S
H778 C769 0.930 . S
H779 C768 0.931 . S
O780 Co756 2.117 . S
O780 C757 1.258 . S
O781 Co756 2.020 . S
O781 C783 1.256 . S
O782 Co758 2.062 . S
O782 C783 1.255 . S
C783 O781 1.256 . S
C783 O782 1.255 . S
H784 C763 0.931 . S
H785 C771 0.931 . S
Co786 N791 2.057 1_455 S
Co786 O803 2.021 . S
Co786 O806 2.062 1_455 S
Co786 O810 2.117 . S
Co786 O811 2.020 1_554 S
C787 O807 1.259 . S
C787 O810 1.258 . S
Co788 N797 2.057 . S
Co788 O804 2.117 . S
Co788 O805 2.020 . S
Co788 O807 2.021 . S
Co788 O812 2.062 1_554 S
C789 N791 1.316 . S
C789 N792 1.347 . S
C789 H794 0.931 . S
C790 N791 1.375 1_556 S
C790 C793 1.350 . S
C790 H795 0.930 . S
N791 Co786 2.057 1_655 S
N791 C789 1.316 . S
N791 C790 1.375 1_554 S
N792 C789 1.347 . S
N792 C793 1.373 1_554 S
C793 C790 1.350 . S
C793 N792 1.373 1_556 S
C793 H814 0.931 . S
H794 C789 0.931 . S
H795 C790 0.930 . S
C796 O803 1.259 . S
C796 O804 1.258 . S
N797 Co788 2.057 . S
N797 C798 1.316 . S
N797 C799 1.375 . S
C798 N797 1.316 . S
C798 N800 1.347 . S
C798 H809 0.931 . S
C799 N797 1.375 . S
C799 C801 1.350 . S
C799 H808 0.930 . S
N800 C798 1.347 . S
N800 C801 1.373 . S
C801 C799 1.350 . S
C801 N800 1.373 . S
C801 H815 0.931 . S
C802 O805 1.256 . S
C802 O806 1.255 1_455 S
O803 Co786 2.021 . S
O803 C796 1.259 . S
O804 Co788 2.117 . S
O804 C796 1.258 . S
O805 Co788 2.020 . S
O805 C802 1.256 . S
O806 Co786 2.062 1_655 S
O806 C802 1.255 1_655 S
O807 C787 1.259 . S
O807 Co788 2.021 . S
H808 C799 0.930 . S
H809 C798 0.931 . S
O810 Co786 2.117 . S
O810 C787 1.258 . S
O811 Co786 2.020 1_556 S
O811 C813 1.256 . S
O812 Co788 2.062 1_556 S
O812 C813 1.255 . S
C813 O811 1.256 . S
C813 O812 1.255 . S
H814 C793 0.931 . S
H815 C801 0.931 . S
H816 C822 0.930 . S
H817 C826 0.930 . S
H818 C831 0.929 . S
H819 C829 0.929 . S
H820 C824 0.929 . S
H821 C830 0.929 . S
C822 H816 0.930 . S
C822 C823 1.367 . S
C822 C830 1.378 . S
C823 C822 1.367 . S
C823 C831 1.433 . S
C824 H820 0.929 . S
C824 C826 1.378 . S
C824 C828 1.350 . S
C825 C828 1.463 . S
C825 C830 1.350 . S
C825 N833 1.427 . S
C826 H817 0.930 . S
C826 C824 1.378 . S
C826 C827 1.367 . S
C827 C826 1.367 . S
C827 C829 1.433 . S
C828 C824 1.350 . S
C828 C825 1.463 . S
C828 N832 1.427 . S
C829 H819 0.929 . S
C829 C827 1.433 . S
C829 N832 1.384 . S
C830 H821 0.929 . S
C830 C822 1.378 . S
C830 C825 1.350 . S
C831 H818 0.929 . S
C831 C823 1.433 . S
C831 N833 1.384 . S
N832 C828 1.427 . S
N832 C829 1.384 . S
N833 C825 1.427 . S
N833 C831 1.384 . S
H834 C840 0.930 . S
H835 C844 0.930 . S
H836 C849 0.929 . S
H837 C847 0.929 . S
H838 C842 0.929 . S
H839 C848 0.929 . S
C840 H834 0.930 . S
C840 C841 1.367 . S
C840 C848 1.378 . S
C841 C840 1.367 . S
C841 C849 1.433 . S
C842 H838 0.929 . S
C842 C844 1.378 . S
C842 C846 1.350 . S
C843 C846 1.463 . S
C843 C848 1.350 . S
C843 N851 1.427 . S
C844 H835 0.930 . S
C844 C842 1.378 . S
C844 C845 1.367 . S
C845 C844 1.367 . S
C845 C847 1.433 . S
C846 C842 1.350 . S
C846 C843 1.463 . S
C846 N850 1.427 . S
C847 H837 0.929 . S
C847 C845 1.433 . S
C847 N850 1.384 . S
C848 H839 0.929 . S
C848 C840 1.378 . S
C848 C843 1.350 . S
C849 H836 0.929 . S
C849 C841 1.433 . S
C849 N851 1.384 . S
N850 C846 1.427 . S
N850 C847 1.384 . S
N851 C843 1.427 . S
N851 C849 1.384 . S
H852 C858 0.930 . S
H853 C862 0.930 . S
H854 C867 0.929 . S
H855 C865 0.929 . S
H856 C860 0.929 . S
H857 C866 0.929 . S
C858 H852 0.930 . S
C858 C859 1.367 . S
C858 C866 1.378 . S
C859 C858 1.367 . S
C859 C867 1.433 . S
C860 H856 0.929 . S
C860 C862 1.378 . S
C860 C864 1.350 . S
C861 C864 1.463 . S
C861 C866 1.350 . S
C861 N869 1.427 . S
C862 H853 0.930 . S
C862 C860 1.378 . S
C862 C863 1.367 . S
C863 C862 1.367 . S
C863 C865 1.433 . S
C864 C860 1.350 . S
C864 C861 1.463 . S
C864 N868 1.427 . S
C865 H855 0.929 . S
C865 C863 1.433 . S
C865 N868 1.384 . S
C866 H857 0.929 . S
C866 C858 1.378 . S
C866 C861 1.350 . S
C867 H854 0.929 . S
C867 C859 1.433 . S
C867 N869 1.384 . S
N868 C864 1.427 . S
N868 C865 1.384 . S
N869 C861 1.427 . S
N869 C867 1.384 . S
H870 C876 0.930 . S
H871 C880 0.930 . S
H872 C885 0.929 . S
H873 C883 0.929 . S
H874 C878 0.929 . S
H875 C884 0.929 . S
C876 H870 0.930 . S
C876 C877 1.367 . S
C876 C884 1.378 . S
C877 C876 1.367 . S
C877 C885 1.433 . S
C878 H874 0.929 . S
C878 C880 1.378 . S
C878 C882 1.350 . S
C879 C882 1.463 . S
C879 C884 1.350 . S
C879 N887 1.427 . S
C880 H871 0.930 . S
C880 C878 1.378 . S
C880 C881 1.367 . S
C881 C880 1.367 . S
C881 C883 1.433 . S
C882 C878 1.350 . S
C882 C879 1.463 . S
C882 N886 1.427 . S
C883 H873 0.929 . S
C883 C881 1.433 . S
C883 N886 1.384 . S
C884 H875 0.929 . S
C884 C876 1.378 . S
C884 C879 1.350 . S
C885 H872 0.929 . S
C885 C877 1.433 . S
C885 N887 1.384 . S
N886 C882 1.427 . S
N886 C883 1.384 . S
N887 C879 1.427 . S
N887 C885 1.384 . S
H888 C894 0.930 . S
H889 C898 0.930 . S
H890 C903 0.929 . S
H891 C901 0.929 1_655 S
H892 C896 0.929 . S
H893 C902 0.929 . S
C894 H888 0.930 . S
C894 C895 1.367 . S
C894 C902 1.378 . S
C895 C894 1.367 . S
C895 C903 1.433 . S
C896 H892 0.929 . S
C896 C898 1.378 . S
C896 C900 1.350 . S
C897 C900 1.463 . S
C897 C902 1.350 . S
C897 N905 1.427 . S
C898 H889 0.930 . S
C898 C896 1.378 . S
C898 C899 1.367 . S
C899 C898 1.367 . S
C899 C901 1.433 . S
C900 C896 1.350 . S
C900 C897 1.463 . S
C900 N904 1.427 . S
C901 H891 0.929 1_455 S
C901 C899 1.433 . S
C901 N904 1.384 . S
C902 H893 0.929 . S
C902 C894 1.378 . S
C902 C897 1.350 . S
C903 H890 0.929 . S
C903 C895 1.433 . S
C903 N905 1.384 . S
N904 C900 1.427 . S
N904 C901 1.384 . S
N905 C897 1.427 . S
N905 C903 1.384 . S
H906 C912 0.930 . S
H907 C916 0.930 . S
H908 C921 0.929 . S
H909 C919 0.929 . S
H910 C914 0.929 . S
H911 C920 0.929 . S
C912 H906 0.930 . S
C912 C913 1.367 . S
C912 C920 1.378 . S
C913 C912 1.367 . S
C913 C921 1.433 . S
C914 H910 0.929 . S
C914 C916 1.378 . S
C914 C918 1.350 . S
C915 C918 1.463 . S
C915 C920 1.350 . S
C915 N923 1.427 . S
C916 H907 0.930 . S
C916 C914 1.378 . S
C916 C917 1.367 . S
C917 C916 1.367 . S
C917 C919 1.433 . S
C918 C914 1.350 . S
C918 C915 1.463 . S
C918 N922 1.427 . S
C919 H909 0.929 . S
C919 C917 1.433 . S
C919 N922 1.384 . S
C920 H911 0.929 . S
C920 C912 1.378 . S
C920 C915 1.350 . S
C921 H908 0.929 . S
C921 C913 1.433 . S
C921 N923 1.384 . S
N922 C918 1.427 . S
N922 C919 1.384 . S
N923 C915 1.427 . S
N923 C921 1.384 . S
H924 C930 0.930 . S
H925 C934 0.930 . S
H926 C939 0.929 . S
H927 C937 0.929 . S
H928 C932 0.929 1_554 S
H929 C938 0.929 . S
C930 H924 0.930 . S
C930 C931 1.367 . S
C930 C938 1.378 . S
C931 C930 1.367 . S
C931 C939 1.433 . S
C932 H928 0.929 1_556 S
C932 C934 1.378 1_556 S
C932 C936 1.350 . S
C933 C936 1.463 . S
C933 C938 1.350 . S
C933 N941 1.427 . S
C934 H925 0.930 . S
C934 C932 1.378 1_554 S
C934 C935 1.358 1_554 S
C935 C934 1.358 1_556 S
C935 C937 1.450 . S
C936 C932 1.350 . S
C936 C933 1.463 . S
C936 N940 1.427 . S
C937 H927 0.929 . S
C937 C935 1.450 . S
C937 N940 1.384 . S
C938 H929 0.929 . S
C938 C930 1.378 . S
C938 C933 1.350 . S
C939 H926 0.929 . S
C939 C931 1.433 . S
C939 N941 1.384 . S
N940 C936 1.427 . S
N940 C937 1.384 . S
N941 C933 1.427 . S
N941 C939 1.384 . S
H942 C948 0.930 . S
H943 C952 0.930 . S
H944 C957 0.929 . S
H945 C955 0.929 . S
H946 C950 0.929 . S
H947 C956 0.929 . S
C948 H942 0.930 . S
C948 C949 1.367 . S
C948 C956 1.378 . S
C949 C948 1.367 . S
C949 C957 1.433 . S
C950 H946 0.929 . S
C950 C952 1.378 . S
C950 C954 1.350 . S
C951 C954 1.463 . S
C951 C956 1.350 . S
C951 N959 1.427 . S
C952 H943 0.930 . S
C952 C950 1.378 . S
C952 C953 1.367 . S
C953 C952 1.367 . S
C953 C955 1.433 . S
C954 C950 1.350 . S
C954 C951 1.463 . S
C954 N958 1.427 . S
C955 H945 0.929 . S
C955 C953 1.433 . S
C955 N958 1.384 . S
C956 H947 0.929 . S
C956 C948 1.378 . S
C956 C951 1.350 . S
C957 H944 0.929 . S
C957 C949 1.433 . S
C957 N959 1.384 . S
N958 C954 1.427 . S
N958 C955 1.384 . S
N959 C951 1.427 . S
N959 C957 1.384 . S
H960 C966 0.930 . S
H961 C970 0.930 . S
H962 C975 0.929 . S
H963 C973 0.929 . S
H964 C968 0.929 . S
H965 C974 0.929 . S
C966 H960 0.930 . S
C966 C967 1.367 1_565 S
C966 C974 1.378 . S
C967 C966 1.367 1_545 S
C967 C975 1.433 . S
C968 H964 0.929 . S
C968 C970 1.378 . S
C968 C972 1.350 . S
C969 C972 1.463 . S
C969 C974 1.350 1_545 S
C969 N977 1.427 . S
C970 H961 0.930 . S
C970 C968 1.378 . S
C970 C971 1.367 . S
C971 C970 1.367 . S
C971 C973 1.433 1_545 S
C972 C968 1.350 . S
C972 C969 1.463 . S
C972 N976 1.427 1_545 S
C973 H963 0.929 . S
C973 C971 1.433 1_565 S
C973 N976 1.384 . S
C974 H965 0.929 . S
C974 C966 1.378 . S
C974 C969 1.350 1_565 S
C975 H962 0.929 . S
C975 C967 1.433 . S
C975 N977 1.384 . S
N976 C972 1.427 1_565 S
N976 C973 1.384 . S
N977 C969 1.427 . S
N977 C975 1.384 . S
H978 C984 0.930 . S
H979 C988 0.930 . S
H980 C993 0.929 . S
H981 C991 0.929 . S
H982 C986 0.929 . S
H983 C992 0.929 . S
C984 H978 0.930 . S
C984 C985 1.367 . S
C984 C992 1.378 . S
C985 C984 1.367 . S
C985 C993 1.433 . S
C986 H982 0.929 . S
C986 C988 1.378 . S
C986 C990 1.350 . S
C987 C990 1.463 . S
C987 C992 1.350 . S
C987 N995 1.427 . S
C988 H979 0.930 . S
C988 C986 1.378 . S
C988 C989 1.367 . S
C989 C988 1.367 . S
C989 C991 1.433 . S
C990 C986 1.350 . S
C990 C987 1.463 . S
C990 N994 1.427 . S
C991 H981 0.929 . S
C991 C989 1.433 . S
C991 N994 1.384 . S
C992 H983 0.929 . S
C992 C984 1.378 . S
C992 C987 1.350 . S
C993 H980 0.929 . S
C993 C985 1.433 . S
C993 N995 1.384 . S
N994 C990 1.427 . S
N994 C991 1.384 . S
N995 C987 1.427 . S
N995 C993 1.384 . S
H996 C1002 0.930 . S
H997 C1006 0.930 . S
H998 C1011 0.929 . S
H999 C1009 0.929 . S
H1000 C1004 0.929 . S
H1001 C1010 0.929 . S
C1002 H996 0.930 . S
C1002 C1003 1.367 . S
C1002 C1010 1.378 . S
C1003 C1002 1.367 . S
C1003 C1011 1.433 . S
C1004 H1000 0.929 . S
C1004 C1006 1.378 . S
C1004 C1008 1.350 . S
C1005 C1008 1.463 . S
C1005 C1010 1.350 . S
C1005 N1013 1.427 . S
C1006 H997 0.930 . S
C1006 C1004 1.378 . S
C1006 C1007 1.367 . S
C1007 C1006 1.367 . S
C1007 C1009 1.433 . S
C1008 C1004 1.350 . S
C1008 C1005 1.463 . S
C1008 N1012 1.427 . S
C1009 H999 0.929 . S
C1009 C1007 1.433 . S
C1009 N1012 1.384 . S
C1010 H1001 0.929 . S
C1010 C1002 1.378 . S
C1010 C1005 1.350 . S
C1011 H998 0.929 . S
C1011 C1003 1.433 . S
C1011 N1013 1.384 . S
N1012 C1008 1.427 . S
N1012 C1009 1.384 . S
N1013 C1005 1.427 . S
N1013 C1011 1.384 . S
H1014 C1020 0.930 . S
H1015 C1024 0.930 . S
H1016 C1029 0.929 . S
H1017 C1027 0.929 . S
H1018 C1022 0.929 . S
H1019 C1028 0.929 . S
C1020 H1014 0.930 . S
C1020 C1021 1.367 . S
C1020 C1028 1.378 . S
C1021 C1020 1.367 . S
C1021 C1029 1.433 . S
C1022 H1018 0.929 . S
C1022 C1024 1.378 . S
C1022 C1026 1.350 . S
C1023 C1026 1.463 . S
C1023 C1028 1.350 . S
C1023 N1031 1.427 . S
C1024 H1015 0.930 . S
C1024 C1022 1.378 . S
C1024 C1025 1.367 . S
C1025 C1024 1.367 . S
C1025 C1027 1.433 . S
C1026 C1022 1.350 . S
C1026 C1023 1.463 . S
C1026 N1030 1.427 . S
C1027 H1017 0.929 . S
C1027 C1025 1.433 . S
C1027 N1030 1.384 . S
C1028 H1019 0.929 . S
C1028 C1020 1.378 . S
C1028 C1023 1.350 . S
C1029 H1016 0.929 . S
C1029 C1021 1.433 . S
C1029 N1031 1.384 . S
N1030 C1026 1.427 . S
N1030 C1027 1.384 . S
N1031 C1023 1.427 . S
N1031 C1029 1.384 . S
H1032 C1038 0.930 . S
H1033 C1042 0.930 . S
H1034 C1047 0.929 . S
H1035 C1045 0.929 . S
H1036 C1040 0.929 . S
H1037 C1046 0.929 . S
C1038 H1032 0.930 . S
C1038 C1039 1.367 1_565 S
C1038 C1046 1.378 . S
C1039 C1038 1.367 1_545 S
C1039 C1047 1.433 . S
C1040 H1036 0.929 . S
C1040 C1042 1.378 . S
C1040 C1044 1.350 . S
C1041 C1044 1.463 . S
C1041 C1046 1.349 1_545 S
C1041 N1049 1.427 . S
C1042 H1033 0.930 . S
C1042 C1040 1.378 . S
C1042 C1043 1.367 . S
C1043 C1042 1.367 . S
C1043 C1045 1.433 . S
C1044 C1040 1.350 . S
C1044 C1041 1.463 . S
C1044 N1048 1.427 . S
C1045 H1035 0.929 . S
C1045 C1043 1.433 . S
C1045 N1048 1.384 . S
C1046 H1037 0.929 . S
C1046 C1038 1.378 . S
C1046 C1041 1.349 1_565 S
C1047 H1034 0.929 . S
C1047 C1039 1.433 . S
C1047 N1049 1.384 . S
N1048 C1044 1.427 . S
N1048 C1045 1.384 . S
N1049 C1041 1.427 . S
N1049 C1047 1.384 . S
H1050 C1056 0.930 . S
H1051 C1060 0.930 . S
H1052 C1065 0.929 . S
H1053 C1063 0.929 . S
H1054 C1058 0.929 . S
H1055 C1064 0.929 . S
C1056 H1050 0.930 . S
C1056 C1057 1.367 . S
C1056 C1064 1.378 . S
C1057 C1056 1.367 . S
C1057 C1065 1.433 . S
C1058 H1054 0.929 . S
C1058 C1060 1.378 . S
C1058 C1062 1.350 . S
C1059 C1062 1.463 . S
C1059 C1064 1.350 . S
C1059 N1067 1.427 . S
C1060 H1051 0.930 . S
C1060 C1058 1.378 . S
C1060 C1061 1.367 . S
C1061 C1060 1.367 . S
C1061 C1063 1.433 . S
C1062 C1058 1.350 . S
C1062 C1059 1.463 . S
C1062 N1066 1.427 . S
C1063 H1053 0.929 . S
C1063 C1061 1.433 . S
C1063 N1066 1.384 . S
C1064 H1055 0.929 . S
C1064 C1056 1.378 . S
C1064 C1059 1.350 . S
C1065 H1052 0.929 . S
C1065 C1057 1.433 . S
C1065 N1067 1.384 . S
N1066 C1062 1.427 . S
N1066 C1063 1.384 . S
N1067 C1059 1.427 . S
N1067 C1065 1.384 . S
H1068 C1074 0.930 . S
H1069 C1078 0.930 1_565 S
H1070 C1083 0.929 . S
H1071 C1081 0.929 . S
H1072 C1076 0.929 . S
H1073 C1082 0.929 . S
C1074 H1068 0.930 . S
C1074 C1075 1.367 . S
C1074 C1082 1.378 . S
C1075 C1074 1.367 . S
C1075 C1083 1.433 . S
C1076 H1072 0.929 . S
C1076 C1078 1.378 . S
C1076 C1080 1.350 . S
C1077 C1080 1.463 . S
C1077 C1082 1.350 . S
C1077 N1085 1.427 . S
C1078 H1069 0.930 1_545 S
C1078 C1076 1.378 . S
C1078 C1079 1.367 . S
C1079 C1078 1.367 . S
C1079 C1081 1.433 . S
C1080 C1076 1.350 . S
C1080 C1077 1.463 . S
C1080 N1084 1.427 . S
C1081 H1071 0.929 . S
C1081 C1079 1.433 . S
C1081 N1084 1.384 . S
C1082 H1073 0.929 . S
C1082 C1074 1.378 . S
C1082 C1077 1.350 . S
C1083 H1070 0.929 . S
C1083 C1075 1.433 . S
C1083 N1085 1.384 . S
N1084 C1080 1.427 . S
N1084 C1081 1.384 . S
N1085 C1077 1.427 . S
N1085 C1083 1.384 . S
H1086 C1092 0.930 . S
H1087 C1096 0.930 . S
H1088 C1101 0.929 . S
H1089 C1099 0.929 . S
H1090 C1094 0.929 . S
H1091 C1100 0.929 . S
C1092 H1086 0.930 . S
C1092 C1093 1.367 . S
C1092 C1100 1.378 . S
C1093 C1092 1.367 . S
C1093 C1101 1.433 . S
C1094 H1090 0.929 . S
C1094 C1096 1.378 . S
C1094 C1098 1.350 . S
C1095 C1098 1.463 . S
C1095 C1100 1.350 . S
C1095 N1103 1.427 . S
C1096 H1087 0.930 . S
C1096 C1094 1.378 . S
C1096 C1097 1.367 . S
C1097 C1096 1.367 . S
C1097 C1099 1.433 . S
C1098 C1094 1.350 . S
C1098 C1095 1.463 . S
C1098 N1102 1.427 . S
C1099 H1089 0.929 . S
C1099 C1097 1.433 . S
C1099 N1102 1.384 . S
C1100 H1091 0.929 . S
C1100 C1092 1.378 . S
C1100 C1095 1.350 . S
C1101 H1088 0.929 . S
C1101 C1093 1.433 . S
C1101 N1103 1.384 . S
N1102 C1098 1.427 . S
N1102 C1099 1.384 . S
N1103 C1095 1.427 . S
N1103 C1101 1.384 . S
H1104 C1110 0.930 . S
H1105 C1114 0.930 . S
H1106 C1119 0.929 1_556 S
H1107 C1117 0.929 . S
H1108 C1112 0.941 . S
H1109 C1118 0.929 . S
C1110 H1104 0.930 . S
C1110 C1111 1.367 . S
C1110 C1118 1.378 . S
C1111 C1110 1.367 . S
C1111 C1119 1.433 . S
C1112 H1108 0.941 . S
C1112 C1114 1.380 . S
C1112 C1116 1.336 1_556 S
C1113 C1116 1.463 . S
C1113 C1118 1.350 . S
C1113 N1121 1.427 . S
C1114 H1105 0.930 . S
C1114 C1112 1.380 . S
C1114 C1115 1.367 1_556 S
C1115 C1114 1.367 1_554 S
C1115 C1117 1.433 . S
C1116 C1112 1.336 1_554 S
C1116 C1113 1.463 . S
C1116 N1120 1.427 . S
C1117 H1107 0.929 . S
C1117 C1115 1.433 . S
C1117 N1120 1.384 . S
C1118 H1109 0.929 . S
C1118 C1110 1.378 . S
C1118 C1113 1.350 . S
C1119 H1106 0.929 1_554 S
C1119 C1111 1.433 . S
C1119 N1121 1.384 . S
N1120 C1116 1.427 . S
N1120 C1117 1.384 . S
N1121 C1113 1.427 . S
N1121 C1119 1.384 . S
H1122 C1128 0.930 . S
H1123 C1132 0.930 . S
H1124 C1137 0.929 . S
H1125 C1135 0.929 . S
H1126 C1130 0.929 . S
H1127 C1136 0.929 . S
C1128 H1122 0.930 . S
C1128 C1129 1.367 . S
C1128 C1136 1.378 . S
C1129 C1128 1.367 . S
C1129 C1137 1.433 . S
C1130 H1126 0.929 . S
C1130 C1132 1.378 . S
C1130 C1134 1.350 . S
C1131 C1134 1.463 . S
C1131 C1136 1.350 . S
C1131 N1139 1.427 . S
C1132 H1123 0.930 . S
C1132 C1130 1.378 . S
C1132 C1133 1.367 . S
C1133 C1132 1.367 . S
C1133 C1135 1.433 . S
C1134 C1130 1.350 . S
C1134 C1131 1.463 . S
C1134 N1138 1.427 . S
C1135 H1125 0.929 . S
C1135 C1133 1.433 . S
C1135 N1138 1.384 . S
C1136 H1127 0.929 . S
C1136 C1128 1.378 . S
C1136 C1131 1.350 . S
C1137 H1124 0.929 . S
C1137 C1129 1.433 . S
C1137 N1139 1.384 . S
N1138 C1134 1.427 . S
N1138 C1135 1.384 . S
N1139 C1131 1.427 . S
N1139 C1137 1.384 . S
H1140 C1146 0.930 . S
H1141 C1150 0.930 . S
H1142 C1155 0.929 . S
H1143 C1153 0.929 . S
H1144 C1148 0.929 . S
H1145 C1154 0.929 . S
C1146 H1140 0.930 . S
C1146 C1147 1.367 . S
C1146 C1154 1.378 . S
C1147 C1146 1.367 . S
C1147 C1155 1.433 . S
C1148 H1144 0.929 . S
C1148 C1150 1.378 . S
C1148 C1152 1.350 . S
C1149 C1152 1.463 . S
C1149 C1154 1.350 . S
C1149 N1157 1.427 . S
C1150 H1141 0.930 . S
C1150 C1148 1.378 . S
C1150 C1151 1.367 . S
C1151 C1150 1.367 . S
C1151 C1153 1.433 . S
C1152 C1148 1.350 . S
C1152 C1149 1.463 . S
C1152 N1156 1.427 . S
C1153 H1143 0.929 . S
C1153 C1151 1.433 . S
C1153 N1156 1.384 . S
C1154 H1145 0.929 . S
C1154 C1146 1.378 . S
C1154 C1149 1.350 . S
C1155 H1142 0.929 . S
C1155 C1147 1.433 . S
C1155 N1157 1.384 . S
N1156 C1152 1.427 . S
N1156 C1153 1.384 . S
N1157 C1149 1.427 . S
N1157 C1155 1.384 . S
H1158 C1164 0.930 . S
H1159 C1168 0.930 . S
H1160 C1173 0.929 . S
H1161 C1171 0.929 . S
H1162 C1166 0.929 . S
H1163 C1172 0.929 . S
C1164 H1158 0.930 . S
C1164 C1165 1.367 . S
C1164 C1172 1.378 . S
C1165 C1164 1.367 . S
C1165 C1173 1.433 . S
C1166 H1162 0.929 . S
C1166 C1168 1.378 . S
C1166 C1170 1.350 . S
C1167 C1170 1.463 . S
C1167 C1172 1.350 . S
C1167 N1175 1.427 . S
C1168 H1159 0.930 . S
C1168 C1166 1.378 . S
C1168 C1169 1.367 . S
C1169 C1168 1.367 . S
C1169 C1171 1.433 . S
C1170 C1166 1.350 . S
C1170 C1167 1.463 . S
C1170 N1174 1.427 . S
C1171 H1161 0.929 . S
C1171 C1169 1.433 . S
C1171 N1174 1.384 . S
C1172 H1163 0.929 . S
C1172 C1164 1.378 . S
C1172 C1167 1.350 . S
C1173 H1160 0.929 . S
C1173 C1165 1.433 . S
C1173 N1175 1.384 . S
N1174 C1170 1.427 . S
N1174 C1171 1.384 . S
N1175 C1167 1.427 . S
N1175 C1173 1.384 . S
H1176 C1182 0.930 . S
H1177 C1186 0.930 . S
H1178 C1191 0.929 . S
H1179 C1189 0.929 . S
H1180 C1184 0.929 . S
H1181 C1190 0.929 . S
C1182 H1176 0.930 . S
C1182 C1183 1.367 . S
C1182 C1190 1.378 . S
C1183 C1182 1.367 . S
C1183 C1191 1.433 . S
C1184 H1180 0.929 . S
C1184 C1186 1.378 . S
C1184 C1188 1.350 . S
C1185 C1188 1.463 . S
C1185 C1190 1.350 . S
C1185 N1193 1.427 . S
C1186 H1177 0.930 . S
C1186 C1184 1.378 . S
C1186 C1187 1.367 . S
C1187 C1186 1.367 . S
C1187 C1189 1.433 . S
C1188 C1184 1.350 . S
C1188 C1185 1.463 . S
C1188 N1192 1.427 . S
C1189 H1179 0.929 . S
C1189 C1187 1.433 . S
C1189 N1192 1.384 . S
C1190 H1181 0.929 . S
C1190 C1182 1.378 . S
C1190 C1185 1.350 . S
C1191 H1178 0.929 . S
C1191 C1183 1.433 . S
C1191 N1193 1.384 . S
N1192 C1188 1.427 . S
N1192 C1189 1.384 . S
N1193 C1185 1.427 . S
N1193 C1191 1.384 . S
H1194 C1200 0.930 . S
H1195 C1204 0.930 . S
H1196 C1209 0.929 . S
H1197 C1207 0.929 1_545 S
H1198 C1202 0.929 . S
H1199 C1208 0.929 . S
C1200 H1194 0.930 . S
C1200 C1201 1.367 . S
C1200 C1208 1.378 . S
C1201 C1200 1.367 . S
C1201 C1209 1.433 . S
C1202 H1198 0.929 . S
C1202 C1204 1.378 . S
C1202 C1206 1.350 . S
C1203 C1206 1.463 . S
C1203 C1208 1.350 . S
C1203 N1211 1.427 . S
C1204 H1195 0.930 . S
C1204 C1202 1.378 . S
C1204 C1205 1.367 . S
C1205 C1204 1.367 . S
C1205 C1207 1.433 . S
C1206 C1202 1.350 . S
C1206 C1203 1.463 . S
C1206 N1210 1.427 . S
C1207 H1197 0.929 1_565 S
C1207 C1205 1.433 . S
C1207 N1210 1.384 . S
C1208 H1199 0.929 . S
C1208 C1200 1.378 . S
C1208 C1203 1.350 . S
C1209 H1196 0.929 . S
C1209 C1201 1.433 . S
C1209 N1211 1.384 . S
N1210 C1206 1.427 . S
N1210 C1207 1.384 . S
N1211 C1203 1.427 . S
N1211 C1209 1.384 . S
H1212 C1218 0.930 . S
H1213 C1222 0.930 . S
H1214 C1227 0.929 . S
H1215 C1225 0.929 . S
H1216 C1220 0.929 . S
H1217 C1226 0.929 . S
C1218 H1212 0.930 . S
C1218 C1219 1.367 . S
C1218 C1226 1.378 . S
C1219 C1218 1.367 . S
C1219 C1227 1.433 . S
C1220 H1216 0.929 . S
C1220 C1222 1.378 . S
C1220 C1224 1.350 . S
C1221 C1224 1.463 . S
C1221 C1226 1.350 . S
C1221 N1229 1.427 . S
C1222 H1213 0.930 . S
C1222 C1220 1.378 . S
C1222 C1223 1.367 . S
C1223 C1222 1.367 . S
C1223 C1225 1.433 . S
C1224 C1220 1.350 . S
C1224 C1221 1.463 . S
C1224 N1228 1.427 . S
C1225 H1215 0.929 . S
C1225 C1223 1.433 . S
C1225 N1228 1.384 . S
C1226 H1217 0.929 . S
C1226 C1218 1.378 . S
C1226 C1221 1.350 . S
C1227 H1214 0.929 . S
C1227 C1219 1.433 . S
C1227 N1229 1.384 . S
N1228 C1224 1.427 . S
N1228 C1225 1.384 . S
N1229 C1221 1.427 . S
N1229 C1227 1.384 . S
H1230 C1236 0.930 . S
H1231 C1240 0.930 . S
H1232 C1245 0.929 . S
H1233 C1243 0.929 . S
H1234 C1238 0.929 . S
H1235 C1244 0.929 . S
C1236 H1230 0.930 . S
C1236 C1237 1.367 . S
C1236 C1244 1.378 . S
C1237 C1236 1.367 . S
C1237 C1245 1.433 . S
C1238 H1234 0.929 . S
C1238 C1240 1.378 . S
C1238 C1242 1.350 . S
C1239 C1242 1.463 . S
C1239 C1244 1.350 . S
C1239 N1247 1.427 . S
C1240 H1231 0.930 . S
C1240 C1238 1.378 . S
C1240 C1241 1.367 . S
C1241 C1240 1.367 . S
C1241 C1243 1.433 . S
C1242 C1238 1.350 . S
C1242 C1239 1.463 . S
C1242 N1246 1.427 . S
C1243 H1233 0.929 . S
C1243 C1241 1.433 . S
C1243 N1246 1.384 . S
C1244 H1235 0.929 . S
C1244 C1236 1.378 . S
C1244 C1239 1.350 . S
C1245 H1232 0.929 . S
C1245 C1237 1.433 . S
C1245 N1247 1.384 . S
N1246 C1242 1.427 . S
N1246 C1243 1.384 . S
N1247 C1239 1.427 . S
N1247 C1245 1.384 . S
H1248 C1254 0.930 . S
H1249 C1258 0.930 . S
H1250 C1263 0.929 . S
H1251 C1261 0.929 . S
H1252 C1256 0.929 . S
H1253 C1262 0.929 . S
C1254 H1248 0.930 . S
C1254 C1255 1.367 . S
C1254 C1262 1.378 . S
C1255 C1254 1.367 . S
C1255 C1263 1.433 . S
C1256 H1252 0.929 . S
C1256 C1258 1.378 . S
C1256 C1260 1.350 . S
C1257 C1260 1.463 . S
C1257 C1262 1.350 . S
C1257 N1265 1.427 . S
C1258 H1249 0.930 . S
C1258 C1256 1.378 . S
C1258 C1259 1.367 . S
C1259 C1258 1.367 . S
C1259 C1261 1.433 1_556 S
C1260 C1256 1.350 . S
C1260 C1257 1.463 . S
C1260 N1264 1.427 . S
C1261 H1251 0.929 . S
C1261 C1259 1.433 1_554 S
C1261 N1264 1.384 1_554 S
C1262 H1253 0.929 . S
C1262 C1254 1.378 . S
C1262 C1257 1.350 . S
C1263 H1250 0.929 . S
C1263 C1255 1.433 . S
C1263 N1265 1.384 . S
N1264 C1260 1.427 . S
N1264 C1261 1.384 1_556 S
N1265 C1257 1.427 . S
N1265 C1263 1.384 . S
H1266 C1272 0.930 . S
H1267 C1276 0.930 . S
H1268 C1281 0.929 . S
H1269 C1279 0.929 . S
H1270 C1274 0.929 . S
H1271 C1280 0.929 . S
C1272 H1266 0.930 . S
C1272 C1273 1.367 . S
C1272 C1280 1.378 . S
C1273 C1272 1.367 . S
C1273 C1281 1.433 . S
C1274 H1270 0.929 . S
C1274 C1276 1.378 . S
C1274 C1278 1.350 . S
C1275 C1278 1.463 . S
C1275 C1280 1.350 . S
C1275 N1283 1.427 . S
C1276 H1267 0.930 . S
C1276 C1274 1.378 . S
C1276 C1277 1.367 . S
C1277 C1276 1.367 . S
C1277 C1279 1.433 . S
C1278 C1274 1.350 . S
C1278 C1275 1.463 . S
C1278 N1282 1.427 . S
C1279 H1269 0.929 . S
C1279 C1277 1.433 . S
C1279 N1282 1.384 . S
C1280 H1271 0.929 . S
C1280 C1272 1.378 . S
C1280 C1275 1.350 . S
C1281 H1268 0.929 . S
C1281 C1273 1.433 . S
C1281 N1283 1.384 . S
N1282 C1278 1.427 . S
N1282 C1279 1.384 . S
N1283 C1275 1.427 . S
N1283 C1281 1.384 . S
H1284 C1290 0.930 . S
H1285 C1294 0.930 . S
H1286 C1299 0.929 . S
H1287 C1297 0.929 . S
H1288 C1292 0.929 . S
H1289 C1298 0.929 . S
C1290 H1284 0.930 . S
C1290 C1291 1.367 . S
C1290 C1298 1.378 . S
C1291 C1290 1.367 . S
C1291 C1299 1.433 . S
C1292 H1288 0.929 . S
C1292 C1294 1.378 . S
C1292 C1296 1.350 . S
C1293 C1296 1.463 . S
C1293 C1298 1.350 . S
C1293 N1301 1.427 . S
C1294 H1285 0.930 . S
C1294 C1292 1.378 . S
C1294 C1295 1.367 . S
C1295 C1294 1.367 . S
C1295 C1297 1.433 . S
C1296 C1292 1.350 . S
C1296 C1293 1.463 . S
C1296 N1300 1.427 . S
C1297 H1287 0.929 . S
C1297 C1295 1.433 . S
C1297 N1300 1.384 . S
C1298 H1289 0.929 . S
C1298 C1290 1.378 . S
C1298 C1293 1.350 . S
C1299 H1286 0.929 . S
C1299 C1291 1.433 . S
C1299 N1301 1.384 . S
N1300 C1296 1.427 . S
N1300 C1297 1.384 . S
N1301 C1293 1.427 . S
N1301 C1299 1.384 . S
H1302 C1308 0.930 . S
H1303 C1312 0.930 . S
H1304 C1317 0.929 . S
H1305 C1315 0.929 . S
H1306 C1310 0.929 . S
H1307 C1316 0.929 . S
C1308 H1302 0.930 . S
C1308 C1309 1.367 . S
C1308 C1316 1.378 . S
C1309 C1308 1.367 . S
C1309 C1317 1.433 . S
C1310 H1306 0.929 . S
C1310 C1312 1.378 . S
C1310 C1314 1.350 . S
C1311 C1314 1.463 . S
C1311 C1316 1.350 . S
C1311 N1319 1.427 . S
C1312 H1303 0.930 . S
C1312 C1310 1.378 . S
C1312 C1313 1.367 . S
C1313 C1312 1.367 . S
C1313 C1315 1.433 . S
C1314 C1310 1.350 . S
C1314 C1311 1.463 . S
C1314 N1318 1.427 . S
C1315 H1305 0.929 . S
C1315 C1313 1.433 . S
C1315 N1318 1.384 . S
C1316 H1307 0.929 . S
C1316 C1308 1.378 . S
C1316 C1311 1.350 . S
C1317 H1304 0.929 . S
C1317 C1309 1.433 . S
C1317 N1319 1.384 . S
N1318 C1314 1.427 . S
N1318 C1315 1.384 . S
N1319 C1311 1.427 . S
N1319 C1317 1.384 . S
H1320 C1326 0.930 . S
H1321 C1330 0.930 . S
H1322 C1335 0.929 1_655 S
H1323 C1333 0.929 . S
H1324 C1328 0.929 . S
H1325 C1334 0.929 . S
C1326 H1320 0.930 . S
C1326 C1327 1.367 . S
C1326 C1334 1.378 . S
C1327 C1326 1.367 . S
C1327 C1335 1.433 . S
C1328 H1324 0.929 . S
C1328 C1330 1.378 . S
C1328 C1332 1.350 . S
C1329 C1332 1.463 . S
C1329 C1334 1.350 . S
C1329 N1337 1.427 . S
C1330 H1321 0.930 . S
C1330 C1328 1.378 . S
C1330 C1331 1.367 . S
C1331 C1330 1.367 . S
C1331 C1333 1.433 . S
C1332 C1328 1.350 . S
C1332 C1329 1.463 . S
C1332 N1336 1.427 . S
C1333 H1323 0.929 . S
C1333 C1331 1.433 . S
C1333 N1336 1.384 . S
C1334 H1325 0.929 . S
C1334 C1326 1.378 . S
C1334 C1329 1.350 . S
C1335 H1322 0.929 1_455 S
C1335 C1327 1.433 . S
C1335 N1337 1.384 . S
N1336 C1332 1.427 . S
N1336 C1333 1.384 . S
N1337 C1329 1.427 . S
N1337 C1335 1.384 . S
H1338 C1344 0.930 . S
H1339 C1348 0.930 . S
H1340 C1353 0.929 . S
H1341 C1351 0.929 . S
H1342 C1346 0.929 . S
H1343 C1352 0.929 . S
C1344 H1338 0.930 . S
C1344 C1345 1.367 . S
C1344 C1352 1.378 . S
C1345 C1344 1.367 . S
C1345 C1353 1.433 . S
C1346 H1342 0.929 . S
C1346 C1348 1.378 . S
C1346 C1350 1.350 . S
C1347 C1350 1.463 . S
C1347 C1352 1.350 . S
C1347 N1355 1.427 . S
C1348 H1339 0.930 . S
C1348 C1346 1.378 . S
C1348 C1349 1.367 . S
C1349 C1348 1.367 . S
C1349 C1351 1.433 . S
C1350 C1346 1.350 . S
C1350 C1347 1.463 . S
C1350 N1354 1.427 . S
C1351 H1341 0.929 . S
C1351 C1349 1.433 . S
C1351 N1354 1.384 . S
C1352 H1343 0.929 . S
C1352 C1344 1.378 . S
C1352 C1347 1.350 . S
C1353 H1340 0.929 . S
C1353 C1345 1.433 . S
C1353 N1355 1.384 . S
N1354 C1350 1.427 . S
N1354 C1351 1.384 . S
N1355 C1347 1.427 . S
N1355 C1353 1.384 . S
H1356 C1362 0.930 . S
H1357 C1366 0.930 . S
H1358 C1371 0.929 . S
H1359 C1369 0.929 . S
H1360 C1364 0.929 . S
H1361 C1370 0.929 . S
C1362 H1356 0.930 . S
C1362 C1363 1.367 . S
C1362 C1370 1.378 . S
C1363 C1362 1.367 . S
C1363 C1371 1.433 . S
C1364 H1360 0.929 . S
C1364 C1366 1.378 . S
C1364 C1368 1.350 . S
C1365 C1368 1.463 . S
C1365 C1370 1.350 . S
C1365 N1373 1.427 . S
C1366 H1357 0.930 . S
C1366 C1364 1.378 . S
C1366 C1367 1.367 . S
C1367 C1366 1.367 . S
C1367 C1369 1.433 . S
C1368 C1364 1.350 . S
C1368 C1365 1.463 . S
C1368 N1372 1.427 . S
C1369 H1359 0.929 . S
C1369 C1367 1.433 . S
C1369 N1372 1.384 . S
C1370 H1361 0.929 . S
C1370 C1362 1.378 . S
C1370 C1365 1.350 . S
C1371 H1358 0.929 . S
C1371 C1363 1.433 . S
C1371 N1373 1.384 . S
N1372 C1368 1.427 . S
N1372 C1369 1.384 . S
N1373 C1365 1.427 . S
N1373 C1371 1.384 . S
H1374 C1380 0.930 . S
H1375 C1384 0.930 . S
H1376 C1389 0.929 . S
H1377 C1387 0.929 . S
H1378 C1382 0.929 . S
H1379 C1388 0.929 . S
C1380 H1374 0.930 . S
C1380 C1381 1.367 . S
C1380 C1388 1.378 . S
C1381 C1380 1.367 . S
C1381 C1389 1.433 . S
C1382 H1378 0.929 . S
C1382 C1384 1.378 . S
C1382 C1386 1.350 . S
C1383 C1386 1.463 . S
C1383 C1388 1.350 . S
C1383 N1391 1.427 . S
C1384 H1375 0.930 . S
C1384 C1382 1.378 . S
C1384 C1385 1.367 . S
C1385 C1384 1.367 . S
C1385 C1387 1.433 . S
C1386 C1382 1.350 . S
C1386 C1383 1.463 . S
C1386 N1390 1.427 . S
C1387 H1377 0.929 . S
C1387 C1385 1.433 . S
C1387 N1390 1.384 . S
C1388 H1379 0.929 . S
C1388 C1380 1.378 . S
C1388 C1383 1.350 . S
C1389 H1376 0.929 . S
C1389 C1381 1.433 . S
C1389 N1391 1.384 . S
N1390 C1386 1.427 . S
N1390 C1387 1.384 . S
N1391 C1383 1.427 . S
N1391 C1389 1.384 . S
H1392 C1398 0.930 . S
H1393 C1402 0.930 1_455 S
H1394 C1407 0.929 . S
H1395 C1405 0.929 . S
H1396 C1400 0.929 . S
H1397 C1406 0.929 . S
C1398 H1392 0.930 . S
C1398 C1399 1.367 . S
C1398 C1406 1.378 . S
C1399 C1398 1.367 . S
C1399 C1407 1.433 . S
C1400 H1396 0.929 . S
C1400 C1402 1.378 . S
C1400 C1404 1.350 . S
C1401 C1404 1.463 . S
C1401 C1406 1.350 . S
C1401 N1409 1.427 . S
C1402 H1393 0.930 1_655 S
C1402 C1400 1.378 . S
C1402 C1403 1.367 . S
C1403 C1402 1.367 . S
C1403 C1405 1.433 . S
C1404 C1400 1.350 . S
C1404 C1401 1.463 . S
C1404 N1408 1.427 . S
C1405 H1395 0.929 . S
C1405 C1403 1.433 . S
C1405 N1408 1.384 . S
C1406 H1397 0.929 . S
C1406 C1398 1.378 . S
C1406 C1401 1.350 . S
C1407 H1394 0.929 . S
C1407 C1399 1.433 . S
C1407 N1409 1.384 . S
N1408 C1404 1.427 . S
N1408 C1405 1.384 . S
N1409 C1401 1.427 . S
N1409 C1407 1.384 . S
H1410 C1416 0.930 . S
H1411 C1420 0.930 . S
H1412 C1425 0.929 . S
H1413 C1423 0.929 . S
H1414 C1418 0.929 . S
H1415 C1424 0.929 . S
C1416 H1410 0.930 . S
C1416 C1417 1.367 . S
C1416 C1424 1.378 . S
C1417 C1416 1.367 . S
C1417 C1425 1.433 . S
C1418 H1414 0.929 . S
C1418 C1420 1.378 . S
C1418 C1422 1.350 . S
C1419 C1422 1.463 . S
C1419 C1424 1.350 . S
C1419 N1427 1.427 . S
C1420 H1411 0.930 . S
C1420 C1418 1.378 . S
C1420 C1421 1.367 . S
C1421 C1420 1.367 . S
C1421 C1423 1.433 . S
C1422 C1418 1.350 . S
C1422 C1419 1.463 . S
C1422 N1426 1.427 . S
C1423 H1413 0.929 . S
C1423 C1421 1.433 . S
C1423 N1426 1.384 . S
C1424 H1415 0.929 . S
C1424 C1416 1.378 . S
C1424 C1419 1.350 . S
C1425 H1412 0.929 . S
C1425 C1417 1.433 . S
C1425 N1427 1.384 . S
N1426 C1422 1.427 . S
N1426 C1423 1.384 . S
N1427 C1419 1.427 . S
N1427 C1425 1.384 . S
H1428 C1434 0.930 . S
H1429 C1438 0.930 . S
H1430 C1443 0.929 . S
H1431 C1441 0.929 1_565 S
H1432 C1436 0.929 . S
H1433 C1442 0.929 . S
C1434 H1428 0.930 . S
C1434 C1435 1.367 1_565 S
C1434 C1442 1.378 . S
C1435 C1434 1.367 1_545 S
C1435 C1443 1.433 . S
C1436 H1432 0.929 . S
C1436 C1438 1.378 . S
C1436 C1440 1.350 . S
C1437 C1440 1.463 . S
C1437 C1442 1.350 1_545 S
C1437 N1445 1.427 . S
C1438 H1429 0.930 . S
C1438 C1436 1.378 . S
C1438 C1439 1.367 . S
C1439 C1438 1.367 . S
C1439 C1441 1.433 . S
C1440 C1436 1.350 . S
C1440 C1437 1.463 . S
C1440 N1444 1.427 . S
C1441 H1431 0.929 1_545 S
C1441 C1439 1.433 . S
C1441 N1444 1.384 . S
C1442 H1433 0.929 . S
C1442 C1434 1.378 . S
C1442 C1437 1.350 1_565 S
C1443 H1430 0.929 . S
C1443 C1435 1.433 . S
C1443 N1445 1.384 . S
N1444 C1440 1.427 . S
N1444 C1441 1.384 . S
N1445 C1437 1.427 . S
N1445 C1443 1.384 . S
H1446 C1452 0.930 . S
H1447 C1456 0.930 . S
H1448 C1461 0.929 . S
H1449 C1459 0.929 . S
H1450 C1454 0.929 . S
H1451 C1460 0.929 . S
C1452 H1446 0.930 . S
C1452 C1453 1.367 . S
C1452 C1460 1.378 . S
C1453 C1452 1.367 . S
C1453 C1461 1.433 . S
C1454 H1450 0.929 . S
C1454 C1456 1.378 . S
C1454 C1458 1.350 . S
C1455 C1458 1.463 . S
C1455 C1460 1.350 . S
C1455 N1463 1.427 . S
C1456 H1447 0.930 . S
C1456 C1454 1.378 . S
C1456 C1457 1.367 . S
C1457 C1456 1.367 . S
C1457 C1459 1.433 . S
C1458 C1454 1.350 . S
C1458 C1455 1.463 . S
C1458 N1462 1.427 . S
C1459 H1449 0.929 . S
C1459 C1457 1.433 . S
C1459 N1462 1.384 . S
C1460 H1451 0.929 . S
C1460 C1452 1.378 . S
C1460 C1455 1.350 . S
C1461 H1448 0.929 . S
C1461 C1453 1.433 . S
C1461 N1463 1.384 . S
N1462 C1458 1.427 . S
N1462 C1459 1.384 . S
N1463 C1455 1.427 . S
N1463 C1461 1.384 . S
H1464 C1470 0.930 . S
H1465 C1474 0.930 1_565 S
H1466 C1479 0.929 . S
H1467 C1477 0.929 . S
H1468 C1472 0.907 1_565 S
H1469 C1478 0.929 . S
C1470 H1464 0.930 . S
C1470 C1471 1.367 . S
C1470 C1478 1.378 . S
C1471 C1470 1.367 . S
C1471 C1479 1.433 . S
C1472 H1468 0.907 1_545 S
C1472 C1474 1.378 . S
C1472 C1476 1.350 . S
C1473 C1476 1.463 . S
C1473 C1478 1.350 . S
C1473 N1481 1.427 . S
C1474 H1465 0.930 1_545 S
C1474 C1472 1.378 . S
C1474 C1475 1.367 . S
C1475 C1474 1.367 . S
C1475 C1477 1.433 . S
C1476 C1472 1.350 . S
C1476 C1473 1.463 . S
C1476 N1480 1.427 . S
C1477 H1467 0.929 . S
C1477 C1475 1.433 . S
C1477 N1480 1.384 . S
C1478 H1469 0.929 . S
C1478 C1470 1.378 . S
C1478 C1473 1.350 . S
C1479 H1466 0.929 . S
C1479 C1471 1.433 . S
C1479 N1481 1.384 . S
N1480 C1476 1.427 . S
N1480 C1477 1.384 . S
N1481 C1473 1.427 . S
N1481 C1479 1.384 . S
H1482 C1488 0.930 . S
H1483 C1492 0.930 . S
H1484 C1497 0.929 . S
H1485 C1495 0.929 . S
H1486 C1490 0.929 . S
H1487 C1496 0.929 . S
C1488 H1482 0.930 . S
C1488 C1489 1.367 . S
C1488 C1496 1.378 . S
C1489 C1488 1.367 . S
C1489 C1497 1.433 . S
C1490 H1486 0.929 . S
C1490 C1492 1.378 . S
C1490 C1494 1.350 . S
C1491 C1494 1.463 . S
C1491 C1496 1.350 . S
C1491 N1499 1.427 . S
C1492 H1483 0.930 . S
C1492 C1490 1.378 . S
C1492 C1493 1.367 . S
C1493 C1492 1.367 . S
C1493 C1495 1.433 . S
C1494 C1490 1.350 . S
C1494 C1491 1.463 . S
C1494 N1498 1.427 . S
C1495 H1485 0.929 . S
C1495 C1493 1.433 . S
C1495 N1498 1.384 . S
C1496 H1487 0.929 . S
C1496 C1488 1.378 . S
C1496 C1491 1.350 . S
C1497 H1484 0.929 . S
C1497 C1489 1.433 . S
C1497 N1499 1.384 . S
N1498 C1494 1.427 . S
N1498 C1495 1.384 . S
N1499 C1491 1.427 . S
N1499 C1497 1.384 . S
H1500 C1506 0.930 . S
H1501 C1510 0.930 . S
H1502 C1515 0.929 1_565 S
H1503 C1513 0.929 . S
H1504 C1508 0.929 . S
H1505 C1514 0.929 . S
C1506 H1500 0.930 . S
C1506 C1507 1.367 . S
C1506 C1514 1.378 . S
C1507 C1506 1.367 . S
C1507 C1515 1.433 . S
C1508 H1504 0.929 . S
C1508 C1510 1.378 . S
C1508 C1512 1.350 . S
C1509 C1512 1.463 . S
C1509 C1514 1.350 . S
C1509 N1517 1.427 . S
C1510 H1501 0.930 . S
C1510 C1508 1.378 . S
C1510 C1511 1.367 . S
C1511 C1510 1.367 . S
C1511 C1513 1.433 . S
C1512 C1508 1.350 . S
C1512 C1509 1.463 . S
C1512 N1516 1.427 . S
C1513 H1503 0.929 . S
C1513 C1511 1.433 . S
C1513 N1516 1.384 . S
C1514 H1505 0.929 . S
C1514 C1506 1.378 . S
C1514 C1509 1.350 . S
C1515 H1502 0.929 1_545 S
C1515 C1507 1.433 . S
C1515 N1517 1.384 . S
N1516 C1512 1.427 . S
N1516 C1513 1.384 . S
N1517 C1509 1.427 . S
N1517 C1515 1.384 . S
H1518 C1524 0.930 . S
H1519 C1528 0.930 . S
H1520 C1533 0.929 . S
H1521 C1531 0.929 . S
H1522 C1526 0.929 . S
H1523 C1532 0.929 . S
C1524 H1518 0.930 . S
C1524 C1525 1.367 . S
C1524 C1532 1.378 . S
C1525 C1524 1.367 . S
C1525 C1533 1.433 . S
C1526 H1522 0.929 . S
C1526 C1528 1.378 . S
C1526 C1530 1.350 . S
C1527 C1530 1.463 . S
C1527 C1532 1.350 . S
C1527 N1535 1.427 . S
C1528 H1519 0.930 . S
C1528 C1526 1.378 . S
C1528 C1529 1.367 . S
C1529 C1528 1.367 . S
C1529 C1531 1.433 . S
C1530 C1526 1.350 . S
C1530 C1527 1.463 . S
C1530 N1534 1.427 . S
C1531 H1521 0.929 . S
C1531 C1529 1.433 . S
C1531 N1534 1.384 . S
C1532 H1523 0.929 . S
C1532 C1524 1.378 . S
C1532 C1527 1.350 . S
C1533 H1520 0.929 . S
C1533 C1525 1.433 . S
C1533 N1535 1.384 . S
N1534 C1530 1.427 . S
N1534 C1531 1.384 . S
N1535 C1527 1.427 . S
N1535 C1533 1.384 . S
H1536 C1542 0.930 1_556 S
H1537 C1546 0.930 . S
H1538 C1551 0.929 . S
H1539 C1549 0.929 1_556 S
H1540 C1544 0.929 . S
H1541 C1550 0.929 1_556 S
C1542 H1536 0.930 1_554 S
C1542 C1543 1.367 . S
C1542 C1550 1.378 . S
C1543 C1542 1.367 . S
C1543 C1551 1.433 . S
C1544 H1540 0.929 . S
C1544 C1546 1.378 . S
C1544 C1548 1.350 . S
C1545 C1548 1.463 . S
C1545 C1550 1.350 . S
C1545 N1553 1.427 . S
C1546 H1537 0.930 . S
C1546 C1544 1.378 . S
C1546 C1547 1.367 1_565 S
C1547 C1546 1.367 1_545 S
C1547 C1549 1.433 . S
C1548 C1544 1.350 . S
C1548 C1545 1.463 . S
C1548 N1552 1.427 . S
C1549 H1539 0.929 1_554 S
C1549 C1547 1.433 . S
C1549 N1552 1.384 1_545 S
C1550 H1541 0.929 1_554 S
C1550 C1542 1.378 . S
C1550 C1545 1.350 . S
C1551 H1538 0.929 . S
C1551 C1543 1.433 . S
C1551 N1553 1.384 . S
N1552 C1548 1.427 . S
N1552 C1549 1.384 1_565 S
N1553 C1545 1.427 . S
N1553 C1551 1.384 . S
H1554 C1560 0.930 . S
H1555 C1564 0.930 . S
H1556 C1569 0.929 . S
H1557 C1567 0.929 . S
H1558 C1562 0.929 . S
H1559 C1568 0.929 . S
C1560 H1554 0.930 . S
C1560 C1561 1.363 1_556 S
C1560 C1568 1.378 . S
C1561 C1560 1.363 1_554 S
C1561 C1569 1.438 . S
C1562 H1558 0.929 . S
C1562 C1564 1.378 . S
C1562 C1566 1.350 . S
C1563 C1566 1.463 . S
C1563 C1568 1.350 1_554 S
C1563 N1571 1.427 . S
C1564 H1555 0.930 . S
C1564 C1562 1.378 . S
C1564 C1565 1.367 . S
C1565 C1564 1.367 . S
C1565 C1567 1.433 1_554 S
C1566 C1562 1.350 . S
C1566 C1563 1.463 . S
C1566 N1570 1.427 1_554 S
C1567 H1557 0.929 . S
C1567 C1565 1.433 1_556 S
C1567 N1570 1.384 . S
C1568 H1559 0.929 . S
C1568 C1560 1.378 . S
C1568 C1563 1.350 1_556 S
C1569 H1556 0.929 . S
C1569 C1561 1.438 . S
C1569 N1571 1.384 . S
N1570 C1566 1.427 1_556 S
N1570 C1567 1.384 . S
N1571 C1563 1.427 . S
N1571 C1569 1.384 . S
H1572 C1578 0.930 . S
H1573 C1582 0.930 . S
H1574 C1587 0.929 . S
H1575 C1585 0.929 . S
H1576 C1580 0.929 . S
H1577 C1586 0.929 . S
C1578 H1572 0.930 . S
C1578 C1579 1.367 . S
C1578 C1586 1.378 . S
C1579 C1578 1.367 . S
C1579 C1587 1.433 . S
C1580 H1576 0.929 . S
C1580 C1582 1.378 . S
C1580 C1584 1.350 . S
C1581 C1584 1.463 . S
C1581 C1586 1.350 . S
C1581 N1589 1.427 . S
C1582 H1573 0.930 . S
C1582 C1580 1.378 . S
C1582 C1583 1.367 . S
C1583 C1582 1.367 . S
C1583 C1585 1.433 . S
C1584 C1580 1.350 . S
C1584 C1581 1.463 . S
C1584 N1588 1.427 . S
C1585 H1575 0.929 . S
C1585 C1583 1.433 . S
C1585 N1588 1.384 . S
C1586 H1577 0.929 . S
C1586 C1578 1.378 . S
C1586 C1581 1.350 . S
C1587 H1574 0.929 . S
C1587 C1579 1.433 . S
C1587 N1589 1.384 . S
N1588 C1584 1.427 . S
N1588 C1585 1.384 . S
N1589 C1581 1.427 . S
N1589 C1587 1.384 . S
H1590 C1596 0.930 . S
H1591 C1600 0.930 . S
H1592 C1605 0.929 . S
H1593 C1603 0.929 . S
H1594 C1598 0.929 . S
H1595 C1604 0.929 . S
C1596 H1590 0.930 . S
C1596 C1597 1.367 . S
C1596 C1604 1.378 . S
C1597 C1596 1.367 . S
C1597 C1605 1.433 . S
C1598 H1594 0.929 . S
C1598 C1600 1.378 . S
C1598 C1602 1.350 . S
C1599 C1602 1.463 . S
C1599 C1604 1.350 . S
C1599 N1607 1.427 . S
C1600 H1591 0.930 . S
C1600 C1598 1.378 . S
C1600 C1601 1.367 . S
C1601 C1600 1.367 . S
C1601 C1603 1.433 . S
C1602 C1598 1.350 . S
C1602 C1599 1.463 . S
C1602 N1606 1.427 . S
C1603 H1593 0.929 . S
C1603 C1601 1.433 . S
C1603 N1606 1.384 . S
C1604 H1595 0.929 . S
C1604 C1596 1.378 . S
C1604 C1599 1.350 . S
C1605 H1592 0.929 . S
C1605 C1597 1.433 . S
C1605 N1607 1.384 . S
N1606 C1602 1.427 . S
N1606 C1603 1.384 . S
N1607 C1599 1.427 . S
N1607 C1605 1.384 . S
H1608 C1614 0.930 . S
H1609 C1618 0.930 . S
H1610 C1623 0.929 . S
H1611 C1621 0.929 . S
H1612 C1616 0.929 . S
H1613 C1622 0.929 . S
C1614 H1608 0.930 . S
C1614 C1615 1.367 . S
C1614 C1622 1.378 . S
C1615 C1614 1.367 . S
C1615 C1623 1.433 . S
C1616 H1612 0.929 . S
C1616 C1618 1.378 . S
C1616 C1620 1.350 . S
C1617 C1620 1.463 . S
C1617 C1622 1.350 . S
C1617 N1625 1.427 . S
C1618 H1609 0.930 . S
C1618 C1616 1.378 . S
C1618 C1619 1.367 . S
C1619 C1618 1.367 . S
C1619 C1621 1.433 . S
C1620 C1616 1.350 . S
C1620 C1617 1.463 . S
C1620 N1624 1.427 . S
C1621 H1611 0.929 . S
C1621 C1619 1.433 . S
C1621 N1624 1.384 . S
C1622 H1613 0.929 . S
C1622 C1614 1.378 . S
C1622 C1617 1.350 . S
C1623 H1610 0.929 . S
C1623 C1615 1.433 . S
C1623 N1625 1.384 . S
N1624 C1620 1.427 . S
N1624 C1621 1.384 . S
N1625 C1617 1.427 . S
N1625 C1623 1.384 . S
H1626 C1632 0.930 . S
H1627 C1636 0.930 . S
H1628 C1641 0.929 . S
H1629 C1639 0.929 . S
H1630 C1634 0.929 . S
H1631 C1640 0.929 . S
C1632 H1626 0.930 . S
C1632 C1633 1.367 . S
C1632 C1640 1.378 . S
C1633 C1632 1.367 . S
C1633 C1641 1.433 . S
C1634 H1630 0.929 . S
C1634 C1636 1.378 . S
C1634 C1638 1.350 . S
C1635 C1638 1.463 . S
C1635 C1640 1.350 . S
C1635 N1643 1.427 . S
C1636 H1627 0.930 . S
C1636 C1634 1.378 . S
C1636 C1637 1.367 . S
C1637 C1636 1.367 . S
C1637 C1639 1.433 . S
C1638 C1634 1.350 . S
C1638 C1635 1.463 . S
C1638 N1642 1.427 . S
C1639 H1629 0.929 . S
C1639 C1637 1.433 . S
C1639 N1642 1.384 . S
C1640 H1631 0.929 . S
C1640 C1632 1.378 . S
C1640 C1635 1.350 . S
C1641 H1628 0.929 . S
C1641 C1633 1.433 . S
C1641 N1643 1.384 . S
N1642 C1638 1.427 . S
N1642 C1639 1.384 . S
N1643 C1635 1.427 . S
N1643 C1641 1.384 . S
H1644 C1650 0.930 . S
H1645 C1654 0.930 . S
H1646 C1659 0.929 . S
H1647 C1657 0.929 . S
H1648 C1652 0.929 . S
H1649 C1658 0.929 . S
C1650 H1644 0.930 . S
C1650 C1651 1.367 . S
C1650 C1658 1.378 . S
C1651 C1650 1.367 . S
C1651 C1659 1.433 . S
C1652 H1648 0.929 . S
C1652 C1654 1.378 . S
C1652 C1656 1.350 . S
C1653 C1656 1.463 . S
C1653 C1658 1.350 . S
C1653 N1661 1.427 . S
C1654 H1645 0.930 . S
C1654 C1652 1.378 . S
C1654 C1655 1.367 . S
C1655 C1654 1.367 . S
C1655 C1657 1.433 . S
C1656 C1652 1.350 . S
C1656 C1653 1.463 . S
C1656 N1660 1.427 . S
C1657 H1647 0.929 . S
C1657 C1655 1.433 . S
C1657 N1660 1.384 . S
C1658 H1649 0.929 . S
C1658 C1650 1.378 . S
C1658 C1653 1.350 . S
C1659 H1646 0.929 . S
C1659 C1651 1.433 . S
C1659 N1661 1.384 . S
N1660 C1656 1.427 . S
N1660 C1657 1.384 . S
N1661 C1653 1.427 . S
N1661 C1659 1.384 . S
H1662 C1668 0.930 . S
H1663 C1672 0.930 . S
H1664 C1677 0.929 . S
H1665 C1675 0.929 . S
H1666 C1670 0.929 . S
H1667 C1676 0.929 . S
C1668 H1662 0.930 . S
C1668 C1669 1.367 . S
C1668 C1676 1.378 . S
C1669 C1668 1.367 . S
C1669 C1677 1.433 . S
C1670 H1666 0.929 . S
C1670 C1672 1.378 . S
C1670 C1674 1.350 . S
C1671 C1674 1.463 . S
C1671 C1676 1.350 . S
C1671 N1679 1.427 . S
C1672 H1663 0.930 . S
C1672 C1670 1.378 . S
C1672 C1673 1.367 . S
C1673 C1672 1.367 . S
C1673 C1675 1.433 . S
C1674 C1670 1.350 . S
C1674 C1671 1.463 . S
C1674 N1678 1.427 . S
C1675 H1665 0.929 . S
C1675 C1673 1.433 . S
C1675 N1678 1.384 . S
C1676 H1667 0.929 . S
C1676 C1668 1.378 . S
C1676 C1671 1.350 . S
C1677 H1664 0.929 . S
C1677 C1669 1.433 . S
C1677 N1679 1.384 . S
N1678 C1674 1.427 . S
N1678 C1675 1.384 . S
N1679 C1671 1.427 . S
N1679 C1677 1.384 . S
H1680 C1686 0.930 . S
H1681 C1690 0.930 . S
H1682 C1695 0.929 . S
H1683 C1693 0.929 . S
H1684 C1688 0.929 . S
H1685 C1694 0.929 . S
C1686 H1680 0.930 . S
C1686 C1687 1.367 . S
C1686 C1694 1.378 . S
C1687 C1686 1.367 . S
C1687 C1695 1.433 . S
C1688 H1684 0.929 . S
C1688 C1690 1.378 . S
C1688 C1692 1.350 . S
C1689 C1692 1.463 . S
C1689 C1694 1.350 . S
C1689 N1697 1.427 . S
C1690 H1681 0.930 . S
C1690 C1688 1.378 . S
C1690 C1691 1.367 . S
C1691 C1690 1.367 . S
C1691 C1693 1.433 . S
C1692 C1688 1.350 . S
C1692 C1689 1.463 . S
C1692 N1696 1.427 . S
C1693 H1683 0.929 . S
C1693 C1691 1.433 . S
C1693 N1696 1.384 . S
C1694 H1685 0.929 . S
C1694 C1686 1.378 . S
C1694 C1689 1.350 . S
C1695 H1682 0.929 . S
C1695 C1687 1.433 . S
C1695 N1697 1.384 . S
N1696 C1692 1.427 . S
N1696 C1693 1.384 . S
N1697 C1689 1.427 . S
N1697 C1695 1.384 . S
H1698 C1704 0.930 . S
H1699 C1708 0.930 . S
H1700 C1713 0.929 . S
H1701 C1711 0.929 . S
H1702 C1706 0.929 . S
H1703 C1712 0.929 . S
C1704 H1698 0.930 . S
C1704 C1705 1.367 . S
C1704 C1712 1.378 . S
C1705 C1704 1.367 . S
C1705 C1713 1.433 . S
C1706 H1702 0.929 . S
C1706 C1708 1.378 . S
C1706 C1710 1.350 . S
C1707 C1710 1.463 . S
C1707 C1712 1.350 . S
C1707 N1715 1.427 . S
C1708 H1699 0.930 . S
C1708 C1706 1.378 . S
C1708 C1709 1.367 . S
C1709 C1708 1.367 . S
C1709 C1711 1.433 . S
C1710 C1706 1.350 . S
C1710 C1707 1.463 . S
C1710 N1714 1.427 . S
C1711 H1701 0.929 . S
C1711 C1709 1.433 . S
C1711 N1714 1.384 . S
C1712 H1703 0.929 . S
C1712 C1704 1.378 . S
C1712 C1707 1.350 . S
C1713 H1700 0.929 . S
C1713 C1705 1.433 . S
C1713 N1715 1.384 . S
N1714 C1710 1.427 . S
N1714 C1711 1.384 . S
N1715 C1707 1.427 . S
N1715 C1713 1.384 . S
H1716 C1722 0.930 . S
H1717 C1726 0.930 . S
H1718 C1731 0.929 . S
H1719 C1729 0.929 . S
H1720 C1724 0.929 . S
H1721 C1730 0.929 . S
C1722 H1716 0.930 . S
C1722 C1723 1.367 . S
C1722 C1730 1.378 . S
C1723 C1722 1.367 . S
C1723 C1731 1.433 . S
C1724 H1720 0.929 . S
C1724 C1726 1.378 . S
C1724 C1728 1.350 . S
C1725 C1728 1.463 . S
C1725 C1730 1.350 . S
C1725 N1733 1.427 . S
C1726 H1717 0.930 . S
C1726 C1724 1.378 . S
C1726 C1727 1.367 . S
C1727 C1726 1.367 . S
C1727 C1729 1.433 . S
C1728 C1724 1.350 . S
C1728 C1725 1.463 . S
C1728 N1732 1.427 . S
C1729 H1719 0.929 . S
C1729 C1727 1.433 . S
C1729 N1732 1.384 . S
C1730 H1721 0.929 . S
C1730 C1722 1.378 . S
C1730 C1725 1.350 . S
C1731 H1718 0.929 . S
C1731 C1723 1.433 . S
C1731 N1733 1.384 . S
N1732 C1728 1.427 . S
N1732 C1729 1.384 . S
N1733 C1725 1.427 . S
N1733 C1731 1.384 . S
H1734 C1740 0.930 . S
H1735 C1744 0.930 . S
H1736 C1749 0.929 1_455 S
H1737 C1747 0.929 . S
H1738 C1742 0.929 . S
H1739 C1748 0.929 . S
C1740 H1734 0.930 . S
C1740 C1741 1.367 . S
C1740 C1748 1.378 . S
C1741 C1740 1.367 . S
C1741 C1749 1.433 . S
C1742 H1738 0.929 . S
C1742 C1744 1.378 . S
C1742 C1746 1.350 . S
C1743 C1746 1.463 . S
C1743 C1748 1.350 . S
C1743 N1751 1.427 . S
C1744 H1735 0.930 . S
C1744 C1742 1.378 . S
C1744 C1745 1.367 . S
C1745 C1744 1.367 . S
C1745 C1747 1.433 . S
C1746 C1742 1.350 . S
C1746 C1743 1.463 . S
C1746 N1750 1.427 . S
C1747 H1737 0.929 . S
C1747 C1745 1.433 . S
C1747 N1750 1.384 . S
C1748 H1739 0.929 . S
C1748 C1740 1.378 . S
C1748 C1743 1.350 . S
C1749 H1736 0.929 1_655 S
C1749 C1741 1.433 . S
C1749 N1751 1.384 . S
N1750 C1746 1.427 . S
N1750 C1747 1.384 . S
N1751 C1743 1.427 . S
N1751 C1749 1.384 . S
H1752 C1758 0.930 . S
H1753 C1762 0.930 . S
H1754 C1767 0.929 . S
H1755 C1765 0.925 1_554 S
H1756 C1760 0.929 . S
H1757 C1766 0.929 . S
C1758 H1752 0.930 . S
C1758 C1759 1.367 . S
C1758 C1766 1.378 . S
C1759 C1758 1.367 . S
C1759 C1767 1.433 . S
C1760 H1756 0.929 . S
C1760 C1762 1.378 . S
C1760 C1764 1.350 . S
C1761 C1764 1.463 . S
C1761 C1766 1.350 . S
C1761 N1769 1.427 . S
C1762 H1753 0.930 . S
C1762 C1760 1.378 . S
C1762 C1763 1.367 . S
C1763 C1762 1.367 . S
C1763 C1765 1.435 . S
C1764 C1760 1.350 . S
C1764 C1761 1.463 . S
C1764 N1768 1.427 . S
C1765 H1755 0.925 1_556 S
C1765 C1763 1.435 . S
C1765 N1768 1.386 . S
C1766 H1757 0.929 . S
C1766 C1758 1.378 . S
C1766 C1761 1.350 . S
C1767 H1754 0.929 . S
C1767 C1759 1.433 . S
C1767 N1769 1.384 . S
N1768 C1764 1.427 . S
N1768 C1765 1.386 . S
N1769 C1761 1.427 . S
N1769 C1767 1.384 . S
H1770 C1776 0.930 . S
H1771 C1780 0.930 . S
H1772 C1785 0.929 . S
H1773 C1783 0.929 . S
H1774 C1778 0.929 . S
H1775 C1784 0.929 . S
C1776 H1770 0.930 . S
C1776 C1777 1.367 . S
C1776 C1784 1.378 . S
C1777 C1776 1.367 . S
C1777 C1785 1.433 . S
C1778 H1774 0.929 . S
C1778 C1780 1.378 . S
C1778 C1782 1.350 . S
C1779 C1782 1.463 . S
C1779 C1784 1.350 . S
C1779 N1787 1.427 . S
C1780 H1771 0.930 . S
C1780 C1778 1.378 . S
C1780 C1781 1.367 . S
C1781 C1780 1.367 . S
C1781 C1783 1.433 . S
C1782 C1778 1.350 . S
C1782 C1779 1.463 . S
C1782 N1786 1.427 . S
C1783 H1773 0.929 . S
C1783 C1781 1.433 . S
C1783 N1786 1.384 . S
C1784 H1775 0.929 . S
C1784 C1776 1.378 . S
C1784 C1779 1.350 . S
C1785 H1772 0.929 . S
C1785 C1777 1.433 . S
C1785 N1787 1.384 . S
N1786 C1782 1.427 . S
N1786 C1783 1.384 . S
N1787 C1779 1.427 . S
N1787 C1785 1.384 . S
H1788 C1794 0.930 . S
H1789 C1798 0.930 . S
H1790 C1803 0.929 . S
H1791 C1801 0.929 . S
H1792 C1796 0.929 . S
H1793 C1802 0.929 . S
C1794 H1788 0.930 . S
C1794 C1795 1.367 . S
C1794 C1802 1.378 . S
C1795 C1794 1.367 . S
C1795 C1803 1.433 . S
C1796 H1792 0.929 . S
C1796 C1798 1.378 . S
C1796 C1800 1.350 . S
C1797 C1800 1.463 . S
C1797 C1802 1.350 . S
C1797 N1805 1.427 . S
C1798 H1789 0.930 . S
C1798 C1796 1.378 . S
C1798 C1799 1.367 . S
C1799 C1798 1.367 . S
C1799 C1801 1.433 . S
C1800 C1796 1.350 . S
C1800 C1797 1.463 . S
C1800 N1804 1.427 . S
C1801 H1791 0.929 . S
C1801 C1799 1.433 . S
C1801 N1804 1.384 . S
C1802 H1793 0.929 . S
C1802 C1794 1.378 . S
C1802 C1797 1.350 . S
C1803 H1790 0.929 . S
C1803 C1795 1.433 . S
C1803 N1805 1.384 . S
N1804 C1800 1.427 . S
N1804 C1801 1.384 . S
N1805 C1797 1.427 . S
N1805 C1803 1.384 . S
H1806 C1812 0.930 . S
H1807 C1816 0.930 . S
H1808 C1821 0.929 . S
H1809 C1819 0.929 . S
H1810 C1814 0.929 . S
H1811 C1820 0.929 . S
C1812 H1806 0.930 . S
C1812 C1813 1.367 . S
C1812 C1820 1.378 . S
C1813 C1812 1.367 . S
C1813 C1821 1.433 . S
C1814 H1810 0.929 . S
C1814 C1816 1.378 . S
C1814 C1818 1.350 . S
C1815 C1818 1.463 . S
C1815 C1820 1.350 . S
C1815 N1823 1.427 . S
C1816 H1807 0.930 . S
C1816 C1814 1.378 . S
C1816 C1817 1.367 . S
C1817 C1816 1.367 . S
C1817 C1819 1.433 . S
C1818 C1814 1.350 . S
C1818 C1815 1.463 . S
C1818 N1822 1.427 . S
C1819 H1809 0.929 . S
C1819 C1817 1.433 . S
C1819 N1822 1.384 . S
C1820 H1811 0.929 . S
C1820 C1812 1.378 . S
C1820 C1815 1.350 . S
C1821 H1808 0.929 . S
C1821 C1813 1.433 . S
C1821 N1823 1.384 . S
N1822 C1818 1.427 . S
N1822 C1819 1.384 . S
N1823 C1815 1.427 . S
N1823 C1821 1.384 . S
H1824 C1830 0.930 . S
H1825 C1834 0.930 . S
H1826 C1839 0.929 . S
H1827 C1837 0.929 . S
H1828 C1832 0.929 . S
H1829 C1838 0.929 . S
C1830 H1824 0.930 . S
C1830 C1831 1.367 . S
C1830 C1838 1.378 . S
C1831 C1830 1.367 . S
C1831 C1839 1.433 . S
C1832 H1828 0.929 . S
C1832 C1834 1.378 . S
C1832 C1836 1.350 . S
C1833 C1836 1.463 . S
C1833 C1838 1.350 . S
C1833 N1841 1.427 . S
C1834 H1825 0.930 . S
C1834 C1832 1.378 . S
C1834 C1835 1.367 . S
C1835 C1834 1.367 . S
C1835 C1837 1.433 . S
C1836 C1832 1.350 . S
C1836 C1833 1.463 . S
C1836 N1840 1.427 . S
C1837 H1827 0.929 . S
C1837 C1835 1.433 . S
C1837 N1840 1.384 . S
C1838 H1829 0.929 . S
C1838 C1830 1.378 . S
C1838 C1833 1.350 . S
C1839 H1826 0.929 . S
C1839 C1831 1.433 . S
C1839 N1841 1.384 . S
N1840 C1836 1.427 . S
N1840 C1837 1.384 . S
N1841 C1833 1.427 . S
N1841 C1839 1.384 . S
H1842 C1848 0.930 1_554 S
H1843 C1852 0.930 . S
H1844 C1857 0.929 . S
H1845 C1855 0.929 . S
H1846 C1850 0.929 . S
H1847 C1856 0.929 . S
C1848 H1842 0.930 1_556 S
C1848 C1849 1.367 . S
C1848 C1856 1.378 . S
C1849 C1848 1.367 . S
C1849 C1857 1.433 . S
C1850 H1846 0.929 . S
C1850 C1852 1.378 . S
C1850 C1854 1.350 . S
C1851 C1854 1.463 . S
C1851 C1856 1.350 . S
C1851 N1859 1.427 . S
C1852 H1843 0.930 . S
C1852 C1850 1.378 . S
C1852 C1853 1.367 . S
C1853 C1852 1.367 . S
C1853 C1855 1.433 . S
C1854 C1850 1.350 . S
C1854 C1851 1.463 . S
C1854 N1858 1.427 . S
C1855 H1845 0.929 . S
C1855 C1853 1.433 . S
C1855 N1858 1.384 . S
C1856 H1847 0.929 . S
C1856 C1848 1.378 . S
C1856 C1851 1.350 . S
C1857 H1844 0.929 . S
C1857 C1849 1.433 . S
C1857 N1859 1.384 . S
N1858 C1854 1.427 . S
N1858 C1855 1.384 . S
N1859 C1851 1.427 . S
N1859 C1857 1.384 . S
H1860 C1866 0.930 . S
H1861 C1870 0.930 . S
H1862 C1875 0.929 . S
H1863 C1873 0.929 . S
H1864 C1868 0.929 . S
H1865 C1874 0.929 . S
C1866 H1860 0.930 . S
C1866 C1867 1.367 . S
C1866 C1874 1.378 . S
C1867 C1866 1.367 . S
C1867 C1875 1.433 . S
C1868 H1864 0.929 . S
C1868 C1870 1.378 . S
C1868 C1872 1.350 . S
C1869 C1872 1.463 . S
C1869 C1874 1.350 . S
C1869 N1877 1.427 . S
C1870 H1861 0.930 . S
C1870 C1868 1.378 . S
C1870 C1871 1.367 . S
C1871 C1870 1.367 . S
C1871 C1873 1.433 1_655 S
C1872 C1868 1.350 . S
C1872 C1869 1.463 . S
C1872 N1876 1.427 . S
C1873 H1863 0.929 . S
C1873 C1871 1.433 1_455 S
C1873 N1876 1.384 1_455 S
C1874 H1865 0.929 . S
C1874 C1866 1.378 . S
C1874 C1869 1.350 . S
C1875 H1862 0.929 . S
C1875 C1867 1.433 . S
C1875 N1877 1.384 . S
N1876 C1872 1.427 . S
N1876 C1873 1.384 1_655 S
N1877 C1869 1.427 . S
N1877 C1875 1.384 . S
H1878 C1884 0.930 . S
H1879 C1888 0.930 . S
H1880 C1893 0.929 . S
H1881 C1891 0.929 . S
H1882 C1886 0.929 . S
H1883 C1892 0.929 . S
C1884 H1878 0.930 . S
C1884 C1885 1.367 . S
C1884 C1892 1.378 . S
C1885 C1884 1.367 . S
C1885 C1893 1.433 . S
C1886 H1882 0.929 . S
C1886 C1888 1.378 . S
C1886 C1890 1.350 . S
C1887 C1890 1.463 . S
C1887 C1892 1.350 . S
C1887 N1895 1.427 . S
C1888 H1879 0.930 . S
C1888 C1886 1.378 . S
C1888 C1889 1.367 . S
C1889 C1888 1.367 . S
C1889 C1891 1.433 . S
C1890 C1886 1.350 . S
C1890 C1887 1.463 . S
C1890 N1894 1.427 . S
C1891 H1881 0.929 . S
C1891 C1889 1.433 . S
C1891 N1894 1.384 . S
C1892 H1883 0.929 . S
C1892 C1884 1.378 . S
C1892 C1887 1.350 . S
C1893 H1880 0.929 . S
C1893 C1885 1.433 . S
C1893 N1895 1.384 . S
N1894 C1890 1.427 . S
N1894 C1891 1.384 . S
N1895 C1887 1.427 . S
N1895 C1893 1.384 . S
H1896 C1902 0.930 . S
H1897 C1906 0.930 . S
H1898 C1911 0.929 . S
H1899 C1909 0.929 . S
H1900 C1904 0.929 . S
H1901 C1910 0.929 . S
C1902 H1896 0.930 . S
C1902 C1903 1.367 . S
C1902 C1910 1.378 . S
C1903 C1902 1.367 . S
C1903 C1911 1.433 . S
C1904 H1900 0.929 . S
C1904 C1906 1.378 . S
C1904 C1908 1.350 . S
C1905 C1908 1.463 . S
C1905 C1910 1.350 . S
C1905 N1913 1.427 . S
C1906 H1897 0.930 . S
C1906 C1904 1.378 . S
C1906 C1907 1.367 . S
C1907 C1906 1.367 . S
C1907 C1909 1.433 . S
C1908 C1904 1.350 . S
C1908 C1905 1.463 . S
C1908 N1912 1.427 . S
C1909 H1899 0.929 . S
C1909 C1907 1.433 . S
C1909 N1912 1.384 . S
C1910 H1901 0.929 . S
C1910 C1902 1.378 . S
C1910 C1905 1.350 . S
C1911 H1898 0.929 . S
C1911 C1903 1.433 . S
C1911 N1913 1.384 . S
N1912 C1908 1.427 . S
N1912 C1909 1.384 . S
N1913 C1905 1.427 . S
N1913 C1911 1.384 . S
H1914 C1920 0.930 . S
H1915 C1924 0.930 . S
H1916 C1929 0.929 . S
H1917 C1927 0.929 . S
H1918 C1922 0.929 . S
H1919 C1928 0.929 . S
C1920 H1914 0.930 . S
C1920 C1921 1.367 . S
C1920 C1928 1.378 . S
C1921 C1920 1.367 . S
C1921 C1929 1.433 . S
C1922 H1918 0.929 . S
C1922 C1924 1.378 . S
C1922 C1926 1.350 . S
C1923 C1926 1.463 . S
C1923 C1928 1.350 . S
C1923 N1931 1.427 . S
C1924 H1915 0.930 . S
C1924 C1922 1.378 . S
C1924 C1925 1.367 . S
C1925 C1924 1.367 . S
C1925 C1927 1.433 . S
C1926 C1922 1.350 . S
C1926 C1923 1.463 . S
C1926 N1930 1.427 . S
C1927 H1917 0.929 . S
C1927 C1925 1.433 . S
C1927 N1930 1.384 . S
C1928 H1919 0.929 . S
C1928 C1920 1.378 . S
C1928 C1923 1.350 . S
C1929 H1916 0.929 . S
C1929 C1921 1.433 . S
C1929 N1931 1.384 . S
N1930 C1926 1.427 . S
N1930 C1927 1.384 . S
N1931 C1923 1.427 . S
N1931 C1929 1.384 . S
H1932 C1938 0.930 . S
H1933 C1942 0.930 1_455 S
H1934 C1947 0.929 . S
H1935 C1945 0.929 . S
H1936 C1940 0.929 . S
H1937 C1946 0.929 . S
C1938 H1932 0.930 . S
C1938 C1939 1.367 . S
C1938 C1946 1.378 . S
C1939 C1938 1.367 . S
C1939 C1947 1.433 . S
C1940 H1936 0.929 . S
C1940 C1942 1.378 . S
C1940 C1944 1.350 . S
C1941 C1944 1.463 . S
C1941 C1946 1.350 . S
C1941 N1949 1.427 . S
C1942 H1933 0.930 1_655 S
C1942 C1940 1.378 . S
C1942 C1943 1.367 . S
C1943 C1942 1.367 . S
C1943 C1945 1.433 . S
C1944 C1940 1.350 . S
C1944 C1941 1.463 . S
C1944 N1948 1.427 . S
C1945 H1935 0.929 . S
C1945 C1943 1.433 . S
C1945 N1948 1.384 . S
C1946 H1937 0.929 . S
C1946 C1938 1.378 . S
C1946 C1941 1.350 . S
C1947 H1934 0.929 . S
C1947 C1939 1.433 . S
C1947 N1949 1.384 . S
N1948 C1944 1.427 . S
N1948 C1945 1.384 . S
N1949 C1941 1.427 . S
N1949 C1947 1.384 . S
H1950 C1956 0.930 . S
H1951 C1960 0.930 . S
H1952 C1965 0.929 . S
H1953 C1963 0.929 . S
H1954 C1958 0.929 . S
H1955 C1964 0.929 . S
C1956 H1950 0.930 . S
C1956 C1957 1.367 . S
C1956 C1964 1.378 . S
C1957 C1956 1.367 . S
C1957 C1965 1.433 . S
C1958 H1954 0.929 . S
C1958 C1960 1.378 . S
C1958 C1962 1.350 . S
C1959 C1962 1.463 . S
C1959 C1964 1.350 . S
C1959 N1967 1.427 . S
C1960 H1951 0.930 . S
C1960 C1958 1.378 . S
C1960 C1961 1.367 . S
C1961 C1960 1.367 . S
C1961 C1963 1.433 . S
C1962 C1958 1.350 . S
C1962 C1959 1.463 . S
C1962 N1966 1.427 . S
C1963 H1953 0.929 . S
C1963 C1961 1.433 . S
C1963 N1966 1.384 . S
C1964 H1955 0.929 . S
C1964 C1956 1.378 . S
C1964 C1959 1.350 . S
C1965 H1952 0.929 . S
C1965 C1957 1.433 . S
C1965 N1967 1.384 . S
N1966 C1962 1.427 . S
N1966 C1963 1.384 . S
N1967 C1959 1.427 . S
N1967 C1965 1.384 . S
H1968 C1974 0.930 . S
H1969 C1978 0.930 . S
H1970 C1983 0.929 . S
H1971 C1981 0.929 . S
H1972 C1976 0.929 . S
H1973 C1982 0.929 . S
C1974 H1968 0.930 . S
C1974 C1975 1.367 . S
C1974 C1982 1.378 . S
C1975 C1974 1.367 . S
C1975 C1983 1.433 . S
C1976 H1972 0.929 . S
C1976 C1978 1.378 . S
C1976 C1980 1.350 . S
C1977 C1980 1.463 . S
C1977 C1982 1.350 . S
C1977 N1985 1.427 . S
C1978 H1969 0.930 . S
C1978 C1976 1.378 . S
C1978 C1979 1.367 . S
C1979 C1978 1.367 . S
C1979 C1981 1.433 . S
C1980 C1976 1.350 . S
C1980 C1977 1.463 . S
C1980 N1984 1.427 . S
C1981 H1971 0.929 . S
C1981 C1979 1.433 . S
C1981 N1984 1.384 . S
C1982 H1973 0.929 . S
C1982 C1974 1.378 . S
C1982 C1977 1.350 . S
C1983 H1970 0.929 . S
C1983 C1975 1.433 . S
C1983 N1985 1.384 . S
N1984 C1980 1.427 . S
N1984 C1981 1.384 . S
N1985 C1977 1.427 . S
N1985 C1983 1.384 . S
H1986 C1992 0.930 . S
H1987 C1996 0.930 . S
H1988 C2001 0.929 . S
H1989 C1999 0.929 . S
H1990 C1994 0.929 . S
H1991 C2000 0.929 . S
C1992 H1986 0.930 . S
C1992 C1993 1.367 . S
C1992 C2000 1.378 . S
C1993 C1992 1.367 . S
C1993 C2001 1.433 . S
C1994 H1990 0.929 . S
C1994 C1996 1.378 . S
C1994 C1998 1.350 . S
C1995 C1998 1.463 . S
C1995 C2000 1.350 . S
C1995 N2003 1.427 . S
C1996 H1987 0.930 . S
C1996 C1994 1.378 . S
C1996 C1997 1.367 1_565 S
C1997 C1996 1.367 1_545 S
C1997 C1999 1.433 . S
C1998 C1994 1.350 . S
C1998 C1995 1.463 . S
C1998 N2002 1.427 . S
C1999 H1989 0.929 . S
C1999 C1997 1.433 . S
C1999 N2002 1.384 1_545 S
C2000 H1991 0.929 . S
C2000 C1992 1.378 . S
C2000 C1995 1.350 . S
C2001 H1988 0.929 . S
C2001 C1993 1.433 . S
C2001 N2003 1.384 . S
N2002 C1998 1.427 . S
N2002 C1999 1.384 1_565 S
N2003 C1995 1.427 . S
N2003 C2001 1.384 . S
H2004 C2010 0.930 1_545 S
H2005 C2014 0.930 . S
H2006 C2019 0.929 . S
H2007 C2017 0.929 . S
H2008 C2012 0.929 . S
H2009 C2018 0.929 . S
C2010 H2004 0.930 1_565 S
C2010 C2011 1.367 . S
C2010 C2018 1.378 . S
C2011 C2010 1.367 . S
C2011 C2019 1.433 . S
C2012 H2008 0.929 . S
C2012 C2014 1.378 . S
C2012 C2016 1.350 . S
C2013 C2016 1.463 . S
C2013 C2018 1.350 . S
C2013 N2021 1.427 . S
C2014 H2005 0.930 . S
C2014 C2012 1.378 . S
C2014 C2015 1.367 . S
C2015 C2014 1.367 . S
C2015 C2017 1.433 . S
C2016 C2012 1.350 . S
C2016 C2013 1.463 . S
C2016 N2020 1.427 . S
C2017 H2007 0.929 . S
C2017 C2015 1.433 . S
C2017 N2020 1.384 . S
C2018 H2009 0.929 . S
C2018 C2010 1.378 . S
C2018 C2013 1.350 . S
C2019 H2006 0.929 . S
C2019 C2011 1.433 . S
C2019 N2021 1.384 . S
N2020 C2016 1.427 . S
N2020 C2017 1.384 . S
N2021 C2013 1.427 . S
N2021 C2019 1.384 . S
H2022 C2028 0.930 . S
H2023 C2032 0.930 . S
H2024 C2037 0.929 1_556 S
H2025 C2035 0.929 . S
H2026 C2030 0.929 . S
H2027 C2036 0.929 . S
C2028 H2022 0.930 . S
C2028 C2029 1.367 . S
C2028 C2036 1.378 . S
C2029 C2028 1.367 . S
C2029 C2037 1.433 . S
C2030 H2026 0.929 . S
C2030 C2032 1.378 . S
C2030 C2034 1.350 . S
C2031 C2034 1.463 . S
C2031 C2036 1.350 . S
C2031 N2039 1.427 . S
C2032 H2023 0.930 . S
C2032 C2030 1.378 . S
C2032 C2033 1.367 . S
C2033 C2032 1.367 . S
C2033 C2035 1.433 . S
C2034 C2030 1.350 . S
C2034 C2031 1.463 . S
C2034 N2038 1.427 . S
C2035 H2025 0.929 . S
C2035 C2033 1.433 . S
C2035 N2038 1.384 . S
C2036 H2027 0.929 . S
C2036 C2028 1.378 . S
C2036 C2031 1.350 . S
C2037 H2024 0.929 1_554 S
C2037 C2029 1.433 . S
C2037 N2039 1.384 . S
N2038 C2034 1.427 . S
N2038 C2035 1.384 . S
N2039 C2031 1.427 . S
N2039 C2037 1.384 . S
H2040 C2046 0.930 . S
H2041 C2050 0.930 . S
H2042 C2055 0.929 . S
H2043 C2053 0.929 . S
H2044 C2048 0.929 . S
H2045 C2054 0.929 . S
C2046 H2040 0.930 . S
C2046 C2047 1.367 . S
C2046 C2054 1.378 . S
C2047 C2046 1.367 . S
C2047 C2055 1.433 . S
C2048 H2044 0.929 . S
C2048 C2050 1.378 . S
C2048 C2052 1.350 . S
C2049 C2052 1.463 . S
C2049 C2054 1.350 . S
C2049 N2057 1.427 . S
C2050 H2041 0.930 . S
C2050 C2048 1.378 . S
C2050 C2051 1.367 . S
C2051 C2050 1.367 . S
C2051 C2053 1.433 . S
C2052 C2048 1.350 . S
C2052 C2049 1.463 . S
C2052 N2056 1.427 . S
C2053 H2043 0.929 . S
C2053 C2051 1.433 . S
C2053 N2056 1.384 . S
C2054 H2045 0.929 . S
C2054 C2046 1.378 . S
C2054 C2049 1.350 . S
C2055 H2042 0.929 . S
C2055 C2047 1.433 . S
C2055 N2057 1.384 . S
N2056 C2052 1.427 . S
N2056 C2053 1.384 . S
N2057 C2049 1.427 . S
N2057 C2055 1.384 . S
H2058 C2064 0.930 . S
H2059 C2068 0.930 . S
H2060 C2073 0.929 . S
H2061 C2071 0.929 . S
H2062 C2066 0.929 . S
H2063 C2072 0.929 . S
C2064 H2058 0.930 . S
C2064 C2065 1.367 . S
C2064 C2072 1.378 . S
C2065 C2064 1.367 . S
C2065 C2073 1.433 . S
C2066 H2062 0.929 . S
C2066 C2068 1.378 . S
C2066 C2070 1.350 . S
C2067 C2070 1.463 . S
C2067 C2072 1.350 . S
C2067 N2075 1.427 . S
C2068 H2059 0.930 . S
C2068 C2066 1.378 . S
C2068 C2069 1.367 . S
C2069 C2068 1.367 . S
C2069 C2071 1.433 . S
C2070 C2066 1.350 . S
C2070 C2067 1.463 . S
C2070 N2074 1.427 . S
C2071 H2061 0.929 . S
C2071 C2069 1.433 . S
C2071 N2074 1.384 . S
C2072 H2063 0.929 . S
C2072 C2064 1.378 . S
C2072 C2067 1.350 . S
C2073 H2060 0.929 . S
C2073 C2065 1.433 . S
C2073 N2075 1.384 . S
N2074 C2070 1.427 . S
N2074 C2071 1.384 . S
N2075 C2067 1.427 . S
N2075 C2073 1.384 . S
H2076 C2082 0.930 . S
H2077 C2086 0.930 . S
H2078 C2091 0.929 . S
H2079 C2089 0.929 . S
H2080 C2084 0.929 . S
H2081 C2090 0.929 . S
C2082 H2076 0.930 . S
C2082 C2083 1.367 . S
C2082 C2090 1.378 . S
C2083 C2082 1.367 . S
C2083 C2091 1.433 . S
C2084 H2080 0.929 . S
C2084 C2086 1.378 . S
C2084 C2088 1.350 . S
C2085 C2088 1.463 . S
C2085 C2090 1.350 . S
C2085 N2093 1.427 . S
C2086 H2077 0.930 . S
C2086 C2084 1.378 . S
C2086 C2087 1.367 . S
C2087 C2086 1.367 . S
C2087 C2089 1.433 . S
C2088 C2084 1.350 . S
C2088 C2085 1.463 . S
C2088 N2092 1.427 . S
C2089 H2079 0.929 . S
C2089 C2087 1.433 . S
C2089 N2092 1.384 . S
C2090 H2081 0.929 . S
C2090 C2082 1.378 . S
C2090 C2085 1.350 . S
C2091 H2078 0.929 . S
C2091 C2083 1.433 . S
C2091 N2093 1.384 . S
N2092 C2088 1.427 . S
N2092 C2089 1.384 . S
N2093 C2085 1.427 . S
N2093 C2091 1.384 . S
H2094 C2100 0.930 . S
H2095 C2104 0.930 . S
H2096 C2109 0.929 . S
H2097 C2107 0.929 . S
H2098 C2102 0.929 . S
H2099 C2108 0.929 . S
C2100 H2094 0.930 . S
C2100 C2101 1.367 . S
C2100 C2108 1.378 . S
C2101 C2100 1.367 . S
C2101 C2109 1.433 . S
C2102 H2098 0.929 . S
C2102 C2104 1.378 . S
C2102 C2106 1.350 . S
C2103 C2106 1.463 . S
C2103 C2108 1.350 . S
C2103 N2111 1.427 . S
C2104 H2095 0.930 . S
C2104 C2102 1.378 . S
C2104 C2105 1.367 . S
C2105 C2104 1.367 . S
C2105 C2107 1.433 . S
C2106 C2102 1.350 . S
C2106 C2103 1.463 . S
C2106 N2110 1.427 . S
C2107 H2097 0.929 . S
C2107 C2105 1.433 . S
C2107 N2110 1.384 . S
C2108 H2099 0.929 . S
C2108 C2100 1.378 . S
C2108 C2103 1.350 . S
C2109 H2096 0.929 . S
C2109 C2101 1.433 . S
C2109 N2111 1.384 . S
N2110 C2106 1.427 . S
N2110 C2107 1.384 . S
N2111 C2103 1.427 . S
N2111 C2109 1.384 . S
H2112 C2118 0.930 . S
H2113 C2122 0.930 . S
H2114 C2127 0.929 . S
H2115 C2125 0.929 . S
H2116 C2120 0.929 . S
H2117 C2126 0.929 . S
C2118 H2112 0.930 . S
C2118 C2119 1.367 . S
C2118 C2126 1.378 . S
C2119 C2118 1.367 . S
C2119 C2127 1.433 . S
C2120 H2116 0.929 . S
C2120 C2122 1.378 . S
C2120 C2124 1.350 . S
C2121 C2124 1.463 . S
C2121 C2126 1.350 . S
C2121 N2129 1.427 . S
C2122 H2113 0.930 . S
C2122 C2120 1.378 . S
C2122 C2123 1.367 . S
C2123 C2122 1.367 . S
C2123 C2125 1.433 . S
C2124 C2120 1.350 . S
C2124 C2121 1.463 . S
C2124 N2128 1.427 . S
C2125 H2115 0.929 . S
C2125 C2123 1.433 . S
C2125 N2128 1.384 . S
C2126 H2117 0.929 . S
C2126 C2118 1.378 . S
C2126 C2121 1.350 . S
C2127 H2114 0.929 . S
C2127 C2119 1.433 . S
C2127 N2129 1.384 . S
N2128 C2124 1.427 . S
N2128 C2125 1.384 . S
N2129 C2121 1.427 . S
N2129 C2127 1.384 . S
H2130 C2136 0.930 . S
H2131 C2140 0.930 . S
H2132 C2145 0.929 . S
H2133 C2143 0.929 . S
H2134 C2138 0.929 . S
H2135 C2144 0.929 . S
C2136 H2130 0.930 . S
C2136 C2137 1.367 . S
C2136 C2144 1.378 . S
C2137 C2136 1.367 . S
C2137 C2145 1.433 . S
C2138 H2134 0.929 . S
C2138 C2140 1.378 . S
C2138 C2142 1.350 . S
C2139 C2142 1.463 . S
C2139 C2144 1.350 . S
C2139 N2147 1.427 . S
C2140 H2131 0.930 . S
C2140 C2138 1.378 . S
C2140 C2141 1.367 . S
C2141 C2140 1.367 . S
C2141 C2143 1.433 . S
C2142 C2138 1.350 . S
C2142 C2139 1.463 . S
C2142 N2146 1.427 . S
C2143 H2133 0.929 . S
C2143 C2141 1.433 . S
C2143 N2146 1.384 . S
C2144 H2135 0.929 . S
C2144 C2136 1.378 . S
C2144 C2139 1.350 . S
C2145 H2132 0.929 . S
C2145 C2137 1.433 . S
C2145 N2147 1.384 . S
N2146 C2142 1.427 . S
N2146 C2143 1.384 . S
N2147 C2139 1.427 . S
N2147 C2145 1.384 . S
H2148 C2154 0.930 1_655 S
H2149 C2158 0.930 . S
H2150 C2163 0.929 . S
H2151 C2161 0.952 . S
H2152 C2156 0.929 . S
H2153 C2162 0.929 1_655 S
C2154 H2148 0.930 1_455 S
C2154 C2155 1.367 . S
C2154 C2162 1.378 . S
C2155 C2154 1.367 . S
C2155 C2163 1.433 . S
C2156 H2152 0.929 . S
C2156 C2158 1.378 . S
C2156 C2160 1.350 . S
C2157 C2160 1.463 . S
C2157 C2162 1.350 . S
C2157 N2165 1.427 . S
C2158 H2149 0.930 . S
C2158 C2156 1.378 . S
C2158 C2159 1.367 . S
C2159 C2158 1.367 . S
C2159 C2161 1.413 1_456 S
C2160 C2156 1.350 . S
C2160 C2157 1.463 . S
C2160 N2164 1.456 . S
C2161 H2151 0.952 . S
C2161 C2159 1.413 1_654 S
C2161 N2164 1.380 1_654 S
C2162 H2153 0.929 1_455 S
C2162 C2154 1.378 . S
C2162 C2157 1.350 . S
C2163 H2150 0.929 . S
C2163 C2155 1.433 . S
C2163 N2165 1.384 . S
N2164 C2160 1.456 . S
N2164 C2161 1.380 1_456 S
N2165 C2157 1.427 . S
N2165 C2163 1.384 . S
H2166 C2172 0.930 . S
H2167 C2176 0.930 . S
H2168 C2181 0.929 . S
H2169 C2179 0.929 . S
H2170 C2174 0.929 . S
H2171 C2180 0.929 . S
C2172 H2166 0.930 . S
C2172 C2173 1.367 . S
C2172 C2180 1.378 . S
C2173 C2172 1.367 . S
C2173 C2181 1.433 . S
C2174 H2170 0.929 . S
C2174 C2176 1.378 . S
C2174 C2178 1.350 . S
C2175 C2178 1.463 . S
C2175 C2180 1.350 . S
C2175 N2183 1.427 . S
C2176 H2167 0.930 . S
C2176 C2174 1.378 . S
C2176 C2177 1.367 . S
C2177 C2176 1.367 . S
C2177 C2179 1.433 . S
C2178 C2174 1.350 . S
C2178 C2175 1.463 . S
C2178 N2182 1.427 . S
C2179 H2169 0.929 . S
C2179 C2177 1.433 . S
C2179 N2182 1.384 . S
C2180 H2171 0.929 . S
C2180 C2172 1.378 . S
C2180 C2175 1.350 . S
C2181 H2168 0.929 . S
C2181 C2173 1.433 . S
C2181 N2183 1.384 . S
N2182 C2178 1.427 . S
N2182 C2179 1.384 . S
N2183 C2175 1.427 . S
N2183 C2181 1.384 . S
H2184 C2190 0.930 . S
H2185 C2194 0.930 . S
H2186 C2199 0.929 . S
H2187 C2197 0.929 . S
H2188 C2192 0.929 . S
H2189 C2198 0.929 . S
C2190 H2184 0.930 . S
C2190 C2191 1.367 . S
C2190 C2198 1.378 . S
C2191 C2190 1.367 . S
C2191 C2199 1.433 . S
C2192 H2188 0.929 . S
C2192 C2194 1.378 . S
C2192 C2196 1.350 . S
C2193 C2196 1.463 . S
C2193 C2198 1.350 . S
C2193 N2201 1.427 . S
C2194 H2185 0.930 . S
C2194 C2192 1.378 . S
C2194 C2195 1.367 . S
C2195 C2194 1.367 . S
C2195 C2197 1.433 . S
C2196 C2192 1.350 . S
C2196 C2193 1.463 . S
C2196 N2200 1.427 . S
C2197 H2187 0.929 . S
C2197 C2195 1.433 . S
C2197 N2200 1.384 . S
C2198 H2189 0.929 . S
C2198 C2190 1.378 . S
C2198 C2193 1.350 . S
C2199 H2186 0.929 . S
C2199 C2191 1.433 . S
C2199 N2201 1.384 . S
N2200 C2196 1.427 . S
N2200 C2197 1.384 . S
N2201 C2193 1.427 . S
N2201 C2199 1.384 . S
H2202 C2208 0.930 . S
H2203 C2212 0.930 . S
H2204 C2217 0.929 . S
H2205 C2215 0.929 . S
H2206 C2210 0.929 . S
H2207 C2216 0.929 . S
C2208 H2202 0.930 . S
C2208 C2209 1.367 . S
C2208 C2216 1.378 . S
C2209 C2208 1.367 . S
C2209 C2217 1.433 . S
C2210 H2206 0.929 . S
C2210 C2212 1.378 . S
C2210 C2214 1.350 . S
C2211 C2214 1.463 . S
C2211 C2216 1.350 . S
C2211 N2219 1.427 . S
C2212 H2203 0.930 . S
C2212 C2210 1.378 . S
C2212 C2213 1.367 . S
C2213 C2212 1.367 . S
C2213 C2215 1.433 . S
C2214 C2210 1.350 . S
C2214 C2211 1.463 . S
C2214 N2218 1.427 . S
C2215 H2205 0.929 . S
C2215 C2213 1.433 . S
C2215 N2218 1.384 . S
C2216 H2207 0.929 . S
C2216 C2208 1.378 . S
C2216 C2211 1.350 . S
C2217 H2204 0.929 . S
C2217 C2209 1.433 . S
C2217 N2219 1.384 . S
N2218 C2214 1.427 . S
N2218 C2215 1.384 . S
N2219 C2211 1.427 . S
N2219 C2217 1.384 . S
H2220 C2226 0.930 . S
H2221 C2230 0.930 . S
H2222 C2235 0.929 . S
H2223 C2233 0.929 . S
H2224 C2228 0.929 . S
H2225 C2234 0.929 . S
C2226 H2220 0.930 . S
C2226 C2227 1.367 1_655 S
C2226 C2234 1.378 . S
C2227 C2226 1.367 1_455 S
C2227 C2235 1.433 . S
C2228 H2224 0.929 . S
C2228 C2230 1.378 . S
C2228 C2232 1.350 . S
C2229 C2232 1.463 . S
C2229 C2234 1.350 1_455 S
C2229 N2237 1.427 . S
C2230 H2221 0.930 . S
C2230 C2228 1.378 . S
C2230 C2231 1.367 . S
C2231 C2230 1.367 . S
C2231 C2233 1.433 1_455 S
C2232 C2228 1.350 . S
C2232 C2229 1.463 . S
C2232 N2236 1.427 1_455 S
C2233 H2223 0.929 . S
C2233 C2231 1.433 1_655 S
C2233 N2236 1.384 . S
C2234 H2225 0.929 . S
C2234 C2226 1.378 . S
C2234 C2229 1.350 1_655 S
C2235 H2222 0.929 . S
C2235 C2227 1.433 . S
C2235 N2237 1.384 . S
N2236 C2232 1.427 1_655 S
N2236 C2233 1.384 . S
N2237 C2229 1.427 . S
N2237 C2235 1.384 . S
H2238 C2244 0.930 . S
H2239 C2248 0.930 . S
H2240 C2253 0.929 . S
H2241 C2251 0.929 . S
H2242 C2246 0.929 . S
H2243 C2252 0.929 . S
C2244 H2238 0.930 . S
C2244 C2245 1.367 . S
C2244 C2252 1.378 . S
C2245 C2244 1.367 . S
C2245 C2253 1.433 . S
C2246 H2242 0.929 . S
C2246 C2248 1.378 . S
C2246 C2250 1.350 . S
C2247 C2250 1.463 . S
C2247 C2252 1.350 . S
C2247 N2255 1.427 . S
C2248 H2239 0.930 . S
C2248 C2246 1.378 . S
C2248 C2249 1.367 . S
C2249 C2248 1.367 . S
C2249 C2251 1.433 . S
C2250 C2246 1.350 . S
C2250 C2247 1.463 . S
C2250 N2254 1.427 . S
C2251 H2241 0.929 . S
C2251 C2249 1.433 . S
C2251 N2254 1.384 . S
C2252 H2243 0.929 . S
C2252 C2244 1.378 . S
C2252 C2247 1.350 . S
C2253 H2240 0.929 . S
C2253 C2245 1.433 . S
C2253 N2255 1.384 . S
N2254 C2250 1.427 . S
N2254 C2251 1.384 . S
N2255 C2247 1.427 . S
N2255 C2253 1.384 . S
H2256 C2262 0.930 . S
H2257 C2266 0.930 . S
H2258 C2271 0.929 . S
H2259 C2269 0.929 . S
H2260 C2264 0.929 . S
H2261 C2270 0.929 . S
C2262 H2256 0.930 . S
C2262 C2263 1.367 . S
C2262 C2270 1.378 . S
C2263 C2262 1.367 . S
C2263 C2271 1.433 . S
C2264 H2260 0.929 . S
C2264 C2266 1.378 . S
C2264 C2268 1.350 . S
C2265 C2268 1.463 . S
C2265 C2270 1.350 . S
C2265 N2273 1.427 . S
C2266 H2257 0.930 . S
C2266 C2264 1.378 . S
C2266 C2267 1.367 . S
C2267 C2266 1.367 . S
C2267 C2269 1.433 . S
C2268 C2264 1.350 . S
C2268 C2265 1.463 . S
C2268 N2272 1.427 . S
C2269 H2259 0.929 . S
C2269 C2267 1.433 . S
C2269 N2272 1.384 . S
C2270 H2261 0.929 . S
C2270 C2262 1.378 . S
C2270 C2265 1.350 . S
C2271 H2258 0.929 . S
C2271 C2263 1.433 . S
C2271 N2273 1.384 . S
N2272 C2268 1.427 . S
N2272 C2269 1.384 . S
N2273 C2265 1.427 . S
N2273 C2271 1.384 . S
H2274 C2280 0.930 . S
H2275 C2284 0.930 . S
H2276 C2289 0.929 . S
H2277 C2287 0.929 . S
H2278 C2282 0.929 . S
H2279 C2288 0.929 . S
C2280 H2274 0.930 . S
C2280 C2281 1.367 . S
C2280 C2288 1.378 . S
C2281 C2280 1.367 . S
C2281 C2289 1.433 . S
C2282 H2278 0.929 . S
C2282 C2284 1.378 . S
C2282 C2286 1.350 . S
C2283 C2286 1.463 . S
C2283 C2288 1.350 . S
C2283 N2291 1.427 . S
C2284 H2275 0.930 . S
C2284 C2282 1.378 . S
C2284 C2285 1.367 . S
C2285 C2284 1.367 . S
C2285 C2287 1.433 . S
C2286 C2282 1.350 . S
C2286 C2283 1.463 . S
C2286 N2290 1.427 . S
C2287 H2277 0.929 . S
C2287 C2285 1.433 . S
C2287 N2290 1.384 . S
C2288 H2279 0.929 . S
C2288 C2280 1.378 . S
C2288 C2283 1.350 . S
C2289 H2276 0.929 . S
C2289 C2281 1.433 . S
C2289 N2291 1.384 . S
N2290 C2286 1.427 . S
N2290 C2287 1.384 . S
N2291 C2283 1.427 . S
N2291 C2289 1.384 . S
H2292 C2298 0.930 . S
H2293 C2302 0.930 . S
H2294 C2307 0.929 . S
H2295 C2305 0.929 . S
H2296 C2300 0.929 . S
H2297 C2306 0.929 . S
C2298 H2292 0.930 . S
C2298 C2299 1.367 . S
C2298 C2306 1.378 . S
C2299 C2298 1.367 . S
C2299 C2307 1.433 . S
C2300 H2296 0.929 . S
C2300 C2302 1.378 . S
C2300 C2304 1.350 . S
C2301 C2304 1.463 . S
C2301 C2306 1.350 . S
C2301 N2309 1.427 . S
C2302 H2293 0.930 . S
C2302 C2300 1.378 . S
C2302 C2303 1.367 . S
C2303 C2302 1.367 . S
C2303 C2305 1.433 . S
C2304 C2300 1.350 . S
C2304 C2301 1.463 . S
C2304 N2308 1.427 . S
C2305 H2295 0.929 . S
C2305 C2303 1.433 . S
C2305 N2308 1.384 . S
C2306 H2297 0.929 . S
C2306 C2298 1.378 . S
C2306 C2301 1.350 . S
C2307 H2294 0.929 . S
C2307 C2299 1.433 . S
C2307 N2309 1.384 . S
N2308 C2304 1.427 . S
N2308 C2305 1.384 . S
N2309 C2301 1.427 . S
N2309 C2307 1.384 . S
H2310 C2316 0.930 . S
H2311 C2320 0.930 . S
H2312 C2325 0.929 . S
H2313 C2323 0.929 . S
H2314 C2318 0.929 . S
H2315 C2324 0.929 . S
C2316 H2310 0.930 . S
C2316 C2317 1.367 . S
C2316 C2324 1.378 . S
C2317 C2316 1.367 . S
C2317 C2325 1.433 . S
C2318 H2314 0.929 . S
C2318 C2320 1.378 . S
C2318 C2322 1.350 . S
C2319 C2322 1.463 . S
C2319 C2324 1.350 . S
C2319 N2327 1.427 . S
C2320 H2311 0.930 . S
C2320 C2318 1.378 . S
C2320 C2321 1.367 . S
C2321 C2320 1.367 . S
C2321 C2323 1.433 . S
C2322 C2318 1.350 . S
C2322 C2319 1.463 . S
C2322 N2326 1.427 . S
C2323 H2313 0.929 . S
C2323 C2321 1.433 . S
C2323 N2326 1.384 . S
C2324 H2315 0.929 . S
C2324 C2316 1.378 . S
C2324 C2319 1.350 . S
C2325 H2312 0.929 . S
C2325 C2317 1.433 . S
C2325 N2327 1.384 . S
N2326 C2322 1.427 . S
N2326 C2323 1.384 . S
N2327 C2319 1.427 . S
N2327 C2325 1.384 . S
H2328 C2334 0.930 . S
H2329 C2338 0.930 . S
H2330 C2343 0.929 . S
H2331 C2341 0.929 . S
H2332 C2336 0.929 . S
H2333 C2342 0.929 . S
C2334 H2328 0.930 . S
C2334 C2335 1.367 . S
C2334 C2342 1.378 . S
C2335 C2334 1.367 . S
C2335 C2343 1.433 . S
C2336 H2332 0.929 . S
C2336 C2338 1.378 . S
C2336 C2340 1.350 . S
C2337 C2340 1.463 . S
C2337 C2342 1.350 . S
C2337 N2345 1.427 . S
C2338 H2329 0.930 . S
C2338 C2336 1.378 . S
C2338 C2339 1.367 . S
C2339 C2338 1.367 . S
C2339 C2341 1.433 . S
C2340 C2336 1.350 . S
C2340 C2337 1.463 . S
C2340 N2344 1.427 . S
C2341 H2331 0.929 . S
C2341 C2339 1.433 . S
C2341 N2344 1.384 . S
C2342 H2333 0.929 . S
C2342 C2334 1.378 . S
C2342 C2337 1.350 . S
C2343 H2330 0.929 . S
C2343 C2335 1.433 . S
C2343 N2345 1.384 . S
N2344 C2340 1.427 . S
N2344 C2341 1.384 . S
N2345 C2337 1.427 . S
N2345 C2343 1.384 . S
H2346 C2352 0.930 . S
H2347 C2356 0.930 . S
H2348 C2361 0.929 . S
H2349 C2359 0.929 . S
H2350 C2354 0.929 . S
H2351 C2360 0.929 . S
C2352 H2346 0.930 . S
C2352 C2353 1.367 . S
C2352 C2360 1.378 . S
C2353 C2352 1.367 . S
C2353 C2361 1.433 . S
C2354 H2350 0.929 . S
C2354 C2356 1.378 . S
C2354 C2358 1.350 . S
C2355 C2358 1.463 . S
C2355 C2360 1.350 . S
C2355 N2363 1.427 . S
C2356 H2347 0.930 . S
C2356 C2354 1.378 . S
C2356 C2357 1.367 . S
C2357 C2356 1.367 . S
C2357 C2359 1.433 . S
C2358 C2354 1.350 . S
C2358 C2355 1.463 . S
C2358 N2362 1.427 . S
C2359 H2349 0.929 . S
C2359 C2357 1.433 . S
C2359 N2362 1.384 . S
C2360 H2351 0.929 . S
C2360 C2352 1.378 . S
C2360 C2355 1.350 . S
C2361 H2348 0.929 . S
C2361 C2353 1.433 . S
C2361 N2363 1.384 . S
N2362 C2358 1.427 . S
N2362 C2359 1.384 . S
N2363 C2355 1.427 . S
N2363 C2361 1.384 . S
H2364 C2370 0.930 . S
H2365 C2374 0.930 . S
H2366 C2379 0.929 . S
H2367 C2377 0.929 . S
H2368 C2372 0.929 . S
H2369 C2378 0.929 . S
C2370 H2364 0.930 . S
C2370 C2371 1.367 . S
C2370 C2378 1.378 . S
C2371 C2370 1.367 . S
C2371 C2379 1.433 . S
C2372 H2368 0.929 . S
C2372 C2374 1.378 . S
C2372 C2376 1.350 . S
C2373 C2376 1.463 . S
C2373 C2378 1.350 . S
C2373 N2381 1.427 . S
C2374 H2365 0.930 . S
C2374 C2372 1.378 . S
C2374 C2375 1.367 . S
C2375 C2374 1.367 . S
C2375 C2377 1.433 . S
C2376 C2372 1.350 . S
C2376 C2373 1.463 . S
C2376 N2380 1.427 . S
C2377 H2367 0.929 . S
C2377 C2375 1.433 . S
C2377 N2380 1.384 . S
C2378 H2369 0.929 . S
C2378 C2370 1.378 . S
C2378 C2373 1.350 . S
C2379 H2366 0.929 . S
C2379 C2371 1.433 . S
C2379 N2381 1.384 . S
N2380 C2376 1.427 . S
N2380 C2377 1.384 . S
N2381 C2373 1.427 . S
N2381 C2379 1.384 . S
H2382 C2388 0.930 . S
H2383 C2392 0.930 . S
H2384 C2397 0.929 . S
H2385 C2395 0.929 . S
H2386 C2390 0.929 . S
H2387 C2396 0.929 . S
C2388 H2382 0.930 . S
C2388 C2389 1.367 . S
C2388 C2396 1.378 . S
C2389 C2388 1.367 . S
C2389 C2397 1.433 . S
C2390 H2386 0.929 . S
C2390 C2392 1.378 . S
C2390 C2394 1.350 . S
C2391 C2394 1.463 . S
C2391 C2396 1.350 . S
C2391 N2399 1.427 . S
C2392 H2383 0.930 . S
C2392 C2390 1.378 . S
C2392 C2393 1.367 . S
C2393 C2392 1.367 . S
C2393 C2395 1.433 . S
C2394 C2390 1.350 . S
C2394 C2391 1.463 . S
C2394 N2398 1.427 . S
C2395 H2385 0.929 . S
C2395 C2393 1.433 . S
C2395 N2398 1.384 . S
C2396 H2387 0.929 . S
C2396 C2388 1.378 . S
C2396 C2391 1.350 . S
C2397 H2384 0.929 . S
C2397 C2389 1.433 . S
C2397 N2399 1.384 . S
N2398 C2394 1.427 . S
N2398 C2395 1.384 . S
N2399 C2391 1.427 . S
N2399 C2397 1.384 . S
H2400 C2406 0.930 . S
H2401 C2410 0.930 . S
H2402 C2415 0.929 . S
H2403 C2413 0.929 . S
H2404 C2408 0.929 . S
H2405 C2414 0.929 . S
C2406 H2400 0.930 . S
C2406 C2407 1.367 . S
C2406 C2414 1.378 . S
C2407 C2406 1.367 . S
C2407 C2415 1.433 . S
C2408 H2404 0.929 . S
C2408 C2410 1.378 . S
C2408 C2412 1.350 . S
C2409 C2412 1.463 . S
C2409 C2414 1.350 . S
C2409 N2417 1.427 . S
C2410 H2401 0.930 . S
C2410 C2408 1.378 . S
C2410 C2411 1.367 . S
C2411 C2410 1.367 . S
C2411 C2413 1.433 . S
C2412 C2408 1.350 . S
C2412 C2409 1.463 . S
C2412 N2416 1.427 . S
C2413 H2403 0.929 . S
C2413 C2411 1.433 . S
C2413 N2416 1.384 . S
C2414 H2405 0.929 . S
C2414 C2406 1.378 . S
C2414 C2409 1.350 . S
C2415 H2402 0.929 . S
C2415 C2407 1.433 . S
C2415 N2417 1.384 . S
N2416 C2412 1.427 . S
N2416 C2413 1.384 . S
N2417 C2409 1.427 . S
N2417 C2415 1.384 . S
H2418 C2424 0.930 . S
H2419 C2428 0.930 . S
H2420 C2433 0.929 . S
H2421 C2431 0.929 . S
H2422 C2426 0.929 . S
H2423 C2432 0.929 . S
C2424 H2418 0.930 . S
C2424 C2425 1.367 . S
C2424 C2432 1.378 . S
C2425 C2424 1.367 . S
C2425 C2433 1.433 . S
C2426 H2422 0.929 . S
C2426 C2428 1.378 . S
C2426 C2430 1.350 . S
C2427 C2430 1.463 . S
C2427 C2432 1.350 . S
C2427 N2435 1.427 . S
C2428 H2419 0.930 . S
C2428 C2426 1.378 . S
C2428 C2429 1.367 . S
C2429 C2428 1.367 . S
C2429 C2431 1.433 . S
C2430 C2426 1.350 . S
C2430 C2427 1.463 . S
C2430 N2434 1.427 . S
C2431 H2421 0.929 . S
C2431 C2429 1.433 . S
C2431 N2434 1.384 . S
C2432 H2423 0.929 . S
C2432 C2424 1.378 . S
C2432 C2427 1.350 . S
C2433 H2420 0.929 . S
C2433 C2425 1.433 . S
C2433 N2435 1.384 . S
N2434 C2430 1.427 . S
N2434 C2431 1.384 . S
N2435 C2427 1.427 . S
N2435 C2433 1.384 . S
H2436 C2442 0.930 . S
H2437 C2446 0.930 . S
H2438 C2451 0.929 . S
H2439 C2449 0.929 . S
H2440 C2444 0.929 . S
H2441 C2450 0.929 . S
C2442 H2436 0.930 . S
C2442 C2443 1.367 . S
C2442 C2450 1.378 . S
C2443 C2442 1.367 . S
C2443 C2451 1.433 . S
C2444 H2440 0.929 . S
C2444 C2446 1.378 . S
C2444 C2448 1.350 . S
C2445 C2448 1.463 . S
C2445 C2450 1.350 . S
C2445 N2453 1.427 . S
C2446 H2437 0.930 . S
C2446 C2444 1.378 . S
C2446 C2447 1.367 . S
C2447 C2446 1.367 . S
C2447 C2449 1.433 . S
C2448 C2444 1.350 . S
C2448 C2445 1.463 . S
C2448 N2452 1.427 . S
C2449 H2439 0.929 . S
C2449 C2447 1.433 . S
C2449 N2452 1.384 . S
C2450 H2441 0.929 . S
C2450 C2442 1.378 . S
C2450 C2445 1.350 . S
C2451 H2438 0.929 . S
C2451 C2443 1.433 . S
C2451 N2453 1.384 . S
N2452 C2448 1.427 . S
N2452 C2449 1.384 . S
N2453 C2445 1.427 . S
N2453 C2451 1.384 . S
H2454 C2460 0.930 1_556 S
H2455 C2464 0.930 . S
H2456 C2469 0.929 . S
H2457 C2467 0.929 1_556 S
H2458 C2462 0.929 . S
H2459 C2468 0.929 1_556 S
C2460 H2454 0.930 1_554 S
C2460 C2461 1.367 . S
C2460 C2468 1.378 . S
C2461 C2460 1.367 . S
C2461 C2469 1.433 . S
C2462 H2458 0.929 . S
C2462 C2464 1.378 . S
C2462 C2466 1.350 . S
C2463 C2466 1.463 . S
C2463 C2468 1.350 . S
C2463 N2471 1.427 . S
C2464 H2455 0.930 . S
C2464 C2462 1.378 . S
C2464 C2465 1.392 . S
C2465 C2464 1.392 . S
C2465 C2467 1.422 1_565 S
C2466 C2462 1.350 . S
C2466 C2463 1.463 . S
C2466 N2470 1.427 . S
C2467 H2457 0.929 1_554 S
C2467 C2465 1.422 1_545 S
C2467 N2470 1.384 1_545 S
C2468 H2459 0.929 1_554 S
C2468 C2460 1.378 . S
C2468 C2463 1.350 . S
C2469 H2456 0.929 . S
C2469 C2461 1.433 . S
C2469 N2471 1.384 . S
N2470 C2466 1.427 . S
N2470 C2467 1.384 1_565 S
N2471 C2463 1.427 . S
N2471 C2469 1.384 . S
H2472 C2478 0.930 . S
H2473 C2482 0.930 . S
H2474 C2487 0.929 . S
H2475 C2485 0.929 . S
H2476 C2480 0.929 . S
H2477 C2486 0.929 . S
C2478 H2472 0.930 . S
C2478 C2479 1.367 . S
C2478 C2486 1.378 . S
C2479 C2478 1.367 . S
C2479 C2487 1.433 . S
C2480 H2476 0.929 . S
C2480 C2482 1.378 . S
C2480 C2484 1.350 . S
C2481 C2484 1.463 . S
C2481 C2486 1.350 . S
C2481 N2489 1.427 . S
C2482 H2473 0.930 . S
C2482 C2480 1.378 . S
C2482 C2483 1.367 . S
C2483 C2482 1.367 . S
C2483 C2485 1.433 . S
C2484 C2480 1.350 . S
C2484 C2481 1.463 . S
C2484 N2488 1.427 . S
C2485 H2475 0.929 . S
C2485 C2483 1.433 . S
C2485 N2488 1.384 . S
C2486 H2477 0.929 . S
C2486 C2478 1.378 . S
C2486 C2481 1.350 . S
C2487 H2474 0.929 . S
C2487 C2479 1.433 . S
C2487 N2489 1.384 . S
N2488 C2484 1.427 . S
N2488 C2485 1.384 . S
N2489 C2481 1.427 . S
N2489 C2487 1.384 . S
H2490 C2496 0.930 . S
H2491 C2500 0.930 . S
H2492 C2505 0.929 . S
H2493 C2503 0.929 . S
H2494 C2498 0.929 . S
H2495 C2504 0.929 . S
C2496 H2490 0.930 . S
C2496 C2497 1.367 . S
C2496 C2504 1.378 . S
C2497 C2496 1.367 . S
C2497 C2505 1.433 . S
C2498 H2494 0.929 . S
C2498 C2500 1.378 . S
C2498 C2502 1.350 . S
C2499 C2502 1.463 . S
C2499 C2504 1.350 . S
C2499 N2507 1.427 . S
C2500 H2491 0.930 . S
C2500 C2498 1.378 . S
C2500 C2501 1.367 . S
C2501 C2500 1.367 . S
C2501 C2503 1.433 . S
C2502 C2498 1.350 . S
C2502 C2499 1.463 . S
C2502 N2506 1.427 . S
C2503 H2493 0.929 . S
C2503 C2501 1.433 . S
C2503 N2506 1.384 . S
C2504 H2495 0.929 . S
C2504 C2496 1.378 . S
C2504 C2499 1.350 . S
C2505 H2492 0.929 . S
C2505 C2497 1.433 . S
C2505 N2507 1.384 . S
N2506 C2502 1.427 . S
N2506 C2503 1.384 . S
N2507 C2499 1.427 . S
N2507 C2505 1.384 . S
H2508 C2514 0.930 . S
H2509 C2518 0.930 . S
H2510 C2523 0.929 . S
H2511 C2521 0.929 . S
H2512 C2516 0.929 . S
H2513 C2522 0.929 . S
C2514 H2508 0.930 . S
C2514 C2515 1.367 . S
C2514 C2522 1.378 . S
C2515 C2514 1.367 . S
C2515 C2523 1.433 . S
C2516 H2512 0.929 . S
C2516 C2518 1.378 . S
C2516 C2520 1.350 . S
C2517 C2520 1.463 . S
C2517 C2522 1.350 . S
C2517 N2525 1.427 . S
C2518 H2509 0.930 . S
C2518 C2516 1.378 . S
C2518 C2519 1.367 . S
C2519 C2518 1.367 . S
C2519 C2521 1.433 . S
C2520 C2516 1.350 . S
C2520 C2517 1.463 . S
C2520 N2524 1.427 . S
C2521 H2511 0.929 . S
C2521 C2519 1.433 . S
C2521 N2524 1.384 . S
C2522 H2513 0.929 . S
C2522 C2514 1.378 . S
C2522 C2517 1.350 . S
C2523 H2510 0.929 . S
C2523 C2515 1.433 . S
C2523 N2525 1.384 . S
N2524 C2520 1.427 . S
N2524 C2521 1.384 . S
N2525 C2517 1.427 . S
N2525 C2523 1.384 . S
H2526 C2532 0.930 . S
H2527 C2536 0.930 . S
H2528 C2541 0.929 . S
H2529 C2539 0.929 . S
H2530 C2534 0.929 . S
H2531 C2540 0.929 . S
C2532 H2526 0.930 . S
C2532 C2533 1.367 . S
C2532 C2540 1.378 . S
C2533 C2532 1.367 . S
C2533 C2541 1.433 . S
C2534 H2530 0.929 . S
C2534 C2536 1.378 . S
C2534 C2538 1.350 . S
C2535 C2538 1.463 . S
C2535 C2540 1.350 . S
C2535 N2543 1.427 . S
C2536 H2527 0.930 . S
C2536 C2534 1.378 . S
C2536 C2537 1.367 . S
C2537 C2536 1.367 . S
C2537 C2539 1.433 . S
C2538 C2534 1.350 . S
C2538 C2535 1.463 . S
C2538 N2542 1.427 . S
C2539 H2529 0.929 . S
C2539 C2537 1.433 . S
C2539 N2542 1.384 . S
C2540 H2531 0.929 . S
C2540 C2532 1.378 . S
C2540 C2535 1.350 . S
C2541 H2528 0.929 . S
C2541 C2533 1.433 . S
C2541 N2543 1.384 . S
N2542 C2538 1.427 . S
N2542 C2539 1.384 . S
N2543 C2535 1.427 . S
N2543 C2541 1.384 . S
C827 C337 1.831 . S
C823 C7 1.842 . S
C841 C22 1.015 . S
C845 C382 1.010 . S
C859 C31 1.757 . S
C863 C406 1.731 . S
C881 N432 1.067 . S
C877 C51 1.050 . S
C895 C17 1.125 . S
C899 N462 1.131 . S
C917 C496 1.578 . S
C913 C36 1.608 . S
C935 C532 1.209 1_556 S
C931 C49 1.192 . S
C949 C9 1.794 . S
C953 C556 1.765 . S
C967 C63 0.973 . S
C971 N350 0.994 . S
C985 C73 1.114 . S
C989 N372 1.118 . S
C1007 C412 1.057 . S
C1003 C91 1.044 . S
C1025 C436 1.787 . S
C1021 C101 1.815 . S
C1039 C59 1.255 . S
C1043 C466 1.228 . S
C1061 C502 1.120 . S
C1057 C77 1.079 . S
C1079 N522 1.094 . S
C1075 C87 1.093 . S
C1097 C562 1.737 . S
C1093 C105 1.728 . S
C1115 C363 1.693 . S
C1111 C107 1.708 . S
C1133 C592 1.012 . S
C1129 C120 1.016 . S
C1147 C135 1.095 . S
C1151 N612 1.105 . S
C1169 C646 1.579 . S
C1165 C148 1.611 . S
C1183 C65 0.929 . S
C1187 N552 0.930 . S
C1205 N402 1.091 1_565 S
C1201 C79 1.075 . S
C1219 C134 1.058 . S
C1223 C682 1.052 . S
C1241 C706 1.041 . S
C1237 C162 1.057 . S
C1255 C171 1.809 . S
C1259 C346 1.781 1_556 S
C1277 C723 0.973 . S
C1273 C190 0.971 . S
C1291 C203 1.678 . S
C1295 C397 1.691 . S
C1309 C219 1.034 . S
C1313 N680 1.037 . S
C1331 N470 1.102 . S
C1327 C189 1.048 . S
C1349 C607 1.542 . S
C1345 C204 1.564 . S
C1367 C543 1.160 . S
C1363 C213 1.172 . S
C1385 C727 1.732 . S
C1381 C177 1.762 . S
C1403 N342 0.961 . S
C1399 C227 0.959 . S
C1417 C245 1.028 . S
C1421 N710 1.088 . S
C1439 C423 1.005 . S
C1435 C255 1.016 . S
C1453 C273 1.731 . S
C1457 C667 1.744 . S
C1471 C231 1.160 . S
C1475 C457 1.185 1_655 S
C1489 C241 1.078 . S
C1493 C633 1.069 . S
C1511 N530 1.071 . S
C1507 C259 1.014 . S
C1525 C269 1.711 . S
C1529 C753 1.694 . S
C1543 C275 1.673 . S
C1547 C352 1.655 . S
C1561 C288 0.979 1_554 S
C1565 C603 0.972 . S
C1579 C303 1.071 . S
C1583 N500 1.075 . S
C1597 C316 1.570 . S
C1601 C637 1.547 . S
C1619 N740 0.902 . S
C1615 C233 0.898 1_565 S
C1637 N410 1.061 . S
C1633 C247 1.050 . S
C1655 C453 1.021 . S
C1651 C302 1.019 . S
C1673 C367 0.988 . S
C1669 C330 1.004 . S
C1687 C35 1.841 . S
C1691 C757 1.832 . S
C1709 C712 1.005 . S
C1705 C50 1.012 . S
C1727 C796 1.732 . S
C1723 C3 1.757 . S
C1741 C23 1.059 1_655 S
C1745 N672 1.068 . S
C1759 C45 1.125 . S
C1763 N582 1.131 1_556 S
C1781 C616 1.579 . S
C1777 C8 1.607 . S
C1799 C652 1.216 . S
C1795 C21 1.179 . S
C1817 C736 1.767 . S
C1813 C37 1.796 . S
C1835 N770 0.990 . S
C1831 C161 0.982 . S
C1849 C115 1.114 1_556 S
C1853 N702 1.118 . S
C1867 C133 1.025 . S
C1871 C802 1.055 1_655 S
C1889 C676 1.783 . S
C1885 C143 1.815 . S
C1907 C586 1.227 . S
C1903 C157 1.255 . S
C1921 C119 1.080 . S
C1925 C622 1.118 . S
C1943 N642 1.093 . S
C1939 C129 1.091 . S
C1957 C147 1.736 . S
C1961 C742 1.733 . S
C1979 C783 1.688 . S
C1975 C149 1.704 . S
C1997 C472 1.012 . S
C1993 C78 1.017 . S
C2015 N492 1.103 . S
C2011 C93 1.087 1_565 S
C2029 C106 1.611 . S
C2033 C526 1.579 . S
C2051 N732 0.930 . S
C2047 C163 0.926 . S
C2065 C121 1.075 . S
C2069 N792 1.090 . S
C2087 C442 1.056 . S
C2083 C92 1.062 . S
C2105 C376 1.034 . S
C2101 C64 1.057 . S
C2119 C199 1.811 . S
C2123 C766 1.789 . S
C2141 C393 0.964 . S
C2137 C218 0.970 . S
C2159 C787 1.691 1_556 S
C2155 C175 1.678 . S
C2173 C191 1.024 . S
C2177 N440 1.035 . S
C2191 C217 1.065 . S
C2195 N590 1.102 . S
C2209 C176 1.570 . S
C2213 C487 1.550 . S
C2227 C185 1.174 . S
C2231 C663 1.160 . S
C2245 C205 1.760 . S
C2249 C547 1.735 . S
C2267 N762 0.963 . S
C2263 C325 0.958 . S
C2281 C287 1.029 . S
C2285 N380 1.084 . S
C2303 C813 1.012 . S
C2299 C297 1.017 . S
C2317 C315 1.724 . S
C2321 C427 1.745 . S
C2335 C329 1.150 . S
C2339 C577 1.172 . S
C2357 C513 1.074 . S
C2353 C283 1.083 . S
C2371 C301 1.028 . S
C2375 N650 1.071 . S
C2393 C573 1.697 . S
C2389 C311 1.711 . S
C2411 C772 1.651 . S
C2407 C317 1.670 . S
C2429 C483 0.981 . S
C2425 C246 0.978 . S
C2443 C261 1.070 . S
C2447 N620 1.075 . S
C2465 C517 1.526 1_565 S
C2461 C274 1.565 . S
C2483 N560 0.900 . S
C2479 C331 0.901 . S
C2497 C289 1.058 1_554 S
C2501 N800 1.063 . S
C2519 C693 1.012 . S
C2515 C260 1.018 . S
C2537 C697 0.997 . S
C2533 C232 1.007 . S
