# Generated by pormake.
# Topology anh, (6,3)-cn, num edge types: 1
# Building blocks:
#     Node 0, Type 0, BuildingBlock: VOLQOD_clean_sbu_1, # of connection points: 6
#     Node 1, Type 0, BuildingBlock: VOLQOD_clean_sbu_1, # of connection points: 6
#     Node 2, Type 0, BuildingBlock: VOLQOD_clean_sbu_1, # of connection points: 6
#     Node 3, Type 1, BuildingBlock: OLANEW_clean_sbu_2, # of connection points: 3
#     Node 4, Type 1, BuildingBlock: OLANEW_clean_sbu_2, # of connection points: 3
#     Node 5, Type 1, BuildingBlock: OLANEW_clean_sbu_2, # of connection points: 3
#     Node 6, Type 1, BuildingBlock: OLANEW_clean_sbu_2, # of connection points: 3
#     Node 7, Type 1, BuildingBlock: OLANEW_clean_sbu_2, # of connection points: 3
#     Node 8, Type 1, BuildingBlock: OLANEW_clean_sbu_2, # of connection points: 3
#     Edge 9, Type (0, 1), BuildingBlock: UVAHIK_clean_linker_0, # of connection points: 2
#     Edge 10, Type (0, 1), BuildingBlock: UVAHIK_clean_linker_0, # of connection points: 2
#     Edge 11, Type (0, 1), BuildingBlock: UVAHIK_clean_linker_0, # of connection points: 2
#     Edge 12, Type (0, 1), BuildingBlock: UVAHIK_clean_linker_0, # of connection points: 2
#     Edge 13, Type (0, 1), BuildingBlock: UVAHIK_clean_linker_0, # of connection points: 2
#     Edge 14, Type (0, 1), BuildingBlock: UVAHIK_clean_linker_0, # of connection points: 2
#     Edge 15, Type (0, 1), BuildingBlock: UVAHIK_clean_linker_0, # of connection points: 2
#     Edge 16, Type (0, 1), BuildingBlock: UVAHIK_clean_linker_0, # of connection points: 2
#     Edge 17, Type (0, 1), BuildingBlock: UVAHIK_clean_linker_0, # of connection points: 2
#     Edge 18, Type (0, 1), BuildingBlock: UVAHIK_clean_linker_0, # of connection points: 2
#     Edge 19, Type (0, 1), BuildingBlock: UVAHIK_clean_linker_0, # of connection points: 2
#     Edge 20, Type (0, 1), BuildingBlock: UVAHIK_clean_linker_0, # of connection points: 2
#     Edge 21, Type (0, 1), BuildingBlock: UVAHIK_clean_linker_0, # of connection points: 2
#     Edge 22, Type (0, 1), BuildingBlock: UVAHIK_clean_linker_0, # of connection points: 2
#     Edge 23, Type (0, 1), BuildingBlock: UVAHIK_clean_linker_0, # of connection points: 2
#     Edge 24, Type (0, 1), BuildingBlock: UVAHIK_clean_linker_0, # of connection points: 2
#     Edge 25, Type (0, 1), BuildingBlock: UVAHIK_clean_linker_0, # of connection points: 2
#     Edge 26, Type (0, 1), BuildingBlock: UVAHIK_clean_linker_0, # of connection points: 2
# Relax obj value: 0.154
# Max RMSD: 0.206
# Mean RMSD: 0.142
data_MOF--net-anh--node1-VOLQOD_clean_sbu_1--node2-OLANEW_clean_sbu_2--edge1-UVAHIK_clean_linker_0
_symmetry_space_group_name_H-M    P1
_symmetry_Int_Tables_number       1
_symmetry_cell_setting            triclinic
loop_
_symmetry_equiv_pos_as_xyz
'x, y, z'
_cell_length_a     39.841766
_cell_length_b     39.778649
_cell_length_c     75.149162
_cell_angle_alpha  89.946963
_cell_angle_beta   89.862723
_cell_angle_gamma 120.24387
loop_
_atom_site_label
_atom_site_type_symbol
_atom_site_fract_x
_atom_site_fract_y
_atom_site_fract_z
_atom_type_partial_charge
O0 O -0.0037 0.53165 0.19908 0.0
Zn1 Zn 0.99495 0.53693 0.17243 0.0
O2 O -0.00158 0.495 0.16042 0.0
Zn3 Zn 0.95326 0.46567 0.1454 0.0
Zn4 Zn 0.00097 0.46007 0.17819 0.0
Zn5 Zn 0.04422 0.51713 0.14518 0.0
O6 O 0.96681 0.46946 0.11941 0.0
O7 O 0.03075 0.50841 0.11915 0.0
O8 O 0.94485 0.53569 0.16661 0.0
O9 O 0.91561 0.4845 0.14873 0.0
O10 O 0.92462 0.40961 0.15222 0.0
O11 O 0.95358 0.40589 0.17674 0.0
O12 O 0.04894 0.45576 0.1746 0.0
O13 O 0.04095 0.58939 0.16623 0.0
O14 O 0.07639 0.49273 0.15069 0.0
O15 O 0.07723 0.57471 0.1491 0.0
C16 C 0.00044 0.50837 0.20925 0.0
C17 C -0.00119 0.48807 0.11097 0.0
C18 C 0.9267 0.39015 0.16517 0.0
C19 C 0.91576 0.51221 0.15726 0.0
C20 C 0.07553 0.46985 0.16278 0.0
C21 C 0.07191 0.59962 0.15734 0.0
O22 O 0.00324 0.48015 0.20298 0.0
O23 O 0.48046 0.0126 0.45957 0.0
Zn24 Zn 0.46737 0.01117 0.4856 0.0
O25 O 0.50563 0.00612 0.50006 0.0
Zn26 Zn 0.53406 0.0521 0.51479 0.0
Zn27 Zn 0.5419 -0.00077 0.4847 0.0
Zn28 Zn 0.47893 0.96171 0.51579 0.0
O29 O 0.52762 0.03985 0.54103 0.0
O30 O 0.48524 0.97654 0.54155 0.0
O31 O 0.46752 0.06117 0.49089 0.0
O32 O 0.51611 0.08993 0.51011 0.0
O33 O 0.59051 0.08008 0.50869 0.0
O34 O 0.59664 0.04543 0.48712 0.0
O35 O 0.54251 0.94958 0.49048 0.0
O36 O 0.41311 0.96499 0.48933 0.0
O37 O 0.50089 0.92689 0.51316 0.0
O38 O 0.42231 0.93049 0.50998 0.0
C39 C 0.50358 0.0051 0.45104 0.0
C40 C 0.50649 0.00847 0.54961 0.0
C41 C 0.6113 0.075 0.49735 0.0
C42 C 0.48974 0.09007 0.50066 0.0
C43 C 0.52483 0.92461 0.50274 0.0
C44 C 0.40009 0.93507 0.49935 0.0
O45 O 0.52712 0.99739 0.45898 0.0
O46 O 0.4694 0.48405 0.79542 0.0
Zn47 Zn 0.46322 0.47717 0.82208 0.0
O48 O 0.50885 0.51904 0.83422 0.0
Zn49 Zn 0.49282 0.547 0.85 0.0
Zn50 Zn 0.5463 0.55524 0.81663 0.0
Zn51 Zn 0.53324 0.49694 0.84881 0.0
O52 O 0.50556 0.54447 0.87571 0.0
O53 O 0.53012 0.5054 0.87496 0.0
O54 O 0.41365 0.47638 0.82912 0.0
O55 O 0.43564 0.52531 0.8483 0.0
O56 O 0.5176 0.60278 0.84298 0.0
O57 O 0.55415 0.60954 0.8194 0.0
O58 O 0.59856 0.559 0.81913 0.0
O59 O 0.45771 0.42479 0.82741 0.0
O60 O 0.58961 0.52128 0.84262 0.0
O61 O 0.50831 0.43957 0.84476 0.0
C62 C 0.49654 0.50847 0.78533 0.0
C63 C 0.51945 0.52589 0.88362 0.0
C64 C 0.54072 0.62371 0.83069 0.0
C65 C 0.40782 0.49794 0.83972 0.0
C66 C 0.61132 0.54443 0.83049 0.0
C67 C 0.4784 0.41468 0.83631 0.0
O68 O 0.52747 0.53675 0.79174 0.0
O69 O 0.48175 0.01301 0.25047 0.0
Cd70 Cd 0.48052 0.01347 0.21791 0.0
O71 O 0.51937 0.98727 0.25164 0.0
Cd72 Cd 0.50109 0.96477 0.22484 0.0
O73 O 0.45231 0.93082 0.20707 0.0
C74 C 0.42005 0.92645 0.21244 0.0
O75 O 0.41908 0.94252 0.22756 0.0
C76 C 0.5027 0.00336 0.25939 0.0
C77 C 0.55383 0.06785 0.20503 0.0
O78 O 0.52822 0.07747 0.20839 0.0
O79 O 0.54451 0.03231 0.20744 0.0
O80 O 0.49692 0.49515 0.58559 0.0
Cd81 Cd 0.50072 0.50572 0.55336 0.0
O82 O 0.4336 0.45603 0.58727 0.0
Cd83 Cd 0.42796 0.47064 0.55991 0.0
O84 O 0.44238 0.52191 0.54387 0.0
C85 C 0.45987 0.55265 0.55316 0.0
O86 O 0.46615 0.54933 0.57006 0.0
C87 C 0.4667 0.47323 0.59476 0.0
C88 C 0.4956 0.44234 0.53522 0.0
O89 O 0.5284 0.47021 0.54058 0.0
O90 O 0.4652 0.4447 0.53824 0.0
O91 O -0.00346 0.50294 0.91143 0.0
Cd92 Cd 0.995 0.51054 0.87923 0.0
O93 O 0.9583 0.43929 0.91174 0.0
Cd94 Cd 0.94383 0.44048 0.88389 0.0
O95 O 0.91886 0.46392 0.8653 0.0
C96 C 0.91106 0.48782 0.87278 0.0
O97 O 0.91874 0.49505 0.88981 0.0
C98 C 0.98016 0.47089 0.91994 0.0
C99 C 0.0558 0.5045 0.86469 0.0
O100 O 0.06063 0.5373 0.86991 0.0
O101 O 0.02166 0.47456 0.86576 0.0
O102 O 0.00142 0.52303 0.40949 0.0
Cd103 Cd 0.9934 0.51901 0.44185 0.0
O104 O 0.95949 0.54294 0.40565 0.0
Cd105 Cd 0.93687 0.52305 0.43239 0.0
O106 O 0.90835 0.46976 0.44823 0.0
C107 C 0.90962 0.44128 0.44128 0.0
O108 O 0.92808 0.44676 0.42609 0.0
C109 C 0.9849 0.53585 0.3993 0.0
C110 C 0.04886 0.58887 0.45712 0.0
O111 O 0.05437 0.55985 0.45603 0.0
O112 O 0.0168 0.58465 0.45125 0.0
O113 O 0.50734 0.01342 0.75038 0.0
Cd114 Cd 0.51148 0.02022 0.78275 0.0
O115 O 0.5707 0.04971 0.74704 0.0
Cd116 Cd 0.57572 0.07315 0.77368 0.0
O117 O 0.5551 0.10351 0.79062 0.0
C118 C 0.525 0.10323 0.78482 0.0
O119 O 0.50942 0.08493 0.76987 0.0
C120 C 0.53732 0.02729 0.74044 0.0
C121 C 0.5323 0.96863 0.79677 0.0
O122 O 0.49668 0.96002 0.79638 0.0
O123 O 0.5582 0.002 0.79087 0.0
O124 O 0.50674 0.50414 0.08265 0.0
Cd125 Cd 0.49313 0.49452 0.11454 0.0
O126 O 0.53153 0.56766 0.08308 0.0
Cd127 Cd 0.51361 0.56488 0.11072 0.0
O128 O 0.46382 0.54164 0.12866 0.0
C129 C 0.43228 0.51866 0.12077 0.0
O130 O 0.43361 0.51191 0.10374 0.0
C131 C 0.52298 0.53674 0.07458 0.0
C132 C 0.5574 0.50034 0.13178 0.0
O133 O 0.53014 0.46756 0.12603 0.0
O134 O 0.55377 0.53034 0.12976 0.0
C135 C 0.12228 0.4568 0.17932 0.0
C136 C 0.10678 0.46039 0.16312 0.0
C137 C 0.15501 0.4524 0.1794 0.0
C138 C 0.21239 0.42293 0.15273 0.0
H139 H 0.30434 0.5142 0.17056 0.0
C140 C 0.36001 0.47972 0.12038 0.0
C141 C 0.39444 0.50137 0.13007 0.0
C142 C 0.32397 0.46575 0.12855 0.0
C143 C 0.27903 0.48788 0.16595 0.0
H144 H 0.11158 0.45998 0.13441 0.0
H145 H 0.16779 0.45095 0.13455 0.0
H146 H 0.2402 0.5039 0.17792 0.0
H147 H 0.4181 0.52367 0.1562 0.0
H148 H 0.3548 0.49858 0.17065 0.0
H149 H 0.25085 0.40718 0.14037 0.0
C150 C 0.15503 0.45201 0.14714 0.0
C151 C 0.24229 0.48208 0.17016 0.0
C152 C 0.12312 0.45744 0.14706 0.0
C153 C 0.39203 0.50736 0.14835 0.0
C154 C 0.35579 0.49307 0.1566 0.0
C155 C 0.24902 0.42832 0.14877 0.0
C156 C 0.17175 0.45031 0.16329 0.0
C157 C 0.20888 0.45055 0.16288 0.0
C158 C 0.32131 0.47269 0.1467 0.0
C159 C 0.28285 0.46196 0.15453 0.0
H160 H 0.11024 0.45921 0.19187 0.0
H161 H 0.16769 0.45139 0.19198 0.0
H162 H 0.18687 0.39823 0.1471 0.0
H163 H 0.36077 0.47455 0.10627 0.0
H164 H 0.29824 0.45096 0.12035 0.0
C165 C 0.66748 0.13995 0.50555 0.0
C166 C 0.65207 0.10659 0.49476 0.0
C167 C 0.70302 0.1728 0.50137 0.0
C168 C 0.76325 0.21999 0.46206 0.0
H169 H 0.83103 0.29605 0.49672 0.0
C170 C 0.88764 0.37031 0.44054 0.0
C171 C 0.88851 0.40195 0.44932 0.0
C172 C 0.86518 0.33256 0.4472 0.0
C173 C 0.81235 0.27505 0.4869 0.0
H174 H 0.66363 0.08056 0.47194 0.0
H175 H 0.72622 0.1378 0.46483 0.0
H176 H 0.78143 0.2312 0.50664 0.0
H177 H 0.86781 0.41895 0.47241 0.0
H178 H 0.8284 0.35287 0.48401 0.0
H179 H 0.7936 0.26401 0.44238 0.0
C180 C 0.71021 0.1388 0.47629 0.0
C181 C 0.78394 0.23792 0.49256 0.0
C182 C 0.67446 0.10588 0.48044 0.0
C183 C 0.86766 0.39519 0.4653 0.0
C184 C 0.84529 0.35738 0.47201 0.0
C185 C 0.79179 0.25695 0.45641 0.0
C186 C 0.72425 0.17311 0.48635 0.0
C187 C 0.75838 0.21026 0.48025 0.0
C188 C 0.84323 0.3256 0.46283 0.0
C189 C 0.81605 0.28517 0.4688 0.0
H190 H 0.6512 0.14151 0.51677 0.0
H191 H 0.71262 0.19869 0.50936 0.0
H192 H 0.74373 0.19978 0.45222 0.0
H193 H 0.90357 0.3745 0.42826 0.0
H194 H 0.86451 0.30871 0.43996 0.0
C195 C 0.57902 0.69076 0.81732 0.0
C196 C 0.55039 0.66475 0.82921 0.0
C197 C 0.58628 0.7289 0.81552 0.0
C198 C 0.56481 0.80113 0.83681 0.0
H199 H 0.57737 0.84163 0.7888 0.0
C200 C 0.51706 0.90853 0.81373 0.0
C201 C 0.54295 0.94012 0.80309 0.0
C202 C 0.52583 0.87998 0.81864 0.0
C203 C 0.5745 0.83095 0.80231 0.0
H204 H 0.50728 0.65863 0.8487 0.0
H205 H 0.51888 0.72399 0.84515 0.0
H206 H 0.57871 0.78183 0.79404 0.0
H207 H 0.59864 0.96706 0.78949 0.0
H208 H 0.6134 0.91629 0.79769 0.0
H209 H 0.55808 0.84914 0.8448 0.0
C210 C 0.53666 0.71568 0.83754 0.0
C211 C 0.57542 0.79677 0.80535 0.0
C212 C 0.52973 0.67788 0.83947 0.0
C213 C 0.57819 0.94306 0.79775 0.0
C214 C 0.58661 0.91405 0.80237 0.0
C215 C 0.56325 0.83492 0.83371 0.0
C216 C 0.5648 0.74166 0.82546 0.0
C217 C 0.56956 0.78086 0.82258 0.0
C218 C 0.56032 0.88213 0.81272 0.0
C219 C 0.56723 0.84961 0.81639 0.0
H220 H 0.59562 0.6816 0.80931 0.0
H221 H 0.60851 0.74827 0.80625 0.0
H222 H 0.56123 0.79034 0.85032 0.0
H223 H 0.48976 0.9056 0.81808 0.0
H224 H 0.50495 0.85542 0.82651 0.0
C225 C 0.88065 0.54865 0.16361 0.0
C226 C 0.88029 0.51529 0.15715 0.0
C227 C 0.84638 0.55033 0.16406 0.0
C228 C 0.74058 0.48768 0.16567 0.0
H229 H 0.73603 0.57216 0.14226 0.0
C230 C 0.59819 0.47135 0.1399 0.0
C231 C 0.59301 0.50373 0.13957 0.0
C232 C 0.63328 0.47519 0.14554 0.0
C233 C 0.73689 0.54876 0.14922 0.0
H234 H 0.84367 0.45757 0.14614 0.0
H235 H 0.78423 0.4605 0.1471 0.0
H236 H 0.79847 0.57523 0.14553 0.0
H237 H 0.61989 0.56522 0.1457 0.0
H238 H 0.68108 0.57179 0.15587 0.0
H239 H 0.67915 0.46087 0.16924 0.0
C240 C 0.81091 0.48526 0.15183 0.0
C241 C 0.77266 0.55052 0.15103 0.0
C242 C 0.84507 0.48378 0.15114 0.0
C243 C 0.62311 0.53975 0.1457 0.0
C244 C 0.65823 0.54357 0.15143 0.0
C245 C 0.70494 0.48608 0.16404 0.0
C246 C 0.81117 0.51842 0.15836 0.0
C247 C 0.77458 0.51943 0.15878 0.0
C248 C 0.66397 0.51148 0.1511 0.0
C249 C 0.70246 0.516 0.15529 0.0
H250 H 0.90733 0.5734 0.16833 0.0
H251 H 0.84725 0.57625 0.16912 0.0
H252 H 0.74146 0.46362 0.17197 0.0
H253 H 0.5756 0.4432 0.13524 0.0
H254 H 0.63681 0.44996 0.14483 0.0
C255 C 0.33229 0.90837 0.48754 0.0
C256 C 0.35896 0.90364 0.49791 0.0
C257 C 0.29433 0.87738 0.48523 0.0
C258 C 0.22339 0.77797 0.50249 0.0
H259 H 0.18139 0.76226 0.45476 0.0
C260 C 0.11015 0.62869 0.47426 0.0
C261 C 0.07927 0.62653 0.46436 0.0
C262 C 0.14017 0.66457 0.4802 0.0
C263 C 0.19248 0.76656 0.46822 0.0
H264 H 0.36627 0.86278 0.51429 0.0
H265 H 0.30104 0.80889 0.50984 0.0
H266 H 0.2416 0.8219 0.46177 0.0
H267 H 0.05523 0.66016 0.45316 0.0
H268 H 0.10833 0.72309 0.46324 0.0
H269 H 0.17514 0.72147 0.50856 0.0
C270 C 0.30883 0.83663 0.50382 0.0
C271 C 0.22694 0.80083 0.47228 0.0
C272 C 0.34651 0.8676 0.50627 0.0
C273 C 0.07863 0.66091 0.46079 0.0
C274 C 0.10902 0.6969 0.46648 0.0
C275 C 0.18925 0.74349 0.49834 0.0
C276 C 0.28231 0.84089 0.49311 0.0
C277 C 0.2433 0.80664 0.48938 0.0
C278 C 0.1402 0.69906 0.47613 0.0
C279 C 0.17388 0.73719 0.48108 0.0
H280 H 0.34085 0.93583 0.48102 0.0
H281 H 0.27453 0.88194 0.47712 0.0
H282 H 0.23456 0.78178 0.51591 0.0
H283 H 0.11138 0.60269 0.47726 0.0
H284 H 0.16405 0.66548 0.48748 0.0
C285 C 0.43967 0.34632 0.82483 0.0
C286 C 0.46967 0.37384 0.83564 0.0
C287 C 0.43519 0.30947 0.82228 0.0
C288 C 0.46829 0.24205 0.83816 0.0
H289 H 0.46096 0.21514 0.7882 0.0
C290 C 0.52865 0.14958 0.80836 0.0
C291 C 0.50915 0.12521 0.79389 0.0
C292 C 0.51552 0.1732 0.81569 0.0
C293 C 0.46223 0.22164 0.80226 0.0
H294 H 0.51675 0.3832 0.85325 0.0
H295 H 0.50938 0.3195 0.84857 0.0
H296 H 0.45138 0.26818 0.79737 0.0
H297 H 0.45922 0.10467 0.77648 0.0
H298 H 0.43624 0.14557 0.78937 0.0
H299 H 0.48075 0.1963 0.84287 0.0
C300 C 0.48905 0.3261 0.84216 0.0
C301 C 0.45665 0.25208 0.80753 0.0
C302 C 0.49349 0.36285 0.84472 0.0
C303 C 0.47521 0.12349 0.78749 0.0
C304 C 0.46205 0.147 0.79483 0.0
C305 C 0.47395 0.21157 0.83287 0.0
C306 C 0.46062 0.29941 0.83049 0.0
C307 C 0.46053 0.26327 0.82548 0.0
C308 C 0.48259 0.17281 0.80872 0.0
C309 C 0.47185 0.20165 0.8148 0.0
H310 H 0.42056 0.35368 0.81777 0.0
H311 H 0.41258 0.28928 0.81344 0.0
H312 H 0.47091 0.24962 0.85213 0.0
H313 H 0.55482 0.15146 0.81363 0.0
H314 H 0.53221 0.19304 0.82628 0.0
C315 C 0.53495 0.88116 0.52264 0.0
C316 C 0.53121 0.89164 0.50527 0.0
C317 C 0.53304 0.84584 0.52594 0.0
C318 C 0.53093 0.75963 0.50596 0.0
H319 H 0.46584 0.70921 0.54719 0.0
C320 C 0.46733 0.5964 0.52738 0.0
C321 C 0.4722 0.59145 0.54555 0.0
C322 C 0.47756 0.63327 0.52069 0.0
C323 C 0.48422 0.72298 0.53569 0.0
H324 H 0.52494 0.87496 0.47754 0.0
H325 H 0.52033 0.81196 0.48336 0.0
H326 H 0.47986 0.77385 0.53871 0.0
H327 H 0.49293 0.62145 0.57077 0.0
H328 H 0.5102 0.68515 0.55916 0.0
H329 H 0.5344 0.70768 0.50298 0.0
C330 C 0.52543 0.83144 0.49439 0.0
C331 C 0.49249 0.76013 0.53087 0.0
C332 C 0.52808 0.8674 0.49104 0.0
C333 C 0.48846 0.62411 0.55674 0.0
C334 C 0.49834 0.66064 0.55012 0.0
C335 C 0.52233 0.72202 0.51075 0.0
C336 C 0.52631 0.8197 0.51198 0.0
C337 C 0.51664 0.77933 0.51621 0.0
C338 C 0.4924 0.66549 0.53213 0.0
C339 C 0.49952 0.7038 0.52589 0.0
H340 H 0.5378 0.89969 0.53379 0.0
H341 H 0.53512 0.83824 0.53958 0.0
H342 H 0.54949 0.77362 0.49455 0.0
H343 H 0.45509 0.57178 0.51841 0.0
H344 H 0.47265 0.63635 0.50677 0.0
C345 C 0.67214 0.5575 0.84545 0.0
C346 C 0.652 0.55377 0.82962 0.0
C347 C 0.70931 0.56247 0.84495 0.0
C348 C 0.76328 0.52896 0.82189 0.0
H349 H 0.84928 0.60415 0.8505 0.0
C350 C 0.88369 0.49905 0.84475 0.0
C351 C 0.89204 0.50591 0.86299 0.0
C352 C 0.86316 0.51424 0.83605 0.0
C353 C 0.82561 0.58295 0.84241 0.0
H354 H 0.65489 0.55315 0.80083 0.0
H355 H 0.71986 0.56008 0.79999 0.0
H356 H 0.79559 0.61496 0.84363 0.0
H357 H 0.88671 0.53523 0.88624 0.0
H358 H 0.85024 0.56044 0.8714 0.0
H359 H 0.79108 0.49497 0.82204 0.0
C360 C 0.70701 0.5601 0.81271 0.0
C361 C 0.79515 0.58939 0.83836 0.0
C362 C 0.67007 0.5562 0.8132 0.0
C363 C 0.88075 0.52933 0.87218 0.0
C364 C 0.86013 0.54424 0.86357 0.0
C365 C 0.79344 0.52213 0.82619 0.0
C366 C 0.72666 0.56288 0.82861 0.0
C367 C 0.76304 0.56166 0.8287 0.0
C368 C 0.85052 0.53645 0.84546 0.0
C369 C 0.82402 0.54817 0.83724 0.0
H370 H 0.65881 0.55583 0.85826 0.0
H371 H 0.72375 0.56404 0.85738 0.0
H372 H 0.73859 0.50704 0.81452 0.0
H373 H 0.89234 0.48136 0.83728 0.0
H374 H 0.85657 0.508 0.82206 0.0
C375 C 0.13987 0.65166 0.14987 0.0
C376 C 0.10385 0.64065 0.15791 0.0
C377 C 0.17178 0.68879 0.15258 0.0
C378 C 0.20848 0.76469 0.18647 0.0
H379 H 0.29177 0.82164 0.15249 0.0
C380 C 0.34914 0.90032 0.20792 0.0
C381 C 0.38363 0.90162 0.20267 0.0
C382 C 0.31384 0.87421 0.19999 0.0
C383 C 0.26876 0.80599 0.16212 0.0
H384 H 0.07242 0.66113 0.17398 0.0
H385 H 0.12804 0.72607 0.17852 0.0
H386 H 0.23078 0.76562 0.14257 0.0
H387 H 0.40851 0.8779 0.18437 0.0
H388 H 0.34665 0.83161 0.17075 0.0
H389 H 0.24657 0.80393 0.20613 0.0
C390 C 0.13175 0.70564 0.17043 0.0
C391 C 0.23385 0.77399 0.15645 0.0
C392 C 0.09984 0.66846 0.16776 0.0
C393 C 0.38239 0.8775 0.18873 0.0
C394 C 0.34696 0.85115 0.18085 0.0
C395 C 0.24326 0.79657 0.19213 0.0
C396 C 0.16836 0.71579 0.16334 0.0
C397 C 0.20358 0.75259 0.16864 0.0
C398 C 0.31217 0.84859 0.1867 0.0
C399 C 0.27406 0.81722 0.1801 0.0
H400 H 0.14399 0.63106 0.14212 0.0
H401 H 0.1996 0.69553 0.14703 0.0
H402 H 0.18611 0.74844 0.1963 0.0
H403 H 0.34919 0.91892 0.21846 0.0
H404 H 0.28769 0.87351 0.20455 0.0
C405 C 0.51779 0.16083 0.50659 0.0
C406 C 0.48653 0.12551 0.5005 0.0
C407 C 0.51575 0.19476 0.50629 0.0
C408 C 0.44884 0.23047 0.50913 0.0
H409 H 0.5373 0.32718 0.49273 0.0
C410 C 0.4569 0.37787 0.52007 0.0
C411 C 0.49271 0.40769 0.52651 0.0
C412 C 0.45367 0.34379 0.51311 0.0
C413 C 0.51241 0.30047 0.49742 0.0
H414 H 0.42851 0.09806 0.48937 0.0
H415 H 0.4246 0.15773 0.48931 0.0
H416 H 0.53575 0.26584 0.4877 0.0
H417 H 0.55344 0.42567 0.53019 0.0
H418 H 0.54771 0.36613 0.51848 0.0
H419 H 0.42638 0.26509 0.51972 0.0
C420 C 0.45077 0.15888 0.49411 0.0
C421 C 0.51147 0.26539 0.49446 0.0
C422 C 0.45304 0.12486 0.49414 0.0
C423 C 0.52545 0.40327 0.52533 0.0
C424 C 0.52219 0.36918 0.51846 0.0
C425 C 0.44993 0.26564 0.51225 0.0
C426 C 0.48225 0.19414 0.5001 0.0
C427 C 0.48019 0.23021 0.50072 0.0
C428 C 0.48615 0.33877 0.5125 0.0
C429 C 0.48228 0.30116 0.50688 0.0
H430 H 0.54411 0.16244 0.51148 0.0
H431 H 0.5402 0.22144 0.51123 0.0
H432 H 0.42452 0.20374 0.51418 0.0
H433 H 0.43117 0.38054 0.52068 0.0
H434 H 0.42562 0.32118 0.5084 0.0
C435 C 0.36327 0.51894 0.85219 0.0
C436 C 0.36841 0.49245 0.84185 0.0
C437 C 0.32677 0.51517 0.85398 0.0
C438 C 0.23051 0.47248 0.833 0.0
H439 H 0.20447 0.50086 0.87819 0.0
C440 C 0.08395 0.4659 0.8517 0.0
C441 C 0.08932 0.50086 0.85897 0.0
C442 C 0.11594 0.46129 0.84824 0.0
C443 C 0.2114 0.49286 0.8655 0.0
H444 H 0.33892 0.44093 0.82533 0.0
H445 H 0.27453 0.43392 0.82876 0.0
H446 H 0.2632 0.49676 0.87564 0.0
H447 H 0.1324 0.55886 0.86764 0.0
H448 H 0.18793 0.55044 0.8619 0.0
H449 H 0.17801 0.46834 0.82305 0.0
C450 C 0.29912 0.45792 0.83528 0.0
C451 C 0.24506 0.49063 0.864 0.0
C452 C 0.33593 0.46182 0.8334 0.0
C453 C 0.12725 0.53155 0.86207 0.0
C454 C 0.15904 0.52673 0.85888 0.0
C455 C 0.19638 0.47421 0.83459 0.0
C456 C 0.29419 0.48459 0.84563 0.0
C457 C 0.25568 0.48161 0.84761 0.0
C458 C 0.1536 0.49134 0.85228 0.0
C459 C 0.18723 0.48549 0.85074 0.0
H460 H 0.3876 0.54311 0.85878 0.0
H461 H 0.3243 0.53681 0.8617 0.0
H462 H 0.23794 0.46561 0.82017 0.0
H463 H 0.05504 0.44179 0.84911 0.0
H464 H 0.11117 0.43377 0.84314 0.0
C465 C 0.88554 0.33203 0.1844 0.0
C466 C 0.89477 0.34958 0.1675 0.0
C467 C 0.85102 0.29667 0.18706 0.0
C468 C 0.7536 0.24269 0.16757 0.0
H469 H 0.73801 0.16325 0.2019 0.0
C470 C 0.62183 0.08672 0.19625 0.0
C471 C 0.59333 0.09713 0.19903 0.0
C472 C 0.65958 0.11478 0.19125 0.0
C473 C 0.74197 0.18497 0.19212 0.0
H474 H 0.87708 0.34221 0.13983 0.0
H475 H 0.81759 0.2803 0.14437 0.0
H476 H 0.80393 0.21535 0.1949 0.0
H477 H 0.582 0.14506 0.19864 0.0
H478 H 0.64779 0.19395 0.19005 0.0
H479 H 0.69185 0.21253 0.16475 0.0
C480 C 0.83623 0.29432 0.15569 0.0
C481 C 0.77967 0.21498 0.18824 0.0
C482 C 0.87043 0.32971 0.15308 0.0
C483 C 0.60323 0.13605 0.19654 0.0
C484 C 0.6409 0.16405 0.19152 0.0
C485 C 0.71604 0.2128 0.17144 0.0
C486 C 0.82535 0.27816 0.17282 0.0
C487 C 0.78586 0.2444 0.17605 0.0
C488 C 0.66954 0.15377 0.18889 0.0
C489 C 0.70973 0.18392 0.18394 0.0
H490 H 0.90371 0.34668 0.19578 0.0
H491 H 0.84343 0.28508 0.20044 0.0
H492 H 0.75721 0.26516 0.15831 0.0
H493 H 0.61509 0.05694 0.19805 0.0
H494 H 0.68091 0.10591 0.18914 0.0
C495 C 0.96667 0.45613 0.08231 0.0
C496 C -0.00112 0.48576 0.09133 0.0
C497 C 0.9668 0.45375 0.06377 0.0
C498 C 0.00848 0.51268 0.02399 0.0
H499 H 0.97825 0.41463 0.00061 0.0
C500 C 0.01573 0.50367 0.94781 0.0
C501 C 0.98555 0.47085 0.9394 0.0
C502 C 0.01961 0.50471 0.9663 0.0
C503 C 0.98629 0.44214 0.0069 0.0
H504 H 0.05639 0.53625 0.08794 0.0
H505 H 0.0562 0.53244 0.05548 0.0
H506 H 0.97997 0.41802 0.03305 0.0
H507 H 0.93607 0.41314 0.94374 0.0
H508 H 0.94199 0.41537 0.97602 0.0
H509 H 0.01354 0.5367 0.99804 0.0
C510 C 0.03102 0.51099 0.06283 0.0
C511 C 0.98741 0.44406 0.02548 0.0
C512 C 0.03115 0.51304 0.08139 0.0
C513 C 0.95975 0.43878 0.94983 0.0
C514 C 0.96331 0.44001 0.96836 0.0
C515 C 0.00686 0.51068 0.00543 0.0
C516 C -0.00112 0.48127 0.05385 0.0
C517 C -0.00153 0.47934 0.03418 0.0
C518 C 0.99307 0.47317 0.97685 0.0
C519 C -0.0043 0.47537 0.99663 0.0
H520 H 0.94141 0.43457 0.08958 0.0
H521 H 0.94152 0.43074 0.05715 0.0
H522 H 0.01665 0.54013 0.03039 0.0
H523 H 0.03634 0.52871 0.94012 0.0
H524 H 0.04342 0.53036 0.97229 0.0
C525 C 0.51082 0.98065 0.42156 0.0
C526 C 0.50394 0.00644 0.43146 0.0
C527 C 0.51162 0.98223 0.40298 0.0
C528 C 0.53151 0.0016 0.36433 0.0
H529 H 0.47068 0.03763 0.33926 0.0
C530 C 0.53931 0.01582 0.28788 0.0
C531 C 0.50557 0.00854 0.27883 0.0
C532 C 0.54115 0.01905 0.30642 0.0
C533 C 0.48745 0.02688 0.34595 0.0
H534 H 0.49345 0.05471 0.4299 0.0
H535 H 0.49735 0.05938 0.39762 0.0
H536 H 0.46763 0.03358 0.37133 0.0
H537 H 0.44719 -0.00147 0.2819 0.0
H538 H 0.44918 0.00149 0.31415 0.0
H539 H 0.54878 0.99179 0.33891 0.0
C540 C 0.50031 0.03658 0.40396 0.0
C541 C 0.48634 0.02533 0.36452 0.0
C542 C 0.49832 0.03416 0.42251 0.0
C543 C 0.47374 0.00462 0.28858 0.0
C544 C 0.47509 0.00665 0.30712 0.0
C545 C 0.53173 0.00206 0.34574 0.0
C546 C 0.50679 0.0105 0.39388 0.0
C547 C 0.50833 0.01262 0.37402 0.0
C548 C 0.5088 0.01383 0.31637 0.0
C549 C 0.50964 0.01464 0.33624 0.0
H550 H 0.51493 0.95879 0.42818 0.0
H551 H 0.51562 0.9609 0.39584 0.0
H552 H 0.54965 0.99251 0.37103 0.0
H553 H 0.56437 0.01928 0.2806 0.0
H554 H 0.56801 0.02563 0.31288 0.0
C555 C 0.45746 0.47497 0.75811 0.0
C556 C 0.49262 0.50332 0.76577 0.0
C557 C 0.45416 0.46979 0.73966 0.0
C558 C 0.50103 0.5199 0.69741 0.0
H559 H 0.44269 0.41633 0.67728 0.0
C560 C 0.50598 0.49348 0.62271 0.0
C561 C 0.46995 0.4707 0.61429 0.0
C562 C 0.50858 0.49489 0.64124 0.0
C563 C 0.45886 0.44542 0.68273 0.0
H564 H 0.552 0.54817 0.75997 0.0
H565 H 0.54647 0.53865 0.72795 0.0
H566 H 0.44737 0.42443 0.70958 0.0
H567 H 0.40866 0.43002 0.61879 0.0
H568 H 0.41335 0.43239 0.65124 0.0
H569 H 0.51284 0.54084 0.6706 0.0
C570 C 0.52115 0.52094 0.73614 0.0
C571 C 0.46145 0.45011 0.70123 0.0
C572 C 0.52438 0.52628 0.75454 0.0
C573 C 0.43685 0.44794 0.62485 0.0
C574 C 0.43953 0.44919 0.64343 0.0
C575 C 0.49867 0.51518 0.67898 0.0
C576 C 0.48599 0.4927 0.72844 0.0
C577 C 0.48267 0.48744 0.70879 0.0
C578 C 0.47528 0.4734 0.6518 0.0
C579 C 0.47769 0.47791 0.67143 0.0
H580 H 0.43238 0.45683 0.76636 0.0
H581 H 0.4265 0.44814 0.73418 0.0
H582 H 0.5169 0.54913 0.70273 0.0
H583 H 0.53212 0.51122 0.61501 0.0
H584 H 0.53664 0.51331 0.64732 0.0
C585 C 0.49286 0.97355 0.57879 0.0
C586 C 0.50774 0.00867 0.56928 0.0
C587 C 0.49558 0.97369 0.59732 0.0
C588 C 0.48678 0.97993 0.63698 0.0
H589 H 0.57871 0.06269 0.65954 0.0
C590 C 0.49685 0.0049 0.71288 0.0
C591 C 0.5332 0.01957 0.7211 0.0
C592 C 0.49352 0.00108 0.6944 0.0
C593 C 0.55306 0.03901 0.65348 0.0
H594 H 0.53627 0.07143 0.57178 0.0
H595 H 0.53992 0.07164 0.60413 0.0
H596 H 0.57353 0.06108 0.62735 0.0
H597 H 0.59424 0.03992 0.7165 0.0
H598 H 0.58826 0.03199 0.68433 0.0
H599 H 0.46696 0.95709 0.66311 0.0
C600 C 0.52711 0.044 0.59726 0.0
C601 C 0.54978 0.03848 0.63499 0.0
C602 C 0.52478 0.04389 0.57872 0.0
C603 C 0.56589 0.02889 0.71053 0.0
C604 C 0.56248 0.02461 0.69207 0.0
C605 C 0.49024 0.98023 0.65548 0.0
C606 C 0.51288 0.00892 0.60679 0.0
C607 C 0.51648 0.00911 0.62649 0.0
C608 C 0.52639 0.0114 0.68373 0.0
C609 C 0.52332 0.00993 0.66399 0.0
H610 H 0.47981 0.9459 0.57192 0.0
H611 H 0.48485 0.94615 0.60415 0.0
H612 H 0.46053 0.95706 0.63093 0.0
H613 H 0.47113 0.99763 0.72065 0.0
H614 H 0.46535 0.99129 0.68846 0.0
C615 C 0.52916 0.50095 0.91263 0.0
C616 C 0.5233 0.52813 0.90323 0.0
C617 C 0.53227 0.50271 0.93116 0.0
C618 C 0.55705 0.56846 0.96911 0.0
H619 H 0.49224 0.47458 0.99627 0.0
C620 C 0.53589 0.57051 0.04509 0.0
C621 C 0.52973 0.53812 0.05516 0.0
C622 C 0.5385 0.57019 0.02654 0.0
C623 C 0.51115 0.50095 0.98894 0.0
H624 H 0.51678 0.57887 0.90587 0.0
H625 H 0.52276 0.58217 0.93826 0.0
H626 H 0.49052 0.47222 0.96391 0.0
H627 H 0.52351 0.48079 0.05379 0.0
H628 H 0.5295 0.48076 0.02156 0.0
H629 H 0.5782 0.59719 0.99406 0.0
C630 C 0.52481 0.55949 0.93125 0.0
C631 C 0.50996 0.49957 0.97038 0.0
C632 C 0.52114 0.55742 0.91273 0.0
C633 C 0.52783 0.50605 0.04638 0.0
C634 C 0.53098 0.50593 0.02787 0.0
C635 C 0.55866 0.56977 0.98769 0.0
C636 C 0.53015 0.532 0.94063 0.0
C637 C 0.53263 0.53336 0.9603 0.0
C638 C 0.53553 0.53765 0.01767 0.0
C639 C 0.53546 0.53608 0.99787 0.0
H640 H 0.53091 0.478 0.90571 0.0
H641 H 0.5366 0.4813 0.93809 0.0
H642 H 0.57515 0.59485 0.96161 0.0
H643 H 0.53728 0.59559 0.05146 0.0
H644 H 0.54151 0.59495 0.01916 0.0
C645 C 0.01522 0.49489 0.23992 0.0
C646 C 0.00213 0.51423 0.22875 0.0
C647 C 0.01663 0.50016 0.25833 0.0
C648 C 0.01433 0.56485 0.2935 0.0
H649 H 0.98593 0.47519 0.32364 0.0
C650 C 0.97771 0.55693 0.36876 0.0
C651 C 0.99303 0.53963 0.37995 0.0
C652 C 0.98237 0.55713 0.3503 0.0
C653 C 0.99436 0.50059 0.3154 0.0
H654 H 0.98026 0.55433 0.22816 0.0
H655 H 0.98155 0.56258 0.26031 0.0
H656 H 0.98616 0.46847 0.29148 0.0
H657 H 0.02639 0.51016 0.38056 0.0
H658 H 0.03414 0.51025 0.34836 0.0
H659 H 0.02127 0.59652 0.31762 0.0
C660 C 0.99164 0.54405 0.25484 0.0
C661 C 0.99461 0.49681 0.29695 0.0
C662 C 0.99064 0.53911 0.2364 0.0
C663 C 0.01416 0.52366 0.37233 0.0
C664 C 0.01843 0.5235 0.35389 0.0
C665 C 0.01365 0.5685 0.31199 0.0
C666 C 0.00453 0.52453 0.26606 0.0
C667 C 0.00465 0.52888 0.28574 0.0
C668 C 0.00206 0.53967 0.34268 0.0
C669 C 0.00373 0.5364 0.3231 0.0
H670 H 0.02468 0.47584 0.23445 0.0
H671 H 0.02747 0.48526 0.26649 0.0
H672 H 0.02279 0.59032 0.28532 0.0
H673 H 0.96139 0.56958 0.37422 0.0
H674 H 0.9693 0.56963 0.34196 0.0
loop_
_geom_bond_atom_site_label_1
_geom_bond_atom_site_label_2
_geom_bond_distance
_geom_bond_site_symmetry_2
_ccdc_geom_bond_type
O0 Zn1 1.953 . S
O0 C16 1.225 1_655 S
Zn1 O0 1.953 . S
Zn1 O2 1.949 1_655 S
Zn1 O8 1.919 . S
Zn1 O13 1.924 1_655 S
O2 Zn1 1.949 1_455 S
O2 Zn3 1.923 1_455 S
O2 Zn4 1.950 . S
O2 Zn5 1.945 . S
Zn3 O2 1.923 1_655 S
Zn3 O6 1.933 . S
Zn3 O9 1.941 . S
Zn3 O10 1.965 . S
Zn4 O2 1.950 . S
Zn4 O11 1.938 1_455 S
Zn4 O12 1.906 . S
Zn4 O22 1.953 . S
Zn5 O2 1.945 . S
Zn5 O7 1.932 . S
Zn5 O14 1.977 . S
Zn5 O15 1.910 . S
O6 Zn3 1.933 . S
O6 C17 1.226 1_655 S
O7 Zn5 1.932 . S
O7 C17 1.307 . S
O8 Zn1 1.919 . S
O8 C19 1.253 . S
O9 Zn3 1.941 . S
O9 C19 1.283 . S
O10 Zn3 1.965 . S
O10 C18 1.303 . S
O11 Zn4 1.938 1_655 S
O11 C18 1.247 . S
O12 Zn4 1.906 . S
O12 C20 1.304 . S
O13 Zn1 1.924 1_455 S
O13 C21 1.311 . S
O14 Zn5 1.977 . S
O14 C20 1.272 . S
O15 Zn5 1.910 . S
O15 C21 1.231 . S
C16 O0 1.225 1_455 S
C16 O22 1.298 . S
C17 O6 1.226 1_455 S
C17 O7 1.307 . S
C18 O10 1.303 . S
C18 O11 1.247 . S
C19 O8 1.253 . S
C19 O9 1.283 . S
C20 O12 1.304 . S
C20 O14 1.272 . S
C21 O13 1.311 . S
C21 O15 1.231 . S
O22 Zn4 1.953 . S
O22 C16 1.298 . S
O23 Zn24 1.953 . S
O23 C39 1.225 . S
Zn24 O23 1.953 . S
Zn24 O25 1.949 . S
Zn24 O31 1.919 . S
Zn24 O36 1.924 1_545 S
O25 Zn24 1.949 . S
O25 Zn26 1.923 . S
O25 Zn27 1.933 1_545 S
O25 Zn28 1.945 1_545 S
Zn26 O25 1.923 . S
Zn26 O29 1.933 . S
Zn26 O32 1.941 . S
Zn26 O33 1.965 . S
Zn27 O25 1.933 1_565 S
Zn27 O34 1.924 1_565 S
Zn27 O35 1.937 . S
Zn27 O45 1.950 . S
Zn28 O25 1.945 1_565 S
Zn28 O30 1.932 . S
Zn28 O37 1.977 . S
Zn28 O38 1.910 . S
O29 Zn26 1.933 . S
O29 C40 1.226 . S
O30 Zn28 1.932 . S
O30 C40 1.307 1_565 S
O31 Zn24 1.919 . S
O31 C42 1.253 . S
O32 Zn26 1.941 . S
O32 C42 1.283 . S
O33 Zn26 1.965 . S
O33 C41 1.303 . S
O34 Zn27 1.924 1_545 S
O34 C41 1.247 . S
O35 Zn27 1.937 . S
O35 C43 1.304 . S
O36 Zn24 1.924 1_565 S
O36 C44 1.311 . S
O37 Zn28 1.977 . S
O37 C43 1.272 . S
O38 Zn28 1.910 . S
O38 C44 1.231 . S
C39 O23 1.225 . S
C39 O45 1.298 1_545 S
C40 O29 1.226 . S
C40 O30 1.307 1_545 S
C41 O33 1.303 . S
C41 O34 1.247 . S
C42 O31 1.253 . S
C42 O32 1.283 . S
C43 O35 1.304 . S
C43 O37 1.272 . S
C44 O36 1.311 . S
C44 O38 1.231 . S
O45 Zn27 1.950 . S
O45 C39 1.298 1_565 S
O46 Zn47 1.953 . S
O46 C62 1.225 . S
Zn47 O46 1.953 . S
Zn47 O48 1.949 . S
Zn47 O54 1.919 . S
Zn47 O59 1.924 . S
O48 Zn47 1.949 . S
O48 Zn49 1.923 . S
O48 Zn50 1.950 . S
O48 Zn51 1.945 . S
Zn49 O48 1.923 . S
Zn49 O52 1.933 . S
Zn49 O55 1.941 . S
Zn49 O56 1.965 . S
Zn50 O48 1.950 . S
Zn50 O57 1.938 . S
Zn50 O58 1.906 . S
Zn50 O68 1.953 . S
Zn51 O48 1.945 . S
Zn51 O53 1.932 . S
Zn51 O60 1.977 . S
Zn51 O61 1.910 . S
O52 Zn49 1.933 . S
O52 C63 1.226 . S
O53 Zn51 1.932 . S
O53 C63 1.307 . S
O54 Zn47 1.919 . S
O54 C65 1.253 . S
O55 Zn49 1.941 . S
O55 C65 1.283 . S
O56 Zn49 1.965 . S
O56 C64 1.303 . S
O57 Zn50 1.938 . S
O57 C64 1.247 . S
O58 Zn50 1.906 . S
O58 C66 1.304 . S
O59 Zn47 1.924 . S
O59 C67 1.311 . S
O60 Zn51 1.977 . S
O60 C66 1.272 . S
O61 Zn51 1.910 . S
O61 C67 1.231 . S
C62 O46 1.225 . S
C62 O68 1.298 . S
C63 O52 1.226 . S
C63 O53 1.307 . S
C64 O56 1.303 . S
C64 O57 1.247 . S
C65 O54 1.253 . S
C65 O55 1.283 . S
C66 O58 1.304 . S
C66 O60 1.272 . S
C67 O59 1.311 . S
C67 O61 1.231 . S
O68 Zn50 1.953 . S
O68 C62 1.298 . S
O69 Cd70 2.300 . S
O69 C76 1.275 . S
Cd70 O69 2.300 . S
Cd70 O78 2.381 . S
Cd70 O79 2.378 . S
O71 Cd72 2.385 . S
O71 C76 1.255 1_565 S
Cd72 O71 2.385 . S
Cd72 O73 2.317 . S
O73 Cd72 2.317 . S
O73 C74 1.232 . S
C74 O73 1.232 . S
C74 O75 1.218 . S
O75 C74 1.218 . S
C76 O69 1.275 . S
C76 O71 1.255 1_545 S
C77 O78 1.258 . S
C77 O79 1.256 . S
O78 Cd70 2.381 . S
O78 C77 1.258 . S
O79 Cd70 2.378 . S
O79 C77 1.256 . S
O80 Cd81 2.300 . S
O80 C87 1.275 . S
Cd81 O80 2.300 . S
Cd81 O89 2.381 . S
Cd81 O90 2.378 . S
O82 Cd83 2.385 . S
O82 C87 1.255 . S
Cd83 O82 2.385 . S
Cd83 O84 2.317 . S
O84 Cd83 2.317 . S
O84 C85 1.232 . S
C85 O84 1.232 . S
C85 O86 1.218 . S
O86 C85 1.218 . S
C87 O80 1.275 . S
C87 O82 1.255 . S
C88 O89 1.258 . S
C88 O90 1.256 . S
O89 Cd81 2.381 . S
O89 C88 1.258 . S
O90 Cd81 2.378 . S
O90 C88 1.256 . S
O91 Cd92 2.300 . S
O91 C98 1.275 . S
Cd92 O91 2.300 . S
Cd92 O100 2.381 . S
Cd92 O101 2.378 . S
O93 Cd94 2.385 . S
O93 C98 1.255 1_655 S
Cd94 O93 2.385 . S
Cd94 O95 2.317 . S
O95 Cd94 2.317 . S
O95 C96 1.232 . S
C96 O95 1.232 . S
C96 O97 1.218 . S
O97 C96 1.218 . S
C98 O91 1.275 . S
C98 O93 1.255 1_455 S
C99 O100 1.258 . S
C99 O101 1.256 . S
O100 Cd92 2.381 . S
O100 C99 1.258 . S
O101 Cd92 2.378 . S
O101 C99 1.256 . S
O102 Cd103 2.300 . S
O102 C109 1.275 1_455 S
Cd103 O102 2.300 . S
Cd103 O111 2.381 . S
Cd103 O112 2.378 . S
O104 Cd105 2.385 . S
O104 C109 1.255 . S
Cd105 O104 2.385 . S
Cd105 O106 2.317 . S
O106 Cd105 2.317 . S
O106 C107 1.232 . S
C107 O106 1.232 . S
C107 O108 1.218 . S
O108 C107 1.218 . S
C109 O102 1.275 1_655 S
C109 O104 1.255 . S
C110 O111 1.258 . S
C110 O112 1.256 . S
O111 Cd103 2.381 . S
O111 C110 1.258 . S
O112 Cd103 2.378 . S
O112 C110 1.256 . S
O113 Cd114 2.300 . S
O113 C120 1.275 1_565 S
Cd114 O113 2.300 . S
Cd114 O122 2.381 . S
Cd114 O123 2.378 . S
O115 Cd116 2.385 . S
O115 C120 1.255 . S
Cd116 O115 2.385 . S
Cd116 O117 2.317 . S
O117 Cd116 2.317 . S
O117 C118 1.232 . S
C118 O117 1.232 . S
C118 O119 1.218 . S
O119 C118 1.218 . S
C120 O113 1.275 1_545 S
C120 O115 1.255 . S
C121 O122 1.258 . S
C121 O123 1.256 . S
O122 Cd114 2.381 . S
O122 C121 1.258 . S
O123 Cd114 2.378 . S
O123 C121 1.256 . S
O124 Cd125 2.300 . S
O124 C131 1.275 . S
Cd125 O124 2.300 . S
Cd125 O133 2.381 . S
Cd125 O134 2.378 . S
O126 Cd127 2.385 . S
O126 C131 1.255 . S
Cd127 O126 2.385 . S
Cd127 O128 2.317 . S
O128 Cd127 2.317 . S
O128 C129 1.232 . S
C129 O128 1.232 . S
C129 O130 1.218 . S
O130 C129 1.218 . S
C131 O124 1.275 . S
C131 O126 1.255 . S
C132 O133 1.258 . S
C132 O134 1.256 . S
O133 Cd125 2.381 . S
O133 C132 1.258 . S
O134 Cd125 2.378 . S
O134 C132 1.256 . S
C135 C136 1.349 . S
C135 C137 1.327 . S
C135 H160 0.950 . S
C136 C135 1.349 . S
C136 C152 1.349 . S
C137 C135 1.327 . S
C137 C156 1.429 . S
C137 H161 0.950 . S
C138 C155 1.574 . S
C138 C157 1.368 . S
C138 H162 0.949 . S
H139 C143 0.949 . S
C140 C141 1.349 . S
C140 C142 1.327 . S
C140 H163 0.950 . S
C141 C140 1.349 . S
C141 C153 1.349 . S
C142 C140 1.327 . S
C142 C158 1.429 . S
C142 H164 0.950 . S
C143 H139 0.949 . S
C143 C151 1.574 . S
C143 C159 1.368 . S
H144 C152 0.950 . S
H145 C150 0.950 . S
H146 C151 0.949 . S
H147 C153 0.950 . S
H148 C154 0.950 . S
H149 C155 0.949 . S
C150 H145 0.950 . S
C150 C152 1.327 . S
C150 C156 1.429 . S
C151 C143 1.574 . S
C151 H146 0.949 . S
C151 C157 1.368 . S
C152 C136 1.349 . S
C152 H144 0.950 . S
C152 C150 1.327 . S
C153 C141 1.349 . S
C153 H147 0.950 . S
C153 C154 1.327 . S
C154 H148 0.950 . S
C154 C153 1.327 . S
C154 C158 1.429 . S
C155 C138 1.574 . S
C155 H149 0.949 . S
C155 C159 1.368 . S
C156 C137 1.429 . S
C156 C150 1.429 . S
C156 C157 1.523 . S
C157 C138 1.368 . S
C157 C151 1.368 . S
C157 C156 1.523 . S
C158 C142 1.429 . S
C158 C154 1.429 . S
C158 C159 1.523 . S
C159 C143 1.368 . S
C159 C155 1.368 . S
C159 C158 1.523 . S
H160 C135 0.950 . S
H161 C137 0.950 . S
H162 C138 0.949 . S
H163 C140 0.950 . S
H164 C142 0.950 . S
C165 C166 1.349 . S
C165 C167 1.327 . S
C165 H190 0.950 . S
C166 C165 1.349 . S
C166 C182 1.349 . S
C167 C165 1.327 . S
C167 C186 1.429 . S
C167 H191 0.950 . S
C168 C185 1.574 . S
C168 C187 1.368 . S
C168 H192 0.949 . S
H169 C173 0.949 . S
C170 C171 1.349 . S
C170 C172 1.327 . S
C170 H193 0.950 . S
C171 C170 1.349 . S
C171 C183 1.349 . S
C172 C170 1.327 . S
C172 C188 1.429 . S
C172 H194 0.950 . S
C173 H169 0.949 . S
C173 C181 1.574 . S
C173 C189 1.368 . S
H174 C182 0.950 . S
H175 C180 0.950 . S
H176 C181 0.949 . S
H177 C183 0.950 . S
H178 C184 0.950 . S
H179 C185 0.949 . S
C180 H175 0.950 . S
C180 C182 1.327 . S
C180 C186 1.429 . S
C181 C173 1.574 . S
C181 H176 0.949 . S
C181 C187 1.368 . S
C182 C166 1.349 . S
C182 H174 0.950 . S
C182 C180 1.327 . S
C183 C171 1.349 . S
C183 H177 0.950 . S
C183 C184 1.327 . S
C184 H178 0.950 . S
C184 C183 1.327 . S
C184 C188 1.429 . S
C185 C168 1.574 . S
C185 H179 0.949 . S
C185 C189 1.368 . S
C186 C167 1.429 . S
C186 C180 1.429 . S
C186 C187 1.523 . S
C187 C168 1.368 . S
C187 C181 1.368 . S
C187 C186 1.523 . S
C188 C172 1.429 . S
C188 C184 1.429 . S
C188 C189 1.523 . S
C189 C173 1.368 . S
C189 C185 1.368 . S
C189 C188 1.523 . S
H190 C165 0.950 . S
H191 C167 0.950 . S
H192 C168 0.949 . S
H193 C170 0.950 . S
H194 C172 0.950 . S
C195 C196 1.349 . S
C195 C197 1.327 . S
C195 H220 0.950 . S
C196 C195 1.349 . S
C196 C212 1.349 . S
C197 C195 1.327 . S
C197 C216 1.429 . S
C197 H221 0.950 . S
C198 C215 1.574 . S
C198 C217 1.368 . S
C198 H222 0.949 . S
H199 C203 0.949 . S
C200 C201 1.349 . S
C200 C202 1.327 . S
C200 H223 0.950 . S
C201 C200 1.349 . S
C201 C213 1.349 . S
C202 C200 1.327 . S
C202 C218 1.429 . S
C202 H224 0.950 . S
C203 H199 0.949 . S
C203 C211 1.574 . S
C203 C219 1.368 . S
H204 C212 0.950 . S
H205 C210 0.950 . S
H206 C211 0.949 . S
H207 C213 0.950 . S
H208 C214 0.950 . S
H209 C215 0.949 . S
C210 H205 0.950 . S
C210 C212 1.327 . S
C210 C216 1.429 . S
C211 C203 1.574 . S
C211 H206 0.949 . S
C211 C217 1.368 . S
C212 C196 1.349 . S
C212 H204 0.950 . S
C212 C210 1.327 . S
C213 C201 1.349 . S
C213 H207 0.950 . S
C213 C214 1.327 . S
C214 H208 0.950 . S
C214 C213 1.327 . S
C214 C218 1.429 . S
C215 C198 1.574 . S
C215 H209 0.949 . S
C215 C219 1.368 . S
C216 C197 1.429 . S
C216 C210 1.429 . S
C216 C217 1.523 . S
C217 C198 1.368 . S
C217 C211 1.368 . S
C217 C216 1.523 . S
C218 C202 1.429 . S
C218 C214 1.429 . S
C218 C219 1.523 . S
C219 C203 1.368 . S
C219 C215 1.368 . S
C219 C218 1.523 . S
H220 C195 0.950 . S
H221 C197 0.950 . S
H222 C198 0.949 . S
H223 C200 0.950 . S
H224 C202 0.950 . S
C225 C226 1.349 . S
C225 C227 1.327 . S
C225 H250 0.950 . S
C226 C225 1.349 . S
C226 C242 1.349 . S
C227 C225 1.327 . S
C227 C246 1.429 . S
C227 H251 0.950 . S
C228 C245 1.574 . S
C228 C247 1.368 . S
C228 H252 0.949 . S
H229 C233 0.949 . S
C230 C231 1.349 . S
C230 C232 1.327 . S
C230 H253 0.950 . S
C231 C230 1.349 . S
C231 C243 1.349 . S
C232 C230 1.327 . S
C232 C248 1.429 . S
C232 H254 0.950 . S
C233 H229 0.949 . S
C233 C241 1.574 . S
C233 C249 1.368 . S
H234 C242 0.950 . S
H235 C240 0.950 . S
H236 C241 0.949 . S
H237 C243 0.950 . S
H238 C244 0.950 . S
H239 C245 0.949 . S
C240 H235 0.950 . S
C240 C242 1.327 . S
C240 C246 1.429 . S
C241 C233 1.574 . S
C241 H236 0.949 . S
C241 C247 1.368 . S
C242 C226 1.349 . S
C242 H234 0.950 . S
C242 C240 1.327 . S
C243 C231 1.349 . S
C243 H237 0.950 . S
C243 C244 1.327 . S
C244 H238 0.950 . S
C244 C243 1.327 . S
C244 C248 1.429 . S
C245 C228 1.574 . S
C245 H239 0.949 . S
C245 C249 1.368 . S
C246 C227 1.429 . S
C246 C240 1.429 . S
C246 C247 1.523 . S
C247 C228 1.368 . S
C247 C241 1.368 . S
C247 C246 1.523 . S
C248 C232 1.429 . S
C248 C244 1.429 . S
C248 C249 1.523 . S
C249 C233 1.368 . S
C249 C245 1.368 . S
C249 C248 1.523 . S
H250 C225 0.950 . S
H251 C227 0.950 . S
H252 C228 0.949 . S
H253 C230 0.950 . S
H254 C232 0.950 . S
C255 C256 1.349 . S
C255 C257 1.327 . S
C255 H280 0.950 . S
C256 C255 1.349 . S
C256 C272 1.349 . S
C257 C255 1.327 . S
C257 C276 1.429 . S
C257 H281 0.950 . S
C258 C275 1.574 . S
C258 C277 1.368 . S
C258 H282 0.949 . S
H259 C263 0.949 . S
C260 C261 1.349 . S
C260 C262 1.327 . S
C260 H283 0.950 . S
C261 C260 1.349 . S
C261 C273 1.349 . S
C262 C260 1.327 . S
C262 C278 1.429 . S
C262 H284 0.950 . S
C263 H259 0.949 . S
C263 C271 1.574 . S
C263 C279 1.368 . S
H264 C272 0.950 . S
H265 C270 0.950 . S
H266 C271 0.949 . S
H267 C273 0.950 . S
H268 C274 0.950 . S
H269 C275 0.949 . S
C270 H265 0.950 . S
C270 C272 1.327 . S
C270 C276 1.429 . S
C271 C263 1.574 . S
C271 H266 0.949 . S
C271 C277 1.368 . S
C272 C256 1.349 . S
C272 H264 0.950 . S
C272 C270 1.327 . S
C273 C261 1.349 . S
C273 H267 0.950 . S
C273 C274 1.327 . S
C274 H268 0.950 . S
C274 C273 1.327 . S
C274 C278 1.429 . S
C275 C258 1.574 . S
C275 H269 0.949 . S
C275 C279 1.368 . S
C276 C257 1.429 . S
C276 C270 1.429 . S
C276 C277 1.523 . S
C277 C258 1.368 . S
C277 C271 1.368 . S
C277 C276 1.523 . S
C278 C262 1.429 . S
C278 C274 1.429 . S
C278 C279 1.523 . S
C279 C263 1.368 . S
C279 C275 1.368 . S
C279 C278 1.523 . S
H280 C255 0.950 . S
H281 C257 0.950 . S
H282 C258 0.949 . S
H283 C260 0.950 . S
H284 C262 0.950 . S
C285 C286 1.349 . S
C285 C287 1.327 . S
C285 H310 0.950 . S
C286 C285 1.349 . S
C286 C302 1.349 . S
C287 C285 1.327 . S
C287 C306 1.429 . S
C287 H311 0.950 . S
C288 C305 1.574 . S
C288 C307 1.368 . S
C288 H312 0.949 . S
H289 C293 0.949 . S
C290 C291 1.349 . S
C290 C292 1.327 . S
C290 H313 0.950 . S
C291 C290 1.349 . S
C291 C303 1.349 . S
C292 C290 1.327 . S
C292 C308 1.429 . S
C292 H314 0.950 . S
C293 H289 0.949 . S
C293 C301 1.574 . S
C293 C309 1.368 . S
H294 C302 0.950 . S
H295 C300 0.950 . S
H296 C301 0.949 . S
H297 C303 0.950 . S
H298 C304 0.950 . S
H299 C305 0.949 . S
C300 H295 0.950 . S
C300 C302 1.327 . S
C300 C306 1.429 . S
C301 C293 1.574 . S
C301 H296 0.949 . S
C301 C307 1.368 . S
C302 C286 1.349 . S
C302 H294 0.950 . S
C302 C300 1.327 . S
C303 C291 1.349 . S
C303 H297 0.950 . S
C303 C304 1.327 . S
C304 H298 0.950 . S
C304 C303 1.327 . S
C304 C308 1.429 . S
C305 C288 1.574 . S
C305 H299 0.949 . S
C305 C309 1.368 . S
C306 C287 1.429 . S
C306 C300 1.429 . S
C306 C307 1.523 . S
C307 C288 1.368 . S
C307 C301 1.368 . S
C307 C306 1.523 . S
C308 C292 1.429 . S
C308 C304 1.429 . S
C308 C309 1.523 . S
C309 C293 1.368 . S
C309 C305 1.368 . S
C309 C308 1.523 . S
H310 C285 0.950 . S
H311 C287 0.950 . S
H312 C288 0.949 . S
H313 C290 0.950 . S
H314 C292 0.950 . S
C315 C316 1.349 . S
C315 C317 1.327 . S
C315 H340 0.950 . S
C316 C315 1.349 . S
C316 C332 1.349 . S
C317 C315 1.327 . S
C317 C336 1.429 . S
C317 H341 0.950 . S
C318 C335 1.574 . S
C318 C337 1.368 . S
C318 H342 0.949 . S
H319 C323 0.949 . S
C320 C321 1.349 . S
C320 C322 1.327 . S
C320 H343 0.950 . S
C321 C320 1.349 . S
C321 C333 1.349 . S
C322 C320 1.327 . S
C322 C338 1.429 . S
C322 H344 0.950 . S
C323 H319 0.949 . S
C323 C331 1.574 . S
C323 C339 1.368 . S
H324 C332 0.950 . S
H325 C330 0.950 . S
H326 C331 0.949 . S
H327 C333 0.950 . S
H328 C334 0.950 . S
H329 C335 0.949 . S
C330 H325 0.950 . S
C330 C332 1.327 . S
C330 C336 1.429 . S
C331 C323 1.574 . S
C331 H326 0.949 . S
C331 C337 1.368 . S
C332 C316 1.349 . S
C332 H324 0.950 . S
C332 C330 1.327 . S
C333 C321 1.349 . S
C333 H327 0.950 . S
C333 C334 1.327 . S
C334 H328 0.950 . S
C334 C333 1.327 . S
C334 C338 1.429 . S
C335 C318 1.574 . S
C335 H329 0.949 . S
C335 C339 1.368 . S
C336 C317 1.429 . S
C336 C330 1.429 . S
C336 C337 1.523 . S
C337 C318 1.368 . S
C337 C331 1.368 . S
C337 C336 1.523 . S
C338 C322 1.429 . S
C338 C334 1.429 . S
C338 C339 1.523 . S
C339 C323 1.368 . S
C339 C335 1.368 . S
C339 C338 1.523 . S
H340 C315 0.950 . S
H341 C317 0.950 . S
H342 C318 0.949 . S
H343 C320 0.950 . S
H344 C322 0.950 . S
C345 C346 1.349 . S
C345 C347 1.327 . S
C345 H370 0.950 . S
C346 C345 1.349 . S
C346 C362 1.349 . S
C347 C345 1.327 . S
C347 C366 1.429 . S
C347 H371 0.950 . S
C348 C365 1.574 . S
C348 C367 1.368 . S
C348 H372 0.949 . S
H349 C353 0.949 . S
C350 C351 1.349 . S
C350 C352 1.327 . S
C350 H373 0.950 . S
C351 C350 1.349 . S
C351 C363 1.349 . S
C352 C350 1.327 . S
C352 C368 1.429 . S
C352 H374 0.950 . S
C353 H349 0.949 . S
C353 C361 1.574 . S
C353 C369 1.368 . S
H354 C362 0.950 . S
H355 C360 0.950 . S
H356 C361 0.949 . S
H357 C363 0.950 . S
H358 C364 0.950 . S
H359 C365 0.949 . S
C360 H355 0.950 . S
C360 C362 1.327 . S
C360 C366 1.429 . S
C361 C353 1.574 . S
C361 H356 0.949 . S
C361 C367 1.368 . S
C362 C346 1.349 . S
C362 H354 0.950 . S
C362 C360 1.327 . S
C363 C351 1.349 . S
C363 H357 0.950 . S
C363 C364 1.327 . S
C364 H358 0.950 . S
C364 C363 1.327 . S
C364 C368 1.429 . S
C365 C348 1.574 . S
C365 H359 0.949 . S
C365 C369 1.368 . S
C366 C347 1.429 . S
C366 C360 1.429 . S
C366 C367 1.523 . S
C367 C348 1.368 . S
C367 C361 1.368 . S
C367 C366 1.523 . S
C368 C352 1.429 . S
C368 C364 1.429 . S
C368 C369 1.523 . S
C369 C353 1.368 . S
C369 C365 1.368 . S
C369 C368 1.523 . S
H370 C345 0.950 . S
H371 C347 0.950 . S
H372 C348 0.949 . S
H373 C350 0.950 . S
H374 C352 0.950 . S
C375 C376 1.349 . S
C375 C377 1.327 . S
C375 H400 0.950 . S
C376 C375 1.349 . S
C376 C392 1.349 . S
C377 C375 1.327 . S
C377 C396 1.429 . S
C377 H401 0.950 . S
C378 C395 1.574 . S
C378 C397 1.368 . S
C378 H402 0.949 . S
H379 C383 0.949 . S
C380 C381 1.349 . S
C380 C382 1.327 . S
C380 H403 0.950 . S
C381 C380 1.349 . S
C381 C393 1.349 . S
C382 C380 1.327 . S
C382 C398 1.429 . S
C382 H404 0.950 . S
C383 H379 0.949 . S
C383 C391 1.574 . S
C383 C399 1.368 . S
H384 C392 0.950 . S
H385 C390 0.950 . S
H386 C391 0.949 . S
H387 C393 0.950 . S
H388 C394 0.950 . S
H389 C395 0.949 . S
C390 H385 0.950 . S
C390 C392 1.327 . S
C390 C396 1.429 . S
C391 C383 1.574 . S
C391 H386 0.949 . S
C391 C397 1.368 . S
C392 C376 1.349 . S
C392 H384 0.950 . S
C392 C390 1.327 . S
C393 C381 1.349 . S
C393 H387 0.950 . S
C393 C394 1.327 . S
C394 H388 0.950 . S
C394 C393 1.327 . S
C394 C398 1.429 . S
C395 C378 1.574 . S
C395 H389 0.949 . S
C395 C399 1.368 . S
C396 C377 1.429 . S
C396 C390 1.429 . S
C396 C397 1.523 . S
C397 C378 1.368 . S
C397 C391 1.368 . S
C397 C396 1.523 . S
C398 C382 1.429 . S
C398 C394 1.429 . S
C398 C399 1.523 . S
C399 C383 1.368 . S
C399 C395 1.368 . S
C399 C398 1.523 . S
H400 C375 0.950 . S
H401 C377 0.950 . S
H402 C378 0.949 . S
H403 C380 0.950 . S
H404 C382 0.950 . S
C405 C406 1.349 . S
C405 C407 1.327 . S
C405 H430 0.950 . S
C406 C405 1.349 . S
C406 C422 1.349 . S
C407 C405 1.327 . S
C407 C426 1.429 . S
C407 H431 0.950 . S
C408 C425 1.574 . S
C408 C427 1.368 . S
C408 H432 0.949 . S
H409 C413 0.949 . S
C410 C411 1.349 . S
C410 C412 1.327 . S
C410 H433 0.950 . S
C411 C410 1.349 . S
C411 C423 1.349 . S
C412 C410 1.327 . S
C412 C428 1.429 . S
C412 H434 0.950 . S
C413 H409 0.949 . S
C413 C421 1.574 . S
C413 C429 1.368 . S
H414 C422 0.950 . S
H415 C420 0.950 . S
H416 C421 0.949 . S
H417 C423 0.950 . S
H418 C424 0.950 . S
H419 C425 0.949 . S
C420 H415 0.950 . S
C420 C422 1.327 . S
C420 C426 1.429 . S
C421 C413 1.574 . S
C421 H416 0.949 . S
C421 C427 1.368 . S
C422 C406 1.349 . S
C422 H414 0.950 . S
C422 C420 1.327 . S
C423 C411 1.349 . S
C423 H417 0.950 . S
C423 C424 1.327 . S
C424 H418 0.950 . S
C424 C423 1.327 . S
C424 C428 1.429 . S
C425 C408 1.574 . S
C425 H419 0.949 . S
C425 C429 1.368 . S
C426 C407 1.429 . S
C426 C420 1.429 . S
C426 C427 1.523 . S
C427 C408 1.368 . S
C427 C421 1.368 . S
C427 C426 1.523 . S
C428 C412 1.429 . S
C428 C424 1.429 . S
C428 C429 1.523 . S
C429 C413 1.368 . S
C429 C425 1.368 . S
C429 C428 1.523 . S
H430 C405 0.950 . S
H431 C407 0.950 . S
H432 C408 0.949 . S
H433 C410 0.950 . S
H434 C412 0.950 . S
C435 C436 1.349 . S
C435 C437 1.327 . S
C435 H460 0.950 . S
C436 C435 1.349 . S
C436 C452 1.349 . S
C437 C435 1.327 . S
C437 C456 1.429 . S
C437 H461 0.950 . S
C438 C455 1.574 . S
C438 C457 1.368 . S
C438 H462 0.949 . S
H439 C443 0.949 . S
C440 C441 1.349 . S
C440 C442 1.327 . S
C440 H463 0.950 . S
C441 C440 1.349 . S
C441 C453 1.349 . S
C442 C440 1.327 . S
C442 C458 1.429 . S
C442 H464 0.950 . S
C443 H439 0.949 . S
C443 C451 1.574 . S
C443 C459 1.368 . S
H444 C452 0.950 . S
H445 C450 0.950 . S
H446 C451 0.949 . S
H447 C453 0.950 . S
H448 C454 0.950 . S
H449 C455 0.949 . S
C450 H445 0.950 . S
C450 C452 1.327 . S
C450 C456 1.429 . S
C451 C443 1.574 . S
C451 H446 0.949 . S
C451 C457 1.368 . S
C452 C436 1.349 . S
C452 H444 0.950 . S
C452 C450 1.327 . S
C453 C441 1.349 . S
C453 H447 0.950 . S
C453 C454 1.327 . S
C454 H448 0.950 . S
C454 C453 1.327 . S
C454 C458 1.429 . S
C455 C438 1.574 . S
C455 H449 0.949 . S
C455 C459 1.368 . S
C456 C437 1.429 . S
C456 C450 1.429 . S
C456 C457 1.523 . S
C457 C438 1.368 . S
C457 C451 1.368 . S
C457 C456 1.523 . S
C458 C442 1.429 . S
C458 C454 1.429 . S
C458 C459 1.523 . S
C459 C443 1.368 . S
C459 C455 1.368 . S
C459 C458 1.523 . S
H460 C435 0.950 . S
H461 C437 0.950 . S
H462 C438 0.949 . S
H463 C440 0.950 . S
H464 C442 0.950 . S
C465 C466 1.349 . S
C465 C467 1.327 . S
C465 H490 0.950 . S
C466 C465 1.349 . S
C466 C482 1.349 . S
C467 C465 1.327 . S
C467 C486 1.429 . S
C467 H491 0.950 . S
C468 C485 1.574 . S
C468 C487 1.368 . S
C468 H492 0.949 . S
H469 C473 0.949 . S
C470 C471 1.349 . S
C470 C472 1.327 . S
C470 H493 0.950 . S
C471 C470 1.349 . S
C471 C483 1.349 . S
C472 C470 1.327 . S
C472 C488 1.429 . S
C472 H494 0.950 . S
C473 H469 0.949 . S
C473 C481 1.574 . S
C473 C489 1.368 . S
H474 C482 0.950 . S
H475 C480 0.950 . S
H476 C481 0.949 . S
H477 C483 0.950 . S
H478 C484 0.950 . S
H479 C485 0.949 . S
C480 H475 0.950 . S
C480 C482 1.327 . S
C480 C486 1.429 . S
C481 C473 1.574 . S
C481 H476 0.949 . S
C481 C487 1.368 . S
C482 C466 1.349 . S
C482 H474 0.950 . S
C482 C480 1.327 . S
C483 C471 1.349 . S
C483 H477 0.950 . S
C483 C484 1.327 . S
C484 H478 0.950 . S
C484 C483 1.327 . S
C484 C488 1.429 . S
C485 C468 1.574 . S
C485 H479 0.949 . S
C485 C489 1.368 . S
C486 C467 1.429 . S
C486 C480 1.429 . S
C486 C487 1.523 . S
C487 C468 1.368 . S
C487 C481 1.368 . S
C487 C486 1.523 . S
C488 C472 1.429 . S
C488 C484 1.429 . S
C488 C489 1.523 . S
C489 C473 1.368 . S
C489 C485 1.368 . S
C489 C488 1.523 . S
H490 C465 0.950 . S
H491 C467 0.950 . S
H492 C468 0.949 . S
H493 C470 0.950 . S
H494 C472 0.950 . S
C495 C496 1.349 1_655 S
C495 C497 1.327 . S
C495 H520 0.950 . S
C496 C495 1.349 1_455 S
C496 C512 1.349 . S
C497 C495 1.327 . S
C497 C516 1.429 1_655 S
C497 H521 0.950 . S
C498 C515 1.574 . S
C498 C517 1.368 . S
C498 H522 0.949 . S
H499 C503 0.949 . S
C500 C501 1.349 . S
C500 C502 1.327 . S
C500 H523 0.950 . S
C501 C500 1.349 . S
C501 C513 1.349 1_455 S
C502 C500 1.327 . S
C502 C518 1.429 . S
C502 H524 0.950 . S
C503 H499 0.949 . S
C503 C511 1.574 . S
C503 C519 1.368 1_655 S
H504 C512 0.950 . S
H505 C510 0.950 . S
H506 C511 0.949 . S
H507 C513 0.950 . S
H508 C514 0.950 . S
H509 C515 0.949 . S
C510 H505 0.950 . S
C510 C512 1.327 . S
C510 C516 1.429 . S
C511 C503 1.574 . S
C511 H506 0.949 . S
C511 C517 1.368 1_655 S
C512 C496 1.349 . S
C512 H504 0.950 . S
C512 C510 1.327 . S
C513 C501 1.349 1_655 S
C513 H507 0.950 . S
C513 C514 1.327 . S
C514 H508 0.950 . S
C514 C513 1.327 . S
C514 C518 1.429 1_655 S
C515 C498 1.574 . S
C515 H509 0.949 . S
C515 C519 1.368 . S
C516 C497 1.429 1_455 S
C516 C510 1.429 . S
C516 C517 1.523 . S
C517 C498 1.368 . S
C517 C511 1.368 1_455 S
C517 C516 1.523 . S
C518 C502 1.429 . S
C518 C514 1.429 1_455 S
C518 C519 1.523 1_556 S
C519 C503 1.368 1_455 S
C519 C515 1.368 . S
C519 C518 1.523 1_554 S
H520 C495 0.950 . S
H521 C497 0.950 . S
H522 C498 0.949 . S
H523 C500 0.950 . S
H524 C502 0.950 . S
C525 C526 1.349 1_565 S
C525 C527 1.327 . S
C525 H550 0.950 . S
C526 C525 1.349 1_545 S
C526 C542 1.349 . S
C527 C525 1.327 . S
C527 C546 1.429 1_565 S
C527 H551 0.950 . S
C528 C545 1.574 . S
C528 C547 1.368 . S
C528 H552 0.949 . S
H529 C533 0.949 . S
C530 C531 1.349 . S
C530 C532 1.327 . S
C530 H553 0.950 . S
C531 C530 1.349 . S
C531 C543 1.349 1_545 S
C532 C530 1.327 . S
C532 C548 1.429 . S
C532 H554 0.950 . S
C533 H529 0.949 . S
C533 C541 1.574 . S
C533 C549 1.368 1_565 S
H534 C542 0.950 . S
H535 C540 0.950 . S
H536 C541 0.949 . S
H537 C543 0.950 . S
H538 C544 0.950 . S
H539 C545 0.949 . S
C540 H535 0.950 . S
C540 C542 1.327 . S
C540 C546 1.429 . S
C541 C533 1.574 . S
C541 H536 0.949 . S
C541 C547 1.368 1_565 S
C542 C526 1.349 . S
C542 H534 0.950 . S
C542 C540 1.327 . S
C543 C531 1.349 1_565 S
C543 H537 0.950 . S
C543 C544 1.327 . S
C544 H538 0.950 . S
C544 C543 1.327 . S
C544 C548 1.429 1_565 S
C545 C528 1.574 . S
C545 H539 0.949 . S
C545 C549 1.368 . S
C546 C527 1.429 1_545 S
C546 C540 1.429 . S
C546 C547 1.523 . S
C547 C528 1.368 . S
C547 C541 1.368 1_545 S
C547 C546 1.523 . S
C548 C532 1.429 . S
C548 C544 1.429 1_545 S
C548 C549 1.523 . S
C549 C533 1.368 1_545 S
C549 C545 1.368 . S
C549 C548 1.523 . S
H550 C525 0.950 . S
H551 C527 0.950 . S
H552 C528 0.949 . S
H553 C530 0.950 . S
H554 C532 0.950 . S
C555 C556 1.349 . S
C555 C557 1.327 . S
C555 H580 0.950 . S
C556 C555 1.349 . S
C556 C572 1.349 . S
C557 C555 1.327 . S
C557 C576 1.429 . S
C557 H581 0.950 . S
C558 C575 1.574 . S
C558 C577 1.368 . S
C558 H582 0.949 . S
H559 C563 0.949 . S
C560 C561 1.349 . S
C560 C562 1.327 . S
C560 H583 0.950 . S
C561 C560 1.349 . S
C561 C573 1.349 . S
C562 C560 1.327 . S
C562 C578 1.429 . S
C562 H584 0.950 . S
C563 H559 0.949 . S
C563 C571 1.574 . S
C563 C579 1.368 . S
H564 C572 0.950 . S
H565 C570 0.950 . S
H566 C571 0.949 . S
H567 C573 0.950 . S
H568 C574 0.950 . S
H569 C575 0.949 . S
C570 H565 0.950 . S
C570 C572 1.327 . S
C570 C576 1.429 . S
C571 C563 1.574 . S
C571 H566 0.949 . S
C571 C577 1.368 . S
C572 C556 1.349 . S
C572 H564 0.950 . S
C572 C570 1.327 . S
C573 C561 1.349 . S
C573 H567 0.950 . S
C573 C574 1.327 . S
C574 H568 0.950 . S
C574 C573 1.327 . S
C574 C578 1.429 . S
C575 C558 1.574 . S
C575 H569 0.949 . S
C575 C579 1.368 . S
C576 C557 1.429 . S
C576 C570 1.429 . S
C576 C577 1.523 . S
C577 C558 1.368 . S
C577 C571 1.368 . S
C577 C576 1.523 . S
C578 C562 1.429 . S
C578 C574 1.429 . S
C578 C579 1.523 . S
C579 C563 1.368 . S
C579 C575 1.368 . S
C579 C578 1.523 . S
H580 C555 0.950 . S
H581 C557 0.950 . S
H582 C558 0.949 . S
H583 C560 0.950 . S
H584 C562 0.950 . S
C585 C586 1.349 1_565 S
C585 C587 1.327 . S
C585 H610 0.950 . S
C586 C585 1.349 1_545 S
C586 C602 1.349 . S
C587 C585 1.327 . S
C587 C606 1.429 1_565 S
C587 H611 0.950 . S
C588 C605 1.574 . S
C588 C607 1.368 . S
C588 H612 0.949 . S
H589 C593 0.949 . S
C590 C591 1.349 . S
C590 C592 1.327 . S
C590 H613 0.950 . S
C591 C590 1.349 . S
C591 C603 1.349 1_545 S
C592 C590 1.327 . S
C592 C608 1.429 . S
C592 H614 0.950 . S
C593 H589 0.949 . S
C593 C601 1.574 . S
C593 C609 1.368 1_565 S
H594 C602 0.950 . S
H595 C600 0.950 . S
H596 C601 0.949 . S
H597 C603 0.950 . S
H598 C604 0.950 . S
H599 C605 0.949 . S
C600 H595 0.950 . S
C600 C602 1.327 . S
C600 C606 1.429 . S
C601 C593 1.574 . S
C601 H596 0.949 . S
C601 C607 1.368 1_565 S
C602 C586 1.349 . S
C602 H594 0.950 . S
C602 C600 1.327 . S
C603 C591 1.349 1_565 S
C603 H597 0.950 . S
C603 C604 1.327 . S
C604 H598 0.950 . S
C604 C603 1.327 . S
C604 C608 1.429 1_565 S
C605 C588 1.574 . S
C605 H599 0.949 . S
C605 C609 1.368 . S
C606 C587 1.429 1_545 S
C606 C600 1.429 . S
C606 C607 1.523 . S
C607 C588 1.368 . S
C607 C601 1.368 1_545 S
C607 C606 1.523 . S
C608 C592 1.429 . S
C608 C604 1.429 1_545 S
C608 C609 1.523 . S
C609 C593 1.368 1_545 S
C609 C605 1.368 . S
C609 C608 1.523 . S
H610 C585 0.950 . S
H611 C587 0.950 . S
H612 C588 0.949 . S
H613 C590 0.950 . S
H614 C592 0.950 . S
C615 C616 1.349 . S
C615 C617 1.327 . S
C615 H640 0.950 . S
C616 C615 1.349 . S
C616 C632 1.349 . S
C617 C615 1.327 . S
C617 C636 1.429 . S
C617 H641 0.950 . S
C618 C635 1.574 . S
C618 C637 1.368 . S
C618 H642 0.949 . S
H619 C623 0.949 . S
C620 C621 1.349 . S
C620 C622 1.327 . S
C620 H643 0.950 . S
C621 C620 1.349 . S
C621 C633 1.349 . S
C622 C620 1.327 . S
C622 C638 1.429 . S
C622 H644 0.950 . S
C623 H619 0.949 . S
C623 C631 1.574 . S
C623 C639 1.368 . S
H624 C632 0.950 . S
H625 C630 0.950 . S
H626 C631 0.949 . S
H627 C633 0.950 . S
H628 C634 0.950 . S
H629 C635 0.949 . S
C630 H625 0.950 . S
C630 C632 1.327 . S
C630 C636 1.429 . S
C631 C623 1.574 . S
C631 H626 0.949 . S
C631 C637 1.368 . S
C632 C616 1.349 . S
C632 H624 0.950 . S
C632 C630 1.327 . S
C633 C621 1.349 . S
C633 H627 0.950 . S
C633 C634 1.327 . S
C634 H628 0.950 . S
C634 C633 1.327 . S
C634 C638 1.429 . S
C635 C618 1.574 . S
C635 H629 0.949 . S
C635 C639 1.368 . S
C636 C617 1.429 . S
C636 C630 1.429 . S
C636 C637 1.523 . S
C637 C618 1.368 . S
C637 C631 1.368 . S
C637 C636 1.523 . S
C638 C622 1.429 . S
C638 C634 1.429 . S
C638 C639 1.523 1_554 S
C639 C623 1.368 . S
C639 C635 1.368 . S
C639 C638 1.523 1_556 S
H640 C615 0.950 . S
H641 C617 0.950 . S
H642 C618 0.949 . S
H643 C620 0.950 . S
H644 C622 0.950 . S
C645 C646 1.349 . S
C645 C647 1.327 . S
C645 H670 0.950 . S
C646 C645 1.349 . S
C646 C662 1.349 . S
C647 C645 1.327 . S
C647 C666 1.429 . S
C647 H671 0.950 . S
C648 C665 1.574 . S
C648 C667 1.360 1_655 S
C648 H672 0.949 . S
H649 C653 0.949 . S
C650 C651 1.349 . S
C650 C652 1.327 . S
C650 H673 0.950 . S
C651 C650 1.349 . S
C651 C663 1.349 . S
C652 C650 1.327 . S
C652 C668 1.429 . S
C652 H674 0.950 . S
C653 H649 0.949 . S
C653 C661 1.574 . S
C653 C669 1.368 1_455 S
H654 C662 0.949 1_655 S
H655 C660 0.948 . S
H656 C661 0.949 . S
H657 C663 0.950 . S
H658 C664 0.934 1_455 S
H659 C665 0.949 . S
C660 H655 0.948 . S
C660 C662 1.327 1_655 S
C660 C666 1.430 1_655 S
C661 C653 1.574 . S
C661 H656 0.949 . S
C661 C667 1.376 . S
C662 C646 1.349 . S
C662 H654 0.949 1_455 S
C662 C660 1.327 1_455 S
C663 C651 1.349 . S
C663 H657 0.950 . S
C663 C664 1.327 . S
C664 H658 0.934 1_655 S
C664 C663 1.327 . S
C664 C668 1.429 . S
C665 C648 1.574 . S
C665 H659 0.949 . S
C665 C669 1.368 . S
C666 C647 1.429 . S
C666 C660 1.430 1_455 S
C666 C667 1.523 . S
C667 C648 1.360 1_455 S
C667 C661 1.376 . S
C667 C666 1.523 . S
C668 C652 1.429 . S
C668 C664 1.429 . S
C668 C669 1.523 . S
C669 C653 1.368 1_655 S
C669 C665 1.368 . S
C669 C668 1.523 . S
H670 C645 0.950 . S
H671 C647 0.950 . S
H672 C648 0.949 . S
H673 C650 0.950 . S
H674 C652 0.950 . S
C136 C20 1.345 . S
C141 C129 1.213 . S
C166 C41 1.408 . S
C171 C107 1.245 . S
C196 C64 1.001 . S
C201 C121 0.987 . S
C226 C19 0.976 . S
C231 C132 0.988 . S
C261 C110 0.971 . S
C256 C44 0.978 . S
C291 C118 1.231 . S
C286 C67 1.395 . S
C316 C43 1.342 . S
C321 C85 1.216 . S
C346 C66 1.345 . S
C351 C96 1.213 . S
C376 C21 1.401 . S
C381 C74 1.243 . S
C411 C88 0.982 . S
C406 C42 0.970 . S
C441 C99 0.989 . S
C436 C65 0.976 . S
C466 C18 0.984 . S
C471 C77 0.971 . S
C501 C98 1.427 . S
C496 C17 1.495 . S
C526 C39 1.492 . S
C531 C76 1.427 . S
C556 C62 1.511 . S
C561 C87 1.442 . S
C591 C120 1.410 . S
C586 C40 1.474 . S
C621 C131 1.427 . S
C616 C63 1.495 . S
C646 C16 1.492 . S
C651 C109 1.428 . S
