# Generated by pormake.
# Topology zzz, (3,6)-cn, num edge types: 1
# Building blocks:
#     Node 0, Type 0, BuildingBlock: OLANEW_clean_sbu_2, # of connection points: 3
#     Node 1, Type 0, BuildingBlock: OLANEW_clean_sbu_2, # of connection points: 3
#     Node 2, Type 0, BuildingBlock: OLANEW_clean_sbu_2, # of connection points: 3
#     Node 3, Type 0, BuildingBlock: OLANEW_clean_sbu_2, # of connection points: 3
#     Node 4, Type 0, BuildingBlock: OLANEW_clean_sbu_2, # of connection points: 3
#     Node 5, Type 0, BuildingBlock: OLANEW_clean_sbu_2, # of connection points: 3
#     Node 6, Type 0, BuildingBlock: OLANEW_clean_sbu_2, # of connection points: 3
#     Node 7, Type 0, BuildingBlock: OLANEW_clean_sbu_2, # of connection points: 3
#     Node 8, Type 1, BuildingBlock: BETGAK_clean_sbu_0, # of connection points: 6
#     Node 9, Type 1, BuildingBlock: BETGAK_clean_sbu_0, # of connection points: 6
#     Node 10, Type 1, BuildingBlock: BETGAK_clean_sbu_0, # of connection points: 6
#     Node 11, Type 1, BuildingBlock: BETGAK_clean_sbu_0, # of connection points: 6
#     Edge 12, Type (0, 1), BuildingBlock: OJICUG_clean_linker_0, # of connection points: 2
#     Edge 13, Type (0, 1), BuildingBlock: OJICUG_clean_linker_0, # of connection points: 2
#     Edge 14, Type (0, 1), BuildingBlock: OJICUG_clean_linker_0, # of connection points: 2
#     Edge 15, Type (0, 1), BuildingBlock: OJICUG_clean_linker_0, # of connection points: 2
#     Edge 16, Type (0, 1), BuildingBlock: OJICUG_clean_linker_0, # of connection points: 2
#     Edge 17, Type (0, 1), BuildingBlock: OJICUG_clean_linker_0, # of connection points: 2
#     Edge 18, Type (0, 1), BuildingBlock: OJICUG_clean_linker_0, # of connection points: 2
#     Edge 19, Type (0, 1), BuildingBlock: OJICUG_clean_linker_0, # of connection points: 2
#     Edge 20, Type (0, 1), BuildingBlock: OJICUG_clean_linker_0, # of connection points: 2
#     Edge 21, Type (0, 1), BuildingBlock: OJICUG_clean_linker_0, # of connection points: 2
#     Edge 22, Type (0, 1), BuildingBlock: OJICUG_clean_linker_0, # of connection points: 2
#     Edge 23, Type (0, 1), BuildingBlock: OJICUG_clean_linker_0, # of connection points: 2
#     Edge 24, Type (0, 1), BuildingBlock: OJICUG_clean_linker_0, # of connection points: 2
#     Edge 25, Type (0, 1), BuildingBlock: OJICUG_clean_linker_0, # of connection points: 2
#     Edge 26, Type (0, 1), BuildingBlock: OJICUG_clean_linker_0, # of connection points: 2
#     Edge 27, Type (0, 1), BuildingBlock: OJICUG_clean_linker_0, # of connection points: 2
#     Edge 28, Type (0, 1), BuildingBlock: OJICUG_clean_linker_0, # of connection points: 2
#     Edge 29, Type (0, 1), BuildingBlock: OJICUG_clean_linker_0, # of connection points: 2
#     Edge 30, Type (0, 1), BuildingBlock: OJICUG_clean_linker_0, # of connection points: 2
#     Edge 31, Type (0, 1), BuildingBlock: OJICUG_clean_linker_0, # of connection points: 2
#     Edge 32, Type (0, 1), BuildingBlock: OJICUG_clean_linker_0, # of connection points: 2
#     Edge 33, Type (0, 1), BuildingBlock: OJICUG_clean_linker_0, # of connection points: 2
#     Edge 34, Type (0, 1), BuildingBlock: OJICUG_clean_linker_0, # of connection points: 2
#     Edge 35, Type (0, 1), BuildingBlock: OJICUG_clean_linker_0, # of connection points: 2
# Relax obj value: 0.315
# Max RMSD: 0.213
# Mean RMSD: 0.173
data_MOF--net-zzz--node1-OLANEW_clean_sbu_2--node2-BETGAK_clean_sbu_0--edge1-OJICUG_clean_linker_0
_symmetry_space_group_name_H-M    P1
_symmetry_Int_Tables_number       1
_symmetry_cell_setting            triclinic
loop_
_symmetry_equiv_pos_as_xyz
'x, y, z'
_cell_length_a     42.724736
_cell_length_b     42.715658
_cell_length_c     11.667253
_cell_angle_alpha  89.593237
_cell_angle_beta   89.760715
_cell_angle_gamma 90.004414
loop_
_atom_site_label
_atom_site_type_symbol
_atom_site_fract_x
_atom_site_fract_y
_atom_site_fract_z
_atom_type_partial_charge
O0 O 0.73224 0.56953 0.39263 0.0
Cd1 Cd 0.6805 0.58455 0.46313 0.0
O2 O 0.71795 0.52006 0.39624 0.0
Cd3 Cd 0.73463 0.47181 0.38947 0.0
O4 O 0.78182 0.45768 0.43711 0.0
C5 C 0.79071 0.46918 0.53167 0.0
O6 O 0.77047 0.48515 0.59302 0.0
C7 C 0.73843 0.54091 0.37443 0.0
C8 C 0.63529 0.56325 0.31147 0.0
O9 O 0.6494 0.58937 0.2948 0.0
O10 O 0.64205 0.54735 0.40161 0.0
O11 O 0.88635 0.71564 0.12845 0.0
Cd12 Cd 0.86743 0.66244 0.1641 0.0
O13 O 0.91758 0.71106 0.27689 0.0
Cd14 Cd 0.95015 0.73419 0.39304 0.0
O15 O 0.97139 0.77797 0.44856 0.0
C16 C 0.96545 0.78862 0.54756 0.0
O17 O 0.94809 0.7719 0.61825 0.0
C18 C 0.9073 0.72708 0.19272 0.0
C19 C 0.89917 0.61959 0.02666 0.0
O20 O 0.87395 0.63281 0.99215 0.0
O21 O 0.90926 0.62646 0.12671 0.0
O22 O 0.76337 0.88077 0.08746 0.0
Cd23 Cd 0.81466 0.85689 0.11675 0.0
O24 O 0.77425 0.91074 0.23418 0.0
Cd25 Cd 0.75666 0.94601 0.35215 0.0
O26 O 0.71321 0.96763 0.40883 0.0
C27 C 0.70117 0.95973 0.50435 0.0
O28 O 0.71645 0.9403 0.57165 0.0
C29 C 0.75597 0.90315 0.15323 0.0
C30 C 0.85834 0.89139 0.99073 0.0
O31 O 0.84515 0.86716 0.94836 0.0
O32 O 0.85152 0.89881 0.09411 0.0
O33 O 0.57959 0.79784 0.26448 0.0
Cd34 Cd 0.60209 0.85038 0.26765 0.0
O35 O 0.59608 0.78551 0.43755 0.0
Cd36 Cd 0.60132 0.74909 0.56895 0.0
O37 O 0.58843 0.70278 0.63412 0.0
C38 C 0.57217 0.69983 0.7249 0.0
O39 O 0.56504 0.72491 0.78413 0.0
C40 C 0.58135 0.77834 0.3469 0.0
C41 C 0.57434 0.88718 0.09762 0.0
O42 O 0.59861 0.87057 0.07607 0.0
O43 O 0.56344 0.88673 0.20014 0.0
O44 O 0.27061 0.47527 0.38801 0.0
Cd45 Cd 0.32559 0.46175 0.35869 0.0
O46 O 0.26161 0.46117 0.21082 0.0
Cd47 Cd 0.22856 0.45001 0.07518 0.0
O48 O 0.18071 0.45169 0.01272 0.0
C49 C 0.17317 0.46806 0.92592 0.0
O50 O 0.19511 0.48255 0.86679 0.0
C51 C 0.25153 0.47151 0.30612 0.0
C52 C 0.36313 0.48571 0.53167 0.0
O53 O 0.35985 0.50053 0.43656 0.0
O54 O 0.34877 0.45957 0.54456 0.0
O55 O 0.08685 0.24851 0.34442 0.0
Cd56 Cd 0.1029 0.30282 0.31268 0.0
O57 O 0.0577 0.25068 0.18969 0.0
Cd58 Cd 0.0287 0.22511 0.06793 0.0
O59 O 0.01086 0.17991 0.01157 0.0
C60 C 0.017 0.16973 0.91203 0.0
O61 O 0.03267 0.18766 0.84005 0.0
C62 C 0.06779 0.23555 0.2763 0.0
C63 C 0.06844 0.34332 0.45095 0.0
O64 O 0.05921 0.33653 0.34973 0.0
O65 O 0.09408 0.33111 0.48634 0.0
O66 O 0.23328 0.06706 0.34544 0.0
Cd67 Cd 0.18009 0.08681 0.31889 0.0
O68 O 0.24808 0.09209 0.1894 0.0
Cd69 Cd 0.28401 0.10104 0.05984 0.0
O70 O 0.33059 0.09265 0.99043 0.0
C71 C 0.3344 0.07261 0.91173 0.0
O72 O 0.30974 0.05874 0.86828 0.0
C73 C 0.25467 0.07452 0.27445 0.0
C74 C 0.1377 0.05471 0.45889 0.0
O75 O 0.14422 0.04499 0.3579 0.0
O76 O 0.15106 0.07979 0.49335 0.0
O77 O 0.49789 0.25864 0.21892 0.0
Cd78 Cd 0.4873 0.20712 0.1384 0.0
O79 O 0.46211 0.27972 0.10856 0.0
Cd80 Cd 0.42808 0.31615 0.06631 0.0
O81 O 0.38372 0.34104 0.07854 0.0
C82 C 0.38041 0.37046 0.08812 0.0
O83 O 0.35227 0.38184 0.1064 0.0
C84 C 0.48206 0.28245 0.18843 0.0
C85 C 0.49714 0.16103 0.30514 0.0
O86 O 0.51805 0.16705 0.22903 0.0
O87 O 0.47145 0.17646 0.30157 0.0
La88 La 0.99927 0.97009 0.85743 0.0
La89 La 0.99099 0.98664 0.60358 0.0
C90 C 0.99325 0.94362 0.04891 0.0
C91 C 0.98193 0.91186 0.07866 0.0
C92 C 0.99722 0.88519 0.03609 0.0
C93 C 0.98481 0.85542 0.05526 0.0
C94 C 0.95683 0.85152 0.11745 0.0
C95 C 0.94168 0.87814 0.1612 0.0
C96 C 0.95418 0.90803 0.14221 0.0
C97 C 0.05016 0.98769 0.74772 0.0
C98 C 0.99454 0.91657 0.66404 0.0
C99 C 0.99699 0.01324 0.41231 0.0
C100 C 0.00611 0.04574 0.3831 0.0
C101 C 0.98824 0.07121 0.42195 0.0
C102 C 0.99845 0.10184 0.40336 0.0
C103 C 0.02676 0.10781 0.34555 0.0
C104 C 0.04449 0.08236 0.30538 0.0
C105 C 0.03421 0.05161 0.32381 0.0
C106 C 0.9401 0.96835 0.71236 0.0
C107 C 0.99491 0.0402 0.7972 0.0
O108 O 0.01994 0.94537 0.99334 0.0
O109 O 0.97221 0.96257 0.00581 0.0
O110 O 0.04496 0.99335 0.85531 0.0
O111 O 0.02831 0.97114 0.70903 0.0
O112 O 0.99083 0.92511 0.7724 0.0
O113 O 0.99954 0.93716 0.58068 0.0
O114 O 0.96996 0.00954 0.46427 0.0
O115 O 0.01895 0.996 0.45879 0.0
O116 O 0.94538 0.96337 0.60434 0.0
O117 O 0.96182 0.98505 0.75154 0.0
O118 O 0.99843 0.03179 0.68866 0.0
O119 O 0.99066 0.01951 0.88066 0.0
H120 H 0.01839 0.88725 0.98527 0.0
H121 H 0.99677 0.83547 0.01867 0.0
H122 H 0.92023 0.87587 0.2104 0.0
H123 H 0.94185 0.92822 0.17535 0.0
H124 H 0.96669 0.0676 0.46944 0.0
H125 H 0.9845 0.12087 0.43711 0.0
H126 H 0.06626 0.08622 0.25953 0.0
H127 H 0.04851 0.03239 0.2936 0.0
La128 La 0.52973 0.02657 0.81768 0.0
La129 La 0.50513 0.00423 0.58709 0.0
C130 C 0.5596 0.02704 0.0023 0.0
C131 C 0.58882 0.01061 0.03475 0.0
C132 C 0.61741 0.01815 0.9811 0.0
C133 C 0.64424 0.00056 0.00347 0.0
C134 C 0.64315 0.97495 0.07955 0.0
C135 C 0.61473 0.9676 0.13457 0.0
C136 C 0.58786 0.98541 0.1129 0.0
C137 C 0.52097 0.07021 0.66217 0.0
C138 C 0.57598 0.99848 0.62604 0.0
C139 C 0.47585 0.00144 0.40089 0.0
C140 C 0.44288 0.00779 0.37201 0.0
C141 C 0.41859 0.99808 0.44565 0.0
C142 C 0.38776 0.0074 0.42522 0.0
C143 C 0.38054 0.02661 0.33065 0.0
C144 C 0.40479 0.03538 0.25486 0.0
C145 C 0.43567 0.02609 0.27549 0.0
C146 C 0.51511 0.96046 0.74204 0.0
C147 C 0.45862 0.03285 0.78031 0.0
O148 O 0.56203 0.04912 0.92402 0.0
O149 O 0.53534 0.00898 0.98483 0.0
O150 O 0.51718 0.07479 0.77132 0.0
O151 O 0.53134 0.04309 0.64543 0.0
O152 O 0.56959 0.0028 0.73612 0.0
O153 O 0.55455 0.00235 0.54567 0.0
O154 O 0.48116 0.97705 0.46677 0.0
O155 O 0.49204 0.02593 0.43239 0.0
O156 O 0.51918 0.95641 0.63277 0.0
O157 O 0.50415 0.9874 0.75862 0.0
O158 O 0.46367 0.0243 0.67252 0.0
O159 O 0.48092 0.0329 0.85838 0.0
H160 H 0.61903 0.03718 0.91957 0.0
H161 H 0.66573 0.00655 0.95884 0.0
H162 H 0.61333 0.94818 0.19458 0.0
H163 H 0.56616 0.97907 0.15544 0.0
H164 H 0.42353 0.98411 0.52127 0.0
H165 H 0.36981 0.00053 0.48619 0.0
H166 H 0.39997 0.04976 0.18034 0.0
H167 H 0.45404 0.03388 0.21765 0.0
La168 La 0.48637 0.53697 0.04606 0.0
La169 La 0.50676 0.50938 0.81689 0.0
C170 C 0.48557 0.56623 0.23202 0.0
C171 C 0.50168 0.59506 0.26693 0.0
C172 C 0.48547 0.61768 0.33009 0.0
C173 C 0.49889 0.64704 0.34918 0.0
C174 C 0.52878 0.65424 0.30514 0.0
C175 C 0.54548 0.63095 0.24612 0.0
C176 C 0.532 0.60172 0.22678 0.0
C177 C 0.44261 0.53229 0.88988 0.0
C178 C 0.52012 0.57975 0.85583 0.0
C179 C 0.51035 0.48344 0.62375 0.0
C180 C 0.50384 0.45313 0.56833 0.0
C181 C 0.52266 0.42679 0.59003 0.0
C182 C 0.51806 0.39911 0.52956 0.0
C183 C 0.4945 0.39704 0.44612 0.0
C184 C 0.47537 0.42327 0.42564 0.0
C185 C 0.48008 0.45107 0.48584 0.0
C186 C 0.55077 0.51494 0.97232 0.0
C187 C 0.47136 0.46697 0.00774 0.0
O188 O 0.46459 0.57012 0.15166 0.0
O189 O 0.50336 0.54175 0.21349 0.0
O190 O 0.43753 0.52883 0.99898 0.0
O191 O 0.47074 0.5398 0.87326 0.0
O192 O 0.5141 0.57447 0.96571 0.0
O193 O 0.51458 0.55846 0.77671 0.0
O194 O 0.53327 0.48422 0.69783 0.0
O195 O 0.48624 0.49999 0.65719 0.0
O196 O 0.55546 0.51824 0.86315 0.0
O197 O 0.52279 0.50702 0.98953 0.0
O198 O 0.48047 0.4707 0.89923 0.0
O199 O 0.47522 0.48889 0.08591 0.0
H200 H 0.46194 0.61307 0.36086 0.0
H201 H 0.4853 0.66449 0.39423 0.0
H202 H 0.56876 0.63549 0.21287 0.0
H203 H 0.54492 0.58475 0.17706 0.0
H204 H 0.54142 0.42765 0.65205 0.0
H205 H 0.53358 0.37958 0.54626 0.0
H206 H 0.45675 0.42234 0.36311 0.0
H207 H 0.46541 0.47111 0.46672 0.0
La208 La 0.97261 0.47123 0.8621 0.0
La209 La 0.9902 0.48771 0.61455 0.0
C210 C 0.94731 0.47117 0.05759 0.0
C211 C 0.91708 0.48161 0.10726 0.0
C212 C 0.89212 0.46048 0.12027 0.0
C213 C 0.86349 0.47036 0.16575 0.0
C214 C 0.85911 0.50162 0.19966 0.0
C215 C 0.88434 0.5226 0.1889 0.0
C216 C 0.91303 0.51265 0.14403 0.0
C217 C 0.9961 0.42505 0.74164 0.0
C218 C 0.92079 0.47341 0.66292 0.0
C219 C 0.01845 0.49157 0.42573 0.0
C220 C 0.05185 0.48728 0.39695 0.0
C221 C 0.06752 0.5101 0.33153 0.0
C222 C 0.09996 0.50845 0.31568 0.0
C223 C 0.1174 0.4838 0.36462 0.0
C224 C 0.10136 0.46044 0.42716 0.0
C225 C 0.06903 0.46227 0.44384 0.0
C226 C 0.96621 0.53334 0.73645 0.0
C227 C 0.04273 0.48187 0.81027 0.0
O228 O 0.94651 0.44721 0.98794 0.0
O229 O 0.96625 0.49318 0.02047 0.0
O230 O 0.99947 0.4276 0.85167 0.0
O231 O 0.97814 0.44627 0.70612 0.0
O232 O 0.92761 0.47695 0.77312 0.0
O233 O 0.94269 0.4728 0.5824 0.0
O234 O 0.01234 0.51582 0.49004 0.0
O235 O 0.00305 0.46657 0.45942 0.0
O236 O 0.96163 0.53014 0.62731 0.0
O237 O 0.98493 0.51262 0.77092 0.0
O238 O 0.03537 0.48142 0.70018 0.0
O239 O 0.02133 0.48168 0.89227 0.0
H240 H 0.89465 0.43624 0.09512 0.0
H241 H 0.84485 0.45335 0.17515 0.0
H242 H 0.88183 0.54689 0.21321 0.0
H243 H 0.93199 0.52938 0.13767 0.0
H244 H 0.05478 0.52977 0.2957 0.0
H245 H 0.11141 0.52706 0.26808 0.0
H246 H 0.11378 0.44074 0.46414 0.0
H247 H 0.05766 0.44447 0.49579 0.0
C248 C 0.10258 0.00885 0.49764 0.0
C249 C 0.11565 0.0373 0.53389 0.0
H250 H 0.07217 0.97042 0.53879 0.0
C251 C 0.10767 0.04877 0.64287 0.0
H252 H 0.10835 0.99929 0.41447 0.0
C253 C 0.08683 0.03227 0.71356 0.0
C254 C 0.07355 0.00409 0.67637 0.0
H255 H 0.11733 0.0706 0.67338 0.0
H256 H 0.08065 0.04188 0.7963 0.0
C257 C 0.08185 0.99234 0.56854 0.0
C258 C 0.52428 0.11305 0.37815 0.0
C259 C 0.50275 0.13741 0.39579 0.0
H260 H 0.54648 0.07228 0.44871 0.0
C261 C 0.48704 0.13934 0.50164 0.0
H262 H 0.53661 0.11093 0.29725 0.0
C263 C 0.49324 0.11767 0.58907 0.0
C264 C 0.51463 0.09328 0.57095 0.0
H265 H 0.4704 0.15795 0.51764 0.0
H266 H 0.48107 0.11977 0.67032 0.0
C267 C 0.52988 0.09095 0.46455 0.0
C268 C 0.40477 0.52217 0.60076 0.0
C269 C 0.38291 0.49834 0.62403 0.0
H270 H 0.44102 0.55155 0.66763 0.0
C271 C 0.38023 0.48652 0.73641 0.0
H272 H 0.40743 0.53168 0.51494 0.0
C273 C 0.39909 0.49824 0.82372 0.0
C274 C 0.42133 0.52155 0.79967 0.0
H275 H 0.36352 0.46823 0.75702 0.0
H276 H 0.39682 0.48849 0.90937 0.0
C277 C 0.42397 0.53353 0.68782 0.0
C278 C 0.05938 0.37023 0.63838 0.0
C279 C 0.04988 0.36432 0.52531 0.0
H280 H 0.0496 0.39403 0.79566 0.0
C281 C 0.02228 0.37838 0.48455 0.0
H282 H 0.08052 0.35977 0.67243 0.0
C283 C 0.00462 0.39794 0.55533 0.0
C284 C 0.01421 0.4038 0.66799 0.0
H285 H 0.01428 0.37428 0.39798 0.0
H286 H 0.98336 0.40837 0.52213 0.0
C287 C 0.04163 0.38969 0.70917 0.0
C288 C 0.89065 0.93983 0.96154 0.0
C289 C 0.87979 0.91092 0.92063 0.0
H290 H 0.91752 0.98124 0.9256 0.0
C291 C 0.88857 0.90142 0.80999 0.0
H292 H 0.88413 0.94792 0.04609 0.0
C293 C 0.90776 0.92042 0.74172 0.0
C294 C 0.91863 0.94922 0.78285 0.0
H295 H 0.88063 0.87929 0.77591 0.0
H296 H 0.91446 0.91231 0.65733 0.0
C297 C 0.90976 0.95889 0.89286 0.0
C298 C 0.53275 0.92445 0.03127 0.0
C299 C 0.55901 0.90582 0.00633 0.0
H300 H 0.49803 0.95614 0.96616 0.0
C301 C 0.57018 0.90478 0.89286 0.0
H302 H 0.52354 0.92575 0.11772 0.0
C303 C 0.55541 0.92199 0.80629 0.0
C304 C 0.52944 0.94084 0.83183 0.0
H305 H 0.59035 0.89067 0.87074 0.0
H306 H 0.56472 0.92108 0.71986 0.0
C307 C 0.51814 0.94183 0.94475 0.0
C308 C 0.59139 0.52753 0.25556 0.0
C309 C 0.61286 0.55128 0.22642 0.0
H310 H 0.55446 0.49751 0.19721 0.0
C311 C 0.61347 0.56297 0.11361 0.0
H312 H 0.59037 0.51815 0.342 0.0
C313 C 0.59349 0.55075 0.03095 0.0
C314 C 0.57203 0.52712 0.06011 0.0
H315 H 0.6298 0.58119 0.08852 0.0
H316 H 0.59456 0.5601 0.94445 0.0
C317 C 0.5709 0.51574 0.17311 0.0
C318 C 0.90533 0.59049 0.84216 0.0
C319 C 0.91633 0.59737 0.95258 0.0
H320 H 0.91268 0.56485 0.68709 0.0
C321 C 0.94409 0.58312 0.99085 0.0
H322 H 0.88406 0.60111 0.80995 0.0
C323 C 0.96037 0.56229 0.92049 0.0
C324 C 0.94929 0.55546 0.81047 0.0
H325 H 0.95327 0.588 0.07526 0.0
H326 H 0.98179 0.55176 0.95174 0.0
C327 C 0.92174 0.56983 0.77162 0.0
C328 C 0.02598 0.19494 0.28271 0.0
C329 C 0.05754 0.20301 0.29668 0.0
H330 H 0.9917 0.15852 0.2837 0.0
C331 C 0.07902 0.17979 0.32956 0.0
H332 H 0.00881 0.21261 0.26054 0.0
C333 C 0.06917 0.14874 0.34447 0.0
C334 C 0.0376 0.14054 0.32811 0.0
H335 H 0.10346 0.18555 0.34193 0.0
H336 H 0.08616 0.13126 0.37011 0.0
C337 C 0.01613 0.16404 0.29744 0.0
C338 C 0.2916 0.03122 0.32544 0.0
C339 C 0.28673 0.06223 0.28916 0.0
H340 H 0.325 0.99529 0.36364 0.0
C341 C 0.31275 0.0815 0.2679 0.0
H342 H 0.27189 0.01593 0.34287 0.0
C343 C 0.3431 0.0698 0.27975 0.0
C344 C 0.34814 0.03861 0.31438 0.0
H345 H 0.30965 0.10584 0.24406 0.0
H346 H 0.36263 0.08546 0.26426 0.0
C347 C 0.322 0.01947 0.33739 0.0
C348 C 0.49157 0.31084 0.37068 0.0
C349 C 0.48496 0.31191 0.253 0.0
H350 H 0.49866 0.33668 0.52451 0.0
C351 C 0.4812 0.34112 0.19885 0.0
H352 H 0.4944 0.28861 0.41474 0.0
C353 C 0.48389 0.36878 0.26157 0.0
C354 C 0.49044 0.36774 0.37969 0.0
H355 H 0.47701 0.34265 0.10756 0.0
H356 H 0.48162 0.39097 0.21693 0.0
C357 C 0.49407 0.3384 0.43346 0.0
C358 C 0.19927 0.49001 0.23656 0.0
C359 C 0.21771 0.47703 0.32405 0.0
H360 H 0.15327 0.50155 0.17876 0.0
C361 C 0.2034 0.46844 0.42804 0.0
H362 H 0.2099 0.49808 0.1573 0.0
C363 C 0.17098 0.47113 0.44184 0.0
C364 C 0.15214 0.48254 0.35192 0.0
H365 H 0.21716 0.45882 0.49768 0.0
H366 H 0.16071 0.46412 0.52303 0.0
C367 C 0.16683 0.49249 0.2498 0.0
C368 C 0.95186 0.76446 0.17869 0.0
C369 C 0.91962 0.75881 0.17059 0.0
H370 H 0.98873 0.7982 0.17199 0.0
C371 C 0.89952 0.78364 0.142 0.0
H372 H 0.96795 0.74552 0.19736 0.0
C373 C 0.91146 0.81389 0.12561 0.0
C374 C 0.94375 0.81967 0.13623 0.0
H375 H 0.87456 0.77974 0.13416 0.0
H376 H 0.8955 0.83265 0.10342 0.0
C377 C 0.96378 0.79456 0.16261 0.0
C378 C 0.69834 0.90576 0.11377 0.0
C379 C 0.72686 0.92098 0.13452 0.0
H380 H 0.64916 0.91107 0.08175 0.0
C381 C 0.72768 0.9538 0.13645 0.0
H382 H 0.69723 0.88044 0.11105 0.0
C383 C 0.70044 0.97121 0.11991 0.0
C384 C 0.67175 0.95615 0.10067 0.0
H385 H 0.74954 0.96607 0.15001 0.0
H386 H 0.7018 0.99652 0.12274 0.0
C387 C 0.6709 0.92323 0.09806 0.0
C388 C 0.55037 0.73354 0.42685 0.0
C389 C 0.56718 0.74705 0.33549 0.0
H390 H 0.52576 0.69332 0.49042 0.0
C391 C 0.57041 0.73043 0.23294 0.0
H392 H 0.54672 0.74633 0.50559 0.0
C393 C 0.55804 0.70029 0.2234 0.0
C394 C 0.54195 0.68628 0.31598 0.0
H395 H 0.58295 0.74055 0.16076 0.0
H396 H 0.56087 0.68807 0.14304 0.0
C397 C 0.53802 0.70337 0.41754 0.0
C398 C 0.77128 0.51029 0.23903 0.0
C399 C 0.76935 0.53169 0.32934 0.0
H400 H 0.8009 0.48453 0.12591 0.0
C401 C 0.797 0.54392 0.37556 0.0
H402 H 0.75022 0.501 0.2006 0.0
C403 C 0.82619 0.5341 0.33416 0.0
C404 C 0.82821 0.5123 0.24434 0.0
H405 H 0.79602 0.56045 0.44547 0.0
H406 H 0.84713 0.54319 0.37388 0.0
C407 C 0.80034 0.50075 0.19678 0.0
C408 C 0.01376 0.12654 0.76889 0.0
C409 C 0.00902 0.13714 0.88126 0.0
H410 H 0.01303 0.08779 0.65447 0.0
C411 C 0.99815 0.11589 0.96511 0.0
H412 H 0.02213 0.14228 0.7023 0.0
C413 C 0.9929 0.08449 0.93764 0.0
C414 C 0.99824 0.07377 0.82563 0.0
H415 H 0.99441 0.12328 0.05275 0.0
H416 H 0.98514 0.06858 0.00463 0.0
C417 C 0.00839 0.09525 0.74138 0.0
C418 C 0.37078 0.04459 0.77867 0.0
C419 C 0.36626 0.06333 0.87577 0.0
H420 H 0.40351 0.0203 0.67263 0.0
C421 C 0.3924 0.07215 0.94081 0.0
H422 H 0.35112 0.03742 0.7267 0.0
C423 C 0.42236 0.06191 0.91072 0.0
C424 C 0.42687 0.04316 0.81361 0.0
H425 H 0.38969 0.0866 0.01612 0.0
H426 H 0.44201 0.06895 0.96297 0.0
C427 C 0.4008 0.03481 0.7475 0.0
C428 C 0.40854 0.41825 0.15025 0.0
C429 C 0.40727 0.39201 0.07902 0.0
H430 H 0.43047 0.46194 0.1859 0.0
C431 C 0.42971 0.38866 0.99162 0.0
H432 H 0.39152 0.42128 0.2184 0.0
C433 C 0.45176 0.41238 0.97093 0.0
C434 C 0.45213 0.43936 0.03932 0.0
H435 H 0.42902 0.36867 0.93509 0.0
H436 H 0.46776 0.41011 0.8992 0.0
C437 C 0.43098 0.44147 0.13166 0.0
C438 C 0.11648 0.46573 0.97844 0.0
C439 C 0.13986 0.47214 0.89643 0.0
H440 H 0.06748 0.46444 0.01634 0.0
C441 C 0.13111 0.48291 0.78722 0.0
H442 H 0.12253 0.45766 0.06376 0.0
C443 C 0.09952 0.4865 0.75966 0.0
C444 C 0.07612 0.47996 0.84157 0.0
H445 H 0.14864 0.48813 0.72253 0.0
H446 H 0.09345 0.49434 0.67408 0.0
C447 C 0.08494 0.46986 0.95159 0.0
C448 C 0.98813 0.84111 0.49596 0.0
C449 C 0.97546 0.82059 0.57893 0.0
H450 H 0.00417 0.88757 0.45751 0.0
C451 C 0.97079 0.83148 0.69094 0.0
H452 H 0.99184 0.83349 0.40859 0.0
C453 C 0.9779 0.86237 0.71887 0.0
C454 C 0.98981 0.88318 0.63546 0.0
H455 H 0.96105 0.81633 0.75684 0.0
H456 H 0.97311 0.87013 0.80527 0.0
C457 C 0.99514 0.87214 0.52388 0.0
C458 C 0.64922 0.98272 0.4516 0.0
C459 C 0.66942 0.97046 0.53559 0.0
H460 H 0.6036 0.00083 0.41388 0.0
C461 C 0.65862 0.96747 0.64892 0.0
H462 H 0.65681 0.98502 0.36321 0.0
C463 C 0.6283 0.9767 0.67797 0.0
C464 C 0.608 0.98878 0.59401 0.0
H465 H 0.67361 0.95803 0.71541 0.0
H466 H 0.62066 0.97399 0.76615 0.0
C467 C 0.61869 0.99159 0.4804 0.0
C468 C 0.54719 0.6641 0.86937 0.0
C469 C 0.55965 0.66885 0.75907 0.0
H470 H 0.52512 0.63229 0.98654 0.0
C471 C 0.55904 0.64405 0.68046 0.0
H472 H 0.54725 0.68279 0.93163 0.0
C473 C 0.54599 0.61515 0.71137 0.0
C474 C 0.53361 0.61038 0.82191 0.0
H475 H 0.5682 0.64708 0.59436 0.0
H476 H 0.54574 0.59656 0.64874 0.0
C477 C 0.53451 0.63513 0.90073 0.0
C478 C 0.84745 0.45976 0.48799 0.0
C479 C 0.82388 0.46793 0.56665 0.0
H480 H 0.89667 0.45557 0.4558 0.0
C481 C 0.83243 0.47701 0.67765 0.0
H482 H 0.84154 0.45274 0.40179 0.0
C483 C 0.86387 0.47832 0.70907 0.0
C484 C 0.88753 0.47095 0.6297 0.0
H485 H 0.81481 0.48345 0.74025 0.0
H486 H 0.86958 0.4857 0.79514 0.0
C487 C 0.87901 0.46152 0.51886 0.0
loop_
_geom_bond_atom_site_label_1
_geom_bond_atom_site_label_2
_geom_bond_distance
_geom_bond_site_symmetry_2
_ccdc_geom_bond_type
O0 Cd1 2.300 . S
O0 C7 1.275 . S
Cd1 O0 2.300 . S
Cd1 O9 2.381 . S
Cd1 O10 2.378 . S
O2 Cd3 2.385 . S
O2 C7 1.255 . S
Cd3 O2 2.385 . S
Cd3 O4 2.317 . S
O4 Cd3 2.317 . S
O4 C5 1.232 . S
C5 O4 1.232 . S
C5 O6 1.218 . S
O6 C5 1.218 . S
C7 O0 1.275 . S
C7 O2 1.255 . S
C8 O9 1.258 . S
C8 O10 1.256 . S
O9 Cd1 2.381 . S
O9 C8 1.258 . S
O10 Cd1 2.378 . S
O10 C8 1.256 . S
O11 Cd12 2.300 1_655 S
O11 C18 1.275 1_655 S
Cd12 O11 2.300 1_455 S
Cd12 O20 2.381 1_455 S
Cd12 O21 2.378 . S
O13 Cd14 2.385 . S
O13 C18 1.255 . S
Cd14 O13 2.385 . S
Cd14 O15 2.317 . S
O15 Cd14 2.317 . S
O15 C16 1.232 . S
C16 O15 1.232 . S
C16 O17 1.218 . S
O17 C16 1.218 . S
C18 O11 1.275 1_455 S
C18 O13 1.255 . S
C19 O20 1.258 1_455 S
C19 O21 1.256 . S
O20 Cd12 2.381 1_655 S
O20 C19 1.258 1_655 S
O21 Cd12 2.378 . S
O21 C19 1.256 . S
O22 Cd23 2.300 1_565 S
O22 C29 1.275 1_565 S
Cd23 O22 2.300 1_545 S
Cd23 O31 2.381 1_545 S
Cd23 O32 2.378 . S
O24 Cd25 2.385 . S
O24 C29 1.255 . S
Cd25 O24 2.385 . S
Cd25 O26 2.317 . S
O26 Cd25 2.317 . S
O26 C27 1.232 . S
C27 O26 1.232 . S
C27 O28 1.218 . S
O28 C27 1.218 . S
C29 O22 1.275 1_545 S
C29 O24 1.255 . S
C30 O31 1.258 1_545 S
C30 O32 1.256 . S
O31 Cd23 2.381 1_565 S
O31 C30 1.258 1_565 S
O32 Cd23 2.378 . S
O32 C30 1.256 . S
O33 Cd34 2.300 . S
O33 C40 1.275 . S
Cd34 O33 2.300 . S
Cd34 O42 2.381 . S
Cd34 O43 2.378 . S
O35 Cd36 2.385 . S
O35 C40 1.255 . S
Cd36 O35 2.385 . S
Cd36 O37 2.317 . S
O37 Cd36 2.317 . S
O37 C38 1.232 . S
C38 O37 1.232 . S
C38 O39 1.218 . S
O39 C38 1.218 . S
C40 O33 1.275 . S
C40 O35 1.255 . S
C41 O42 1.258 . S
C41 O43 1.256 . S
O42 Cd34 2.381 . S
O42 C41 1.258 . S
O43 Cd34 2.378 . S
O43 C41 1.256 . S
O44 Cd45 2.300 . S
O44 C51 1.275 . S
Cd45 O44 2.300 . S
Cd45 O53 2.381 . S
Cd45 O54 2.378 . S
O46 Cd47 2.385 1_554 S
O46 C51 1.255 . S
Cd47 O46 2.385 1_556 S
Cd47 O48 2.317 . S
O48 Cd47 2.317 . S
O48 C49 1.232 . S
C49 O48 1.232 . S
C49 O50 1.218 . S
O50 C49 1.218 . S
C51 O44 1.275 . S
C51 O46 1.255 . S
C52 O53 1.258 . S
C52 O54 1.256 . S
O53 Cd45 2.381 . S
O53 C52 1.258 . S
O54 Cd45 2.378 . S
O54 C52 1.256 . S
O55 Cd56 2.300 1_655 S
O55 C62 1.275 1_655 S
Cd56 O55 2.300 1_455 S
Cd56 O64 2.381 1_455 S
Cd56 O65 2.378 . S
O57 Cd58 2.385 1_554 S
O57 C62 1.255 . S
Cd58 O57 2.385 1_556 S
Cd58 O59 2.317 . S
O59 Cd58 2.317 . S
O59 C60 1.232 . S
C60 O59 1.232 . S
C60 O61 1.218 . S
O61 C60 1.218 . S
C62 O55 1.275 1_455 S
C62 O57 1.255 . S
C63 O64 1.258 1_455 S
C63 O65 1.256 . S
O64 Cd56 2.381 1_655 S
O64 C63 1.258 1_655 S
O65 Cd56 2.378 . S
O65 C63 1.256 . S
O66 Cd67 2.300 1_565 S
O66 C73 1.275 1_565 S
Cd67 O66 2.300 1_545 S
Cd67 O75 2.381 1_545 S
Cd67 O76 2.378 . S
O68 Cd69 2.385 1_554 S
O68 C73 1.255 . S
Cd69 O68 2.385 1_556 S
Cd69 O70 2.317 . S
O70 Cd69 2.317 . S
O70 C71 1.232 . S
C71 O70 1.232 . S
C71 O72 1.218 . S
O72 C71 1.218 . S
C73 O66 1.275 1_545 S
C73 O68 1.255 . S
C74 O75 1.258 1_545 S
C74 O76 1.256 . S
O75 Cd67 2.381 1_565 S
O75 C74 1.258 1_565 S
O76 Cd67 2.378 . S
O76 C74 1.256 . S
O77 Cd78 2.300 . S
O77 C84 1.275 . S
Cd78 O77 2.300 . S
Cd78 O86 2.381 . S
Cd78 O87 2.378 . S
O79 Cd80 2.385 1_554 S
O79 C84 1.255 . S
Cd80 O79 2.385 1_556 S
Cd80 O81 2.317 . S
O81 Cd80 2.317 . S
O81 C82 1.232 . S
C82 O81 1.232 . S
C82 O83 1.218 . S
O83 C82 1.218 . S
C84 O77 1.275 . S
C84 O79 1.255 . S
C85 O86 1.258 . S
C85 O87 1.256 . S
O86 Cd78 2.381 . S
O86 C85 1.258 . S
O87 Cd78 2.378 . S
O87 C85 1.256 . S
La88 C90 2.928 1_556 S
La88 O108 2.521 . S
La88 O109 2.628 1_556 S
La88 O110 2.554 . S
La88 O111 2.757 1_565 S
La88 O112 2.470 . S
La88 O117 2.482 1_455 S
La88 O119 2.503 1_565 S
La89 C99 2.928 . S
La89 O111 2.482 1_655 S
La89 O113 2.503 1_545 S
La89 O114 2.521 . S
La89 O115 2.628 . S
La89 O116 2.554 . S
La89 O117 2.757 1_545 S
La89 O118 2.470 . S
C90 La88 2.928 1_554 S
C90 C91 1.503 . S
C90 O108 1.261 1_554 S
C90 O109 1.243 . S
C91 C90 1.503 . S
C91 C92 1.394 . S
C91 C96 1.373 . S
C92 C91 1.394 . S
C92 C93 1.380 . S
C92 H120 0.930 . S
C93 C92 1.380 . S
C93 C94 1.376 . S
C93 H121 0.930 . S
C94 C93 1.376 . S
C94 C95 1.370 . S
C95 C94 1.370 . S
C95 C96 1.396 . S
C95 H122 0.946 . S
C96 C91 1.373 . S
C96 C95 1.396 . S
C96 H123 0.929 1_455 S
C97 O110 1.240 . S
C97 O111 1.289 1_565 S
C98 O112 1.258 1_655 S
C98 O113 1.256 . S
C99 La89 2.928 . S
C99 C100 1.503 . S
C99 O114 1.261 . S
C99 O115 1.243 . S
C100 C99 1.503 . S
C100 C101 1.394 . S
C100 C105 1.373 . S
C101 C100 1.394 . S
C101 C102 1.380 . S
C101 H124 0.930 . S
C102 C101 1.380 . S
C102 C103 1.376 . S
C102 H125 0.930 . S
C103 C102 1.376 . S
C103 C104 1.370 . S
C104 C103 1.370 . S
C104 C105 1.396 . S
C104 H126 0.940 . S
C105 C100 1.373 . S
C105 C104 1.396 . S
C105 H127 0.929 1_655 S
C106 O116 1.240 . S
C106 O117 1.289 1_545 S
C107 O118 1.258 1_455 S
C107 O119 1.256 . S
O108 La88 2.521 . S
O108 C90 1.261 1_556 S
O109 La88 2.628 1_554 S
O109 C90 1.243 . S
O110 La88 2.554 . S
O110 C97 1.240 . S
O111 La88 2.757 1_545 S
O111 La89 2.482 1_455 S
O111 C97 1.289 1_545 S
O112 La88 2.470 . S
O112 C98 1.258 1_455 S
O113 La89 2.503 1_565 S
O113 C98 1.256 . S
O114 La89 2.521 . S
O114 C99 1.261 . S
O115 La89 2.628 . S
O115 C99 1.243 . S
O116 La89 2.554 . S
O116 C106 1.240 . S
O117 La88 2.482 1_655 S
O117 La89 2.757 1_565 S
O117 C106 1.289 1_565 S
O118 La89 2.470 . S
O118 C107 1.258 1_655 S
O119 La88 2.503 1_545 S
O119 C107 1.256 . S
H120 C92 0.930 . S
H121 C93 0.930 . S
H122 C95 0.946 . S
H123 C96 0.929 1_655 S
H124 C101 0.930 . S
H125 C102 0.930 . S
H126 C104 0.940 . S
H127 C105 0.929 1_455 S
La128 C130 2.928 1_556 S
La128 O148 2.521 . S
La128 O149 2.628 1_556 S
La128 O150 2.554 . S
La128 O151 2.757 . S
La128 O152 2.470 . S
La128 O157 2.482 1_545 S
La128 O159 2.503 . S
La129 C139 2.928 . S
La129 O151 2.482 1_565 S
La129 O153 2.503 . S
La129 O154 2.521 . S
La129 O155 2.628 . S
La129 O156 2.554 . S
La129 O157 2.757 . S
La129 O158 2.470 . S
C130 La128 2.928 1_554 S
C130 C131 1.503 . S
C130 O148 1.261 1_554 S
C130 O149 1.243 . S
C131 C130 1.503 . S
C131 C132 1.394 . S
C131 C136 1.373 . S
C132 C131 1.394 . S
C132 C133 1.380 . S
C132 H160 0.930 . S
C133 C132 1.380 . S
C133 C134 1.376 . S
C133 H161 0.930 . S
C134 C133 1.376 . S
C134 C135 1.370 . S
C135 C134 1.370 . S
C135 C136 1.396 . S
C135 H162 0.907 1_545 S
C136 C131 1.373 . S
C136 C135 1.396 . S
C136 H163 0.929 1_545 S
C137 O150 1.240 . S
C137 O151 1.289 . S
C138 O152 1.258 1_565 S
C138 O153 1.256 . S
C139 La129 2.928 . S
C139 C140 1.503 . S
C139 O154 1.261 . S
C139 O155 1.243 . S
C140 C139 1.503 . S
C140 C141 1.394 . S
C140 C145 1.373 . S
C141 C140 1.394 . S
C141 C142 1.380 . S
C141 H164 0.930 . S
C142 C141 1.380 . S
C142 C143 1.376 . S
C142 H165 0.930 . S
C143 C142 1.376 . S
C143 C144 1.370 . S
C144 C143 1.370 . S
C144 C145 1.396 . S
C144 H166 0.901 1_565 S
C145 C140 1.373 . S
C145 C144 1.396 . S
C145 H167 0.929 1_565 S
C146 O156 1.240 . S
C146 O157 1.289 . S
C147 O158 1.258 1_545 S
C147 O159 1.256 . S
O148 La128 2.521 . S
O148 C130 1.261 1_556 S
O149 La128 2.628 1_554 S
O149 C130 1.243 . S
O150 La128 2.554 . S
O150 C137 1.240 . S
O151 La128 2.757 . S
O151 La129 2.482 1_545 S
O151 C137 1.289 . S
O152 La128 2.470 . S
O152 C138 1.258 1_545 S
O153 La129 2.503 . S
O153 C138 1.256 . S
O154 La129 2.521 . S
O154 C139 1.261 . S
O155 La129 2.628 . S
O155 C139 1.243 . S
O156 La129 2.554 . S
O156 C146 1.240 . S
O157 La128 2.482 1_565 S
O157 La129 2.757 . S
O157 C146 1.289 . S
O158 La129 2.470 . S
O158 C147 1.258 1_565 S
O159 La128 2.503 . S
O159 C147 1.256 . S
H160 C132 0.930 . S
H161 C133 0.930 . S
H162 C135 0.907 1_565 S
H163 C136 0.929 1_565 S
H164 C141 0.930 . S
H165 C142 0.930 . S
H166 C144 0.901 1_545 S
H167 C145 0.929 1_545 S
La168 C170 2.928 1_556 S
La168 O188 2.521 . S
La168 O189 2.628 1_556 S
La168 O190 2.554 . S
La168 O191 2.757 . S
La168 O192 2.470 . S
La168 O197 2.482 . S
La168 O199 2.503 . S
La169 C179 2.928 . S
La169 O191 2.482 . S
La169 O193 2.503 . S
La169 O194 2.521 . S
La169 O195 2.628 . S
La169 O196 2.554 . S
La169 O197 2.757 . S
La169 O198 2.470 . S
C170 La168 2.928 1_554 S
C170 C171 1.503 . S
C170 O188 1.261 1_554 S
C170 O189 1.243 . S
C171 C170 1.503 . S
C171 C172 1.394 . S
C171 C176 1.373 . S
C172 C171 1.394 . S
C172 C173 1.380 . S
C172 H200 0.930 . S
C173 C172 1.380 . S
C173 C174 1.376 . S
C173 H201 0.930 . S
C174 C173 1.376 . S
C174 C175 1.370 . S
C175 C174 1.370 . S
C175 C176 1.396 . S
C175 H202 0.929 . S
C176 C171 1.373 . S
C176 C175 1.396 . S
C176 H203 0.929 . S
C177 O190 1.240 . S
C177 O191 1.289 . S
C178 O192 1.258 . S
C178 O193 1.256 . S
C179 La169 2.928 . S
C179 C180 1.503 . S
C179 O194 1.261 . S
C179 O195 1.243 . S
C180 C179 1.503 . S
C180 C181 1.394 . S
C180 C185 1.373 . S
C181 C180 1.394 . S
C181 C182 1.380 . S
C181 H204 0.930 . S
C182 C181 1.380 . S
C182 C183 1.376 . S
C182 H205 0.930 . S
C183 C182 1.376 . S
C183 C184 1.370 . S
C184 C183 1.370 . S
C184 C185 1.396 . S
C184 H206 0.929 . S
C185 C180 1.373 . S
C185 C184 1.396 . S
C185 H207 0.929 . S
C186 O196 1.240 . S
C186 O197 1.289 . S
C187 O198 1.258 . S
C187 O199 1.256 . S
O188 La168 2.521 . S
O188 C170 1.261 1_556 S
O189 La168 2.628 1_554 S
O189 C170 1.243 . S
O190 La168 2.554 . S
O190 C177 1.240 . S
O191 La168 2.757 . S
O191 La169 2.482 . S
O191 C177 1.289 . S
O192 La168 2.470 . S
O192 C178 1.258 . S
O193 La169 2.503 . S
O193 C178 1.256 . S
O194 La169 2.521 . S
O194 C179 1.261 . S
O195 La169 2.628 . S
O195 C179 1.243 . S
O196 La169 2.554 . S
O196 C186 1.240 . S
O197 La168 2.482 . S
O197 La169 2.757 . S
O197 C186 1.289 . S
O198 La169 2.470 . S
O198 C187 1.258 . S
O199 La168 2.503 . S
O199 C187 1.256 . S
H200 C172 0.930 . S
H201 C173 0.930 . S
H202 C175 0.929 . S
H203 C176 0.929 . S
H204 C181 0.930 . S
H205 C182 0.930 . S
H206 C184 0.929 . S
H207 C185 0.929 . S
La208 C210 2.928 1_556 S
La208 O228 2.521 . S
La208 O229 2.628 1_556 S
La208 O230 2.554 . S
La208 O231 2.757 1_655 S
La208 O232 2.470 . S
La208 O237 2.482 . S
La208 O239 2.503 1_655 S
La209 C219 2.928 . S
La209 O231 2.482 . S
La209 O233 2.503 1_455 S
La209 O234 2.521 . S
La209 O235 2.628 . S
La209 O236 2.554 . S
La209 O237 2.757 1_455 S
La209 O238 2.470 . S
C210 La208 2.928 1_554 S
C210 C211 1.503 . S
C210 O228 1.261 1_554 S
C210 O229 1.243 . S
C211 C210 1.503 . S
C211 C212 1.394 . S
C211 C216 1.373 . S
C212 C211 1.394 . S
C212 C213 1.380 . S
C212 H240 0.930 . S
C213 C212 1.380 . S
C213 C214 1.376 . S
C213 H241 0.930 . S
C214 C213 1.376 . S
C214 C215 1.370 . S
C215 C214 1.370 . S
C215 C216 1.396 . S
C215 H242 0.929 . S
C216 C211 1.373 . S
C216 C215 1.396 . S
C216 H243 0.929 . S
C217 O230 1.250 . S
C217 O231 1.283 1_655 S
C218 O232 1.258 . S
C218 O233 1.256 . S
C219 La209 2.928 . S
C219 C220 1.503 . S
C219 O234 1.261 . S
C219 O235 1.243 . S
C220 C219 1.503 . S
C220 C221 1.394 . S
C220 C225 1.373 . S
C221 C220 1.394 . S
C221 C222 1.380 . S
C221 H244 0.930 . S
C222 C221 1.380 . S
C222 C223 1.376 . S
C222 H245 0.930 . S
C223 C222 1.376 . S
C223 C224 1.370 . S
C224 C223 1.370 . S
C224 C225 1.396 . S
C224 H246 0.929 . S
C225 C220 1.373 . S
C225 C224 1.396 . S
C225 H247 0.929 . S
C226 O236 1.254 . S
C226 O237 1.281 1_455 S
C227 O238 1.258 . S
C227 O239 1.256 . S
O228 La208 2.521 . S
O228 C210 1.261 1_556 S
O229 La208 2.628 1_554 S
O229 C210 1.243 . S
O230 La208 2.554 . S
O230 C217 1.250 . S
O231 La208 2.757 1_455 S
O231 La209 2.482 . S
O231 C217 1.283 1_455 S
O232 La208 2.470 . S
O232 C218 1.258 . S
O233 La209 2.503 1_655 S
O233 C218 1.256 . S
O234 La209 2.521 . S
O234 C219 1.261 . S
O235 La209 2.628 . S
O235 C219 1.243 . S
O236 La209 2.554 . S
O236 C226 1.254 . S
O237 La208 2.482 . S
O237 La209 2.757 1_655 S
O237 C226 1.281 1_655 S
O238 La209 2.470 . S
O238 C227 1.258 . S
O239 La208 2.503 1_455 S
O239 C227 1.256 . S
H240 C212 0.930 . S
H241 C213 0.930 . S
H242 C215 0.929 . S
H243 C216 0.929 . S
H244 C221 0.930 . S
H245 C222 0.930 . S
H246 C224 0.929 . S
H247 C225 0.929 . S
C248 C249 1.376 1_565 S
C248 H252 0.950 . S
C248 C257 1.390 . S
C249 C248 1.376 1_545 S
C249 C251 1.399 . S
H250 C257 0.950 . S
C251 C249 1.399 . S
C251 C253 1.390 . S
C251 H255 0.950 . S
H252 C248 0.950 . S
C253 C251 1.390 . S
C253 C254 1.387 . S
C253 H256 0.950 . S
C254 C253 1.387 . S
C254 C257 1.387 1_545 S
H255 C251 0.950 . S
H256 C253 0.950 . S
C257 C248 1.390 . S
C257 H250 0.950 . S
C257 C254 1.387 1_565 S
C258 C259 1.387 . S
C258 H262 0.950 . S
C258 C267 1.390 . S
C259 C258 1.387 . S
C259 C261 1.387 . S
H260 C267 0.950 . S
C261 C259 1.387 . S
C261 C263 1.390 . S
C261 H265 0.950 . S
H262 C258 0.950 . S
C263 C261 1.390 . S
C263 C264 1.387 . S
C263 H266 0.950 . S
C264 C263 1.387 . S
C264 C267 1.387 . S
H265 C261 0.950 . S
H266 C263 0.950 . S
C267 C258 1.390 . S
C267 H260 0.950 . S
C267 C264 1.387 . S
C268 C269 1.387 . S
C268 H272 0.950 . S
C268 C277 1.390 . S
C269 C268 1.387 . S
C269 C271 1.387 . S
H270 C277 0.950 . S
C271 C269 1.387 . S
C271 C273 1.390 . S
C271 H275 0.950 . S
H272 C268 0.950 . S
C273 C271 1.390 . S
C273 C274 1.387 . S
C273 H276 0.950 . S
C274 C273 1.387 . S
C274 C277 1.387 . S
H275 C271 0.950 . S
H276 C273 0.950 . S
C277 C268 1.390 . S
C277 H270 0.950 . S
C277 C274 1.387 . S
C278 C279 1.410 . S
C278 H282 0.950 . S
C278 C287 1.390 . S
C279 C278 1.410 . S
C279 C281 1.366 1_455 S
H280 C287 0.950 . S
C281 C279 1.366 1_655 S
C281 C283 1.390 . S
C281 H285 0.950 . S
H282 C278 0.950 . S
C283 C281 1.390 . S
C283 C284 1.387 1_655 S
C283 H286 0.950 . S
C284 C283 1.387 1_455 S
C284 C287 1.387 . S
H285 C281 0.950 . S
H286 C283 0.950 . S
C287 C278 1.390 . S
C287 H280 0.950 . S
C287 C284 1.387 . S
C288 C289 1.383 1_545 S
C288 H292 0.950 . S
C288 C297 1.390 . S
C289 C288 1.383 1_565 S
C289 C291 1.392 . S
H290 C297 0.950 . S
C291 C289 1.392 . S
C291 C293 1.390 . S
C291 H295 0.950 . S
H292 C288 0.950 . S
C293 C291 1.390 . S
C293 C294 1.414 . S
C293 H296 0.950 . S
C294 C293 1.414 . S
C294 C297 1.360 1_565 S
H295 C291 0.950 . S
H296 C293 0.950 . S
C297 C288 1.390 . S
C297 H290 0.950 . S
C297 C294 1.360 1_545 S
C298 C299 1.387 . S
C298 H302 0.950 . S
C298 C307 1.390 . S
C299 C298 1.387 . S
C299 C301 1.387 . S
H300 C307 0.950 1_556 S
C301 C299 1.387 . S
C301 C303 1.390 . S
C301 H305 0.950 . S
H302 C298 0.950 . S
C303 C301 1.390 . S
C303 C304 1.387 . S
C303 H306 0.950 . S
C304 C303 1.387 . S
C304 C307 1.387 . S
H305 C301 0.950 . S
H306 C303 0.950 . S
C307 C298 1.390 . S
C307 H300 0.950 1_554 S
C307 C304 1.387 . S
C308 C309 1.387 . S
C308 H312 0.950 . S
C308 C317 1.390 . S
C309 C308 1.387 . S
C309 C311 1.387 . S
H310 C317 0.950 . S
C311 C309 1.387 . S
C311 C313 1.390 . S
C311 H315 0.950 . S
H312 C308 0.950 . S
C313 C311 1.390 . S
C313 C314 1.387 . S
C313 H316 0.950 . S
C314 C313 1.387 . S
C314 C317 1.387 . S
H315 C311 0.950 . S
H316 C313 0.950 . S
C317 C308 1.390 . S
C317 H310 0.950 . S
C317 C314 1.387 . S
C318 C319 1.411 . S
C318 H322 0.950 . S
C318 C327 1.390 . S
C319 C318 1.411 . S
C319 C321 1.364 1_655 S
H320 C327 0.950 . S
C321 C319 1.364 1_455 S
C321 C323 1.390 . S
C321 H325 0.950 . S
H322 C318 0.950 . S
C323 C321 1.390 . S
C323 C324 1.387 1_455 S
C323 H326 0.950 . S
C324 C323 1.387 1_655 S
C324 C327 1.387 . S
H325 C321 0.950 . S
H326 C323 0.950 . S
C327 C318 1.390 . S
C327 H320 0.950 . S
C327 C324 1.387 . S
C328 C329 1.387 . S
C328 H332 0.950 . S
C328 C337 1.390 . S
C329 C328 1.387 . S
C329 C331 1.387 . S
H330 C337 0.950 . S
C331 C329 1.387 . S
C331 C333 1.390 . S
C331 H335 0.950 1_655 S
H332 C328 0.950 . S
C333 C331 1.390 . S
C333 C334 1.387 . S
C333 H336 0.950 . S
C334 C333 1.387 . S
C334 C337 1.387 . S
H335 C331 0.950 1_455 S
H336 C333 0.950 . S
C337 C328 1.390 . S
C337 H330 0.950 . S
C337 C334 1.387 . S
C338 C339 1.387 . S
C338 H342 0.950 . S
C338 C347 1.390 . S
C339 C338 1.387 . S
C339 C341 1.387 . S
H340 C347 0.950 . S
C341 C339 1.387 . S
C341 C343 1.390 . S
C341 H345 0.950 1_565 S
H342 C338 0.950 . S
C343 C341 1.390 . S
C343 C344 1.387 . S
C343 H346 0.950 . S
C344 C343 1.387 . S
C344 C347 1.387 . S
H345 C341 0.950 1_545 S
H346 C343 0.950 . S
C347 C338 1.390 . S
C347 H340 0.950 . S
C347 C344 1.387 . S
C348 C349 1.387 . S
C348 H352 0.950 . S
C348 C357 1.390 . S
C349 C348 1.387 . S
C349 C351 1.387 . S
H350 C357 0.950 . S
C351 C349 1.387 . S
C351 C353 1.390 . S
C351 H355 0.950 . S
H352 C348 0.950 . S
C353 C351 1.390 . S
C353 C354 1.387 . S
C353 H356 0.950 . S
C354 C353 1.387 . S
C354 C357 1.387 . S
H355 C351 0.950 . S
H356 C353 0.950 . S
C357 C348 1.390 . S
C357 H350 0.950 . S
C357 C354 1.387 . S
C358 C359 1.387 . S
C358 H362 0.950 . S
C358 C367 1.390 . S
C359 C358 1.387 . S
C359 C361 1.387 . S
H360 C367 0.950 . S
C361 C359 1.387 . S
C361 C363 1.390 . S
C361 H365 0.950 . S
H362 C358 0.950 . S
C363 C361 1.390 . S
C363 C364 1.387 . S
C363 H366 0.950 . S
C364 C363 1.387 . S
C364 C367 1.387 . S
H365 C361 0.950 . S
H366 C363 0.950 . S
C367 C358 1.390 . S
C367 H360 0.950 . S
C367 C364 1.387 . S
C368 C369 1.387 . S
C368 H372 0.950 . S
C368 C377 1.390 . S
C369 C368 1.387 . S
C369 C371 1.387 . S
H370 C377 0.950 . S
C371 C369 1.387 . S
C371 C373 1.390 . S
C371 H375 0.950 . S
H372 C368 0.950 . S
C373 C371 1.390 . S
C373 C374 1.387 . S
C373 H376 0.950 . S
C374 C373 1.387 . S
C374 C377 1.387 . S
H375 C371 0.950 . S
H376 C373 0.950 . S
C377 C368 1.390 . S
C377 H370 0.950 . S
C377 C374 1.387 . S
C378 C379 1.387 1_565 S
C378 H382 0.950 . S
C378 C387 1.390 1_565 S
C379 C378 1.387 1_545 S
C379 C381 1.387 . S
H380 C387 0.950 . S
C381 C379 1.387 . S
C381 C383 1.390 . S
C381 H385 0.950 . S
H382 C378 0.950 . S
C383 C381 1.390 . S
C383 C384 1.387 . S
C383 H386 0.950 . S
C384 C383 1.387 . S
C384 C387 1.387 . S
H385 C381 0.950 . S
H386 C383 0.950 . S
C387 C378 1.390 1_545 S
C387 H380 0.950 . S
C387 C384 1.387 . S
C388 C389 1.387 . S
C388 H392 0.950 . S
C388 C397 1.390 . S
C389 C388 1.387 . S
C389 C391 1.387 . S
H390 C397 0.950 . S
C391 C389 1.387 . S
C391 C393 1.390 . S
C391 H395 0.950 . S
H392 C388 0.950 . S
C393 C391 1.390 . S
C393 C394 1.387 . S
C393 H396 0.950 . S
C394 C393 1.387 . S
C394 C397 1.387 . S
H395 C391 0.950 . S
H396 C393 0.950 . S
C397 C388 1.390 . S
C397 H390 0.950 . S
C397 C394 1.387 . S
C398 C399 1.387 . S
C398 H402 0.950 . S
C398 C407 1.390 . S
C399 C398 1.387 . S
C399 C401 1.387 . S
H400 C407 0.950 . S
C401 C399 1.387 . S
C401 C403 1.390 . S
C401 H405 0.950 . S
H402 C398 0.950 . S
C403 C401 1.390 . S
C403 C404 1.387 . S
C403 H406 0.950 . S
C404 C403 1.387 . S
C404 C407 1.387 . S
H405 C401 0.950 . S
H406 C403 0.950 . S
C407 C398 1.390 . S
C407 H400 0.950 . S
C407 C404 1.387 . S
C408 C409 1.387 . S
C408 H412 0.950 . S
C408 C417 1.390 . S
C409 C408 1.387 . S
C409 C411 1.387 1_455 S
H410 C417 0.950 . S
C411 C409 1.387 1_655 S
C411 C413 1.390 . S
C411 H415 0.950 . S
H412 C408 0.950 . S
C413 C411 1.390 . S
C413 C414 1.387 1_655 S
C413 H416 0.950 . S
C414 C413 1.387 1_455 S
C414 C417 1.387 . S
H415 C411 0.950 . S
H416 C413 0.950 . S
C417 C408 1.390 . S
C417 H410 0.950 . S
C417 C414 1.387 . S
C418 C419 1.387 1_565 S
C418 H422 0.950 . S
C418 C427 1.390 . S
C419 C418 1.387 1_545 S
C419 C421 1.387 . S
H420 C427 0.950 . S
C421 C419 1.387 . S
C421 C423 1.390 . S
C421 H425 0.950 . S
H422 C418 0.950 . S
C423 C421 1.390 . S
C423 C424 1.387 . S
C423 H426 0.950 . S
C424 C423 1.387 . S
C424 C427 1.387 1_545 S
H425 C421 0.950 . S
H426 C423 0.950 . S
C427 C418 1.390 . S
C427 H420 0.950 . S
C427 C424 1.387 1_565 S
C428 C429 1.387 . S
C428 H432 0.950 . S
C428 C437 1.390 . S
C429 C428 1.387 . S
C429 C431 1.387 . S
H430 C437 0.950 . S
C431 C429 1.387 . S
C431 C433 1.390 . S
C431 H435 0.950 . S
H432 C428 0.950 . S
C433 C431 1.390 . S
C433 C434 1.387 . S
C433 H436 0.950 . S
C434 C433 1.387 . S
C434 C437 1.387 . S
H435 C431 0.950 . S
H436 C433 0.950 . S
C437 C428 1.390 . S
C437 H430 0.950 . S
C437 C434 1.387 . S
C438 C439 1.387 . S
C438 H442 0.950 . S
C438 C447 1.390 . S
C439 C438 1.387 . S
C439 C441 1.387 . S
H440 C447 0.950 . S
C441 C439 1.387 . S
C441 C443 1.390 . S
C441 H445 0.950 . S
H442 C438 0.950 . S
C443 C441 1.390 . S
C443 C444 1.387 . S
C443 H446 0.950 . S
C444 C443 1.387 . S
C444 C447 1.387 . S
H445 C441 0.950 . S
H446 C443 0.950 . S
C447 C438 1.390 . S
C447 H440 0.950 . S
C447 C444 1.387 . S
C448 C449 1.387 . S
C448 H452 0.950 . S
C448 C457 1.390 . S
C449 C448 1.387 . S
C449 C451 1.387 1_655 S
H450 C457 0.950 . S
C451 C449 1.387 1_455 S
C451 C453 1.390 1_455 S
C451 H455 0.950 . S
H452 C448 0.950 . S
C453 C451 1.390 1_655 S
C453 C454 1.387 . S
C453 H456 0.950 1_655 S
C454 C453 1.387 . S
C454 C457 1.387 . S
H455 C451 0.950 . S
H456 C453 0.950 1_455 S
C457 C448 1.390 . S
C457 H450 0.950 . S
C457 C454 1.387 . S
C458 C459 1.387 1_545 S
C458 H462 0.950 . S
C458 C467 1.390 . S
C459 C458 1.387 1_565 S
C459 C461 1.387 . S
H460 C467 0.950 . S
C461 C459 1.387 . S
C461 C463 1.390 . S
C461 H465 0.950 . S
H462 C458 0.950 . S
C463 C461 1.390 . S
C463 C464 1.387 . S
C463 H466 0.950 . S
C464 C463 1.387 . S
C464 C467 1.387 1_565 S
H465 C461 0.950 . S
H466 C463 0.950 . S
C467 C458 1.390 . S
C467 H460 0.950 . S
C467 C464 1.387 1_545 S
C468 C469 1.387 . S
C468 H472 0.950 . S
C468 C477 1.390 . S
C469 C468 1.387 . S
C469 C471 1.387 . S
H470 C477 0.950 . S
C471 C469 1.387 . S
C471 C473 1.390 . S
C471 H475 0.950 . S
H472 C468 0.950 . S
C473 C471 1.390 . S
C473 C474 1.387 . S
C473 H476 0.950 . S
C474 C473 1.387 . S
C474 C477 1.387 . S
H475 C471 0.950 . S
H476 C473 0.950 . S
C477 C468 1.390 . S
C477 H470 0.950 . S
C477 C474 1.387 . S
C478 C479 1.387 . S
C478 H482 0.950 . S
C478 C487 1.390 . S
C479 C478 1.387 . S
C479 C481 1.387 . S
H480 C487 0.950 . S
C481 C479 1.387 . S
C481 C483 1.390 . S
C481 H485 0.950 . S
H482 C478 0.950 . S
C483 C481 1.390 . S
C483 C484 1.387 . S
C483 H486 0.950 . S
C484 C483 1.387 . S
C484 C487 1.387 . S
H485 C481 0.950 . S
H486 C483 0.950 . S
C487 C478 1.390 . S
C487 H480 0.950 . S
C487 C484 1.387 . S
C249 C74 1.945 . S
C254 C97 2.149 1_545 S
C264 C137 2.163 . S
C259 C85 1.948 . S
C274 C177 2.170 . S
C269 C52 1.959 . S
C284 C217 2.156 1_455 S
C279 C63 1.950 . S
C294 C106 2.150 1_564 S
C289 C30 1.945 1_565 S
C299 C41 1.966 . S
C304 C146 2.165 1_554 S
C309 C8 1.973 . S
C314 C186 2.169 1_554 S
C319 C19 1.953 1_655 S
C324 C226 2.156 1_654 S
C334 C103 0.884 . S
C329 C62 0.936 1_655 S
C344 C143 0.884 . S
C339 C73 0.936 1_565 S
C354 C183 0.882 . S
C349 C84 0.925 . S
C359 C51 0.925 . S
C364 C223 0.871 . S
C369 C18 0.870 . S
C374 C94 0.895 . S
C384 C134 0.885 . S
C379 C29 0.861 . S
C394 C174 0.882 . S
C389 C40 0.867 . S
C399 C7 0.860 . S
C404 C214 0.878 . S
C409 C60 1.943 . S
C414 C107 2.579 . S
C419 C71 1.910 . S
C424 C147 2.554 . S
C434 C187 2.544 . S
C429 C82 1.877 . S
C444 C227 2.573 . S
C439 C49 1.902 . S
C449 C16 2.067 1_655 S
C454 C98 2.587 . S
C464 C138 2.555 . S
C459 C27 2.044 1_565 S
C474 C178 2.545 . S
C469 C38 2.071 . S
C479 C5 2.089 . S
C484 C218 2.577 . S
