# Generated by pormake.
# Topology apo, (3,6)-cn, num edge types: 1
# Building blocks:
#     Node 0, Type 0, BuildingBlock: WUSLED_clean_sbu_0, # of connection points: 3
#     Node 1, Type 0, BuildingBlock: WUSLED_clean_sbu_0, # of connection points: 3
#     Node 2, Type 0, BuildingBlock: WUSLED_clean_sbu_0, # of connection points: 3
#     Node 3, Type 0, BuildingBlock: WUSLED_clean_sbu_0, # of connection points: 3
#     Node 4, Type 0, BuildingBlock: WUSLED_clean_sbu_0, # of connection points: 3
#     Node 5, Type 0, BuildingBlock: WUSLED_clean_sbu_0, # of connection points: 3
#     Node 6, Type 0, BuildingBlock: WUSLED_clean_sbu_0, # of connection points: 3
#     Node 7, Type 0, BuildingBlock: WUSLED_clean_sbu_0, # of connection points: 3
#     Node 8, Type 1, BuildingBlock: KUMBOL_clean_sbu_1, # of connection points: 6
#     Node 9, Type 1, BuildingBlock: KUMBOL_clean_sbu_1, # of connection points: 6
#     Node 10, Type 1, BuildingBlock: KUMBOL_clean_sbu_1, # of connection points: 6
#     Node 11, Type 1, BuildingBlock: KUMBOL_clean_sbu_1, # of connection points: 6
#     Edge 12, Type (0, 1), BuildingBlock: OJICUG_clean_linker_0, # of connection points: 2
#     Edge 13, Type (0, 1), BuildingBlock: OJICUG_clean_linker_0, # of connection points: 2
#     Edge 14, Type (0, 1), BuildingBlock: OJICUG_clean_linker_0, # of connection points: 2
#     Edge 15, Type (0, 1), BuildingBlock: OJICUG_clean_linker_0, # of connection points: 2
#     Edge 16, Type (0, 1), BuildingBlock: OJICUG_clean_linker_0, # of connection points: 2
#     Edge 17, Type (0, 1), BuildingBlock: OJICUG_clean_linker_0, # of connection points: 2
#     Edge 18, Type (0, 1), BuildingBlock: OJICUG_clean_linker_0, # of connection points: 2
#     Edge 19, Type (0, 1), BuildingBlock: OJICUG_clean_linker_0, # of connection points: 2
#     Edge 20, Type (0, 1), BuildingBlock: OJICUG_clean_linker_0, # of connection points: 2
#     Edge 21, Type (0, 1), BuildingBlock: OJICUG_clean_linker_0, # of connection points: 2
#     Edge 22, Type (0, 1), BuildingBlock: OJICUG_clean_linker_0, # of connection points: 2
#     Edge 23, Type (0, 1), BuildingBlock: OJICUG_clean_linker_0, # of connection points: 2
#     Edge 24, Type (0, 1), BuildingBlock: OJICUG_clean_linker_0, # of connection points: 2
#     Edge 25, Type (0, 1), BuildingBlock: OJICUG_clean_linker_0, # of connection points: 2
#     Edge 26, Type (0, 1), BuildingBlock: OJICUG_clean_linker_0, # of connection points: 2
#     Edge 27, Type (0, 1), BuildingBlock: OJICUG_clean_linker_0, # of connection points: 2
#     Edge 28, Type (0, 1), BuildingBlock: OJICUG_clean_linker_0, # of connection points: 2
#     Edge 29, Type (0, 1), BuildingBlock: OJICUG_clean_linker_0, # of connection points: 2
#     Edge 30, Type (0, 1), BuildingBlock: OJICUG_clean_linker_0, # of connection points: 2
#     Edge 31, Type (0, 1), BuildingBlock: OJICUG_clean_linker_0, # of connection points: 2
#     Edge 32, Type (0, 1), BuildingBlock: OJICUG_clean_linker_0, # of connection points: 2
#     Edge 33, Type (0, 1), BuildingBlock: OJICUG_clean_linker_0, # of connection points: 2
#     Edge 34, Type (0, 1), BuildingBlock: OJICUG_clean_linker_0, # of connection points: 2
#     Edge 35, Type (0, 1), BuildingBlock: OJICUG_clean_linker_0, # of connection points: 2
# Relax obj value: 0.009
# Max RMSD: 0.112
# Mean RMSD: 0.083
data_MOF--net-apo--node1-WUSLED_clean_sbu_0--node2-KUMBOL_clean_sbu_1--edge1-OJICUG_clean_linker_0
_symmetry_space_group_name_H-M    P1
_symmetry_Int_Tables_number       1
_symmetry_cell_setting            triclinic
loop_
_symmetry_equiv_pos_as_xyz
'x, y, z'
_cell_length_a     25.456545
_cell_length_b     43.58257
_cell_length_c     53.475554
_cell_angle_alpha  90.357193
_cell_angle_beta   90.170899
_cell_angle_gamma 90.329639
loop_
_atom_site_label
_atom_site_type_symbol
_atom_site_fract_x
_atom_site_fract_y
_atom_site_fract_z
_atom_type_partial_charge
C0 C 0.31552 0.43554 0.36991 0.0
C1 C 0.30603 0.46485 0.38002 0.0
C2 C 0.3613 0.48827 0.34813 0.0
C3 C 0.32852 0.49096 0.36916 0.0
C4 C 0.37091 0.45889 0.33818 0.0
C5 C 0.34811 0.43285 0.34891 0.0
U6 U 0.27814 0.38223 0.42439 0.0
O7 O 0.2045 0.35642 0.43039 0.0
O8 O 0.27889 0.33181 0.42608 0.0
C9 C 0.22735 0.32973 0.42709 0.0
C10 C 0.29097 0.40757 0.38034 0.0
C11 C 0.20157 0.30866 0.40882 0.0
C12 C 0.20326 0.27714 0.37095 0.0
C13 C 0.22838 0.29724 0.38777 0.0
C14 C 0.12387 0.27983 0.39563 0.0
C15 C 0.15065 0.26823 0.37465 0.0
C16 C 0.14912 0.2997 0.41255 0.0
C17 C 0.32343 0.41011 0.49125 0.0
C18 C 0.33309 0.38308 0.53077 0.0
C19 C 0.34539 0.43816 0.52933 0.0
C20 C 0.33437 0.43777 0.50374 0.0
C21 C 0.34572 0.41082 0.54316 0.0
C22 C 0.32228 0.38269 0.50494 0.0
C23 C 0.31687 0.41101 0.46381 0.0
O24 O 0.32338 0.38712 0.38951 0.0
O25 O 0.24879 0.41145 0.3941 0.0
O26 O 0.26931 0.41585 0.45511 0.0
O27 O 0.34353 0.39099 0.45053 0.0
H28 H 0.28119 0.46764 0.39628 0.0
H29 H 0.32084 0.51324 0.37742 0.0
H30 H 0.39549 0.45605 0.32184 0.0
H31 H 0.35574 0.41053 0.34069 0.0
H32 H 0.22483 0.26889 0.35486 0.0
H33 H 0.26875 0.30383 0.38424 0.0
H34 H 0.08354 0.27316 0.39919 0.0
H35 H 0.12761 0.30806 0.42864 0.0
H36 H 0.33309 0.36162 0.54088 0.0
H37 H 0.35392 0.45999 0.53829 0.0
H38 H 0.3354 0.45918 0.49354 0.0
H39 H 0.31402 0.36105 0.49563 0.0
C40 C 0.22004 0.14674 0.99948 0.0
C41 C 0.21576 0.1168 1.00886 0.0
C42 C 0.20151 0.13693 0.05111 0.0
C43 C 0.2067 0.11195 0.03442 0.0
C44 C 0.20462 0.16685 0.04141 0.0
C45 C 0.21383 0.17165 1.01592 0.0
U46 U 0.22158 0.12672 0.92874 0.0
O47 O 0.21041 0.1572 0.89648 0.0
O48 O 0.28518 0.13313 0.90137 0.0
C49 C 0.2587 0.15339 0.88838 0.0
C50 C 0.23308 0.15278 0.973 0.0
C51 C 0.28816 0.18098 0.87998 0.0
C52 C 0.29294 0.23562 0.87042 0.0
C53 C 0.26662 0.21062 0.88121 0.0
C54 C 0.36318 0.20198 0.85747 0.0
C55 C 0.34121 0.23152 0.85806 0.0
C56 C 0.33692 0.17707 0.8682 0.0
C57 C 0.159 0.05175 0.90368 0.0
C58 C 0.11625 0.0403 0.86382 0.0
C59 C 0.15216 0.99902 0.88851 0.0
C60 C 0.16882 0.02032 0.90664 0.0
C61 C 0.12486 1.00869 0.86707 0.0
C62 C 0.13328 0.06162 0.88187 0.0
C63 C 0.17353 0.07342 0.92408 0.0
O64 O 0.26858 0.13489 0.96276 0.0
O65 O 0.19334 0.15848 0.95802 0.0
O66 O 0.14873 0.09981 0.9246 0.0
O67 O 0.22393 0.0761 0.92909 0.0
H68 H 0.22012 0.09719 0.99651 0.0
H69 H 0.20386 0.08861 0.04113 0.0
H70 H 0.20156 0.18665 0.05364 0.0
H71 H 0.21712 0.19494 1.00911 0.0
H72 H 0.27459 0.25796 0.87106 0.0
H73 H 0.22886 0.21444 0.88993 0.0
H74 H 0.40064 0.19799 0.8485 0.0
H75 H 0.35429 0.15449 0.86676 0.0
H76 H 0.09591 0.04855 0.84739 0.0
H77 H 0.15898 0.97486 0.89175 0.0
H78 H 0.18845 0.01213 0.9233 0.0
H79 H 0.12548 0.08574 0.87894 0.0
C80 C 0.81959 0.08749 0.69385 0.0
C81 C 0.79935 0.05943 0.68482 0.0
C82 C 0.85334 0.03128 0.71459 0.0
C83 C 0.81607 0.03163 0.69508 0.0
C84 C 0.87391 0.05942 0.72332 0.0
C85 C 0.85703 0.08714 0.71316 0.0
U86 U 0.79893 0.14955 0.64324 0.0
O87 O 0.73063 0.17917 0.63693 0.0
O88 O 0.8065 0.19971 0.64745 0.0
C89 C 0.75609 0.20422 0.6437 0.0
C90 C 0.80036 0.11739 0.68464 0.0
C91 C 0.72956 0.22359 0.66241 0.0
C92 C 0.68405 0.23005 0.70208 0.0
C93 C 0.71164 0.21149 0.68515 0.0
C94 C 0.6935 0.2731 0.67399 0.0
C95 C 0.6739 0.26099 0.69649 0.0
C96 C 0.72093 0.25457 0.65714 0.0
C97 C 0.84865 0.13662 0.57582 0.0
C98 C 0.87035 0.17499 0.54453 0.0
C99 C 0.85669 0.12207 0.53198 0.0
C100 C 0.8467 0.11424 0.55686 0.0
C101 C 0.86911 0.15249 0.52549 0.0
C102 C 0.86004 0.16716 0.56943 0.0
C103 C 0.84047 0.12724 0.60204 0.0
O104 O 0.83662 0.13778 0.679 0.0
O105 O 0.76079 0.11693 0.66876 0.0
O106 O 0.7916 0.12192 0.60869 0.0
O107 O 0.86765 0.14228 0.61916 0.0
H108 H 0.77013 0.05888 0.67006 0.0
H109 H 0.79898 1.01045 0.68805 0.0
H110 H 0.90337 0.06009 0.73796 0.0
H111 H 0.87305 0.10843 0.72057 0.0
H112 H 0.66927 0.21994 0.71914 0.0
H113 H 0.71816 0.18758 0.68959 0.0
H114 H 0.6873 0.29695 0.66928 0.0
H115 H 0.73483 0.26438 0.63978 0.0
H116 H 0.87908 0.1987 0.54015 0.0
H117 H 0.85591 0.10411 0.51789 0.0
H118 H 0.83813 0.09054 0.56138 0.0
H119 H 0.86145 0.1849 0.5837 0.0
C120 C 0.71601 0.35155 0.06521 0.0
C121 C 0.71477 0.38054 0.0539 0.0
C122 C 0.70034 0.35672 1.01287 0.0
C123 C 0.70715 0.38309 1.02798 0.0
C124 C 0.70062 0.32781 1.02447 0.0
C125 C 0.70843 0.32529 0.05031 0.0
U126 U 0.714 0.37898 0.13414 0.0
O127 O 0.69687 0.35258 0.16828 0.0
O128 O 0.77408 0.37439 0.16345 0.0
C129 C 0.74443 0.35664 0.1774 0.0
C130 C 0.72669 0.34788 0.09225 0.0
C131 C 0.76997 0.32957 0.18844 0.0
C132 C 0.83443 0.28857 0.18735 0.0
C133 C 0.80797 0.31258 0.17547 0.0
C134 C 0.78439 0.29781 0.22506 0.0
C135 C 0.82339 0.2811 0.21242 0.0
C136 C 0.75807 0.32177 0.21319 0.0
C137 C 0.6569 0.45707 0.15265 0.0
C138 C 0.62322 0.47206 0.19353 0.0
C139 C 0.64703 0.51099 0.16347 0.0
C140 C 0.66175 0.48813 0.14644 0.0
C141 C 0.62673 0.50329 0.18711 0.0
C142 C 0.63827 0.44917 0.1765 0.0
C143 C 0.67045 0.43347 0.13381 0.0
O144 O 0.76302 0.36594 0.102 0.0
O145 O 0.68538 0.34469 0.10671 0.0
O146 O 0.64332 0.40772 0.1346 0.0
O147 O 0.72087 0.42917 0.13004 0.0
H148 H 0.7202 0.40117 0.06504 0.0
H149 H 0.70652 0.40574 1.01977 0.0
H150 H 0.69621 0.30699 1.01349 0.0
H151 H 0.70935 0.3027 0.05864 0.0
H152 H 0.86453 0.2764 0.17709 0.0
H153 H 0.81789 0.31825 0.15635 0.0
H154 H 0.77416 0.2924 0.24418 0.0
H155 H 0.72885 0.33459 0.22353 0.0
H156 H 0.60742 0.46521 0.21144 0.0
H157 H 0.65136 0.53475 0.15801 0.0
H158 H 0.67646 0.49475 0.12825 0.0
H159 H 0.63452 0.42532 0.18183 0.0
C160 C 0.6573 0.58057 0.69112 0.0
C161 C 0.6657 0.5512 0.68088 0.0
C162 C 0.6117 0.528 0.71346 0.0
C163 C 0.64325 0.52519 0.69199 0.0
C164 C 0.60286 0.55748 0.7234 0.0
C165 C 0.62552 0.5834 0.7124 0.0
U166 U 0.69757 0.6357 0.63775 0.0
O167 O 0.69963 0.68619 0.63797 0.0
O168 O 0.77247 0.66042 0.63248 0.0
C169 C 0.751 0.6875 0.63573 0.0
C170 C 0.68311 0.60836 0.68093 0.0
C171 C 0.77872 0.70861 0.65303 0.0
C172 C 0.79858 0.72762 0.69495 0.0
C173 C 0.77238 0.70679 0.67906 0.0
C174 C 0.83796 0.75203 0.65897 0.0
C175 C 0.83158 0.75063 0.68508 0.0
C176 C 0.81179 0.73127 0.64317 0.0
C177 C 0.65689 0.61821 0.56951 0.0
C178 C 0.69107 0.6444 0.53288 0.0
C179 C 0.6183 0.60877 0.52844 0.0
C180 C 0.61974 0.60331 0.55422 0.0
C181 C 0.65412 0.62927 0.51734 0.0
C182 C 0.69239 0.63896 0.55869 0.0
C183 C 0.65836 0.61131 0.59651 0.0
O184 O 0.72488 0.60416 0.66693 0.0
O185 O 0.65181 0.6298 0.67239 0.0
O186 O 0.63189 0.62999 0.6111 0.0
O187 O 0.70449 0.60398 0.60576 0.0
H188 H 0.68993 0.54827 0.66443 0.0
H189 H 0.65035 0.50288 0.68368 0.0
H190 H 0.57933 0.56048 0.74007 0.0
H191 H 0.6188 0.60574 0.72076 0.0
H192 H 0.79234 0.72601 0.71492 0.0
H193 H 0.74695 0.68943 0.68705 0.0
H194 H 0.86368 0.76902 0.6507 0.0
H195 H 0.81737 0.73296 0.62314 0.0
H196 H 0.71973 0.66004 0.52504 0.0
H197 H 0.58879 0.59706 0.51724 0.0
H198 H 0.59186 0.5873 0.56222 0.0
H199 H 0.72141 0.65071 0.57017 0.0
C200 C 0.79187 0.85673 0.06761 0.0
C201 C 0.77045 0.88053 0.05321 0.0
C202 C 0.81281 0.86047 1.01568 0.0
C203 C 0.78073 0.88232 1.02754 0.0
C204 C 0.83583 0.8374 0.03029 0.0
C205 C 0.82524 0.83548 0.05592 0.0
U206 U 0.78553 0.88164 0.13705 0.0
O207 O 0.72077 0.8777 0.16396 0.0
O208 O 0.79499 0.85391 0.17113 0.0
C209 C 0.7461 0.85817 0.17817 0.0
C210 C 0.77694 0.85224 0.09416 0.0
C211 C 0.71663 0.83066 0.18664 0.0
C212 C 0.63579 0.80056 0.18937 0.0
C213 C 0.66428 0.82511 0.17927 0.0
C214 C 0.71158 0.78625 0.21402 0.0
C215 C 0.65899 0.78097 0.20699 0.0
C216 C 0.73993 0.81088 0.20404 0.0
C217 C 0.84673 0.95887 0.15797 0.0
C218 C 0.89398 0.97584 0.19533 0.0
C219 C 0.84341 0.0123 0.17142 0.0
C220 C 0.82881 0.98897 0.15467 0.0
C221 C 0.87676 1.00616 0.19181 0.0
C222 C 0.8791 0.95245 0.17863 0.0
C223 C 0.83342 0.93516 0.13896 0.0
O224 O 0.8156 0.84759 0.11004 0.0
O225 O 0.74012 0.87019 0.1032 0.0
O226 O 0.78331 0.93198 0.13344 0.0
O227 O 0.8582 0.90883 0.14051 0.0
H228 H 0.74468 0.89737 0.06158 0.0
H229 H 0.76282 0.90054 1.01686 0.0
H230 H 0.8602 0.82001 1.02171 0.0
H231 H 0.84199 0.81679 0.0665 0.0
H232 H 0.59554 0.79692 0.18338 0.0
H233 H 0.64493 0.83997 0.166 0.0
H234 H 0.73041 0.77184 0.22779 0.0
H235 H 0.7799 0.81484 0.21035 0.0
H236 H 0.92018 0.97026 0.2106 0.0
H237 H 0.8286 0.03521 0.16832 0.0
H238 H 0.80389 0.99456 0.1389 0.0
H239 H 0.89375 0.9295 0.18171 0.0
C240 C 0.18628 0.93884 0.37144 0.0
C241 C 0.13918 0.95124 0.38051 0.0
C242 C 0.14293 0.99189 0.3492 0.0
C243 C 0.11771 0.97749 0.36948 0.0
C244 C 0.1905 0.97954 0.34051 0.0
C245 C 0.21181 0.95333 0.35149 0.0
U246 U 0.2203 0.88035 0.42378 0.0
O247 O 0.21907 0.82995 0.42147 0.0
O248 O 0.29365 0.85419 0.4281 0.0
C249 C 0.27042 0.82777 0.4234 0.0
C250 C 0.2087 0.91021 0.38149 0.0
C251 C 0.29669 0.80769 0.40498 0.0
C252 C 0.3036 0.78487 0.36341 0.0
C253 C 0.27906 0.80514 0.38012 0.0
C254 C 0.36436 0.77006 0.39602 0.0
C255 C 0.34633 0.76683 0.37121 0.0
C256 C 0.33973 0.79018 0.41268 0.0
C257 C 0.18257 0.89367 0.49295 0.0
C258 C 0.22592 0.87632 0.53102 0.0
C259 C 0.13457 0.8912 0.53228 0.0
C260 C 0.13615 0.89765 0.50665 0.0
C261 C 0.17958 0.88073 0.54494 0.0
C262 C 0.22737 0.88263 0.50534 0.0
C263 C 0.18373 0.9024 0.46618 0.0
O264 O 0.25021 0.91326 0.39599 0.0
O265 O 0.17534 0.88928 0.3894 0.0
O266 O 0.15542 0.88537 0.45081 0.0
O267 O 0.22977 0.91003 0.45692 0.0
H268 H 0.11865 0.94045 0.39587 0.0
H269 H 0.08075 0.9861 0.37653 0.0
H270 H 0.21156 0.99022 0.32527 0.0
H271 H 0.24821 0.94416 0.34421 0.0
H272 H 0.28835 0.78287 0.34454 0.0
H273 H 0.24598 0.81852 0.3737 0.0
H274 H 0.39777 0.7571 0.40261 0.0
H275 H 0.35418 0.79193 0.43173 0.0
H276 H 0.2616 0.86866 0.54005 0.0
H277 H 0.09789 0.89437 0.54214 0.0
H278 H 0.10104 0.90607 0.49753 0.0
H279 H 0.26379 0.8793 0.49528 0.0
C280 C 0.30892 0.67298 0.99075 0.0
C281 C 0.29244 0.65009 1.00751 0.0
C282 C 0.34735 0.6723 0.04063 0.0
C283 C 0.31137 0.64982 0.0322 0.0
C284 C 0.36385 0.695 1.02373 0.0
C285 C 0.34478 0.69536 0.99918 0.0
U286 U 0.28525 0.64189 0.92363 0.0
O287 O 0.21695 0.64646 0.89867 0.0
O288 O 0.29305 0.66607 0.88772 0.0
C289 C 0.24288 0.66304 0.88229 0.0
C290 C 0.28795 0.67507 0.96487 0.0
C291 C 0.21626 0.69039 0.87204 0.0
C292 C 0.14161 0.72503 0.87 0.0
C293 C 0.16851 0.70114 0.88179 0.0
C294 C 0.21018 0.7283 0.83887 0.0
C295 C 0.1618 0.73871 0.84821 0.0
C296 C 0.23693 0.70438 0.8506 0.0
C297 C 0.33447 0.5624 0.9034 0.0
C298 C 0.37929 0.54168 0.86683 0.0
C299 C 0.3154 0.51049 0.8886 0.0
C300 C 0.30683 0.53455 0.90555 0.0
C301 C 0.3522 0.5136 0.86918 0.0
C302 C 0.37053 0.56577 0.8837 0.0
C303 C 0.32709 0.58697 0.92241 0.0
O304 O 0.32316 0.67744 0.94703 0.0
O305 O 0.24824 0.65702 0.95877 0.0
O306 O 0.27852 0.59201 0.9296 0.0
O307 O 0.3544 0.61237 0.91939 0.0
H308 H 0.26474 0.63251 1.00164 0.0
H309 H 0.29811 0.63188 0.04464 0.0
H310 H 0.39075 0.713 0.02962 0.0
H311 H 0.35769 0.71347 0.9868 0.0
H312 H 0.1042 0.73215 0.87759 0.0
H313 H 0.15128 0.69071 0.89818 0.0
H314 H 0.22743 0.73856 0.82241 0.0
H315 H 0.27348 0.69639 0.8426 0.0
H316 H 0.40862 0.54476 0.85242 0.0
H317 H 0.29341 0.48935 0.89085 0.0
H318 H 0.27898 0.5312 0.92058 0.0
H319 H 0.39285 0.5868 0.88151 0.0
C320 C 0.828 0.11924 0.29114 0.0
C321 C 0.81985 0.06443 0.29817 0.0
C322 C 0.84914 0.09192 0.29952 0.0
C323 C 0.76987 0.06451 0.28698 0.0
C324 C 0.77666 0.11969 0.28114 0.0
C325 C 0.74837 0.09208 0.27843 0.0
N326 N 0.85594 0.14562 0.29462 0.0
C327 C 0.83233 0.17336 0.2912 0.0
C328 C 0.75442 0.14803 0.27522 0.0
C329 C 0.782 0.17501 0.28076 0.0
Gd330 Gd 0.05113 0.14691 0.25488 0.0
Gd331 Gd 0.94199 0.13978 0.31036 0.0
N332 N 0.89781 0.0925 0.30994 0.0
C333 C 0.84112 0.03791 0.30877 0.0
C334 C 0.91753 0.06727 0.32162 0.0
C335 C 0.88979 0.03947 0.32093 0.0
H336 H 0.95517 0.06859 0.33098 0.0
H337 H 0.906 0.01928 0.32967 0.0
H338 H 0.00634 0.20894 0.22361 0.0
H339 H 0.85174 0.19436 0.29685 0.0
H340 H 0.02843 0.26368 0.21969 0.0
H341 H 0.81976 0.01634 0.30819 0.0
H342 H 0.74697 0.04354 0.28548 0.0
H343 H 0.15496 0.11367 0.28094 0.0
H344 H 0.71512 0.14938 0.26748 0.0
H345 H 0.76413 0.1971 0.27745 0.0
H346 H 0.19349 0.27404 0.26252 0.0
H347 H 0.70911 0.09195 0.27054 0.0
H348 H 0.27172 0.18282 0.29534 0.0
H349 H 0.24263 0.12859 0.29722 0.0
N350 N 0.13482 0.15904 0.27045 0.0
C351 C 0.15077 0.18869 0.26833 0.0
C352 C 0.1674 0.13738 0.28018 0.0
C353 C 0.23337 0.17638 0.28813 0.0
C354 C 0.21704 0.14574 0.28929 0.0
C355 C 0.20022 0.19829 0.27747 0.0
H356 H 0.25261 0.23717 0.28275 0.0
N357 N 0.07043 0.19911 0.24784 0.0
C358 C 0.11716 0.20944 0.2571 0.0
C359 C 0.09931 0.26028 0.24157 0.0
C360 C 0.13258 0.24039 0.25448 0.0
C361 C 0.04006 0.21785 0.23351 0.0
C362 C 0.05329 0.24882 0.23067 0.0
O363 O 0.94971 0.10138 0.28159 0.0
O364 O 0.96939 0.12939 0.24721 0.0
O365 O 0.07364 0.15367 0.21609 0.0
O366 O 0.08559 0.1096 0.23328 0.0
O367 O 0.02053 0.11671 0.31662 0.0
O368 O 0.05531 0.10316 0.27784 0.0
O369 O 0.06946 0.16259 0.2947 0.0
O370 O 0.9915 0.18276 0.30776 0.0
O371 O 0.96542 0.13518 0.34933 0.0
O372 O 0.88839 0.152 0.34033 0.0
O373 O 0.97039 0.16742 0.24818 0.0
O374 O 0.94152 0.18347 0.28704 0.0
C375 C 0.95082 0.10433 0.25721 0.0
C376 C 0.0489 0.0986 0.30213 0.0
C377 C 0.14179 0.12336 0.19942 0.0
C378 C 0.18851 0.12282 0.15931 0.0
C379 C 0.23606 0.1158 0.19848 0.0
C380 C 0.18941 0.11844 0.21195 0.0
C381 C 0.23574 0.11795 0.17242 0.0
C382 C 0.14155 0.12566 0.17311 0.0
C383 C 0.09188 0.12612 0.21325 0.0
C384 C 0.1812 0.25029 0.26419 0.0
C385 C 0.21496 0.22928 0.27563 0.0
H386 H 0.10972 0.28422 0.23915 0.0
C387 C 0.04305 0.1829 0.30778 0.0
C388 C 0.9425 0.18596 0.26244 0.0
C389 C 0.92655 0.16939 0.37807 0.0
C390 C 0.91926 0.18339 0.42237 0.0
C391 C 0.94616 0.22139 0.39158 0.0
C392 C 0.94175 0.19951 0.37252 0.0
C393 C 0.93492 0.21349 0.4163 0.0
C394 C 0.91541 0.16138 0.40295 0.0
C395 C 0.92177 0.14619 0.35808 0.0
H396 H 0.27272 0.11212 0.20829 0.0
H397 H 0.1906 0.11654 0.23209 0.0
H398 H 0.27271 0.1162 0.16256 0.0
H399 H 0.10464 0.1292 0.16341 0.0
H400 H 0.95791 0.24464 0.38716 0.0
H401 H 0.94978 0.20605 0.35343 0.0
H402 H 0.93762 0.23116 0.43058 0.0
H403 H 0.90418 0.13795 0.40713 0.0
C404 C 0.63124 0.429 0.80085 0.0
C405 C 0.60536 0.47697 0.82016 0.0
C406 C 0.59544 0.44578 0.81466 0.0
C407 C 0.65055 0.49126 0.81055 0.0
C408 C 0.67756 0.44289 0.79187 0.0
C409 C 0.68663 0.47424 0.79647 0.0
N410 N 0.62055 0.39896 0.79613 0.0
C411 C 0.65594 0.38093 0.78389 0.0
C412 C 0.71335 0.42478 0.7786 0.0
C413 C 0.7027 0.3936 0.77481 0.0
Gd414 Gd 0.42852 0.37191 0.75722 0.0
Gd415 Gd 0.541 0.37948 0.81162 0.0
N416 N 0.55229 0.43119 0.82377 0.0
C417 C 0.57043 0.49257 0.83583 0.0
C418 C 0.52124 0.44548 0.84095 0.0
C419 C 0.52875 0.47656 0.84668 0.0
H420 H 0.49155 0.43274 0.8508 0.0
H421 H 0.50301 0.48795 0.85982 0.0
H422 H 0.45276 0.30428 0.73118 0.0
H423 H 0.64803 0.35679 0.78114 0.0
H424 H 0.41333 0.25207 0.72968 0.0
H425 H 0.57657 0.51655 0.8405 0.0
H426 H 0.65856 0.51529 0.81437 0.0
H427 H 0.33169 0.41861 0.77904 0.0
H428 H 0.74945 0.43458 0.77142 0.0
H429 H 0.73044 0.37932 0.76488 0.0
H430 H 0.25666 0.26121 0.7791 0.0
H431 H 0.72172 0.48543 0.7895 0.0
H432 H 0.20871 0.36169 0.8074 0.0
H433 H 0.24743 0.41318 0.80088 0.0
N434 N 0.3445 0.3704 0.77584 0.0
C435 C 0.32193 0.34212 0.77754 0.0
C436 C 0.31696 0.39586 0.78287 0.0
C437 C 0.24661 0.36385 0.79839 0.0
C438 C 0.2684 0.39294 0.79481 0.0
C439 C 0.27266 0.33803 0.78909 0.0
H440 H 0.21258 0.30494 0.79923 0.0
N441 N 0.39344 0.32223 0.75484 0.0
C442 C 0.34659 0.31741 0.76623 0.0
C443 C 0.34773 0.26428 0.75308 0.0
C444 C 0.32293 0.2881 0.76611 0.0
C445 C 0.41657 0.29962 0.74103 0.0
C446 C 0.39438 0.27019 0.74017 0.0
O447 O 0.55261 0.40148 0.7734 0.0
O448 O 0.47056 0.4174 0.76155 0.0
O449 O 0.44677 0.37054 0.71752 0.0
O450 O 0.36999 0.38467 0.7295 0.0
O451 O 0.45756 0.3944 0.82035 0.0
O452 O 0.42403 0.41316 0.78336 0.0
O453 O 0.44805 0.33203 0.78273 0.0
O454 O 0.46408 0.35564 0.82008 0.0
O455 O 0.56267 0.38245 0.85083 0.0
O456 O 0.58756 0.34343 0.82899 0.0
O457 O 0.51057 0.35611 0.74788 0.0
O458 O 0.55112 0.33942 0.78444 0.0
C459 C 0.52173 0.42141 0.76241 0.0
C460 C 0.42792 0.41378 0.80795 0.0
C461 C 0.40286 0.40628 0.69229 0.0
C462 C 0.39485 0.42407 0.64907 0.0
C463 C 0.41759 0.4599 0.68269 0.0
C464 C 0.41544 0.43621 0.70006 0.0
C465 C 0.40732 0.45397 0.65744 0.0
C466 C 0.39249 0.40025 0.66682 0.0
C467 C 0.40146 0.38119 0.7106 0.0
C468 C 0.27513 0.28366 0.77865 0.0
C469 C 0.25011 0.30855 0.79017 0.0
H470 H 0.33076 0.24143 0.75252 0.0
C471 C 0.44467 0.33258 0.80718 0.0
C472 C 0.54444 0.33859 0.75984 0.0
C473 C 0.64041 0.35868 0.86411 0.0
C474 C 0.68823 0.36124 0.90402 0.0
C475 C 0.73535 0.36352 0.86445 0.0
C476 C 0.68812 0.3611 0.85123 0.0
C477 C 0.73554 0.36363 0.89059 0.0
C478 C 0.64069 0.35867 0.89049 0.0
C479 C 0.58969 0.35732 0.85065 0.0
H480 H 0.42717 0.48298 0.68883 0.0
H481 H 0.42349 0.44122 0.71955 0.0
H482 H 0.40859 0.47297 0.6445 0.0
H483 H 0.3835 0.377 0.66084 0.0
H484 H 0.77206 0.36532 0.85438 0.0
H485 H 0.68894 0.3612 0.83102 0.0
H486 H 0.77288 0.36517 0.90028 0.0
H487 H 0.60372 0.35724 0.90044 0.0
C488 C 0.82446 0.84314 0.77935 0.0
C489 C 0.8229 0.78824 0.78693 0.0
C490 C 0.84779 0.81711 0.78903 0.0
C491 C 0.77507 0.7857 0.77393 0.0
C492 C 0.77538 0.84084 0.76714 0.0
C493 C 0.75144 0.81193 0.76399 0.0
N494 N 0.84843 0.87083 0.78298 0.0
C495 C 0.82258 0.89724 0.77712 0.0
C496 C 0.75101 0.86776 0.75918 0.0
C497 C 0.77429 0.89611 0.76461 0.0
Gd498 Gd 0.04376 0.88027 0.74922 0.0
Gd499 Gd 0.9313 0.86955 0.80298 0.0
N500 N 0.89479 0.82016 0.80091 0.0
C501 C 0.84673 0.76289 0.79815 0.0
C502 C 0.9172 0.79587 0.81279 0.0
C503 C 0.89378 0.7668 0.81138 0.0
H504 H 0.95348 0.79901 0.82307 0.0
H505 H 0.91202 0.74744 0.82045 0.0
H506 H 0.00341 0.94282 0.71774 0.0
H507 H 0.83821 0.91935 0.78249 0.0
H508 H 0.02666 0.99762 0.7148 0.0
H509 H 0.8288 0.74031 0.79698 0.0
H510 H 0.75564 0.76365 0.7718 0.0
H511 H 0.1467 0.84531 0.77474 0.0
H512 H 0.71331 0.86699 0.74973 0.0
H513 H 0.75461 0.91713 0.75955 0.0
H514 H 0.18982 1.00577 0.75961 0.0
H515 H 0.71399 0.80971 0.75445 0.0
H516 H 0.26425 0.91305 0.7917 0.0
H517 H 0.23378 0.85901 0.79221 0.0
N518 N 0.12767 0.89117 0.76526 0.0
C519 C 0.14453 0.92072 0.7638 0.0
C520 C 0.15943 0.86896 0.77473 0.0
C521 C 0.226 0.90715 0.78407 0.0
C522 C 0.20889 0.87663 0.78446 0.0
C523 C 0.19388 0.92963 0.7735 0.0
H524 H 0.24711 0.9679 0.77982 0.0
N525 N 0.06544 0.93227 0.74278 0.0
C526 C 0.11199 0.94202 0.75261 0.0
C527 C 0.09621 0.99329 0.73753 0.0
C528 C 0.12835 0.97287 0.75054 0.0
C529 C 0.03646 0.95146 0.72824 0.0
C530 C 0.05053 0.98238 0.72592 0.0
O531 O 0.94573 0.83323 0.77314 0.0
O532 O 0.96277 0.86277 0.73932 0.0
O533 O 0.06644 0.88758 0.71059 0.0
O534 O 0.07958 0.84341 0.72755 0.0
O535 O 0.01199 0.85069 0.81126 0.0
O536 O 0.04782 0.8369 0.77278 0.0
O537 O 0.06018 0.89686 0.78898 0.0
O538 O 0.98006 0.91308 0.80344 0.0
O539 O 0.94207 0.8612 0.84294 0.0
O540 O 0.8747 0.88616 0.83001 0.0
O541 O 0.96384 0.90187 0.74252 0.0
O542 O 0.93132 0.91445 0.7816 0.0
C543 C 0.94233 0.838 0.74904 0.0
C544 C 0.04309 0.83353 0.79731 0.0
C545 C 0.13462 0.85791 0.69329 0.0
C546 C 0.1794 0.86008 0.65274 0.0
C547 C 0.22836 0.84886 0.69082 0.0
C548 C 0.18252 0.85118 0.70498 0.0
C549 C 0.22692 0.85318 0.66493 0.0
C550 C 0.13333 0.86248 0.66722 0.0
C551 C 0.08528 0.86019 0.70761 0.0
C552 C 0.17681 0.98211 0.76084 0.0
C553 C 0.20953 0.96053 0.77227 0.0
H554 H 0.10734 0.01718 0.73551 0.0
C555 C 0.03147 0.91577 0.80234 0.0
C556 C 0.93622 0.9197 0.75744 0.0
C557 C 0.86312 0.85635 0.86616 0.0
C558 C 0.82834 0.84716 0.9081 0.0
C559 C 0.79142 0.82015 0.87216 0.0
C560 C 0.82618 0.83542 0.85641 0.0
C561 C 0.79224 0.82604 0.8978 0.0
C562 C 0.86446 0.86198 0.89216 0.0
C563 C 0.89768 0.87375 0.84914 0.0
H564 H 0.26525 0.8437 0.69995 0.0
H565 H 0.18452 0.84764 0.72497 0.0
H566 H 0.26321 0.85155 0.6545 0.0
H567 H 0.0962 0.86744 0.65817 0.0
H568 H 0.76314 0.80403 0.8644 0.0
H569 H 0.82333 0.83132 0.83656 0.0
H570 H 0.76447 0.81409 0.90964 0.0
H571 H 0.89214 0.87855 0.89982 0.0
C572 C 0.66834 0.66937 0.28784 0.0
C573 C 0.66308 0.72393 0.2968 0.0
C574 C 0.64028 0.69436 0.2969 0.0
C575 C 0.71362 0.72813 0.28686 0.0
C576 C 0.71933 0.67343 0.27816 0.0
C577 C 0.74166 0.70296 0.27759 0.0
N578 N 0.64532 0.64114 0.28815 0.0
C579 C 0.67141 0.61593 0.27967 0.0
C580 C 0.74618 0.6477 0.26915 0.0
C581 C 0.72218 0.61882 0.27001 0.0
Gd582 Gd 0.43809 0.64211 0.25487 0.0
Gd583 Gd 0.55947 0.6388 0.3036 0.0
N584 N 0.59084 0.6897 0.30587 0.0
C585 C 0.63463 0.74835 0.30695 0.0
C586 C 0.5648 0.713 0.31749 0.0
C587 C 0.58567 0.74275 0.31773 0.0
H588 H 0.5288 0.70876 0.3273 0.0
H589 H 0.56433 0.76124 0.32659 0.0
H590 H 0.45669 0.56753 0.24133 0.0
H591 H 0.65329 0.59351 0.28056 0.0
H592 H 0.40717 0.51888 0.24359 0.0
H593 H 0.65075 0.77142 0.30722 0.0
H594 H 0.73154 0.75073 0.28644 0.0
H595 H 0.35421 0.69762 0.27156 0.0
H596 H 0.78543 0.64987 0.26156 0.0
H597 H 0.74276 0.59877 0.26324 0.0
H598 H 0.23742 0.54859 0.27386 0.0
H599 H 0.78067 0.70657 0.27006 0.0
H600 H 0.20762 0.65529 0.29051 0.0
H601 H 0.26292 0.70189 0.28664 0.0
N602 N 0.3514 0.64904 0.26826 0.0
C603 C 0.32132 0.62322 0.26962 0.0
C604 C 0.33088 0.67709 0.27387 0.0
C605 C 0.24784 0.65325 0.28417 0.0
C606 C 0.27898 0.67961 0.28208 0.0
C607 C 0.26875 0.62462 0.27776 0.0
H608 H 0.19841 0.59815 0.28556 0.0
N609 N 0.39461 0.5945 0.25589 0.0
C610 C 0.34329 0.5952 0.26296 0.0
C611 C 0.33689 0.54022 0.25756 0.0
C612 C 0.31329 0.56798 0.26434 0.0
C613 C 0.4171 0.56774 0.24825 0.0
C614 C 0.38888 0.54016 0.24928 0.0
O615 O 0.5707 0.66097 0.26562 0.0
O616 O 0.49177 0.68355 0.2568 0.0
O617 O 0.4447 0.63189 0.21517 0.0
O618 O 0.38777 0.66493 0.22788 0.0
O619 O 0.48165 0.65981 0.31556 0.0
O620 O 0.44706 0.68292 0.28059 0.0
O621 O 0.42731 0.615 0.29096 0.0
O622 O 0.50902 0.59642 0.30143 0.0
O623 O 0.55375 0.64279 0.34408 0.0
O624 O 0.61489 0.61517 0.32774 0.0
O625 O 0.51293 0.61813 0.24286 0.0
O626 O 0.55474 0.59762 0.27754 0.0
C627 C 0.54319 0.68279 0.25512 0.0
C628 C 0.45137 0.68053 0.30501 0.0
C629 C 0.42432 0.67225 0.18778 0.0
C630 C 0.42182 0.68488 0.14319 0.0
C631 C 0.47191 0.71666 0.17252 0.0
C632 C 0.45685 0.69775 0.1922 0.0
C633 C 0.4546 0.71035 0.14822 0.0
C634 C 0.40669 0.66588 0.16327 0.0
C635 C 0.40959 0.65193 0.20858 0.0
C636 C 0.26101 0.56929 0.27258 0.0
C637 C 0.23881 0.59752 0.27927 0.0
H638 H 0.31521 0.51879 0.25844 0.0
C639 C 0.45757 0.59486 0.30218 0.0
C640 C 0.54401 0.59773 0.25333 0.0
C641 C 0.63376 0.64019 0.36636 0.0
C642 C 0.66218 0.64907 0.40972 0.0
C643 C 0.71078 0.67158 0.37515 0.0
C644 C 0.67598 0.65821 0.35804 0.0
C645 C 0.70402 0.66712 0.40075 0.0
C646 C 0.62709 0.63557 0.39225 0.0
C647 C 0.59588 0.6268 0.34827 0.0
H648 H 0.49698 0.73636 0.17612 0.0
H649 H 0.47046 0.70304 0.21088 0.0
H650 H 0.46631 0.72574 0.13339 0.0
H651 H 0.38194 0.64597 0.15983 0.0
H652 H 0.74329 0.68539 0.36852 0.0
H653 H 0.68222 0.66192 0.33835 0.0
H654 H 0.73217 0.67743 0.41355 0.0
H655 H 0.59427 0.62185 0.39875 0.0
C656 C 0.09484 0.04224 0.35149 0.0
C657 C 0.11971 0.01953 0.33707 0.0
H658 H 0.05367 0.08483 0.35199 0.0
C659 C 0.12212 0.02346 0.31095 0.0
H660 H 0.09292 0.04034 0.37165 0.0
C661 C 0.09992 0.04926 0.29959 0.0
C662 C 0.07458 0.07177 0.31405 0.0
H663 H 0.14034 1.00629 0.29916 0.0
H664 H 0.102 0.05129 0.27945 0.0
C665 C 0.0726 0.06796 0.34016 0.0
C666 C 0.37647 0.49175 0.82695 0.0
C667 C 0.36482 0.48719 0.8524 0.0
H668 H 0.405 0.47192 0.79279 0.0
C669 C 0.36854 0.45735 0.86212 0.0
H670 H 0.37311 0.51428 0.8187 0.0
C671 C 0.38606 0.43309 0.84717 0.0
C672 C 0.40073 0.43812 0.82223 0.0
H673 H 0.36034 0.45293 0.88162 0.0
H674 H 0.39047 0.41063 0.85548 0.0
C675 C 0.39411 0.46743 0.812 0.0
C676 C 0.61821 0.47356 0.72885 0.0
C677 C 0.58847 0.50039 0.72565 0.0
H678 H 0.62028 0.4275 0.74268 0.0
C679 C 0.53648 0.50078 0.7345 0.0
H680 H 0.6585 0.47253 0.72246 0.0
C681 C 0.51488 0.47509 0.74632 0.0
C682 C 0.5448 0.44844 0.74972 0.0
H683 H 0.51225 0.52089 0.7321 0.0
H684 H 0.47481 0.47623 0.75301 0.0
C685 C 0.59658 0.44789 0.74073 0.0
C686 C 0.90102 0.02655 0.23464 0.0
C687 C 0.89478 0.03143 0.20881 0.0
H688 H 0.92467 0.04538 0.26999 0.0
C689 C 0.907 0.06059 0.19919 0.0
H690 H 0.89165 1.00452 0.24279 0.0
C691 C 0.92486 0.08419 0.21493 0.0
C692 C 0.93117 0.07927 0.24071 0.0
H693 H 0.9037 0.06511 0.17936 0.0
H694 H 0.93394 0.10629 0.20681 0.0
C695 C 0.91926 0.05014 0.25035 0.0
C696 C 0.8793 0.97572 0.71077 0.0
C697 C 0.87101 1.00184 0.72581 0.0
H698 H 0.90553 0.92911 0.70904 0.0
C699 C 0.88101 0.99983 0.75166 0.0
H700 H 0.87234 0.97641 0.6908 0.0
C701 C 0.90068 0.97285 0.76202 0.0
C702 C 0.91078 0.9472 0.74681 0.0
H703 H 0.87397 0.01922 0.76393 0.0
H704 H 0.9093 0.97238 0.78187 0.0
C705 C 0.89868 0.94866 0.72119 0.0
C706 C 0.6144 0.52586 0.23047 0.0
C707 C 0.6072 0.52774 0.20439 0.0
H708 H 0.6003 0.54633 0.26644 0.0
C709 C 0.57997 0.55307 0.19478 0.0
H710 H 0.63552 0.50682 0.23855 0.0
C711 C 0.56043 0.57579 0.21067 0.0
C712 C 0.56723 0.57389 0.23673 0.0
H713 H 0.57268 0.5551 0.1749 0.0
H714 H 0.53942 0.59475 0.20239 0.0
C715 C 0.59462 0.54867 0.24646 0.0
C716 C 0.4389 0.51549 0.32948 0.0
C717 C 0.38584 0.51588 0.33667 0.0
H718 H 0.50306 0.54002 0.31313 0.0
C719 C 0.35656 0.5427 0.33268 0.0
H720 H 0.46268 0.49531 0.33252 0.0
C721 C 0.37979 0.56844 0.32159 0.0
C722 C 0.43283 0.56795 0.31435 0.0
H723 H 0.31547 0.54364 0.3378 0.0
H724 H 0.3562 0.58873 0.31876 0.0
C725 C 0.46215 0.54123 0.31855 0.0
C726 C 0.05102 0.98886 0.84009 0.0
C727 C 0.10272 0.98576 0.84901 0.0
H728 H 0.98824 0.96928 0.81845 0.0
C729 C 0.13176 0.95989 0.84152 0.0
H730 H 0.02732 1.00828 0.84567 0.0
C731 C 0.10922 0.93743 0.82588 0.0
C732 C 0.05706 0.94024 0.81755 0.0
H733 H 0.17181 0.9569 0.84791 0.0
H734 H 0.13212 0.91745 0.82093 0.0
C735 C 0.02844 0.96634 0.82465 0.0
C736 C 0.224 0.10914 0.09094 0.0
C737 C 0.19517 0.13201 0.07862 0.0
H738 H 0.24406 0.08808 0.12572 0.0
C739 C 0.16207 0.15092 0.09301 0.0
H740 H 0.25023 0.09431 0.08059 0.0
C741 C 0.15886 0.14751 0.11904 0.0
C742 C 0.18887 0.12519 0.1314 0.0
H743 H 0.13879 0.16854 0.08418 0.0
H744 H 0.13397 0.16295 0.12955 0.0
C745 C 0.22093 0.10581 0.11693 0.0
C746 C 0.3317 0.39542 0.58824 0.0
C747 C 0.36051 0.41174 0.57021 0.0
H748 H 0.31936 0.38673 0.62729 0.0
C749 C 0.40278 0.43025 0.57827 0.0
H750 H 0.29882 0.38103 0.58267 0.0
C751 C 0.41468 0.4334 0.60369 0.0
C752 C 0.38457 0.41822 0.62189 0.0
H753 H 0.42662 0.44256 0.56487 0.0
H754 H 0.44743 0.44799 0.60908 0.0
C755 C 0.34354 0.39867 0.61382 0.0
C756 C 0.65989 0.33983 0.97176 0.0
C757 C 0.69478 0.35913 0.98509 0.0
H758 H 0.63042 0.3253 0.93595 0.0
C759 C 0.72583 0.37997 0.97152 0.0
H760 H 0.63492 0.32373 0.98156 0.0
C761 C 0.72302 0.38098 0.94537 0.0
C762 C 0.68894 0.36125 0.932 0.0
H763 H 0.75345 0.39501 0.98106 0.0
H764 H 0.74779 0.39721 0.93559 0.0
C765 C 0.6569 0.34094 0.94558 0.0
C766 C 0.85236 0.14796 0.4791 0.0
C767 C 0.88165 0.16053 0.49908 0.0
H768 H 0.84047 0.14562 0.43947 0.0
C769 C 0.92361 0.18048 0.49359 0.0
H770 H 0.81938 0.13281 0.48265 0.0
C771 C 0.93601 0.18765 0.46881 0.0
C772 C 0.90661 0.1752 0.4488 0.0
H773 H 0.94758 0.19016 0.50847 0.0
H774 H 0.9692 0.20266 0.46535 0.0
C775 C 0.8646 0.15525 0.45431 0.0
C776 C 0.77428 0.86397 0.97261 0.0
C777 C 0.81865 0.86016 0.98795 0.0
H778 H 0.74283 0.86299 0.93543 0.0
C779 C 0.86744 0.85424 0.97658 0.0
H780 H 0.73604 0.86824 0.98071 0.0
C781 C 0.87135 0.8514 0.95049 0.0
C782 C 0.82639 0.85393 0.93535 0.0
H783 H 0.90241 0.85139 0.9879 0.0
H784 H 0.90903 0.84604 0.94224 0.0
C785 C 0.77806 0.86075 0.94667 0.0
C786 C 0.64361 0.61027 0.47279 0.0
C787 C 0.65338 0.63458 0.48971 0.0
H788 H 0.63875 0.59568 0.43444 0.0
C789 C 0.66329 0.66395 0.47996 0.0
H790 H 0.63643 0.58725 0.47952 0.0
C791 C 0.66476 0.66872 0.45411 0.0
C792 C 0.65627 0.64428 0.43721 0.0
H793 H 0.66983 0.68339 0.49232 0.0
H794 H 0.67269 0.69164 0.44733 0.0
C795 C 0.6449 0.61507 0.44688 0.0
C796 C 0.33314 0.6672 0.08721 0.0
C797 C 0.36712 0.67271 0.06697 0.0
H798 H 0.32346 0.66692 0.12707 0.0
C799 C 0.41994 0.68005 0.07213 0.0
H800 H 0.29214 0.66172 0.08395 0.0
C801 C 0.43784 0.68299 0.09678 0.0
C802 C 0.40348 0.67873 0.11705 0.0
H803 H 0.44752 0.68377 0.05706 0.0
H804 H 0.47872 0.6889 0.09997 0.0
C805 C 0.35111 0.67018 0.11195 0.0
C806 C 0.14923 0.89392 0.58871 0.0
C807 C 0.17845 0.87494 0.57255 0.0
H808 H 0.12682 0.90431 0.62645 0.0
C809 C 0.2071 0.85066 0.58307 0.0
H810 H 0.12736 0.91317 0.58148 0.0
C811 C 0.20707 0.84575 0.60895 0.0
C812 C 0.17818 0.86486 0.62508 0.0
H813 H 0.22928 0.83516 0.5713 0.0
H814 H 0.22937 0.82672 0.61632 0.0
C815 C 0.14896 0.88888 0.61459 0.0
C816 C 0.07189 0.25227 0.349 0.0
C817 C 0.12379 0.24681 0.35681 0.0
H818 H 0.00645 0.23697 0.32686 0.0
C819 C 0.14945 0.22049 0.34775 0.0
H820 H 0.05123 0.27254 0.35531 0.0
C821 C 0.12342 0.19983 0.33174 0.0
C822 C 0.0714 0.20519 0.32413 0.0
H823 H 0.18923 0.21543 0.35357 0.0
H824 H 0.14371 0.17931 0.32578 0.0
C825 C 0.04618 0.23183 0.33273 0.0
C826 C 0.39236 0.25308 0.82186 0.0
C827 C 0.36793 0.25761 0.84517 0.0
H828 H 0.43655 0.27294 0.79196 0.0
C829 C 0.36941 0.28717 0.85594 0.0
H830 H 0.39148 0.2308 0.81279 0.0
C831 C 0.39476 0.31146 0.84374 0.0
C832 C 0.41883 0.30682 0.82041 0.0
H833 H 0.3515 0.29147 0.87396 0.0
H834 H 0.39502 0.33397 0.85245 0.0
C835 C 0.41765 0.27733 0.80972 0.0
C836 C 0.60317 0.29992 0.70281 0.0
C837 C 0.64082 0.28032 0.71324 0.0
H838 H 0.54381 0.33325 0.70903 0.0
C839 C 0.64607 0.27946 0.73946 0.0
H840 H 0.59718 0.30074 0.68277 0.0
C841 C 0.61486 0.29821 0.7548 0.0
C842 C 0.57766 0.3181 0.74421 0.0
H843 H 0.67485 0.26467 0.7481 0.0
H844 H 0.62009 0.29722 0.77489 0.0
C845 C 0.57217 0.3185 0.71802 0.0
C846 C 0.86614 0.22908 0.21292 0.0
C847 C 0.85296 0.25639 0.2255 0.0
H848 H 0.90406 0.18543 0.2148 0.0
C849 C 0.86869 0.26002 0.25064 0.0
H850 H 0.85406 0.22526 0.19372 0.0
C851 C 0.89721 0.23707 0.26278 0.0
C852 C 0.91066 0.20995 0.25008 0.0
H853 H 0.85994 0.28091 0.26083 0.0
H854 H 0.90951 0.24079 0.28197 0.0
C855 C 0.89461 0.20617 0.22506 0.0
C856 C 0.86455 0.80408 0.69482 0.0
C857 C 0.85936 0.7731 0.70179 0.0
H858 H 0.8946 0.84875 0.70424 0.0
C859 C 0.88185 0.76374 0.72455 0.0
H860 H 0.84712 0.81226 0.67763 0.0
C861 C 0.90914 0.78474 0.73978 0.0
C862 C 0.91415 0.81563 0.73277 0.0
H863 H 0.87934 0.74003 0.73039 0.0
H864 H 0.92684 0.77669 0.75694 0.0
C865 C 0.89172 0.82504 0.71008 0.0
C866 C 0.57642 0.76007 0.22658 0.0
C867 C 0.62833 0.75548 0.21844 0.0
H868 H 0.50901 0.74088 0.24484 0.0
C869 C 0.65119 0.72651 0.22182 0.0
H870 H 0.55786 0.78221 0.22449 0.0
C871 C 0.62304 0.70282 0.23322 0.0
C872 C 0.5716 0.70759 0.24184 0.0
H873 H 0.69082 0.72208 0.2155 0.0
H874 H 0.64171 0.68072 0.23531 0.0
C875 C 0.54845 0.73642 0.23825 0.0
C876 C 0.37968 0.75147 0.32843 0.0
C877 C 0.37176 0.74445 0.35382 0.0
H878 H 0.4114 0.73704 0.29317 0.0
C879 C 0.38902 0.71586 0.36265 0.0
H880 H 0.36754 0.77338 0.32101 0.0
C881 C 0.41428 0.69513 0.34673 0.0
C882 C 0.42264 0.70227 0.32146 0.0
H883 H 0.38277 0.70932 0.38192 0.0
H884 H 0.42719 0.67342 0.35426 0.0
C885 C 0.40486 0.73063 0.31245 0.0
C886 C 0.10454 0.78567 0.84868 0.0
C887 C 0.13212 0.76331 0.83504 0.0
H888 H 0.05527 0.82516 0.84764 0.0
C889 C 0.1306 0.76449 0.80872 0.0
H890 H 0.1054 0.78584 0.86893 0.0
C891 C 0.1021 0.78732 0.79641 0.0
C892 C 0.07425 0.8095 0.81011 0.0
H893 H 0.15068 0.74741 0.79756 0.0
H894 H 0.10147 0.78735 0.77616 0.0
C895 C 0.07594 0.80838 0.8364 0.0
loop_
_geom_bond_atom_site_label_1
_geom_bond_atom_site_label_2
_geom_bond_distance
_geom_bond_site_symmetry_2
_ccdc_geom_bond_type
C0 C1 1.264 . S
C0 C5 1.479 . S
C0 C10 1.465 . S
C1 C0 1.264 . S
C1 C3 1.339 . S
C1 H28 0.931 . S
C2 C3 1.395 . S
C2 C4 1.320 . S
C3 C1 1.339 . S
C3 C2 1.395 . S
C3 H29 0.929 . S
C4 C2 1.320 . S
C4 C5 1.405 . S
C4 H30 0.930 . S
C5 C0 1.479 . S
C5 C4 1.405 . S
C5 H31 0.931 . S
U6 O7 2.454 . S
U6 O8 2.458 . S
U6 C9 2.984 . S
U6 C10 2.847 . S
U6 C23 2.882 . S
U6 O24 2.441 . S
U6 O25 2.420 . S
U6 O26 2.455 . S
U6 O27 2.449 . S
O7 U6 2.454 . S
O7 C9 1.353 . S
O8 U6 2.458 . S
O8 C9 1.286 . S
C9 U6 2.984 . S
C9 O7 1.353 . S
C9 O8 1.286 . S
C9 C11 1.363 . S
C10 C0 1.465 . S
C10 U6 2.847 . S
C10 O24 1.249 . S
C10 O25 1.202 . S
C11 C9 1.363 . S
C11 C13 1.408 . S
C11 C16 1.342 . S
C12 C13 1.310 . S
C12 C15 1.461 . S
C12 H32 0.932 . S
C13 C11 1.408 . S
C13 C12 1.310 . S
C13 H33 0.930 . S
C14 C15 1.474 . S
C14 C16 1.285 . S
C14 H34 0.929 . S
C15 C12 1.461 . S
C15 C14 1.474 . S
C16 C11 1.342 . S
C16 C14 1.285 . S
C16 H35 0.930 . S
C17 C20 1.424 . S
C17 C22 1.245 . S
C17 C23 1.428 . S
C18 C21 1.260 . S
C18 C22 1.477 . S
C18 H36 0.932 . S
C19 C20 1.384 . S
C19 C21 1.479 . S
C19 H37 0.929 . S
C20 C17 1.424 . S
C20 C19 1.384 . S
C20 H38 0.928 . S
C21 C18 1.260 . S
C21 C19 1.479 . S
C22 C17 1.245 . S
C22 C18 1.477 . S
C22 H39 0.932 . S
C23 U6 2.882 . S
C23 C17 1.428 . S
C23 O26 1.301 . S
C23 O27 1.282 . S
O24 U6 2.441 . S
O24 C10 1.249 . S
O25 U6 2.420 . S
O25 C10 1.202 . S
O26 U6 2.455 . S
O26 C23 1.301 . S
O27 U6 2.449 . S
O27 C23 1.282 . S
H28 C1 0.931 . S
H29 C3 0.929 . S
H30 C4 0.930 . S
H31 C5 0.931 . S
H32 C12 0.932 . S
H33 C13 0.930 . S
H34 C14 0.929 . S
H35 C16 0.930 . S
H36 C18 0.932 . S
H37 C19 0.929 . S
H38 C20 0.928 . S
H39 C22 0.932 . S
C40 C41 1.264 . S
C40 C45 1.479 . S
C40 C50 1.465 . S
C41 C40 1.264 . S
C41 C43 1.339 1_556 S
C41 H68 0.931 . S
C42 C43 1.395 . S
C42 C44 1.320 . S
C43 C41 1.339 1_554 S
C43 C42 1.395 . S
C43 H69 0.929 . S
C44 C42 1.320 . S
C44 C45 1.405 1_554 S
C44 H70 0.930 . S
C45 C40 1.479 . S
C45 C44 1.405 1_556 S
C45 H71 0.931 . S
U46 O47 2.454 . S
U46 O48 2.458 . S
U46 C49 2.984 . S
U46 C50 2.847 . S
U46 C63 2.882 . S
U46 O64 2.441 . S
U46 O65 2.420 . S
U46 O66 2.455 . S
U46 O67 2.449 . S
O47 U46 2.454 . S
O47 C49 1.353 . S
O48 U46 2.458 . S
O48 C49 1.286 . S
C49 U46 2.984 . S
C49 O47 1.353 . S
C49 O48 1.286 . S
C49 C51 1.363 . S
C50 C40 1.465 . S
C50 U46 2.847 . S
C50 O64 1.249 . S
C50 O65 1.202 . S
C51 C49 1.363 . S
C51 C53 1.408 . S
C51 C56 1.342 . S
C52 C53 1.310 . S
C52 C55 1.461 . S
C52 H72 0.932 . S
C53 C51 1.408 . S
C53 C52 1.310 . S
C53 H73 0.930 . S
C54 C55 1.474 . S
C54 C56 1.285 . S
C54 H74 0.929 . S
C55 C52 1.461 . S
C55 C54 1.474 . S
C56 C51 1.342 . S
C56 C54 1.285 . S
C56 H75 0.930 . S
C57 C60 1.424 . S
C57 C62 1.245 . S
C57 C63 1.428 . S
C58 C61 1.260 1_545 S
C58 C62 1.477 . S
C58 H76 0.932 . S
C59 C60 1.357 1_565 S
C59 C61 1.484 . S
C59 H77 0.951 . S
C60 C57 1.424 . S
C60 C59 1.357 1_545 S
C60 H78 0.928 . S
C61 C58 1.260 1_565 S
C61 C59 1.484 . S
C62 C57 1.245 . S
C62 C58 1.477 . S
C62 H79 0.932 . S
C63 U46 2.882 . S
C63 C57 1.428 . S
C63 O66 1.301 . S
C63 O67 1.282 . S
O64 U46 2.441 . S
O64 C50 1.249 . S
O65 U46 2.420 . S
O65 C50 1.202 . S
O66 U46 2.455 . S
O66 C63 1.301 . S
O67 U46 2.449 . S
O67 C63 1.282 . S
H68 C41 0.931 . S
H69 C43 0.929 . S
H70 C44 0.930 . S
H71 C45 0.931 . S
H72 C52 0.932 . S
H73 C53 0.930 . S
H74 C54 0.929 . S
H75 C56 0.930 . S
H76 C58 0.932 . S
H77 C59 0.951 . S
H78 C60 0.928 . S
H79 C62 0.932 . S
C80 C81 1.264 . S
C80 C85 1.479 . S
C80 C90 1.465 . S
C81 C80 1.264 . S
C81 C83 1.339 1_545 S
C81 H108 0.931 . S
C82 C83 1.395 . S
C82 C84 1.320 1_565 S
C83 C81 1.339 1_565 S
C83 C82 1.395 . S
C83 H109 0.929 . S
C84 C82 1.320 1_545 S
C84 C85 1.405 . S
C84 H110 0.930 . S
C85 C80 1.479 . S
C85 C84 1.405 . S
C85 H111 0.931 . S
U86 O87 2.454 . S
U86 O88 2.458 . S
U86 C89 2.984 . S
U86 C90 2.847 . S
U86 C103 2.882 . S
U86 O104 2.441 . S
U86 O105 2.420 . S
U86 O106 2.455 . S
U86 O107 2.449 . S
O87 U86 2.454 . S
O87 C89 1.353 . S
O88 U86 2.458 . S
O88 C89 1.286 . S
C89 U86 2.984 . S
C89 O87 1.353 . S
C89 O88 1.286 . S
C89 C91 1.363 . S
C90 C80 1.465 . S
C90 U86 2.847 . S
C90 O104 1.249 . S
C90 O105 1.202 . S
C91 C89 1.363 . S
C91 C93 1.408 . S
C91 C96 1.342 . S
C92 C93 1.310 . S
C92 C95 1.461 . S
C92 H112 0.932 . S
C93 C91 1.408 . S
C93 C92 1.310 . S
C93 H113 0.930 . S
C94 C95 1.474 . S
C94 C96 1.285 . S
C94 H114 0.929 . S
C95 C92 1.461 . S
C95 C94 1.474 . S
C96 C91 1.342 . S
C96 C94 1.285 . S
C96 H115 0.930 . S
C97 C100 1.424 . S
C97 C102 1.245 . S
C97 C103 1.428 . S
C98 C101 1.260 . S
C98 C102 1.477 . S
C98 H116 0.932 . S
C99 C100 1.384 . S
C99 C101 1.479 . S
C99 H117 0.929 . S
C100 C97 1.424 . S
C100 C99 1.384 . S
C100 H118 0.928 . S
C101 C98 1.260 . S
C101 C99 1.479 . S
C102 C97 1.245 . S
C102 C98 1.477 . S
C102 H119 0.932 . S
C103 U86 2.882 . S
C103 C97 1.428 . S
C103 O106 1.301 . S
C103 O107 1.282 . S
O104 U86 2.441 . S
O104 C90 1.249 . S
O105 U86 2.420 . S
O105 C90 1.202 . S
O106 U86 2.455 . S
O106 C103 1.301 . S
O107 U86 2.449 . S
O107 C103 1.282 . S
H108 C81 0.931 . S
H109 C83 0.929 . S
H110 C84 0.930 . S
H111 C85 0.931 . S
H112 C92 0.932 . S
H113 C93 0.930 . S
H114 C94 0.929 . S
H115 C96 0.930 . S
H116 C98 0.932 . S
H117 C99 0.929 . S
H118 C100 0.928 . S
H119 C102 0.932 . S
C120 C121 1.264 . S
C120 C125 1.479 . S
C120 C130 1.465 . S
C121 C120 1.264 . S
C121 C123 1.339 1_554 S
C121 H148 0.931 . S
C122 C123 1.395 . S
C122 C124 1.320 . S
C123 C121 1.339 1_556 S
C123 C122 1.395 . S
C123 H149 0.929 . S
C124 C122 1.320 . S
C124 C125 1.405 1_556 S
C124 H150 0.930 . S
C125 C120 1.479 . S
C125 C124 1.405 1_554 S
C125 H151 0.931 . S
U126 O127 2.454 . S
U126 O128 2.458 . S
U126 C129 2.984 . S
U126 C130 2.847 . S
U126 C143 2.882 . S
U126 O144 2.441 . S
U126 O145 2.420 . S
U126 O146 2.455 . S
U126 O147 2.449 . S
O127 U126 2.454 . S
O127 C129 1.353 . S
O128 U126 2.458 . S
O128 C129 1.286 . S
C129 U126 2.984 . S
C129 O127 1.353 . S
C129 O128 1.286 . S
C129 C131 1.363 . S
C130 C120 1.465 . S
C130 U126 2.847 . S
C130 O144 1.249 . S
C130 O145 1.202 . S
C131 C129 1.363 . S
C131 C133 1.408 . S
C131 C136 1.342 . S
C132 C133 1.310 . S
C132 C135 1.461 . S
C132 H152 0.932 . S
C133 C131 1.408 . S
C133 C132 1.310 . S
C133 H153 0.930 . S
C134 C135 1.474 . S
C134 C136 1.285 . S
C134 H154 0.929 . S
C135 C132 1.461 . S
C135 C134 1.474 . S
C136 C131 1.342 . S
C136 C134 1.285 . S
C136 H155 0.930 . S
C137 C140 1.424 . S
C137 C142 1.245 . S
C137 C143 1.428 . S
C138 C141 1.260 . S
C138 C142 1.477 . S
C138 H156 0.932 . S
C139 C140 1.384 . S
C139 C141 1.479 . S
C139 H157 0.929 . S
C140 C137 1.424 . S
C140 C139 1.384 . S
C140 H158 0.928 . S
C141 C138 1.260 . S
C141 C139 1.479 . S
C142 C137 1.245 . S
C142 C138 1.477 . S
C142 H159 0.932 . S
C143 U126 2.882 . S
C143 C137 1.428 . S
C143 O146 1.301 . S
C143 O147 1.282 . S
O144 U126 2.441 . S
O144 C130 1.249 . S
O145 U126 2.420 . S
O145 C130 1.202 . S
O146 U126 2.455 . S
O146 C143 1.301 . S
O147 U126 2.449 . S
O147 C143 1.282 . S
H148 C121 0.931 . S
H149 C123 0.929 . S
H150 C124 0.930 . S
H151 C125 0.931 . S
H152 C132 0.932 . S
H153 C133 0.930 . S
H154 C134 0.929 . S
H155 C136 0.930 . S
H156 C138 0.932 . S
H157 C139 0.929 . S
H158 C140 0.928 . S
H159 C142 0.932 . S
C160 C161 1.264 . S
C160 C165 1.479 . S
C160 C170 1.465 . S
C161 C160 1.264 . S
C161 C163 1.339 . S
C161 H188 0.931 . S
C162 C163 1.395 . S
C162 C164 1.320 . S
C163 C161 1.339 . S
C163 C162 1.395 . S
C163 H189 0.929 . S
C164 C162 1.320 . S
C164 C165 1.405 . S
C164 H190 0.930 . S
C165 C160 1.479 . S
C165 C164 1.405 . S
C165 H191 0.931 . S
U166 O167 2.454 . S
U166 O168 2.458 . S
U166 C169 2.984 . S
U166 C170 2.847 . S
U166 C183 2.882 . S
U166 O184 2.441 . S
U166 O185 2.420 . S
U166 O186 2.455 . S
U166 O187 2.449 . S
O167 U166 2.454 . S
O167 C169 1.353 . S
O168 U166 2.458 . S
O168 C169 1.286 . S
C169 U166 2.984 . S
C169 O167 1.353 . S
C169 O168 1.286 . S
C169 C171 1.363 . S
C170 C160 1.465 . S
C170 U166 2.847 . S
C170 O184 1.249 . S
C170 O185 1.202 . S
C171 C169 1.363 . S
C171 C173 1.408 . S
C171 C176 1.342 . S
C172 C173 1.310 . S
C172 C175 1.461 . S
C172 H192 0.932 . S
C173 C171 1.408 . S
C173 C172 1.310 . S
C173 H193 0.930 . S
C174 C175 1.474 . S
C174 C176 1.285 . S
C174 H194 0.929 . S
C175 C172 1.461 . S
C175 C174 1.474 . S
C176 C171 1.342 . S
C176 C174 1.285 . S
C176 H195 0.930 . S
C177 C180 1.424 . S
C177 C182 1.245 . S
C177 C183 1.428 . S
C178 C181 1.260 . S
C178 C182 1.477 . S
C178 H196 0.932 . S
C179 C180 1.384 . S
C179 C181 1.479 . S
C179 H197 0.929 . S
C180 C177 1.424 . S
C180 C179 1.384 . S
C180 H198 0.928 . S
C181 C178 1.260 . S
C181 C179 1.479 . S
C182 C177 1.245 . S
C182 C178 1.477 . S
C182 H199 0.932 . S
C183 U166 2.882 . S
C183 C177 1.428 . S
C183 O186 1.301 . S
C183 O187 1.282 . S
O184 U166 2.441 . S
O184 C170 1.249 . S
O185 U166 2.420 . S
O185 C170 1.202 . S
O186 U166 2.455 . S
O186 C183 1.301 . S
O187 U166 2.449 . S
O187 C183 1.282 . S
H188 C161 0.931 . S
H189 C163 0.929 . S
H190 C164 0.930 . S
H191 C165 0.931 . S
H192 C172 0.932 . S
H193 C173 0.930 . S
H194 C174 0.929 . S
H195 C176 0.930 . S
H196 C178 0.932 . S
H197 C179 0.929 . S
H198 C180 0.928 . S
H199 C182 0.932 . S
C200 C201 1.264 . S
C200 C205 1.479 . S
C200 C210 1.465 . S
C201 C200 1.264 . S
C201 C203 1.339 1_554 S
C201 H228 0.931 . S
C202 C203 1.395 . S
C202 C204 1.320 . S
C203 C201 1.339 1_556 S
C203 C202 1.395 . S
C203 H229 0.929 . S
C204 C202 1.320 . S
C204 C205 1.405 1_556 S
C204 H230 0.930 . S
C205 C200 1.479 . S
C205 C204 1.405 1_554 S
C205 H231 0.931 . S
U206 O207 2.454 . S
U206 O208 2.458 . S
U206 C209 2.984 . S
U206 C210 2.847 . S
U206 C223 2.882 . S
U206 O224 2.441 . S
U206 O225 2.420 . S
U206 O226 2.455 . S
U206 O227 2.449 . S
O207 U206 2.454 . S
O207 C209 1.353 . S
O208 U206 2.458 . S
O208 C209 1.286 . S
C209 U206 2.984 . S
C209 O207 1.353 . S
C209 O208 1.286 . S
C209 C211 1.363 . S
C210 C200 1.465 . S
C210 U206 2.847 . S
C210 O224 1.249 . S
C210 O225 1.202 . S
C211 C209 1.363 . S
C211 C213 1.408 . S
C211 C216 1.342 . S
C212 C213 1.310 . S
C212 C215 1.461 . S
C212 H232 0.932 . S
C213 C211 1.408 . S
C213 C212 1.310 . S
C213 H233 0.930 . S
C214 C215 1.474 . S
C214 C216 1.285 . S
C214 H234 0.929 . S
C215 C212 1.461 . S
C215 C214 1.474 . S
C216 C211 1.342 . S
C216 C214 1.285 . S
C216 H235 0.930 . S
C217 C220 1.424 . S
C217 C222 1.245 . S
C217 C223 1.428 . S
C218 C221 1.260 1_565 S
C218 C222 1.477 . S
C218 H236 0.932 . S
C219 C220 1.384 1_545 S
C219 C221 1.479 . S
C219 H237 0.929 . S
C220 C217 1.424 . S
C220 C219 1.384 1_565 S
C220 H238 0.928 . S
C221 C218 1.260 1_545 S
C221 C219 1.479 . S
C222 C217 1.245 . S
C222 C218 1.477 . S
C222 H239 0.932 . S
C223 U206 2.882 . S
C223 C217 1.428 . S
C223 O226 1.301 . S
C223 O227 1.282 . S
O224 U206 2.441 . S
O224 C210 1.249 . S
O225 U206 2.420 . S
O225 C210 1.202 . S
O226 U206 2.455 . S
O226 C223 1.301 . S
O227 U206 2.449 . S
O227 C223 1.282 . S
H228 C201 0.931 . S
H229 C203 0.929 . S
H230 C204 0.930 . S
H231 C205 0.931 . S
H232 C212 0.932 . S
H233 C213 0.930 . S
H234 C214 0.929 . S
H235 C216 0.930 . S
H236 C218 0.932 . S
H237 C219 0.929 . S
H238 C220 0.928 . S
H239 C222 0.932 . S
C240 C241 1.264 . S
C240 C245 1.479 . S
C240 C250 1.465 . S
C241 C240 1.264 . S
C241 C243 1.339 . S
C241 H268 0.931 . S
C242 C243 1.395 1_545 S
C242 C244 1.320 1_545 S
C243 C241 1.339 . S
C243 C242 1.395 1_565 S
C243 H269 0.929 1_565 S
C244 C242 1.320 1_565 S
C244 C245 1.405 . S
C244 H270 0.930 . S
C245 C240 1.479 . S
C245 C244 1.405 . S
C245 H271 0.931 . S
U246 O247 2.454 . S
U246 O248 2.458 . S
U246 C249 2.984 . S
U246 C250 2.847 . S
U246 C263 2.882 . S
U246 O264 2.441 . S
U246 O265 2.420 . S
U246 O266 2.455 . S
U246 O267 2.449 . S
O247 U246 2.454 . S
O247 C249 1.353 . S
O248 U246 2.458 . S
O248 C249 1.286 . S
C249 U246 2.984 . S
C249 O247 1.353 . S
C249 O248 1.286 . S
C249 C251 1.363 . S
C250 C240 1.465 . S
C250 U246 2.847 . S
C250 O264 1.249 . S
C250 O265 1.202 . S
C251 C249 1.363 . S
C251 C253 1.408 . S
C251 C256 1.342 . S
C252 C253 1.310 . S
C252 C255 1.461 . S
C252 H272 0.932 . S
C253 C251 1.408 . S
C253 C252 1.310 . S
C253 H273 0.930 . S
C254 C255 1.474 . S
C254 C256 1.285 . S
C254 H274 0.929 . S
C255 C252 1.461 . S
C255 C254 1.474 . S
C256 C251 1.342 . S
C256 C254 1.285 . S
C256 H275 0.930 . S
C257 C260 1.424 . S
C257 C262 1.245 . S
C257 C263 1.428 . S
C258 C261 1.260 . S
C258 C262 1.477 . S
C258 H276 0.932 . S
C259 C260 1.384 . S
C259 C261 1.479 . S
C259 H277 0.929 . S
C260 C257 1.424 . S
C260 C259 1.384 . S
C260 H278 0.928 . S
C261 C258 1.260 . S
C261 C259 1.479 . S
C262 C257 1.245 . S
C262 C258 1.477 . S
C262 H279 0.932 . S
C263 U246 2.882 . S
C263 C257 1.428 . S
C263 O266 1.301 . S
C263 O267 1.282 . S
O264 U246 2.441 . S
O264 C250 1.249 . S
O265 U246 2.420 . S
O265 C250 1.202 . S
O266 U246 2.455 . S
O266 C263 1.301 . S
O267 U246 2.449 . S
O267 C263 1.282 . S
H268 C241 0.931 . S
H269 C243 0.929 1_545 S
H270 C244 0.930 . S
H271 C245 0.931 . S
H272 C252 0.932 . S
H273 C253 0.930 . S
H274 C254 0.929 . S
H275 C256 0.930 . S
H276 C258 0.932 . S
H277 C259 0.929 . S
H278 C260 0.928 . S
H279 C262 0.932 . S
C280 C281 1.264 . S
C280 C285 1.479 . S
C280 C290 1.465 . S
C281 C280 1.264 . S
C281 C283 1.339 1_556 S
C281 H308 0.931 . S
C282 C283 1.395 . S
C282 C284 1.320 . S
C283 C281 1.339 1_554 S
C283 C282 1.395 . S
C283 H309 0.929 . S
C284 C282 1.320 . S
C284 C285 1.405 1_554 S
C284 H310 0.930 . S
C285 C280 1.479 . S
C285 C284 1.405 1_556 S
C285 H311 0.931 . S
U286 O287 2.454 . S
U286 O288 2.458 . S
U286 C289 2.984 . S
U286 C290 2.847 . S
U286 C303 2.882 . S
U286 O304 2.441 . S
U286 O305 2.420 . S
U286 O306 2.455 . S
U286 O307 2.449 . S
O287 U286 2.454 . S
O287 C289 1.353 . S
O288 U286 2.458 . S
O288 C289 1.286 . S
C289 U286 2.984 . S
C289 O287 1.353 . S
C289 O288 1.286 . S
C289 C291 1.363 . S
C290 C280 1.465 . S
C290 U286 2.847 . S
C290 O304 1.249 . S
C290 O305 1.202 . S
C291 C289 1.363 . S
C291 C293 1.408 . S
C291 C296 1.342 . S
C292 C293 1.310 . S
C292 C295 1.461 . S
C292 H312 0.932 . S
C293 C291 1.408 . S
C293 C292 1.310 . S
C293 H313 0.930 . S
C294 C295 1.474 . S
C294 C296 1.285 . S
C294 H314 0.929 . S
C295 C292 1.461 . S
C295 C294 1.474 . S
C296 C291 1.342 . S
C296 C294 1.285 . S
C296 H315 0.930 . S
C297 C300 1.424 . S
C297 C302 1.245 . S
C297 C303 1.428 . S
C298 C301 1.260 . S
C298 C302 1.477 . S
C298 H316 0.932 . S
C299 C300 1.384 . S
C299 C301 1.479 . S
C299 H317 0.929 . S
C300 C297 1.424 . S
C300 C299 1.384 . S
C300 H318 0.928 . S
C301 C298 1.260 . S
C301 C299 1.479 . S
C302 C297 1.245 . S
C302 C298 1.477 . S
C302 H319 0.932 . S
C303 U286 2.882 . S
C303 C297 1.428 . S
C303 O306 1.301 . S
C303 O307 1.282 . S
O304 U286 2.441 . S
O304 C290 1.249 . S
O305 U286 2.420 . S
O305 C290 1.202 . S
O306 U286 2.455 . S
O306 C303 1.301 . S
O307 U286 2.449 . S
O307 C303 1.282 . S
H308 C281 0.931 . S
H309 C283 0.929 . S
H310 C284 0.930 . S
H311 C285 0.931 . S
H312 C292 0.932 . S
H313 C293 0.930 . S
H314 C294 0.929 . S
H315 C296 0.930 . S
H316 C298 0.932 . S
H317 C299 0.929 . S
H318 C300 0.928 . S
H319 C302 0.932 . S
C320 C322 1.422 . S
C320 C324 1.415 . S
C320 N326 1.369 . S
C321 C322 1.421 . S
C321 C323 1.417 . S
C321 C333 1.422 . S
C322 C320 1.422 . S
C322 C321 1.421 . S
C322 N332 1.359 . S
C323 C321 1.417 . S
C323 C325 1.329 . S
C323 H342 0.930 . S
C324 C320 1.415 . S
C324 C325 1.437 . S
C324 C328 1.413 . S
C325 C323 1.329 . S
C325 C324 1.437 . S
C325 H347 0.929 . S
N326 C320 1.369 . S
N326 C327 1.338 . S
N326 Gd331 2.622 . S
C327 N326 1.338 . S
C327 C329 1.378 . S
C327 H339 0.929 . S
C328 C324 1.413 . S
C328 C329 1.348 . S
C328 H344 0.931 . S
C329 C327 1.378 . S
C329 C328 1.348 . S
C329 H345 0.930 . S
Gd330 N350 2.622 . S
Gd330 N357 2.570 . S
Gd330 O364 2.353 . S
Gd330 O365 2.468 . S
Gd330 O366 2.427 . S
Gd330 O368 2.388 . S
Gd330 O369 2.386 . S
Gd330 O373 2.289 1_455 S
Gd330 C383 2.805 . S
Gd331 N326 2.622 . S
Gd331 N332 2.570 . S
Gd331 O363 2.386 . S
Gd331 O367 2.307 1_655 S
Gd331 O370 2.346 1_655 S
Gd331 O371 2.468 . S
Gd331 O372 2.427 . S
Gd331 O374 2.388 . S
Gd331 C395 2.805 . S
N332 C322 1.359 . S
N332 Gd331 2.570 . S
N332 C334 1.343 . S
C333 C321 1.422 . S
C333 C335 1.321 . S
C333 H341 0.931 . S
C334 N332 1.343 . S
C334 C335 1.390 . S
C334 H336 0.931 . S
C335 C333 1.321 . S
C335 C334 1.390 . S
C335 H337 0.930 . S
H336 C334 0.931 . S
H337 C335 0.930 . S
H338 C361 0.931 . S
H339 C327 0.929 . S
H340 C362 0.930 . S
H341 C333 0.931 . S
H342 C323 0.930 . S
H343 C352 0.929 . S
H344 C328 0.931 . S
H345 C329 0.930 . S
H346 C384 0.930 . S
H347 C325 0.929 . S
H348 C353 0.931 . S
H349 C354 0.930 . S
N350 Gd330 2.622 . S
N350 C351 1.369 . S
N350 C352 1.338 . S
C351 N350 1.369 . S
C351 C355 1.415 . S
C351 C358 1.422 . S
C352 H343 0.929 . S
C352 N350 1.338 . S
C352 C354 1.378 . S
C353 H348 0.931 . S
C353 C354 1.348 . S
C353 C355 1.413 . S
C354 H349 0.930 . S
C354 C352 1.378 . S
C354 C353 1.348 . S
C355 C351 1.415 . S
C355 C353 1.413 . S
C355 C385 1.437 . S
H356 C385 0.929 . S
N357 Gd330 2.570 . S
N357 C358 1.359 . S
N357 C361 1.343 . S
C358 C351 1.422 . S
C358 N357 1.359 . S
C358 C360 1.421 . S
C359 C360 1.422 . S
C359 C362 1.321 . S
C359 H386 0.931 . S
C360 C358 1.421 . S
C360 C359 1.422 . S
C360 C384 1.417 . S
C361 H338 0.931 . S
C361 N357 1.343 . S
C361 C362 1.390 . S
C362 H340 0.930 . S
C362 C359 1.321 . S
C362 C361 1.390 . S
O363 Gd331 2.386 . S
O363 C375 1.265 . S
O364 Gd330 2.353 . S
O364 C375 1.242 1_455 S
O365 Gd330 2.468 . S
O365 C383 1.263 . S
O366 Gd330 2.427 . S
O366 C383 1.252 . S
O367 Gd331 2.307 1_455 S
O367 C376 1.261 . S
O368 Gd330 2.388 . S
O368 C376 1.252 . S
O369 Gd330 2.386 . S
O369 C387 1.265 . S
O370 Gd331 2.346 1_455 S
O370 C387 1.251 . S
O371 Gd331 2.468 . S
O371 C395 1.263 . S
O372 Gd331 2.427 . S
O372 C395 1.252 . S
O373 Gd330 2.289 1_655 S
O373 C388 1.282 . S
O374 Gd331 2.388 . S
O374 C388 1.252 . S
C375 O363 1.265 . S
C375 O364 1.242 1_655 S
C376 O367 1.261 . S
C376 O368 1.252 . S
C377 C380 1.394 . S
C377 C382 1.370 . S
C377 C383 1.500 . S
C378 C381 1.383 . S
C378 C382 1.395 . S
C379 C380 1.396 . S
C379 C381 1.365 . S
C379 H396 0.929 . S
C380 C377 1.394 . S
C380 C379 1.396 . S
C380 H397 0.930 . S
C381 C378 1.383 . S
C381 C379 1.365 . S
C381 H398 0.931 . S
C382 C377 1.370 . S
C382 C378 1.395 . S
C382 H399 0.930 . S
C383 Gd330 2.805 . S
C383 O365 1.263 . S
C383 O366 1.252 . S
C383 C377 1.500 . S
C384 H346 0.930 . S
C384 C360 1.417 . S
C384 C385 1.329 . S
C385 C355 1.437 . S
C385 H356 0.929 . S
C385 C384 1.329 . S
H386 C359 0.931 . S
C387 O369 1.265 . S
C387 O370 1.251 . S
C388 O373 1.282 . S
C388 O374 1.252 . S
C389 C392 1.394 . S
C389 C394 1.370 . S
C389 C395 1.500 . S
C390 C393 1.383 . S
C390 C394 1.395 . S
C391 C392 1.396 . S
C391 C393 1.365 . S
C391 H400 0.929 . S
C392 C389 1.394 . S
C392 C391 1.396 . S
C392 H401 0.930 . S
C393 C390 1.383 . S
C393 C391 1.365 . S
C393 H402 0.931 . S
C394 C389 1.370 . S
C394 C390 1.395 . S
C394 H403 0.930 . S
C395 Gd331 2.805 . S
C395 O371 1.263 . S
C395 O372 1.252 . S
C395 C389 1.500 . S
H396 C379 0.929 . S
H397 C380 0.930 . S
H398 C381 0.931 . S
H399 C382 0.930 . S
H400 C391 0.929 . S
H401 C392 0.930 . S
H402 C393 0.931 . S
H403 C394 0.930 . S
C404 C406 1.422 . S
C404 C408 1.415 . S
C404 N410 1.369 . S
C405 C406 1.421 . S
C405 C407 1.417 . S
C405 C417 1.422 . S
C406 C404 1.422 . S
C406 C405 1.421 . S
C406 N416 1.359 . S
C407 C405 1.417 . S
C407 C409 1.329 . S
C407 H426 0.930 . S
C408 C404 1.415 . S
C408 C409 1.437 . S
C408 C412 1.413 . S
C409 C407 1.329 . S
C409 C408 1.437 . S
C409 H431 0.929 . S
N410 C404 1.369 . S
N410 C411 1.338 . S
N410 Gd415 2.622 . S
C411 N410 1.338 . S
C411 C413 1.378 . S
C411 H423 0.929 . S
C412 C408 1.413 . S
C412 C413 1.348 . S
C412 H428 0.931 . S
C413 C411 1.378 . S
C413 C412 1.348 . S
C413 H429 0.930 . S
Gd414 N434 2.622 . S
Gd414 N441 2.570 . S
Gd414 O448 2.353 . S
Gd414 O449 2.468 . S
Gd414 O450 2.427 . S
Gd414 O452 2.388 . S
Gd414 O453 2.386 . S
Gd414 O457 2.307 . S
Gd414 C467 2.805 . S
Gd415 N410 2.622 . S
Gd415 N416 2.570 . S
Gd415 O447 2.386 . S
Gd415 O451 2.307 . S
Gd415 O454 2.353 . S
Gd415 O455 2.468 . S
Gd415 O456 2.427 . S
Gd415 O458 2.388 . S
Gd415 C479 2.805 . S
N416 C406 1.359 . S
N416 Gd415 2.570 . S
N416 C418 1.343 . S
C417 C405 1.422 . S
C417 C419 1.321 . S
C417 H425 0.931 . S
C418 N416 1.343 . S
C418 C419 1.390 . S
C418 H420 0.931 . S
C419 C417 1.321 . S
C419 C418 1.390 . S
C419 H421 0.930 . S
H420 C418 0.931 . S
H421 C419 0.930 . S
H422 C445 0.931 . S
H423 C411 0.929 . S
H424 C446 0.930 . S
H425 C417 0.931 . S
H426 C407 0.930 . S
H427 C436 0.929 . S
H428 C412 0.931 . S
H429 C413 0.930 . S
H430 C468 0.930 . S
H431 C409 0.929 . S
H432 C437 0.931 . S
H433 C438 0.930 . S
N434 Gd414 2.622 . S
N434 C435 1.369 . S
N434 C436 1.338 . S
C435 N434 1.369 . S
C435 C439 1.415 . S
C435 C442 1.422 . S
C436 H427 0.929 . S
C436 N434 1.338 . S
C436 C438 1.378 . S
C437 H432 0.931 . S
C437 C438 1.348 . S
C437 C439 1.413 . S
C438 H433 0.930 . S
C438 C436 1.378 . S
C438 C437 1.348 . S
C439 C435 1.415 . S
C439 C437 1.413 . S
C439 C469 1.437 . S
H440 C469 0.929 . S
N441 Gd414 2.570 . S
N441 C442 1.359 . S
N441 C445 1.343 . S
C442 C435 1.422 . S
C442 N441 1.359 . S
C442 C444 1.421 . S
C443 C444 1.422 . S
C443 C446 1.321 . S
C443 H470 0.931 . S
C444 C442 1.421 . S
C444 C443 1.422 . S
C444 C468 1.417 . S
C445 H422 0.931 . S
C445 N441 1.343 . S
C445 C446 1.390 . S
C446 H424 0.930 . S
C446 C443 1.321 . S
C446 C445 1.390 . S
O447 Gd415 2.386 . S
O447 C459 1.265 . S
O448 Gd414 2.353 . S
O448 C459 1.242 . S
O449 Gd414 2.468 . S
O449 C467 1.263 . S
O450 Gd414 2.427 . S
O450 C467 1.252 . S
O451 Gd415 2.307 . S
O451 C460 1.261 . S
O452 Gd414 2.388 . S
O452 C460 1.252 . S
O453 Gd414 2.386 . S
O453 C471 1.265 . S
O454 Gd415 2.353 . S
O454 C471 1.242 . S
O455 Gd415 2.468 . S
O455 C479 1.263 . S
O456 Gd415 2.427 . S
O456 C479 1.252 . S
O457 Gd414 2.307 . S
O457 C472 1.261 . S
O458 Gd415 2.388 . S
O458 C472 1.252 . S
C459 O447 1.265 . S
C459 O448 1.242 . S
C460 O451 1.261 . S
C460 O452 1.252 . S
C461 C464 1.394 . S
C461 C466 1.370 . S
C461 C467 1.500 . S
C462 C465 1.383 . S
C462 C466 1.395 . S
C463 C464 1.396 . S
C463 C465 1.365 . S
C463 H480 0.929 . S
C464 C461 1.394 . S
C464 C463 1.396 . S
C464 H481 0.930 . S
C465 C462 1.383 . S
C465 C463 1.365 . S
C465 H482 0.931 . S
C466 C461 1.370 . S
C466 C462 1.395 . S
C466 H483 0.930 . S
C467 Gd414 2.805 . S
C467 O449 1.263 . S
C467 O450 1.252 . S
C467 C461 1.500 . S
C468 H430 0.930 . S
C468 C444 1.417 . S
C468 C469 1.329 . S
C469 C439 1.437 . S
C469 H440 0.929 . S
C469 C468 1.329 . S
H470 C443 0.931 . S
C471 O453 1.265 . S
C471 O454 1.242 . S
C472 O457 1.261 . S
C472 O458 1.252 . S
C473 C476 1.394 . S
C473 C478 1.370 . S
C473 C479 1.500 . S
C474 C477 1.383 . S
C474 C478 1.395 . S
C475 C476 1.396 . S
C475 C477 1.365 . S
C475 H484 0.929 . S
C476 C473 1.394 . S
C476 C475 1.396 . S
C476 H485 0.930 . S
C477 C474 1.383 . S
C477 C475 1.365 . S
C477 H486 0.931 . S
C478 C473 1.370 . S
C478 C474 1.395 . S
C478 H487 0.930 . S
C479 Gd415 2.805 . S
C479 O455 1.263 . S
C479 O456 1.252 . S
C479 C473 1.500 . S
H480 C463 0.929 . S
H481 C464 0.930 . S
H482 C465 0.931 . S
H483 C466 0.930 . S
H484 C475 0.929 . S
H485 C476 0.930 . S
H486 C477 0.931 . S
H487 C478 0.930 . S
C488 C490 1.422 . S
C488 C492 1.415 . S
C488 N494 1.369 . S
C489 C490 1.421 . S
C489 C491 1.417 . S
C489 C501 1.422 . S
C490 C488 1.422 . S
C490 C489 1.421 . S
C490 N500 1.359 . S
C491 C489 1.417 . S
C491 C493 1.329 . S
C491 H510 0.930 . S
C492 C488 1.415 . S
C492 C493 1.437 . S
C492 C496 1.413 . S
C493 C491 1.329 . S
C493 C492 1.437 . S
C493 H515 0.929 . S
N494 C488 1.369 . S
N494 C495 1.338 . S
N494 Gd499 2.622 . S
C495 N494 1.338 . S
C495 C497 1.378 . S
C495 H507 0.929 . S
C496 C492 1.413 . S
C496 C497 1.348 . S
C496 H512 0.931 . S
C497 C495 1.378 . S
C497 C496 1.348 . S
C497 H513 0.930 . S
Gd498 N518 2.622 . S
Gd498 N525 2.570 . S
Gd498 O532 2.353 . S
Gd498 O533 2.468 . S
Gd498 O534 2.427 . S
Gd498 O536 2.388 . S
Gd498 O537 2.386 . S
Gd498 O541 2.307 . S
Gd498 C551 2.805 . S
Gd499 N494 2.622 . S
Gd499 N500 2.570 . S
Gd499 O531 2.386 . S
Gd499 O535 2.307 1_655 S
Gd499 O538 2.353 1_655 S
Gd499 O539 2.468 . S
Gd499 O540 2.427 . S
Gd499 O542 2.388 . S
Gd499 C563 2.805 . S
N500 C490 1.359 . S
N500 Gd499 2.570 . S
N500 C502 1.343 . S
C501 C489 1.422 . S
C501 C503 1.321 . S
C501 H509 0.931 . S
C502 N500 1.343 . S
C502 C503 1.390 . S
C502 H504 0.931 . S
C503 C501 1.321 . S
C503 C502 1.390 . S
C503 H505 0.930 . S
H504 C502 0.931 . S
H505 C503 0.930 . S
H506 C529 0.931 . S
H507 C495 0.929 . S
H508 C530 0.930 . S
H509 C501 0.931 . S
H510 C491 0.930 . S
H511 C520 0.929 . S
H512 C496 0.931 . S
H513 C497 0.930 . S
H514 C552 0.930 . S
H515 C493 0.929 . S
H516 C521 0.931 . S
H517 C522 0.930 . S
N518 Gd498 2.622 . S
N518 C519 1.369 . S
N518 C520 1.338 . S
C519 N518 1.369 . S
C519 C523 1.415 . S
C519 C526 1.422 . S
C520 H511 0.929 . S
C520 N518 1.338 . S
C520 C522 1.378 . S
C521 H516 0.931 . S
C521 C522 1.348 . S
C521 C523 1.413 . S
C522 H517 0.930 . S
C522 C520 1.378 . S
C522 C521 1.348 . S
C523 C519 1.415 . S
C523 C521 1.413 . S
C523 C553 1.437 . S
H524 C553 0.929 . S
N525 Gd498 2.570 . S
N525 C526 1.359 . S
N525 C529 1.343 . S
C526 C519 1.422 . S
C526 N525 1.359 . S
C526 C528 1.421 . S
C527 C528 1.422 . S
C527 C530 1.321 . S
C527 H554 0.931 . S
C528 C526 1.421 . S
C528 C527 1.422 . S
C528 C552 1.417 . S
C529 H506 0.931 . S
C529 N525 1.343 . S
C529 C530 1.390 . S
C530 H508 0.930 . S
C530 C527 1.321 . S
C530 C529 1.390 . S
O531 Gd499 2.386 . S
O531 C543 1.265 . S
O532 Gd498 2.353 . S
O532 C543 1.242 1_455 S
O533 Gd498 2.468 . S
O533 C551 1.263 . S
O534 Gd498 2.427 . S
O534 C551 1.252 . S
O535 Gd499 2.307 1_455 S
O535 C544 1.261 . S
O536 Gd498 2.388 . S
O536 C544 1.252 . S
O537 Gd498 2.386 . S
O537 C555 1.265 . S
O538 Gd499 2.353 1_455 S
O538 C555 1.242 . S
O539 Gd499 2.468 . S
O539 C563 1.263 . S
O540 Gd499 2.427 . S
O540 C563 1.252 . S
O541 Gd498 2.307 . S
O541 C556 1.261 1_455 S
O542 Gd499 2.388 . S
O542 C556 1.252 . S
C543 O531 1.265 . S
C543 O532 1.242 1_655 S
C544 O535 1.261 . S
C544 O536 1.252 . S
C545 C548 1.394 . S
C545 C550 1.370 . S
C545 C551 1.500 . S
C546 C549 1.383 . S
C546 C550 1.395 . S
C547 C548 1.396 . S
C547 C549 1.365 . S
C547 H564 0.929 . S
C548 C545 1.394 . S
C548 C547 1.396 . S
C548 H565 0.930 . S
C549 C546 1.383 . S
C549 C547 1.365 . S
C549 H566 0.931 . S
C550 C545 1.370 . S
C550 C546 1.395 . S
C550 H567 0.930 . S
C551 Gd498 2.805 . S
C551 O533 1.263 . S
C551 O534 1.252 . S
C551 C545 1.500 . S
C552 H514 0.930 . S
C552 C528 1.417 . S
C552 C553 1.329 . S
C553 C523 1.437 . S
C553 H524 0.929 . S
C553 C552 1.329 . S
H554 C527 0.931 . S
C555 O537 1.265 . S
C555 O538 1.242 . S
C556 O541 1.261 1_655 S
C556 O542 1.252 . S
C557 C560 1.394 . S
C557 C562 1.370 . S
C557 C563 1.500 . S
C558 C561 1.383 . S
C558 C562 1.395 . S
C559 C560 1.396 . S
C559 C561 1.365 . S
C559 H568 0.929 . S
C560 C557 1.394 . S
C560 C559 1.396 . S
C560 H569 0.930 . S
C561 C558 1.383 . S
C561 C559 1.365 . S
C561 H570 0.931 . S
C562 C557 1.370 . S
C562 C558 1.395 . S
C562 H571 0.930 . S
C563 Gd499 2.805 . S
C563 O539 1.263 . S
C563 O540 1.252 . S
C563 C557 1.500 . S
H564 C547 0.929 . S
H565 C548 0.930 . S
H566 C549 0.931 . S
H567 C550 0.930 . S
H568 C559 0.929 . S
H569 C560 0.930 . S
H570 C561 0.931 . S
H571 C562 0.930 . S
C572 C574 1.422 . S
C572 C576 1.415 . S
C572 N578 1.369 . S
C573 C574 1.421 . S
C573 C575 1.417 . S
C573 C585 1.422 . S
C574 C572 1.422 . S
C574 C573 1.421 . S
C574 N584 1.359 . S
C575 C573 1.417 . S
C575 C577 1.329 . S
C575 H594 0.930 . S
C576 C572 1.415 . S
C576 C577 1.437 . S
C576 C580 1.413 . S
C577 C575 1.329 . S
C577 C576 1.437 . S
C577 H599 0.929 . S
N578 C572 1.369 . S
N578 C579 1.338 . S
N578 Gd583 2.622 . S
C579 N578 1.338 . S
C579 C581 1.378 . S
C579 H591 0.929 . S
C580 C576 1.413 . S
C580 C581 1.348 . S
C580 H596 0.931 . S
C581 C579 1.378 . S
C581 C580 1.348 . S
C581 H597 0.930 . S
Gd582 N602 2.622 . S
Gd582 N609 2.570 . S
Gd582 O616 2.353 . S
Gd582 O617 2.468 . S
Gd582 O618 2.427 . S
Gd582 O620 2.388 . S
Gd582 O621 2.386 . S
Gd582 O625 2.307 . S
Gd582 C635 2.805 . S
Gd583 N578 2.622 . S
Gd583 N584 2.570 . S
Gd583 O615 2.386 . S
Gd583 O619 2.307 . S
Gd583 O622 2.353 . S
Gd583 O623 2.468 . S
Gd583 O624 2.427 . S
Gd583 O626 2.388 . S
Gd583 C647 2.805 . S
N584 C574 1.359 . S
N584 Gd583 2.570 . S
N584 C586 1.343 . S
C585 C573 1.422 . S
C585 C587 1.321 . S
C585 H593 0.931 . S
C586 N584 1.343 . S
C586 C587 1.390 . S
C586 H588 0.931 . S
C587 C585 1.321 . S
C587 C586 1.390 . S
C587 H589 0.930 . S
H588 C586 0.931 . S
H589 C587 0.930 . S
H590 C613 0.931 . S
H591 C579 0.929 . S
H592 C614 0.930 . S
H593 C585 0.931 . S
H594 C575 0.930 . S
H595 C604 0.929 . S
H596 C580 0.931 . S
H597 C581 0.930 . S
H598 C636 0.930 . S
H599 C577 0.929 . S
H600 C605 0.931 . S
H601 C606 0.930 . S
N602 Gd582 2.622 . S
N602 C603 1.369 . S
N602 C604 1.338 . S
C603 N602 1.369 . S
C603 C607 1.415 . S
C603 C610 1.422 . S
C604 H595 0.929 . S
C604 N602 1.338 . S
C604 C606 1.378 . S
C605 H600 0.931 . S
C605 C606 1.348 . S
C605 C607 1.413 . S
C606 H601 0.930 . S
C606 C604 1.378 . S
C606 C605 1.348 . S
C607 C603 1.415 . S
C607 C605 1.413 . S
C607 C637 1.437 . S
H608 C637 0.929 . S
N609 Gd582 2.570 . S
N609 C610 1.359 . S
N609 C613 1.343 . S
C610 C603 1.422 . S
C610 N609 1.359 . S
C610 C612 1.421 . S
C611 C612 1.422 . S
C611 C614 1.321 . S
C611 H638 0.931 . S
C612 C610 1.421 . S
C612 C611 1.422 . S
C612 C636 1.417 . S
C613 H590 0.931 . S
C613 N609 1.343 . S
C613 C614 1.390 . S
C614 H592 0.930 . S
C614 C611 1.321 . S
C614 C613 1.390 . S
O615 Gd583 2.386 . S
O615 C627 1.265 . S
O616 Gd582 2.353 . S
O616 C627 1.242 . S
O617 Gd582 2.468 . S
O617 C635 1.263 . S
O618 Gd582 2.427 . S
O618 C635 1.252 . S
O619 Gd583 2.307 . S
O619 C628 1.261 . S
O620 Gd582 2.388 . S
O620 C628 1.252 . S
O621 Gd582 2.386 . S
O621 C639 1.265 . S
O622 Gd583 2.353 . S
O622 C639 1.242 . S
O623 Gd583 2.468 . S
O623 C647 1.263 . S
O624 Gd583 2.427 . S
O624 C647 1.252 . S
O625 Gd582 2.307 . S
O625 C640 1.261 . S
O626 Gd583 2.388 . S
O626 C640 1.252 . S
C627 O615 1.265 . S
C627 O616 1.242 . S
C628 O619 1.261 . S
C628 O620 1.252 . S
C629 C632 1.394 . S
C629 C634 1.370 . S
C629 C635 1.500 . S
C630 C633 1.383 . S
C630 C634 1.395 . S
C631 C632 1.396 . S
C631 C633 1.365 . S
C631 H648 0.929 . S
C632 C629 1.394 . S
C632 C631 1.396 . S
C632 H649 0.930 . S
C633 C630 1.383 . S
C633 C631 1.365 . S
C633 H650 0.931 . S
C634 C629 1.370 . S
C634 C630 1.395 . S
C634 H651 0.930 . S
C635 Gd582 2.805 . S
C635 O617 1.263 . S
C635 O618 1.252 . S
C635 C629 1.500 . S
C636 H598 0.930 . S
C636 C612 1.417 . S
C636 C637 1.329 . S
C637 C607 1.437 . S
C637 H608 0.929 . S
C637 C636 1.329 . S
H638 C611 0.931 . S
C639 O621 1.265 . S
C639 O622 1.242 . S
C640 O625 1.261 . S
C640 O626 1.252 . S
C641 C644 1.394 . S
C641 C646 1.370 . S
C641 C647 1.500 . S
C642 C645 1.383 . S
C642 C646 1.395 . S
C643 C644 1.396 . S
C643 C645 1.365 . S
C643 H652 0.929 . S
C644 C641 1.394 . S
C644 C643 1.396 . S
C644 H653 0.930 . S
C645 C642 1.383 . S
C645 C643 1.365 . S
C645 H654 0.931 . S
C646 C641 1.370 . S
C646 C642 1.395 . S
C646 H655 0.930 . S
C647 Gd583 2.805 . S
C647 O623 1.263 . S
C647 O624 1.252 . S
C647 C641 1.500 . S
H648 C631 0.929 . S
H649 C632 0.930 . S
H650 C633 0.931 . S
H651 C634 0.930 . S
H652 C643 0.929 . S
H653 C644 0.930 . S
H654 C645 0.931 . S
H655 C646 0.930 . S
C656 C657 1.387 . S
C656 H660 0.950 . S
C656 C665 1.390 . S
C657 C656 1.387 . S
C657 C659 1.387 . S
H658 C665 0.950 . S
C659 C657 1.387 . S
C659 C661 1.390 . S
C659 H663 0.950 . S
H660 C656 0.950 . S
C661 C659 1.390 . S
C661 C662 1.387 . S
C661 H664 0.950 . S
C662 C661 1.387 . S
C662 C665 1.387 . S
H663 C659 0.950 . S
H664 C661 0.950 . S
C665 C656 1.390 . S
C665 H658 0.950 . S
C665 C662 1.387 . S
C666 C667 1.387 . S
C666 H670 0.950 . S
C666 C675 1.390 . S
C667 C666 1.387 . S
C667 C669 1.387 . S
H668 C675 0.950 . S
C669 C667 1.387 . S
C669 C671 1.390 . S
C669 H673 0.950 . S
H670 C666 0.950 . S
C671 C669 1.390 . S
C671 C672 1.387 . S
C671 H674 0.950 . S
C672 C671 1.387 . S
C672 C675 1.387 . S
H673 C669 0.950 . S
H674 C671 0.950 . S
C675 C666 1.390 . S
C675 H668 0.950 . S
C675 C672 1.387 . S
C676 C677 1.387 . S
C676 H680 0.950 . S
C676 C685 1.390 . S
C677 C676 1.387 . S
C677 C679 1.387 . S
H678 C685 0.950 . S
C679 C677 1.387 . S
C679 C681 1.390 . S
C679 H683 0.950 . S
H680 C676 0.950 . S
C681 C679 1.390 . S
C681 C682 1.387 . S
C681 H684 0.950 . S
C682 C681 1.387 . S
C682 C685 1.387 . S
H683 C679 0.950 . S
H684 C681 0.950 . S
C685 C676 1.390 . S
C685 H678 0.950 . S
C685 C682 1.387 . S
C686 C687 1.387 . S
C686 H690 0.950 . S
C686 C695 1.390 . S
C687 C686 1.387 . S
C687 C689 1.387 . S
H688 C695 0.950 . S
C689 C687 1.387 . S
C689 C691 1.390 . S
C689 H693 0.950 . S
H690 C686 0.950 . S
C691 C689 1.390 . S
C691 C692 1.387 . S
C691 H694 0.950 . S
C692 C691 1.387 . S
C692 C695 1.387 . S
H693 C689 0.950 . S
H694 C691 0.950 . S
C695 C686 1.390 . S
C695 H688 0.950 . S
C695 C692 1.387 . S
C696 C697 1.387 . S
C696 H700 0.950 . S
C696 C705 1.390 . S
C697 C696 1.387 . S
C697 C699 1.387 . S
H698 C705 0.950 1_455 S
C699 C697 1.387 . S
C699 C701 1.390 . S
C699 H703 0.950 . S
H700 C696 0.950 . S
C701 C699 1.390 . S
C701 C702 1.387 . S
C701 H704 0.950 . S
C702 C701 1.387 . S
C702 C705 1.387 . S
H703 C699 0.950 . S
H704 C701 0.950 . S
C705 C696 1.390 . S
C705 H698 0.950 1_655 S
C705 C702 1.387 . S
C706 C707 1.387 . S
C706 H710 0.950 . S
C706 C715 1.390 . S
C707 C706 1.387 . S
C707 C709 1.387 . S
H708 C715 0.950 . S
C709 C707 1.387 . S
C709 C711 1.390 . S
C709 H713 0.950 . S
H710 C706 0.950 . S
C711 C709 1.390 . S
C711 C712 1.387 . S
C711 H714 0.950 . S
C712 C711 1.387 . S
C712 C715 1.387 . S
H713 C709 0.950 . S
H714 C711 0.950 . S
C715 C706 1.390 . S
C715 H708 0.950 . S
C715 C712 1.387 . S
C716 C717 1.387 . S
C716 H720 0.950 . S
C716 C725 1.390 . S
C717 C716 1.387 . S
C717 C719 1.387 . S
H718 C725 0.950 . S
C719 C717 1.387 . S
C719 C721 1.390 . S
C719 H723 0.950 . S
H720 C716 0.950 . S
C721 C719 1.390 . S
C721 C722 1.387 . S
C721 H724 0.950 . S
C722 C721 1.387 . S
C722 C725 1.387 . S
H723 C719 0.950 . S
H724 C721 0.950 . S
C725 C716 1.390 . S
C725 H718 0.950 . S
C725 C722 1.387 . S
C726 C727 1.387 . S
C726 H730 0.950 . S
C726 C735 1.390 . S
C727 C726 1.387 . S
C727 C729 1.387 . S
H728 C735 0.950 . S
C729 C727 1.387 . S
C729 C731 1.390 . S
C729 H733 0.950 . S
H730 C726 0.950 . S
C731 C729 1.390 . S
C731 C732 1.387 . S
C731 H734 0.950 . S
C732 C731 1.387 . S
C732 C735 1.387 . S
H733 C729 0.950 . S
H734 C731 0.950 . S
C735 C726 1.390 . S
C735 H728 0.950 . S
C735 C732 1.387 . S
C736 C737 1.387 . S
C736 H740 0.950 . S
C736 C745 1.390 . S
C737 C736 1.387 . S
C737 C739 1.387 . S
H738 C745 0.950 . S
C739 C737 1.387 . S
C739 C741 1.390 . S
C739 H743 0.950 . S
H740 C736 0.950 . S
C741 C739 1.390 . S
C741 C742 1.387 . S
C741 H744 0.950 . S
C742 C741 1.387 . S
C742 C745 1.387 . S
H743 C739 0.950 . S
H744 C741 0.950 . S
C745 C736 1.390 . S
C745 H738 0.950 . S
C745 C742 1.387 . S
C746 C747 1.387 . S
C746 H750 0.950 . S
C746 C755 1.390 . S
C747 C746 1.387 . S
C747 C749 1.387 . S
H748 C755 0.950 . S
C749 C747 1.387 . S
C749 C751 1.390 . S
C749 H753 0.950 . S
H750 C746 0.950 . S
C751 C749 1.390 . S
C751 C752 1.387 . S
C751 H754 0.950 . S
C752 C751 1.387 . S
C752 C755 1.387 . S
H753 C749 0.950 . S
H754 C751 0.950 . S
C755 C746 1.390 . S
C755 H748 0.950 . S
C755 C752 1.387 . S
C756 C757 1.387 . S
C756 H760 0.950 . S
C756 C765 1.390 . S
C757 C756 1.387 . S
C757 C759 1.387 . S
H758 C765 0.950 . S
C759 C757 1.387 . S
C759 C761 1.390 . S
C759 H763 0.950 . S
H760 C756 0.950 . S
C761 C759 1.390 . S
C761 C762 1.387 . S
C761 H764 0.950 . S
C762 C761 1.387 . S
C762 C765 1.387 . S
H763 C759 0.950 . S
H764 C761 0.950 . S
C765 C756 1.390 . S
C765 H758 0.950 . S
C765 C762 1.387 . S
C766 C767 1.387 . S
C766 H770 0.950 . S
C766 C775 1.390 . S
C767 C766 1.387 . S
C767 C769 1.387 . S
H768 C775 0.950 . S
C769 C767 1.387 . S
C769 C771 1.390 . S
C769 H773 0.950 . S
H770 C766 0.950 . S
C771 C769 1.390 . S
C771 C772 1.387 . S
C771 H774 0.950 . S
C772 C771 1.387 . S
C772 C775 1.387 . S
H773 C769 0.950 . S
H774 C771 0.950 . S
C775 C766 1.390 . S
C775 H768 0.950 . S
C775 C772 1.387 . S
C776 C777 1.387 . S
C776 H780 0.950 . S
C776 C785 1.390 . S
C777 C776 1.387 . S
C777 C779 1.387 . S
H778 C785 0.950 . S
C779 C777 1.387 . S
C779 C781 1.390 . S
C779 H783 0.950 . S
H780 C776 0.950 . S
C781 C779 1.390 . S
C781 C782 1.387 . S
C781 H784 0.950 . S
C782 C781 1.387 . S
C782 C785 1.387 . S
H783 C779 0.950 . S
H784 C781 0.950 . S
C785 C776 1.390 . S
C785 H778 0.950 . S
C785 C782 1.387 . S
C786 C787 1.387 . S
C786 H790 0.950 . S
C786 C795 1.390 . S
C787 C786 1.387 . S
C787 C789 1.387 . S
H788 C795 0.950 . S
C789 C787 1.387 . S
C789 C791 1.390 . S
C789 H793 0.950 . S
H790 C786 0.950 . S
C791 C789 1.390 . S
C791 C792 1.387 . S
C791 H794 0.950 . S
C792 C791 1.387 . S
C792 C795 1.387 . S
H793 C789 0.950 . S
H794 C791 0.950 . S
C795 C786 1.390 . S
C795 H788 0.950 . S
C795 C792 1.387 . S
C796 C797 1.387 . S
C796 H800 0.950 . S
C796 C805 1.390 . S
C797 C796 1.387 . S
C797 C799 1.387 . S
H798 C805 0.950 . S
C799 C797 1.387 . S
C799 C801 1.390 . S
C799 H803 0.950 . S
H800 C796 0.950 . S
C801 C799 1.390 . S
C801 C802 1.387 . S
C801 H804 0.950 . S
C802 C801 1.387 . S
C802 C805 1.387 . S
H803 C799 0.950 . S
H804 C801 0.950 . S
C805 C796 1.390 . S
C805 H798 0.950 . S
C805 C802 1.387 . S
C806 C807 1.387 . S
C806 H810 0.950 . S
C806 C815 1.390 . S
C807 C806 1.387 . S
C807 C809 1.387 . S
H808 C815 0.950 . S
C809 C807 1.387 . S
C809 C811 1.390 . S
C809 H813 0.950 . S
H810 C806 0.950 . S
C811 C809 1.390 . S
C811 C812 1.387 . S
C811 H814 0.950 . S
C812 C811 1.387 . S
C812 C815 1.387 . S
H813 C809 0.950 . S
H814 C811 0.950 . S
C815 C806 1.390 . S
C815 H808 0.950 . S
C815 C812 1.387 . S
C816 C817 1.387 . S
C816 H820 0.950 . S
C816 C825 1.390 . S
C817 C816 1.387 . S
C817 C819 1.387 . S
H818 C825 0.950 1_655 S
C819 C817 1.387 . S
C819 C821 1.390 . S
C819 H823 0.950 . S
H820 C816 0.950 . S
C821 C819 1.390 . S
C821 C822 1.387 . S
C821 H824 0.950 . S
C822 C821 1.387 . S
C822 C825 1.387 . S
H823 C819 0.950 . S
H824 C821 0.950 . S
C825 C816 1.390 . S
C825 H818 0.950 1_455 S
C825 C822 1.387 . S
C826 C827 1.387 . S
C826 H830 0.950 . S
C826 C835 1.390 . S
C827 C826 1.387 . S
C827 C829 1.387 . S
H828 C835 0.950 . S
C829 C827 1.387 . S
C829 C831 1.390 . S
C829 H833 0.950 . S
H830 C826 0.950 . S
C831 C829 1.390 . S
C831 C832 1.387 . S
C831 H834 0.950 . S
C832 C831 1.387 . S
C832 C835 1.387 . S
H833 C829 0.950 . S
H834 C831 0.950 . S
C835 C826 1.390 . S
C835 H828 0.950 . S
C835 C832 1.387 . S
C836 C837 1.387 . S
C836 H840 0.950 . S
C836 C845 1.390 . S
C837 C836 1.387 . S
C837 C839 1.387 . S
H838 C845 0.950 . S
C839 C837 1.387 . S
C839 C841 1.390 . S
C839 H843 0.950 . S
H840 C836 0.950 . S
C841 C839 1.390 . S
C841 C842 1.387 . S
C841 H844 0.950 . S
C842 C841 1.387 . S
C842 C845 1.387 . S
H843 C839 0.950 . S
H844 C841 0.950 . S
C845 C836 1.390 . S
C845 H838 0.950 . S
C845 C842 1.387 . S
C846 C847 1.387 . S
C846 H850 0.950 . S
C846 C855 1.390 . S
C847 C846 1.387 . S
C847 C849 1.387 . S
H848 C855 0.950 . S
C849 C847 1.387 . S
C849 C851 1.390 . S
C849 H853 0.950 . S
H850 C846 0.950 . S
C851 C849 1.390 . S
C851 C852 1.387 . S
C851 H854 0.950 . S
C852 C851 1.387 . S
C852 C855 1.387 . S
H853 C849 0.950 . S
H854 C851 0.950 . S
C855 C846 1.390 . S
C855 H848 0.950 . S
C855 C852 1.387 . S
C856 C857 1.387 . S
C856 H860 0.950 . S
C856 C865 1.390 . S
C857 C856 1.387 . S
C857 C859 1.387 . S
H858 C865 0.950 . S
C859 C857 1.387 . S
C859 C861 1.390 . S
C859 H863 0.950 . S
H860 C856 0.950 . S
C861 C859 1.390 . S
C861 C862 1.387 . S
C861 H864 0.950 . S
C862 C861 1.387 . S
C862 C865 1.387 . S
H863 C859 0.950 . S
H864 C861 0.950 . S
C865 C856 1.390 . S
C865 H858 0.950 . S
C865 C862 1.387 . S
C866 C867 1.387 . S
C866 H870 0.950 . S
C866 C875 1.390 . S
C867 C866 1.387 . S
C867 C869 1.387 . S
H868 C875 0.950 . S
C869 C867 1.387 . S
C869 C871 1.390 . S
C869 H873 0.950 . S
H870 C866 0.950 . S
C871 C869 1.390 . S
C871 C872 1.387 . S
C871 H874 0.950 . S
C872 C871 1.387 . S
C872 C875 1.387 . S
H873 C869 0.950 . S
H874 C871 0.950 . S
C875 C866 1.390 . S
C875 H868 0.950 . S
C875 C872 1.387 . S
C876 C877 1.387 . S
C876 H880 0.950 . S
C876 C885 1.390 . S
C877 C876 1.387 . S
C877 C879 1.387 . S
H878 C885 0.950 . S
C879 C877 1.387 . S
C879 C881 1.390 . S
C879 H883 0.950 . S
H880 C876 0.950 . S
C881 C879 1.390 . S
C881 C882 1.387 . S
C881 H884 0.950 . S
C882 C881 1.387 . S
C882 C885 1.387 . S
H883 C879 0.950 . S
H884 C881 0.950 . S
C885 C876 1.390 . S
C885 H878 0.950 . S
C885 C882 1.387 . S
C886 C887 1.387 . S
C886 H890 0.950 . S
C886 C895 1.390 . S
C887 C886 1.387 . S
C887 C889 1.387 . S
H888 C895 0.950 . S
C889 C887 1.387 . S
C889 C891 1.390 . S
C889 H893 0.950 . S
H890 C886 0.950 . S
C891 C889 1.390 . S
C891 C892 1.387 . S
C891 H894 0.950 . S
C892 C891 1.387 . S
C892 C895 1.387 . S
H893 C889 0.950 . S
H894 C891 0.950 . S
C895 C886 1.390 . S
C895 H888 0.950 . S
C895 C892 1.387 . S
C657 C242 1.466 . S
C662 C376 1.498 . S
C672 C460 1.490 . S
C667 C301 1.505 . S
C682 C459 1.504 . S
C677 C162 1.462 . S
C687 C221 1.508 . S
C692 C375 1.497 . S
C702 C556 1.498 . S
C697 C82 1.505 . S
C712 C640 1.491 . S
C707 C141 1.472 . S
C717 C2 1.508 . S
C722 C639 1.504 . S
C727 C61 1.466 . S
C732 C555 1.497 . S
C742 C378 1.318 . S
C737 C42 1.496 . S
C752 C462 1.322 . S
C747 C21 1.548 . S
C762 C474 1.399 . S
C757 C122 1.515 . S
C772 C390 1.397 . S
C767 C101 1.558 . S
C782 C558 1.322 . S
C777 C202 1.540 . S
C787 C181 1.497 . S
C792 C642 1.320 . S
C802 C630 1.400 . S
C797 C282 1.550 . S
C807 C261 1.516 . S
C812 C546 1.401 . S
C822 C387 1.620 . S
C817 C15 1.605 . S
C832 C471 1.602 . S
C827 C55 1.588 . S
C837 C95 1.587 . S
C842 C472 1.602 . S
C852 C388 1.584 . S
C847 C135 1.572 . S
C862 C543 1.620 . S
C857 C175 1.601 . S
C867 C215 1.592 . S
C872 C627 1.601 . S
C877 C255 1.582 . S
C882 C628 1.602 . S
C887 C295 1.577 . S
C892 C544 1.584 . S
