# Generated by pormake.
# Topology gar, (4,6)-cn, num edge types: 1
# Building blocks:
#     Node 0, Type 0, BuildingBlock: GALJAG_clean_sbu_0, # of connection points: 4
#     Node 1, Type 0, BuildingBlock: GALJAG_clean_sbu_0, # of connection points: 4
#     Node 2, Type 0, BuildingBlock: GALJAG_clean_sbu_0, # of connection points: 4
#     Node 3, Type 0, BuildingBlock: GALJAG_clean_sbu_0, # of connection points: 4
#     Node 4, Type 0, BuildingBlock: GALJAG_clean_sbu_0, # of connection points: 4
#     Node 5, Type 0, BuildingBlock: GALJAG_clean_sbu_0, # of connection points: 4
#     Node 6, Type 0, BuildingBlock: GALJAG_clean_sbu_0, # of connection points: 4
#     Node 7, Type 0, BuildingBlock: GALJAG_clean_sbu_0, # of connection points: 4
#     Node 8, Type 0, BuildingBlock: GALJAG_clean_sbu_0, # of connection points: 4
#     Node 9, Type 0, BuildingBlock: GALJAG_clean_sbu_0, # of connection points: 4
#     Node 10, Type 0, BuildingBlock: GALJAG_clean_sbu_0, # of connection points: 4
#     Node 11, Type 0, BuildingBlock: GALJAG_clean_sbu_0, # of connection points: 4
#     Node 12, Type 0, BuildingBlock: GALJAG_clean_sbu_0, # of connection points: 4
#     Node 13, Type 0, BuildingBlock: GALJAG_clean_sbu_0, # of connection points: 4
#     Node 14, Type 0, BuildingBlock: GALJAG_clean_sbu_0, # of connection points: 4
#     Node 15, Type 0, BuildingBlock: GALJAG_clean_sbu_0, # of connection points: 4
#     Node 16, Type 0, BuildingBlock: GALJAG_clean_sbu_0, # of connection points: 4
#     Node 17, Type 0, BuildingBlock: GALJAG_clean_sbu_0, # of connection points: 4
#     Node 18, Type 0, BuildingBlock: GALJAG_clean_sbu_0, # of connection points: 4
#     Node 19, Type 0, BuildingBlock: GALJAG_clean_sbu_0, # of connection points: 4
#     Node 20, Type 0, BuildingBlock: GALJAG_clean_sbu_0, # of connection points: 4
#     Node 21, Type 0, BuildingBlock: GALJAG_clean_sbu_0, # of connection points: 4
#     Node 22, Type 0, BuildingBlock: GALJAG_clean_sbu_0, # of connection points: 4
#     Node 23, Type 0, BuildingBlock: GALJAG_clean_sbu_0, # of connection points: 4
#     Node 24, Type 1, BuildingBlock: BETDIP_clean_sbu_0, # of connection points: 6
#     Node 25, Type 1, BuildingBlock: BETDIP_clean_sbu_0, # of connection points: 6
#     Node 26, Type 1, BuildingBlock: BETDIP_clean_sbu_0, # of connection points: 6
#     Node 27, Type 1, BuildingBlock: BETDIP_clean_sbu_0, # of connection points: 6
#     Node 28, Type 1, BuildingBlock: BETDIP_clean_sbu_0, # of connection points: 6
#     Node 29, Type 1, BuildingBlock: BETDIP_clean_sbu_0, # of connection points: 6
#     Node 30, Type 1, BuildingBlock: BETDIP_clean_sbu_0, # of connection points: 6
#     Node 31, Type 1, BuildingBlock: BETDIP_clean_sbu_0, # of connection points: 6
#     Node 32, Type 1, BuildingBlock: BETDIP_clean_sbu_0, # of connection points: 6
#     Node 33, Type 1, BuildingBlock: BETDIP_clean_sbu_0, # of connection points: 6
#     Node 34, Type 1, BuildingBlock: BETDIP_clean_sbu_0, # of connection points: 6
#     Node 35, Type 1, BuildingBlock: BETDIP_clean_sbu_0, # of connection points: 6
#     Node 36, Type 1, BuildingBlock: BETDIP_clean_sbu_0, # of connection points: 6
#     Node 37, Type 1, BuildingBlock: BETDIP_clean_sbu_0, # of connection points: 6
#     Node 38, Type 1, BuildingBlock: BETDIP_clean_sbu_0, # of connection points: 6
#     Node 39, Type 1, BuildingBlock: BETDIP_clean_sbu_0, # of connection points: 6
#     Edge 40, Type (0, 1), BuildingBlock: KIFKEQ_clean_linker_1, # of connection points: 2
#     Edge 41, Type (0, 1), BuildingBlock: KIFKEQ_clean_linker_1, # of connection points: 2
#     Edge 42, Type (0, 1), BuildingBlock: KIFKEQ_clean_linker_1, # of connection points: 2
#     Edge 43, Type (0, 1), BuildingBlock: KIFKEQ_clean_linker_1, # of connection points: 2
#     Edge 44, Type (0, 1), BuildingBlock: KIFKEQ_clean_linker_1, # of connection points: 2
#     Edge 45, Type (0, 1), BuildingBlock: KIFKEQ_clean_linker_1, # of connection points: 2
#     Edge 46, Type (0, 1), BuildingBlock: KIFKEQ_clean_linker_1, # of connection points: 2
#     Edge 47, Type (0, 1), BuildingBlock: KIFKEQ_clean_linker_1, # of connection points: 2
#     Edge 48, Type (0, 1), BuildingBlock: KIFKEQ_clean_linker_1, # of connection points: 2
#     Edge 49, Type (0, 1), BuildingBlock: KIFKEQ_clean_linker_1, # of connection points: 2
#     Edge 50, Type (0, 1), BuildingBlock: KIFKEQ_clean_linker_1, # of connection points: 2
#     Edge 51, Type (0, 1), BuildingBlock: KIFKEQ_clean_linker_1, # of connection points: 2
#     Edge 52, Type (0, 1), BuildingBlock: KIFKEQ_clean_linker_1, # of connection points: 2
#     Edge 53, Type (0, 1), BuildingBlock: KIFKEQ_clean_linker_1, # of connection points: 2
#     Edge 54, Type (0, 1), BuildingBlock: KIFKEQ_clean_linker_1, # of connection points: 2
#     Edge 55, Type (0, 1), BuildingBlock: KIFKEQ_clean_linker_1, # of connection points: 2
#     Edge 56, Type (0, 1), BuildingBlock: KIFKEQ_clean_linker_1, # of connection points: 2
#     Edge 57, Type (0, 1), BuildingBlock: KIFKEQ_clean_linker_1, # of connection points: 2
#     Edge 58, Type (0, 1), BuildingBlock: KIFKEQ_clean_linker_1, # of connection points: 2
#     Edge 59, Type (0, 1), BuildingBlock: KIFKEQ_clean_linker_1, # of connection points: 2
#     Edge 60, Type (0, 1), BuildingBlock: KIFKEQ_clean_linker_1, # of connection points: 2
#     Edge 61, Type (0, 1), BuildingBlock: KIFKEQ_clean_linker_1, # of connection points: 2
#     Edge 62, Type (0, 1), BuildingBlock: KIFKEQ_clean_linker_1, # of connection points: 2
#     Edge 63, Type (0, 1), BuildingBlock: KIFKEQ_clean_linker_1, # of connection points: 2
#     Edge 64, Type (0, 1), BuildingBlock: KIFKEQ_clean_linker_1, # of connection points: 2
#     Edge 65, Type (0, 1), BuildingBlock: KIFKEQ_clean_linker_1, # of connection points: 2
#     Edge 66, Type (0, 1), BuildingBlock: KIFKEQ_clean_linker_1, # of connection points: 2
#     Edge 67, Type (0, 1), BuildingBlock: KIFKEQ_clean_linker_1, # of connection points: 2
#     Edge 68, Type (0, 1), BuildingBlock: KIFKEQ_clean_linker_1, # of connection points: 2
#     Edge 69, Type (0, 1), BuildingBlock: KIFKEQ_clean_linker_1, # of connection points: 2
#     Edge 70, Type (0, 1), BuildingBlock: KIFKEQ_clean_linker_1, # of connection points: 2
#     Edge 71, Type (0, 1), BuildingBlock: KIFKEQ_clean_linker_1, # of connection points: 2
#     Edge 72, Type (0, 1), BuildingBlock: KIFKEQ_clean_linker_1, # of connection points: 2
#     Edge 73, Type (0, 1), BuildingBlock: KIFKEQ_clean_linker_1, # of connection points: 2
#     Edge 74, Type (0, 1), BuildingBlock: KIFKEQ_clean_linker_1, # of connection points: 2
#     Edge 75, Type (0, 1), BuildingBlock: KIFKEQ_clean_linker_1, # of connection points: 2
#     Edge 76, Type (0, 1), BuildingBlock: KIFKEQ_clean_linker_1, # of connection points: 2
#     Edge 77, Type (0, 1), BuildingBlock: KIFKEQ_clean_linker_1, # of connection points: 2
#     Edge 78, Type (0, 1), BuildingBlock: KIFKEQ_clean_linker_1, # of connection points: 2
#     Edge 79, Type (0, 1), BuildingBlock: KIFKEQ_clean_linker_1, # of connection points: 2
#     Edge 80, Type (0, 1), BuildingBlock: KIFKEQ_clean_linker_1, # of connection points: 2
#     Edge 81, Type (0, 1), BuildingBlock: KIFKEQ_clean_linker_1, # of connection points: 2
#     Edge 82, Type (0, 1), BuildingBlock: KIFKEQ_clean_linker_1, # of connection points: 2
#     Edge 83, Type (0, 1), BuildingBlock: KIFKEQ_clean_linker_1, # of connection points: 2
#     Edge 84, Type (0, 1), BuildingBlock: KIFKEQ_clean_linker_1, # of connection points: 2
#     Edge 85, Type (0, 1), BuildingBlock: KIFKEQ_clean_linker_1, # of connection points: 2
#     Edge 86, Type (0, 1), BuildingBlock: KIFKEQ_clean_linker_1, # of connection points: 2
#     Edge 87, Type (0, 1), BuildingBlock: KIFKEQ_clean_linker_1, # of connection points: 2
#     Edge 88, Type (0, 1), BuildingBlock: KIFKEQ_clean_linker_1, # of connection points: 2
#     Edge 89, Type (0, 1), BuildingBlock: KIFKEQ_clean_linker_1, # of connection points: 2
#     Edge 90, Type (0, 1), BuildingBlock: KIFKEQ_clean_linker_1, # of connection points: 2
#     Edge 91, Type (0, 1), BuildingBlock: KIFKEQ_clean_linker_1, # of connection points: 2
#     Edge 92, Type (0, 1), BuildingBlock: KIFKEQ_clean_linker_1, # of connection points: 2
#     Edge 93, Type (0, 1), BuildingBlock: KIFKEQ_clean_linker_1, # of connection points: 2
#     Edge 94, Type (0, 1), BuildingBlock: KIFKEQ_clean_linker_1, # of connection points: 2
#     Edge 95, Type (0, 1), BuildingBlock: KIFKEQ_clean_linker_1, # of connection points: 2
#     Edge 96, Type (0, 1), BuildingBlock: KIFKEQ_clean_linker_1, # of connection points: 2
#     Edge 97, Type (0, 1), BuildingBlock: KIFKEQ_clean_linker_1, # of connection points: 2
#     Edge 98, Type (0, 1), BuildingBlock: KIFKEQ_clean_linker_1, # of connection points: 2
#     Edge 99, Type (0, 1), BuildingBlock: KIFKEQ_clean_linker_1, # of connection points: 2
#     Edge 100, Type (0, 1), BuildingBlock: KIFKEQ_clean_linker_1, # of connection points: 2
#     Edge 101, Type (0, 1), BuildingBlock: KIFKEQ_clean_linker_1, # of connection points: 2
#     Edge 102, Type (0, 1), BuildingBlock: KIFKEQ_clean_linker_1, # of connection points: 2
#     Edge 103, Type (0, 1), BuildingBlock: KIFKEQ_clean_linker_1, # of connection points: 2
#     Edge 104, Type (0, 1), BuildingBlock: KIFKEQ_clean_linker_1, # of connection points: 2
#     Edge 105, Type (0, 1), BuildingBlock: KIFKEQ_clean_linker_1, # of connection points: 2
#     Edge 106, Type (0, 1), BuildingBlock: KIFKEQ_clean_linker_1, # of connection points: 2
#     Edge 107, Type (0, 1), BuildingBlock: KIFKEQ_clean_linker_1, # of connection points: 2
#     Edge 108, Type (0, 1), BuildingBlock: KIFKEQ_clean_linker_1, # of connection points: 2
#     Edge 109, Type (0, 1), BuildingBlock: KIFKEQ_clean_linker_1, # of connection points: 2
#     Edge 110, Type (0, 1), BuildingBlock: KIFKEQ_clean_linker_1, # of connection points: 2
#     Edge 111, Type (0, 1), BuildingBlock: KIFKEQ_clean_linker_1, # of connection points: 2
#     Edge 112, Type (0, 1), BuildingBlock: KIFKEQ_clean_linker_1, # of connection points: 2
#     Edge 113, Type (0, 1), BuildingBlock: KIFKEQ_clean_linker_1, # of connection points: 2
#     Edge 114, Type (0, 1), BuildingBlock: KIFKEQ_clean_linker_1, # of connection points: 2
#     Edge 115, Type (0, 1), BuildingBlock: KIFKEQ_clean_linker_1, # of connection points: 2
#     Edge 116, Type (0, 1), BuildingBlock: KIFKEQ_clean_linker_1, # of connection points: 2
#     Edge 117, Type (0, 1), BuildingBlock: KIFKEQ_clean_linker_1, # of connection points: 2
#     Edge 118, Type (0, 1), BuildingBlock: KIFKEQ_clean_linker_1, # of connection points: 2
#     Edge 119, Type (0, 1), BuildingBlock: KIFKEQ_clean_linker_1, # of connection points: 2
#     Edge 120, Type (0, 1), BuildingBlock: KIFKEQ_clean_linker_1, # of connection points: 2
#     Edge 121, Type (0, 1), BuildingBlock: KIFKEQ_clean_linker_1, # of connection points: 2
#     Edge 122, Type (0, 1), BuildingBlock: KIFKEQ_clean_linker_1, # of connection points: 2
#     Edge 123, Type (0, 1), BuildingBlock: KIFKEQ_clean_linker_1, # of connection points: 2
#     Edge 124, Type (0, 1), BuildingBlock: KIFKEQ_clean_linker_1, # of connection points: 2
#     Edge 125, Type (0, 1), BuildingBlock: KIFKEQ_clean_linker_1, # of connection points: 2
#     Edge 126, Type (0, 1), BuildingBlock: KIFKEQ_clean_linker_1, # of connection points: 2
#     Edge 127, Type (0, 1), BuildingBlock: KIFKEQ_clean_linker_1, # of connection points: 2
#     Edge 128, Type (0, 1), BuildingBlock: KIFKEQ_clean_linker_1, # of connection points: 2
#     Edge 129, Type (0, 1), BuildingBlock: KIFKEQ_clean_linker_1, # of connection points: 2
#     Edge 130, Type (0, 1), BuildingBlock: KIFKEQ_clean_linker_1, # of connection points: 2
#     Edge 131, Type (0, 1), BuildingBlock: KIFKEQ_clean_linker_1, # of connection points: 2
#     Edge 132, Type (0, 1), BuildingBlock: KIFKEQ_clean_linker_1, # of connection points: 2
#     Edge 133, Type (0, 1), BuildingBlock: KIFKEQ_clean_linker_1, # of connection points: 2
#     Edge 134, Type (0, 1), BuildingBlock: KIFKEQ_clean_linker_1, # of connection points: 2
#     Edge 135, Type (0, 1), BuildingBlock: KIFKEQ_clean_linker_1, # of connection points: 2
# Relax obj value: 0.194
# Max RMSD: 0.298
# Mean RMSD: 0.164
data_MOF--net-gar--node1-GALJAG_clean_sbu_0--node2-BETDIP_clean_sbu_0--edge1-KIFKEQ_clean_linker_1
_symmetry_space_group_name_H-M    P1
_symmetry_Int_Tables_number       1
_symmetry_cell_setting            triclinic
loop_
_symmetry_equiv_pos_as_xyz
'x, y, z'
_cell_length_a     65.075593
_cell_length_b     57.913907
_cell_length_c     55.317558
_cell_angle_alpha  96.887349
_cell_angle_beta   98.277637
_cell_angle_gamma 100.26063
loop_
_atom_site_label
_atom_site_type_symbol
_atom_site_fract_x
_atom_site_fract_y
_atom_site_fract_z
_atom_type_partial_charge
In0 In 0.04815 0.32129 0.38777 0.0
O1 O 0.05651 0.31285 0.34948 0.0
O2 O 0.07943 0.33682 0.37641 0.0
C3 C 1.00764 0.31342 0.36523 0.0
C4 C 0.06162 0.28665 0.41015 0.0
C5 C 0.04551 0.35645 0.42309 0.0
O6 O 1.01518 0.29858 0.37692 0.0
O7 O 0.02072 0.33211 0.36434 0.0
O8 O 0.04001 0.33482 0.42484 0.0
O9 O 0.05277 0.36042 0.4037 0.0
C10 C 0.0748 0.32568 0.35471 0.0
O11 O 0.07147 0.30793 0.41498 0.0
O12 O 0.04518 0.2829 0.39395 0.0
In13 In 0.07317 0.75819 0.72453 0.0
O14 O 0.08893 0.78947 0.70839 0.0
O15 O 0.05528 0.78211 0.7034 0.0
C16 C 0.07171 0.72158 0.68913 0.0
C17 C 0.11081 0.76178 0.75315 0.0
C18 C 0.04193 0.7561 0.75164 0.0
O19 O 0.07678 0.74292 0.68604 0.0
O20 O 0.06691 0.71861 0.71003 0.0
O21 O 0.06021 0.76843 0.75951 0.0
O22 O 0.03962 0.74439 0.73038 0.0
C23 C 0.07188 0.79503 0.69947 0.0
O24 O 0.10006 0.74221 0.74178 0.0
O25 O 0.1019 0.77927 0.75133 0.0
In26 In 0.54368 0.8239 0.88882 0.0
O27 O 0.55206 0.80913 0.85246 0.0
O28 O 0.57521 0.83597 0.87634 0.0
C29 C 0.50471 0.82561 0.86639 0.0
C30 C 0.55055 0.78601 0.91 0.0
C31 C 0.54764 0.86022 0.92551 0.0
O32 O 0.52118 0.83636 0.85991 0.0
O33 O 0.50795 0.81379 0.88376 0.0
O34 O 0.53912 0.83921 0.92674 0.0
O35 O 0.55454 0.86312 0.90565 0.0
C36 C 0.57044 0.8218 0.85624 0.0
O37 O 0.56293 0.80596 0.91552 0.0
O38 O 0.53489 0.78497 0.89326 0.0
In39 In 0.5661 0.25701 0.22583 0.0
O40 O 0.55092 0.23831 0.18746 0.0
O41 O 0.5609 0.21696 0.21387 0.0
C42 C 0.56336 0.29435 0.20213 0.0
C43 C 0.54269 0.26099 0.2621 0.0
C44 C 0.60781 0.25844 0.23935 0.0
O45 O 0.54756 0.27799 0.20167 0.0
O46 O 0.58029 0.2921 0.21505 0.0
O47 O 0.59617 0.26248 0.25512 0.0
O48 O 0.59825 0.25308 0.21742 0.0
C49 C 0.5533 0.21798 0.19173 0.0
O50 O 0.54285 0.24115 0.24994 0.0
O51 O 0.55462 0.27832 0.25633 0.0
In52 In 0.08921 0.809 0.16893 0.0
O53 O 0.07863 0.78045 0.13373 0.0
O54 O 0.09039 0.7695 0.16729 0.0
C55 C 0.08803 0.85007 0.14781 0.0
C56 C 0.05367 0.80417 0.19092 0.0
C57 C 0.1296 0.81279 0.19483 0.0
O58 O 0.09308 0.83196 0.13694 0.0
O59 O 0.08418 0.84764 0.16913 0.0
O60 O 0.11364 0.81414 0.20511 0.0
O61 O 0.1255 0.81076 0.17157 0.0
C62 C 0.08314 0.76349 0.14457 0.0
O63 O 0.072 0.81366 0.20256 0.0
O64 O 0.05328 0.79693 0.16836 0.0
In65 In 0.52125 0.76952 0.44762 0.0
O66 O 0.53839 0.76687 0.41362 0.0
O67 O 0.55739 0.77382 0.44908 0.0
C68 C 0.48135 0.76802 0.4217 0.0
C69 C 0.52127 0.72911 0.47009 0.0
C70 C 0.52769 0.81552 0.4709 0.0
O71 O 0.49651 0.76298 0.41153 0.0
O72 O 0.48602 0.77295 0.44492 0.0
O73 O 0.52036 0.79794 0.48082 0.0
O74 O 0.53207 0.80984 0.44979 0.0
C75 C 0.55691 0.77077 0.42601 0.0
O76 O 0.52857 0.7499 0.48136 0.0
O77 O 0.51338 0.72864 0.44778 0.0
In78 In 0.58748 0.30704 0.66958 0.0
O79 O 0.58971 0.27972 0.63593 0.0
O80 O 0.57574 0.26678 0.66512 0.0
C81 C 0.58582 0.34648 0.6463 0.0
C82 C 0.55241 0.30767 0.69177 0.0
C83 C 0.62731 0.30866 0.69596 0.0
O84 O 0.58069 0.32546 0.63496 0.0
O85 O 0.59211 0.34766 0.6692 0.0
O86 O 0.61037 0.3013 0.70369 0.0
O87 O 0.6243 0.31591 0.67537 0.0
C88 C 0.58112 0.26179 0.64445 0.0
O89 O 0.57107 0.31588 0.70322 0.0
O90 O 0.55152 0.29957 0.66935 0.0
In91 In 0.0214 0.27233 0.94784 0.0
O92 O 0.01838 0.24945 0.97992 0.0
O93 O 0.02538 0.23325 0.94674 0.0
C94 C 0.02732 0.31805 0.97163 0.0
C95 C 0.05715 0.27729 0.92631 0.0
C96 C 0.98065 0.26787 0.9229 0.0
O97 O 0.03119 0.30111 0.98291 0.0
O98 O 0.02087 0.31193 0.94876 0.0
O99 O 0.99613 0.26532 0.91211 0.0
O100 O 0.98545 0.27144 0.94616 0.0
C101 C 0.02246 0.23103 0.96845 0.0
O102 O 0.03864 0.27072 0.91397 0.0
O103 O 0.05761 0.28153 0.94934 0.0
In104 In 0.42748 0.05886 0.29771 0.0
O105 O 0.42921 0.04981 0.25395 0.0
O106 O 0.45793 0.06487 0.27657 0.0
C107 C 0.45302 0.05878 0.34522 0.0
C108 C 0.40599 0.10029 0.29813 0.0
C109 C 0.40337 1.01148 0.29556 0.0
O110 O 0.4603 0.06636 0.32696 0.0
O111 O 0.43313 0.05208 0.33999 0.0
O112 O 0.39798 0.03021 0.30462 0.0
O113 O 0.42023 1.01649 0.28675 0.0
C114 C 0.44896 0.05648 0.25457 0.0
O115 O 0.39796 0.07937 0.28725 0.0
O116 O 0.42475 0.10065 0.30857 0.0
In117 In 0.27548 0.16976 0.53713 0.0
O118 O 0.2749 0.20305 0.56447 0.0
O119 O 0.28505 0.1742 0.57935 0.0
C120 C 0.27785 0.19273 0.49641 0.0
C121 C 0.3109 0.15 0.53788 0.0
C122 C 0.23524 0.14362 0.53595 0.0
O123 O 0.27913 0.20332 0.51803 0.0
O124 O 0.27519 0.17044 0.49507 0.0
O125 O 0.25189 0.13548 0.54044 0.0
O126 O 0.23871 0.16452 0.5311 0.0
C127 C 0.28144 0.19485 0.58362 0.0
O128 O 0.29249 0.13856 0.52845 0.0
O129 O 0.31147 0.17137 0.54645 0.0
In130 In 0.15693 0.07841 0.83662 0.0
O131 O 0.13276 0.05574 0.80414 0.0
O132 O 0.1431 0.092 0.80173 0.0
C133 C 0.13807 0.07705 0.87762 0.0
C134 C 0.17773 0.04246 0.82897 0.0
C135 C 0.18548 0.12002 0.84442 0.0
O136 O 0.12809 0.07796 0.85656 0.0
O137 O 0.15755 0.07762 0.87815 0.0
O138 O 0.19047 0.10045 0.84785 0.0
O139 O 0.16585 0.11887 0.83791 0.0
C140 C 0.13195 0.07227 0.79137 0.0
O141 O 0.18304 0.06234 0.82212 0.0
O142 O 0.16173 0.04052 0.83959 0.0
In143 In 0.2576 0.87022 0.01873 0.0
O144 O 0.26981 0.83852 0.03122 0.0
O145 O 0.23764 0.84064 0.03335 0.0
C146 C 0.25284 0.85878 0.96917 0.0
C147 C 0.23261 0.89387 0.04192 0.0
C148 C 0.29597 0.89913 0.03024 0.0
O149 O 0.25002 0.8436 0.98341 0.0
O150 O 0.25642 0.87993 0.9797 0.0
O151 O 0.27956 0.90555 0.02069 0.0
O152 O 0.29312 0.8779 0.03436 0.0
C153 C 0.25229 0.82909 0.03658 0.0
O154 O 0.25018 0.89077 0.05254 0.0
O155 O 0.22735 0.88457 0.01946 0.0
In156 In 0.33543 0.41295 0.08511 0.0
O157 O 0.33829 0.38054 0.10534 0.0
O158 O 0.33274 0.41103 0.12628 0.0
C159 C 0.32914 0.38947 0.03789 0.0
C160 C 0.30013 0.43308 0.08282 0.0
C161 C 0.37583 0.43895 0.08844 0.0
O162 O 0.32388 0.37939 0.05572 0.0
O163 O 0.33735 0.4112 0.04383 0.0
O164 O 0.35964 0.44818 0.08826 0.0
O165 O 0.37186 0.41675 0.08807 0.0
C166 C 0.33514 0.38986 0.12594 0.0
O167 O 0.31863 0.44482 0.09111 0.0
O168 O 0.29945 0.41136 0.07585 0.0
In169 In 0.84466 0.16323 0.08472 0.0
O170 O 0.86325 0.13493 0.07562 0.0
O171 O 0.87114 0.16709 0.06132 0.0
C172 C 0.81505 0.12655 0.09087 0.0
C173 C 0.86325 0.19265 0.12661 0.0
C174 C 0.8184 0.18528 0.05805 0.0
O175 O 0.81643 0.13318 0.07019 0.0
O176 O 0.82862 0.13847 0.10859 0.0
O177 O 0.82127 0.18839 0.08135 0.0
O178 O 0.8289 0.17143 0.04849 0.0
C179 C 0.87397 0.14622 0.06208 0.0
O180 O 0.86171 0.19955 0.10574 0.0
O181 O 0.85665 0.17074 0.12597 0.0
In182 In 0.18254 0.52056 0.31909 0.0
O183 O 0.21349 0.50112 0.32263 0.0
O184 O 0.18457 0.47813 0.31523 0.0
C185 C 0.20731 0.56769 0.31928 0.0
C186 C 0.15573 0.51933 0.27213 0.0
C187 C 0.15985 0.52301 0.36149 0.0
O188 O 0.19672 0.55397 0.30047 0.0
O189 O 0.20628 0.55768 0.33836 0.0
O190 O 0.15159 0.51313 0.33964 0.0
O191 O 0.17934 0.53139 0.36219 0.0
C192 C 0.20446 0.47939 0.31876 0.0
O193 O 0.15069 0.52482 0.2931 0.0
O194 O 0.17364 0.51337 0.27465 0.0
In195 In 0.83546 0.91184 0.58315 0.0
O196 O 0.84087 0.8821 0.60704 0.0
O197 O 0.82601 0.90879 0.62166 0.0
C198 C 0.83123 0.88554 0.53753 0.0
C199 C 0.80061 0.93251 0.57663 0.0
C200 C 0.87516 0.94008 0.5878 0.0
O201 O 0.82348 0.8772 0.55509 0.0
O202 O 0.84103 0.90678 0.54306 0.0
O203 O 0.85816 0.94767 0.58369 0.0
O204 O 0.87228 0.91854 0.59079 0.0
C205 C 0.83245 0.8899 0.62469 0.0
O206 O 0.81762 0.9425 0.59098 0.0
O207 O 0.80118 0.91229 0.56567 0.0
In208 In 0.95163 1.00934 0.28256 0.0
O209 O 0.96269 0.9964 0.24616 0.0
O210 O 0.9773 0.0305 0.2652 0.0
C211 C 0.97622 1.01596 0.32812 0.0
C212 C 0.92699 0.04187 0.278 0.0
C213 C 0.92254 0.96861 0.27954 0.0
O214 O 0.9685 0.99568 0.31593 0.0
O215 O 0.97218 0.0328 0.31706 0.0
O216 O 0.91784 0.98888 0.28076 0.0
O217 O 0.94196 0.96869 0.27943 0.0
C218 C 0.97563 1.01543 0.24631 0.0
O219 O 0.93069 0.02914 0.25958 0.0
O220 O 0.93509 0.03757 0.29873 0.0
In221 In 0.32316 0.67717 0.55268 0.0
O222 O 0.33294 0.66038 0.51758 0.0
O223 O 0.35662 0.67334 0.54916 0.0
C224 C 0.29727 0.63611 0.55493 0.0
C225 C 0.34271 0.70088 0.59698 0.0
C226 C 0.3004 0.70914 0.53843 0.0
O227 O 0.3093 0.64852 0.57368 0.0
O228 O 0.29829 0.64444 0.53497 0.0
O229 O 0.29346 0.69346 0.55077 0.0
O230 O 0.31819 0.70793 0.53245 0.0
C231 C 0.35215 0.66322 0.52711 0.0
O232 O 0.34255 0.71011 0.57743 0.0
O233 O 0.33348 0.67937 0.59403 0.0
In234 In 0.44977 0.51387 0.78312 0.0
O235 O 0.4265 0.5345 0.76483 0.0
O236 O 0.44162 0.54782 0.80161 0.0
C237 C 0.42202 0.47187 0.77737 0.0
C238 C 0.47214 0.51828 0.7452 0.0
C239 C 0.47217 0.51641 0.82922 0.0
O240 O 0.41639 0.49139 0.77533 0.0
O241 O 0.44187 0.47328 0.78165 0.0
O242 O 0.48111 0.52126 0.81111 0.0
O243 O 0.45235 0.50982 0.82386 0.0
C244 C 0.42874 0.55029 0.78329 0.0
O245 O 0.47539 0.53362 0.76424 0.0
O246 O 0.45834 0.50013 0.74573 0.0
In247 In 0.68121 0.02054 0.82124 0.0
O248 O 0.71068 0.99981 0.8313 0.0
O249 O 0.68367 0.97866 0.8103 0.0
C250 C 0.70535 0.06799 0.8232 0.0
C251 C 0.65578 0.02 0.77352 0.0
C252 C 0.65975 0.0231 0.86454 0.0
O253 O 0.68803 0.06308 0.8311 0.0
O254 O 0.71114 0.04916 0.81516 0.0
O255 O 0.65068 1.01548 0.84241 0.0
O256 O 0.6796 0.02887 0.86521 0.0
C257 C 0.70251 0.97892 0.82044 0.0
O258 O 0.64845 1.01269 0.79188 0.0
O259 O 0.67566 0.02677 0.7788 0.0
In260 In 0.7749 0.67115 0.03457 0.0
O261 O 0.79161 0.63962 0.02661 0.0
O262 O 0.81103 0.67302 0.04194 0.0
C263 C 0.73471 0.64482 0.03276 0.0
C264 C 0.78106 0.69501 0.08167 0.0
C265 C 0.77685 0.69475 0.99427 0.0
O266 O 0.75119 0.63609 0.03478 0.0
O267 O 0.73831 0.66656 0.03078 0.0
O268 O 0.77877 0.70508 0.0161 0.0
O269 O 0.7737 0.67242 0.9925 0.0
C270 C 0.81021 0.65135 0.03442 0.0
O271 O 0.77425 0.70362 0.06292 0.0
O272 O 0.78488 0.67454 0.07672 0.0
In273 In 0.9261 0.55911 0.79485 0.0
O274 O 0.89513 0.57857 0.7928 0.0
O275 O 0.92395 0.60155 0.79811 0.0
C276 C 0.90199 0.51169 0.79461 0.0
C277 C 0.94851 0.55587 0.75215 0.0
C278 C 0.95257 0.56118 0.8422 0.0
O279 O 0.90002 0.52329 0.77666 0.0
O280 O 0.91536 0.52389 0.81235 0.0
O281 O 0.95835 0.55701 0.82142 0.0
O282 O 0.934 0.56544 0.83935 0.0
C283 C 0.90408 0.6003 0.79576 0.0
O284 O 0.9568 0.56635 0.77377 0.0
O285 O 0.9291 0.54734 0.75178 0.0
In286 In 0.77029 0.40149 0.51215 0.0
O287 O 0.80059 0.39295 0.53204 0.0
O288 O 0.77208 0.36744 0.5282 0.0
C289 C 0.75304 0.3794 0.46616 0.0
C290 C 0.74344 0.41483 0.54121 0.0
C291 C 0.79794 0.4394 0.5052 0.0
O292 O 0.75528 0.36846 0.48443 0.0
O293 O 0.75848 0.40165 0.47132 0.0
O294 O 0.79893 0.41835 0.49716 0.0
O295 O 0.78282 0.44143 0.51676 0.0
C296 C 0.79168 0.37308 0.53637 0.0
O297 O 0.76263 0.4153 0.5492 0.0
O298 O 0.73766 0.40765 0.51836 0.0
In299 In 0.65989 0.56939 0.33621 0.0
O300 O 0.68573 0.55181 0.35429 0.0
O301 O 0.6653 0.53284 0.32183 0.0
C302 C 0.68835 0.61079 0.33973 0.0
C303 C 0.63804 0.56491 0.28945 0.0
C304 C 0.63734 0.56317 0.37384 0.0
O305 O 0.69359 0.5914 0.3433 0.0
O306 O 0.6686 0.60957 0.33482 0.0
O307 O 0.64922 0.58263 0.37281 0.0
O308 O 0.63607 0.54754 0.3555 0.0
C309 C 0.68076 0.53317 0.33858 0.0
O310 O 0.63066 0.57234 0.30819 0.0
O311 O 0.65617 0.56011 0.29442 0.0
Tb312 Tb 0.03212 0.02714 0.04661 0.0
Tb313 Tb 0.07607 0.05492 0.07397 0.0
C314 C 0.99327 1.01185 0.03483 0.0
C315 C 0.97863 0.01831 0.01536 0.0
C316 C 0.95695 1.01409 0.01613 0.0
C317 C 0.94389 0.02649 1.00281 0.0
C318 C 0.95249 0.04351 0.98888 0.0
C319 C 0.97377 0.04558 0.98594 0.0
C320 C 0.98678 0.03306 0.99915 0.0
C321 C 0.0596 0.03189 0.0152 0.0
C322 C 0.04642 0.08293 0.04405 0.0
C323 C 0.11488 0.06748 0.09008 0.0
C324 C 0.13095 0.05276 0.08935 0.0
C325 C 0.12837 0.03443 0.06947 0.0
C326 C 0.14064 0.01718 0.07065 0.0
C327 C 0.15568 0.01788 0.09173 0.0
C328 C 0.15918 0.0369 0.1111 0.0
C329 C 0.1467 0.05423 0.10998 0.0
C330 C 0.04426 0.05465 0.099 0.0
C331 C 0.06319 0.99817 0.07274 0.0
O332 O 1.00162 0.02948 0.05278 0.0
O333 O 1.00731 1.00019 0.02731 0.0
O334 O 0.06247 0.03859 0.03806 0.0
O335 O 0.04012 0.02073 1.00921 0.0
O336 O 0.03056 0.06447 0.04259 0.0
O337 O 0.06616 0.08242 0.05385 0.0
O338 O 0.10604 0.07153 0.06858 0.0
O339 O 0.10093 0.06114 0.10409 0.0
O340 O 0.04735 0.03794 0.0841 0.0
O341 O 0.05997 0.07244 0.10082 0.0
O342 O 0.07867 0.01713 0.0746 0.0
O343 O 0.0432 0.99884 0.06429 0.0
H344 H 0.95049 1.00288 0.02867 0.0
H345 H 0.9276 0.02465 1.0057 0.0
H346 H 0.98078 0.05848 0.9753 0.0
H347 H 1.00357 0.0366 0.99843 0.0
H348 H 0.11615 0.03272 0.05345 0.0
H349 H 0.13795 1.00287 0.05531 0.0
H350 H 0.17081 0.03775 0.12745 0.0
H351 H 0.14867 0.06809 0.12561 0.0
Tb352 Tb 0.30973 0.78118 0.28073 0.0
Tb353 Tb 0.30158 0.79853 0.33406 0.0
C354 C 0.30538 0.76891 0.23512 0.0
C355 C 0.29029 0.75563 0.21346 0.0
C356 C 0.27128 0.76278 0.20537 0.0
C357 C 0.26019 0.75423 0.18152 0.0
C358 C 0.26804 0.73854 0.16544 0.0
C359 C 0.28558 0.72923 0.1747 0.0
C360 C 0.29668 0.73783 0.19851 0.0
C361 C 0.34392 0.78253 0.31489 0.0
C362 C 0.32638 0.83669 0.3035 0.0
C363 C 0.30436 0.81106 0.37935 0.0
C364 C 0.28939 0.80806 0.39682 0.0
C365 C 0.27847 0.78548 0.39903 0.0
C366 C 0.26582 0.78271 0.41716 0.0
C367 C 0.26358 0.8025 0.43338 0.0
C368 C 0.2731 0.8253 0.42962 0.0
C369 C 0.28604 0.82802 0.41164 0.0
C370 C 0.26742 0.79716 0.29987 0.0
C371 C 0.28493 0.74296 0.31136 0.0
O372 O 0.31288 0.75646 0.25134 0.0
O373 O 0.30169 0.78919 0.2452 0.0
O374 O 0.32618 0.78732 0.31767 0.0
O375 O 0.34276 0.77687 0.29132 0.0
O376 O 0.3221 0.82013 0.28342 0.0
O377 O 0.3212 0.83131 0.32501 0.0
O378 O 0.31038 0.79186 0.37002 0.0
O379 O 0.30014 0.8248 0.36288 0.0
O380 O 0.28523 0.79256 0.29717 0.0
O381 O 0.26838 0.80243 0.32346 0.0
O382 O 0.28951 0.75949 0.33154 0.0
O383 O 0.28985 0.74842 0.2897 0.0
H384 H 0.26585 0.77631 0.21662 0.0
H385 H 0.24678 0.76185 0.17493 0.0
H386 H 0.29182 0.71693 0.1628 0.0
H387 H 0.31123 0.73193 0.20449 0.0
H388 H 0.28036 0.76978 0.38747 0.0
H389 H 0.25911 0.76477 0.41945 0.0
H390 H 0.27144 0.84098 0.44137 0.0
H391 H 0.29396 0.84568 0.40981 0.0
Tb392 Tb 0.57646 0.04171 0.55349 0.0
Tb393 Tb 0.5321 0.03563 0.56691 0.0
C394 C 0.61567 0.04114 0.55988 0.0
C395 C 0.63219 0.02721 0.55473 0.0
C396 C 0.63175 1.00457 0.56179 0.0
C397 C 0.6494 0.99372 0.56165 0.0
C398 C 0.66806 1.0051 0.55437 0.0
C399 C 0.66802 0.02724 0.54615 0.0
C400 C 0.6504 0.03816 0.54646 0.0
C401 C 0.54791 0.04343 0.51235 0.0
C402 C 0.54671 0.99017 0.54305 0.0
C403 C 0.49399 0.03741 0.57038 0.0
C404 C 0.47687 0.05099 0.56446 0.0
C405 C 0.47859 0.07488 0.57466 0.0
C406 C 0.46123 0.08625 0.57068 0.0
C407 C 0.44166 0.07401 0.55658 0.0
C408 C 0.44026 0.0503 0.54596 0.0
C409 C 0.45756 0.03901 0.54987 0.0
C410 C 0.5625 0.02831 0.60288 0.0
C411 C 0.56022 0.08784 0.57078 0.0
O412 O 0.60256 0.0328 0.57405 0.0
O413 O 0.6064 0.0511 0.54239 0.0
O414 O 0.54478 0.04052 0.53415 0.0
O415 O 0.5683 0.04524 0.51363 0.0
O416 O 0.56604 1.00315 0.5458 0.0
O417 O 0.53041 0.99953 0.54832 0.0
O418 O 0.49967 0.02524 0.55184 0.0
O419 O 0.51017 0.04714 0.58774 0.0
O420 O 0.56411 0.04366 0.58808 0.0
O421 O 0.54283 0.01728 0.59789 0.0
O422 O 0.5411 0.07429 0.56847 0.0
O423 O 0.57707 0.07871 0.56753 0.0
H424 H 0.6181 0.99561 0.56851 0.0
H425 H 0.64868 0.97684 0.56836 0.0
H426 H 0.68179 0.03645 0.53987 0.0
H427 H 0.65134 0.05567 0.54112 0.0
H428 H 0.49316 0.08465 0.58615 0.0
H429 H 0.46298 0.10444 0.57934 0.0
H430 H 0.42568 0.04033 0.53463 0.0
H431 H 0.45566 0.02058 0.54185 0.0
Tb432 Tb 0.28265 0.29811 0.80634 0.0
Tb433 Tb 0.32846 0.28931 0.81401 0.0
C434 C 0.24387 0.29788 0.80773 0.0
C435 C 0.22732 0.2969 0.82392 0.0
C436 C 0.2215 0.27721 0.83595 0.0
C437 C 0.20389 0.27538 0.84821 0.0
C438 C 0.1915 0.29306 0.84863 0.0
C439 C 0.19781 0.31302 0.83719 0.0
C440 C 0.21539 0.31486 0.82501 0.0
C441 C 0.31193 0.3313 0.79554 0.0
C442 C 0.31135 0.30969 0.86042 0.0
C443 C 0.36732 0.28959 0.81321 0.0
C444 C 0.38468 0.29307 0.79832 0.0
C445 C 0.40423 0.3075 0.80956 0.0
C446 C 0.42175 0.30966 0.79733 0.0
C447 C 0.42029 0.29744 0.77336 0.0
C448 C 0.40047 0.28348 0.76175 0.0
C449 C 0.38289 0.28122 0.77413 0.0
C450 C 0.29909 0.25618 0.82475 0.0
C451 C 0.29988 0.27801 0.75991 0.0
O452 O 0.25157 0.27879 0.80267 0.0
O453 O 0.25837 0.31732 0.81058 0.0
O454 O 0.31391 0.3193 0.81291 0.0
O455 O 0.29234 0.32623 0.78445 0.0
O456 O 0.29205 0.30413 0.84691 0.0
O457 O 0.32852 0.30758 0.85074 0.0
O458 O 0.35995 0.30829 0.82076 0.0
O459 O 0.35239 0.27044 0.80714 0.0
O460 O 0.29728 0.2682 0.80741 0.0
O461 O 0.31866 0.26113 0.8359 0.0
O462 O 0.31916 0.28382 0.7735 0.0
O463 O 0.28261 0.27995 0.76949 0.0
H464 H 0.23017 0.26289 0.83532 0.0
H465 H 0.19953 0.25965 0.85659 0.0
H466 H 0.18902 0.32723 0.83743 0.0
H467 H 0.21932 0.33014 0.81579 0.0
H468 H 0.40612 0.31683 0.82819 0.0
H469 H 0.43653 0.32091 0.80676 0.0
H470 H 0.3987 0.2737 0.74338 0.0
H471 H 0.36806 0.26989 0.76496 0.0
Tb472 Tb 0.05072 0.07119 0.5633 0.0
Tb473 Tb 0.0575 0.01972 0.5572 0.0
C474 C 0.05871 0.11558 0.56774 0.0
C475 C 0.06698 0.13305 0.55275 0.0
C476 C 0.07449 0.12587 0.53115 0.0
C477 C 0.08051 0.14231 0.51571 0.0
C478 C 0.07861 0.16611 0.52136 0.0
C479 C 0.07156 0.17325 0.54347 0.0
C480 C 0.06588 0.15685 0.55907 0.0
C481 C 1.01618 0.0419 0.57104 0.0
C482 C 0.03953 0.0417 0.50993 0.0
C483 C 0.05457 0.97565 0.54794 0.0
C484 C 0.06065 0.95754 0.56213 0.0
C485 C 0.06844 0.96337 0.58751 0.0
C486 C 0.0719 0.9456 0.60159 0.0
C487 C 0.06771 0.92173 0.59043 0.0
C488 C 0.06076 0.91615 0.56474 0.0
C489 C 0.05718 0.93397 0.55071 0.0
C490 C 0.09181 0.05302 0.5601 0.0
C491 C 0.06566 0.04772 0.61065 0.0
O492 O 0.07211 0.10318 0.57706 0.0
O493 O 0.04007 0.10248 0.55814 0.0
O494 O 0.03325 0.03722 0.56555 0.0
O495 O 0.01844 0.06474 0.57282 0.0
O496 O 0.04298 0.06305 0.52317 0.0
O497 O 0.04306 0.02273 0.51979 0.0
O498 O 0.03974 0.98568 0.55566 0.0
O499 O 0.07015 0.99107 0.54304 0.0
O500 O 0.07341 0.05297 0.54876 0.0
O501 O 0.09134 0.03357 0.56965 0.0
O502 O 0.06106 0.02633 0.59727 0.0
O503 O 0.06471 0.06731 0.60067 0.0
H504 H 0.07503 0.10743 0.52586 0.0
H505 H 0.08612 0.13622 0.49904 0.0
H506 H 0.06945 0.19127 0.54824 0.0
H507 H 0.05989 0.16257 0.5756 0.0
H508 H 0.07114 0.98156 0.59656 0.0
H509 H 0.07702 0.95046 0.62135 0.0
H510 H 0.05773 0.89798 0.55558 0.0
H511 H 0.0512 0.92927 0.53108 0.0
Tb512 Tb 0.31131 0.77906 0.77864 0.0
Tb513 Tb 0.31178 0.83175 0.77491 0.0
C514 C 0.30873 0.73497 0.7705 0.0
C515 C 0.32175 0.71749 0.77663 0.0
C516 C 0.34376 0.7224 0.77724 0.0
C517 C 0.3555 0.70467 0.78045 0.0
C518 C 0.34546 0.68176 0.78326 0.0
C519 C 0.32354 0.67727 0.78366 0.0
C520 C 0.31181 0.69497 0.78029 0.0
C521 C 0.31259 0.80695 0.82057 0.0
C522 C 0.35394 0.81535 0.79221 0.0
C523 C 0.30783 0.87418 0.77813 0.0
C524 C 0.29312 0.88915 0.78523 0.0
C525 C 0.27391 0.87967 0.79238 0.0
C526 C 0.26044 0.89468 0.79941 0.0
C527 C 0.26609 0.91931 0.79942 0.0
C528 C 0.2853 0.92852 0.792 0.0
C529 C 0.29868 0.91357 0.78503 0.0
C530 C 0.32273 0.80671 0.73778 0.0
C531 C 0.26767 0.79531 0.76665 0.0
O532 O 0.31584 0.74963 0.75593 0.0
O533 O 0.30118 0.74547 0.78861 0.0
O534 O 0.30304 0.80814 0.79962 0.0
O535 O 0.32103 0.78822 0.81899 0.0
O536 O 0.34482 0.79348 0.78179 0.0
O537 O 0.34309 0.83244 0.79556 0.0
O538 O 0.31786 0.8654 0.79609 0.0
O539 O 0.30121 0.85883 0.75782 0.0
O540 O 0.30851 0.80009 0.7499 0.0
O541 O 0.33101 0.82881 0.74553 0.0
O542 O 0.27768 0.81782 0.77037 0.0
O543 O 0.27778 0.77745 0.76701 0.0
H544 H 0.3518 0.73971 0.77452 0.0
H545 H 0.37229 0.7087 0.77981 0.0
H546 H 0.31538 0.65999 0.78627 0.0
H547 H 0.29485 0.69089 0.77997 0.0
H548 H 0.26939 0.86079 0.7926 0.0
H549 H 0.2458 0.88707 0.80513 0.0
H550 H 0.28992 0.94731 0.79129 0.0
H551 H 0.31342 0.92112 0.77945 0.0
Tb552 Tb 0.53503 0.03973 0.04167 0.0
Tb553 Tb 0.5737 0.0402 0.07789 0.0
C554 C 0.49969 0.02609 0.01401 0.0
C555 C 0.47743 0.01957 0.01652 0.0
C556 C 0.47086 0.02398 0.0394 0.0
C557 C 0.45043 1.01378 0.04242 0.0
C558 C 0.43641 0.99901 0.02257 0.0
C559 C 0.4427 0.99594 0.99932 0.0
C560 C 0.46308 1.0061 0.99636 0.0
C561 C 0.55563 0.08232 0.06272 0.0
C562 C 0.53059 0.03997 0.10062 0.0
C563 C 0.60907 0.05159 0.10549 0.0
C564 C 0.63088 0.04844 0.10538 0.0
C565 C 0.64362 0.04776 0.12784 0.0
C566 C 0.66499 0.04692 0.12866 0.0
C567 C 0.67393 0.04688 0.107 0.0
C568 C 0.66078 0.04627 0.08429 0.0
C569 C 0.63937 0.04699 0.08348 0.0
C570 C 0.55306 0.99748 0.05634 0.0
C571 C 0.57825 0.04054 0.01878 0.0
O572 O 0.51156 1.0117 0.02217 0.0
O573 O 0.50888 0.04846 0.0204 0.0
O574 O 0.55285 0.06375 0.07243 0.0
O575 O 0.54531 0.07758 0.04018 0.0
O576 O 0.52086 0.03562 0.07686 0.0
O577 O 0.55176 0.04437 0.1052 0.0
O578 O 0.60186 0.06511 0.0902 0.0
O579 O 0.59523 0.03238 0.10616 0.0
O580 O 0.55604 1.0163 0.04718 0.0
O581 O 0.56365 1.00216 0.07865 0.0
O582 O 0.58785 0.04246 0.04244 0.0
O583 O 0.55721 0.03866 0.01418 0.0
H584 H 0.48178 0.03444 0.05512 0.0
H585 H 0.44601 1.01639 0.06055 0.0
H586 H 0.43207 0.985 0.98361 0.0
H587 H 0.46795 1.00256 0.97857 0.0
H588 H 0.63719 0.04858 0.14486 0.0
H589 H 0.67468 0.0471 0.14636 0.0
H590 H 0.66723 0.04652 0.06731 0.0
H591 H 0.62968 0.04728 0.06593 0.0
Tb592 Tb 0.28632 0.27411 0.29688 0.0
Tb593 Tb 0.32423 0.30512 0.32226 0.0
C594 C 0.24864 0.25174 0.28641 0.0
C595 C 0.22826 0.25917 0.28127 0.0
C596 C 0.21056 0.24659 0.28897 0.0
C597 C 0.19197 0.25551 0.28814 0.0
C598 C 0.19076 0.27724 0.27955 0.0
C599 C 0.20823 0.28921 0.27065 0.0
C600 C 0.22687 0.28028 0.27158 0.0
C601 C 0.30881 0.29513 0.26649 0.0
C602 C 0.28422 0.33064 0.3147 0.0
C603 C 0.36217 0.32647 0.3325 0.0
C604 C 0.3819 0.31746 0.33135 0.0
C605 C 0.38462 0.30398 0.3096 0.0
C606 C 0.40286 0.2947 0.30874 0.0
C607 C 0.4188 0.2984 0.32967 0.0
C608 C 0.41602 0.31181 0.35151 0.0
C609 C 0.39773 0.32127 0.35231 0.0
C610 C 0.30164 0.28435 0.35264 0.0
C611 C 0.32635 0.24885 0.30412 0.0
O612 O 0.25876 0.2588 0.30904 0.0
O613 O 0.26116 0.25458 0.27003 0.0
O614 O 0.30564 0.30436 0.28715 0.0
O615 O 0.29862 0.27327 0.26201 0.0
O616 O 0.27389 0.30833 0.30563 0.0
O617 O 0.30518 0.33403 0.32197 0.0
O618 O 0.35005 0.32575 0.31127 0.0
O619 O 0.35128 0.31927 0.34922 0.0
O620 O 0.30493 0.27484 0.3321 0.0
O621 O 0.31148 0.30638 0.35673 0.0
O622 O 0.33675 0.27139 0.3115 0.0
O623 O 0.30525 0.24523 0.29874 0.0
H624 H 0.21145 0.23041 0.29675 0.0
H625 H 0.17898 0.24602 0.29554 0.0
H626 H 0.20774 0.30584 0.2637 0.0
H627 H 0.24045 0.29035 0.26565 0.0
H628 H 0.37266 0.30051 0.29312 0.0
H629 H 0.4046 0.28498 0.29142 0.0
H630 H 0.4279 0.31486 0.36802 0.0
H631 H 0.39587 0.33142 0.36936 0.0
Tb632 Tb 0.55134 0.56621 0.06241 0.0
Tb633 Tb 0.55822 0.51834 0.05654 0.0
C634 C 0.55492 0.61043 0.07074 0.0
C635 C 0.55359 0.62837 0.05436 0.0
C636 C 0.56662 0.65089 0.06121 0.0
C637 C 0.56664 0.66757 0.04497 0.0
C638 C 0.55354 0.66197 0.02164 0.0
C639 C 0.54032 0.6394 0.015 0.0
C640 C 0.54043 0.6227 0.03117 0.0
C641 C 0.51677 0.53406 0.06251 0.0
C642 C 0.54038 0.5398 1.00904 0.0
C643 C 0.55499 0.47419 0.04701 0.0
C644 C 0.556 0.45556 0.06247 0.0
C645 C 0.55372 0.45986 0.08732 0.0
C646 C 0.55521 0.44232 0.10225 0.0
C647 C 0.55904 0.42024 0.09256 0.0
C648 C 0.56126 0.41598 0.06759 0.0
C649 C 0.55979 0.4336 0.05264 0.0
C650 C 0.59276 0.55056 0.05665 0.0
C651 C 0.56867 0.54444 0.11009 0.0
O652 O 0.57106 0.59995 0.0699 0.0
O653 O 0.53732 0.59543 0.07061 0.0
O654 O 0.53533 0.53396 0.0731 0.0
O655 O 0.51718 0.55302 0.05219 0.0
O656 O 0.54601 0.56113 0.02223 0.0
O657 O 0.5422 0.52074 0.01946 0.0
O658 O 0.53877 0.48456 0.04777 0.0
O659 O 0.5727 0.4894 0.0486 0.0
O660 O 0.57424 0.55053 0.04584 0.0
O661 O 0.59231 0.53168 0.06707 0.0
O662 O 0.56334 0.52323 0.09661 0.0
O663 O 0.56678 0.56367 0.09993 0.0
H664 H 0.57707 0.6554 0.07892 0.0
H665 H 0.57726 0.68464 0.05049 0.0
H666 H 0.52984 0.63463 0.99733 0.0
H667 H 0.5304 0.60527 0.02543 0.0
H668 H 0.55073 0.47673 0.09517 0.0
H669 H 0.5531 0.44595 0.12132 0.0
H670 H 0.56442 0.39918 0.05973 0.0
H671 H 0.56171 0.43015 0.03349 0.0
Tb672 Tb 0.80482 0.26565 0.28925 0.0
Tb673 Tb 0.81274 0.31996 0.29535 0.0
C674 C 0.80359 0.22187 0.27936 0.0
C675 C 0.8175 0.20518 0.27467 0.0
C676 C 0.83882 0.21296 0.27283 0.0
C677 C 0.85191 0.19646 0.26973 0.0
C678 C 0.84373 0.17203 0.26825 0.0
C679 C 0.82221 0.16445 0.26952 0.0
C680 C 0.80925 0.1809 0.27274 0.0
C681 C 0.7918 0.28663 0.32744 0.0
C682 C 0.85074 0.2964 0.31133 0.0
C683 C 0.81264 0.3634 0.30539 0.0
C684 C 0.798 0.37882 0.31168 0.0
C685 C 0.77948 0.37029 0.32077 0.0
C686 C 0.76607 0.38568 0.32697 0.0
C687 C 0.77096 0.40976 0.324 0.0
C688 C 0.78945 0.418 0.3146 0.0
C689 C 0.80283 0.40269 0.30859 0.0
C690 C 0.82549 0.29899 0.25695 0.0
C691 C 0.76691 0.28883 0.27348 0.0
O692 O 0.80022 0.2355 0.26258 0.0
O693 O 0.80667 0.23329 0.30189 0.0
O694 O 0.80834 0.29389 0.31904 0.0
O695 O 0.78255 0.26602 0.31534 0.0
O696 O 0.8393 0.27599 0.29912 0.0
O697 O 0.8426 0.31561 0.31529 0.0
O698 O 0.81826 0.35028 0.3219 0.0
O699 O 0.80862 0.35187 0.28283 0.0
O700 O 0.80909 0.29179 0.2656 0.0
O701 O 0.83473 0.31971 0.26884 0.0
O702 O 0.77809 0.30912 0.28624 0.0
O703 O 0.7755 0.27016 0.2686 0.0
H704 H 0.84534 0.23171 0.27407 0.0
H705 H 0.8684 0.20277 0.26861 0.0
H706 H 0.81553 0.14582 0.26881 0.0
H707 H 0.7928 0.17467 0.27416 0.0
H708 H 0.77543 0.35182 0.32311 0.0
H709 H 0.75203 0.37878 0.33427 0.0
H710 H 0.79347 0.43626 0.31153 0.0
H711 H 0.817 0.4095 0.30144 0.0
Tb712 Tb 0.03584 0.54222 0.53947 0.0
Tb713 Tb 0.07154 0.5325 0.57345 0.0
C714 C 1.00048 0.53929 0.51313 0.0
C715 C 0.97895 0.54222 0.51593 0.0
C716 C 0.96891 0.53256 0.53429 0.0
C717 C 0.94738 0.53213 0.53408 0.0
C718 C 0.93556 0.54149 0.51561 0.0
C719 C 0.94614 0.55284 0.4985 0.0
C720 C 0.96765 0.55308 0.4986 0.0
C721 C 0.06243 0.5803 0.56352 0.0
C722 C 0.03028 0.53878 0.59785 0.0
C723 C 0.10729 0.53495 0.59887 0.0
C724 C 0.12798 0.53177 0.59322 0.0
C725 C 0.14615 0.54131 0.6108 0.0
C726 C 0.16618 0.54217 0.60432 0.0
C727 C 0.16827 0.53368 0.58006 0.0
C728 C 0.15001 0.52277 0.56293 0.0
C729 C 0.12997 0.52174 0.5695 0.0
C730 C 0.0451 0.49436 0.54884 0.0
C731 C 0.07724 0.53671 0.51523 0.0
O732 O 1.00687 0.52121 0.52185 0.0
O733 O 1.01521 0.55857 0.51772 0.0
O734 O 0.05611 0.56146 0.57168 0.0
O735 O 0.05259 0.57875 0.54108 0.0
O736 O 0.02107 0.53893 0.57443 0.0
O737 O 0.05089 0.53797 0.60204 0.0
O738 O 0.10078 0.55324 0.59085 0.0
O739 O 0.09229 0.5159 0.59462 0.0
O740 O 0.05149 0.51339 0.54106 0.0
O741 O 0.05468 0.49587 0.57139 0.0
O742 O 0.08637 0.53656 0.53865 0.0
O743 O 0.05657 0.53712 0.51095 0.0
H744 H 0.97738 0.52426 0.54802 0.0
H745 H 0.93978 0.52301 0.5474 0.0
H746 H 0.9376 0.56059 0.48433 0.0
H747 H 0.97522 0.56083 0.48445 0.0
H748 H 0.14483 0.54919 0.62915 0.0
H749 H 0.17995 0.55097 0.61782 0.0
H750 H 0.15119 0.51598 0.54416 0.0
H751 H 0.11606 0.5141 0.55575 0.0
Tb752 Tb 0.78329 0.79352 0.3067 0.0
Tb753 Tb 0.82911 0.78466 0.31321 0.0
C754 C 0.7445 0.79276 0.30868 0.0
C755 C 0.72794 0.79132 0.3249 0.0
C756 C 0.72131 0.77073 0.33525 0.0
C757 C 0.70358 0.76856 0.34734 0.0
C758 C 0.69187 0.7868 0.34927 0.0
C759 C 0.69898 0.80762 0.33953 0.0
C760 C 0.71667 0.8098 0.32751 0.0
C761 C 0.81237 0.82733 0.29654 0.0
C762 C 0.81251 0.80398 0.36052 0.0
C763 C 0.86785 0.78477 0.3115 0.0
C764 C 0.88505 0.78824 0.29633 0.0
C765 C 0.90442 0.80336 0.30705 0.0
C766 C 0.92193 0.80529 0.29477 0.0
C767 C 0.92065 0.79215 0.27129 0.0
C768 C 0.901 0.77754 0.26015 0.0
C769 C 0.88343 0.7755 0.27257 0.0
C770 C 0.79983 0.75094 0.3232 0.0
C771 C 0.80016 0.77475 0.2594 0.0
O772 O 0.75236 0.77385 0.30327 0.0
O773 O 0.75884 0.81233 0.31162 0.0
O774 O 0.81456 0.81475 0.31338 0.0
O775 O 0.7927 0.82248 0.28573 0.0
O776 O 0.79312 0.79881 0.3472 0.0
O777 O 0.82955 0.80196 0.35048 0.0
O778 O 0.86067 0.80348 0.31949 0.0
O779 O 0.85281 0.76572 0.30552 0.0
O780 O 0.79791 0.76354 0.30638 0.0
O781 O 0.81944 0.7557 0.33421 0.0
O782 O 0.8195 0.7803 0.27281 0.0
O783 O 0.78298 0.77638 0.26931 0.0
H784 H 0.7294 0.75597 0.33339 0.0
H785 H 0.69861 0.75216 0.35436 0.0
H786 H 0.69073 0.82227 0.34096 0.0
H787 H 0.72119 0.82578 0.31957 0.0
H788 H 0.90621 0.81335 0.32534 0.0
H789 H 0.93657 0.81706 0.30383 0.0
H790 H 0.89936 0.76706 0.24215 0.0
H791 H 0.86877 0.76359 0.2638 0.0
Tb792 Tb 0.80969 0.27979 0.78645 0.0
Tb793 Tb 0.79914 0.29909 0.83096 0.0
C794 C 0.81572 0.26876 0.74298 0.0
C795 C 0.82264 0.28034 0.72262 0.0
C796 C 0.81918 0.30309 0.71955 0.0
C797 C 0.824 0.31276 0.69865 0.0
C798 C 0.83245 0.29986 0.68059 0.0
C799 C 0.83693 0.27761 0.6845 0.0
C800 C 0.832 0.26791 0.70535 0.0
C801 C 0.83647 0.27458 0.8255 0.0
C802 C 0.82539 0.33682 0.80466 0.0
C803 C 0.79337 0.30993 0.87468 0.0
C804 C 0.78482 0.29795 0.89399 0.0
C805 C 0.78234 0.27331 0.89286 0.0
C806 C 0.77595 0.26238 0.9124 0.0
C807 C 0.77208 0.27597 0.9335 0.0
C808 C 0.77372 0.30057 0.93409 0.0
C809 C 0.78001 0.31147 0.91441 0.0
C810 C 0.77224 0.30348 0.79164 0.0
C811 C 0.78309 0.24196 0.81238 0.0
O812 O 0.79747 0.27185 0.74864 0.0
O813 O 0.8301 0.27049 0.76248 0.0
O814 O 0.82904 0.29303 0.82238 0.0
O815 O 0.82853 0.25853 0.80656 0.0
O816 O 0.82092 0.31904 0.78574 0.0
O817 O 0.81996 0.33225 0.82605 0.0
O818 O 0.81091 0.30455 0.86891 0.0
O819 O 0.77976 0.31066 0.85519 0.0
O820 O 0.77983 0.2853 0.79531 0.0
O821 O 0.78004 0.31998 0.81024 0.0
O822 O 0.78666 0.25996 0.83098 0.0
O823 O 0.7895 0.24623 0.79138 0.0
H824 H 0.81206 0.31299 0.73282 0.0
H825 H 0.82009 0.32981 0.69607 0.0
H826 H 0.84369 0.2674 0.6711 0.0
H827 H 0.83494 0.2504 0.70765 0.0
H828 H 0.78614 0.26261 0.87736 0.0
H829 H 0.77525 0.24347 0.91156 0.0
H830 H 0.77078 0.31144 0.95008 0.0
H831 H 0.78177 0.33054 0.91547 0.0
Tb832 Tb 0.78167 0.77235 0.7969 0.0
Tb833 Tb 0.82331 0.80611 0.8197 0.0
C834 C 0.74593 0.74726 0.79528 0.0
C835 C 0.72453 0.7513 0.78771 0.0
C836 C 0.70769 0.73903 0.79716 0.0
C837 C 0.68832 0.7464 0.79498 0.0
C838 C 0.68552 0.76623 0.78336 0.0
C839 C 0.70207 0.77747 0.77245 0.0
C840 C 0.72147 0.77012 0.77472 0.0
C841 C 0.79718 0.79517 0.76215 0.0
C842 C 0.78147 0.82967 0.81244 0.0
C843 C 0.86072 0.82873 0.82628 0.0
C844 C 0.87981 0.82131 0.81967 0.0
C845 C 0.87803 0.80339 0.7996 0.0
C846 C 0.89581 0.79488 0.79431 0.0
C847 C 0.91577 0.80426 0.80886 0.0
C848 C 0.91756 0.82233 0.82891 0.0
C849 C 0.89964 0.83077 0.83431 0.0
C850 C 0.80115 0.78717 0.85146 0.0
C851 C 0.82396 0.749 0.80223 0.0
O852 O 0.75644 0.7617 0.81502 0.0
O853 O 0.75737 0.74468 0.77776 0.0
O854 O 0.80483 0.79632 0.7846 0.0
O855 O 0.77957 0.77967 0.75831 0.0
O856 O 0.77053 0.80717 0.80595 0.0
O857 O 0.8027 0.83349 0.81763 0.0
O858 O 0.8463 0.83004 0.80761 0.0
O859 O 0.85261 0.81792 0.84319 0.0
O860 O 0.80345 0.77728 0.83066 0.0
O861 O 0.81219 0.80873 0.85533 0.0
O862 O 0.8347 0.77142 0.81031 0.0
O863 O 0.80274 0.7452 0.79626 0.0
H864 H 0.70993 0.7247 0.80756 0.0
H865 H 0.67607 0.73754 0.80394 0.0
H866 H 0.70035 0.79261 0.76315 0.0
H867 H 0.73444 0.77997 0.76754 0.0
H868 H 0.86283 0.79571 0.78815 0.0
H869 H 0.89383 0.78067 0.77902 0.0
H870 H 0.93278 0.83004 0.84028 0.0
H871 H 0.90121 0.84448 0.84999 0.0
Tb872 Tb 0.53054 0.52261 0.54458 0.0
Tb873 Tb 0.57399 0.55167 0.57258 0.0
C874 C 0.49136 0.50753 0.53659 0.0
C875 C 0.47458 0.52125 0.5333 0.0
C876 C 0.47753 0.54391 0.54706 0.0
C877 C 0.4631 0.55841 0.54213 0.0
C878 C 0.44537 0.55059 0.52336 0.0
C879 C 0.44227 0.52783 0.50964 0.0
C880 C 0.45684 0.5132 0.51462 0.0
C881 C 0.55854 0.52607 0.5141 0.0
C882 C 0.54395 0.579 0.54297 0.0
C883 C 0.61266 0.56418 0.58941 0.0
C884 C 0.62824 0.54886 0.59225 0.0
C885 C 0.62561 0.52809 0.57526 0.0
C886 C 0.63813 0.51146 0.57954 0.0
C887 C 0.65361 0.51526 0.60083 0.0
C888 C 0.65675 0.53637 0.61753 0.0
C889 C 0.64395 0.55302 0.61335 0.0
C890 C 0.54162 0.55064 0.59659 0.0
C891 C 0.56221 0.49393 0.56964 0.0
O892 O 0.50287 0.51143 0.55868 0.0
O893 O 0.5029 0.5074 0.51911 0.0
O894 O 0.56114 0.53426 0.53671 0.0
O895 O 0.53937 0.51377 0.50822 0.0
O896 O 0.52841 0.5601 0.54132 0.0
O897 O 0.56379 0.57895 0.5527 0.0
O898 O 0.60455 0.5654 0.56658 0.0
O899 O 0.59819 0.5609 0.60349 0.0
O900 O 0.5455 0.53417 0.58202 0.0
O901 O 0.55689 0.56897 0.59862 0.0
O902 O 0.57638 0.51429 0.57596 0.0
O903 O 0.54299 0.49282 0.55711 0.0
H904 H 0.49132 0.55077 0.56124 0.0
H905 H 0.46615 0.57606 0.55264 0.0
H906 H 0.42868 0.52142 0.49511 0.0
H907 H 0.45454 0.4959 0.50357 0.0
H908 H 0.6135 0.52437 0.5589 0.0
H909 H 0.63574 0.49562 0.56606 0.0
H910 H 0.66877 0.53972 0.63395 0.0
H911 H 0.64596 0.5688 0.62681 0.0
Tb912 Tb 0.07681 0.54312 0.04963 0.0
Tb913 Tb 0.03164 0.53863 0.06506 0.0
C914 C 0.1156 0.54288 0.049 0.0
C915 C 0.13264 0.52909 0.05453 0.0
C916 C 0.14305 0.52928 0.07873 0.0
C917 C 0.1604 0.51797 0.083 0.0
C918 C 0.168 0.50637 0.0632 0.0
C919 C 0.15743 0.50617 0.03906 0.0
C920 C 0.14009 0.51733 0.03483 0.0
C921 C 0.04723 0.54923 1.01098 0.0
C922 C 0.0468 0.4921 0.04466 0.0
C923 C 0.9928 0.53889 0.06498 0.0
C924 C 0.97571 0.55193 0.05734 0.0
C925 C 0.97854 0.57677 0.06301 0.0
C926 C 0.96133 0.58823 0.05864 0.0
C927 C 0.9408 0.5752 0.04847 0.0
C928 C 0.93825 0.55042 0.04208 0.0
C929 C 0.95544 0.539 0.0465 0.0
C930 C 0.06107 0.53251 0.10379 0.0
C931 C 0.06181 0.58963 0.07006 0.0
O932 O 0.10869 0.55404 0.06731 0.0
O933 O 0.10029 0.53343 0.03053 0.0
O934 O 0.04507 0.54523 0.0328 0.0
O935 O 0.0674 0.55067 1.01135 0.0
O936 O 0.06636 0.50468 0.04739 0.0
O937 O 0.03039 0.50196 0.04852 0.0
O938 O 0.99975 0.5263 0.04773 0.0
O939 O 1.00808 0.54979 0.08294 0.0
O940 O 0.06335 0.53649 0.08198 0.0
O941 O 0.0409 0.53117 0.10339 0.0
O942 O 0.04221 0.57708 0.06719 0.0
O943 O 0.0782 0.57975 0.06624 0.0
H944 H 0.13806 0.53849 0.09438 0.0
H945 H 0.16787 0.51839 0.10189 0.0
H946 H 0.16291 0.49799 0.02321 0.0
H947 H 0.13281 0.51726 0.01593 0.0
H948 H 0.99395 0.58731 0.07138 0.0
H949 H 0.96409 0.60733 0.06345 0.0
H950 H 0.92277 0.53965 0.03449 0.0
H951 H 0.95271 0.51983 0.04217 0.0
H952 H 1.00784 0.21619 1.00974 0.0
H953 H 0.04246 0.19579 0.95251 0.0
H954 H 1.01252 0.18029 0.02789 0.0
H955 H 0.04762 0.16048 0.97098 0.0
H956 H 0.07481 0.11793 0.03042 0.0
H957 H 0.06815 0.15292 0.01231 0.0
H958 H 1.00168 0.13304 0.01575 0.0
H959 H 1.00822 0.0975 0.03339 0.0
C960 C 0.01644 0.2041 1.00102 0.0
C961 C 0.02475 0.20899 0.9796 0.0
C962 C 0.01905 0.18344 1.01138 0.0
C963 C 0.03053 0.16743 1.00099 0.0
C964 C 0.03883 0.17241 0.97961 0.0
C965 C 0.03578 0.19267 0.96894 0.0
C966 C 0.05875 0.12096 0.02746 0.0
C967 C 0.04211 0.10476 0.03359 0.0
C968 C 0.05491 0.14104 0.0169 0.0
C969 C 0.03438 0.14595 0.01256 0.0
C970 C 0.01773 0.12998 0.01899 0.0
C971 C 0.02149 0.10952 0.02905 0.0
H972 H 0.16421 0.80078 0.17661 0.0
H973 H 0.14321 0.82187 0.24485 0.0
H974 H 0.19761 0.79545 0.19986 0.0
H975 H 0.17668 0.8176 0.26805 0.0
H976 H 0.22706 0.78592 0.30695 0.0
H977 H 0.19482 0.78929 0.28078 0.0
H978 H 0.23121 0.81155 0.22521 0.0
H979 H 0.26373 0.80719 0.25162 0.0
C980 C 0.16683 0.80462 0.19659 0.0
C981 C 0.15087 0.81165 0.20881 0.0
C982 C 0.1861 0.80162 0.21 0.0
C983 C 0.19005 0.80567 0.23607 0.0
C984 C 0.17425 0.81352 0.24811 0.0
C985 C 0.15499 0.81627 0.23475 0.0
C986 C 0.22819 0.79118 0.28896 0.0
C987 C 0.24801 0.7961 0.28135 0.0
C988 C 0.20962 0.79349 0.27397 0.0
C989 C 0.21012 0.80134 0.25088 0.0
C990 C 0.22995 0.80542 0.24276 0.0
C991 C 0.24867 0.8028 0.25782 0.0
H992 H 0.54739 0.85507 0.45482 0.0
H993 H 0.51407 0.83345 0.51295 0.0
H994 H 0.55143 0.89656 0.47259 0.0
H995 H 0.51814 0.87523 0.53087 0.0
H996 H 0.51094 0.95499 0.53892 0.0
H997 H 0.50622 0.91279 0.52242 0.0
H998 H 0.57067 0.92439 0.5089 0.0
H999 H 0.57539 0.96624 0.52518 0.0
C1000 C 0.54098 0.85916 0.47148 0.0
C1001 C 0.53047 0.84082 0.48247 0.0
C1002 C 0.54337 0.88303 0.48176 0.0
C1003 C 0.53518 0.88941 0.50327 0.0
C1004 C 0.52452 0.87106 0.51421 0.0
C1005 C 0.52232 0.84708 0.50403 0.0
C1006 C 0.52411 0.94855 0.53245 0.0
C1007 C 0.54352 0.96424 0.53338 0.0
C1008 C 0.52144 0.92427 0.52311 0.0
C1009 C 0.53802 0.91507 0.51416 0.0
C1010 C 0.55742 0.93078 0.51526 0.0
C1011 C 0.56015 0.95489 0.52477 0.0
H1012 H 0.54942 0.32669 0.73888 0.0
H1013 H 0.51147 0.28672 0.67147 0.0
H1014 H 0.51772 0.32488 0.75805 0.0
H1015 H 0.47991 0.28413 0.69074 0.0
H1016 H 0.42321 0.30114 0.72461 0.0
H1017 H 0.45472 0.3044 0.70507 0.0
H1018 H 0.49257 0.29981 0.77455 0.0
H1019 H 0.4612 0.29702 0.79405 0.0
C1020 C 0.53431 0.31743 0.72816 0.0
C1021 C 0.53307 0.30689 0.7036 0.0
C1022 C 0.51607 0.31621 0.73922 0.0
C1023 C 0.496 0.30427 0.72611 0.0
C1024 C 0.49485 0.29382 0.70146 0.0
C1025 C 0.51306 0.29517 0.69039 0.0
C1026 C 0.43823 0.3007 0.73569 0.0
C1027 C 0.43953 0.29894 0.76101 0.0
C1028 C 0.45641 0.30253 0.72445 0.0
C1029 C 0.47648 0.30248 0.73811 0.0
C1030 C 0.47766 0.30048 0.76339 0.0
C1031 C 0.45954 0.2988 0.77463 0.0
H1032 H 0.03755 0.81195 0.68015 0.0
H1033 H 0.10543 0.82127 0.68467 0.0
H1034 H 0.03702 0.84285 0.65382 0.0
H1035 H 0.10486 0.85156 0.6578 0.0
H1036 H 0.09826 0.92141 0.62989 0.0
H1037 H 0.09909 0.89141 0.65716 0.0
H1038 H 0.04196 0.84865 0.61239 0.0
H1039 H 0.04049 0.87918 0.58595 0.0
C1040 C 0.05233 0.82061 0.67549 0.0
C1041 C 0.07152 0.81427 0.68442 0.0
C1042 C 0.05203 0.83815 0.66029 0.0
C1043 C 0.0709 0.84954 0.65363 0.0
C1044 C 0.0901 0.84332 0.66283 0.0
C1045 C 0.09042 0.82591 0.67814 0.0
C1046 C 0.08583 0.90565 0.62597 0.0
C1047 C 0.0693 0.90268 0.6058 0.0
C1048 C 0.08641 0.88837 0.64144 0.0
C1049 C 0.07053 0.86771 0.63698 0.0
C1050 C 0.05424 0.86454 0.61653 0.0
C1051 C 0.0536 0.88186 0.60114 0.0
H1052 H 0.4922 0.83624 0.82055 0.0
H1053 H 0.46903 0.81794 0.88655 0.0
H1054 H 0.45591 0.83669 0.80111 0.0
H1055 H 0.43302 0.81907 0.86738 0.0
H1056 H 0.37592 0.84788 0.8311 0.0
H1057 H 0.41356 0.85318 0.8486 0.0
H1058 H 0.42104 0.79965 0.79096 0.0
H1059 H 0.38337 0.7939 0.77374 0.0
C1060 C 0.47939 0.83258 0.83093 0.0
C1061 C 0.48326 0.82692 0.85492 0.0
C1062 C 0.45875 0.83284 0.81986 0.0
C1063 C 0.44191 0.82806 0.83292 0.0
C1064 C 0.44588 0.82302 0.85712 0.0
C1065 C 0.46638 0.82222 0.86796 0.0
C1066 C 0.3857 0.83752 0.822 0.0
C1067 C 0.37684 0.82039 0.80122 0.0
C1068 C 0.40711 0.84051 0.83202 0.0
C1069 C 0.41998 0.82682 0.821 0.0
C1070 C 0.41135 0.81048 0.79958 0.0
C1071 C 0.38986 0.80711 0.78989 0.0
H1072 H 0.54812 0.21983 0.1424 0.0
H1073 H 0.55379 0.17153 0.1956 0.0
H1074 H 0.55046 0.18897 0.10957 0.0
H1075 H 0.55505 0.14018 0.16259 0.0
H1076 H 0.5805 0.09654 0.10726 0.0
H1077 H 0.57938 0.13013 0.13751 0.0
H1078 H 0.53409 0.15249 0.0846 0.0
H1079 H 0.53625 0.11941 0.05388 0.0
C1080 C 0.54934 0.2024 0.14697 0.0
C1081 C 0.55089 0.19808 0.17158 0.0
C1082 C 0.55069 0.18469 0.12812 0.0
C1083 C 0.55335 0.16217 0.13344 0.0
C1084 C 0.55369 0.15753 0.15791 0.0
C1085 C 0.55266 0.17536 0.17681 0.0
C1086 C 0.57088 0.10911 0.10186 0.0
C1087 C 0.55859 0.1055 0.07823 0.0
C1088 C 0.56987 0.12811 0.11935 0.0
C1089 C 0.55618 0.14368 0.11377 0.0
C1090 C 0.54483 0.14089 0.08956 0.0
C1091 C 0.54613 0.12201 0.07188 0.0
H1092 H 0.06813 0.30459 0.30664 0.0
H1093 H 0.11693 0.34507 0.36525 0.0
H1094 H 0.09507 0.29739 0.28179 0.0
H1095 H 0.14385 0.33718 0.341 0.0
H1096 H 0.14888 0.25559 0.27156 0.0
H1097 H 0.11985 0.27198 0.2849 0.0
H1098 H 0.16126 0.34086 0.30643 0.0
H1099 H 0.19067 0.32404 0.2945 0.0
C1100 C 0.08459 0.31227 0.31403 0.0
C1101 C 0.09048 0.3251 0.33799 0.0
C1102 C 0.10004 0.30804 0.29987 0.0
C1103 C 0.12167 0.31636 0.30951 0.0
C1104 C 0.12737 0.33066 0.33281 0.0
C1105 C 0.11193 0.33507 0.34685 0.0
C1106 C 0.15175 0.27428 0.27893 0.0
C1107 C 0.17219 0.28835 0.28243 0.0
C1108 C 0.135 0.28381 0.28628 0.0
C1109 C 0.13825 0.30772 0.29708 0.0
C1110 C 0.1583 0.32227 0.29863 0.0
C1111 C 0.17512 0.31267 0.29148 0.0
H1112 H 0.99174 0.05905 0.23617 0.0
H1113 H 0.98246 0.98456 0.20792 0.0
H1114 H 1.00619 0.06915 0.19993 0.0
H1115 H 0.99841 0.99445 0.17217 0.0
H1116 H 1.0118 0.01786 0.09998 0.0
H1117 H 0.99462 1.00863 0.13499 0.0
H1118 H 0.03443 0.0714 0.17996 0.0
H1119 H 0.05025 0.0813 0.14448 0.0
C1120 C 0.99323 0.04477 0.22238 0.0
C1121 C 0.98608 0.02099 0.22499 0.0
C1122 C 1.00166 0.05056 0.20151 0.0
C1123 C 1.0037 0.03271 0.18283 0.0
C1124 C 0.9968 1.00881 0.18574 0.0
C1125 C 0.98787 1.00305 0.20642 0.0
C1126 C 0.01647 0.02992 0.11725 0.0
C1127 C 0.03223 0.05042 0.11939 0.0
C1128 C 1.00687 0.02444 0.13754 0.0
C1129 C 1.01312 0.03907 0.16068 0.0
C1130 C 0.02873 0.05981 0.16253 0.0
C1131 C 0.03796 0.06552 0.14212 0.0
H1132 H 0.31776 0.75139 0.52718 0.0
H1133 H 0.25809 0.7098 0.53617 0.0
H1134 H 0.29983 0.78124 0.51232 0.0
H1135 H 0.23966 0.74008 0.52091 0.0
H1136 H 0.27736 0.82881 0.47958 0.0
H1137 H 0.27837 0.81144 0.51714 0.0
H1138 H 0.23401 0.74913 0.47827 0.0
H1139 H 0.23137 0.76742 0.44105 0.0
C1140 C 0.30075 0.74886 0.52631 0.0
C1141 C 0.28923 0.7281 0.5322 0.0
C1142 C 0.29042 0.76623 0.51823 0.0
C1143 C 0.26821 0.76316 0.51551 0.0
C1144 C 0.25676 0.74297 0.52287 0.0
C1145 C 0.26726 0.72562 0.53141 0.0
C1146 C 0.26667 0.81211 0.47918 0.0
C1147 C 0.25552 0.79863 0.45675 0.0
C1148 C 0.26737 0.80206 0.50089 0.0
C1149 C 0.25755 0.77826 0.50009 0.0
C1150 C 0.24246 0.7672 0.47928 0.0
C1151 C 0.24122 0.77757 0.45773 0.0
H1152 H 0.66867 0.03668 0.73159 0.0
H1153 H 0.61197 1.00636 0.75714 0.0
H1154 H 0.64772 0.03894 0.69173 0.0
H1155 H 0.59085 1.00893 0.71759 0.0
H1156 H 0.55625 0.99826 0.63732 0.0
H1157 H 0.57792 0.9962 0.67641 0.0
H1158 H 0.62464 0.05475 0.66464 0.0
H1159 H 0.60274 0.05642 0.62493 0.0
C1160 C 0.65168 0.03044 0.72887 0.0
C1161 C 0.6424 0.02117 0.74827 0.0
C1162 C 0.63941 0.03191 0.70567 0.0
C1163 C 0.61704 0.02412 0.70033 0.0
C1164 C 0.60783 1.01488 0.7199 0.0
C1165 C 0.62011 1.01348 0.74309 0.0
C1166 C 0.57116 1.0108 0.64287 0.0
C1167 C 0.57732 0.02753 0.62724 0.0
C1168 C 0.58377 1.00974 0.66585 0.0
C1169 C 0.60352 0.02537 0.67488 0.0
C1170 C 0.60986 0.04204 0.65904 0.0
C1171 C 0.59711 0.04313 0.63592 0.0
H1172 H 0.3063 0.34483 0.01853 0.0
H1173 H 0.34544 0.40582 0.99899 0.0
H1174 H 0.30181 0.3245 0.97602 0.0
H1175 H 0.34108 0.38552 0.95673 0.0
H1176 H 0.34788 0.33218 0.89159 0.0
H1177 H 0.35194 0.35052 0.9345 0.0
H1178 H 0.28475 0.32843 0.93278 0.0
H1179 H 0.28059 0.31007 0.88968 0.0
C1180 C 0.31395 0.35388 1.00519 0.0
C1181 C 0.32623 0.37695 0.01216 0.0
C1182 C 0.3113 0.34228 0.98082 0.0
C1183 C 0.32115 0.35334 0.96298 0.0
C1184 C 0.33347 0.37638 0.97005 0.0
C1185 C 0.33587 0.38807 0.99426 0.0
C1186 C 0.33395 0.33105 0.90033 0.0
C1187 C 0.31389 0.31965 0.88705 0.0
C1188 C 0.33628 0.34172 0.92493 0.0
C1189 C 0.31866 0.34107 0.93707 0.0
C1190 C 0.29866 0.32915 0.92403 0.0
C1191 C 0.29628 0.31872 0.89927 0.0
H1192 H 0.97957 0.98289 0.35898 0.0
H1193 H 0.99816 0.05766 0.35577 0.0
H1194 H 0.99541 0.98957 0.40249 0.0
H1195 H 1.01491 0.06434 0.39906 0.0
H1196 H 0.02142 0.07227 0.48343 0.0
H1197 H 1.0072 0.06613 0.43938 0.0
H1198 H 0.02682 0.99852 0.43108 0.0
H1199 H 0.04011 1.00422 0.47515 0.0
C1200 C 0.98739 1.00072 0.36749 0.0
C1201 C 0.9876 0.01974 0.35394 0.0
C1202 C 0.9966 1.00459 0.39249 0.0
C1203 C 1.00649 0.02756 0.40453 0.0
C1204 C 1.00712 0.04648 0.39069 0.0
C1205 C 0.99768 0.04263 0.36576 0.0
C1206 C 0.02272 0.05612 0.47217 0.0
C1207 C 0.03176 0.03867 0.48291 0.0
C1208 C 1.01467 0.05263 0.4468 0.0
C1209 C 1.01571 0.03174 0.43147 0.0
C1210 C 0.02524 1.01459 0.44224 0.0
C1211 C 0.03301 0.01794 0.46759 0.0
H1212 H 0.3601 0.74805 0.60763 0.0
H1213 H 0.34025 0.68629 0.64169 0.0
H1214 H 0.36087 0.77361 0.64619 0.0
H1215 H 0.34131 0.71192 0.68039 0.0
H1216 H 0.30163 0.76411 0.7133 0.0
H1217 H 0.31395 0.73727 0.68394 0.0
H1218 H 0.3733 0.78715 0.69211 0.0
H1219 H 0.36094 0.81403 0.72211 0.0
C1220 C 0.35666 0.7399 0.62362 0.0
C1221 C 0.34953 0.71527 0.62155 0.0
C1222 C 0.35722 0.75455 0.64573 0.0
C1223 C 0.35066 0.7447 0.66601 0.0
C1224 C 0.34605 0.71991 0.6648 0.0
C1225 C 0.3455 0.70527 0.64269 0.0
C1226 C 0.31745 0.76913 0.70915 0.0
C1227 C 0.33043 0.79093 0.71999 0.0
C1228 C 0.32458 0.75372 0.69253 0.0
C1229 C 0.34474 0.75998 0.68612 0.0
C1230 C 0.35777 0.78188 0.69693 0.0
C1231 C 0.35066 0.79726 0.71386 0.0
H1232 H 0.61635 1.01156 0.86745 0.0
H1233 H 0.67599 0.04036 0.9149 0.0
H1234 H 0.59796 1.01543 0.90282 0.0
H1235 H 0.65772 0.04479 0.95045 0.0
H1236 H 0.62179 0.0403 0.01788 0.0
H1237 H 0.64064 0.03603 0.98279 0.0
H1238 H 0.58247 0.03213 0.93275 0.0
H1239 H 0.56382 0.03593 0.96776 0.0
C1240 C 0.62575 0.01884 0.88541 0.0
C1241 C 0.6481 0.0255 0.88743 0.0
C1242 C 0.61498 0.0213 0.90624 0.0
C1243 C 0.6257 0.03067 0.93077 0.0
C1244 C 0.64815 0.03725 0.93269 0.0
C1245 C 0.65892 0.03478 0.91182 0.0
C1246 C 0.61287 0.03861 0.99945 0.0
C1247 C 0.59081 0.03865 0.99658 0.0
C1248 C 0.62392 0.03618 0.97878 0.0
C1249 C 0.61372 0.03353 0.95366 0.0
C1250 C 0.59162 0.03366 0.95099 0.0
C1251 C 0.58063 0.0361 0.9716 0.0
H1252 H 0.32299 0.40412 0.16997 0.0
H1253 H 0.34296 0.34544 0.1306 0.0
H1254 H 0.31788 0.38159 0.20392 0.0
H1255 H 0.33869 0.32315 0.16487 0.0
H1256 H 0.3064 0.279 0.21738 0.0
H1257 H 0.31361 0.30195 0.18434 0.0
H1258 H 0.33309 0.36591 0.23774 0.0
H1259 H 0.325 0.34287 0.27062 0.0
C1260 C 0.32657 0.38649 0.16869 0.0
C1261 C 0.33335 0.37663 0.14744 0.0
C1262 C 0.32375 0.37353 0.18831 0.0
C1263 C 0.32778 0.35031 0.18742 0.0
C1264 C 0.33498 0.3407 0.16628 0.0
C1265 C 0.33763 0.3536 0.14659 0.0
C1266 C 0.31235 0.29795 0.2221 0.0
C1267 C 0.31507 0.30904 0.24671 0.0
C1268 C 0.31664 0.3112 0.20309 0.0
C1269 C 0.32397 0.33602 0.20806 0.0
C1270 C 0.32713 0.34699 0.23288 0.0
C1271 C 0.32269 0.33372 0.25188 0.0
H1272 H 0.19336 0.901 0.02438 0.0
H1273 H 0.24375 0.92043 0.08757 0.0
H1274 H 0.17441 0.92915 0.04308 0.0
H1275 H 0.22468 0.9486 0.10639 0.0
H1276 H 0.19838 0.02021 0.10147 0.0
H1277 H 0.2166 0.98707 0.09471 0.0
H1278 H 0.15628 0.93804 0.07857 0.0
H1279 H 0.13823 0.97115 0.08486 0.0
C1280 C 0.20019 0.91101 0.04244 0.0
C1281 C 0.22004 0.9087 0.05444 0.0
C1282 C 0.1893 0.92699 0.05325 0.0
C1283 C 0.19812 0.94102 0.0762 0.0
C1284 C 0.21762 0.93807 0.08864 0.0
C1285 C 0.22845 0.92193 0.07789 0.0
C1286 C 0.18917 1.00227 0.09718 0.0
C1287 C 0.16697 0.9981 0.09323 0.0
C1288 C 0.19953 0.98332 0.09337 0.0
C1289 C 0.18777 0.96008 0.0857 0.0
C1290 C 0.16567 0.95584 0.08401 0.0
C1291 C 0.15537 0.97471 0.08767 0.0
H1292 H 0.69732 0.66083 0.03222 0.0
H1293 H 0.72337 0.59772 0.03675 0.0
H1294 H 0.66283 0.63899 0.03749 0.0
H1295 H 0.68891 0.57572 0.0414 0.0
H1296 H 0.63282 0.54936 0.07762 0.0
H1297 H 0.66616 0.57215 0.071 0.0
H1298 H 0.63197 0.60864 0.02004 0.0
H1299 H 0.59831 0.58593 0.02726 0.0
C1300 C 0.69564 0.64221 0.03407 0.0
C1301 C 0.71323 0.6311 0.03415 0.0
C1302 C 0.67577 0.62961 0.03699 0.0
C1303 C 0.6729 0.6055 0.04014 0.0
C1304 C 0.69044 0.59433 0.03959 0.0
C1305 C 0.71026 0.60692 0.0367 0.0
C1306 C 0.63235 0.56228 0.06502 0.0
C1307 C 0.61284 0.56567 0.05288 0.0
C1308 C 0.65158 0.57528 0.06103 0.0
C1309 C 0.65202 0.59215 0.04467 0.0
C1310 C 0.63241 0.59594 0.03286 0.0
C1311 C 0.61306 0.58285 0.03691 0.0
H1312 H 0.71308 0.52854 0.37397 0.0
H1313 H 0.67501 0.49362 0.30438 0.0
H1314 H 0.73358 0.49709 0.37369 0.0
H1315 H 0.69584 0.46264 0.30363 0.0
H1316 H 0.72748 0.40112 0.31528 0.0
H1317 H 0.70449 0.42944 0.32193 0.0
H1318 H 0.75952 0.48452 0.35171 0.0
H1319 H 0.78231 0.45599 0.34633 0.0
C1320 C 0.70908 0.51411 0.35864 0.0
C1321 C 0.69253 0.51359 0.33913 0.0
C1322 C 0.72088 0.49615 0.35841 0.0
C1323 C 0.71645 0.47735 0.33859 0.0
C1324 C 0.69953 0.47661 0.31938 0.0
C1325 C 0.68767 0.49449 0.31969 0.0
C1326 C 0.73462 0.41914 0.32375 0.0
C1327 C 0.75676 0.42633 0.33002 0.0
C1328 C 0.72146 0.43547 0.32728 0.0
C1329 C 0.73014 0.45936 0.33712 0.0
C1330 C 0.75223 0.46627 0.34427 0.0
C1331 C 0.76535 0.44995 0.34086 0.0
H1332 H 0.80463 0.48505 0.52886 0.0
H1333 H 0.82804 0.43949 0.47611 0.0
H1334 H 0.83483 0.51704 0.52875 0.0
H1335 H 0.85805 0.47105 0.47615 0.0
H1336 H 0.90997 0.54108 0.55106 0.0
H1337 H 0.87291 0.52136 0.54537 0.0
H1338 H 0.87065 0.51042 0.46633 0.0
H1339 H 0.90786 0.52891 0.472 0.0
C1340 C 0.816 0.48205 0.51692 0.0
C1341 C 0.81419 0.45976 0.5027 0.0
C1342 C 0.83327 0.5003 0.51691 0.0
C1343 C 0.84881 0.49657 0.50247 0.0
C1344 C 0.84621 0.47467 0.4872 0.0
C1345 C 0.82911 0.45646 0.48735 0.0
C1346 C 0.90146 0.53485 0.53245 0.0
C1347 C 0.91205 0.53605 0.51207 0.0
C1348 C 0.88013 0.5238 0.52916 0.0
C1349 C 0.86902 0.51391 0.50541 0.0
C1350 C 0.87896 0.51749 0.48488 0.0
C1351 C 0.90028 0.52836 0.48816 0.0
H1352 H 0.4206 0.14824 0.32061 0.0
H1353 H 0.36441 0.10366 0.27721 0.0
H1354 H 0.40277 0.18213 0.32199 0.0
H1355 H 0.34649 0.13743 0.27814 0.0
H1356 H 0.31042 0.19947 0.29112 0.0
H1357 H 0.32844 0.16586 0.28985 0.0
H1358 H 0.38858 0.21413 0.31273 0.0
H1359 H 0.37029 0.24766 0.31433 0.0
C1360 C 0.40439 0.14539 0.31117 0.0
C1361 C 0.39447 0.12223 0.29878 0.0
C1362 C 0.39386 0.16537 0.31185 0.0
C1363 C 0.37246 0.16387 0.30025 0.0
C1364 C 0.36261 0.14056 0.28783 0.0
C1365 C 0.37317 0.12063 0.28712 0.0
C1366 C 0.32753 0.20322 0.29589 0.0
C1367 C 0.33834 0.22729 0.30281 0.0
C1368 C 0.33822 0.18341 0.29505 0.0
C1369 C 0.3607 0.18591 0.3011 0.0
C1370 C 0.37149 0.21013 0.30802 0.0
C1371 C 0.36076 0.22996 0.30884 0.0
H1372 H 0.31409 0.10472 0.51964 0.0
H1373 H 0.35152 0.17066 0.56016 0.0
H1374 H 0.34548 0.08687 0.52331 0.0
H1375 H 0.3828 0.15273 0.5645 0.0
H1376 H 0.43986 0.12013 0.54958 0.0
H1377 H 0.4088 0.13842 0.54426 0.0
H1378 H 0.36904 0.07234 0.5516 0.0
H1379 H 0.39998 0.0541 0.55666 0.0
C1380 C 0.32902 0.11542 0.52938 0.0
C1381 C 0.3302 0.13917 0.53957 0.0
C1382 C 0.34708 0.10512 0.53167 0.0
C1383 C 0.36691 0.1182 0.54433 0.0
C1384 C 0.36803 0.14206 0.55433 0.0
C1385 C 0.34999 0.15236 0.55196 0.0
C1386 C 0.42452 0.10951 0.5502 0.0
C1387 C 0.4226 0.08551 0.55344 0.0
C1388 C 0.4066 0.12005 0.54716 0.0
C1389 C 0.38616 0.10696 0.54737 0.0
C1390 C 0.38431 0.08299 0.55076 0.0
C1391 C 0.40218 0.07247 0.55371 0.0
H1392 H 0.73132 0.61723 0.35175 0.0
H1393 H 0.68139 0.65376 0.32804 0.0
H1394 H 0.75778 0.65204 0.34937 0.0
H1395 H 0.70794 0.68885 0.32593 0.0
H1396 H 0.76187 0.73218 0.29354 0.0
H1397 H 0.73441 0.69992 0.29975 0.0
H1398 H 0.77275 0.69315 0.3681 0.0
H1399 H 0.8002 0.72572 0.36187 0.0
C1400 C 0.72598 0.63281 0.34628 0.0
C1401 C 0.70424 0.63269 0.34 0.0
C1402 C 0.74117 0.65284 0.34505 0.0
C1403 C 0.73502 0.67326 0.3374 0.0
C1404 C 0.71323 0.67332 0.33161 0.0
C1405 C 0.69801 0.65328 0.33296 0.0
C1406 C 0.76425 0.72413 0.31014 0.0
C1407 C 0.78306 0.73166 0.32738 0.0
C1408 C 0.74851 0.70559 0.31369 0.0
C1409 C 0.7513 0.69395 0.33447 0.0
C1410 C 0.77015 0.70159 0.35178 0.0
C1411 C 0.78585 0.72025 0.34827 0.0
H1412 H 0.87412 0.47855 0.75727 0.0
H1413 H 0.90302 0.48536 0.83342 0.0
H1414 H 0.8562 0.43776 0.75894 0.0
H1415 H 0.88547 0.44483 0.83518 0.0
H1416 H 0.83864 0.37673 0.84071 0.0
H1417 H 0.85584 0.41705 0.83785 0.0
H1418 H 0.85528 0.39664 0.76019 0.0
H1419 H 0.83771 0.35607 0.76315 0.0
C1420 C 0.87674 0.47151 0.77448 0.0
C1421 C 0.89026 0.48602 0.79521 0.0
C1422 C 0.86642 0.44768 0.77545 0.0
C1423 C 0.86887 0.437 0.79728 0.0
C1424 C 0.88244 0.45169 0.81795 0.0
C1425 C 0.89281 0.47534 0.81691 0.0
C1426 C 0.84213 0.38059 0.8229 0.0
C1427 C 0.83648 0.36231 0.80225 0.0
C1428 C 0.85232 0.40415 0.82123 0.0
C1429 C 0.85752 0.41113 0.79875 0.0
C1430 C 0.85171 0.39283 0.77797 0.0
C1431 C 0.84157 0.36913 0.77969 0.0
H1432 H 0.10376 0.86539 0.10725 0.0
H1433 H 0.06687 0.88459 0.16252 0.0
H1434 H 0.09901 0.90114 0.08879 0.0
H1435 H 0.06168 0.9197 0.14379 0.0
H1436 H 0.03507 0.96195 0.08469 0.0
H1437 H 0.042 0.92693 0.10231 0.0
H1438 H 0.10859 0.94833 0.10054 0.0
H1439 H 0.10176 0.98406 0.08321 0.0
C1440 C 0.09465 0.87718 0.11547 0.0
C1441 C 0.08571 0.87198 0.13643 0.0
C1442 C 0.09199 0.89775 0.10494 0.0
C1443 C 0.07986 0.91336 0.11469 0.0
C1444 C 0.07097 0.90808 0.13562 0.0
C1445 C 0.07403 0.88792 0.14645 0.0
C1446 C 0.05124 0.95928 0.08784 0.0
C1447 C 0.06782 0.97603 0.08234 0.0
C1448 C 0.05522 0.93915 0.09814 0.0
C1449 C 0.07587 0.9347 0.10292 0.0
C1450 C 0.09247 0.95109 0.09695 0.0
C1451 C 0.08855 0.97162 0.08708 0.0
H1452 H 0.96484 0.25469 0.8734 0.0
H1453 H 0.9475 0.28261 0.94177 0.0
H1454 H 0.93003 0.25679 0.85121 0.0
H1455 H 0.91269 0.28495 0.9195 0.0
H1456 H 0.86096 0.30855 0.86332 0.0
H1457 H 0.89542 0.30696 0.88757 0.0
H1458 H 0.89238 0.23717 0.84812 0.0
H1459 H 0.85825 0.23864 0.82437 0.0
C1460 C 0.95358 0.26119 0.88374 0.0
C1461 C 0.95902 0.26829 0.90945 0.0
C1462 C 0.93355 0.26238 0.87101 0.0
C1463 C 0.9184 0.27106 0.88349 0.0
C1464 C 0.92392 0.27835 0.90919 0.0
C1465 C 0.94386 0.27681 0.922 0.0
C1466 C 0.86761 0.29283 0.86001 0.0
C1467 C 0.85679 0.27379 0.84176 0.0
C1468 C 0.88736 0.29187 0.87393 0.0
C1469 C 0.89691 0.272 0.86969 0.0
C1470 C 0.88582 0.25292 0.8517 0.0
C1471 C 0.86609 0.25373 0.83813 0.0
H1472 H 0.55848 0.2222 0.65733 0.0
H1473 H 0.5961 0.24464 0.60304 0.0
H1474 H 0.55329 0.18109 0.6379 0.0
H1475 H 0.59086 0.2032 0.58341 0.0
H1476 H 0.59614 0.12267 0.57562 0.0
H1477 H 0.60087 0.16486 0.59169 0.0
H1478 H 0.5351 0.15458 0.60015 0.0
H1479 H 0.53036 0.11256 0.58425 0.0
C1480 C 0.5656 0.21838 0.64114 0.0
C1481 C 0.5777 0.23681 0.63176 0.0
C1482 C 0.5625 0.19474 0.62988 0.0
C1483 C 0.57156 0.18869 0.60897 0.0
C1484 C 0.58374 0.20713 0.59957 0.0
C1485 C 0.58666 0.23091 0.61073 0.0
C1486 C 0.58262 0.12942 0.5807 0.0
C1487 C 0.56287 0.11401 0.57868 0.0
C1488 C 0.58533 0.15369 0.58984 0.0
C1489 C 0.56842 0.16321 0.59744 0.0
C1490 C 0.54858 0.14789 0.59485 0.0
C1491 C 0.54583 0.12372 0.58555 0.0
H1492 H 0.59817 0.77852 0.44941 0.0
H1493 H 0.56024 0.76645 0.37672 0.0
H1494 H 0.63035 0.78201 0.43111 0.0
H1495 H 0.59241 0.76953 0.35828 0.0
H1496 H 0.65471 0.80159 0.33438 0.0
H1497 H 0.62267 0.79752 0.35276 0.0
H1498 H 0.65116 0.76049 0.40772 0.0
H1499 H 0.68357 0.76533 0.38983 0.0
C1500 C 0.59667 0.77647 0.42948 0.0
C1501 C 0.57653 0.77223 0.41459 0.0
C1502 C 0.61519 0.77833 0.41892 0.0
C1503 C 0.6142 0.77609 0.3931 0.0
C1504 C 0.59398 0.77171 0.37822 0.0
C1505 C 0.57545 0.76978 0.38879 0.0
C1506 C 0.65432 0.7928 0.35056 0.0
C1507 C 0.672 0.78395 0.3606 0.0
C1508 C 0.63572 0.79016 0.36096 0.0
C1509 C 0.6341 0.77862 0.38182 0.0
C1510 C 0.65175 0.76971 0.39186 0.0
C1511 C 0.67035 0.77227 0.38139 0.0
H1512 H 0.03954 0.24176 0.4075 0.0
H1513 H 0.0978 0.28922 0.44317 0.0
H1514 H 0.0477 0.212 0.43267 0.0
H1515 H 0.10653 0.25894 0.46787 0.0
H1516 H 0.09556 0.2139 0.53072 0.0
H1517 H 0.0945 0.24219 0.50172 0.0
H1518 H 0.0693 0.18451 0.44172 0.0
H1519 H 0.06877 0.15643 0.47089 0.0
C1520 C 0.05432 0.24563 0.4204 0.0
C1521 C 0.06794 0.26785 0.42355 0.0
C1522 C 0.05913 0.22847 0.43473 0.0
C1523 C 0.07781 0.23304 0.45235 0.0
C1524 C 0.09188 0.25497 0.45474 0.0
C1525 C 0.08694 0.27226 0.44053 0.0
C1526 C 0.08981 0.20724 0.51134 0.0
C1527 C 0.08186 0.18289 0.50328 0.0
C1528 C 0.0895 0.22346 0.49461 0.0
C1529 C 0.0815 0.21567 0.46939 0.0
C1530 C 0.07511 0.19117 0.4611 0.0
C1531 C 0.07512 0.17499 0.47784 0.0
H1532 H 0.63436 0.24911 0.20774 0.0
H1533 H 0.63362 0.27588 0.28391 0.0
H1534 H 0.67277 0.25776 0.21562 0.0
H1535 H 0.67246 0.28408 0.29203 0.0
H1536 H 0.7398 0.25123 0.24462 0.0
H1537 H 0.70142 0.24344 0.23776 0.0
H1538 H 0.70273 0.31111 0.28107 0.0
H1539 H 0.74147 0.31874 0.28864 0.0
C1540 C 0.64244 0.25659 0.22629 0.0
C1541 C 0.63102 0.26177 0.24525 0.0
C1542 C 0.66447 0.26149 0.23081 0.0
C1543 C 0.67563 0.2716 0.25443 0.0
C1544 C 0.66424 0.27654 0.27356 0.0
C1545 C 0.64207 0.27162 0.269 0.0
C1546 C 0.73198 0.26459 0.25257 0.0
C1547 C 0.7437 0.28566 0.26709 0.0
C1548 C 0.70995 0.26012 0.24857 0.0
C1549 C 0.69907 0.27665 0.2589 0.0
C1550 C 0.71073 0.29793 0.27313 0.0
C1551 C 0.73288 0.30242 0.27717 0.0
H1552 H 0.56509 0.90713 0.92779 0.0
H1553 H 0.53282 0.85725 0.96878 0.0
H1554 H 0.56643 0.93932 0.96122 0.0
H1555 H 0.53434 0.88937 1.00223 0.0
H1556 H 0.51992 0.96011 0.04081 0.0
H1557 H 0.51875 0.9258 1.00943 0.0
H1558 H 0.58438 0.95181 1.00481 0.0
H1559 H 0.58536 0.98584 0.03593 0.0
C1560 C 0.55839 0.90305 0.94397 0.0
C1561 C 0.5489 0.87973 0.94572 0.0
C1562 C 0.55922 0.92142 0.96313 0.0
C1563 C 0.55052 0.91679 0.98432 0.0
C1564 C 0.54099 0.89346 0.98601 0.0
C1565 C 0.54024 0.87509 0.96693 0.0
C1566 C 0.53412 0.95802 0.03338 0.0
C1567 C 0.55278 0.97516 0.04078 0.0
C1568 C 0.53349 0.93856 0.01547 0.0
C1569 C 0.55145 0.9363 1.00458 0.0
C1570 C 0.57024 0.95326 0.01264 0.0
C1571 C 0.57089 0.97252 0.03058 0.0
H1572 H 1.00119 0.73219 0.73746 0.0
H1573 H 0.04204 0.7844 0.7948 0.0
H1574 H 0.9703 0.741 0.75416 0.0
H1575 H 1.01107 0.79344 0.81129 0.0
H1576 H 0.94834 0.79436 0.84073 0.0
H1577 H 0.97899 0.77873 0.83007 0.0
H1578 H 0.9559 0.77796 0.75269 0.0
H1579 H 0.92569 0.7938 0.76322 0.0
C1580 C 1.00359 0.74521 0.75391 0.0
C1581 C 0.02395 0.7579 0.76462 0.0
C1582 C 0.98592 0.75032 0.76338 0.0
C1583 C 0.98832 0.7682 0.7837 0.0
C1584 C 1.00879 0.77955 0.79562 0.0
C1585 C 0.02649 0.77443 0.78613 0.0
C1586 C 0.94994 0.79098 0.82148 0.0
C1587 C 0.93457 0.79519 0.80279 0.0
C1588 C 0.96737 0.78192 0.8154 0.0
C1589 C 0.9696 0.77681 0.79056 0.0
C1590 C 0.95428 0.78114 0.77196 0.0
C1591 C 0.93701 0.79028 0.77801 0.0
H1592 H 0.09583 0.07149 0.87984 0.0
H1593 H 0.15654 0.07415 0.92461 0.0
H1594 H 0.07822 0.06167 0.9144 0.0
H1595 H 0.13887 0.06405 0.9592 0.0
H1596 H 0.09709 0.065 0.02193 0.0
H1597 H 0.11694 0.07785 0.98972 0.0
H1598 H 0.07234 0.02656 0.93501 0.0
H1599 H 0.05277 1.01395 0.96694 0.0
C1600 C 0.10544 0.07018 0.89713 0.0
C1601 C 0.12757 0.07347 0.8994 0.0
C1602 C 0.09534 0.06439 0.91692 0.0
C1603 C 0.10711 0.06176 0.93952 0.0
C1604 C 0.12933 0.06601 0.94212 0.0
C1605 C 0.13944 0.07171 0.92225 0.0
C1606 C 0.09183 0.05626 1.00312 0.0
C1607 C 0.07344 0.03843 0.99702 0.0
C1608 C 0.10311 0.06366 0.98462 0.0
C1609 C 0.09604 0.05348 0.95968 0.0
C1610 C 0.07798 0.03518 0.95388 0.0
C1611 C 0.06686 0.02779 0.97227 0.0
H1612 H 0.83276 0.38383 0.5601 0.0
H1613 H 0.77541 0.33027 0.5484 0.0
H1614 H 0.84887 0.36345 0.59179 0.0
H1615 H 0.79122 0.31026 0.58021 0.0
H1616 H 0.82202 0.27386 0.63446 0.0
H1617 H 0.81795 0.28885 0.59519 0.0
H1618 H 0.84133 0.36042 0.63332 0.0
H1619 H 0.84641 0.34532 0.67249 0.0
C1620 C 0.82376 0.36746 0.56397 0.0
C1621 C 0.80273 0.35878 0.55211 0.0
C1622 C 0.83296 0.35586 0.58214 0.0
C1623 C 0.82127 0.33539 0.58867 0.0
C1624 C 0.80077 0.32584 0.57547 0.0
C1625 C 0.7916 0.33742 0.55736 0.0
C1626 C 0.82706 0.29271 0.63441 0.0
C1627 C 0.8342 0.30847 0.65665 0.0
C1628 C 0.82451 0.30131 0.6119 0.0
C1629 C 0.82893 0.32583 0.6112 0.0
C1630 C 0.83782 0.34141 0.63319 0.0
C1631 C 0.84047 0.3328 0.6557 0.0
H1632 H 0.49671 0.07318 0.36186 0.0
H1633 H 0.44038 0.04045 0.38654 0.0
H1634 H 0.51793 0.07016 0.40109 0.0
H1635 H 0.46156 0.03668 0.4257 0.0
H1636 H 0.50368 0.04408 0.50382 0.0
H1637 H 0.48126 0.04823 0.4653 0.0
H1638 H 0.53521 0.05074 0.42789 0.0
H1639 H 0.55721 0.04731 0.46607 0.0
C1640 C 0.4887 0.0652 0.37557 0.0
C1641 C 0.46646 0.05714 0.37029 0.0
C1642 C 0.50108 0.0632 0.39848 0.0
C1643 C 0.49207 0.05286 0.41763 0.0
C1644 C 0.46971 0.04498 0.4123 0.0
C1645 C 0.45732 0.04706 0.38938 0.0
C1646 C 0.51078 0.04553 0.48739 0.0
C1647 C 0.53266 0.04534 0.48874 0.0
C1648 C 0.49776 0.04786 0.46486 0.0
C1649 C 0.50587 0.05014 0.44241 0.0
C1650 C 0.52775 0.04969 0.44408 0.0
C1651 C 0.54063 0.04744 0.46641 0.0
H1652 H 0.80146 0.68313 0.12373 0.0
H1653 H 0.76765 0.73556 0.0978 0.0
H1654 H 0.80634 0.7036 0.16605 0.0
H1655 H 0.77242 0.75599 0.14025 0.0
H1656 H 0.76456 0.7669 0.22367 0.0
H1657 H 0.76024 0.74863 0.18054 0.0
H1658 H 0.82584 0.74208 0.19148 0.0
H1659 H 0.83024 0.76038 0.23445 0.0
C1660 C 0.79508 0.69905 0.12706 0.0
C1661 C 0.78418 0.70771 0.10736 0.0
C1662 C 0.79797 0.71086 0.15131 0.0
C1663 C 0.7898 0.73148 0.15658 0.0
C1664 C 0.77879 0.74008 0.13688 0.0
C1665 C 0.77615 0.72843 0.11254 0.0
C1666 C 0.77812 0.76174 0.21686 0.0
C1667 C 0.79774 0.76512 0.23266 0.0
C1668 C 0.77565 0.75134 0.19208 0.0
C1669 C 0.79266 0.74375 0.18256 0.0
C1670 C 0.81234 0.74745 0.19826 0.0
C1671 C 0.81489 0.75812 0.22291 0.0
H1672 H 0.13196 0.10415 0.75888 0.0
H1673 H 0.10558 0.03184 0.76569 0.0
H1674 H 0.11487 0.09749 0.71586 0.0
H1675 H 0.08773 0.02529 0.72272 0.0
H1676 H 0.07971 1.01488 0.63746 0.0
H1677 H 0.09439 0.02053 0.6814 0.0
H1678 H 0.08225 0.0918 0.68919 0.0
H1679 H 0.06836 0.08642 0.64527 0.0
C1680 C 0.12222 0.0869 0.75127 0.0
C1681 C 0.12012 0.06854 0.76573 0.0
C1682 C 0.11228 0.08308 0.72656 0.0
C1683 C 0.0998 0.06082 0.71564 0.0
C1684 C 0.09743 0.04255 0.7303 0.0
C1685 C 0.10752 0.04636 0.75502 0.0
C1686 C 0.08005 0.03169 0.6486 0.0
C1687 C 0.073 0.05025 0.63774 0.0
C1688 C 0.0884 0.03492 0.67388 0.0
C1689 C 0.08973 0.05673 0.68898 0.0
C1690 C 0.08199 0.07496 0.67816 0.0
C1691 C 0.07387 0.07181 0.65291 0.0
H1692 H 0.73841 0.3322 0.4503 0.0
H1693 H 0.76006 0.39847 0.4247 0.0
H1694 H 0.74314 0.31046 0.4116 0.0
H1695 H 0.76495 0.37663 0.38604 0.0
H1696 H 0.81074 0.32742 0.35794 0.0
H1697 H 0.79454 0.35172 0.38586 0.0
H1698 H 0.73478 0.30227 0.36358 0.0
H1699 H 0.75089 0.27833 0.33489 0.0
C1700 C 0.74343 0.34211 0.43604 0.0
C1701 C 0.74926 0.36696 0.44063 0.0
C1702 C 0.74609 0.32967 0.41387 0.0
C1703 C 0.75478 0.34194 0.39615 0.0
C1704 C 0.75846 0.36683 0.39964 0.0
C1705 C 0.75555 0.37929 0.42169 0.0
C1706 C 0.79404 0.32212 0.35855 0.0
C1707 C 0.78202 0.30121 0.34422 0.0
C1708 C 0.78475 0.336 0.37444 0.0
C1709 C 0.76335 0.32896 0.37658 0.0
C1710 C 0.75126 0.30809 0.3621 0.0
C1711 C 0.76051 0.29437 0.34592 0.0
H1712 H 0.43311 0.0366 0.20481 0.0
H1713 H 0.49197 0.07097 0.2512 0.0
H1714 H 0.45141 0.03233 0.16932 0.0
H1715 H 0.51036 0.0674 0.21585 0.0
H1716 H 0.54556 0.04876 0.1516 0.0
H1717 H 0.52692 0.0523 0.18657 0.0
H1718 H 0.46756 0.03982 0.13637 0.0
H1719 H 0.48647 0.03569 0.10137 0.0
C1720 C 0.45001 0.04346 0.20765 0.0
C1721 C 0.46062 0.05422 0.23172 0.0
C1722 C 0.4608 0.04108 0.18681 0.0
C1723 C 0.48304 0.04932 0.18845 0.0
C1724 C 0.49354 0.0602 0.21266 0.0
C1725 C 0.48275 0.0625 0.23347 0.0
C1726 C 0.52849 0.04664 0.14773 0.0
C1727 C 0.51802 0.04177 0.12275 0.0
C1728 C 0.51748 0.04892 0.16831 0.0
C1729 C 0.49505 0.04661 0.16559 0.0
C1730 C 0.48457 0.04165 0.14045 0.0
C1731 C 0.49564 0.03931 0.11982 0.0
H1732 H 0.78282 0.67806 0.94767 0.0
H1733 H 0.77503 0.74132 0.99209 0.0
H1734 H 0.78761 0.70014 0.91333 0.0
H1735 H 0.77856 0.76321 0.95751 0.0
H1736 H 0.80778 0.80355 0.90097 0.0
H1737 H 0.80143 0.78128 0.93462 0.0
H1738 H 0.7738 0.7183 0.88166 0.0
H1739 H 0.78146 0.74052 0.84811 0.0
C1740 C 0.78183 0.69665 0.94999 0.0
C1741 C 0.77863 0.7079 0.97274 0.0
C1742 C 0.78443 0.70939 0.93015 0.0
C1743 C 0.78359 0.73375 0.93228 0.0
C1744 C 0.77988 0.74475 0.955 0.0
C1745 C 0.77764 0.7321 0.97492 0.0
C1746 C 0.80022 0.78498 0.8965 0.0
C1747 C 0.79511 0.7739 0.87177 0.0
C1748 C 0.79641 0.77209 0.91591 0.0
C1749 C 0.78703 0.7477 0.91126 0.0
C1750 C 0.78142 0.73682 0.88633 0.0
C1751 C 0.78555 0.74967 0.86693 0.0
H1752 H 0.89951 0.16602 0.03137 0.0
H1753 H 0.87504 0.09959 0.05509 0.0
H1754 H 0.9171 0.14475 1.0018 0.0
H1755 H 0.89206 0.0787 0.02575 0.0
H1756 H 0.91081 0.03947 0.96857 0.0
H1757 H 0.88989 0.06923 0.97862 0.0
H1758 H 0.94733 0.1205 1.00869 0.0
H1759 H 0.96818 0.09102 0.99868 0.0
C1760 C 0.89792 0.14697 0.03027 0.0
C1761 C 0.88607 0.13445 0.04562 0.0
C1762 C 0.90774 0.13485 0.01323 0.0
C1763 C 0.90537 0.11006 1.01102 0.0
C1764 C 0.89357 0.09772 0.02647 0.0
C1765 C 0.88414 0.10977 0.04363 0.0
C1766 C 0.91895 0.05743 0.97616 0.0
C1767 C 0.94102 0.0627 0.98362 0.0
C1768 C 0.90702 0.07444 0.98191 0.0
C1769 C 0.91707 0.0968 0.99519 0.0
C1770 C 0.93921 0.10332 0.99862 0.0
C1771 C 0.95116 0.08634 0.99282 0.0
H1772 H 0.41275 0.42252 0.08572 0.0
H1773 H 0.38761 0.48666 0.08762 0.0
H1774 H 0.447 0.44463 0.07999 0.0
H1775 H 0.42182 0.50885 0.08239 0.0
H1776 H 0.47634 0.5366 0.04398 0.0
H1777 H 0.4433 0.51361 0.05128 0.0
H1778 H 0.47849 0.47435 0.09799 0.0
H1779 H 0.51181 0.49733 0.0902 0.0
C1780 C 0.41458 0.44141 0.08522 0.0
C1781 C 0.39731 0.45274 0.08708 0.0
C1782 C 0.43431 0.45415 0.082 0.0
C1783 C 0.43734 0.47862 0.08045 0.0
C1784 C 0.42014 0.48999 0.08296 0.0
C1785 C 0.40048 0.47727 0.08619 0.0
C1786 C 0.47709 0.52304 0.0558 0.0
C1787 C 0.49679 0.51895 0.06661 0.0
C1788 C 0.45805 0.50991 0.06017 0.0
C1789 C 0.45799 0.49218 0.07553 0.0
C1790 C 0.47777 0.48773 0.08598 0.0
C1791 C 0.49692 0.50097 0.0816 0.0
H1792 H 0.40181 0.56026 0.74521 0.0
H1793 H 0.42896 0.58432 0.82201 0.0
H1794 H 0.38197 0.59222 0.74577 0.0
H1795 H 0.40867 0.61592 0.82283 0.0
H1796 H 0.38584 0.68409 0.80755 0.0
H1797 H 0.4063 0.65269 0.80736 0.0
H1798 H 0.35265 0.60381 0.76242 0.0
H1799 H 0.33264 0.63543 0.7615 0.0
C1800 C 0.40347 0.57236 0.76226 0.0
C1801 C 0.41692 0.56981 0.78358 0.0
C1802 C 0.39199 0.59057 0.76262 0.0
C1803 C 0.39364 0.60658 0.78438 0.0
C1804 C 0.40722 0.60407 0.80568 0.0
C1805 C 0.41877 0.5859 0.80528 0.0
C1806 C 0.37847 0.66669 0.79748 0.0
C1807 C 0.35759 0.66233 0.78451 0.0
C1808 C 0.39012 0.6486 0.7976 0.0
C1809 C 0.38115 0.62573 0.7848 0.0
C1810 C 0.36017 0.6213 0.77217 0.0
C1811 C 0.34857 0.63938 0.77196 0.0
H1812 H 0.28727 0.61978 0.59665 0.0
H1813 H 0.27274 0.60397 0.51704 0.0
H1814 H 0.25826 0.58814 0.59973 0.0
H1815 H 0.24411 0.57146 0.52003 0.0
H1816 H 0.17611 0.55244 0.53889 0.0
H1817 H 0.21014 0.57124 0.53051 0.0
H1818 H 0.24162 0.54759 0.59458 0.0
H1819 H 0.20719 0.52925 0.60334 0.0
C1820 C 0.27818 0.6091 0.5798 0.0
C1821 C 0.28197 0.61458 0.55661 0.0
C1822 C 0.26163 0.59076 0.58154 0.0
C1823 C 0.24867 0.57733 0.5601 0.0
C1824 C 0.25352 0.58175 0.53689 0.0
C1825 C 0.26994 0.60031 0.53517 0.0
C1826 C 0.19032 0.55055 0.55073 0.0
C1827 C 0.18901 0.53965 0.57195 0.0
C1828 C 0.20992 0.56133 0.5459 0.0
C1829 C 0.22866 0.56127 0.5621 0.0
C1830 C 0.22744 0.54845 0.58208 0.0
C1831 C 0.20778 0.53786 0.58704 0.0
H1832 H 0.74422 0.97529 0.84065 0.0
H1833 H 0.68759 0.93102 0.79787 0.0
H1834 H 0.76201 0.94141 0.83915 0.0
H1835 H 0.70528 0.89703 0.79593 0.0
H1836 H 0.73757 0.83122 0.80259 0.0
H1837 H 0.71948 0.8649 0.8046 0.0
H1838 H 0.77982 0.91283 0.82706 0.0
H1839 H 0.79766 0.87909 0.82534 0.0
C1840 C 0.73533 0.95837 0.83076 0.0
C1841 C 0.71395 0.9569 0.81946 0.0
C1842 C 0.74581 0.93837 0.82972 0.0
C1843 C 0.73581 0.9151 0.8173 0.0
C1844 C 0.71432 0.91374 0.80604 0.0
C1845 C 0.70387 0.93378 0.80706 0.0
C1846 C 0.7472 0.84887 0.80806 0.0
C1847 C 0.76963 0.85139 0.81383 0.0
C1848 C 0.73658 0.8688 0.80913 0.0
C1849 C 0.74747 0.89297 0.81609 0.0
C1850 C 0.76996 0.89533 0.82185 0.0
C1851 C 0.78054 0.87543 0.82074 0.0
H1852 H 0.76401 0.91611 0.54321 0.0
H1853 H 0.79368 0.97358 0.6017 0.0
H1854 H 0.73264 0.93366 0.53693 0.0
H1855 H 0.762 0.9908 0.59615 0.0
H1856 H 0.70996 0.02812 0.5667 0.0
H1857 H 0.74158 1.01107 0.57095 0.0
H1858 H 0.70259 0.94069 0.55299 0.0
H1859 H 0.67104 0.95778 0.54715 0.0
C1860 C 0.76379 0.93246 0.55486 0.0
C1861 C 0.78143 0.94341 0.57296 0.0
C1862 C 0.74566 0.9425 0.55138 0.0
C1863 C 0.7445 0.96376 0.56603 0.0
C1864 C 0.76224 0.97468 0.58416 0.0
C1865 C 0.78044 0.9647 0.5875 0.0
C1866 C 0.70804 1.009 0.56316 0.0
C1867 C 0.68767 0.99447 0.55645 0.0
C1868 C 0.72631 0.99914 0.56604 0.0
C1869 C 0.72491 0.97436 0.56249 0.0
C1870 C 0.70455 0.95983 0.55564 0.0
C1871 C 0.68629 0.96969 0.5526 0.0
H1872 H 0.42965 0.42881 0.78809 0.0
H1873 H 0.37903 0.46475 0.76539 0.0
H1874 H 0.40351 0.39341 0.79039 0.0
H1875 H 0.35299 0.42962 0.76791 0.0
H1876 H 0.31099 0.35595 0.75644 0.0
H1877 H 0.33817 0.38838 0.7494 0.0
H1878 H 0.37752 0.3823 0.81731 0.0
H1879 H 0.35031 0.35015 0.82433 0.0
C1880 C 0.41296 0.42907 0.78335 0.0
C1881 C 0.40642 0.4496 0.77661 0.0
C1882 C 0.39798 0.40886 0.78483 0.0
C1883 C 0.37612 0.40868 0.77944 0.0
C1884 C 0.36966 0.42901 0.77194 0.0
C1885 C 0.38461 0.44921 0.77062 0.0
C1886 C 0.32551 0.36151 0.76976 0.0
C1887 C 0.32863 0.35036 0.79079 0.0
C1888 C 0.34106 0.3801 0.76578 0.0
C1889 C 0.36009 0.38792 0.78275 0.0
C1890 C 0.36326 0.37648 0.80362 0.0
C1891 C 0.34766 0.35801 0.80765 0.0
H1892 H 0.21061 0.59216 0.27921 0.0
H1893 H 0.23122 0.60256 0.35783 0.0
H1894 H 0.22829 0.63263 0.27752 0.0
H1895 H 0.24949 0.64311 0.35631 0.0
H1896 H 0.27016 0.72344 0.35132 0.0
H1897 H 0.25228 0.68301 0.35349 0.0
H1898 H 0.25637 0.66234 0.27707 0.0
H1899 H 0.2737 0.70284 0.27492 0.0
C1900 C 0.21906 0.60295 0.29629 0.0
C1901 C 0.2192 0.5933 0.31866 0.0
C1902 C 0.22954 0.62661 0.29533 0.0
C1903 C 0.2409 0.64229 0.31672 0.0
C1904 C 0.241 0.63252 0.33916 0.0
C1905 C 0.23049 0.60878 0.3401 0.0
C1906 C 0.26728 0.71038 0.33486 0.0
C1907 C 0.2737 0.71725 0.31288 0.0
C1908 C 0.25694 0.68667 0.33613 0.0
C1909 C 0.25234 0.66825 0.3155 0.0
C1910 C 0.25888 0.67526 0.29356 0.0
C1911 C 0.26917 0.69894 0.2923 0.0
H1912 H 0.50494 0.68238 0.45003 0.0
H1913 H 0.54141 0.72577 0.51642 0.0
H1914 H 0.50922 0.64657 0.46807 0.0
H1915 H 0.54561 0.69008 0.53455 0.0
H1916 H 0.57071 0.62225 0.54724 0.0
H1917 H 0.56419 0.6577 0.53044 0.0
H1918 H 0.50003 0.6221 0.4997 0.0
H1919 H 0.50663 0.5863 0.51651 0.0
C1920 C 0.51375 0.68433 0.46857 0.0
C1921 C 0.52285 0.70712 0.48167 0.0
C1922 C 0.51613 0.6637 0.47902 0.0
C1923 C 0.52788 0.66515 0.50286 0.0
C1924 C 0.53671 0.68802 0.51606 0.0
C1925 C 0.53418 0.70862 0.50569 0.0
C1926 C 0.55513 0.62186 0.53702 0.0
C1927 C 0.53925 0.60113 0.53335 0.0
C1928 C 0.55133 0.64242 0.52743 0.0
C1929 C 0.53153 0.64308 0.51361 0.0
C1930 C 0.51556 0.62238 0.50999 0.0
C1931 C 0.51932 0.60179 0.51981 0.0
H1932 H 0.6661 0.33183 0.68864 0.0
H1933 H 0.63745 0.28352 0.7335 0.0
H1934 H 0.70134 0.33007 0.71016 0.0
H1935 H 0.6727 0.28137 0.75465 0.0
H1936 H 0.741 0.26536 0.76856 0.0
H1937 H 0.70618 0.26634 0.74504 0.0
H1938 H 0.72278 0.34274 0.75385 0.0
H1939 H 0.75726 0.34175 0.77775 0.0
C1940 C 0.6673 0.32082 0.70308 0.0
C1941 C 0.64885 0.30792 0.70938 0.0
C1942 C 0.68753 0.31982 0.71545 0.0
C1943 C 0.68995 0.3055 0.73413 0.0
C1944 C 0.6715 0.29241 0.74024 0.0
C1945 C 0.65125 0.29379 0.72822 0.0
C1946 C 0.73728 0.28233 0.76524 0.0
C1947 C 0.75196 0.30348 0.77503 0.0
C1948 C 0.71725 0.28292 0.75193 0.0
C1949 C 0.71156 0.30464 0.74757 0.0
C1950 C 0.72658 0.32569 0.75668 0.0
C1951 C 0.74637 0.32513 0.77042 0.0
H1952 H 1.01144 0.35395 0.95287 0.0
H1953 H 0.04869 0.33893 0.01803 0.0
H1954 H 1.01545 0.39509 0.97205 0.0
H1955 H 0.05298 0.38041 0.0372 0.0
H1956 H 0.07627 0.4635 0.04627 0.0
H1957 H 0.07111 0.4213 0.03024 0.0
H1958 H 1.00443 0.41898 1.00755 0.0
H1959 H 1.0095 0.46119 0.02382 0.0
C1960 C 0.0205 0.35942 0.97133 0.0
C1961 C 0.02976 0.34307 0.98388 0.0
C1962 C 0.02268 0.38303 0.9824 0.0
C1963 C 0.0345 0.39115 1.00622 0.0
C1964 C 0.04386 0.37482 0.01879 0.0
C1965 C 0.04134 0.35102 1.00785 0.0
C1966 C 0.06045 0.454 0.03805 0.0
C1967 C 0.04331 0.46591 0.03636 0.0
C1968 C 0.05749 0.42971 0.02896 0.0
C1969 C 0.03737 0.41667 0.01749 0.0
C1970 C 0.02018 0.42848 0.01607 0.0
C1971 C 0.02307 0.45269 0.02556 0.0
H1972 H 1.01323 0.7808 0.17057 0.0
H1973 H 0.04979 0.82287 0.23767 0.0
H1974 H 0.98137 0.7773 0.18948 0.0
H1975 H 0.01789 0.8202 0.25639 0.0
H1976 H 0.96167 0.79304 0.29257 0.0
H1977 H 0.99316 0.79547 0.27334 0.0
H1978 H 0.95526 0.79669 0.20281 0.0
H1979 H 0.92361 0.79374 0.22214 0.0
C1980 C 1.01446 0.78942 0.18936 0.0
C1981 C 0.03417 0.80205 0.20258 0.0
C1982 C 0.99608 0.78758 0.20022 0.0
C1983 C 0.99677 0.79844 0.22463 0.0
C1984 C 0.01656 0.81116 0.23777 0.0
C1985 C 0.03495 0.81285 0.22695 0.0
C1986 C 0.96002 0.79399 0.27297 0.0
C1987 C 0.93996 0.79333 0.25903 0.0
C1988 C 0.9782 0.79546 0.26187 0.0
C1989 C 0.97708 0.79647 0.23638 0.0
C1990 C 0.95694 0.79562 0.22238 0.0
C1991 C 0.93869 0.79398 0.2335 0.0
H1992 H 0.52914 0.3023 0.17203 0.0
H1993 H 0.59588 0.32968 0.1985 0.0
H1994 H 0.52849 0.333 0.14546 0.0
H1995 H 0.59534 0.36001 0.17161 0.0
H1996 H 0.58003 0.42567 0.13983 0.0
H1997 H 0.58074 0.39562 0.16706 0.0
H1998 H 0.54262 0.3428 0.10824 0.0
H1999 H 0.54126 0.37308 0.08127 0.0
C2000 C 0.54364 0.31494 0.17222 0.0
C2001 C 0.56255 0.31369 0.18731 0.0
C2002 C 0.5433 0.33235 0.15688 0.0
C2003 C 0.56189 0.34878 0.15639 0.0
C2004 C 0.58073 0.34772 0.17179 0.0
C2005 C 0.58106 0.33033 0.18713 0.0
C2006 C 0.57171 0.40766 0.13279 0.0
C2007 C 0.56049 0.4017 0.10851 0.0
C2008 C 0.57228 0.39043 0.14828 0.0
C2009 C 0.56165 0.36692 0.13978 0.0
C2010 C 0.55071 0.36087 0.11537 0.0
C2011 C 0.55015 0.37811 0.09986 0.0
H2012 H 0.98715 0.34399 0.34211 0.0
H2013 H 0.9769 0.27497 0.36569 0.0
H2014 H 0.94908 0.33929 0.32827 0.0
H2015 H 0.93887 0.27046 0.35228 0.0
H2016 H 0.87393 0.26198 0.30386 0.0
H2017 H 0.91206 0.26564 0.3151 0.0
H2018 H 0.91762 0.33842 0.34822 0.0
H2019 H 0.87956 0.33498 0.33663 0.0
C2020 C 0.97677 0.32776 0.34418 0.0
C2021 C 0.98494 0.30986 0.35501 0.0
C2022 C 0.95499 0.32515 0.33644 0.0
C2023 C 0.941 0.30458 0.33937 0.0
C2024 C 0.94927 0.28642 0.3496 0.0
C2025 C 0.97103 0.28904 0.35736 0.0
C2026 C 0.88324 0.27874 0.31362 0.0
C2027 C 0.87368 0.29819 0.31935 0.0
C2028 C 0.90509 0.2808 0.3201 0.0
C2029 C 0.91782 0.30235 0.33242 0.0
C2030 C 0.90825 0.32171 0.33836 0.0
C2031 C 0.88641 0.31966 0.3319 0.0
H2032 H 0.08538 0.72421 0.64507 0.0
H2033 H 0.05963 0.67433 0.69042 0.0
H2034 H 0.08754 0.69136 0.61412 0.0
H2035 H 0.0612 0.64154 0.65925 0.0
H2036 H 0.08116 0.58639 0.61136 0.0
H2037 H 0.08642 0.62193 0.64162 0.0
H2038 H 0.06431 0.66035 0.58403 0.0
H2039 H 0.05985 0.62489 0.55356 0.0
C2040 C 0.08007 0.70621 0.64834 0.0
C2041 C 0.07233 0.70176 0.67012 0.0
C2042 C 0.08129 0.68743 0.63061 0.0
C2043 C 0.07473 0.66386 0.63432 0.0
C2044 C 0.06684 0.65949 0.65608 0.0
C2045 C 0.06573 0.67825 0.67383 0.0
C2046 C 0.07804 0.60263 0.60507 0.0
C2047 C 0.06996 0.6029 0.58021 0.0
C2048 C 0.08079 0.6229 0.62244 0.0
C2049 C 0.07528 0.64377 0.61531 0.0
C2050 C 0.06871 0.64454 0.5901 0.0
C2051 C 0.06615 0.62425 0.57264 0.0
H2052 H 0.61261 0.84107 0.86438 0.0
H2053 H 0.56302 0.79457 0.81094 0.0
H2054 H 0.63896 0.83013 0.8406 0.0
H2055 H 0.58934 0.78416 0.78656 0.0
H2056 H 0.68397 0.81329 0.79277 0.0
H2057 H 0.65452 0.83028 0.80414 0.0
H2058 H 0.61525 0.76003 0.79248 0.0
H2059 H 0.64431 0.74321 0.77967 0.0
C2060 C 0.60731 0.82897 0.84719 0.0
C2061 C 0.58583 0.81841 0.83968 0.0
C2062 C 0.6224 0.8228 0.83342 0.0
C2063 C 0.61629 0.80607 0.81174 0.0
C2064 C 0.59461 0.79675 0.8034 0.0
C2065 C 0.57953 0.8028 0.81729 0.0
C2066 C 0.66884 0.80153 0.79174 0.0
C2067 C 0.66658 0.77681 0.78559 0.0
C2068 C 0.65202 0.81127 0.79861 0.0
C2069 C 0.63263 0.79651 0.79969 0.0
C2070 C 0.62991 0.77199 0.79178 0.0
C2071 C 0.64667 0.76227 0.78472 0.0
H2072 H 0.50523 0.55347 0.7417 0.0
H2073 H 0.46177 0.4924 0.69889 0.0
H2074 H 0.52074 0.5613 0.70521 0.0
H2075 H 0.47655 0.50073 0.66207 0.0
H2076 H 0.52236 0.50787 0.60663 0.0
H2077 H 0.50569 0.49985 0.64215 0.0
H2078 H 0.51536 0.57525 0.66714 0.0
H2079 H 0.53289 0.58311 0.6319 0.0
C2080 C 0.49898 0.54171 0.72445 0.0
C2081 C 0.48235 0.52223 0.72326 0.0
C2082 C 0.50771 0.54636 0.70337 0.0
C2083 C 0.49989 0.5318 0.68041 0.0
C2084 C 0.48329 0.5122 0.67936 0.0
C2085 C 0.47473 0.50742 0.70051 0.0
C2086 C 0.52065 0.52277 0.61952 0.0
C2087 C 0.52894 0.54615 0.61642 0.0
C2088 C 0.51103 0.51816 0.63997 0.0
C2089 C 0.5092 0.53684 0.65784 0.0
C2090 C 0.51684 0.56032 0.65418 0.0
C2091 C 0.52669 0.5649 0.63381 0.0
H2092 H 0.80358 0.17367 1.00905 0.0
H2093 H 0.80172 0.2238 0.07276 0.0
H2094 H 0.78435 0.19591 0.98249 0.0
H2095 H 0.78224 0.24631 0.04593 0.0
H2096 H 0.79138 0.29319 0.98085 0.0
H2097 H 0.79537 0.27042 0.01473 0.0
H2098 H 0.75136 0.21037 0.97062 0.0
H2099 H 0.74733 0.23326 0.93652 0.0
C2100 C 0.7987 0.18926 0.01741 0.0
C2101 C 0.80438 0.19725 0.04286 0.0
C2102 C 0.78743 0.20186 1.00223 0.0
C2103 C 0.78174 0.22284 0.01215 0.0
C2104 C 0.78647 0.2302 0.03783 0.0
C2105 C 0.7976 0.21738 0.05313 0.0
C2106 C 0.78184 0.27549 0.9787 0.0
C2107 C 0.76941 0.2648 0.95585 0.0
C2108 C 0.78412 0.26242 0.99819 0.0
C2109 C 0.77401 0.23846 0.99511 0.0
C2110 C 0.75964 0.22868 0.97328 0.0
C2111 C 0.75738 0.24175 0.95379 0.0
H2112 H 0.16433 0.51024 0.22392 0.0
H2113 H 0.11646 0.53254 0.26201 0.0
H2114 H 0.14342 0.51335 0.18418 0.0
H2115 H 0.09575 0.53612 0.22267 0.0
H2116 H 0.05138 0.52362 0.14858 0.0
H2117 H 0.0733 0.52021 0.18672 0.0
H2118 H 0.12886 0.53312 0.15241 0.0
H2119 H 0.10624 0.53614 0.11342 0.0
C2120 C 0.14931 0.5158 0.22401 0.0
C2121 C 0.14237 0.52087 0.24692 0.0
C2122 C 0.13717 0.51779 0.20085 0.0
C2123 C 0.11726 0.5249 0.19909 0.0
C2124 C 0.1105 0.53008 0.22217 0.0
C2125 C 0.12263 0.52814 0.24525 0.0
C2126 C 0.06829 0.5258 0.14883 0.0
C2127 C 0.07658 0.53026 0.12713 0.0
C2128 C 0.08119 0.52402 0.17131 0.0
C2129 C 0.10349 0.52661 0.17389 0.0
C2130 C 0.11194 0.53082 0.152 0.0
C2131 C 0.09885 0.53267 0.12926 0.0
H2132 H 0.85093 0.89855 0.49959 0.0
H2133 H 0.80583 0.84207 0.51818 0.0
H2134 H 0.84646 0.87743 0.45774 0.0
H2135 H 0.80132 0.82079 0.47605 0.0
H2136 H 0.78182 0.80669 0.3896 0.0
H2137 H 0.78649 0.82493 0.43276 0.0
H2138 H 0.8542 0.84137 0.43538 0.0
H2139 H 0.84961 0.82328 0.39234 0.0
C2140 C 0.84011 0.88154 0.49477 0.0
C2141 C 0.82876 0.87201 0.51228 0.0
C2142 C 0.83763 0.86935 0.47077 0.0
C2143 C 0.82357 0.84734 0.46346 0.0
C2144 C 0.81217 0.83776 0.48098 0.0
C2145 C 0.81484 0.84989 0.50516 0.0
C2146 C 0.79773 0.81404 0.3994 0.0
C2147 C 0.81532 0.81355 0.38733 0.0
C2148 C 0.80041 0.82441 0.42423 0.0
C2149 C 0.82072 0.83478 0.43756 0.0
C2150 C 0.8383 0.83385 0.42562 0.0
C2151 C 0.83566 0.82331 0.40091 0.0
H2152 H 0.45713 0.49909 0.86816 0.0
H2153 H 0.51265 0.54054 0.84864 0.0
H2154 H 0.47459 0.50518 0.91112 0.0
H2155 H 0.53017 0.54685 0.89199 0.0
H2156 H 0.54009 0.57389 0.97829 0.0
H2157 H 0.52488 0.56812 0.93422 0.0
H2158 H 0.50585 0.49301 0.93532 0.0
H2159 H 0.52101 0.4986 0.97896 0.0
C2160 C 0.47313 0.50942 0.87304 0.0
C2161 C 0.48354 0.51924 0.85497 0.0
C2162 C 0.48315 0.51287 0.89766 0.0
C2163 C 0.50376 0.5265 0.90496 0.0
C2164 C 0.51423 0.53639 0.88693 0.0
C2165 C 0.50428 0.53262 0.86212 0.0
C2166 C 0.53274 0.55615 0.96908 0.0
C2167 C 0.53176 0.53673 0.98221 0.0
C2168 C 0.52415 0.55283 0.94382 0.0
C2169 C 0.51411 0.53011 0.93133 0.0
C2170 C 0.5133 0.51076 0.94446 0.0
C2171 C 0.5221 0.51399 0.9695 0.0
H2172 H 0.86008 0.18187 0.17261 0.0
H2173 H 0.87463 0.24105 0.13299 0.0
H2174 H 0.85515 0.20896 0.20764 0.0
H2175 H 0.87001 0.26815 0.16839 0.0
H2176 H 0.86592 0.30762 0.24744 0.0
H2177 H 0.88167 0.28251 0.21926 0.0
H2178 H 0.82214 0.23241 0.20029 0.0
H2179 H 0.80613 0.25806 0.22709 0.0
C2180 C 0.86303 0.20074 0.17172 0.0
C2181 C 0.86732 0.20933 0.14989 0.0
C2182 C 0.86015 0.21618 0.19175 0.0
C2183 C 0.8619 0.24045 0.19038 0.0
C2184 C 0.86861 0.24944 0.16976 0.0
C2185 C 0.87122 0.23394 0.14954 0.0
C2186 C 0.85624 0.29126 0.23713 0.0
C2187 C 0.83493 0.28441 0.23973 0.0
C2188 C 0.86528 0.27692 0.22124 0.0
C2189 C 0.8532 0.25539 0.20817 0.0
C2190 C 0.8319 0.24866 0.21074 0.0
C2191 C 0.82278 0.26322 0.22611 0.0
H2192 H 0.1752 0.542 0.41157 0.0
H2193 H 0.11657 0.50834 0.36431 0.0
H2194 H 0.15662 0.54527 0.447 0.0
H2195 H 0.09787 0.51132 0.39962 0.0
H2196 H 0.06289 0.53242 0.46417 0.0
H2197 H 0.08176 0.5293 0.42917 0.0
H2198 H 0.13987 0.53331 0.47929 0.0
H2199 H 0.12082 0.53667 0.51436 0.0
C2200 C 0.15829 0.53514 0.40848 0.0
C2201 C 0.14786 0.52484 0.38418 0.0
C2202 C 0.14737 0.53693 0.42928 0.0
C2203 C 0.1251 0.5287 0.42736 0.0
C2204 C 0.11472 0.51839 0.40294 0.0
C2205 C 0.12569 0.51648 0.38219 0.0
C2206 C 0.07973 0.5327 0.46804 0.0
C2207 C 0.08982 0.53495 0.49302 0.0
C2208 C 0.09082 0.5307 0.44746 0.0
C2209 C 0.11297 0.53089 0.45019 0.0
C2210 C 0.1231 0.53324 0.4753 0.0
C2211 C 0.11193 0.5351 0.49592 0.0
H2212 H 0.80618 0.89722 0.65799 0.0
H2213 H 0.85145 0.85427 0.64091 0.0
H2214 H 0.79921 0.87565 0.6923 0.0
H2215 H 0.8448 0.83299 0.67581 0.0
H2216 H 0.8378 0.81723 0.75777 0.0
H2217 H 0.84794 0.84097 0.72557 0.0
H2218 H 0.78207 0.8316 0.69323 0.0
H2219 H 0.77212 0.80768 0.7247 0.0
C2220 C 0.81484 0.88334 0.6617 0.0
C2221 C 0.82933 0.87747 0.64654 0.0
C2222 C 0.8108 0.87093 0.68139 0.0
C2223 C 0.82144 0.85256 0.68689 0.0
C2224 C 0.83644 0.84714 0.67223 0.0
C2225 C 0.84017 0.85926 0.65215 0.0
C2226 C 0.82554 0.82047 0.7439 0.0
C2227 C 0.80413 0.8107 0.74393 0.0
C2228 C 0.83134 0.83388 0.72534 0.0
C2229 C 0.8158 0.8383 0.70682 0.0
C2230 C 0.79444 0.82877 0.70725 0.0
C2231 C 0.78874 0.81498 0.7253 0.0
H2232 H 0.70116 0.41334 0.52909 0.0
H2233 H 0.75421 0.43693 0.58888 0.0
H2234 H 0.67929 0.43379 0.55282 0.0
H2235 H 0.73222 0.45741 0.61275 0.0
H2236 H 0.69664 0.52322 0.61103 0.0
H2237 H 0.71845 0.49377 0.60403 0.0
H2238 H 0.66263 0.4379 0.59054 0.0
H2239 H 0.64081 0.46747 0.59751 0.0
C2240 C 0.70799 0.42247 0.54752 0.0
C2241 C 0.72941 0.4239 0.55699 0.0
C2242 C 0.69542 0.43399 0.56124 0.0
C2243 C 0.70411 0.44725 0.58462 0.0
C2244 C 0.7252 0.44742 0.59473 0.0
C2245 C 0.73774 0.43572 0.58106 0.0
C2246 C 0.68918 0.50459 0.60759 0.0
C2247 C 0.66708 0.49757 0.60422 0.0
C2248 C 0.70165 0.48769 0.60361 0.0
C2249 C 0.69212 0.46361 0.59624 0.0
C2250 C 0.67028 0.4564 0.59576 0.0
C2251 C 0.65784 0.47328 0.59974 0.0
H2252 H 0.19712 0.15819 0.52828 0.0
H2253 H 0.22442 0.09909 0.54827 0.0
H2254 H 0.16233 0.13754 0.53406 0.0
H2255 H 0.18972 0.07828 0.55365 0.0
H2256 H 0.1308 0.05741 0.58749 0.0
H2257 H 0.16471 0.07938 0.58113 0.0
H2258 H 0.13292 0.10446 0.51837 0.0
H2259 H 0.0989 0.08221 0.52489 0.0
C2260 C 0.19568 0.14069 0.53369 0.0
C2261 C 0.21368 0.13037 0.53784 0.0
C2262 C 0.17566 0.12876 0.53693 0.0
C2263 C 0.17302 0.1062 0.54456 0.0
C2264 C 0.19102 0.09577 0.54825 0.0
C2265 C 0.21099 0.10765 0.54495 0.0
C2266 C 0.13101 0.06777 0.57244 0.0
C2267 C 0.11203 0.0683 0.55692 0.0
C2268 C 0.15054 0.08026 0.56863 0.0
C2269 C 0.15182 0.09368 0.54906 0.0
C2270 C 0.1327 0.09461 0.5338 0.0
C2271 C 0.11309 0.08199 0.53762 0.0
H2272 H 0.16712 0.99638 0.83691 0.0
H2273 H 0.21548 0.04543 0.81289 0.0
H2274 H 0.18777 0.96515 0.83157 0.0
H2275 H 0.23599 1.01442 0.80766 0.0
H2276 H 0.27777 0.96287 0.82789 0.0
H2277 H 0.25562 0.99169 0.83601 0.0
H2278 H 0.20049 0.94152 0.79622 0.0
H2279 H 0.22277 0.91263 0.78764 0.0
C2280 C 0.18212 1.00046 0.83048 0.0
C2281 C 0.18973 0.02333 0.82536 0.0
C2282 C 0.19387 0.9826 0.82736 0.0
C2283 C 0.21353 0.98745 0.8194 0.0
C2284 C 0.22102 1.01028 0.81417 0.0
C2285 C 0.20922 0.028 0.81702 0.0
C2286 C 0.26093 0.95795 0.82083 0.0
C2287 C 0.25208 0.9356 0.80676 0.0
C2288 C 0.24826 0.97444 0.82553 0.0
C2289 C 0.22641 0.96894 0.81645 0.0
C2290 C 0.2173 0.94618 0.80349 0.0
C2291 C 0.23004 0.92966 0.79863 0.0
H2292 H 0.3046 0.94596 0.02588 0.0
H2293 H 0.33462 0.88786 0.04355 0.0
H2294 H 0.3392 0.97095 0.0273 0.0
H2295 H 0.36936 0.91304 0.04524 0.0
H2296 H 0.42028 0.95229 1.00635 0.0
H2297 H 0.38686 0.92903 0.01214 0.0
H2298 H 0.37344 0.99074 0.05428 0.0
H2299 H 0.40692 1.01432 0.04796 0.0
C2300 C 0.31863 0.93866 0.03046 0.0
C2301 C 0.31696 0.9149 0.03436 0.0
C2302 C 0.33844 0.95303 0.03143 0.0
C2303 C 0.35693 0.94387 0.03618 0.0
C2304 C 0.3553 0.92044 0.04121 0.0
C2305 C 0.33547 0.90608 0.04037 0.0
C2306 C 0.41014 0.96096 0.01669 0.0
C2307 C 0.41606 0.98518 0.02646 0.0
C2308 C 0.39115 0.94755 0.02033 0.0
C2309 C 0.37764 0.95804 0.03381 0.0
C2310 C 0.38358 0.98224 0.04376 0.0
C2311 C 0.40271 0.99568 0.04023 0.0
H2312 H 0.86041 0.60199 0.79177 0.0
H2313 H 0.92043 0.64988 0.8016 0.0
H2314 H 0.84232 0.63558 0.79323 0.0
H2315 H 0.90254 0.68368 0.80271 0.0
H2316 H 0.86783 0.74761 0.81315 0.0
H2317 H 0.88609 0.71412 0.81184 0.0
H2318 H 0.82616 0.66601 0.78632 0.0
H2319 H 0.80813 0.69956 0.78807 0.0
C2320 C 0.87001 0.61967 0.79418 0.0
C2321 C 0.89242 0.62219 0.79652 0.0
C2322 C 0.85937 0.63957 0.79495 0.0
C2323 C 0.8702 0.66381 0.79811 0.0
C2324 C 0.89271 0.66619 0.80044 0.0
C2325 C 0.90333 0.64626 0.79969 0.0
C2326 C 0.85833 0.72995 0.80718 0.0
C2327 C 0.83593 0.72735 0.80074 0.0
C2328 C 0.86907 0.71011 0.80632 0.0
C2329 C 0.85837 0.68589 0.79895 0.0
C2330 C 0.83591 0.68347 0.79243 0.0
C2331 C 0.8252 0.7033 0.7933 0.0
H2332 H 0.81245 0.60482 0.02045 0.0
H2333 H 0.85171 0.67326 0.05071 0.0
H2334 H 0.84384 0.58694 0.02336 0.0
H2335 H 0.88317 0.65558 0.05315 0.0
H2336 H 0.93233 0.61202 0.0794 0.0
H2337 H 0.90134 0.63034 0.07541 0.0
H2338 H 0.87532 0.58383 1.00668 0.0
H2339 H 0.90633 0.56545 1.01072 0.0
C2340 C 0.8278 0.61611 0.02756 0.0
C2341 C 0.82948 0.64051 0.03537 0.0
C2342 C 0.8459 0.60586 0.02912 0.0
C2343 C 0.86625 0.6197 0.03854 0.0
C2344 C 0.86786 0.64418 0.04615 0.0
C2345 C 0.84977 0.6544 0.04459 0.0
C2346 C 0.92018 0.60586 0.06323 0.0
C2347 C 0.92203 0.58715 0.04541 0.0
C2348 C 0.90228 0.61641 0.06094 0.0
C2349 C 0.8856 0.60866 0.04072 0.0
C2350 C 0.88755 0.5901 0.02276 0.0
C2351 C 0.90545 0.57952 0.02507 0.0
H2352 H 0.22824 0.12625 0.85876 0.0
H2353 H 0.17936 0.16304 0.83214 0.0
H2354 H 0.25529 0.1604 0.85603 0.0
H2355 H 0.20648 0.19744 0.8297 0.0
H2356 H 0.29896 0.23312 0.86504 0.0
H2357 H 0.27097 0.20191 0.87279 0.0
H2358 H 0.23313 0.20609 0.80317 0.0
H2359 H 0.26111 0.23695 0.79545 0.0
C2360 C 0.22325 0.1418 0.85269 0.0
C2361 C 0.20164 0.14189 0.84557 0.0
C2362 C 0.23878 0.16144 0.85123 0.0
C2363 C 0.23309 0.18164 0.8425 0.0
C2364 C 0.21142 0.18204 0.83618 0.0
C2365 C 0.19587 0.1624 0.83774 0.0
C2366 C 0.2846 0.22738 0.85149 0.0
C2367 C 0.28209 0.23766 0.82979 0.0
C2368 C 0.26859 0.2095 0.85588 0.0
C2369 C 0.24971 0.20157 0.83867 0.0
C2370 C 0.24723 0.21207 0.81706 0.0
C2371 C 0.26327 0.22979 0.81263 0.0
H2372 H 0.36946 0.9956 0.31929 0.0
H2373 H 0.41025 0.96823 0.27333 0.0
H2374 H 0.35144 0.955 0.32102 0.0
H2375 H 0.39232 0.9276 0.27496 0.0
H2376 H 0.34483 0.85511 0.26523 0.0
H2377 H 0.36248 0.89572 0.26305 0.0
H2378 H 0.35142 0.9183 0.33633 0.0
H2379 H 0.3338 0.87773 0.33842 0.0
C2380 C 0.37466 0.981 0.30941 0.0
C2381 C 0.39157 0.98589 0.29608 0.0
C2382 C 0.36428 0.95733 0.31054 0.0
C2383 C 0.37003 0.93708 0.29818 0.0
C2384 C 0.38685 0.94209 0.28465 0.0
C2385 C 0.39738 0.96575 0.28377 0.0
C2386 C 0.34609 0.86862 0.28099 0.0
C2387 C 0.33756 0.86236 0.30204 0.0
C2388 C 0.35648 0.89228 0.2798 0.0
C2389 C 0.35877 0.91123 0.29947 0.0
C2390 C 0.35009 0.90492 0.32045 0.0
C2391 C 0.33993 0.88122 0.32175 0.0
H2392 H 0.59745 0.39353 0.66681 0.0
H2393 H 0.56986 0.34828 0.59786 0.0
H2394 H 0.59309 0.42847 0.64732 0.0
H2395 H 0.56568 0.3832 0.57822 0.0
H2396 H 0.53814 0.44864 0.55987 0.0
H2397 H 0.54487 0.41357 0.57743 0.0
H2398 H 0.60489 0.45349 0.61789 0.0
H2399 H 0.598 0.4888 0.60053 0.0
C2400 C 0.59058 0.39101 0.64742 0.0
C2401 C 0.58397 0.36795 0.634 0.0
C2402 C 0.58818 0.41114 0.63614 0.0
C2403 C 0.57896 0.40891 0.61106 0.0
C2404 C 0.57259 0.3858 0.5976 0.0
C2405 C 0.5751 0.36568 0.60885 0.0
C2406 C 0.5529 0.45001 0.57232 0.0
C2407 C 0.56747 0.47181 0.57867 0.0
C2408 C 0.55682 0.42972 0.58239 0.0
C2409 C 0.57542 0.43045 0.59929 0.0
C2410 C 0.59023 0.45214 0.60526 0.0
C2411 C 0.58635 0.47245 0.59508 0.0
H2412 H 0.46631 0.75385 0.37229 0.0
H2413 H 0.4485 0.78542 0.43879 0.0
H2414 H 0.43289 0.75771 0.34859 0.0
H2415 H 0.4152 0.79023 0.41491 0.0
H2416 H 0.34825 0.77744 0.36488 0.0
H2417 H 0.38069 0.77333 0.39165 0.0
H2418 H 0.41602 0.78576 0.33245 0.0
H2419 H 0.38389 0.78885 0.30601 0.0
C2420 C 0.45526 0.7617 0.38188 0.0
C2421 C 0.46025 0.76937 0.40749 0.0
C2422 C 0.43604 0.76417 0.36821 0.0
C2423 C 0.42117 0.77473 0.37955 0.0
C2424 C 0.42599 0.78191 0.40535 0.0
C2425 C 0.44521 0.77923 0.4191 0.0
C2426 C 0.36305 0.77959 0.35784 0.0
C2427 C 0.36341 0.78341 0.33325 0.0
C2428 C 0.38172 0.77718 0.37315 0.0
C2429 C 0.4012 0.77866 0.36424 0.0
C2430 C 0.40145 0.78362 0.33997 0.0
C2431 C 0.38293 0.78573 0.32478 0.0
H2432 H 0.09967 0.72748 0.16216 0.0
H2433 H 0.06039 0.74284 0.09873 0.0
H2434 H 0.09506 0.68638 0.14262 0.0
H2435 H 0.05553 0.7014 0.07919 0.0
H2436 H 0.03237 0.61831 0.06986 0.0
H2437 H 0.03788 0.66049 0.08622 0.0
H2438 H 0.10481 0.66257 0.10645 0.0
H2439 H 0.09938 0.62043 0.08991 0.0
C2440 C 0.09005 0.7221 0.14399 0.0
C2441 C 0.0804 0.73853 0.13204 0.0
C2442 C 0.0875 0.69851 0.13271 0.0
C2443 C 0.07495 0.69049 0.10927 0.0
C2444 C 0.06521 0.70691 0.0973 0.0
C2445 C 0.06807 0.73069 0.10845 0.0
C2446 C 0.04831 0.62776 0.0776 0.0
C2447 C 0.06542 0.6158 0.07854 0.0
C2448 C 0.05148 0.65203 0.08689 0.0
C2449 C 0.07178 0.665 0.09777 0.0
C2450 C 0.08892 0.65313 0.09841 0.0
C2451 C 0.08582 0.62895 0.08877 0.0
H2452 H 0.06032 0.27 0.87708 0.0
H2453 H 0.09855 0.28953 0.94962 0.0
H2454 H 0.09242 0.27324 0.85853 0.0
H2455 H 0.13066 0.29313 0.93115 0.0
H2456 H 0.18445 0.27495 0.8914 0.0
H2457 H 0.15223 0.27064 0.90972 0.0
H2458 H 0.12159 0.30158 0.85073 0.0
H2459 H 0.15346 0.30514 0.83203 0.0
C2460 C 0.07557 0.27508 0.88909 0.0
C2461 C 0.07677 0.27952 0.91487 0.0
C2462 C 0.09406 0.27707 0.87844 0.0
C2463 C 0.11433 0.28348 0.89324 0.0
C2464 C 0.11546 0.28785 0.91907 0.0
C2465 C 0.09697 0.28594 0.9297 0.0
C2466 C 0.1708 0.28067 0.88219 0.0
C2467 C 0.17177 0.29049 0.86018 0.0
C2468 C 0.15232 0.27842 0.89288 0.0
C2469 C 0.13413 0.28578 0.88183 0.0
C2470 C 0.13509 0.29546 0.85975 0.0
C2471 C 0.15357 0.2978 0.84914 0.0
H2472 H 0.52639 0.74125 0.90146 0.0
H2473 H 0.58026 0.78638 0.95006 0.0
H2474 H 0.5281 0.71028 0.92767 0.0
H2475 H 0.58194 0.75545 0.97613 0.0
H2476 H 0.55605 0.70981 0.03232 0.0
H2477 H 0.55705 0.73874 1.00377 0.0
H2478 H 0.55218 0.68284 0.94287 0.0
H2479 H 0.55174 0.65382 0.97148 0.0
C2480 C 0.53876 0.7444 0.91752 0.0
C2481 C 0.5531 0.76624 0.92384 0.0
C2482 C 0.53977 0.72668 0.93244 0.0
C2483 C 0.55502 0.73064 0.95401 0.0
C2484 C 0.56985 0.75212 0.95978 0.0
C2485 C 0.56895 0.76973 0.94478 0.0
C2486 C 0.55549 0.70369 0.01291 0.0
C2487 C 0.55387 0.67952 1.0042 0.0
C2488 C 0.55603 0.72025 0.99657 0.0
C2489 C 0.5548 0.71298 0.97118 0.0
C2490 C 0.553 0.68884 0.96236 0.0
C2491 C 0.55265 0.67226 0.97874 0.0
H2492 H 0.1357 0.7293 0.74748 0.0
H2493 H 0.13724 0.8016 0.77923 0.0
H2494 H 0.174 0.73742 0.75257 0.0
H2495 H 0.17588 0.80955 0.78555 0.0
H2496 H 0.23921 0.82409 0.7575 0.0
H2497 H 0.20137 0.81529 0.75896 0.0
H2498 H 0.20695 0.74619 0.77825 0.0
H2499 H 0.24424 0.75446 0.77548 0.0
C2500 C 0.1443 0.74671 0.7564 0.0
C2501 C 0.13354 0.76491 0.76269 0.0
C2502 C 0.16632 0.75141 0.75934 0.0
C2503 C 0.17803 0.7743 0.76904 0.0
C2504 C 0.16728 0.79193 0.77735 0.0
C2505 C 0.1452 0.7873 0.77408 0.0
C2506 C 0.23224 0.80695 0.76176 0.0
C2507 C 0.2446 0.78985 0.76596 0.0
C2508 C 0.21064 0.80201 0.76298 0.0
C2509 C 0.20112 0.78003 0.76884 0.0
C2510 C 0.21363 0.7631 0.77327 0.0
C2511 C 0.23506 0.76787 0.77163 0.0
H2512 H 0.0563 0.40411 0.4233 0.0
H2513 H 0.02895 0.35188 0.46528 0.0
H2514 H 0.05196 0.43573 0.45418 0.0
H2515 H 0.02417 0.3836 0.49604 0.0
H2516 H 0.0484 0.4498 0.55852 0.0
H2517 H 0.0459 0.41494 0.52783 0.0
H2518 H 0.02457 0.45343 0.46996 0.0
H2519 H 0.02769 0.48836 0.5005 0.0
C2520 C 0.04926 0.3994 0.43909 0.0
C2521 C 0.04301 0.37556 0.44193 0.0
C2522 C 0.04657 0.4175 0.45667 0.0
C2523 C 0.03751 0.41216 0.47744 0.0
C2524 C 0.03128 0.38827 0.4803 0.0
C2525 C 0.03399 0.37014 0.46268 0.0
C2526 C 0.04265 0.45056 0.53932 0.0
C2527 C 0.03848 0.47182 0.53181 0.0
C2528 C 0.04122 0.43061 0.52173 0.0
C2529 C 0.03548 0.43163 0.49642 0.0
C2530 C 0.02956 0.4523 0.48926 0.0
C2531 C 0.03111 0.47222 0.50677 0.0
H2532 H 0.53649 0.30277 0.28462 0.0
H2533 H 0.51551 0.22694 0.27876 0.0
H2534 H 0.50843 0.30923 0.30729 0.0
H2535 H 0.48776 0.23334 0.3028 0.0
H2536 H 0.42297 0.25605 0.30487 0.0
H2537 H 0.45526 0.24521 0.29452 0.0
H2538 H 0.49208 0.30821 0.34193 0.0
H2539 H 0.45957 0.32007 0.35056 0.0
C2540 C 0.52619 0.28744 0.2888 0.0
C2541 C 0.52799 0.26435 0.2796 0.0
C2542 C 0.51013 0.29113 0.30207 0.0
C2543 C 0.4956 0.27182 0.30681 0.0
C2544 C 0.49837 0.24865 0.29907 0.0
C2545 C 0.51434 0.24496 0.28545 0.0
C2546 C 0.43796 0.26761 0.3131 0.0
C2547 C 0.4386 0.28932 0.32791 0.0
C2548 C 0.45659 0.26116 0.30751 0.0
C2549 C 0.47638 0.27606 0.31696 0.0
C2550 C 0.4771 0.29662 0.33372 0.0
C2551 C 0.45842 0.30329 0.33898 0.0
H2552 H 0.63308 0.59466 0.41343 0.0
H2553 H 0.61874 0.5202 0.38348 0.0
H2554 H 0.61597 0.58564 0.44882 0.0
H2555 H 0.60268 0.51103 0.41902 0.0
H2556 H 0.55229 0.50453 0.46716 0.0
H2557 H 0.57186 0.51409 0.43456 0.0
H2558 H 0.61679 0.56805 0.48627 0.0
H2559 H 0.59618 0.55894 0.51904 0.0
C2560 C 0.62634 0.57638 0.41445 0.0
C2561 C 0.62696 0.5582 0.39543 0.0
C2562 C 0.61673 0.57115 0.43488 0.0
C2563 C 0.6077 0.54758 0.43684 0.0
C2564 C 0.6089 0.52945 0.41801 0.0
C2565 C 0.61821 0.5347 0.39755 0.0
C2566 C 0.56648 0.51829 0.47175 0.0
C2567 C 0.57279 0.53081 0.49582 0.0
C2568 C 0.57786 0.52372 0.45297 0.0
C2569 C 0.59613 0.54176 0.45761 0.0
C2570 C 0.60273 0.55414 0.48188 0.0
C2571 C 0.59113 0.54873 0.50081 0.0
H2572 H 0.27391 0.79324 0.03062 0.0
H2573 H 0.22411 0.81495 0.06602 0.0
H2574 H 0.27242 0.75912 0.05268 0.0
H2575 H 0.2236 0.78225 0.08952 0.0
H2576 H 0.22784 0.73163 0.13852 0.0
H2577 H 0.21922 0.74389 0.09817 0.0
H2578 H 0.28584 0.75696 0.09256 0.0
H2579 H 0.29402 0.74378 0.13162 0.0
C2580 C 0.26257 0.79057 0.04307 0.0
C2581 C 0.24948 0.8069 0.04716 0.0
C2582 C 0.2617 0.77108 0.05576 0.0
C2583 C 0.24828 0.76811 0.07347 0.0
C2584 C 0.23404 0.78359 0.07597 0.0
C2585 C 0.23449 0.80264 0.06273 0.0
C2586 C 0.24043 0.73621 0.12804 0.0
C2587 C 0.26163 0.73724 0.13845 0.0
C2588 C 0.23556 0.74345 0.10503 0.0
C2589 C 0.25188 0.75238 0.09242 0.0
C2590 C 0.27272 0.75031 0.10147 0.0
C2591 C 0.27749 0.74269 0.12414 0.0
H2592 H 0.94298 0.5685 0.89016 0.0
H2593 H 0.99274 0.55033 0.85283 0.0
H2594 H 0.96388 0.56579 0.93004 0.0
H2595 H 1.01342 0.54704 0.89224 0.0
H2596 H 0.05697 0.55939 0.96665 0.0
H2597 H 0.03506 0.56263 0.92848 0.0
H2598 H 0.97925 0.54698 0.96189 0.0
H2599 H 1.00183 0.54427 1.001 0.0
C2600 C 0.95842 0.56394 0.89027 0.0
C2601 C 0.96588 0.55992 0.86754 0.0
C2602 C 0.97056 0.56217 0.91351 0.0
C2603 C 0.99099 0.5563 0.91552 0.0
C2604 C 0.99826 0.55214 0.8926 0.0
C2605 C 0.98615 0.55391 0.86945 0.0
C2606 C 0.04001 0.5566 0.9662 0.0
C2607 C 0.03166 0.55147 0.98769 0.0
C2608 C 0.02712 0.55826 0.94369 0.0
C2609 C 1.00474 0.55481 0.94082 0.0
C2610 C 0.99622 0.54995 0.96251 0.0
C2611 C 1.00931 0.54827 0.98533 0.0
H2612 H 0.30145 0.18372 0.62628 0.0
H2613 H 0.26837 0.23598 0.59855 0.0
H2614 H 0.30624 0.20504 0.6682 0.0
H2615 H 0.27306 0.25729 0.64064 0.0
H2616 H 0.26455 0.26988 0.7238 0.0
H2617 H 0.26046 0.25088 0.68097 0.0
H2618 H 0.3259 0.24376 0.69304 0.0
H2619 H 0.33007 0.26279 0.73574 0.0
C2620 C 0.29522 0.19979 0.62912 0.0
C2621 C 0.28454 0.20814 0.60904 0.0
C2622 C 0.29807 0.21209 0.65316 0.0
C2623 C 0.29007 0.23292 0.65781 0.0
C2624 C 0.27929 0.24123 0.63773 0.0
C2625 C 0.2767 0.22909 0.6136 0.0
C2626 C 0.27813 0.26443 0.7173 0.0
C2627 C 0.29764 0.26787 0.73335 0.0
C2628 C 0.27579 0.25362 0.69269 0.0
C2629 C 0.29282 0.24567 0.68358 0.0
C2630 C 0.3124 0.24942 0.69952 0.0
C2631 C 0.31481 0.26049 0.724 0.0
H2632 H 0.64847 0.54207 0.24846 0.0
H2633 H 0.60174 0.58012 0.27201 0.0
H2634 H 0.63034 0.53658 0.20585 0.0
H2635 H 0.58353 0.57468 0.22904 0.0
H2636 H 0.57541 0.58401 0.14505 0.0
H2637 H 0.59076 0.58844 0.18875 0.0
H2638 H 0.59622 0.51483 0.17976 0.0
H2639 H 0.58084 0.51031 0.13608 0.0
C2640 C 0.63428 0.54925 0.24454 0.0
C2641 C 0.62656 0.56157 0.26365 0.0
C2642 C 0.62381 0.54595 0.2201 0.0
C2643 C 0.60544 0.55511 0.21401 0.0
C2644 C 0.59771 0.56752 0.2331 0.0
C2645 C 0.60807 0.57056 0.2577 0.0
C2646 C 0.57976 0.56871 0.1524 0.0
C2647 C 0.57697 0.54683 0.13697 0.0
C2648 C 0.58844 0.57123 0.17751 0.0
C2649 C 0.59479 0.55202 0.18774 0.0
C2650 C 0.59169 0.53005 0.1724 0.0
C2651 C 0.58278 0.52744 0.14737 0.0
H2652 H 0.24828 0.81438 0.94409 0.0
H2653 H 0.26764 0.88855 0.93813 0.0
H2654 H 0.26368 0.80343 0.9078 0.0
H2655 H 0.28324 0.87756 0.90191 0.0
H2656 H 0.29212 0.84352 0.8245 0.0
H2657 H 0.27538 0.85687 0.85878 0.0
H2658 H 0.30125 0.80763 0.90129 0.0
H2659 H 0.31789 0.79408 0.86669 0.0
C2660 C 0.25541 0.82832 0.93469 0.0
C2661 C 0.25694 0.85231 0.94403 0.0
C2662 C 0.26447 0.82206 0.91415 0.0
C2663 C 0.27515 0.83967 0.90252 0.0
C2664 C 0.27521 0.86363 0.91065 0.0
C2665 C 0.26617 0.86991 0.93127 0.0
C2666 C 0.2946 0.83591 0.84136 0.0
C2667 C 0.30625 0.81776 0.843 0.0
C2668 C 0.28495 0.84351 0.86094 0.0
C2669 C 0.28672 0.833 0.88249 0.0
C2670 C 0.29928 0.81566 0.88462 0.0
C2671 C 0.30903 0.80813 0.86502 0.0
H2672 H 0.93298 0.53582 0.70235 0.0
H2673 H 0.99172 0.57043 0.74885 0.0
H2674 H 0.95139 0.53178 0.66684 0.0
H2675 H 1.01026 0.56662 0.71345 0.0
H2676 H 0.04488 0.54382 0.64898 0.0
H2677 H 0.02622 0.54774 0.68411 0.0
H2678 H 0.96796 0.54331 0.63415 0.0
H2679 H 0.9868 0.53923 0.59895 0.0
C2680 C 0.94988 0.54273 0.70526 0.0
C2681 C 0.96039 0.55355 0.72937 0.0
C2682 C 0.9607 0.54048 0.6844 0.0
C2683 C 0.98294 0.54871 0.68608 0.0
C2684 C 0.9934 0.55953 0.71033 0.0
C2685 C 0.98254 0.56192 0.73113 0.0
C2686 C 0.02805 0.54361 0.64517 0.0
C2687 C 0.01785 0.54102 0.62018 0.0
C2688 C 0.01708 0.54608 0.66583 0.0
C2689 C 0.99495 0.54602 0.66319 0.0
C2690 C 0.98472 0.54331 0.63808 0.0
C2691 C 0.99576 0.54101 0.61738 0.0
H2692 H 0.27512 0.23889 0.49317 0.0
H2693 H 0.28485 0.17574 0.45029 0.0
H2694 H 0.27867 0.2603 0.45827 0.0
H2695 H 0.28965 0.19741 0.41561 0.0
H2696 H 0.28328 0.23718 0.34944 0.0
H2697 H 0.27596 0.21491 0.38315 0.0
H2698 H 0.30167 0.27859 0.43578 0.0
H2699 H 0.30775 0.30078 0.40206 0.0
C2700 C 0.27819 0.2296 0.47628 0.0
C2701 C 0.27972 0.20556 0.47464 0.0
C2702 C 0.28043 0.24198 0.45617 0.0
C2703 C 0.28471 0.23091 0.43377 0.0
C2704 C 0.28607 0.20671 0.43217 0.0
C2705 C 0.28346 0.19421 0.45221 0.0
C2706 C 0.2871 0.24641 0.36823 0.0
C2707 C 0.29602 0.27082 0.37296 0.0
C2708 C 0.28311 0.23357 0.38772 0.0
C2709 C 0.28819 0.24468 0.41261 0.0
C2710 C 0.29702 0.26921 0.41711 0.0
C2711 C 0.30069 0.28205 0.39764 0.0
H2712 H 0.3436 0.62523 0.49043 0.0
H2713 H 0.39488 0.67463 0.53875 0.0
H2714 H 0.36767 0.59809 0.48311 0.0
H2715 H 0.41884 0.64773 0.53112 0.0
H2716 H 0.42953 0.57698 0.55707 0.0
H2717 H 0.40902 0.60741 0.55003 0.0
H2718 H 0.40657 0.59084 0.47135 0.0
H2719 H 0.4279 0.56041 0.47843 0.0
C2720 C 0.36021 0.63077 0.49849 0.0
C2721 C 0.36737 0.65164 0.51565 0.0
C2722 C 0.37394 0.61528 0.49426 0.0
C2723 C 0.39484 0.62075 0.50704 0.0
C2724 C 0.40264 0.64311 0.52138 0.0
C2725 C 0.38896 0.65845 0.52574 0.0
C2726 C 0.42475 0.57986 0.53826 0.0
C2727 C 0.43057 0.56665 0.51833 0.0
C2728 C 0.41311 0.5973 0.53425 0.0
C2729 C 0.40684 0.60178 0.51021 0.0
C2730 C 0.41158 0.58781 0.49004 0.0
C2731 C 0.42354 0.57036 0.4941 0.0
H2732 H 0.88458 0.98624 0.57981 0.0
H2733 H 0.91408 0.92701 0.59375 0.0
H2734 H 0.91876 1.00958 0.57625 0.0
H2735 H 0.94858 0.95058 0.59073 0.0
H2736 H 1.00316 0.99303 0.55748 0.0
H2737 H 0.96987 0.96816 0.56265 0.0
H2738 H 0.95182 0.02985 0.59905 0.0
H2739 H 0.98474 0.05438 0.59357 0.0
C2740 C 0.89843 0.97826 0.58242 0.0
C2741 C 0.89648 0.95473 0.58722 0.0
C2742 C 0.91817 0.99173 0.58048 0.0
C2743 C 0.93672 0.98217 0.58329 0.0
C2744 C 0.93476 0.9586 0.58818 0.0
C2745 C 0.91495 0.9451 0.59014 0.0
C2746 C 0.99227 1.00113 0.56697 0.0
C2747 C 0.99682 0.0257 0.57526 0.0
C2748 C 0.97305 0.98689 0.5699 0.0
C2749 C 0.95783 0.99687 0.58114 0.0
C2750 C 0.96274 0.02141 0.58984 0.0
C2751 C 0.98181 0.03554 0.58685 0.0
H2752 H 0.90804 0.05422 0.23548 0.0
H2753 H 0.91899 0.07289 0.31491 0.0
H2754 H 0.88934 0.08693 0.23137 0.0
H2755 H 0.90007 0.10535 0.31082 0.0
H2756 H 0.88313 0.17505 0.29481 0.0
H2757 H 0.90411 0.14405 0.29591 0.0
H2758 H 0.85611 0.09779 0.24033 0.0
H2759 H 0.83546 0.12899 0.23874 0.0
C2760 C 0.90634 0.06523 0.25205 0.0
C2761 C 0.91492 0.06098 0.27552 0.0
C2762 C 0.89562 0.08392 0.2497 0.0
C2763 C 0.89334 0.09879 0.27076 0.0
C2764 C 0.90187 0.09445 0.29423 0.0
C2765 C 0.91253 0.07572 0.29658 0.0
C2766 C 0.8773 0.15844 0.28247 0.0
C2767 C 0.85761 0.15438 0.26679 0.0
C2768 C 0.88917 0.1406 0.28332 0.0
C2769 C 0.88164 0.1184 0.26841 0.0
C2770 C 0.86238 0.11473 0.25197 0.0
C2771 C 0.85048 0.13252 0.25119 0.0
H2772 H 0.78317 0.10072 0.05561 0.0
H2773 H 0.80806 0.10978 0.13363 0.0
H2774 H 0.75157 0.07445 0.06199 0.0
H2775 H 0.77655 0.08283 0.13999 0.0
H2776 H 0.7039 0.07732 0.14106 0.0
H2777 H 0.74101 0.08982 0.13889 0.0
H2778 H 0.73399 0.03802 0.07362 0.0
H2779 H 0.69646 0.0255 0.07574 0.0
C2780 C 0.7821 0.09661 0.07407 0.0
C2781 C 0.79783 0.10763 0.09423 0.0
C2782 C 0.76406 0.08133 0.07768 0.0
C2783 C 0.76146 0.07671 0.10154 0.0
C2784 C 0.77798 0.08635 0.12144 0.0
C2785 C 0.79602 0.10174 0.11783 0.0
C2786 C 0.71037 0.06798 0.12673 0.0
C2787 C 0.6972 0.05062 0.10838 0.0
C2788 C 0.73174 0.07514 0.12551 0.0
C2789 C 0.74041 0.06509 0.10592 0.0
C2790 C 0.72764 0.04637 0.08869 0.0
C2791 C 0.70619 0.03923 0.08989 0.0
H2792 H 0.18789 0.4298 0.31102 0.0
H2793 H 0.24818 0.4777 0.32538 0.0
H2794 H 0.2057 0.39594 0.31038 0.0
H2795 H 0.26621 0.44406 0.3244 0.0
H2796 H 0.29977 0.37979 0.331 0.0
H2797 H 0.28177 0.41338 0.3322 0.0
H2798 H 0.22254 0.3658 0.30123 0.0
H2799 H 0.24073 0.33228 0.30054 0.0
C2800 C 0.20504 0.43341 0.31403 0.0
C2801 C 0.21606 0.45749 0.31831 0.0
C2802 C 0.21561 0.41346 0.31356 0.0
C2803 C 0.23816 0.41584 0.31731 0.0
C2804 C 0.2491 0.44008 0.32157 0.0
C2805 C 0.23851 0.46 0.32206 0.0
C2806 C 0.28286 0.37619 0.32443 0.0
C2807 C 0.27227 0.35228 0.31569 0.0
C2808 C 0.27218 0.39604 0.32498 0.0
C2809 C 0.24993 0.39375 0.31679 0.0
C2810 C 0.23938 0.36967 0.30808 0.0
C2811 C 0.25009 0.34983 0.30755 0.0
H2812 H 0.29767 0.48013 0.09224 0.0
H2813 H 0.25869 0.41023 0.06951 0.0
H2814 H 0.26599 0.4975 0.08815 0.0
H2815 H 0.227 0.42734 0.06625 0.0
H2816 H 0.17554 0.46582 0.03733 0.0
H2817 H 0.20717 0.4489 0.04225 0.0
H2818 H 0.23539 0.50327 0.10448 0.0
H2819 H 0.20417 0.5211 0.09857 0.0
C2820 C 0.28231 0.46843 0.08656 0.0
C2821 C 0.28079 0.44377 0.08111 0.0
C2822 C 0.26405 0.47839 0.08436 0.0
C2823 C 0.24369 0.46395 0.07678 0.0
C2824 C 0.24227 0.43922 0.07167 0.0
C2825 C 0.26051 0.42931 0.07371 0.0
C2826 C 0.18853 0.47441 0.05193 0.0
C2827 C 0.18711 0.49506 0.06741 0.0
C2828 C 0.20669 0.46442 0.05501 0.0
C2829 C 0.22409 0.47457 0.07382 0.0
C2830 C 0.22257 0.49502 0.08955 0.0
C2831 C 0.20441 0.5051 0.08638 0.0
H2832 H 0.92941 0.92425 0.28601 0.0
H2833 H 0.87957 0.96378 0.27313 0.0
H2834 H 0.90301 0.88911 0.28851 0.0
H2835 H 0.85326 0.92875 0.27555 0.0
H2836 H 0.81031 0.85456 0.25956 0.0
H2837 H 0.83721 0.88777 0.25342 0.0
H2838 H 0.8784 0.87762 0.31812 0.0
H2839 H 0.85137 0.84493 0.32453 0.0
C2840 C 0.91282 0.92537 0.2835 0.0
C2841 C 0.90658 0.9468 0.27942 0.0
C2842 C 0.89772 0.9053 0.28506 0.0
C2843 C 0.87603 0.90614 0.28227 0.0
C2844 C 0.86979 0.92743 0.27755 0.0
C2845 C 0.88489 0.94754 0.27629 0.0
C2846 C 0.82516 0.8594 0.27239 0.0
C2847 C 0.82886 0.84693 0.29232 0.0
C2848 C 0.84053 0.87843 0.26891 0.0
C2849 C 0.86001 0.88526 0.28521 0.0
C2850 C 0.86374 0.87256 0.30499 0.0
C2851 C 0.84828 0.85375 0.30861 0.0
H2852 H 0.69735 0.1116 0.84308 0.0
H2853 H 0.74069 0.08346 0.80154 0.0
H2854 H 0.71548 0.1521 0.84112 0.0
H2855 H 0.75891 0.12387 0.79953 0.0
H2856 H 0.77756 0.19982 0.77987 0.0
H2857 H 0.7598 0.15962 0.7828 0.0
H2858 H 0.74468 0.18483 0.85331 0.0
H2859 H 0.76249 0.22522 0.85024 0.0
C2860 C 0.71083 0.11388 0.83356 0.0
C2861 C 0.71726 0.09354 0.82255 0.0
C2862 C 0.72147 0.13748 0.8325 0.0
C2863 C 0.73906 0.14223 0.82007 0.0
C2864 C 0.74546 0.12178 0.80907 0.0
C2865 C 0.73495 0.09819 0.81038 0.0
C2866 C 0.77052 0.19701 0.79613 0.0
C2867 C 0.77183 0.21656 0.81477 0.0
C2868 C 0.76027 0.1735 0.79793 0.0
C2869 C 0.75041 0.16798 0.81838 0.0
C2870 C 0.75163 0.18762 0.837 0.0
C2871 C 0.76212 0.21116 0.83532 0.0
loop_
_geom_bond_atom_site_label_1
_geom_bond_atom_site_label_2
_geom_bond_distance
_geom_bond_site_symmetry_2
_ccdc_geom_bond_type
In0 O1 2.294 . S
In0 O2 2.326 . S
In0 O6 2.266 1_455 S
In0 O7 2.326 1_455 S
In0 O8 2.266 . S
In0 O9 2.326 . S
In0 O11 2.294 . S
In0 O12 2.326 . S
O1 In0 2.294 . S
O1 C10 1.240 . S
O2 In0 2.326 . S
O2 C10 1.252 . S
C3 O6 1.252 . S
C3 O7 1.260 . S
C4 O11 1.240 . S
C4 O12 1.252 . S
C5 O8 1.252 . S
C5 O9 1.260 . S
O6 In0 2.266 1_655 S
O6 C3 1.252 . S
O7 In0 2.326 1_655 S
O7 C3 1.260 . S
O8 In0 2.266 . S
O8 C5 1.252 . S
O9 In0 2.326 . S
O9 C5 1.260 . S
C10 O1 1.240 . S
C10 O2 1.252 . S
O11 In0 2.294 . S
O11 C4 1.240 . S
O12 In0 2.326 . S
O12 C4 1.252 . S
In13 O14 2.294 . S
In13 O15 2.326 . S
In13 O19 2.266 . S
In13 O20 2.326 . S
In13 O21 2.266 . S
In13 O22 2.326 . S
In13 O24 2.294 . S
In13 O25 2.326 . S
O14 In13 2.294 . S
O14 C23 1.240 . S
O15 In13 2.326 . S
O15 C23 1.252 . S
C16 O19 1.252 . S
C16 O20 1.260 . S
C17 O24 1.240 . S
C17 O25 1.252 . S
C18 O21 1.252 . S
C18 O22 1.260 . S
O19 In13 2.266 . S
O19 C16 1.252 . S
O20 In13 2.326 . S
O20 C16 1.260 . S
O21 In13 2.266 . S
O21 C18 1.252 . S
O22 In13 2.326 . S
O22 C18 1.260 . S
C23 O14 1.240 . S
C23 O15 1.252 . S
O24 In13 2.294 . S
O24 C17 1.240 . S
O25 In13 2.326 . S
O25 C17 1.252 . S
In26 O27 2.294 . S
In26 O28 2.326 . S
In26 O32 2.266 . S
In26 O33 2.326 . S
In26 O34 2.266 . S
In26 O35 2.326 . S
In26 O37 2.294 . S
In26 O38 2.326 . S
O27 In26 2.294 . S
O27 C36 1.240 . S
O28 In26 2.326 . S
O28 C36 1.252 . S
C29 O32 1.252 . S
C29 O33 1.260 . S
C30 O37 1.240 . S
C30 O38 1.252 . S
C31 O34 1.252 . S
C31 O35 1.260 . S
O32 In26 2.266 . S
O32 C29 1.252 . S
O33 In26 2.326 . S
O33 C29 1.260 . S
O34 In26 2.266 . S
O34 C31 1.252 . S
O35 In26 2.326 . S
O35 C31 1.260 . S
C36 O27 1.240 . S
C36 O28 1.252 . S
O37 In26 2.294 . S
O37 C30 1.240 . S
O38 In26 2.326 . S
O38 C30 1.252 . S
In39 O40 2.294 . S
In39 O41 2.326 . S
In39 O45 2.266 . S
In39 O46 2.326 . S
In39 O47 2.266 . S
In39 O48 2.326 . S
In39 O50 2.294 . S
In39 O51 2.326 . S
O40 In39 2.294 . S
O40 C49 1.240 . S
O41 In39 2.326 . S
O41 C49 1.252 . S
C42 O45 1.252 . S
C42 O46 1.260 . S
C43 O50 1.240 . S
C43 O51 1.252 . S
C44 O47 1.252 . S
C44 O48 1.260 . S
O45 In39 2.266 . S
O45 C42 1.252 . S
O46 In39 2.326 . S
O46 C42 1.260 . S
O47 In39 2.266 . S
O47 C44 1.252 . S
O48 In39 2.326 . S
O48 C44 1.260 . S
C49 O40 1.240 . S
C49 O41 1.252 . S
O50 In39 2.294 . S
O50 C43 1.240 . S
O51 In39 2.326 . S
O51 C43 1.252 . S
In52 O53 2.294 . S
In52 O54 2.326 . S
In52 O58 2.266 . S
In52 O59 2.326 . S
In52 O60 2.266 . S
In52 O61 2.326 . S
In52 O63 2.294 . S
In52 O64 2.326 . S
O53 In52 2.294 . S
O53 C62 1.240 . S
O54 In52 2.326 . S
O54 C62 1.252 . S
C55 O58 1.252 . S
C55 O59 1.260 . S
C56 O63 1.240 . S
C56 O64 1.252 . S
C57 O60 1.252 . S
C57 O61 1.260 . S
O58 In52 2.266 . S
O58 C55 1.252 . S
O59 In52 2.326 . S
O59 C55 1.260 . S
O60 In52 2.266 . S
O60 C57 1.252 . S
O61 In52 2.326 . S
O61 C57 1.260 . S
C62 O53 1.240 . S
C62 O54 1.252 . S
O63 In52 2.294 . S
O63 C56 1.240 . S
O64 In52 2.326 . S
O64 C56 1.252 . S
In65 O66 2.294 . S
In65 O67 2.326 . S
In65 O71 2.266 . S
In65 O72 2.326 . S
In65 O73 2.266 . S
In65 O74 2.326 . S
In65 O76 2.294 . S
In65 O77 2.326 . S
O66 In65 2.294 . S
O66 C75 1.240 . S
O67 In65 2.326 . S
O67 C75 1.252 . S
C68 O71 1.252 . S
C68 O72 1.260 . S
C69 O76 1.240 . S
C69 O77 1.252 . S
C70 O73 1.252 . S
C70 O74 1.260 . S
O71 In65 2.266 . S
O71 C68 1.252 . S
O72 In65 2.326 . S
O72 C68 1.260 . S
O73 In65 2.266 . S
O73 C70 1.252 . S
O74 In65 2.326 . S
O74 C70 1.260 . S
C75 O66 1.240 . S
C75 O67 1.252 . S
O76 In65 2.294 . S
O76 C69 1.240 . S
O77 In65 2.326 . S
O77 C69 1.252 . S
In78 O79 2.294 . S
In78 O80 2.326 . S
In78 O84 2.266 . S
In78 O85 2.326 . S
In78 O86 2.266 . S
In78 O87 2.326 . S
In78 O89 2.294 . S
In78 O90 2.326 . S
O79 In78 2.294 . S
O79 C88 1.240 . S
O80 In78 2.326 . S
O80 C88 1.252 . S
C81 O84 1.252 . S
C81 O85 1.260 . S
C82 O89 1.240 . S
C82 O90 1.252 . S
C83 O86 1.252 . S
C83 O87 1.260 . S
O84 In78 2.266 . S
O84 C81 1.252 . S
O85 In78 2.326 . S
O85 C81 1.260 . S
O86 In78 2.266 . S
O86 C83 1.252 . S
O87 In78 2.326 . S
O87 C83 1.260 . S
C88 O79 1.240 . S
C88 O80 1.252 . S
O89 In78 2.294 . S
O89 C82 1.240 . S
O90 In78 2.326 . S
O90 C82 1.252 . S
In91 O92 2.294 . S
In91 O93 2.326 . S
In91 O97 2.266 . S
In91 O98 2.326 . S
In91 O99 2.266 1_455 S
In91 O100 2.326 1_455 S
In91 O102 2.294 . S
In91 O103 2.326 . S
O92 In91 2.294 . S
O92 C101 1.240 . S
O93 In91 2.326 . S
O93 C101 1.252 . S
C94 O97 1.252 . S
C94 O98 1.260 . S
C95 O102 1.240 . S
C95 O103 1.252 . S
C96 O99 1.252 . S
C96 O100 1.260 . S
O97 In91 2.266 . S
O97 C94 1.252 . S
O98 In91 2.326 . S
O98 C94 1.260 . S
O99 In91 2.266 1_655 S
O99 C96 1.252 . S
O100 In91 2.326 1_655 S
O100 C96 1.260 . S
C101 O92 1.240 . S
C101 O93 1.252 . S
O102 In91 2.294 . S
O102 C95 1.240 . S
O103 In91 2.326 . S
O103 C95 1.252 . S
In104 O105 2.294 . S
In104 O106 2.326 . S
In104 O110 2.266 . S
In104 O111 2.326 . S
In104 O112 2.266 1_545 S
In104 O113 2.326 1_545 S
In104 O115 2.294 . S
In104 O116 2.326 . S
O105 In104 2.294 . S
O105 C114 1.240 . S
O106 In104 2.326 . S
O106 C114 1.252 . S
C107 O110 1.252 . S
C107 O111 1.260 . S
C108 O115 1.240 . S
C108 O116 1.252 . S
C109 O112 1.252 . S
C109 O113 1.260 . S
O110 In104 2.266 . S
O110 C107 1.252 . S
O111 In104 2.326 . S
O111 C107 1.260 . S
O112 In104 2.266 1_565 S
O112 C109 1.252 . S
O113 In104 2.326 1_565 S
O113 C109 1.260 . S
C114 O105 1.240 . S
C114 O106 1.252 . S
O115 In104 2.294 . S
O115 C108 1.240 . S
O116 In104 2.326 . S
O116 C108 1.252 . S
In117 O118 2.294 . S
In117 O119 2.326 . S
In117 O123 2.266 . S
In117 O124 2.326 . S
In117 O125 2.266 . S
In117 O126 2.326 . S
In117 O128 2.294 . S
In117 O129 2.326 . S
O118 In117 2.294 . S
O118 C127 1.240 . S
O119 In117 2.326 . S
O119 C127 1.252 . S
C120 O123 1.252 . S
C120 O124 1.260 . S
C121 O128 1.240 . S
C121 O129 1.252 . S
C122 O125 1.252 . S
C122 O126 1.260 . S
O123 In117 2.266 . S
O123 C120 1.252 . S
O124 In117 2.326 . S
O124 C120 1.260 . S
O125 In117 2.266 . S
O125 C122 1.252 . S
O126 In117 2.326 . S
O126 C122 1.260 . S
C127 O118 1.240 . S
C127 O119 1.252 . S
O128 In117 2.294 . S
O128 C121 1.240 . S
O129 In117 2.326 . S
O129 C121 1.252 . S
In130 O131 2.294 . S
In130 O132 2.326 . S
In130 O136 2.266 . S
In130 O137 2.326 . S
In130 O138 2.266 . S
In130 O139 2.326 . S
In130 O141 2.294 . S
In130 O142 2.326 . S
O131 In130 2.294 . S
O131 C140 1.240 . S
O132 In130 2.326 . S
O132 C140 1.252 . S
C133 O136 1.252 . S
C133 O137 1.260 . S
C134 O141 1.240 . S
C134 O142 1.252 . S
C135 O138 1.252 . S
C135 O139 1.260 . S
O136 In130 2.266 . S
O136 C133 1.252 . S
O137 In130 2.326 . S
O137 C133 1.260 . S
O138 In130 2.266 . S
O138 C135 1.252 . S
O139 In130 2.326 . S
O139 C135 1.260 . S
C140 O131 1.240 . S
C140 O132 1.252 . S
O141 In130 2.294 . S
O141 C134 1.240 . S
O142 In130 2.326 . S
O142 C134 1.252 . S
In143 O144 2.296 . S
In143 O145 2.329 . S
In143 O149 2.264 1_554 S
In143 O150 2.322 1_554 S
In143 O151 2.267 . S
In143 O152 2.326 . S
In143 O154 2.294 . S
In143 O155 2.326 . S
O144 In143 2.296 . S
O144 C153 1.240 . S
O145 In143 2.329 . S
O145 C153 1.252 . S
C146 O149 1.252 . S
C146 O150 1.260 . S
C147 O154 1.240 . S
C147 O155 1.253 . S
C148 O151 1.252 . S
C148 O152 1.263 . S
O149 In143 2.264 1_556 S
O149 C146 1.252 . S
O150 In143 2.322 1_556 S
O150 C146 1.260 . S
O151 In143 2.267 . S
O151 C148 1.252 . S
O152 In143 2.326 . S
O152 C148 1.263 . S
C153 O144 1.240 . S
C153 O145 1.252 . S
O154 In143 2.294 . S
O154 C147 1.240 . S
O155 In143 2.326 . S
O155 C147 1.253 . S
In156 O157 2.294 . S
In156 O158 2.326 . S
In156 O162 2.266 . S
In156 O163 2.326 . S
In156 O164 2.266 . S
In156 O165 2.326 . S
In156 O167 2.294 . S
In156 O168 2.326 . S
O157 In156 2.294 . S
O157 C166 1.240 . S
O158 In156 2.326 . S
O158 C166 1.252 . S
C159 O162 1.252 . S
C159 O163 1.260 . S
C160 O167 1.240 . S
C160 O168 1.252 . S
C161 O164 1.252 . S
C161 O165 1.260 . S
O162 In156 2.266 . S
O162 C159 1.252 . S
O163 In156 2.326 . S
O163 C159 1.260 . S
O164 In156 2.266 . S
O164 C161 1.252 . S
O165 In156 2.326 . S
O165 C161 1.260 . S
C166 O157 1.240 . S
C166 O158 1.252 . S
O167 In156 2.294 . S
O167 C160 1.240 . S
O168 In156 2.326 . S
O168 C160 1.252 . S
In169 O170 2.294 . S
In169 O171 2.326 . S
In169 O175 2.266 . S
In169 O176 2.326 . S
In169 O177 2.266 . S
In169 O178 2.326 . S
In169 O180 2.294 . S
In169 O181 2.326 . S
O170 In169 2.294 . S
O170 C179 1.240 . S
O171 In169 2.326 . S
O171 C179 1.252 . S
C172 O175 1.252 . S
C172 O176 1.260 . S
C173 O180 1.240 . S
C173 O181 1.252 . S
C174 O177 1.252 . S
C174 O178 1.260 . S
O175 In169 2.266 . S
O175 C172 1.252 . S
O176 In169 2.326 . S
O176 C172 1.260 . S
O177 In169 2.266 . S
O177 C174 1.252 . S
O178 In169 2.326 . S
O178 C174 1.260 . S
C179 O170 1.240 . S
C179 O171 1.252 . S
O180 In169 2.294 . S
O180 C173 1.240 . S
O181 In169 2.326 . S
O181 C173 1.252 . S
In182 O183 2.294 . S
In182 O184 2.326 . S
In182 O188 2.266 . S
In182 O189 2.326 . S
In182 O190 2.266 . S
In182 O191 2.326 . S
In182 O193 2.294 . S
In182 O194 2.326 . S
O183 In182 2.294 . S
O183 C192 1.240 . S
O184 In182 2.326 . S
O184 C192 1.252 . S
C185 O188 1.252 . S
C185 O189 1.260 . S
C186 O193 1.240 . S
C186 O194 1.252 . S
C187 O190 1.252 . S
C187 O191 1.260 . S
O188 In182 2.266 . S
O188 C185 1.252 . S
O189 In182 2.326 . S
O189 C185 1.260 . S
O190 In182 2.266 . S
O190 C187 1.252 . S
O191 In182 2.326 . S
O191 C187 1.260 . S
C192 O183 1.240 . S
C192 O184 1.252 . S
O193 In182 2.294 . S
O193 C186 1.240 . S
O194 In182 2.326 . S
O194 C186 1.252 . S
In195 O196 2.294 . S
In195 O197 2.326 . S
In195 O201 2.266 . S
In195 O202 2.326 . S
In195 O203 2.266 . S
In195 O204 2.326 . S
In195 O206 2.294 . S
In195 O207 2.326 . S
O196 In195 2.294 . S
O196 C205 1.240 . S
O197 In195 2.326 . S
O197 C205 1.252 . S
C198 O201 1.252 . S
C198 O202 1.260 . S
C199 O206 1.240 . S
C199 O207 1.252 . S
C200 O203 1.252 . S
C200 O204 1.260 . S
O201 In195 2.266 . S
O201 C198 1.252 . S
O202 In195 2.326 . S
O202 C198 1.260 . S
O203 In195 2.266 . S
O203 C200 1.252 . S
O204 In195 2.326 . S
O204 C200 1.260 . S
C205 O196 1.240 . S
C205 O197 1.252 . S
O206 In195 2.294 . S
O206 C199 1.240 . S
O207 In195 2.326 . S
O207 C199 1.252 . S
In208 O209 2.294 . S
In208 O210 2.326 . S
In208 O214 2.266 . S
In208 O215 2.326 . S
In208 O216 2.266 1_545 S
In208 O217 2.326 1_545 S
In208 O219 2.294 . S
In208 O220 2.326 . S
O209 In208 2.294 . S
O209 C218 1.240 . S
O210 In208 2.326 . S
O210 C218 1.252 . S
C211 O214 1.252 . S
C211 O215 1.260 . S
C212 O219 1.240 . S
C212 O220 1.252 . S
C213 O216 1.252 . S
C213 O217 1.260 . S
O214 In208 2.266 . S
O214 C211 1.252 . S
O215 In208 2.326 . S
O215 C211 1.260 . S
O216 In208 2.266 1_565 S
O216 C213 1.252 . S
O217 In208 2.326 1_565 S
O217 C213 1.260 . S
C218 O209 1.240 . S
C218 O210 1.252 . S
O219 In208 2.294 . S
O219 C212 1.240 . S
O220 In208 2.326 . S
O220 C212 1.252 . S
In221 O222 2.294 . S
In221 O223 2.326 . S
In221 O227 2.266 . S
In221 O228 2.326 . S
In221 O229 2.266 . S
In221 O230 2.326 . S
In221 O232 2.294 . S
In221 O233 2.326 . S
O222 In221 2.294 . S
O222 C231 1.240 . S
O223 In221 2.326 . S
O223 C231 1.252 . S
C224 O227 1.252 . S
C224 O228 1.260 . S
C225 O232 1.240 . S
C225 O233 1.252 . S
C226 O229 1.252 . S
C226 O230 1.260 . S
O227 In221 2.266 . S
O227 C224 1.252 . S
O228 In221 2.326 . S
O228 C224 1.260 . S
O229 In221 2.266 . S
O229 C226 1.252 . S
O230 In221 2.326 . S
O230 C226 1.260 . S
C231 O222 1.240 . S
C231 O223 1.252 . S
O232 In221 2.294 . S
O232 C225 1.240 . S
O233 In221 2.326 . S
O233 C225 1.252 . S
In234 O235 2.294 . S
In234 O236 2.326 . S
In234 O240 2.266 . S
In234 O241 2.326 . S
In234 O242 2.266 . S
In234 O243 2.326 . S
In234 O245 2.294 . S
In234 O246 2.326 . S
O235 In234 2.294 . S
O235 C244 1.240 . S
O236 In234 2.326 . S
O236 C244 1.252 . S
C237 O240 1.252 . S
C237 O241 1.260 . S
C238 O245 1.240 . S
C238 O246 1.252 . S
C239 O242 1.252 . S
C239 O243 1.260 . S
O240 In234 2.266 . S
O240 C237 1.252 . S
O241 In234 2.326 . S
O241 C237 1.260 . S
O242 In234 2.266 . S
O242 C239 1.252 . S
O243 In234 2.326 . S
O243 C239 1.260 . S
C244 O235 1.240 . S
C244 O236 1.252 . S
O245 In234 2.294 . S
O245 C238 1.240 . S
O246 In234 2.326 . S
O246 C238 1.252 . S
In247 O248 2.294 1_545 S
In247 O249 2.326 1_545 S
In247 O253 2.266 . S
In247 O254 2.326 . S
In247 O255 2.266 . S
In247 O256 2.326 . S
In247 O258 2.294 . S
In247 O259 2.326 . S
O248 In247 2.294 1_565 S
O248 C257 1.240 . S
O249 In247 2.326 1_565 S
O249 C257 1.252 . S
C250 O253 1.252 . S
C250 O254 1.260 . S
C251 O258 1.240 . S
C251 O259 1.252 . S
C252 O255 1.252 . S
C252 O256 1.260 . S
O253 In247 2.266 . S
O253 C250 1.252 . S
O254 In247 2.326 . S
O254 C250 1.260 . S
O255 In247 2.266 . S
O255 C252 1.252 . S
O256 In247 2.326 . S
O256 C252 1.260 . S
C257 O248 1.240 . S
C257 O249 1.252 . S
O258 In247 2.294 . S
O258 C251 1.240 . S
O259 In247 2.326 . S
O259 C251 1.252 . S
In260 O261 2.294 . S
In260 O262 2.326 . S
In260 O266 2.266 . S
In260 O267 2.326 . S
In260 O268 2.266 . S
In260 O269 2.288 1_554 S
In260 O271 2.294 . S
In260 O272 2.326 . S
O261 In260 2.294 . S
O261 C270 1.240 . S
O262 In260 2.326 . S
O262 C270 1.252 . S
C263 O266 1.252 . S
C263 O267 1.260 . S
C264 O271 1.240 . S
C264 O272 1.252 . S
C265 O268 1.252 1_556 S
C265 O269 1.267 . S
O266 In260 2.266 . S
O266 C263 1.252 . S
O267 In260 2.326 . S
O267 C263 1.260 . S
O268 In260 2.266 . S
O268 C265 1.252 1_554 S
O269 In260 2.288 1_556 S
O269 C265 1.267 . S
C270 O261 1.240 . S
C270 O262 1.252 . S
O271 In260 2.294 . S
O271 C264 1.240 . S
O272 In260 2.326 . S
O272 C264 1.252 . S
In273 O274 2.294 . S
In273 O275 2.326 . S
In273 O279 2.266 . S
In273 O280 2.326 . S
In273 O281 2.266 . S
In273 O282 2.326 . S
In273 O284 2.294 . S
In273 O285 2.326 . S
O274 In273 2.294 . S
O274 C283 1.240 . S
O275 In273 2.326 . S
O275 C283 1.252 . S
C276 O279 1.252 . S
C276 O280 1.260 . S
C277 O284 1.240 . S
C277 O285 1.252 . S
C278 O281 1.252 . S
C278 O282 1.260 . S
O279 In273 2.266 . S
O279 C276 1.252 . S
O280 In273 2.326 . S
O280 C276 1.260 . S
O281 In273 2.266 . S
O281 C278 1.252 . S
O282 In273 2.326 . S
O282 C278 1.260 . S
C283 O274 1.240 . S
C283 O275 1.252 . S
O284 In273 2.294 . S
O284 C277 1.240 . S
O285 In273 2.326 . S
O285 C277 1.252 . S
In286 O287 2.294 . S
In286 O288 2.326 . S
In286 O292 2.266 . S
In286 O293 2.326 . S
In286 O294 2.266 . S
In286 O295 2.326 . S
In286 O297 2.294 . S
In286 O298 2.326 . S
O287 In286 2.294 . S
O287 C296 1.240 . S
O288 In286 2.326 . S
O288 C296 1.252 . S
C289 O292 1.252 . S
C289 O293 1.260 . S
C290 O297 1.240 . S
C290 O298 1.252 . S
C291 O294 1.252 . S
C291 O295 1.260 . S
O292 In286 2.266 . S
O292 C289 1.252 . S
O293 In286 2.326 . S
O293 C289 1.260 . S
O294 In286 2.266 . S
O294 C291 1.252 . S
O295 In286 2.326 . S
O295 C291 1.260 . S
C296 O287 1.240 . S
C296 O288 1.252 . S
O297 In286 2.294 . S
O297 C290 1.240 . S
O298 In286 2.326 . S
O298 C290 1.252 . S
In299 O300 2.294 . S
In299 O301 2.326 . S
In299 O305 2.266 . S
In299 O306 2.326 . S
In299 O307 2.266 . S
In299 O308 2.326 . S
In299 O310 2.294 . S
In299 O311 2.326 . S
O300 In299 2.294 . S
O300 C309 1.240 . S
O301 In299 2.326 . S
O301 C309 1.252 . S
C302 O305 1.252 . S
C302 O306 1.260 . S
C303 O310 1.240 . S
C303 O311 1.252 . S
C304 O307 1.252 . S
C304 O308 1.260 . S
O305 In299 2.266 . S
O305 C302 1.252 . S
O306 In299 2.326 . S
O306 C302 1.260 . S
O307 In299 2.266 . S
O307 C304 1.252 . S
O308 In299 2.326 . S
O308 C304 1.260 . S
C309 O300 1.240 . S
C309 O301 1.252 . S
O310 In299 2.294 . S
O310 C303 1.240 . S
O311 In299 2.326 . S
O311 C303 1.252 . S
Tb312 C314 2.809 1_455 S
Tb312 O332 2.521 . S
Tb312 O333 2.440 1_455 S
Tb312 O334 2.658 . S
Tb312 O335 2.409 . S
Tb312 O336 2.378 . S
Tb312 O340 2.325 . S
Tb312 O343 2.341 1_545 S
Tb313 C323 2.809 . S
Tb313 O334 2.325 . S
Tb313 O337 2.341 . S
Tb313 O338 2.484 . S
Tb313 O339 2.440 . S
Tb313 O340 2.658 . S
Tb313 O341 2.409 . S
Tb313 O342 2.378 . S
C314 Tb312 2.809 1_655 S
C314 C315 1.514 . S
C314 O332 1.232 1_655 S
C314 O333 1.266 . S
C315 C314 1.514 . S
C315 C316 1.359 . S
C315 C320 1.348 . S
C316 C315 1.359 . S
C316 C317 1.380 . S
C316 H344 0.929 . S
C317 C316 1.380 . S
C317 C318 1.347 . S
C317 H345 0.931 . S
C318 C317 1.347 . S
C318 C319 1.369 . S
C319 C318 1.369 . S
C319 C320 1.408 . S
C319 H346 0.930 1_554 S
C320 C315 1.348 . S
C320 C319 1.408 . S
C320 H347 0.930 . S
C321 O334 1.281 . S
C321 O335 1.254 . S
C322 O336 1.236 . S
C322 O337 1.266 . S
C323 Tb313 2.809 . S
C323 C324 1.514 . S
C323 O338 1.248 . S
C323 O339 1.266 . S
C324 C323 1.514 . S
C324 C325 1.359 1_545 S
C324 C329 1.348 . S
C325 C324 1.359 1_565 S
C325 C326 1.380 . S
C325 H348 0.929 . S
C326 C325 1.380 . S
C326 C327 1.347 . S
C326 H349 0.931 . S
C327 C326 1.347 . S
C327 C328 1.369 . S
C328 C327 1.369 . S
C328 C329 1.408 1_565 S
C328 H350 0.930 . S
C329 C324 1.348 . S
C329 C328 1.408 1_545 S
C329 H351 0.930 . S
C330 O340 1.281 . S
C330 O341 1.254 . S
C331 O342 1.236 1_565 S
C331 O343 1.266 . S
O332 Tb312 2.521 . S
O332 C314 1.232 1_455 S
O333 Tb312 2.440 1_655 S
O333 C314 1.266 . S
O334 Tb312 2.658 . S
O334 Tb313 2.325 . S
O334 C321 1.281 . S
O335 Tb312 2.409 . S
O335 C321 1.254 . S
O336 Tb312 2.378 . S
O336 C322 1.236 . S
O337 Tb313 2.341 . S
O337 C322 1.266 . S
O338 Tb313 2.484 . S
O338 C323 1.248 . S
O339 Tb313 2.440 . S
O339 C323 1.266 . S
O340 Tb312 2.325 . S
O340 Tb313 2.658 . S
O340 C330 1.281 . S
O341 Tb313 2.409 . S
O341 C330 1.254 . S
O342 Tb313 2.378 . S
O342 C331 1.236 1_545 S
O343 Tb312 2.341 1_565 S
O343 C331 1.266 . S
H344 C316 0.929 . S
H345 C317 0.931 . S
H346 C319 0.930 1_556 S
H347 C320 0.930 . S
H348 C325 0.929 . S
H349 C326 0.931 . S
H350 C328 0.930 . S
H351 C329 0.930 . S
Tb352 C354 2.809 . S
Tb352 O372 2.484 . S
Tb352 O373 2.440 . S
Tb352 O374 2.658 . S
Tb352 O375 2.409 . S
Tb352 O376 2.378 . S
Tb352 O380 2.325 . S
Tb352 O383 2.341 . S
Tb353 C363 2.809 . S
Tb353 O374 2.325 . S
Tb353 O377 2.341 . S
Tb353 O378 2.484 . S
Tb353 O379 2.440 . S
Tb353 O380 2.658 . S
Tb353 O381 2.409 . S
Tb353 O382 2.378 . S
C354 Tb352 2.809 . S
C354 C355 1.514 . S
C354 O372 1.248 . S
C354 O373 1.266 . S
C355 C354 1.514 . S
C355 C356 1.359 . S
C355 C360 1.348 . S
C356 C355 1.359 . S
C356 C357 1.380 . S
C356 H384 0.929 . S
C357 C356 1.380 . S
C357 C358 1.347 . S
C357 H385 0.931 . S
C358 C357 1.347 . S
C358 C359 1.369 . S
C359 C358 1.369 . S
C359 C360 1.408 . S
C359 H386 0.930 . S
C360 C355 1.348 . S
C360 C359 1.408 . S
C360 H387 0.930 . S
C361 O374 1.281 . S
C361 O375 1.254 . S
C362 O376 1.236 . S
C362 O377 1.266 . S
C363 Tb353 2.809 . S
C363 C364 1.514 . S
C363 O378 1.248 . S
C363 O379 1.266 . S
C364 C363 1.514 . S
C364 C365 1.359 . S
C364 C369 1.348 . S
C365 C364 1.359 . S
C365 C366 1.380 . S
C365 H388 0.929 . S
C366 C365 1.380 . S
C366 C367 1.347 . S
C366 H389 0.931 . S
C367 C366 1.347 . S
C367 C368 1.369 . S
C368 C367 1.369 . S
C368 C369 1.408 . S
C368 H390 0.930 . S
C369 C364 1.348 . S
C369 C368 1.408 . S
C369 H391 0.930 . S
C370 O380 1.281 . S
C370 O381 1.254 . S
C371 O382 1.236 . S
C371 O383 1.266 . S
O372 Tb352 2.484 . S
O372 C354 1.248 . S
O373 Tb352 2.440 . S
O373 C354 1.266 . S
O374 Tb352 2.658 . S
O374 Tb353 2.325 . S
O374 C361 1.281 . S
O375 Tb352 2.409 . S
O375 C361 1.254 . S
O376 Tb352 2.378 . S
O376 C362 1.236 . S
O377 Tb353 2.341 . S
O377 C362 1.266 . S
O378 Tb353 2.484 . S
O378 C363 1.248 . S
O379 Tb353 2.440 . S
O379 C363 1.266 . S
O380 Tb352 2.325 . S
O380 Tb353 2.658 . S
O380 C370 1.281 . S
O381 Tb353 2.409 . S
O381 C370 1.254 . S
O382 Tb353 2.378 . S
O382 C371 1.236 . S
O383 Tb352 2.341 . S
O383 C371 1.266 . S
H384 C356 0.929 . S
H385 C357 0.931 . S
H386 C359 0.930 . S
H387 C360 0.930 . S
H388 C365 0.929 . S
H389 C366 0.931 . S
H390 C368 0.930 . S
H391 C369 0.930 . S
Tb392 C394 2.809 1_545 S
Tb392 O412 2.484 1_545 S
Tb392 O413 2.440 . S
Tb392 O414 2.658 . S
Tb392 O415 2.409 . S
Tb392 O416 2.378 1_545 S
Tb392 O420 2.325 . S
Tb392 O423 2.341 . S
Tb393 C403 2.809 . S
Tb393 O414 2.325 . S
Tb393 O417 2.341 1_545 S
Tb393 O418 2.484 . S
Tb393 O419 2.440 . S
Tb393 O420 2.658 . S
Tb393 O421 2.409 . S
Tb393 O422 2.378 . S
C394 Tb392 2.809 1_565 S
C394 C395 1.514 . S
C394 O412 1.248 . S
C394 O413 1.266 1_565 S
C395 C394 1.514 . S
C395 C396 1.359 . S
C395 C400 1.348 . S
C396 C395 1.359 . S
C396 C397 1.380 . S
C396 H424 0.929 . S
C397 C396 1.380 . S
C397 C398 1.347 . S
C397 H425 0.931 . S
C398 C397 1.347 . S
C398 C399 1.369 . S
C399 C398 1.369 . S
C399 C400 1.408 . S
C399 H426 0.930 . S
C400 C395 1.348 . S
C400 C399 1.408 . S
C400 H427 0.930 . S
C401 O414 1.281 . S
C401 O415 1.254 . S
C402 O416 1.236 . S
C402 O417 1.266 . S
C403 Tb393 2.809 . S
C403 C404 1.514 . S
C403 O418 1.248 . S
C403 O419 1.266 . S
C404 C403 1.514 . S
C404 C405 1.359 . S
C404 C409 1.348 . S
C405 C404 1.359 . S
C405 C406 1.380 . S
C405 H428 0.929 . S
C406 C405 1.380 . S
C406 C407 1.347 . S
C406 H429 0.931 . S
C407 C406 1.347 . S
C407 C408 1.369 . S
C408 C407 1.369 . S
C408 C409 1.408 . S
C408 H430 0.930 . S
C409 C404 1.348 . S
C409 C408 1.408 . S
C409 H431 0.930 . S
C410 O420 1.281 . S
C410 O421 1.254 . S
C411 O422 1.236 . S
C411 O423 1.266 . S
O412 Tb392 2.484 1_565 S
O412 C394 1.248 . S
O413 Tb392 2.440 . S
O413 C394 1.266 1_545 S
O414 Tb392 2.658 . S
O414 Tb393 2.325 . S
O414 C401 1.281 . S
O415 Tb392 2.409 . S
O415 C401 1.254 . S
O416 Tb392 2.378 1_565 S
O416 C402 1.236 . S
O417 Tb393 2.341 1_565 S
O417 C402 1.266 . S
O418 Tb393 2.484 . S
O418 C403 1.248 . S
O419 Tb393 2.440 . S
O419 C403 1.266 . S
O420 Tb392 2.325 . S
O420 Tb393 2.658 . S
O420 C410 1.281 . S
O421 Tb393 2.409 . S
O421 C410 1.254 . S
O422 Tb393 2.378 . S
O422 C411 1.236 . S
O423 Tb392 2.341 . S
O423 C411 1.266 . S
H424 C396 0.929 . S
H425 C397 0.931 . S
H426 C399 0.930 . S
H427 C400 0.930 . S
H428 C405 0.929 . S
H429 C406 0.931 . S
H430 C408 0.930 . S
H431 C409 0.930 . S
Tb432 C434 2.809 . S
Tb432 O452 2.484 . S
Tb432 O453 2.440 . S
Tb432 O454 2.658 . S
Tb432 O455 2.409 . S
Tb432 O456 2.378 . S
Tb432 O460 2.325 . S
Tb432 O463 2.341 . S
Tb433 C443 2.809 . S
Tb433 O454 2.325 . S
Tb433 O457 2.341 . S
Tb433 O458 2.484 . S
Tb433 O459 2.440 . S
Tb433 O460 2.658 . S
Tb433 O461 2.409 . S
Tb433 O462 2.378 . S
C434 Tb432 2.809 . S
C434 C435 1.514 . S
C434 O452 1.248 . S
C434 O453 1.266 . S
C435 C434 1.514 . S
C435 C436 1.359 . S
C435 C440 1.348 . S
C436 C435 1.359 . S
C436 C437 1.380 . S
C436 H464 0.929 . S
C437 C436 1.380 . S
C437 C438 1.347 . S
C437 H465 0.931 . S
C438 C437 1.347 . S
C438 C439 1.369 . S
C439 C438 1.369 . S
C439 C440 1.408 . S
C439 H466 0.930 . S
C440 C435 1.348 . S
C440 C439 1.408 . S
C440 H467 0.930 . S
C441 O454 1.281 . S
C441 O455 1.254 . S
C442 O456 1.236 . S
C442 O457 1.266 . S
C443 Tb433 2.809 . S
C443 C444 1.514 . S
C443 O458 1.248 . S
C443 O459 1.266 . S
C444 C443 1.514 . S
C444 C445 1.359 . S
C444 C449 1.348 . S
C445 C444 1.359 . S
C445 C446 1.380 . S
C445 H468 0.929 . S
C446 C445 1.380 . S
C446 C447 1.347 . S
C446 H469 0.931 . S
C447 C446 1.347 . S
C447 C448 1.369 . S
C448 C447 1.369 . S
C448 C449 1.408 . S
C448 H470 0.930 . S
C449 C444 1.348 . S
C449 C448 1.408 . S
C449 H471 0.930 . S
C450 O460 1.281 . S
C450 O461 1.254 . S
C451 O462 1.236 . S
C451 O463 1.266 . S
O452 Tb432 2.484 . S
O452 C434 1.248 . S
O453 Tb432 2.440 . S
O453 C434 1.266 . S
O454 Tb432 2.658 . S
O454 Tb433 2.325 . S
O454 C441 1.281 . S
O455 Tb432 2.409 . S
O455 C441 1.254 . S
O456 Tb432 2.378 . S
O456 C442 1.236 . S
O457 Tb433 2.341 . S
O457 C442 1.266 . S
O458 Tb433 2.484 . S
O458 C443 1.248 . S
O459 Tb433 2.440 . S
O459 C443 1.266 . S
O460 Tb432 2.325 . S
O460 Tb433 2.658 . S
O460 C450 1.281 . S
O461 Tb433 2.409 . S
O461 C450 1.254 . S
O462 Tb433 2.378 . S
O462 C451 1.236 . S
O463 Tb432 2.341 . S
O463 C451 1.266 . S
H464 C436 0.929 . S
H465 C437 0.931 . S
H466 C439 0.930 . S
H467 C440 0.930 . S
H468 C445 0.929 . S
H469 C446 0.931 . S
H470 C448 0.930 . S
H471 C449 0.930 . S
Tb472 C474 2.809 . S
Tb472 O492 2.484 . S
Tb472 O493 2.440 . S
Tb472 O494 2.703 . S
Tb472 O495 2.409 . S
Tb472 O496 2.378 . S
Tb472 O500 2.325 . S
Tb472 O503 2.341 . S
Tb473 C483 2.809 . S
Tb473 O494 2.301 1_565 S
Tb473 O497 2.341 . S
Tb473 O498 2.484 . S
Tb473 O499 2.440 . S
Tb473 O500 2.658 1_565 S
Tb473 O501 2.409 1_565 S
Tb473 O502 2.378 1_565 S
C474 Tb472 2.809 . S
C474 C475 1.514 . S
C474 O492 1.248 . S
C474 O493 1.266 . S
C475 C474 1.514 . S
C475 C476 1.359 . S
C475 C480 1.348 . S
C476 C475 1.359 . S
C476 C477 1.380 . S
C476 H504 0.929 . S
C477 C476 1.380 . S
C477 C478 1.347 . S
C477 H505 0.931 . S
C478 C477 1.347 . S
C478 C479 1.369 . S
C479 C478 1.369 . S
C479 C480 1.408 . S
C479 H506 0.930 1_455 S
C480 C475 1.348 . S
C480 C479 1.408 . S
C480 H507 0.930 1_455 S
C481 O494 1.296 . S
C481 O495 1.254 . S
C482 O496 1.236 . S
C482 O497 1.266 1_545 S
C483 Tb473 2.809 . S
C483 C484 1.514 . S
C483 O498 1.248 . S
C483 O499 1.266 . S
C484 C483 1.514 . S
C484 C485 1.359 . S
C484 C489 1.348 . S
C485 C484 1.359 . S
C485 C486 1.380 . S
C485 H508 0.929 . S
C486 C485 1.380 . S
C486 C487 1.347 . S
C486 H509 0.931 . S
C487 C486 1.347 . S
C487 C488 1.369 . S
C488 C487 1.369 . S
C488 C489 1.408 . S
C488 H510 0.930 . S
C489 C484 1.348 . S
C489 C488 1.408 . S
C489 H511 0.930 . S
C490 O500 1.281 . S
C490 O501 1.254 . S
C491 O502 1.236 . S
C491 O503 1.266 . S
O492 Tb472 2.484 . S
O492 C474 1.248 . S
O493 Tb472 2.440 . S
O493 C474 1.266 . S
O494 Tb472 2.703 . S
O494 Tb473 2.301 1_545 S
O494 C481 1.296 . S
O495 Tb472 2.409 . S
O495 C481 1.254 . S
O496 Tb472 2.378 . S
O496 C482 1.236 . S
O497 Tb473 2.341 . S
O497 C482 1.266 1_565 S
O498 Tb473 2.484 . S
O498 C483 1.248 . S
O499 Tb473 2.440 . S
O499 C483 1.266 . S
O500 Tb472 2.325 . S
O500 Tb473 2.658 1_545 S
O500 C490 1.281 . S
O501 Tb473 2.409 1_545 S
O501 C490 1.254 . S
O502 Tb473 2.378 1_545 S
O502 C491 1.236 . S
O503 Tb472 2.341 . S
O503 C491 1.266 . S
H504 C476 0.929 . S
H505 C477 0.931 . S
H506 C479 0.930 1_655 S
H507 C480 0.930 1_655 S
H508 C485 0.929 . S
H509 C486 0.931 . S
H510 C488 0.930 . S
H511 C489 0.930 . S
Tb512 C514 2.809 . S
Tb512 O532 2.484 . S
Tb512 O533 2.440 . S
Tb512 O534 2.658 . S
Tb512 O535 2.409 . S
Tb512 O536 2.378 . S
Tb512 O540 2.325 . S
Tb512 O543 2.341 . S
Tb513 C523 2.809 . S
Tb513 O534 2.325 . S
Tb513 O537 2.341 . S
Tb513 O538 2.484 . S
Tb513 O539 2.440 . S
Tb513 O540 2.658 . S
Tb513 O541 2.409 . S
Tb513 O542 2.378 . S
C514 Tb512 2.809 . S
C514 C515 1.514 . S
C514 O532 1.248 . S
C514 O533 1.266 . S
C515 C514 1.514 . S
C515 C516 1.359 . S
C515 C520 1.348 . S
C516 C515 1.359 . S
C516 C517 1.380 . S
C516 H544 0.929 . S
C517 C516 1.380 . S
C517 C518 1.347 . S
C517 H545 0.931 . S
C518 C517 1.347 . S
C518 C519 1.369 . S
C519 C518 1.369 . S
C519 C520 1.408 . S
C519 H546 0.930 . S
C520 C515 1.348 . S
C520 C519 1.408 . S
C520 H547 0.930 . S
C521 O534 1.281 . S
C521 O535 1.254 . S
C522 O536 1.236 . S
C522 O537 1.266 . S
C523 Tb513 2.809 . S
C523 C524 1.514 . S
C523 O538 1.248 . S
C523 O539 1.266 . S
C524 C523 1.514 . S
C524 C525 1.359 . S
C524 C529 1.348 . S
C525 C524 1.359 . S
C525 C526 1.380 . S
C525 H548 0.929 . S
C526 C525 1.380 . S
C526 C527 1.347 . S
C526 H549 0.931 . S
C527 C526 1.347 . S
C527 C528 1.369 . S
C528 C527 1.369 . S
C528 C529 1.408 . S
C528 H550 0.930 . S
C529 C524 1.348 . S
C529 C528 1.408 . S
C529 H551 0.930 . S
C530 O540 1.281 . S
C530 O541 1.254 . S
C531 O542 1.236 . S
C531 O543 1.266 . S
O532 Tb512 2.484 . S
O532 C514 1.248 . S
O533 Tb512 2.440 . S
O533 C514 1.266 . S
O534 Tb512 2.658 . S
O534 Tb513 2.325 . S
O534 C521 1.281 . S
O535 Tb512 2.409 . S
O535 C521 1.254 . S
O536 Tb512 2.378 . S
O536 C522 1.236 . S
O537 Tb513 2.341 . S
O537 C522 1.266 . S
O538 Tb513 2.484 . S
O538 C523 1.248 . S
O539 Tb513 2.440 . S
O539 C523 1.266 . S
O540 Tb512 2.325 . S
O540 Tb513 2.658 . S
O540 C530 1.281 . S
O541 Tb513 2.409 . S
O541 C530 1.254 . S
O542 Tb513 2.378 . S
O542 C531 1.236 . S
O543 Tb512 2.341 . S
O543 C531 1.266 . S
H544 C516 0.929 . S
H545 C517 0.931 . S
H546 C519 0.930 . S
H547 C520 0.930 . S
H548 C525 0.929 . S
H549 C526 0.931 . S
H550 C528 0.930 . S
H551 C529 0.930 . S
Tb552 C554 2.809 . S
Tb552 O572 2.484 . S
Tb552 O573 2.440 . S
Tb552 O574 2.658 . S
Tb552 O575 2.409 . S
Tb552 O576 2.378 . S
Tb552 O580 2.325 . S
Tb552 O583 2.341 1_554 S
Tb553 C563 2.809 . S
Tb553 O574 2.325 . S
Tb553 O577 2.341 . S
Tb553 O578 2.484 . S
Tb553 O579 2.440 . S
Tb553 O580 2.658 . S
Tb553 O581 2.409 1_545 S
Tb553 O582 2.378 . S
C554 Tb552 2.809 . S
C554 C555 1.514 . S
C554 O572 1.248 . S
C554 O573 1.266 . S
C555 C554 1.514 . S
C555 C556 1.359 1_545 S
C555 C560 1.348 . S
C556 C555 1.359 1_565 S
C556 C557 1.380 . S
C556 H584 0.929 . S
C557 C556 1.380 . S
C557 C558 1.347 . S
C557 H585 0.931 . S
C558 C557 1.347 . S
C558 C559 1.369 1_565 S
C559 C558 1.369 1_545 S
C559 C560 1.408 . S
C559 H586 0.930 . S
C560 C555 1.348 . S
C560 C559 1.408 . S
C560 H587 0.930 . S
C561 O574 1.281 . S
C561 O575 1.254 . S
C562 O576 1.236 . S
C562 O577 1.266 . S
C563 Tb553 2.809 . S
C563 C564 1.514 . S
C563 O578 1.248 . S
C563 O579 1.266 . S
C564 C563 1.514 . S
C564 C565 1.359 . S
C564 C569 1.348 . S
C565 C564 1.359 . S
C565 C566 1.380 . S
C565 H588 0.929 . S
C566 C565 1.380 . S
C566 C567 1.347 . S
C566 H589 0.931 . S
C567 C566 1.347 . S
C567 C568 1.369 . S
C568 C567 1.369 . S
C568 C569 1.408 . S
C568 H590 0.930 . S
C569 C564 1.348 . S
C569 C568 1.408 . S
C569 H591 0.930 . S
C570 O580 1.281 1_565 S
C570 O581 1.254 . S
C571 O582 1.236 1_556 S
C571 O583 1.266 . S
O572 Tb552 2.484 . S
O572 C554 1.248 . S
O573 Tb552 2.440 . S
O573 C554 1.266 . S
O574 Tb552 2.658 . S
O574 Tb553 2.325 . S
O574 C561 1.281 . S
O575 Tb552 2.409 . S
O575 C561 1.254 . S
O576 Tb552 2.378 . S
O576 C562 1.236 . S
O577 Tb553 2.341 . S
O577 C562 1.266 . S
O578 Tb553 2.484 . S
O578 C563 1.248 . S
O579 Tb553 2.440 . S
O579 C563 1.266 . S
O580 Tb552 2.325 . S
O580 Tb553 2.658 . S
O580 C570 1.281 1_545 S
O581 Tb553 2.409 1_565 S
O581 C570 1.254 . S
O582 Tb553 2.378 . S
O582 C571 1.236 1_554 S
O583 Tb552 2.341 1_556 S
O583 C571 1.266 . S
H584 C556 0.929 . S
H585 C557 0.931 . S
H586 C559 0.930 . S
H587 C560 0.930 . S
H588 C565 0.929 . S
H589 C566 0.931 . S
H590 C568 0.930 . S
H591 C569 0.930 . S
Tb592 C594 2.809 . S
Tb592 O612 2.484 . S
Tb592 O613 2.440 . S
Tb592 O614 2.658 . S
Tb592 O615 2.409 . S
Tb592 O616 2.378 . S
Tb592 O620 2.325 . S
Tb592 O623 2.341 . S
Tb593 C603 2.809 . S
Tb593 O614 2.325 . S
Tb593 O617 2.341 . S
Tb593 O618 2.484 . S
Tb593 O619 2.440 . S
Tb593 O620 2.658 . S
Tb593 O621 2.409 . S
Tb593 O622 2.378 . S
C594 Tb592 2.809 . S
C594 C595 1.514 . S
C594 O612 1.248 . S
C594 O613 1.266 . S
C595 C594 1.514 . S
C595 C596 1.359 . S
C595 C600 1.348 . S
C596 C595 1.359 . S
C596 C597 1.380 . S
C596 H624 0.929 . S
C597 C596 1.380 . S
C597 C598 1.347 . S
C597 H625 0.931 . S
C598 C597 1.347 . S
C598 C599 1.369 . S
C599 C598 1.369 . S
C599 C600 1.408 . S
C599 H626 0.930 . S
C600 C595 1.348 . S
C600 C599 1.408 . S
C600 H627 0.930 . S
C601 O614 1.281 . S
C601 O615 1.254 . S
C602 O616 1.236 . S
C602 O617 1.266 . S
C603 Tb593 2.809 . S
C603 C604 1.514 . S
C603 O618 1.248 . S
C603 O619 1.266 . S
C604 C603 1.514 . S
C604 C605 1.359 . S
C604 C609 1.348 . S
C605 C604 1.359 . S
C605 C606 1.380 . S
C605 H628 0.929 . S
C606 C605 1.380 . S
C606 C607 1.347 . S
C606 H629 0.931 . S
C607 C606 1.347 . S
C607 C608 1.369 . S
C608 C607 1.369 . S
C608 C609 1.408 . S
C608 H630 0.930 . S
C609 C604 1.348 . S
C609 C608 1.408 . S
C609 H631 0.930 . S
C610 O620 1.281 . S
C610 O621 1.254 . S
C611 O622 1.236 . S
C611 O623 1.266 . S
O612 Tb592 2.484 . S
O612 C594 1.248 . S
O613 Tb592 2.440 . S
O613 C594 1.266 . S
O614 Tb592 2.658 . S
O614 Tb593 2.325 . S
O614 C601 1.281 . S
O615 Tb592 2.409 . S
O615 C601 1.254 . S
O616 Tb592 2.378 . S
O616 C602 1.236 . S
O617 Tb593 2.341 . S
O617 C602 1.266 . S
O618 Tb593 2.484 . S
O618 C603 1.248 . S
O619 Tb593 2.440 . S
O619 C603 1.266 . S
O620 Tb592 2.325 . S
O620 Tb593 2.658 . S
O620 C610 1.281 . S
O621 Tb593 2.409 . S
O621 C610 1.254 . S
O622 Tb593 2.378 . S
O622 C611 1.236 . S
O623 Tb592 2.341 . S
O623 C611 1.266 . S
H624 C596 0.929 . S
H625 C597 0.931 . S
H626 C599 0.930 . S
H627 C600 0.930 . S
H628 C605 0.929 . S
H629 C606 0.931 . S
H630 C608 0.930 . S
H631 C609 0.930 . S
Tb632 C634 2.809 . S
Tb632 O652 2.484 . S
Tb632 O653 2.440 . S
Tb632 O654 2.658 . S
Tb632 O655 2.409 . S
Tb632 O656 2.378 . S
Tb632 O660 2.325 . S
Tb632 O663 2.341 . S
Tb633 C643 2.809 . S
Tb633 O654 2.325 . S
Tb633 O657 2.341 1_554 S
Tb633 O658 2.484 . S
Tb633 O659 2.440 . S
Tb633 O660 2.658 . S
Tb633 O661 2.409 . S
Tb633 O662 2.378 . S
C634 Tb632 2.809 . S
C634 C635 1.514 1_554 S
C634 O652 1.248 . S
C634 O653 1.266 . S
C635 C634 1.514 1_556 S
C635 C636 1.359 . S
C635 C640 1.348 . S
C636 C635 1.359 . S
C636 C637 1.380 . S
C636 H664 0.929 . S
C637 C636 1.380 . S
C637 C638 1.347 . S
C637 H665 0.931 . S
C638 C637 1.347 . S
C638 C639 1.369 . S
C639 C638 1.369 . S
C639 C640 1.408 . S
C639 H666 0.930 . S
C640 C635 1.348 . S
C640 C639 1.408 . S
C640 H667 0.930 1_556 S
C641 O654 1.281 . S
C641 O655 1.254 . S
C642 O656 1.236 1_556 S
C642 O657 1.266 . S
C643 Tb633 2.809 . S
C643 C644 1.514 . S
C643 O658 1.248 . S
C643 O659 1.266 . S
C644 C643 1.514 . S
C644 C645 1.359 . S
C644 C649 1.348 . S
C645 C644 1.359 . S
C645 C646 1.380 . S
C645 H668 0.929 . S
C646 C645 1.380 . S
C646 C647 1.347 . S
C646 H669 0.931 . S
C647 C646 1.347 . S
C647 C648 1.369 . S
C648 C647 1.369 . S
C648 C649 1.408 . S
C648 H670 0.930 . S
C649 C644 1.348 . S
C649 C648 1.408 . S
C649 H671 0.930 . S
C650 O660 1.281 . S
C650 O661 1.254 . S
C651 O662 1.236 . S
C651 O663 1.266 . S
O652 Tb632 2.484 . S
O652 C634 1.248 . S
O653 Tb632 2.440 . S
O653 C634 1.266 . S
O654 Tb632 2.658 . S
O654 Tb633 2.325 . S
O654 C641 1.281 . S
O655 Tb632 2.409 . S
O655 C641 1.254 . S
O656 Tb632 2.378 . S
O656 C642 1.236 1_554 S
O657 Tb633 2.341 1_556 S
O657 C642 1.266 . S
O658 Tb633 2.484 . S
O658 C643 1.248 . S
O659 Tb633 2.440 . S
O659 C643 1.266 . S
O660 Tb632 2.325 . S
O660 Tb633 2.658 . S
O660 C650 1.281 . S
O661 Tb633 2.409 . S
O661 C650 1.254 . S
O662 Tb633 2.378 . S
O662 C651 1.236 . S
O663 Tb632 2.341 . S
O663 C651 1.266 . S
H664 C636 0.929 . S
H665 C637 0.931 . S
H666 C639 0.930 . S
H667 C640 0.930 1_554 S
H668 C645 0.929 . S
H669 C646 0.931 . S
H670 C648 0.930 . S
H671 C649 0.930 . S
Tb672 C674 2.809 . S
Tb672 O692 2.484 . S
Tb672 O693 2.440 . S
Tb672 O694 2.658 . S
Tb672 O695 2.409 . S
Tb672 O696 2.378 . S
Tb672 O700 2.325 . S
Tb672 O703 2.341 . S
Tb673 C683 2.809 . S
Tb673 O694 2.325 . S
Tb673 O697 2.341 . S
Tb673 O698 2.484 . S
Tb673 O699 2.440 . S
Tb673 O700 2.658 . S
Tb673 O701 2.409 . S
Tb673 O702 2.378 . S
C674 Tb672 2.809 . S
C674 C675 1.514 . S
C674 O692 1.248 . S
C674 O693 1.266 . S
C675 C674 1.514 . S
C675 C676 1.359 . S
C675 C680 1.348 . S
C676 C675 1.359 . S
C676 C677 1.380 . S
C676 H704 0.929 . S
C677 C676 1.380 . S
C677 C678 1.347 . S
C677 H705 0.931 . S
C678 C677 1.347 . S
C678 C679 1.369 . S
C679 C678 1.369 . S
C679 C680 1.408 . S
C679 H706 0.930 . S
C680 C675 1.348 . S
C680 C679 1.408 . S
C680 H707 0.930 . S
C681 O694 1.281 . S
C681 O695 1.254 . S
C682 O696 1.236 . S
C682 O697 1.266 . S
C683 Tb673 2.809 . S
C683 C684 1.514 . S
C683 O698 1.248 . S
C683 O699 1.266 . S
C684 C683 1.514 . S
C684 C685 1.359 . S
C684 C689 1.348 . S
C685 C684 1.359 . S
C685 C686 1.380 . S
C685 H708 0.929 . S
C686 C685 1.380 . S
C686 C687 1.347 . S
C686 H709 0.931 . S
C687 C686 1.347 . S
C687 C688 1.369 . S
C688 C687 1.369 . S
C688 C689 1.408 . S
C688 H710 0.930 . S
C689 C684 1.348 . S
C689 C688 1.408 . S
C689 H711 0.930 . S
C690 O700 1.281 . S
C690 O701 1.254 . S
C691 O702 1.236 . S
C691 O703 1.266 . S
O692 Tb672 2.484 . S
O692 C674 1.248 . S
O693 Tb672 2.440 . S
O693 C674 1.266 . S
O694 Tb672 2.658 . S
O694 Tb673 2.325 . S
O694 C681 1.281 . S
O695 Tb672 2.409 . S
O695 C681 1.254 . S
O696 Tb672 2.378 . S
O696 C682 1.236 . S
O697 Tb673 2.341 . S
O697 C682 1.266 . S
O698 Tb673 2.484 . S
O698 C683 1.248 . S
O699 Tb673 2.440 . S
O699 C683 1.266 . S
O700 Tb672 2.325 . S
O700 Tb673 2.658 . S
O700 C690 1.281 . S
O701 Tb673 2.409 . S
O701 C690 1.254 . S
O702 Tb673 2.378 . S
O702 C691 1.236 . S
O703 Tb672 2.341 . S
O703 C691 1.266 . S
H704 C676 0.929 . S
H705 C677 0.931 . S
H706 C679 0.930 . S
H707 C680 0.930 . S
H708 C685 0.929 . S
H709 C686 0.931 . S
H710 C688 0.930 . S
H711 C689 0.930 . S
Tb712 C714 2.809 . S
Tb712 O732 2.484 . S
Tb712 O733 2.440 . S
Tb712 O734 2.658 1_655 S
Tb712 O735 2.409 1_655 S
Tb712 O736 2.378 . S
Tb712 O740 2.325 1_655 S
Tb712 O743 2.341 1_655 S
Tb713 C723 2.809 . S
Tb713 O734 2.325 . S
Tb713 O737 2.341 . S
Tb713 O738 2.484 . S
Tb713 O739 2.440 . S
Tb713 O740 2.658 . S
Tb713 O741 2.409 . S
Tb713 O742 2.378 . S
C714 Tb712 2.809 . S
C714 C715 1.514 . S
C714 O732 1.248 . S
C714 O733 1.266 . S
C715 C714 1.514 . S
C715 C716 1.359 . S
C715 C720 1.348 . S
C716 C715 1.359 . S
C716 C717 1.380 . S
C716 H744 0.929 . S
C717 C716 1.380 . S
C717 C718 1.347 . S
C717 H745 0.931 . S
C718 C717 1.347 . S
C718 C719 1.369 . S
C719 C718 1.369 . S
C719 C720 1.408 . S
C719 H746 0.930 . S
C720 C715 1.348 . S
C720 C719 1.408 . S
C720 H747 0.930 . S
C721 O734 1.281 . S
C721 O735 1.254 . S
C722 O736 1.236 1_455 S
C722 O737 1.266 . S
C723 Tb713 2.809 . S
C723 C724 1.514 . S
C723 O738 1.248 . S
C723 O739 1.266 . S
C724 C723 1.514 . S
C724 C725 1.359 . S
C724 C729 1.348 . S
C725 C724 1.359 . S
C725 C726 1.380 . S
C725 H748 0.929 . S
C726 C725 1.380 . S
C726 C727 1.347 . S
C726 H749 0.931 . S
C727 C726 1.347 . S
C727 C728 1.369 . S
C728 C727 1.369 . S
C728 C729 1.408 . S
C728 H750 0.930 . S
C729 C724 1.348 . S
C729 C728 1.408 . S
C729 H751 0.930 . S
C730 O740 1.281 . S
C730 O741 1.254 . S
C731 O742 1.236 . S
C731 O743 1.266 . S
O732 Tb712 2.484 . S
O732 C714 1.248 . S
O733 Tb712 2.440 . S
O733 C714 1.266 . S
O734 Tb712 2.658 1_455 S
O734 Tb713 2.325 . S
O734 C721 1.281 . S
O735 Tb712 2.409 1_455 S
O735 C721 1.254 . S
O736 Tb712 2.378 . S
O736 C722 1.236 1_655 S
O737 Tb713 2.341 . S
O737 C722 1.266 . S
O738 Tb713 2.484 . S
O738 C723 1.248 . S
O739 Tb713 2.440 . S
O739 C723 1.266 . S
O740 Tb712 2.325 1_455 S
O740 Tb713 2.658 . S
O740 C730 1.281 . S
O741 Tb713 2.409 . S
O741 C730 1.254 . S
O742 Tb713 2.378 . S
O742 C731 1.236 . S
O743 Tb712 2.341 1_455 S
O743 C731 1.266 . S
H744 C716 0.929 . S
H745 C717 0.931 . S
H746 C719 0.930 . S
H747 C720 0.930 . S
H748 C725 0.929 . S
H749 C726 0.931 . S
H750 C728 0.930 . S
H751 C729 0.930 . S
Tb752 C754 2.809 . S
Tb752 O772 2.484 . S
Tb752 O773 2.440 . S
Tb752 O774 2.658 . S
Tb752 O775 2.409 . S
Tb752 O776 2.378 . S
Tb752 O780 2.325 . S
Tb752 O783 2.341 . S
Tb753 C763 2.809 . S
Tb753 O774 2.325 . S
Tb753 O777 2.341 . S
Tb753 O778 2.484 . S
Tb753 O779 2.440 . S
Tb753 O780 2.658 . S
Tb753 O781 2.409 . S
Tb753 O782 2.378 . S
C754 Tb752 2.809 . S
C754 C755 1.514 . S
C754 O772 1.248 . S
C754 O773 1.266 . S
C755 C754 1.514 . S
C755 C756 1.359 . S
C755 C760 1.348 . S
C756 C755 1.359 . S
C756 C757 1.380 . S
C756 H784 0.929 . S
C757 C756 1.380 . S
C757 C758 1.347 . S
C757 H785 0.931 . S
C758 C757 1.347 . S
C758 C759 1.369 . S
C759 C758 1.369 . S
C759 C760 1.408 . S
C759 H786 0.930 . S
C760 C755 1.348 . S
C760 C759 1.408 . S
C760 H787 0.930 . S
C761 O774 1.281 . S
C761 O775 1.254 . S
C762 O776 1.236 . S
C762 O777 1.266 . S
C763 Tb753 2.809 . S
C763 C764 1.514 . S
C763 O778 1.248 . S
C763 O779 1.266 . S
C764 C763 1.514 . S
C764 C765 1.359 . S
C764 C769 1.348 . S
C765 C764 1.359 . S
C765 C766 1.380 . S
C765 H788 0.929 . S
C766 C765 1.380 . S
C766 C767 1.347 . S
C766 H789 0.931 . S
C767 C766 1.347 . S
C767 C768 1.369 . S
C768 C767 1.369 . S
C768 C769 1.408 . S
C768 H790 0.930 . S
C769 C764 1.348 . S
C769 C768 1.408 . S
C769 H791 0.930 . S
C770 O780 1.281 . S
C770 O781 1.254 . S
C771 O782 1.236 . S
C771 O783 1.266 . S
O772 Tb752 2.484 . S
O772 C754 1.248 . S
O773 Tb752 2.440 . S
O773 C754 1.266 . S
O774 Tb752 2.658 . S
O774 Tb753 2.325 . S
O774 C761 1.281 . S
O775 Tb752 2.409 . S
O775 C761 1.254 . S
O776 Tb752 2.378 . S
O776 C762 1.236 . S
O777 Tb753 2.341 . S
O777 C762 1.266 . S
O778 Tb753 2.484 . S
O778 C763 1.248 . S
O779 Tb753 2.440 . S
O779 C763 1.266 . S
O780 Tb752 2.325 . S
O780 Tb753 2.658 . S
O780 C770 1.281 . S
O781 Tb753 2.409 . S
O781 C770 1.254 . S
O782 Tb753 2.378 . S
O782 C771 1.236 . S
O783 Tb752 2.341 . S
O783 C771 1.266 . S
H784 C756 0.929 . S
H785 C757 0.931 . S
H786 C759 0.930 . S
H787 C760 0.930 . S
H788 C765 0.929 . S
H789 C766 0.931 . S
H790 C768 0.930 . S
H791 C769 0.930 . S
Tb792 C794 2.809 . S
Tb792 O812 2.484 . S
Tb792 O813 2.440 . S
Tb792 O814 2.658 . S
Tb792 O815 2.409 . S
Tb792 O816 2.378 . S
Tb792 O820 2.325 . S
Tb792 O823 2.341 . S
Tb793 C803 2.809 . S
Tb793 O814 2.325 . S
Tb793 O817 2.341 . S
Tb793 O818 2.484 . S
Tb793 O819 2.440 . S
Tb793 O820 2.658 . S
Tb793 O821 2.409 . S
Tb793 O822 2.378 . S
C794 Tb792 2.809 . S
C794 C795 1.514 . S
C794 O812 1.248 . S
C794 O813 1.266 . S
C795 C794 1.514 . S
C795 C796 1.359 . S
C795 C800 1.348 . S
C796 C795 1.359 . S
C796 C797 1.380 . S
C796 H824 0.929 . S
C797 C796 1.380 . S
C797 C798 1.347 . S
C797 H825 0.931 . S
C798 C797 1.347 . S
C798 C799 1.369 . S
C799 C798 1.369 . S
C799 C800 1.408 . S
C799 H826 0.930 . S
C800 C795 1.348 . S
C800 C799 1.408 . S
C800 H827 0.930 . S
C801 O814 1.281 . S
C801 O815 1.254 . S
C802 O816 1.236 . S
C802 O817 1.266 . S
C803 Tb793 2.809 . S
C803 C804 1.514 . S
C803 O818 1.248 . S
C803 O819 1.266 . S
C804 C803 1.514 . S
C804 C805 1.359 . S
C804 C809 1.348 . S
C805 C804 1.359 . S
C805 C806 1.380 . S
C805 H828 0.929 . S
C806 C805 1.380 . S
C806 C807 1.347 . S
C806 H829 0.931 . S
C807 C806 1.347 . S
C807 C808 1.369 . S
C808 C807 1.369 . S
C808 C809 1.408 . S
C808 H830 0.930 . S
C809 C804 1.348 . S
C809 C808 1.408 . S
C809 H831 0.930 . S
C810 O820 1.281 . S
C810 O821 1.254 . S
C811 O822 1.236 . S
C811 O823 1.266 . S
O812 Tb792 2.484 . S
O812 C794 1.248 . S
O813 Tb792 2.440 . S
O813 C794 1.266 . S
O814 Tb792 2.658 . S
O814 Tb793 2.325 . S
O814 C801 1.281 . S
O815 Tb792 2.409 . S
O815 C801 1.254 . S
O816 Tb792 2.378 . S
O816 C802 1.236 . S
O817 Tb793 2.341 . S
O817 C802 1.266 . S
O818 Tb793 2.484 . S
O818 C803 1.248 . S
O819 Tb793 2.440 . S
O819 C803 1.266 . S
O820 Tb792 2.325 . S
O820 Tb793 2.658 . S
O820 C810 1.281 . S
O821 Tb793 2.409 . S
O821 C810 1.254 . S
O822 Tb793 2.378 . S
O822 C811 1.236 . S
O823 Tb792 2.341 . S
O823 C811 1.266 . S
H824 C796 0.929 . S
H825 C797 0.931 . S
H826 C799 0.930 . S
H827 C800 0.930 . S
H828 C805 0.929 . S
H829 C806 0.931 . S
H830 C808 0.930 . S
H831 C809 0.930 . S
Tb832 C834 2.809 . S
Tb832 O852 2.484 . S
Tb832 O853 2.440 . S
Tb832 O854 2.658 . S
Tb832 O855 2.409 . S
Tb832 O856 2.378 . S
Tb832 O860 2.325 . S
Tb832 O863 2.341 . S
Tb833 C843 2.809 . S
Tb833 O854 2.325 . S
Tb833 O857 2.341 . S
Tb833 O858 2.484 . S
Tb833 O859 2.440 . S
Tb833 O860 2.658 . S
Tb833 O861 2.409 . S
Tb833 O862 2.378 . S
C834 Tb832 2.809 . S
C834 C835 1.514 . S
C834 O852 1.248 . S
C834 O853 1.266 . S
C835 C834 1.514 . S
C835 C836 1.359 . S
C835 C840 1.348 . S
C836 C835 1.359 . S
C836 C837 1.380 . S
C836 H864 0.929 . S
C837 C836 1.380 . S
C837 C838 1.347 . S
C837 H865 0.931 . S
C838 C837 1.347 . S
C838 C839 1.369 . S
C839 C838 1.369 . S
C839 C840 1.408 . S
C839 H866 0.930 . S
C840 C835 1.348 . S
C840 C839 1.408 . S
C840 H867 0.930 . S
C841 O854 1.281 . S
C841 O855 1.254 . S
C842 O856 1.236 . S
C842 O857 1.266 . S
C843 Tb833 2.809 . S
C843 C844 1.514 . S
C843 O858 1.248 . S
C843 O859 1.266 . S
C844 C843 1.514 . S
C844 C845 1.359 . S
C844 C849 1.348 . S
C845 C844 1.359 . S
C845 C846 1.380 . S
C845 H868 0.929 . S
C846 C845 1.380 . S
C846 C847 1.347 . S
C846 H869 0.931 . S
C847 C846 1.347 . S
C847 C848 1.369 . S
C848 C847 1.369 . S
C848 C849 1.408 . S
C848 H870 0.930 . S
C849 C844 1.348 . S
C849 C848 1.408 . S
C849 H871 0.930 . S
C850 O860 1.281 . S
C850 O861 1.254 . S
C851 O862 1.236 . S
C851 O863 1.266 . S
O852 Tb832 2.484 . S
O852 C834 1.248 . S
O853 Tb832 2.440 . S
O853 C834 1.266 . S
O854 Tb832 2.658 . S
O854 Tb833 2.325 . S
O854 C841 1.281 . S
O855 Tb832 2.409 . S
O855 C841 1.254 . S
O856 Tb832 2.378 . S
O856 C842 1.236 . S
O857 Tb833 2.341 . S
O857 C842 1.266 . S
O858 Tb833 2.484 . S
O858 C843 1.248 . S
O859 Tb833 2.440 . S
O859 C843 1.266 . S
O860 Tb832 2.325 . S
O860 Tb833 2.658 . S
O860 C850 1.281 . S
O861 Tb833 2.409 . S
O861 C850 1.254 . S
O862 Tb833 2.378 . S
O862 C851 1.236 . S
O863 Tb832 2.341 . S
O863 C851 1.266 . S
H864 C836 0.929 . S
H865 C837 0.931 . S
H866 C839 0.930 . S
H867 C840 0.930 . S
H868 C845 0.929 . S
H869 C846 0.931 . S
H870 C848 0.930 . S
H871 C849 0.930 . S
Tb872 C874 2.809 . S
Tb872 O892 2.484 . S
Tb872 O893 2.440 . S
Tb872 O894 2.658 . S
Tb872 O895 2.409 . S
Tb872 O896 2.378 . S
Tb872 O900 2.325 . S
Tb872 O903 2.341 . S
Tb873 C883 2.809 . S
Tb873 O894 2.325 . S
Tb873 O897 2.341 . S
Tb873 O898 2.484 . S
Tb873 O899 2.440 . S
Tb873 O900 2.658 . S
Tb873 O901 2.409 . S
Tb873 O902 2.378 . S
C874 Tb872 2.809 . S
C874 C875 1.514 . S
C874 O892 1.248 . S
C874 O893 1.266 . S
C875 C874 1.514 . S
C875 C876 1.359 . S
C875 C880 1.348 . S
C876 C875 1.359 . S
C876 C877 1.380 . S
C876 H904 0.929 . S
C877 C876 1.380 . S
C877 C878 1.347 . S
C877 H905 0.931 . S
C878 C877 1.347 . S
C878 C879 1.369 . S
C879 C878 1.369 . S
C879 C880 1.408 . S
C879 H906 0.930 . S
C880 C875 1.348 . S
C880 C879 1.408 . S
C880 H907 0.930 . S
C881 O894 1.281 . S
C881 O895 1.254 . S
C882 O896 1.236 . S
C882 O897 1.266 . S
C883 Tb873 2.809 . S
C883 C884 1.514 . S
C883 O898 1.248 . S
C883 O899 1.266 . S
C884 C883 1.514 . S
C884 C885 1.359 . S
C884 C889 1.348 . S
C885 C884 1.359 . S
C885 C886 1.380 . S
C885 H908 0.929 . S
C886 C885 1.380 . S
C886 C887 1.347 . S
C886 H909 0.931 . S
C887 C886 1.347 . S
C887 C888 1.369 . S
C888 C887 1.369 . S
C888 C889 1.408 . S
C888 H910 0.930 . S
C889 C884 1.348 . S
C889 C888 1.408 . S
C889 H911 0.930 . S
C890 O900 1.281 . S
C890 O901 1.254 . S
C891 O902 1.236 . S
C891 O903 1.266 . S
O892 Tb872 2.484 . S
O892 C874 1.248 . S
O893 Tb872 2.440 . S
O893 C874 1.266 . S
O894 Tb872 2.658 . S
O894 Tb873 2.325 . S
O894 C881 1.281 . S
O895 Tb872 2.409 . S
O895 C881 1.254 . S
O896 Tb872 2.378 . S
O896 C882 1.236 . S
O897 Tb873 2.341 . S
O897 C882 1.266 . S
O898 Tb873 2.484 . S
O898 C883 1.248 . S
O899 Tb873 2.440 . S
O899 C883 1.266 . S
O900 Tb872 2.325 . S
O900 Tb873 2.658 . S
O900 C890 1.281 . S
O901 Tb873 2.409 . S
O901 C890 1.254 . S
O902 Tb873 2.378 . S
O902 C891 1.236 . S
O903 Tb872 2.341 . S
O903 C891 1.266 . S
H904 C876 0.929 . S
H905 C877 0.931 . S
H906 C879 0.930 . S
H907 C880 0.930 . S
H908 C885 0.929 . S
H909 C886 0.931 . S
H910 C888 0.930 . S
H911 C889 0.930 . S
Tb912 C914 2.809 . S
Tb912 O932 2.484 . S
Tb912 O933 2.440 . S
Tb912 O934 2.658 . S
Tb912 O935 2.409 . S
Tb912 O936 2.378 . S
Tb912 O940 2.325 . S
Tb912 O943 2.341 . S
Tb913 C923 2.809 1_455 S
Tb913 O934 2.325 . S
Tb913 O937 2.341 . S
Tb913 O938 2.484 1_455 S
Tb913 O939 2.440 1_455 S
Tb913 O940 2.658 . S
Tb913 O941 2.409 . S
Tb913 O942 2.378 . S
C914 Tb912 2.809 . S
C914 C915 1.514 . S
C914 O932 1.248 . S
C914 O933 1.266 . S
C915 C914 1.514 . S
C915 C916 1.359 . S
C915 C920 1.348 . S
C916 C915 1.359 . S
C916 C917 1.380 . S
C916 H944 0.929 . S
C917 C916 1.380 . S
C917 C918 1.347 . S
C917 H945 0.931 . S
C918 C917 1.347 . S
C918 C919 1.369 . S
C919 C918 1.369 . S
C919 C920 1.408 . S
C919 H946 0.930 1_554 S
C920 C915 1.348 . S
C920 C919 1.408 . S
C920 H947 0.930 1_554 S
C921 O934 1.281 . S
C921 O935 1.254 . S
C922 O936 1.236 . S
C922 O937 1.266 . S
C923 Tb913 2.809 1_655 S
C923 C924 1.514 . S
C923 O938 1.248 . S
C923 O939 1.266 . S
C924 C923 1.514 . S
C924 C925 1.359 . S
C924 C929 1.348 . S
C925 C924 1.359 . S
C925 C926 1.380 . S
C925 H948 0.929 . S
C926 C925 1.380 . S
C926 C927 1.347 . S
C926 H949 0.931 . S
C927 C926 1.347 . S
C927 C928 1.369 . S
C928 C927 1.369 . S
C928 C929 1.408 . S
C928 H950 0.930 . S
C929 C924 1.348 . S
C929 C928 1.408 . S
C929 H951 0.930 . S
C930 O940 1.281 . S
C930 O941 1.254 . S
C931 O942 1.236 . S
C931 O943 1.266 . S
O932 Tb912 2.484 . S
O932 C914 1.248 . S
O933 Tb912 2.440 . S
O933 C914 1.266 . S
O934 Tb912 2.658 . S
O934 Tb913 2.325 . S
O934 C921 1.281 . S
O935 Tb912 2.409 . S
O935 C921 1.254 . S
O936 Tb912 2.378 . S
O936 C922 1.236 . S
O937 Tb913 2.341 . S
O937 C922 1.266 . S
O938 Tb913 2.484 1_655 S
O938 C923 1.248 . S
O939 Tb913 2.440 1_655 S
O939 C923 1.266 . S
O940 Tb912 2.325 . S
O940 Tb913 2.658 . S
O940 C930 1.281 . S
O941 Tb913 2.409 . S
O941 C930 1.254 . S
O942 Tb913 2.378 . S
O942 C931 1.236 . S
O943 Tb912 2.341 . S
O943 C931 1.266 . S
H944 C916 0.929 . S
H945 C917 0.931 . S
H946 C919 0.930 1_556 S
H947 C920 0.930 1_556 S
H948 C925 0.929 . S
H949 C926 0.931 . S
H950 C928 0.930 . S
H951 C929 0.930 . S
H952 C960 0.950 1_655 S
H953 C965 0.950 . S
H954 C962 0.950 . S
H955 C964 0.951 . S
H956 C966 0.950 . S
H957 C968 0.950 . S
H958 C970 0.950 . S
H959 C971 0.950 . S
C960 H952 0.950 1_455 S
C960 C961 1.386 . S
C960 C962 1.391 1_556 S
C961 C960 1.386 . S
C961 C965 1.393 . S
C962 H954 0.950 . S
C962 C960 1.391 1_554 S
C962 C963 1.400 . S
C963 C962 1.400 . S
C963 C964 1.398 1_554 S
C963 C969 1.491 . S
C964 H955 0.951 . S
C964 C963 1.398 1_556 S
C964 C965 1.391 . S
C965 H953 0.950 . S
C965 C961 1.393 . S
C965 C964 1.391 . S
C966 H956 0.950 . S
C966 C967 1.386 . S
C966 C968 1.391 . S
C967 C966 1.386 . S
C967 C971 1.393 . S
C968 H957 0.950 . S
C968 C966 1.391 . S
C968 C969 1.400 . S
C969 C963 1.491 . S
C969 C968 1.400 . S
C969 C970 1.398 . S
C970 H958 0.950 . S
C970 C969 1.398 . S
C970 C971 1.391 . S
C971 H959 0.950 . S
C971 C967 1.393 . S
C971 C970 1.391 . S
H972 C980 0.950 . S
H973 C985 0.950 . S
H974 C982 0.950 . S
H975 C984 0.950 . S
H976 C986 0.950 . S
H977 C988 0.950 . S
H978 C990 0.950 . S
H979 C991 0.950 . S
C980 H972 0.950 . S
C980 C981 1.386 . S
C980 C982 1.391 . S
C981 C980 1.386 . S
C981 C985 1.393 . S
C982 H974 0.950 . S
C982 C980 1.391 . S
C982 C983 1.400 . S
C983 C982 1.400 . S
C983 C984 1.398 . S
C983 C989 1.491 . S
C984 H975 0.950 . S
C984 C983 1.398 . S
C984 C985 1.391 . S
C985 H973 0.950 . S
C985 C981 1.393 . S
C985 C984 1.391 . S
C986 H976 0.950 . S
C986 C987 1.386 . S
C986 C988 1.391 . S
C987 C986 1.386 . S
C987 C991 1.393 . S
C988 H977 0.950 . S
C988 C986 1.391 . S
C988 C989 1.400 . S
C989 C983 1.491 . S
C989 C988 1.400 . S
C989 C990 1.398 . S
C990 H978 0.950 . S
C990 C989 1.398 . S
C990 C991 1.391 . S
C991 H979 0.950 . S
C991 C987 1.393 . S
C991 C990 1.391 . S
H992 C1000 0.950 . S
H993 C1005 0.950 . S
H994 C1002 0.950 . S
H995 C1004 0.950 . S
H996 C1006 0.950 . S
H997 C1008 0.950 . S
H998 C1010 0.950 . S
H999 C1011 0.950 . S
C1000 H992 0.950 . S
C1000 C1001 1.386 . S
C1000 C1002 1.391 . S
C1001 C1000 1.386 . S
C1001 C1005 1.393 . S
C1002 H994 0.950 . S
C1002 C1000 1.391 . S
C1002 C1003 1.400 . S
C1003 C1002 1.400 . S
C1003 C1004 1.398 . S
C1003 C1009 1.491 . S
C1004 H995 0.950 . S
C1004 C1003 1.398 . S
C1004 C1005 1.391 . S
C1005 H993 0.950 . S
C1005 C1001 1.393 . S
C1005 C1004 1.391 . S
C1006 H996 0.950 . S
C1006 C1007 1.386 . S
C1006 C1008 1.391 . S
C1007 C1006 1.386 . S
C1007 C1011 1.393 . S
C1008 H997 0.950 . S
C1008 C1006 1.391 . S
C1008 C1009 1.400 . S
C1009 C1003 1.491 . S
C1009 C1008 1.400 . S
C1009 C1010 1.398 . S
C1010 H998 0.950 . S
C1010 C1009 1.398 . S
C1010 C1011 1.391 . S
C1011 H999 0.950 . S
C1011 C1007 1.393 . S
C1011 C1010 1.391 . S
H1012 C1020 0.950 . S
H1013 C1025 0.950 . S
H1014 C1022 0.950 . S
H1015 C1024 0.950 . S
H1016 C1026 0.950 . S
H1017 C1028 0.950 . S
H1018 C1030 0.950 . S
H1019 C1031 0.950 . S
C1020 H1012 0.950 . S
C1020 C1021 1.386 . S
C1020 C1022 1.391 . S
C1021 C1020 1.386 . S
C1021 C1025 1.393 . S
C1022 H1014 0.950 . S
C1022 C1020 1.391 . S
C1022 C1023 1.400 . S
C1023 C1022 1.400 . S
C1023 C1024 1.398 . S
C1023 C1029 1.491 . S
C1024 H1015 0.950 . S
C1024 C1023 1.398 . S
C1024 C1025 1.391 . S
C1025 H1013 0.950 . S
C1025 C1021 1.393 . S
C1025 C1024 1.391 . S
C1026 H1016 0.950 . S
C1026 C1027 1.386 . S
C1026 C1028 1.391 . S
C1027 C1026 1.386 . S
C1027 C1031 1.393 . S
C1028 H1017 0.950 . S
C1028 C1026 1.391 . S
C1028 C1029 1.400 . S
C1029 C1023 1.491 . S
C1029 C1028 1.400 . S
C1029 C1030 1.398 . S
C1030 H1018 0.950 . S
C1030 C1029 1.398 . S
C1030 C1031 1.391 . S
C1031 H1019 0.950 . S
C1031 C1027 1.393 . S
C1031 C1030 1.391 . S
H1032 C1040 0.950 . S
H1033 C1045 0.950 . S
H1034 C1042 0.950 . S
H1035 C1044 0.950 . S
H1036 C1046 0.950 . S
H1037 C1048 0.950 . S
H1038 C1050 0.950 . S
H1039 C1051 0.950 . S
C1040 H1032 0.950 . S
C1040 C1041 1.386 . S
C1040 C1042 1.391 . S
C1041 C1040 1.386 . S
C1041 C1045 1.393 . S
C1042 H1034 0.950 . S
C1042 C1040 1.391 . S
C1042 C1043 1.400 . S
C1043 C1042 1.400 . S
C1043 C1044 1.398 . S
C1043 C1049 1.491 . S
C1044 H1035 0.950 . S
C1044 C1043 1.398 . S
C1044 C1045 1.391 . S
C1045 H1033 0.950 . S
C1045 C1041 1.393 . S
C1045 C1044 1.391 . S
C1046 H1036 0.950 . S
C1046 C1047 1.386 . S
C1046 C1048 1.391 . S
C1047 C1046 1.386 . S
C1047 C1051 1.393 . S
C1048 H1037 0.950 . S
C1048 C1046 1.391 . S
C1048 C1049 1.400 . S
C1049 C1043 1.491 . S
C1049 C1048 1.400 . S
C1049 C1050 1.398 . S
C1050 H1038 0.950 . S
C1050 C1049 1.398 . S
C1050 C1051 1.391 . S
C1051 H1039 0.950 . S
C1051 C1047 1.393 . S
C1051 C1050 1.391 . S
H1052 C1060 0.950 . S
H1053 C1065 0.950 . S
H1054 C1062 0.950 . S
H1055 C1064 0.950 . S
H1056 C1066 0.950 . S
H1057 C1068 0.950 . S
H1058 C1070 0.950 . S
H1059 C1071 0.950 . S
C1060 H1052 0.950 . S
C1060 C1061 1.386 . S
C1060 C1062 1.391 . S
C1061 C1060 1.386 . S
C1061 C1065 1.393 . S
C1062 H1054 0.950 . S
C1062 C1060 1.391 . S
C1062 C1063 1.400 . S
C1063 C1062 1.400 . S
C1063 C1064 1.398 . S
C1063 C1069 1.491 . S
C1064 H1055 0.950 . S
C1064 C1063 1.398 . S
C1064 C1065 1.391 . S
C1065 H1053 0.950 . S
C1065 C1061 1.393 . S
C1065 C1064 1.391 . S
C1066 H1056 0.950 . S
C1066 C1067 1.386 . S
C1066 C1068 1.391 . S
C1067 C1066 1.386 . S
C1067 C1071 1.393 . S
C1068 H1057 0.950 . S
C1068 C1066 1.391 . S
C1068 C1069 1.400 . S
C1069 C1063 1.491 . S
C1069 C1068 1.400 . S
C1069 C1070 1.398 . S
C1070 H1058 0.950 . S
C1070 C1069 1.398 . S
C1070 C1071 1.391 . S
C1071 H1059 0.950 . S
C1071 C1067 1.393 . S
C1071 C1070 1.391 . S
H1072 C1080 0.950 . S
H1073 C1085 0.950 . S
H1074 C1082 0.950 . S
H1075 C1084 0.950 . S
H1076 C1086 0.950 . S
H1077 C1088 0.950 . S
H1078 C1090 0.950 . S
H1079 C1091 0.950 . S
C1080 H1072 0.950 . S
C1080 C1081 1.386 . S
C1080 C1082 1.391 . S
C1081 C1080 1.386 . S
C1081 C1085 1.393 . S
C1082 H1074 0.950 . S
C1082 C1080 1.391 . S
C1082 C1083 1.400 . S
C1083 C1082 1.400 . S
C1083 C1084 1.398 . S
C1083 C1089 1.491 . S
C1084 H1075 0.950 . S
C1084 C1083 1.398 . S
C1084 C1085 1.391 . S
C1085 H1073 0.950 . S
C1085 C1081 1.393 . S
C1085 C1084 1.391 . S
C1086 H1076 0.950 . S
C1086 C1087 1.386 . S
C1086 C1088 1.391 . S
C1087 C1086 1.386 . S
C1087 C1091 1.393 . S
C1088 H1077 0.950 . S
C1088 C1086 1.391 . S
C1088 C1089 1.400 . S
C1089 C1083 1.491 . S
C1089 C1088 1.400 . S
C1089 C1090 1.398 . S
C1090 H1078 0.950 . S
C1090 C1089 1.398 . S
C1090 C1091 1.391 . S
C1091 H1079 0.950 . S
C1091 C1087 1.393 . S
C1091 C1090 1.391 . S
H1092 C1100 0.950 . S
H1093 C1105 0.950 . S
H1094 C1102 0.950 . S
H1095 C1104 0.950 . S
H1096 C1106 0.950 . S
H1097 C1108 0.950 . S
H1098 C1110 0.950 . S
H1099 C1111 0.950 . S
C1100 H1092 0.950 . S
C1100 C1101 1.386 . S
C1100 C1102 1.391 . S
C1101 C1100 1.386 . S
C1101 C1105 1.393 . S
C1102 H1094 0.950 . S
C1102 C1100 1.391 . S
C1102 C1103 1.400 . S
C1103 C1102 1.400 . S
C1103 C1104 1.398 . S
C1103 C1109 1.491 . S
C1104 H1095 0.950 . S
C1104 C1103 1.398 . S
C1104 C1105 1.391 . S
C1105 H1093 0.950 . S
C1105 C1101 1.393 . S
C1105 C1104 1.391 . S
C1106 H1096 0.950 . S
C1106 C1107 1.386 . S
C1106 C1108 1.391 . S
C1107 C1106 1.386 . S
C1107 C1111 1.393 . S
C1108 H1097 0.950 . S
C1108 C1106 1.391 . S
C1108 C1109 1.400 . S
C1109 C1103 1.491 . S
C1109 C1108 1.400 . S
C1109 C1110 1.398 . S
C1110 H1098 0.950 . S
C1110 C1109 1.398 . S
C1110 C1111 1.391 . S
C1111 H1099 0.950 . S
C1111 C1107 1.393 . S
C1111 C1110 1.391 . S
H1112 C1120 0.950 . S
H1113 C1125 0.950 . S
H1114 C1122 0.950 . S
H1115 C1124 0.899 1_465 S
H1116 C1126 0.950 . S
H1117 C1128 0.950 1_565 S
H1118 C1130 0.950 . S
H1119 C1131 0.950 . S
C1120 H1112 0.950 . S
C1120 C1121 1.386 . S
C1120 C1122 1.391 . S
C1121 C1120 1.386 . S
C1121 C1125 1.393 1_545 S
C1122 H1114 0.950 . S
C1122 C1120 1.391 . S
C1122 C1123 1.400 . S
C1123 C1122 1.400 . S
C1123 C1124 1.438 . S
C1123 C1129 1.491 1_655 S
C1124 H1115 0.899 1_645 S
C1124 C1123 1.438 . S
C1124 C1125 1.383 1_545 S
C1125 H1113 0.950 . S
C1125 C1121 1.393 1_565 S
C1125 C1124 1.383 1_565 S
C1126 H1116 0.950 . S
C1126 C1127 1.386 . S
C1126 C1128 1.391 . S
C1127 C1126 1.386 . S
C1127 C1131 1.393 . S
C1128 H1117 0.950 1_545 S
C1128 C1126 1.391 . S
C1128 C1129 1.400 . S
C1129 C1123 1.491 1_455 S
C1129 C1128 1.400 . S
C1129 C1130 1.398 . S
C1130 H1118 0.950 . S
C1130 C1129 1.398 . S
C1130 C1131 1.391 . S
C1131 H1119 0.950 . S
C1131 C1127 1.393 . S
C1131 C1130 1.391 . S
H1132 C1140 0.950 . S
H1133 C1145 0.950 . S
H1134 C1142 0.950 . S
H1135 C1144 0.950 . S
H1136 C1146 0.950 . S
H1137 C1148 0.950 . S
H1138 C1150 0.950 . S
H1139 C1151 0.950 . S
C1140 H1132 0.950 . S
C1140 C1141 1.386 . S
C1140 C1142 1.391 . S
C1141 C1140 1.386 . S
C1141 C1145 1.393 . S
C1142 H1134 0.950 . S
C1142 C1140 1.391 . S
C1142 C1143 1.400 . S
C1143 C1142 1.400 . S
C1143 C1144 1.398 . S
C1143 C1149 1.491 . S
C1144 H1135 0.950 . S
C1144 C1143 1.398 . S
C1144 C1145 1.391 . S
C1145 H1133 0.950 . S
C1145 C1141 1.393 . S
C1145 C1144 1.391 . S
C1146 H1136 0.950 . S
C1146 C1147 1.386 . S
C1146 C1148 1.391 . S
C1147 C1146 1.386 . S
C1147 C1151 1.393 . S
C1148 H1137 0.950 . S
C1148 C1146 1.391 . S
C1148 C1149 1.400 . S
C1149 C1143 1.491 . S
C1149 C1148 1.400 . S
C1149 C1150 1.398 . S
C1150 H1138 0.950 . S
C1150 C1149 1.398 . S
C1150 C1151 1.391 . S
C1151 H1139 0.950 . S
C1151 C1147 1.393 . S
C1151 C1150 1.391 . S
H1152 C1160 0.950 . S
H1153 C1165 0.950 . S
H1154 C1162 0.950 . S
H1155 C1164 0.950 . S
H1156 C1166 0.950 . S
H1157 C1168 0.950 . S
H1158 C1170 0.950 . S
H1159 C1171 0.950 . S
C1160 H1152 0.950 . S
C1160 C1161 1.386 . S
C1160 C1162 1.391 . S
C1161 C1160 1.386 . S
C1161 C1165 1.393 1_545 S
C1162 H1154 0.950 . S
C1162 C1160 1.391 . S
C1162 C1163 1.400 . S
C1163 C1162 1.400 . S
C1163 C1164 1.398 1_545 S
C1163 C1169 1.491 . S
C1164 H1155 0.950 . S
C1164 C1163 1.398 1_565 S
C1164 C1165 1.391 . S
C1165 H1153 0.950 . S
C1165 C1161 1.393 1_565 S
C1165 C1164 1.391 . S
C1166 H1156 0.950 . S
C1166 C1167 1.386 1_565 S
C1166 C1168 1.391 . S
C1167 C1166 1.386 1_545 S
C1167 C1171 1.393 . S
C1168 H1157 0.950 . S
C1168 C1166 1.391 . S
C1168 C1169 1.400 1_565 S
C1169 C1163 1.491 . S
C1169 C1168 1.400 1_545 S
C1169 C1170 1.398 . S
C1170 H1158 0.950 . S
C1170 C1169 1.398 . S
C1170 C1171 1.391 . S
C1171 H1159 0.950 . S
C1171 C1167 1.393 . S
C1171 C1170 1.391 . S
H1172 C1180 0.950 . S
H1173 C1185 0.950 . S
H1174 C1182 0.950 . S
H1175 C1184 0.950 . S
H1176 C1186 0.950 . S
H1177 C1188 0.950 . S
H1178 C1190 0.950 . S
H1179 C1191 0.950 . S
C1180 H1172 0.950 . S
C1180 C1181 1.386 . S
C1180 C1182 1.391 . S
C1181 C1180 1.386 . S
C1181 C1185 1.393 . S
C1182 H1174 0.950 . S
C1182 C1180 1.391 . S
C1182 C1183 1.400 . S
C1183 C1182 1.400 . S
C1183 C1184 1.398 . S
C1183 C1189 1.491 . S
C1184 H1175 0.950 . S
C1184 C1183 1.398 . S
C1184 C1185 1.391 . S
C1185 H1173 0.950 . S
C1185 C1181 1.393 . S
C1185 C1184 1.391 . S
C1186 H1176 0.950 . S
C1186 C1187 1.386 . S
C1186 C1188 1.391 . S
C1187 C1186 1.386 . S
C1187 C1191 1.393 . S
C1188 H1177 0.950 . S
C1188 C1186 1.391 . S
C1188 C1189 1.400 . S
C1189 C1183 1.491 . S
C1189 C1188 1.400 . S
C1189 C1190 1.398 . S
C1190 H1178 0.950 . S
C1190 C1189 1.398 . S
C1190 C1191 1.391 . S
C1191 H1179 0.950 . S
C1191 C1187 1.393 . S
C1191 C1190 1.391 . S
H1192 C1200 0.950 . S
H1193 C1205 0.950 . S
H1194 C1202 0.893 1_455 S
H1195 C1204 0.950 . S
H1196 C1206 0.948 . S
H1197 C1208 0.950 . S
H1198 C1210 0.950 . S
H1199 C1211 0.950 . S
C1200 H1192 0.950 . S
C1200 C1201 1.386 . S
C1200 C1202 1.416 . S
C1201 C1200 1.386 . S
C1201 C1205 1.393 . S
C1202 H1194 0.893 1_655 S
C1202 C1200 1.416 . S
C1202 C1203 1.433 . S
C1203 C1202 1.433 . S
C1203 C1204 1.398 . S
C1203 C1209 1.491 1_655 S
C1204 H1195 0.950 . S
C1204 C1203 1.398 . S
C1204 C1205 1.391 . S
C1205 H1193 0.950 . S
C1205 C1201 1.393 . S
C1205 C1204 1.391 . S
C1206 H1196 0.948 . S
C1206 C1207 1.386 . S
C1206 C1208 1.391 1_455 S
C1207 C1206 1.386 . S
C1207 C1211 1.393 . S
C1208 H1197 0.950 . S
C1208 C1206 1.391 1_655 S
C1208 C1209 1.400 1_655 S
C1209 C1203 1.491 1_455 S
C1209 C1208 1.400 1_455 S
C1209 C1210 1.398 . S
C1210 H1198 0.950 . S
C1210 C1209 1.398 . S
C1210 C1211 1.391 . S
C1211 H1199 0.950 . S
C1211 C1207 1.393 . S
C1211 C1210 1.391 . S
H1212 C1220 0.950 . S
H1213 C1225 0.950 . S
H1214 C1222 0.950 . S
H1215 C1224 0.950 . S
H1216 C1226 0.950 . S
H1217 C1228 0.950 . S
H1218 C1230 0.950 . S
H1219 C1231 0.950 . S
C1220 H1212 0.950 . S
C1220 C1221 1.386 . S
C1220 C1222 1.391 . S
C1221 C1220 1.386 . S
C1221 C1225 1.393 . S
C1222 H1214 0.950 . S
C1222 C1220 1.391 . S
C1222 C1223 1.400 . S
C1223 C1222 1.400 . S
C1223 C1224 1.398 . S
C1223 C1229 1.491 . S
C1224 H1215 0.950 . S
C1224 C1223 1.398 . S
C1224 C1225 1.391 . S
C1225 H1213 0.950 . S
C1225 C1221 1.393 . S
C1225 C1224 1.391 . S
C1226 H1216 0.950 . S
C1226 C1227 1.386 . S
C1226 C1228 1.391 . S
C1227 C1226 1.386 . S
C1227 C1231 1.393 . S
C1228 H1217 0.950 . S
C1228 C1226 1.391 . S
C1228 C1229 1.400 . S
C1229 C1223 1.491 . S
C1229 C1228 1.400 . S
C1229 C1230 1.398 . S
C1230 H1218 0.950 . S
C1230 C1229 1.398 . S
C1230 C1231 1.391 . S
C1231 H1219 0.950 . S
C1231 C1227 1.393 . S
C1231 C1230 1.391 . S
H1232 C1240 0.950 . S
H1233 C1245 0.950 1_565 S
H1234 C1242 0.950 . S
H1235 C1244 0.950 . S
H1236 C1246 0.950 . S
H1237 C1248 0.950 . S
H1238 C1250 0.950 . S
H1239 C1251 0.950 . S
C1240 H1232 0.950 . S
C1240 C1241 1.386 . S
C1240 C1242 1.391 . S
C1241 C1240 1.386 . S
C1241 C1245 1.393 . S
C1242 H1234 0.950 . S
C1242 C1240 1.391 . S
C1242 C1243 1.400 . S
C1243 C1242 1.400 . S
C1243 C1244 1.398 . S
C1243 C1249 1.491 . S
C1244 H1235 0.950 . S
C1244 C1243 1.398 . S
C1244 C1245 1.391 . S
C1245 H1233 0.950 1_545 S
C1245 C1241 1.393 . S
C1245 C1244 1.391 . S
C1246 H1236 0.950 . S
C1246 C1247 1.386 . S
C1246 C1248 1.391 . S
C1247 C1246 1.386 . S
C1247 C1251 1.393 . S
C1248 H1237 0.950 . S
C1248 C1246 1.391 . S
C1248 C1249 1.400 . S
C1249 C1243 1.491 . S
C1249 C1248 1.400 . S
C1249 C1250 1.398 . S
C1250 H1238 0.950 . S
C1250 C1249 1.398 . S
C1250 C1251 1.391 . S
C1251 H1239 0.950 . S
C1251 C1247 1.393 . S
C1251 C1250 1.391 . S
H1252 C1260 0.950 . S
H1253 C1265 0.950 . S
H1254 C1262 0.950 . S
H1255 C1264 0.950 . S
H1256 C1266 0.950 . S
H1257 C1268 0.950 . S
H1258 C1270 0.950 . S
H1259 C1271 0.950 . S
C1260 H1252 0.950 . S
C1260 C1261 1.386 . S
C1260 C1262 1.391 . S
C1261 C1260 1.386 . S
C1261 C1265 1.393 . S
C1262 H1254 0.950 . S
C1262 C1260 1.391 . S
C1262 C1263 1.400 . S
C1263 C1262 1.400 . S
C1263 C1264 1.398 . S
C1263 C1269 1.491 . S
C1264 H1255 0.950 . S
C1264 C1263 1.398 . S
C1264 C1265 1.391 . S
C1265 H1253 0.950 . S
C1265 C1261 1.393 . S
C1265 C1264 1.391 . S
C1266 H1256 0.950 . S
C1266 C1267 1.386 . S
C1266 C1268 1.391 . S
C1267 C1266 1.386 . S
C1267 C1271 1.393 . S
C1268 H1257 0.950 . S
C1268 C1266 1.391 . S
C1268 C1269 1.400 . S
C1269 C1263 1.491 . S
C1269 C1268 1.400 . S
C1269 C1270 1.398 . S
C1270 H1258 0.950 . S
C1270 C1269 1.398 . S
C1270 C1271 1.391 . S
C1271 H1259 0.950 . S
C1271 C1267 1.393 . S
C1271 C1270 1.391 . S
H1272 C1280 0.956 . S
H1273 C1285 0.950 . S
H1274 C1282 0.950 . S
H1275 C1284 0.950 . S
H1276 C1286 0.950 . S
H1277 C1288 0.950 . S
H1278 C1290 0.950 . S
H1279 C1291 0.950 . S
C1280 H1272 0.956 . S
C1280 C1281 1.386 . S
C1280 C1282 1.391 . S
C1281 C1280 1.386 . S
C1281 C1285 1.393 . S
C1282 H1274 0.950 . S
C1282 C1280 1.391 . S
C1282 C1283 1.400 . S
C1283 C1282 1.400 . S
C1283 C1284 1.398 . S
C1283 C1289 1.491 . S
C1284 H1275 0.950 . S
C1284 C1283 1.398 . S
C1284 C1285 1.391 . S
C1285 H1273 0.950 . S
C1285 C1281 1.393 . S
C1285 C1284 1.391 . S
C1286 H1276 0.950 . S
C1286 C1287 1.386 . S
C1286 C1288 1.391 . S
C1287 C1286 1.386 . S
C1287 C1291 1.393 . S
C1288 H1277 0.950 . S
C1288 C1286 1.391 . S
C1288 C1289 1.400 . S
C1289 C1283 1.491 . S
C1289 C1288 1.400 . S
C1289 C1290 1.398 . S
C1290 H1278 0.950 . S
C1290 C1289 1.398 . S
C1290 C1291 1.391 . S
C1291 H1279 0.950 . S
C1291 C1287 1.393 . S
C1291 C1290 1.391 . S
H1292 C1300 0.950 . S
H1293 C1305 0.950 . S
H1294 C1302 0.950 . S
H1295 C1304 0.950 . S
H1296 C1306 0.950 . S
H1297 C1308 0.950 . S
H1298 C1310 0.950 . S
H1299 C1311 0.950 . S
C1300 H1292 0.950 . S
C1300 C1301 1.386 . S
C1300 C1302 1.391 . S
C1301 C1300 1.386 . S
C1301 C1305 1.393 . S
C1302 H1294 0.950 . S
C1302 C1300 1.391 . S
C1302 C1303 1.400 . S
C1303 C1302 1.400 . S
C1303 C1304 1.398 . S
C1303 C1309 1.491 . S
C1304 H1295 0.950 . S
C1304 C1303 1.398 . S
C1304 C1305 1.391 . S
C1305 H1293 0.950 . S
C1305 C1301 1.393 . S
C1305 C1304 1.391 . S
C1306 H1296 0.950 . S
C1306 C1307 1.386 . S
C1306 C1308 1.391 . S
C1307 C1306 1.386 . S
C1307 C1311 1.393 . S
C1308 H1297 0.950 . S
C1308 C1306 1.391 . S
C1308 C1309 1.400 . S
C1309 C1303 1.491 . S
C1309 C1308 1.400 . S
C1309 C1310 1.398 . S
C1310 H1298 0.950 . S
C1310 C1309 1.398 . S
C1310 C1311 1.391 . S
C1311 H1299 0.950 . S
C1311 C1307 1.393 . S
C1311 C1310 1.391 . S
H1312 C1320 0.950 . S
H1313 C1325 0.950 . S
H1314 C1322 0.950 . S
H1315 C1324 0.950 . S
H1316 C1326 0.950 . S
H1317 C1328 0.950 . S
H1318 C1330 0.950 . S
H1319 C1331 0.950 . S
C1320 H1312 0.950 . S
C1320 C1321 1.386 . S
C1320 C1322 1.391 . S
C1321 C1320 1.386 . S
C1321 C1325 1.393 . S
C1322 H1314 0.950 . S
C1322 C1320 1.391 . S
C1322 C1323 1.400 . S
C1323 C1322 1.400 . S
C1323 C1324 1.398 . S
C1323 C1329 1.491 . S
C1324 H1315 0.950 . S
C1324 C1323 1.398 . S
C1324 C1325 1.391 . S
C1325 H1313 0.950 . S
C1325 C1321 1.393 . S
C1325 C1324 1.391 . S
C1326 H1316 0.950 . S
C1326 C1327 1.386 . S
C1326 C1328 1.391 . S
C1327 C1326 1.386 . S
C1327 C1331 1.393 . S
C1328 H1317 0.950 . S
C1328 C1326 1.391 . S
C1328 C1329 1.400 . S
C1329 C1323 1.491 . S
C1329 C1328 1.400 . S
C1329 C1330 1.398 . S
C1330 H1318 0.950 . S
C1330 C1329 1.398 . S
C1330 C1331 1.391 . S
C1331 H1319 0.950 . S
C1331 C1327 1.393 . S
C1331 C1330 1.391 . S
H1332 C1340 0.950 . S
H1333 C1345 0.950 . S
H1334 C1342 0.950 . S
H1335 C1344 0.950 . S
H1336 C1346 0.950 . S
H1337 C1348 0.950 . S
H1338 C1350 0.950 . S
H1339 C1351 0.950 . S
C1340 H1332 0.950 . S
C1340 C1341 1.386 . S
C1340 C1342 1.391 . S
C1341 C1340 1.386 . S
C1341 C1345 1.393 . S
C1342 H1334 0.950 . S
C1342 C1340 1.391 . S
C1342 C1343 1.400 . S
C1343 C1342 1.400 . S
C1343 C1344 1.398 . S
C1343 C1349 1.491 . S
C1344 H1335 0.950 . S
C1344 C1343 1.398 . S
C1344 C1345 1.391 . S
C1345 H1333 0.950 . S
C1345 C1341 1.393 . S
C1345 C1344 1.391 . S
C1346 H1336 0.950 . S
C1346 C1347 1.386 . S
C1346 C1348 1.391 . S
C1347 C1346 1.386 . S
C1347 C1351 1.393 . S
C1348 H1337 0.950 . S
C1348 C1346 1.391 . S
C1348 C1349 1.400 . S
C1349 C1343 1.491 . S
C1349 C1348 1.400 . S
C1349 C1350 1.398 . S
C1350 H1338 0.950 . S
C1350 C1349 1.398 . S
C1350 C1351 1.391 . S
C1351 H1339 0.950 . S
C1351 C1347 1.393 . S
C1351 C1350 1.391 . S
H1352 C1360 0.950 . S
H1353 C1365 0.950 . S
H1354 C1362 0.950 . S
H1355 C1364 0.950 . S
H1356 C1366 0.950 . S
H1357 C1368 0.950 . S
H1358 C1370 0.950 . S
H1359 C1371 0.950 . S
C1360 H1352 0.950 . S
C1360 C1361 1.386 . S
C1360 C1362 1.391 . S
C1361 C1360 1.386 . S
C1361 C1365 1.393 . S
C1362 H1354 0.950 . S
C1362 C1360 1.391 . S
C1362 C1363 1.400 . S
C1363 C1362 1.400 . S
C1363 C1364 1.398 . S
C1363 C1369 1.491 . S
C1364 H1355 0.950 . S
C1364 C1363 1.398 . S
C1364 C1365 1.391 . S
C1365 H1353 0.950 . S
C1365 C1361 1.393 . S
C1365 C1364 1.391 . S
C1366 H1356 0.950 . S
C1366 C1367 1.386 . S
C1366 C1368 1.391 . S
C1367 C1366 1.386 . S
C1367 C1371 1.393 . S
C1368 H1357 0.950 . S
C1368 C1366 1.391 . S
C1368 C1369 1.400 . S
C1369 C1363 1.491 . S
C1369 C1368 1.400 . S
C1369 C1370 1.398 . S
C1370 H1358 0.950 . S
C1370 C1369 1.398 . S
C1370 C1371 1.391 . S
C1371 H1359 0.950 . S
C1371 C1367 1.393 . S
C1371 C1370 1.391 . S
H1372 C1380 0.950 . S
H1373 C1385 0.950 . S
H1374 C1382 0.950 . S
H1375 C1384 0.950 . S
H1376 C1386 0.950 . S
H1377 C1388 0.950 . S
H1378 C1390 0.950 . S
H1379 C1391 0.950 . S
C1380 H1372 0.950 . S
C1380 C1381 1.386 . S
C1380 C1382 1.391 . S
C1381 C1380 1.386 . S
C1381 C1385 1.393 . S
C1382 H1374 0.950 . S
C1382 C1380 1.391 . S
C1382 C1383 1.400 . S
C1383 C1382 1.400 . S
C1383 C1384 1.398 . S
C1383 C1389 1.491 . S
C1384 H1375 0.950 . S
C1384 C1383 1.398 . S
C1384 C1385 1.391 . S
C1385 H1373 0.950 . S
C1385 C1381 1.393 . S
C1385 C1384 1.391 . S
C1386 H1376 0.950 . S
C1386 C1387 1.386 . S
C1386 C1388 1.391 . S
C1387 C1386 1.386 . S
C1387 C1391 1.393 . S
C1388 H1377 0.950 . S
C1388 C1386 1.391 . S
C1388 C1389 1.400 . S
C1389 C1383 1.491 . S
C1389 C1388 1.400 . S
C1389 C1390 1.398 . S
C1390 H1378 0.950 . S
C1390 C1389 1.398 . S
C1390 C1391 1.391 . S
C1391 H1379 0.950 . S
C1391 C1387 1.393 . S
C1391 C1390 1.391 . S
H1392 C1400 0.950 . S
H1393 C1405 0.950 . S
H1394 C1402 0.950 . S
H1395 C1404 0.950 . S
H1396 C1406 0.950 . S
H1397 C1408 0.950 . S
H1398 C1410 0.950 . S
H1399 C1411 0.950 . S
C1400 H1392 0.950 . S
C1400 C1401 1.386 . S
C1400 C1402 1.391 . S
C1401 C1400 1.386 . S
C1401 C1405 1.393 . S
C1402 H1394 0.950 . S
C1402 C1400 1.391 . S
C1402 C1403 1.400 . S
C1403 C1402 1.400 . S
C1403 C1404 1.398 . S
C1403 C1409 1.491 . S
C1404 H1395 0.950 . S
C1404 C1403 1.398 . S
C1404 C1405 1.391 . S
C1405 H1393 0.950 . S
C1405 C1401 1.393 . S
C1405 C1404 1.391 . S
C1406 H1396 0.950 . S
C1406 C1407 1.386 . S
C1406 C1408 1.391 . S
C1407 C1406 1.386 . S
C1407 C1411 1.393 . S
C1408 H1397 0.950 . S
C1408 C1406 1.391 . S
C1408 C1409 1.400 . S
C1409 C1403 1.491 . S
C1409 C1408 1.400 . S
C1409 C1410 1.398 . S
C1410 H1398 0.950 . S
C1410 C1409 1.398 . S
C1410 C1411 1.391 . S
C1411 H1399 0.950 . S
C1411 C1407 1.393 . S
C1411 C1410 1.391 . S
H1412 C1420 0.950 . S
H1413 C1425 0.950 . S
H1414 C1422 0.950 . S
H1415 C1424 0.950 . S
H1416 C1426 0.950 . S
H1417 C1428 0.950 . S
H1418 C1430 0.950 . S
H1419 C1431 0.950 . S
C1420 H1412 0.950 . S
C1420 C1421 1.386 . S
C1420 C1422 1.391 . S
C1421 C1420 1.386 . S
C1421 C1425 1.393 . S
C1422 H1414 0.950 . S
C1422 C1420 1.391 . S
C1422 C1423 1.400 . S
C1423 C1422 1.400 . S
C1423 C1424 1.398 . S
C1423 C1429 1.491 . S
C1424 H1415 0.950 . S
C1424 C1423 1.398 . S
C1424 C1425 1.391 . S
C1425 H1413 0.950 . S
C1425 C1421 1.393 . S
C1425 C1424 1.391 . S
C1426 H1416 0.950 . S
C1426 C1427 1.386 . S
C1426 C1428 1.391 . S
C1427 C1426 1.386 . S
C1427 C1431 1.393 . S
C1428 H1417 0.950 . S
C1428 C1426 1.391 . S
C1428 C1429 1.400 . S
C1429 C1423 1.491 . S
C1429 C1428 1.400 . S
C1429 C1430 1.398 . S
C1430 H1418 0.950 . S
C1430 C1429 1.398 . S
C1430 C1431 1.391 . S
C1431 H1419 0.950 . S
C1431 C1427 1.393 . S
C1431 C1430 1.391 . S
H1432 C1440 0.950 . S
H1433 C1445 0.950 . S
H1434 C1442 0.950 . S
H1435 C1444 0.950 . S
H1436 C1446 0.950 . S
H1437 C1448 0.950 . S
H1438 C1450 0.950 . S
H1439 C1451 0.950 . S
C1440 H1432 0.950 . S
C1440 C1441 1.386 . S
C1440 C1442 1.391 . S
C1441 C1440 1.386 . S
C1441 C1445 1.393 . S
C1442 H1434 0.950 . S
C1442 C1440 1.391 . S
C1442 C1443 1.400 . S
C1443 C1442 1.400 . S
C1443 C1444 1.398 . S
C1443 C1449 1.491 . S
C1444 H1435 0.950 . S
C1444 C1443 1.398 . S
C1444 C1445 1.391 . S
C1445 H1433 0.950 . S
C1445 C1441 1.393 . S
C1445 C1444 1.391 . S
C1446 H1436 0.950 . S
C1446 C1447 1.386 . S
C1446 C1448 1.391 . S
C1447 C1446 1.386 . S
C1447 C1451 1.393 . S
C1448 H1437 0.950 . S
C1448 C1446 1.391 . S
C1448 C1449 1.400 . S
C1449 C1443 1.491 . S
C1449 C1448 1.400 . S
C1449 C1450 1.398 . S
C1450 H1438 0.950 . S
C1450 C1449 1.398 . S
C1450 C1451 1.391 . S
C1451 H1439 0.950 . S
C1451 C1447 1.393 . S
C1451 C1450 1.391 . S
H1452 C1460 0.950 . S
H1453 C1465 0.950 . S
H1454 C1462 0.950 . S
H1455 C1464 0.950 . S
H1456 C1466 0.950 . S
H1457 C1468 0.950 . S
H1458 C1470 0.950 . S
H1459 C1471 0.950 . S
C1460 H1452 0.950 . S
C1460 C1461 1.386 . S
C1460 C1462 1.391 . S
C1461 C1460 1.386 . S
C1461 C1465 1.393 . S
C1462 H1454 0.950 . S
C1462 C1460 1.391 . S
C1462 C1463 1.400 . S
C1463 C1462 1.400 . S
C1463 C1464 1.398 . S
C1463 C1469 1.491 . S
C1464 H1455 0.950 . S
C1464 C1463 1.398 . S
C1464 C1465 1.391 . S
C1465 H1453 0.950 . S
C1465 C1461 1.393 . S
C1465 C1464 1.391 . S
C1466 H1456 0.950 . S
C1466 C1467 1.386 . S
C1466 C1468 1.391 . S
C1467 C1466 1.386 . S
C1467 C1471 1.393 . S
C1468 H1457 0.950 . S
C1468 C1466 1.391 . S
C1468 C1469 1.400 . S
C1469 C1463 1.491 . S
C1469 C1468 1.400 . S
C1469 C1470 1.398 . S
C1470 H1458 0.950 . S
C1470 C1469 1.398 . S
C1470 C1471 1.391 . S
C1471 H1459 0.950 . S
C1471 C1467 1.393 . S
C1471 C1470 1.391 . S
H1472 C1480 0.950 . S
H1473 C1485 0.950 . S
H1474 C1482 0.950 . S
H1475 C1484 0.950 . S
H1476 C1486 0.950 . S
H1477 C1488 0.950 . S
H1478 C1490 0.950 . S
H1479 C1491 0.950 . S
C1480 H1472 0.950 . S
C1480 C1481 1.386 . S
C1480 C1482 1.391 . S
C1481 C1480 1.386 . S
C1481 C1485 1.393 . S
C1482 H1474 0.950 . S
C1482 C1480 1.391 . S
C1482 C1483 1.400 . S
C1483 C1482 1.400 . S
C1483 C1484 1.398 . S
C1483 C1489 1.491 . S
C1484 H1475 0.950 . S
C1484 C1483 1.398 . S
C1484 C1485 1.391 . S
C1485 H1473 0.950 . S
C1485 C1481 1.393 . S
C1485 C1484 1.391 . S
C1486 H1476 0.950 . S
C1486 C1487 1.386 . S
C1486 C1488 1.391 . S
C1487 C1486 1.386 . S
C1487 C1491 1.393 . S
C1488 H1477 0.950 . S
C1488 C1486 1.391 . S
C1488 C1489 1.400 . S
C1489 C1483 1.491 . S
C1489 C1488 1.400 . S
C1489 C1490 1.398 . S
C1490 H1478 0.950 . S
C1490 C1489 1.398 . S
C1490 C1491 1.391 . S
C1491 H1479 0.950 . S
C1491 C1487 1.393 . S
C1491 C1490 1.391 . S
H1492 C1500 0.950 . S
H1493 C1505 0.950 . S
H1494 C1502 0.950 . S
H1495 C1504 0.950 . S
H1496 C1506 0.950 . S
H1497 C1508 0.950 . S
H1498 C1510 0.950 . S
H1499 C1511 0.950 . S
C1500 H1492 0.950 . S
C1500 C1501 1.386 . S
C1500 C1502 1.391 . S
C1501 C1500 1.386 . S
C1501 C1505 1.393 . S
C1502 H1494 0.950 . S
C1502 C1500 1.391 . S
C1502 C1503 1.400 . S
C1503 C1502 1.400 . S
C1503 C1504 1.398 . S
C1503 C1509 1.491 . S
C1504 H1495 0.950 . S
C1504 C1503 1.398 . S
C1504 C1505 1.391 . S
C1505 H1493 0.950 . S
C1505 C1501 1.393 . S
C1505 C1504 1.391 . S
C1506 H1496 0.950 . S
C1506 C1507 1.386 . S
C1506 C1508 1.391 . S
C1507 C1506 1.386 . S
C1507 C1511 1.393 . S
C1508 H1497 0.950 . S
C1508 C1506 1.391 . S
C1508 C1509 1.400 . S
C1509 C1503 1.491 . S
C1509 C1508 1.400 . S
C1509 C1510 1.398 . S
C1510 H1498 0.950 . S
C1510 C1509 1.398 . S
C1510 C1511 1.391 . S
C1511 H1499 0.950 . S
C1511 C1507 1.393 . S
C1511 C1510 1.391 . S
H1512 C1520 0.950 . S
H1513 C1525 0.950 . S
H1514 C1522 0.950 . S
H1515 C1524 0.950 . S
H1516 C1526 0.950 . S
H1517 C1528 0.950 . S
H1518 C1530 0.964 . S
H1519 C1531 0.945 1_655 S
C1520 H1512 0.950 . S
C1520 C1521 1.386 1_655 S
C1520 C1522 1.391 . S
C1521 C1520 1.386 1_455 S
C1521 C1525 1.393 . S
C1522 H1514 0.950 . S
C1522 C1520 1.391 . S
C1522 C1523 1.400 1_655 S
C1523 C1522 1.400 1_455 S
C1523 C1524 1.398 . S
C1523 C1529 1.491 . S
C1524 H1515 0.950 . S
C1524 C1523 1.398 . S
C1524 C1525 1.391 . S
C1525 H1513 0.950 . S
C1525 C1521 1.393 . S
C1525 C1524 1.391 . S
C1526 H1516 0.950 . S
C1526 C1527 1.386 . S
C1526 C1528 1.391 . S
C1527 C1526 1.386 . S
C1527 C1531 1.401 . S
C1528 H1517 0.950 . S
C1528 C1526 1.391 . S
C1528 C1529 1.400 . S
C1529 C1523 1.491 . S
C1529 C1528 1.400 . S
C1529 C1530 1.390 1_455 S
C1530 H1518 0.964 . S
C1530 C1529 1.390 1_655 S
C1530 C1531 1.384 1_655 S
C1531 H1519 0.945 1_455 S
C1531 C1527 1.401 . S
C1531 C1530 1.384 1_455 S
H1532 C1540 0.950 . S
H1533 C1545 0.950 . S
H1534 C1542 0.950 . S
H1535 C1544 0.950 . S
H1536 C1546 0.950 . S
H1537 C1548 0.950 . S
H1538 C1550 0.950 . S
H1539 C1551 0.950 . S
C1540 H1532 0.950 . S
C1540 C1541 1.386 . S
C1540 C1542 1.391 . S
C1541 C1540 1.386 . S
C1541 C1545 1.393 . S
C1542 H1534 0.950 . S
C1542 C1540 1.391 . S
C1542 C1543 1.400 . S
C1543 C1542 1.400 . S
C1543 C1544 1.398 . S
C1543 C1549 1.491 . S
C1544 H1535 0.950 . S
C1544 C1543 1.398 . S
C1544 C1545 1.391 . S
C1545 H1533 0.950 . S
C1545 C1541 1.393 . S
C1545 C1544 1.391 . S
C1546 H1536 0.950 . S
C1546 C1547 1.386 . S
C1546 C1548 1.391 . S
C1547 C1546 1.386 . S
C1547 C1551 1.393 . S
C1548 H1537 0.950 . S
C1548 C1546 1.391 . S
C1548 C1549 1.400 . S
C1549 C1543 1.491 . S
C1549 C1548 1.400 . S
C1549 C1550 1.398 . S
C1550 H1538 0.950 . S
C1550 C1549 1.398 . S
C1550 C1551 1.391 . S
C1551 H1539 0.950 . S
C1551 C1547 1.393 . S
C1551 C1550 1.391 . S
H1552 C1560 0.950 . S
H1553 C1565 0.950 . S
H1554 C1562 0.950 . S
H1555 C1564 0.950 . S
H1556 C1566 0.950 1_554 S
H1557 C1568 0.950 . S
H1558 C1570 0.950 . S
H1559 C1571 0.950 . S
C1560 H1552 0.950 . S
C1560 C1561 1.386 . S
C1560 C1562 1.391 . S
C1561 C1560 1.386 . S
C1561 C1565 1.393 . S
C1562 H1554 0.950 . S
C1562 C1560 1.391 . S
C1562 C1563 1.400 . S
C1563 C1562 1.400 . S
C1563 C1564 1.398 . S
C1563 C1569 1.491 . S
C1564 H1555 0.950 . S
C1564 C1563 1.398 . S
C1564 C1565 1.391 . S
C1565 H1553 0.950 . S
C1565 C1561 1.393 . S
C1565 C1564 1.391 . S
C1566 H1556 0.950 1_556 S
C1566 C1567 1.386 . S
C1566 C1568 1.391 . S
C1567 C1566 1.386 . S
C1567 C1571 1.393 . S
C1568 H1557 0.950 . S
C1568 C1566 1.391 . S
C1568 C1569 1.400 . S
C1569 C1563 1.491 . S
C1569 C1568 1.400 . S
C1569 C1570 1.398 . S
C1570 H1558 0.950 . S
C1570 C1569 1.398 . S
C1570 C1571 1.391 . S
C1571 H1559 0.950 . S
C1571 C1567 1.393 . S
C1571 C1570 1.391 . S
H1572 C1580 0.950 . S
H1573 C1585 0.950 . S
H1574 C1582 0.950 . S
H1575 C1584 0.950 . S
H1576 C1586 0.950 . S
H1577 C1588 0.950 . S
H1578 C1590 0.950 . S
H1579 C1591 0.950 . S
C1580 H1572 0.950 . S
C1580 C1581 1.386 . S
C1580 C1582 1.391 1_455 S
C1581 C1580 1.386 . S
C1581 C1585 1.393 . S
C1582 H1574 0.950 . S
C1582 C1580 1.391 1_655 S
C1582 C1583 1.400 . S
C1583 C1582 1.400 . S
C1583 C1584 1.398 . S
C1583 C1589 1.491 . S
C1584 H1575 0.950 . S
C1584 C1583 1.398 . S
C1584 C1585 1.391 1_655 S
C1585 H1573 0.950 . S
C1585 C1581 1.393 . S
C1585 C1584 1.391 1_455 S
C1586 H1576 0.950 . S
C1586 C1587 1.386 . S
C1586 C1588 1.391 . S
C1587 C1586 1.386 . S
C1587 C1591 1.393 . S
C1588 H1577 0.950 . S
C1588 C1586 1.391 . S
C1588 C1589 1.400 . S
C1589 C1583 1.491 . S
C1589 C1588 1.400 . S
C1589 C1590 1.398 . S
C1590 H1578 0.950 . S
C1590 C1589 1.398 . S
C1590 C1591 1.391 . S
C1591 H1579 0.950 . S
C1591 C1587 1.393 . S
C1591 C1590 1.391 . S
H1592 C1600 0.950 . S
H1593 C1605 0.950 . S
H1594 C1602 0.950 . S
H1595 C1604 0.950 . S
H1596 C1606 0.950 . S
H1597 C1608 0.950 . S
H1598 C1610 0.950 . S
H1599 C1611 0.950 . S
C1600 H1592 0.950 . S
C1600 C1601 1.386 . S
C1600 C1602 1.391 . S
C1601 C1600 1.386 . S
C1601 C1605 1.393 . S
C1602 H1594 0.950 . S
C1602 C1600 1.391 . S
C1602 C1603 1.400 . S
C1603 C1602 1.400 . S
C1603 C1604 1.398 . S
C1603 C1609 1.491 . S
C1604 H1595 0.950 . S
C1604 C1603 1.398 . S
C1604 C1605 1.391 . S
C1605 H1593 0.950 . S
C1605 C1601 1.393 . S
C1605 C1604 1.391 . S
C1606 H1596 0.950 . S
C1606 C1607 1.386 . S
C1606 C1608 1.391 . S
C1607 C1606 1.386 . S
C1607 C1611 1.393 . S
C1608 H1597 0.950 . S
C1608 C1606 1.391 . S
C1608 C1609 1.400 . S
C1609 C1603 1.491 . S
C1609 C1608 1.400 . S
C1609 C1610 1.398 . S
C1610 H1598 0.950 . S
C1610 C1609 1.398 . S
C1610 C1611 1.391 . S
C1611 H1599 0.950 . S
C1611 C1607 1.393 . S
C1611 C1610 1.391 . S
H1612 C1620 0.950 . S
H1613 C1625 0.950 . S
H1614 C1622 0.950 . S
H1615 C1624 0.950 . S
H1616 C1626 0.950 . S
H1617 C1628 0.950 . S
H1618 C1630 0.950 . S
H1619 C1631 0.950 . S
C1620 H1612 0.950 . S
C1620 C1621 1.386 . S
C1620 C1622 1.391 . S
C1621 C1620 1.386 . S
C1621 C1625 1.393 . S
C1622 H1614 0.950 . S
C1622 C1620 1.391 . S
C1622 C1623 1.400 . S
C1623 C1622 1.400 . S
C1623 C1624 1.398 . S
C1623 C1629 1.491 . S
C1624 H1615 0.950 . S
C1624 C1623 1.398 . S
C1624 C1625 1.391 . S
C1625 H1613 0.950 . S
C1625 C1621 1.393 . S
C1625 C1624 1.391 . S
C1626 H1616 0.950 . S
C1626 C1627 1.386 . S
C1626 C1628 1.391 . S
C1627 C1626 1.386 . S
C1627 C1631 1.393 . S
C1628 H1617 0.950 . S
C1628 C1626 1.391 . S
C1628 C1629 1.400 . S
C1629 C1623 1.491 . S
C1629 C1628 1.400 . S
C1629 C1630 1.398 . S
C1630 H1618 0.950 . S
C1630 C1629 1.398 . S
C1630 C1631 1.391 . S
C1631 H1619 0.950 . S
C1631 C1627 1.393 . S
C1631 C1630 1.391 . S
H1632 C1640 0.950 . S
H1633 C1645 0.950 . S
H1634 C1642 0.950 . S
H1635 C1644 0.950 . S
H1636 C1646 0.950 1_565 S
H1637 C1648 0.950 1_565 S
H1638 C1650 0.950 . S
H1639 C1651 0.950 . S
C1640 H1632 0.950 . S
C1640 C1641 1.386 . S
C1640 C1642 1.391 . S
C1641 C1640 1.386 . S
C1641 C1645 1.393 . S
C1642 H1634 0.950 . S
C1642 C1640 1.391 . S
C1642 C1643 1.400 . S
C1643 C1642 1.400 . S
C1643 C1644 1.398 . S
C1643 C1649 1.491 . S
C1644 H1635 0.950 . S
C1644 C1643 1.398 . S
C1644 C1645 1.391 . S
C1645 H1633 0.950 . S
C1645 C1641 1.393 . S
C1645 C1644 1.391 . S
C1646 H1636 0.950 1_545 S
C1646 C1647 1.386 . S
C1646 C1648 1.391 . S
C1647 C1646 1.386 . S
C1647 C1651 1.393 . S
C1648 H1637 0.950 1_545 S
C1648 C1646 1.391 . S
C1648 C1649 1.400 . S
C1649 C1643 1.491 . S
C1649 C1648 1.400 . S
C1649 C1650 1.398 . S
C1650 H1638 0.950 . S
C1650 C1649 1.398 . S
C1650 C1651 1.391 . S
C1651 H1639 0.950 . S
C1651 C1647 1.393 . S
C1651 C1650 1.391 . S
H1652 C1660 0.950 . S
H1653 C1665 0.950 . S
H1654 C1662 0.950 . S
H1655 C1664 0.950 . S
H1656 C1666 0.950 . S
H1657 C1668 0.950 . S
H1658 C1670 0.950 . S
H1659 C1671 0.950 . S
C1660 H1652 0.950 . S
C1660 C1661 1.386 . S
C1660 C1662 1.391 . S
C1661 C1660 1.386 . S
C1661 C1665 1.393 . S
C1662 H1654 0.950 . S
C1662 C1660 1.391 . S
C1662 C1663 1.400 . S
C1663 C1662 1.400 . S
C1663 C1664 1.398 . S
C1663 C1669 1.491 . S
C1664 H1655 0.950 . S
C1664 C1663 1.398 . S
C1664 C1665 1.391 . S
C1665 H1653 0.950 . S
C1665 C1661 1.393 . S
C1665 C1664 1.391 . S
C1666 H1656 0.950 . S
C1666 C1667 1.386 . S
C1666 C1668 1.391 . S
C1667 C1666 1.386 . S
C1667 C1671 1.393 . S
C1668 H1657 0.950 . S
C1668 C1666 1.391 . S
C1668 C1669 1.400 . S
C1669 C1663 1.491 . S
C1669 C1668 1.400 . S
C1669 C1670 1.398 . S
C1670 H1658 0.950 . S
C1670 C1669 1.398 . S
C1670 C1671 1.391 . S
C1671 H1659 0.950 . S
C1671 C1667 1.393 . S
C1671 C1670 1.391 . S
H1672 C1680 0.950 . S
H1673 C1685 0.950 . S
H1674 C1682 0.950 . S
H1675 C1684 0.950 . S
H1676 C1686 0.950 1_565 S
H1677 C1688 0.971 . S
H1678 C1690 0.950 . S
H1679 C1691 0.950 . S
C1680 H1672 0.950 . S
C1680 C1681 1.386 . S
C1680 C1682 1.391 . S
C1681 C1680 1.386 . S
C1681 C1685 1.393 . S
C1682 H1674 0.950 . S
C1682 C1680 1.391 . S
C1682 C1683 1.400 . S
C1683 C1682 1.400 . S
C1683 C1684 1.398 . S
C1683 C1689 1.491 . S
C1684 H1675 0.950 . S
C1684 C1683 1.398 . S
C1684 C1685 1.391 . S
C1685 H1673 0.950 . S
C1685 C1681 1.393 . S
C1685 C1684 1.391 . S
C1686 H1676 0.950 1_545 S
C1686 C1687 1.386 . S
C1686 C1688 1.391 . S
C1687 C1686 1.386 . S
C1687 C1691 1.393 . S
C1688 H1677 0.971 . S
C1688 C1686 1.391 . S
C1688 C1689 1.400 . S
C1689 C1683 1.491 . S
C1689 C1688 1.400 . S
C1689 C1690 1.398 . S
C1690 H1678 0.950 . S
C1690 C1689 1.398 . S
C1690 C1691 1.391 . S
C1691 H1679 0.950 . S
C1691 C1687 1.393 . S
C1691 C1690 1.391 . S
H1692 C1700 0.950 . S
H1693 C1705 0.950 . S
H1694 C1702 0.950 . S
H1695 C1704 0.950 . S
H1696 C1706 0.950 . S
H1697 C1708 0.950 . S
H1698 C1710 0.950 . S
H1699 C1711 0.950 . S
C1700 H1692 0.950 . S
C1700 C1701 1.386 . S
C1700 C1702 1.391 . S
C1701 C1700 1.386 . S
C1701 C1705 1.393 . S
C1702 H1694 0.950 . S
C1702 C1700 1.391 . S
C1702 C1703 1.400 . S
C1703 C1702 1.400 . S
C1703 C1704 1.398 . S
C1703 C1709 1.491 . S
C1704 H1695 0.950 . S
C1704 C1703 1.398 . S
C1704 C1705 1.391 . S
C1705 H1693 0.950 . S
C1705 C1701 1.393 . S
C1705 C1704 1.391 . S
C1706 H1696 0.950 . S
C1706 C1707 1.386 . S
C1706 C1708 1.391 . S
C1707 C1706 1.386 . S
C1707 C1711 1.393 . S
C1708 H1697 0.950 . S
C1708 C1706 1.391 . S
C1708 C1709 1.400 . S
C1709 C1703 1.491 . S
C1709 C1708 1.400 . S
C1709 C1710 1.398 . S
C1710 H1698 0.950 . S
C1710 C1709 1.398 . S
C1710 C1711 1.391 . S
C1711 H1699 0.950 . S
C1711 C1707 1.393 . S
C1711 C1710 1.391 . S
H1712 C1720 0.950 . S
H1713 C1725 0.950 1_565 S
H1714 C1722 0.950 . S
H1715 C1724 0.950 1_565 S
H1716 C1726 0.950 1_565 S
H1717 C1728 0.950 1_565 S
H1718 C1730 0.950 . S
H1719 C1731 0.950 . S
C1720 H1712 0.950 . S
C1720 C1721 1.386 . S
C1720 C1722 1.391 . S
C1721 C1720 1.386 . S
C1721 C1725 1.393 . S
C1722 H1714 0.950 . S
C1722 C1720 1.391 . S
C1722 C1723 1.400 . S
C1723 C1722 1.400 . S
C1723 C1724 1.398 . S
C1723 C1729 1.491 . S
C1724 H1715 0.950 1_545 S
C1724 C1723 1.398 . S
C1724 C1725 1.391 . S
C1725 H1713 0.950 1_545 S
C1725 C1721 1.393 . S
C1725 C1724 1.391 . S
C1726 H1716 0.950 1_545 S
C1726 C1727 1.385 . S
C1726 C1728 1.391 . S
C1727 C1726 1.385 . S
C1727 C1731 1.393 . S
C1728 H1717 0.950 1_545 S
C1728 C1726 1.391 . S
C1728 C1729 1.400 . S
C1729 C1723 1.491 . S
C1729 C1728 1.400 . S
C1729 C1730 1.398 . S
C1730 H1718 0.950 . S
C1730 C1729 1.398 . S
C1730 C1731 1.391 . S
C1731 H1719 0.950 . S
C1731 C1727 1.393 . S
C1731 C1730 1.391 . S
H1732 C1740 0.950 . S
H1733 C1745 0.950 . S
H1734 C1742 0.950 . S
H1735 C1744 0.950 . S
H1736 C1746 0.950 . S
H1737 C1748 0.950 . S
H1738 C1750 0.950 . S
H1739 C1751 0.950 . S
C1740 H1732 0.950 . S
C1740 C1741 1.386 . S
C1740 C1742 1.391 . S
C1741 C1740 1.386 . S
C1741 C1745 1.393 . S
C1742 H1734 0.950 . S
C1742 C1740 1.391 . S
C1742 C1743 1.400 . S
C1743 C1742 1.400 . S
C1743 C1744 1.398 . S
C1743 C1749 1.491 . S
C1744 H1735 0.950 . S
C1744 C1743 1.398 . S
C1744 C1745 1.391 . S
C1745 H1733 0.950 . S
C1745 C1741 1.393 . S
C1745 C1744 1.391 . S
C1746 H1736 0.950 . S
C1746 C1747 1.386 . S
C1746 C1748 1.391 . S
C1747 C1746 1.386 . S
C1747 C1751 1.393 . S
C1748 H1737 0.950 . S
C1748 C1746 1.391 . S
C1748 C1749 1.400 . S
C1749 C1743 1.491 . S
C1749 C1748 1.400 . S
C1749 C1750 1.398 . S
C1750 H1738 0.950 . S
C1750 C1749 1.398 . S
C1750 C1751 1.391 . S
C1751 H1739 0.950 . S
C1751 C1747 1.393 . S
C1751 C1750 1.391 . S
H1752 C1760 0.950 . S
H1753 C1765 0.950 . S
H1754 C1762 0.950 . S
H1755 C1764 0.950 . S
H1756 C1766 0.950 . S
H1757 C1768 0.950 . S
H1758 C1770 0.950 . S
H1759 C1771 0.950 . S
C1760 H1752 0.950 . S
C1760 C1761 1.386 . S
C1760 C1762 1.391 . S
C1761 C1760 1.386 . S
C1761 C1765 1.393 . S
C1762 H1754 0.950 . S
C1762 C1760 1.391 . S
C1762 C1763 1.400 . S
C1763 C1762 1.400 . S
C1763 C1764 1.398 . S
C1763 C1769 1.491 . S
C1764 H1755 0.950 . S
C1764 C1763 1.398 . S
C1764 C1765 1.391 . S
C1765 H1753 0.950 . S
C1765 C1761 1.393 . S
C1765 C1764 1.391 . S
C1766 H1756 0.950 . S
C1766 C1767 1.386 . S
C1766 C1768 1.391 . S
C1767 C1766 1.386 . S
C1767 C1771 1.393 . S
C1768 H1757 0.950 . S
C1768 C1766 1.391 . S
C1768 C1769 1.400 . S
C1769 C1763 1.491 . S
C1769 C1768 1.400 . S
C1769 C1770 1.398 . S
C1770 H1758 0.950 . S
C1770 C1769 1.398 . S
C1770 C1771 1.391 . S
C1771 H1759 0.950 . S
C1771 C1767 1.393 . S
C1771 C1770 1.391 . S
H1772 C1780 0.950 . S
H1773 C1785 0.950 . S
H1774 C1782 0.950 . S
H1775 C1784 0.950 . S
H1776 C1786 0.950 . S
H1777 C1788 0.950 . S
H1778 C1790 0.950 . S
H1779 C1791 0.950 . S
C1780 H1772 0.950 . S
C1780 C1781 1.386 . S
C1780 C1782 1.391 . S
C1781 C1780 1.386 . S
C1781 C1785 1.393 . S
C1782 H1774 0.950 . S
C1782 C1780 1.391 . S
C1782 C1783 1.400 . S
C1783 C1782 1.400 . S
C1783 C1784 1.398 . S
C1783 C1789 1.491 . S
C1784 H1775 0.950 . S
C1784 C1783 1.398 . S
C1784 C1785 1.391 . S
C1785 H1773 0.950 . S
C1785 C1781 1.393 . S
C1785 C1784 1.391 . S
C1786 H1776 0.950 . S
C1786 C1787 1.386 . S
C1786 C1788 1.391 . S
C1787 C1786 1.386 . S
C1787 C1791 1.393 . S
C1788 H1777 0.950 . S
C1788 C1786 1.391 . S
C1788 C1789 1.400 . S
C1789 C1783 1.491 . S
C1789 C1788 1.400 . S
C1789 C1790 1.398 . S
C1790 H1778 0.950 . S
C1790 C1789 1.398 . S
C1790 C1791 1.391 . S
C1791 H1779 0.950 . S
C1791 C1787 1.393 . S
C1791 C1790 1.391 . S
H1792 C1800 0.950 . S
H1793 C1805 0.950 . S
H1794 C1802 0.950 . S
H1795 C1804 0.950 . S
H1796 C1806 0.950 . S
H1797 C1808 0.950 . S
H1798 C1810 0.950 . S
H1799 C1811 0.950 . S
C1800 H1792 0.950 . S
C1800 C1801 1.386 . S
C1800 C1802 1.391 . S
C1801 C1800 1.386 . S
C1801 C1805 1.393 . S
C1802 H1794 0.950 . S
C1802 C1800 1.391 . S
C1802 C1803 1.400 . S
C1803 C1802 1.400 . S
C1803 C1804 1.398 . S
C1803 C1809 1.491 . S
C1804 H1795 0.950 . S
C1804 C1803 1.398 . S
C1804 C1805 1.391 . S
C1805 H1793 0.950 . S
C1805 C1801 1.393 . S
C1805 C1804 1.391 . S
C1806 H1796 0.950 . S
C1806 C1807 1.386 . S
C1806 C1808 1.391 . S
C1807 C1806 1.386 . S
C1807 C1811 1.393 . S
C1808 H1797 0.950 . S
C1808 C1806 1.391 . S
C1808 C1809 1.400 . S
C1809 C1803 1.491 . S
C1809 C1808 1.400 . S
C1809 C1810 1.398 . S
C1810 H1798 0.950 . S
C1810 C1809 1.398 . S
C1810 C1811 1.391 . S
C1811 H1799 0.950 . S
C1811 C1807 1.393 . S
C1811 C1810 1.391 . S
H1812 C1820 0.950 . S
H1813 C1825 0.950 . S
H1814 C1822 0.950 . S
H1815 C1824 0.950 . S
H1816 C1826 0.950 . S
H1817 C1828 0.950 . S
H1818 C1830 0.950 . S
H1819 C1831 0.950 . S
C1820 H1812 0.950 . S
C1820 C1821 1.386 . S
C1820 C1822 1.391 . S
C1821 C1820 1.386 . S
C1821 C1825 1.393 . S
C1822 H1814 0.950 . S
C1822 C1820 1.391 . S
C1822 C1823 1.400 . S
C1823 C1822 1.400 . S
C1823 C1824 1.398 . S
C1823 C1829 1.491 . S
C1824 H1815 0.950 . S
C1824 C1823 1.398 . S
C1824 C1825 1.391 . S
C1825 H1813 0.950 . S
C1825 C1821 1.393 . S
C1825 C1824 1.391 . S
C1826 H1816 0.950 . S
C1826 C1827 1.386 . S
C1826 C1828 1.391 . S
C1827 C1826 1.386 . S
C1827 C1831 1.393 . S
C1828 H1817 0.950 . S
C1828 C1826 1.391 . S
C1828 C1829 1.400 . S
C1829 C1823 1.491 . S
C1829 C1828 1.400 . S
C1829 C1830 1.398 . S
C1830 H1818 0.950 . S
C1830 C1829 1.398 . S
C1830 C1831 1.391 . S
C1831 H1819 0.950 . S
C1831 C1827 1.393 . S
C1831 C1830 1.391 . S
H1832 C1840 0.950 . S
H1833 C1845 0.950 . S
H1834 C1842 0.950 . S
H1835 C1844 0.950 . S
H1836 C1846 0.950 . S
H1837 C1848 0.950 . S
H1838 C1850 0.950 . S
H1839 C1851 0.950 . S
C1840 H1832 0.950 . S
C1840 C1841 1.386 . S
C1840 C1842 1.391 . S
C1841 C1840 1.386 . S
C1841 C1845 1.393 . S
C1842 H1834 0.950 . S
C1842 C1840 1.391 . S
C1842 C1843 1.400 . S
C1843 C1842 1.400 . S
C1843 C1844 1.398 . S
C1843 C1849 1.491 . S
C1844 H1835 0.950 . S
C1844 C1843 1.398 . S
C1844 C1845 1.391 . S
C1845 H1833 0.950 . S
C1845 C1841 1.393 . S
C1845 C1844 1.391 . S
C1846 H1836 0.950 . S
C1846 C1847 1.386 . S
C1846 C1848 1.391 . S
C1847 C1846 1.386 . S
C1847 C1851 1.393 . S
C1848 H1837 0.950 . S
C1848 C1846 1.391 . S
C1848 C1849 1.400 . S
C1849 C1843 1.491 . S
C1849 C1848 1.400 . S
C1849 C1850 1.398 . S
C1850 H1838 0.950 . S
C1850 C1849 1.398 . S
C1850 C1851 1.391 . S
C1851 H1839 0.950 . S
C1851 C1847 1.393 . S
C1851 C1850 1.391 . S
H1852 C1860 0.950 . S
H1853 C1865 0.950 . S
H1854 C1862 0.950 . S
H1855 C1864 0.950 . S
H1856 C1866 0.950 . S
H1857 C1868 0.950 . S
H1858 C1870 0.950 . S
H1859 C1871 0.950 . S
C1860 H1852 0.950 . S
C1860 C1861 1.386 . S
C1860 C1862 1.391 . S
C1861 C1860 1.386 . S
C1861 C1865 1.393 . S
C1862 H1854 0.950 . S
C1862 C1860 1.391 . S
C1862 C1863 1.400 . S
C1863 C1862 1.400 . S
C1863 C1864 1.398 . S
C1863 C1869 1.491 . S
C1864 H1855 0.950 . S
C1864 C1863 1.398 . S
C1864 C1865 1.391 . S
C1865 H1853 0.950 . S
C1865 C1861 1.393 . S
C1865 C1864 1.391 . S
C1866 H1856 0.950 . S
C1866 C1867 1.386 . S
C1866 C1868 1.391 . S
C1867 C1866 1.386 . S
C1867 C1871 1.393 . S
C1868 H1857 0.950 . S
C1868 C1866 1.391 . S
C1868 C1869 1.400 . S
C1869 C1863 1.491 . S
C1869 C1868 1.400 . S
C1869 C1870 1.398 . S
C1870 H1858 0.950 . S
C1870 C1869 1.398 . S
C1870 C1871 1.391 . S
C1871 H1859 0.950 . S
C1871 C1867 1.393 . S
C1871 C1870 1.391 . S
H1872 C1880 0.950 . S
H1873 C1885 0.950 . S
H1874 C1882 0.950 . S
H1875 C1884 0.950 . S
H1876 C1886 0.950 . S
H1877 C1888 0.950 . S
H1878 C1890 0.950 . S
H1879 C1891 0.950 . S
C1880 H1872 0.950 . S
C1880 C1881 1.386 . S
C1880 C1882 1.391 . S
C1881 C1880 1.386 . S
C1881 C1885 1.393 . S
C1882 H1874 0.950 . S
C1882 C1880 1.391 . S
C1882 C1883 1.400 . S
C1883 C1882 1.400 . S
C1883 C1884 1.398 . S
C1883 C1889 1.491 . S
C1884 H1875 0.950 . S
C1884 C1883 1.398 . S
C1884 C1885 1.391 . S
C1885 H1873 0.950 . S
C1885 C1881 1.393 . S
C1885 C1884 1.391 . S
C1886 H1876 0.950 . S
C1886 C1887 1.386 . S
C1886 C1888 1.391 . S
C1887 C1886 1.386 . S
C1887 C1891 1.393 . S
C1888 H1877 0.950 . S
C1888 C1886 1.391 . S
C1888 C1889 1.400 . S
C1889 C1883 1.491 . S
C1889 C1888 1.400 . S
C1889 C1890 1.398 . S
C1890 H1878 0.950 . S
C1890 C1889 1.398 . S
C1890 C1891 1.391 . S
C1891 H1879 0.950 . S
C1891 C1887 1.393 . S
C1891 C1890 1.391 . S
H1892 C1900 0.950 . S
H1893 C1905 0.950 . S
H1894 C1902 0.950 . S
H1895 C1904 0.950 . S
H1896 C1906 0.950 . S
H1897 C1908 0.950 . S
H1898 C1910 0.950 . S
H1899 C1911 0.950 . S
C1900 H1892 0.950 . S
C1900 C1901 1.386 . S
C1900 C1902 1.391 . S
C1901 C1900 1.386 . S
C1901 C1905 1.393 . S
C1902 H1894 0.950 . S
C1902 C1900 1.391 . S
C1902 C1903 1.400 . S
C1903 C1902 1.400 . S
C1903 C1904 1.398 . S
C1903 C1909 1.491 . S
C1904 H1895 0.950 . S
C1904 C1903 1.398 . S
C1904 C1905 1.391 . S
C1905 H1893 0.950 . S
C1905 C1901 1.393 . S
C1905 C1904 1.391 . S
C1906 H1896 0.950 . S
C1906 C1907 1.386 . S
C1906 C1908 1.391 . S
C1907 C1906 1.386 . S
C1907 C1911 1.393 . S
C1908 H1897 0.950 . S
C1908 C1906 1.391 . S
C1908 C1909 1.400 . S
C1909 C1903 1.491 . S
C1909 C1908 1.400 . S
C1909 C1910 1.398 . S
C1910 H1898 0.950 . S
C1910 C1909 1.398 . S
C1910 C1911 1.391 . S
C1911 H1899 0.950 . S
C1911 C1907 1.393 . S
C1911 C1910 1.391 . S
H1912 C1920 0.950 . S
H1913 C1925 0.950 . S
H1914 C1922 0.950 . S
H1915 C1924 0.950 . S
H1916 C1926 0.950 . S
H1917 C1928 0.950 . S
H1918 C1930 0.950 . S
H1919 C1931 0.950 . S
C1920 H1912 0.950 . S
C1920 C1921 1.386 . S
C1920 C1922 1.391 . S
C1921 C1920 1.386 . S
C1921 C1925 1.393 . S
C1922 H1914 0.950 . S
C1922 C1920 1.391 . S
C1922 C1923 1.400 . S
C1923 C1922 1.400 . S
C1923 C1924 1.398 . S
C1923 C1929 1.491 . S
C1924 H1915 0.950 . S
C1924 C1923 1.398 . S
C1924 C1925 1.391 . S
C1925 H1913 0.950 . S
C1925 C1921 1.393 . S
C1925 C1924 1.391 . S
C1926 H1916 0.950 . S
C1926 C1927 1.386 . S
C1926 C1928 1.391 . S
C1927 C1926 1.386 . S
C1927 C1931 1.393 . S
C1928 H1917 0.950 . S
C1928 C1926 1.391 . S
C1928 C1929 1.400 . S
C1929 C1923 1.491 . S
C1929 C1928 1.400 . S
C1929 C1930 1.398 . S
C1930 H1918 0.950 . S
C1930 C1929 1.398 . S
C1930 C1931 1.391 . S
C1931 H1919 0.950 . S
C1931 C1927 1.393 . S
C1931 C1930 1.391 . S
H1932 C1940 0.950 . S
H1933 C1945 0.950 . S
H1934 C1942 0.950 . S
H1935 C1944 0.950 . S
H1936 C1946 0.950 . S
H1937 C1948 0.950 . S
H1938 C1950 0.950 . S
H1939 C1951 0.950 . S
C1940 H1932 0.950 . S
C1940 C1941 1.386 . S
C1940 C1942 1.391 . S
C1941 C1940 1.386 . S
C1941 C1945 1.393 . S
C1942 H1934 0.950 . S
C1942 C1940 1.391 . S
C1942 C1943 1.400 . S
C1943 C1942 1.400 . S
C1943 C1944 1.398 . S
C1943 C1949 1.491 . S
C1944 H1935 0.950 . S
C1944 C1943 1.398 . S
C1944 C1945 1.391 . S
C1945 H1933 0.950 . S
C1945 C1941 1.393 . S
C1945 C1944 1.391 . S
C1946 H1936 0.950 . S
C1946 C1947 1.386 . S
C1946 C1948 1.391 . S
C1947 C1946 1.386 . S
C1947 C1951 1.393 . S
C1948 H1937 0.950 . S
C1948 C1946 1.391 . S
C1948 C1949 1.400 . S
C1949 C1943 1.491 . S
C1949 C1948 1.400 . S
C1949 C1950 1.398 . S
C1950 H1938 0.950 . S
C1950 C1949 1.398 . S
C1950 C1951 1.391 . S
C1951 H1939 0.950 . S
C1951 C1947 1.393 . S
C1951 C1950 1.391 . S
H1952 C1960 0.950 . S
H1953 C1965 0.932 1_554 S
H1954 C1962 0.950 . S
H1955 C1964 0.950 . S
H1956 C1966 0.950 . S
H1957 C1968 0.950 . S
H1958 C1970 0.950 . S
H1959 C1971 0.950 1_556 S
C1960 H1952 0.950 . S
C1960 C1961 1.386 . S
C1960 C1962 1.391 . S
C1961 C1960 1.386 . S
C1961 C1965 1.419 . S
C1962 H1954 0.950 . S
C1962 C1960 1.391 . S
C1962 C1963 1.400 . S
C1963 C1962 1.400 . S
C1963 C1964 1.398 1_556 S
C1963 C1969 1.491 1_556 S
C1964 H1955 0.950 . S
C1964 C1963 1.398 1_554 S
C1964 C1965 1.382 1_554 S
C1965 H1953 0.932 1_556 S
C1965 C1961 1.419 . S
C1965 C1964 1.382 1_556 S
C1966 H1956 0.950 . S
C1966 C1967 1.386 . S
C1966 C1968 1.391 . S
C1967 C1966 1.386 . S
C1967 C1971 1.393 . S
C1968 H1957 0.950 . S
C1968 C1966 1.391 . S
C1968 C1969 1.400 . S
C1969 C1963 1.491 1_554 S
C1969 C1968 1.400 . S
C1969 C1970 1.398 1_554 S
C1970 H1958 0.950 . S
C1970 C1969 1.398 1_556 S
C1970 C1971 1.391 1_556 S
C1971 H1959 0.950 1_554 S
C1971 C1967 1.393 . S
C1971 C1970 1.391 1_554 S
H1972 C1980 0.950 . S
H1973 C1985 0.950 . S
H1974 C1982 0.950 . S
H1975 C1984 0.950 . S
H1976 C1986 0.950 . S
H1977 C1988 0.950 . S
H1978 C1990 0.950 . S
H1979 C1991 0.950 . S
C1980 H1972 0.950 . S
C1980 C1981 1.386 1_655 S
C1980 C1982 1.391 . S
C1981 C1980 1.386 1_455 S
C1981 C1985 1.393 . S
C1982 H1974 0.950 . S
C1982 C1980 1.391 . S
C1982 C1983 1.400 . S
C1983 C1982 1.400 . S
C1983 C1984 1.398 . S
C1983 C1989 1.491 . S
C1984 H1975 0.950 . S
C1984 C1983 1.398 . S
C1984 C1985 1.391 1_655 S
C1985 H1973 0.950 . S
C1985 C1981 1.393 . S
C1985 C1984 1.391 1_455 S
C1986 H1976 0.950 . S
C1986 C1987 1.386 . S
C1986 C1988 1.391 . S
C1987 C1986 1.386 . S
C1987 C1991 1.393 . S
C1988 H1977 0.950 . S
C1988 C1986 1.391 . S
C1988 C1989 1.400 . S
C1989 C1983 1.491 . S
C1989 C1988 1.400 . S
C1989 C1990 1.398 . S
C1990 H1978 0.950 . S
C1990 C1989 1.398 . S
C1990 C1991 1.391 . S
C1991 H1979 0.950 . S
C1991 C1987 1.393 . S
C1991 C1990 1.391 . S
H1992 C2000 0.950 . S
H1993 C2005 0.950 . S
H1994 C2002 0.950 . S
H1995 C2004 0.950 . S
H1996 C2006 0.950 . S
H1997 C2008 0.950 . S
H1998 C2010 0.950 . S
H1999 C2011 0.950 . S
C2000 H1992 0.950 . S
C2000 C2001 1.386 . S
C2000 C2002 1.391 . S
C2001 C2000 1.386 . S
C2001 C2005 1.393 . S
C2002 H1994 0.950 . S
C2002 C2000 1.391 . S
C2002 C2003 1.400 . S
C2003 C2002 1.400 . S
C2003 C2004 1.398 . S
C2003 C2009 1.491 . S
C2004 H1995 0.950 . S
C2004 C2003 1.398 . S
C2004 C2005 1.391 . S
C2005 H1993 0.950 . S
C2005 C2001 1.393 . S
C2005 C2004 1.391 . S
C2006 H1996 0.950 . S
C2006 C2007 1.386 . S
C2006 C2008 1.391 . S
C2007 C2006 1.386 . S
C2007 C2011 1.393 . S
C2008 H1997 0.950 . S
C2008 C2006 1.391 . S
C2008 C2009 1.400 . S
C2009 C2003 1.491 . S
C2009 C2008 1.400 . S
C2009 C2010 1.398 . S
C2010 H1998 0.950 . S
C2010 C2009 1.398 . S
C2010 C2011 1.391 . S
C2011 H1999 0.950 . S
C2011 C2007 1.393 . S
C2011 C2010 1.391 . S
H2012 C2020 0.950 . S
H2013 C2025 0.950 . S
H2014 C2022 0.950 . S
H2015 C2024 0.950 . S
H2016 C2026 0.950 . S
H2017 C2028 0.950 . S
H2018 C2030 0.950 . S
H2019 C2031 0.950 . S
C2020 H2012 0.950 . S
C2020 C2021 1.386 . S
C2020 C2022 1.391 . S
C2021 C2020 1.386 . S
C2021 C2025 1.393 . S
C2022 H2014 0.950 . S
C2022 C2020 1.391 . S
C2022 C2023 1.400 . S
C2023 C2022 1.400 . S
C2023 C2024 1.398 . S
C2023 C2029 1.491 . S
C2024 H2015 0.950 . S
C2024 C2023 1.398 . S
C2024 C2025 1.391 . S
C2025 H2013 0.950 . S
C2025 C2021 1.393 . S
C2025 C2024 1.391 . S
C2026 H2016 0.950 . S
C2026 C2027 1.386 . S
C2026 C2028 1.391 . S
C2027 C2026 1.386 . S
C2027 C2031 1.393 . S
C2028 H2017 0.950 . S
C2028 C2026 1.391 . S
C2028 C2029 1.400 . S
C2029 C2023 1.491 . S
C2029 C2028 1.400 . S
C2029 C2030 1.398 . S
C2030 H2018 0.950 . S
C2030 C2029 1.398 . S
C2030 C2031 1.391 . S
C2031 H2019 0.950 . S
C2031 C2027 1.393 . S
C2031 C2030 1.391 . S
H2032 C2040 0.950 . S
H2033 C2045 0.950 . S
H2034 C2042 0.950 . S
H2035 C2044 0.950 . S
H2036 C2046 0.950 . S
H2037 C2048 0.950 . S
H2038 C2050 0.950 . S
H2039 C2051 0.924 1_655 S
C2040 H2032 0.950 . S
C2040 C2041 1.386 . S
C2040 C2042 1.391 . S
C2041 C2040 1.386 . S
C2041 C2045 1.393 . S
C2042 H2034 0.950 . S
C2042 C2040 1.391 . S
C2042 C2043 1.400 . S
C2043 C2042 1.400 . S
C2043 C2044 1.398 . S
C2043 C2049 1.491 . S
C2044 H2035 0.950 . S
C2044 C2043 1.398 . S
C2044 C2045 1.391 . S
C2045 H2033 0.950 . S
C2045 C2041 1.393 . S
C2045 C2044 1.391 . S
C2046 H2036 0.950 . S
C2046 C2047 1.386 . S
C2046 C2048 1.391 . S
C2047 C2046 1.386 . S
C2047 C2051 1.393 . S
C2048 H2037 0.950 . S
C2048 C2046 1.391 . S
C2048 C2049 1.400 . S
C2049 C2043 1.491 . S
C2049 C2048 1.400 . S
C2049 C2050 1.398 . S
C2050 H2038 0.950 . S
C2050 C2049 1.398 . S
C2050 C2051 1.391 . S
C2051 H2039 0.924 1_455 S
C2051 C2047 1.393 . S
C2051 C2050 1.391 . S
H2052 C2060 0.950 . S
H2053 C2065 0.950 . S
H2054 C2062 0.950 . S
H2055 C2064 0.950 . S
H2056 C2066 0.950 . S
H2057 C2068 0.950 . S
H2058 C2070 0.950 . S
H2059 C2071 0.950 . S
C2060 H2052 0.950 . S
C2060 C2061 1.386 . S
C2060 C2062 1.391 . S
C2061 C2060 1.386 . S
C2061 C2065 1.393 . S
C2062 H2054 0.950 . S
C2062 C2060 1.391 . S
C2062 C2063 1.400 . S
C2063 C2062 1.400 . S
C2063 C2064 1.398 . S
C2063 C2069 1.491 . S
C2064 H2055 0.950 . S
C2064 C2063 1.398 . S
C2064 C2065 1.391 . S
C2065 H2053 0.950 . S
C2065 C2061 1.393 . S
C2065 C2064 1.391 . S
C2066 H2056 0.950 . S
C2066 C2067 1.386 . S
C2066 C2068 1.391 . S
C2067 C2066 1.386 . S
C2067 C2071 1.393 . S
C2068 H2057 0.950 . S
C2068 C2066 1.391 . S
C2068 C2069 1.400 . S
C2069 C2063 1.491 . S
C2069 C2068 1.400 . S
C2069 C2070 1.398 . S
C2070 H2058 0.950 . S
C2070 C2069 1.398 . S
C2070 C2071 1.391 . S
C2071 H2059 0.950 . S
C2071 C2067 1.393 . S
C2071 C2070 1.391 . S
H2072 C2080 0.950 . S
H2073 C2085 0.950 . S
H2074 C2082 0.950 . S
H2075 C2084 0.950 . S
H2076 C2086 0.950 . S
H2077 C2088 0.950 . S
H2078 C2090 0.950 . S
H2079 C2091 0.950 . S
C2080 H2072 0.950 . S
C2080 C2081 1.386 . S
C2080 C2082 1.391 . S
C2081 C2080 1.386 . S
C2081 C2085 1.393 . S
C2082 H2074 0.950 . S
C2082 C2080 1.391 . S
C2082 C2083 1.400 . S
C2083 C2082 1.400 . S
C2083 C2084 1.398 . S
C2083 C2089 1.491 . S
C2084 H2075 0.950 . S
C2084 C2083 1.398 . S
C2084 C2085 1.391 . S
C2085 H2073 0.950 . S
C2085 C2081 1.393 . S
C2085 C2084 1.391 . S
C2086 H2076 0.950 . S
C2086 C2087 1.386 . S
C2086 C2088 1.391 . S
C2087 C2086 1.386 . S
C2087 C2091 1.393 . S
C2088 H2077 0.950 . S
C2088 C2086 1.391 . S
C2088 C2089 1.400 . S
C2089 C2083 1.491 . S
C2089 C2088 1.400 . S
C2089 C2090 1.398 . S
C2090 H2078 0.950 . S
C2090 C2089 1.398 . S
C2090 C2091 1.391 . S
C2091 H2079 0.950 . S
C2091 C2087 1.393 . S
C2091 C2090 1.391 . S
H2092 C2100 0.950 . S
H2093 C2105 0.950 . S
H2094 C2102 0.950 . S
H2095 C2104 0.950 . S
H2096 C2106 0.950 . S
H2097 C2108 0.950 . S
H2098 C2110 0.950 . S
H2099 C2111 0.950 . S
C2100 H2092 0.950 . S
C2100 C2101 1.386 . S
C2100 C2102 1.391 1_554 S
C2101 C2100 1.386 . S
C2101 C2105 1.393 . S
C2102 H2094 0.950 . S
C2102 C2100 1.391 1_556 S
C2102 C2103 1.401 1_556 S
C2103 C2102 1.401 1_554 S
C2103 C2104 1.405 . S
C2103 C2109 1.484 1_554 S
C2104 H2095 0.950 . S
C2104 C2103 1.405 . S
C2104 C2105 1.391 . S
C2105 H2093 0.950 . S
C2105 C2101 1.393 . S
C2105 C2104 1.391 . S
C2106 H2096 0.950 . S
C2106 C2107 1.386 . S
C2106 C2108 1.391 . S
C2107 C2106 1.386 . S
C2107 C2111 1.393 . S
C2108 H2097 0.950 . S
C2108 C2106 1.391 . S
C2108 C2109 1.400 . S
C2109 C2103 1.484 1_556 S
C2109 C2108 1.400 . S
C2109 C2110 1.398 . S
C2110 H2098 0.950 . S
C2110 C2109 1.398 . S
C2110 C2111 1.391 . S
C2111 H2099 0.950 . S
C2111 C2107 1.393 . S
C2111 C2110 1.391 . S
H2112 C2120 0.950 . S
H2113 C2125 0.950 . S
H2114 C2122 0.950 . S
H2115 C2124 0.950 . S
H2116 C2126 0.950 . S
H2117 C2128 0.950 . S
H2118 C2130 0.950 . S
H2119 C2131 0.950 . S
C2120 H2112 0.950 . S
C2120 C2121 1.386 . S
C2120 C2122 1.391 . S
C2121 C2120 1.386 . S
C2121 C2125 1.393 . S
C2122 H2114 0.950 . S
C2122 C2120 1.391 . S
C2122 C2123 1.400 . S
C2123 C2122 1.400 . S
C2123 C2124 1.398 . S
C2123 C2129 1.491 . S
C2124 H2115 0.950 . S
C2124 C2123 1.398 . S
C2124 C2125 1.391 . S
C2125 H2113 0.950 . S
C2125 C2121 1.393 . S
C2125 C2124 1.391 . S
C2126 H2116 0.950 . S
C2126 C2127 1.386 . S
C2126 C2128 1.391 . S
C2127 C2126 1.386 . S
C2127 C2131 1.393 . S
C2128 H2117 0.950 . S
C2128 C2126 1.391 . S
C2128 C2129 1.400 . S
C2129 C2123 1.491 . S
C2129 C2128 1.400 . S
C2129 C2130 1.398 . S
C2130 H2118 0.950 . S
C2130 C2129 1.398 . S
C2130 C2131 1.391 . S
C2131 H2119 0.950 . S
C2131 C2127 1.393 . S
C2131 C2130 1.391 . S
H2132 C2140 0.950 . S
H2133 C2145 0.950 . S
H2134 C2142 0.950 . S
H2135 C2144 0.950 . S
H2136 C2146 0.950 . S
H2137 C2148 0.950 . S
H2138 C2150 0.950 . S
H2139 C2151 0.950 . S
C2140 H2132 0.950 . S
C2140 C2141 1.386 . S
C2140 C2142 1.391 . S
C2141 C2140 1.386 . S
C2141 C2145 1.393 . S
C2142 H2134 0.950 . S
C2142 C2140 1.391 . S
C2142 C2143 1.400 . S
C2143 C2142 1.400 . S
C2143 C2144 1.398 . S
C2143 C2149 1.491 . S
C2144 H2135 0.950 . S
C2144 C2143 1.398 . S
C2144 C2145 1.391 . S
C2145 H2133 0.950 . S
C2145 C2141 1.393 . S
C2145 C2144 1.391 . S
C2146 H2136 0.950 . S
C2146 C2147 1.386 . S
C2146 C2148 1.391 . S
C2147 C2146 1.386 . S
C2147 C2151 1.393 . S
C2148 H2137 0.950 . S
C2148 C2146 1.391 . S
C2148 C2149 1.400 . S
C2149 C2143 1.491 . S
C2149 C2148 1.400 . S
C2149 C2150 1.398 . S
C2150 H2138 0.950 . S
C2150 C2149 1.398 . S
C2150 C2151 1.391 . S
C2151 H2139 0.950 . S
C2151 C2147 1.393 . S
C2151 C2150 1.391 . S
H2152 C2160 0.950 . S
H2153 C2165 0.950 . S
H2154 C2162 0.950 . S
H2155 C2164 0.950 . S
H2156 C2166 0.950 . S
H2157 C2168 0.950 . S
H2158 C2170 0.950 . S
H2159 C2171 0.950 . S
C2160 H2152 0.950 . S
C2160 C2161 1.386 . S
C2160 C2162 1.391 . S
C2161 C2160 1.386 . S
C2161 C2165 1.393 . S
C2162 H2154 0.950 . S
C2162 C2160 1.391 . S
C2162 C2163 1.400 . S
C2163 C2162 1.400 . S
C2163 C2164 1.398 . S
C2163 C2169 1.491 . S
C2164 H2155 0.950 . S
C2164 C2163 1.398 . S
C2164 C2165 1.391 . S
C2165 H2153 0.950 . S
C2165 C2161 1.393 . S
C2165 C2164 1.391 . S
C2166 H2156 0.950 . S
C2166 C2167 1.386 . S
C2166 C2168 1.391 . S
C2167 C2166 1.386 . S
C2167 C2171 1.393 . S
C2168 H2157 0.950 . S
C2168 C2166 1.391 . S
C2168 C2169 1.400 . S
C2169 C2163 1.491 . S
C2169 C2168 1.400 . S
C2169 C2170 1.398 . S
C2170 H2158 0.950 . S
C2170 C2169 1.398 . S
C2170 C2171 1.391 . S
C2171 H2159 0.950 . S
C2171 C2167 1.393 . S
C2171 C2170 1.391 . S
H2172 C2180 0.950 . S
H2173 C2185 0.950 . S
H2174 C2182 0.950 . S
H2175 C2184 0.950 . S
H2176 C2186 0.950 . S
H2177 C2188 0.950 . S
H2178 C2190 0.950 . S
H2179 C2191 0.950 . S
C2180 H2172 0.950 . S
C2180 C2181 1.386 . S
C2180 C2182 1.391 . S
C2181 C2180 1.386 . S
C2181 C2185 1.393 . S
C2182 H2174 0.950 . S
C2182 C2180 1.391 . S
C2182 C2183 1.400 . S
C2183 C2182 1.400 . S
C2183 C2184 1.398 . S
C2183 C2189 1.491 . S
C2184 H2175 0.950 . S
C2184 C2183 1.398 . S
C2184 C2185 1.391 . S
C2185 H2173 0.950 . S
C2185 C2181 1.393 . S
C2185 C2184 1.391 . S
C2186 H2176 0.950 . S
C2186 C2187 1.386 . S
C2186 C2188 1.391 . S
C2187 C2186 1.386 . S
C2187 C2191 1.393 . S
C2188 H2177 0.950 . S
C2188 C2186 1.391 . S
C2188 C2189 1.400 . S
C2189 C2183 1.491 . S
C2189 C2188 1.400 . S
C2189 C2190 1.398 . S
C2190 H2178 0.950 . S
C2190 C2189 1.398 . S
C2190 C2191 1.391 . S
C2191 H2179 0.950 . S
C2191 C2187 1.393 . S
C2191 C2190 1.391 . S
H2192 C2200 0.950 . S
H2193 C2205 0.950 . S
H2194 C2202 0.950 . S
H2195 C2204 0.950 . S
H2196 C2206 0.950 . S
H2197 C2208 0.950 . S
H2198 C2210 0.950 . S
H2199 C2211 0.950 . S
C2200 H2192 0.950 . S
C2200 C2201 1.386 . S
C2200 C2202 1.391 . S
C2201 C2200 1.386 . S
C2201 C2205 1.393 . S
C2202 H2194 0.950 . S
C2202 C2200 1.391 . S
C2202 C2203 1.400 . S
C2203 C2202 1.400 . S
C2203 C2204 1.398 . S
C2203 C2209 1.491 . S
C2204 H2195 0.950 . S
C2204 C2203 1.398 . S
C2204 C2205 1.391 . S
C2205 H2193 0.950 . S
C2205 C2201 1.393 . S
C2205 C2204 1.391 . S
C2206 H2196 0.950 . S
C2206 C2207 1.386 . S
C2206 C2208 1.391 . S
C2207 C2206 1.386 . S
C2207 C2211 1.393 . S
C2208 H2197 0.950 . S
C2208 C2206 1.391 . S
C2208 C2209 1.400 . S
C2209 C2203 1.491 . S
C2209 C2208 1.400 . S
C2209 C2210 1.398 . S
C2210 H2198 0.950 . S
C2210 C2209 1.398 . S
C2210 C2211 1.391 . S
C2211 H2199 0.950 . S
C2211 C2207 1.393 . S
C2211 C2210 1.391 . S
H2212 C2220 0.950 . S
H2213 C2225 0.950 . S
H2214 C2222 0.950 . S
H2215 C2224 0.950 . S
H2216 C2226 0.950 . S
H2217 C2228 0.950 . S
H2218 C2230 0.950 . S
H2219 C2231 0.950 . S
C2220 H2212 0.950 . S
C2220 C2221 1.386 . S
C2220 C2222 1.391 . S
C2221 C2220 1.386 . S
C2221 C2225 1.393 . S
C2222 H2214 0.950 . S
C2222 C2220 1.391 . S
C2222 C2223 1.400 . S
C2223 C2222 1.400 . S
C2223 C2224 1.398 . S
C2223 C2229 1.491 . S
C2224 H2215 0.950 . S
C2224 C2223 1.398 . S
C2224 C2225 1.391 . S
C2225 H2213 0.950 . S
C2225 C2221 1.393 . S
C2225 C2224 1.391 . S
C2226 H2216 0.950 . S
C2226 C2227 1.386 . S
C2226 C2228 1.391 . S
C2227 C2226 1.386 . S
C2227 C2231 1.393 . S
C2228 H2217 0.950 . S
C2228 C2226 1.391 . S
C2228 C2229 1.400 . S
C2229 C2223 1.491 . S
C2229 C2228 1.400 . S
C2229 C2230 1.398 . S
C2230 H2218 0.950 . S
C2230 C2229 1.398 . S
C2230 C2231 1.391 . S
C2231 H2219 0.950 . S
C2231 C2227 1.393 . S
C2231 C2230 1.391 . S
H2232 C2240 0.950 . S
H2233 C2245 0.950 . S
H2234 C2242 0.950 . S
H2235 C2244 0.950 . S
H2236 C2246 0.950 . S
H2237 C2248 0.950 . S
H2238 C2250 0.950 . S
H2239 C2251 0.950 . S
C2240 H2232 0.950 . S
C2240 C2241 1.386 . S
C2240 C2242 1.391 . S
C2241 C2240 1.386 . S
C2241 C2245 1.393 . S
C2242 H2234 0.950 . S
C2242 C2240 1.391 . S
C2242 C2243 1.400 . S
C2243 C2242 1.400 . S
C2243 C2244 1.398 . S
C2243 C2249 1.491 . S
C2244 H2235 0.950 . S
C2244 C2243 1.398 . S
C2244 C2245 1.391 . S
C2245 H2233 0.950 . S
C2245 C2241 1.393 . S
C2245 C2244 1.391 . S
C2246 H2236 0.950 . S
C2246 C2247 1.386 . S
C2246 C2248 1.391 . S
C2247 C2246 1.386 . S
C2247 C2251 1.393 . S
C2248 H2237 0.950 . S
C2248 C2246 1.391 . S
C2248 C2249 1.400 . S
C2249 C2243 1.491 . S
C2249 C2248 1.400 . S
C2249 C2250 1.398 . S
C2250 H2238 0.950 . S
C2250 C2249 1.398 . S
C2250 C2251 1.391 . S
C2251 H2239 0.950 . S
C2251 C2247 1.393 . S
C2251 C2250 1.391 . S
H2252 C2260 0.950 . S
H2253 C2265 0.950 . S
H2254 C2262 0.950 . S
H2255 C2264 0.950 . S
H2256 C2266 0.950 . S
H2257 C2268 0.950 . S
H2258 C2270 0.950 . S
H2259 C2271 0.950 . S
C2260 H2252 0.950 . S
C2260 C2261 1.386 . S
C2260 C2262 1.391 . S
C2261 C2260 1.386 . S
C2261 C2265 1.393 . S
C2262 H2254 0.950 . S
C2262 C2260 1.391 . S
C2262 C2263 1.400 . S
C2263 C2262 1.400 . S
C2263 C2264 1.398 . S
C2263 C2269 1.491 . S
C2264 H2255 0.950 . S
C2264 C2263 1.398 . S
C2264 C2265 1.391 . S
C2265 H2253 0.950 . S
C2265 C2261 1.393 . S
C2265 C2264 1.391 . S
C2266 H2256 0.950 . S
C2266 C2267 1.386 . S
C2266 C2268 1.391 . S
C2267 C2266 1.386 . S
C2267 C2271 1.393 . S
C2268 H2257 0.950 . S
C2268 C2266 1.391 . S
C2268 C2269 1.400 . S
C2269 C2263 1.491 . S
C2269 C2268 1.400 . S
C2269 C2270 1.398 . S
C2270 H2258 0.950 . S
C2270 C2269 1.398 . S
C2270 C2271 1.391 . S
C2271 H2259 0.950 . S
C2271 C2267 1.393 . S
C2271 C2270 1.391 . S
H2272 C2280 0.950 . S
H2273 C2285 0.950 1_545 S
H2274 C2282 0.950 . S
H2275 C2284 0.950 . S
H2276 C2286 0.950 . S
H2277 C2288 0.950 . S
H2278 C2290 0.950 . S
H2279 C2291 0.950 . S
C2280 H2272 0.950 . S
C2280 C2281 1.386 . S
C2280 C2282 1.391 . S
C2281 C2280 1.386 . S
C2281 C2285 1.393 . S
C2282 H2274 0.950 . S
C2282 C2280 1.391 . S
C2282 C2283 1.400 . S
C2283 C2282 1.400 . S
C2283 C2284 1.398 . S
C2283 C2289 1.491 . S
C2284 H2275 0.950 . S
C2284 C2283 1.398 . S
C2284 C2285 1.391 . S
C2285 H2273 0.950 1_565 S
C2285 C2281 1.393 . S
C2285 C2284 1.391 . S
C2286 H2276 0.950 . S
C2286 C2287 1.386 . S
C2286 C2288 1.391 . S
C2287 C2286 1.386 . S
C2287 C2291 1.393 . S
C2288 H2277 0.950 . S
C2288 C2286 1.391 . S
C2288 C2289 1.400 . S
C2289 C2283 1.491 . S
C2289 C2288 1.400 . S
C2289 C2290 1.398 . S
C2290 H2278 0.950 . S
C2290 C2289 1.398 . S
C2290 C2291 1.391 . S
C2291 H2279 0.950 . S
C2291 C2287 1.393 . S
C2291 C2290 1.391 . S
H2292 C2300 0.950 . S
H2293 C2305 0.950 . S
H2294 C2302 0.950 . S
H2295 C2304 0.950 . S
H2296 C2306 0.950 . S
H2297 C2308 0.950 . S
H2298 C2310 0.950 . S
H2299 C2311 0.950 . S
C2300 H2292 0.950 . S
C2300 C2301 1.386 . S
C2300 C2302 1.391 . S
C2301 C2300 1.386 . S
C2301 C2305 1.393 1_554 S
C2302 H2294 0.950 . S
C2302 C2300 1.391 . S
C2302 C2303 1.400 . S
C2303 C2302 1.400 . S
C2303 C2304 1.398 1_554 S
C2303 C2309 1.491 . S
C2304 H2295 0.950 . S
C2304 C2303 1.398 1_556 S
C2304 C2305 1.391 . S
C2305 H2293 0.950 . S
C2305 C2301 1.393 1_556 S
C2305 C2304 1.391 . S
C2306 H2296 0.950 . S
C2306 C2307 1.386 1_556 S
C2306 C2308 1.391 . S
C2307 C2306 1.386 1_554 S
C2307 C2311 1.393 . S
C2308 H2297 0.950 . S
C2308 C2306 1.391 . S
C2308 C2309 1.400 1_556 S
C2309 C2303 1.491 . S
C2309 C2308 1.400 1_554 S
C2309 C2310 1.398 . S
C2310 H2298 0.950 . S
C2310 C2309 1.398 . S
C2310 C2311 1.391 . S
C2311 H2299 0.950 . S
C2311 C2307 1.393 . S
C2311 C2310 1.391 . S
H2312 C2320 0.950 . S
H2313 C2325 0.950 . S
H2314 C2322 0.950 . S
H2315 C2324 0.950 . S
H2316 C2326 0.950 . S
H2317 C2328 0.950 . S
H2318 C2330 0.950 . S
H2319 C2331 0.950 . S
C2320 H2312 0.950 . S
C2320 C2321 1.386 . S
C2320 C2322 1.391 . S
C2321 C2320 1.386 . S
C2321 C2325 1.393 . S
C2322 H2314 0.950 . S
C2322 C2320 1.391 . S
C2322 C2323 1.400 . S
C2323 C2322 1.400 . S
C2323 C2324 1.398 . S
C2323 C2329 1.491 . S
C2324 H2315 0.950 . S
C2324 C2323 1.398 . S
C2324 C2325 1.391 . S
C2325 H2313 0.950 . S
C2325 C2321 1.393 . S
C2325 C2324 1.391 . S
C2326 H2316 0.950 . S
C2326 C2327 1.386 . S
C2326 C2328 1.391 . S
C2327 C2326 1.386 . S
C2327 C2331 1.393 . S
C2328 H2317 0.950 . S
C2328 C2326 1.391 . S
C2328 C2329 1.400 . S
C2329 C2323 1.491 . S
C2329 C2328 1.400 . S
C2329 C2330 1.398 . S
C2330 H2318 0.950 . S
C2330 C2329 1.398 . S
C2330 C2331 1.391 . S
C2331 H2319 0.950 . S
C2331 C2327 1.393 . S
C2331 C2330 1.391 . S
H2332 C2340 0.950 . S
H2333 C2345 0.950 . S
H2334 C2342 0.950 . S
H2335 C2344 0.950 . S
H2336 C2346 0.950 . S
H2337 C2348 0.950 . S
H2338 C2350 0.950 . S
H2339 C2351 0.950 . S
C2340 H2332 0.950 . S
C2340 C2341 1.386 . S
C2340 C2342 1.391 . S
C2341 C2340 1.386 . S
C2341 C2345 1.393 . S
C2342 H2334 0.950 . S
C2342 C2340 1.391 . S
C2342 C2343 1.400 . S
C2343 C2342 1.400 . S
C2343 C2344 1.398 . S
C2343 C2349 1.491 . S
C2344 H2335 0.950 . S
C2344 C2343 1.398 . S
C2344 C2345 1.391 . S
C2345 H2333 0.950 . S
C2345 C2341 1.393 . S
C2345 C2344 1.391 . S
C2346 H2336 0.950 . S
C2346 C2347 1.386 . S
C2346 C2348 1.391 . S
C2347 C2346 1.386 . S
C2347 C2351 1.393 . S
C2348 H2337 0.950 . S
C2348 C2346 1.391 . S
C2348 C2349 1.400 . S
C2349 C2343 1.491 . S
C2349 C2348 1.400 . S
C2349 C2350 1.398 . S
C2350 H2338 0.950 . S
C2350 C2349 1.398 . S
C2350 C2351 1.391 . S
C2351 H2339 0.950 . S
C2351 C2347 1.393 . S
C2351 C2350 1.391 . S
H2352 C2360 0.950 . S
H2353 C2365 0.950 . S
H2354 C2362 0.950 . S
H2355 C2364 0.950 . S
H2356 C2366 0.950 . S
H2357 C2368 0.950 . S
H2358 C2370 0.950 . S
H2359 C2371 0.950 . S
C2360 H2352 0.950 . S
C2360 C2361 1.386 . S
C2360 C2362 1.391 . S
C2361 C2360 1.386 . S
C2361 C2365 1.393 . S
C2362 H2354 0.950 . S
C2362 C2360 1.391 . S
C2362 C2363 1.400 . S
C2363 C2362 1.400 . S
C2363 C2364 1.398 . S
C2363 C2369 1.491 . S
C2364 H2355 0.950 . S
C2364 C2363 1.398 . S
C2364 C2365 1.391 . S
C2365 H2353 0.950 . S
C2365 C2361 1.393 . S
C2365 C2364 1.391 . S
C2366 H2356 0.950 . S
C2366 C2367 1.386 . S
C2366 C2368 1.391 . S
C2367 C2366 1.386 . S
C2367 C2371 1.393 . S
C2368 H2357 0.950 . S
C2368 C2366 1.391 . S
C2368 C2369 1.400 . S
C2369 C2363 1.491 . S
C2369 C2368 1.400 . S
C2369 C2370 1.398 . S
C2370 H2358 0.950 . S
C2370 C2369 1.398 . S
C2370 C2371 1.391 . S
C2371 H2359 0.950 . S
C2371 C2367 1.393 . S
C2371 C2370 1.391 . S
H2372 C2380 0.950 . S
H2373 C2385 0.950 . S
H2374 C2382 0.950 . S
H2375 C2384 0.950 . S
H2376 C2386 0.950 . S
H2377 C2388 0.950 . S
H2378 C2390 0.950 . S
H2379 C2391 0.950 . S
C2380 H2372 0.950 . S
C2380 C2381 1.386 . S
C2380 C2382 1.391 . S
C2381 C2380 1.386 . S
C2381 C2385 1.393 . S
C2382 H2374 0.950 . S
C2382 C2380 1.391 . S
C2382 C2383 1.400 . S
C2383 C2382 1.400 . S
C2383 C2384 1.398 . S
C2383 C2389 1.491 . S
C2384 H2375 0.950 . S
C2384 C2383 1.398 . S
C2384 C2385 1.391 . S
C2385 H2373 0.950 . S
C2385 C2381 1.393 . S
C2385 C2384 1.391 . S
C2386 H2376 0.950 . S
C2386 C2387 1.386 . S
C2386 C2388 1.391 . S
C2387 C2386 1.386 . S
C2387 C2391 1.393 . S
C2388 H2377 0.950 . S
C2388 C2386 1.391 . S
C2388 C2389 1.400 . S
C2389 C2383 1.491 . S
C2389 C2388 1.400 . S
C2389 C2390 1.398 . S
C2390 H2378 0.950 . S
C2390 C2389 1.398 . S
C2390 C2391 1.391 . S
C2391 H2379 0.950 . S
C2391 C2387 1.393 . S
C2391 C2390 1.391 . S
H2392 C2400 0.950 . S
H2393 C2405 0.950 . S
H2394 C2402 0.950 . S
H2395 C2404 0.950 . S
H2396 C2406 0.950 . S
H2397 C2408 0.950 . S
H2398 C2410 0.950 . S
H2399 C2411 0.950 . S
C2400 H2392 0.950 . S
C2400 C2401 1.386 . S
C2400 C2402 1.391 . S
C2401 C2400 1.386 . S
C2401 C2405 1.393 . S
C2402 H2394 0.950 . S
C2402 C2400 1.391 . S
C2402 C2403 1.400 . S
C2403 C2402 1.400 . S
C2403 C2404 1.398 . S
C2403 C2409 1.491 . S
C2404 H2395 0.950 . S
C2404 C2403 1.398 . S
C2404 C2405 1.391 . S
C2405 H2393 0.950 . S
C2405 C2401 1.393 . S
C2405 C2404 1.391 . S
C2406 H2396 0.950 . S
C2406 C2407 1.386 . S
C2406 C2408 1.391 . S
C2407 C2406 1.386 . S
C2407 C2411 1.393 . S
C2408 H2397 0.950 . S
C2408 C2406 1.391 . S
C2408 C2409 1.400 . S
C2409 C2403 1.491 . S
C2409 C2408 1.400 . S
C2409 C2410 1.398 . S
C2410 H2398 0.950 . S
C2410 C2409 1.398 . S
C2410 C2411 1.391 . S
C2411 H2399 0.950 . S
C2411 C2407 1.393 . S
C2411 C2410 1.391 . S
H2412 C2420 0.950 . S
H2413 C2425 0.950 . S
H2414 C2422 0.950 . S
H2415 C2424 0.950 . S
H2416 C2426 0.950 . S
H2417 C2428 0.950 . S
H2418 C2430 0.950 . S
H2419 C2431 0.950 . S
C2420 H2412 0.950 . S
C2420 C2421 1.386 . S
C2420 C2422 1.391 . S
C2421 C2420 1.386 . S
C2421 C2425 1.393 . S
C2422 H2414 0.950 . S
C2422 C2420 1.391 . S
C2422 C2423 1.400 . S
C2423 C2422 1.400 . S
C2423 C2424 1.398 . S
C2423 C2429 1.491 . S
C2424 H2415 0.950 . S
C2424 C2423 1.398 . S
C2424 C2425 1.391 . S
C2425 H2413 0.950 . S
C2425 C2421 1.393 . S
C2425 C2424 1.391 . S
C2426 H2416 0.950 . S
C2426 C2427 1.386 . S
C2426 C2428 1.391 . S
C2427 C2426 1.386 . S
C2427 C2431 1.393 . S
C2428 H2417 0.950 . S
C2428 C2426 1.391 . S
C2428 C2429 1.400 . S
C2429 C2423 1.491 . S
C2429 C2428 1.400 . S
C2429 C2430 1.398 . S
C2430 H2418 0.950 . S
C2430 C2429 1.398 . S
C2430 C2431 1.391 . S
C2431 H2419 0.950 . S
C2431 C2427 1.393 . S
C2431 C2430 1.391 . S
H2432 C2440 0.950 . S
H2433 C2445 0.950 . S
H2434 C2442 0.950 . S
H2435 C2444 0.950 . S
H2436 C2446 0.950 . S
H2437 C2448 0.950 . S
H2438 C2450 0.950 . S
H2439 C2451 0.950 . S
C2440 H2432 0.950 . S
C2440 C2441 1.386 . S
C2440 C2442 1.391 . S
C2441 C2440 1.386 . S
C2441 C2445 1.393 . S
C2442 H2434 0.950 . S
C2442 C2440 1.391 . S
C2442 C2443 1.400 . S
C2443 C2442 1.400 . S
C2443 C2444 1.398 . S
C2443 C2449 1.491 . S
C2444 H2435 0.950 . S
C2444 C2443 1.398 . S
C2444 C2445 1.391 . S
C2445 H2433 0.950 . S
C2445 C2441 1.393 . S
C2445 C2444 1.391 . S
C2446 H2436 0.950 . S
C2446 C2447 1.386 . S
C2446 C2448 1.391 . S
C2447 C2446 1.386 . S
C2447 C2451 1.393 . S
C2448 H2437 0.950 . S
C2448 C2446 1.391 . S
C2448 C2449 1.400 . S
C2449 C2443 1.491 . S
C2449 C2448 1.400 . S
C2449 C2450 1.398 . S
C2450 H2438 0.950 . S
C2450 C2449 1.398 . S
C2450 C2451 1.391 . S
C2451 H2439 0.950 . S
C2451 C2447 1.393 . S
C2451 C2450 1.391 . S
H2452 C2460 0.950 . S
H2453 C2465 0.950 . S
H2454 C2462 0.950 . S
H2455 C2464 0.950 . S
H2456 C2466 0.950 . S
H2457 C2468 0.950 . S
H2458 C2470 0.950 . S
H2459 C2471 0.950 . S
C2460 H2452 0.950 . S
C2460 C2461 1.386 . S
C2460 C2462 1.391 . S
C2461 C2460 1.386 . S
C2461 C2465 1.393 . S
C2462 H2454 0.950 . S
C2462 C2460 1.391 . S
C2462 C2463 1.400 . S
C2463 C2462 1.400 . S
C2463 C2464 1.398 . S
C2463 C2469 1.491 . S
C2464 H2455 0.950 . S
C2464 C2463 1.398 . S
C2464 C2465 1.391 . S
C2465 H2453 0.950 . S
C2465 C2461 1.393 . S
C2465 C2464 1.391 . S
C2466 H2456 0.950 . S
C2466 C2467 1.386 . S
C2466 C2468 1.391 . S
C2467 C2466 1.386 . S
C2467 C2471 1.393 . S
C2468 H2457 0.950 . S
C2468 C2466 1.391 . S
C2468 C2469 1.400 . S
C2469 C2463 1.491 . S
C2469 C2468 1.400 . S
C2469 C2470 1.398 . S
C2470 H2458 0.950 . S
C2470 C2469 1.398 . S
C2470 C2471 1.391 . S
C2471 H2459 0.950 . S
C2471 C2467 1.393 . S
C2471 C2470 1.391 . S
H2472 C2480 0.950 . S
H2473 C2485 0.950 . S
H2474 C2482 0.950 . S
H2475 C2484 0.950 . S
H2476 C2486 0.950 . S
H2477 C2488 0.950 . S
H2478 C2490 0.950 . S
H2479 C2491 0.950 . S
C2480 H2472 0.950 . S
C2480 C2481 1.386 . S
C2480 C2482 1.391 . S
C2481 C2480 1.386 . S
C2481 C2485 1.393 . S
C2482 H2474 0.950 . S
C2482 C2480 1.391 . S
C2482 C2483 1.400 . S
C2483 C2482 1.400 . S
C2483 C2484 1.398 . S
C2483 C2489 1.491 . S
C2484 H2475 0.950 . S
C2484 C2483 1.398 . S
C2484 C2485 1.391 . S
C2485 H2473 0.950 . S
C2485 C2481 1.393 . S
C2485 C2484 1.391 . S
C2486 H2476 0.950 . S
C2486 C2487 1.386 . S
C2486 C2488 1.391 . S
C2487 C2486 1.386 . S
C2487 C2491 1.393 . S
C2488 H2477 0.950 . S
C2488 C2486 1.391 . S
C2488 C2489 1.400 . S
C2489 C2483 1.491 . S
C2489 C2488 1.400 . S
C2489 C2490 1.398 . S
C2490 H2478 0.950 . S
C2490 C2489 1.398 . S
C2490 C2491 1.391 . S
C2491 H2479 0.950 . S
C2491 C2487 1.393 . S
C2491 C2490 1.391 . S
H2492 C2500 0.950 . S
H2493 C2505 0.950 . S
H2494 C2502 0.950 . S
H2495 C2504 0.950 . S
H2496 C2506 0.950 . S
H2497 C2508 0.950 . S
H2498 C2510 0.950 . S
H2499 C2511 0.950 . S
C2500 H2492 0.950 . S
C2500 C2501 1.386 . S
C2500 C2502 1.391 . S
C2501 C2500 1.386 . S
C2501 C2505 1.393 . S
C2502 H2494 0.950 . S
C2502 C2500 1.391 . S
C2502 C2503 1.400 . S
C2503 C2502 1.400 . S
C2503 C2504 1.398 . S
C2503 C2509 1.491 . S
C2504 H2495 0.950 . S
C2504 C2503 1.398 . S
C2504 C2505 1.391 . S
C2505 H2493 0.950 . S
C2505 C2501 1.393 . S
C2505 C2504 1.391 . S
C2506 H2496 0.950 . S
C2506 C2507 1.386 . S
C2506 C2508 1.391 . S
C2507 C2506 1.386 . S
C2507 C2511 1.393 . S
C2508 H2497 0.950 . S
C2508 C2506 1.391 . S
C2508 C2509 1.400 . S
C2509 C2503 1.491 . S
C2509 C2508 1.400 . S
C2509 C2510 1.398 . S
C2510 H2498 0.950 . S
C2510 C2509 1.398 . S
C2510 C2511 1.391 . S
C2511 H2499 0.950 . S
C2511 C2507 1.393 . S
C2511 C2510 1.391 . S
H2512 C2520 0.950 . S
H2513 C2525 0.950 1_655 S
H2514 C2522 0.950 . S
H2515 C2524 0.950 1_655 S
H2516 C2526 0.950 . S
H2517 C2528 0.950 . S
H2518 C2530 0.950 . S
H2519 C2531 0.950 . S
C2520 H2512 0.950 . S
C2520 C2521 1.386 . S
C2520 C2522 1.391 . S
C2521 C2520 1.386 . S
C2521 C2525 1.393 . S
C2522 H2514 0.950 . S
C2522 C2520 1.391 . S
C2522 C2523 1.400 . S
C2523 C2522 1.400 . S
C2523 C2524 1.398 . S
C2523 C2529 1.491 . S
C2524 H2515 0.950 1_455 S
C2524 C2523 1.398 . S
C2524 C2525 1.391 . S
C2525 H2513 0.950 1_455 S
C2525 C2521 1.393 . S
C2525 C2524 1.391 . S
C2526 H2516 0.950 . S
C2526 C2527 1.386 . S
C2526 C2528 1.391 . S
C2527 C2526 1.386 . S
C2527 C2531 1.393 . S
C2528 H2517 0.950 . S
C2528 C2526 1.391 . S
C2528 C2529 1.400 . S
C2529 C2523 1.491 . S
C2529 C2528 1.400 . S
C2529 C2530 1.398 . S
C2530 H2518 0.950 . S
C2530 C2529 1.398 . S
C2530 C2531 1.391 . S
C2531 H2519 0.950 . S
C2531 C2527 1.393 . S
C2531 C2530 1.391 . S
H2532 C2540 0.950 . S
H2533 C2545 0.950 . S
H2534 C2542 0.950 . S
H2535 C2544 0.950 . S
H2536 C2546 0.950 . S
H2537 C2548 0.950 . S
H2538 C2550 0.950 . S
H2539 C2551 0.950 . S
C2540 H2532 0.950 . S
C2540 C2541 1.386 . S
C2540 C2542 1.391 . S
C2541 C2540 1.386 . S
C2541 C2545 1.393 . S
C2542 H2534 0.950 . S
C2542 C2540 1.391 . S
C2542 C2543 1.400 . S
C2543 C2542 1.400 . S
C2543 C2544 1.398 . S
C2543 C2549 1.491 . S
C2544 H2535 0.950 . S
C2544 C2543 1.398 . S
C2544 C2545 1.391 . S
C2545 H2533 0.950 . S
C2545 C2541 1.393 . S
C2545 C2544 1.391 . S
C2546 H2536 0.950 . S
C2546 C2547 1.386 . S
C2546 C2548 1.391 . S
C2547 C2546 1.386 . S
C2547 C2551 1.393 . S
C2548 H2537 0.950 . S
C2548 C2546 1.391 . S
C2548 C2549 1.400 . S
C2549 C2543 1.491 . S
C2549 C2548 1.400 . S
C2549 C2550 1.398 . S
C2550 H2538 0.950 . S
C2550 C2549 1.398 . S
C2550 C2551 1.391 . S
C2551 H2539 0.950 . S
C2551 C2547 1.393 . S
C2551 C2550 1.391 . S
H2552 C2560 0.950 . S
H2553 C2565 0.950 . S
H2554 C2562 0.950 . S
H2555 C2564 0.950 . S
H2556 C2566 0.950 . S
H2557 C2568 0.950 . S
H2558 C2570 0.950 . S
H2559 C2571 0.950 . S
C2560 H2552 0.950 . S
C2560 C2561 1.386 . S
C2560 C2562 1.391 . S
C2561 C2560 1.386 . S
C2561 C2565 1.393 . S
C2562 H2554 0.950 . S
C2562 C2560 1.391 . S
C2562 C2563 1.400 . S
C2563 C2562 1.400 . S
C2563 C2564 1.398 . S
C2563 C2569 1.491 . S
C2564 H2555 0.950 . S
C2564 C2563 1.398 . S
C2564 C2565 1.391 . S
C2565 H2553 0.950 . S
C2565 C2561 1.393 . S
C2565 C2564 1.391 . S
C2566 H2556 0.950 . S
C2566 C2567 1.386 . S
C2566 C2568 1.391 . S
C2567 C2566 1.386 . S
C2567 C2571 1.393 . S
C2568 H2557 0.950 . S
C2568 C2566 1.391 . S
C2568 C2569 1.400 . S
C2569 C2563 1.491 . S
C2569 C2568 1.400 . S
C2569 C2570 1.398 . S
C2570 H2558 0.950 . S
C2570 C2569 1.398 . S
C2570 C2571 1.391 . S
C2571 H2559 0.950 . S
C2571 C2567 1.393 . S
C2571 C2570 1.391 . S
H2572 C2580 0.950 . S
H2573 C2585 0.950 . S
H2574 C2582 0.950 . S
H2575 C2584 0.950 . S
H2576 C2586 0.950 . S
H2577 C2588 0.950 . S
H2578 C2590 0.950 . S
H2579 C2591 0.950 . S
C2580 H2572 0.950 . S
C2580 C2581 1.386 . S
C2580 C2582 1.391 . S
C2581 C2580 1.386 . S
C2581 C2585 1.393 . S
C2582 H2574 0.950 . S
C2582 C2580 1.391 . S
C2582 C2583 1.400 . S
C2583 C2582 1.400 . S
C2583 C2584 1.398 . S
C2583 C2589 1.491 . S
C2584 H2575 0.950 . S
C2584 C2583 1.398 . S
C2584 C2585 1.391 . S
C2585 H2573 0.950 . S
C2585 C2581 1.393 . S
C2585 C2584 1.391 . S
C2586 H2576 0.950 . S
C2586 C2587 1.386 . S
C2586 C2588 1.391 . S
C2587 C2586 1.386 . S
C2587 C2591 1.393 . S
C2588 H2577 0.950 . S
C2588 C2586 1.391 . S
C2588 C2589 1.400 . S
C2589 C2583 1.491 . S
C2589 C2588 1.400 . S
C2589 C2590 1.398 . S
C2590 H2578 0.950 . S
C2590 C2589 1.398 . S
C2590 C2591 1.391 . S
C2591 H2579 0.950 . S
C2591 C2587 1.393 . S
C2591 C2590 1.391 . S
H2592 C2600 0.950 . S
H2593 C2605 0.950 . S
H2594 C2602 0.950 . S
H2595 C2604 0.950 . S
H2596 C2606 0.954 1_455 S
H2597 C2608 0.950 . S
H2598 C2610 0.950 . S
H2599 C2611 0.950 . S
C2600 H2592 0.950 . S
C2600 C2601 1.386 . S
C2600 C2602 1.391 . S
C2601 C2600 1.386 . S
C2601 C2605 1.393 . S
C2602 H2594 0.950 . S
C2602 C2600 1.391 . S
C2602 C2603 1.400 . S
C2603 C2602 1.400 . S
C2603 C2604 1.398 . S
C2603 C2609 1.491 . S
C2604 H2595 0.950 . S
C2604 C2603 1.398 . S
C2604 C2605 1.391 . S
C2605 H2593 0.950 . S
C2605 C2601 1.393 . S
C2605 C2604 1.391 . S
C2606 H2596 0.954 1_655 S
C2606 C2607 1.369 . S
C2606 C2608 1.389 . S
C2607 C2606 1.369 . S
C2607 C2611 1.431 . S
C2608 H2597 0.950 . S
C2608 C2606 1.389 . S
C2608 C2609 1.400 . S
C2609 C2603 1.491 . S
C2609 C2608 1.400 . S
C2609 C2610 1.398 . S
C2610 H2598 0.950 . S
C2610 C2609 1.398 . S
C2610 C2611 1.391 . S
C2611 H2599 0.950 . S
C2611 C2607 1.431 . S
C2611 C2610 1.391 . S
H2612 C2620 0.950 . S
H2613 C2625 0.950 . S
H2614 C2622 0.950 . S
H2615 C2624 0.950 . S
H2616 C2626 0.950 . S
H2617 C2628 0.950 . S
H2618 C2630 0.950 . S
H2619 C2631 0.950 . S
C2620 H2612 0.950 . S
C2620 C2621 1.386 . S
C2620 C2622 1.391 . S
C2621 C2620 1.386 . S
C2621 C2625 1.393 . S
C2622 H2614 0.950 . S
C2622 C2620 1.391 . S
C2622 C2623 1.400 . S
C2623 C2622 1.400 . S
C2623 C2624 1.398 . S
C2623 C2629 1.491 . S
C2624 H2615 0.950 . S
C2624 C2623 1.398 . S
C2624 C2625 1.391 . S
C2625 H2613 0.950 . S
C2625 C2621 1.393 . S
C2625 C2624 1.391 . S
C2626 H2616 0.950 . S
C2626 C2627 1.386 . S
C2626 C2628 1.391 . S
C2627 C2626 1.386 . S
C2627 C2631 1.393 . S
C2628 H2617 0.950 . S
C2628 C2626 1.391 . S
C2628 C2629 1.400 . S
C2629 C2623 1.491 . S
C2629 C2628 1.400 . S
C2629 C2630 1.398 . S
C2630 H2618 0.950 . S
C2630 C2629 1.398 . S
C2630 C2631 1.391 . S
C2631 H2619 0.950 . S
C2631 C2627 1.393 . S
C2631 C2630 1.391 . S
H2632 C2640 0.950 . S
H2633 C2645 0.950 . S
H2634 C2642 0.950 . S
H2635 C2644 0.950 . S
H2636 C2646 0.950 . S
H2637 C2648 0.950 . S
H2638 C2650 0.950 . S
H2639 C2651 0.950 . S
C2640 H2632 0.950 . S
C2640 C2641 1.386 . S
C2640 C2642 1.391 . S
C2641 C2640 1.386 . S
C2641 C2645 1.393 . S
C2642 H2634 0.950 . S
C2642 C2640 1.391 . S
C2642 C2643 1.400 . S
C2643 C2642 1.400 . S
C2643 C2644 1.398 . S
C2643 C2649 1.491 . S
C2644 H2635 0.950 . S
C2644 C2643 1.398 . S
C2644 C2645 1.391 . S
C2645 H2633 0.950 . S
C2645 C2641 1.393 . S
C2645 C2644 1.391 . S
C2646 H2636 0.950 . S
C2646 C2647 1.386 . S
C2646 C2648 1.391 . S
C2647 C2646 1.386 . S
C2647 C2651 1.393 . S
C2648 H2637 0.950 . S
C2648 C2646 1.391 . S
C2648 C2649 1.400 . S
C2649 C2643 1.491 . S
C2649 C2648 1.400 . S
C2649 C2650 1.398 . S
C2650 H2638 0.950 . S
C2650 C2649 1.398 . S
C2650 C2651 1.391 . S
C2651 H2639 0.950 . S
C2651 C2647 1.393 . S
C2651 C2650 1.391 . S
H2652 C2660 0.950 . S
H2653 C2665 0.950 . S
H2654 C2662 0.950 . S
H2655 C2664 0.950 . S
H2656 C2666 0.950 . S
H2657 C2668 0.950 . S
H2658 C2670 0.950 . S
H2659 C2671 0.950 . S
C2660 H2652 0.950 . S
C2660 C2661 1.386 . S
C2660 C2662 1.391 . S
C2661 C2660 1.386 . S
C2661 C2665 1.393 . S
C2662 H2654 0.950 . S
C2662 C2660 1.391 . S
C2662 C2663 1.400 . S
C2663 C2662 1.400 . S
C2663 C2664 1.398 . S
C2663 C2669 1.491 . S
C2664 H2655 0.950 . S
C2664 C2663 1.398 . S
C2664 C2665 1.391 . S
C2665 H2653 0.950 . S
C2665 C2661 1.393 . S
C2665 C2664 1.391 . S
C2666 H2656 0.950 . S
C2666 C2667 1.386 . S
C2666 C2668 1.391 . S
C2667 C2666 1.386 . S
C2667 C2671 1.393 . S
C2668 H2657 0.950 . S
C2668 C2666 1.391 . S
C2668 C2669 1.400 . S
C2669 C2663 1.491 . S
C2669 C2668 1.400 . S
C2669 C2670 1.398 . S
C2670 H2658 0.950 . S
C2670 C2669 1.398 . S
C2670 C2671 1.391 . S
C2671 H2659 0.950 . S
C2671 C2667 1.393 . S
C2671 C2670 1.391 . S
H2672 C2680 0.950 . S
H2673 C2685 0.950 . S
H2674 C2682 0.950 . S
H2675 C2684 0.950 . S
H2676 C2686 0.950 . S
H2677 C2688 0.950 . S
H2678 C2690 0.950 . S
H2679 C2691 0.950 . S
C2680 H2672 0.950 . S
C2680 C2681 1.386 . S
C2680 C2682 1.391 . S
C2681 C2680 1.386 . S
C2681 C2685 1.393 . S
C2682 H2674 0.950 . S
C2682 C2680 1.391 . S
C2682 C2683 1.400 . S
C2683 C2682 1.400 . S
C2683 C2684 1.398 . S
C2683 C2689 1.491 . S
C2684 H2675 0.950 . S
C2684 C2683 1.398 . S
C2684 C2685 1.391 . S
C2685 H2673 0.950 . S
C2685 C2681 1.393 . S
C2685 C2684 1.391 . S
C2686 H2676 0.950 . S
C2686 C2687 1.386 . S
C2686 C2688 1.391 . S
C2687 C2686 1.386 . S
C2687 C2691 1.393 . S
C2688 H2677 0.950 . S
C2688 C2686 1.391 . S
C2688 C2689 1.400 . S
C2689 C2683 1.491 . S
C2689 C2688 1.400 . S
C2689 C2690 1.398 . S
C2690 H2678 0.950 . S
C2690 C2689 1.398 . S
C2690 C2691 1.391 . S
C2691 H2679 0.950 . S
C2691 C2687 1.393 . S
C2691 C2690 1.391 . S
H2692 C2700 0.950 . S
H2693 C2705 0.950 . S
H2694 C2702 0.950 . S
H2695 C2704 0.950 . S
H2696 C2706 0.950 . S
H2697 C2708 0.950 . S
H2698 C2710 0.950 . S
H2699 C2711 0.950 . S
C2700 H2692 0.950 . S
C2700 C2701 1.386 . S
C2700 C2702 1.391 . S
C2701 C2700 1.386 . S
C2701 C2705 1.393 . S
C2702 H2694 0.950 . S
C2702 C2700 1.391 . S
C2702 C2703 1.400 . S
C2703 C2702 1.400 . S
C2703 C2704 1.398 . S
C2703 C2709 1.491 . S
C2704 H2695 0.950 . S
C2704 C2703 1.398 . S
C2704 C2705 1.391 . S
C2705 H2693 0.950 . S
C2705 C2701 1.393 . S
C2705 C2704 1.391 . S
C2706 H2696 0.950 . S
C2706 C2707 1.386 . S
C2706 C2708 1.391 . S
C2707 C2706 1.386 . S
C2707 C2711 1.393 . S
C2708 H2697 0.950 . S
C2708 C2706 1.391 . S
C2708 C2709 1.400 . S
C2709 C2703 1.491 . S
C2709 C2708 1.400 . S
C2709 C2710 1.398 . S
C2710 H2698 0.950 . S
C2710 C2709 1.398 . S
C2710 C2711 1.391 . S
C2711 H2699 0.950 . S
C2711 C2707 1.393 . S
C2711 C2710 1.391 . S
H2712 C2720 0.950 . S
H2713 C2725 0.950 . S
H2714 C2722 0.950 . S
H2715 C2724 0.950 . S
H2716 C2726 0.950 . S
H2717 C2728 0.950 . S
H2718 C2730 0.950 . S
H2719 C2731 0.950 . S
C2720 H2712 0.950 . S
C2720 C2721 1.386 . S
C2720 C2722 1.391 . S
C2721 C2720 1.386 . S
C2721 C2725 1.393 . S
C2722 H2714 0.950 . S
C2722 C2720 1.391 . S
C2722 C2723 1.400 . S
C2723 C2722 1.400 . S
C2723 C2724 1.398 . S
C2723 C2729 1.491 . S
C2724 H2715 0.950 . S
C2724 C2723 1.398 . S
C2724 C2725 1.391 . S
C2725 H2713 0.950 . S
C2725 C2721 1.393 . S
C2725 C2724 1.391 . S
C2726 H2716 0.950 . S
C2726 C2727 1.386 . S
C2726 C2728 1.391 . S
C2727 C2726 1.386 . S
C2727 C2731 1.393 . S
C2728 H2717 0.950 . S
C2728 C2726 1.391 . S
C2728 C2729 1.400 . S
C2729 C2723 1.491 . S
C2729 C2728 1.400 . S
C2729 C2730 1.398 . S
C2730 H2718 0.950 . S
C2730 C2729 1.398 . S
C2730 C2731 1.391 . S
C2731 H2719 0.950 . S
C2731 C2727 1.393 . S
C2731 C2730 1.391 . S
H2732 C2740 0.950 . S
H2733 C2745 0.950 . S
H2734 C2742 0.950 . S
H2735 C2744 0.950 . S
H2736 C2746 0.950 . S
H2737 C2748 0.950 . S
H2738 C2750 0.950 . S
H2739 C2751 0.950 1_545 S
C2740 H2732 0.950 . S
C2740 C2741 1.386 . S
C2740 C2742 1.391 . S
C2741 C2740 1.386 . S
C2741 C2745 1.393 . S
C2742 H2734 0.950 . S
C2742 C2740 1.391 . S
C2742 C2743 1.400 . S
C2743 C2742 1.400 . S
C2743 C2744 1.398 . S
C2743 C2749 1.491 . S
C2744 H2735 0.950 . S
C2744 C2743 1.398 . S
C2744 C2745 1.391 . S
C2745 H2733 0.950 . S
C2745 C2741 1.393 . S
C2745 C2744 1.391 . S
C2746 H2736 0.950 . S
C2746 C2747 1.386 . S
C2746 C2748 1.391 . S
C2747 C2746 1.386 . S
C2747 C2751 1.393 . S
C2748 H2737 0.950 . S
C2748 C2746 1.391 . S
C2748 C2749 1.400 . S
C2749 C2743 1.491 . S
C2749 C2748 1.400 . S
C2749 C2750 1.398 . S
C2750 H2738 0.950 . S
C2750 C2749 1.398 . S
C2750 C2751 1.391 . S
C2751 H2739 0.950 1_565 S
C2751 C2747 1.393 . S
C2751 C2750 1.391 . S
H2752 C2760 0.950 . S
H2753 C2765 0.950 . S
H2754 C2762 0.950 . S
H2755 C2764 0.950 . S
H2756 C2766 0.950 . S
H2757 C2768 0.950 . S
H2758 C2770 0.950 . S
H2759 C2771 0.950 . S
C2760 H2752 0.950 . S
C2760 C2761 1.386 . S
C2760 C2762 1.391 . S
C2761 C2760 1.386 . S
C2761 C2765 1.393 . S
C2762 H2754 0.950 . S
C2762 C2760 1.391 . S
C2762 C2763 1.400 . S
C2763 C2762 1.400 . S
C2763 C2764 1.398 . S
C2763 C2769 1.491 . S
C2764 H2755 0.950 . S
C2764 C2763 1.398 . S
C2764 C2765 1.391 . S
C2765 H2753 0.950 . S
C2765 C2761 1.393 . S
C2765 C2764 1.391 . S
C2766 H2756 0.950 . S
C2766 C2767 1.386 . S
C2766 C2768 1.391 . S
C2767 C2766 1.386 . S
C2767 C2771 1.393 . S
C2768 H2757 0.950 . S
C2768 C2766 1.391 . S
C2768 C2769 1.400 . S
C2769 C2763 1.491 . S
C2769 C2768 1.400 . S
C2769 C2770 1.398 . S
C2770 H2758 0.950 . S
C2770 C2769 1.398 . S
C2770 C2771 1.391 . S
C2771 H2759 0.950 . S
C2771 C2767 1.393 . S
C2771 C2770 1.391 . S
H2772 C2780 0.950 . S
H2773 C2785 0.950 . S
H2774 C2782 0.950 . S
H2775 C2784 0.950 . S
H2776 C2786 0.950 . S
H2777 C2788 0.950 . S
H2778 C2790 0.950 . S
H2779 C2791 0.950 . S
C2780 H2772 0.950 . S
C2780 C2781 1.386 . S
C2780 C2782 1.391 . S
C2781 C2780 1.386 . S
C2781 C2785 1.393 . S
C2782 H2774 0.950 . S
C2782 C2780 1.391 . S
C2782 C2783 1.400 . S
C2783 C2782 1.400 . S
C2783 C2784 1.398 . S
C2783 C2789 1.491 . S
C2784 H2775 0.950 . S
C2784 C2783 1.398 . S
C2784 C2785 1.391 . S
C2785 H2773 0.950 . S
C2785 C2781 1.393 . S
C2785 C2784 1.391 . S
C2786 H2776 0.950 . S
C2786 C2787 1.386 . S
C2786 C2788 1.391 . S
C2787 C2786 1.386 . S
C2787 C2791 1.393 . S
C2788 H2777 0.950 . S
C2788 C2786 1.391 . S
C2788 C2789 1.400 . S
C2789 C2783 1.491 . S
C2789 C2788 1.400 . S
C2789 C2790 1.398 . S
C2790 H2778 0.950 . S
C2790 C2789 1.398 . S
C2790 C2791 1.391 . S
C2791 H2779 0.950 . S
C2791 C2787 1.393 . S
C2791 C2790 1.391 . S
H2792 C2800 0.950 . S
H2793 C2805 0.950 . S
H2794 C2802 0.950 . S
H2795 C2804 0.950 . S
H2796 C2806 0.950 . S
H2797 C2808 0.950 . S
H2798 C2810 0.950 . S
H2799 C2811 0.950 . S
C2800 H2792 0.950 . S
C2800 C2801 1.386 . S
C2800 C2802 1.391 . S
C2801 C2800 1.386 . S
C2801 C2805 1.393 . S
C2802 H2794 0.950 . S
C2802 C2800 1.391 . S
C2802 C2803 1.400 . S
C2803 C2802 1.400 . S
C2803 C2804 1.398 . S
C2803 C2809 1.491 . S
C2804 H2795 0.950 . S
C2804 C2803 1.398 . S
C2804 C2805 1.391 . S
C2805 H2793 0.950 . S
C2805 C2801 1.393 . S
C2805 C2804 1.391 . S
C2806 H2796 0.950 . S
C2806 C2807 1.386 . S
C2806 C2808 1.391 . S
C2807 C2806 1.386 . S
C2807 C2811 1.393 . S
C2808 H2797 0.950 . S
C2808 C2806 1.391 . S
C2808 C2809 1.400 . S
C2809 C2803 1.491 . S
C2809 C2808 1.400 . S
C2809 C2810 1.398 . S
C2810 H2798 0.950 . S
C2810 C2809 1.398 . S
C2810 C2811 1.391 . S
C2811 H2799 0.950 . S
C2811 C2807 1.393 . S
C2811 C2810 1.391 . S
H2812 C2820 0.950 . S
H2813 C2825 0.950 . S
H2814 C2822 0.950 . S
H2815 C2824 0.950 . S
H2816 C2826 0.950 1_556 S
H2817 C2828 0.950 1_556 S
H2818 C2830 0.950 . S
H2819 C2831 0.950 . S
C2820 H2812 0.950 . S
C2820 C2821 1.386 . S
C2820 C2822 1.391 . S
C2821 C2820 1.386 . S
C2821 C2825 1.393 . S
C2822 H2814 0.950 . S
C2822 C2820 1.391 . S
C2822 C2823 1.400 . S
C2823 C2822 1.400 . S
C2823 C2824 1.398 . S
C2823 C2829 1.491 . S
C2824 H2815 0.950 . S
C2824 C2823 1.398 . S
C2824 C2825 1.391 . S
C2825 H2813 0.950 . S
C2825 C2821 1.393 . S
C2825 C2824 1.391 . S
C2826 H2816 0.950 1_554 S
C2826 C2827 1.386 . S
C2826 C2828 1.391 . S
C2827 C2826 1.386 . S
C2827 C2831 1.393 . S
C2828 H2817 0.950 1_554 S
C2828 C2826 1.391 . S
C2828 C2829 1.400 . S
C2829 C2823 1.491 . S
C2829 C2828 1.400 . S
C2829 C2830 1.398 . S
C2830 H2818 0.950 . S
C2830 C2829 1.398 . S
C2830 C2831 1.391 . S
C2831 H2819 0.950 . S
C2831 C2827 1.393 . S
C2831 C2830 1.391 . S
H2832 C2840 0.950 . S
H2833 C2845 0.950 . S
H2834 C2842 0.950 . S
H2835 C2844 0.950 . S
H2836 C2846 0.950 . S
H2837 C2848 0.950 . S
H2838 C2850 0.950 . S
H2839 C2851 0.950 . S
C2840 H2832 0.950 . S
C2840 C2841 1.386 . S
C2840 C2842 1.391 . S
C2841 C2840 1.386 . S
C2841 C2845 1.393 . S
C2842 H2834 0.950 . S
C2842 C2840 1.391 . S
C2842 C2843 1.400 . S
C2843 C2842 1.400 . S
C2843 C2844 1.398 . S
C2843 C2849 1.491 . S
C2844 H2835 0.950 . S
C2844 C2843 1.398 . S
C2844 C2845 1.391 . S
C2845 H2833 0.950 . S
C2845 C2841 1.393 . S
C2845 C2844 1.391 . S
C2846 H2836 0.950 . S
C2846 C2847 1.386 . S
C2846 C2848 1.391 . S
C2847 C2846 1.386 . S
C2847 C2851 1.393 . S
C2848 H2837 0.950 . S
C2848 C2846 1.391 . S
C2848 C2849 1.400 . S
C2849 C2843 1.491 . S
C2849 C2848 1.400 . S
C2849 C2850 1.398 . S
C2850 H2838 0.950 . S
C2850 C2849 1.398 . S
C2850 C2851 1.391 . S
C2851 H2839 0.950 . S
C2851 C2847 1.393 . S
C2851 C2850 1.391 . S
H2852 C2860 0.950 . S
H2853 C2865 0.950 . S
H2854 C2862 0.950 . S
H2855 C2864 0.950 . S
H2856 C2866 0.950 . S
H2857 C2868 0.950 . S
H2858 C2870 0.950 . S
H2859 C2871 0.950 . S
C2860 H2852 0.950 . S
C2860 C2861 1.386 . S
C2860 C2862 1.391 . S
C2861 C2860 1.386 . S
C2861 C2865 1.393 . S
C2862 H2854 0.950 . S
C2862 C2860 1.391 . S
C2862 C2863 1.400 . S
C2863 C2862 1.400 . S
C2863 C2864 1.398 . S
C2863 C2869 1.491 . S
C2864 H2855 0.950 . S
C2864 C2863 1.398 . S
C2864 C2865 1.391 . S
C2865 H2853 0.950 . S
C2865 C2861 1.393 . S
C2865 C2864 1.391 . S
C2866 H2856 0.950 . S
C2866 C2867 1.386 . S
C2866 C2868 1.391 . S
C2867 C2866 1.386 . S
C2867 C2871 1.393 . S
C2868 H2857 0.950 . S
C2868 C2866 1.391 . S
C2868 C2869 1.400 . S
C2869 C2863 1.491 . S
C2869 C2868 1.400 . S
C2869 C2870 1.398 . S
C2870 H2858 0.950 . S
C2870 C2869 1.398 . S
C2870 C2871 1.391 . S
C2871 H2859 0.950 . S
C2871 C2867 1.393 . S
C2871 C2870 1.391 . S
C961 C101 2.314 . S
C967 C322 2.219 . S
C981 C57 1.944 . S
C987 C370 1.968 . S
C1001 C70 1.142 . S
C1007 C402 1.130 . S
C1027 C447 1.594 . S
C1021 C82 1.641 . S
C1041 C23 0.891 . S
C1047 C487 0.883 . S
C1067 C522 0.758 . S
C1061 C29 0.760 . S
C1087 C561 1.326 . S
C1081 C49 1.314 . S
C1101 C10 1.238 . S
C1107 C598 1.229 . S
C1127 C330 2.005 . S
C1121 C218 1.985 . S
C1141 C226 0.335 . S
C1147 C367 0.492 . S
C1167 C410 2.331 . S
C1161 C251 2.327 . S
C1187 C442 0.976 . S
C1181 C159 0.990 1_556 S
C1201 C211 1.143 . S
C1207 C482 1.109 . S
C1227 C530 0.242 . S
C1221 C225 0.316 . S
C1247 C571 1.931 . S
C1241 C252 2.002 . S
C1267 C601 1.994 . S
C1261 C166 1.995 . S
C1287 C327 1.494 . S
C1281 C147 1.525 . S
C1301 C263 2.070 . S
C1307 C650 2.072 . S
C1327 C687 1.291 . S
C1321 C309 1.293 . S
C1347 C718 0.716 . S
C1341 C291 0.714 . S
C1361 C108 2.743 . S
C1367 C611 2.693 . S
C1381 C121 1.417 . S
C1387 C407 1.403 . S
C1401 C302 1.682 . S
C1407 C770 1.735 . S
C1427 C802 1.741 . S
C1421 C276 1.777 . S
C1447 C331 2.300 . S
C1441 C55 2.361 . S
C1467 C801 2.331 . S
C1461 C96 2.350 . S
C1481 C88 1.503 . S
C1487 C411 1.476 . S
C1501 C75 1.790 . S
C1507 C758 1.756 . S
C1527 C478 1.093 . S
C1521 C4 1.092 . S
C1541 C44 1.337 . S
C1547 C691 1.323 . S
C1567 C570 1.302 1_556 S
C1561 C31 1.328 . S
C1587 C847 1.397 . S
C1581 C18 1.395 . S
C1607 C321 2.214 1_556 S
C1601 C133 2.217 . S
C1627 C798 0.490 . S
C1621 C296 0.427 . S
C1641 C107 2.616 . S
C1647 C401 2.585 . S
C1661 C264 1.365 . S
C1667 C771 1.340 . S
C1681 C140 1.516 . S
C1687 C491 1.494 . S
C1707 C681 0.677 . S
C1701 C289 0.657 . S
C1721 C114 2.331 . S
C1727 C562 2.266 . S
C1741 C265 2.112 . S
C1747 C850 2.081 . S
C1761 C179 1.307 . S
C1767 C318 1.298 . S
C1781 C161 2.421 . S
C1787 C641 2.383 . S
C1801 C244 1.354 . S
C1807 C518 1.344 . S
C1821 C224 0.612 . S
C1827 C727 0.636 . S
C1847 C842 2.892 . S
C1841 C257 2.947 . S
C1861 C199 1.612 . S
C1867 C398 1.594 . S
C1887 C441 1.947 . S
C1881 C237 1.947 . S
C1907 C371 2.033 . S
C1901 C185 2.030 . S
C1921 C69 2.314 . S
C1927 C882 2.219 . S
C1947 C810 1.966 . S
C1941 C83 1.940 . S
C1961 C94 1.144 . S
C1967 C922 1.119 . S
C1981 C56 1.630 . S
C1987 C767 1.584 . S
C2001 C42 0.896 . S
C2007 C647 0.896 . S
C2027 C682 0.742 . S
C2021 C3 0.760 . S
C2047 C721 1.334 . S
C2041 C16 1.309 . S
C2067 C838 1.210 . S
C2061 C36 1.224 . S
C2087 C890 2.007 . S
C2081 C238 1.991 . S
C2101 C174 0.312 . S
C2107 C807 0.469 . S
C2127 C930 2.336 . S
C2121 C186 2.321 . S
C2147 C762 0.951 . S
C2141 C198 0.981 . S
C2167 C642 1.109 . S
C2161 C239 1.142 . S
C2181 C173 0.360 . S
C2187 C690 0.207 . S
C2207 C731 1.923 . S
C2201 C187 2.014 . S
C2221 C205 1.994 . S
C2227 C841 1.990 . S
C2247 C887 1.495 . S
C2241 C290 1.528 . S
C2261 C122 2.065 . S
C2267 C490 2.076 . S
C2287 C527 1.272 . S
C2281 C134 1.286 1_565 S
C2307 C558 0.759 . S
C2301 C148 0.747 . S
C2327 C851 2.701 . S
C2321 C283 2.738 . S
C2341 C270 1.418 . S
C2347 C927 1.405 . S
C2367 C450 1.736 . S
C2361 C135 1.693 . S
C2387 C362 1.735 . S
C2381 C109 1.775 . S
C2401 C81 2.366 . S
C2407 C891 2.298 . S
C2427 C361 2.333 . S
C2421 C68 2.347 . S
C2441 C62 1.500 . S
C2447 C931 1.484 . S
C2461 C95 1.785 . S
C2467 C438 1.743 . S
C2481 C30 1.093 . S
C2487 C638 1.090 . S
C2507 C531 1.325 . S
C2501 C17 1.319 . S
C2521 C5 1.327 . S
C2527 C730 1.300 . S
C2541 C43 1.389 . S
C2547 C607 1.390 . S
C2567 C881 2.216 . S
C2561 C304 2.218 . S
C2581 C153 0.408 . S
C2587 C358 0.466 . S
C2607 C921 2.558 1_656 S
C2601 C278 2.614 . S
C2621 C127 1.364 . S
C2627 C451 1.338 . S
C2641 C303 1.514 . S
C2647 C651 1.486 . S
C2667 C521 0.656 . S
C2661 C146 0.660 . S
C2681 C277 2.333 . S
C2687 C722 2.261 1_655 S
C2707 C610 2.085 . S
C2701 C120 2.105 . S
C2727 C878 1.295 . S
C2721 C231 1.311 . S
C2747 C481 2.380 1_665 S
C2741 C200 2.423 . S
C2761 C212 1.353 . S
C2767 C678 1.347 . S
C2787 C567 0.630 . S
C2781 C172 0.606 . S
C2801 C192 2.944 . S
C2807 C602 2.900 . S
C2821 C160 1.609 . S
C2827 C918 1.590 . S
C2847 C761 1.953 . S
C2841 C213 1.945 . S
C2867 C811 2.023 . S
C2861 C250 2.030 . S
