# Generated by pormake.
# Topology zzz, (3,6)-cn, num edge types: 1
# Building blocks:
#     Node 0, Type 0, BuildingBlock: WUSLED_clean_sbu_0, # of connection points: 3
#     Node 1, Type 0, BuildingBlock: WUSLED_clean_sbu_0, # of connection points: 3
#     Node 2, Type 0, BuildingBlock: WUSLED_clean_sbu_0, # of connection points: 3
#     Node 3, Type 0, BuildingBlock: WUSLED_clean_sbu_0, # of connection points: 3
#     Node 4, Type 0, BuildingBlock: WUSLED_clean_sbu_0, # of connection points: 3
#     Node 5, Type 0, BuildingBlock: WUSLED_clean_sbu_0, # of connection points: 3
#     Node 6, Type 0, BuildingBlock: WUSLED_clean_sbu_0, # of connection points: 3
#     Node 7, Type 0, BuildingBlock: WUSLED_clean_sbu_0, # of connection points: 3
#     Node 8, Type 1, BuildingBlock: INOVEN_clean_sbu_0, # of connection points: 6
#     Node 9, Type 1, BuildingBlock: INOVEN_clean_sbu_0, # of connection points: 6
#     Node 10, Type 1, BuildingBlock: INOVEN_clean_sbu_0, # of connection points: 6
#     Node 11, Type 1, BuildingBlock: INOVEN_clean_sbu_0, # of connection points: 6
#     Edge 12, Type (0, 1), BuildingBlock: XUDNAN_clean_linker_2, # of connection points: 2
#     Edge 13, Type (0, 1), BuildingBlock: XUDNAN_clean_linker_2, # of connection points: 2
#     Edge 14, Type (0, 1), BuildingBlock: XUDNAN_clean_linker_2, # of connection points: 2
#     Edge 15, Type (0, 1), BuildingBlock: XUDNAN_clean_linker_2, # of connection points: 2
#     Edge 16, Type (0, 1), BuildingBlock: XUDNAN_clean_linker_2, # of connection points: 2
#     Edge 17, Type (0, 1), BuildingBlock: XUDNAN_clean_linker_2, # of connection points: 2
#     Edge 18, Type (0, 1), BuildingBlock: XUDNAN_clean_linker_2, # of connection points: 2
#     Edge 19, Type (0, 1), BuildingBlock: XUDNAN_clean_linker_2, # of connection points: 2
#     Edge 20, Type (0, 1), BuildingBlock: XUDNAN_clean_linker_2, # of connection points: 2
#     Edge 21, Type (0, 1), BuildingBlock: XUDNAN_clean_linker_2, # of connection points: 2
#     Edge 22, Type (0, 1), BuildingBlock: XUDNAN_clean_linker_2, # of connection points: 2
#     Edge 23, Type (0, 1), BuildingBlock: XUDNAN_clean_linker_2, # of connection points: 2
#     Edge 24, Type (0, 1), BuildingBlock: XUDNAN_clean_linker_2, # of connection points: 2
#     Edge 25, Type (0, 1), BuildingBlock: XUDNAN_clean_linker_2, # of connection points: 2
#     Edge 26, Type (0, 1), BuildingBlock: XUDNAN_clean_linker_2, # of connection points: 2
#     Edge 27, Type (0, 1), BuildingBlock: XUDNAN_clean_linker_2, # of connection points: 2
#     Edge 28, Type (0, 1), BuildingBlock: XUDNAN_clean_linker_2, # of connection points: 2
#     Edge 29, Type (0, 1), BuildingBlock: XUDNAN_clean_linker_2, # of connection points: 2
#     Edge 30, Type (0, 1), BuildingBlock: XUDNAN_clean_linker_2, # of connection points: 2
#     Edge 31, Type (0, 1), BuildingBlock: XUDNAN_clean_linker_2, # of connection points: 2
#     Edge 32, Type (0, 1), BuildingBlock: XUDNAN_clean_linker_2, # of connection points: 2
#     Edge 33, Type (0, 1), BuildingBlock: XUDNAN_clean_linker_2, # of connection points: 2
#     Edge 34, Type (0, 1), BuildingBlock: XUDNAN_clean_linker_2, # of connection points: 2
#     Edge 35, Type (0, 1), BuildingBlock: XUDNAN_clean_linker_2, # of connection points: 2
# Relax obj value: 0.401
# Max RMSD: 0.264
# Mean RMSD: 0.246
data_MOF--net-zzz--node1-WUSLED_clean_sbu_0--node2-INOVEN_clean_sbu_0--edge1-XUDNAN_clean_linker_2
_symmetry_space_group_name_H-M    P1
_symmetry_Int_Tables_number       1
_symmetry_cell_setting            triclinic
loop_
_symmetry_equiv_pos_as_xyz
'x, y, z'
_cell_length_a     62.141152
_cell_length_b     62.77312
_cell_length_c     19.37827
_cell_angle_alpha  89.928866
_cell_angle_beta   89.743294
_cell_angle_gamma 90.285477
loop_
_atom_site_label
_atom_site_type_symbol
_atom_site_fract_x
_atom_site_fract_y
_atom_site_fract_z
_atom_type_partial_charge
C0 C 0.78276 0.53142 0.52971 0.0
C1 C 0.79931 0.53415 0.48096 0.0
C2 C 0.82682 0.53351 0.57157 0.0
C3 C 0.82091 0.53522 0.50157 0.0
C4 C 0.81022 0.53142 0.62095 0.0
C5 C 0.78841 0.53037 0.60012 0.0
U6 U 0.7412 0.53114 0.38435 0.0
O7 O 0.71019 0.54761 0.37136 0.0
O8 O 0.71139 0.51285 0.36314 0.0
C9 C 0.69954 0.53006 0.35667 0.0
C10 C 0.75979 0.52984 0.50694 0.0
C11 C 0.68412 0.5309 0.29742 0.0
C12 C 0.64688 0.52764 0.25795 0.0
C13 C 0.66215 0.52761 0.31118 0.0
C14 C 0.67503 0.53501 0.17486 0.0
C15 C 0.65303 0.53121 0.18899 0.0
C16 C 0.69045 0.53482 0.22849 0.0
C17 C 0.7816 0.53768 0.22357 0.0
C18 C 0.79011 0.53037 0.1046 0.0
C19 C 0.8174 0.54456 0.18185 0.0
C20 C 0.80245 0.5452 0.23502 0.0
C21 C 0.81142 0.53644 0.11737 0.0
C22 C 0.77519 0.53079 0.15817 0.0
C23 C 0.76717 0.53535 0.28133 0.0
O24 O 0.75176 0.54722 0.47963 0.0
O25 O 0.75449 0.51268 0.47171 0.0
O26 O 0.76087 0.51647 0.30296 0.0
O27 O 0.75965 0.55199 0.31443 0.0
H28 H 0.79557 0.53513 0.4265 0.0
H29 H 0.83322 0.53676 0.46209 0.0
H30 H 0.8141 0.52972 0.67511 0.0
H31 H 0.77597 0.52835 0.63894 0.0
H32 H 0.63019 0.52435 0.27057 0.0
H33 H 0.65676 0.52461 0.36356 0.0
H34 H 0.68036 0.53734 0.12208 0.0
H35 H 0.70728 0.53737 0.21599 0.0
H36 H 0.78551 0.52373 0.05517 0.0
H37 H 0.83397 0.54894 0.19223 0.0
H38 H 0.80746 0.55035 0.28587 0.0
H39 H 0.759 0.52491 0.14951 0.0
C40 C 0.03329 0.77883 0.5412 0.0
C41 C 0.04952 0.79331 0.52146 0.0
C42 C 0.03297 0.82229 0.5889 0.0
C43 C 0.04952 0.81442 0.54561 0.0
C44 C 1.01749 0.80745 0.61259 0.0
C45 C 1.0177 0.78602 0.58915 0.0
U46 U 0.03364 0.73798 0.38976 0.0
O47 O 0.05034 0.70729 0.37381 0.0
O48 O 1.01515 0.70838 0.37124 0.0
C49 C 0.03241 0.69668 0.36205 0.0
C50 C 0.0327 0.75637 0.51312 0.0
C51 C 0.03233 0.68105 0.3034 0.0
C52 C 0.03328 0.64367 0.26767 0.0
C53 C 0.03347 0.6593 0.31943 0.0
C54 C 0.03078 0.67109 0.1808 0.0
C55 C 0.03216 0.64913 0.19713 0.0
C56 C 0.03086 0.68686 0.23321 0.0
C57 C 0.03546 0.77715 0.22609 0.0
C58 C 0.02899 0.78339 0.10499 0.0
C59 C 0.03833 0.81263 0.18165 0.0
C60 C 0.03958 0.79868 0.23661 0.0
C61 C 0.03259 0.8052 0.11555 0.0
C62 C 0.03038 0.76935 0.16048 0.0
C63 C 0.03487 0.76328 0.28514 0.0
O64 O 1.01532 0.75057 0.47937 0.0
O65 O 0.05035 0.74921 0.48347 0.0
O66 O 0.05261 0.75663 0.31469 0.0
O67 O 1.01654 0.75669 0.31166 0.0
H68 H 0.06208 0.78852 0.48586 0.0
H69 H 0.06214 0.82501 0.52736 0.0
H70 H 1.00455 0.81261 0.64615 0.0
H71 H 1.00524 0.77519 0.60697 0.0
H72 H 0.03381 0.62716 0.28362 0.0
H73 H 0.03443 0.65428 0.37283 0.0
H74 H 0.03006 0.67619 0.12747 0.0
H75 H 0.02989 0.70351 0.21883 0.0
H76 H 1.02489 0.7773 0.05445 0.0
H77 H 0.04215 0.82923 0.19114 0.0
H78 H 0.04347 0.80475 0.28744 0.0
H79 H 1.02722 0.75254 0.15257 0.0
C80 C 0.77457 1.02155 0.53089 0.0
C81 C 0.7562 0.02444 0.48978 0.0
C82 C 0.73251 1.01971 0.59029 0.0
C83 C 0.73543 0.02355 0.51924 0.0
C84 C 0.75086 1.01693 0.63142 0.0
C85 C 0.77162 1.01772 0.60194 0.0
U86 U 0.8163 1.02061 0.37969 0.0
O87 O 0.84747 1.00399 0.37232 0.0
O88 O 0.84647 0.03867 0.362 0.0
C89 C 0.85835 1.02144 0.35763 0.0
C90 C 0.79686 1.02246 0.50148 0.0
C91 C 0.87426 1.02021 0.29936 0.0
C92 C 0.9119 1.01678 0.26297 0.0
C93 C 0.89618 1.01801 0.31521 0.0
C94 C 0.88424 1.02026 0.17658 0.0
C95 C 0.90623 1.01804 0.19293 0.0
C96 C 0.86838 1.02119 0.22917 0.0
C97 C 0.77757 1.0142 0.2161 0.0
C98 C 0.76907 1.01758 0.09538 0.0
C99 C 0.74132 1.00762 0.17846 0.0
C100 C 0.75636 1.0083 0.23138 0.0
C101 C 0.74761 1.01275 0.1107 0.0
C102 C 0.78401 1.01841 0.14821 0.0
C103 C 0.79345 1.01667 0.26952 0.0
O104 O 0.80417 1.00476 0.47411 0.0
O105 O 0.8021 0.0394 0.46488 0.0
O106 O 0.79834 0.03553 0.29459 0.0
O107 O 0.7994 1.00012 0.30612 0.0
H108 H 0.75791 0.02753 0.43502 0.0
H109 H 0.72159 0.02628 0.48667 0.0
H110 H 0.74916 1.01442 0.6865 0.0
H111 H 0.78546 1.01552 0.63496 0.0
H112 H 0.92861 1.01504 0.27745 0.0
H113 H 0.90121 1.01722 0.3686 0.0
H114 H 0.87931 1.02095 0.12308 0.0
H115 H 0.85161 1.02269 0.21502 0.0
H116 H 0.77395 1.02202 0.04354 0.0
H117 H 0.72462 1.00416 0.19065 0.0
H118 H 0.75135 1.00501 0.28398 0.0
H119 H 0.80047 0.02299 0.13646 0.0
C120 C 0.52675 0.77105 0.53608 0.0
C121 C 0.51526 0.75394 0.50735 0.0
C122 C 0.529 0.72908 0.59553 0.0
C123 C 0.51616 0.73345 0.53693 0.0
C124 C 0.53989 0.7466 0.62547 0.0
C125 C 0.53869 0.76718 0.59636 0.0
U126 U 0.52478 0.81209 0.38295 0.0
O127 O 0.50884 0.8434 0.37371 0.0
O128 O 0.54394 0.84145 0.36801 0.0
C129 C 0.52696 0.85366 0.36141 0.0
C130 C 0.52647 0.79296 0.50504 0.0
C131 C 0.5272 0.86949 0.30333 0.0
C132 C 0.52722 0.90697 0.26819 0.0
C133 C 0.52644 0.89123 0.31976 0.0
C134 C 0.52929 0.87963 0.18095 0.0
C135 C 0.52874 0.90156 0.19778 0.0
C136 C 0.52862 0.86378 0.23305 0.0
C137 C 0.52148 0.77368 0.21871 0.0
C138 C 0.52506 0.76484 0.09783 0.0
C139 C 0.5244 0.73702 0.18533 0.0
C140 C 0.52196 0.75218 0.23688 0.0
C141 C 0.52664 0.74341 0.11601 0.0
C142 C 0.52253 0.77998 0.14938 0.0
C143 C 0.52236 0.79025 0.27011 0.0
O144 O 0.54359 0.79875 0.46946 0.0
O145 O 0.50848 0.79936 0.47614 0.0
O146 O 0.50504 0.79559 0.30508 0.0
O147 O 0.54084 0.79468 0.29961 0.0
H148 H 0.5056 0.75635 0.46164 0.0
H149 H 0.50664 0.72105 0.51311 0.0
H150 H 0.54996 0.74449 0.67031 0.0
H151 H 0.54747 0.78011 0.62051 0.0
H152 H 0.5264 0.92349 0.28382 0.0
H153 H 0.52532 0.89614 0.37322 0.0
H154 H 0.53066 0.87471 0.12757 0.0
H155 H 0.52934 0.84714 0.21844 0.0
H156 H 0.52663 0.76987 0.04453 0.0
H157 H 0.52514 0.72033 0.19957 0.0
H158 H 0.52116 0.74723 0.29043 0.0
H159 H 0.52226 0.7967 0.13545 0.0
C160 C 0.2737 0.50938 0.85493 0.0
C161 C 0.25539 0.5057 0.89616 0.0
C162 C 0.2317 0.509 0.79572 0.0
C163 C 0.23467 0.50547 0.86682 0.0
C164 C 0.25001 0.51261 0.75432 0.0
C165 C 0.27075 0.51283 0.78367 0.0
U166 U 0.31654 0.50828 1.00418 0.0
O167 O 0.34873 0.49349 1.00886 0.0
O168 O 0.34571 0.52813 0.0155 0.0
C169 C 0.35858 0.51168 0.0212 0.0
C170 C 0.29593 0.50989 0.88451 0.0
C171 C 0.37443 0.5122 0.07934 0.0
C172 C 0.41195 0.51621 0.11525 0.0
C173 C 0.39637 0.51447 0.06324 0.0
C174 C 0.38419 0.51264 0.20217 0.0
C175 C 0.40617 0.51545 0.18546 0.0
C176 C 0.36844 0.51118 0.14969 0.0
C177 C 0.27812 0.50221 0.16707 0.0
C178 C 0.26697 0.49945 0.28621 0.0
C179 C 0.24153 0.50996 0.19765 0.0
C180 C 0.25738 0.5079 0.14734 0.0
C181 C 0.24637 0.50619 0.2678 0.0
C182 C 0.28278 0.49755 0.23596 0.0
C183 C 0.29618 0.50405 0.12049 0.0
O184 O 0.30119 0.5268 0.9208 0.0
O185 O 0.30324 0.49217 0.91198 0.0
O186 O 0.30186 0.4875 0.0833 0.0
O187 O 0.29972 0.52269 0.09149 0.0
H188 H 0.2571 0.50293 0.95102 0.0
H189 H 0.22088 0.50233 0.89972 0.0
H190 H 0.24831 0.51505 0.69925 0.0
H191 H 0.28456 0.51563 0.75048 0.0
H192 H 0.42864 0.51835 0.10043 0.0
H193 H 0.40149 0.51528 1.0098 0.0
H194 H 0.37914 0.51224 0.25575 0.0
H195 H 0.35164 0.50955 0.16405 0.0
H196 H 0.27108 0.49633 0.33953 0.0
H197 H 0.22592 0.51573 0.18179 0.0
H198 H 0.25377 0.5118 0.09416 0.0
H199 H 0.29898 0.4934 0.25137 0.0
C200 C 0.04031 0.27053 0.85294 0.0
C201 C 0.05604 0.25682 0.87921 0.0
C202 C 0.04286 0.2269 0.80859 0.0
C203 C 0.05751 0.23565 0.85662 0.0
C204 C 1.02799 0.24099 0.77831 0.0
C205 C 1.02681 0.26256 0.80012 0.0
U206 U 0.04074 0.31428 0.99801 0.0
O207 O 0.05479 0.34674 1.00105 0.0
O208 O 1.02008 0.34262 1.01153 0.0
C209 C 0.03638 0.35598 0.01586 0.0
C210 C 0.0383 0.29305 0.87925 0.0
C211 C 0.03616 0.37123 0.07603 0.0
C212 C 0.02818 0.40687 0.1234 0.0
C213 C 0.02944 0.39251 0.06709 0.0
C214 C 0.04126 0.37922 0.19853 0.0
C215 C 0.03358 0.40034 0.1907 0.0
C216 C 0.04232 0.3649 0.14262 0.0
C217 C 0.04837 0.27646 0.16145 0.0
C218 C 0.03632 0.26284 0.27185 0.0
C219 C 0.04867 0.23867 0.18246 0.0
C220 C 0.05327 0.25586 0.13913 0.0
C221 C 0.03856 0.24213 0.24662 0.0
C222 C 0.04127 0.27996 0.22921 0.0
C223 C 0.04658 0.29436 0.11439 0.0
O224 O 1.02148 0.29745 0.91811 0.0
O225 O 0.05595 0.30219 0.90252 0.0
O226 O 0.06275 0.2997 0.07385 0.0
O227 O 1.02745 0.29796 0.08839 0.0
H228 H 0.06705 0.26232 0.9186 0.0
H229 H 0.06973 0.22571 0.8797 0.0
H230 H 1.01658 0.23515 0.74061 0.0
H231 H 1.01488 0.27286 0.77711 0.0
H232 H 1.02214 0.42279 0.11457 0.0
H233 H 1.02469 0.39795 0.01638 0.0
H234 H 0.04607 0.37348 0.24886 0.0
H235 H 0.04771 0.34875 0.15178 0.0
H236 H 0.02859 0.26582 0.32113 0.0
H237 H 0.0509 0.22262 0.16318 0.0
H238 H 0.05894 0.25299 0.08706 0.0
H239 H 0.03757 0.29592 0.24685 0.0
C240 C 0.28417 0.04319 0.85178 0.0
C241 C 0.30195 0.05129 0.8884 0.0
C242 C 0.32658 0.04149 0.79432 0.0
C243 C 0.32288 0.05051 0.85984 0.0
C244 C 0.30874 0.03379 0.75731 0.0
C245 C 0.28783 0.03479 0.78546 0.0
U246 U 0.24368 0.04439 1.00574 0.0
O247 O 0.21593 0.02329 0.02739 0.0
O248 O 0.21091 0.05763 0.01828 0.0
C249 C 0.20215 0.03902 0.03283 0.0
C250 C 0.26194 0.0424 0.88209 0.0
C251 C 0.1863 0.03798 0.09137 0.0
C252 C 0.14857 0.03825 0.12941 0.0
C253 C 0.1642 0.03953 0.07669 0.0
C254 C 0.17671 0.03366 0.21355 0.0
C255 C 0.15458 0.03525 0.19856 0.0
C256 C 0.19241 0.03488 0.16061 0.0
C257 C 0.28322 0.05276 0.16751 0.0
C258 C 0.29095 0.04067 0.28296 0.0
C259 C 0.31991 0.05193 0.20633 0.0
C260 C 0.30502 0.05712 0.15595 0.0
C261 C 0.31292 0.0424 0.26799 0.0
C262 C 0.27603 0.04574 0.23224 0.0
C263 C 0.26951 0.04999 0.10814 0.0
O264 O 0.25728 0.02557 0.91978 0.0
O265 O 0.2543 0.06006 0.90896 0.0
O266 O 0.26068 0.06622 0.07632 0.0
O267 O 0.26432 0.03087 0.08612 0.0
H268 H 0.29976 0.0577 0.93981 0.0
H269 H 0.33635 0.05604 0.89036 0.0
H270 H 0.31106 0.02637 0.70741 0.0
H271 H 0.2745 0.02839 0.75603 0.0
H272 H 0.13176 0.0401 0.11625 0.0
H273 H 0.15897 0.04191 0.02399 0.0
H274 H 0.18188 0.03189 0.26656 0.0
H275 H 0.20927 0.03362 0.17385 0.0
H276 H 0.28548 0.03313 0.33026 0.0
H277 H 0.33693 0.05307 0.19416 0.0
H278 H 0.31071 0.06222 0.10556 0.0
H279 H 0.25916 0.04216 0.24105 0.0
C280 C 0.52245 0.28101 0.85 0.0
C281 C 0.52811 0.29819 0.8925 0.0
C282 C 0.5215 0.32406 0.79919 0.0
C283 C 0.52774 0.31923 0.86749 0.0
C284 C 0.5166 0.30678 0.75542 0.0
C285 C 0.5171 0.28553 0.78059 0.0
U286 U 0.52144 0.23783 0.99735 0.0
O287 O 0.54047 0.2084 1.00869 0.0
O288 O 0.5054 0.20628 1.00401 0.0
C289 C 0.52344 0.19607 0.01594 0.0
C290 C 0.52245 0.2585 0.87713 0.0
C291 C 0.52351 0.18029 0.07464 0.0
C292 C 0.51916 0.14323 0.11273 0.0
C293 C 0.51855 0.1589 0.06075 0.0
C294 C 0.5298 0.16987 0.19543 0.0
C295 C 0.52505 0.14817 0.18133 0.0
C296 C 0.52897 0.18567 0.14307 0.0
C297 C 0.5181 0.27598 0.1612 0.0
C298 C 0.51569 0.28676 0.28072 0.0
C299 C 0.52572 0.31233 0.19182 0.0
C300 C 0.52374 0.29666 0.1415 0.0
C301 C 0.52202 0.3074 0.26203 0.0
C302 C 0.51376 0.27115 0.23042 0.0
C303 C 0.51902 0.25829 0.1135 0.0
O304 O 0.53967 0.25246 0.91106 0.0
O305 O 0.50464 0.2515 0.90662 0.0
O306 O 0.50176 0.25289 0.07858 0.0
O307 O 0.53741 0.25443 0.08229 0.0
H308 H 0.53248 0.2954 0.94578 0.0
H309 H 0.53161 0.332 0.90291 0.0
H310 H 0.51146 0.3097 0.70292 0.0
H311 H 0.51286 0.27261 0.7461 0.0
H312 H 0.51471 0.12718 0.09836 0.0
H313 H 0.51422 0.15418 1.00887 0.0
H314 H 0.53462 0.17476 0.2466 0.0
H315 H 0.53288 0.20202 0.15598 0.0
H316 H 0.51267 0.28259 0.33415 0.0
H317 H 0.53111 0.32804 0.17596 0.0
H318 H 0.52739 0.30045 0.08813 0.0
H319 H 0.50962 0.25504 0.2459 0.0
Gd320 Gd 0.04659 1.01969 0.74659 0.0
Gd321 Gd 1.01492 0.0297 0.6442 0.0
C322 C 1.02154 0.97979 0.67297 0.0
C323 C 0.06595 1.00319 0.84962 0.0
C324 C 0.06613 0.98069 0.87009 0.0
C325 C 0.08536 0.96908 0.86762 0.0
C326 C 0.04673 0.97013 0.88565 0.0
C327 C 0.06593 0.93713 0.8998 0.0
C328 C 0.0466 0.94853 0.89969 0.0
C329 C 0.08527 0.94732 0.8824 0.0
C330 C 0.06412 0.02534 0.61911 0.0
C331 C 0.03882 0.06936 0.72442 0.0
C332 C 0.99984 0.04799 0.53664 0.0
C333 C 0.99977 0.07077 0.51744 0.0
C334 C 0.9801 0.08129 0.50997 0.0
C335 C 1.01912 0.08226 0.50696 0.0
C336 C 0.99882 0.11355 0.47486 0.0
C337 C 1.01863 0.10355 0.48588 0.0
C338 C 0.97964 0.10249 0.48876 0.0
C339 C 0.99707 0.02488 0.77134 0.0
O340 O 0.03254 0.98639 0.72713 0.0
O341 O 1.01404 0.99389 0.62808 0.0
O342 O 0.07592 1.00757 0.79175 0.0
O343 O 0.04743 1.01287 0.85557 0.0
O344 O 0.07218 0.03302 0.67558 0.0
O345 O 0.04696 1.01515 0.63263 0.0
O346 O 1.0273 0.06319 0.67085 0.0
O347 O 0.0472 0.055 0.76614 0.0
O348 O 0.98746 0.04229 0.58848 0.0
O349 O 1.01871 0.03889 0.53768 0.0
O350 O 0.98797 1.01834 0.71473 0.0
O351 O 1.01466 0.03431 0.75774 0.0
H352 H 0.1004 0.97685 0.85417 0.0
H353 H 0.03159 0.97845 0.88697 0.0
H354 H 0.03138 0.94077 0.9115 0.0
H355 H 0.10027 0.9386 0.8819 0.0
H356 H 0.96505 0.07293 0.51883 0.0
H357 H 0.03464 0.07474 0.51343 0.0
H358 H 0.03361 0.11184 0.47493 0.0
H359 H 0.96422 0.11006 0.48064 0.0
Gd360 Gd 0.53285 0.04596 0.74084 0.0
Gd361 Gd 0.52642 1.00809 0.64497 0.0
C362 C 0.5751 1.01897 0.6758 0.0
C363 C 0.55206 0.06621 0.83678 0.0
C364 C 0.57423 0.06173 0.8586 0.0
C365 C 0.58902 0.07842 0.86707 0.0
C366 C 0.58156 0.04057 0.86088 0.0
C367 C 0.61785 0.05281 0.88047 0.0
C368 C 0.60309 0.03613 0.87231 0.0
C369 C 0.61074 0.07399 0.87833 0.0
C370 C 0.52782 0.05737 0.60677 0.0
C371 C 0.48431 0.03304 0.71708 0.0
C372 C 0.50792 0.99426 0.53675 0.0
C373 C 0.48464 0.99491 0.52251 0.0
C374 C 0.47283 0.97595 0.51813 0.0
C375 C 0.47387 1.01458 0.51564 0.0
C376 C 0.44058 0.99601 0.492 0.0
C377 C 0.45201 1.0151 0.50048 0.0
C378 C 0.45095 0.97649 0.50309 0.0
C379 C 0.52557 0.99277 0.77693 0.0
O380 O 0.56628 0.03356 0.71632 0.0
O381 O 0.56295 1.00591 0.63843 0.0
O382 O 0.55042 0.07397 0.77439 0.0
O383 O 0.53784 0.05123 0.84996 0.0
O384 O 0.52048 0.06825 0.659 0.0
O385 O 0.53811 0.04127 0.62905 0.0
O386 O 0.49253 1.01887 0.67397 0.0
O387 O 0.49677 0.04564 0.75429 0.0
O388 O 0.51448 0.98114 0.58503 0.0
O389 O 0.5172 1.01287 0.53997 0.0
O390 O 0.52437 0.98079 0.72226 0.0
O391 O 0.52798 1.01195 0.75726 0.0
H392 H 0.58387 0.09483 0.86316 0.0
H393 H 0.57093 0.02736 0.85073 0.0
H394 H 0.60823 1.01966 0.87433 0.0
H395 H 0.62203 0.08706 0.88415 0.0
H396 H 0.4806 0.9607 0.52496 0.0
H397 H 0.48234 0.02964 0.52039 0.0
H398 H 0.44436 0.03036 0.49185 0.0
H399 H 0.44225 0.96159 0.49767 0.0
Gd400 Gd 0.50989 0.53018 0.73346 0.0
Gd401 Gd 0.5473 0.5224 0.63673 0.0
C402 C 0.53742 0.57143 0.66757 0.0
C403 C 0.48708 0.54805 0.82638 0.0
C404 C 0.49127 0.5696 0.85211 0.0
C405 C 0.47443 0.58381 0.86588 0.0
C406 C 0.51265 0.57676 0.85589 0.0
C407 C 0.50051 0.6112 0.8948 0.0
C408 C 0.51714 0.5974 0.87569 0.0
C409 C 0.47902 0.60461 0.8877 0.0
C410 C 0.4985 0.52282 0.60097 0.0
C411 C 0.52257 0.48133 0.71343 0.0
C412 C 0.56328 0.50565 0.52852 0.0
C413 C 0.56319 0.48266 0.5123 0.0
C414 C 0.58235 0.47086 0.51367 0.0
C415 C 0.54359 0.47199 0.50014 0.0
C416 C 0.56264 0.43885 0.48321 0.0
C417 C 0.54335 0.45035 0.48597 0.0
C418 C 0.58209 0.44902 0.49927 0.0
C419 C 0.56375 0.52428 0.76702 0.0
O420 O 0.52326 0.56362 0.71244 0.0
O421 O 0.54893 0.55862 0.62728 0.0
O422 O 0.48104 0.54732 0.76193 0.0
O423 O 0.50181 0.5339 0.84142 0.0
O424 O 0.48816 0.515 0.65378 0.0
O425 O 0.51414 0.53408 0.6217 0.0
O426 O 0.5353 0.48832 0.66293 0.0
O427 O 0.51216 0.495 0.75321 0.0
O428 O 0.57548 0.51172 0.57993 0.0
O429 O 0.5444 0.51482 0.52876 0.0
O430 O 0.5754 0.522 0.71178 0.0
O431 O 0.54426 0.52629 0.74943 0.0
H432 H 0.45784 0.57869 0.86087 0.0
H433 H 0.52603 0.56636 0.84406 0.0
H434 H 0.53385 0.60231 0.87943 0.0
H435 H 0.46595 0.61513 0.90172 0.0
H436 H 0.59754 0.47859 0.52505 0.0
H437 H 0.52834 0.48029 0.50109 0.0
H438 H 0.52804 0.44263 0.47572 0.0
H439 H 0.59708 0.4403 0.49815 0.0
Gd440 Gd 1.02482 0.51071 0.74157 0.0
Gd441 Gd 0.03438 0.54455 0.64381 0.0
C442 C 0.98452 0.53536 0.66692 0.0
C443 C 1.01026 0.49618 0.85668 0.0
C444 C 0.98785 0.49509 0.88199 0.0
C445 C 0.97622 0.47582 0.87965 0.0
C446 C 0.97734 0.51376 0.90377 0.0
C447 C 0.94409 0.49409 0.91724 0.0
C448 C 0.95565 0.51324 0.92106 0.0
C449 C 0.95439 0.47533 0.89727 0.0
C450 C 1.02454 0.49051 0.61726 0.0
C451 C 0.07489 0.51763 0.71107 0.0
C452 C 0.05224 0.56465 0.54435 0.0
C453 C 0.07457 0.56205 0.52189 0.0
C454 C 0.08817 0.57989 0.51793 0.0
C455 C 0.08309 0.54154 0.5122 0.0
C456 C 0.11801 0.55705 0.48896 0.0
C457 C 0.10466 0.53909 0.49575 0.0
C458 C 0.10988 0.5774 0.50167 0.0
C459 C 0.02936 0.55843 0.77522 0.0
O460 O 0.99108 0.52307 0.71795 0.0
O461 O 0.9986 0.54442 0.62497 0.0
O462 O 1.01534 0.48366 0.80522 0.0
O463 O 1.01819 0.51537 0.84955 0.0
O464 O 1.02188 0.4817 0.67721 0.0
O465 O 0.0282 0.51039 0.6248 0.0
O466 O 0.06839 0.53312 0.66972 0.0
O467 O 0.0608 0.50587 0.74584 0.0
O468 O 0.0499 0.57318 0.60535 0.0
O469 O 0.0396 0.54824 0.53422 0.0
O470 O 1.02101 0.568 0.72213 0.0
O471 O 0.03958 0.54219 0.75527 0.0
H472 H 0.98384 0.46129 0.86237 0.0
H473 H 0.98565 0.52896 0.9057 0.0
H474 H 0.94768 0.52791 0.93553 0.0
H475 H 0.94541 0.46056 0.89302 0.0
H476 H 0.08199 0.5957 0.52764 0.0
H477 H 0.07319 0.52736 0.5177 0.0
H478 H 0.1109 0.52317 0.48759 0.0
H479 H 0.12014 0.59134 0.49713 0.0
H480 H 0.12838 1.00381 0.26009 0.0
H481 H 0.14386 0.07117 0.26576 0.0
H482 H 0.11914 0.07581 0.36454 0.0
H483 H 0.06982 1.01102 0.31488 0.0
H484 H 0.06958 0.98677 0.36476 0.0
H485 H 0.08647 0.98896 0.28911 0.0
H486 H 0.1195 0.97903 0.36266 0.0
H487 H 0.10282 0.97713 0.43863 0.0
H488 H 0.12592 0.99464 0.43793 0.0
H489 H 0.09693 0.07313 0.46912 0.0
H490 H 0.07702 0.06361 0.57473 0.0
H491 H 0.07325 0.9979 0.50683 0.0
C492 C 0.12627 1.01954 0.28185 0.0
C493 C 0.13824 0.03722 0.25549 0.0
C494 C 0.13503 0.05749 0.28522 0.0
C495 C 0.12092 0.06027 0.34122 0.0
C496 C 0.10977 0.04264 0.3672 0.0
C497 C 0.11194 1.02266 0.33828 0.0
C498 C 0.09842 1.00644 0.37908 0.0
C499 C 0.07998 0.99778 0.33429 0.0
C500 C 0.11251 0.98824 0.40621 0.0
C501 C 0.08963 1.02025 0.43799 0.0
C502 C 0.09616 0.04114 0.42847 0.0
C503 C 0.09141 0.05692 0.47659 0.0
C504 C 0.0801 0.05134 0.5367 0.0
C505 C 0.0733 0.03018 0.54913 0.0
C506 C 0.07779 1.01437 0.49822 0.0
H507 H 0.52119 0.15145 0.32575 0.0
H508 H 0.53219 0.10447 0.16492 0.0
H509 H 0.53363 0.07635 0.25286 0.0
H510 H 0.55833 0.12705 0.44731 0.0
H511 H 0.54226 0.13398 0.5215 0.0
H512 H 0.54172 0.1505 0.44536 0.0
H513 H 0.50013 0.14614 0.43912 0.0
H514 H 0.50063 0.12973 0.51537 0.0
H515 H 0.4886 0.11972 0.43729 0.0
H516 H 0.53769 0.05299 0.36421 0.0
H517 H 0.53938 0.03776 0.48155 0.0
H518 H 0.52214 0.09898 0.56767 0.0
C519 C 0.52413 0.13539 0.30818 0.0
C520 C 0.52635 0.13076 0.23657 0.0
C521 C 0.52986 0.10902 0.21818 0.0
C522 C 0.53099 0.0927 0.26835 0.0
C523 C 0.52887 0.09798 0.33798 0.0
C524 C 0.52543 0.11885 0.35765 0.0
C525 C 0.52383 0.12048 0.43578 0.0
C526 C 0.54264 0.1338 0.46417 0.0
C527 C 0.50199 0.12956 0.45819 0.0
C528 C 0.52602 0.0973 0.4571 0.0
C529 C 0.52958 0.08454 0.40027 0.0
C530 C 0.53411 0.06286 0.40852 0.0
C531 C 0.5346 0.05414 0.47594 0.0
C532 C 0.52928 0.06661 0.53473 0.0
C533 C 0.52534 0.08862 0.52425 0.0
H534 H 0.41787 0.48948 0.29575 0.0
H535 H 0.43295 0.54978 0.19749 0.0
H536 H 0.45994 0.55741 0.28783 0.0
H537 H 0.42152 0.50372 0.46714 0.0
H538 H 0.43575 0.48054 0.49714 0.0
H539 H 0.41907 0.47875 0.42172 0.0
H540 H 0.45139 0.46493 0.34967 0.0
H541 H 0.46811 0.46636 0.42542 0.0
H542 H 0.47606 0.48013 0.34776 0.0
H543 H 0.48389 0.55955 0.39528 0.0
H544 H 0.50254 0.55553 0.50736 0.0
H545 H 0.47221 0.49385 0.53597 0.0
C546 C 0.4269 0.50425 0.29331 0.0
C547 C 0.42297 0.51921 0.23991 0.0
C548 C 0.43551 0.53815 0.23793 0.0
C549 C 0.45096 0.5426 0.28905 0.0
C550 C 0.45422 0.52772 0.34155 0.0
C551 C 0.44285 0.50872 0.3432 0.0
C552 C 0.44971 0.49535 0.40482 0.0
C553 C 0.43035 0.48924 0.45042 0.0
C554 C 0.46203 0.47551 0.38047 0.0
C555 C 0.46489 0.51063 0.44135 0.0
C556 C 0.46797 0.52892 0.4027 0.0
C557 C 0.48164 0.54519 0.42548 0.0
C558 C 0.49223 0.54276 0.48927 0.0
C559 C 0.48883 0.52438 0.53064 0.0
C560 C 0.47505 0.50811 0.50574 0.0
H561 H 0.03902 0.44545 0.21726 0.0
H562 H 1.01593 0.38631 0.30938 0.0
H563 H 1.01131 0.40419 0.4193 0.0
H564 H 0.06717 0.46784 0.35954 0.0
H565 H 0.05708 0.4947 0.35517 0.0
H566 H 0.05819 0.4786 0.27831 0.0
H567 H 1.01773 0.48457 0.2582 0.0
H568 H 1.01653 0.50088 0.33473 0.0
H569 H 0.99877 0.47828 0.32593 0.0
H570 H 1.01327 0.42438 0.52043 0.0
H571 H 1.0148 0.44939 0.6144 0.0
H572 H 0.03319 0.50013 0.47187 0.0
C573 C 0.03289 0.43637 0.26068 0.0
C574 C 0.02894 0.4138 0.25439 0.0
C575 C 1.02028 0.403 0.3124 0.0
C576 C 1.01734 0.41315 0.37557 0.0
C577 C 1.02242 0.43463 0.38135 0.0
C578 C 0.02931 0.44662 0.32584 0.0
C579 C 0.03217 0.47001 0.34975 0.0
C580 C 0.05503 0.47826 0.33481 0.0
C581 C 1.01531 0.48429 0.31506 0.0
C582 C 1.02769 0.46834 0.42815 0.0
C583 C 1.02183 0.44759 0.44302 0.0
C584 C 1.01735 0.44082 0.50956 0.0
C585 C 1.0184 0.45542 0.56324 0.0
C586 C 1.02393 0.47709 0.55227 0.0
C587 C 0.02871 0.48378 0.48281 0.0
H588 H 0.91777 0.04768 0.09317 0.0
H589 H 0.93358 0.98477 0.1688 0.0
H590 H 0.96063 0.98089 0.07523 0.0
H591 H 0.92162 0.0389 0.9174 0.0
H592 H 0.93499 0.06358 0.89548 0.0
H593 H 0.91829 0.06203 0.97145 0.0
H594 H 0.95003 0.07475 0.04743 0.0
H595 H 0.96679 0.07674 0.97143 0.0
H596 H 0.97525 0.06076 0.04361 0.0
H597 H 0.98258 0.98217 0.96357 0.0
H598 H 0.99912 0.98941 0.84933 0.0
H599 H 0.97247 0.05288 0.85056 0.0
C600 C 0.92702 0.03314 0.09003 0.0
C601 C 0.92324 1.01635 0.1377 0.0
C602 C 0.936 0.99775 0.13266 0.0
C603 C 0.95147 0.99545 0.07969 0.0
C604 C 0.95454 1.01213 0.03275 0.0
C605 C 0.943 0.03082 0.03844 0.0
C606 C 0.94955 0.04639 0.98164 0.0
C607 C 0.92994 0.05311 0.93894 0.0
C608 C 0.96109 0.06582 1.01286 0.0
C609 C 0.96518 0.03293 0.93947 0.0
C610 C 0.96814 1.01334 0.97082 0.0
C611 C 0.98075 0.99765 0.93975 0.0
C612 C 0.99029 1.00191 0.87505 0.0
C613 C 0.98778 1.02181 0.84209 0.0
C614 C 0.97513 0.03763 0.8752 0.0
H615 H 0.50987 0.90249 0.0678 0.0
H616 H 0.55029 0.9402 0.20315 0.0
H617 H 0.5522 0.9686 0.11493 0.0
H618 H 0.53588 0.91426 0.9112 0.0
H619 H 0.51162 0.91615 0.8609 0.0
H620 H 0.51208 0.89968 0.93694 0.0
H621 H 0.47951 0.92022 0.98772 0.0
H622 H 0.47881 0.93665 0.91137 0.0
H623 H 0.481 0.94879 0.99526 0.0
H624 H 0.54894 0.99383 1.00839 0.0
H625 H 0.54337 1.01081 0.89441 0.0
H626 H 0.50865 0.95507 0.82504 0.0
C627 C 0.51925 0.91663 0.07897 0.0
C628 C 0.52992 0.91883 0.14316 0.0
C629 C 0.54168 0.93798 0.15523 0.0
C630 C 0.54292 0.9543 0.10509 0.0
C631 C 0.53222 0.95154 0.04245 0.0
C632 C 0.52059 0.93314 0.02951 0.0
C633 C 0.51072 0.9339 0.95799 0.0
C634 C 0.51802 0.91487 0.91415 0.0
C635 C 0.48605 0.93494 0.9634 0.0
C636 C 0.51977 0.95481 0.93058 0.0
C637 C 0.53147 0.96522 0.98089 0.0
C638 C 0.54014 0.98549 0.96853 0.0
C639 C 0.53712 0.99503 0.90311 0.0
C640 C 0.52644 0.98407 0.8493 0.0
C641 C 0.5174 0.96377 0.86424 0.0
H642 H 0.63444 0.56037 0.09667 0.0
H643 H 0.63505 0.49363 0.15402 0.0
H644 H 0.60994 0.48543 0.05923 0.0
H645 H 0.57522 0.55939 0.04617 0.0
H646 H 0.57924 0.57834 0.9774 0.0
H647 H 0.59585 0.57952 0.05342 0.0
H648 H 0.62985 0.57717 0.97646 0.0
H649 H 0.61341 0.57567 0.90036 0.0
H650 H 0.63281 0.55509 0.91774 0.0
H651 H 0.58822 0.48342 0.95119 0.0
H652 H 0.56904 0.4882 0.84072 0.0
H653 H 0.58007 0.55628 0.85179 0.0
C654 C 0.62913 0.54408 0.08923 0.0
C655 C 0.63703 0.52749 0.13227 0.0
C656 C 0.62942 0.50649 0.12154 0.0
C657 C 0.61507 0.5017 0.06787 0.0
C658 C 0.60788 0.51816 0.02556 0.0
C659 C 0.61423 0.53904 0.03629 0.0
C660 C 0.60387 0.55354 0.98249 0.0
C661 C 0.58759 0.5686 0.01693 0.0
C662 C 0.62101 0.5661 0.94182 0.0
C663 C 0.59224 0.53733 0.93694 0.0
C664 C 0.59444 0.51708 0.964 0.0
C665 C 0.58596 0.49926 0.93045 0.0
C666 C 0.57499 0.50211 0.86775 0.0
C667 C 0.57245 0.52259 0.83858 0.0
C668 C 0.58121 0.54047 0.87387 0.0
H669 H 1.01269 0.64804 0.06687 0.0
H670 H 0.05388 0.61067 0.20055 0.0
H671 H 0.05584 0.58271 0.11206 0.0
H672 H 0.984 0.60258 0.98894 0.0
H673 H 0.98301 0.61502 0.90518 0.0
H674 H 0.98325 0.63121 0.98195 0.0
H675 H 1.01683 0.65145 0.93476 0.0
H676 H 1.01685 0.63506 0.85854 0.0
H677 H 0.04054 0.63658 0.91165 0.0
H678 H 0.05527 0.55912 1.00313 0.0
H679 H 0.05155 0.54293 0.88723 0.0
H680 H 1.01145 0.59566 0.82366 0.0
C681 C 1.02219 0.63405 0.0779 0.0
C682 C 0.03301 0.63191 0.14204 0.0
C683 C 0.04499 0.61293 0.15324 0.0
C684 C 0.04636 0.59683 0.10272 0.0
C685 C 0.03571 0.59964 0.04018 0.0
C686 C 1.02376 0.61775 0.02783 0.0
C687 C 1.01441 0.61721 0.95545 0.0
C688 C 0.9897 0.61648 0.95807 0.0
C689 C 1.02265 0.63621 0.91256 0.0
C690 C 1.02336 0.59635 0.9283 0.0
C691 C 0.03547 0.58627 0.97812 0.0
C692 C 0.04565 0.56692 0.96421 0.0
C693 C 0.04341 0.55778 0.89804 0.0
C694 C 0.03105 0.56788 0.84607 0.0
C695 C 1.02089 0.58742 0.86207 0.0
H696 H 0.03773 0.22954 0.38238 0.0
H697 H 1.01005 0.21713 0.18131 0.0
H698 H 0.99015 0.18656 0.22835 0.0
H699 H 0.04981 0.18204 0.4327 0.0
H700 H 0.04014 0.18314 0.52027 0.0
H701 H 0.0473 0.20727 0.47703 0.0
H702 H 1.00926 0.22174 0.50527 0.0
H703 H 1.00232 0.19717 0.54812 0.0
H704 H 0.98583 0.20686 0.47903 0.0
H705 H 0.98017 0.15417 0.28572 0.0
H706 H 0.98009 0.12087 0.35275 0.0
H707 H 1.01704 0.15182 0.51275 0.0
C708 C 1.02705 0.22055 0.3492 0.0
C709 C 1.02586 0.22499 0.2781 0.0
C710 C 1.01165 0.21334 0.23559 0.0
C711 C 0.99993 0.19628 0.26208 0.0
C712 C 1.00223 0.19143 0.3315 0.0
C713 C 1.01507 0.2034 0.37508 0.0
C714 C 1.01657 0.19306 0.44525 0.0
C715 C 0.03992 0.19128 0.46992 0.0
C716 C 1.00269 0.20542 0.4975 0.0
C717 C 1.0064 0.17162 0.42927 0.0
C718 C 0.99664 0.17187 0.36541 0.0
C719 C 0.98709 0.15387 0.33683 0.0
C720 C 0.98732 0.13503 0.37479 0.0
C721 C 0.99785 0.13414 0.43907 0.0
C722 C 1.00783 0.15253 0.46607 0.0
H723 H 0.32956 0.04856 0.39663 0.0
H724 H 0.33009 1.00657 0.21943 0.0
H725 H 0.3595 0.98588 0.27056 0.0
H726 H 0.38168 0.05422 0.40798 0.0
H727 H 0.38525 0.05406 0.49988 0.0
H728 H 0.35997 0.06209 0.46441 0.0
H729 H 0.33898 0.03347 0.53294 0.0
H730 H 0.36379 0.02578 0.57384 0.0
H731 H 0.34763 1.00613 0.52998 0.0
H732 H 0.39225 0.97508 0.32443 0.0
H733 H 0.42688 0.97265 0.38403 0.0
H734 H 0.40638 1.02115 0.52922 0.0
C735 C 0.33545 0.03448 0.37058 0.0
C736 C 0.32795 0.02892 0.30481 0.0
C737 C 0.33597 1.01084 0.27017 0.0
C738 C 0.35244 0.99894 0.29899 0.0
C739 C 0.36034 1.00526 0.36271 0.0
C740 C 0.35197 1.02234 0.39897 0.0
C741 C 0.36561 0.02761 0.46113 0.0
C742 C 0.3736 0.05085 0.45814 0.0
C743 C 0.35327 0.02297 0.52847 0.0
C744 C 0.38373 1.01189 0.45082 0.0
C745 C 0.37995 0.99883 0.39477 0.0
C746 C 0.39511 0.9845 0.37023 0.0
C747 C 0.41468 0.98321 0.40444 0.0
C748 C 0.41893 0.99628 0.46218 0.0
C749 C 0.40324 1.01072 0.48597 0.0
H750 H 0.51239 0.34919 0.25537 0.0
H751 H 0.54206 0.30194 0.38744 0.0
H752 H 0.55646 0.33071 0.46151 0.0
H753 H 0.55903 0.38029 0.2541 0.0
H754 H 0.545 0.40519 0.24526 0.0
H755 H 0.53336 0.38107 0.21137 0.0
H756 H 0.49854 0.38634 0.28442 0.0
H757 H 0.50955 0.41106 0.31547 0.0
H758 H 0.50078 0.39094 0.376 0.0
H759 H 0.57226 0.36557 0.50949 0.0
H760 H 0.58162 0.40302 0.5392 0.0
H761 H 0.54318 0.42525 0.36806 0.0
C762 C 0.5216 0.34482 0.30051 0.0
C763 C 0.52637 0.3235 0.31521 0.0
C764 C 0.53816 0.31832 0.37543 0.0
C765 C 0.54662 0.33451 0.41729 0.0
C766 C 0.54322 0.35554 0.39723 0.0
C767 C 0.53074 0.36059 0.34068 0.0
C768 C 0.53138 0.38392 0.32417 0.0
C769 C 0.54286 0.38785 0.25462 0.0
C770 C 0.50871 0.39363 0.32517 0.0
C771 C 0.54493 0.39158 0.38307 0.0
C772 C 0.55226 0.37508 0.42377 0.0
C773 C 0.56609 0.37865 0.4791 0.0
C774 C 0.57128 0.39984 0.49568 0.0
C775 C 0.56197 0.41679 0.45825 0.0
C776 C 0.54971 0.41249 0.3992 0.0
H777 H 0.20347 0.49983 0.26094 0.0
H778 H 0.25344 0.52519 0.39402 0.0
H779 H 0.22566 0.54152 0.4682 0.0
H780 H 0.17748 0.54983 0.26241 0.0
H781 H 0.15111 0.53846 0.2499 0.0
H782 H 0.1745 0.52517 0.21594 0.0
H783 H 0.16465 0.49054 0.2833 0.0
H784 H 0.1408 0.5034 0.31493 0.0
H785 H 0.15964 0.49198 0.37494 0.0
H786 H 0.19225 0.55978 0.51614 0.0
H787 H 0.15542 0.57235 0.54542 0.0
H788 H 0.12963 0.53656 0.37372 0.0
C789 C 0.20864 0.50852 0.30622 0.0
C790 C 0.23048 0.51144 0.32128 0.0
C791 C 0.23665 0.5226 0.38177 0.0
C792 C 0.22105 0.5322 0.42364 0.0
C793 C 0.1997 0.53071 0.40295 0.0
C794 C 0.19358 0.51901 0.34585 0.0
C795 C 0.17036 0.52207 0.32814 0.0
C796 C 0.16824 0.53461 0.26008 0.0
C797 C 0.15815 0.50072 0.32529 0.0
C798 C 0.16371 0.53552 0.38829 0.0
C799 C 0.1809 0.5412 0.42948 0.0
C800 C 0.17858 0.55494 0.48539 0.0
C801 C 0.15778 0.5619 0.50176 0.0
C802 C 0.13998 0.55419 0.46413 0.0
C803 C 0.14309 0.54183 0.40484 0.0
H804 H 1.01694 0.84508 0.12013 0.0
H805 H 0.0481 0.79992 0.98356 0.0
H806 H 0.0595 0.82952 0.90745 0.0
H807 H 1.00447 0.88976 1.01088 0.0
H808 H 1.01497 0.90823 0.07369 0.0
H809 H 1.00355 0.88328 0.1016 0.0
H810 H 0.03917 0.87547 0.16644 0.0
H811 H 0.05121 0.89979 0.13505 0.0
H812 H 0.06409 0.87464 0.11869 0.0
H813 H 0.07388 0.86456 0.86091 0.0
H814 H 0.08303 0.90228 0.83428 0.0
H815 H 0.04792 0.92242 0.01636 0.0
C816 C 1.02555 0.84132 0.07295 0.0
C817 C 0.03208 0.82044 0.05823 0.0
C818 C 0.04299 0.81595 0.99569 0.0
C819 C 0.04981 0.83266 0.95281 0.0
C820 C 0.04588 0.85339 0.97479 0.0
C821 C 0.03384 0.85769 0.03331 0.0
C822 C 0.03555 0.88061 0.0548 0.0
C823 C 1.0133 0.89108 0.06043 0.0
C824 C 0.04824 0.88274 0.12274 0.0
C825 C 0.04858 0.88902 0.99539 0.0
C826 C 0.05513 0.8731 0.95095 0.0
C827 C 0.06853 0.87723 0.89459 0.0
C828 C 0.07384 0.89853 0.88035 0.0
C829 C 0.06544 0.91494 0.92222 0.0
C830 C 0.05382 0.91002 0.98239 0.0
H831 H 0.7174 0.04238 0.12277 0.0
H832 H 0.74211 0.99409 0.98439 0.0
H833 H 0.71361 1.00296 0.89955 0.0
H834 H 0.66392 0.03214 0.09804 0.0
H835 H 0.65545 0.05953 0.10301 0.0
H836 H 0.6794 0.0512 0.14676 0.0
H837 H 0.70166 0.08003 0.08172 0.0
H838 H 0.67771 0.08861 0.03772 0.0
H839 H 0.70115 0.08089 0.98875 0.0
H840 H 0.67989 1.0136 0.84027 0.0
H841 H 0.64327 0.02512 0.80957 0.0
H842 H 0.64227 0.06787 0.98478 0.0
C843 C 0.71679 0.0338 0.07429 0.0
C844 C 0.73132 1.01741 0.05957 0.0
C845 C 0.73068 1.00659 0.99584 0.0
C846 C 0.71479 1.01164 0.94761 0.0
C847 C 0.70035 0.02781 0.96421 0.0
C848 C 0.70136 0.0388 0.02585 0.0
C849 C 0.6831 0.05421 0.03435 0.0
C850 C 0.66967 0.04894 0.09932 0.0
C851 C 0.69141 0.07731 0.03568 0.0
C852 C 0.67095 0.04954 0.96904 0.0
C853 C 0.68129 0.03448 0.92878 0.0
C854 C 0.67192 0.02585 0.87006 0.0
C855 C 0.65123 0.03252 0.85284 0.0
C856 C 0.64046 0.04785 0.89358 0.0
C857 C 0.6506 0.05673 0.95151 0.0
H858 H 0.50277 0.73356 1.00267 0.0
H859 H 0.56021 0.71688 0.11647 0.0
H860 H 0.56007 0.68148 0.06322 0.0
H861 H 0.47588 0.68977 0.01923 0.0
H862 H 0.46506 0.68602 0.9339 0.0
H863 H 0.47214 0.71232 0.9629 0.0
H864 H 0.49788 0.71799 0.85966 0.0
H865 H 0.49027 0.69212 0.82715 0.0
H866 H 0.51823 0.69846 0.84125 0.0
H867 H 0.54587 0.64713 0.04067 0.0
H868 H 0.52927 0.61464 0.99672 0.0
H869 H 0.48419 0.65218 0.87682 0.0
C870 C 0.51599 0.72282 1.01257 0.0
C871 C 0.53124 0.72732 0.06425 0.0
C872 C 0.54832 0.71323 0.07741 0.0
C873 C 0.54831 0.69318 0.04772 0.0
C874 C 0.53164 0.68814 1.00311 0.0
C875 C 0.51655 0.70277 0.98155 0.0
C876 C 0.49978 0.69229 0.93581 0.0
C877 C 0.47687 0.69528 0.96475 0.0
C878 C 0.50164 0.7007 0.86152 0.0
C879 C 0.50691 0.66927 0.9407 0.0
C880 C 0.52505 0.66753 0.98126 0.0
C881 C 0.53278 0.64816 1.00424 0.0
C882 C 0.52312 0.62985 0.97939 0.0
C883 C 0.50649 0.63102 0.92995 0.0
C884 C 0.49751 0.65094 0.91241 0.0
H885 H 0.84148 0.50774 0.1462 0.0
H886 H 0.81849 0.54965 0.98492 0.0
H887 H 0.84751 0.53682 0.90718 0.0
H888 H 0.89478 0.5165 0.12463 0.0
H889 H 0.90337 0.48953 0.14046 0.0
H890 H 0.87865 0.49892 0.17757 0.0
H891 H 0.85782 0.4678 0.11997 0.0
H892 H 0.88254 0.4582 0.08229 0.0
H893 H 0.85983 0.46401 0.02803 0.0
H894 H 0.87817 0.52026 0.85256 0.0
H895 H 0.9164 0.50971 0.82729 0.0
H896 H 0.9205 0.48079 0.02885 0.0
C897 C 0.84255 0.514 0.09413 0.0
C898 C 0.82815 0.52953 0.07042 0.0
C899 C 0.82957 0.53757 1.0027 0.0
C900 C 0.84572 0.53022 0.9585 0.0
C901 C 0.85968 0.51466 0.98338 0.0
C902 C 0.85843 0.50686 0.04982 0.0
C903 C 0.87689 0.49224 0.06662 0.0
C904 C 0.88916 0.49978 0.13108 0.0
C905 C 0.86879 0.46919 0.07473 0.0
C906 C 0.88999 0.49472 1.00143 0.0
C907 C 0.87899 0.50657 0.95296 0.0
C908 C 0.88758 0.51138 0.88905 0.0
C909 C 0.90875 0.5053 0.87546 0.0
C910 C 0.92083 0.4948 0.92628 0.0
C911 C 0.91125 0.48866 0.98914 0.0
H912 H 0.03601 0.19977 0.68999 0.0
H913 H 0.04514 0.19867 0.9124 0.0
H914 H 0.04623 0.15999 0.91064 0.0
H915 H 1.00021 0.15497 0.69406 0.0
H916 H 1.00835 0.14046 0.61903 0.0
H917 H 1.01121 0.16922 0.62143 0.0
H918 H 0.05543 0.17054 0.61112 0.0
H919 H 0.04877 0.14401 0.58045 0.0
H920 H 0.06847 0.14797 0.64694 0.0
H921 H 0.04962 0.12226 0.88915 0.0
H922 H 0.04837 0.08521 0.85033 0.0
H923 H 0.0325 0.10639 0.64317 0.0
C924 C 0.03835 0.19135 0.73819 0.0
C925 C 0.04153 0.20281 0.80142 0.0
C926 C 0.04378 0.1908 0.86293 0.0
C927 C 0.0443 0.1686 0.86272 0.0
C928 C 0.04203 0.15789 0.80069 0.0
C929 C 0.03869 0.16855 0.73939 0.0
C930 C 0.03512 0.15206 0.6819 0.0
C931 C 1.01242 0.15435 0.65201 0.0
C932 C 0.05286 0.15374 0.6265 0.0
C933 C 0.03721 0.13096 0.72098 0.0
C934 C 0.04166 0.13505 0.78921 0.0
C935 C 0.04582 0.11877 0.83593 0.0
C936 C 0.04523 0.09765 0.81301 0.0
C937 C 0.04025 0.09253 0.74374 0.0
C938 C 0.03613 0.10959 0.69678 0.0
H939 H 0.35859 0.06862 0.74022 0.0
H940 H 0.34545 1.00303 0.79695 0.0
H941 H 0.38364 0.99413 0.77786 0.0
H942 H 0.40259 0.05152 0.60414 0.0
H943 H 0.41696 0.07602 0.61869 0.0
H944 H 0.38796 0.07537 0.62549 0.0
H945 H 0.39228 0.09115 0.74894 0.0
H946 H 0.42116 0.08993 0.7432 0.0
H947 H 0.40724 0.07646 0.81267 0.0
H948 H 0.42328 0.99298 0.76899 0.0
H949 H 0.46238 0.99829 0.75656 0.0
H950 H 0.45214 0.06444 0.70152 0.0
C951 C 0.36379 0.05233 0.74717 0.0
C952 C 0.34906 0.03649 0.77111 0.0
C953 C 0.35639 1.01536 0.77901 0.0
C954 C 0.37809 1.01017 0.76821 0.0
C955 C 0.3924 0.02616 0.74763 0.0
C956 C 0.38554 0.04667 0.73461 0.0
C957 C 0.4047 0.06058 0.71258 0.0
C958 C 0.40292 0.06627 0.63566 0.0
C959 C 0.40645 0.08072 0.75708 0.0
C960 C 0.42355 0.04539 0.72399 0.0
C961 C 0.41577 0.02543 0.74168 0.0
C962 C 0.42954 1.00845 0.75436 0.0
C963 C 0.4518 1.01167 0.7476 0.0
C964 C 0.46049 0.03177 0.72929 0.0
C965 C 0.44608 0.04897 0.71726 0.0
H966 H 0.5364 0.35089 0.68775 0.0
H967 H 0.49535 0.34973 0.86976 0.0
H968 H 0.49052 0.38824 0.86109 0.0
H969 H 0.56298 0.39766 0.71911 0.0
H970 H 0.56244 0.41121 0.63752 0.0
H971 H 0.56147 0.38239 0.64054 0.0
H972 H 0.52615 0.37971 0.57497 0.0
H973 H 0.52694 0.40818 0.56228 0.0
H974 H 0.5036 0.39583 0.60068 0.0
H975 H 0.49387 0.42624 0.84809 0.0
H976 H 0.50044 0.46356 0.81995 0.0
H977 H 0.53762 0.44459 0.63976 0.0
C978 C 0.526 0.35875 0.72466 0.0
C979 C 0.51662 0.34704 0.78103 0.0
C980 C 0.50311 0.35812 0.82749 0.0
C981 C 0.50016 0.38012 0.82281 0.0
C982 C 0.51032 0.39136 0.76997 0.0
C983 C 0.52242 0.38124 0.71998 0.0
C984 C 0.53142 0.39814 0.66962 0.0
C985 C 0.55606 0.39725 0.66637 0.0
C986 C 0.52146 0.39529 0.5976 0.0
C987 C 0.52374 0.41909 0.7028 0.0
C988 C 0.51137 0.41435 0.76008 0.0
C989 C 0.50309 0.43023 0.80236 0.0
C990 C 0.50705 0.45162 0.78578 0.0
C991 C 0.51938 0.45762 0.72707 0.0
C992 C 0.52794 0.44086 0.68478 0.0
H993 H 0.20177 0.54093 0.77205 0.0
H994 H 0.21162 0.47299 0.75198 0.0
H995 H 0.1732 0.46817 0.72194 0.0
H996 H 0.15224 0.54175 0.8479 0.0
H997 H 0.14033 0.56291 0.79813 0.0
H998 H 0.16908 0.56182 0.80817 0.0
H999 H 0.17457 0.56167 0.67627 0.0
H1000 H 0.14578 0.56321 0.66477 0.0
H1001 H 0.16083 0.54182 0.62556 0.0
H1002 H 0.13258 0.46994 0.71602 0.0
H1003 H 0.09386 0.47868 0.71123 0.0
H1004 H 0.10953 0.54593 0.72357 0.0
C1005 C 0.19585 0.52512 0.75994 0.0
C1006 C 0.20962 0.50722 0.76532 0.0
C1007 C 0.20134 0.48684 0.74875 0.0
C1008 C 0.17951 0.48397 0.73179 0.0
C1009 C 0.16604 0.50171 0.7306 0.0
C1010 C 0.17401 0.522 0.74184 0.0
C1011 C 0.15599 0.5383 0.73608 0.0
C1012 C 0.1543 0.55199 0.80152 0.0
C1013 C 0.15951 0.55215 0.67189 0.0
C1014 C 0.13635 0.52389 0.7266 0.0
C1015 C 0.14266 0.50284 0.72267 0.0
C1016 C 0.12754 0.4864 0.71747 0.0
C1017 C 0.1055 0.49151 0.71523 0.0
C1018 C 0.09851 0.51293 0.7165 0.0
C1019 C 0.11429 0.52937 0.7218 0.0
H1020 H 1.02164 0.84844 0.70657 0.0
H1021 H 0.03744 0.85113 0.48776 0.0
H1022 H 0.0356 0.88972 0.49053 0.0
H1023 H 0.98328 0.8945 0.69881 0.0
H1024 H 0.99073 0.90554 0.78119 0.0
H1025 H 0.99273 0.87726 0.76657 0.0
H1026 H 0.03241 0.87833 0.80104 0.0
H1027 H 0.03073 0.90663 0.81571 0.0
H1028 H 0.05067 0.89622 0.75678 0.0
H1029 H 0.0323 0.92697 0.50937 0.0
H1030 H 0.02857 0.96396 0.54691 0.0
H1031 H 1.01576 0.94241 0.75634 0.0
C1032 C 1.02462 0.85723 0.65933 0.0
C1033 C 0.03037 0.84625 0.59682 0.0
C1034 C 0.03383 0.85865 0.53667 0.0
C1035 C 0.03259 0.88081 0.5374 0.0
C1036 C 1.02743 0.8911 0.59856 0.0
C1037 C 1.02331 0.88003 0.65884 0.0
C1038 C 1.01805 0.89621 0.7164 0.0
C1039 C 0.99481 0.89319 0.74227 0.0
C1040 C 0.03393 0.89423 0.77613 0.0
C1041 C 1.02075 0.91772 0.67853 0.0
C1042 C 1.02568 0.91387 0.61026 0.0
C1043 C 0.02841 0.93031 0.5627 0.0
C1044 C 1.02611 0.9514 0.58457 0.0
C1045 C 1.02165 0.95645 0.65418 0.0
C1046 C 1.01908 0.93921 0.70244 0.0
H1047 H 0.70072 0.98836 0.60221 0.0
H1048 H 0.71461 0.05449 0.64869 0.0
H1049 H 0.67663 0.0599 0.68226 0.0
H1050 H 0.65199 0.99137 0.53005 0.0
H1051 H 0.63825 0.96976 0.57348 0.0
H1052 H 0.66711 0.96946 0.56518 0.0
H1053 H 0.67153 0.96614 0.6973 0.0
H1054 H 0.64261 0.96553 0.70619 0.0
H1055 H 0.65822 0.9849 0.75307 0.0
H1056 H 0.63726 0.06008 0.69058 0.0
H1057 H 0.5985 0.0546 0.69229 0.0
H1058 H 0.60722 0.98739 0.64598 0.0
C1059 C 0.69574 1.00381 0.62097 0.0
C1060 C 0.71053 1.02118 0.6218 0.0
C1061 C 0.70356 0.0411 0.64712 0.0
C1062 C 0.682 0.04428 0.66629 0.0
C1063 C 0.66756 0.02726 0.66131 0.0
C1064 C 0.67416 1.00717 0.64215 0.0
C1065 C 0.65494 0.9918 0.64251 0.0
C1066 C 0.65295 0.97991 0.57364 0.0
C1067 C 0.65694 0.97615 0.70332 0.0
C1068 C 0.63616 1.00707 0.65481 0.0
C1069 C 0.64423 0.02724 0.66788 0.0
C1070 C 0.63078 0.04434 0.68103 0.0
C1071 C 0.60856 0.04093 0.68183 0.0
C1072 C 0.59931 1.02054 0.66926 0.0
C1073 C 0.6135 1.00325 0.65513 0.0
H1074 H 0.52426 0.6909 0.52447 0.0
H1075 H 0.54027 0.71461 0.72852 0.0
H1076 H 0.54597 0.67756 0.76759 0.0
H1077 H 0.49376 0.64542 0.58491 0.0
H1078 H 0.50226 0.6293 0.51291 0.0
H1079 H 0.50027 0.65777 0.50341 0.0
H1080 H 0.54008 0.65945 0.46292 0.0
H1081 H 0.54245 0.63103 0.47298 0.0
H1082 H 0.56074 0.64862 0.51747 0.0
H1083 H 0.55054 0.63593 0.78234 0.0
H1084 H 0.55129 0.5965 0.77264 0.0
H1085 H 0.52924 0.60071 0.56186 0.0
C1086 C 0.52846 0.68869 0.578 0.0
C1087 C 0.53166 0.70638 0.62252 0.0
C1088 C 0.53793 0.70186 0.69179 0.0
C1089 C 0.54109 0.68064 0.71496 0.0
C1090 C 0.53772 0.66375 0.66893 0.0
C1091 C 0.53129 0.66775 0.60217 0.0
C1092 C 0.52832 0.64719 0.56215 0.0
C1093 C 0.50476 0.64476 0.53949 0.0
C1094 C 0.54381 0.64654 0.50018 0.0
C1095 C 0.53426 0.63062 0.61598 0.0
C1096 C 0.53976 0.64046 0.67748 0.0
C1097 C 0.54609 0.62832 0.73434 0.0
C1098 C 0.54643 0.60585 0.72852 0.0
C1099 C 0.54036 0.59533 0.66681 0.0
C1100 C 0.53437 0.60809 0.60955 0.0
H1101 H 0.85416 0.55602 0.66501 0.0
H1102 H 0.85271 0.50379 0.5184 0.0
H1103 H 0.89189 0.50048 0.52624 0.0
H1104 H 0.90461 0.58134 0.61997 0.0
H1105 H 0.91439 0.58446 0.70696 0.0
H1106 H 0.88586 0.58369 0.69087 0.0
H1107 H 0.88229 0.5538 0.77829 0.0
H1108 H 0.91098 0.55183 0.79286 0.0
H1109 H 0.89595 0.52919 0.76085 0.0
H1110 H 0.93059 0.50513 0.53437 0.0
H1111 H 0.96835 0.51101 0.56719 0.0
H1112 H 0.94812 0.55694 0.72121 0.0
C1113 C 0.86219 0.54395 0.63461 0.0
C1114 C 0.85026 0.5306 0.58866 0.0
C1115 C 0.86139 0.51458 0.55199 0.0
C1116 C 0.88374 0.51263 0.55584 0.0
C1117 C 0.89517 0.52666 0.59745 0.0
C1118 C 0.88498 0.54166 0.63797 0.0
C1119 C 0.90173 0.55274 0.68394 0.0
C1120 C 0.90164 0.57701 0.67477 0.0
C1121 C 0.89752 0.54671 0.75901 0.0
C1122 C 0.92282 0.54268 0.65837 0.0
C1123 C 0.91827 0.52774 0.60826 0.0
C1124 C 0.93443 0.51646 0.57452 0.0
C1125 C 0.95589 0.51997 0.5933 0.0
C1126 C 0.96132 0.53432 0.64652 0.0
C1127 C 0.94449 0.54589 0.67994 0.0
loop_
_geom_bond_atom_site_label_1
_geom_bond_atom_site_label_2
_geom_bond_distance
_geom_bond_site_symmetry_2
_ccdc_geom_bond_type
C0 C1 1.264 . S
C0 C5 1.479 . S
C0 C10 1.465 . S
C1 C0 1.264 . S
C1 C3 1.339 . S
C1 H28 0.931 . S
C2 C3 1.395 . S
C2 C4 1.320 . S
C3 C1 1.339 . S
C3 C2 1.395 . S
C3 H29 0.929 . S
C4 C2 1.320 . S
C4 C5 1.405 . S
C4 H30 0.930 . S
C5 C0 1.479 . S
C5 C4 1.405 . S
C5 H31 0.931 . S
U6 O7 2.454 . S
U6 O8 2.458 . S
U6 C9 2.984 . S
U6 C10 2.847 . S
U6 C23 2.882 . S
U6 O24 2.441 . S
U6 O25 2.420 . S
U6 O26 2.455 . S
U6 O27 2.449 . S
O7 U6 2.454 . S
O7 C9 1.353 . S
O8 U6 2.458 . S
O8 C9 1.286 . S
C9 U6 2.984 . S
C9 O7 1.353 . S
C9 O8 1.286 . S
C9 C11 1.363 . S
C10 C0 1.465 . S
C10 U6 2.847 . S
C10 O24 1.249 . S
C10 O25 1.202 . S
C11 C9 1.363 . S
C11 C13 1.408 . S
C11 C16 1.342 . S
C12 C13 1.310 . S
C12 C15 1.461 . S
C12 H32 0.932 . S
C13 C11 1.408 . S
C13 C12 1.310 . S
C13 H33 0.930 . S
C14 C15 1.474 . S
C14 C16 1.285 . S
C14 H34 0.929 . S
C15 C12 1.461 . S
C15 C14 1.474 . S
C16 C11 1.342 . S
C16 C14 1.285 . S
C16 H35 0.930 . S
C17 C20 1.424 . S
C17 C22 1.245 . S
C17 C23 1.428 . S
C18 C21 1.260 . S
C18 C22 1.477 . S
C18 H36 0.932 . S
C19 C20 1.384 . S
C19 C21 1.479 . S
C19 H37 0.929 . S
C20 C17 1.424 . S
C20 C19 1.384 . S
C20 H38 0.928 . S
C21 C18 1.260 . S
C21 C19 1.479 . S
C22 C17 1.245 . S
C22 C18 1.477 . S
C22 H39 0.932 . S
C23 U6 2.882 . S
C23 C17 1.428 . S
C23 O26 1.301 . S
C23 O27 1.282 . S
O24 U6 2.441 . S
O24 C10 1.249 . S
O25 U6 2.420 . S
O25 C10 1.202 . S
O26 U6 2.455 . S
O26 C23 1.301 . S
O27 U6 2.449 . S
O27 C23 1.282 . S
H28 C1 0.931 . S
H29 C3 0.929 . S
H30 C4 0.930 . S
H31 C5 0.931 . S
H32 C12 0.932 . S
H33 C13 0.930 . S
H34 C14 0.929 . S
H35 C16 0.930 . S
H36 C18 0.932 . S
H37 C19 0.929 . S
H38 C20 0.928 . S
H39 C22 0.932 . S
C40 C41 1.264 . S
C40 C45 1.479 . S
C40 C50 1.465 . S
C41 C40 1.264 . S
C41 C43 1.339 . S
C41 H68 0.931 . S
C42 C43 1.395 . S
C42 C44 1.320 . S
C43 C41 1.339 . S
C43 C42 1.395 . S
C43 H69 0.929 . S
C44 C42 1.320 . S
C44 C45 1.405 . S
C44 H70 0.921 1_455 S
C45 C40 1.479 . S
C45 C44 1.405 . S
C45 H71 0.931 . S
U46 O47 2.454 . S
U46 O48 2.458 . S
U46 C49 2.984 . S
U46 C50 2.847 . S
U46 C63 2.882 . S
U46 O64 2.441 . S
U46 O65 2.420 . S
U46 O66 2.455 . S
U46 O67 2.449 . S
O47 U46 2.454 . S
O47 C49 1.353 . S
O48 U46 2.458 . S
O48 C49 1.286 . S
C49 U46 2.984 . S
C49 O47 1.353 . S
C49 O48 1.286 . S
C49 C51 1.363 . S
C50 C40 1.465 . S
C50 U46 2.847 . S
C50 O64 1.249 . S
C50 O65 1.202 . S
C51 C49 1.363 . S
C51 C53 1.408 . S
C51 C56 1.342 . S
C52 C53 1.310 . S
C52 C55 1.460 . S
C52 H72 0.932 . S
C53 C51 1.408 . S
C53 C52 1.310 . S
C53 H73 0.930 . S
C54 C55 1.474 1_655 S
C54 C56 1.284 1_655 S
C54 H74 0.931 . S
C55 C52 1.460 . S
C55 C54 1.474 1_455 S
C56 C51 1.342 . S
C56 C54 1.284 1_455 S
C56 H75 0.932 . S
C57 C60 1.424 . S
C57 C62 1.245 . S
C57 C63 1.428 . S
C58 C61 1.260 . S
C58 C62 1.477 . S
C58 H76 0.932 . S
C59 C60 1.384 . S
C59 C61 1.479 . S
C59 H77 0.929 . S
C60 C57 1.424 . S
C60 C59 1.384 . S
C60 H78 0.928 . S
C61 C58 1.260 . S
C61 C59 1.479 . S
C62 C57 1.245 . S
C62 C58 1.477 . S
C62 H79 0.932 . S
C63 U46 2.882 . S
C63 C57 1.428 . S
C63 O66 1.301 . S
C63 O67 1.282 . S
O64 U46 2.441 . S
O64 C50 1.249 . S
O65 U46 2.420 . S
O65 C50 1.202 . S
O66 U46 2.455 . S
O66 C63 1.301 . S
O67 U46 2.449 . S
O67 C63 1.282 . S
H68 C41 0.931 . S
H69 C43 0.929 . S
H70 C44 0.921 1_655 S
H71 C45 0.931 . S
H72 C52 0.932 . S
H73 C53 0.930 . S
H74 C54 0.931 . S
H75 C56 0.932 . S
H76 C58 0.932 . S
H77 C59 0.929 . S
H78 C60 0.928 . S
H79 C62 0.932 . S
C80 C81 1.264 . S
C80 C85 1.475 1_545 S
C80 C90 1.465 . S
C81 C80 1.264 . S
C81 C83 1.336 1_545 S
C81 H108 0.931 . S
C82 C83 1.398 . S
C82 C84 1.320 . S
C83 C81 1.336 1_565 S
C83 C82 1.398 . S
C83 H109 0.926 1_565 S
C84 C82 1.320 . S
C84 C85 1.413 . S
C84 H110 0.930 . S
C85 C80 1.475 1_565 S
C85 C84 1.413 . S
C85 H111 0.928 1_565 S
U86 O87 2.454 1_545 S
U86 O88 2.450 1_545 S
U86 C89 2.984 1_545 S
U86 C90 2.847 . S
U86 C103 2.882 . S
U86 O104 2.441 . S
U86 O105 2.420 . S
U86 O106 2.455 . S
U86 O107 2.449 . S
O87 U86 2.454 1_565 S
O87 C89 1.353 . S
O88 U86 2.450 1_565 S
O88 C89 1.289 . S
C89 U86 2.984 1_565 S
C89 O87 1.353 . S
C89 O88 1.289 . S
C89 C91 1.363 . S
C90 C80 1.465 . S
C90 U86 2.847 . S
C90 O104 1.249 . S
C90 O105 1.202 . S
C91 C89 1.363 . S
C91 C93 1.408 . S
C91 C96 1.342 . S
C92 C93 1.310 . S
C92 C95 1.461 . S
C92 H112 0.932 . S
C93 C91 1.408 . S
C93 C92 1.310 . S
C93 H113 0.930 . S
C94 C95 1.474 . S
C94 C96 1.285 . S
C94 H114 0.929 . S
C95 C92 1.461 . S
C95 C94 1.474 . S
C96 C91 1.342 . S
C96 C94 1.285 . S
C96 H115 0.930 . S
C97 C100 1.422 1_545 S
C97 C102 1.245 . S
C97 C103 1.428 . S
C98 C101 1.260 . S
C98 C102 1.477 1_565 S
C98 H116 0.932 1_565 S
C99 C100 1.385 . S
C99 C101 1.479 . S
C99 H117 0.929 . S
C100 C97 1.422 1_565 S
C100 C99 1.385 . S
C100 H118 0.929 . S
C101 C98 1.260 . S
C101 C99 1.479 . S
C102 C97 1.245 . S
C102 C98 1.477 1_545 S
C102 H119 0.934 . S
C103 U86 2.882 . S
C103 C97 1.428 . S
C103 O106 1.301 . S
C103 O107 1.282 . S
O104 U86 2.441 . S
O104 C90 1.249 . S
O105 U86 2.420 . S
O105 C90 1.202 . S
O106 U86 2.455 . S
O106 C103 1.301 . S
O107 U86 2.449 . S
O107 C103 1.282 . S
H108 C81 0.931 . S
H109 C83 0.926 1_545 S
H110 C84 0.930 . S
H111 C85 0.928 1_545 S
H112 C92 0.932 . S
H113 C93 0.930 . S
H114 C94 0.929 . S
H115 C96 0.930 . S
H116 C98 0.932 1_545 S
H117 C99 0.929 . S
H118 C100 0.929 . S
H119 C102 0.934 . S
C120 C121 1.264 . S
C120 C125 1.479 . S
C120 C130 1.465 . S
C121 C120 1.264 . S
C121 C123 1.339 . S
C121 H148 0.931 . S
C122 C123 1.395 . S
C122 C124 1.320 . S
C123 C121 1.339 . S
C123 C122 1.395 . S
C123 H149 0.929 . S
C124 C122 1.320 . S
C124 C125 1.405 . S
C124 H150 0.930 . S
C125 C120 1.479 . S
C125 C124 1.405 . S
C125 H151 0.931 . S
U126 O127 2.454 . S
U126 O128 2.458 . S
U126 C129 2.984 . S
U126 C130 2.847 . S
U126 C143 2.882 . S
U126 O144 2.441 . S
U126 O145 2.420 . S
U126 O146 2.455 . S
U126 O147 2.449 . S
O127 U126 2.454 . S
O127 C129 1.353 . S
O128 U126 2.458 . S
O128 C129 1.286 . S
C129 U126 2.984 . S
C129 O127 1.353 . S
C129 O128 1.286 . S
C129 C131 1.363 . S
C130 C120 1.465 . S
C130 U126 2.847 . S
C130 O144 1.249 . S
C130 O145 1.202 . S
C131 C129 1.363 . S
C131 C133 1.408 . S
C131 C136 1.342 . S
C132 C133 1.310 . S
C132 C135 1.461 . S
C132 H152 0.932 . S
C133 C131 1.408 . S
C133 C132 1.310 . S
C133 H153 0.930 . S
C134 C135 1.474 . S
C134 C136 1.285 . S
C134 H154 0.929 . S
C135 C132 1.461 . S
C135 C134 1.474 . S
C136 C131 1.342 . S
C136 C134 1.285 . S
C136 H155 0.930 . S
C137 C140 1.424 . S
C137 C142 1.245 . S
C137 C143 1.428 . S
C138 C141 1.260 . S
C138 C142 1.477 . S
C138 H156 0.932 . S
C139 C140 1.384 . S
C139 C141 1.479 . S
C139 H157 0.929 . S
C140 C137 1.424 . S
C140 C139 1.384 . S
C140 H158 0.928 . S
C141 C138 1.260 . S
C141 C139 1.479 . S
C142 C137 1.245 . S
C142 C138 1.477 . S
C142 H159 0.932 . S
C143 U126 2.882 . S
C143 C137 1.428 . S
C143 O146 1.301 . S
C143 O147 1.282 . S
O144 U126 2.441 . S
O144 C130 1.249 . S
O145 U126 2.420 . S
O145 C130 1.202 . S
O146 U126 2.455 . S
O146 C143 1.301 . S
O147 U126 2.449 . S
O147 C143 1.282 . S
H148 C121 0.931 . S
H149 C123 0.929 . S
H150 C124 0.930 . S
H151 C125 0.931 . S
H152 C132 0.932 . S
H153 C133 0.930 . S
H154 C134 0.929 . S
H155 C136 0.930 . S
H156 C138 0.932 . S
H157 C139 0.929 . S
H158 C140 0.928 . S
H159 C142 0.932 . S
C160 C161 1.264 . S
C160 C165 1.479 . S
C160 C170 1.465 . S
C161 C160 1.264 . S
C161 C163 1.339 . S
C161 H188 0.931 . S
C162 C163 1.395 . S
C162 C164 1.320 . S
C163 C161 1.339 . S
C163 C162 1.395 . S
C163 H189 0.929 . S
C164 C162 1.320 . S
C164 C165 1.405 . S
C164 H190 0.930 . S
C165 C160 1.479 . S
C165 C164 1.405 . S
C165 H191 0.931 . S
U166 O167 2.453 1_554 S
U166 O168 2.458 . S
U166 C169 2.984 . S
U166 C170 2.847 1_554 S
U166 C183 2.882 . S
U166 O184 2.441 1_554 S
U166 O185 2.420 1_554 S
U166 O186 2.455 . S
U166 O187 2.449 . S
O167 U166 2.453 1_556 S
O167 C169 1.349 1_556 S
O168 U166 2.458 . S
O168 C169 1.286 . S
C169 U166 2.984 . S
C169 O167 1.349 1_554 S
C169 O168 1.286 . S
C169 C171 1.363 . S
C170 C160 1.465 . S
C170 U166 2.847 1_556 S
C170 O184 1.249 . S
C170 O185 1.202 . S
C171 C169 1.363 . S
C171 C173 1.408 . S
C171 C176 1.342 . S
C172 C173 1.310 . S
C172 C175 1.461 . S
C172 H192 0.932 . S
C173 C171 1.408 . S
C173 C172 1.310 . S
C173 H193 0.930 1_554 S
C174 C175 1.474 . S
C174 C176 1.285 . S
C174 H194 0.929 . S
C175 C172 1.461 . S
C175 C174 1.474 . S
C176 C171 1.342 . S
C176 C174 1.285 . S
C176 H195 0.930 . S
C177 C180 1.424 . S
C177 C182 1.245 . S
C177 C183 1.428 . S
C178 C181 1.260 . S
C178 C182 1.477 . S
C178 H196 0.932 . S
C179 C180 1.384 . S
C179 C181 1.479 . S
C179 H197 0.929 . S
C180 C177 1.424 . S
C180 C179 1.384 . S
C180 H198 0.928 . S
C181 C178 1.260 . S
C181 C179 1.479 . S
C182 C177 1.245 . S
C182 C178 1.477 . S
C182 H199 0.932 . S
C183 U166 2.882 . S
C183 C177 1.428 . S
C183 O186 1.301 . S
C183 O187 1.282 . S
O184 U166 2.441 1_556 S
O184 C170 1.249 . S
O185 U166 2.420 1_556 S
O185 C170 1.202 . S
O186 U166 2.455 . S
O186 C183 1.301 . S
O187 U166 2.449 . S
O187 C183 1.282 . S
H188 C161 0.931 . S
H189 C163 0.929 . S
H190 C164 0.930 . S
H191 C165 0.931 . S
H192 C172 0.932 . S
H193 C173 0.930 1_556 S
H194 C174 0.929 . S
H195 C176 0.930 . S
H196 C178 0.932 . S
H197 C179 0.929 . S
H198 C180 0.928 . S
H199 C182 0.932 . S
C200 C201 1.264 . S
C200 C205 1.479 . S
C200 C210 1.465 . S
C201 C200 1.264 . S
C201 C203 1.339 . S
C201 H228 0.931 . S
C202 C203 1.395 . S
C202 C204 1.320 . S
C203 C201 1.339 . S
C203 C202 1.395 . S
C203 H229 0.929 . S
C204 C202 1.320 . S
C204 C205 1.405 . S
C204 H230 0.930 . S
C205 C200 1.479 . S
C205 C204 1.405 . S
C205 H231 0.931 . S
U206 O207 2.455 . S
U206 O208 2.458 . S
U206 C209 2.984 . S
U206 C210 2.847 1_554 S
U206 C223 2.882 . S
U206 O224 2.441 1_554 S
U206 O225 2.420 1_554 S
U206 O226 2.455 . S
U206 O227 2.449 . S
O207 U206 2.455 . S
O207 C209 1.360 . S
O208 U206 2.458 . S
O208 C209 1.286 . S
C209 U206 2.984 . S
C209 O207 1.360 . S
C209 O208 1.286 . S
C209 C211 1.363 . S
C210 C200 1.465 . S
C210 U206 2.847 1_556 S
C210 O224 1.249 . S
C210 O225 1.202 . S
C211 C209 1.363 . S
C211 C213 1.408 . S
C211 C216 1.342 . S
C212 C213 1.310 . S
C212 C215 1.461 . S
C212 H232 0.932 . S
C213 C211 1.408 . S
C213 C212 1.310 . S
C213 H233 0.930 1_554 S
C214 C215 1.474 . S
C214 C216 1.285 . S
C214 H234 0.929 . S
C215 C212 1.461 . S
C215 C214 1.474 . S
C216 C211 1.342 . S
C216 C214 1.285 . S
C216 H235 0.930 . S
C217 C220 1.424 . S
C217 C222 1.245 . S
C217 C223 1.428 . S
C218 C221 1.260 . S
C218 C222 1.477 . S
C218 H236 0.932 . S
C219 C220 1.384 . S
C219 C221 1.479 . S
C219 H237 0.929 . S
C220 C217 1.424 . S
C220 C219 1.384 . S
C220 H238 0.928 . S
C221 C218 1.260 . S
C221 C219 1.479 . S
C222 C217 1.245 . S
C222 C218 1.477 . S
C222 H239 0.932 . S
C223 U206 2.882 . S
C223 C217 1.428 . S
C223 O226 1.301 . S
C223 O227 1.282 . S
O224 U206 2.441 1_556 S
O224 C210 1.249 . S
O225 U206 2.420 1_556 S
O225 C210 1.202 . S
O226 U206 2.455 . S
O226 C223 1.301 . S
O227 U206 2.449 . S
O227 C223 1.282 . S
H228 C201 0.931 . S
H229 C203 0.929 . S
H230 C204 0.930 . S
H231 C205 0.931 . S
H232 C212 0.932 . S
H233 C213 0.930 1_556 S
H234 C214 0.929 . S
H235 C216 0.930 . S
H236 C218 0.932 . S
H237 C219 0.929 . S
H238 C220 0.928 . S
H239 C222 0.932 . S
C240 C241 1.264 . S
C240 C245 1.479 . S
C240 C250 1.465 . S
C241 C240 1.264 . S
C241 C243 1.339 . S
C241 H268 0.931 . S
C242 C243 1.395 . S
C242 C244 1.320 . S
C243 C241 1.339 . S
C243 C242 1.395 . S
C243 H269 0.929 . S
C244 C242 1.320 . S
C244 C245 1.405 . S
C244 H270 0.930 . S
C245 C240 1.479 . S
C245 C244 1.405 . S
C245 H271 0.931 . S
U246 O247 2.454 . S
U246 O248 2.458 . S
U246 C249 2.984 . S
U246 C250 2.847 1_554 S
U246 C263 2.882 . S
U246 O264 2.441 1_554 S
U246 O265 2.420 1_554 S
U246 O266 2.455 . S
U246 O267 2.449 . S
O247 U246 2.454 . S
O247 C249 1.353 . S
O248 U246 2.458 . S
O248 C249 1.286 . S
C249 U246 2.984 . S
C249 O247 1.353 . S
C249 O248 1.286 . S
C249 C251 1.363 . S
C250 C240 1.465 . S
C250 U246 2.847 1_556 S
C250 O264 1.249 . S
C250 O265 1.202 . S
C251 C249 1.363 . S
C251 C253 1.408 . S
C251 C256 1.342 . S
C252 C253 1.310 . S
C252 C255 1.461 . S
C252 H272 0.932 . S
C253 C251 1.408 . S
C253 C252 1.310 . S
C253 H273 0.930 1_554 S
C254 C255 1.474 . S
C254 C256 1.285 . S
C254 H274 0.929 . S
C255 C252 1.461 . S
C255 C254 1.474 . S
C256 C251 1.342 . S
C256 C254 1.285 . S
C256 H275 0.930 . S
C257 C260 1.424 . S
C257 C262 1.245 . S
C257 C263 1.428 . S
C258 C261 1.260 . S
C258 C262 1.477 . S
C258 H276 0.932 . S
C259 C260 1.384 . S
C259 C261 1.479 . S
C259 H277 0.929 . S
C260 C257 1.424 . S
C260 C259 1.384 . S
C260 H278 0.928 . S
C261 C258 1.260 . S
C261 C259 1.479 . S
C262 C257 1.245 . S
C262 C258 1.477 . S
C262 H279 0.932 . S
C263 U246 2.882 . S
C263 C257 1.428 . S
C263 O266 1.301 . S
C263 O267 1.282 . S
O264 U246 2.441 1_556 S
O264 C250 1.249 . S
O265 U246 2.420 1_556 S
O265 C250 1.202 . S
O266 U246 2.455 . S
O266 C263 1.301 . S
O267 U246 2.449 . S
O267 C263 1.282 . S
H268 C241 0.931 . S
H269 C243 0.929 . S
H270 C244 0.930 . S
H271 C245 0.931 . S
H272 C252 0.932 . S
H273 C253 0.930 1_556 S
H274 C254 0.929 . S
H275 C256 0.930 . S
H276 C258 0.932 . S
H277 C259 0.929 . S
H278 C260 0.928 . S
H279 C262 0.932 . S
C280 C281 1.264 . S
C280 C285 1.479 . S
C280 C290 1.465 . S
C281 C280 1.264 . S
C281 C283 1.339 . S
C281 H308 0.931 . S
C282 C283 1.395 . S
C282 C284 1.320 . S
C283 C281 1.339 . S
C283 C282 1.395 . S
C283 H309 0.929 . S
C284 C282 1.320 . S
C284 C285 1.405 . S
C284 H310 0.930 . S
C285 C280 1.479 . S
C285 C284 1.405 . S
C285 H311 0.931 . S
U286 O287 2.454 1_554 S
U286 O288 2.458 . S
U286 C289 2.984 . S
U286 C290 2.847 1_554 S
U286 C303 2.882 . S
U286 O304 2.441 1_554 S
U286 O305 2.420 1_554 S
U286 O306 2.455 . S
U286 O307 2.449 . S
O287 U286 2.454 1_556 S
O287 C289 1.353 1_556 S
O288 U286 2.458 . S
O288 C289 1.286 . S
C289 U286 2.984 . S
C289 O287 1.353 1_554 S
C289 O288 1.286 . S
C289 C291 1.363 . S
C290 C280 1.465 . S
C290 U286 2.847 1_556 S
C290 O304 1.249 . S
C290 O305 1.202 . S
C291 C289 1.363 . S
C291 C293 1.408 . S
C291 C296 1.342 . S
C292 C293 1.310 . S
C292 C295 1.461 . S
C292 H312 0.932 . S
C293 C291 1.408 . S
C293 C292 1.310 . S
C293 H313 0.930 1_554 S
C294 C295 1.474 . S
C294 C296 1.285 . S
C294 H314 0.929 . S
C295 C292 1.461 . S
C295 C294 1.474 . S
C296 C291 1.342 . S
C296 C294 1.285 . S
C296 H315 0.930 . S
C297 C300 1.424 . S
C297 C302 1.245 . S
C297 C303 1.428 . S
C298 C301 1.260 . S
C298 C302 1.477 . S
C298 H316 0.932 . S
C299 C300 1.384 . S
C299 C301 1.479 . S
C299 H317 0.929 . S
C300 C297 1.424 . S
C300 C299 1.384 . S
C300 H318 0.928 . S
C301 C298 1.260 . S
C301 C299 1.479 . S
C302 C297 1.245 . S
C302 C298 1.477 . S
C302 H319 0.932 . S
C303 U286 2.882 . S
C303 C297 1.428 . S
C303 O306 1.301 . S
C303 O307 1.282 . S
O304 U286 2.441 1_556 S
O304 C290 1.249 . S
O305 U286 2.420 1_556 S
O305 C290 1.202 . S
O306 U286 2.455 . S
O306 C303 1.301 . S
O307 U286 2.449 . S
O307 C303 1.282 . S
H308 C281 0.931 . S
H309 C283 0.929 . S
H310 C284 0.930 . S
H311 C285 0.931 . S
H312 C292 0.932 . S
H313 C293 0.930 1_556 S
H314 C294 0.929 . S
H315 C296 0.930 . S
H316 C298 0.932 . S
H317 C299 0.929 . S
H318 C300 0.928 . S
H319 C302 0.932 . S
Gd320 C323 2.818 . S
Gd320 O340 2.377 . S
Gd320 O342 2.448 . S
Gd320 O343 2.506 . S
Gd320 O344 2.435 . S
Gd320 O345 2.717 1_565 S
Gd320 O347 2.395 1_565 S
Gd320 O351 2.327 1_455 S
Gd321 C332 2.818 . S
Gd321 O341 2.395 1_545 S
Gd321 O345 2.327 1_655 S
Gd321 O346 2.377 . S
Gd321 O348 2.448 . S
Gd321 O349 2.506 . S
Gd321 O350 2.435 . S
Gd321 O351 2.717 1_545 S
C322 O340 1.240 1_655 S
C322 O341 1.240 . S
C323 Gd320 2.818 . S
C323 C324 1.510 . S
C323 O342 1.249 . S
C323 O343 1.252 . S
C324 C323 1.510 . S
C324 C325 1.404 . S
C324 C326 1.352 . S
C325 C324 1.404 . S
C325 C329 1.389 . S
C325 H352 0.930 . S
C326 C324 1.352 . S
C326 C328 1.374 . S
C326 H353 0.931 1_455 S
C327 C328 1.359 . S
C327 C329 1.364 . S
C328 C326 1.374 . S
C328 C327 1.359 . S
C328 H354 0.931 1_455 S
C329 C325 1.389 . S
C329 C327 1.364 . S
C329 H355 0.931 . S
C330 O344 1.256 1_545 S
C330 O345 1.257 . S
C331 O346 1.240 1_455 S
C331 O347 1.240 . S
C332 Gd321 2.818 . S
C332 C333 1.510 . S
C332 O348 1.249 . S
C332 O349 1.252 . S
C333 C332 1.510 . S
C333 C334 1.404 . S
C333 C335 1.352 . S
C334 C333 1.404 . S
C334 C338 1.389 . S
C334 H356 0.930 . S
C335 C333 1.352 . S
C335 C337 1.374 . S
C335 H357 0.931 1_655 S
C336 C337 1.359 . S
C336 C338 1.364 . S
C337 C335 1.374 . S
C337 C336 1.359 . S
C337 H358 0.931 1_655 S
C338 C334 1.389 . S
C338 C336 1.364 . S
C338 H359 0.931 . S
C339 O350 1.256 . S
C339 O351 1.257 1_545 S
O340 Gd320 2.377 . S
O340 C322 1.240 1_455 S
O341 Gd321 2.395 1_565 S
O341 C322 1.240 . S
O342 Gd320 2.448 . S
O342 C323 1.249 . S
O343 Gd320 2.506 . S
O343 C323 1.252 . S
O344 Gd320 2.435 . S
O344 C330 1.256 1_565 S
O345 Gd320 2.717 1_545 S
O345 Gd321 2.327 1_455 S
O345 C330 1.257 . S
O346 Gd321 2.377 . S
O346 C331 1.240 1_655 S
O347 Gd320 2.395 1_545 S
O347 C331 1.240 . S
O348 Gd321 2.448 . S
O348 C332 1.249 . S
O349 Gd321 2.506 . S
O349 C332 1.252 . S
O350 Gd321 2.435 . S
O350 C339 1.256 . S
O351 Gd320 2.327 1_655 S
O351 Gd321 2.717 1_565 S
O351 C339 1.257 1_565 S
H352 C325 0.930 . S
H353 C326 0.931 1_655 S
H354 C328 0.931 1_655 S
H355 C329 0.931 . S
H356 C334 0.930 . S
H357 C335 0.931 1_455 S
H358 C337 0.931 1_455 S
H359 C338 0.931 . S
Gd360 C363 2.818 . S
Gd360 O380 2.377 . S
Gd360 O382 2.448 . S
Gd360 O383 2.506 . S
Gd360 O384 2.435 . S
Gd360 O385 2.717 . S
Gd360 O387 2.395 . S
Gd360 O391 2.327 1_545 S
Gd361 C372 2.818 . S
Gd361 O381 2.395 . S
Gd361 O385 2.327 1_565 S
Gd361 O386 2.377 . S
Gd361 O388 2.448 . S
Gd361 O389 2.506 1_565 S
Gd361 O390 2.435 . S
Gd361 O391 2.717 . S
C362 O380 1.240 1_565 S
C362 O381 1.240 . S
C363 Gd360 2.818 . S
C363 C364 1.510 . S
C363 O382 1.249 . S
C363 O383 1.252 . S
C364 C363 1.510 . S
C364 C365 1.404 . S
C364 C366 1.352 . S
C365 C364 1.404 . S
C365 C369 1.389 . S
C365 H392 0.930 . S
C366 C364 1.352 . S
C366 C368 1.374 . S
C366 H393 0.931 1_545 S
C367 C368 1.359 . S
C367 C369 1.364 . S
C368 C366 1.374 . S
C368 C367 1.359 . S
C368 H394 0.931 1_545 S
C369 C365 1.389 . S
C369 C367 1.364 . S
C369 H395 0.931 . S
C370 O384 1.256 . S
C370 O385 1.257 . S
C371 O386 1.240 1_545 S
C371 O387 1.240 . S
C372 Gd361 2.818 . S
C372 C373 1.510 . S
C372 O388 1.249 . S
C372 O389 1.252 1_565 S
C373 C372 1.510 . S
C373 C374 1.404 . S
C373 C375 1.382 . S
C374 C373 1.404 . S
C374 C378 1.389 . S
C374 H396 0.930 . S
C375 C373 1.382 . S
C375 C377 1.377 . S
C375 H397 0.897 1_565 S
C376 C377 1.359 . S
C376 C378 1.364 . S
C377 C375 1.377 . S
C377 C376 1.359 . S
C377 H398 0.931 1_565 S
C378 C374 1.389 . S
C378 C376 1.364 . S
C378 H399 0.931 . S
C379 O390 1.256 . S
C379 O391 1.257 . S
O380 Gd360 2.377 . S
O380 C362 1.240 1_545 S
O381 Gd361 2.395 . S
O381 C362 1.240 . S
O382 Gd360 2.448 . S
O382 C363 1.249 . S
O383 Gd360 2.506 . S
O383 C363 1.252 . S
O384 Gd360 2.435 . S
O384 C370 1.256 . S
O385 Gd360 2.717 . S
O385 Gd361 2.327 1_545 S
O385 C370 1.257 . S
O386 Gd361 2.377 . S
O386 C371 1.240 1_565 S
O387 Gd360 2.395 . S
O387 C371 1.240 . S
O388 Gd361 2.448 . S
O388 C372 1.249 . S
O389 Gd361 2.506 1_545 S
O389 C372 1.252 1_545 S
O390 Gd361 2.435 . S
O390 C379 1.256 . S
O391 Gd360 2.327 1_565 S
O391 Gd361 2.717 . S
O391 C379 1.257 . S
H392 C365 0.930 . S
H393 C366 0.931 1_565 S
H394 C368 0.931 1_565 S
H395 C369 0.931 . S
H396 C374 0.930 . S
H397 C375 0.897 1_545 S
H398 C377 0.931 1_545 S
H399 C378 0.931 . S
Gd400 C403 2.818 . S
Gd400 O420 2.377 . S
Gd400 O422 2.448 . S
Gd400 O423 2.506 . S
Gd400 O424 2.435 . S
Gd400 O425 2.717 . S
Gd400 O427 2.395 . S
Gd400 O431 2.327 . S
Gd401 C412 2.818 . S
Gd401 O421 2.395 . S
Gd401 O425 2.327 . S
Gd401 O426 2.377 . S
Gd401 O428 2.448 . S
Gd401 O429 2.506 . S
Gd401 O430 2.435 . S
Gd401 O431 2.717 . S
C402 O420 1.240 . S
C402 O421 1.240 . S
C403 Gd400 2.818 . S
C403 C404 1.510 . S
C403 O422 1.249 . S
C403 O423 1.252 . S
C404 C403 1.510 . S
C404 C405 1.404 . S
C404 C406 1.352 . S
C405 C404 1.404 . S
C405 C409 1.389 . S
C405 H432 0.930 . S
C406 C404 1.352 . S
C406 C408 1.374 . S
C406 H433 0.931 . S
C407 C408 1.359 . S
C407 C409 1.364 . S
C408 C406 1.374 . S
C408 C407 1.359 . S
C408 H434 0.931 . S
C409 C405 1.389 . S
C409 C407 1.364 . S
C409 H435 0.931 . S
C410 O424 1.256 . S
C410 O425 1.257 . S
C411 O426 1.240 . S
C411 O427 1.240 . S
C412 Gd401 2.818 . S
C412 C413 1.510 . S
C412 O428 1.249 . S
C412 O429 1.252 . S
C413 C412 1.510 . S
C413 C414 1.404 . S
C413 C415 1.352 . S
C414 C413 1.404 . S
C414 C418 1.389 . S
C414 H436 0.930 . S
C415 C413 1.352 . S
C415 C417 1.374 . S
C415 H437 0.931 . S
C416 C417 1.359 . S
C416 C418 1.364 . S
C417 C415 1.374 . S
C417 C416 1.359 . S
C417 H438 0.931 . S
C418 C414 1.389 . S
C418 C416 1.364 . S
C418 H439 0.931 . S
C419 O430 1.256 . S
C419 O431 1.257 . S
O420 Gd400 2.377 . S
O420 C402 1.240 . S
O421 Gd401 2.395 . S
O421 C402 1.240 . S
O422 Gd400 2.448 . S
O422 C403 1.249 . S
O423 Gd400 2.506 . S
O423 C403 1.252 . S
O424 Gd400 2.435 . S
O424 C410 1.256 . S
O425 Gd400 2.717 . S
O425 Gd401 2.327 . S
O425 C410 1.257 . S
O426 Gd401 2.377 . S
O426 C411 1.240 . S
O427 Gd400 2.395 . S
O427 C411 1.240 . S
O428 Gd401 2.448 . S
O428 C412 1.249 . S
O429 Gd401 2.506 . S
O429 C412 1.252 . S
O430 Gd401 2.435 . S
O430 C419 1.256 . S
O431 Gd400 2.327 . S
O431 Gd401 2.717 . S
O431 C419 1.257 . S
H432 C405 0.930 . S
H433 C406 0.931 . S
H434 C408 0.931 . S
H435 C409 0.931 . S
H436 C414 0.930 . S
H437 C415 0.931 . S
H438 C417 0.931 . S
H439 C418 0.931 . S
Gd440 C443 2.818 . S
Gd440 O460 2.377 . S
Gd440 O462 2.448 . S
Gd440 O463 2.506 . S
Gd440 O464 2.435 . S
Gd440 O465 2.717 1_655 S
Gd440 O467 2.395 1_655 S
Gd440 O471 2.327 . S
Gd441 C452 2.818 . S
Gd441 O461 2.395 1_455 S
Gd441 O465 2.327 . S
Gd441 O466 2.377 . S
Gd441 O468 2.448 . S
Gd441 O469 2.506 . S
Gd441 O470 2.435 . S
Gd441 O471 2.717 1_455 S
C442 O460 1.240 . S
C442 O461 1.240 . S
C443 Gd440 2.818 . S
C443 C444 1.510 . S
C443 O462 1.249 . S
C443 O463 1.252 . S
C444 C443 1.510 . S
C444 C445 1.404 . S
C444 C446 1.352 . S
C445 C444 1.404 . S
C445 C449 1.389 . S
C445 H472 0.930 . S
C446 C444 1.352 . S
C446 C448 1.374 . S
C446 H473 0.931 . S
C447 C448 1.359 . S
C447 C449 1.364 . S
C448 C446 1.374 . S
C448 C447 1.359 . S
C448 H474 0.931 . S
C449 C445 1.389 . S
C449 C447 1.364 . S
C449 H475 0.931 . S
C450 O464 1.261 . S
C450 O465 1.255 1_655 S
C451 O466 1.240 . S
C451 O467 1.240 . S
C452 Gd441 2.818 . S
C452 C453 1.510 . S
C452 O468 1.249 . S
C452 O469 1.252 . S
C453 C452 1.510 . S
C453 C454 1.404 . S
C453 C455 1.352 . S
C454 C453 1.404 . S
C454 C458 1.389 . S
C454 H476 0.930 . S
C455 C453 1.352 . S
C455 C457 1.374 . S
C455 H477 0.931 . S
C456 C457 1.359 . S
C456 C458 1.364 . S
C457 C455 1.374 . S
C457 C456 1.359 . S
C457 H478 0.931 . S
C458 C454 1.389 . S
C458 C456 1.364 . S
C458 H479 0.931 . S
C459 O470 1.256 . S
C459 O471 1.257 1_455 S
O460 Gd440 2.377 . S
O460 C442 1.240 . S
O461 Gd441 2.395 1_655 S
O461 C442 1.240 . S
O462 Gd440 2.448 . S
O462 C443 1.249 . S
O463 Gd440 2.506 . S
O463 C443 1.252 . S
O464 Gd440 2.435 . S
O464 C450 1.261 . S
O465 Gd440 2.717 1_455 S
O465 Gd441 2.327 . S
O465 C450 1.255 1_455 S
O466 Gd441 2.377 . S
O466 C451 1.240 . S
O467 Gd440 2.395 1_455 S
O467 C451 1.240 . S
O468 Gd441 2.448 . S
O468 C452 1.249 . S
O469 Gd441 2.506 . S
O469 C452 1.252 . S
O470 Gd441 2.435 . S
O470 C459 1.256 . S
O471 Gd440 2.327 . S
O471 Gd441 2.717 1_655 S
O471 C459 1.257 1_655 S
H472 C445 0.930 . S
H473 C446 0.931 . S
H474 C448 0.931 . S
H475 C449 0.931 . S
H476 C454 0.930 . S
H477 C455 0.931 . S
H478 C457 0.931 . S
H479 C458 0.931 . S
H480 C492 0.930 . S
H481 C494 0.930 . S
H482 C495 0.930 . S
H483 C499 0.959 . S
H484 C499 0.959 . S
H485 C499 0.961 . S
H486 C500 0.960 . S
H487 C500 0.961 . S
H488 C500 0.959 . S
H489 C503 0.929 . S
H490 C504 0.931 . S
H491 C506 0.930 . S
C492 H480 0.930 . S
C492 C493 1.399 1_565 S
C492 C497 1.400 . S
C493 C492 1.399 1_545 S
C493 C494 1.376 . S
C494 H481 0.930 . S
C494 C493 1.376 . S
C494 C495 1.388 . S
C495 H482 0.930 . S
C495 C494 1.388 . S
C495 C496 1.390 . S
C496 C495 1.390 . S
C496 C497 1.389 1_545 S
C496 C502 1.465 . S
C497 C492 1.400 . S
C497 C496 1.389 1_565 S
C497 C498 1.519 . S
C498 C497 1.519 . S
C498 C499 1.502 . S
C498 C500 1.561 . S
C498 C501 1.526 . S
C499 H483 0.959 . S
C499 H484 0.959 . S
C499 H485 0.961 . S
C499 C498 1.502 . S
C500 H486 0.960 . S
C500 H487 0.961 . S
C500 H488 0.959 . S
C500 C498 1.561 . S
C501 C498 1.526 . S
C501 C502 1.396 1_565 S
C501 C506 1.390 . S
C502 C496 1.465 . S
C502 C501 1.396 1_545 S
C502 C503 1.399 . S
C503 H489 0.929 . S
C503 C502 1.399 . S
C503 C504 1.385 . S
C504 H490 0.931 . S
C504 C503 1.385 . S
C504 C505 1.389 . S
C505 C504 1.389 . S
C505 C506 1.387 1_545 S
C506 H491 0.930 . S
C506 C501 1.390 . S
C506 C505 1.387 1_565 S
H507 C519 0.930 . S
H508 C521 0.930 . S
H509 C522 0.930 . S
H510 C526 0.959 . S
H511 C526 0.959 . S
H512 C526 0.961 . S
H513 C527 0.960 . S
H514 C527 0.961 . S
H515 C527 0.959 . S
H516 C530 0.929 . S
H517 C531 0.931 . S
H518 C533 0.930 . S
C519 H507 0.930 . S
C519 C520 1.399 . S
C519 C524 1.399 . S
C520 C519 1.399 . S
C520 C521 1.376 . S
C521 H508 0.930 . S
C521 C520 1.376 . S
C521 C522 1.388 . S
C522 H509 0.930 . S
C522 C521 1.388 . S
C522 C523 1.390 . S
C523 C522 1.390 . S
C523 C524 1.394 . S
C523 C529 1.465 . S
C524 C519 1.399 . S
C524 C523 1.394 . S
C524 C525 1.516 . S
C525 C524 1.516 . S
C525 C526 1.502 . S
C525 C527 1.561 . S
C525 C528 1.526 . S
C526 H510 0.959 . S
C526 H511 0.959 . S
C526 H512 0.961 . S
C526 C525 1.502 . S
C527 H513 0.960 . S
C527 H514 0.961 . S
C527 H515 0.959 . S
C527 C525 1.561 . S
C528 C525 1.526 . S
C528 C529 1.396 . S
C528 C533 1.390 . S
C529 C523 1.465 . S
C529 C528 1.396 . S
C529 C530 1.399 . S
C530 H516 0.929 . S
C530 C529 1.399 . S
C530 C531 1.385 . S
C531 H517 0.931 . S
C531 C530 1.385 . S
C531 C532 1.389 . S
C532 C531 1.389 . S
C532 C533 1.387 . S
C533 H518 0.930 . S
C533 C528 1.390 . S
C533 C532 1.387 . S
H534 C546 0.930 . S
H535 C548 0.930 . S
H536 C549 0.930 . S
H537 C553 0.959 . S
H538 C553 0.959 . S
H539 C553 0.961 . S
H540 C554 0.960 . S
H541 C554 0.961 . S
H542 C554 0.959 . S
H543 C557 0.929 . S
H544 C558 0.931 . S
H545 C560 0.930 . S
C546 H534 0.930 . S
C546 C547 1.399 . S
C546 C551 1.399 . S
C547 C546 1.399 . S
C547 C548 1.376 . S
C548 H535 0.930 . S
C548 C547 1.376 . S
C548 C549 1.388 . S
C549 H536 0.930 . S
C549 C548 1.388 . S
C549 C550 1.390 . S
C550 C549 1.390 . S
C550 C551 1.394 . S
C550 C556 1.465 . S
C551 C546 1.399 . S
C551 C550 1.394 . S
C551 C552 1.516 . S
C552 C551 1.516 . S
C552 C553 1.502 . S
C552 C554 1.561 . S
C552 C555 1.526 . S
C553 H537 0.959 . S
C553 H538 0.959 . S
C553 H539 0.961 . S
C553 C552 1.502 . S
C554 H540 0.960 . S
C554 H541 0.961 . S
C554 H542 0.959 . S
C554 C552 1.561 . S
C555 C552 1.526 . S
C555 C556 1.396 . S
C555 C560 1.390 . S
C556 C550 1.465 . S
C556 C555 1.396 . S
C556 C557 1.399 . S
C557 H543 0.929 . S
C557 C556 1.399 . S
C557 C558 1.385 . S
C558 H544 0.931 . S
C558 C557 1.385 . S
C558 C559 1.389 . S
C559 C558 1.389 . S
C559 C560 1.387 . S
C560 H545 0.930 . S
C560 C555 1.390 . S
C560 C559 1.387 . S
H561 C573 0.930 . S
H562 C575 0.930 . S
H563 C576 0.930 . S
H564 C580 0.959 . S
H565 C580 0.959 . S
H566 C580 0.961 . S
H567 C581 0.960 . S
H568 C581 0.961 . S
H569 C581 0.959 . S
H570 C584 0.929 . S
H571 C585 0.931 . S
H572 C587 0.930 . S
C573 H561 0.930 . S
C573 C574 1.399 . S
C573 C578 1.399 . S
C574 C573 1.399 . S
C574 C575 1.376 1_455 S
C575 H562 0.930 . S
C575 C574 1.376 1_655 S
C575 C576 1.388 . S
C576 H563 0.930 . S
C576 C575 1.388 . S
C576 C577 1.390 . S
C577 C576 1.390 . S
C577 C578 1.394 1_655 S
C577 C583 1.465 . S
C578 C573 1.399 . S
C578 C577 1.394 1_455 S
C578 C579 1.516 . S
C579 C578 1.516 . S
C579 C580 1.502 . S
C579 C581 1.561 1_455 S
C579 C582 1.526 . S
C580 H564 0.959 . S
C580 H565 0.959 . S
C580 H566 0.961 . S
C580 C579 1.502 . S
C581 H567 0.960 . S
C581 H568 0.961 . S
C581 H569 0.959 . S
C581 C579 1.561 1_655 S
C582 C579 1.526 . S
C582 C583 1.396 1_455 S
C582 C587 1.390 . S
C583 C577 1.465 . S
C583 C582 1.396 1_655 S
C583 C584 1.399 . S
C584 H570 0.929 . S
C584 C583 1.399 . S
C584 C585 1.385 . S
C585 H571 0.931 . S
C585 C584 1.385 . S
C585 C586 1.389 1_655 S
C586 C585 1.389 1_455 S
C586 C587 1.387 . S
C587 H572 0.930 . S
C587 C582 1.390 . S
C587 C586 1.387 . S
H588 C600 0.930 . S
H589 C602 0.930 . S
H590 C603 0.930 . S
H591 C607 0.959 . S
H592 C607 0.959 . S
H593 C607 0.961 . S
H594 C608 0.960 . S
H595 C608 0.961 1_556 S
H596 C608 0.959 . S
H597 C611 0.929 . S
H598 C612 0.931 . S
H599 C614 0.930 . S
C600 H588 0.930 . S
C600 C601 1.399 1_545 S
C600 C605 1.399 . S
C601 C600 1.399 1_565 S
C601 C602 1.376 . S
C602 H589 0.930 . S
C602 C601 1.376 . S
C602 C603 1.388 . S
C603 H590 0.930 . S
C603 C602 1.388 . S
C603 C604 1.390 . S
C604 C603 1.390 . S
C604 C605 1.394 1_565 S
C604 C610 1.465 1_554 S
C605 C600 1.399 . S
C605 C604 1.394 1_545 S
C605 C606 1.516 1_554 S
C606 C605 1.516 1_556 S
C606 C607 1.502 . S
C606 C608 1.561 1_556 S
C606 C609 1.526 . S
C607 H591 0.959 . S
C607 H592 0.959 . S
C607 H593 0.961 . S
C607 C606 1.502 . S
C608 H594 0.960 . S
C608 H595 0.961 1_554 S
C608 H596 0.959 . S
C608 C606 1.561 1_554 S
C609 C606 1.526 . S
C609 C610 1.396 1_545 S
C609 C614 1.390 . S
C610 C604 1.465 1_556 S
C610 C609 1.396 1_565 S
C610 C611 1.399 . S
C611 H597 0.929 . S
C611 C610 1.399 . S
C611 C612 1.385 . S
C612 H598 0.931 . S
C612 C611 1.385 . S
C612 C613 1.389 . S
C613 C612 1.389 . S
C613 C614 1.387 1_565 S
C614 H599 0.930 . S
C614 C609 1.390 . S
C614 C613 1.387 1_545 S
H615 C627 0.930 . S
H616 C629 0.930 . S
H617 C630 0.930 . S
H618 C634 0.959 . S
H619 C634 0.959 . S
H620 C634 0.961 . S
H621 C635 0.960 1_554 S
H622 C635 0.961 . S
H623 C635 0.959 . S
H624 C638 0.929 . S
H625 C639 0.931 . S
H626 C641 0.930 . S
C627 H615 0.930 . S
C627 C628 1.399 . S
C627 C632 1.399 . S
C628 C627 1.399 . S
C628 C629 1.376 . S
C629 H616 0.930 . S
C629 C628 1.376 . S
C629 C630 1.388 . S
C630 H617 0.930 . S
C630 C629 1.388 . S
C630 C631 1.390 . S
C631 C630 1.390 . S
C631 C632 1.394 . S
C631 C637 1.465 1_554 S
C632 C627 1.399 . S
C632 C631 1.394 . S
C632 C633 1.516 1_554 S
C633 C632 1.516 1_556 S
C633 C634 1.502 . S
C633 C635 1.561 . S
C633 C636 1.526 . S
C634 H618 0.959 . S
C634 H619 0.959 . S
C634 H620 0.961 . S
C634 C633 1.502 . S
C635 H621 0.960 1_556 S
C635 H622 0.961 . S
C635 H623 0.959 . S
C635 C633 1.561 . S
C636 C633 1.526 . S
C636 C637 1.396 . S
C636 C641 1.390 . S
C637 C631 1.465 1_556 S
C637 C636 1.396 . S
C637 C638 1.399 . S
C638 H624 0.929 . S
C638 C637 1.399 . S
C638 C639 1.385 . S
C639 H625 0.931 . S
C639 C638 1.385 . S
C639 C640 1.389 . S
C640 C639 1.389 . S
C640 C641 1.387 . S
C641 H626 0.930 . S
C641 C636 1.390 . S
C641 C640 1.387 . S
H642 C654 0.930 . S
H643 C656 0.930 . S
H644 C657 0.930 . S
H645 C661 0.959 . S
H646 C661 0.959 1_556 S
H647 C661 0.961 . S
H648 C662 0.960 . S
H649 C662 0.961 . S
H650 C662 0.959 . S
H651 C665 0.929 . S
H652 C666 0.931 . S
H653 C668 0.930 . S
C654 H642 0.930 . S
C654 C655 1.399 . S
C654 C659 1.399 . S
C655 C654 1.399 . S
C655 C656 1.376 . S
C656 H643 0.930 . S
C656 C655 1.376 . S
C656 C657 1.388 . S
C657 H644 0.930 . S
C657 C656 1.388 . S
C657 C658 1.390 . S
C658 C657 1.390 . S
C658 C659 1.394 . S
C658 C664 1.465 1_554 S
C659 C654 1.399 . S
C659 C658 1.394 . S
C659 C660 1.516 1_554 S
C660 C659 1.516 1_556 S
C660 C661 1.502 1_556 S
C660 C662 1.561 . S
C660 C663 1.526 . S
C661 H645 0.959 . S
C661 H646 0.959 1_554 S
C661 H647 0.961 . S
C661 C660 1.502 1_554 S
C662 H648 0.960 . S
C662 H649 0.961 . S
C662 H650 0.959 . S
C662 C660 1.561 . S
C663 C660 1.526 . S
C663 C664 1.396 . S
C663 C668 1.390 . S
C664 C658 1.465 1_556 S
C664 C663 1.396 . S
C664 C665 1.399 . S
C665 H651 0.929 . S
C665 C664 1.399 . S
C665 C666 1.385 . S
C666 H652 0.931 . S
C666 C665 1.385 . S
C666 C667 1.389 . S
C667 C666 1.389 . S
C667 C668 1.387 . S
C668 H653 0.930 . S
C668 C663 1.390 . S
C668 C667 1.387 . S
H669 C681 0.930 . S
H670 C683 0.930 . S
H671 C684 0.930 . S
H672 C688 0.959 . S
H673 C688 0.959 . S
H674 C688 0.961 . S
H675 C689 0.960 . S
H676 C689 0.961 . S
H677 C689 0.959 1_455 S
H678 C692 0.929 . S
H679 C693 0.931 . S
H680 C695 0.930 . S
C681 H669 0.930 . S
C681 C682 1.399 1_655 S
C681 C686 1.399 . S
C682 C681 1.399 1_455 S
C682 C683 1.376 . S
C683 H670 0.930 . S
C683 C682 1.376 . S
C683 C684 1.388 . S
C684 H671 0.930 . S
C684 C683 1.388 . S
C684 C685 1.390 . S
C685 C684 1.390 . S
C685 C686 1.394 1_455 S
C685 C691 1.465 1_554 S
C686 C681 1.399 . S
C686 C685 1.394 1_655 S
C686 C687 1.516 1_554 S
C687 C686 1.516 1_556 S
C687 C688 1.502 . S
C687 C689 1.561 . S
C687 C690 1.526 . S
C688 H672 0.959 . S
C688 H673 0.959 . S
C688 H674 0.961 . S
C688 C687 1.502 . S
C689 H675 0.960 . S
C689 H676 0.961 . S
C689 H677 0.959 1_655 S
C689 C687 1.561 . S
C690 C687 1.526 . S
C690 C691 1.396 1_655 S
C690 C695 1.390 . S
C691 C685 1.465 1_556 S
C691 C690 1.396 1_455 S
C691 C692 1.399 . S
C692 H678 0.929 . S
C692 C691 1.399 . S
C692 C693 1.385 . S
C693 H679 0.931 . S
C693 C692 1.385 . S
C693 C694 1.389 . S
C694 C693 1.389 . S
C694 C695 1.387 1_455 S
C695 H680 0.930 . S
C695 C690 1.390 . S
C695 C694 1.387 1_655 S
H696 C708 0.930 . S
H697 C710 0.930 . S
H698 C711 0.930 . S
H699 C715 0.959 . S
H700 C715 0.959 . S
H701 C715 0.961 . S
H702 C716 0.960 . S
H703 C716 0.961 . S
H704 C716 0.959 . S
H705 C719 0.929 . S
H706 C720 0.931 . S
H707 C722 0.930 . S
C708 H696 0.930 . S
C708 C709 1.399 . S
C708 C713 1.399 1_455 S
C709 C708 1.399 . S
C709 C710 1.376 1_455 S
C710 H697 0.930 . S
C710 C709 1.376 1_655 S
C710 C711 1.388 . S
C711 H698 0.930 . S
C711 C710 1.388 . S
C711 C712 1.390 . S
C712 C711 1.390 . S
C712 C713 1.394 . S
C712 C718 1.465 . S
C713 C708 1.399 1_655 S
C713 C712 1.394 . S
C713 C714 1.516 . S
C714 C713 1.516 . S
C714 C715 1.502 1_655 S
C714 C716 1.561 . S
C714 C717 1.526 . S
C715 H699 0.959 . S
C715 H700 0.959 . S
C715 H701 0.961 . S
C715 C714 1.502 1_455 S
C716 H702 0.960 . S
C716 H703 0.961 . S
C716 H704 0.959 . S
C716 C714 1.561 . S
C717 C714 1.526 . S
C717 C718 1.396 . S
C717 C722 1.390 . S
C718 C712 1.465 . S
C718 C717 1.396 . S
C718 C719 1.399 . S
C719 H705 0.929 . S
C719 C718 1.399 . S
C719 C720 1.385 . S
C720 H706 0.931 . S
C720 C719 1.385 . S
C720 C721 1.389 . S
C721 C720 1.389 . S
C721 C722 1.387 . S
C722 H707 0.930 . S
C722 C717 1.390 . S
C722 C721 1.387 . S
H723 C735 0.930 . S
H724 C737 0.930 . S
H725 C738 0.930 . S
H726 C742 0.959 . S
H727 C742 0.959 . S
H728 C742 0.961 . S
H729 C743 0.960 1_545 S
H730 C743 0.961 . S
H731 C743 0.959 . S
H732 C746 0.929 . S
H733 C747 0.931 . S
H734 C749 0.930 . S
C735 H723 0.930 . S
C735 C736 1.399 . S
C735 C740 1.399 . S
C736 C735 1.399 . S
C736 C737 1.376 1_545 S
C737 H724 0.930 . S
C737 C736 1.376 1_565 S
C737 C738 1.388 . S
C738 H725 0.930 . S
C738 C737 1.388 . S
C738 C739 1.390 . S
C739 C738 1.390 . S
C739 C740 1.394 1_565 S
C739 C745 1.465 . S
C740 C735 1.399 . S
C740 C739 1.394 1_545 S
C740 C741 1.516 . S
C741 C740 1.516 . S
C741 C742 1.502 . S
C741 C743 1.561 1_545 S
C741 C744 1.526 1_545 S
C742 H726 0.959 . S
C742 H727 0.959 . S
C742 H728 0.961 . S
C742 C741 1.502 . S
C743 H729 0.960 1_565 S
C743 H730 0.961 . S
C743 H731 0.959 . S
C743 C741 1.561 1_565 S
C744 C741 1.526 1_565 S
C744 C745 1.396 . S
C744 C749 1.390 . S
C745 C739 1.465 . S
C745 C744 1.396 . S
C745 C746 1.399 . S
C746 H732 0.929 . S
C746 C745 1.399 . S
C746 C747 1.385 . S
C747 H733 0.931 . S
C747 C746 1.385 . S
C747 C748 1.389 . S
C748 C747 1.389 . S
C748 C749 1.387 . S
C749 H734 0.930 . S
C749 C744 1.390 . S
C749 C748 1.387 . S
H750 C762 0.930 . S
H751 C764 0.930 . S
H752 C765 0.930 . S
H753 C769 0.959 . S
H754 C769 0.959 . S
H755 C769 0.961 . S
H756 C770 0.960 . S
H757 C770 0.961 . S
H758 C770 0.959 . S
H759 C773 0.929 . S
H760 C774 0.931 . S
H761 C776 0.930 . S
C762 H750 0.930 . S
C762 C763 1.399 . S
C762 C767 1.399 . S
C763 C762 1.399 . S
C763 C764 1.376 . S
C764 H751 0.930 . S
C764 C763 1.376 . S
C764 C765 1.388 . S
C765 H752 0.930 . S
C765 C764 1.388 . S
C765 C766 1.390 . S
C766 C765 1.390 . S
C766 C767 1.394 . S
C766 C772 1.465 . S
C767 C762 1.399 . S
C767 C766 1.394 . S
C767 C768 1.516 . S
C768 C767 1.516 . S
C768 C769 1.502 . S
C768 C770 1.561 . S
C768 C771 1.526 . S
C769 H753 0.959 . S
C769 H754 0.959 . S
C769 H755 0.961 . S
C769 C768 1.502 . S
C770 H756 0.960 . S
C770 H757 0.961 . S
C770 H758 0.959 . S
C770 C768 1.561 . S
C771 C768 1.526 . S
C771 C772 1.396 . S
C771 C776 1.390 . S
C772 C766 1.465 . S
C772 C771 1.396 . S
C772 C773 1.399 . S
C773 H759 0.929 . S
C773 C772 1.399 . S
C773 C774 1.385 . S
C774 H760 0.931 . S
C774 C773 1.385 . S
C774 C775 1.389 . S
C775 C774 1.389 . S
C775 C776 1.387 . S
C776 H761 0.930 . S
C776 C771 1.390 . S
C776 C775 1.387 . S
H777 C789 0.930 . S
H778 C791 0.930 . S
H779 C792 0.930 . S
H780 C796 0.959 . S
H781 C796 0.959 . S
H782 C796 0.961 . S
H783 C797 0.960 . S
H784 C797 0.961 . S
H785 C797 0.959 . S
H786 C800 0.929 . S
H787 C801 0.931 . S
H788 C803 0.930 . S
C789 H777 0.930 . S
C789 C790 1.399 . S
C789 C794 1.399 . S
C790 C789 1.399 . S
C790 C791 1.376 . S
C791 H778 0.930 . S
C791 C790 1.376 . S
C791 C792 1.388 . S
C792 H779 0.930 . S
C792 C791 1.388 . S
C792 C793 1.390 . S
C793 C792 1.390 . S
C793 C794 1.394 . S
C793 C799 1.465 . S
C794 C789 1.399 . S
C794 C793 1.394 . S
C794 C795 1.516 . S
C795 C794 1.516 . S
C795 C796 1.502 . S
C795 C797 1.561 . S
C795 C798 1.526 . S
C796 H780 0.959 . S
C796 H781 0.959 . S
C796 H782 0.961 . S
C796 C795 1.502 . S
C797 H783 0.960 . S
C797 H784 0.961 . S
C797 H785 0.959 . S
C797 C795 1.561 . S
C798 C795 1.526 . S
C798 C799 1.396 . S
C798 C803 1.390 . S
C799 C793 1.465 . S
C799 C798 1.396 . S
C799 C800 1.399 . S
C800 H786 0.929 . S
C800 C799 1.399 . S
C800 C801 1.385 . S
C801 H787 0.931 . S
C801 C800 1.385 . S
C801 C802 1.389 . S
C802 C801 1.389 . S
C802 C803 1.387 . S
C803 H788 0.930 . S
C803 C798 1.390 . S
C803 C802 1.387 . S
H804 C816 0.930 . S
H805 C818 0.930 . S
H806 C819 0.930 . S
H807 C823 0.959 . S
H808 C823 0.959 . S
H809 C823 0.961 . S
H810 C824 0.960 . S
H811 C824 0.961 . S
H812 C824 0.959 . S
H813 C827 0.929 . S
H814 C828 0.931 . S
H815 C830 0.928 1_554 S
C816 H804 0.930 . S
C816 C817 1.400 . S
C816 C821 1.399 1_655 S
C817 C816 1.400 . S
C817 C818 1.365 1_654 S
C818 H805 0.930 . S
C818 C817 1.365 1_456 S
C818 C819 1.388 . S
C819 H806 0.930 . S
C819 C818 1.388 . S
C819 C820 1.390 . S
C820 C819 1.390 . S
C820 C821 1.394 1_556 S
C820 C826 1.465 . S
C821 C816 1.399 1_455 S
C821 C820 1.394 1_554 S
C821 C822 1.516 . S
C822 C821 1.516 . S
C822 C823 1.502 1_455 S
C822 C824 1.561 . S
C822 C825 1.526 1_554 S
C823 H807 0.959 . S
C823 H808 0.959 . S
C823 H809 0.961 . S
C823 C822 1.502 1_655 S
C824 H810 0.960 . S
C824 H811 0.961 . S
C824 H812 0.959 . S
C824 C822 1.561 . S
C825 C822 1.526 1_556 S
C825 C826 1.396 . S
C825 C830 1.390 . S
C826 C820 1.465 . S
C826 C825 1.396 . S
C826 C827 1.399 . S
C827 H813 0.929 . S
C827 C826 1.399 . S
C827 C828 1.385 . S
C828 H814 0.931 . S
C828 C827 1.385 . S
C828 C829 1.389 . S
C829 C828 1.389 . S
C829 C830 1.387 . S
C830 H815 0.928 1_556 S
C830 C825 1.390 . S
C830 C829 1.387 . S
H831 C843 0.930 . S
H832 C845 0.930 . S
H833 C846 0.930 . S
H834 C850 0.959 . S
H835 C850 0.959 . S
H836 C850 0.961 . S
H837 C851 0.960 . S
H838 C851 0.961 . S
H839 C851 0.959 1_556 S
H840 C854 0.929 1_565 S
H841 C855 0.931 . S
H842 C857 0.930 . S
C843 H831 0.930 . S
C843 C844 1.399 1_545 S
C843 C848 1.399 . S
C844 C843 1.399 1_565 S
C844 C845 1.376 1_554 S
C845 H832 0.930 . S
C845 C844 1.376 1_556 S
C845 C846 1.388 . S
C846 H833 0.930 . S
C846 C845 1.388 . S
C846 C847 1.390 1_565 S
C847 C846 1.390 1_545 S
C847 C848 1.394 1_556 S
C847 C853 1.465 . S
C848 C843 1.399 . S
C848 C847 1.394 1_554 S
C848 C849 1.516 . S
C849 C848 1.516 . S
C849 C850 1.502 . S
C849 C851 1.561 . S
C849 C852 1.526 1_554 S
C850 H834 0.959 . S
C850 H835 0.959 . S
C850 H836 0.961 . S
C850 C849 1.502 . S
C851 H837 0.960 . S
C851 H838 0.961 . S
C851 H839 0.959 1_554 S
C851 C849 1.561 . S
C852 C849 1.526 1_556 S
C852 C853 1.396 . S
C852 C857 1.390 . S
C853 C847 1.465 . S
C853 C852 1.396 . S
C853 C854 1.399 . S
C854 H840 0.929 1_545 S
C854 C853 1.399 . S
C854 C855 1.385 . S
C855 H841 0.931 . S
C855 C854 1.385 . S
C855 C856 1.389 . S
C856 C855 1.389 . S
C856 C857 1.387 . S
C857 H842 0.930 . S
C857 C852 1.390 . S
C857 C856 1.387 . S
H858 C870 0.930 1_556 S
H859 C872 0.930 . S
H860 C873 0.930 . S
H861 C877 0.974 . S
H862 C877 0.959 . S
H863 C877 0.961 . S
H864 C878 0.960 . S
H865 C878 0.961 . S
H866 C878 0.959 . S
H867 C881 0.929 1_554 S
H868 C882 0.931 . S
H869 C884 0.930 . S
C870 H858 0.930 1_554 S
C870 C871 1.399 . S
C870 C875 1.399 1_554 S
C871 C870 1.399 . S
C871 C872 1.376 . S
C872 H859 0.930 . S
C872 C871 1.376 . S
C872 C873 1.388 . S
C873 H860 0.930 . S
C873 C872 1.388 . S
C873 C874 1.390 . S
C874 C873 1.390 . S
C874 C875 1.394 1_554 S
C874 C880 1.465 1_554 S
C875 C870 1.399 1_556 S
C875 C874 1.394 1_556 S
C875 C876 1.516 . S
C876 C875 1.516 . S
C876 C877 1.502 . S
C876 C878 1.561 . S
C876 C879 1.526 . S
C877 H861 0.974 . S
C877 H862 0.959 . S
C877 H863 0.961 . S
C877 C876 1.502 . S
C878 H864 0.960 . S
C878 H865 0.961 . S
C878 H866 0.959 . S
C878 C876 1.561 . S
C879 C876 1.526 . S
C879 C880 1.396 . S
C879 C884 1.390 . S
C880 C874 1.465 1_556 S
C880 C879 1.396 . S
C880 C881 1.399 . S
C881 H867 0.929 1_556 S
C881 C880 1.399 . S
C881 C882 1.385 . S
C882 H868 0.931 . S
C882 C881 1.385 . S
C882 C883 1.389 . S
C883 C882 1.389 . S
C883 C884 1.387 . S
C884 H869 0.930 . S
C884 C879 1.390 . S
C884 C883 1.387 . S
H885 C897 0.930 . S
H886 C899 0.930 . S
H887 C900 0.930 . S
H888 C904 0.959 . S
H889 C904 0.959 . S
H890 C904 0.961 . S
H891 C905 0.960 . S
H892 C905 0.961 . S
H893 C905 0.959 1_556 S
H894 C908 0.929 . S
H895 C909 0.931 . S
H896 C911 0.930 . S
C897 H885 0.930 . S
C897 C898 1.399 . S
C897 C902 1.399 . S
C898 C897 1.399 . S
C898 C899 1.376 1_554 S
C899 H886 0.930 . S
C899 C898 1.376 1_556 S
C899 C900 1.388 . S
C900 H887 0.930 . S
C900 C899 1.388 . S
C900 C901 1.390 . S
C901 C900 1.390 . S
C901 C902 1.394 1_556 S
C901 C907 1.465 . S
C902 C897 1.399 . S
C902 C901 1.394 1_554 S
C902 C903 1.516 . S
C903 C902 1.516 . S
C903 C904 1.502 . S
C903 C905 1.561 . S
C903 C906 1.526 1_554 S
C904 H888 0.959 . S
C904 H889 0.959 . S
C904 H890 0.961 . S
C904 C903 1.502 . S
C905 H891 0.960 . S
C905 H892 0.961 . S
C905 H893 0.959 1_554 S
C905 C903 1.561 . S
C906 C903 1.526 1_556 S
C906 C907 1.396 . S
C906 C911 1.390 . S
C907 C901 1.465 . S
C907 C906 1.396 . S
C907 C908 1.399 . S
C908 H894 0.929 . S
C908 C907 1.399 . S
C908 C909 1.385 . S
C909 H895 0.931 . S
C909 C908 1.385 . S
C909 C910 1.389 . S
C910 C909 1.389 . S
C910 C911 1.387 . S
C911 H896 0.930 . S
C911 C906 1.390 . S
C911 C910 1.387 . S
H912 C924 0.930 1_655 S
H913 C926 0.930 . S
H914 C927 0.930 . S
H915 C931 0.959 . S
H916 C931 0.959 . S
H917 C931 0.961 . S
H918 C932 0.960 . S
H919 C932 0.961 . S
H920 C932 0.959 . S
H921 C935 0.929 . S
H922 C936 0.931 . S
H923 C938 0.930 . S
C924 H912 0.930 1_455 S
C924 C925 1.399 . S
C924 C929 1.399 . S
C925 C924 1.399 . S
C925 C926 1.376 . S
C926 H913 0.930 . S
C926 C925 1.376 . S
C926 C927 1.388 . S
C927 H914 0.930 . S
C927 C926 1.388 . S
C927 C928 1.390 . S
C928 C927 1.390 . S
C928 C929 1.394 . S
C928 C934 1.465 . S
C929 C924 1.399 . S
C929 C928 1.394 . S
C929 C930 1.516 . S
C930 C929 1.516 . S
C930 C931 1.502 1_455 S
C930 C932 1.561 . S
C930 C933 1.526 . S
C931 H915 0.959 . S
C931 H916 0.959 . S
C931 H917 0.961 . S
C931 C930 1.502 1_655 S
C932 H918 0.960 . S
C932 H919 0.961 . S
C932 H920 0.959 . S
C932 C930 1.561 . S
C933 C930 1.526 . S
C933 C934 1.396 . S
C933 C938 1.390 . S
C934 C928 1.465 . S
C934 C933 1.396 . S
C934 C935 1.399 . S
C935 H921 0.929 . S
C935 C934 1.399 . S
C935 C936 1.385 . S
C936 H922 0.931 . S
C936 C935 1.385 . S
C936 C937 1.389 . S
C937 C936 1.389 . S
C937 C938 1.387 . S
C938 H923 0.930 . S
C938 C933 1.390 . S
C938 C937 1.387 . S
H939 C951 0.930 . S
H940 C953 0.930 . S
H941 C954 0.930 . S
H942 C958 0.959 . S
H943 C958 0.959 . S
H944 C958 0.961 . S
H945 C959 0.960 . S
H946 C959 0.961 . S
H947 C959 0.959 . S
H948 C962 0.929 . S
H949 C963 0.931 . S
H950 C965 0.930 . S
C951 H939 0.930 . S
C951 C952 1.399 . S
C951 C956 1.399 . S
C952 C951 1.399 . S
C952 C953 1.376 1_545 S
C953 H940 0.930 . S
C953 C952 1.376 1_565 S
C953 C954 1.388 . S
C954 H941 0.930 . S
C954 C953 1.388 . S
C954 C955 1.390 1_565 S
C955 C954 1.390 1_545 S
C955 C956 1.394 . S
C955 C961 1.465 . S
C956 C951 1.399 . S
C956 C955 1.394 . S
C956 C957 1.516 . S
C957 C956 1.516 . S
C957 C958 1.502 . S
C957 C959 1.561 . S
C957 C960 1.526 . S
C958 H942 0.959 . S
C958 H943 0.959 . S
C958 H944 0.961 . S
C958 C957 1.502 . S
C959 H945 0.960 . S
C959 H946 0.961 . S
C959 H947 0.959 . S
C959 C957 1.561 . S
C960 C957 1.526 . S
C960 C961 1.396 . S
C960 C965 1.390 . S
C961 C955 1.465 . S
C961 C960 1.396 . S
C961 C962 1.399 1_545 S
C962 H948 0.929 . S
C962 C961 1.399 1_565 S
C962 C963 1.385 . S
C963 H949 0.931 . S
C963 C962 1.385 . S
C963 C964 1.389 1_565 S
C964 C963 1.389 1_545 S
C964 C965 1.387 . S
C965 H950 0.930 . S
C965 C960 1.390 . S
C965 C964 1.387 . S
H966 C978 0.930 . S
H967 C980 0.930 . S
H968 C981 0.930 . S
H969 C985 0.959 . S
H970 C985 0.959 . S
H971 C985 0.961 . S
H972 C986 0.960 . S
H973 C986 0.961 . S
H974 C986 0.959 . S
H975 C989 0.929 . S
H976 C990 0.931 . S
H977 C992 0.930 . S
C978 H966 0.930 . S
C978 C979 1.399 . S
C978 C983 1.399 . S
C979 C978 1.399 . S
C979 C980 1.376 . S
C980 H967 0.930 . S
C980 C979 1.376 . S
C980 C981 1.388 . S
C981 H968 0.930 . S
C981 C980 1.388 . S
C981 C982 1.390 . S
C982 C981 1.390 . S
C982 C983 1.394 . S
C982 C988 1.465 . S
C983 C978 1.399 . S
C983 C982 1.394 . S
C983 C984 1.516 . S
C984 C983 1.516 . S
C984 C985 1.502 . S
C984 C986 1.561 . S
C984 C987 1.526 . S
C985 H969 0.959 . S
C985 H970 0.959 . S
C985 H971 0.961 . S
C985 C984 1.502 . S
C986 H972 0.960 . S
C986 H973 0.961 . S
C986 H974 0.959 . S
C986 C984 1.561 . S
C987 C984 1.526 . S
C987 C988 1.396 . S
C987 C992 1.390 . S
C988 C982 1.465 . S
C988 C987 1.396 . S
C988 C989 1.399 . S
C989 H975 0.929 . S
C989 C988 1.399 . S
C989 C990 1.385 . S
C990 H976 0.931 . S
C990 C989 1.385 . S
C990 C991 1.389 . S
C991 C990 1.389 . S
C991 C992 1.387 . S
C992 H977 0.930 . S
C992 C987 1.390 . S
C992 C991 1.387 . S
H993 C1005 0.930 . S
H994 C1007 0.930 . S
H995 C1008 0.930 . S
H996 C1012 0.959 . S
H997 C1012 0.959 . S
H998 C1012 0.961 . S
H999 C1013 0.960 . S
H1000 C1013 0.961 . S
H1001 C1013 0.959 . S
H1002 C1016 0.929 . S
H1003 C1017 0.931 . S
H1004 C1019 0.930 . S
C1005 H993 0.930 . S
C1005 C1006 1.399 . S
C1005 C1010 1.399 . S
C1006 C1005 1.399 . S
C1006 C1007 1.376 . S
C1007 H994 0.930 . S
C1007 C1006 1.376 . S
C1007 C1008 1.388 . S
C1008 H995 0.930 . S
C1008 C1007 1.388 . S
C1008 C1009 1.390 . S
C1009 C1008 1.390 . S
C1009 C1010 1.394 . S
C1009 C1015 1.465 . S
C1010 C1005 1.399 . S
C1010 C1009 1.394 . S
C1010 C1011 1.516 . S
C1011 C1010 1.516 . S
C1011 C1012 1.502 . S
C1011 C1013 1.561 . S
C1011 C1014 1.526 . S
C1012 H996 0.959 . S
C1012 H997 0.959 . S
C1012 H998 0.961 . S
C1012 C1011 1.502 . S
C1013 H999 0.960 . S
C1013 H1000 0.961 . S
C1013 H1001 0.959 . S
C1013 C1011 1.561 . S
C1014 C1011 1.526 . S
C1014 C1015 1.396 . S
C1014 C1019 1.390 . S
C1015 C1009 1.465 . S
C1015 C1014 1.396 . S
C1015 C1016 1.399 . S
C1016 H1002 0.929 . S
C1016 C1015 1.399 . S
C1016 C1017 1.385 . S
C1017 H1003 0.931 . S
C1017 C1016 1.385 . S
C1017 C1018 1.389 . S
C1018 C1017 1.389 . S
C1018 C1019 1.387 . S
C1019 H1004 0.930 . S
C1019 C1014 1.390 . S
C1019 C1018 1.387 . S
H1020 C1032 0.930 . S
H1021 C1034 0.930 . S
H1022 C1035 0.930 . S
H1023 C1039 0.959 . S
H1024 C1039 0.959 . S
H1025 C1039 0.961 . S
H1026 C1040 0.960 . S
H1027 C1040 0.961 . S
H1028 C1040 0.959 . S
H1029 C1043 0.929 . S
H1030 C1044 0.931 . S
H1031 C1046 0.930 . S
C1032 H1020 0.930 . S
C1032 C1033 1.408 . S
C1032 C1037 1.399 . S
C1033 C1032 1.408 . S
C1033 C1034 1.366 1_655 S
C1034 H1021 0.930 . S
C1034 C1033 1.366 1_455 S
C1034 C1035 1.388 . S
C1035 H1022 0.930 . S
C1035 C1034 1.388 . S
C1035 C1036 1.390 . S
C1036 C1035 1.390 . S
C1036 C1037 1.394 1_455 S
C1036 C1042 1.466 . S
C1037 C1032 1.399 . S
C1037 C1036 1.394 1_655 S
C1037 C1038 1.516 . S
C1038 C1037 1.516 . S
C1038 C1039 1.502 . S
C1038 C1040 1.561 1_655 S
C1038 C1041 1.526 . S
C1039 H1023 0.959 . S
C1039 H1024 0.959 . S
C1039 H1025 0.961 . S
C1039 C1038 1.502 . S
C1040 H1026 0.960 . S
C1040 H1027 0.961 . S
C1040 H1028 0.959 . S
C1040 C1038 1.561 1_455 S
C1041 C1038 1.526 . S
C1041 C1042 1.393 1_655 S
C1041 C1046 1.390 . S
C1042 C1036 1.466 . S
C1042 C1041 1.393 1_455 S
C1042 C1043 1.401 . S
C1043 H1029 0.929 . S
C1043 C1042 1.401 . S
C1043 C1044 1.385 . S
C1044 H1030 0.931 . S
C1044 C1043 1.385 . S
C1044 C1045 1.389 1_455 S
C1045 C1044 1.389 1_655 S
C1045 C1046 1.387 . S
C1046 H1031 0.930 . S
C1046 C1041 1.390 . S
C1046 C1045 1.387 . S
H1047 C1059 0.930 . S
H1048 C1061 0.930 . S
H1049 C1062 0.930 . S
H1050 C1066 0.959 . S
H1051 C1066 0.959 . S
H1052 C1066 0.961 . S
H1053 C1067 0.960 . S
H1054 C1067 0.961 . S
H1055 C1067 0.959 . S
H1056 C1070 0.929 . S
H1057 C1071 0.931 . S
H1058 C1073 0.930 . S
C1059 H1047 0.930 . S
C1059 C1060 1.399 . S
C1059 C1064 1.399 . S
C1060 C1059 1.399 . S
C1060 C1061 1.376 1_565 S
C1061 H1048 0.930 . S
C1061 C1060 1.376 1_545 S
C1061 C1062 1.388 . S
C1062 H1049 0.930 . S
C1062 C1061 1.388 . S
C1062 C1063 1.390 . S
C1063 C1062 1.390 . S
C1063 C1064 1.394 1_545 S
C1063 C1069 1.465 . S
C1064 C1059 1.399 . S
C1064 C1063 1.394 1_565 S
C1064 C1065 1.516 . S
C1065 C1064 1.516 . S
C1065 C1066 1.502 . S
C1065 C1067 1.561 . S
C1065 C1068 1.526 . S
C1066 H1050 0.959 . S
C1066 H1051 0.959 . S
C1066 H1052 0.961 . S
C1066 C1065 1.502 . S
C1067 H1053 0.960 . S
C1067 H1054 0.961 . S
C1067 H1055 0.959 . S
C1067 C1065 1.561 . S
C1068 C1065 1.526 . S
C1068 C1069 1.396 1_565 S
C1068 C1073 1.390 . S
C1069 C1063 1.465 . S
C1069 C1068 1.396 1_545 S
C1069 C1070 1.399 . S
C1070 H1056 0.929 . S
C1070 C1069 1.399 . S
C1070 C1071 1.385 . S
C1071 H1057 0.931 . S
C1071 C1070 1.385 . S
C1071 C1072 1.389 1_545 S
C1072 C1071 1.389 1_565 S
C1072 C1073 1.387 . S
C1073 H1058 0.930 . S
C1073 C1068 1.390 . S
C1073 C1072 1.387 . S
H1074 C1086 0.930 . S
H1075 C1088 0.930 . S
H1076 C1089 0.930 . S
H1077 C1093 0.959 . S
H1078 C1093 0.959 . S
H1079 C1093 0.961 . S
H1080 C1094 0.960 . S
H1081 C1094 0.961 . S
H1082 C1094 0.959 . S
H1083 C1097 0.929 . S
H1084 C1098 0.931 . S
H1085 C1100 0.930 . S
C1086 H1074 0.930 . S
C1086 C1087 1.399 . S
C1086 C1091 1.399 . S
C1087 C1086 1.399 . S
C1087 C1088 1.376 . S
C1088 H1075 0.930 . S
C1088 C1087 1.376 . S
C1088 C1089 1.388 . S
C1089 H1076 0.930 . S
C1089 C1088 1.388 . S
C1089 C1090 1.390 . S
C1090 C1089 1.390 . S
C1090 C1091 1.394 . S
C1090 C1096 1.465 . S
C1091 C1086 1.399 . S
C1091 C1090 1.394 . S
C1091 C1092 1.516 . S
C1092 C1091 1.516 . S
C1092 C1093 1.502 . S
C1092 C1094 1.561 . S
C1092 C1095 1.526 . S
C1093 H1077 0.959 . S
C1093 H1078 0.959 . S
C1093 H1079 0.961 . S
C1093 C1092 1.502 . S
C1094 H1080 0.960 . S
C1094 H1081 0.961 . S
C1094 H1082 0.959 . S
C1094 C1092 1.561 . S
C1095 C1092 1.526 . S
C1095 C1096 1.396 . S
C1095 C1100 1.390 . S
C1096 C1090 1.465 . S
C1096 C1095 1.396 . S
C1096 C1097 1.399 . S
C1097 H1083 0.929 . S
C1097 C1096 1.399 . S
C1097 C1098 1.385 . S
C1098 H1084 0.931 . S
C1098 C1097 1.385 . S
C1098 C1099 1.389 . S
C1099 C1098 1.389 . S
C1099 C1100 1.387 . S
C1100 H1085 0.930 . S
C1100 C1095 1.390 . S
C1100 C1099 1.387 . S
H1101 C1113 0.930 . S
H1102 C1115 0.930 . S
H1103 C1116 0.930 . S
H1104 C1120 0.959 . S
H1105 C1120 0.959 . S
H1106 C1120 0.961 . S
H1107 C1121 0.960 . S
H1108 C1121 0.961 . S
H1109 C1121 0.959 . S
H1110 C1124 0.929 . S
H1111 C1125 0.931 . S
H1112 C1127 0.930 . S
C1113 H1101 0.930 . S
C1113 C1114 1.399 . S
C1113 C1118 1.399 . S
C1114 C1113 1.399 . S
C1114 C1115 1.376 . S
C1115 H1102 0.930 . S
C1115 C1114 1.376 . S
C1115 C1116 1.388 . S
C1116 H1103 0.930 . S
C1116 C1115 1.388 . S
C1116 C1117 1.390 . S
C1117 C1116 1.390 . S
C1117 C1118 1.394 . S
C1117 C1123 1.465 . S
C1118 C1113 1.399 . S
C1118 C1117 1.394 . S
C1118 C1119 1.516 . S
C1119 C1118 1.516 . S
C1119 C1120 1.502 . S
C1119 C1121 1.561 . S
C1119 C1122 1.526 . S
C1120 H1104 0.959 . S
C1120 H1105 0.959 . S
C1120 H1106 0.961 . S
C1120 C1119 1.502 . S
C1121 H1107 0.960 . S
C1121 H1108 0.961 . S
C1121 H1109 0.959 . S
C1121 C1119 1.561 . S
C1122 C1119 1.526 . S
C1122 C1123 1.396 . S
C1122 C1127 1.390 . S
C1123 C1117 1.465 . S
C1123 C1122 1.396 . S
C1123 C1124 1.399 . S
C1124 H1110 0.929 . S
C1124 C1123 1.399 . S
C1124 C1125 1.385 . S
C1125 H1111 0.931 . S
C1125 C1124 1.385 . S
C1125 C1126 1.389 . S
C1126 C1125 1.389 . S
C1126 C1127 1.387 . S
C1127 H1112 0.930 . S
C1127 C1122 1.390 . S
C1127 C1126 1.387 . S
C493 C255 2.213 . S
C505 C330 2.450 . S
C532 C370 2.426 . S
C520 C295 2.275 . S
C559 C410 2.415 . S
C547 C175 2.260 . S
C586 C450 2.427 1_455 S
C574 C215 2.196 . S
C613 C339 2.433 1_565 S
C601 C95 2.262 . S
C628 C135 2.271 . S
C640 C379 2.424 . S
C655 C15 2.224 . S
C667 C419 2.434 . S
C682 C55 2.254 . S
C694 C459 2.418 . S
C721 C336 0.549 . S
C709 C221 0.366 . S
C748 C376 0.589 . S
C736 C261 0.400 . S
C775 C416 0.488 . S
C763 C301 0.543 . S
C790 C181 0.564 . S
C802 C456 0.509 . S
C817 C61 0.520 1_655 S
C829 C327 0.529 . S
C856 C367 0.436 . S
C844 C101 0.666 . S
C883 C407 0.384 . S
C871 C141 0.624 . S
C898 C21 0.659 . S
C910 C447 0.436 . S
C925 C202 3.097 . S
C937 C331 3.500 . S
C952 C242 3.118 . S
C964 C371 3.491 . S
C991 C411 3.504 . S
C979 C282 3.102 . S
C1018 C451 3.497 . S
C1006 C162 3.141 . S
C1033 C42 3.115 1_655 S
C1045 C322 3.495 . S
C1072 C362 3.475 . S
C1060 C82 3.147 . S
C1099 C402 3.487 . S
C1087 C122 3.169 . S
C1114 C2 3.117 . S
C1126 C442 3.496 . S
