# Generated by pormake.
# Topology ctn, (3,4)-cn, num edge types: 1
# Building blocks:
#     Node 0, Type 0, BuildingBlock: WUSLED_clean_sbu_0, # of connection points: 3
#     Node 1, Type 0, BuildingBlock: WUSLED_clean_sbu_0, # of connection points: 3
#     Node 2, Type 0, BuildingBlock: WUSLED_clean_sbu_0, # of connection points: 3
#     Node 3, Type 0, BuildingBlock: WUSLED_clean_sbu_0, # of connection points: 3
#     Node 4, Type 0, BuildingBlock: WUSLED_clean_sbu_0, # of connection points: 3
#     Node 5, Type 0, BuildingBlock: WUSLED_clean_sbu_0, # of connection points: 3
#     Node 6, Type 0, BuildingBlock: WUSLED_clean_sbu_0, # of connection points: 3
#     Node 7, Type 0, BuildingBlock: WUSLED_clean_sbu_0, # of connection points: 3
#     Node 8, Type 0, BuildingBlock: WUSLED_clean_sbu_0, # of connection points: 3
#     Node 9, Type 0, BuildingBlock: WUSLED_clean_sbu_0, # of connection points: 3
#     Node 10, Type 0, BuildingBlock: WUSLED_clean_sbu_0, # of connection points: 3
#     Node 11, Type 0, BuildingBlock: WUSLED_clean_sbu_0, # of connection points: 3
#     Node 12, Type 0, BuildingBlock: WUSLED_clean_sbu_0, # of connection points: 3
#     Node 13, Type 0, BuildingBlock: WUSLED_clean_sbu_0, # of connection points: 3
#     Node 14, Type 0, BuildingBlock: WUSLED_clean_sbu_0, # of connection points: 3
#     Node 15, Type 0, BuildingBlock: WUSLED_clean_sbu_0, # of connection points: 3
#     Node 16, Type 1, BuildingBlock: KUFVIS_clean_sbu_0, # of connection points: 4
#     Node 17, Type 1, BuildingBlock: KUFVIS_clean_sbu_0, # of connection points: 4
#     Node 18, Type 1, BuildingBlock: KUFVIS_clean_sbu_0, # of connection points: 4
#     Node 19, Type 1, BuildingBlock: KUFVIS_clean_sbu_0, # of connection points: 4
#     Node 20, Type 1, BuildingBlock: KUFVIS_clean_sbu_0, # of connection points: 4
#     Node 21, Type 1, BuildingBlock: KUFVIS_clean_sbu_0, # of connection points: 4
#     Node 22, Type 1, BuildingBlock: KUFVIS_clean_sbu_0, # of connection points: 4
#     Node 23, Type 1, BuildingBlock: KUFVIS_clean_sbu_0, # of connection points: 4
#     Node 24, Type 1, BuildingBlock: KUFVIS_clean_sbu_0, # of connection points: 4
#     Node 25, Type 1, BuildingBlock: KUFVIS_clean_sbu_0, # of connection points: 4
#     Node 26, Type 1, BuildingBlock: KUFVIS_clean_sbu_0, # of connection points: 4
#     Node 27, Type 1, BuildingBlock: KUFVIS_clean_sbu_0, # of connection points: 4
#     Edge 28, Type (0, 1), BuildingBlock: EZIPEK_clean_linker_0, # of connection points: 2
#     Edge 29, Type (0, 1), BuildingBlock: EZIPEK_clean_linker_0, # of connection points: 2
#     Edge 30, Type (0, 1), BuildingBlock: EZIPEK_clean_linker_0, # of connection points: 2
#     Edge 31, Type (0, 1), BuildingBlock: EZIPEK_clean_linker_0, # of connection points: 2
#     Edge 32, Type (0, 1), BuildingBlock: EZIPEK_clean_linker_0, # of connection points: 2
#     Edge 33, Type (0, 1), BuildingBlock: EZIPEK_clean_linker_0, # of connection points: 2
#     Edge 34, Type (0, 1), BuildingBlock: EZIPEK_clean_linker_0, # of connection points: 2
#     Edge 35, Type (0, 1), BuildingBlock: EZIPEK_clean_linker_0, # of connection points: 2
#     Edge 36, Type (0, 1), BuildingBlock: EZIPEK_clean_linker_0, # of connection points: 2
#     Edge 37, Type (0, 1), BuildingBlock: EZIPEK_clean_linker_0, # of connection points: 2
#     Edge 38, Type (0, 1), BuildingBlock: EZIPEK_clean_linker_0, # of connection points: 2
#     Edge 39, Type (0, 1), BuildingBlock: EZIPEK_clean_linker_0, # of connection points: 2
#     Edge 40, Type (0, 1), BuildingBlock: EZIPEK_clean_linker_0, # of connection points: 2
#     Edge 41, Type (0, 1), BuildingBlock: EZIPEK_clean_linker_0, # of connection points: 2
#     Edge 42, Type (0, 1), BuildingBlock: EZIPEK_clean_linker_0, # of connection points: 2
#     Edge 43, Type (0, 1), BuildingBlock: EZIPEK_clean_linker_0, # of connection points: 2
#     Edge 44, Type (0, 1), BuildingBlock: EZIPEK_clean_linker_0, # of connection points: 2
#     Edge 45, Type (0, 1), BuildingBlock: EZIPEK_clean_linker_0, # of connection points: 2
#     Edge 46, Type (0, 1), BuildingBlock: EZIPEK_clean_linker_0, # of connection points: 2
#     Edge 47, Type (0, 1), BuildingBlock: EZIPEK_clean_linker_0, # of connection points: 2
#     Edge 48, Type (0, 1), BuildingBlock: EZIPEK_clean_linker_0, # of connection points: 2
#     Edge 49, Type (0, 1), BuildingBlock: EZIPEK_clean_linker_0, # of connection points: 2
#     Edge 50, Type (0, 1), BuildingBlock: EZIPEK_clean_linker_0, # of connection points: 2
#     Edge 51, Type (0, 1), BuildingBlock: EZIPEK_clean_linker_0, # of connection points: 2
#     Edge 52, Type (0, 1), BuildingBlock: EZIPEK_clean_linker_0, # of connection points: 2
#     Edge 53, Type (0, 1), BuildingBlock: EZIPEK_clean_linker_0, # of connection points: 2
#     Edge 54, Type (0, 1), BuildingBlock: EZIPEK_clean_linker_0, # of connection points: 2
#     Edge 55, Type (0, 1), BuildingBlock: EZIPEK_clean_linker_0, # of connection points: 2
#     Edge 56, Type (0, 1), BuildingBlock: EZIPEK_clean_linker_0, # of connection points: 2
#     Edge 57, Type (0, 1), BuildingBlock: EZIPEK_clean_linker_0, # of connection points: 2
#     Edge 58, Type (0, 1), BuildingBlock: EZIPEK_clean_linker_0, # of connection points: 2
#     Edge 59, Type (0, 1), BuildingBlock: EZIPEK_clean_linker_0, # of connection points: 2
#     Edge 60, Type (0, 1), BuildingBlock: EZIPEK_clean_linker_0, # of connection points: 2
#     Edge 61, Type (0, 1), BuildingBlock: EZIPEK_clean_linker_0, # of connection points: 2
#     Edge 62, Type (0, 1), BuildingBlock: EZIPEK_clean_linker_0, # of connection points: 2
#     Edge 63, Type (0, 1), BuildingBlock: EZIPEK_clean_linker_0, # of connection points: 2
#     Edge 64, Type (0, 1), BuildingBlock: EZIPEK_clean_linker_0, # of connection points: 2
#     Edge 65, Type (0, 1), BuildingBlock: EZIPEK_clean_linker_0, # of connection points: 2
#     Edge 66, Type (0, 1), BuildingBlock: EZIPEK_clean_linker_0, # of connection points: 2
#     Edge 67, Type (0, 1), BuildingBlock: EZIPEK_clean_linker_0, # of connection points: 2
#     Edge 68, Type (0, 1), BuildingBlock: EZIPEK_clean_linker_0, # of connection points: 2
#     Edge 69, Type (0, 1), BuildingBlock: EZIPEK_clean_linker_0, # of connection points: 2
#     Edge 70, Type (0, 1), BuildingBlock: EZIPEK_clean_linker_0, # of connection points: 2
#     Edge 71, Type (0, 1), BuildingBlock: EZIPEK_clean_linker_0, # of connection points: 2
#     Edge 72, Type (0, 1), BuildingBlock: EZIPEK_clean_linker_0, # of connection points: 2
#     Edge 73, Type (0, 1), BuildingBlock: EZIPEK_clean_linker_0, # of connection points: 2
#     Edge 74, Type (0, 1), BuildingBlock: EZIPEK_clean_linker_0, # of connection points: 2
#     Edge 75, Type (0, 1), BuildingBlock: EZIPEK_clean_linker_0, # of connection points: 2
# Relax obj value: 0.013
# Max RMSD: 0.064
# Mean RMSD: 0.032
data_MOF--net-ctn--node1-WUSLED_clean_sbu_0--node2-KUFVIS_clean_sbu_0--edge1-EZIPEK_clean_linker_0
_symmetry_space_group_name_H-M    P1
_symmetry_Int_Tables_number       1
_symmetry_cell_setting            triclinic
loop_
_symmetry_equiv_pos_as_xyz
'x, y, z'
_cell_length_a     55.117225
_cell_length_b     55.308429
_cell_length_c     55.576889
_cell_angle_alpha  91.302456
_cell_angle_beta   90.160934
_cell_angle_gamma 91.41682
loop_
_atom_site_label
_atom_site_type_symbol
_atom_site_fract_x
_atom_site_fract_y
_atom_site_fract_z
_atom_type_partial_charge
C0 C 1.01368 0.06205 0.11169 0.0
C1 C 0.02266 0.04255 0.12456 0.0
C2 C 0.98912 0.04552 0.15301 0.0
C3 C 1.01041 0.03431 0.1451 0.0
C4 C 0.98033 0.06501 0.14011 0.0
C5 C 0.99248 0.07317 0.11968 0.0
U6 U 0.06266 0.06191 0.06144 0.0
O7 O 0.05815 0.06978 0.02305 0.0
O8 O 0.08188 0.09325 0.0457 0.0
C9 C 0.07167 0.0897 0.02448 0.0
C10 C 0.02578 0.07131 0.08994 0.0
C11 C 0.06225 0.11136 1.01265 0.0
C12 C 0.02915 0.13499 0.99696 0.0
C13 C 0.03724 0.11518 1.0099 0.0
C14 C 0.07082 0.14766 0.98977 0.0
C15 C 0.04592 0.1512 0.98657 0.0
C16 C 0.07889 0.12795 1.0027 0.0
C17 C 0.11176 1.01212 0.06157 0.0
C18 C 0.14636 1.00764 0.03471 0.0
C19 C 0.13866 0.97822 0.06558 0.0
C20 C 0.11831 0.99093 0.07306 0.0
C21 C 0.15289 0.98642 0.04639 0.0
C22 C 0.12591 0.02047 0.0423 0.0
C23 C 0.09025 0.02495 0.07049 0.0
O24 O 0.04758 0.08108 0.09298 0.0
O25 O 0.02386 0.05763 0.07035 0.0
O26 O 0.07057 0.02317 0.0571 0.0
O27 O 0.0941 0.04676 0.07982 0.0
H28 H 0.03899 0.0337 0.11867 0.0
H29 H 1.0174 0.01914 0.15472 0.0
H30 H 0.96389 0.07381 0.1458 0.0
H31 H 0.98524 0.08819 0.11001 0.0
H32 H 1.00985 0.13743 0.99467 0.0
H33 H 0.02401 0.10268 0.01739 0.0
H34 H 0.08402 0.15997 0.98193 0.0
H35 H 0.09822 0.12538 1.00455 0.0
H36 H 0.15703 1.01419 0.01977 0.0
H37 H 0.14328 0.96185 0.07473 0.0
H38 H 0.10764 0.98417 0.08793 0.0
H39 H 0.12114 0.03681 0.03319 0.0
C40 C 0.30207 0.75533 0.17033 0.0
C41 C 0.32369 0.76875 0.16655 0.0
C42 C 0.30356 0.79239 0.13612 0.0
C43 C 0.32444 0.78715 0.14948 0.0
C44 C 0.28199 0.77912 0.14022 0.0
C45 C 0.28127 0.7608 0.15714 0.0
U46 U 0.32272 0.7178 0.22492 0.0
O47 O 0.29985 0.69958 0.25169 0.0
O48 O 0.32305 0.67807 0.22784 0.0
C49 C 0.30631 0.67783 0.24463 0.0
C50 C 0.3006 0.73498 0.18712 0.0
C51 C 0.28674 0.65919 0.24202 0.0
C52 C 0.24463 0.64684 0.23422 0.0
C53 C 0.26326 0.66463 0.23412 0.0
C54 C 0.27289 0.61794 0.24938 0.0
C55 C 0.24928 0.62348 0.24227 0.0
C56 C 0.29143 0.63563 0.24925 0.0
C57 C 0.37908 0.73812 0.26321 0.0
C58 C 0.40957 0.71569 0.28469 0.0
C59 C 0.40628 0.75845 0.29195 0.0
C60 C 0.3866 0.75896 0.27609 0.0
C61 C 0.42019 0.73742 0.29442 0.0
C62 C 0.38984 0.71615 0.26862 0.0
C63 C 0.3612 0.74032 0.24347 0.0
O64 O 0.31788 0.71905 0.18564 0.0
O65 O 0.29438 0.74028 0.20939 0.0
O66 O 0.33891 0.74555 0.24969 0.0
O67 O 0.36221 0.72436 0.22562 0.0
H68 H 0.33997 0.76481 0.17653 0.0
H69 H 0.34129 0.7971 0.1465 0.0
H70 H 0.26574 0.78277 0.13005 0.0
H71 H 0.26445 0.75064 0.1597 0.0
H72 H 0.22656 0.65139 0.22851 0.0
H73 H 0.25922 0.68269 0.22839 0.0
H74 H 0.27682 0.60003 0.25564 0.0
H75 H 0.30937 0.63106 0.25545 0.0
H76 H 0.41594 0.69811 0.28908 0.0
H77 H 0.41095 0.77509 0.30165 0.0
H78 H 0.37773 0.77595 0.27333 0.0
H79 H 0.38328 0.69939 0.26017 0.0
C80 C 0.98732 0.42859 1.00971 0.0
C81 C 1.00893 0.42927 0.9962 0.0
C82 C 1.0033 0.38671 0.9847 0.0
C83 C 1.01686 0.4085 0.98388 0.0
C84 C 0.98224 0.38573 0.99881 0.0
C85 C 0.9743 0.40645 1.01113 0.0
U86 U 0.98342 0.48162 0.05673 0.0
O87 O 0.97592 0.52007 0.05068 0.0
O88 O 0.95118 0.49821 0.07272 0.0
C89 C 0.95524 0.51908 0.0624 0.0
C90 C 0.97679 0.45106 0.02013 0.0
C91 C 0.93418 0.53074 0.0511 0.0
C92 C 0.89155 0.53046 0.03904 0.0
C93 C 0.91209 0.5181 0.04652 0.0
C94 C 0.91498 0.56806 0.03961 0.0
C95 C 0.8927 0.55565 0.03609 0.0
C96 C 0.9355 0.55573 0.04704 0.0
C97 C 0.03082 0.48334 0.10942 0.0
C98 C 0.03452 0.5118 0.14346 0.0
C99 C 0.06351 0.47985 0.13853 0.0
C100 C 0.05143 0.47165 0.11766 0.0
C101 C 0.05521 0.49997 0.15162 0.0
C102 C 0.02233 0.5035 0.12246 0.0
C103 C 0.01883 0.47375 0.08728 0.0
O104 O 0.96517 0.44914 0.04067 0.0
O105 O 0.98994 0.47117 0.01889 0.0
O106 O 0.02172 0.48645 0.06775 0.0
O107 O 0.99673 0.46463 0.08955 0.0
H108 H 0.01935 0.44599 0.99448 0.0
H109 H 0.03312 0.40964 0.97303 0.0
H110 H 0.97148 0.36911 0.99962 0.0
H111 H 0.95749 0.40533 0.02114 0.0
H112 H 0.8745 0.52056 0.03648 0.0
H113 H 0.91044 0.49884 0.04947 0.0
H114 H 0.91626 0.58748 0.03751 0.0
H115 H 0.95223 0.56593 0.05052 0.0
H116 H 0.02792 0.52745 0.15327 0.0
H117 H 0.07947 0.47057 0.14443 0.0
H118 H 0.05827 0.45609 0.10786 0.0
H119 H 1.00644 0.51277 0.11638 0.0
C120 C 0.71462 0.7776 0.16606 0.0
C121 C 0.73905 0.77793 0.15878 0.0
C122 C 0.72917 0.74949 0.12584 0.0
C123 C 0.74629 0.76392 0.13878 0.0
C124 C 0.70474 0.74969 0.13281 0.0
C125 C 0.69754 0.76363 0.15272 0.0
U126 U 0.71949 0.82815 0.21541 0.0
O127 O 0.6901 0.84854 0.23277 0.0
O128 O 0.71325 0.82559 0.25434 0.0
C129 C 0.6941 0.83929 0.25395 0.0
C130 C 0.70652 0.79055 0.18805 0.0
C131 C 0.67253 0.8307 0.26741 0.0
C132 C 0.64831 0.79866 0.28582 0.0
C133 C 0.66758 0.80596 0.27099 0.0
C134 C 0.63823 0.84058 0.29303 0.0
C135 C 0.63374 0.81596 0.29723 0.0
C136 C 0.65746 0.84786 0.27826 0.0
C137 C 0.77243 0.87568 0.21311 0.0
C138 C 0.77639 0.91452 0.23456 0.0
C139 C 0.81086 0.8982 0.21336 0.0
C140 C 0.79683 0.87789 0.20628 0.0
C141 C 0.80087 0.91669 0.22759 0.0
C142 C 0.76226 0.89408 0.22744 0.0
C143 C 0.75811 0.85439 0.2042 0.0
O144 O 0.7205 0.78912 0.20715 0.0
O145 O 0.69801 0.81228 0.18516 0.0
O146 O 0.73625 0.8584 0.19589 0.0
O147 O 0.75904 0.83491 0.21724 0.0
H148 H 0.75255 0.78862 0.1688 0.0
H149 H 0.76525 0.76392 0.1337 0.0
H150 H 0.6913 0.73865 0.12309 0.0
H151 H 0.67863 0.76311 0.15802 0.0
H152 H 0.64506 0.77957 0.28881 0.0
H153 H 0.67888 0.79234 0.26278 0.0
H154 H 0.62714 0.85417 0.3016 0.0
H155 H 0.66094 0.86701 0.27577 0.0
H156 H 0.76825 0.92869 0.24536 0.0
H157 H 0.82943 0.8997 0.20732 0.0
H158 H 0.80498 0.864 0.19511 0.0
H159 H 0.74343 0.89277 0.23288 0.0
C160 C 1.00718 0.98548 0.43309 0.0
C161 C 1.01769 1.00448 0.41996 0.0
C162 C 0.98419 1.00179 0.391 0.0
C163 C 1.00621 1.01265 0.3991 0.0
C164 C 0.97362 0.98313 0.40445 0.0
C165 C 0.98498 0.97509 0.42525 0.0
U166 U 0.05679 0.98405 0.48307 0.0
O167 O 0.05268 0.97451 0.52114 0.0
O168 O 0.0753 0.95239 0.49731 0.0
C169 C 0.06588 0.95511 0.51888 0.0
C170 C 0.01906 0.97553 0.45455 0.0
C171 C 0.05704 0.93285 0.53085 0.0
C172 C 0.02496 0.90753 0.54821 0.0
C173 C 0.03224 0.92778 0.53489 0.0
C174 C 0.06701 0.89704 0.55332 0.0
C175 C 0.04235 0.89222 0.55784 0.0
C176 C 0.07425 0.9171 0.53995 0.0
C177 C 0.10805 0.03455 0.48344 0.0
C178 C 0.14176 0.04158 0.51153 0.0
C179 C 0.13806 0.06657 0.47663 0.0
C180 C 0.11707 0.05361 0.46963 0.0
C181 C 0.15056 0.06103 0.49777 0.0
C182 C 0.12057 0.02847 0.50446 0.0
C183 C 0.08573 0.0216 0.47495 0.0
O184 O 0.04035 0.96586 0.4511 0.0
O185 O 0.01802 0.9885 0.47461 0.0
O186 O 0.06657 0.02264 0.48892 0.0
O187 O 0.08843 1.0002 0.46468 0.0
H188 H 0.03483 1.01277 0.42568 0.0
H189 H 1.01469 0.02709 0.38902 0.0
H190 H 0.95668 0.9745 0.39861 0.0
H191 H 0.97654 0.96045 0.43509 0.0
H192 H 1.00582 0.90406 0.55141 0.0
H193 H 0.01857 0.93962 0.52811 0.0
H194 H 0.0807 0.8854 0.56042 0.0
H195 H 0.09345 0.92062 0.53714 0.0
H196 H 0.15123 0.03665 0.52772 0.0
H197 H 0.14483 0.08069 0.46521 0.0
H198 H 0.10789 0.05845 0.45322 0.0
H199 H 0.11401 1.01367 0.5153 0.0
C200 C 0.2165 0.77184 0.8784 0.0
C201 C 0.23037 0.76147 0.89658 0.0
C202 C 0.23022 0.79945 0.91983 0.0
C203 C 0.23711 0.77519 0.91724 0.0
C204 C 0.21644 0.80962 0.90156 0.0
C205 C 0.20974 0.79601 0.88104 0.0
U206 U 0.21868 0.71944 0.83075 0.0
O207 O 0.18794 0.69926 0.81375 0.0
O208 O 0.21253 0.7212 0.79169 0.0
C209 C 0.19219 0.7083 0.79243 0.0
C210 C 0.20803 0.75797 0.85686 0.0
C211 C 0.17112 0.71764 0.77895 0.0
C212 C 0.12755 0.71772 0.77068 0.0
C213 C 0.14707 0.71135 0.7853 0.0
C214 C 0.15554 0.73737 0.74346 0.0
C215 C 0.1317 0.73044 0.74946 0.0
C216 C 0.17503 0.73098 0.75798 0.0
C217 C 0.26875 0.67124 0.83433 0.0
C218 C 0.28856 0.64732 0.80305 0.0
C219 C 0.29217 0.6362 0.84479 0.0
C220 C 0.27767 0.65557 0.85162 0.0
C221 C 0.29804 0.63214 0.82051 0.0
C222 C 0.274 0.66675 0.80989 0.0
C223 C 0.25568 0.69295 0.84262 0.0
O224 O 0.22226 0.75872 0.83796 0.0
O225 O 0.19838 0.73638 0.86043 0.0
O226 O 0.23367 0.68935 0.85109 0.0
O227 O 0.25769 0.7122 0.82925 0.0
H228 H 0.23573 0.7428 0.89492 0.0
H229 H 0.24754 0.76689 0.93123 0.0
H230 H 0.21044 0.82801 0.90339 0.0
H231 H 0.19892 0.8043 0.86732 0.0
H232 H 0.10928 0.71206 0.77551 0.0
H233 H 0.14334 0.70086 0.80114 0.0
H234 H 0.15911 0.74703 0.72704 0.0
H235 H 0.19327 0.73584 0.75233 0.0
H236 H 0.29288 0.64443 0.78421 0.0
H237 H 0.29927 0.62465 0.85849 0.0
H238 H 0.2739 0.6587 0.87054 0.0
H239 H 0.26733 0.67853 0.79618 0.0
C240 C 0.99163 0.60999 0.53262 0.0
C241 C 0.99188 0.63254 0.5213 0.0
C242 C 1.00728 0.65262 0.558 0.0
C243 C 0.99976 0.65364 0.53385 0.0
C244 C 1.00814 0.63 0.56884 0.0
C245 C 1.00028 0.60897 0.55638 0.0
U246 U 0.9859 0.55692 0.48517 0.0
O247 O 0.97483 0.519 0.4911 0.0
O248 O 0.9527 0.54141 0.46799 0.0
C249 C 0.95453 0.52061 0.47879 0.0
C250 C 0.98015 0.58792 0.52126 0.0
C251 C 0.93196 0.51024 0.48955 0.0
C252 C 0.91088 0.48777 0.52097 0.0
C253 C 0.93173 0.49998 0.51256 0.0
C254 C 0.88993 0.49631 0.48392 0.0
C255 C 0.88997 0.4854 0.50648 0.0
C256 C 0.91068 0.50853 0.47554 0.0
C257 C 0.03516 0.5529 0.43454 0.0
C258 C 0.03576 0.52705 0.39841 0.0
C259 C 0.06959 0.55463 0.40725 0.0
C260 C 0.05808 0.56236 0.42834 0.0
C261 C 0.05845 0.53716 0.39189 0.0
C262 C 0.02411 0.53497 0.41957 0.0
C263 C 0.02318 0.56306 0.45615 0.0
O264 O 0.96981 0.59007 0.50009 0.0
O265 O 0.99182 0.5676 0.52326 0.0
O266 O 0.02413 0.55046 0.47588 0.0
O267 O 1.00205 0.57303 0.45288 0.0
H268 H 0.98532 0.63405 0.50303 0.0
H269 H 0.99916 0.67088 0.52503 0.0
H270 H 1.01433 0.62866 0.5872 0.0
H271 H 1.00025 0.59194 0.56564 0.0
H272 H 0.91128 0.47955 0.53846 0.0
H273 H 0.9478 0.50085 0.52383 0.0
H274 H 0.87399 0.49477 0.47248 0.0
H275 H 0.91032 0.51607 0.45773 0.0
H276 H 0.02684 0.51353 0.38682 0.0
H277 H 0.08704 0.56266 0.40263 0.0
H278 H 0.06694 0.57619 0.43963 0.0
H279 H 1.0064 0.52743 0.42402 0.0
C280 C 0.81791 0.78235 0.88415 0.0
C281 C 0.83405 0.76313 0.88297 0.0
C282 C 0.81514 0.7458 0.91853 0.0
C283 C 0.83281 0.745 0.90027 0.0
C284 C 0.7994 0.7653 0.91973 0.0
C285 C 0.80086 0.78343 0.90276 0.0
U286 U 0.82685 0.82734 0.8285 0.0
O287 O 0.79384 0.84024 0.81122 0.0
O288 O 0.81691 0.8657 0.83343 0.0
C289 C 0.7971 0.86217 0.82045 0.0
C290 C 0.817 0.80107 0.86591 0.0
C291 C 0.77981 0.88142 0.81574 0.0
C292 C 0.73913 0.89339 0.80499 0.0
C293 C 0.756 0.87535 0.80832 0.0
C294 C 0.76965 0.92396 0.81613 0.0
C295 C 0.74588 0.91778 0.80881 0.0
C296 C 0.78648 0.90587 0.81975 0.0
C297 C 0.88386 0.81602 0.78289 0.0
C298 C 0.89979 0.79845 0.74575 0.0
C299 C 0.92592 0.82383 0.77134 0.0
C300 C 0.9067 0.82714 0.78742 0.0
C301 C 0.92262 0.80934 0.75047 0.0
C302 C 0.88058 0.80176 0.76179 0.0
C303 C 0.86326 0.82016 0.79944 0.0
O304 O 0.83196 0.81995 0.86709 0.0
O305 O 0.809 0.79535 0.84417 0.0
O306 O 0.84192 0.80937 0.79619 0.0
O307 O 0.86525 0.83416 0.81885 0.0
H308 H 0.84725 0.762 0.86862 0.0
H309 H 0.84516 0.73009 0.89912 0.0
H310 H 0.78571 0.76631 0.93364 0.0
H311 H 0.78823 0.79813 0.90388 0.0
H312 H 0.72088 0.8884 0.79914 0.0
H313 H 0.75032 0.85663 0.80534 0.0
H314 H 0.77514 0.94275 0.81896 0.0
H315 H 0.8047 0.91099 0.82559 0.0
H316 H 0.89696 0.78712 0.72978 0.0
H317 H 0.94347 0.83225 0.77533 0.0
H318 H 0.90975 0.83838 0.80341 0.0
H319 H 0.86315 0.79316 0.75765 0.0
C320 C 0.30659 0.28936 0.383 0.0
C321 C 0.32596 0.2733 0.38345 0.0
C322 C 0.30713 0.25211 0.41693 0.0
C323 C 0.32627 0.25481 0.40041 0.0
C324 C 0.28797 0.26833 0.41645 0.0
C325 C 0.28772 0.28675 0.39967 0.0
U326 U 0.32679 0.32556 0.32677 0.0
O327 O 0.30343 0.34189 0.29978 0.0
O328 O 0.32718 0.36519 0.32262 0.0
C329 C 0.30986 0.36414 0.3063 0.0
C330 C 0.30529 0.30903 0.36555 0.0
C331 C 0.29012 0.38166 0.30917 0.0
C332 C 0.24742 0.39104 0.31451 0.0
C333 C 0.26623 0.37439 0.31501 0.0
C334 C 0.27625 0.42259 0.30344 0.0
C335 C 0.25226 0.41515 0.30822 0.0
C336 C 0.29499 0.406 0.30393 0.0
C337 C 0.38161 0.30559 0.28756 0.0
C338 C 0.41471 0.32602 0.2663 0.0
C339 C 0.40279 0.2849 0.25497 0.0
C340 C 0.38466 0.28514 0.27253 0.0
C341 C 0.41829 0.30511 0.25205 0.0
C342 C 0.39653 0.32627 0.28397 0.0
C343 C 0.3645 0.3038 0.3081 0.0
O344 O 0.32301 0.32538 0.36622 0.0
O345 O 0.29854 0.30272 0.34355 0.0
O346 O 0.34194 0.29739 0.30286 0.0
O347 O 0.36626 0.32056 0.32523 0.0
H348 H 0.34071 0.27503 0.37072 0.0
H349 H 0.34125 0.24251 0.40052 0.0
H350 H 0.27308 0.26662 0.42905 0.0
H351 H 0.27265 0.29898 0.39965 0.0
H352 H 0.22898 0.38492 0.31805 0.0
H353 H 0.26197 0.35572 0.31914 0.0
H354 H 0.28031 0.44105 0.29838 0.0
H355 H 0.31322 0.41201 0.29932 0.0
H356 H 0.42658 0.34175 0.26438 0.0
H357 H 0.40532 0.26858 0.24421 0.0
H358 H 0.37354 0.26895 0.27494 0.0
H359 H 0.39469 0.34232 0.29528 0.0
C360 C 0.48563 0.93069 0.50877 0.0
C361 C 0.50752 0.93088 0.49569 0.0
C362 C 0.50117 0.8884 0.48413 0.0
C363 C 0.51524 0.90992 0.48357 0.0
C364 C 0.47982 0.88792 0.49783 0.0
C365 C 0.47211 0.90883 0.50996 0.0
U366 U 0.48192 0.98404 0.55552 0.0
O367 O 0.47478 0.02256 0.54937 0.0
O368 O 0.44966 1.00087 0.57118 0.0
C369 C 0.45406 0.02178 0.56102 0.0
C370 C 0.47536 0.9534 0.51897 0.0
C371 C 0.43321 0.03382 0.5498 0.0
C372 C 0.39137 0.03349 0.53524 0.0
C373 C 0.41184 0.02102 0.5428 0.0
C374 C 0.41353 0.07156 0.54066 0.0
C375 C 0.3919 0.05891 0.53464 0.0
C376 C 0.43395 0.05914 0.54816 0.0
C377 C 0.5284 0.98574 0.60886 0.0
C378 C 0.53648 1.0179 0.63876 0.0
C379 C 0.55675 0.9797 0.64169 0.0
C380 C 0.54459 0.97107 0.62101 0.0
C381 C 0.55292 1.00318 0.65068 0.0
C382 C 0.52426 1.00922 0.61793 0.0
C383 C 0.51687 0.97601 0.58654 0.0
O384 O 0.46347 0.95173 0.53937 0.0
O385 O 0.4888 0.97332 0.51779 0.0
O386 O 0.52007 0.98864 0.567 0.0
O387 O 0.49475 0.96688 0.58848 0.0
H388 H 0.51834 0.94738 0.49417 0.0
H389 H 0.53174 0.91068 0.47305 0.0
H390 H 0.46868 0.87153 0.49846 0.0
H391 H 0.45508 0.90809 0.51963 0.0
H392 H 0.37483 0.02338 0.53071 0.0
H393 H 0.41069 1.0015 0.54388 0.0
H394 H 0.41433 0.09114 0.54038 0.0
H395 H 0.45014 0.06943 0.55352 0.0
H396 H 0.53337 0.03611 0.64541 0.0
H397 H 0.56939 0.96812 0.65057 0.0
H398 H 0.54807 0.95294 0.6143 0.0
H399 H 0.51184 0.02084 0.6088 0.0
C400 C 0.21385 0.27796 0.66695 0.0
C401 C 0.23849 0.27684 0.6605 0.0
C402 C 0.22798 0.25043 0.62613 0.0
C403 C 0.2455 0.26314 0.64021 0.0
C404 C 0.20339 0.2521 0.63225 0.0
C405 C 0.1964 0.26576 0.65244 0.0
U406 U 0.2193 0.32754 0.71718 0.0
O407 O 0.19058 0.34817 0.73512 0.0
O408 O 0.2131 0.32419 0.75614 0.0
C409 C 0.19453 0.33866 0.75619 0.0
C410 C 0.20586 0.2905 0.68926 0.0
C411 C 0.1728 0.33052 0.76953 0.0
C412 C 0.13799 0.30336 0.77517 0.0
C413 C 0.15906 0.30995 0.76249 0.0
C414 C 0.14498 0.33697 0.80277 0.0
C415 C 0.1291 0.31801 0.79443 0.0
C416 C 0.166 0.34348 0.79019 0.0
C417 C 0.27253 0.37482 0.71472 0.0
C418 C 0.27672 0.41386 0.73576 0.0
C419 C 0.31111 0.39709 0.71478 0.0
C420 C 0.29695 0.37679 0.70791 0.0
C421 C 0.30121 0.41581 0.72877 0.0
C422 C 0.26247 0.39345 0.72884 0.0
C423 C 0.258 0.35363 0.70587 0.0
O424 O 0.21989 0.28861 0.70827 0.0
O425 O 0.1974 0.31233 0.68687 0.0
O426 O 0.23611 0.35783 0.69777 0.0
O427 O 0.25892 0.33405 0.71877 0.0
H428 H 0.25229 0.28614 0.67139 0.0
H429 H 0.26457 0.262 0.6358 0.0
H430 H 0.18963 0.24241 0.62162 0.0
H431 H 0.17734 0.26637 0.65706 0.0
H432 H 0.12949 0.28637 0.76981 0.0
H433 H 0.16475 0.29883 0.74732 0.0
H434 H 0.14162 0.34692 0.81931 0.0
H435 H 0.17707 0.35872 0.79675 0.0
H436 H 0.26866 0.4282 0.74639 0.0
H437 H 0.32972 0.3984 0.70879 0.0
H438 H 0.30502 0.36273 0.69688 0.0
H439 H 0.24362 0.39234 0.73424 0.0
C440 C 0.80275 0.25542 0.66903 0.0
C441 C 0.82481 0.26712 0.66308 0.0
C442 C 0.8037 0.29236 0.63475 0.0
C443 C 0.82528 0.28548 0.64599 0.0
C444 C 0.78171 0.28091 0.64107 0.0
C445 C 0.78125 0.26264 0.65804 0.0
U446 U 0.82485 0.21684 0.72217 0.0
O447 O 0.80281 0.19907 0.74988 0.0
O448 O 0.82412 0.17708 0.72471 0.0
C449 C 0.80813 0.17718 0.7422 0.0
C450 C 0.80144 0.23497 0.68567 0.0
C451 C 0.78777 0.15938 0.73997 0.0
C452 C 0.7451 0.14885 0.73284 0.0
C453 C 0.76441 0.16589 0.73264 0.0
C454 C 0.77243 0.11854 0.74693 0.0
C455 C 0.74895 0.12516 0.74038 0.0
C456 C 0.79164 0.13549 0.74671 0.0
C457 C 0.88331 0.23473 0.75791 0.0
C458 C 0.8947 0.22577 0.79915 0.0
C459 C 0.925 0.24114 0.77156 0.0
C460 C 0.90748 0.24168 0.75335 0.0
C461 C 0.91869 0.2336 0.7947 0.0
C462 C 0.8771 0.2263 0.78086 0.0
C463 C 0.86494 0.23796 0.73885 0.0
O464 O 0.81809 0.21849 0.68321 0.0
O465 O 0.79648 0.24031 0.70827 0.0
O466 O 0.84311 0.24395 0.74596 0.0
O467 O 0.86467 0.22196 0.72099 0.0
H468 H 0.84163 0.26183 0.67135 0.0
H469 H 0.84244 0.29404 0.64125 0.0
H470 H 0.7649 0.28587 0.63255 0.0
H471 H 0.76407 0.25382 0.66231 0.0
H472 H 0.72713 0.15423 0.72762 0.0
H473 H 0.761 0.18421 0.72727 0.0
H474 H 0.77573 0.10036 0.7528 0.0
H475 H 0.80949 0.13009 0.75241 0.0
H476 H 0.88949 0.21994 0.8169 0.0
H477 H 0.94336 0.24738 0.76782 0.0
H478 H 0.91268 0.24824 0.73583 0.0
H479 H 0.85858 0.22075 0.78481 0.0
C480 C 0.51289 0.56334 0.61228 0.0
C481 C 0.52329 0.54591 0.6269 0.0
C482 C 0.48817 0.54699 0.65355 0.0
C483 C 0.51096 0.53775 0.64743 0.0
C484 C 0.47791 0.56434 0.63885 0.0
C485 C 0.49014 0.5724 0.61843 0.0
U486 U 0.56194 0.56362 0.56197 0.0
O487 O 0.55716 0.57167 0.52367 0.0
O488 O 0.58079 0.59524 0.54633 0.0
C489 C 0.57032 0.59182 0.5252 0.0
C490 C 0.52514 0.57271 0.59066 0.0
C491 C 0.56031 0.61349 0.51382 0.0
C492 C 0.52683 0.63547 0.49652 0.0
C493 C 0.53532 0.61571 0.50926 0.0
C494 C 0.56798 0.65138 0.49322 0.0
C495 C 0.54316 0.65327 0.48812 0.0
C496 C 0.57645 0.63171 0.50597 0.0
C497 C 0.6109 0.51347 0.56147 0.0
C498 C 0.64776 0.51044 0.53749 0.0
C499 C 0.6354 0.47754 0.56312 0.0
C500 C 0.61509 0.49042 0.57038 0.0
C501 C 0.65198 0.4874 0.5467 0.0
C502 C 0.62735 0.52345 0.54488 0.0
C503 C 0.58958 0.52655 0.57051 0.0
O504 O 0.54697 0.58238 0.59379 0.0
O505 O 0.52316 0.55924 0.57094 0.0
O506 O 0.56975 0.52486 0.55732 0.0
O507 O 0.5936 0.54833 0.57985 0.0
H508 H 0.54083 0.53865 0.62244 0.0
H509 H 0.51911 0.52423 0.65847 0.0
H510 H 0.46032 0.57158 0.64315 0.0
H511 H 0.48179 0.58581 0.60738 0.0
H512 H 0.50761 0.6366 0.49271 0.0
H513 H 0.52243 0.60198 0.51508 0.0
H514 H 0.58085 0.66492 0.48692 0.0
H515 H 0.59576 0.63042 0.50922 0.0
H516 H 0.66027 0.51831 0.52469 0.0
H517 H 0.63821 0.45978 0.57034 0.0
H518 H 0.60264 0.48239 0.58316 0.0
H519 H 0.62446 0.54123 0.53778 0.0
C520 C 0.50813 0.48521 0.93214 0.0
C521 C 0.50744 0.51012 0.92749 0.0
C522 C 0.48468 0.50162 0.89038 0.0
C523 C 0.49585 0.51825 0.90671 0.0
C524 C 0.48582 0.4768 0.89485 0.0
C525 C 0.49744 0.4687 0.91548 0.0
U526 U 0.55525 0.48417 0.98446 0.0
O527 O 0.54891 0.47653 0.02282 0.0
O528 O 0.57179 0.45273 1.00097 0.0
C529 C 0.56114 0.45641 0.02184 0.0
C530 C 0.51866 0.47579 0.95456 0.0
C531 C 0.55022 0.43499 0.03384 0.0
C532 C 0.54137 0.39155 0.03512 0.0
C533 C 0.54822 0.41213 0.0222 0.0
C534 C 0.53743 0.41634 0.07128 0.0
C535 C 0.53651 0.39341 0.05992 0.0
C536 C 0.54422 0.43689 0.05838 0.0
C537 C 0.60803 0.53315 0.98483 0.0
C538 C 0.64151 0.53982 1.01323 0.0
C539 C 0.63832 0.56497 0.97838 0.0
C540 C 0.6173 0.55221 0.97117 0.0
C541 C 0.65058 0.55923 0.99958 0.0
C542 C 0.62029 0.5269 1.00594 0.0
C543 C 0.58578 0.52035 0.97601 0.0
O544 O 0.53959 0.46505 0.95252 0.0
O545 O 0.51719 0.4895 0.97412 0.0
O546 O 0.56606 0.52265 0.98901 0.0
O547 O 0.5883 0.4984 0.96697 0.0
H548 H 0.51558 0.52325 0.94002 0.0
H549 H 0.49527 0.53747 0.90352 0.0
H550 H 0.47749 0.46368 0.88241 0.0
H551 H 0.49774 0.44945 0.91863 0.0
H552 H 0.54083 0.37402 0.02602 0.0
H553 H 0.55276 0.40996 1.00334 0.0
H554 H 0.53383 0.41819 0.09038 0.0
H555 H 0.54574 0.4542 0.06785 0.0
H556 H 0.65082 0.53476 0.02948 0.0
H557 H 0.64532 0.57905 0.96706 0.0
H558 H 0.60831 0.55716 0.95469 0.0
H559 H 0.61352 0.5121 1.01667 0.0
C560 C 0.71556 0.2717 0.37831 0.0
C561 C 0.72906 0.26155 0.39689 0.0
C562 C 0.72872 0.29986 0.41956 0.0
C563 C 0.73552 0.27553 0.41745 0.0
C564 C 0.71531 0.30983 0.40091 0.0
C565 C 0.70887 0.29594 0.38048 0.0
U566 U 0.71959 0.21981 0.33026 0.0
O567 O 0.68951 0.19838 0.31337 0.0
O568 O 0.71295 0.2216 0.29133 0.0
C569 C 0.69326 0.20771 0.29211 0.0
C570 C 0.7074 0.25755 0.35681 0.0
C571 C 0.67159 0.21617 0.27919 0.0
C572 C 0.6496 0.24748 0.25866 0.0
C573 C 0.66905 0.24057 0.2731 0.0
C574 C 0.63441 0.20602 0.25699 0.0
C575 C 0.63235 0.23017 0.25021 0.0
C576 C 0.65387 0.19909 0.27131 0.0
C577 C 0.77226 0.17438 0.33277 0.0
C578 C 0.77535 0.13413 0.31439 0.0
C579 C 0.81148 0.15528 0.32949 0.0
C580 C 0.79745 0.1749 0.33659 0.0
C581 C 0.80057 0.1347 0.31843 0.0
C582 C 0.76127 0.15387 0.32147 0.0
C583 C 0.75812 0.19518 0.3415 0.0
O584 O 0.72127 0.25913 0.3377 0.0
O585 O 0.69888 0.2355 0.36034 0.0
O586 O 0.73632 0.19043 0.35003 0.0
O587 O 0.75907 0.21456 0.32825 0.0
H588 H 0.73437 0.24284 0.3956 0.0
H589 H 0.7457 0.26741 0.43173 0.0
H590 H 0.70944 0.3283 0.40234 0.0
H591 H 0.69834 0.30407 0.36645 0.0
H592 H 0.64836 0.26619 0.25354 0.0
H593 H 0.68239 0.25417 0.27896 0.0
H594 H 0.62134 0.19239 0.25057 0.0
H595 H 0.65544 0.18021 0.2757 0.0
H596 H 0.76662 0.11843 0.30578 0.0
H597 H 0.83089 0.15611 0.33266 0.0
H598 H 0.80629 0.19051 0.34528 0.0
H599 H 0.74187 0.15306 0.31826 0.0
C600 C 0.49178 0.10992 0.03553 0.0
C601 C 0.50151 0.10896 0.05889 0.0
C602 C 0.50697 0.15281 0.06085 0.0
C603 C 0.50915 0.13011 0.07132 0.0
C604 C 0.49834 0.1538 0.03706 0.0
C605 C 0.49069 0.13259 0.02455 0.0
U606 U 0.48649 0.05706 0.98774 0.0
O607 O 0.45352 0.04044 0.97129 0.0
O608 O 0.47702 0.01865 0.99364 0.0
C609 C 0.45671 0.01942 0.98127 0.0
C610 C 0.48064 0.08757 0.02426 0.0
C611 C 0.43503 1.00746 0.99185 0.0
C612 C 0.39857 1.00768 1.01666 0.0
C613 C 0.41978 0.01937 1.00827 0.0
C614 C 0.40787 0.97206 0.99262 0.0
C615 C 0.39222 0.98404 1.00854 0.0
C616 C 0.42904 0.98364 0.98441 0.0
C617 C 0.5348 0.05475 0.93608 0.0
C618 C 0.53461 0.03081 0.89866 0.0
C619 C 0.56958 0.05628 0.90919 0.0
C620 C 0.55823 0.0634 0.93058 0.0
C621 C 0.55779 0.04024 0.8928 0.0
C622 C 0.52312 0.03813 0.92011 0.0
C623 C 0.52292 0.06454 0.95795 0.0
O624 O 0.46966 0.08953 1.00338 0.0
O625 O 0.49297 0.0676 0.02579 0.0
O626 O 0.52478 0.05204 0.97767 0.0
O627 O 0.50138 0.07381 0.95518 0.0
H628 H 0.50254 0.09184 0.06789 0.0
H629 H 0.51624 0.1288 0.08938 0.0
H630 H 0.49671 0.17109 0.0285 0.0
H631 H 0.48327 0.13409 1.0066 0.0
H632 H 0.38679 1.01726 0.02896 0.0
H633 H 0.42405 0.03776 1.01428 0.0
H634 H 0.40342 0.95387 0.98613 0.0
H635 H 0.44054 0.97409 0.9718 0.0
H636 H 0.52518 0.01841 0.88628 0.0
H637 H 0.58741 0.06378 0.90511 0.0
H638 H 0.56757 0.07621 0.94263 0.0
H639 H 0.50503 0.03121 0.92399 0.0
Mn640 Mn 0.26984 0.88676 0.03364 0.0
Mn641 Mn 0.26688 0.91125 0.97858 0.0
C642 C 0.25246 0.8645 1.00128 0.0
C643 C 0.28851 0.86334 0.06272 0.0
C644 C 0.23426 0.92607 0.0203 0.0
O645 O 0.29522 0.91481 0.03586 0.0
O646 O 0.2939 0.92687 0.99733 0.0
C647 C 0.31369 0.89501 0.95872 0.0
N648 N 0.28905 0.8958 0.95719 0.0
C649 C 0.2889 0.87429 0.91909 0.0
C650 C 0.31428 0.87335 0.92019 0.0
C651 C 0.32671 0.88361 0.94017 0.0
C652 C 0.27689 0.88557 0.93828 0.0
H653 H 0.32335 0.90302 0.97396 0.0
C654 C 0.30324 0.92764 0.01848 0.0
O655 O 0.27258 0.87931 0.06848 0.0
O656 O 0.29514 0.86236 0.04033 0.0
N657 N 0.2419 0.89728 0.9583 0.0
C658 C 0.21741 0.89943 0.96013 0.0
C659 C 0.20227 0.88952 0.94191 0.0
C660 C 0.21248 0.87805 0.9217 0.0
C661 C 0.23777 0.87643 0.91997 0.0
C662 C 0.25193 0.88642 0.93882 0.0
H663 H 0.2095 0.90885 0.97523 0.0
O664 O 0.24714 0.85932 0.02332 0.0
O665 O 0.26741 0.88282 0.99893 0.0
O666 O 0.24193 0.91073 0.03511 0.0
O667 O 0.24278 0.9283 0.99907 0.0
C668 C 0.24951 0.86546 0.9002 0.0
C669 C 0.27504 0.86429 0.89981 0.0
H670 H 0.32438 0.86466 0.90586 0.0
H671 H 0.34628 0.88286 0.94121 0.0
H672 H 0.18278 0.89101 0.94331 0.0
H673 H 0.20073 0.87074 0.90754 0.0
H674 H 0.23909 0.8578 0.88522 0.0
H675 H 0.28382 0.85553 0.88467 0.0
Mn676 Mn 0.15406 0.51433 0.27058 0.0
Mn677 Mn 0.12951 0.56974 0.26898 0.0
C678 C 0.17602 0.54703 0.25454 0.0
C679 C 0.17779 0.48457 0.2877 0.0
C680 C 0.11397 0.52798 0.23532 0.0
O681 O 0.12685 0.5122 0.29589 0.0
O682 O 0.11392 0.55065 0.29485 0.0
C683 C 0.14609 0.58933 0.31644 0.0
N684 N 0.14534 0.59097 0.29203 0.0
C685 C 0.16832 0.62852 0.29355 0.0
C686 C 0.16919 0.62733 0.31871 0.0
C687 C 0.15814 0.60757 0.33019 0.0
C688 C 0.1562 0.60973 0.28078 0.0
H689 H 0.13757 0.57423 0.32538 0.0
C690 C 0.1137 0.52949 0.30382 0.0
O691 O 0.16089 0.47921 0.27209 0.0
O692 O 0.17973 0.50704 0.29492 0.0
N693 N 0.14362 0.59022 0.24519 0.0
C694 C 0.14142 0.58855 0.22079 0.0
C695 C 0.15225 0.60646 0.20657 0.0
C696 C 0.16482 0.62616 0.2176 0.0
C697 C 0.1663 0.62783 0.24277 0.0
C698 C 0.15529 0.60934 0.25599 0.0
H699 H 0.13143 0.57372 0.21223 0.0
O700 O 0.18089 0.52493 0.24825 0.0
O701 O 0.15798 0.54921 0.26934 0.0
O702 O 0.12913 0.51299 0.24306 0.0
O703 O 0.11213 0.54946 0.24399 0.0
C704 C 0.17825 0.64714 0.25525 0.0
C705 C 0.17929 0.64747 0.28062 0.0
H706 H 0.17847 0.64137 0.32937 0.0
H707 H 0.15885 0.60644 0.34959 0.0
H708 H 0.15083 0.60513 0.18716 0.0
H709 H 0.17316 0.63994 0.20657 0.0
H710 H 0.18675 0.6618 0.24553 0.0
H711 H 0.18876 0.66228 0.29 0.0
Mn712 Mn 0.77436 0.6396 0.024 0.0
Mn713 Mn 0.72728 0.66687 0.99752 0.0
C714 C 0.73599 0.62028 0.02241 0.0
C715 C 0.80847 0.61518 0.02305 0.0
C716 C 0.74821 0.68287 0.04609 0.0
O717 O 0.79094 0.6654 1.00338 0.0
O718 O 0.75833 0.67867 0.98313 0.0
C719 C 0.73018 0.64727 0.94761 0.0
N720 N 0.71758 0.65014 0.96846 0.0
C721 C 0.68184 0.63121 0.95073 0.0
C722 C 0.69457 0.62773 0.92917 0.0
C723 C 0.71888 0.63572 0.92765 0.0
C724 C 0.69424 0.6423 0.97019 0.0
H725 H 0.74858 0.65394 0.94619 0.0
C726 C 0.78125 0.67809 0.98714 0.0
O727 O 0.80554 0.63167 0.03963 0.0
O728 O 0.79187 0.61313 1.00642 0.0
N729 N 0.69636 0.65673 1.0098 0.0
C730 C 0.68661 0.66142 0.03188 0.0
C731 C 0.66238 0.65457 0.03638 0.0
C732 C 0.64829 0.6434 0.01801 0.0
C733 C 0.65862 0.63902 0.99535 0.0
C734 C 0.68295 0.64596 0.99202 0.0
H735 H 0.69719 0.67035 0.04599 0.0
O736 O 0.752 0.61433 0.03827 0.0
O737 O 0.7429 0.6375 1.00826 0.0
O738 O 0.76311 0.66576 0.04791 0.0
O739 O 0.73492 0.68556 0.02755 0.0
C740 C 0.64564 0.62831 0.97587 0.0
C741 C 0.65725 0.6244 0.95357 0.0
H742 H 0.6858 0.6191 0.91364 0.0
H743 H 0.7288 0.63329 0.91102 0.0
H744 H 0.65455 0.65803 0.05391 0.0
H745 H 0.62956 0.63824 0.0215 0.0
H746 H 0.62675 0.62287 0.97786 0.0
H747 H 0.64711 0.616 0.93875 0.0
Mn748 Mn 0.88957 0.02922 0.27023 0.0
Mn749 Mn 0.9137 0.97372 0.26497 0.0
C750 C 0.86745 0.99727 0.25149 0.0
C751 C 0.8661 0.05872 0.28927 0.0
C752 C 0.92975 1.01613 0.23434 0.0
O753 O 0.91658 0.03045 0.29609 0.0
O754 O 0.92939 0.99206 0.29223 0.0
C755 C 0.89665 0.95341 0.31097 0.0
N756 N 0.89769 0.95213 0.28648 0.0
C757 C 0.87537 0.9142 0.2854 0.0
C758 C 0.87419 0.91503 0.31061 0.0
C759 C 0.88473 0.93481 0.32343 0.0
C760 C 0.88718 0.93343 0.27396 0.0
H761 H 0.90485 0.96849 0.32093 0.0
C762 C 0.92965 1.0129 0.30281 0.0
O763 O 0.88302 0.06433 0.27411 0.0
O764 O 0.86384 0.03608 0.29479 0.0
N765 N 0.89969 0.95374 0.23975 0.0
C766 C 0.90226 0.95573 0.21551 0.0
C767 C 0.8921 0.93777 0.20005 0.0
C768 C 0.88 0.91758 0.20969 0.0
C769 C 0.87805 0.91562 0.23472 0.0
C770 C 0.88829 0.93425 0.24922 0.0
H771 H 0.91226 0.9707 0.20802 0.0
O772 O 0.86286 0.0196 0.24687 0.0
O773 O 0.88528 0.99439 0.26641 0.0
O774 O 0.91475 0.03108 0.24309 0.0
O775 O 0.93128 0.9944 0.24145 0.0
C776 C 0.86653 0.89581 0.24588 0.0
C777 C 0.86511 0.89515 0.27119 0.0
H778 H 0.8651 0.90066 0.32028 0.0
H779 H 0.88379 0.93564 0.34287 0.0
H780 H 0.8939 0.93931 0.18076 0.0
H781 H 0.87251 0.90361 0.19769 0.0
H782 H 0.85865 0.881 0.23517 0.0
H783 H 0.85593 0.87997 0.27953 0.0
Mn784 Mn 0.27368 0.14288 0.522 0.0
Mn785 Mn 0.22596 0.16972 0.49617 0.0
C786 C 0.2355 0.12302 0.52041 0.0
C787 C 0.308 0.11867 0.52079 0.0
C788 C 0.24667 0.1853 0.54496 0.0
O789 O 0.28987 0.16917 0.50146 0.0
O790 O 0.25675 0.18261 0.48221 0.0
C791 C 0.22996 0.15079 0.44611 0.0
N792 N 0.21693 0.15332 0.46674 0.0
C793 C 0.1819 0.13369 0.44839 0.0
C794 C 0.19502 0.13067 0.427 0.0
C795 C 0.21921 0.13917 0.4259 0.0
C796 C 0.19377 0.14491 0.4681 0.0
H797 H 0.24834 0.15771 0.44508 0.0
C798 C 0.27974 0.18224 0.48576 0.0
O799 O 0.305 0.13501 0.53751 0.0
O800 O 0.29144 0.11673 0.50412 0.0
N801 N 0.19514 0.15869 0.50795 0.0
C802 C 0.18502 0.16289 0.52995 0.0
C803 C 0.16086 0.1555 0.53404 0.0
C804 C 0.14722 0.1443 0.51535 0.0
C805 C 0.15793 0.14044 0.49279 0.0
C806 C 0.18215 0.14796 0.48984 0.0
H807 H 0.19526 0.17182 0.54431 0.0
O808 O 0.25168 0.11718 0.53613 0.0
O809 O 0.24211 0.14046 0.5064 0.0
O810 O 0.26218 0.16865 0.54625 0.0
O811 O 0.23301 0.18788 0.52666 0.0
C812 C 0.14543 0.1297 0.47302 0.0
C813 C 0.15744 0.12622 0.45085 0.0
H814 H 0.18668 0.12196 0.41129 0.0
H815 H 0.22945 0.13701 0.40944 0.0
H816 H 0.15274 0.15857 0.55151 0.0
H817 H 0.12855 0.13871 0.51854 0.0
H818 H 0.12663 0.12382 0.47471 0.0
H819 H 0.1477 0.11769 0.43585 0.0
Mn820 Mn 0.38878 0.52908 0.77111 0.0
Mn821 Mn 0.41421 0.4742 0.76538 0.0
C822 C 0.36735 0.49685 0.75222 0.0
C823 C 0.36485 0.55764 0.79083 0.0
C824 C 0.42895 0.5171 0.73478 0.0
O825 O 0.41571 0.53076 0.79688 0.0
O826 O 0.42993 0.49294 0.79243 0.0
C827 C 0.39822 0.45375 0.81169 0.0
N828 N 0.39889 0.45241 0.78719 0.0
C829 C 0.3767 0.4144 0.78656 0.0
C830 C 0.37589 0.41531 0.81178 0.0
C831 C 0.38657 0.43515 0.82438 0.0
C832 C 0.38826 0.43364 0.77488 0.0
H833 H 0.4065 0.46887 0.8215 0.0
C834 C 0.42948 0.51364 0.80323 0.0
O835 O 0.38136 0.56396 0.7755 0.0
O836 O 0.36317 0.53487 0.79595 0.0
N837 N 0.40029 0.45379 0.74043 0.0
C838 C 0.40297 0.45538 0.71616 0.0
C839 C 0.39275 0.43728 0.70091 0.0
C840 C 0.38058 0.41727 0.71079 0.0
C841 C 0.37878 0.41553 0.73585 0.0
C842 C 0.38905 0.43433 0.75013 0.0
H843 H 0.41324 0.47007 0.70853 0.0
O844 O 0.36224 0.51909 0.74776 0.0
O845 O 0.38533 0.49423 0.76706 0.0
O846 O 0.41385 0.53174 0.74391 0.0
O847 O 0.43089 0.49529 0.74158 0.0
C848 C 0.36745 0.39577 0.74724 0.0
C849 C 0.36633 0.39524 0.77256 0.0
H850 H 0.367 0.40094 0.82163 0.0
H851 H 0.38593 0.43605 0.84384 0.0
H852 H 0.3946 0.43856 0.6816 0.0
H853 H 0.37303 0.40318 0.69895 0.0
H854 H 0.35953 0.38085 0.7367 0.0
H855 H 0.35733 0.38007 0.7811 0.0
Mn856 Mn 0.76874 0.38705 0.53303 0.0
Mn857 Mn 0.7655 0.41233 0.4783 0.0
C858 C 0.75077 0.36547 0.50063 0.0
C859 C 0.78736 0.36307 0.56161 0.0
C860 C 0.73314 0.42676 0.52037 0.0
O861 O 0.79475 0.41436 0.53527 0.0
O862 O 0.79239 0.42802 0.49733 0.0
C863 C 0.81259 0.3965 0.4587 0.0
N864 N 0.78795 0.39714 0.45697 0.0
C865 C 0.78823 0.37517 0.41913 0.0
C866 C 0.8136 0.3744 0.42043 0.0
C867 C 0.82582 0.38498 0.44039 0.0
C868 C 0.77599 0.3866 0.43809 0.0
H869 H 0.82211 0.40471 0.47392 0.0
C870 C 0.80221 0.42789 0.51823 0.0
O871 O 0.77176 0.37924 0.56775 0.0
O872 O 0.79358 0.36206 0.53911 0.0
N873 N 0.74078 0.3984 0.45764 0.0
C874 C 0.71631 0.40093 0.45891 0.0
C875 C 0.70136 0.39079 0.44066 0.0
C876 C 0.71179 0.37882 0.42085 0.0
C877 C 0.73709 0.37711 0.41949 0.0
C878 C 0.75103 0.38732 0.43841 0.0
H879 H 0.70828 0.41099 0.47349 0.0
O880 O 0.74543 0.36021 0.52265 0.0
O881 O 0.76597 0.38361 0.49831 0.0
O882 O 0.74132 0.4116 0.53511 0.0
O883 O 0.7411 0.42888 0.4989 0.0
C884 C 0.74905 0.36593 0.39998 0.0
C885 C 0.77458 0.36487 0.39985 0.0
H886 H 0.82387 0.3656 0.40629 0.0
H887 H 0.84539 0.38436 0.44159 0.0
H888 H 0.68188 0.39253 0.44167 0.0
H889 H 0.7002 0.37133 0.40664 0.0
H890 H 0.73879 0.35806 0.38498 0.0
H891 H 0.78354 0.35598 0.38488 0.0
Mn892 Mn 0.6513 0.01881 0.76954 0.0
Mn893 Mn 0.62705 0.07414 0.76773 0.0
C894 C 0.67337 0.05121 0.75322 0.0
C895 C 0.67481 0.9894 0.78693 0.0
C896 C 0.6113 0.0322 0.73433 0.0
O897 O 0.62414 1.01693 0.79497 0.0
O898 O 0.61177 0.05555 0.79418 0.0
C899 C 0.64467 0.09421 0.81464 0.0
N900 N 0.64341 0.09557 0.79022 0.0
C901 C 0.66742 0.1325 0.79077 0.0
C902 C 0.66878 0.13161 0.81594 0.0
C903 C 0.65746 0.11231 0.8279 0.0
C904 C 0.6545 0.11389 0.77851 0.0
H905 H 0.63605 0.07939 0.82395 0.0
C906 C 0.6114 0.0344 0.80319 0.0
O907 O 0.65812 0.98378 0.77117 0.0
O908 O 0.67676 1.0119 0.79399 0.0
N909 N 0.64099 0.09405 0.74341 0.0
C910 C 0.63863 0.09185 0.71904 0.0
C911 C 0.64961 0.1093 0.70437 0.0
C912 C 0.66268 0.12894 0.7149 0.0
C913 C 0.66452 0.13105 0.74003 0.0
C914 C 0.65318 0.11312 0.75373 0.0
H915 H 0.62859 0.07682 0.71082 0.0
O916 O 0.67806 0.02908 0.74702 0.0
O917 O 0.65539 0.05358 0.76807 0.0
O918 O 0.6265 1.01728 0.74207 0.0
O919 O 0.60922 0.05359 0.74319 0.0
C920 C 0.67723 0.15019 0.75201 0.0
C921 C 0.67872 0.1509 0.77736 0.0
H922 H 0.67868 0.14551 0.82622 0.0
H923 H 0.6586 0.11139 0.8473 0.0
H924 H 0.64806 0.10755 0.68499 0.0
H925 H 0.67124 0.14229 0.70352 0.0
H926 H 0.68604 0.16442 0.74191 0.0
H927 H 0.68883 0.16554 0.78635 0.0
Mn928 Mn 0.02815 0.266 0.88684 0.0
Mn929 Mn 0.97337 0.26195 0.91405 0.0
C930 C 0.99485 0.24789 0.86669 0.0
C931 C 0.05638 0.28555 0.86202 0.0
C932 C 1.01595 0.23097 0.92736 0.0
O933 O 0.03087 0.2921 0.91367 0.0
O934 O 0.99256 0.2898 0.92833 0.0
C935 C 0.95154 0.30758 0.89883 0.0
N936 N 0.95099 0.28296 0.89927 0.0
C937 C 0.91304 0.28083 0.87772 0.0
C938 C 0.91323 0.30615 0.87701 0.0
C939 C 0.93261 0.31958 0.88756 0.0
C940 C 0.93244 0.26987 0.88914 0.0
H941 H 0.96624 0.31799 0.9071 0.0
C942 C 1.01388 0.29962 0.92745 0.0
O943 O 0.06311 0.26987 0.87753 0.0
O944 O 0.0336 0.29078 0.86168 0.0
N945 N 0.95325 0.23606 0.90111 0.0
C946 C 0.95589 0.21175 0.9031 0.0
C947 C 0.93827 0.19575 0.89303 0.0
C948 C 0.91802 0.2049 0.88121 0.0
C949 C 0.9155 0.22998 0.87973 0.0
C950 C 0.93364 0.24505 0.89011 0.0
H951 H 0.97141 0.20456 0.91214 0.0
O952 O 1.01684 0.24254 0.86063 0.0
O953 O 0.99318 0.26278 0.88495 0.0
O954 O 0.03056 0.23896 0.91147 0.0
O955 O 0.99457 0.23888 0.93029 0.0
C956 C 0.8957 0.24062 0.86832 0.0
C957 C 0.89447 0.26602 0.8673 0.0
H958 H 0.89868 0.31547 0.8683 0.0
H959 H 0.93291 0.33913 0.88707 0.0
H960 H 0.94035 0.17642 0.89429 0.0
H961 H 0.90453 0.1925 0.87335 0.0
H962 H 0.88134 0.22944 0.86024 0.0
H963 H 0.87926 0.27398 0.8583 0.0
Mn964 Mn 0.52893 0.76691 0.38789 0.0
Mn965 Mn 0.47232 0.76329 0.41098 0.0
C966 C 0.49724 0.74846 0.3657 0.0
C967 C 0.55895 0.78562 0.36451 0.0
C968 C 0.51364 0.73246 0.42795 0.0
O969 O 0.52979 0.79347 0.41429 0.0
O970 O 0.49059 0.79119 0.42648 0.0
C971 C 0.45251 0.8089 0.3932 0.0
N972 N 0.45166 0.7843 0.39389 0.0
C973 C 0.4172 0.7821 0.36715 0.0
C974 C 0.41783 0.80741 0.36603 0.0
C975 C 0.43555 0.82086 0.37914 0.0
C976 C 0.43459 0.77119 0.38145 0.0
H977 H 0.46602 0.81932 0.40327 0.0
C978 C 0.51196 0.80103 0.42691 0.0
O979 O 0.5644 0.77053 0.38111 0.0
O980 O 0.53631 0.79108 0.36253 0.0
N981 N 0.45312 0.73741 0.3967 0.0
C982 C 0.45494 0.71313 0.39971 0.0
C983 C 0.43843 0.69714 0.38792 0.0
C984 C 0.4202 0.70625 0.37319 0.0
C985 C 0.41844 0.73131 0.37067 0.0
C986 C 0.43526 0.74638 0.38306 0.0
H987 H 0.46898 0.70597 0.41088 0.0
O988 O 0.51959 0.74288 0.36154 0.0
O989 O 0.49427 0.76363 0.38351 0.0
O990 O 0.52941 0.74045 0.41317 0.0
O991 O 0.49202 0.74021 0.42914 0.0
C992 C 0.40072 0.74191 0.35627 0.0
C993 C 0.4001 0.76729 0.35453 0.0
H994 H 0.40482 0.81669 0.35516 0.0
H995 H 0.43614 0.8404 0.3784 0.0
H996 H 0.43988 0.67782 0.39001 0.0
H997 H 0.40764 0.69384 0.36393 0.0
H998 H 0.38756 0.73071 0.34636 0.0
H999 H 0.38643 0.77522 0.34334 0.0
Mn1000 Mn 0.02944 0.77412 0.6416 0.0
Mn1001 Mn 1.0043 0.72409 0.66649 0.0
C1002 C 0.02812 0.73715 0.62001 0.0
C1003 C 0.02713 0.80931 0.61892 0.0
C1004 C 0.05382 0.74538 0.68114 0.0
O1005 O 1.00935 0.78808 0.66959 0.0
O1006 O 0.99144 0.75348 0.68219 0.0
C1007 C 0.95368 0.73029 0.65024 0.0
N1008 N 0.97384 0.71658 0.65125 0.0
C1009 C 0.95346 0.68343 0.63023 0.0
C1010 C 0.93244 0.69713 0.62905 0.0
C1011 C 0.93262 0.72074 0.63895 0.0
C1012 C 0.97405 0.6941 0.64126 0.0
H1013 H 0.95369 0.74838 0.65799 0.0
C1014 C 0.99443 0.77648 0.68301 0.0
O1015 O 0.04438 0.80637 0.6344 0.0
O1016 O 1.01043 0.79234 0.61739 0.0
N1017 N 1.01462 0.69397 0.65295 0.0
C1018 C 0.03612 0.68287 0.65623 0.0
C1019 C 0.03905 0.65921 0.64728 0.0
C1020 C 0.01956 0.64686 0.63576 0.0
C1021 C 0.99733 0.65835 0.63322 0.0
C1022 C 0.99559 0.68204 0.64233 0.0
H1023 H 0.05071 0.69179 0.66608 0.0
O1024 O 0.04354 0.75422 0.61444 0.0
O1025 O 1.01406 0.74224 0.63806 0.0
O1026 O 0.05452 0.7621 0.66571 0.0
O1027 O 0.03597 0.73032 0.68315 0.0
C1028 C 0.97671 0.64706 0.62241 0.0
C1029 C 0.95483 0.65964 0.62079 0.0
H1030 H 0.9161 0.68976 0.62051 0.0
H1031 H 0.9165 0.73147 0.63803 0.0
H1032 H 0.05613 0.65033 0.64969 0.0
H1033 H 0.02177 0.62842 0.62937 0.0
H1034 H 0.97746 0.62872 0.61527 0.0
H1035 H 0.93918 0.65087 0.61221 0.0
Mn1036 Mn 0.52799 0.27486 0.14417 0.0
Mn1037 Mn 0.50474 0.2244 0.16972 0.0
C1038 C 0.52744 0.23772 0.12275 0.0
C1039 C 0.52534 0.30992 0.12132 0.0
C1040 C 0.5536 0.24755 0.18384 0.0
O1041 O 0.5073 0.28832 0.17212 0.0
O1042 O 0.49024 0.25334 0.18491 0.0
C1043 C 0.45362 0.22729 0.15383 0.0
N1044 N 0.47465 0.21492 0.15475 0.0
C1045 C 0.45601 0.18017 0.13477 0.0
C1046 C 0.4341 0.19248 0.1337 0.0
C1047 C 0.43296 0.21621 0.14311 0.0
C1048 C 0.47609 0.19229 0.1453 0.0
H1049 H 0.4526 0.24545 0.16126 0.0
C1050 C 0.49248 0.27643 0.18547 0.0
O1051 O 0.54227 0.30733 0.13718 0.0
O1052 O 0.50892 0.29268 0.11951 0.0
N1053 N 0.51681 0.19484 0.15647 0.0
C1054 C 0.53928 0.18548 0.15893 0.0
C1055 C 0.54368 0.16211 0.14985 0.0
C1056 C 0.52475 0.14834 0.13896 0.0
C1057 C 0.50159 0.15812 0.13716 0.0
C1058 C 0.49839 0.18162 0.14626 0.0
H1059 H 0.55365 0.19562 0.168 0.0
O1060 O 0.54247 0.2551 0.11707 0.0
O1061 O 0.51343 0.24258 0.14091 0.0
O1062 O 0.55369 0.26383 0.16803 0.0
O1063 O 0.53604 0.23231 0.18649 0.0
C1064 C 0.48149 0.14537 0.12693 0.0
C1065 C 0.45875 0.15642 0.12565 0.0
H1066 H 0.4181 0.18394 0.12557 0.0
H1067 H 0.41616 0.22587 0.14227 0.0
H1068 H 0.56153 0.15461 0.15154 0.0
H1069 H 0.52815 0.13021 0.13227 0.0
H1070 H 0.48331 0.12707 0.11997 0.0
H1071 H 0.44352 0.14654 0.11749 0.0
C1072 C 0.26073 0.82168 0.94696 0.0
C1073 C 0.23637 0.8142 0.942 0.0
C1074 C 0.22244 0.83905 0.97628 0.0
C1075 C 0.24681 0.84663 0.98126 0.0
N1076 N 0.28945 0.83887 0.97611 0.0
N1077 N 0.19493 0.81076 0.95535 0.0
C1078 C 0.26607 0.83604 0.96803 0.0
C1079 C 0.21747 0.82147 0.95767 0.0
N1080 N 0.2787 0.81581 0.93112 0.0
N1081 N 0.20389 0.84903 0.98897 0.0
H1082 H 0.19076 0.79743 0.9423 0.0
H1083 H 0.18097 0.81329 0.96766 0.0
H1084 H 0.20679 0.86046 1.00382 0.0
H1085 H 0.18571 0.84711 0.98399 0.0
H1086 H 0.29642 0.82267 0.9325 0.0
H1087 H 0.27552 0.80568 0.91533 0.0
H1088 H 0.30397 0.82968 0.96862 0.0
H1089 H 0.29414 0.84848 0.99185 0.0
C1090 C 0.09302 0.51886 0.36874 0.0
C1091 C 0.07044 0.53066 0.36855 0.0
C1092 C 0.07359 0.53412 0.32468 0.0
C1093 C 0.09792 0.52615 0.32546 0.0
N1094 N 0.13211 0.51446 0.34966 0.0
N1095 N 0.04051 0.5524 0.34646 0.0
C1096 C 0.10793 0.51908 0.34781 0.0
C1097 C 0.06089 0.53879 0.3465 0.0
N1098 N 0.10025 0.5075 0.38902 0.0
N1099 N 0.06253 0.53727 0.30299 0.0
H1100 H 0.03072 0.55655 0.36196 0.0
H1101 H 0.03446 0.56133 0.33136 0.0
H1102 H 0.07134 0.53445 0.28667 0.0
H1103 H 0.04408 0.54047 0.30118 0.0
H1104 H 0.1154 0.49663 0.38957 0.0
H1105 H 0.0897 0.507 0.40458 0.0
H1106 H 0.14081 0.51195 0.36604 0.0
H1107 H 0.14407 0.51539 0.33524 0.0
C1108 C 0.80302 0.70296 0.92885 0.0
C1109 C 0.8122 0.72616 0.93631 0.0
C1110 C 0.80659 0.71543 0.97865 0.0
C1111 C 0.79699 0.69254 0.97097 0.0
N1112 N 0.79494 0.66147 0.94012 0.0
N1113 N 0.82878 0.75214 0.96797 0.0
C1114 C 0.7982 0.68532 0.94646 0.0
C1115 C 0.81602 0.7316 0.96118 0.0
N1116 N 0.79721 0.69822 0.90526 0.0
N1117 N 0.80585 0.72201 1.00246 0.0
H1118 H 0.83616 0.76408 0.95551 0.0
H1119 H 0.83391 0.75625 0.98566 0.0
H1120 H 0.8005 0.70996 1.01572 0.0
H1121 H 0.8096 0.73952 1.00894 0.0
H1122 H 0.78787 0.68253 0.89948 0.0
H1123 H 0.7998 0.71075 0.89173 0.0
H1124 H 0.79758 0.65473 0.92269 0.0
H1125 H 0.79204 0.6482 0.95295 0.0
C1126 C 0.98227 1.00246 0.34545 0.0
C1127 C 0.97221 1.00909 0.36808 0.0
C1128 C 0.93473 0.021 0.34779 0.0
C1129 C 0.94517 1.01539 0.32499 0.0
N1130 N 0.98099 1.00607 0.30211 0.0
N1131 N 0.94156 0.03036 0.3902 0.0
C1132 C 0.96968 1.00792 0.32389 0.0
C1133 C 0.94934 0.02033 0.36899 0.0
N1134 N 1.00311 0.98959 0.34449 0.0
N1135 N 0.91044 0.02507 0.3496 0.0
H1136 H 0.95185 0.03017 0.40599 0.0
H1137 H 0.92617 0.04086 0.39154 0.0
H1138 H 0.89873 0.02474 0.33487 0.0
H1139 H 0.90142 0.02651 0.366 0.0
H1140 H 1.00968 0.98168 0.3287 0.0
H1141 H 1.01289 0.98505 0.35975 0.0
H1142 H 0.99952 1.00329 0.30025 0.0
H1143 H 0.97226 1.00955 0.28597 0.0
C1144 C 0.23648 0.20896 0.60939 0.0
C1145 C 0.23517 0.23417 0.60571 0.0
C1146 C 0.24518 0.22765 0.563 0.0
C1147 C 0.24365 0.20217 0.5661 0.0
N1148 N 0.23382 0.16861 0.59174 0.0
N1149 N 0.236 0.26769 0.57881 0.0
C1150 C 0.23843 0.19282 0.58921 0.0
C1151 C 0.239 0.24359 0.58245 0.0
N1152 N 0.23611 0.20042 0.63228 0.0
N1153 N 0.25333 0.23666 0.54171 0.0
H1154 H 0.23222 0.27998 0.59274 0.0
H1155 H 0.23563 0.27526 0.56183 0.0
H1156 H 0.25795 0.22568 0.52704 0.0
H1157 H 0.25749 0.25489 0.5392 0.0
H1158 H 0.23975 0.18257 0.63635 0.0
H1159 H 0.23435 0.21164 0.64749 0.0
H1160 H 0.22706 0.16115 0.60747 0.0
H1161 H 0.23457 0.15612 0.57751 0.0
C1162 C 0.48055 0.54656 0.6985 0.0
C1163 C 0.47429 0.5382 0.67485 0.0
C1164 C 0.43687 0.51948 0.69031 0.0
C1165 C 0.44421 0.52547 0.71422 0.0
N1166 N 0.47292 0.54481 0.74154 0.0
N1167 N 0.44876 0.51304 0.64882 0.0
C1168 C 0.46611 0.53901 0.71845 0.0
C1169 C 0.45313 0.52353 0.67097 0.0
N1170 N 0.49964 0.56257 0.70173 0.0
N1171 N 0.41371 0.51128 0.6859 0.0
H1172 H 0.46035 0.51542 0.63421 0.0
H1173 H 0.43494 0.50017 0.64558 0.0
H1174 H 0.40113 0.50932 0.69965 0.0
H1175 H 0.40636 0.50893 0.6687 0.0
H1176 H 0.50374 0.57142 0.71801 0.0
H1177 H 0.51069 0.56827 0.68764 0.0
H1178 H 0.48998 0.55187 0.74633 0.0
H1179 H 0.46152 0.5418 0.75614 0.0
C1180 C 0.79951 0.30272 0.59128 0.0
C1181 C 0.80378 0.31064 0.61538 0.0
C1182 C 0.80371 0.35281 0.60242 0.0
C1183 C 0.79543 0.34492 0.57924 0.0
N1184 N 0.78148 0.31177 0.553 0.0
N1185 N 0.80798 0.34334 0.64462 0.0
C1186 C 0.79256 0.3197 0.57387 0.0
C1187 C 0.80555 0.33575 0.62115 0.0
N1188 N 0.8021 0.27889 0.58501 0.0
N1189 N 0.81037 0.37654 0.60636 0.0
H1190 H 0.80976 0.33141 0.65875 0.0
H1191 H 0.80648 0.36133 0.65025 0.0
H1192 H 0.80992 0.38932 0.59286 0.0
H1193 H 0.81864 0.38299 0.6222 0.0
H1194 H 0.80167 0.27248 0.56723 0.0
H1195 H 0.80714 0.26596 0.59734 0.0
H1196 H 0.77653 0.29372 0.54959 0.0
H1197 H 0.77487 0.32323 0.54005 0.0
C1198 C 0.55684 1.01083 0.69552 0.0
C1199 C 0.56703 1.01228 0.67213 0.0
C1200 C 0.60658 0.02417 0.68973 0.0
C1201 C 0.59607 0.02462 0.71305 0.0
N1202 N 0.56154 1.01813 0.73862 0.0
N1203 N 0.6003 0.02389 0.64651 0.0
C1204 C 0.5712 1.01803 0.71603 0.0
C1205 C 0.59153 0.02003 0.66914 0.0
N1206 N 0.53376 1.00163 0.6981 0.0
N1207 N 0.63115 0.02673 0.68731 0.0
H1208 H 0.58987 0.02087 0.63099 0.0
H1209 H 0.61713 0.03206 0.64316 0.0
H1210 H 0.64273 0.02925 0.70199 0.0
H1211 H 0.64029 0.024 0.67115 0.0
H1212 H 0.52587 0.99766 0.71457 0.0
H1213 H 0.52264 0.99674 0.68348 0.0
H1214 H 0.54307 1.01651 0.74224 0.0
H1215 H 0.57229 0.02033 0.75397 0.0
C1216 C 0.95004 0.21637 0.82248 0.0
C1217 C 0.93682 0.23645 0.81462 0.0
C1218 C 0.9627 0.26388 0.83931 0.0
C1219 C 0.97453 0.24369 0.84911 0.0
N1220 N 0.97877 0.20052 0.85104 0.0
N1221 N 0.92747 0.27866 0.81864 0.0
C1222 C 0.96805 0.21985 0.84089 0.0
C1223 C 0.94221 0.25998 0.82405 0.0
N1224 N 0.94589 0.19416 0.81177 0.0
N1225 N 0.97182 0.28684 0.84337 0.0
H1226 H 0.91217 0.27653 0.80764 0.0
H1227 H 0.92899 0.29574 0.82685 0.0
H1228 H 0.98725 0.29084 0.85364 0.0
H1229 H 0.96554 0.30189 0.83456 0.0
H1230 H 0.95659 0.17925 0.8146 0.0
H1231 H 0.93246 0.19094 0.79875 0.0
H1232 H 0.97322 0.18262 0.84783 0.0
H1233 H 0.99214 0.20242 0.86429 0.0
C1234 C 0.50323 0.86676 0.44377 0.0
C1235 C 0.50767 0.86683 0.46898 0.0
C1236 C 0.51938 0.82418 0.46598 0.0
C1237 C 0.51477 0.82422 0.44087 0.0
N1238 N 0.50873 0.84676 0.4049 0.0
N1239 N 0.52435 0.84744 0.50345 0.0
C1240 C 0.50887 0.84598 0.42948 0.0
C1241 C 0.51714 0.84605 0.4799 0.0
N1242 N 0.49229 0.88602 0.43365 0.0
N1243 N 0.52548 0.80308 0.47647 0.0
H1244 H 0.52294 0.86319 0.51401 0.0
H1245 H 0.53334 0.83375 0.51208 0.0
H1246 H 0.52922 0.7875 0.46636 0.0
H1247 H 0.5262 0.80075 0.49498 0.0
H1248 H 0.4859 0.88585 0.416 0.0
H1249 H 0.48778 0.90159 0.44339 0.0
H1250 H 0.50698 0.86266 0.39543 0.0
H1251 H 0.51256 0.83179 0.39393 0.0
C1252 C 0.09138 0.29082 0.80338 0.0
C1253 C 0.10524 0.31246 0.80763 0.0
C1254 C 0.08194 0.31928 0.84481 0.0
C1255 C 0.07322 0.29496 0.84344 0.0
N1256 N 0.06928 0.25727 0.82069 0.0
N1257 N 0.09764 0.35293 0.82211 0.0
C1258 C 0.07791 0.28059 0.82256 0.0
C1259 C 0.09606 0.3286 0.82554 0.0
N1260 N 0.0869 0.2829 0.78036 0.0
N1261 N 0.07726 0.33334 0.8647 0.0
H1262 H 0.10438 0.36 0.80612 0.0
H1263 H 0.08937 0.3656 0.83334 0.0
H1264 H 0.06671 0.32721 0.879 0.0
H1265 H 0.08539 0.35036 0.86769 0.0
H1266 H 0.07521 0.26832 0.77608 0.0
H1267 H 0.09148 0.29358 0.76571 0.0
H1268 H 0.07424 0.24556 0.80667 0.0
H1269 H 0.05867 0.24919 0.83393 0.0
C1270 C 0.53257 0.66966 0.4476 0.0
C1271 C 0.53457 0.67333 0.47291 0.0
C1272 C 0.52062 0.71504 0.46908 0.0
C1273 C 0.52036 0.71199 0.44358 0.0
N1274 N 0.52677 0.68678 0.40822 0.0
N1275 N 0.53275 0.69969 0.50787 0.0
C1276 C 0.52657 0.68939 0.43277 0.0
C1277 C 0.52913 0.69607 0.48369 0.0
N1278 N 0.53587 0.64704 0.43783 0.0
N1279 N 0.51253 0.73602 0.47939 0.0
H1280 H 0.538 0.68597 0.51923 0.0
H1281 H 0.53205 0.7165 0.51659 0.0
H1282 H 0.5072 0.75072 0.46945 0.0
H1283 H 0.50958 0.73847 0.49775 0.0
H1284 H 0.53201 0.64219 0.42001 0.0
H1285 H 0.54111 0.63239 0.44794 0.0
H1286 H 0.5342 0.67217 0.39901 0.0
H1287 H 0.52035 0.69981 0.39672 0.0
C1288 C 0.94508 0.81511 0.7115 0.0
C1289 C 0.94341 0.80411 0.73428 0.0
C1290 C 0.97994 0.78129 0.72533 0.0
C1291 C 0.9795 0.78942 0.70124 0.0
N1292 N 0.96007 0.81248 0.67056 0.0
N1293 N 0.95766 0.77481 0.76219 0.0
C1294 C 0.96188 0.80624 0.69415 0.0
C1295 C 0.96059 0.78689 0.74114 0.0
N1296 N 0.93064 0.83412 0.70654 0.0
N1297 N 0.99898 0.76812 0.73311 0.0
H1298 H 0.94381 0.77836 0.77441 0.0
H1299 H 0.96778 0.75991 0.76671 0.0
H1300 H 1.01314 0.76299 0.72189 0.0
H1301 H 1.00184 0.76407 0.75109 0.0
H1302 H 0.93262 0.84452 0.69126 0.0
H1303 H 0.91802 0.84083 0.71879 0.0
H1304 H 0.94577 0.82226 0.66379 0.0
H1305 H 0.97191 0.80647 0.65726 0.0
C1306 C 0.03089 0.87482 0.59799 0.0
C1307 C 0.03513 0.87116 0.57296 0.0
C1308 C 0.02994 0.82708 0.57747 0.0
C1309 C 0.02759 0.83062 0.60282 0.0
N1310 N 0.02537 0.85738 0.6375 0.0
N1311 N 0.03917 0.84441 0.53855 0.0
C1312 C 0.02781 0.85441 0.61312 0.0
C1313 C 0.03449 0.84743 0.56259 0.0
N1314 N 0.02967 0.89792 0.60718 0.0
N1315 N 0.02819 0.80419 0.56763 0.0
H1316 H 0.04124 0.85888 0.52695 0.0
H1317 H 0.04201 0.8278 0.53003 0.0
H1318 H 0.02704 0.78863 0.5778 0.0
H1319 H 0.02679 0.80035 0.54927 0.0
H1320 H 0.02448 0.90229 0.62468 0.0
H1321 H 0.03266 0.9132 0.59684 0.0
H1322 H 0.02824 0.87369 0.64685 0.0
H1323 H 0.02096 0.84314 0.6488 0.0
C1324 C 0.09562 0.75424 0.73607 0.0
C1325 C 0.1115 0.73466 0.73223 0.0
C1326 C 0.09223 0.72533 0.69318 0.0
C1327 C 0.07486 0.74325 0.69784 0.0
N1328 N 0.06098 0.77675 0.72203 0.0
N1329 N 0.12268 0.69923 0.70912 0.0
C1330 C 0.07684 0.75833 0.71887 0.0
C1331 C 0.10918 0.71958 0.71132 0.0
N1332 N 0.09883 0.76899 0.75598 0.0
N1333 N 0.09345 0.71479 0.67079 0.0
H1334 H 0.13537 0.69432 0.72197 0.0
H1335 H 0.11981 0.68608 0.69564 0.0
H1336 H 0.08204 0.71963 0.65686 0.0
H1337 H 0.10723 0.70338 0.66532 0.0
H1338 H 0.08875 0.7842 0.75986 0.0
H1339 H 0.11231 0.76631 0.76879 0.0
H1340 H 0.0598 0.78756 0.73749 0.0
H1341 H 0.04864 0.78142 0.70877 0.0
C1342 C 0.03722 0.68005 0.58073 0.0
C1343 C 1.01313 0.67523 0.57247 0.0
C1344 C 1.00021 0.71319 0.59188 0.0
C1345 C 0.02335 0.71613 0.60308 0.0
N1346 N 0.06423 0.70259 0.60807 0.0
N1347 N 0.97092 0.68588 0.57226 0.0
C1348 C 0.04202 0.69972 0.59729 0.0
C1349 C 0.99444 0.69154 0.57847 0.0
N1350 N 0.05568 0.66634 0.57199 0.0
N1351 N 0.98398 0.73147 0.59332 0.0
H1352 H 0.9657 0.66993 0.56311 0.0
H1353 H 0.95619 0.69584 0.5781 0.0
H1354 H 0.98763 0.74785 0.60242 0.0
H1355 H 0.96784 0.73147 0.58355 0.0
H1356 H 0.07396 0.67029 0.57527 0.0
H1357 H 0.05286 0.65207 0.55962 0.0
H1358 H 0.07755 0.68958 0.60741 0.0
H1359 H 0.06889 0.71756 0.61892 0.0
C1360 C 0.8238 0.95454 0.21588 0.0
C1361 C 0.81607 0.93864 0.23419 0.0
C1362 C 0.83809 0.96413 0.26422 0.0
C1363 C 0.84912 0.97757 0.24543 0.0
N1364 N 0.85186 0.986 0.20311 0.0
N1365 N 0.81703 0.92716 0.27577 0.0
C1366 C 0.84162 0.97301 0.2212 0.0
C1367 C 0.8234 0.94322 0.2584 0.0
N1368 N 0.81326 0.95261 0.19358 0.0
N1369 N 0.84076 0.97191 0.28763 0.0
H1370 H 0.80662 0.91149 0.27223 0.0
H1371 H 0.82374 0.9282 0.29329 0.0
H1372 H 0.8505 0.98759 0.29269 0.0
H1373 H 0.8313 0.9643 0.30188 0.0
H1374 H 0.8161 0.96513 0.18011 0.0
H1375 H 0.79979 0.93967 0.18917 0.0
H1376 H 0.85011 0.98123 0.18495 0.0
H1377 H 0.86319 1.00099 0.20632 0.0
C1378 C 0.82594 0.09896 0.32865 0.0
C1379 C 0.81586 0.11394 0.31094 0.0
C1380 C 0.83532 0.08972 0.27929 0.0
C1381 C 0.84809 0.07696 0.29708 0.0
N1382 N 0.85758 0.0712 0.33889 0.0
N1383 N 0.81366 0.12579 0.2695 0.0
C1384 C 0.84382 0.08191 0.32186 0.0
C1385 C 0.82125 0.10989 0.28627 0.0
N1386 N 0.81802 0.10071 0.35189 0.0
N1387 N 0.83573 0.08194 0.25576 0.0
H1388 H 0.8032 0.14073 0.2738 0.0
H1389 H 0.81947 0.12534 0.25168 0.0
H1390 H 0.84501 0.06671 0.24992 0.0
H1391 H 0.82477 0.08899 0.24247 0.0
H1392 H 0.82276 0.08866 0.36514 0.0
H1393 H 0.80493 0.11293 0.35746 0.0
H1394 H 0.85717 0.07602 0.3571 0.0
H1395 H 0.87097 0.05887 0.33458 0.0
C1396 C 0.36893 0.95045 0.02905 0.0
C1397 C 0.36873 0.97189 1.01548 0.0
C1398 C 0.32439 0.9677 1.01216 0.0
C1399 C 0.32512 0.94407 0.0217 0.0
N1400 N 0.34944 0.91169 0.0366 0.0
N1401 N 0.34619 0.9993 0.99123 0.0
C1402 C 0.34769 0.93519 0.02984 0.0
C1403 C 0.34639 0.98027 1.00651 0.0
N1404 N 0.38947 0.94469 0.04123 0.0
N1405 N 0.30256 0.97818 1.00844 0.0
H1406 H 0.36182 1.00882 0.98613 0.0
H1407 H 0.33075 1.00427 0.98189 0.0
H1408 H 0.28608 0.96951 1.01225 0.0
H1409 H 0.30091 0.99623 1.00388 0.0
H1410 H 0.39007 0.93058 0.05332 0.0
H1411 H 0.40524 0.95553 0.04107 0.0
H1412 H 0.36597 0.9036 0.03987 0.0
H1413 H 0.33476 0.89952 0.037 0.0
C1414 C 0.22149 0.44538 0.32287 0.0
C1415 C 0.23211 0.43199 0.30369 0.0
C1416 C 0.209 0.45478 0.27451 0.0
C1417 C 0.19652 0.46659 0.29363 0.0
N1418 N 0.18851 0.47082 0.33611 0.0
N1419 N 0.23241 0.42044 0.26159 0.0
C1420 C 0.20216 0.46131 0.3179 0.0
C1421 C 0.22469 0.43559 0.27963 0.0
N1422 N 0.23026 0.44328 0.34572 0.0
N1423 N 0.20716 0.46288 0.25151 0.0
H1424 H 0.24414 0.40627 0.2645 0.0
H1425 H 0.22541 0.42051 0.24416 0.0
H1426 H 0.19699 0.47773 0.24692 0.0
H1427 H 0.21789 0.45662 0.2374 0.0
H1428 H 0.22523 0.45446 0.36009 0.0
H1429 H 0.24392 0.43136 0.35 0.0
H1430 H 0.19009 0.46584 0.35399 0.0
H1431 H 0.17415 0.48228 0.33306 0.0
C1432 C 0.174 0.08957 0.52648 0.0
C1433 C 0.17307 0.07547 0.50476 0.0
C1434 C 0.21269 0.09312 0.49302 0.0
C1435 C 0.21402 0.10654 0.51518 0.0
N1436 N 0.19861 0.11282 0.55536 0.0
N1437 N 0.19429 0.0594 0.47034 0.0
C1438 C 0.1956 0.10308 0.53272 0.0
C1439 C 0.1932 0.07608 0.48883 0.0
N1440 N 0.15376 0.09129 0.54051 0.0
N1441 N 0.23022 0.09633 0.47595 0.0
H1442 H 0.18092 0.04599 0.46731 0.0
H1443 H 0.20948 0.05716 0.4595 0.0
H1444 H 0.24617 0.10645 0.47894 0.0
H1445 H 0.22835 0.09 0.45823 0.0
H1446 H 0.15249 0.1033 0.55513 0.0
H1447 H 0.13732 0.08247 0.53625 0.0
H1448 H 0.18719 0.10867 0.56966 0.0
H1449 H 0.21354 0.12371 0.5603 0.0
C1450 C 0.71913 0.09412 0.72282 0.0
C1451 C 0.72834 0.10747 0.74308 0.0
C1452 C 0.70329 0.08264 0.76986 0.0
C1453 C 0.69205 0.07087 0.74952 0.0
N1454 N 0.68864 0.06593 0.70643 0.0
N1455 N 0.72665 0.11726 0.78548 0.0
C1456 C 0.6999 0.07671 0.72592 0.0
C1457 C 0.71959 0.10258 0.76646 0.0
N1458 N 0.72938 0.09752 0.70073 0.0
N1459 N 0.69959 0.07393 0.79243 0.0
H1460 H 0.73848 0.13213 0.7837 0.0
H1461 H 0.71907 0.11617 0.80257 0.0
H1462 H 0.68864 0.05882 0.79592 0.0
H1463 H 0.70929 0.08014 0.80754 0.0
H1464 H 0.72562 0.08655 0.68567 0.0
H1465 H 0.74302 0.11051 0.69774 0.0
H1466 H 0.69135 0.07122 0.68877 0.0
H1467 H 0.67503 0.05276 0.70806 0.0
C1468 C 0.35097 0.07379 0.54757 0.0
C1469 C 0.36936 0.07255 0.52976 0.0
C1470 C 0.34717 0.1013 0.5052 0.0
C1471 C 0.32827 0.10147 0.52249 0.0
N1472 N 0.30942 0.08352 0.5571 0.0
N1473 N 0.38308 0.08161 0.48977 0.0
C1474 C 0.32936 0.08638 0.54276 0.0
C1475 C 0.36686 0.08525 0.50797 0.0
N1476 N 0.35459 0.06392 0.56959 0.0
N1477 N 0.34684 0.1172 0.48673 0.0
H1478 H 0.39764 0.07003 0.49126 0.0
H1479 H 0.38101 0.0884 0.47259 0.0
H1480 H 0.33262 0.12895 0.48403 0.0
H1481 H 0.36137 0.11997 0.4751 0.0
H1482 H 0.34312 0.06673 0.5842 0.0
H1483 H 0.37016 0.05464 0.57403 0.0
H1484 H 0.3082 0.07079 0.5706 0.0
H1485 H 0.29312 0.09213 0.55397 0.0
C1486 C 0.66941 0.45168 0.52471 0.0
C1487 C 0.67335 0.47297 0.53903 0.0
C1488 C 0.71691 0.46409 0.54146 0.0
C1489 C 0.71253 0.44214 0.52821 0.0
N1490 N 0.68357 0.41194 0.51382 0.0
N1491 N 0.70011 0.49797 0.56399 0.0
C1492 C 0.68847 0.43509 0.52166 0.0
C1493 C 0.69697 0.47888 0.54812 0.0
N1494 N 0.64752 0.44753 0.51354 0.0
N1495 N 0.74013 0.47063 0.54785 0.0
H1496 H 0.68603 0.5092 0.56915 0.0
H1497 H 0.7162 0.50182 0.57329 0.0
H1498 H 0.75458 0.45901 0.54551 0.0
H1499 H 0.74523 0.48767 0.55472 0.0
H1500 H 0.64442 0.43356 0.50092 0.0
H1501 H 0.63317 0.4594 0.51511 0.0
H1502 H 0.66607 0.40485 0.51105 0.0
H1503 H 0.69703 0.39913 0.51264 0.0
C1504 C 0.7158 0.32242 0.45704 0.0
C1505 C 0.73475 0.31493 0.44155 0.0
C1506 C 0.76442 0.33688 0.46752 0.0
C1507 C 0.74513 0.3476 0.48062 0.0
N1508 N 0.70221 0.35019 0.48819 0.0
N1509 N 0.77711 0.31635 0.4308 0.0
C1510 C 0.72075 0.34009 0.47558 0.0
C1511 C 0.75911 0.32239 0.44654 0.0
N1512 N 0.6932 0.31184 0.45464 0.0
N1513 N 0.78778 0.33966 0.47565 0.0
H1514 H 0.77398 0.30609 0.41509 0.0
H1515 H 0.79483 0.32322 0.43217 0.0
H1516 H 0.79247 0.34936 0.49133 0.0
H1517 H 0.80228 0.33037 0.46828 0.0
H1518 H 0.67917 0.31453 0.46683 0.0
H1519 H 0.68903 0.29849 0.44162 0.0
H1520 H 0.68404 0.34832 0.48316 0.0
H1521 H 0.70509 0.36161 0.50306 0.0
C1522 C 0.59166 0.02226 0.86824 0.0
C1523 C 0.56948 0.03476 0.86904 0.0
C1524 C 0.57204 0.04014 0.82537 0.0
C1525 C 0.59607 0.03126 0.82523 0.0
N1526 N 0.63034 1.01794 0.84838 0.0
N1527 N 0.54032 0.05896 0.84861 0.0
C1528 C 0.60625 0.02306 0.8471 0.0
C1529 C 0.55999 0.04439 0.84762 0.0
N1530 N 0.59883 1.00965 0.88777 0.0
N1531 N 0.5606 0.04451 0.80415 0.0
H1532 H 0.53108 0.06299 0.86448 0.0
H1533 H 0.53448 0.06885 0.83405 0.0
H1534 H 0.56887 0.04205 0.78752 0.0
H1535 H 0.54223 0.04838 0.80297 0.0
H1536 H 0.61364 0.99829 0.88748 0.0
H1537 H 0.58852 1.00869 0.90346 0.0
H1538 H 0.63917 1.0144 0.86448 0.0
H1539 H 0.64219 0.01967 0.83394 0.0
C1540 C 0.30969 0.23832 0.45972 0.0
C1541 C 0.30656 0.23237 0.43486 0.0
C1542 C 0.29678 0.19036 0.44522 0.0
C1543 C 0.29485 0.19756 0.4697 0.0
N1544 N 0.30158 0.22744 0.50117 0.0
N1545 N 0.29634 0.20268 0.40369 0.0
C1546 C 0.30235 0.2212 0.47728 0.0
C1547 C 0.30037 0.20823 0.42748 0.0
N1548 N 0.31977 0.26029 0.46638 0.0
N1549 N 0.29532 0.16633 0.43908 0.0
H1550 H 0.29875 0.21518 0.3901 0.0
H1551 H 0.28897 0.18613 0.39759 0.0
H1552 H 0.29313 0.15303 0.452 0.0
H1553 H 0.2986 0.15956 0.42178 0.0
H1554 H 0.32436 0.26519 0.48403 0.0
H1555 H 0.32546 0.27298 0.45384 0.0
H1556 H 0.3038 0.24509 0.50786 0.0
H1557 H 0.29798 0.21473 0.51438 0.0
C1558 C 0.44667 0.51543 0.87002 0.0
C1559 C 0.47159 0.50973 0.86847 0.0
C1560 C 0.46988 0.51364 0.82448 0.0
C1561 C 0.44431 0.51625 0.82575 0.0
N1562 N 0.4078 0.51728 0.84965 0.0
N1563 N 0.5073 0.50322 0.84462 0.0
C1564 C 0.43259 0.51698 0.84854 0.0
C1565 C 0.48337 0.50909 0.84579 0.0
N1566 N 0.43639 0.51913 0.89212 0.0
N1567 N 0.48123 0.51563 0.80277 0.0
H1568 H 0.51799 0.50103 0.85991 0.0
H1569 H 0.5164 0.49941 0.82866 0.0
H1570 H 0.47175 0.51816 0.78684 0.0
H1571 H 0.49997 0.51649 0.80063 0.0
H1572 H 0.41909 0.52591 0.89456 0.0
H1573 H 0.44589 0.5173 0.9082 0.0
H1574 H 0.398 0.51458 0.86538 0.0
H1575 H 0.3967 0.51847 0.83455 0.0
C1576 C 0.74072 0.74186 0.0824 0.0
C1577 C 0.73671 0.73292 0.10581 0.0
C1578 C 0.73983 0.69128 0.09015 0.0
C1579 C 0.74533 0.70014 0.0669 0.0
N1580 N 0.75577 0.7341 0.04206 0.0
N1581 N 0.73784 0.69973 0.13307 0.0
C1582 C 0.74715 0.72553 0.06336 0.0
C1583 C 0.73803 0.70781 0.11 0.0
N1584 N 0.73759 0.76583 0.07815 0.0
N1585 N 0.73477 0.66721 0.09312 0.0
H1586 H 0.73641 0.71129 0.14807 0.0
H1587 H 0.7414 0.68194 0.13742 0.0
H1588 H 0.73516 0.65445 0.0791 0.0
H1589 H 0.72789 0.66019 0.10901 0.0
H1590 H 0.73739 0.77297 0.06098 0.0
H1591 H 0.73344 0.77838 0.09173 0.0
H1592 H 0.76003 0.75227 0.03931 0.0
H1593 H 0.76074 0.72282 0.02774 0.0
C1594 C 0.95269 0.02404 0.17019 0.0
C1595 C 0.97514 0.03656 0.17418 0.0
C1596 C 0.96844 0.03509 0.21798 0.0
C1597 C 0.94526 0.02398 0.21376 0.0
N1598 N 0.91305 1.01356 0.18583 0.0
N1599 N 1.00352 0.05654 0.20154 0.0
C1600 C 0.93678 0.02001 0.18984 0.0
C1601 C 0.9829 0.04264 0.19804 0.0
N1602 N 0.94677 1.0155 0.14759 0.0
N1603 N 0.97648 0.03862 0.24108 0.0
H1604 H 1.01463 0.06209 0.18744 0.0
H1605 H 1.00895 0.06384 0.21817 0.0
H1606 H 0.96538 0.03553 0.2559 0.0
H1607 H 0.99422 0.04376 0.24564 0.0
H1608 H 0.93186 1.00404 0.14399 0.0
H1609 H 0.95803 1.01798 0.13274 0.0
H1610 H 0.90498 1.01286 0.16885 0.0
H1611 H 0.90086 1.01129 0.19987 0.0
C1612 C 0.3017 0.80321 0.09255 0.0
C1613 C 0.30405 0.81094 0.11694 0.0
C1614 C 0.30302 0.8532 0.10429 0.0
C1615 C 0.29641 0.84529 0.0806 0.0
N1616 N 0.28513 0.81179 0.05353 0.0
N1617 N 0.30459 0.84345 0.1466 0.0
C1618 C 0.29489 0.82003 0.07493 0.0
C1619 C 0.30427 0.83602 0.12299 0.0
N1620 N 0.30597 0.77969 0.08618 0.0
N1621 N 0.30868 0.87706 0.10881 0.0
H1622 H 0.30571 0.83148 0.16076 0.0
H1623 H 0.3019 0.8613 0.15216 0.0
H1624 H 0.30879 0.88994 0.09538 0.0
H1625 H 0.31572 0.88358 0.12519 0.0
H1626 H 0.30693 0.77357 0.06834 0.0
H1627 H 0.31105 0.7669 0.09865 0.0
H1628 H 0.28125 0.79356 0.0498 0.0
H1629 H 0.27841 0.82301 0.04044 0.0
C1630 C 0.06068 0.50306 0.19684 0.0
C1631 C 0.06903 0.50876 0.17341 0.0
C1632 C 0.10764 0.52411 0.19054 0.0
C1633 C 0.09862 0.52051 0.2141 0.0
N1634 N 0.06669 0.50669 0.24017 0.0
N1635 N 0.09859 0.5285 0.1482 0.0
C1636 C 0.07507 0.51012 0.21738 0.0
C1637 C 0.09197 0.52044 0.17037 0.0
N1638 N 0.03952 0.48992 0.19933 0.0
N1639 N 0.13161 0.52988 0.18734 0.0
H1640 H 0.08754 0.52623 0.13301 0.0
H1641 H 0.11396 0.53937 0.14531 0.0
H1642 H 0.14364 0.5318 0.20173 0.0
H1643 H 0.14 0.53028 0.17059 0.0
H1644 H 0.03352 0.48289 0.21553 0.0
H1645 H 0.02843 0.48476 0.18478 0.0
H1646 H 0.04876 0.50213 0.24423 0.0
H1647 H 0.07779 0.50912 0.25528 0.0
C1648 C 0.45692 0.71867 0.3166 0.0
C1649 C 0.4444 0.73901 0.30814 0.0
C1650 C 0.47101 0.76548 0.3332 0.0
C1651 C 0.47891 0.74505 0.346 0.0
N1652 N 0.48065 0.70161 0.3485 0.0
N1653 N 0.4556 0.77893 0.29527 0.0
C1654 C 0.4723 0.72145 0.33723 0.0
C1655 C 0.45595 0.76186 0.31265 0.0
N1656 N 0.45852 0.69844 0.3023 0.0
N1657 N 0.4779 0.78848 0.34022 0.0
H1658 H 0.44791 0.77527 0.27835 0.0
H1659 H 0.46571 0.7951 0.29632 0.0
H1660 H 0.49051 0.79258 0.35371 0.0
H1661 H 0.46978 0.80371 0.33336 0.0
H1662 H 0.4687 0.68356 0.30678 0.0
H1663 H 0.4539 0.69872 0.28409 0.0
H1664 H 0.47424 0.6841 0.3444 0.0
H1665 H 0.49239 0.70284 0.36324 0.0
C1666 C 0.02049 0.34491 0.97996 0.0
C1667 C 1.00997 0.36534 0.96936 0.0
C1668 C 1.01042 0.34449 0.92984 0.0
C1669 C 1.01735 0.32295 0.94105 0.0
N1670 N 0.03031 0.3023 0.97616 0.0
N1671 N 0.99287 0.38404 0.93454 0.0
C1672 C 0.02298 0.32313 0.96595 0.0
C1673 C 1.00469 0.36512 0.9443 0.0
N1674 N 0.02842 0.34657 1.00328 0.0
N1675 N 1.00932 0.34516 0.90529 0.0
H1676 H 0.98829 0.39951 0.94442 0.0
H1677 H 0.98587 0.38367 0.91712 0.0
H1678 H 1.01322 0.33027 0.89423 0.0
H1679 H 1.00674 0.36093 0.89584 0.0
H1680 H 0.03808 0.33318 1.01164 0.0
H1681 H 0.02681 0.36225 1.01389 0.0
H1682 H 0.03189 0.3 0.99462 0.0
H1683 H 0.03437 0.28696 0.96583 0.0
C1684 C 0.59185 0.79888 0.30555 0.0
C1685 C 0.61434 0.80846 0.31438 0.0
C1686 C 0.59906 0.8063 0.35581 0.0
C1687 C 0.57754 0.79443 0.34717 0.0
N1688 N 0.55529 0.77544 0.31393 0.0
N1689 N 0.64096 0.81794 0.34797 0.0
C1690 C 0.57433 0.78974 0.32204 0.0
C1691 C 0.61839 0.81125 0.33955 0.0
N1692 N 0.58701 0.79894 0.28142 0.0
N1693 N 0.60067 0.81372 0.3794 0.0
H1694 H 0.65555 0.82182 0.33667 0.0
H1695 H 0.64577 0.81768 0.3661 0.0
H1696 H 0.58669 0.81088 0.39171 0.0
H1697 H 0.61481 0.82469 0.38625 0.0
H1698 H 0.56994 0.7948 0.27413 0.0
H1699 H 0.59953 0.80512 0.26877 0.0
H1700 H 0.55355 0.76922 0.29617 0.0
H1701 H 0.5423 0.76783 0.32524 0.0
C1702 C 0.03384 0.19462 0.98238 0.0
C1703 C 0.03759 0.17152 0.97158 0.0
C1704 C 0.02851 0.18766 0.9317 0.0
C1705 C 0.02364 0.21057 0.94262 0.0
N1706 N 0.01861 0.23516 0.97864 0.0
N1707 N 0.03575 0.14487 0.93674 0.0
C1708 C 0.02535 0.21381 0.96807 0.0
C1709 C 0.03419 0.16774 0.94643 0.0
N1710 N 0.03906 0.19836 1.00627 0.0
N1711 N 0.02767 0.1849 0.90718 0.0
H1712 H 0.04052 0.13001 0.94679 0.0
H1713 H 0.03078 0.14011 0.91916 0.0
H1714 H 0.02166 0.19822 0.89582 0.0
H1715 H 0.03404 0.16985 0.89783 0.0
H1716 H 0.03966 0.21533 1.01476 0.0
H1717 H 0.04442 0.18457 0.01747 0.0
H1718 H 1.01659 0.23778 0.99712 0.0
H1719 H 1.01347 0.25005 0.96889 0.0
C1720 C 0.43746 0.30854 0.21092 0.0
C1721 C 0.4396 0.30307 0.23566 0.0
C1722 C 0.47857 0.28393 0.22798 0.0
C1723 C 0.47656 0.28919 0.20309 0.0
N1724 N 0.45607 0.30965 0.17132 0.0
N1725 N 0.46452 0.2912 0.26878 0.0
C1726 C 0.45677 0.30282 0.19478 0.0
C1727 C 0.46102 0.29272 0.24449 0.0
N1728 N 0.41644 0.31815 0.20275 0.0
N1729 N 0.49656 0.26936 0.23572 0.0
H1730 H 0.4518 0.29695 0.2814 0.0
H1731 H 0.48086 0.28632 0.27652 0.0
H1732 H 0.51006 0.26282 0.22446 0.0
H1733 H 0.49718 0.26226 0.25289 0.0
H1734 H 0.41225 0.32002 0.18464 0.0
H1735 H 0.40247 0.3233 0.21426 0.0
H1736 H 0.44361 0.32163 0.16459 0.0
H1737 H 0.46898 0.30451 0.15868 0.0
C1738 C 0.5527 0.3561 0.07884 0.0
C1739 C 0.53279 0.37122 0.07452 0.0
C1740 C 0.50743 0.34635 0.10129 0.0
C1741 C 0.52689 0.33028 0.10414 0.0
N1742 N 0.56575 0.31651 0.09014 0.0
N1743 N 0.49 0.37835 0.07802 0.0
C1744 C 0.54886 0.33419 0.0913 0.0
C1745 C 0.50975 0.3656 0.08466 0.0
N1746 N 0.57556 0.36307 0.07194 0.0
N1747 N 0.48718 0.34396 0.11524 0.0
H1748 H 0.4911 0.3925 0.06595 0.0
H1749 H 0.47229 0.37359 0.08282 0.0
H1750 H 0.48494 0.33026 0.12765 0.0
H1751 H 0.47353 0.35664 0.11593 0.0
H1752 H 0.59108 0.3541 0.07709 0.0
H1753 H 0.57936 0.3791 0.06301 0.0
H1754 H 0.58095 0.31741 0.07906 0.0
H1755 H 0.56328 0.29973 0.09808 0.0
C1756 C 0.6155 0.2296 0.20809 0.0
C1757 C 0.61319 0.23678 0.23267 0.0
C1758 C 0.57503 0.25654 0.22319 0.0
C1759 C 0.57528 0.24584 0.19979 0.0
N1760 N 0.59603 0.22286 0.16926 0.0
N1761 N 0.58985 0.25559 0.26427 0.0
C1762 C 0.5957 0.23265 0.192 0.0
C1763 C 0.59274 0.24997 0.2404 0.0
N1764 N 0.63695 0.22058 0.2 0.0
N1765 N 0.55856 0.27387 0.22855 0.0
H1766 H 0.60253 0.25126 0.27736 0.0
H1767 H 0.57404 0.26284 0.2713 0.0
H1768 H 0.54667 0.28024 0.21565 0.0
H1769 H 0.5586 0.28383 0.24468 0.0
H1770 H 0.64076 0.21727 0.18191 0.0
H1771 H 0.65189 0.21829 0.2112 0.0
H1772 H 0.60867 0.21042 0.16329 0.0
H1773 H 0.58275 0.22645 0.1566 0.0
C1774 C 0.5369 0.18111 0.08263 0.0
C1775 C 0.51265 0.17549 0.07533 0.0
C1776 C 0.49929 0.21298 0.09538 0.0
C1777 C 0.52275 0.21664 0.10575 0.0
N1778 N 0.56426 0.20437 0.10898 0.0
N1779 N 0.47011 0.18477 0.07685 0.0
C1780 C 0.54172 0.20085 0.0991 0.0
C1781 C 0.49369 0.19117 0.08215 0.0
N1782 N 0.55545 0.1681 0.07302 0.0
N1783 N 0.48256 0.23076 0.09737 0.0
H1784 H 0.46504 0.16865 0.06792 0.0
H1785 H 0.4553 0.19427 0.08326 0.0
H1786 H 0.48608 0.2473 0.10621 0.0
H1787 H 0.46605 0.23023 0.08821 0.0
H1788 H 0.57372 0.17269 0.07553 0.0
H1789 H 0.55262 0.1538 0.0607 0.0
H1790 H 0.57796 0.19178 0.10773 0.0
H1791 H 0.5689 0.21942 0.1197 0.0
C1792 C 0.32391 0.44238 0.75937 0.0
C1793 C 0.3165 0.43773 0.73519 0.0
C1794 C 0.34182 0.47221 0.72205 0.0
C1795 C 0.34931 0.47688 0.74625 0.0
N1796 N 0.3412 0.47119 0.7885 0.0
N1797 N 0.31362 0.45147 0.6945 0.0
C1798 C 0.33848 0.46338 0.7651 0.0
C1799 C 0.32413 0.45359 0.7168 0.0
N1800 N 0.31772 0.4263 0.77678 0.0
N1801 N 0.35194 0.48526 0.70393 0.0
H1802 H 0.30028 0.43839 0.69013 0.0
H1803 H 0.31638 0.46394 0.68097 0.0
H1804 H 0.36318 0.50033 0.70711 0.0
H1805 H 0.35018 0.48047 0.68578 0.0
H1806 H 0.32455 0.42737 0.79426 0.0
H1807 H 0.30735 0.41058 0.7733 0.0
H1808 H 0.33183 0.46353 0.80279 0.0
H1809 H 0.35089 0.48691 0.79354 0.0
C1810 C 0.34034 0.61622 0.81722 0.0
C1811 C 0.31498 0.61257 0.8136 0.0
C1812 C 0.32217 0.57265 0.79509 0.0
C1813 C 0.34739 0.5756 0.80029 0.0
N1814 N 0.37982 0.59807 0.82037 0.0
N1815 N 0.28124 0.58589 0.80298 0.0
C1816 C 0.35628 0.59682 0.81252 0.0
C1817 C 0.30574 0.59032 0.80373 0.0
N1818 N 0.34927 0.63851 0.82444 0.0
N1819 N 0.31401 0.55371 0.78076 0.0
H1820 H 0.26866 0.59857 0.8087 0.0
H1821 H 0.27343 0.56903 0.79855 0.0
H1822 H 0.32528 0.54045 0.77379 0.0
H1823 H 0.29637 0.55221 0.77403 0.0
H1824 H 0.36771 0.6431 0.82479 0.0
H1825 H 0.3382 0.65314 0.82822 0.0
H1826 H 0.38678 0.61196 0.83153 0.0
H1827 H 0.39186 0.584 0.81763 0.0
C1828 C 0.84631 0.48234 0.51964 0.0
C1829 C 0.86831 0.47067 0.51415 0.0
C1830 C 0.84772 0.43114 0.51946 0.0
C1831 C 0.82504 0.44275 0.52119 0.0
N1832 N 0.80239 0.47946 0.52046 0.0
N1833 N 0.88956 0.43373 0.50616 0.0
C1834 C 0.82427 0.4684 0.5208 0.0
C1835 C 0.86901 0.44498 0.5137 0.0
N1836 N 0.84656 0.50677 0.52395 0.0
N1837 N 0.84885 0.40677 0.5227 0.0
H1838 H 0.90548 0.44308 0.50162 0.0
H1839 H 0.8903 0.41522 0.50251 0.0
H1840 H 0.83362 0.3958 0.52592 0.0
H1841 H 0.8651 0.3977 0.52419 0.0
H1842 H 0.8316 0.51606 0.53033 0.0
H1843 H 0.86244 0.51742 0.5233 0.0
H1844 H 0.80048 0.49782 0.51737 0.0
H1845 H 0.78595 0.46989 0.52154 0.0
C1846 C 0.71445 0.94721 0.82262 0.0
C1847 C 0.72832 0.93689 0.80368 0.0
C1848 C 0.70903 0.96302 0.77466 0.0
C1849 C 0.69347 0.97171 0.79313 0.0
N1850 N 0.6795 0.97075 0.8341 0.0
N1851 N 0.7375 0.93287 0.76139 0.0
C1852 C 0.69579 0.96359 0.81703 0.0
C1853 C 0.72522 0.9442 0.77962 0.0
N1854 N 0.71927 0.94141 0.84591 0.0
N1855 N 0.70916 0.97356 0.75263 0.0
H1856 H 0.75061 0.91997 0.76431 0.0
H1857 H 0.73361 0.93504 0.74323 0.0
H1858 H 0.6977 0.98744 0.74812 0.0
H1859 H 0.72206 0.97009 0.73943 0.0
H1860 H 0.71172 0.95017 0.86076 0.0
H1861 H 0.73215 0.9288 0.85053 0.0
H1862 H 0.6785 0.96367 0.85126 0.0
H1863 H 0.66564 0.98266 0.8305 0.0
C1864 C 0.69343 0.57364 0.99088 0.0
C1865 C 0.67321 0.57339 1.00668 0.0
C1866 C 0.69582 0.60097 0.03458 0.0
C1867 C 0.71438 0.60405 0.01715 0.0
N1868 N 0.73075 0.59338 0.97809 0.0
N1869 N 0.65382 0.58962 0.04221 0.0
C1870 C 0.71308 0.59048 0.99507 0.0
C1871 C 0.67413 0.58762 0.02831 0.0
N1872 N 0.69444 0.55683 0.9725 0.0
N1873 N 0.69876 0.6109 0.05715 0.0
H1874 H 0.63736 0.58087 0.03794 0.0
H1875 H 0.65257 0.60176 0.05672 0.0
H1876 H 0.71375 0.62173 0.0621 0.0
H1877 H 0.6872 0.60703 0.07142 0.0
H1878 H 0.70967 0.55434 0.96177 0.0
H1879 H 0.68093 0.54356 0.96946 0.0
H1880 H 0.72891 0.58697 0.9604 0.0
H1881 H 0.7468 0.60332 0.98111 0.0
C1882 C 0.22074 0.5996 0.26815 0.0
C1883 C 0.22934 0.60499 0.24481 0.0
C1884 C 0.20232 0.57309 0.22741 0.0
C1885 C 0.19447 0.56696 0.25094 0.0
N1886 N 0.20165 0.57012 0.29388 0.0
N1887 N 0.23096 0.59527 0.20244 0.0
C1888 C 0.20518 0.57905 0.27138 0.0
C1889 C 0.22075 0.59137 0.22446 0.0
N1890 N 0.2272 0.61442 0.28726 0.0
N1891 N 0.19188 0.56166 0.20783 0.0
H1892 H 0.24409 0.6088 0.19956 0.0
H1893 H 0.22771 0.58424 0.18731 0.0
H1894 H 0.17967 0.54719 0.20931 0.0
H1895 H 0.19419 0.56728 0.19022 0.0
H1896 H 0.2197 0.6129 0.30434 0.0
H1897 H 0.23839 0.62978 0.28559 0.0
H1898 H 0.21095 0.57665 0.30911 0.0
H1899 H 0.19136 0.55453 0.2972 0.0
C1900 C 0.86622 0.58026 1.00908 0.0
C1901 C 0.87019 0.56946 0.03168 0.0
C1902 C 0.83128 0.58472 0.04612 0.0
C1903 C 0.82883 0.59809 0.02479 0.0
N1904 N 0.84523 0.61081 0.98682 0.0
N1905 N 0.8584 0.56482 0.07317 0.0
C1906 C 0.84654 0.59633 1.00636 0.0
C1907 C 0.85319 0.57255 0.05058 0.0
N1908 N 0.881 0.5748 0.99013 0.0
N1909 N 0.8123 0.58295 0.06182 0.0
H1910 H 0.87431 0.556 0.0774 0.0
H1911 H 0.848 0.56912 0.08822 0.0
H1912 H 0.79566 0.591 0.05889 0.0
H1913 H 0.81211 0.57143 0.0764 0.0
H1914 H 0.87767 0.5801 0.97259 0.0
H1915 H 0.89554 0.56319 0.99157 0.0
H1916 H 0.85899 0.61236 0.97411 0.0
H1917 H 0.83114 0.62274 0.98423 0.0
C1918 C 0.16994 0.94926 0.02668 0.0
C1919 C 0.17415 0.97203 0.0384 0.0
C1920 C 0.21814 0.965 0.03805 0.0
C1921 C 0.21364 0.94159 0.02772 0.0
N1922 N 0.18499 0.90936 0.01782 0.0
N1923 N 0.2018 1.00066 0.05799 0.0
C1924 C 0.18944 0.93315 0.02361 0.0
C1925 C 0.19819 0.97976 0.0447 0.0
N1926 N 0.14732 0.94324 0.01794 0.0
N1927 N 0.24154 0.97297 0.04175 0.0
H1928 H 0.18771 1.01196 0.06295 0.0
H1929 H 0.21844 1.00614 0.06541 0.0
H1930 H 0.25627 0.96169 0.03947 0.0
H1931 H 0.24644 0.99079 0.04627 0.0
H1932 H 0.14368 0.92802 1.00703 0.0
H1933 H 0.13261 0.95466 0.01967 0.0
H1934 H 0.16768 0.9014 0.01701 0.0
H1935 H 0.19888 0.89706 1.01625 0.0
loop_
_geom_bond_atom_site_label_1
_geom_bond_atom_site_label_2
_geom_bond_distance
_geom_bond_site_symmetry_2
_ccdc_geom_bond_type
C0 C1 1.283 . S
C0 C5 1.479 . S
C0 C10 1.465 . S
C1 C0 1.283 . S
C1 C3 1.337 1_545 S
C1 H28 0.915 1_545 S
C2 C3 1.395 1_545 S
C2 C4 1.320 . S
C3 C1 1.337 1_565 S
C3 C2 1.395 1_565 S
C3 H29 0.929 . S
C4 C2 1.320 . S
C4 C5 1.405 . S
C4 H30 0.930 . S
C5 C0 1.479 . S
C5 C4 1.405 . S
C5 H31 0.931 . S
U6 O7 2.454 . S
U6 O8 2.458 1_554 S
U6 C9 2.966 1_554 S
U6 C10 2.847 1_455 S
U6 C23 2.882 1_545 S
U6 O24 2.441 1_455 S
U6 O25 2.420 . S
U6 O26 2.455 . S
U6 O27 2.449 1_545 S
O7 U6 2.454 . S
O7 C9 1.329 1_554 S
O8 U6 2.458 1_556 S
O8 C9 1.287 . S
C9 U6 2.966 1_556 S
C9 O7 1.329 1_556 S
C9 O8 1.287 . S
C9 C11 1.382 . S
C10 C0 1.465 . S
C10 U6 2.847 1_655 S
C10 O24 1.249 . S
C10 O25 1.202 1_655 S
C11 C9 1.382 . S
C11 C13 1.408 . S
C11 C16 1.342 . S
C12 C13 1.310 . S
C12 C15 1.461 . S
C12 H32 0.932 1_455 S
C13 C11 1.408 . S
C13 C12 1.310 . S
C13 H33 0.923 1_456 S
C14 C15 1.474 . S
C14 C16 1.285 . S
C14 H34 0.929 . S
C15 C12 1.461 . S
C15 C14 1.474 . S
C16 C11 1.342 . S
C16 C14 1.285 . S
C16 H35 0.930 . S
C17 C20 1.424 . S
C17 C22 1.245 . S
C17 C23 1.428 . S
C18 C21 1.260 . S
C18 C22 1.477 . S
C18 H36 0.932 1_554 S
C19 C20 1.384 . S
C19 C21 1.479 . S
C19 H37 0.929 . S
C20 C17 1.424 . S
C20 C19 1.384 . S
C20 H38 0.928 . S
C21 C18 1.260 . S
C21 C19 1.479 . S
C22 C17 1.245 . S
C22 C18 1.477 . S
C22 H39 0.932 1_554 S
C23 U6 2.882 1_565 S
C23 C17 1.428 . S
C23 O26 1.301 1_565 S
C23 O27 1.282 . S
O24 U6 2.441 1_655 S
O24 C10 1.249 . S
O25 U6 2.420 . S
O25 C10 1.202 1_455 S
O26 U6 2.455 . S
O26 C23 1.301 1_545 S
O27 U6 2.449 1_565 S
O27 C23 1.282 . S
H28 C1 0.915 1_565 S
H29 C3 0.929 . S
H30 C4 0.930 . S
H31 C5 0.931 . S
H32 C12 0.932 1_655 S
H33 C13 0.923 1_654 S
H34 C14 0.929 . S
H35 C16 0.930 . S
H36 C18 0.932 1_556 S
H37 C19 0.929 . S
H38 C20 0.928 . S
H39 C22 0.932 1_556 S
C40 C41 1.264 . S
C40 C45 1.479 . S
C40 C50 1.465 . S
C41 C40 1.264 . S
C41 C43 1.339 . S
C41 H68 0.931 . S
C42 C43 1.395 . S
C42 C44 1.320 . S
C43 C41 1.339 . S
C43 C42 1.395 . S
C43 H69 0.929 . S
C44 C42 1.320 . S
C44 C45 1.405 . S
C44 H70 0.930 . S
C45 C40 1.479 . S
C45 C44 1.405 . S
C45 H71 0.931 . S
U46 O47 2.454 . S
U46 O48 2.458 . S
U46 C49 2.984 . S
U46 C50 2.847 . S
U46 C63 2.882 . S
U46 O64 2.441 . S
U46 O65 2.420 . S
U46 O66 2.455 . S
U46 O67 2.449 . S
O47 U46 2.454 . S
O47 C49 1.353 . S
O48 U46 2.458 . S
O48 C49 1.286 . S
C49 U46 2.984 . S
C49 O47 1.353 . S
C49 O48 1.286 . S
C49 C51 1.363 . S
C50 C40 1.465 . S
C50 U46 2.847 . S
C50 O64 1.249 . S
C50 O65 1.202 . S
C51 C49 1.363 . S
C51 C53 1.408 . S
C51 C56 1.342 . S
C52 C53 1.310 . S
C52 C55 1.461 . S
C52 H72 0.932 . S
C53 C51 1.408 . S
C53 C52 1.310 . S
C53 H73 0.930 . S
C54 C55 1.474 . S
C54 C56 1.285 . S
C54 H74 0.929 . S
C55 C52 1.461 . S
C55 C54 1.474 . S
C56 C51 1.342 . S
C56 C54 1.285 . S
C56 H75 0.930 . S
C57 C60 1.424 . S
C57 C62 1.245 . S
C57 C63 1.428 . S
C58 C61 1.260 . S
C58 C62 1.477 . S
C58 H76 0.932 . S
C59 C60 1.384 . S
C59 C61 1.479 . S
C59 H77 0.929 . S
C60 C57 1.424 . S
C60 C59 1.384 . S
C60 H78 0.928 . S
C61 C58 1.260 . S
C61 C59 1.479 . S
C62 C57 1.245 . S
C62 C58 1.477 . S
C62 H79 0.932 . S
C63 U46 2.882 . S
C63 C57 1.428 . S
C63 O66 1.301 . S
C63 O67 1.282 . S
O64 U46 2.441 . S
O64 C50 1.249 . S
O65 U46 2.420 . S
O65 C50 1.202 . S
O66 U46 2.455 . S
O66 C63 1.301 . S
O67 U46 2.449 . S
O67 C63 1.282 . S
H68 C41 0.931 . S
H69 C43 0.929 . S
H70 C44 0.930 . S
H71 C45 0.931 . S
H72 C52 0.932 . S
H73 C53 0.930 . S
H74 C54 0.929 . S
H75 C56 0.930 . S
H76 C58 0.932 . S
H77 C59 0.929 . S
H78 C60 0.928 . S
H79 C62 0.932 . S
C80 C81 1.264 1_655 S
C80 C85 1.479 . S
C80 C90 1.465 . S
C81 C80 1.264 1_455 S
C81 C83 1.339 . S
C81 H108 0.931 . S
C82 C83 1.395 1_655 S
C82 C84 1.320 . S
C83 C81 1.339 . S
C83 C82 1.395 1_455 S
C83 H109 0.929 . S
C84 C82 1.320 . S
C84 C85 1.405 . S
C84 H110 0.930 . S
C85 C80 1.479 . S
C85 C84 1.405 . S
C85 H111 0.931 . S
U86 O87 2.454 . S
U86 O88 2.458 . S
U86 C89 2.984 . S
U86 C90 2.847 1_554 S
U86 C103 2.882 1_655 S
U86 O104 2.441 1_554 S
U86 O105 2.420 . S
U86 O106 2.455 . S
U86 O107 2.449 1_655 S
O87 U86 2.454 . S
O87 C89 1.353 . S
O88 U86 2.458 . S
O88 C89 1.286 . S
C89 U86 2.984 . S
C89 O87 1.353 . S
C89 O88 1.286 . S
C89 C91 1.363 . S
C90 C80 1.465 . S
C90 U86 2.847 1_556 S
C90 O104 1.249 . S
C90 O105 1.202 1_556 S
C91 C89 1.363 . S
C91 C93 1.408 . S
C91 C96 1.342 . S
C92 C93 1.315 . S
C92 C95 1.489 . S
C92 H112 0.900 1_554 S
C93 C91 1.408 . S
C93 C92 1.315 . S
C93 H113 0.930 1_554 S
C94 C95 1.474 . S
C94 C96 1.285 . S
C94 H114 0.929 . S
C95 C92 1.489 . S
C95 C94 1.474 . S
C96 C91 1.342 . S
C96 C94 1.285 . S
C96 H115 0.930 . S
C97 C100 1.424 . S
C97 C102 1.245 . S
C97 C103 1.428 . S
C98 C101 1.260 . S
C98 C102 1.477 . S
C98 H116 0.932 . S
C99 C100 1.384 . S
C99 C101 1.479 . S
C99 H117 0.929 . S
C100 C97 1.424 . S
C100 C99 1.384 . S
C100 H118 0.928 . S
C101 C98 1.260 . S
C101 C99 1.479 . S
C102 C97 1.245 . S
C102 C98 1.477 . S
C102 H119 0.932 . S
C103 U86 2.882 1_455 S
C103 C97 1.428 . S
C103 O106 1.301 1_455 S
C103 O107 1.282 . S
O104 U86 2.441 1_556 S
O104 C90 1.249 . S
O105 U86 2.420 . S
O105 C90 1.202 1_554 S
O106 U86 2.455 . S
O106 C103 1.301 1_655 S
O107 U86 2.449 1_455 S
O107 C103 1.282 . S
H108 C81 0.931 . S
H109 C83 0.929 . S
H110 C84 0.930 . S
H111 C85 0.931 . S
H112 C92 0.900 1_556 S
H113 C93 0.930 1_556 S
H114 C94 0.929 . S
H115 C96 0.930 . S
H116 C98 0.932 . S
H117 C99 0.929 . S
H118 C100 0.928 . S
H119 C102 0.932 . S
C120 C121 1.264 . S
C120 C125 1.479 . S
C120 C130 1.465 . S
C121 C120 1.264 . S
C121 C123 1.339 . S
C121 H148 0.931 . S
C122 C123 1.395 . S
C122 C124 1.320 . S
C123 C121 1.339 . S
C123 C122 1.395 . S
C123 H149 0.929 . S
C124 C122 1.320 . S
C124 C125 1.405 . S
C124 H150 0.930 . S
C125 C120 1.479 . S
C125 C124 1.405 . S
C125 H151 0.931 . S
U126 O127 2.454 . S
U126 O128 2.458 . S
U126 C129 2.984 . S
U126 C130 2.847 . S
U126 C143 2.882 . S
U126 O144 2.441 . S
U126 O145 2.420 . S
U126 O146 2.455 . S
U126 O147 2.449 . S
O127 U126 2.454 . S
O127 C129 1.353 . S
O128 U126 2.458 . S
O128 C129 1.286 . S
C129 U126 2.984 . S
C129 O127 1.353 . S
C129 O128 1.286 . S
C129 C131 1.363 . S
C130 C120 1.465 . S
C130 U126 2.847 . S
C130 O144 1.249 . S
C130 O145 1.202 . S
C131 C129 1.363 . S
C131 C133 1.408 . S
C131 C136 1.342 . S
C132 C133 1.310 . S
C132 C135 1.461 . S
C132 H152 0.932 . S
C133 C131 1.408 . S
C133 C132 1.310 . S
C133 H153 0.930 . S
C134 C135 1.474 . S
C134 C136 1.285 . S
C134 H154 0.929 . S
C135 C132 1.461 . S
C135 C134 1.474 . S
C136 C131 1.342 . S
C136 C134 1.285 . S
C136 H155 0.930 . S
C137 C140 1.424 . S
C137 C142 1.245 . S
C137 C143 1.428 . S
C138 C141 1.260 . S
C138 C142 1.477 . S
C138 H156 0.932 . S
C139 C140 1.384 . S
C139 C141 1.479 . S
C139 H157 0.929 . S
C140 C137 1.424 . S
C140 C139 1.384 . S
C140 H158 0.928 . S
C141 C138 1.260 . S
C141 C139 1.479 . S
C142 C137 1.245 . S
C142 C138 1.477 . S
C142 H159 0.932 . S
C143 U126 2.882 . S
C143 C137 1.428 . S
C143 O146 1.301 . S
C143 O147 1.282 . S
O144 U126 2.441 . S
O144 C130 1.249 . S
O145 U126 2.420 . S
O145 C130 1.202 . S
O146 U126 2.455 . S
O146 C143 1.301 . S
O147 U126 2.449 . S
O147 C143 1.282 . S
H148 C121 0.931 . S
H149 C123 0.929 . S
H150 C124 0.930 . S
H151 C125 0.931 . S
H152 C132 0.932 . S
H153 C133 0.930 . S
H154 C134 0.929 . S
H155 C136 0.930 . S
H156 C138 0.932 . S
H157 C139 0.929 . S
H158 C140 0.928 . S
H159 C142 0.932 . S
C160 C161 1.264 1_565 S
C160 C165 1.479 . S
C160 C170 1.465 . S
C161 C160 1.264 1_545 S
C161 C163 1.339 . S
C161 H188 0.912 1_655 S
C162 C163 1.395 1_565 S
C162 C164 1.320 . S
C163 C161 1.339 . S
C163 C162 1.395 1_545 S
C163 H189 0.929 . S
C164 C162 1.320 . S
C164 C165 1.405 . S
C164 H190 0.930 . S
C165 C160 1.479 . S
C165 C164 1.405 . S
C165 H191 0.931 . S
U166 O167 2.454 . S
U166 O168 2.458 . S
U166 C169 2.984 . S
U166 C170 2.847 1_455 S
U166 C183 2.882 1_565 S
U166 O184 2.441 1_455 S
U166 O185 2.420 . S
U166 O186 2.455 . S
U166 O187 2.449 1_565 S
O167 U166 2.454 . S
O167 C169 1.353 . S
O168 U166 2.458 . S
O168 C169 1.286 . S
C169 U166 2.984 . S
C169 O167 1.353 . S
C169 O168 1.286 . S
C169 C171 1.363 . S
C170 C160 1.465 . S
C170 U166 2.847 1_655 S
C170 O184 1.249 . S
C170 O185 1.202 1_655 S
C171 C169 1.363 . S
C171 C173 1.408 . S
C171 C176 1.342 . S
C172 C173 1.310 . S
C172 C175 1.461 . S
C172 H192 0.932 1_455 S
C173 C171 1.408 . S
C173 C172 1.310 . S
C173 H193 0.930 1_455 S
C174 C175 1.474 . S
C174 C176 1.285 . S
C174 H194 0.929 . S
C175 C172 1.461 . S
C175 C174 1.474 . S
C176 C171 1.342 . S
C176 C174 1.285 . S
C176 H195 0.930 . S
C177 C180 1.424 . S
C177 C182 1.245 . S
C177 C183 1.428 . S
C178 C181 1.260 . S
C178 C182 1.477 . S
C178 H196 0.932 . S
C179 C180 1.384 . S
C179 C181 1.479 . S
C179 H197 0.929 . S
C180 C177 1.424 . S
C180 C179 1.384 . S
C180 H198 0.928 . S
C181 C178 1.260 . S
C181 C179 1.479 . S
C182 C177 1.245 . S
C182 C178 1.477 . S
C182 H199 0.932 . S
C183 U166 2.882 1_545 S
C183 C177 1.428 . S
C183 O186 1.301 1_545 S
C183 O187 1.282 . S
O184 U166 2.441 1_655 S
O184 C170 1.249 . S
O185 U166 2.420 . S
O185 C170 1.202 1_455 S
O186 U166 2.455 . S
O186 C183 1.301 1_565 S
O187 U166 2.449 1_545 S
O187 C183 1.282 . S
H188 C161 0.912 1_455 S
H189 C163 0.929 . S
H190 C164 0.930 . S
H191 C165 0.931 . S
H192 C172 0.932 1_655 S
H193 C173 0.930 1_655 S
H194 C174 0.929 . S
H195 C176 0.930 . S
H196 C178 0.932 . S
H197 C179 0.929 . S
H198 C180 0.928 . S
H199 C182 0.932 . S
C200 C201 1.264 . S
C200 C205 1.479 . S
C200 C210 1.465 . S
C201 C200 1.264 . S
C201 C203 1.339 . S
C201 H228 0.931 . S
C202 C203 1.395 . S
C202 C204 1.320 . S
C203 C201 1.339 . S
C203 C202 1.395 . S
C203 H229 0.929 . S
C204 C202 1.320 . S
C204 C205 1.405 . S
C204 H230 0.930 . S
C205 C200 1.479 . S
C205 C204 1.405 . S
C205 H231 0.931 . S
U206 O207 2.454 . S
U206 O208 2.458 . S
U206 C209 2.984 . S
U206 C210 2.847 . S
U206 C223 2.882 . S
U206 O224 2.441 . S
U206 O225 2.420 . S
U206 O226 2.455 . S
U206 O227 2.449 . S
O207 U206 2.454 . S
O207 C209 1.353 . S
O208 U206 2.458 . S
O208 C209 1.286 . S
C209 U206 2.984 . S
C209 O207 1.353 . S
C209 O208 1.286 . S
C209 C211 1.363 . S
C210 C200 1.465 . S
C210 U206 2.847 . S
C210 O224 1.249 . S
C210 O225 1.202 . S
C211 C209 1.363 . S
C211 C213 1.408 . S
C211 C216 1.342 . S
C212 C213 1.310 . S
C212 C215 1.461 . S
C212 H232 0.932 . S
C213 C211 1.408 . S
C213 C212 1.310 . S
C213 H233 0.930 . S
C214 C215 1.474 . S
C214 C216 1.285 . S
C214 H234 0.929 . S
C215 C212 1.461 . S
C215 C214 1.474 . S
C216 C211 1.342 . S
C216 C214 1.285 . S
C216 H235 0.930 . S
C217 C220 1.424 . S
C217 C222 1.245 . S
C217 C223 1.428 . S
C218 C221 1.260 . S
C218 C222 1.477 . S
C218 H236 0.932 . S
C219 C220 1.384 . S
C219 C221 1.479 . S
C219 H237 0.929 . S
C220 C217 1.424 . S
C220 C219 1.384 . S
C220 H238 0.928 . S
C221 C218 1.260 . S
C221 C219 1.479 . S
C222 C217 1.245 . S
C222 C218 1.477 . S
C222 H239 0.932 . S
C223 U206 2.882 . S
C223 C217 1.428 . S
C223 O226 1.301 . S
C223 O227 1.282 . S
O224 U206 2.441 . S
O224 C210 1.249 . S
O225 U206 2.420 . S
O225 C210 1.202 . S
O226 U206 2.455 . S
O226 C223 1.301 . S
O227 U206 2.449 . S
O227 C223 1.282 . S
H228 C201 0.931 . S
H229 C203 0.929 . S
H230 C204 0.930 . S
H231 C205 0.931 . S
H232 C212 0.932 . S
H233 C213 0.930 . S
H234 C214 0.929 . S
H235 C216 0.930 . S
H236 C218 0.932 . S
H237 C219 0.929 . S
H238 C220 0.928 . S
H239 C222 0.932 . S
C240 C241 1.264 1_655 S
C240 C245 1.479 . S
C240 C250 1.465 . S
C241 C240 1.264 1_455 S
C241 C243 1.339 . S
C241 H268 0.931 . S
C242 C243 1.395 1_655 S
C242 C244 1.320 . S
C243 C241 1.339 . S
C243 C242 1.395 1_455 S
C243 H269 0.929 . S
C244 C242 1.320 . S
C244 C245 1.405 . S
C244 H270 0.930 . S
C245 C240 1.479 . S
C245 C244 1.405 . S
C245 H271 0.931 . S
U246 O247 2.454 . S
U246 O248 2.458 . S
U246 C249 2.984 . S
U246 C250 2.847 . S
U246 C263 2.882 1_655 S
U246 O264 2.441 . S
U246 O265 2.420 1_655 S
U246 O266 2.455 . S
U246 O267 2.449 1_655 S
O247 U246 2.454 . S
O247 C249 1.353 . S
O248 U246 2.458 . S
O248 C249 1.286 . S
C249 U246 2.984 . S
C249 O247 1.353 . S
C249 O248 1.286 . S
C249 C251 1.363 . S
C250 C240 1.465 . S
C250 U246 2.847 . S
C250 O264 1.249 . S
C250 O265 1.202 1_655 S
C251 C249 1.363 . S
C251 C253 1.408 . S
C251 C256 1.342 . S
C252 C253 1.310 . S
C252 C255 1.461 . S
C252 H272 0.932 . S
C253 C251 1.408 . S
C253 C252 1.310 . S
C253 H273 0.930 . S
C254 C255 1.474 . S
C254 C256 1.285 . S
C254 H274 0.929 . S
C255 C252 1.461 . S
C255 C254 1.474 . S
C256 C251 1.342 . S
C256 C254 1.285 . S
C256 H275 0.930 . S
C257 C260 1.424 . S
C257 C262 1.245 . S
C257 C263 1.428 . S
C258 C261 1.260 . S
C258 C262 1.477 . S
C258 H276 0.932 . S
C259 C260 1.384 . S
C259 C261 1.479 . S
C259 H277 0.929 . S
C260 C257 1.424 . S
C260 C259 1.384 . S
C260 H278 0.928 . S
C261 C258 1.260 . S
C261 C259 1.479 . S
C262 C257 1.245 . S
C262 C258 1.477 . S
C262 H279 0.932 . S
C263 U246 2.882 1_455 S
C263 C257 1.428 . S
C263 O266 1.301 1_455 S
C263 O267 1.282 . S
O264 U246 2.441 . S
O264 C250 1.249 . S
O265 U246 2.420 1_455 S
O265 C250 1.202 1_455 S
O266 U246 2.455 . S
O266 C263 1.301 1_655 S
O267 U246 2.449 1_455 S
O267 C263 1.282 . S
H268 C241 0.931 . S
H269 C243 0.929 . S
H270 C244 0.930 . S
H271 C245 0.931 . S
H272 C252 0.932 . S
H273 C253 0.930 . S
H274 C254 0.929 . S
H275 C256 0.930 . S
H276 C258 0.932 . S
H277 C259 0.929 . S
H278 C260 0.928 . S
H279 C262 0.932 . S
C280 C281 1.264 . S
C280 C285 1.479 . S
C280 C290 1.465 . S
C281 C280 1.264 . S
C281 C283 1.339 . S
C281 H308 0.931 . S
C282 C283 1.395 . S
C282 C284 1.320 . S
C283 C281 1.339 . S
C283 C282 1.395 . S
C283 H309 0.929 . S
C284 C282 1.320 . S
C284 C285 1.405 . S
C284 H310 0.930 . S
C285 C280 1.479 . S
C285 C284 1.405 . S
C285 H311 0.931 . S
U286 O287 2.454 . S
U286 O288 2.458 . S
U286 C289 2.984 . S
U286 C290 2.847 . S
U286 C303 2.882 . S
U286 O304 2.441 . S
U286 O305 2.420 . S
U286 O306 2.455 . S
U286 O307 2.449 . S
O287 U286 2.454 . S
O287 C289 1.353 . S
O288 U286 2.458 . S
O288 C289 1.286 . S
C289 U286 2.984 . S
C289 O287 1.353 . S
C289 O288 1.286 . S
C289 C291 1.363 . S
C290 C280 1.465 . S
C290 U286 2.847 . S
C290 O304 1.249 . S
C290 O305 1.202 . S
C291 C289 1.363 . S
C291 C293 1.408 . S
C291 C296 1.342 . S
C292 C293 1.310 . S
C292 C295 1.461 . S
C292 H312 0.932 . S
C293 C291 1.408 . S
C293 C292 1.310 . S
C293 H313 0.930 . S
C294 C295 1.474 . S
C294 C296 1.285 . S
C294 H314 0.929 . S
C295 C292 1.461 . S
C295 C294 1.474 . S
C296 C291 1.342 . S
C296 C294 1.285 . S
C296 H315 0.930 . S
C297 C300 1.424 . S
C297 C302 1.245 . S
C297 C303 1.428 . S
C298 C301 1.260 . S
C298 C302 1.477 . S
C298 H316 0.932 . S
C299 C300 1.384 . S
C299 C301 1.479 . S
C299 H317 0.929 . S
C300 C297 1.424 . S
C300 C299 1.384 . S
C300 H318 0.928 . S
C301 C298 1.260 . S
C301 C299 1.479 . S
C302 C297 1.245 . S
C302 C298 1.477 . S
C302 H319 0.932 . S
C303 U286 2.882 . S
C303 C297 1.428 . S
C303 O306 1.301 . S
C303 O307 1.282 . S
O304 U286 2.441 . S
O304 C290 1.249 . S
O305 U286 2.420 . S
O305 C290 1.202 . S
O306 U286 2.455 . S
O306 C303 1.301 . S
O307 U286 2.449 . S
O307 C303 1.282 . S
H308 C281 0.931 . S
H309 C283 0.929 . S
H310 C284 0.930 . S
H311 C285 0.931 . S
H312 C292 0.932 . S
H313 C293 0.930 . S
H314 C294 0.929 . S
H315 C296 0.930 . S
H316 C298 0.932 . S
H317 C299 0.929 . S
H318 C300 0.928 . S
H319 C302 0.932 . S
C320 C321 1.264 . S
C320 C325 1.479 . S
C320 C330 1.465 . S
C321 C320 1.264 . S
C321 C323 1.339 . S
C321 H348 0.931 . S
C322 C323 1.395 . S
C322 C324 1.320 . S
C323 C321 1.339 . S
C323 C322 1.395 . S
C323 H349 0.929 . S
C324 C322 1.320 . S
C324 C325 1.405 . S
C324 H350 0.930 . S
C325 C320 1.479 . S
C325 C324 1.405 . S
C325 H351 0.931 . S
U326 O327 2.454 . S
U326 O328 2.458 . S
U326 C329 2.984 . S
U326 C330 2.847 . S
U326 C343 2.882 . S
U326 O344 2.441 . S
U326 O345 2.420 . S
U326 O346 2.455 . S
U326 O347 2.449 . S
O327 U326 2.454 . S
O327 C329 1.353 . S
O328 U326 2.458 . S
O328 C329 1.286 . S
C329 U326 2.984 . S
C329 O327 1.353 . S
C329 O328 1.286 . S
C329 C331 1.363 . S
C330 C320 1.465 . S
C330 U326 2.847 . S
C330 O344 1.249 . S
C330 O345 1.202 . S
C331 C329 1.363 . S
C331 C333 1.408 . S
C331 C336 1.342 . S
C332 C333 1.310 . S
C332 C335 1.461 . S
C332 H352 0.932 . S
C333 C331 1.408 . S
C333 C332 1.310 . S
C333 H353 0.930 . S
C334 C335 1.474 . S
C334 C336 1.285 . S
C334 H354 0.929 . S
C335 C332 1.461 . S
C335 C334 1.474 . S
C336 C331 1.342 . S
C336 C334 1.285 . S
C336 H355 0.930 . S
C337 C340 1.424 . S
C337 C342 1.245 . S
C337 C343 1.428 . S
C338 C341 1.260 . S
C338 C342 1.477 . S
C338 H356 0.932 . S
C339 C340 1.384 . S
C339 C341 1.479 . S
C339 H357 0.929 . S
C340 C337 1.424 . S
C340 C339 1.384 . S
C340 H358 0.928 . S
C341 C338 1.260 . S
C341 C339 1.479 . S
C342 C337 1.245 . S
C342 C338 1.477 . S
C342 H359 0.932 . S
C343 U326 2.882 . S
C343 C337 1.428 . S
C343 O346 1.301 . S
C343 O347 1.282 . S
O344 U326 2.441 . S
O344 C330 1.249 . S
O345 U326 2.420 . S
O345 C330 1.202 . S
O346 U326 2.455 . S
O346 C343 1.301 . S
O347 U326 2.449 . S
O347 C343 1.282 . S
H348 C321 0.931 . S
H349 C323 0.929 . S
H350 C324 0.930 . S
H351 C325 0.931 . S
H352 C332 0.932 . S
H353 C333 0.930 . S
H354 C334 0.929 . S
H355 C336 0.930 . S
H356 C338 0.932 . S
H357 C339 0.929 . S
H358 C340 0.928 . S
H359 C342 0.932 . S
C360 C361 1.264 . S
C360 C365 1.479 . S
C360 C370 1.465 . S
C361 C360 1.264 . S
C361 C363 1.339 . S
C361 H388 0.931 . S
C362 C363 1.395 . S
C362 C364 1.320 . S
C363 C361 1.339 . S
C363 C362 1.395 . S
C363 H389 0.929 . S
C364 C362 1.320 . S
C364 C365 1.405 . S
C364 H390 0.930 . S
C365 C360 1.479 . S
C365 C364 1.405 . S
C365 H391 0.931 . S
U366 O367 2.454 . S
U366 O368 2.458 1_565 S
U366 C369 2.984 1_565 S
U366 C370 2.847 . S
U366 C383 2.882 . S
U366 O384 2.441 . S
U366 O385 2.420 . S
U366 O386 2.455 . S
U366 O387 2.449 . S
O367 U366 2.454 . S
O367 C369 1.353 1_565 S
O368 U366 2.458 1_545 S
O368 C369 1.286 . S
C369 U366 2.984 1_545 S
C369 O367 1.353 1_545 S
C369 O368 1.286 . S
C369 C371 1.363 . S
C370 C360 1.465 . S
C370 U366 2.847 . S
C370 O384 1.249 . S
C370 O385 1.202 . S
C371 C369 1.363 . S
C371 C373 1.408 . S
C371 C376 1.342 . S
C372 C373 1.310 . S
C372 C375 1.461 . S
C372 H392 0.932 . S
C373 C371 1.408 . S
C373 C372 1.310 . S
C373 H393 0.930 . S
C374 C375 1.474 . S
C374 C376 1.285 . S
C374 H394 0.929 . S
C375 C372 1.461 . S
C375 C374 1.474 . S
C376 C371 1.342 . S
C376 C374 1.285 . S
C376 H395 0.930 . S
C377 C380 1.424 . S
C377 C382 1.245 1_565 S
C377 C383 1.428 . S
C378 C381 1.260 1_545 S
C378 C382 1.477 . S
C378 H396 0.932 . S
C379 C380 1.384 . S
C379 C381 1.479 . S
C379 H397 0.929 . S
C380 C377 1.424 . S
C380 C379 1.384 . S
C380 H398 0.928 . S
C381 C378 1.260 1_565 S
C381 C379 1.479 . S
C382 C377 1.245 1_545 S
C382 C378 1.477 . S
C382 H399 0.932 . S
C383 U366 2.882 . S
C383 C377 1.428 . S
C383 O386 1.301 . S
C383 O387 1.282 . S
O384 U366 2.441 . S
O384 C370 1.249 . S
O385 U366 2.420 . S
O385 C370 1.202 . S
O386 U366 2.455 . S
O386 C383 1.301 . S
O387 U366 2.449 . S
O387 C383 1.282 . S
H388 C361 0.931 . S
H389 C363 0.929 . S
H390 C364 0.930 . S
H391 C365 0.931 . S
H392 C372 0.932 . S
H393 C373 0.930 . S
H394 C374 0.929 . S
H395 C376 0.930 . S
H396 C378 0.932 . S
H397 C379 0.929 . S
H398 C380 0.928 . S
H399 C382 0.932 . S
C400 C401 1.264 . S
C400 C405 1.479 . S
C400 C410 1.465 . S
C401 C400 1.264 . S
C401 C403 1.339 . S
C401 H428 0.931 . S
C402 C403 1.395 . S
C402 C404 1.320 . S
C403 C401 1.339 . S
C403 C402 1.395 . S
C403 H429 0.929 . S
C404 C402 1.320 . S
C404 C405 1.405 . S
C404 H430 0.930 . S
C405 C400 1.479 . S
C405 C404 1.405 . S
C405 H431 0.931 . S
U406 O407 2.454 . S
U406 O408 2.458 . S
U406 C409 2.984 . S
U406 C410 2.847 . S
U406 C423 2.882 . S
U406 O424 2.441 . S
U406 O425 2.420 . S
U406 O426 2.455 . S
U406 O427 2.449 . S
O407 U406 2.454 . S
O407 C409 1.353 . S
O408 U406 2.458 . S
O408 C409 1.286 . S
C409 U406 2.984 . S
C409 O407 1.353 . S
C409 O408 1.286 . S
C409 C411 1.363 . S
C410 C400 1.465 . S
C410 U406 2.847 . S
C410 O424 1.249 . S
C410 O425 1.202 . S
C411 C409 1.363 . S
C411 C413 1.408 . S
C411 C416 1.342 . S
C412 C413 1.310 . S
C412 C415 1.461 . S
C412 H432 0.932 . S
C413 C411 1.408 . S
C413 C412 1.310 . S
C413 H433 0.930 . S
C414 C415 1.474 . S
C414 C416 1.285 . S
C414 H434 0.929 . S
C415 C412 1.461 . S
C415 C414 1.474 . S
C416 C411 1.342 . S
C416 C414 1.285 . S
C416 H435 0.930 . S
C417 C420 1.424 . S
C417 C422 1.245 . S
C417 C423 1.428 . S
C418 C421 1.260 . S
C418 C422 1.477 . S
C418 H436 0.932 . S
C419 C420 1.384 . S
C419 C421 1.479 . S
C419 H437 0.929 . S
C420 C417 1.424 . S
C420 C419 1.384 . S
C420 H438 0.928 . S
C421 C418 1.260 . S
C421 C419 1.479 . S
C422 C417 1.245 . S
C422 C418 1.477 . S
C422 H439 0.932 . S
C423 U406 2.882 . S
C423 C417 1.428 . S
C423 O426 1.301 . S
C423 O427 1.282 . S
O424 U406 2.441 . S
O424 C410 1.249 . S
O425 U406 2.420 . S
O425 C410 1.202 . S
O426 U406 2.455 . S
O426 C423 1.301 . S
O427 U406 2.449 . S
O427 C423 1.282 . S
H428 C401 0.931 . S
H429 C403 0.929 . S
H430 C404 0.930 . S
H431 C405 0.931 . S
H432 C412 0.932 . S
H433 C413 0.930 . S
H434 C414 0.929 . S
H435 C416 0.930 . S
H436 C418 0.932 . S
H437 C419 0.929 . S
H438 C420 0.928 . S
H439 C422 0.932 . S
C440 C441 1.264 . S
C440 C445 1.479 . S
C440 C450 1.465 . S
C441 C440 1.264 . S
C441 C443 1.339 . S
C441 H468 0.931 . S
C442 C443 1.395 . S
C442 C444 1.320 . S
C443 C441 1.339 . S
C443 C442 1.395 . S
C443 H469 0.929 . S
C444 C442 1.320 . S
C444 C445 1.405 . S
C444 H470 0.930 . S
C445 C440 1.479 . S
C445 C444 1.405 . S
C445 H471 0.931 . S
U446 O447 2.454 . S
U446 O448 2.458 . S
U446 C449 2.984 . S
U446 C450 2.847 . S
U446 C463 2.882 . S
U446 O464 2.441 . S
U446 O465 2.420 . S
U446 O466 2.455 . S
U446 O467 2.449 . S
O447 U446 2.454 . S
O447 C449 1.353 . S
O448 U446 2.458 . S
O448 C449 1.286 . S
C449 U446 2.984 . S
C449 O447 1.353 . S
C449 O448 1.286 . S
C449 C451 1.363 . S
C450 C440 1.465 . S
C450 U446 2.847 . S
C450 O464 1.249 . S
C450 O465 1.202 . S
C451 C449 1.363 . S
C451 C453 1.408 . S
C451 C456 1.342 . S
C452 C453 1.310 . S
C452 C455 1.461 . S
C452 H472 0.932 . S
C453 C451 1.408 . S
C453 C452 1.310 . S
C453 H473 0.930 . S
C454 C455 1.474 . S
C454 C456 1.285 . S
C454 H474 0.929 . S
C455 C452 1.461 . S
C455 C454 1.474 . S
C456 C451 1.342 . S
C456 C454 1.285 . S
C456 H475 0.930 . S
C457 C460 1.424 . S
C457 C462 1.245 . S
C457 C463 1.428 . S
C458 C461 1.260 . S
C458 C462 1.477 . S
C458 H476 0.932 . S
C459 C460 1.384 . S
C459 C461 1.479 . S
C459 H477 0.929 . S
C460 C457 1.424 . S
C460 C459 1.384 . S
C460 H478 0.928 . S
C461 C458 1.260 . S
C461 C459 1.479 . S
C462 C457 1.245 . S
C462 C458 1.477 . S
C462 H479 0.932 . S
C463 U446 2.882 . S
C463 C457 1.428 . S
C463 O466 1.301 . S
C463 O467 1.282 . S
O464 U446 2.441 . S
O464 C450 1.249 . S
O465 U446 2.420 . S
O465 C450 1.202 . S
O466 U446 2.455 . S
O466 C463 1.301 . S
O467 U446 2.449 . S
O467 C463 1.282 . S
H468 C441 0.931 . S
H469 C443 0.929 . S
H470 C444 0.930 . S
H471 C445 0.931 . S
H472 C452 0.932 . S
H473 C453 0.930 . S
H474 C454 0.929 . S
H475 C456 0.930 . S
H476 C458 0.932 . S
H477 C459 0.929 . S
H478 C460 0.928 . S
H479 C462 0.932 . S
C480 C481 1.264 . S
C480 C485 1.479 . S
C480 C490 1.465 . S
C481 C480 1.264 . S
C481 C483 1.339 . S
C481 H508 0.931 . S
C482 C483 1.395 . S
C482 C484 1.320 . S
C483 C481 1.339 . S
C483 C482 1.395 . S
C483 H509 0.929 . S
C484 C482 1.320 . S
C484 C485 1.405 . S
C484 H510 0.930 . S
C485 C480 1.479 . S
C485 C484 1.405 . S
C485 H511 0.931 . S
U486 O487 2.454 . S
U486 O488 2.458 . S
U486 C489 2.984 . S
U486 C490 2.847 . S
U486 C503 2.882 . S
U486 O504 2.441 . S
U486 O505 2.420 . S
U486 O506 2.455 . S
U486 O507 2.449 . S
O487 U486 2.454 . S
O487 C489 1.353 . S
O488 U486 2.458 . S
O488 C489 1.286 . S
C489 U486 2.984 . S
C489 O487 1.353 . S
C489 O488 1.286 . S
C489 C491 1.363 . S
C490 C480 1.465 . S
C490 U486 2.847 . S
C490 O504 1.249 . S
C490 O505 1.202 . S
C491 C489 1.363 . S
C491 C493 1.408 . S
C491 C496 1.342 . S
C492 C493 1.310 . S
C492 C495 1.461 . S
C492 H512 0.932 . S
C493 C491 1.408 . S
C493 C492 1.310 . S
C493 H513 0.930 . S
C494 C495 1.474 . S
C494 C496 1.285 . S
C494 H514 0.929 . S
C495 C492 1.461 . S
C495 C494 1.474 . S
C496 C491 1.342 . S
C496 C494 1.285 . S
C496 H515 0.930 . S
C497 C500 1.424 . S
C497 C502 1.245 . S
C497 C503 1.428 . S
C498 C501 1.260 . S
C498 C502 1.477 . S
C498 H516 0.932 . S
C499 C500 1.384 . S
C499 C501 1.479 . S
C499 H517 0.929 . S
C500 C497 1.424 . S
C500 C499 1.384 . S
C500 H518 0.928 . S
C501 C498 1.260 . S
C501 C499 1.479 . S
C502 C497 1.245 . S
C502 C498 1.477 . S
C502 H519 0.932 . S
C503 U486 2.882 . S
C503 C497 1.428 . S
C503 O506 1.301 . S
C503 O507 1.282 . S
O504 U486 2.441 . S
O504 C490 1.249 . S
O505 U486 2.420 . S
O505 C490 1.202 . S
O506 U486 2.455 . S
O506 C503 1.301 . S
O507 U486 2.449 . S
O507 C503 1.282 . S
H508 C481 0.931 . S
H509 C483 0.929 . S
H510 C484 0.930 . S
H511 C485 0.931 . S
H512 C492 0.932 . S
H513 C493 0.930 . S
H514 C494 0.929 . S
H515 C496 0.930 . S
H516 C498 0.932 . S
H517 C499 0.929 . S
H518 C500 0.928 . S
H519 C502 0.932 . S
C520 C521 1.264 . S
C520 C525 1.479 . S
C520 C530 1.465 . S
C521 C520 1.264 . S
C521 C523 1.339 . S
C521 H548 0.931 . S
C522 C523 1.395 . S
C522 C524 1.320 . S
C523 C521 1.339 . S
C523 C522 1.395 . S
C523 H549 0.929 . S
C524 C522 1.320 . S
C524 C525 1.405 . S
C524 H550 0.930 . S
C525 C520 1.479 . S
C525 C524 1.405 . S
C525 H551 0.931 . S
U526 O527 2.454 . S
U526 O528 2.458 1_556 S
U526 C529 2.984 1_556 S
U526 C530 2.847 . S
U526 C543 2.882 . S
U526 O544 2.441 . S
U526 O545 2.420 . S
U526 O546 2.455 . S
U526 O547 2.449 . S
O527 U526 2.454 . S
O527 C529 1.353 1_556 S
O528 U526 2.458 1_554 S
O528 C529 1.286 . S
C529 U526 2.984 1_554 S
C529 O527 1.353 1_554 S
C529 O528 1.286 . S
C529 C531 1.363 . S
C530 C520 1.465 . S
C530 U526 2.847 . S
C530 O544 1.249 . S
C530 O545 1.202 . S
C531 C529 1.363 . S
C531 C533 1.408 . S
C531 C536 1.342 . S
C532 C533 1.310 . S
C532 C535 1.461 . S
C532 H552 0.932 . S
C533 C531 1.408 . S
C533 C532 1.310 . S
C533 H553 0.930 . S
C534 C535 1.474 . S
C534 C536 1.285 . S
C534 H554 0.929 . S
C535 C532 1.461 . S
C535 C534 1.474 . S
C536 C531 1.342 . S
C536 C534 1.285 . S
C536 H555 0.930 . S
C537 C540 1.424 . S
C537 C542 1.245 1_556 S
C537 C543 1.428 . S
C538 C541 1.260 1_554 S
C538 C542 1.477 . S
C538 H556 0.932 . S
C539 C540 1.384 . S
C539 C541 1.479 . S
C539 H557 0.929 . S
C540 C537 1.424 . S
C540 C539 1.384 . S
C540 H558 0.928 . S
C541 C538 1.260 1_556 S
C541 C539 1.479 . S
C542 C537 1.245 1_554 S
C542 C538 1.477 . S
C542 H559 0.932 . S
C543 U526 2.882 . S
C543 C537 1.428 . S
C543 O546 1.301 . S
C543 O547 1.282 . S
O544 U526 2.441 . S
O544 C530 1.249 . S
O545 U526 2.420 . S
O545 C530 1.202 . S
O546 U526 2.455 . S
O546 C543 1.301 . S
O547 U526 2.449 . S
O547 C543 1.282 . S
H548 C521 0.931 . S
H549 C523 0.929 . S
H550 C524 0.930 . S
H551 C525 0.931 . S
H552 C532 0.932 . S
H553 C533 0.930 . S
H554 C534 0.929 . S
H555 C536 0.930 . S
H556 C538 0.932 . S
H557 C539 0.929 . S
H558 C540 0.928 . S
H559 C542 0.932 . S
C560 C561 1.264 . S
C560 C565 1.479 . S
C560 C570 1.465 . S
C561 C560 1.264 . S
C561 C563 1.339 . S
C561 H588 0.931 . S
C562 C563 1.395 . S
C562 C564 1.320 . S
C563 C561 1.339 . S
C563 C562 1.395 . S
C563 H589 0.929 . S
C564 C562 1.320 . S
C564 C565 1.405 . S
C564 H590 0.930 . S
C565 C560 1.479 . S
C565 C564 1.405 . S
C565 H591 0.931 . S
U566 O567 2.454 . S
U566 O568 2.458 . S
U566 C569 2.984 . S
U566 C570 2.847 . S
U566 C583 2.882 . S
U566 O584 2.441 . S
U566 O585 2.420 . S
U566 O586 2.455 . S
U566 O587 2.449 . S
O567 U566 2.454 . S
O567 C569 1.353 . S
O568 U566 2.458 . S
O568 C569 1.286 . S
C569 U566 2.984 . S
C569 O567 1.353 . S
C569 O568 1.286 . S
C569 C571 1.363 . S
C570 C560 1.465 . S
C570 U566 2.847 . S
C570 O584 1.249 . S
C570 O585 1.202 . S
C571 C569 1.363 . S
C571 C573 1.408 . S
C571 C576 1.342 . S
C572 C573 1.310 . S
C572 C575 1.461 . S
C572 H592 0.932 . S
C573 C571 1.408 . S
C573 C572 1.310 . S
C573 H593 0.930 . S
C574 C575 1.474 . S
C574 C576 1.285 . S
C574 H594 0.929 . S
C575 C572 1.461 . S
C575 C574 1.474 . S
C576 C571 1.342 . S
C576 C574 1.285 . S
C576 H595 0.930 . S
C577 C580 1.424 . S
C577 C582 1.245 . S
C577 C583 1.428 . S
C578 C581 1.260 . S
C578 C582 1.477 . S
C578 H596 0.932 . S
C579 C580 1.384 . S
C579 C581 1.479 . S
C579 H597 0.929 . S
C580 C577 1.424 . S
C580 C579 1.384 . S
C580 H598 0.928 . S
C581 C578 1.260 . S
C581 C579 1.479 . S
C582 C577 1.245 . S
C582 C578 1.477 . S
C582 H599 0.932 . S
C583 U566 2.882 . S
C583 C577 1.428 . S
C583 O586 1.301 . S
C583 O587 1.282 . S
O584 U566 2.441 . S
O584 C570 1.249 . S
O585 U566 2.420 . S
O585 C570 1.202 . S
O586 U566 2.455 . S
O586 C583 1.301 . S
O587 U566 2.449 . S
O587 C583 1.282 . S
H588 C561 0.931 . S
H589 C563 0.929 . S
H590 C564 0.930 . S
H591 C565 0.931 . S
H592 C572 0.932 . S
H593 C573 0.930 . S
H594 C574 0.929 . S
H595 C576 0.930 . S
H596 C578 0.932 . S
H597 C579 0.929 . S
H598 C580 0.928 . S
H599 C582 0.932 . S
C600 C601 1.264 . S
C600 C605 1.479 . S
C600 C610 1.465 . S
C601 C600 1.264 . S
C601 C603 1.339 . S
C601 H628 0.931 . S
C602 C603 1.395 . S
C602 C604 1.320 . S
C603 C601 1.339 . S
C603 C602 1.395 . S
C603 H629 0.929 . S
C604 C602 1.320 . S
C604 C605 1.405 . S
C604 H630 0.930 . S
C605 C600 1.479 . S
C605 C604 1.405 . S
C605 H631 0.931 . S
U606 O607 2.438 1_556 S
U606 O608 2.458 1_545 S
U606 C609 2.987 . S
U606 C610 2.847 1_556 S
U606 C623 2.882 . S
U606 O624 2.441 1_556 S
U606 O625 2.420 1_556 S
U606 O626 2.455 . S
U606 O627 2.449 . S
O607 U606 2.438 1_554 S
O607 C609 1.335 1_554 S
O608 U606 2.458 1_565 S
O608 C609 1.285 1_565 S
C609 U606 2.987 . S
C609 O607 1.335 1_556 S
C609 O608 1.285 1_545 S
C609 C611 1.360 1_545 S
C610 C600 1.465 . S
C610 U606 2.847 1_554 S
C610 O624 1.249 . S
C610 O625 1.202 . S
C611 C609 1.360 1_565 S
C611 C613 1.408 1_556 S
C611 C616 1.342 . S
C612 C613 1.310 . S
C612 C615 1.461 1_554 S
C612 H632 0.932 . S
C613 C611 1.408 1_554 S
C613 C612 1.310 . S
C613 H633 0.930 1_565 S
C614 C615 1.474 . S
C614 C616 1.285 . S
C614 H634 0.929 . S
C615 C612 1.461 1_556 S
C615 C614 1.474 . S
C616 C611 1.342 . S
C616 C614 1.285 . S
C616 H635 0.930 . S
C617 C620 1.424 . S
C617 C622 1.245 . S
C617 C623 1.428 . S
C618 C621 1.260 . S
C618 C622 1.477 . S
C618 H636 0.932 1_545 S
C619 C620 1.384 . S
C619 C621 1.479 . S
C619 H637 0.929 . S
C620 C617 1.424 . S
C620 C619 1.384 . S
C620 H638 0.928 . S
C621 C618 1.260 . S
C621 C619 1.479 . S
C622 C617 1.245 . S
C622 C618 1.477 . S
C622 H639 0.932 1_545 S
C623 U606 2.882 . S
C623 C617 1.428 . S
C623 O626 1.301 . S
C623 O627 1.282 . S
O624 U606 2.441 1_554 S
O624 C610 1.249 . S
O625 U606 2.420 1_554 S
O625 C610 1.202 . S
O626 U606 2.455 . S
O626 C623 1.301 . S
O627 U606 2.449 . S
O627 C623 1.282 . S
H628 C601 0.931 . S
H629 C603 0.929 . S
H630 C604 0.930 . S
H631 C605 0.931 . S
H632 C612 0.932 . S
H633 C613 0.930 1_545 S
H634 C614 0.929 . S
H635 C616 0.930 . S
H636 C618 0.932 1_565 S
H637 C619 0.929 . S
H638 C620 0.928 . S
H639 C622 0.932 1_565 S
Mn640 O645 2.095 . S
Mn640 O655 2.162 . S
Mn640 O656 2.297 . S
Mn640 O664 2.385 . S
Mn640 O665 2.209 1_554 S
Mn640 O666 2.094 . S
Mn641 O646 2.121 . S
Mn641 N648 2.257 . S
Mn641 N657 2.282 . S
Mn641 O665 2.215 . S
Mn641 O667 2.117 . S
C642 O664 1.234 1_556 S
C642 O665 1.283 . S
C643 O655 1.281 . S
C643 O656 1.236 . S
C644 O666 1.240 . S
C644 O667 1.264 1_554 S
O645 Mn640 2.095 . S
O645 C654 1.250 . S
O646 Mn641 2.121 . S
O646 C654 1.258 1_556 S
C647 N648 1.326 . S
C647 C651 1.460 . S
C647 H653 0.929 . S
N648 Mn641 2.257 . S
N648 C647 1.326 . S
N648 C652 1.362 . S
C649 C650 1.258 . S
C649 C652 1.431 . S
C649 C669 1.449 . S
C650 C649 1.258 . S
C650 C651 1.477 . S
C650 H670 0.931 . S
C651 C647 1.460 . S
C651 C650 1.477 . S
C651 H671 0.930 . S
C652 N648 1.362 . S
C652 C649 1.431 . S
C652 C662 1.476 . S
H653 C647 0.929 . S
C654 O645 1.250 . S
C654 O646 1.258 1_554 S
O655 Mn640 2.162 . S
O655 C643 1.281 . S
O656 Mn640 2.297 . S
O656 C643 1.236 . S
N657 Mn641 2.282 . S
N657 C658 1.328 . S
N657 C662 1.318 . S
C658 N657 1.328 . S
C658 C659 1.457 . S
C658 H663 0.929 . S
C659 C658 1.457 . S
C659 C660 1.291 . S
C659 H672 0.931 . S
C660 C659 1.291 . S
C660 C661 1.373 . S
C660 H673 0.929 . S
C661 C660 1.373 . S
C661 C662 1.396 . S
C661 C668 1.403 . S
C662 C652 1.476 . S
C662 N657 1.318 . S
C662 C661 1.396 . S
H663 C658 0.929 . S
O664 Mn640 2.385 . S
O664 C642 1.234 1_554 S
O665 Mn640 2.209 1_556 S
O665 Mn641 2.215 . S
O665 C642 1.283 . S
O666 Mn640 2.094 . S
O666 C644 1.240 . S
O667 Mn641 2.117 . S
O667 C644 1.264 1_556 S
C668 C661 1.403 . S
C668 C669 1.399 . S
C668 H674 0.929 . S
C669 C649 1.449 . S
C669 C668 1.399 . S
C669 H675 0.930 . S
H670 C650 0.931 . S
H671 C651 0.930 . S
H672 C659 0.931 . S
H673 C660 0.929 . S
H674 C668 0.929 . S
H675 C669 0.930 . S
Mn676 O681 2.095 . S
Mn676 O691 2.162 . S
Mn676 O692 2.297 . S
Mn676 O700 2.385 . S
Mn676 O701 2.209 . S
Mn676 O702 2.094 . S
Mn677 O682 2.121 . S
Mn677 N684 2.257 . S
Mn677 N693 2.282 . S
Mn677 O701 2.215 . S
Mn677 O703 2.117 . S
C678 O700 1.234 . S
C678 O701 1.283 . S
C679 O691 1.281 . S
C679 O692 1.236 . S
C680 O702 1.240 . S
C680 O703 1.264 . S
O681 Mn676 2.095 . S
O681 C690 1.250 . S
O682 Mn677 2.121 . S
O682 C690 1.258 . S
C683 N684 1.326 . S
C683 C687 1.460 . S
C683 H689 0.929 . S
N684 Mn677 2.257 . S
N684 C683 1.326 . S
N684 C688 1.362 . S
C685 C686 1.258 . S
C685 C688 1.431 . S
C685 C705 1.449 . S
C686 C685 1.258 . S
C686 C687 1.477 . S
C686 H706 0.931 . S
C687 C683 1.460 . S
C687 C686 1.477 . S
C687 H707 0.930 . S
C688 N684 1.362 . S
C688 C685 1.431 . S
C688 C698 1.476 . S
H689 C683 0.929 . S
C690 O681 1.250 . S
C690 O682 1.258 . S
O691 Mn676 2.162 . S
O691 C679 1.281 . S
O692 Mn676 2.297 . S
O692 C679 1.236 . S
N693 Mn677 2.282 . S
N693 C694 1.328 . S
N693 C698 1.318 . S
C694 N693 1.328 . S
C694 C695 1.457 . S
C694 H699 0.929 . S
C695 C694 1.457 . S
C695 C696 1.291 . S
C695 H708 0.931 . S
C696 C695 1.291 . S
C696 C697 1.373 . S
C696 H709 0.929 . S
C697 C696 1.373 . S
C697 C698 1.396 . S
C697 C704 1.403 . S
C698 C688 1.476 . S
C698 N693 1.318 . S
C698 C697 1.396 . S
H699 C694 0.929 . S
O700 Mn676 2.385 . S
O700 C678 1.234 . S
O701 Mn676 2.209 . S
O701 Mn677 2.215 . S
O701 C678 1.283 . S
O702 Mn676 2.094 . S
O702 C680 1.240 . S
O703 Mn677 2.117 . S
O703 C680 1.264 . S
C704 C697 1.403 . S
C704 C705 1.399 . S
C704 H710 0.929 . S
C705 C685 1.449 . S
C705 C704 1.399 . S
C705 H711 0.930 . S
H706 C686 0.931 . S
H707 C687 0.930 . S
H708 C695 0.931 . S
H709 C696 0.929 . S
H710 C704 0.929 . S
H711 C705 0.930 . S
Mn712 O717 2.095 1_554 S
Mn712 O727 2.162 . S
Mn712 O728 2.297 1_554 S
Mn712 O736 2.385 . S
Mn712 O737 2.209 1_554 S
Mn712 O738 2.094 . S
Mn713 O718 2.121 . S
Mn713 N720 2.257 . S
Mn713 N729 2.282 . S
Mn713 O737 2.215 . S
Mn713 O739 2.117 1_556 S
C714 O736 1.197 1_556 S
C714 O737 1.310 . S
C715 O727 1.281 . S
C715 O728 1.236 1_554 S
C716 O738 1.240 . S
C716 O739 1.264 . S
O717 Mn712 2.095 1_556 S
O717 C726 1.250 . S
O718 Mn713 2.121 . S
O718 C726 1.258 . S
C719 N720 1.326 . S
C719 C723 1.460 . S
C719 H725 0.929 . S
N720 Mn713 2.257 . S
N720 C719 1.326 . S
N720 C724 1.362 . S
C721 C722 1.258 . S
C721 C724 1.431 . S
C721 C741 1.449 . S
C722 C721 1.258 . S
C722 C723 1.477 . S
C722 H742 0.931 . S
C723 C719 1.460 . S
C723 C722 1.477 . S
C723 H743 0.930 . S
C724 N720 1.362 . S
C724 C721 1.431 . S
C724 C734 1.476 . S
H725 C719 0.929 . S
C726 O717 1.250 . S
C726 O718 1.258 . S
O727 Mn712 2.162 . S
O727 C715 1.281 . S
O728 Mn712 2.297 1_556 S
O728 C715 1.236 1_556 S
N729 Mn713 2.282 . S
N729 C730 1.328 1_556 S
N729 C734 1.318 . S
C730 N729 1.328 1_554 S
C730 C731 1.457 . S
C730 H735 0.929 . S
C731 C730 1.457 . S
C731 C732 1.291 . S
C731 H744 0.931 . S
C732 C731 1.291 . S
C732 C733 1.373 1_554 S
C732 H745 0.929 . S
C733 C732 1.373 1_556 S
C733 C734 1.396 . S
C733 C740 1.403 . S
C734 C724 1.476 . S
C734 N729 1.318 . S
C734 C733 1.396 . S
H735 C730 0.929 . S
O736 Mn712 2.385 . S
O736 C714 1.197 1_554 S
O737 Mn712 2.209 1_556 S
O737 Mn713 2.215 . S
O737 C714 1.310 . S
O738 Mn712 2.094 . S
O738 C716 1.240 . S
O739 Mn713 2.117 1_554 S
O739 C716 1.264 . S
C740 C733 1.403 . S
C740 C741 1.399 . S
C740 H746 0.929 . S
C741 C721 1.449 . S
C741 C740 1.399 . S
C741 H747 0.930 . S
H742 C722 0.931 . S
H743 C723 0.930 . S
H744 C731 0.931 . S
H745 C732 0.929 . S
H746 C740 0.929 . S
H747 C741 0.930 . S
Mn748 O753 2.095 . S
Mn748 O763 2.162 . S
Mn748 O764 2.297 . S
Mn748 O772 2.385 1_545 S
Mn748 O773 2.209 1_545 S
Mn748 O774 2.094 . S
Mn749 O754 2.121 . S
Mn749 N756 2.257 . S
Mn749 N765 2.282 . S
Mn749 O773 2.215 . S
Mn749 O775 2.117 . S
C750 O772 1.234 . S
C750 O773 1.283 . S
C751 O763 1.281 . S
C751 O764 1.236 . S
C752 O774 1.240 . S
C752 O775 1.264 1_545 S
O753 Mn748 2.095 . S
O753 C762 1.250 1_545 S
O754 Mn749 2.121 . S
O754 C762 1.258 . S
C755 N756 1.326 . S
C755 C759 1.460 . S
C755 H761 0.929 . S
N756 Mn749 2.257 . S
N756 C755 1.326 . S
N756 C760 1.362 . S
C757 C758 1.258 . S
C757 C760 1.431 . S
C757 C777 1.449 . S
C758 C757 1.258 . S
C758 C759 1.477 . S
C758 H778 0.931 . S
C759 C755 1.460 . S
C759 C758 1.477 . S
C759 H779 0.930 . S
C760 N756 1.362 . S
C760 C757 1.431 . S
C760 C770 1.476 . S
H761 C755 0.929 . S
C762 O753 1.250 1_565 S
C762 O754 1.258 . S
O763 Mn748 2.162 . S
O763 C751 1.281 . S
O764 Mn748 2.297 . S
O764 C751 1.236 . S
N765 Mn749 2.282 . S
N765 C766 1.328 . S
N765 C770 1.318 . S
C766 N765 1.328 . S
C766 C767 1.457 . S
C766 H771 0.929 . S
C767 C766 1.457 . S
C767 C768 1.291 . S
C767 H780 0.931 . S
C768 C767 1.291 . S
C768 C769 1.373 . S
C768 H781 0.929 . S
C769 C768 1.373 . S
C769 C770 1.396 . S
C769 C776 1.403 . S
C770 C760 1.476 . S
C770 N765 1.318 . S
C770 C769 1.396 . S
H771 C766 0.929 . S
O772 Mn748 2.385 1_565 S
O772 C750 1.234 . S
O773 Mn748 2.209 1_565 S
O773 Mn749 2.215 . S
O773 C750 1.283 . S
O774 Mn748 2.094 . S
O774 C752 1.240 . S
O775 Mn749 2.117 . S
O775 C752 1.264 1_565 S
C776 C769 1.403 . S
C776 C777 1.399 . S
C776 H782 0.929 . S
C777 C757 1.449 . S
C777 C776 1.399 . S
C777 H783 0.930 . S
H778 C758 0.931 . S
H779 C759 0.930 . S
H780 C767 0.931 . S
H781 C768 0.929 . S
H782 C776 0.929 . S
H783 C777 0.930 . S
Mn784 O789 2.095 . S
Mn784 O799 2.162 . S
Mn784 O800 2.297 . S
Mn784 O808 2.385 . S
Mn784 O809 2.209 . S
Mn784 O810 2.094 . S
Mn785 O790 2.121 . S
Mn785 N792 2.257 . S
Mn785 N801 2.282 . S
Mn785 O809 2.215 . S
Mn785 O811 2.117 . S
C786 O808 1.234 . S
C786 O809 1.283 . S
C787 O799 1.281 . S
C787 O800 1.236 . S
C788 O810 1.240 . S
C788 O811 1.264 . S
O789 Mn784 2.095 . S
O789 C798 1.250 . S
O790 Mn785 2.121 . S
O790 C798 1.258 . S
C791 N792 1.326 . S
C791 C795 1.460 . S
C791 H797 0.929 . S
N792 Mn785 2.257 . S
N792 C791 1.326 . S
N792 C796 1.362 . S
C793 C794 1.258 . S
C793 C796 1.431 . S
C793 C813 1.449 . S
C794 C793 1.258 . S
C794 C795 1.477 . S
C794 H814 0.931 . S
C795 C791 1.460 . S
C795 C794 1.477 . S
C795 H815 0.930 . S
C796 N792 1.362 . S
C796 C793 1.431 . S
C796 C806 1.476 . S
H797 C791 0.929 . S
C798 O789 1.250 . S
C798 O790 1.258 . S
O799 Mn784 2.162 . S
O799 C787 1.281 . S
O800 Mn784 2.297 . S
O800 C787 1.236 . S
N801 Mn785 2.282 . S
N801 C802 1.328 . S
N801 C806 1.318 . S
C802 N801 1.328 . S
C802 C803 1.457 . S
C802 H807 0.929 . S
C803 C802 1.457 . S
C803 C804 1.291 . S
C803 H816 0.931 . S
C804 C803 1.291 . S
C804 C805 1.373 . S
C804 H817 0.929 . S
C805 C804 1.373 . S
C805 C806 1.396 . S
C805 C812 1.403 . S
C806 C796 1.476 . S
C806 N801 1.318 . S
C806 C805 1.396 . S
H807 C802 0.929 . S
O808 Mn784 2.385 . S
O808 C786 1.234 . S
O809 Mn784 2.209 . S
O809 Mn785 2.215 . S
O809 C786 1.283 . S
O810 Mn784 2.094 . S
O810 C788 1.240 . S
O811 Mn785 2.117 . S
O811 C788 1.264 . S
C812 C805 1.403 . S
C812 C813 1.399 . S
C812 H818 0.929 . S
C813 C793 1.449 . S
C813 C812 1.399 . S
C813 H819 0.930 . S
H814 C794 0.931 . S
H815 C795 0.930 . S
H816 C803 0.931 . S
H817 C804 0.929 . S
H818 C812 0.929 . S
H819 C813 0.930 . S
Mn820 O825 2.095 . S
Mn820 O835 2.162 . S
Mn820 O836 2.297 . S
Mn820 O844 2.385 . S
Mn820 O845 2.209 . S
Mn820 O846 2.094 . S
Mn821 O826 2.121 . S
Mn821 N828 2.257 . S
Mn821 N837 2.282 . S
Mn821 O845 2.215 . S
Mn821 O847 2.117 . S
C822 O844 1.234 . S
C822 O845 1.283 . S
C823 O835 1.281 . S
C823 O836 1.236 . S
C824 O846 1.240 . S
C824 O847 1.264 . S
O825 Mn820 2.095 . S
O825 C834 1.250 . S
O826 Mn821 2.121 . S
O826 C834 1.258 . S
C827 N828 1.326 . S
C827 C831 1.460 . S
C827 H833 0.929 . S
N828 Mn821 2.257 . S
N828 C827 1.326 . S
N828 C832 1.362 . S
C829 C830 1.258 . S
C829 C832 1.431 . S
C829 C849 1.449 . S
C830 C829 1.258 . S
C830 C831 1.477 . S
C830 H850 0.931 . S
C831 C827 1.460 . S
C831 C830 1.477 . S
C831 H851 0.930 . S
C832 N828 1.362 . S
C832 C829 1.431 . S
C832 C842 1.476 . S
H833 C827 0.929 . S
C834 O825 1.250 . S
C834 O826 1.258 . S
O835 Mn820 2.162 . S
O835 C823 1.281 . S
O836 Mn820 2.297 . S
O836 C823 1.236 . S
N837 Mn821 2.282 . S
N837 C838 1.328 . S
N837 C842 1.318 . S
C838 N837 1.328 . S
C838 C839 1.457 . S
C838 H843 0.929 . S
C839 C838 1.457 . S
C839 C840 1.291 . S
C839 H852 0.931 . S
C840 C839 1.291 . S
C840 C841 1.373 . S
C840 H853 0.929 . S
C841 C840 1.373 . S
C841 C842 1.396 . S
C841 C848 1.403 . S
C842 C832 1.476 . S
C842 N837 1.318 . S
C842 C841 1.396 . S
H843 C838 0.929 . S
O844 Mn820 2.385 . S
O844 C822 1.234 . S
O845 Mn820 2.209 . S
O845 Mn821 2.215 . S
O845 C822 1.283 . S
O846 Mn820 2.094 . S
O846 C824 1.240 . S
O847 Mn821 2.117 . S
O847 C824 1.264 . S
C848 C841 1.403 . S
C848 C849 1.399 . S
C848 H854 0.929 . S
C849 C829 1.449 . S
C849 C848 1.399 . S
C849 H855 0.930 . S
H850 C830 0.931 . S
H851 C831 0.930 . S
H852 C839 0.931 . S
H853 C840 0.929 . S
H854 C848 0.929 . S
H855 C849 0.930 . S
Mn856 O861 2.095 . S
Mn856 O871 2.162 . S
Mn856 O872 2.297 . S
Mn856 O880 2.385 . S
Mn856 O881 2.209 . S
Mn856 O882 2.094 . S
Mn857 O862 2.121 . S
Mn857 N864 2.257 . S
Mn857 N873 2.282 . S
Mn857 O881 2.215 . S
Mn857 O883 2.117 . S
C858 O880 1.234 . S
C858 O881 1.283 . S
C859 O871 1.281 . S
C859 O872 1.236 . S
C860 O882 1.240 . S
C860 O883 1.264 . S
O861 Mn856 2.095 . S
O861 C870 1.250 . S
O862 Mn857 2.121 . S
O862 C870 1.258 . S
C863 N864 1.326 . S
C863 C867 1.460 . S
C863 H869 0.929 . S
N864 Mn857 2.257 . S
N864 C863 1.326 . S
N864 C868 1.362 . S
C865 C866 1.258 . S
C865 C868 1.431 . S
C865 C885 1.449 . S
C866 C865 1.258 . S
C866 C867 1.477 . S
C866 H886 0.931 . S
C867 C863 1.460 . S
C867 C866 1.477 . S
C867 H887 0.930 . S
C868 N864 1.362 . S
C868 C865 1.431 . S
C868 C878 1.476 . S
H869 C863 0.929 . S
C870 O861 1.250 . S
C870 O862 1.258 . S
O871 Mn856 2.162 . S
O871 C859 1.281 . S
O872 Mn856 2.297 . S
O872 C859 1.236 . S
N873 Mn857 2.282 . S
N873 C874 1.328 . S
N873 C878 1.318 . S
C874 N873 1.328 . S
C874 C875 1.457 . S
C874 H879 0.929 . S
C875 C874 1.457 . S
C875 C876 1.291 . S
C875 H888 0.931 . S
C876 C875 1.291 . S
C876 C877 1.373 . S
C876 H889 0.929 . S
C877 C876 1.373 . S
C877 C878 1.396 . S
C877 C884 1.403 . S
C878 C868 1.476 . S
C878 N873 1.318 . S
C878 C877 1.396 . S
H879 C874 0.929 . S
O880 Mn856 2.385 . S
O880 C858 1.234 . S
O881 Mn856 2.209 . S
O881 Mn857 2.215 . S
O881 C858 1.283 . S
O882 Mn856 2.094 . S
O882 C860 1.240 . S
O883 Mn857 2.117 . S
O883 C860 1.264 . S
C884 C877 1.403 . S
C884 C885 1.399 . S
C884 H890 0.929 . S
C885 C865 1.449 . S
C885 C884 1.399 . S
C885 H891 0.930 . S
H886 C866 0.931 . S
H887 C867 0.930 . S
H888 C875 0.931 . S
H889 C876 0.929 . S
H890 C884 0.929 . S
H891 C885 0.930 . S
Mn892 O897 2.095 . S
Mn892 O907 2.162 . S
Mn892 O908 2.297 . S
Mn892 O916 2.385 1_565 S
Mn892 O917 2.209 1_565 S
Mn892 O918 2.094 . S
Mn893 O898 2.121 . S
Mn893 N900 2.257 . S
Mn893 N909 2.282 . S
Mn893 O917 2.215 . S
Mn893 O919 2.117 . S
C894 O916 1.234 . S
C894 O917 1.283 . S
C895 O907 1.281 . S
C895 O908 1.236 . S
C896 O918 1.221 1_545 S
C896 O919 1.289 . S
O897 Mn892 2.095 . S
O897 C906 1.250 1_565 S
O898 Mn893 2.121 . S
O898 C906 1.258 . S
C899 N900 1.326 . S
C899 C903 1.460 . S
C899 H905 0.929 . S
N900 Mn893 2.257 . S
N900 C899 1.326 . S
N900 C904 1.362 . S
C901 C902 1.258 . S
C901 C904 1.431 . S
C901 C921 1.449 . S
C902 C901 1.258 . S
C902 C903 1.477 . S
C902 H922 0.931 . S
C903 C899 1.460 . S
C903 C902 1.477 . S
C903 H923 0.930 . S
C904 N900 1.362 . S
C904 C901 1.431 . S
C904 C914 1.476 . S
H905 C899 0.929 . S
C906 O897 1.250 1_545 S
C906 O898 1.258 . S
O907 Mn892 2.162 . S
O907 C895 1.281 . S
O908 Mn892 2.297 . S
O908 C895 1.236 . S
N909 Mn893 2.282 . S
N909 C910 1.328 . S
N909 C914 1.318 . S
C910 N909 1.328 . S
C910 C911 1.457 . S
C910 H915 0.929 . S
C911 C910 1.457 . S
C911 C912 1.291 . S
C911 H924 0.931 . S
C912 C911 1.291 . S
C912 C913 1.373 . S
C912 H925 0.929 . S
C913 C912 1.373 . S
C913 C914 1.396 . S
C913 C920 1.403 . S
C914 C904 1.476 . S
C914 N909 1.318 . S
C914 C913 1.396 . S
H915 C910 0.929 . S
O916 Mn892 2.385 1_545 S
O916 C894 1.234 . S
O917 Mn892 2.209 1_545 S
O917 Mn893 2.215 . S
O917 C894 1.283 . S
O918 Mn892 2.094 . S
O918 C896 1.221 1_565 S
O919 Mn893 2.117 . S
O919 C896 1.289 . S
C920 C913 1.403 . S
C920 C921 1.399 . S
C920 H926 0.929 . S
C921 C901 1.449 . S
C921 C920 1.399 . S
C921 H927 0.930 . S
H922 C902 0.931 . S
H923 C903 0.930 . S
H924 C911 0.931 . S
H925 C912 0.929 . S
H926 C920 0.929 . S
H927 C921 0.930 . S
Mn928 O933 2.095 . S
Mn928 O943 2.162 . S
Mn928 O944 2.297 . S
Mn928 O952 2.385 1_455 S
Mn928 O953 2.209 1_455 S
Mn928 O954 2.094 . S
Mn929 O934 2.121 . S
Mn929 N936 2.257 . S
Mn929 N945 2.282 . S
Mn929 O953 2.215 . S
Mn929 O955 2.117 . S
C930 O952 1.234 . S
C930 O953 1.283 . S
C931 O943 1.281 . S
C931 O944 1.236 . S
C932 O954 1.240 . S
C932 O955 1.264 1_455 S
O933 Mn928 2.095 . S
O933 C942 1.250 1_455 S
O934 Mn929 2.121 . S
O934 C942 1.258 . S
C935 N936 1.326 . S
C935 C939 1.460 . S
C935 H941 0.929 . S
N936 Mn929 2.257 . S
N936 C935 1.326 . S
N936 C940 1.362 . S
C937 C938 1.258 . S
C937 C940 1.431 . S
C937 C957 1.449 . S
C938 C937 1.258 . S
C938 C939 1.477 . S
C938 H958 0.931 . S
C939 C935 1.460 . S
C939 C938 1.477 . S
C939 H959 0.930 . S
C940 N936 1.362 . S
C940 C937 1.431 . S
C940 C950 1.476 . S
H941 C935 0.929 . S
C942 O933 1.250 1_655 S
C942 O934 1.258 . S
O943 Mn928 2.162 . S
O943 C931 1.281 . S
O944 Mn928 2.297 . S
O944 C931 1.236 . S
N945 Mn929 2.282 . S
N945 C946 1.328 . S
N945 C950 1.318 . S
C946 N945 1.328 . S
C946 C947 1.457 . S
C946 H951 0.929 . S
C947 C946 1.457 . S
C947 C948 1.291 . S
C947 H960 0.931 . S
C948 C947 1.291 . S
C948 C949 1.373 . S
C948 H961 0.929 . S
C949 C948 1.373 . S
C949 C950 1.396 . S
C949 C956 1.403 . S
C950 C940 1.476 . S
C950 N945 1.318 . S
C950 C949 1.396 . S
H951 C946 0.929 . S
O952 Mn928 2.385 1_655 S
O952 C930 1.234 . S
O953 Mn928 2.209 1_655 S
O953 Mn929 2.215 . S
O953 C930 1.283 . S
O954 Mn928 2.094 . S
O954 C932 1.240 . S
O955 Mn929 2.117 . S
O955 C932 1.264 1_655 S
C956 C949 1.403 . S
C956 C957 1.399 . S
C956 H962 0.929 . S
C957 C937 1.449 . S
C957 C956 1.399 . S
C957 H963 0.930 . S
H958 C938 0.931 . S
H959 C939 0.930 . S
H960 C947 0.931 . S
H961 C948 0.929 . S
H962 C956 0.929 . S
H963 C957 0.930 . S
Mn964 O969 2.095 . S
Mn964 O979 2.162 . S
Mn964 O980 2.297 . S
Mn964 O988 2.385 . S
Mn964 O989 2.209 . S
Mn964 O990 2.094 . S
Mn965 O970 2.121 . S
Mn965 N972 2.257 . S
Mn965 N981 2.282 . S
Mn965 O989 2.215 . S
Mn965 O991 2.117 . S
C966 O988 1.234 . S
C966 O989 1.283 . S
C967 O979 1.281 . S
C967 O980 1.236 . S
C968 O990 1.240 . S
C968 O991 1.264 . S
O969 Mn964 2.095 . S
O969 C978 1.250 . S
O970 Mn965 2.121 . S
O970 C978 1.258 . S
C971 N972 1.326 . S
C971 C975 1.460 . S
C971 H977 0.929 . S
N972 Mn965 2.257 . S
N972 C971 1.326 . S
N972 C976 1.362 . S
C973 C974 1.258 . S
C973 C976 1.431 . S
C973 C993 1.449 . S
C974 C973 1.258 . S
C974 C975 1.477 . S
C974 H994 0.931 . S
C975 C971 1.460 . S
C975 C974 1.477 . S
C975 H995 0.930 . S
C976 N972 1.362 . S
C976 C973 1.431 . S
C976 C986 1.476 . S
H977 C971 0.929 . S
C978 O969 1.250 . S
C978 O970 1.258 . S
O979 Mn964 2.162 . S
O979 C967 1.281 . S
O980 Mn964 2.297 . S
O980 C967 1.236 . S
N981 Mn965 2.282 . S
N981 C982 1.328 . S
N981 C986 1.318 . S
C982 N981 1.328 . S
C982 C983 1.457 . S
C982 H987 0.929 . S
C983 C982 1.457 . S
C983 C984 1.291 . S
C983 H996 0.931 . S
C984 C983 1.291 . S
C984 C985 1.373 . S
C984 H997 0.929 . S
C985 C984 1.373 . S
C985 C986 1.396 . S
C985 C992 1.403 . S
C986 C976 1.476 . S
C986 N981 1.318 . S
C986 C985 1.396 . S
H987 C982 0.929 . S
O988 Mn964 2.385 . S
O988 C966 1.234 . S
O989 Mn964 2.209 . S
O989 Mn965 2.215 . S
O989 C966 1.283 . S
O990 Mn964 2.094 . S
O990 C968 1.240 . S
O991 Mn965 2.117 . S
O991 C968 1.264 . S
C992 C985 1.403 . S
C992 C993 1.399 . S
C992 H998 0.929 . S
C993 C973 1.449 . S
C993 C992 1.399 . S
C993 H999 0.930 . S
H994 C974 0.931 . S
H995 C975 0.930 . S
H996 C983 0.931 . S
H997 C984 0.929 . S
H998 C992 0.929 . S
H999 C993 0.930 . S
Mn1000 O1005 2.095 1_455 S
Mn1000 O1015 2.162 . S
Mn1000 O1016 2.297 1_455 S
Mn1000 O1024 2.385 . S
Mn1000 O1025 2.209 1_455 S
Mn1000 O1026 2.094 . S
Mn1001 O1006 2.121 . S
Mn1001 N1008 2.257 . S
Mn1001 N1017 2.282 1_655 S
Mn1001 O1025 2.215 . S
Mn1001 O1027 2.117 1_655 S
C1002 O1024 1.234 . S
C1002 O1025 1.283 1_455 S
C1003 O1015 1.281 . S
C1003 O1016 1.236 1_455 S
C1004 O1026 1.240 . S
C1004 O1027 1.264 . S
O1005 Mn1000 2.095 1_655 S
O1005 C1014 1.250 . S
O1006 Mn1001 2.121 . S
O1006 C1014 1.258 . S
C1007 N1008 1.326 . S
C1007 C1011 1.460 . S
C1007 H1013 0.929 . S
N1008 Mn1001 2.257 . S
N1008 C1007 1.326 . S
N1008 C1012 1.362 . S
C1009 C1010 1.258 . S
C1009 C1012 1.431 . S
C1009 C1029 1.449 . S
C1010 C1009 1.258 . S
C1010 C1011 1.477 . S
C1010 H1030 0.931 . S
C1011 C1007 1.460 . S
C1011 C1010 1.477 . S
C1011 H1031 0.930 . S
C1012 N1008 1.362 . S
C1012 C1009 1.431 . S
C1012 C1022 1.476 . S
H1013 C1007 0.929 . S
C1014 O1005 1.250 . S
C1014 O1006 1.258 . S
O1015 Mn1000 2.162 . S
O1015 C1003 1.281 . S
O1016 Mn1000 2.297 1_655 S
O1016 C1003 1.236 1_655 S
N1017 Mn1001 2.282 1_455 S
N1017 C1018 1.328 . S
N1017 C1022 1.318 1_455 S
C1018 N1017 1.328 . S
C1018 C1019 1.457 . S
C1018 H1023 0.929 . S
C1019 C1018 1.457 . S
C1019 C1020 1.291 . S
C1019 H1032 0.931 . S
C1020 C1019 1.291 . S
C1020 C1021 1.373 1_455 S
C1020 H1033 0.929 . S
C1021 C1020 1.373 1_655 S
C1021 C1022 1.396 . S
C1021 C1028 1.403 . S
C1022 C1012 1.476 . S
C1022 N1017 1.318 1_655 S
C1022 C1021 1.396 . S
H1023 C1018 0.929 . S
O1024 Mn1000 2.385 . S
O1024 C1002 1.234 . S
O1025 Mn1000 2.209 1_655 S
O1025 Mn1001 2.215 . S
O1025 C1002 1.283 1_655 S
O1026 Mn1000 2.094 . S
O1026 C1004 1.240 . S
O1027 Mn1001 2.117 1_455 S
O1027 C1004 1.264 . S
C1028 C1021 1.403 . S
C1028 C1029 1.399 . S
C1028 H1034 0.929 . S
C1029 C1009 1.449 . S
C1029 C1028 1.399 . S
C1029 H1035 0.930 . S
H1030 C1010 0.931 . S
H1031 C1011 0.930 . S
H1032 C1019 0.931 . S
H1033 C1020 0.929 . S
H1034 C1028 0.929 . S
H1035 C1029 0.930 . S
Mn1036 O1041 2.095 . S
Mn1036 O1051 2.162 . S
Mn1036 O1052 2.297 . S
Mn1036 O1060 2.385 . S
Mn1036 O1061 2.209 . S
Mn1036 O1062 2.094 . S
Mn1037 O1042 2.121 . S
Mn1037 N1044 2.257 . S
Mn1037 N1053 2.282 . S
Mn1037 O1061 2.215 . S
Mn1037 O1063 2.117 . S
C1038 O1060 1.234 . S
C1038 O1061 1.283 . S
C1039 O1051 1.281 . S
C1039 O1052 1.236 . S
C1040 O1062 1.240 . S
C1040 O1063 1.264 . S
O1041 Mn1036 2.095 . S
O1041 C1050 1.250 . S
O1042 Mn1037 2.121 . S
O1042 C1050 1.258 . S
C1043 N1044 1.326 . S
C1043 C1047 1.460 . S
C1043 H1049 0.929 . S
N1044 Mn1037 2.257 . S
N1044 C1043 1.326 . S
N1044 C1048 1.362 . S
C1045 C1046 1.258 . S
C1045 C1048 1.431 . S
C1045 C1065 1.449 . S
C1046 C1045 1.258 . S
C1046 C1047 1.477 . S
C1046 H1066 0.931 . S
C1047 C1043 1.460 . S
C1047 C1046 1.477 . S
C1047 H1067 0.930 . S
C1048 N1044 1.362 . S
C1048 C1045 1.431 . S
C1048 C1058 1.476 . S
H1049 C1043 0.929 . S
C1050 O1041 1.250 . S
C1050 O1042 1.258 . S
O1051 Mn1036 2.162 . S
O1051 C1039 1.281 . S
O1052 Mn1036 2.297 . S
O1052 C1039 1.236 . S
N1053 Mn1037 2.282 . S
N1053 C1054 1.328 . S
N1053 C1058 1.318 . S
C1054 N1053 1.328 . S
C1054 C1055 1.457 . S
C1054 H1059 0.929 . S
C1055 C1054 1.457 . S
C1055 C1056 1.291 . S
C1055 H1068 0.931 . S
C1056 C1055 1.291 . S
C1056 C1057 1.373 . S
C1056 H1069 0.929 . S
C1057 C1056 1.373 . S
C1057 C1058 1.396 . S
C1057 C1064 1.403 . S
C1058 C1048 1.476 . S
C1058 N1053 1.318 . S
C1058 C1057 1.396 . S
H1059 C1054 0.929 . S
O1060 Mn1036 2.385 . S
O1060 C1038 1.234 . S
O1061 Mn1036 2.209 . S
O1061 Mn1037 2.215 . S
O1061 C1038 1.283 . S
O1062 Mn1036 2.094 . S
O1062 C1040 1.240 . S
O1063 Mn1037 2.117 . S
O1063 C1040 1.264 . S
C1064 C1057 1.403 . S
C1064 C1065 1.399 . S
C1064 H1070 0.929 . S
C1065 C1045 1.449 . S
C1065 C1064 1.399 . S
C1065 H1071 0.930 . S
H1066 C1046 0.931 . S
H1067 C1047 0.930 . S
H1068 C1055 0.931 . S
H1069 C1056 0.929 . S
H1070 C1064 0.929 . S
H1071 C1065 0.930 . S
C1072 C1073 1.363 . S
C1072 C1078 1.379 . S
C1072 N1080 1.356 . S
C1073 C1072 1.363 . S
C1073 C1079 1.363 . S
C1074 C1075 1.363 . S
C1074 C1079 1.379 . S
C1074 N1081 1.356 . S
C1075 C1074 1.363 . S
C1075 C1078 1.363 . S
N1076 C1078 1.356 . S
N1076 H1088 0.984 . S
N1076 H1089 0.985 . S
N1077 C1079 1.356 . S
N1077 H1082 0.984 . S
N1077 H1083 0.985 . S
C1078 C1072 1.379 . S
C1078 C1075 1.363 . S
C1078 N1076 1.356 . S
C1079 C1073 1.363 . S
C1079 C1074 1.379 . S
C1079 N1077 1.356 . S
N1080 C1072 1.356 . S
N1080 H1086 0.984 . S
N1080 H1087 0.984 . S
N1081 C1074 1.356 . S
N1081 H1084 0.986 . S
N1081 H1085 0.985 1_556 S
H1082 N1077 0.984 . S
H1083 N1077 0.985 . S
H1084 N1081 0.986 . S
H1085 N1081 0.985 1_554 S
H1086 N1080 0.984 . S
H1087 N1080 0.984 . S
H1088 N1076 0.984 . S
H1089 N1076 0.985 . S
C1090 C1091 1.363 . S
C1090 C1096 1.379 . S
C1090 N1098 1.356 . S
C1091 C1090 1.363 . S
C1091 C1097 1.363 . S
C1092 C1093 1.363 . S
C1092 C1097 1.379 . S
C1092 N1099 1.356 . S
C1093 C1092 1.363 . S
C1093 C1096 1.363 . S
N1094 C1096 1.356 . S
N1094 H1106 0.984 . S
N1094 H1107 0.985 . S
N1095 C1097 1.356 . S
N1095 H1100 0.984 . S
N1095 H1101 0.985 . S
C1096 C1090 1.379 . S
C1096 C1093 1.363 . S
C1096 N1094 1.356 . S
C1097 C1091 1.363 . S
C1097 C1092 1.379 . S
C1097 N1095 1.356 . S
N1098 C1090 1.356 . S
N1098 H1104 0.984 . S
N1098 H1105 0.984 . S
N1099 C1092 1.356 . S
N1099 H1102 0.984 . S
N1099 H1103 0.985 . S
H1100 N1095 0.984 . S
H1101 N1095 0.985 . S
H1102 N1099 0.984 . S
H1103 N1099 0.985 . S
H1104 N1098 0.984 . S
H1105 N1098 0.984 . S
H1106 N1094 0.984 . S
H1107 N1094 0.985 . S
C1108 C1109 1.363 . S
C1108 C1114 1.379 . S
C1108 N1116 1.356 . S
C1109 C1108 1.363 . S
C1109 C1115 1.363 . S
C1110 C1111 1.363 . S
C1110 C1115 1.379 . S
C1110 N1117 1.356 . S
C1111 C1110 1.363 . S
C1111 C1114 1.363 . S
N1112 C1114 1.356 . S
N1112 H1124 0.984 . S
N1112 H1125 0.985 . S
N1113 C1115 1.356 . S
N1113 H1118 0.984 . S
N1113 H1119 0.985 . S
C1114 C1108 1.379 . S
C1114 C1111 1.363 . S
C1114 N1112 1.356 . S
C1115 C1109 1.363 . S
C1115 C1110 1.379 . S
C1115 N1113 1.356 . S
N1116 C1108 1.356 . S
N1116 H1122 0.984 . S
N1116 H1123 0.984 . S
N1117 C1110 1.356 . S
N1117 H1120 0.984 . S
N1117 H1121 0.985 . S
H1118 N1113 0.984 . S
H1119 N1113 0.985 . S
H1120 N1117 0.984 . S
H1121 N1117 0.985 . S
H1122 N1116 0.984 . S
H1123 N1116 0.984 . S
H1124 N1112 0.984 . S
H1125 N1112 0.985 . S
C1126 C1127 1.363 . S
C1126 C1132 1.379 . S
C1126 N1134 1.356 . S
C1127 C1126 1.363 . S
C1127 C1133 1.363 1_565 S
C1128 C1129 1.371 . S
C1128 C1133 1.379 . S
C1128 N1135 1.356 . S
C1129 C1128 1.371 . S
C1129 C1132 1.353 1_545 S
N1130 C1132 1.356 . S
N1130 H1142 0.984 . S
N1130 H1143 0.985 . S
N1131 C1133 1.356 . S
N1131 H1136 0.984 . S
N1131 H1137 0.985 . S
C1132 C1126 1.379 . S
C1132 C1129 1.353 1_565 S
C1132 N1130 1.356 . S
C1133 C1127 1.363 1_545 S
C1133 C1128 1.379 . S
C1133 N1131 1.356 . S
N1134 C1126 1.356 . S
N1134 H1140 0.984 . S
N1134 H1141 0.984 . S
N1135 C1128 1.356 . S
N1135 H1138 0.984 . S
N1135 H1139 0.985 . S
H1136 N1131 0.984 . S
H1137 N1131 0.985 . S
H1138 N1135 0.984 . S
H1139 N1135 0.985 . S
H1140 N1134 0.984 . S
H1141 N1134 0.984 . S
H1142 N1130 0.984 . S
H1143 N1130 0.985 . S
C1144 C1145 1.363 . S
C1144 C1150 1.379 . S
C1144 N1152 1.356 . S
C1145 C1144 1.363 . S
C1145 C1151 1.363 . S
C1146 C1147 1.363 . S
C1146 C1151 1.379 . S
C1146 N1153 1.356 . S
C1147 C1146 1.363 . S
C1147 C1150 1.363 . S
N1148 C1150 1.356 . S
N1148 H1160 0.984 . S
N1148 H1161 0.985 . S
N1149 C1151 1.356 . S
N1149 H1154 0.984 . S
N1149 H1155 0.985 . S
C1150 C1144 1.379 . S
C1150 C1147 1.363 . S
C1150 N1148 1.356 . S
C1151 C1145 1.363 . S
C1151 C1146 1.379 . S
C1151 N1149 1.356 . S
N1152 C1144 1.356 . S
N1152 H1158 0.984 . S
N1152 H1159 0.984 . S
N1153 C1146 1.356 . S
N1153 H1156 0.984 . S
N1153 H1157 0.985 . S
H1154 N1149 0.984 . S
H1155 N1149 0.985 . S
H1156 N1153 0.984 . S
H1157 N1153 0.985 . S
H1158 N1152 0.984 . S
H1159 N1152 0.984 . S
H1160 N1148 0.984 . S
H1161 N1148 0.985 . S
C1162 C1163 1.363 . S
C1162 C1168 1.379 . S
C1162 N1170 1.356 . S
C1163 C1162 1.363 . S
C1163 C1169 1.363 . S
C1164 C1165 1.363 . S
C1164 C1169 1.379 . S
C1164 N1171 1.356 . S
C1165 C1164 1.363 . S
C1165 C1168 1.363 . S
N1166 C1168 1.356 . S
N1166 H1178 0.984 . S
N1166 H1179 0.985 . S
N1167 C1169 1.356 . S
N1167 H1172 0.984 . S
N1167 H1173 0.985 . S
C1168 C1162 1.379 . S
C1168 C1165 1.363 . S
C1168 N1166 1.356 . S
C1169 C1163 1.363 . S
C1169 C1164 1.379 . S
C1169 N1167 1.356 . S
N1170 C1162 1.356 . S
N1170 H1176 0.984 . S
N1170 H1177 0.984 . S
N1171 C1164 1.356 . S
N1171 H1174 0.984 . S
N1171 H1175 0.985 . S
H1172 N1167 0.984 . S
H1173 N1167 0.985 . S
H1174 N1171 0.984 . S
H1175 N1171 0.985 . S
H1176 N1170 0.984 . S
H1177 N1170 0.984 . S
H1178 N1166 0.984 . S
H1179 N1166 0.985 . S
C1180 C1181 1.363 . S
C1180 C1186 1.379 . S
C1180 N1188 1.356 . S
C1181 C1180 1.363 . S
C1181 C1187 1.363 . S
C1182 C1183 1.363 . S
C1182 C1187 1.379 . S
C1182 N1189 1.356 . S
C1183 C1182 1.363 . S
C1183 C1186 1.363 . S
N1184 C1186 1.356 . S
N1184 H1196 0.984 . S
N1184 H1197 0.985 . S
N1185 C1187 1.356 . S
N1185 H1190 0.984 . S
N1185 H1191 0.985 . S
C1186 C1180 1.379 . S
C1186 C1183 1.363 . S
C1186 N1184 1.356 . S
C1187 C1181 1.363 . S
C1187 C1182 1.379 . S
C1187 N1185 1.356 . S
N1188 C1180 1.356 . S
N1188 H1194 0.984 . S
N1188 H1195 0.984 . S
N1189 C1182 1.356 . S
N1189 H1192 0.984 . S
N1189 H1193 0.985 . S
H1190 N1185 0.984 . S
H1191 N1185 0.985 . S
H1192 N1189 0.984 . S
H1193 N1189 0.985 . S
H1194 N1188 0.984 . S
H1195 N1188 0.984 . S
H1196 N1184 0.984 . S
H1197 N1184 0.985 . S
C1198 C1199 1.363 . S
C1198 C1204 1.379 . S
C1198 N1206 1.356 . S
C1199 C1198 1.363 . S
C1199 C1205 1.363 . S
C1200 C1201 1.364 1_545 S
C1200 C1205 1.379 1_545 S
C1200 N1207 1.356 . S
C1201 C1200 1.364 1_565 S
C1201 C1204 1.363 . S
N1202 C1204 1.356 . S
N1202 H1214 0.984 . S
N1202 H1215 0.985 . S
N1203 C1205 1.359 . S
N1203 H1208 0.988 . S
N1203 H1209 0.978 1_565 S
C1204 C1198 1.379 . S
C1204 C1201 1.363 . S
C1204 N1202 1.356 . S
C1205 C1199 1.363 . S
C1205 C1200 1.379 1_565 S
C1205 N1203 1.359 . S
N1206 C1198 1.356 . S
N1206 H1212 0.984 . S
N1206 H1213 0.984 . S
N1207 C1200 1.356 . S
N1207 H1210 0.984 . S
N1207 H1211 0.985 . S
H1208 N1203 0.988 . S
H1209 N1203 0.978 1_545 S
H1210 N1207 0.984 . S
H1211 N1207 0.985 . S
H1212 N1206 0.984 . S
H1213 N1206 0.984 . S
H1214 N1202 0.984 . S
H1215 N1202 0.985 . S
C1216 C1217 1.363 . S
C1216 C1222 1.379 . S
C1216 N1224 1.356 . S
C1217 C1216 1.363 . S
C1217 C1223 1.363 . S
C1218 C1219 1.363 . S
C1218 C1223 1.379 . S
C1218 N1225 1.356 . S
C1219 C1218 1.363 . S
C1219 C1222 1.363 . S
N1220 C1222 1.356 . S
N1220 H1232 0.984 1_655 S
N1220 H1233 0.985 . S
N1221 C1223 1.356 . S
N1221 H1226 0.984 . S
N1221 H1227 0.985 . S
C1222 C1216 1.379 . S
C1222 C1219 1.363 . S
C1222 N1220 1.356 . S
C1223 C1217 1.363 . S
C1223 C1218 1.379 . S
C1223 N1221 1.356 . S
N1224 C1216 1.356 . S
N1224 H1230 0.984 . S
N1224 H1231 0.984 . S
N1225 C1218 1.356 . S
N1225 H1228 0.984 . S
N1225 H1229 0.985 . S
H1226 N1221 0.984 . S
H1227 N1221 0.985 . S
H1228 N1225 0.984 . S
H1229 N1225 0.985 . S
H1230 N1224 0.984 . S
H1231 N1224 0.984 . S
H1232 N1220 0.984 1_455 S
H1233 N1220 0.985 . S
C1234 C1235 1.363 . S
C1234 C1240 1.379 . S
C1234 N1242 1.356 . S
C1235 C1234 1.363 . S
C1235 C1241 1.363 . S
C1236 C1237 1.363 . S
C1236 C1241 1.379 . S
C1236 N1243 1.356 . S
C1237 C1236 1.363 . S
C1237 C1240 1.363 . S
N1238 C1240 1.356 . S
N1238 H1250 0.984 . S
N1238 H1251 0.985 . S
N1239 C1241 1.356 . S
N1239 H1244 0.984 . S
N1239 H1245 0.985 . S
C1240 C1234 1.379 . S
C1240 C1237 1.363 . S
C1240 N1238 1.356 . S
C1241 C1235 1.363 . S
C1241 C1236 1.379 . S
C1241 N1239 1.356 . S
N1242 C1234 1.356 . S
N1242 H1248 0.984 . S
N1242 H1249 0.984 . S
N1243 C1236 1.356 . S
N1243 H1246 0.984 . S
N1243 H1247 0.985 . S
H1244 N1239 0.984 . S
H1245 N1239 0.985 . S
H1246 N1243 0.984 . S
H1247 N1243 0.985 . S
H1248 N1242 0.984 . S
H1249 N1242 0.984 . S
H1250 N1238 0.984 . S
H1251 N1238 0.985 . S
C1252 C1253 1.363 . S
C1252 C1258 1.379 . S
C1252 N1260 1.356 . S
C1253 C1252 1.363 . S
C1253 C1259 1.363 . S
C1254 C1255 1.363 . S
C1254 C1259 1.379 . S
C1254 N1261 1.356 . S
C1255 C1254 1.363 . S
C1255 C1258 1.363 . S
N1256 C1258 1.356 . S
N1256 H1268 0.984 . S
N1256 H1269 0.985 . S
N1257 C1259 1.356 . S
N1257 H1262 0.984 . S
N1257 H1263 0.985 . S
C1258 C1252 1.379 . S
C1258 C1255 1.363 . S
C1258 N1256 1.356 . S
C1259 C1253 1.363 . S
C1259 C1254 1.379 . S
C1259 N1257 1.356 . S
N1260 C1252 1.356 . S
N1260 H1266 0.984 . S
N1260 H1267 0.984 . S
N1261 C1254 1.356 . S
N1261 H1264 0.984 . S
N1261 H1265 0.985 . S
H1262 N1257 0.984 . S
H1263 N1257 0.985 . S
H1264 N1261 0.984 . S
H1265 N1261 0.985 . S
H1266 N1260 0.984 . S
H1267 N1260 0.984 . S
H1268 N1256 0.984 . S
H1269 N1256 0.985 . S
C1270 C1271 1.363 . S
C1270 C1276 1.379 . S
C1270 N1278 1.356 . S
C1271 C1270 1.363 . S
C1271 C1277 1.363 . S
C1272 C1273 1.363 . S
C1272 C1277 1.379 . S
C1272 N1279 1.356 . S
C1273 C1272 1.363 . S
C1273 C1276 1.363 . S
N1274 C1276 1.356 . S
N1274 H1286 0.984 . S
N1274 H1287 0.985 . S
N1275 C1277 1.356 . S
N1275 H1280 0.984 . S
N1275 H1281 0.985 . S
C1276 C1270 1.379 . S
C1276 C1273 1.363 . S
C1276 N1274 1.356 . S
C1277 C1271 1.363 . S
C1277 C1272 1.379 . S
C1277 N1275 1.356 . S
N1278 C1270 1.356 . S
N1278 H1284 0.984 . S
N1278 H1285 0.984 . S
N1279 C1272 1.356 . S
N1279 H1282 0.984 . S
N1279 H1283 0.985 . S
H1280 N1275 0.984 . S
H1281 N1275 0.985 . S
H1282 N1279 0.984 . S
H1283 N1279 0.985 . S
H1284 N1278 0.984 . S
H1285 N1278 0.984 . S
H1286 N1274 0.984 . S
H1287 N1274 0.985 . S
C1288 C1289 1.363 . S
C1288 C1294 1.379 . S
C1288 N1296 1.356 . S
C1289 C1288 1.363 . S
C1289 C1295 1.363 . S
C1290 C1291 1.363 . S
C1290 C1295 1.379 . S
C1290 N1297 1.356 . S
C1291 C1290 1.363 . S
C1291 C1294 1.363 . S
N1292 C1294 1.356 . S
N1292 H1304 0.984 . S
N1292 H1305 0.985 . S
N1293 C1295 1.356 . S
N1293 H1298 0.984 . S
N1293 H1299 0.985 . S
C1294 C1288 1.379 . S
C1294 C1291 1.363 . S
C1294 N1292 1.356 . S
C1295 C1289 1.363 . S
C1295 C1290 1.379 . S
C1295 N1293 1.356 . S
N1296 C1288 1.356 . S
N1296 H1302 0.984 . S
N1296 H1303 0.984 . S
N1297 C1290 1.356 . S
N1297 H1300 0.984 . S
N1297 H1301 0.985 . S
H1298 N1293 0.984 . S
H1299 N1293 0.985 . S
H1300 N1297 0.984 . S
H1301 N1297 0.985 . S
H1302 N1296 0.984 . S
H1303 N1296 0.984 . S
H1304 N1292 0.984 . S
H1305 N1292 0.985 . S
C1306 C1307 1.363 . S
C1306 C1312 1.379 . S
C1306 N1314 1.356 . S
C1307 C1306 1.363 . S
C1307 C1313 1.363 . S
C1308 C1309 1.363 . S
C1308 C1313 1.379 . S
C1308 N1315 1.356 . S
C1309 C1308 1.363 . S
C1309 C1312 1.363 . S
N1310 C1312 1.356 . S
N1310 H1322 0.984 . S
N1310 H1323 0.985 . S
N1311 C1313 1.356 . S
N1311 H1316 0.984 . S
N1311 H1317 0.985 . S
C1312 C1306 1.379 . S
C1312 C1309 1.363 . S
C1312 N1310 1.356 . S
C1313 C1307 1.363 . S
C1313 C1308 1.379 . S
C1313 N1311 1.356 . S
N1314 C1306 1.356 . S
N1314 H1320 0.984 . S
N1314 H1321 0.984 . S
N1315 C1308 1.356 . S
N1315 H1318 0.984 . S
N1315 H1319 0.985 1_455 S
H1316 N1311 0.984 . S
H1317 N1311 0.985 . S
H1318 N1315 0.984 . S
H1319 N1315 0.985 1_655 S
H1320 N1314 0.984 . S
H1321 N1314 0.984 . S
H1322 N1310 0.984 . S
H1323 N1310 0.985 . S
C1324 C1325 1.363 . S
C1324 C1330 1.379 . S
C1324 N1332 1.356 . S
C1325 C1324 1.363 . S
C1325 C1331 1.363 . S
C1326 C1327 1.363 . S
C1326 C1331 1.379 . S
C1326 N1333 1.356 . S
C1327 C1326 1.363 . S
C1327 C1330 1.363 . S
N1328 C1330 1.356 . S
N1328 H1340 0.984 . S
N1328 H1341 0.985 . S
N1329 C1331 1.356 . S
N1329 H1334 0.984 . S
N1329 H1335 0.985 . S
C1330 C1324 1.379 . S
C1330 C1327 1.363 . S
C1330 N1328 1.356 . S
C1331 C1325 1.363 . S
C1331 C1326 1.379 . S
C1331 N1329 1.356 . S
N1332 C1324 1.356 . S
N1332 H1338 0.984 . S
N1332 H1339 0.984 . S
N1333 C1326 1.356 . S
N1333 H1336 0.984 . S
N1333 H1337 0.985 . S
H1334 N1329 0.984 . S
H1335 N1329 0.985 . S
H1336 N1333 0.984 . S
H1337 N1333 0.985 . S
H1338 N1332 0.984 . S
H1339 N1332 0.984 . S
H1340 N1328 0.984 . S
H1341 N1328 0.985 . S
C1342 C1343 1.367 1_455 S
C1342 C1348 1.379 . S
C1342 N1350 1.356 . S
C1343 C1342 1.367 1_655 S
C1343 C1349 1.359 . S
C1344 C1345 1.363 1_655 S
C1344 C1349 1.379 . S
C1344 N1351 1.356 . S
C1345 C1344 1.363 1_455 S
C1345 C1348 1.363 . S
N1346 C1348 1.356 . S
N1346 H1358 0.984 . S
N1346 H1359 0.985 . S
N1347 C1349 1.356 . S
N1347 H1352 0.984 . S
N1347 H1353 0.985 . S
C1348 C1342 1.379 . S
C1348 C1345 1.363 . S
C1348 N1346 1.356 . S
C1349 C1343 1.359 . S
C1349 C1344 1.379 . S
C1349 N1347 1.356 . S
N1350 C1342 1.356 . S
N1350 H1356 0.984 . S
N1350 H1357 0.984 . S
N1351 C1344 1.356 . S
N1351 H1354 0.984 . S
N1351 H1355 0.985 . S
H1352 N1347 0.984 . S
H1353 N1347 0.985 . S
H1354 N1351 0.984 . S
H1355 N1351 0.985 . S
H1356 N1350 0.984 . S
H1357 N1350 0.984 . S
H1358 N1346 0.984 . S
H1359 N1346 0.985 . S
C1360 C1361 1.363 . S
C1360 C1366 1.379 . S
C1360 N1368 1.356 . S
C1361 C1360 1.363 . S
C1361 C1367 1.363 . S
C1362 C1363 1.363 . S
C1362 C1367 1.379 . S
C1362 N1369 1.356 . S
C1363 C1362 1.363 . S
C1363 C1366 1.363 . S
N1364 C1366 1.356 . S
N1364 H1376 0.984 . S
N1364 H1377 0.985 . S
N1365 C1367 1.356 . S
N1365 H1370 0.984 . S
N1365 H1371 0.985 . S
C1366 C1360 1.379 . S
C1366 C1363 1.363 . S
C1366 N1364 1.356 . S
C1367 C1361 1.363 . S
C1367 C1362 1.379 . S
C1367 N1365 1.356 . S
N1368 C1360 1.356 . S
N1368 H1374 0.984 . S
N1368 H1375 0.984 . S
N1369 C1362 1.356 . S
N1369 H1372 0.984 . S
N1369 H1373 0.985 . S
H1370 N1365 0.984 . S
H1371 N1365 0.985 . S
H1372 N1369 0.984 . S
H1373 N1369 0.985 . S
H1374 N1368 0.984 . S
H1375 N1368 0.984 . S
H1376 N1364 0.984 . S
H1377 N1364 0.985 . S
C1378 C1379 1.363 . S
C1378 C1384 1.379 . S
C1378 N1386 1.356 . S
C1379 C1378 1.363 . S
C1379 C1385 1.363 . S
C1380 C1381 1.363 . S
C1380 C1385 1.379 . S
C1380 N1387 1.356 . S
C1381 C1380 1.363 . S
C1381 C1384 1.363 . S
N1382 C1384 1.356 . S
N1382 H1394 0.984 . S
N1382 H1395 0.985 . S
N1383 C1385 1.356 . S
N1383 H1388 0.984 . S
N1383 H1389 0.985 . S
C1384 C1378 1.379 . S
C1384 C1381 1.363 . S
C1384 N1382 1.356 . S
C1385 C1379 1.363 . S
C1385 C1380 1.379 . S
C1385 N1383 1.356 . S
N1386 C1378 1.356 . S
N1386 H1392 0.984 . S
N1386 H1393 0.984 . S
N1387 C1380 1.356 . S
N1387 H1390 0.984 . S
N1387 H1391 0.985 . S
H1388 N1383 0.984 . S
H1389 N1383 0.985 . S
H1390 N1387 0.984 . S
H1391 N1387 0.985 . S
H1392 N1386 0.984 . S
H1393 N1386 0.984 . S
H1394 N1382 0.984 . S
H1395 N1382 0.985 . S
C1396 C1397 1.363 1_554 S
C1396 C1402 1.379 . S
C1396 N1404 1.356 . S
C1397 C1396 1.363 1_556 S
C1397 C1403 1.363 . S
C1398 C1399 1.363 1_556 S
C1398 C1403 1.379 . S
C1398 N1405 1.356 . S
C1399 C1398 1.363 1_554 S
C1399 C1402 1.363 . S
N1400 C1402 1.356 . S
N1400 H1412 0.984 . S
N1400 H1413 0.985 . S
N1401 C1403 1.356 . S
N1401 H1406 0.984 . S
N1401 H1407 0.985 . S
C1402 C1396 1.379 . S
C1402 C1399 1.363 . S
C1402 N1400 1.356 . S
C1403 C1397 1.363 . S
C1403 C1398 1.379 . S
C1403 N1401 1.356 . S
N1404 C1396 1.356 . S
N1404 H1410 0.984 . S
N1404 H1411 0.984 . S
N1405 C1398 1.356 . S
N1405 H1408 0.984 . S
N1405 H1409 0.985 . S
H1406 N1401 0.984 . S
H1407 N1401 0.985 . S
H1408 N1405 0.984 . S
H1409 N1405 0.985 . S
H1410 N1404 0.984 . S
H1411 N1404 0.984 . S
H1412 N1400 0.984 . S
H1413 N1400 0.985 . S
C1414 C1415 1.363 . S
C1414 C1420 1.379 . S
C1414 N1422 1.356 . S
C1415 C1414 1.363 . S
C1415 C1421 1.363 . S
C1416 C1417 1.363 . S
C1416 C1421 1.379 . S
C1416 N1423 1.356 . S
C1417 C1416 1.363 . S
C1417 C1420 1.363 . S
N1418 C1420 1.356 . S
N1418 H1430 0.984 . S
N1418 H1431 0.985 . S
N1419 C1421 1.356 . S
N1419 H1424 0.984 . S
N1419 H1425 0.985 . S
C1420 C1414 1.379 . S
C1420 C1417 1.363 . S
C1420 N1418 1.356 . S
C1421 C1415 1.363 . S
C1421 C1416 1.379 . S
C1421 N1419 1.356 . S
N1422 C1414 1.356 . S
N1422 H1428 0.984 . S
N1422 H1429 0.984 . S
N1423 C1416 1.356 . S
N1423 H1426 0.984 . S
N1423 H1427 0.985 . S
H1424 N1419 0.984 . S
H1425 N1419 0.985 . S
H1426 N1423 0.984 . S
H1427 N1423 0.985 . S
H1428 N1422 0.984 . S
H1429 N1422 0.984 . S
H1430 N1418 0.984 . S
H1431 N1418 0.985 . S
C1432 C1433 1.363 . S
C1432 C1438 1.379 . S
C1432 N1440 1.356 . S
C1433 C1432 1.363 . S
C1433 C1439 1.363 . S
C1434 C1435 1.363 . S
C1434 C1439 1.379 . S
C1434 N1441 1.356 . S
C1435 C1434 1.363 . S
C1435 C1438 1.363 . S
N1436 C1438 1.356 . S
N1436 H1448 0.984 . S
N1436 H1449 0.985 . S
N1437 C1439 1.356 . S
N1437 H1442 0.984 . S
N1437 H1443 0.985 . S
C1438 C1432 1.379 . S
C1438 C1435 1.363 . S
C1438 N1436 1.356 . S
C1439 C1433 1.363 . S
C1439 C1434 1.379 . S
C1439 N1437 1.356 . S
N1440 C1432 1.356 . S
N1440 H1446 0.984 . S
N1440 H1447 0.984 . S
N1441 C1434 1.356 . S
N1441 H1444 0.984 . S
N1441 H1445 0.985 . S
H1442 N1437 0.984 . S
H1443 N1437 0.985 . S
H1444 N1441 0.984 . S
H1445 N1441 0.985 . S
H1446 N1440 0.984 . S
H1447 N1440 0.984 . S
H1448 N1436 0.984 . S
H1449 N1436 0.985 . S
C1450 C1451 1.363 . S
C1450 C1456 1.379 . S
C1450 N1458 1.356 . S
C1451 C1450 1.363 . S
C1451 C1457 1.363 . S
C1452 C1453 1.363 . S
C1452 C1457 1.379 . S
C1452 N1459 1.356 . S
C1453 C1452 1.363 . S
C1453 C1456 1.363 . S
N1454 C1456 1.356 . S
N1454 H1466 0.984 . S
N1454 H1467 0.985 . S
N1455 C1457 1.356 . S
N1455 H1460 0.984 . S
N1455 H1461 0.985 . S
C1456 C1450 1.379 . S
C1456 C1453 1.363 . S
C1456 N1454 1.356 . S
C1457 C1451 1.363 . S
C1457 C1452 1.379 . S
C1457 N1455 1.356 . S
N1458 C1450 1.356 . S
N1458 H1464 0.984 . S
N1458 H1465 0.984 . S
N1459 C1452 1.356 . S
N1459 H1462 0.984 . S
N1459 H1463 0.985 . S
H1460 N1455 0.984 . S
H1461 N1455 0.985 . S
H1462 N1459 0.984 . S
H1463 N1459 0.985 . S
H1464 N1458 0.984 . S
H1465 N1458 0.984 . S
H1466 N1454 0.984 . S
H1467 N1454 0.985 . S
C1468 C1469 1.363 . S
C1468 C1474 1.379 . S
C1468 N1476 1.356 . S
C1469 C1468 1.363 . S
C1469 C1475 1.363 . S
C1470 C1471 1.363 . S
C1470 C1475 1.379 . S
C1470 N1477 1.356 . S
C1471 C1470 1.363 . S
C1471 C1474 1.363 . S
N1472 C1474 1.356 . S
N1472 H1484 0.984 . S
N1472 H1485 0.985 . S
N1473 C1475 1.356 . S
N1473 H1478 0.984 . S
N1473 H1479 0.985 . S
C1474 C1468 1.379 . S
C1474 C1471 1.363 . S
C1474 N1472 1.356 . S
C1475 C1469 1.363 . S
C1475 C1470 1.379 . S
C1475 N1473 1.356 . S
N1476 C1468 1.356 . S
N1476 H1482 0.984 . S
N1476 H1483 0.984 . S
N1477 C1470 1.356 . S
N1477 H1480 0.984 . S
N1477 H1481 0.985 . S
H1478 N1473 0.984 . S
H1479 N1473 0.985 . S
H1480 N1477 0.984 . S
H1481 N1477 0.985 . S
H1482 N1476 0.984 . S
H1483 N1476 0.984 . S
H1484 N1472 0.984 . S
H1485 N1472 0.985 . S
C1486 C1487 1.363 . S
C1486 C1492 1.379 . S
C1486 N1494 1.356 . S
C1487 C1486 1.363 . S
C1487 C1493 1.363 . S
C1488 C1489 1.363 . S
C1488 C1493 1.379 . S
C1488 N1495 1.356 . S
C1489 C1488 1.363 . S
C1489 C1492 1.363 . S
N1490 C1492 1.356 . S
N1490 H1502 0.984 . S
N1490 H1503 0.985 . S
N1491 C1493 1.356 . S
N1491 H1496 0.984 . S
N1491 H1497 0.985 . S
C1492 C1486 1.379 . S
C1492 C1489 1.363 . S
C1492 N1490 1.356 . S
C1493 C1487 1.363 . S
C1493 C1488 1.379 . S
C1493 N1491 1.356 . S
N1494 C1486 1.356 . S
N1494 H1500 0.984 . S
N1494 H1501 0.984 . S
N1495 C1488 1.356 . S
N1495 H1498 0.984 . S
N1495 H1499 0.985 . S
H1496 N1491 0.984 . S
H1497 N1491 0.985 . S
H1498 N1495 0.984 . S
H1499 N1495 0.985 . S
H1500 N1494 0.984 . S
H1501 N1494 0.984 . S
H1502 N1490 0.984 . S
H1503 N1490 0.985 . S
C1504 C1505 1.363 . S
C1504 C1510 1.379 . S
C1504 N1512 1.356 . S
C1505 C1504 1.363 . S
C1505 C1511 1.363 . S
C1506 C1507 1.363 . S
C1506 C1511 1.379 . S
C1506 N1513 1.356 . S
C1507 C1506 1.363 . S
C1507 C1510 1.363 . S
N1508 C1510 1.356 . S
N1508 H1520 0.984 . S
N1508 H1521 0.985 . S
N1509 C1511 1.356 . S
N1509 H1514 0.984 . S
N1509 H1515 0.985 . S
C1510 C1504 1.379 . S
C1510 C1507 1.363 . S
C1510 N1508 1.356 . S
C1511 C1505 1.363 . S
C1511 C1506 1.379 . S
C1511 N1509 1.356 . S
N1512 C1504 1.356 . S
N1512 H1518 0.984 . S
N1512 H1519 0.984 . S
N1513 C1506 1.356 . S
N1513 H1516 0.984 . S
N1513 H1517 0.985 . S
H1514 N1509 0.984 . S
H1515 N1509 0.985 . S
H1516 N1513 0.984 . S
H1517 N1513 0.985 . S
H1518 N1512 0.984 . S
H1519 N1512 0.984 . S
H1520 N1508 0.984 . S
H1521 N1508 0.985 . S
C1522 C1523 1.363 1_565 S
C1522 C1528 1.379 . S
C1522 N1530 1.356 . S
C1523 C1522 1.363 1_545 S
C1523 C1529 1.363 . S
C1524 C1525 1.363 . S
C1524 C1529 1.379 . S
C1524 N1531 1.356 . S
C1525 C1524 1.363 . S
C1525 C1528 1.363 1_545 S
N1526 C1528 1.356 . S
N1526 H1538 0.984 . S
N1526 H1539 0.985 . S
N1527 C1529 1.356 . S
N1527 H1532 0.984 . S
N1527 H1533 0.985 . S
C1528 C1522 1.379 . S
C1528 C1525 1.363 1_565 S
C1528 N1526 1.356 . S
C1529 C1523 1.363 . S
C1529 C1524 1.379 . S
C1529 N1527 1.356 . S
N1530 C1522 1.356 . S
N1530 H1536 0.984 . S
N1530 H1537 0.984 . S
N1531 C1524 1.356 . S
N1531 H1534 0.984 . S
N1531 H1535 0.985 . S
H1532 N1527 0.984 . S
H1533 N1527 0.985 . S
H1534 N1531 0.984 . S
H1535 N1531 0.985 . S
H1536 N1530 0.984 . S
H1537 N1530 0.984 . S
H1538 N1526 0.984 . S
H1539 N1526 0.985 . S
C1540 C1541 1.363 . S
C1540 C1546 1.379 . S
C1540 N1548 1.356 . S
C1541 C1540 1.363 . S
C1541 C1547 1.363 . S
C1542 C1543 1.363 . S
C1542 C1547 1.379 . S
C1542 N1549 1.356 . S
C1543 C1542 1.363 . S
C1543 C1546 1.363 . S
N1544 C1546 1.356 . S
N1544 H1556 0.984 . S
N1544 H1557 0.985 . S
N1545 C1547 1.356 . S
N1545 H1550 0.984 . S
N1545 H1551 0.985 . S
C1546 C1540 1.379 . S
C1546 C1543 1.363 . S
C1546 N1544 1.356 . S
C1547 C1541 1.363 . S
C1547 C1542 1.379 . S
C1547 N1545 1.356 . S
N1548 C1540 1.356 . S
N1548 H1554 0.984 . S
N1548 H1555 0.984 . S
N1549 C1542 1.356 . S
N1549 H1552 0.984 . S
N1549 H1553 0.985 . S
H1550 N1545 0.984 . S
H1551 N1545 0.985 . S
H1552 N1549 0.984 . S
H1553 N1549 0.985 . S
H1554 N1548 0.984 . S
H1555 N1548 0.984 . S
H1556 N1544 0.984 . S
H1557 N1544 0.985 . S
C1558 C1559 1.363 . S
C1558 C1564 1.379 . S
C1558 N1566 1.356 . S
C1559 C1558 1.363 . S
C1559 C1565 1.363 . S
C1560 C1561 1.363 . S
C1560 C1565 1.379 . S
C1560 N1567 1.356 . S
C1561 C1560 1.363 . S
C1561 C1564 1.363 . S
N1562 C1564 1.356 . S
N1562 H1574 0.984 . S
N1562 H1575 0.985 . S
N1563 C1565 1.356 . S
N1563 H1568 0.984 . S
N1563 H1569 0.985 . S
C1564 C1558 1.379 . S
C1564 C1561 1.363 . S
C1564 N1562 1.356 . S
C1565 C1559 1.363 . S
C1565 C1560 1.379 . S
C1565 N1563 1.356 . S
N1566 C1558 1.356 . S
N1566 H1572 0.984 . S
N1566 H1573 0.984 . S
N1567 C1560 1.356 . S
N1567 H1570 0.984 . S
N1567 H1571 0.985 . S
H1568 N1563 0.984 . S
H1569 N1563 0.985 . S
H1570 N1567 0.984 . S
H1571 N1567 0.985 . S
H1572 N1566 0.984 . S
H1573 N1566 0.984 . S
H1574 N1562 0.984 . S
H1575 N1562 0.985 . S
C1576 C1577 1.363 . S
C1576 C1582 1.379 . S
C1576 N1584 1.356 . S
C1577 C1576 1.363 . S
C1577 C1583 1.363 . S
C1578 C1579 1.363 . S
C1578 C1583 1.379 . S
C1578 N1585 1.356 . S
C1579 C1578 1.363 . S
C1579 C1582 1.363 . S
N1580 C1582 1.356 . S
N1580 H1592 0.984 . S
N1580 H1593 0.985 . S
N1581 C1583 1.356 . S
N1581 H1586 0.984 . S
N1581 H1587 0.985 . S
C1582 C1576 1.379 . S
C1582 C1579 1.363 . S
C1582 N1580 1.356 . S
C1583 C1577 1.363 . S
C1583 C1578 1.379 . S
C1583 N1581 1.356 . S
N1584 C1576 1.356 . S
N1584 H1590 0.984 . S
N1584 H1591 0.984 . S
N1585 C1578 1.356 . S
N1585 H1588 0.984 . S
N1585 H1589 0.985 . S
H1586 N1581 0.984 . S
H1587 N1581 0.985 . S
H1588 N1585 0.984 . S
H1589 N1585 0.985 . S
H1590 N1584 0.984 . S
H1591 N1584 0.984 . S
H1592 N1580 0.984 . S
H1593 N1580 0.985 . S
C1594 C1595 1.363 1_565 S
C1594 C1600 1.379 . S
C1594 N1602 1.356 . S
C1595 C1594 1.363 1_545 S
C1595 C1601 1.363 . S
C1596 C1597 1.363 . S
C1596 C1601 1.379 . S
C1596 N1603 1.356 . S
C1597 C1596 1.363 . S
C1597 C1600 1.363 1_545 S
N1598 C1600 1.356 . S
N1598 H1610 0.984 . S
N1598 H1611 0.985 . S
N1599 C1601 1.356 . S
N1599 H1604 0.984 . S
N1599 H1605 0.985 . S
C1600 C1594 1.379 . S
C1600 C1597 1.363 1_565 S
C1600 N1598 1.356 . S
C1601 C1595 1.363 . S
C1601 C1596 1.379 . S
C1601 N1599 1.356 . S
N1602 C1594 1.356 . S
N1602 H1608 0.984 . S
N1602 H1609 0.984 . S
N1603 C1596 1.356 . S
N1603 H1606 0.984 . S
N1603 H1607 0.985 . S
H1604 N1599 0.984 . S
H1605 N1599 0.985 . S
H1606 N1603 0.984 . S
H1607 N1603 0.985 . S
H1608 N1602 0.984 . S
H1609 N1602 0.984 . S
H1610 N1598 0.984 . S
H1611 N1598 0.985 . S
C1612 C1613 1.363 . S
C1612 C1618 1.379 . S
C1612 N1620 1.356 . S
C1613 C1612 1.363 . S
C1613 C1619 1.363 . S
C1614 C1615 1.363 . S
C1614 C1619 1.379 . S
C1614 N1621 1.356 . S
C1615 C1614 1.363 . S
C1615 C1618 1.363 . S
N1616 C1618 1.356 . S
N1616 H1628 0.984 . S
N1616 H1629 0.985 . S
N1617 C1619 1.356 . S
N1617 H1622 0.984 . S
N1617 H1623 0.985 . S
C1618 C1612 1.379 . S
C1618 C1615 1.363 . S
C1618 N1616 1.356 . S
C1619 C1613 1.363 . S
C1619 C1614 1.379 . S
C1619 N1617 1.356 . S
N1620 C1612 1.356 . S
N1620 H1626 0.984 . S
N1620 H1627 0.984 . S
N1621 C1614 1.356 . S
N1621 H1624 0.984 . S
N1621 H1625 0.985 . S
H1622 N1617 0.984 . S
H1623 N1617 0.985 . S
H1624 N1621 0.984 . S
H1625 N1621 0.985 . S
H1626 N1620 0.984 . S
H1627 N1620 0.984 . S
H1628 N1616 0.984 . S
H1629 N1616 0.985 . S
C1630 C1631 1.363 . S
C1630 C1636 1.379 . S
C1630 N1638 1.356 . S
C1631 C1630 1.363 . S
C1631 C1637 1.363 . S
C1632 C1633 1.363 . S
C1632 C1637 1.379 . S
C1632 N1639 1.356 . S
C1633 C1632 1.363 . S
C1633 C1636 1.363 . S
N1634 C1636 1.356 . S
N1634 H1646 0.984 . S
N1634 H1647 0.985 . S
N1635 C1637 1.356 . S
N1635 H1640 0.984 . S
N1635 H1641 0.985 . S
C1636 C1630 1.379 . S
C1636 C1633 1.363 . S
C1636 N1634 1.356 . S
C1637 C1631 1.363 . S
C1637 C1632 1.379 . S
C1637 N1635 1.356 . S
N1638 C1630 1.356 . S
N1638 H1644 0.984 . S
N1638 H1645 0.984 . S
N1639 C1632 1.356 . S
N1639 H1642 0.984 . S
N1639 H1643 0.985 . S
H1640 N1635 0.984 . S
H1641 N1635 0.985 . S
H1642 N1639 0.984 . S
H1643 N1639 0.985 . S
H1644 N1638 0.984 . S
H1645 N1638 0.984 . S
H1646 N1634 0.984 . S
H1647 N1634 0.985 . S
C1648 C1649 1.363 . S
C1648 C1654 1.379 . S
C1648 N1656 1.356 . S
C1649 C1648 1.363 . S
C1649 C1655 1.363 . S
C1650 C1651 1.363 . S
C1650 C1655 1.379 . S
C1650 N1657 1.356 . S
C1651 C1650 1.363 . S
C1651 C1654 1.363 . S
N1652 C1654 1.356 . S
N1652 H1664 0.984 . S
N1652 H1665 0.985 . S
N1653 C1655 1.356 . S
N1653 H1658 0.984 . S
N1653 H1659 0.985 . S
C1654 C1648 1.379 . S
C1654 C1651 1.363 . S
C1654 N1652 1.356 . S
C1655 C1649 1.363 . S
C1655 C1650 1.379 . S
C1655 N1653 1.356 . S
N1656 C1648 1.356 . S
N1656 H1662 0.984 . S
N1656 H1663 0.984 . S
N1657 C1650 1.356 . S
N1657 H1660 0.984 . S
N1657 H1661 0.985 . S
H1658 N1653 0.984 . S
H1659 N1653 0.985 . S
H1660 N1657 0.984 . S
H1661 N1657 0.985 . S
H1662 N1656 0.984 . S
H1663 N1656 0.984 . S
H1664 N1652 0.984 . S
H1665 N1652 0.985 . S
C1666 C1667 1.363 1_455 S
C1666 C1672 1.379 . S
C1666 N1674 1.356 . S
C1667 C1666 1.363 1_655 S
C1667 C1673 1.363 . S
C1668 C1669 1.353 1_655 S
C1668 C1673 1.379 . S
C1668 N1675 1.356 . S
C1669 C1668 1.353 1_455 S
C1669 C1672 1.371 . S
N1670 C1672 1.356 . S
N1670 H1682 0.984 . S
N1670 H1683 0.985 . S
N1671 C1673 1.356 . S
N1671 H1676 0.984 . S
N1671 H1677 0.985 . S
C1672 C1666 1.379 . S
C1672 C1669 1.371 . S
C1672 N1670 1.356 . S
C1673 C1667 1.363 . S
C1673 C1668 1.379 . S
C1673 N1671 1.356 . S
N1674 C1666 1.356 . S
N1674 H1680 0.984 . S
N1674 H1681 0.984 . S
N1675 C1668 1.356 . S
N1675 H1678 0.984 . S
N1675 H1679 0.985 . S
H1676 N1671 0.984 . S
H1677 N1671 0.985 . S
H1678 N1675 0.984 . S
H1679 N1675 0.985 . S
H1680 N1674 0.984 . S
H1681 N1674 0.984 . S
H1682 N1670 0.984 . S
H1683 N1670 0.985 . S
C1684 C1685 1.363 . S
C1684 C1690 1.379 . S
C1684 N1692 1.356 . S
C1685 C1684 1.363 . S
C1685 C1691 1.363 . S
C1686 C1687 1.363 . S
C1686 C1691 1.379 . S
C1686 N1693 1.356 . S
C1687 C1686 1.363 . S
C1687 C1690 1.363 . S
N1688 C1690 1.356 . S
N1688 H1700 0.984 . S
N1688 H1701 0.985 . S
N1689 C1691 1.356 . S
N1689 H1694 0.984 . S
N1689 H1695 0.985 . S
C1690 C1684 1.379 . S
C1690 C1687 1.363 . S
C1690 N1688 1.356 . S
C1691 C1685 1.363 . S
C1691 C1686 1.379 . S
C1691 N1689 1.356 . S
N1692 C1684 1.356 . S
N1692 H1698 0.984 . S
N1692 H1699 0.984 . S
N1693 C1686 1.356 . S
N1693 H1696 0.984 . S
N1693 H1697 0.985 . S
H1694 N1689 0.984 . S
H1695 N1689 0.985 . S
H1696 N1693 0.984 . S
H1697 N1693 0.985 . S
H1698 N1692 0.984 . S
H1699 N1692 0.984 . S
H1700 N1688 0.984 . S
H1701 N1688 0.985 . S
C1702 C1703 1.363 . S
C1702 C1708 1.379 . S
C1702 N1710 1.356 . S
C1703 C1702 1.363 . S
C1703 C1709 1.363 . S
C1704 C1705 1.363 . S
C1704 C1709 1.379 . S
C1704 N1711 1.356 . S
C1705 C1704 1.363 . S
C1705 C1708 1.363 . S
N1706 C1708 1.344 1_655 S
N1706 H1718 0.997 . S
N1706 H1719 0.987 . S
N1707 C1709 1.356 . S
N1707 H1712 0.984 . S
N1707 H1713 0.985 . S
C1708 C1702 1.379 . S
C1708 C1705 1.363 . S
C1708 N1706 1.344 1_455 S
C1709 C1703 1.363 . S
C1709 C1704 1.379 . S
C1709 N1707 1.356 . S
N1710 C1702 1.356 . S
N1710 H1716 0.994 . S
N1710 H1717 0.984 . S
N1711 C1704 1.356 . S
N1711 H1714 0.984 . S
N1711 H1715 0.985 . S
H1712 N1707 0.984 . S
H1713 N1707 0.985 . S
H1714 N1711 0.984 . S
H1715 N1711 0.985 . S
H1716 N1710 0.994 . S
H1717 N1710 0.984 . S
H1718 N1706 0.997 . S
H1719 N1706 0.987 . S
C1720 C1721 1.363 . S
C1720 C1726 1.379 . S
C1720 N1728 1.356 . S
C1721 C1720 1.363 . S
C1721 C1727 1.363 . S
C1722 C1723 1.363 . S
C1722 C1727 1.379 . S
C1722 N1729 1.356 . S
C1723 C1722 1.363 . S
C1723 C1726 1.363 . S
N1724 C1726 1.356 . S
N1724 H1736 0.984 . S
N1724 H1737 0.985 . S
N1725 C1727 1.356 . S
N1725 H1730 0.984 . S
N1725 H1731 0.985 . S
C1726 C1720 1.379 . S
C1726 C1723 1.363 . S
C1726 N1724 1.356 . S
C1727 C1721 1.363 . S
C1727 C1722 1.379 . S
C1727 N1725 1.356 . S
N1728 C1720 1.356 . S
N1728 H1734 0.984 . S
N1728 H1735 0.984 . S
N1729 C1722 1.356 . S
N1729 H1732 0.984 . S
N1729 H1733 0.985 . S
H1730 N1725 0.984 . S
H1731 N1725 0.985 . S
H1732 N1729 0.984 . S
H1733 N1729 0.985 . S
H1734 N1728 0.984 . S
H1735 N1728 0.984 . S
H1736 N1724 0.984 . S
H1737 N1724 0.985 . S
C1738 C1739 1.363 . S
C1738 C1744 1.379 . S
C1738 N1746 1.356 . S
C1739 C1738 1.363 . S
C1739 C1745 1.363 . S
C1740 C1741 1.363 . S
C1740 C1745 1.379 . S
C1740 N1747 1.356 . S
C1741 C1740 1.363 . S
C1741 C1744 1.363 . S
N1742 C1744 1.356 . S
N1742 H1754 0.984 . S
N1742 H1755 0.985 . S
N1743 C1745 1.356 . S
N1743 H1748 0.984 . S
N1743 H1749 0.985 . S
C1744 C1738 1.379 . S
C1744 C1741 1.363 . S
C1744 N1742 1.356 . S
C1745 C1739 1.363 . S
C1745 C1740 1.379 . S
C1745 N1743 1.356 . S
N1746 C1738 1.356 . S
N1746 H1752 0.984 . S
N1746 H1753 0.984 . S
N1747 C1740 1.356 . S
N1747 H1750 0.984 . S
N1747 H1751 0.985 . S
H1748 N1743 0.984 . S
H1749 N1743 0.985 . S
H1750 N1747 0.984 . S
H1751 N1747 0.985 . S
H1752 N1746 0.984 . S
H1753 N1746 0.984 . S
H1754 N1742 0.984 . S
H1755 N1742 0.985 . S
C1756 C1757 1.363 . S
C1756 C1762 1.379 . S
C1756 N1764 1.356 . S
C1757 C1756 1.363 . S
C1757 C1763 1.363 . S
C1758 C1759 1.363 . S
C1758 C1763 1.379 . S
C1758 N1765 1.356 . S
C1759 C1758 1.363 . S
C1759 C1762 1.363 . S
N1760 C1762 1.356 . S
N1760 H1772 0.984 . S
N1760 H1773 0.985 . S
N1761 C1763 1.356 . S
N1761 H1766 0.984 . S
N1761 H1767 0.985 . S
C1762 C1756 1.379 . S
C1762 C1759 1.363 . S
C1762 N1760 1.356 . S
C1763 C1757 1.363 . S
C1763 C1758 1.379 . S
C1763 N1761 1.356 . S
N1764 C1756 1.356 . S
N1764 H1770 0.984 . S
N1764 H1771 0.984 . S
N1765 C1758 1.356 . S
N1765 H1768 0.984 . S
N1765 H1769 0.985 . S
H1766 N1761 0.984 . S
H1767 N1761 0.985 . S
H1768 N1765 0.984 . S
H1769 N1765 0.985 . S
H1770 N1764 0.984 . S
H1771 N1764 0.984 . S
H1772 N1760 0.984 . S
H1773 N1760 0.985 . S
C1774 C1775 1.363 . S
C1774 C1780 1.379 . S
C1774 N1782 1.356 . S
C1775 C1774 1.363 . S
C1775 C1781 1.363 . S
C1776 C1777 1.363 . S
C1776 C1781 1.379 . S
C1776 N1783 1.356 . S
C1777 C1776 1.363 . S
C1777 C1780 1.363 . S
N1778 C1780 1.356 . S
N1778 H1790 0.984 . S
N1778 H1791 0.985 . S
N1779 C1781 1.356 . S
N1779 H1784 0.984 . S
N1779 H1785 0.985 . S
C1780 C1774 1.379 . S
C1780 C1777 1.363 . S
C1780 N1778 1.356 . S
C1781 C1775 1.363 . S
C1781 C1776 1.379 . S
C1781 N1779 1.356 . S
N1782 C1774 1.356 . S
N1782 H1788 0.984 . S
N1782 H1789 0.984 . S
N1783 C1776 1.356 . S
N1783 H1786 0.984 . S
N1783 H1787 0.985 . S
H1784 N1779 0.984 . S
H1785 N1779 0.985 . S
H1786 N1783 0.984 . S
H1787 N1783 0.985 . S
H1788 N1782 0.984 . S
H1789 N1782 0.984 . S
H1790 N1778 0.984 . S
H1791 N1778 0.985 . S
C1792 C1793 1.363 . S
C1792 C1798 1.379 . S
C1792 N1800 1.356 . S
C1793 C1792 1.363 . S
C1793 C1799 1.363 . S
C1794 C1795 1.363 . S
C1794 C1799 1.379 . S
C1794 N1801 1.356 . S
C1795 C1794 1.363 . S
C1795 C1798 1.363 . S
N1796 C1798 1.356 . S
N1796 H1808 0.984 . S
N1796 H1809 0.985 . S
N1797 C1799 1.356 . S
N1797 H1802 0.984 . S
N1797 H1803 0.985 . S
C1798 C1792 1.379 . S
C1798 C1795 1.363 . S
C1798 N1796 1.356 . S
C1799 C1793 1.363 . S
C1799 C1794 1.379 . S
C1799 N1797 1.356 . S
N1800 C1792 1.356 . S
N1800 H1806 0.984 . S
N1800 H1807 0.984 . S
N1801 C1794 1.356 . S
N1801 H1804 0.984 . S
N1801 H1805 0.985 . S
H1802 N1797 0.984 . S
H1803 N1797 0.985 . S
H1804 N1801 0.984 . S
H1805 N1801 0.985 . S
H1806 N1800 0.984 . S
H1807 N1800 0.984 . S
H1808 N1796 0.984 . S
H1809 N1796 0.985 . S
C1810 C1811 1.363 . S
C1810 C1816 1.379 . S
C1810 N1818 1.356 . S
C1811 C1810 1.363 . S
C1811 C1817 1.363 . S
C1812 C1813 1.363 . S
C1812 C1817 1.379 . S
C1812 N1819 1.356 . S
C1813 C1812 1.363 . S
C1813 C1816 1.363 . S
N1814 C1816 1.356 . S
N1814 H1826 0.984 . S
N1814 H1827 0.985 . S
N1815 C1817 1.356 . S
N1815 H1820 0.984 . S
N1815 H1821 0.985 . S
C1816 C1810 1.379 . S
C1816 C1813 1.363 . S
C1816 N1814 1.356 . S
C1817 C1811 1.363 . S
C1817 C1812 1.379 . S
C1817 N1815 1.356 . S
N1818 C1810 1.356 . S
N1818 H1824 0.984 . S
N1818 H1825 0.984 . S
N1819 C1812 1.356 . S
N1819 H1822 0.984 . S
N1819 H1823 0.985 . S
H1820 N1815 0.984 . S
H1821 N1815 0.985 . S
H1822 N1819 0.984 . S
H1823 N1819 0.985 . S
H1824 N1818 0.984 . S
H1825 N1818 0.984 . S
H1826 N1814 0.984 . S
H1827 N1814 0.985 . S
C1828 C1829 1.363 . S
C1828 C1834 1.379 . S
C1828 N1836 1.356 . S
C1829 C1828 1.363 . S
C1829 C1835 1.363 . S
C1830 C1831 1.363 . S
C1830 C1835 1.379 . S
C1830 N1837 1.356 . S
C1831 C1830 1.363 . S
C1831 C1834 1.363 . S
N1832 C1834 1.356 . S
N1832 H1844 0.984 . S
N1832 H1845 0.985 . S
N1833 C1835 1.356 . S
N1833 H1838 0.984 . S
N1833 H1839 0.985 . S
C1834 C1828 1.379 . S
C1834 C1831 1.363 . S
C1834 N1832 1.356 . S
C1835 C1829 1.363 . S
C1835 C1830 1.379 . S
C1835 N1833 1.356 . S
N1836 C1828 1.356 . S
N1836 H1842 0.984 . S
N1836 H1843 0.984 . S
N1837 C1830 1.356 . S
N1837 H1840 0.984 . S
N1837 H1841 0.985 . S
H1838 N1833 0.984 . S
H1839 N1833 0.985 . S
H1840 N1837 0.984 . S
H1841 N1837 0.985 . S
H1842 N1836 0.984 . S
H1843 N1836 0.984 . S
H1844 N1832 0.984 . S
H1845 N1832 0.985 . S
C1846 C1847 1.363 . S
C1846 C1852 1.379 . S
C1846 N1854 1.356 . S
C1847 C1846 1.363 . S
C1847 C1853 1.363 . S
C1848 C1849 1.363 . S
C1848 C1853 1.379 . S
C1848 N1855 1.356 . S
C1849 C1848 1.363 . S
C1849 C1852 1.363 . S
N1850 C1852 1.356 . S
N1850 H1862 0.984 . S
N1850 H1863 0.985 . S
N1851 C1853 1.356 . S
N1851 H1856 0.984 . S
N1851 H1857 0.985 . S
C1852 C1846 1.379 . S
C1852 C1849 1.363 . S
C1852 N1850 1.356 . S
C1853 C1847 1.363 . S
C1853 C1848 1.379 . S
C1853 N1851 1.356 . S
N1854 C1846 1.356 . S
N1854 H1860 0.984 . S
N1854 H1861 0.984 . S
N1855 C1848 1.356 . S
N1855 H1858 0.984 . S
N1855 H1859 0.985 . S
H1856 N1851 0.984 . S
H1857 N1851 0.985 . S
H1858 N1855 0.984 . S
H1859 N1855 0.985 . S
H1860 N1854 0.984 . S
H1861 N1854 0.984 . S
H1862 N1850 0.984 . S
H1863 N1850 0.985 . S
C1864 C1865 1.363 . S
C1864 C1870 1.379 . S
C1864 N1872 1.356 . S
C1865 C1864 1.363 . S
C1865 C1871 1.363 1_556 S
C1866 C1867 1.363 1_554 S
C1866 C1871 1.379 . S
C1866 N1873 1.356 . S
C1867 C1866 1.363 1_556 S
C1867 C1870 1.363 . S
N1868 C1870 1.356 . S
N1868 H1880 0.984 . S
N1868 H1881 0.985 . S
N1869 C1871 1.356 . S
N1869 H1874 0.984 . S
N1869 H1875 0.985 . S
C1870 C1864 1.379 . S
C1870 C1867 1.363 . S
C1870 N1868 1.356 . S
C1871 C1865 1.363 1_554 S
C1871 C1866 1.379 . S
C1871 N1869 1.356 . S
N1872 C1864 1.356 . S
N1872 H1878 0.984 . S
N1872 H1879 0.984 . S
N1873 C1866 1.356 . S
N1873 H1876 0.984 . S
N1873 H1877 0.985 . S
H1874 N1869 0.984 . S
H1875 N1869 0.985 . S
H1876 N1873 0.984 . S
H1877 N1873 0.985 . S
H1878 N1872 0.984 . S
H1879 N1872 0.984 . S
H1880 N1868 0.984 . S
H1881 N1868 0.985 . S
C1882 C1883 1.363 . S
C1882 C1888 1.379 . S
C1882 N1890 1.356 . S
C1883 C1882 1.363 . S
C1883 C1889 1.363 . S
C1884 C1885 1.363 . S
C1884 C1889 1.379 . S
C1884 N1891 1.356 . S
C1885 C1884 1.363 . S
C1885 C1888 1.363 . S
N1886 C1888 1.356 . S
N1886 H1898 0.984 . S
N1886 H1899 0.985 . S
N1887 C1889 1.356 . S
N1887 H1892 0.984 . S
N1887 H1893 0.985 . S
C1888 C1882 1.379 . S
C1888 C1885 1.363 . S
C1888 N1886 1.356 . S
C1889 C1883 1.363 . S
C1889 C1884 1.379 . S
C1889 N1887 1.356 . S
N1890 C1882 1.356 . S
N1890 H1896 0.984 . S
N1890 H1897 0.984 . S
N1891 C1884 1.356 . S
N1891 H1894 0.984 . S
N1891 H1895 0.985 . S
H1892 N1887 0.984 . S
H1893 N1887 0.985 . S
H1894 N1891 0.984 . S
H1895 N1891 0.985 . S
H1896 N1890 0.984 . S
H1897 N1890 0.984 . S
H1898 N1886 0.984 . S
H1899 N1886 0.985 . S
C1900 C1901 1.363 1_556 S
C1900 C1906 1.379 . S
C1900 N1908 1.356 . S
C1901 C1900 1.363 1_554 S
C1901 C1907 1.363 . S
C1902 C1903 1.363 . S
C1902 C1907 1.379 . S
C1902 N1909 1.356 . S
C1903 C1902 1.363 . S
C1903 C1906 1.363 1_554 S
N1904 C1906 1.356 . S
N1904 H1916 0.984 . S
N1904 H1917 0.985 . S
N1905 C1907 1.356 . S
N1905 H1910 0.984 . S
N1905 H1911 0.985 . S
C1906 C1900 1.379 . S
C1906 C1903 1.363 1_556 S
C1906 N1904 1.356 . S
C1907 C1901 1.363 . S
C1907 C1902 1.379 . S
C1907 N1905 1.356 . S
N1908 C1900 1.356 . S
N1908 H1914 0.984 . S
N1908 H1915 0.984 . S
N1909 C1902 1.356 . S
N1909 H1912 0.984 . S
N1909 H1913 0.985 . S
H1910 N1905 0.984 . S
H1911 N1905 0.985 . S
H1912 N1909 0.984 . S
H1913 N1909 0.985 . S
H1914 N1908 0.984 . S
H1915 N1908 0.984 . S
H1916 N1904 0.984 . S
H1917 N1904 0.985 . S
C1918 C1919 1.363 . S
C1918 C1924 1.380 . S
C1918 N1926 1.356 1_554 S
C1919 C1918 1.363 . S
C1919 C1925 1.363 . S
C1920 C1921 1.363 . S
C1920 C1925 1.379 . S
C1920 N1927 1.356 . S
C1921 C1920 1.363 . S
C1921 C1924 1.388 . S
N1922 C1924 1.336 1_556 S
N1922 H1934 0.984 . S
N1922 H1935 0.985 . S
N1923 C1925 1.356 . S
N1923 H1928 0.984 . S
N1923 H1929 0.985 . S
C1924 C1918 1.380 . S
C1924 C1921 1.388 . S
C1924 N1922 1.336 1_554 S
C1925 C1919 1.363 . S
C1925 C1920 1.379 . S
C1925 N1923 1.356 . S
N1926 C1918 1.356 1_556 S
N1926 H1932 0.984 . S
N1926 H1933 0.984 . S
N1927 C1920 1.356 . S
N1927 H1930 0.984 . S
N1927 H1931 0.985 . S
H1928 N1923 0.984 . S
H1929 N1923 0.985 . S
H1930 N1927 0.984 . S
H1931 N1927 0.985 . S
H1932 N1926 0.984 . S
H1933 N1926 0.984 . S
H1934 N1922 0.984 . S
H1935 N1922 0.985 . S
C1075 C642 1.501 . S
C1073 C202 1.531 . S
C1093 C690 1.633 . S
C1091 C261 1.675 . S
C1109 C282 1.432 . S
C1111 C726 1.427 . S
C1129 C762 1.569 1_545 S
C1127 C162 1.608 . S
C1147 C788 1.532 . S
C1145 C402 1.547 . S
C1165 C824 1.580 . S
C1163 C482 1.588 . S
C1181 C442 1.494 . S
C1183 C859 1.556 . S
C1201 C896 1.604 1_565 S
C1199 C381 1.609 . S
C1217 C461 1.477 . S
C1219 C930 1.511 . S
C1237 C978 1.527 . S
C1235 C362 1.565 . S
C1253 C415 1.484 . S
C1255 C931 1.511 . S
C1273 C968 1.624 . S
C1271 C495 1.625 . S
C1289 C301 1.494 . S
C1291 C1014 1.470 . S
C1307 C175 1.627 . S
C1309 C1003 1.620 . S
C1325 C215 1.523 . S
C1327 C1004 1.516 . S
C1343 C242 1.611 . S
C1345 C1002 1.610 . S
C1361 C141 1.603 . S
C1363 C750 1.552 . S
C1379 C581 1.557 . S
C1381 C751 1.555 . S
C1399 C654 1.549 . S
C1397 C615 1.598 . S
C1417 C679 1.498 . S
C1415 C335 1.483 . S
C1433 C181 1.665 . S
C1435 C786 1.662 . S
C1453 C894 1.501 . S
C1451 C455 1.513 . S
C1471 C787 1.539 . S
C1469 C375 1.548 . S
C1489 C860 1.651 . S
C1487 C501 1.662 . S
C1507 C858 1.501 . S
C1505 C562 1.531 . S
C1523 C621 1.675 . S
C1525 C906 1.633 . S
C1541 C322 1.432 . S
C1543 C798 1.425 . S
C1561 C834 1.569 . S
C1559 C522 1.608 . S
C1577 C122 1.547 . S
C1579 C716 1.531 . S
C1597 C752 1.580 . S
C1595 C2 1.588 . S
C1615 C643 1.556 . S
C1613 C42 1.494 . S
C1633 C680 1.607 . S
C1631 C101 1.609 . S
C1649 C61 1.477 . S
C1651 C966 1.511 . S
C1667 C82 1.565 . S
C1669 C942 1.526 1_455 S
C1685 C135 1.484 . S
C1687 C967 1.511 . S
C1703 C15 1.625 . S
C1705 C932 1.624 . S
C1723 C1050 1.470 . S
C1721 C341 1.494 . S
C1741 C1039 1.620 . S
C1739 C535 1.628 . S
C1759 C1040 1.516 . S
C1757 C575 1.523 . S
C1775 C602 1.611 . S
C1777 C1038 1.610 . S
C1793 C421 1.603 . S
C1795 C822 1.553 . S
C1813 C823 1.555 . S
C1811 C221 1.557 . S
C1831 C870 1.549 . S
C1829 C255 1.599 . S
C1849 C895 1.498 . S
C1847 C295 1.484 . S
C1865 C541 1.665 . S
C1867 C714 1.670 . S
C1885 C678 1.501 . S
C1883 C55 1.514 . S
C1901 C95 1.548 . S
C1903 C715 1.539 . S
C1921 C644 1.651 . S
C1919 C21 1.662 . S
