# Generated by pormake.
# Topology ssa, (4,4)-cn, num edge types: 1
# Building blocks:
#     Node 0, Type 0, BuildingBlock: NAWXER_clean_sbu_0, # of connection points: 4
#     Node 1, Type 0, BuildingBlock: NAWXER_clean_sbu_0, # of connection points: 4
#     Node 2, Type 0, BuildingBlock: NAWXER_clean_sbu_0, # of connection points: 4
#     Node 3, Type 0, BuildingBlock: NAWXER_clean_sbu_0, # of connection points: 4
#     Node 4, Type 0, BuildingBlock: NAWXER_clean_sbu_0, # of connection points: 4
#     Node 5, Type 0, BuildingBlock: NAWXER_clean_sbu_0, # of connection points: 4
#     Node 6, Type 1, BuildingBlock: KOZSID_clean_sbu_0, # of connection points: 4
#     Node 7, Type 1, BuildingBlock: KOZSID_clean_sbu_0, # of connection points: 4
#     Node 8, Type 1, BuildingBlock: KOZSID_clean_sbu_0, # of connection points: 4
#     Node 9, Type 1, BuildingBlock: KOZSID_clean_sbu_0, # of connection points: 4
#     Node 10, Type 1, BuildingBlock: KOZSID_clean_sbu_0, # of connection points: 4
#     Node 11, Type 1, BuildingBlock: KOZSID_clean_sbu_0, # of connection points: 4
#     Edge 12, Type (0, 1), BuildingBlock: XUDNAN_clean_linker_2, # of connection points: 2
#     Edge 13, Type (0, 1), BuildingBlock: XUDNAN_clean_linker_2, # of connection points: 2
#     Edge 14, Type (0, 1), BuildingBlock: XUDNAN_clean_linker_2, # of connection points: 2
#     Edge 15, Type (0, 1), BuildingBlock: XUDNAN_clean_linker_2, # of connection points: 2
#     Edge 16, Type (0, 1), BuildingBlock: XUDNAN_clean_linker_2, # of connection points: 2
#     Edge 17, Type (0, 1), BuildingBlock: XUDNAN_clean_linker_2, # of connection points: 2
#     Edge 18, Type (0, 1), BuildingBlock: XUDNAN_clean_linker_2, # of connection points: 2
#     Edge 19, Type (0, 1), BuildingBlock: XUDNAN_clean_linker_2, # of connection points: 2
#     Edge 20, Type (0, 1), BuildingBlock: XUDNAN_clean_linker_2, # of connection points: 2
#     Edge 21, Type (0, 1), BuildingBlock: XUDNAN_clean_linker_2, # of connection points: 2
#     Edge 22, Type (0, 1), BuildingBlock: XUDNAN_clean_linker_2, # of connection points: 2
#     Edge 23, Type (0, 1), BuildingBlock: XUDNAN_clean_linker_2, # of connection points: 2
#     Edge 24, Type (0, 1), BuildingBlock: XUDNAN_clean_linker_2, # of connection points: 2
#     Edge 25, Type (0, 1), BuildingBlock: XUDNAN_clean_linker_2, # of connection points: 2
#     Edge 26, Type (0, 1), BuildingBlock: XUDNAN_clean_linker_2, # of connection points: 2
#     Edge 27, Type (0, 1), BuildingBlock: XUDNAN_clean_linker_2, # of connection points: 2
#     Edge 28, Type (0, 1), BuildingBlock: XUDNAN_clean_linker_2, # of connection points: 2
#     Edge 29, Type (0, 1), BuildingBlock: XUDNAN_clean_linker_2, # of connection points: 2
#     Edge 30, Type (0, 1), BuildingBlock: XUDNAN_clean_linker_2, # of connection points: 2
#     Edge 31, Type (0, 1), BuildingBlock: XUDNAN_clean_linker_2, # of connection points: 2
#     Edge 32, Type (0, 1), BuildingBlock: XUDNAN_clean_linker_2, # of connection points: 2
#     Edge 33, Type (0, 1), BuildingBlock: XUDNAN_clean_linker_2, # of connection points: 2
#     Edge 34, Type (0, 1), BuildingBlock: XUDNAN_clean_linker_2, # of connection points: 2
#     Edge 35, Type (0, 1), BuildingBlock: XUDNAN_clean_linker_2, # of connection points: 2
# Relax obj value: 0.020
# Max RMSD: 0.060
# Mean RMSD: 0.028
data_MOF--net-ssa--node1-NAWXER_clean_sbu_0--node2-KOZSID_clean_sbu_0--edge1-XUDNAN_clean_linker_2
_symmetry_space_group_name_H-M    P1
_symmetry_Int_Tables_number       1
_symmetry_cell_setting            triclinic
loop_
_symmetry_equiv_pos_as_xyz
'x, y, z'
_cell_length_a     52.551228
_cell_length_b     52.607834
_cell_length_c     36.847619
_cell_angle_alpha  93.435668
_cell_angle_beta   93.546724
_cell_angle_gamma 120.02126
loop_
_atom_site_label
_atom_site_type_symbol
_atom_site_fract_x
_atom_site_fract_y
_atom_site_fract_z
_atom_type_partial_charge
C0 C 0.04427 0.57242 0.02478 0.0
C1 C 0.9699 0.46925 0.99043 0.0
O2 O 0.02201 0.55579 0.04092 0.0
Zn3 Zn 0.00699 0.52055 0.0077 0.0
O4 O 0.04863 0.56235 0.9947 0.0
Zn5 Zn 0.02785 0.52115 0.9604 0.0
O6 O 0.0154 0.53039 0.9147 0.0
O7 O 0.98865 0.52952 0.95885 0.0
O8 O 0.98894 0.47994 0.96724 0.0
O9 O 0.97271 0.4852 0.01942 0.0
O10 O 0.04184 0.51009 0.01519 0.0
O11 O 0.05884 0.51109 0.96185 0.0
C12 C 0.99375 0.53227 0.92524 0.0
C13 C 0.05986 0.50735 0.99558 0.0
C14 C 0.51412 0.05365 0.53594 0.0
C15 C 0.54154 0.9961 0.45149 0.0
O16 O 0.50995 0.02907 0.5459 0.0
Zn17 Zn 0.51596 0.9932 0.5294 0.0
O18 O 0.52557 0.06209 0.50627 0.0
Zn19 Zn 0.53005 0.02753 0.4927 0.0
O20 O 0.48526 0.993 0.48296 0.0
O21 O 0.47531 0.96034 0.52284 0.0
O22 O 0.5448 0.02138 0.44702 0.0
O23 O 0.53175 0.98447 0.48085 0.0
O24 O 0.54426 0.99689 0.56904 0.0
O25 O 0.56329 0.03312 0.53358 0.0
C26 C 0.46695 0.96897 0.49536 0.0
C27 C 0.56616 0.02061 0.56103 0.0
C28 C 0.48514 0.45915 0.96112 0.0
C29 C 0.52794 0.55651 0.03389 0.0
O30 O 0.48523 0.48177 0.95041 0.0
Zn31 Zn 0.50716 0.509 0.99478 0.0
O32 O 0.49775 0.46092 0.99278 0.0
Zn33 Zn 0.52274 0.49308 0.03812 0.0
O34 O 0.49949 0.47628 0.07783 0.0
O35 O 0.47781 0.48996 0.0363 0.0
O36 O 0.53232 0.53737 0.04855 0.0
O37 O 0.51457 0.54998 1.0017 0.0
O38 O 0.55023 0.51465 0.99089 0.0
O39 O 0.56114 0.49665 0.03806 0.0
C40 C 0.4777 0.47903 0.06656 0.0
C41 C 0.56811 0.50876 0.00862 0.0
C42 C 0.0369 0.52742 0.48624 0.0
C43 C 0.9784 0.44403 0.55767 0.0
O44 O 0.04206 0.5271 0.5204 0.0
Zn45 Zn 0.00752 0.48771 0.52441 0.0
O46 O 0.01319 0.50615 0.46868 0.0
Zn47 Zn 0.97567 0.46496 0.47815 0.0
O48 O 0.94224 0.47067 0.47126 0.0
O49 O 0.9712 0.49542 0.52175 0.0
O50 O 0.96728 0.44048 0.52456 0.0
O51 O 1.00186 0.46808 0.56963 0.0
O52 O 0.01679 0.4611 0.48591 0.0
O53 O 0.97937 0.43935 0.44231 0.0
C54 C 0.94772 0.48751 0.50036 0.0
C55 C 0.00458 0.44442 0.45569 0.0
C56 C 0.49582 0.95934 0.00924 0.0
C57 C 0.45535 0.01819 0.96256 0.0
O58 O 0.50233 0.98245 0.03038 0.0
Zn59 Zn 0.49259 0.0172 0.03425 0.0
O60 O 0.47821 0.95213 0.98024 0.0
Zn61 Zn 0.4729 0.98632 0.9858 0.0
O62 O 0.51734 0.02162 0.98367 0.0
O63 O 0.53264 0.05182 0.03469 0.0
O64 O 0.45248 0.99463 0.94669 0.0
O65 O 0.46881 0.02789 0.99489 0.0
O66 O 0.47006 0.00813 0.07713 0.0
O67 O 0.44506 0.97555 0.02932 0.0
C68 C 0.53742 0.04498 0.00309 0.0
C69 C 0.44669 0.98494 0.06279 0.0
C70 C 0.56128 0.51882 0.49723 0.0
C71 C 0.46789 0.49375 0.42462 0.0
O72 O 0.54353 0.52289 0.51578 0.0
Zn73 Zn 0.5007 0.51887 0.50686 0.0
O74 O 0.5544 0.51096 0.46305 0.0
Zn75 Zn 0.51545 0.50745 0.45944 0.0
O76 O 0.52496 0.55212 0.46593 0.0
O77 O 0.50825 0.55881 0.51692 0.0
O78 O 0.48976 0.49253 0.41355 0.0
O79 O 0.46927 0.50279 0.45825 0.0
O80 O 0.48011 0.49011 0.5405 0.0
O81 O 0.4923 0.4725 0.4928 0.0
C82 C 0.52087 0.5689 0.48854 0.0
C83 C 0.48047 0.46877 0.52288 0.0
C84 C 0.21839 0.50502 0.18241 0.0
C85 C 0.22176 0.53274 0.17958 0.0
C86 C 0.23651 0.54953 0.21193 0.0
C87 C 0.24155 0.53134 0.2326 0.0
N88 N 0.23134 0.50427 0.21505 0.0
Co89 Co 0.23349 0.47135 0.23586 0.0
N90 N 0.26365 0.49834 0.27622 0.0
C91 C 0.26968 0.5257 0.28779 0.0
C92 C 0.29297 0.53959 0.31474 0.0
C93 C 0.30219 0.51975 0.32028 0.0
C94 C 0.28376 0.49465 0.29648 0.0
N95 N 0.23604 0.43879 0.2568 0.0
C96 C 0.25858 0.44006 0.2783 0.0
C97 C 0.25218 0.4121 0.28582 0.0
C98 C 0.22464 0.39269 0.26799 0.0
C99 C 0.2158 0.4099 0.25073 0.0
N100 N 0.20297 0.44396 0.19595 0.0
C101 C 0.18623 0.41445 0.1961 0.0
C102 C 0.1658 0.40114 0.16596 0.0
C103 C 0.16955 0.42369 0.14593 0.0
C104 C 0.19217 0.44966 0.165 0.0
N105 N 0.26485 0.47685 0.20579 0.0
C106 C 0.31454 0.48122 0.17692 0.0
C107 C 0.28771 0.45453 0.17214 0.0
C108 C 0.26318 0.45275 0.18698 0.0
C109 C 0.31555 0.50625 0.19396 0.0
C110 C 0.29019 0.50371 0.20751 0.0
N111 N 0.20202 0.46537 0.26625 0.0
C112 C 0.18036 0.45333 0.32306 0.0
C113 C 0.1544 0.4513 0.30721 0.0
C114 C 0.15324 0.4576 0.27102 0.0
C115 C 0.17726 0.4648 0.25121 0.0
C116 C 0.20388 0.46023 0.30203 0.0
H117 H 0.17538 0.46926 0.22339 0.0
H118 H 0.2233 0.46077 0.31445 0.0
H119 H 0.24344 0.43141 0.18518 0.0
H120 H 0.29161 0.52311 0.22129 0.0
C121 C 0.25826 0.53973 0.2668 0.0
C122 C 0.19981 0.47927 0.15549 0.0
C123 C 0.28542 0.46755 0.29331 0.0
C124 C 0.19254 0.39985 0.22279 0.0
H125 H 0.21367 0.53986 0.15692 0.0
H126 H 0.24307 0.57238 0.2193 0.0
H127 H 0.30345 0.56221 0.327 0.0
H128 H 0.32081 0.52383 0.33899 0.0
H129 H 0.26607 0.4064 0.30218 0.0
H130 H 0.21325 0.36883 0.26615 0.0
H131 H 0.15022 0.37782 0.15915 0.0
H132 H 0.15646 0.42136 0.12076 0.0
H133 H 0.28619 0.43474 0.15908 0.0
H134 H 0.33596 0.52735 0.19769 0.0
H135 H 0.18213 0.44871 0.35106 0.0
H136 H 0.13378 0.45685 0.258 0.0
C137 C 0.72276 0.19832 0.72957 0.0
C138 C 0.70209 0.20018 0.70623 0.0
C139 C 0.70659 0.22808 0.71351 0.0
C140 C 0.7297 0.24168 0.74069 0.0
N141 N 0.73994 0.22406 0.75105 0.0
Co142 Co 0.77317 0.23498 0.78905 0.0
N143 N 0.77077 0.26911 0.81065 0.0
C144 C 0.75683 0.28169 0.79429 0.0
C145 C 0.75945 0.30544 0.81537 0.0
C146 C 0.77643 0.30826 0.84676 0.0
C147 C 0.78328 0.28598 0.84303 0.0
N148 N 0.80649 0.24576 0.82689 0.0
C149 C 0.81557 0.26411 0.85824 0.0
C150 C 0.83989 0.26506 0.87696 0.0
C151 C 0.84663 0.24728 0.85608 0.0
C152 C 0.82606 0.23633 0.82602 0.0
N153 N 0.77555 0.20086 0.76729 0.0
C154 C 0.79857 0.19645 0.77257 0.0
C155 C 0.79345 0.17038 0.75482 0.0
C156 C 0.76553 0.15767 0.73708 0.0
C157 C 0.75526 0.17693 0.74476 0.0
N158 N 0.80145 0.26062 0.75635 0.0
C159 C 0.84276 0.2967 0.70989 0.0
C160 C 0.84516 0.30632 0.74695 0.0
C161 C 0.82438 0.28806 0.76955 0.0
C162 C 0.81875 0.26871 0.69664 0.0
C163 C 0.79855 0.2511 0.72017 0.0
N164 N 0.74501 0.20948 0.82168 0.0
C165 C 0.73076 0.17201 0.86315 0.0
C166 C 0.70383 0.17111 0.86647 0.0
C167 C 0.69847 0.1906 0.84746 0.0
C168 C 0.71931 0.2096 0.82542 0.0
C169 C 0.75078 0.19105 0.84058 0.0
H170 H 0.71439 0.2241 0.81096 0.0
H171 H 0.77088 0.19061 0.83822 0.0
H172 H 0.82713 0.29615 0.79786 0.0
H173 H 0.78062 0.22965 0.70902 0.0
C174 C 0.73885 0.2686 0.76123 0.0
C175 C 0.72706 0.17279 0.72846 0.0
C176 C 0.8048 0.28419 0.86849 0.0
C177 C 0.82188 0.21412 0.79948 0.0
H178 H 0.68562 0.18325 0.68592 0.0
H179 H 0.6938 0.23696 0.70138 0.0
H180 H 0.74983 0.31886 0.80894 0.0
H181 H 0.78364 0.32526 0.8694 0.0
H182 H 0.85203 0.27797 0.90254 0.0
H183 H 0.86402 0.24242 0.86249 0.0
H184 H 0.8077 0.16103 0.75606 0.0
H185 H 0.7541 0.13659 0.72051 0.0
H186 H 0.86334 0.32754 0.75879 0.0
H187 H 0.81539 0.26034 0.66813 0.0
H188 H 0.73647 0.15804 0.87782 0.0
H189 H 0.678 0.19071 0.84872 0.0
C190 C 0.51628 0.72569 0.19084 0.0
C191 C 0.4889 0.70051 0.18076 0.0
C192 C 0.46947 0.70232 0.20238 0.0
C193 C 0.48592 0.72835 0.22447 0.0
N194 N 0.51444 0.74338 0.2178 0.0
Co195 Co 0.54567 0.78126 0.2454 0.0
N196 N 0.51603 0.78853 0.26771 0.0
C197 C 0.48749 0.76826 0.2694 0.0
C198 C 0.47217 0.77974 0.28588 0.0
C199 C 0.49237 0.80907 0.2953 0.0
C200 C 0.51904 0.81382 0.28417 0.0
N201 N 0.57676 0.81918 0.27276 0.0
C202 C 0.57467 0.84192 0.28863 0.0
C203 C 0.60195 0.86419 0.30522 0.0
C204 C 0.62176 0.85504 0.29941 0.0
C205 C 0.60553 0.82777 0.27976 0.0
N206 N 0.57552 0.77405 0.22363 0.0
C207 C 0.60466 0.78826 0.23506 0.0
C208 C 0.62023 0.77968 0.21402 0.0
C209 C 0.59958 0.75834 0.18817 0.0
C210 C 0.57232 0.75469 0.19521 0.0
N211 N 0.54455 0.80246 0.20416 0.0
C212 C 0.54362 0.83611 0.14827 0.0
C213 C 0.57009 0.83807 0.1623 0.0
C214 C 0.57014 0.82163 0.19057 0.0
C215 C 0.51742 0.81581 0.16204 0.0
C216 C 0.51833 0.79892 0.18941 0.0
N217 N 0.54676 0.76 0.28684 0.0
C218 C 0.54509 0.71731 0.30958 0.0
C219 C 0.54611 0.72816 0.34568 0.0
C220 C 0.54781 0.7556 0.35159 0.0
C221 C 0.548 0.77106 0.32189 0.0
C222 C 0.54569 0.73358 0.28081 0.0
H223 H 0.54897 0.79191 0.32733 0.0
H224 H 0.5449 0.72444 0.25362 0.0
H225 H 0.59107 0.82487 0.20176 0.0
H226 H 0.49782 0.78354 0.19927 0.0
C227 C 0.47491 0.74052 0.24944 0.0
C228 C 0.54394 0.72971 0.17801 0.0
C229 C 0.54701 0.84213 0.29098 0.0
C230 C 0.61714 0.81223 0.26209 0.0
H231 H 0.48362 0.68222 0.16074 0.0
H232 H 0.44612 0.68654 0.20194 0.0
H233 H 0.4488 0.76851 0.28909 0.0
H234 H 0.48787 0.82509 0.30859 0.0
H235 H 0.60697 0.8848 0.32013 0.0
H236 H 0.64536 0.86733 0.30731 0.0
H237 H 0.64385 0.78836 0.21663 0.0
H238 H 0.60395 0.7461 0.16725 0.0
H239 H 0.59091 0.85252 0.15207 0.0
H240 H 0.49634 0.81345 0.15279 0.0
H241 H 0.54316 0.69602 0.30324 0.0
H242 H 0.54906 0.76519 0.37894 0.0
C243 C 0.73819 0.55406 0.6895 0.0
C244 C 0.73971 0.58056 0.68347 0.0
C245 C 0.76071 0.60157 0.70956 0.0
C246 C 0.77085 0.58682 0.72999 0.0
N247 N 0.75765 0.55791 0.71819 0.0
Co248 Co 0.76532 0.52864 0.74035 0.0
N249 N 0.80374 0.56001 0.76595 0.0
C250 C 0.81207 0.58867 0.77295 0.0
C251 C 0.83985 0.60513 0.79146 0.0
C252 C 0.84945 0.58552 0.79653 0.0
C253 C 0.82693 0.55812 0.78069 0.0
N254 N 0.773 0.49942 0.76268 0.0
C255 C 0.79873 0.50257 0.77788 0.0
C256 C 0.79417 0.47634 0.79022 0.0
C257 C 0.76448 0.45631 0.78283 0.0
C258 C 0.75258 0.4713 0.76629 0.0
N259 N 0.72676 0.49727 0.71492 0.0
C260 C 0.7111 0.46943 0.7237 0.0
C261 C 0.685 0.45279 0.70156 0.0
C262 C 0.68416 0.47144 0.67758 0.0
C263 C 0.70991 0.4985 0.68647 0.0
N264 N 0.78508 0.5263 0.69824 0.0
C265 C 0.81493 0.52235 0.64009 0.0
C266 C 0.79218 0.49687 0.65202 0.0
C267 C 0.77775 0.4993 0.68138 0.0
C268 C 0.82225 0.5499 0.65737 0.0
C269 C 0.80673 0.55142 0.68609 0.0
N270 N 0.74544 0.53078 0.78268 0.0
C271 C 0.74295 0.53235 0.84775 0.0
C272 C 0.71499 0.52972 0.84312 0.0
C273 C 0.70309 0.52848 0.80744 0.0
C274 C 0.71873 0.52935 0.7778 0.0
C275 C 0.75763 0.53262 0.81731 0.0
H276 H 0.70883 0.52819 0.7508 0.0
H277 H 0.77872 0.53391 0.82184 0.0
H278 H 0.76096 0.47928 0.69077 0.0
H279 H 0.8125 0.57287 0.69881 0.0
C280 C 0.79551 0.59985 0.75634 0.0
C281 C 0.71661 0.52541 0.66941 0.0
C282 C 0.8272 0.53047 0.78276 0.0
C283 C 0.72386 0.45871 0.74854 0.0
H284 H 0.7268 0.58425 0.66264 0.0
H285 H 0.76832 0.62495 0.71248 0.0
H286 H 0.85212 0.62873 0.79919 0.0
H287 H 0.87047 0.59072 0.81053 0.0
H288 H 0.8105 0.4721 0.80325 0.0
H289 H 0.75318 0.43327 0.78764 0.0
H290 H 0.66896 0.42963 0.70193 0.0
H291 H 0.66655 0.46586 0.65625 0.0
H292 H 0.78619 0.4752 0.63943 0.0
H293 H 0.83978 0.57005 0.6487 0.0
H294 H 0.75351 0.53406 0.87468 0.0
H295 H 0.68145 0.52603 0.8021 0.0
C296 C 0.26003 0.81379 0.34332 0.0
C297 C 0.2521 0.83006 0.3661 0.0
C298 C 0.22324 0.82114 0.35463 0.0
C299 C 0.21526 0.79995 0.32573 0.0
N300 N 0.2373 0.79507 0.31839 0.0
Co301 Co 0.23548 0.76619 0.2799 0.0
N302 N 0.20046 0.76384 0.25267 0.0
C303 C 0.18264 0.77278 0.26623 0.0
C304 C 0.16007 0.76835 0.24108 0.0
C305 C 0.16363 0.75543 0.20993 0.0
C306 C 0.18815 0.75245 0.21795 0.0
N307 N 0.23358 0.73707 0.24143 0.0
C308 C 0.21827 0.7276 0.20776 0.0
C309 C 0.22251 0.70606 0.19023 0.0
C310 C 0.24077 0.70175 0.21398 0.0
C311 C 0.24667 0.72077 0.2446 0.0
N312 N 0.27034 0.76853 0.30751 0.0
C313 C 0.27951 0.74888 0.3038 0.0
C314 C 0.30531 0.75744 0.32535 0.0
C315 C 0.31271 0.78406 0.34381 0.0
C316 C 0.29071 0.79009 0.33271 0.0
N317 N 0.20919 0.7337 0.30745 0.0
C318 C 0.17296 0.68567 0.34564 0.0
C319 C 0.19724 0.71127 0.36406 0.0
C320 C 0.21512 0.73494 0.34448 0.0
C321 C 0.16674 0.68515 0.30795 0.0
C322 C 0.18495 0.70922 0.28951 0.0
N323 N 0.26189 0.79864 0.25233 0.0
C324 C 0.30446 0.8215 0.21839 0.0
C325 C 0.29881 0.84417 0.21111 0.0
C326 C 0.27454 0.84378 0.22563 0.0
C327 C 0.25659 0.82106 0.2463 0.0
C328 C 0.28569 0.79893 0.23872 0.0
H329 H 0.23821 0.82151 0.25715 0.0
H330 H 0.29031 0.78149 0.24306 0.0
H331 H 0.23405 0.75407 0.35925 0.0
H332 H 0.17953 0.70773 0.26052 0.0
C333 C 0.18991 0.7885 0.30092 0.0
C334 C 0.28877 0.81565 0.34691 0.0
C335 C 0.19665 0.73548 0.19355 0.0
C336 C 0.26712 0.72654 0.27465 0.0
H337 H 0.26577 0.84664 0.3885 0.0
H338 H 0.21015 0.83002 0.36506 0.0
H339 H 0.14338 0.77433 0.24469 0.0
H340 H 0.14933 0.7483 0.18451 0.0
H341 H 0.2128 0.69413 0.16345 0.0
H342 H 0.24911 0.68687 0.20921 0.0
H343 H 0.31819 0.74659 0.32595 0.0
H344 H 0.33232 0.79746 0.36265 0.0
H345 H 0.20299 0.71266 0.39313 0.0
H346 H 0.14794 0.66609 0.29258 0.0
H347 H 0.32273 0.82066 0.2075 0.0
H348 H 0.26943 0.86096 0.22108 0.0
C349 C 0.42987 0.26434 0.78027 0.0
C350 C 0.40149 0.25954 0.78196 0.0
C351 C 0.383 0.23475 0.75895 0.0
C352 C 0.40105 0.22599 0.74422 0.0
N353 N 0.42994 0.24339 0.75686 0.0
Co354 Co 0.46386 0.24045 0.73905 0.0
N355 N 0.43677 0.20463 0.70417 0.0
C356 C 0.40688 0.19003 0.70064 0.0
C357 C 0.39412 0.16532 0.67593 0.0
C358 C 0.41722 0.1637 0.66339 0.0
C359 C 0.44286 0.18761 0.68126 0.0
N360 N 0.49794 0.23886 0.71948 0.0
C361 C 0.49839 0.21958 0.69366 0.0
C362 C 0.52712 0.22696 0.68828 0.0
C363 C 0.54541 0.2516 0.71159 0.0
C364 C 0.52695 0.25789 0.72982 0.0
N365 N 0.49087 0.27518 0.77543 0.0
C366 C 0.52041 0.28719 0.78245 0.0
C367 C 0.53314 0.31031 0.80949 0.0
C368 C 0.51039 0.31342 0.82025 0.0
C369 C 0.485 0.29211 0.79878 0.0
N370 N 0.46104 0.21341 0.77626 0.0
C371 C 0.45518 0.17141 0.82438 0.0
C372 C 0.48263 0.19078 0.81292 0.0
C373 C 0.48514 0.21173 0.78939 0.0
C374 C 0.43094 0.17379 0.81191 0.0
C375 C 0.43428 0.1946 0.78806 0.0
N376 N 0.46631 0.26714 0.70191 0.0
C377 C 0.4919 0.31427 0.67732 0.0
C378 C 0.46703 0.30657 0.65303 0.0
C379 C 0.44218 0.27866 0.65309 0.0
C380 C 0.44228 0.25951 0.67744 0.0
C381 C 0.49118 0.29419 0.70114 0.0
H382 H 0.42238 0.23882 0.67628 0.0
H383 H 0.51086 0.30109 0.71893 0.0
H384 H 0.50675 0.22617 0.78204 0.0
H385 H 0.41464 0.1946 0.77924 0.0
C386 C 0.39157 0.20119 0.71916 0.0
C387 C 0.45606 0.28939 0.80092 0.0
C388 C 0.47237 0.19277 0.67594 0.0
C389 C 0.53596 0.27898 0.75986 0.0
H390 H 0.39481 0.27276 0.79786 0.0
H391 H 0.35926 0.22449 0.75334 0.0
H392 H 0.3708 0.15038 0.66781 0.0
H393 H 0.41545 0.1468 0.64341 0.0
H394 H 0.53423 0.21524 0.67034 0.0
H395 H 0.56929 0.26281 0.7159 0.0
H396 H 0.55636 0.32403 0.8192 0.0
H397 H 0.51243 0.32998 0.841 0.0
H398 H 0.50213 0.18999 0.82237 0.0
H399 H 0.40918 0.15915 0.81989 0.0
H400 H 0.51183 0.33556 0.67779 0.0
H401 H 0.4223 0.27179 0.63497 0.0
H402 H 0.07162 0.50409 0.06844 0.0
H403 H 0.09932 0.49666 0.96169 0.0
H404 H 0.13759 0.48783 0.99053 0.0
H405 H 0.14394 0.54282 0.11703 0.0
H406 H 0.13253 0.52441 0.1577 0.0
H407 H 0.10674 0.52914 0.12853 0.0
H408 H 0.07008 0.47271 0.1222 0.0
H409 H 0.09574 0.46783 0.15144 0.0
H410 H 0.08226 0.44782 0.10653 0.0
H411 H 0.17378 0.48051 0.0318 0.0
H412 H 0.20455 0.47579 0.08198 0.0
H413 H 0.15323 0.48828 0.16118 0.0
C414 C 0.08555 0.50039 0.051 0.0
C415 C 0.08228 0.50097 0.01266 0.0
C416 C 0.10126 0.49628 0.99105 0.0
C417 C 0.1231 0.49123 0.00722 0.0
C418 C 0.12581 0.49099 0.0451 0.0
C419 C 0.10751 0.49545 0.06669 0.0
C420 C 0.1153 0.49473 0.1068 0.0
C421 C 0.12522 0.52455 0.1288 0.0
C422 C 0.08929 0.46925 0.12266 0.0
C423 C 0.14086 0.4892 0.10449 0.0
C424 C 0.14662 0.48706 0.06868 0.0
C425 C 0.16942 0.48217 0.0599 0.0
C426 C 0.18679 0.47954 0.08844 0.0
C427 C 0.18132 0.48193 0.12521 0.0
C428 C 0.15792 0.48659 0.1332 0.0
H429 H 0.57514 0.03609 0.63473 0.0
H430 H 0.62047 0.04209 0.53857 0.0
H431 H 0.6681 0.07789 0.57394 0.0
H432 H 0.61312 0.11015 0.66193 0.0
H433 H 0.61516 0.10792 0.71054 0.0
H434 H 0.58554 0.07803 0.68074 0.0
H435 H 0.5996 0.04126 0.70593 0.0
H436 H 0.62903 0.071 0.73635 0.0
H437 H 0.63697 0.04863 0.70538 0.0
H438 H 0.7087 0.11844 0.61558 0.0
H439 H 0.74081 0.15987 0.66265 0.0
H440 H 0.66992 0.12903 0.73244 0.0
C441 C 0.59536 0.04391 0.62181 0.0
C442 C 0.59448 0.03584 0.58432 0.0
C443 C 0.62099 0.04762 0.56751 0.0
C444 C 0.64806 0.06798 0.58736 0.0
C445 C 0.64817 0.07651 0.62392 0.0
C446 C 0.6226 0.06471 0.64119 0.0
C447 C 0.62834 0.08037 0.67934 0.0
C448 C 0.60942 0.09498 0.68334 0.0
C449 C 0.62318 0.05904 0.70848 0.0
C450 C 0.66084 0.1033 0.68031 0.0
C451 C 0.67186 0.10043 0.64816 0.0
C452 C 0.70059 0.12042 0.64127 0.0
C453 C 0.71864 0.14384 0.66804 0.0
C454 C 0.70797 0.14693 0.70134 0.0
C455 C 0.6787 0.12651 0.70751 0.0
H456 H 0.51298 0.59978 0.02158 0.0
H457 H 0.56142 0.57623 0.09933 0.0
H458 H 0.57011 0.61734 0.14302 0.0
H459 H 0.5612 0.68087 0.04517 0.0
H460 H 0.53095 0.68782 0.03999 0.0
H461 H 0.52921 0.65704 0.01325 0.0
H462 H 0.47961 0.62173 0.0377 0.0
H463 H 0.48139 0.65233 0.06486 0.0
H464 H 0.47782 0.62097 0.08636 0.0
H465 H 0.56924 0.6566 0.18129 0.0
H466 H 0.56552 0.69813 0.20937 0.0
H467 H 0.52178 0.70125 0.10739 0.0
C468 C 0.52591 0.60368 0.04749 0.0
C469 C 0.53633 0.58444 0.05686 0.0
C470 C 0.55297 0.59031 0.09129 0.0
C471 C 0.55804 0.61368 0.11652 0.0
C472 C 0.54677 0.63155 0.10705 0.0
C473 C 0.53159 0.62742 0.0732 0.0
C474 C 0.52206 0.65034 0.07065 0.0
C475 C 0.53674 0.6702 0.04047 0.0
C476 C 0.48821 0.63544 0.06453 0.0
C477 C 0.53396 0.66751 0.10845 0.0
C478 C 0.5478 0.65586 0.12895 0.0
C479 C 0.5591 0.66642 0.16529 0.0
C480 C 0.55689 0.69 0.18102 0.0
C481 C 0.54413 0.70341 0.1603 0.0
C482 C 0.53215 0.69174 0.1236 0.0
H483 H 0.95104 0.51914 0.56399 0.0
H484 H 0.89471 0.47342 0.46293 0.0
H485 H 0.85592 0.48173 0.48561 0.0
H486 H 0.89577 0.48886 0.62163 0.0
H487 H 0.91011 0.52163 0.65324 0.0
H488 H 0.9348 0.51549 0.62734 0.0
H489 H 0.95368 0.56605 0.60182 0.0
H490 H 0.92914 0.57247 0.62787 0.0
H491 H 0.92757 0.57417 0.57912 0.0
H492 H 0.82104 0.48925 0.52249 0.0
H493 H 0.79377 0.49773 0.5698 0.0
H494 H 0.87334 0.53977 0.64571 0.0
C495 C 0.93085 0.51148 0.54618 0.0
C496 C 0.92598 0.49573 0.51157 0.0
C497 C 0.89902 0.48567 0.48945 0.0
C498 C 0.87685 0.49029 0.5021 0.0
C499 C 0.88209 0.5052 0.53678 0.0
C500 C 0.90856 0.5159 0.55836 0.0
C501 C 0.90794 0.52933 0.59558 0.0
C502 C 0.91241 0.51284 0.62623 0.0
C503 C 0.93095 0.56248 0.60142 0.0
C504 C 0.87679 0.52406 0.59184 0.0
C505 C 0.86222 0.51013 0.55771 0.0
C506 C 0.83241 0.50072 0.54899 0.0
C507 C 0.8171 0.50554 0.57592 0.0
C508 C 0.83174 0.51984 0.61088 0.0
C509 C 0.86199 0.52951 0.61875 0.0
H510 H 0.44673 0.96153 0.12779 0.0
H511 H 0.38934 0.96809 0.04399 0.0
H512 H 0.34574 0.93513 0.07478 0.0
H513 H 0.39941 0.8848 0.13327 0.0
H514 H 0.40759 0.8863 0.18184 0.0
H515 H 0.43465 0.91314 0.156 0.0
H516 H 0.43732 0.95548 0.19877 0.0
H517 H 0.41038 0.92875 0.22491 0.0
H518 H 0.40387 0.95594 0.20563 0.0
H519 H 0.30821 0.90029 0.11346 0.0
H520 H 0.27901 0.86376 0.15508 0.0
H521 H 0.35989 0.87636 0.21205 0.0
C522 C 0.425 0.9566 0.1166 0.0
C523 C 0.42137 0.96796 0.08403 0.0
C524 C 0.39256 0.96004 0.06925 0.0
C525 C 0.3677 0.9413 0.08654 0.0
C526 C 0.37188 0.9301 0.11832 0.0
C527 C 0.39977 0.93725 0.13312 0.0
C528 C 0.3978 0.92018 0.16578 0.0
C529 C 0.41062 0.8999 0.15879 0.0
C530 C 0.41326 0.94136 0.20085 0.0
C531 C 0.3645 0.90235 0.16696 0.0
C532 C 0.35005 0.90875 0.13958 0.0
C533 C 0.31932 0.89519 0.13505 0.0
C534 C 0.30289 0.87452 0.15897 0.0
C535 C 0.31704 0.86715 0.18697 0.0
C536 C 0.34836 0.88136 0.19085 0.0
H537 H 0.48925 0.45981 0.59379 0.0
H538 H 0.45122 0.41444 0.4852 0.0
H539 H 0.44233 0.36761 0.50747 0.0
H540 H 0.52859 0.42378 0.61187 0.0
H541 H 0.52354 0.42151 0.65975 0.0
H542 H 0.5232 0.45079 0.63722 0.0
H543 H 0.47147 0.43566 0.6571 0.0
H544 H 0.47187 0.40669 0.68041 0.0
H545 H 0.4417 0.39804 0.64646 0.0
H546 H 0.44129 0.32706 0.53962 0.0
H547 H 0.44605 0.29406 0.58078 0.0
H548 H 0.48637 0.36567 0.66855 0.0
C549 C 0.47808 0.43975 0.57515 0.0
C550 C 0.4703 0.44041 0.538 0.0
C551 C 0.4569 0.41412 0.51388 0.0
C552 C 0.45187 0.38751 0.52624 0.0
C553 C 0.46071 0.38771 0.56272 0.0
C554 C 0.47338 0.41303 0.58695 0.0
C555 C 0.48291 0.40757 0.62399 0.0
C556 C 0.51655 0.42707 0.63376 0.0
C557 C 0.46597 0.41226 0.65375 0.0
C558 C 0.47374 0.3753 0.61663 0.0
C559 C 0.46088 0.36432 0.58115 0.0
C560 C 0.45102 0.33528 0.5676 0.0
C561 C 0.45382 0.31672 0.59116 0.0
C562 C 0.46644 0.32726 0.62786 0.0
C563 C 0.47683 0.35707 0.64056 0.0
H564 H 0.53369 0.94073 0.45368 0.0
H565 H 0.56012 0.01113 0.38323 0.0
H566 H 0.56491 0.97973 0.33431 0.0
H567 H 0.58191 0.91467 0.42472 0.0
H568 H 0.55496 0.8765 0.42765 0.0
H569 H 0.55492 0.90509 0.45704 0.0
H570 H 0.50007 0.88516 0.43346 0.0
H571 H 0.5 0.85665 0.40378 0.0
H572 H 0.48964 0.88146 0.38505 0.0
H573 H 0.56545 0.93911 0.29225 0.0
H574 H 0.56221 0.8939 0.26201 0.0
H575 H 0.53516 0.85087 0.36055 0.0
C576 C 0.54079 0.94983 0.42815 0.0
C577 C 0.54667 0.97861 0.42249 0.0
C578 C 0.55565 0.9893 0.3884 0.0
C579 C 0.55836 0.97155 0.36041 0.0
C580 C 0.55199 0.94314 0.36688 0.0
C581 C 0.54349 0.93246 0.40005 0.0
C582 C 0.53727 0.90105 0.40019 0.0
C583 C 0.55854 0.89924 0.42911 0.0
C584 C 0.50482 0.87984 0.40596 0.0
C585 C 0.5435 0.89552 0.36185 0.0
C586 C 0.55199 0.92 0.34295 0.0
C587 C 0.55877 0.91988 0.30689 0.0
C588 C 0.55682 0.89416 0.28988 0.0
C589 C 0.54797 0.8689 0.30881 0.0
C590 C 0.5415 0.86977 0.34532 0.0
H591 H 0.59079 0.53758 0.9488 0.0
H592 H 0.60641 0.49042 0.03193 0.0
H593 H 0.64813 0.49362 1.00086 0.0
H594 H 0.60343 0.50302 0.87437 0.0
H595 H 0.62157 0.53538 0.85039 0.0
H596 H 0.595 0.53213 0.88107 0.0
H597 H 0.63386 0.58186 0.9176 0.0
H598 H 0.66052 0.58546 0.88677 0.0
H599 H 0.66905 0.58697 0.93527 0.0
H600 H 0.68439 0.49712 0.95681 0.0
H601 H 0.71404 0.5029 0.90546 0.0
H602 H 0.67645 0.5503 0.85298 0.0
C603 C 0.6033 0.52839 0.96093 0.0
C604 C 0.59533 0.51378 0.99288 0.0
C605 C 0.61219 0.50188 0.00763 0.0
C606 C 0.6359 0.50354 0.99013 0.0
C607 C 0.64266 0.51747 0.95816 0.0
C608 C 0.62708 0.53001 0.94398 0.0
C609 C 0.63789 0.54256 0.90844 0.0
C610 C 0.61299 0.52736 0.87671 0.0
C611 C 0.65112 0.57621 0.91227 0.0
C612 C 0.66153 0.53448 0.90434 0.0
C613 C 0.66401 0.52009 0.93331 0.0
C614 C 0.68309 0.50892 0.93437 0.0
C615 C 0.70002 0.51252 0.90506 0.0
C616 C 0.69797 0.52733 0.87502 0.0
C617 C 0.67857 0.53868 0.87516 0.0
H618 H 0.07135 0.58909 0.49707 0.0
H619 H 0.05399 0.51223 0.42574 0.0
H620 H 0.08915 0.54435 0.385 0.0
H621 H 0.07495 0.63302 0.42545 0.0
H622 H 0.10436 0.66747 0.44856 0.0
H623 H 0.08 0.63873 0.47471 0.0
H624 H 0.12498 0.6399 0.50946 0.0
H625 H 0.1495 0.66872 0.48344 0.0
H626 H 0.1508 0.63515 0.484 0.0
H627 H 0.12312 0.58361 0.34978 0.0
H628 H 0.15466 0.62868 0.3213 0.0
H629 H 0.15064 0.68193 0.41298 0.0
C630 C 0.07544 0.57919 0.47318 0.0
C631 C 0.05997 0.54814 0.46454 0.0
C632 C 0.06547 0.53593 0.43273 0.0
C633 C 0.0855 0.55399 0.40947 0.0
C634 C 0.0999 0.58443 0.41808 0.0
C635 C 0.09528 0.59712 0.44908 0.0
C636 C 0.11262 0.63065 0.45028 0.0
C637 C 0.09173 0.6432 0.44971 0.0
C638 C 0.13586 0.64442 0.48379 0.0
C639 C 0.12719 0.6346 0.41494 0.0
C640 C 0.11961 0.60752 0.39711 0.0
C641 C 0.12932 0.60498 0.3635 0.0
C642 C 0.14709 0.63075 0.3474 0.0
C643 C 0.15502 0.65891 0.36466 0.0
C644 C 0.14517 0.66079 0.39921 0.0
H645 H 0.47064 0.03847 0.89638 0.0
H646 H 0.42328 0.04188 0.98694 0.0
H647 H 0.41635 0.08023 0.95987 0.0
H648 H 0.51087 0.11513 0.89328 0.0
H649 H 0.5109 0.11388 0.84429 0.0
H650 H 0.50843 0.08366 0.86742 0.0
H651 H 0.46 0.04702 0.82673 0.0
H652 H 0.46257 0.07707 0.803 0.0
H653 H 0.42961 0.05386 0.82395 0.0
H654 H 0.41727 0.12009 0.92526 0.0
H655 H 0.42593 0.15915 0.88538 0.0
H656 H 0.47564 0.13243 0.81907 0.0
C657 C 0.45787 0.04658 0.90966 0.0
C658 C 0.44663 0.03672 0.94308 0.0
C659 C 0.43138 0.04878 0.96086 0.0
C660 C 0.42748 0.0706 0.94577 0.0
C661 C 0.43951 0.08049 0.91327 0.0
C662 C 0.45442 0.06893 0.89538 0.0
C663 C 0.4675 0.08535 0.86268 0.0
C664 C 0.50143 0.10039 0.86721 0.0
C665 C 0.45411 0.06459 0.82698 0.0
C666 C 0.45761 0.10793 0.86501 0.0
C667 C 0.4413 0.10455 0.89423 0.0
C668 C 0.42987 0.12284 0.90218 0.0
C669 C 0.43489 0.14495 0.87939 0.0
C670 C 0.45144 0.14881 0.84918 0.0
C671 C 0.46313 0.13015 0.84216 0.0
H672 H 0.41794 0.49507 0.43994 0.0
H673 H 0.45768 0.47513 0.35097 0.0
H674 H 0.41449 0.4643 0.30815 0.0
H675 H 0.34182 0.43871 0.40954 0.0
H676 H 0.32725 0.46183 0.42386 0.0
H677 H 0.36074 0.46687 0.44756 0.0
H678 H 0.38815 0.52194 0.43563 0.0
H679 H 0.35479 0.51704 0.4118 0.0
H680 H 0.38811 0.53141 0.38941 0.0
H681 H 0.36713 0.45724 0.27438 0.0
H682 H 0.32026 0.45509 0.25315 0.0
H683 H 0.31136 0.47875 0.36428 0.0
C684 C 0.41753 0.48819 0.41152 0.0
C685 C 0.44132 0.4859 0.39894 0.0
C686 C 0.4398 0.47698 0.3614 0.0
C687 C 0.41531 0.47077 0.33683 0.0
C688 C 0.39237 0.47346 0.35014 0.0
C689 C 0.39327 0.48189 0.38667 0.0
C690 C 0.36615 0.48381 0.39397 0.0
C691 C 0.34791 0.46147 0.42029 0.0
C692 C 0.37483 0.51543 0.40856 0.0
C693 C 0.34993 0.47542 0.35583 0.0
C694 C 0.36535 0.46946 0.33087 0.0
C695 C 0.35493 0.46182 0.29378 0.0
C696 C 0.32835 0.46066 0.28193 0.0
C697 C 0.31265 0.46735 0.30695 0.0
C698 C 0.3233 0.47416 0.34446 0.0
H699 H 0.95331 0.43541 0.92519 0.0
H700 H 0.92605 0.43672 0.03377 0.0
H701 H 0.87987 0.38906 0.01488 0.0
H702 H 0.88285 0.40784 0.87695 0.0
H703 H 0.8881 0.3858 0.84216 0.0
H704 H 0.91948 0.41887 0.86508 0.0
H705 H 0.94415 0.38889 0.8843 0.0
H706 H 0.91299 0.3558 0.86104 0.0
H707 H 0.92413 0.35707 0.90868 0.0
H708 H 0.83589 0.34085 0.98254 0.0
H709 H 0.7993 0.29707 0.94008 0.0
H710 H 0.85598 0.33036 0.85354 0.0
C711 C 0.93792 0.42559 0.94531 0.0
C712 C 0.94341 0.43967 0.98108 0.0
C713 C 0.92236 0.4262 0.00626 0.0
C714 C 0.89607 0.3992 0.99575 0.0
C715 C 0.89119 0.38621 0.95995 0.0
C716 C 0.91165 0.39906 0.93522 0.0
C717 C 0.90112 0.38148 0.89807 0.0
C718 C 0.89768 0.39958 0.86886 0.0
C719 C 0.92183 0.37014 0.88742 0.0
C720 C 0.87153 0.35657 0.90562 0.0
C721 C 0.86602 0.35944 0.94141 0.0
C722 C 0.84 0.33847 0.95447 0.0
C723 C 0.81937 0.31384 0.93034 0.0
C724 C 0.82506 0.31075 0.89387 0.0
C725 C 0.85123 0.3325 0.88138 0.0
H726 H 0.93946 0.5257 0.93583 0.0
H727 H 1.00073 0.54468 0.85386 0.0
H728 H 0.96503 0.54647 0.80861 0.0
H729 H 0.87398 0.47796 0.87606 0.0
H730 H 0.85154 0.49028 0.89742 0.0
H731 H 0.88238 0.4918 0.92381 0.0
H732 H 0.90436 0.54772 0.94229 0.0
H733 H 0.87347 0.54633 0.91618 0.0
H734 H 0.91066 0.57206 0.90717 0.0
H735 H 0.9219 0.54555 0.77178 0.0
H736 H 0.87501 0.54185 0.7469 0.0
H737 H 0.84174 0.52259 0.85242 0.0
C738 C 0.94559 0.53061 0.9085 0.0
C739 C 0.97313 0.53529 0.89857 0.0
C740 C 0.97992 0.54116 0.86227 0.0
C741 C 0.95973 0.54219 0.83633 0.0
C742 C 0.93268 0.53715 0.84695 0.0
C743 C 0.92561 0.53149 0.8822 0.0
C744 C 0.89479 0.52609 0.88645 0.0
C745 C 0.87448 0.49467 0.89653 0.0
C746 C 0.8959 0.54945 0.9147 0.0
C747 C 0.88561 0.52965 0.84812 0.0
C748 C 0.90778 0.53607 0.8257 0.0
C749 C 0.90441 0.54044 0.78911 0.0
C750 C 0.87776 0.53825 0.77516 0.0
C751 C 0.8548 0.53153 0.79763 0.0
C752 C 0.85888 0.52732 0.83459 0.0
H753 H 0.42564 0.91028 0.49948 0.0
H754 H 0.44161 0.98687 0.44429 0.0
H755 H 0.3965 0.95611 0.40255 0.0
H756 H 0.40074 0.86004 0.42194 0.0
H757 H 0.37196 0.82928 0.44146 0.0
H758 H 0.40374 0.85748 0.47043 0.0
H759 H 0.36989 0.86673 0.51075 0.0
H760 H 0.33792 0.83811 0.48232 0.0
H761 H 0.34309 0.87465 0.48969 0.0
H762 H 0.35412 0.91692 0.3618 0.0
H763 H 0.31279 0.87122 0.32814 0.0
H764 H 0.32114 0.82017 0.41133 0.0
C765 C 0.41916 0.92068 0.47929 0.0
C766 C 0.43725 0.95095 0.4751 0.0
C767 C 0.42824 0.96368 0.44796 0.0
C768 C 0.4026 0.94643 0.42406 0.0
C769 C 0.3859 0.9165 0.42789 0.0
C770 C 0.39335 0.90373 0.45519 0.0
C771 C 0.37197 0.87071 0.45206 0.0
C772 C 0.38808 0.85337 0.44612 0.0
C773 C 0.35469 0.86205 0.48571 0.0
C774 C 0.35208 0.867 0.41814 0.0
C775 C 0.3606 0.89374 0.40466 0.0
C776 C 0.34689 0.89586 0.37234 0.0
C777 C 0.32365 0.86991 0.35335 0.0
C778 C 0.31441 0.84235 0.36683 0.0
C779 C 0.32844 0.84094 0.39995 0.0
H780 H 0.49303 0.44883 0.88955 0.0
H781 H 0.44872 0.40524 0.98167 0.0
H782 H 0.43264 0.35669 0.94813 0.0
H783 H 0.44022 0.39084 0.81549 0.0
H784 H 0.46951 0.39512 0.78887 0.0
H785 H 0.47366 0.42621 0.8176 0.0
H786 H 0.5223 0.43342 0.85014 0.0
H787 H 0.51813 0.40222 0.8218 0.0
H788 H 0.52198 0.40308 0.87087 0.0
H789 H 0.42592 0.31341 0.90803 0.0
H790 H 0.42859 0.27803 0.86321 0.0
H791 H 0.47797 0.34877 0.79691 0.0
C792 C 0.47899 0.42896 0.90194 0.0
C793 C 0.47145 0.43065 0.93784 0.0
C794 C 0.45424 0.4043 0.95396 0.0
C795 C 0.44506 0.37665 0.93513 0.0
C796 C 0.45349 0.37563 0.90022 0.0
C797 C 0.46999 0.40103 0.88362 0.0
C798 C 0.47842 0.39376 0.84732 0.0
C799 C 0.46462 0.40197 0.81543 0.0
C800 C 0.51221 0.40903 0.84757 0.0
C801 C 0.46452 0.36049 0.84651 0.0
C802 C 0.45004 0.3505 0.87718 0.0
C803 C 0.43678 0.32089 0.88361 0.0
C804 C 0.43837 0.30096 0.8581 0.0
C805 C 0.45309 0.31066 0.82654 0.0
C806 C 0.46621 0.3408 0.82063 0.0
H807 H 0.06435 0.46774 0.46359 0.0
H808 H 0.98423 0.40216 0.39695 0.0
H809 H 0.01435 0.3933 0.35462 0.0
H810 H 0.10344 0.49957 0.39122 0.0
H811 H 0.13889 0.50743 0.41213 0.0
H812 H 0.11123 0.50521 0.44029 0.0
H813 H 0.11442 0.4651 0.47457 0.0
H814 H 0.14234 0.46736 0.4467 0.0
H815 H 0.10933 0.43232 0.44893 0.0
H816 H 0.05301 0.39599 0.31593 0.0
H817 H 0.09741 0.40911 0.28425 0.0
H818 H 0.15242 0.47344 0.37569 0.0
C819 C 0.05306 0.45075 0.44083 0.0
C820 C 0.02189 0.43529 0.43386 0.0
C821 C 0.00804 0.41401 0.40302 0.0
C822 C 0.02498 0.40885 0.37884 0.0
C823 C 0.0557 0.42518 0.3859 0.0
C824 C 0.06962 0.44558 0.41627 0.0
C825 C 0.10288 0.4623 0.41577 0.0
C826 C 0.1148 0.49558 0.41479 0.0
C827 C 0.11814 0.4564 0.44843 0.0
C828 C 0.10553 0.4484 0.38008 0.0
C829 C 0.07806 0.42694 0.36338 0.0
C830 C 0.07465 0.41242 0.329 0.0
C831 C 0.09994 0.42012 0.31115 0.0
C832 C 0.12827 0.44214 0.32767 0.0
C833 C 0.13107 0.45614 0.36279 0.0
H834 H 0.56807 0.10414 0.99143 0.0
H835 H 0.57051 0.02294 0.97951 0.0
H836 H 0.61453 0.0472 0.94608 0.0
H837 H 0.58627 0.12314 0.90249 0.0
H838 H 0.60884 0.1624 0.91486 0.0
H839 H 0.57961 0.14019 0.94182 0.0
H840 H 0.61693 0.15937 1.00004 0.0
H841 H 0.64625 0.18194 0.97334 0.0
H842 H 0.64943 0.156 1.0003 0.0
H843 H 0.65498 0.07806 0.90958 0.0
H844 H 0.69123 0.1145 0.87362 0.0
H845 H 0.66425 0.17714 0.90827 0.0
C846 C 0.57856 0.09191 0.98275 0.0
C847 C 0.56637 0.06185 0.98869 0.0
C848 C 0.57986 0.04609 0.97569 0.0
C849 C 0.6048 0.05966 0.95659 0.0
C850 C 0.61595 0.08904 0.95032 0.0
C851 C 0.60347 0.10513 0.96308 0.0
C852 C 0.61887 0.13582 0.95021 0.0
C853 C 0.5971 0.14066 0.92591 0.0
C854 C 0.63376 0.1597 0.98293 0.0
C855 C 0.6417 0.13426 0.92814 0.0
C856 C 0.63953 0.10704 0.92874 0.0
C857 C 0.65728 0.09968 0.90943 0.0
C858 C 0.67805 0.12073 0.88921 0.0
C859 C 0.68127 0.14913 0.88839 0.0
C860 C 0.66256 0.15577 0.90816 0.0
H861 H 0.55468 0.5991 0.43571 0.0
H862 H 0.50213 0.60506 0.5185 0.0
H863 H 0.50736 0.65032 0.49492 0.0
H864 H 0.60491 0.68017 0.43432 0.0
H865 H 0.60583 0.67599 0.38559 0.0
H866 H 0.60148 0.64684 0.41252 0.0
H867 H 0.55361 0.60998 0.37099 0.0
H868 H 0.55755 0.63898 0.34426 0.0
H869 H 0.52397 0.61779 0.36511 0.0
H870 H 0.51215 0.69044 0.45616 0.0
H871 H 0.51818 0.72313 0.40808 0.0
H872 H 0.56978 0.69214 0.35282 0.0
C873 C 0.5449 0.61032 0.44955 0.0
C874 C 0.52805 0.59857 0.47902 0.0
C875 C 0.51538 0.6138 0.49611 0.0
C876 C 0.51818 0.63949 0.48284 0.0
C877 C 0.5341 0.64988 0.45286 0.0
C878 C 0.54765 0.63599 0.43685 0.0
C879 C 0.56174 0.6502 0.40346 0.0
C880 C 0.5955 0.66413 0.40934 0.0
C881 C 0.54841 0.62791 0.36894 0.0
C882 C 0.55307 0.67357 0.40228 0.0
C883 C 0.53733 0.67326 0.43111 0.0
C884 C 0.52505 0.69134 0.43397 0.0
C885 C 0.52872 0.70998 0.40652 0.0
C886 C 0.54456 0.71043 0.3765 0.0
C887 C 0.55732 0.6923 0.37506 0.0
H888 H 0.52036 0.10916 0.5285 0.0
H889 H 0.48789 0.03789 0.59842 0.0
H890 H 0.47345 0.06533 0.63999 0.0
H891 H 0.55001 0.16853 0.60187 0.0
H892 H 0.5392 0.19119 0.57815 0.0
H893 H 0.54694 0.16598 0.55261 0.0
H894 H 0.49513 0.14155 0.51616 0.0
H895 H 0.48726 0.16671 0.54158 0.0
H896 H 0.46278 0.12744 0.54049 0.0
H897 H 0.4631 0.09987 0.67531 0.0
H898 H 0.45729 0.14065 0.70221 0.0
H899 H 0.49505 0.19022 0.61079 0.0
C900 C 0.51012 0.09934 0.55247 0.0
C901 C 0.50535 0.07122 0.55992 0.0
C902 C 0.49192 0.05929 0.59179 0.0
C903 C 0.48354 0.07471 0.61577 0.0
C904 C 0.48857 0.10222 0.6078 0.0
C905 C 0.50149 0.11456 0.57701 0.0
C906 C 0.50445 0.14477 0.57556 0.0
C907 C 0.53709 0.16905 0.57714 0.0
C908 C 0.48632 0.14513 0.54142 0.0
C909 C 0.49126 0.14728 0.6103 0.0
C910 C 0.4823 0.12239 0.62839 0.0
C911 C 0.4699 0.11945 0.66136 0.0
C912 C 0.46664 0.14262 0.67641 0.0
C913 C 0.47566 0.16837 0.65853 0.0
C914 C 0.48798 0.17066 0.62492 0.0
H915 H 0.4211 0.4648 0.04498 0.0
H916 H 0.48204 0.48352 0.14119 0.0
H917 H 0.44628 0.4853 0.18035 0.0
H918 H 0.39579 0.51149 0.07217 0.0
H919 H 0.35776 0.48735 0.05397 0.0
H920 H 0.38664 0.48456 0.0336 0.0
H921 H 0.36162 0.42912 0.04344 0.0
H922 H 0.33226 0.43154 0.06313 0.0
H923 H 0.3527 0.41803 0.08846 0.0
H924 H 0.40714 0.49237 0.20773 0.0
H925 H 0.36347 0.49561 0.2226 0.0
H926 H 0.3264 0.46837 0.10927 0.0
C927 C 0.42656 0.46849 0.07437 0.0
C928 C 0.45425 0.47395 0.09014 0.0
C929 C 0.46077 0.47891 0.12864 0.0
C930 C 0.44071 0.4802 0.15104 0.0
C931 C 0.41405 0.47585 0.1345 0.0
C932 C 0.40658 0.46927 0.09713 0.0
C933 C 0.37674 0.46595 0.0861 0.0
C934 C 0.37942 0.4887 0.05992 0.0
C935 C 0.35451 0.43427 0.0693 0.0
C936 C 0.36894 0.47254 0.12297 0.0
C937 C 0.39088 0.47848 0.15051 0.0
C938 C 0.38956 0.48716 0.18652 0.0
C939 C 0.36486 0.48914 0.19467 0.0
C940 C 0.34168 0.482 0.16708 0.0
C941 C 0.34381 0.47368 0.13082 0.0
H942 H 0.95574 0.44474 0.6231 0.0
H943 H 0.96534 0.38776 0.54215 0.0
H944 H 0.9343 0.34455 0.57455 0.0
H945 H 0.95301 0.40414 0.70336 0.0
H946 H 0.9249 0.40951 0.72194 0.0
H947 H 0.95093 0.43654 0.69524 0.0
H948 H 0.90758 0.43138 0.65181 0.0
H949 H 0.88145 0.4042 0.67818 0.0
H950 H 0.88018 0.39546 0.62981 0.0
H951 H 0.90011 0.30722 0.61316 0.0
H952 H 0.86416 0.2777 0.65484 0.0
H953 H 0.87325 0.35782 0.70937 0.0
C954 C 0.95201 0.42326 0.61302 0.0
C955 C 0.96354 0.41957 0.58069 0.0
C956 C 0.95716 0.39102 0.56726 0.0
C957 C 0.93951 0.36637 0.58545 0.0
C958 C 0.92796 0.37051 0.61683 0.0
C959 C 0.93386 0.3982 0.63058 0.0
C960 C 0.91657 0.39599 0.66305 0.0
C961 C 0.93761 0.41253 0.69797 0.0
C962 C 0.89518 0.40744 0.65523 0.0
C963 C 0.89992 0.3628 0.66512 0.0
C964 C 0.90708 0.34865 0.63836 0.0
C965 C 0.8943 0.31806 0.63421 0.0
C966 C 0.87359 0.30141 0.65791 0.0
C967 C 0.8654 0.31518 0.68541 0.0
C968 C 0.87907 0.34645 0.68902 0.0
H969 H 0.46994 0.89945 0.01258 0.0
H970 H 0.55339 0.98201 0.03117 0.0
H971 H 0.57664 0.95703 0.06124 0.0
H972 H 0.47352 0.87709 0.09616 0.0
H973 H 0.45756 0.83822 0.08239 0.0
H974 H 0.44857 0.86028 0.05483 0.0
H975 H 0.46617 0.84424 0.99835 0.0
H976 H 0.47478 0.82164 0.0256 0.0
H977 H 0.50277 0.84917 1.00132 0.0
H978 H 0.58796 0.92699 0.09969 0.0
H979 H 0.58831 0.89246 0.14081 0.0
H980 H 0.49866 0.82688 0.09552 0.0
C981 C 0.4934 0.91178 0.02151 0.0
C982 C 0.51011 0.94246 0.01919 0.0
C983 C 0.54043 0.95839 0.03246 0.0
C984 C 0.55381 0.94439 0.04951 0.0
C985 C 0.53656 0.91441 0.05301 0.0
C986 C 0.50712 0.89806 0.03896 0.0
C987 C 0.49293 0.86699 0.05036 0.0
C988 C 0.4666 0.86028 0.07223 0.0
C989 C 0.48362 0.84416 0.01691 0.0
C990 C 0.51856 0.86905 0.07439 0.0
C991 C 0.54353 0.89651 0.07511 0.0
C992 C 0.56894 0.90498 0.09836 0.0
C993 C 0.56893 0.88492 0.12159 0.0
C994 C 0.54375 0.85634 0.12131 0.0
C995 C 0.5184 0.84835 0.09676 0.0
H996 H 0.576 0.52451 0.57126 0.0
H997 H 0.60734 0.51744 0.467 0.0
H998 H 0.65063 0.51856 0.49951 0.0
H999 H 0.64729 0.57361 0.6218 0.0
H1000 H 0.63709 0.55591 0.66316 0.0
H1001 H 0.60929 0.55551 0.63158 0.0
H1002 H 0.57905 0.4984 0.62767 0.0
H1003 H 0.60681 0.49858 0.65908 0.0
H1004 H 0.59628 0.47742 0.61492 0.0
H1005 H 0.69057 0.51987 0.54415 0.0
H1006 H 0.72333 0.52134 0.59687 0.0
H1007 H 0.6652 0.5266 0.67136 0.0
C1008 C 0.5921 0.52352 0.55515 0.0
C1009 C 0.5883 0.52114 0.51644 0.0
C1010 C 0.60976 0.51943 0.4966 0.0
C1011 C 0.63443 0.52001 0.51487 0.0
C1012 C 0.6373 0.52213 0.55303 0.0
C1013 C 0.61666 0.52384 0.5729 0.0
C1014 C 0.62437 0.52525 0.61363 0.0
C1015 C 0.62984 0.5543 0.63371 0.0
C1016 C 0.6002 0.49831 0.62976 0.0
C1017 C 0.65272 0.52427 0.6137 0.0
C1018 C 0.65985 0.52245 0.57848 0.0
C1019 C 0.68515 0.52129 0.57177 0.0
C1020 C 0.70359 0.52212 0.60174 0.0
C1021 C 0.69665 0.52405 0.63787 0.0
C1022 C 0.67087 0.52508 0.64386 0.0
H1023 H 0.05156 0.59419 0.09633 0.0
H1024 H 0.08884 0.61698 0.99322 0.0
H1025 H 0.13034 0.66372 0.02439 0.0
H1026 H 0.07458 0.66984 0.13573 0.0
H1027 H 0.08285 0.66277 0.18094 0.0
H1028 H 0.05419 0.63316 0.14962 0.0
H1029 H 0.0802 0.6027 0.15775 0.0
H1030 H 0.109 0.63225 0.18881 0.0
H1031 H 0.11826 0.61843 0.14885 0.0
H1032 H 0.1703 0.70585 0.06809 0.0
H1033 H 0.20488 0.73979 0.12097 0.0
H1034 H 0.14182 0.68831 0.19483 0.0
C1035 C 0.06799 0.60937 0.08009 0.0
C1036 C 0.06681 0.60208 0.04228 0.0
C1037 C 0.08921 0.62221 0.0222 0.0
C1038 C 0.11285 0.64882 0.03965 0.0
C1039 C 0.11378 0.65496 0.07719 0.0
C1040 C 0.09185 0.63583 0.09713 0.0
C1041 C 0.09918 0.64629 0.13755 0.0
C1042 C 0.07634 0.65345 0.15179 0.0
C1043 C 0.10182 0.62357 0.15951 0.0
C1044 C 0.12886 0.67398 0.13734 0.0
C1045 C 0.13686 0.67886 0.10228 0.0
C1046 C 0.16406 0.70249 0.0956 0.0
C1047 C 0.18353 0.72159 0.12559 0.0
C1048 C 0.17558 0.71673 0.16152 0.0
C1049 C 0.14798 0.69268 0.16739 0.0
loop_
_geom_bond_atom_site_label_1
_geom_bond_atom_site_label_2
_geom_bond_distance
_geom_bond_site_symmetry_2
_ccdc_geom_bond_type
C0 O2 1.247 . S
C0 O4 1.258 . S
C1 O8 1.247 . S
C1 O9 1.258 . S
O2 C0 1.247 . S
O2 Zn3 2.028 1_455 S
Zn3 O2 2.028 1_655 S
Zn3 O7 2.035 1_554 S
Zn3 O9 2.035 1_554 S
Zn3 O10 2.028 1_655 S
O4 C0 1.258 . S
O4 Zn5 2.035 1_554 S
Zn5 O4 2.035 1_556 S
Zn5 O6 2.028 1_455 S
Zn5 O8 2.028 1_455 S
Zn5 O11 2.035 1_556 S
O6 Zn5 2.028 1_655 S
O6 C12 1.247 . S
O7 Zn3 2.035 1_556 S
O7 C12 1.258 . S
O8 C1 1.247 . S
O8 Zn5 2.028 1_655 S
O9 C1 1.258 . S
O9 Zn3 2.035 1_556 S
O10 Zn3 2.028 1_455 S
O10 C13 1.247 . S
O11 Zn5 2.035 1_554 S
O11 C13 1.258 . S
C12 O6 1.247 . S
C12 O7 1.258 . S
C13 O10 1.247 . S
C13 O11 1.258 . S
C14 O16 1.247 . S
C14 O18 1.258 . S
C15 O22 1.247 . S
C15 O23 1.258 . S
O16 C14 1.247 . S
O16 Zn17 2.028 1_545 S
Zn17 O16 2.028 1_565 S
Zn17 O21 2.035 . S
Zn17 O23 2.035 . S
Zn17 O24 2.028 1_565 S
O18 C14 1.258 . S
O18 Zn19 2.035 . S
Zn19 O18 2.035 . S
Zn19 O20 2.028 1_545 S
Zn19 O22 2.028 1_545 S
Zn19 O25 2.035 . S
O20 Zn19 2.028 1_565 S
O20 C26 1.247 . S
O21 Zn17 2.035 . S
O21 C26 1.258 . S
O22 C15 1.247 . S
O22 Zn19 2.028 1_565 S
O23 C15 1.258 . S
O23 Zn17 2.035 . S
O24 Zn17 2.028 1_545 S
O24 C27 1.247 . S
O25 Zn19 2.035 . S
O25 C27 1.258 . S
C26 O20 1.247 . S
C26 O21 1.258 . S
C27 O24 1.247 . S
C27 O25 1.258 . S
C28 O30 1.247 . S
C28 O32 1.258 . S
C29 O36 1.247 . S
C29 O37 1.258 . S
O30 C28 1.247 . S
O30 Zn31 2.028 . S
Zn31 O30 2.028 . S
Zn31 O35 2.035 1_556 S
Zn31 O37 2.035 1_556 S
Zn31 O38 2.028 . S
O32 C28 1.258 . S
O32 Zn33 2.035 1_556 S
Zn33 O32 2.035 1_554 S
Zn33 O34 2.028 . S
Zn33 O36 2.028 . S
Zn33 O39 2.035 1_554 S
O34 Zn33 2.028 . S
O34 C40 1.247 . S
O35 Zn31 2.035 1_554 S
O35 C40 1.258 . S
O36 C29 1.247 . S
O36 Zn33 2.028 . S
O37 C29 1.258 . S
O37 Zn31 2.035 1_554 S
O38 Zn31 2.028 . S
O38 C41 1.247 . S
O39 Zn33 2.035 1_556 S
O39 C41 1.258 . S
C40 O34 1.247 . S
C40 O35 1.258 . S
C41 O38 1.247 . S
C41 O39 1.258 . S
C42 O44 1.247 . S
C42 O46 1.258 . S
C43 O50 1.247 . S
C43 O51 1.258 . S
O44 C42 1.247 . S
O44 Zn45 2.028 . S
Zn45 O44 2.028 . S
Zn45 O49 2.035 1_455 S
Zn45 O51 2.035 1_455 S
Zn45 O52 2.028 . S
O46 C42 1.258 . S
O46 Zn47 2.035 1_455 S
Zn47 O46 2.035 1_655 S
Zn47 O48 2.028 . S
Zn47 O50 2.028 . S
Zn47 O53 2.035 1_655 S
O48 Zn47 2.028 . S
O48 C54 1.247 . S
O49 Zn45 2.035 1_655 S
O49 C54 1.258 . S
O50 C43 1.247 . S
O50 Zn47 2.028 . S
O51 C43 1.258 . S
O51 Zn45 2.035 1_655 S
O52 Zn45 2.028 . S
O52 C55 1.247 . S
O53 Zn47 2.035 1_455 S
O53 C55 1.258 . S
C54 O48 1.247 . S
C54 O49 1.258 . S
C55 O52 1.247 . S
C55 O53 1.258 . S
C56 O58 1.284 . S
C56 O60 1.258 . S
C57 O64 1.247 . S
C57 O65 1.258 . S
O58 C56 1.284 . S
O58 Zn59 1.991 1_565 S
Zn59 O58 1.991 1_545 S
Zn59 O63 2.035 1_554 S
Zn59 O65 2.035 1_554 S
Zn59 O66 2.027 1_545 S
O60 C56 1.258 . S
O60 Zn61 2.035 1_554 S
Zn61 O60 2.035 1_556 S
Zn61 O62 2.028 1_565 S
Zn61 O64 2.028 1_565 S
Zn61 O67 2.035 1_556 S
O62 Zn61 2.028 1_545 S
O62 C68 1.247 . S
O63 Zn59 2.035 1_556 S
O63 C68 1.258 . S
O64 C57 1.247 . S
O64 Zn61 2.028 1_545 S
O65 C57 1.258 . S
O65 Zn59 2.035 1_556 S
O66 Zn59 2.027 1_565 S
O66 C69 1.249 . S
O67 Zn61 2.035 1_554 S
O67 C69 1.258 . S
C68 O62 1.247 . S
C68 O63 1.258 . S
C69 O66 1.249 . S
C69 O67 1.258 . S
C70 O72 1.247 . S
C70 O74 1.258 . S
C71 O78 1.247 . S
C71 O79 1.258 . S
O72 C70 1.247 . S
O72 Zn73 2.028 . S
Zn73 O72 2.028 . S
Zn73 O77 2.035 . S
Zn73 O79 2.035 . S
Zn73 O80 2.028 . S
O74 C70 1.258 . S
O74 Zn75 2.035 . S
Zn75 O74 2.035 . S
Zn75 O76 2.028 . S
Zn75 O78 2.028 . S
Zn75 O81 2.035 . S
O76 Zn75 2.028 . S
O76 C82 1.247 . S
O77 Zn73 2.035 . S
O77 C82 1.258 . S
O78 C71 1.247 . S
O78 Zn75 2.028 . S
O79 C71 1.258 . S
O79 Zn73 2.035 . S
O80 Zn73 2.028 . S
O80 C83 1.247 . S
O81 Zn75 2.035 . S
O81 C83 1.258 . S
C82 O76 1.247 . S
C82 O77 1.258 . S
C83 O80 1.247 . S
C83 O81 1.258 . S
C84 C85 1.443 . S
C84 N88 1.376 . S
C84 C122 1.389 . S
C85 C84 1.443 . S
C85 C86 1.340 . S
C85 H125 0.951 . S
C86 C85 1.340 . S
C86 C87 1.439 . S
C86 H126 0.950 . S
C87 C86 1.439 . S
C87 N88 1.374 . S
C87 C121 1.395 . S
N88 C84 1.376 . S
N88 C87 1.374 . S
N88 Co89 2.008 . S
Co89 N88 2.008 . S
Co89 N90 1.995 . S
Co89 N95 2.008 . S
Co89 N100 1.995 . S
Co89 N105 2.282 . S
Co89 N111 2.282 . S
N90 Co89 1.995 . S
N90 C91 1.376 . S
N90 C94 1.383 . S
C91 N90 1.376 . S
C91 C92 1.446 . S
C91 C121 1.391 . S
C92 C91 1.446 . S
C92 C93 1.339 . S
C92 H127 0.949 . S
C93 C92 1.339 . S
C93 C94 1.439 . S
C93 H128 0.950 . S
C94 N90 1.383 . S
C94 C93 1.439 . S
C94 C123 1.392 . S
N95 Co89 2.008 . S
N95 C96 1.376 . S
N95 C99 1.374 . S
C96 N95 1.376 . S
C96 C97 1.443 . S
C96 C123 1.389 . S
C97 C96 1.443 . S
C97 C98 1.340 . S
C97 H129 0.951 . S
C98 C97 1.340 . S
C98 C99 1.439 . S
C98 H130 0.950 . S
C99 N95 1.374 . S
C99 C98 1.439 . S
C99 C124 1.395 . S
N100 Co89 1.995 . S
N100 C101 1.376 . S
N100 C104 1.383 . S
C101 N100 1.376 . S
C101 C102 1.446 . S
C101 C124 1.391 . S
C102 C101 1.446 . S
C102 C103 1.339 . S
C102 H131 0.949 . S
C103 C102 1.339 . S
C103 C104 1.439 . S
C103 H132 0.950 . S
C104 N100 1.383 . S
C104 C103 1.439 . S
C104 C122 1.392 . S
N105 Co89 2.282 . S
N105 C108 1.332 . S
N105 C110 1.332 . S
C106 C107 1.386 . S
C106 C109 1.388 . S
C107 C106 1.386 . S
C107 C108 1.382 . S
C107 H133 0.950 . S
C108 N105 1.332 . S
C108 C107 1.382 . S
C108 H119 0.952 . S
C109 C106 1.388 . S
C109 C110 1.382 . S
C109 H134 0.950 . S
C110 N105 1.332 . S
C110 C109 1.382 . S
C110 H120 0.948 . S
N111 Co89 2.282 . S
N111 C115 1.332 . S
N111 C116 1.332 . S
C112 C113 1.388 . S
C112 C116 1.382 . S
C112 H135 0.950 . S
C113 C112 1.388 . S
C113 C114 1.386 . S
C114 C113 1.386 . S
C114 C115 1.382 . S
C114 H136 0.950 . S
C115 N111 1.332 . S
C115 C114 1.382 . S
C115 H117 0.952 . S
C116 N111 1.332 . S
C116 C112 1.382 . S
C116 H118 0.948 . S
H117 C115 0.952 . S
H118 C116 0.948 . S
H119 C108 0.952 . S
H120 C110 0.948 . S
C121 C87 1.395 . S
C121 C91 1.391 . S
C122 C84 1.389 . S
C122 C104 1.392 . S
C123 C94 1.392 . S
C123 C96 1.389 . S
C124 C99 1.395 . S
C124 C101 1.391 . S
H125 C85 0.951 . S
H126 C86 0.950 . S
H127 C92 0.949 . S
H128 C93 0.950 . S
H129 C97 0.951 . S
H130 C98 0.950 . S
H131 C102 0.949 . S
H132 C103 0.950 . S
H133 C107 0.950 . S
H134 C109 0.950 . S
H135 C112 0.950 . S
H136 C114 0.950 . S
C137 C138 1.443 . S
C137 N141 1.376 . S
C137 C175 1.389 . S
C138 C137 1.443 . S
C138 C139 1.340 . S
C138 H178 0.951 . S
C139 C138 1.340 . S
C139 C140 1.439 . S
C139 H179 0.950 . S
C140 C139 1.439 . S
C140 N141 1.374 . S
C140 C174 1.395 . S
N141 C137 1.376 . S
N141 C140 1.374 . S
N141 Co142 2.008 . S
Co142 N141 2.008 . S
Co142 N143 1.995 . S
Co142 N148 2.008 . S
Co142 N153 1.995 . S
Co142 N158 2.282 . S
Co142 N164 2.282 . S
N143 Co142 1.995 . S
N143 C144 1.376 . S
N143 C147 1.383 . S
C144 N143 1.376 . S
C144 C145 1.446 . S
C144 C174 1.391 . S
C145 C144 1.446 . S
C145 C146 1.339 . S
C145 H180 0.949 . S
C146 C145 1.339 . S
C146 C147 1.439 . S
C146 H181 0.950 . S
C147 N143 1.383 . S
C147 C146 1.439 . S
C147 C176 1.392 . S
N148 Co142 2.008 . S
N148 C149 1.376 . S
N148 C152 1.374 . S
C149 N148 1.376 . S
C149 C150 1.443 . S
C149 C176 1.389 . S
C150 C149 1.443 . S
C150 C151 1.340 . S
C150 H182 0.951 . S
C151 C150 1.340 . S
C151 C152 1.439 . S
C151 H183 0.950 . S
C152 N148 1.374 . S
C152 C151 1.439 . S
C152 C177 1.395 . S
N153 Co142 1.995 . S
N153 C154 1.376 . S
N153 C157 1.383 . S
C154 N153 1.376 . S
C154 C155 1.446 . S
C154 C177 1.391 . S
C155 C154 1.446 . S
C155 C156 1.339 . S
C155 H184 0.949 . S
C156 C155 1.339 . S
C156 C157 1.439 . S
C156 H185 0.950 . S
C157 N153 1.383 . S
C157 C156 1.439 . S
C157 C175 1.392 . S
N158 Co142 2.282 . S
N158 C161 1.332 . S
N158 C163 1.332 . S
C159 C160 1.386 . S
C159 C162 1.388 . S
C160 C159 1.386 . S
C160 C161 1.382 . S
C160 H186 0.950 . S
C161 N158 1.332 . S
C161 C160 1.382 . S
C161 H172 0.952 . S
C162 C159 1.388 . S
C162 C163 1.382 . S
C162 H187 0.950 . S
C163 N158 1.332 . S
C163 C162 1.382 . S
C163 H173 0.948 . S
N164 Co142 2.282 . S
N164 C168 1.332 . S
N164 C169 1.332 . S
C165 C166 1.388 . S
C165 C169 1.382 . S
C165 H188 0.950 . S
C166 C165 1.388 . S
C166 C167 1.386 . S
C167 C166 1.386 . S
C167 C168 1.382 . S
C167 H189 0.950 . S
C168 N164 1.332 . S
C168 C167 1.382 . S
C168 H170 0.952 . S
C169 N164 1.332 . S
C169 C165 1.382 . S
C169 H171 0.948 . S
H170 C168 0.952 . S
H171 C169 0.948 . S
H172 C161 0.952 . S
H173 C163 0.948 . S
C174 C140 1.395 . S
C174 C144 1.391 . S
C175 C137 1.389 . S
C175 C157 1.392 . S
C176 C147 1.392 . S
C176 C149 1.389 . S
C177 C152 1.395 . S
C177 C154 1.391 . S
H178 C138 0.951 . S
H179 C139 0.950 . S
H180 C145 0.949 . S
H181 C146 0.950 . S
H182 C150 0.951 . S
H183 C151 0.950 . S
H184 C155 0.949 . S
H185 C156 0.950 . S
H186 C160 0.950 . S
H187 C162 0.950 . S
H188 C165 0.950 . S
H189 C167 0.950 . S
C190 C191 1.443 . S
C190 N194 1.376 . S
C190 C228 1.389 . S
C191 C190 1.443 . S
C191 C192 1.340 . S
C191 H231 0.951 . S
C192 C191 1.340 . S
C192 C193 1.439 . S
C192 H232 0.950 . S
C193 C192 1.439 . S
C193 N194 1.374 . S
C193 C227 1.395 . S
N194 C190 1.376 . S
N194 C193 1.374 . S
N194 Co195 2.008 . S
Co195 N194 2.008 . S
Co195 N196 1.995 . S
Co195 N201 2.008 . S
Co195 N206 1.995 . S
Co195 N211 2.282 . S
Co195 N217 2.282 . S
N196 Co195 1.995 . S
N196 C197 1.376 . S
N196 C200 1.383 . S
C197 N196 1.376 . S
C197 C198 1.446 . S
C197 C227 1.391 . S
C198 C197 1.446 . S
C198 C199 1.339 . S
C198 H233 0.949 . S
C199 C198 1.339 . S
C199 C200 1.439 . S
C199 H234 0.950 . S
C200 N196 1.383 . S
C200 C199 1.439 . S
C200 C229 1.392 . S
N201 Co195 2.008 . S
N201 C202 1.376 . S
N201 C205 1.374 . S
C202 N201 1.376 . S
C202 C203 1.443 . S
C202 C229 1.389 . S
C203 C202 1.443 . S
C203 C204 1.340 . S
C203 H235 0.951 . S
C204 C203 1.340 . S
C204 C205 1.439 . S
C204 H236 0.950 . S
C205 N201 1.374 . S
C205 C204 1.439 . S
C205 C230 1.395 . S
N206 Co195 1.995 . S
N206 C207 1.376 . S
N206 C210 1.383 . S
C207 N206 1.376 . S
C207 C208 1.446 . S
C207 C230 1.391 . S
C208 C207 1.446 . S
C208 C209 1.339 . S
C208 H237 0.949 . S
C209 C208 1.339 . S
C209 C210 1.439 . S
C209 H238 0.950 . S
C210 N206 1.383 . S
C210 C209 1.439 . S
C210 C228 1.392 . S
N211 Co195 2.282 . S
N211 C214 1.332 . S
N211 C216 1.332 . S
C212 C213 1.386 . S
C212 C215 1.388 . S
C213 C212 1.386 . S
C213 C214 1.382 . S
C213 H239 0.950 . S
C214 N211 1.332 . S
C214 C213 1.382 . S
C214 H225 0.952 . S
C215 C212 1.388 . S
C215 C216 1.382 . S
C215 H240 0.950 . S
C216 N211 1.332 . S
C216 C215 1.382 . S
C216 H226 0.948 . S
N217 Co195 2.282 . S
N217 C221 1.332 . S
N217 C222 1.332 . S
C218 C219 1.388 . S
C218 C222 1.382 . S
C218 H241 0.950 . S
C219 C218 1.388 . S
C219 C220 1.386 . S
C220 C219 1.386 . S
C220 C221 1.382 . S
C220 H242 0.950 . S
C221 N217 1.332 . S
C221 C220 1.382 . S
C221 H223 0.952 . S
C222 N217 1.332 . S
C222 C218 1.382 . S
C222 H224 0.948 . S
H223 C221 0.952 . S
H224 C222 0.948 . S
H225 C214 0.952 . S
H226 C216 0.948 . S
C227 C193 1.395 . S
C227 C197 1.391 . S
C228 C190 1.389 . S
C228 C210 1.392 . S
C229 C200 1.392 . S
C229 C202 1.389 . S
C230 C205 1.395 . S
C230 C207 1.391 . S
H231 C191 0.951 . S
H232 C192 0.950 . S
H233 C198 0.949 . S
H234 C199 0.950 . S
H235 C203 0.951 . S
H236 C204 0.950 . S
H237 C208 0.949 . S
H238 C209 0.950 . S
H239 C213 0.950 . S
H240 C215 0.950 . S
H241 C218 0.950 . S
H242 C220 0.950 . S
C243 C244 1.443 . S
C243 N247 1.376 . S
C243 C281 1.389 . S
C244 C243 1.443 . S
C244 C245 1.340 . S
C244 H284 0.951 . S
C245 C244 1.340 . S
C245 C246 1.439 . S
C245 H285 0.950 . S
C246 C245 1.439 . S
C246 N247 1.374 . S
C246 C280 1.395 . S
N247 C243 1.376 . S
N247 C246 1.374 . S
N247 Co248 2.008 . S
Co248 N247 2.008 . S
Co248 N249 1.995 . S
Co248 N254 2.008 . S
Co248 N259 1.995 . S
Co248 N264 2.282 . S
Co248 N270 2.282 . S
N249 Co248 1.995 . S
N249 C250 1.376 . S
N249 C253 1.383 . S
C250 N249 1.376 . S
C250 C251 1.446 . S
C250 C280 1.391 . S
C251 C250 1.446 . S
C251 C252 1.339 . S
C251 H286 0.949 . S
C252 C251 1.339 . S
C252 C253 1.439 . S
C252 H287 0.950 . S
C253 N249 1.383 . S
C253 C252 1.439 . S
C253 C282 1.392 . S
N254 Co248 2.008 . S
N254 C255 1.376 . S
N254 C258 1.374 . S
C255 N254 1.376 . S
C255 C256 1.443 . S
C255 C282 1.389 . S
C256 C255 1.443 . S
C256 C257 1.340 . S
C256 H288 0.951 . S
C257 C256 1.340 . S
C257 C258 1.439 . S
C257 H289 0.950 . S
C258 N254 1.374 . S
C258 C257 1.439 . S
C258 C283 1.395 . S
N259 Co248 1.995 . S
N259 C260 1.376 . S
N259 C263 1.383 . S
C260 N259 1.376 . S
C260 C261 1.446 . S
C260 C283 1.391 . S
C261 C260 1.446 . S
C261 C262 1.339 . S
C261 H290 0.949 . S
C262 C261 1.339 . S
C262 C263 1.439 . S
C262 H291 0.950 . S
C263 N259 1.383 . S
C263 C262 1.439 . S
C263 C281 1.392 . S
N264 Co248 2.282 . S
N264 C267 1.332 . S
N264 C269 1.332 . S
C265 C266 1.386 . S
C265 C268 1.388 . S
C266 C265 1.386 . S
C266 C267 1.382 . S
C266 H292 0.950 . S
C267 N264 1.332 . S
C267 C266 1.382 . S
C267 H278 0.952 . S
C268 C265 1.388 . S
C268 C269 1.382 . S
C268 H293 0.950 . S
C269 N264 1.332 . S
C269 C268 1.382 . S
C269 H279 0.948 . S
N270 Co248 2.282 . S
N270 C274 1.332 . S
N270 C275 1.332 . S
C271 C272 1.388 . S
C271 C275 1.382 . S
C271 H294 0.950 . S
C272 C271 1.388 . S
C272 C273 1.386 . S
C273 C272 1.386 . S
C273 C274 1.382 . S
C273 H295 0.950 . S
C274 N270 1.332 . S
C274 C273 1.382 . S
C274 H276 0.952 . S
C275 N270 1.332 . S
C275 C271 1.382 . S
C275 H277 0.948 . S
H276 C274 0.952 . S
H277 C275 0.948 . S
H278 C267 0.952 . S
H279 C269 0.948 . S
C280 C246 1.395 . S
C280 C250 1.391 . S
C281 C243 1.389 . S
C281 C263 1.392 . S
C282 C253 1.392 . S
C282 C255 1.389 . S
C283 C258 1.395 . S
C283 C260 1.391 . S
H284 C244 0.951 . S
H285 C245 0.950 . S
H286 C251 0.949 . S
H287 C252 0.950 . S
H288 C256 0.951 . S
H289 C257 0.950 . S
H290 C261 0.949 . S
H291 C262 0.950 . S
H292 C266 0.950 . S
H293 C268 0.950 . S
H294 C271 0.950 . S
H295 C273 0.950 . S
C296 C297 1.443 . S
C296 N300 1.376 . S
C296 C334 1.389 . S
C297 C296 1.443 . S
C297 C298 1.340 . S
C297 H337 0.951 . S
C298 C297 1.340 . S
C298 C299 1.439 . S
C298 H338 0.950 . S
C299 C298 1.439 . S
C299 N300 1.374 . S
C299 C333 1.395 . S
N300 C296 1.376 . S
N300 C299 1.374 . S
N300 Co301 2.008 . S
Co301 N300 2.008 . S
Co301 N302 1.995 . S
Co301 N307 2.008 . S
Co301 N312 1.995 . S
Co301 N317 2.282 . S
Co301 N323 2.282 . S
N302 Co301 1.995 . S
N302 C303 1.376 . S
N302 C306 1.383 . S
C303 N302 1.376 . S
C303 C304 1.446 . S
C303 C333 1.391 . S
C304 C303 1.446 . S
C304 C305 1.339 . S
C304 H339 0.949 . S
C305 C304 1.339 . S
C305 C306 1.439 . S
C305 H340 0.950 . S
C306 N302 1.383 . S
C306 C305 1.439 . S
C306 C335 1.392 . S
N307 Co301 2.008 . S
N307 C308 1.376 . S
N307 C311 1.374 . S
C308 N307 1.376 . S
C308 C309 1.443 . S
C308 C335 1.389 . S
C309 C308 1.443 . S
C309 C310 1.340 . S
C309 H341 0.951 . S
C310 C309 1.340 . S
C310 C311 1.439 . S
C310 H342 0.950 . S
C311 N307 1.374 . S
C311 C310 1.439 . S
C311 C336 1.395 . S
N312 Co301 1.995 . S
N312 C313 1.376 . S
N312 C316 1.383 . S
C313 N312 1.376 . S
C313 C314 1.446 . S
C313 C336 1.391 . S
C314 C313 1.446 . S
C314 C315 1.339 . S
C314 H343 0.949 . S
C315 C314 1.339 . S
C315 C316 1.439 . S
C315 H344 0.950 . S
C316 N312 1.383 . S
C316 C315 1.439 . S
C316 C334 1.392 . S
N317 Co301 2.282 . S
N317 C320 1.332 . S
N317 C322 1.332 . S
C318 C319 1.386 . S
C318 C321 1.388 . S
C319 C318 1.386 . S
C319 C320 1.382 . S
C319 H345 0.950 . S
C320 N317 1.332 . S
C320 C319 1.382 . S
C320 H331 0.952 . S
C321 C318 1.388 . S
C321 C322 1.382 . S
C321 H346 0.950 . S
C322 N317 1.332 . S
C322 C321 1.382 . S
C322 H332 0.948 . S
N323 Co301 2.282 . S
N323 C327 1.332 . S
N323 C328 1.332 . S
C324 C325 1.388 . S
C324 C328 1.382 . S
C324 H347 0.950 . S
C325 C324 1.388 . S
C325 C326 1.386 . S
C326 C325 1.386 . S
C326 C327 1.382 . S
C326 H348 0.950 . S
C327 N323 1.332 . S
C327 C326 1.382 . S
C327 H329 0.952 . S
C328 N323 1.332 . S
C328 C324 1.382 . S
C328 H330 0.948 . S
H329 C327 0.952 . S
H330 C328 0.948 . S
H331 C320 0.952 . S
H332 C322 0.948 . S
C333 C299 1.395 . S
C333 C303 1.391 . S
C334 C296 1.389 . S
C334 C316 1.392 . S
C335 C306 1.392 . S
C335 C308 1.389 . S
C336 C311 1.395 . S
C336 C313 1.391 . S
H337 C297 0.951 . S
H338 C298 0.950 . S
H339 C304 0.949 . S
H340 C305 0.950 . S
H341 C309 0.951 . S
H342 C310 0.950 . S
H343 C314 0.949 . S
H344 C315 0.950 . S
H345 C319 0.950 . S
H346 C321 0.950 . S
H347 C324 0.950 . S
H348 C326 0.950 . S
C349 C350 1.443 . S
C349 N353 1.376 . S
C349 C387 1.389 . S
C350 C349 1.443 . S
C350 C351 1.340 . S
C350 H390 0.951 . S
C351 C350 1.340 . S
C351 C352 1.439 . S
C351 H391 0.950 . S
C352 C351 1.439 . S
C352 N353 1.374 . S
C352 C386 1.395 . S
N353 C349 1.376 . S
N353 C352 1.374 . S
N353 Co354 2.008 . S
Co354 N353 2.008 . S
Co354 N355 1.995 . S
Co354 N360 2.008 . S
Co354 N365 1.995 . S
Co354 N370 2.282 . S
Co354 N376 2.282 . S
N355 Co354 1.995 . S
N355 C356 1.376 . S
N355 C359 1.383 . S
C356 N355 1.376 . S
C356 C357 1.446 . S
C356 C386 1.391 . S
C357 C356 1.446 . S
C357 C358 1.339 . S
C357 H392 0.949 . S
C358 C357 1.339 . S
C358 C359 1.439 . S
C358 H393 0.950 . S
C359 N355 1.383 . S
C359 C358 1.439 . S
C359 C388 1.392 . S
N360 Co354 2.008 . S
N360 C361 1.376 . S
N360 C364 1.374 . S
C361 N360 1.376 . S
C361 C362 1.443 . S
C361 C388 1.389 . S
C362 C361 1.443 . S
C362 C363 1.340 . S
C362 H394 0.951 . S
C363 C362 1.340 . S
C363 C364 1.439 . S
C363 H395 0.950 . S
C364 N360 1.374 . S
C364 C363 1.439 . S
C364 C389 1.395 . S
N365 Co354 1.995 . S
N365 C366 1.376 . S
N365 C369 1.383 . S
C366 N365 1.376 . S
C366 C367 1.446 . S
C366 C389 1.391 . S
C367 C366 1.446 . S
C367 C368 1.339 . S
C367 H396 0.949 . S
C368 C367 1.339 . S
C368 C369 1.439 . S
C368 H397 0.950 . S
C369 N365 1.383 . S
C369 C368 1.439 . S
C369 C387 1.392 . S
N370 Co354 2.282 . S
N370 C373 1.332 . S
N370 C375 1.332 . S
C371 C372 1.386 . S
C371 C374 1.388 . S
C372 C371 1.386 . S
C372 C373 1.382 . S
C372 H398 0.950 . S
C373 N370 1.332 . S
C373 C372 1.382 . S
C373 H384 0.952 . S
C374 C371 1.388 . S
C374 C375 1.382 . S
C374 H399 0.950 . S
C375 N370 1.332 . S
C375 C374 1.382 . S
C375 H385 0.948 . S
N376 Co354 2.282 . S
N376 C380 1.332 . S
N376 C381 1.332 . S
C377 C378 1.388 . S
C377 C381 1.382 . S
C377 H400 0.950 . S
C378 C377 1.388 . S
C378 C379 1.386 . S
C379 C378 1.386 . S
C379 C380 1.382 . S
C379 H401 0.950 . S
C380 N376 1.332 . S
C380 C379 1.382 . S
C380 H382 0.952 . S
C381 N376 1.332 . S
C381 C377 1.382 . S
C381 H383 0.948 . S
H382 C380 0.952 . S
H383 C381 0.948 . S
H384 C373 0.952 . S
H385 C375 0.948 . S
C386 C352 1.395 . S
C386 C356 1.391 . S
C387 C349 1.389 . S
C387 C369 1.392 . S
C388 C359 1.392 . S
C388 C361 1.389 . S
C389 C364 1.395 . S
C389 C366 1.391 . S
H390 C350 0.951 . S
H391 C351 0.950 . S
H392 C357 0.949 . S
H393 C358 0.950 . S
H394 C362 0.951 . S
H395 C363 0.950 . S
H396 C367 0.949 . S
H397 C368 0.950 . S
H398 C372 0.950 . S
H399 C374 0.950 . S
H400 C377 0.950 . S
H401 C379 0.950 . S
H402 C414 0.930 . S
H403 C416 0.930 . S
H404 C417 0.930 . S
H405 C421 0.959 . S
H406 C421 0.959 . S
H407 C421 0.961 . S
H408 C422 0.960 . S
H409 C422 0.961 . S
H410 C422 0.959 . S
H411 C425 0.929 . S
H412 C426 0.931 . S
H413 C428 0.930 . S
C414 H402 0.930 . S
C414 C415 1.399 . S
C414 C419 1.399 . S
C415 C414 1.399 . S
C415 C416 1.376 . S
C416 H403 0.930 . S
C416 C415 1.376 . S
C416 C417 1.388 . S
C417 H404 0.930 . S
C417 C416 1.388 . S
C417 C418 1.390 . S
C418 C417 1.390 . S
C418 C419 1.394 . S
C418 C424 1.465 . S
C419 C414 1.399 . S
C419 C418 1.394 . S
C419 C420 1.516 . S
C420 C419 1.516 . S
C420 C421 1.502 . S
C420 C422 1.561 . S
C420 C423 1.526 . S
C421 H405 0.959 . S
C421 H406 0.959 . S
C421 H407 0.961 . S
C421 C420 1.502 . S
C422 H408 0.960 . S
C422 H409 0.961 . S
C422 H410 0.959 . S
C422 C420 1.561 . S
C423 C420 1.526 . S
C423 C424 1.396 . S
C423 C428 1.390 . S
C424 C418 1.465 . S
C424 C423 1.396 . S
C424 C425 1.399 . S
C425 H411 0.929 . S
C425 C424 1.399 . S
C425 C426 1.385 . S
C426 H412 0.931 . S
C426 C425 1.385 . S
C426 C427 1.389 . S
C427 C426 1.389 . S
C427 C428 1.387 . S
C428 H413 0.930 . S
C428 C423 1.390 . S
C428 C427 1.387 . S
H429 C441 0.930 . S
H430 C443 0.930 . S
H431 C444 0.930 . S
H432 C448 0.959 . S
H433 C448 0.959 . S
H434 C448 0.961 . S
H435 C449 0.960 . S
H436 C449 0.961 . S
H437 C449 0.959 . S
H438 C452 0.929 . S
H439 C453 0.931 . S
H440 C455 0.930 . S
C441 H429 0.930 . S
C441 C442 1.399 . S
C441 C446 1.399 . S
C442 C441 1.399 . S
C442 C443 1.376 . S
C443 H430 0.930 . S
C443 C442 1.376 . S
C443 C444 1.388 . S
C444 H431 0.930 . S
C444 C443 1.388 . S
C444 C445 1.390 . S
C445 C444 1.390 . S
C445 C446 1.394 . S
C445 C451 1.465 . S
C446 C441 1.399 . S
C446 C445 1.394 . S
C446 C447 1.516 . S
C447 C446 1.516 . S
C447 C448 1.502 . S
C447 C449 1.561 . S
C447 C450 1.526 . S
C448 H432 0.959 . S
C448 H433 0.959 . S
C448 H434 0.961 . S
C448 C447 1.502 . S
C449 H435 0.960 . S
C449 H436 0.961 . S
C449 H437 0.959 . S
C449 C447 1.561 . S
C450 C447 1.526 . S
C450 C451 1.396 . S
C450 C455 1.390 . S
C451 C445 1.465 . S
C451 C450 1.396 . S
C451 C452 1.399 . S
C452 H438 0.929 . S
C452 C451 1.399 . S
C452 C453 1.385 . S
C453 H439 0.931 . S
C453 C452 1.385 . S
C453 C454 1.389 . S
C454 C453 1.389 . S
C454 C455 1.387 . S
C455 H440 0.930 . S
C455 C450 1.390 . S
C455 C454 1.387 . S
H456 C468 0.930 . S
H457 C470 0.930 . S
H458 C471 0.930 . S
H459 C475 0.959 . S
H460 C475 0.959 . S
H461 C475 0.961 . S
H462 C476 0.960 . S
H463 C476 0.961 . S
H464 C476 0.959 . S
H465 C479 0.929 . S
H466 C480 0.931 . S
H467 C482 0.930 . S
C468 H456 0.930 . S
C468 C469 1.399 . S
C468 C473 1.399 . S
C469 C468 1.399 . S
C469 C470 1.376 . S
C470 H457 0.930 . S
C470 C469 1.376 . S
C470 C471 1.388 . S
C471 H458 0.930 . S
C471 C470 1.388 . S
C471 C472 1.390 . S
C472 C471 1.390 . S
C472 C473 1.394 . S
C472 C478 1.465 . S
C473 C468 1.399 . S
C473 C472 1.394 . S
C473 C474 1.516 . S
C474 C473 1.516 . S
C474 C475 1.502 . S
C474 C476 1.561 . S
C474 C477 1.526 . S
C475 H459 0.959 . S
C475 H460 0.959 . S
C475 H461 0.961 . S
C475 C474 1.502 . S
C476 H462 0.960 . S
C476 H463 0.961 . S
C476 H464 0.959 . S
C476 C474 1.561 . S
C477 C474 1.526 . S
C477 C478 1.396 . S
C477 C482 1.390 . S
C478 C472 1.465 . S
C478 C477 1.396 . S
C478 C479 1.399 . S
C479 H465 0.929 . S
C479 C478 1.399 . S
C479 C480 1.385 . S
C480 H466 0.931 . S
C480 C479 1.385 . S
C480 C481 1.389 . S
C481 C480 1.389 . S
C481 C482 1.387 . S
C482 H467 0.930 . S
C482 C477 1.390 . S
C482 C481 1.387 . S
H483 C495 0.930 . S
H484 C497 0.930 . S
H485 C498 0.930 . S
H486 C502 0.959 . S
H487 C502 0.959 . S
H488 C502 0.961 . S
H489 C503 0.960 . S
H490 C503 0.961 . S
H491 C503 0.959 . S
H492 C506 0.929 . S
H493 C507 0.931 . S
H494 C509 0.930 . S
C495 H483 0.930 . S
C495 C496 1.399 . S
C495 C500 1.399 . S
C496 C495 1.399 . S
C496 C497 1.376 . S
C497 H484 0.930 . S
C497 C496 1.376 . S
C497 C498 1.388 . S
C498 H485 0.930 . S
C498 C497 1.388 . S
C498 C499 1.390 . S
C499 C498 1.390 . S
C499 C500 1.394 . S
C499 C505 1.465 . S
C500 C495 1.399 . S
C500 C499 1.394 . S
C500 C501 1.516 . S
C501 C500 1.516 . S
C501 C502 1.502 . S
C501 C503 1.561 . S
C501 C504 1.526 . S
C502 H486 0.959 . S
C502 H487 0.959 . S
C502 H488 0.961 . S
C502 C501 1.502 . S
C503 H489 0.960 . S
C503 H490 0.961 . S
C503 H491 0.959 . S
C503 C501 1.561 . S
C504 C501 1.526 . S
C504 C505 1.396 . S
C504 C509 1.390 . S
C505 C499 1.465 . S
C505 C504 1.396 . S
C505 C506 1.399 . S
C506 H492 0.929 . S
C506 C505 1.399 . S
C506 C507 1.385 . S
C507 H493 0.931 . S
C507 C506 1.385 . S
C507 C508 1.389 . S
C508 C507 1.389 . S
C508 C509 1.387 . S
C509 H494 0.930 . S
C509 C504 1.390 . S
C509 C508 1.387 . S
H510 C522 0.930 . S
H511 C524 0.930 . S
H512 C525 0.930 . S
H513 C529 0.959 . S
H514 C529 0.959 . S
H515 C529 0.961 . S
H516 C530 0.960 . S
H517 C530 0.961 . S
H518 C530 0.959 . S
H519 C533 0.929 . S
H520 C534 0.931 . S
H521 C536 0.930 . S
C522 H510 0.930 . S
C522 C523 1.399 . S
C522 C527 1.399 . S
C523 C522 1.399 . S
C523 C524 1.376 . S
C524 H511 0.930 . S
C524 C523 1.376 . S
C524 C525 1.388 . S
C525 H512 0.930 . S
C525 C524 1.388 . S
C525 C526 1.390 . S
C526 C525 1.390 . S
C526 C527 1.394 . S
C526 C532 1.465 . S
C527 C522 1.399 . S
C527 C526 1.394 . S
C527 C528 1.516 . S
C528 C527 1.516 . S
C528 C529 1.502 . S
C528 C530 1.561 . S
C528 C531 1.526 . S
C529 H513 0.959 . S
C529 H514 0.959 . S
C529 H515 0.961 . S
C529 C528 1.502 . S
C530 H516 0.960 . S
C530 H517 0.961 . S
C530 H518 0.959 . S
C530 C528 1.561 . S
C531 C528 1.526 . S
C531 C532 1.396 . S
C531 C536 1.390 . S
C532 C526 1.465 . S
C532 C531 1.396 . S
C532 C533 1.399 . S
C533 H519 0.929 . S
C533 C532 1.399 . S
C533 C534 1.385 . S
C534 H520 0.931 . S
C534 C533 1.385 . S
C534 C535 1.389 . S
C535 C534 1.389 . S
C535 C536 1.387 . S
C536 H521 0.930 . S
C536 C531 1.390 . S
C536 C535 1.387 . S
H537 C549 0.930 . S
H538 C551 0.930 . S
H539 C552 0.930 . S
H540 C556 0.959 . S
H541 C556 0.959 . S
H542 C556 0.961 . S
H543 C557 0.960 . S
H544 C557 0.961 . S
H545 C557 0.959 . S
H546 C560 0.929 . S
H547 C561 0.931 . S
H548 C563 0.930 . S
C549 H537 0.930 . S
C549 C550 1.399 . S
C549 C554 1.399 . S
C550 C549 1.399 . S
C550 C551 1.376 . S
C551 H538 0.930 . S
C551 C550 1.376 . S
C551 C552 1.388 . S
C552 H539 0.930 . S
C552 C551 1.388 . S
C552 C553 1.390 . S
C553 C552 1.390 . S
C553 C554 1.394 . S
C553 C559 1.465 . S
C554 C549 1.399 . S
C554 C553 1.394 . S
C554 C555 1.516 . S
C555 C554 1.516 . S
C555 C556 1.502 . S
C555 C557 1.561 . S
C555 C558 1.526 . S
C556 H540 0.959 . S
C556 H541 0.959 . S
C556 H542 0.961 . S
C556 C555 1.502 . S
C557 H543 0.960 . S
C557 H544 0.961 . S
C557 H545 0.959 . S
C557 C555 1.561 . S
C558 C555 1.526 . S
C558 C559 1.396 . S
C558 C563 1.390 . S
C559 C553 1.465 . S
C559 C558 1.396 . S
C559 C560 1.399 . S
C560 H546 0.929 . S
C560 C559 1.399 . S
C560 C561 1.385 . S
C561 H547 0.931 . S
C561 C560 1.385 . S
C561 C562 1.389 . S
C562 C561 1.389 . S
C562 C563 1.387 . S
C563 H548 0.930 . S
C563 C558 1.390 . S
C563 C562 1.387 . S
H564 C576 0.930 . S
H565 C578 0.930 . S
H566 C579 0.930 . S
H567 C583 0.959 . S
H568 C583 0.959 . S
H569 C583 0.961 . S
H570 C584 0.960 . S
H571 C584 0.961 . S
H572 C584 0.959 . S
H573 C587 0.929 . S
H574 C588 0.931 . S
H575 C590 0.930 . S
C576 H564 0.930 . S
C576 C577 1.399 . S
C576 C581 1.399 . S
C577 C576 1.399 . S
C577 C578 1.376 . S
C578 H565 0.930 . S
C578 C577 1.376 . S
C578 C579 1.388 . S
C579 H566 0.930 . S
C579 C578 1.388 . S
C579 C580 1.390 . S
C580 C579 1.390 . S
C580 C581 1.394 . S
C580 C586 1.465 . S
C581 C576 1.399 . S
C581 C580 1.394 . S
C581 C582 1.516 . S
C582 C581 1.516 . S
C582 C583 1.502 . S
C582 C584 1.561 . S
C582 C585 1.526 . S
C583 H567 0.959 . S
C583 H568 0.959 . S
C583 H569 0.961 . S
C583 C582 1.502 . S
C584 H570 0.960 . S
C584 H571 0.961 . S
C584 H572 0.959 . S
C584 C582 1.561 . S
C585 C582 1.526 . S
C585 C586 1.396 . S
C585 C590 1.390 . S
C586 C580 1.465 . S
C586 C585 1.396 . S
C586 C587 1.399 . S
C587 H573 0.929 . S
C587 C586 1.399 . S
C587 C588 1.385 . S
C588 H574 0.931 . S
C588 C587 1.385 . S
C588 C589 1.389 . S
C589 C588 1.389 . S
C589 C590 1.387 . S
C590 H575 0.930 . S
C590 C585 1.390 . S
C590 C589 1.387 . S
H591 C603 0.930 . S
H592 C605 0.930 . S
H593 C606 0.930 . S
H594 C610 0.959 . S
H595 C610 0.959 . S
H596 C610 0.961 . S
H597 C611 0.960 . S
H598 C611 0.961 . S
H599 C611 0.959 . S
H600 C614 0.929 . S
H601 C615 0.931 . S
H602 C617 0.930 . S
C603 H591 0.930 . S
C603 C604 1.399 . S
C603 C608 1.399 . S
C604 C603 1.399 . S
C604 C605 1.376 . S
C605 H592 0.930 . S
C605 C604 1.376 . S
C605 C606 1.388 . S
C606 H593 0.930 . S
C606 C605 1.388 . S
C606 C607 1.390 . S
C607 C606 1.390 . S
C607 C608 1.394 . S
C607 C613 1.465 . S
C608 C603 1.399 . S
C608 C607 1.394 . S
C608 C609 1.516 . S
C609 C608 1.516 . S
C609 C610 1.502 . S
C609 C611 1.561 . S
C609 C612 1.526 . S
C610 H594 0.959 . S
C610 H595 0.959 . S
C610 H596 0.961 . S
C610 C609 1.502 . S
C611 H597 0.960 . S
C611 H598 0.961 . S
C611 H599 0.959 . S
C611 C609 1.561 . S
C612 C609 1.526 . S
C612 C613 1.396 . S
C612 C617 1.390 . S
C613 C607 1.465 . S
C613 C612 1.396 . S
C613 C614 1.399 . S
C614 H600 0.929 . S
C614 C613 1.399 . S
C614 C615 1.385 . S
C615 H601 0.931 . S
C615 C614 1.385 . S
C615 C616 1.389 . S
C616 C615 1.389 . S
C616 C617 1.387 . S
C617 H602 0.930 . S
C617 C612 1.390 . S
C617 C616 1.387 . S
H618 C630 0.930 . S
H619 C632 0.930 . S
H620 C633 0.930 . S
H621 C637 0.959 . S
H622 C637 0.959 . S
H623 C637 0.961 . S
H624 C638 0.960 . S
H625 C638 0.961 . S
H626 C638 0.959 . S
H627 C641 0.929 . S
H628 C642 0.931 . S
H629 C644 0.930 . S
C630 H618 0.930 . S
C630 C631 1.399 . S
C630 C635 1.399 . S
C631 C630 1.399 . S
C631 C632 1.376 . S
C632 H619 0.930 . S
C632 C631 1.376 . S
C632 C633 1.388 . S
C633 H620 0.930 . S
C633 C632 1.388 . S
C633 C634 1.390 . S
C634 C633 1.390 . S
C634 C635 1.394 . S
C634 C640 1.465 . S
C635 C630 1.399 . S
C635 C634 1.394 . S
C635 C636 1.516 . S
C636 C635 1.516 . S
C636 C637 1.502 . S
C636 C638 1.561 . S
C636 C639 1.526 . S
C637 H621 0.959 . S
C637 H622 0.959 . S
C637 H623 0.961 . S
C637 C636 1.502 . S
C638 H624 0.960 . S
C638 H625 0.961 . S
C638 H626 0.959 . S
C638 C636 1.561 . S
C639 C636 1.526 . S
C639 C640 1.396 . S
C639 C644 1.390 . S
C640 C634 1.465 . S
C640 C639 1.396 . S
C640 C641 1.399 . S
C641 H627 0.929 . S
C641 C640 1.399 . S
C641 C642 1.385 . S
C642 H628 0.931 . S
C642 C641 1.385 . S
C642 C643 1.389 . S
C643 C642 1.389 . S
C643 C644 1.387 . S
C644 H629 0.930 . S
C644 C639 1.390 . S
C644 C643 1.387 . S
H645 C657 0.930 . S
H646 C659 0.930 . S
H647 C660 0.930 . S
H648 C664 0.959 . S
H649 C664 0.959 . S
H650 C664 0.961 . S
H651 C665 0.960 . S
H652 C665 0.961 . S
H653 C665 0.959 . S
H654 C668 0.929 . S
H655 C669 0.931 . S
H656 C671 0.930 . S
C657 H645 0.930 . S
C657 C658 1.399 . S
C657 C662 1.399 . S
C658 C657 1.399 . S
C658 C659 1.376 . S
C659 H646 0.930 . S
C659 C658 1.376 . S
C659 C660 1.388 . S
C660 H647 0.930 . S
C660 C659 1.388 . S
C660 C661 1.390 . S
C661 C660 1.390 . S
C661 C662 1.394 . S
C661 C667 1.465 . S
C662 C657 1.399 . S
C662 C661 1.394 . S
C662 C663 1.516 . S
C663 C662 1.516 . S
C663 C664 1.502 . S
C663 C665 1.561 . S
C663 C666 1.526 . S
C664 H648 0.959 . S
C664 H649 0.959 . S
C664 H650 0.961 . S
C664 C663 1.502 . S
C665 H651 0.960 . S
C665 H652 0.961 . S
C665 H653 0.959 . S
C665 C663 1.561 . S
C666 C663 1.526 . S
C666 C667 1.396 . S
C666 C671 1.390 . S
C667 C661 1.465 . S
C667 C666 1.396 . S
C667 C668 1.399 . S
C668 H654 0.929 . S
C668 C667 1.399 . S
C668 C669 1.385 . S
C669 H655 0.931 . S
C669 C668 1.385 . S
C669 C670 1.389 . S
C670 C669 1.389 . S
C670 C671 1.387 . S
C671 H656 0.930 . S
C671 C666 1.390 . S
C671 C670 1.387 . S
H672 C684 0.930 . S
H673 C686 0.930 . S
H674 C687 0.930 . S
H675 C691 0.959 . S
H676 C691 0.959 . S
H677 C691 0.961 . S
H678 C692 0.960 . S
H679 C692 0.961 . S
H680 C692 0.959 . S
H681 C695 0.929 . S
H682 C696 0.931 . S
H683 C698 0.930 . S
C684 H672 0.930 . S
C684 C685 1.399 . S
C684 C689 1.399 . S
C685 C684 1.399 . S
C685 C686 1.376 . S
C686 H673 0.930 . S
C686 C685 1.376 . S
C686 C687 1.388 . S
C687 H674 0.930 . S
C687 C686 1.388 . S
C687 C688 1.390 . S
C688 C687 1.390 . S
C688 C689 1.394 . S
C688 C694 1.465 . S
C689 C684 1.399 . S
C689 C688 1.394 . S
C689 C690 1.516 . S
C690 C689 1.516 . S
C690 C691 1.502 . S
C690 C692 1.561 . S
C690 C693 1.526 . S
C691 H675 0.959 . S
C691 H676 0.959 . S
C691 H677 0.961 . S
C691 C690 1.502 . S
C692 H678 0.960 . S
C692 H679 0.961 . S
C692 H680 0.959 . S
C692 C690 1.561 . S
C693 C690 1.526 . S
C693 C694 1.396 . S
C693 C698 1.390 . S
C694 C688 1.465 . S
C694 C693 1.396 . S
C694 C695 1.399 . S
C695 H681 0.929 . S
C695 C694 1.399 . S
C695 C696 1.385 . S
C696 H682 0.931 . S
C696 C695 1.385 . S
C696 C697 1.389 . S
C697 C696 1.389 . S
C697 C698 1.387 . S
C698 H683 0.930 . S
C698 C693 1.390 . S
C698 C697 1.387 . S
H699 C711 0.930 . S
H700 C713 0.930 . S
H701 C714 0.930 . S
H702 C718 0.959 . S
H703 C718 0.959 . S
H704 C718 0.961 . S
H705 C719 0.960 . S
H706 C719 0.961 . S
H707 C719 0.959 . S
H708 C722 0.929 . S
H709 C723 0.931 . S
H710 C725 0.930 . S
C711 H699 0.930 . S
C711 C712 1.399 . S
C711 C716 1.399 . S
C712 C711 1.399 . S
C712 C713 1.376 . S
C713 H700 0.930 . S
C713 C712 1.376 . S
C713 C714 1.388 . S
C714 H701 0.930 . S
C714 C713 1.388 . S
C714 C715 1.390 . S
C715 C714 1.390 . S
C715 C716 1.394 . S
C715 C721 1.465 . S
C716 C711 1.399 . S
C716 C715 1.394 . S
C716 C717 1.516 . S
C717 C716 1.516 . S
C717 C718 1.502 . S
C717 C719 1.561 . S
C717 C720 1.526 . S
C718 H702 0.959 . S
C718 H703 0.959 . S
C718 H704 0.961 . S
C718 C717 1.502 . S
C719 H705 0.960 . S
C719 H706 0.961 . S
C719 H707 0.959 . S
C719 C717 1.561 . S
C720 C717 1.526 . S
C720 C721 1.396 . S
C720 C725 1.390 . S
C721 C715 1.465 . S
C721 C720 1.396 . S
C721 C722 1.399 . S
C722 H708 0.929 . S
C722 C721 1.399 . S
C722 C723 1.385 . S
C723 H709 0.931 . S
C723 C722 1.385 . S
C723 C724 1.389 . S
C724 C723 1.389 . S
C724 C725 1.387 . S
C725 H710 0.930 . S
C725 C720 1.390 . S
C725 C724 1.387 . S
H726 C738 0.930 . S
H727 C740 0.930 . S
H728 C741 0.930 . S
H729 C745 0.959 . S
H730 C745 0.959 . S
H731 C745 0.961 . S
H732 C746 0.960 . S
H733 C746 0.961 . S
H734 C746 0.959 . S
H735 C749 0.929 . S
H736 C750 0.931 . S
H737 C752 0.930 . S
C738 H726 0.930 . S
C738 C739 1.399 . S
C738 C743 1.399 . S
C739 C738 1.399 . S
C739 C740 1.376 . S
C740 H727 0.930 . S
C740 C739 1.376 . S
C740 C741 1.388 . S
C741 H728 0.930 . S
C741 C740 1.388 . S
C741 C742 1.390 . S
C742 C741 1.390 . S
C742 C743 1.394 . S
C742 C748 1.465 . S
C743 C738 1.399 . S
C743 C742 1.394 . S
C743 C744 1.516 . S
C744 C743 1.516 . S
C744 C745 1.502 . S
C744 C746 1.561 . S
C744 C747 1.526 . S
C745 H729 0.959 . S
C745 H730 0.959 . S
C745 H731 0.961 . S
C745 C744 1.502 . S
C746 H732 0.960 . S
C746 H733 0.961 . S
C746 H734 0.959 . S
C746 C744 1.561 . S
C747 C744 1.526 . S
C747 C748 1.396 . S
C747 C752 1.390 . S
C748 C742 1.465 . S
C748 C747 1.396 . S
C748 C749 1.399 . S
C749 H735 0.929 . S
C749 C748 1.399 . S
C749 C750 1.385 . S
C750 H736 0.931 . S
C750 C749 1.385 . S
C750 C751 1.389 . S
C751 C750 1.389 . S
C751 C752 1.387 . S
C752 H737 0.930 . S
C752 C747 1.390 . S
C752 C751 1.387 . S
H753 C765 0.930 . S
H754 C767 0.930 . S
H755 C768 0.930 . S
H756 C772 0.959 . S
H757 C772 0.959 . S
H758 C772 0.961 . S
H759 C773 0.960 . S
H760 C773 0.961 . S
H761 C773 0.959 . S
H762 C776 0.929 . S
H763 C777 0.931 . S
H764 C779 0.930 . S
C765 H753 0.930 . S
C765 C766 1.399 . S
C765 C770 1.399 . S
C766 C765 1.399 . S
C766 C767 1.376 . S
C767 H754 0.930 . S
C767 C766 1.376 . S
C767 C768 1.388 . S
C768 H755 0.930 . S
C768 C767 1.388 . S
C768 C769 1.390 . S
C769 C768 1.390 . S
C769 C770 1.394 . S
C769 C775 1.465 . S
C770 C765 1.399 . S
C770 C769 1.394 . S
C770 C771 1.516 . S
C771 C770 1.516 . S
C771 C772 1.502 . S
C771 C773 1.561 . S
C771 C774 1.526 . S
C772 H756 0.959 . S
C772 H757 0.959 . S
C772 H758 0.961 . S
C772 C771 1.502 . S
C773 H759 0.960 . S
C773 H760 0.961 . S
C773 H761 0.959 . S
C773 C771 1.561 . S
C774 C771 1.526 . S
C774 C775 1.396 . S
C774 C779 1.390 . S
C775 C769 1.465 . S
C775 C774 1.396 . S
C775 C776 1.399 . S
C776 H762 0.929 . S
C776 C775 1.399 . S
C776 C777 1.385 . S
C777 H763 0.931 . S
C777 C776 1.385 . S
C777 C778 1.389 . S
C778 C777 1.389 . S
C778 C779 1.387 . S
C779 H764 0.930 . S
C779 C774 1.390 . S
C779 C778 1.387 . S
H780 C792 0.930 . S
H781 C794 0.930 . S
H782 C795 0.930 . S
H783 C799 0.959 . S
H784 C799 0.959 . S
H785 C799 0.961 . S
H786 C800 0.960 . S
H787 C800 0.961 . S
H788 C800 0.959 . S
H789 C803 0.929 . S
H790 C804 0.931 . S
H791 C806 0.930 . S
C792 H780 0.930 . S
C792 C793 1.399 . S
C792 C797 1.399 . S
C793 C792 1.399 . S
C793 C794 1.376 . S
C794 H781 0.930 . S
C794 C793 1.376 . S
C794 C795 1.388 . S
C795 H782 0.930 . S
C795 C794 1.388 . S
C795 C796 1.390 . S
C796 C795 1.390 . S
C796 C797 1.394 . S
C796 C802 1.465 . S
C797 C792 1.399 . S
C797 C796 1.394 . S
C797 C798 1.516 . S
C798 C797 1.516 . S
C798 C799 1.502 . S
C798 C800 1.561 . S
C798 C801 1.526 . S
C799 H783 0.959 . S
C799 H784 0.959 . S
C799 H785 0.961 . S
C799 C798 1.502 . S
C800 H786 0.960 . S
C800 H787 0.961 . S
C800 H788 0.959 . S
C800 C798 1.561 . S
C801 C798 1.526 . S
C801 C802 1.396 . S
C801 C806 1.390 . S
C802 C796 1.465 . S
C802 C801 1.396 . S
C802 C803 1.399 . S
C803 H789 0.929 . S
C803 C802 1.399 . S
C803 C804 1.385 . S
C804 H790 0.931 . S
C804 C803 1.385 . S
C804 C805 1.389 . S
C805 C804 1.389 . S
C805 C806 1.387 . S
C806 H791 0.930 . S
C806 C801 1.390 . S
C806 C805 1.387 . S
H807 C819 0.930 . S
H808 C821 0.930 . S
H809 C822 0.930 . S
H810 C826 0.959 . S
H811 C826 0.959 . S
H812 C826 0.961 . S
H813 C827 0.960 . S
H814 C827 0.961 . S
H815 C827 0.959 . S
H816 C830 0.929 . S
H817 C831 0.931 . S
H818 C833 0.930 . S
C819 H807 0.930 . S
C819 C820 1.399 . S
C819 C824 1.399 . S
C820 C819 1.399 . S
C820 C821 1.376 . S
C821 H808 0.930 . S
C821 C820 1.376 . S
C821 C822 1.388 . S
C822 H809 0.930 . S
C822 C821 1.388 . S
C822 C823 1.390 . S
C823 C822 1.390 . S
C823 C824 1.394 . S
C823 C829 1.465 . S
C824 C819 1.399 . S
C824 C823 1.394 . S
C824 C825 1.516 . S
C825 C824 1.516 . S
C825 C826 1.502 . S
C825 C827 1.561 . S
C825 C828 1.526 . S
C826 H810 0.959 . S
C826 H811 0.959 . S
C826 H812 0.961 . S
C826 C825 1.502 . S
C827 H813 0.960 . S
C827 H814 0.961 . S
C827 H815 0.959 . S
C827 C825 1.561 . S
C828 C825 1.526 . S
C828 C829 1.396 . S
C828 C833 1.390 . S
C829 C823 1.465 . S
C829 C828 1.396 . S
C829 C830 1.399 . S
C830 H816 0.929 . S
C830 C829 1.399 . S
C830 C831 1.385 . S
C831 H817 0.931 . S
C831 C830 1.385 . S
C831 C832 1.389 . S
C832 C831 1.389 . S
C832 C833 1.387 . S
C833 H818 0.930 . S
C833 C828 1.390 . S
C833 C832 1.387 . S
H834 C846 0.930 . S
H835 C848 0.930 . S
H836 C849 0.930 . S
H837 C853 0.959 . S
H838 C853 0.959 . S
H839 C853 0.961 . S
H840 C854 0.960 . S
H841 C854 0.961 . S
H842 C854 0.959 . S
H843 C857 0.929 . S
H844 C858 0.931 . S
H845 C860 0.930 . S
C846 H834 0.930 . S
C846 C847 1.399 . S
C846 C851 1.399 . S
C847 C846 1.399 . S
C847 C848 1.376 . S
C848 H835 0.930 . S
C848 C847 1.376 . S
C848 C849 1.388 . S
C849 H836 0.930 . S
C849 C848 1.388 . S
C849 C850 1.390 . S
C850 C849 1.390 . S
C850 C851 1.394 . S
C850 C856 1.465 . S
C851 C846 1.399 . S
C851 C850 1.394 . S
C851 C852 1.516 . S
C852 C851 1.516 . S
C852 C853 1.502 . S
C852 C854 1.561 . S
C852 C855 1.526 . S
C853 H837 0.959 . S
C853 H838 0.959 . S
C853 H839 0.961 . S
C853 C852 1.502 . S
C854 H840 0.960 . S
C854 H841 0.961 . S
C854 H842 0.959 . S
C854 C852 1.561 . S
C855 C852 1.526 . S
C855 C856 1.396 . S
C855 C860 1.390 . S
C856 C850 1.465 . S
C856 C855 1.396 . S
C856 C857 1.399 . S
C857 H843 0.929 . S
C857 C856 1.399 . S
C857 C858 1.385 . S
C858 H844 0.931 . S
C858 C857 1.385 . S
C858 C859 1.389 . S
C859 C858 1.389 . S
C859 C860 1.387 . S
C860 H845 0.930 . S
C860 C855 1.390 . S
C860 C859 1.387 . S
H861 C873 0.930 . S
H862 C875 0.930 . S
H863 C876 0.930 . S
H864 C880 0.959 . S
H865 C880 0.959 . S
H866 C880 0.961 . S
H867 C881 0.960 . S
H868 C881 0.961 . S
H869 C881 0.959 . S
H870 C884 0.929 . S
H871 C885 0.931 . S
H872 C887 0.930 . S
C873 H861 0.930 . S
C873 C874 1.399 . S
C873 C878 1.399 . S
C874 C873 1.399 . S
C874 C875 1.376 . S
C875 H862 0.930 . S
C875 C874 1.376 . S
C875 C876 1.388 . S
C876 H863 0.930 . S
C876 C875 1.388 . S
C876 C877 1.390 . S
C877 C876 1.390 . S
C877 C878 1.394 . S
C877 C883 1.465 . S
C878 C873 1.399 . S
C878 C877 1.394 . S
C878 C879 1.516 . S
C879 C878 1.516 . S
C879 C880 1.502 . S
C879 C881 1.561 . S
C879 C882 1.526 . S
C880 H864 0.959 . S
C880 H865 0.959 . S
C880 H866 0.961 . S
C880 C879 1.502 . S
C881 H867 0.960 . S
C881 H868 0.961 . S
C881 H869 0.959 . S
C881 C879 1.561 . S
C882 C879 1.526 . S
C882 C883 1.396 . S
C882 C887 1.390 . S
C883 C877 1.465 . S
C883 C882 1.396 . S
C883 C884 1.399 . S
C884 H870 0.929 . S
C884 C883 1.399 . S
C884 C885 1.385 . S
C885 H871 0.931 . S
C885 C884 1.385 . S
C885 C886 1.389 . S
C886 C885 1.389 . S
C886 C887 1.387 . S
C887 H872 0.930 . S
C887 C882 1.390 . S
C887 C886 1.387 . S
H888 C900 0.930 . S
H889 C902 0.930 . S
H890 C903 0.930 . S
H891 C907 0.959 . S
H892 C907 0.959 . S
H893 C907 0.961 . S
H894 C908 0.960 . S
H895 C908 0.961 . S
H896 C908 0.959 . S
H897 C911 0.929 . S
H898 C912 0.931 . S
H899 C914 0.930 . S
C900 H888 0.930 . S
C900 C901 1.399 . S
C900 C905 1.399 . S
C901 C900 1.399 . S
C901 C902 1.376 . S
C902 H889 0.930 . S
C902 C901 1.376 . S
C902 C903 1.388 . S
C903 H890 0.930 . S
C903 C902 1.388 . S
C903 C904 1.390 . S
C904 C903 1.390 . S
C904 C905 1.394 . S
C904 C910 1.465 . S
C905 C900 1.399 . S
C905 C904 1.394 . S
C905 C906 1.516 . S
C906 C905 1.516 . S
C906 C907 1.502 . S
C906 C908 1.561 . S
C906 C909 1.526 . S
C907 H891 0.959 . S
C907 H892 0.959 . S
C907 H893 0.961 . S
C907 C906 1.502 . S
C908 H894 0.960 . S
C908 H895 0.961 . S
C908 H896 0.959 . S
C908 C906 1.561 . S
C909 C906 1.526 . S
C909 C910 1.396 . S
C909 C914 1.390 . S
C910 C904 1.465 . S
C910 C909 1.396 . S
C910 C911 1.399 . S
C911 H897 0.929 . S
C911 C910 1.399 . S
C911 C912 1.385 . S
C912 H898 0.931 . S
C912 C911 1.385 . S
C912 C913 1.389 . S
C913 C912 1.389 . S
C913 C914 1.387 . S
C914 H899 0.930 . S
C914 C909 1.390 . S
C914 C913 1.387 . S
H915 C927 0.930 . S
H916 C929 0.930 . S
H917 C930 0.930 . S
H918 C934 0.959 . S
H919 C934 0.959 . S
H920 C934 0.961 . S
H921 C935 0.960 . S
H922 C935 0.961 . S
H923 C935 0.959 . S
H924 C938 0.929 . S
H925 C939 0.931 . S
H926 C941 0.930 . S
C927 H915 0.930 . S
C927 C928 1.399 . S
C927 C932 1.399 . S
C928 C927 1.399 . S
C928 C929 1.376 . S
C929 H916 0.930 . S
C929 C928 1.376 . S
C929 C930 1.388 . S
C930 H917 0.930 . S
C930 C929 1.388 . S
C930 C931 1.390 . S
C931 C930 1.390 . S
C931 C932 1.394 . S
C931 C937 1.465 . S
C932 C927 1.399 . S
C932 C931 1.394 . S
C932 C933 1.516 . S
C933 C932 1.516 . S
C933 C934 1.502 . S
C933 C935 1.561 . S
C933 C936 1.526 . S
C934 H918 0.959 . S
C934 H919 0.959 . S
C934 H920 0.961 . S
C934 C933 1.502 . S
C935 H921 0.960 . S
C935 H922 0.961 . S
C935 H923 0.959 . S
C935 C933 1.561 . S
C936 C933 1.526 . S
C936 C937 1.396 . S
C936 C941 1.390 . S
C937 C931 1.465 . S
C937 C936 1.396 . S
C937 C938 1.399 . S
C938 H924 0.929 . S
C938 C937 1.399 . S
C938 C939 1.385 . S
C939 H925 0.931 . S
C939 C938 1.385 . S
C939 C940 1.389 . S
C940 C939 1.389 . S
C940 C941 1.387 . S
C941 H926 0.930 . S
C941 C936 1.390 . S
C941 C940 1.387 . S
H942 C954 0.930 . S
H943 C956 0.930 . S
H944 C957 0.930 . S
H945 C961 0.959 . S
H946 C961 0.959 . S
H947 C961 0.961 . S
H948 C962 0.960 . S
H949 C962 0.961 . S
H950 C962 0.959 . S
H951 C965 0.929 . S
H952 C966 0.931 . S
H953 C968 0.930 . S
C954 H942 0.930 . S
C954 C955 1.399 . S
C954 C959 1.399 . S
C955 C954 1.399 . S
C955 C956 1.376 . S
C956 H943 0.930 . S
C956 C955 1.376 . S
C956 C957 1.388 . S
C957 H944 0.930 . S
C957 C956 1.388 . S
C957 C958 1.390 . S
C958 C957 1.390 . S
C958 C959 1.394 . S
C958 C964 1.465 . S
C959 C954 1.399 . S
C959 C958 1.394 . S
C959 C960 1.516 . S
C960 C959 1.516 . S
C960 C961 1.502 . S
C960 C962 1.561 . S
C960 C963 1.526 . S
C961 H945 0.959 . S
C961 H946 0.959 . S
C961 H947 0.961 . S
C961 C960 1.502 . S
C962 H948 0.960 . S
C962 H949 0.961 . S
C962 H950 0.959 . S
C962 C960 1.561 . S
C963 C960 1.526 . S
C963 C964 1.396 . S
C963 C968 1.390 . S
C964 C958 1.465 . S
C964 C963 1.396 . S
C964 C965 1.399 . S
C965 H951 0.929 . S
C965 C964 1.399 . S
C965 C966 1.385 . S
C966 H952 0.931 . S
C966 C965 1.385 . S
C966 C967 1.389 . S
C967 C966 1.389 . S
C967 C968 1.387 . S
C968 H953 0.930 . S
C968 C963 1.390 . S
C968 C967 1.387 . S
H969 C981 0.930 . S
H970 C983 0.930 . S
H971 C984 0.930 . S
H972 C988 0.959 . S
H973 C988 0.959 . S
H974 C988 0.961 . S
H975 C989 0.960 . S
H976 C989 0.961 . S
H977 C989 0.959 . S
H978 C992 0.929 . S
H979 C993 0.931 . S
H980 C995 0.930 . S
C981 H969 0.930 . S
C981 C982 1.399 . S
C981 C986 1.399 . S
C982 C981 1.399 . S
C982 C983 1.376 . S
C983 H970 0.930 . S
C983 C982 1.376 . S
C983 C984 1.388 . S
C984 H971 0.930 . S
C984 C983 1.388 . S
C984 C985 1.390 . S
C985 C984 1.390 . S
C985 C986 1.394 . S
C985 C991 1.465 . S
C986 C981 1.399 . S
C986 C985 1.394 . S
C986 C987 1.516 . S
C987 C986 1.516 . S
C987 C988 1.502 . S
C987 C989 1.561 . S
C987 C990 1.526 . S
C988 H972 0.959 . S
C988 H973 0.959 . S
C988 H974 0.961 . S
C988 C987 1.502 . S
C989 H975 0.960 . S
C989 H976 0.961 . S
C989 H977 0.959 . S
C989 C987 1.561 . S
C990 C987 1.526 . S
C990 C991 1.396 . S
C990 C995 1.390 . S
C991 C985 1.465 . S
C991 C990 1.396 . S
C991 C992 1.399 . S
C992 H978 0.929 . S
C992 C991 1.399 . S
C992 C993 1.385 . S
C993 H979 0.931 . S
C993 C992 1.385 . S
C993 C994 1.389 . S
C994 C993 1.389 . S
C994 C995 1.387 . S
C995 H980 0.930 . S
C995 C990 1.390 . S
C995 C994 1.387 . S
H996 C1008 0.930 . S
H997 C1010 0.930 . S
H998 C1011 0.930 . S
H999 C1015 0.959 . S
H1000 C1015 0.959 . S
H1001 C1015 0.961 . S
H1002 C1016 0.960 . S
H1003 C1016 0.961 . S
H1004 C1016 0.959 . S
H1005 C1019 0.929 . S
H1006 C1020 0.931 . S
H1007 C1022 0.930 . S
C1008 H996 0.930 . S
C1008 C1009 1.399 . S
C1008 C1013 1.399 . S
C1009 C1008 1.399 . S
C1009 C1010 1.376 . S
C1010 H997 0.930 . S
C1010 C1009 1.376 . S
C1010 C1011 1.388 . S
C1011 H998 0.930 . S
C1011 C1010 1.388 . S
C1011 C1012 1.390 . S
C1012 C1011 1.390 . S
C1012 C1013 1.394 . S
C1012 C1018 1.465 . S
C1013 C1008 1.399 . S
C1013 C1012 1.394 . S
C1013 C1014 1.516 . S
C1014 C1013 1.516 . S
C1014 C1015 1.502 . S
C1014 C1016 1.561 . S
C1014 C1017 1.526 . S
C1015 H999 0.959 . S
C1015 H1000 0.959 . S
C1015 H1001 0.961 . S
C1015 C1014 1.502 . S
C1016 H1002 0.960 . S
C1016 H1003 0.961 . S
C1016 H1004 0.959 . S
C1016 C1014 1.561 . S
C1017 C1014 1.526 . S
C1017 C1018 1.396 . S
C1017 C1022 1.390 . S
C1018 C1012 1.465 . S
C1018 C1017 1.396 . S
C1018 C1019 1.399 . S
C1019 H1005 0.929 . S
C1019 C1018 1.399 . S
C1019 C1020 1.385 . S
C1020 H1006 0.931 . S
C1020 C1019 1.385 . S
C1020 C1021 1.389 . S
C1021 C1020 1.389 . S
C1021 C1022 1.387 . S
C1022 H1007 0.930 . S
C1022 C1017 1.390 . S
C1022 C1021 1.387 . S
H1023 C1035 0.930 . S
H1024 C1037 0.930 . S
H1025 C1038 0.930 . S
H1026 C1042 0.959 . S
H1027 C1042 0.959 . S
H1028 C1042 0.961 . S
H1029 C1043 0.960 . S
H1030 C1043 0.961 . S
H1031 C1043 0.959 . S
H1032 C1046 0.929 . S
H1033 C1047 0.931 . S
H1034 C1049 0.930 . S
C1035 H1023 0.930 . S
C1035 C1036 1.399 . S
C1035 C1040 1.399 . S
C1036 C1035 1.399 . S
C1036 C1037 1.376 . S
C1037 H1024 0.930 . S
C1037 C1036 1.376 . S
C1037 C1038 1.388 . S
C1038 H1025 0.930 . S
C1038 C1037 1.388 . S
C1038 C1039 1.390 . S
C1039 C1038 1.390 . S
C1039 C1040 1.394 . S
C1039 C1045 1.465 . S
C1040 C1035 1.399 . S
C1040 C1039 1.394 . S
C1040 C1041 1.516 . S
C1041 C1040 1.516 . S
C1041 C1042 1.502 . S
C1041 C1043 1.561 . S
C1041 C1044 1.526 . S
C1042 H1026 0.959 . S
C1042 H1027 0.959 . S
C1042 H1028 0.961 . S
C1042 C1041 1.502 . S
C1043 H1029 0.960 . S
C1043 H1030 0.961 . S
C1043 H1031 0.959 . S
C1043 C1041 1.561 . S
C1044 C1041 1.526 . S
C1044 C1045 1.396 . S
C1044 C1049 1.390 . S
C1045 C1039 1.465 . S
C1045 C1044 1.396 . S
C1045 C1046 1.399 . S
C1046 H1032 0.929 . S
C1046 C1045 1.399 . S
C1046 C1047 1.385 . S
C1047 H1033 0.931 . S
C1047 C1046 1.385 . S
C1047 C1048 1.389 . S
C1048 C1047 1.389 . S
C1048 C1049 1.387 . S
C1049 H1034 0.930 . S
C1049 C1044 1.390 . S
C1049 C1048 1.387 . S
C415 C13 1.896 . S
C427 C122 1.894 . S
C442 C27 1.616 . S
C454 C175 1.619 . S
C481 C228 1.767 . S
C469 C29 1.813 . S
C508 C265 1.492 . S
C496 C54 1.475 . S
C535 C325 1.687 . S
C523 C69 1.751 . S
C562 C378 1.576 . S
C550 C83 1.566 . S
C577 C15 1.917 . S
C589 C229 1.880 . S
C604 C41 1.598 . S
C616 C272 1.521 . S
C643 C318 1.700 . S
C631 C42 1.755 . S
C670 C371 1.484 . S
C658 C57 1.475 . S
C685 C71 1.817 . S
C697 C123 1.760 . S
C724 C176 1.580 . S
C712 C1 1.642 . S
C751 C282 1.858 . S
C739 C12 1.917 . S
C766 C26 1.618 . S
C778 C334 1.627 . S
C805 C387 1.779 . S
C793 C28 1.808 . S
C820 C55 1.496 . S
C832 C113 1.444 . S
C847 C68 1.733 . S
C859 C166 1.738 . S
C874 C82 1.590 . S
C886 C219 1.549 . S
C901 C14 1.898 . S
C913 C388 1.896 . S
C940 C106 1.543 . S
C928 C40 1.584 . S
C955 C43 1.746 . S
C967 C159 1.709 . S
C982 C56 1.491 . S
C994 C212 1.444 . S
C1009 C70 1.801 . S
C1021 C281 1.793 . S
C1036 C0 1.643 . S
C1048 C335 1.577 . S
