# Generated by pormake.
# Topology ssb, (4,4)-cn, num edge types: 1
# Building blocks:
#     Node 0, Type 0, BuildingBlock: ESEHIV_clean_sbu_0, # of connection points: 4
#     Node 1, Type 0, BuildingBlock: ESEHIV_clean_sbu_0, # of connection points: 4
#     Node 2, Type 0, BuildingBlock: ESEHIV_clean_sbu_0, # of connection points: 4
#     Node 3, Type 0, BuildingBlock: ESEHIV_clean_sbu_0, # of connection points: 4
#     Node 4, Type 0, BuildingBlock: ESEHIV_clean_sbu_0, # of connection points: 4
#     Node 5, Type 0, BuildingBlock: ESEHIV_clean_sbu_0, # of connection points: 4
#     Node 6, Type 0, BuildingBlock: ESEHIV_clean_sbu_0, # of connection points: 4
#     Node 7, Type 0, BuildingBlock: ESEHIV_clean_sbu_0, # of connection points: 4
#     Node 8, Type 1, BuildingBlock: KOZSID_clean_sbu_0, # of connection points: 4
#     Node 9, Type 1, BuildingBlock: KOZSID_clean_sbu_0, # of connection points: 4
#     Node 10, Type 1, BuildingBlock: KOZSID_clean_sbu_0, # of connection points: 4
#     Node 11, Type 1, BuildingBlock: KOZSID_clean_sbu_0, # of connection points: 4
#     Node 12, Type 1, BuildingBlock: KOZSID_clean_sbu_0, # of connection points: 4
#     Node 13, Type 1, BuildingBlock: KOZSID_clean_sbu_0, # of connection points: 4
#     Node 14, Type 1, BuildingBlock: KOZSID_clean_sbu_0, # of connection points: 4
#     Node 15, Type 1, BuildingBlock: KOZSID_clean_sbu_0, # of connection points: 4
#     Edge 16, Type (0, 1), BuildingBlock: UVAHIK_clean_linker_0, # of connection points: 2
#     Edge 17, Type (0, 1), BuildingBlock: UVAHIK_clean_linker_0, # of connection points: 2
#     Edge 18, Type (0, 1), BuildingBlock: UVAHIK_clean_linker_0, # of connection points: 2
#     Edge 19, Type (0, 1), BuildingBlock: UVAHIK_clean_linker_0, # of connection points: 2
#     Edge 20, Type (0, 1), BuildingBlock: UVAHIK_clean_linker_0, # of connection points: 2
#     Edge 21, Type (0, 1), BuildingBlock: UVAHIK_clean_linker_0, # of connection points: 2
#     Edge 22, Type (0, 1), BuildingBlock: UVAHIK_clean_linker_0, # of connection points: 2
#     Edge 23, Type (0, 1), BuildingBlock: UVAHIK_clean_linker_0, # of connection points: 2
#     Edge 24, Type (0, 1), BuildingBlock: UVAHIK_clean_linker_0, # of connection points: 2
#     Edge 25, Type (0, 1), BuildingBlock: UVAHIK_clean_linker_0, # of connection points: 2
#     Edge 26, Type (0, 1), BuildingBlock: UVAHIK_clean_linker_0, # of connection points: 2
#     Edge 27, Type (0, 1), BuildingBlock: UVAHIK_clean_linker_0, # of connection points: 2
#     Edge 28, Type (0, 1), BuildingBlock: UVAHIK_clean_linker_0, # of connection points: 2
#     Edge 29, Type (0, 1), BuildingBlock: UVAHIK_clean_linker_0, # of connection points: 2
#     Edge 30, Type (0, 1), BuildingBlock: UVAHIK_clean_linker_0, # of connection points: 2
#     Edge 31, Type (0, 1), BuildingBlock: UVAHIK_clean_linker_0, # of connection points: 2
#     Edge 32, Type (0, 1), BuildingBlock: UVAHIK_clean_linker_0, # of connection points: 2
#     Edge 33, Type (0, 1), BuildingBlock: UVAHIK_clean_linker_0, # of connection points: 2
#     Edge 34, Type (0, 1), BuildingBlock: UVAHIK_clean_linker_0, # of connection points: 2
#     Edge 35, Type (0, 1), BuildingBlock: UVAHIK_clean_linker_0, # of connection points: 2
#     Edge 36, Type (0, 1), BuildingBlock: UVAHIK_clean_linker_0, # of connection points: 2
#     Edge 37, Type (0, 1), BuildingBlock: UVAHIK_clean_linker_0, # of connection points: 2
#     Edge 38, Type (0, 1), BuildingBlock: UVAHIK_clean_linker_0, # of connection points: 2
#     Edge 39, Type (0, 1), BuildingBlock: UVAHIK_clean_linker_0, # of connection points: 2
#     Edge 40, Type (0, 1), BuildingBlock: UVAHIK_clean_linker_0, # of connection points: 2
#     Edge 41, Type (0, 1), BuildingBlock: UVAHIK_clean_linker_0, # of connection points: 2
#     Edge 42, Type (0, 1), BuildingBlock: UVAHIK_clean_linker_0, # of connection points: 2
#     Edge 43, Type (0, 1), BuildingBlock: UVAHIK_clean_linker_0, # of connection points: 2
#     Edge 44, Type (0, 1), BuildingBlock: UVAHIK_clean_linker_0, # of connection points: 2
#     Edge 45, Type (0, 1), BuildingBlock: UVAHIK_clean_linker_0, # of connection points: 2
#     Edge 46, Type (0, 1), BuildingBlock: UVAHIK_clean_linker_0, # of connection points: 2
#     Edge 47, Type (0, 1), BuildingBlock: UVAHIK_clean_linker_0, # of connection points: 2
# Relax obj value: 0.003
# Max RMSD: 0.109
# Mean RMSD: 0.052
data_MOF--net-ssb--node1-ESEHIV_clean_sbu_0--node2-KOZSID_clean_sbu_0--edge1-UVAHIK_clean_linker_0
_symmetry_space_group_name_H-M    P1
_symmetry_Int_Tables_number       1
_symmetry_cell_setting            triclinic
loop_
_symmetry_equiv_pos_as_xyz
'x, y, z'
_cell_length_a     69.402458
_cell_length_b     69.526504
_cell_length_c     51.067211
_cell_angle_alpha  91.959048
_cell_angle_beta   93.970994
_cell_angle_gamma 89.989619
loop_
_atom_site_label
_atom_site_type_symbol
_atom_site_fract_x
_atom_site_fract_y
_atom_site_fract_z
_atom_type_partial_charge
Cu0 Cu 0.27686 0.25931 0.27226 0.0
N1 N 0.27123 0.23276 0.27522 0.0
N2 N 0.26974 0.20388 0.2939 0.0
C3 C 0.27366 0.22293 0.29769 0.0
C4 C 0.26453 0.20174 0.26797 0.0
C5 C 0.26544 0.21944 0.25659 0.0
O6 O 0.26659 0.27151 0.30365 0.0
C7 C 0.31055 0.25232 0.24908 0.0
O8 O 0.29793 0.24169 0.23471 0.0
H9 H 0.27879 0.2296 0.31634 0.0
H10 H 0.26256 0.22221 0.23601 0.0
N11 N 0.26583 0.27128 0.2419 0.0
N12 N 0.26045 0.29421 0.21213 0.0
C13 C 0.26989 0.28942 0.2351 0.0
C14 C 0.25327 0.26438 0.22258 0.0
C15 C 0.25 0.2784 0.20423 0.0
C16 C 0.24946 0.27832 0.30187 0.0
O17 O 0.24023 0.27911 0.27862 0.0
H18 H 0.27985 0.29882 0.24666 0.0
H19 H 0.2468 0.25023 0.22186 0.0
O20 O 0.30474 0.26178 0.26891 0.0
H21 H 0.26037 0.18831 0.2578 0.0
H22 H 0.24041 0.27713 0.18661 0.0
Cu23 Cu 0.78259 0.27567 0.26692 0.0
N24 N 0.76878 0.26496 0.23681 0.0
N25 N 0.7441 0.25968 0.20657 0.0
C26 C 0.75048 0.26962 0.22872 0.0
C27 C 0.75903 0.24825 0.20057 0.0
C28 C 0.77421 0.25157 0.21917 0.0
O29 O 0.77625 0.3029 0.26867 0.0
C30 C 0.78219 0.24388 0.29597 0.0
O31 O 0.79105 0.23797 0.27525 0.0
H32 H 0.74197 0.28003 0.23912 0.0
H33 H 0.78822 0.24471 0.21977 0.0
N34 N 0.80963 0.2741 0.26667 0.0
N35 N 0.8405 0.27422 0.28317 0.0
C36 C 0.8217 0.27528 0.28854 0.0
C37 C 0.82111 0.27225 0.24659 0.0
C38 C 0.84014 0.27227 0.25669 0.0
C39 C 0.77771 0.31124 0.24707 0.0
O40 O 0.78329 0.30125 0.22668 0.0
H41 H 0.81664 0.27675 0.30807 0.0
H42 H 0.81605 0.27118 0.22608 0.0
O43 O 0.77594 0.26111 0.29687 0.0
H44 H 0.75913 0.23838 0.18373 0.0
H45 H 0.85269 0.27131 0.24529 0.0
Cu46 Cu 0.77519 0.78345 0.25982 0.0
N47 N 0.78501 0.77025 0.23043 0.0
N48 N 0.78964 0.74592 0.20119 0.0
C49 C 0.78021 0.75203 0.22233 0.0
C50 C 0.80083 0.76104 0.19589 0.0
C51 C 0.79797 0.77591 0.21385 0.0
O52 O 0.74712 0.78186 0.25347 0.0
C53 C 0.80529 0.77102 0.29133 0.0
O54 O 0.81365 0.77784 0.27128 0.0
H55 H 0.76988 0.74349 0.23183 0.0
H56 H 0.80518 0.78972 0.21499 0.0
N57 N 0.78148 0.80994 0.26446 0.0
N58 N 0.78366 0.83945 0.28434 0.0
C59 C 0.77941 0.82056 0.28681 0.0
C60 C 0.78726 0.82251 0.24716 0.0
C61 C 0.78863 0.84059 0.25927 0.0
C62 C 0.74141 0.79003 0.23232 0.0
O63 O 0.75445 0.79823 0.21891 0.0
H64 H 0.77468 0.81443 0.30446 0.0
H65 H 0.78972 0.81899 0.22689 0.0
O66 O 0.7869 0.77156 0.29116 0.0
H67 H 0.81077 0.76128 0.1805 0.0
H68 H 0.79245 0.85362 0.24987 0.0
Cu69 Cu 0.26041 0.77292 0.24421 0.0
N70 N 0.27129 0.78329 0.21499 0.0
N71 N 0.29377 0.78866 0.18662 0.0
C72 C 0.28849 0.77785 0.20639 0.0
C73 C 0.27932 0.80145 0.18257 0.0
C74 C 0.26542 0.79803 0.2 0.0
O75 O 0.2676 0.74597 0.24395 0.0
C76 C 0.26478 0.8054 0.27465 0.0
O77 O 0.2533 0.81087 0.25476 0.0
H78 H 0.29728 0.76657 0.21513 0.0
H79 H 0.25222 0.80605 0.20196 0.0
N80 N 0.23338 0.77436 0.24358 0.0
N81 N 0.20391 0.77413 0.25906 0.0
C82 C 0.22306 0.77154 0.26455 0.0
C83 C 0.22035 0.77884 0.22401 0.0
C84 C 0.20217 0.77876 0.23351 0.0
C85 C 0.26307 0.73735 0.22201 0.0
O86 O 0.25345 0.74683 0.20351 0.0
H87 H 0.22961 0.76811 0.28367 0.0
H88 H 0.22382 0.78204 0.2043 0.0
O89 O 0.27033 0.78794 0.27493 0.0
H90 H 0.27889 0.81252 0.16815 0.0
H91 H 0.18872 0.78174 0.22239 0.0
Cu92 Cu 0.28017 0.77144 0.75222 0.0
N93 N 0.30692 0.7681 0.75135 0.0
N94 N 0.3378 0.76666 0.76702 0.0
C95 C 0.31932 0.76966 0.77278 0.0
C96 C 0.33697 0.76317 0.74078 0.0
C97 C 0.31789 0.76403 0.73117 0.0
O98 O 0.27333 0.75916 0.78494 0.0
C99 C 0.27841 0.80382 0.7227 0.0
O100 O 0.28459 0.79042 0.70659 0.0
H101 H 0.31479 0.77317 0.79222 0.0
H102 H 0.31245 0.76184 0.71093 0.0
N103 N 0.2661 0.75819 0.72458 0.0
N104 N 0.2412 0.75128 0.69554 0.0
C105 C 0.24774 0.76236 0.71652 0.0
C106 C 0.27144 0.74388 0.70822 0.0
C107 C 0.25611 0.73961 0.69024 0.0
C108 C 0.27916 0.74167 0.78597 0.0
O109 O 0.28788 0.73447 0.76583 0.0
H110 H 0.23956 0.77375 0.72551 0.0
H111 H 0.28549 0.73712 0.70916 0.0
O112 O 0.27526 0.79913 0.74611 0.0
H113 H 0.34921 0.75996 0.72936 0.0
H114 H 0.25596 0.7287 0.67459 0.0
Cu115 Cu 0.28136 0.28127 0.78893 0.0
N116 N 0.2762 0.29047 0.82229 0.0
N117 N 0.26944 0.3114 0.85443 0.0
C118 C 0.27357 0.30907 0.82909 0.0
C119 C 0.26942 0.29351 0.8639 0.0
C120 C 0.27347 0.28059 0.84394 0.0
O121 O 0.30079 0.29729 0.77465 0.0
C122 C 0.25654 0.28426 0.74196 0.0
O123 O 0.27284 0.28564 0.73052 0.0
H124 H 0.27492 0.32064 0.81569 0.0
H125 H 0.27407 0.26511 0.84505 0.0
N126 N 0.28987 0.25594 0.78938 0.0
N127 N 0.29437 0.22569 0.77535 0.0
C128 C 0.28691 0.24301 0.76937 0.0
C129 C 0.29976 0.24658 0.80865 0.0
C130 C 0.30242 0.22777 0.80009 0.0
C131 C 0.31897 0.29918 0.77996 0.0
O132 O 0.3286 0.31016 0.76498 0.0
H133 H 0.27916 0.24617 0.75089 0.0
H134 H 0.30472 0.25296 0.82752 0.0
O135 O 0.25714 0.28231 0.76674 0.0
H136 H 0.26629 0.28996 0.88364 0.0
H137 H 0.30991 0.2166 0.81098 0.0
Cu138 Cu 0.76944 0.28213 0.76132 0.0
N139 N 0.78194 0.2939 0.73439 0.0
N140 N 0.80542 0.29951 0.70758 0.0
C141 C 0.79904 0.28799 0.72593 0.0
C142 C 0.79178 0.3132 0.70426 0.0
C143 C 0.77726 0.30964 0.72066 0.0
O144 O 0.77345 0.2542 0.75436 0.0
C145 C 0.77445 0.31339 0.79506 0.0
O146 O 0.76459 0.31988 0.77435 0.0
H147 H 0.8069 0.27574 0.73364 0.0
H148 H 0.76437 0.31815 0.72266 0.0
N149 N 0.74256 0.28591 0.75984 0.0
N150 N 0.71276 0.28685 0.77425 0.0
C151 C 0.73145 0.28205 0.77966 0.0
C152 C 0.73049 0.29339 0.74109 0.0
C153 C 0.71212 0.29403 0.74995 0.0
C154 C 0.76646 0.24898 0.7313 0.0
O155 O 0.75735 0.26204 0.71717 0.0
H156 H 0.73716 0.27629 0.79803 0.0
H157 H 0.73473 0.29815 0.72239 0.0
O158 O 0.77899 0.2955 0.79478 0.0
H159 H 0.79224 0.32492 0.69089 0.0
H160 H 0.69929 0.29927 0.73923 0.0
Cu161 Cu 0.76583 0.75992 0.75543 0.0
N162 N 0.76058 0.73362 0.75316 0.0
N163 N 0.76165 0.70305 0.76531 0.0
C164 C 0.76723 0.72134 0.77139 0.0
C165 C 0.75092 0.70391 0.74227 0.0
C166 C 0.75033 0.72282 0.73476 0.0
O167 O 0.75696 0.76846 0.78957 0.0
C168 C 0.79824 0.75485 0.72862 0.0
O169 O 0.78484 0.74582 0.71345 0.0
H170 H 0.77579 0.72591 0.78901 0.0
H171 H 0.74309 0.72826 0.71711 0.0
N172 N 0.75237 0.77307 0.72872 0.0
N173 N 0.74594 0.79676 0.70094 0.0
C174 C 0.75925 0.7887 0.71768 0.0
C175 C 0.73407 0.77095 0.71855 0.0
C176 C 0.73007 0.78553 0.70128 0.0
C177 C 0.74596 0.78294 0.7927 0.0
O178 O 0.7433 0.79508 0.77364 0.0
H179 H 0.77367 0.79426 0.72244 0.0
H180 H 0.72412 0.76008 0.72409 0.0
O181 O 0.79337 0.76293 0.75001 0.0
H182 H 0.74419 0.69175 0.73143 0.0
H183 H 0.71629 0.78813 0.69076 0.0
C184 C 0.06802 0.30467 0.56913 0.0
C185 C 0.07374 0.32277 0.57895 0.0
C186 C 0.06311 0.33579 0.5647 0.0
C187 C 0.05148 0.32495 0.54711 0.0
N188 N 0.05384 0.30576 0.5495 0.0
Co189 Co 0.04032 0.28483 0.5272 0.0
N190 N 0.02678 0.30396 0.50372 0.0
C191 C 0.02872 0.32334 0.50553 0.0
C192 C 0.01759 0.33277 0.48683 0.0
C193 C 0.0078 0.3186 0.47233 0.0
C194 C 0.01342 0.30127 0.48317 0.0
N195 N 0.02661 0.26389 0.50511 0.0
C196 C 0.013 0.26494 0.48472 0.0
C197 C 0.00644 0.24679 0.47607 0.0
C198 C 0.01617 0.23385 0.49147 0.0
C199 C 0.028 0.24474 0.50871 0.0
N200 N 0.0542 0.2657 0.55037 0.0
C201 C 0.05252 0.24632 0.54837 0.0
C202 C 0.06462 0.23686 0.56591 0.0
C203 C 0.07495 0.25101 0.57969 0.0
C204 C 0.06845 0.26838 0.56978 0.0
N205 N 0.01824 0.28576 0.55038 0.0
C206 C 0.98495 0.28685 0.57986 0.0
C207 C 0.99504 0.26968 0.57566 0.0
C208 C 0.01138 0.26944 0.56094 0.0
C209 C 0.99227 0.30352 0.56949 0.0
C210 C 0.00881 0.30269 0.55532 0.0
N211 N 0.06232 0.28395 0.50408 0.0
C212 C 0.08647 0.26603 0.48131 0.0
C213 C 0.09513 0.28304 0.47405 0.0
C214 C 0.08684 0.30047 0.48178 0.0
C215 C 0.07065 0.30059 0.49662 0.0
C216 C 0.07014 0.2668 0.49603 0.0
H217 H 0.0653 0.31438 0.50214 0.0
H218 H 0.06417 0.25335 0.50087 0.0
H219 H 0.01809 0.25582 0.55821 0.0
H220 H 0.01348 0.31598 0.54822 0.0
C221 C 0.03999 0.33229 0.52622 0.0
C222 C 0.07698 0.28693 0.57847 0.0
C223 C 0.00524 0.28272 0.47367 0.0
C224 C 0.04017 0.23743 0.52887 0.0
H225 H 0.08483 0.3262 0.59437 0.0
H226 H 0.06431 0.35132 0.56624 0.0
H227 H 0.01638 0.34814 0.48445 0.0
H228 H 0.99741 0.3208 0.45591 0.0
H229 H 0.99548 0.24324 0.46057 0.0
H230 H 0.01454 0.21836 0.49056 0.0
H231 H 0.06618 0.22147 0.56789 0.0
H232 H 0.08633 0.24875 0.59484 0.0
H233 H 0.99044 0.25636 0.58368 0.0
H234 H 0.98509 0.31724 0.57168 0.0
H235 H 0.09215 0.25214 0.47548 0.0
H236 H 0.09307 0.31407 0.47692 0.0
C237 C 0.75184 0.06233 0.56458 0.0
C238 C 0.73389 0.06907 0.57102 0.0
C239 C 0.72047 0.05961 0.55454 0.0
C240 C 0.7309 0.0476 0.53907 0.0
N241 N 0.7502 0.04857 0.54492 0.0
Co242 Co 0.77065 0.03425 0.52614 0.0
N243 N 0.75098 0.02139 0.50049 0.0
C244 C 0.7316 0.02372 0.49985 0.0
C245 C 0.72168 0.01265 0.48069 0.0
C246 C 0.7355 1.00241 0.46856 0.0
C247 C 0.75316 0.00775 0.48113 0.0
N248 N 0.79114 0.02016 0.50712 0.0
C249 C 0.78962 0.00677 0.48698 0.0
C250 C 0.80765 1.00008 0.48071 0.0
C251 C 0.82098 0.0095 0.49734 0.0
C252 C 0.81044 0.0213 0.51289 0.0
N253 N 0.79031 0.04689 0.55201 0.0
C254 C 0.80965 0.0442 0.55304 0.0
C255 C 0.81962 0.05525 0.57213 0.0
C256 C 0.80588 0.06583 0.5839 0.0
C257 C 0.7882 0.06057 0.57131 0.0
N258 N 0.76869 0.01215 0.54953 0.0
C259 C 0.76548 0.97783 0.57681 0.0
C260 C 0.78356 0.98557 0.57271 0.0
C261 C 0.78483 1.00265 0.55922 0.0
C262 C 0.74909 0.98813 0.56829 0.0
C263 C 0.75101 0.00514 0.55498 0.0
N264 N 0.7725 0.05632 0.5027 0.0
C265 C 0.79137 0.08099 0.48397 0.0
C266 C 0.77463 0.08982 0.47337 0.0
C267 C 0.75689 0.08121 0.47697 0.0
C268 C 0.75617 0.06458 0.49142 0.0
C269 C 0.78999 0.06437 0.49841 0.0
H270 H 0.74219 0.05883 0.49341 0.0
H271 H 0.80323 0.05846 0.50626 0.0
H272 H 0.799 0.00764 0.55634 0.0
H273 H 0.73793 0.01211 0.54887 0.0
C274 C 0.7231 0.03594 0.51809 0.0
C275 C 0.76999 0.06976 0.57743 0.0
C276 C 0.77151 0.99925 0.47409 0.0
C277 C 0.81813 0.03244 0.53438 0.0
H278 H 0.73085 0.07994 0.58584 0.0
H279 H 0.70496 0.06156 0.55356 0.0
H280 H 0.70621 0.01188 0.47634 0.0
H281 H 0.73286 0.99201 0.45246 0.0
H282 H 0.8109 0.98914 0.46613 0.0
H283 H 0.83648 0.0075 0.49853 0.0
H284 H 0.8351 0.05604 0.57637 0.0
H285 H 0.80869 0.07661 0.59947 0.0
H286 H 0.79671 0.97817 0.57908 0.0
H287 H 0.73476 0.98302 0.57169 0.0
H288 H 0.80548 0.08711 0.4817 0.0
H289 H 0.74354 0.08721 0.46858 0.0
C290 C 0.0444 0.78153 0.54901 0.0
C291 C 0.05154 0.79951 0.55739 0.0
C292 C 0.03934 0.81277 0.54621 0.0
C293 C 0.02554 0.8022 0.53162 0.0
N294 N 0.02802 0.78295 0.53302 0.0
Co295 Co 0.01191 0.76234 0.51357 0.0
N296 N 0.99475 0.78191 0.49569 0.0
C297 C 0.99631 0.80129 0.49839 0.0
C298 C 0.98221 0.811 0.48416 0.0
C299 C 0.97076 0.79701 0.47188 0.0
C300 C 0.97854 0.77949 0.47945 0.0
N301 N 0.99591 0.74172 0.49402 0.0
C302 C 0.97964 0.74309 0.47783 0.0
C303 C 0.97265 0.72506 0.46931 0.0
C304 C 0.98487 0.71185 0.48049 0.0
C305 C 0.99852 0.72248 0.49525 0.0
N306 N 0.02895 0.74276 0.53158 0.0
C307 C 0.02722 0.72339 0.52922 0.0
C308 C 0.04111 0.71366 0.54379 0.0
C309 C 0.05261 0.72763 0.55598 0.0
C310 C 0.04508 0.74515 0.54795 0.0
N311 N 0.99422 0.76201 0.54276 0.0
C312 C 0.96672 0.76154 0.58132 0.0
C313 C 0.97436 0.74446 0.57108 0.0
C314 C 0.98792 0.74502 0.55205 0.0
C315 C 0.97364 0.77888 0.57244 0.0
C316 C 0.98729 0.77879 0.55347 0.0
N317 N 0.0296 0.76273 0.48436 0.0
C318 C 0.05063 0.74612 0.45506 0.0
C319 C 0.0565 0.76351 0.44509 0.0
C320 C 0.04834 0.78045 0.45483 0.0
C321 C 0.0351 0.77975 0.47426 0.0
C322 C 0.03722 0.74605 0.47436 0.0
H323 H 0.02972 0.79322 0.48102 0.0
H324 H 0.03335 0.73232 0.48103 0.0
H325 H 0.99291 0.73148 0.54494 0.0
H326 H 0.99177 0.79249 0.54746 0.0
C327 C 0.01074 0.80991 0.51528 0.0
C328 C 0.05417 0.76357 0.55574 0.0
C329 C 0.9698 0.761 0.47101 0.0
C330 C 0.01306 0.71476 0.51196 0.0
H331 H 0.06448 0.80276 0.5698 0.0
H332 H 0.04069 0.82828 0.54792 0.0
H333 H 0.98027 0.82641 0.48322 0.0
H334 H 0.95797 0.79943 0.45905 0.0
H335 H 0.95976 0.72171 0.45685 0.0
H336 H 0.98359 0.69634 0.47876 0.0
H337 H 0.04292 0.69824 0.54493 0.0
H338 H 0.06532 0.72519 0.56894 0.0
H339 H 0.9699 0.73061 0.57765 0.0
H340 H 0.9682 0.79256 0.57951 0.0
H341 H 0.05625 0.73254 0.44789 0.0
H342 H 0.05249 0.79433 0.44798 0.0
C343 C 0.29882 0.98662 0.56892 0.0
C344 C 0.31664 0.98139 0.58053 0.0
C345 C 0.33022 0.99206 0.56941 0.0
C346 C 0.32002 1.00317 0.55165 0.0
N347 N 0.30071 1.00029 0.55078 0.0
Co348 Co 0.28069 0.01353 0.52738 0.0
N349 N 0.30085 0.02783 0.50914 0.0
C350 C 0.32022 0.02605 0.51335 0.0
C351 C 0.33049 0.03758 0.49808 0.0
C352 C 0.31689 0.04739 0.48324 0.0
C353 C 0.29901 0.04128 0.49034 0.0
N354 N 0.26065 0.02735 0.50475 0.0
C355 C 0.26252 0.04136 0.48709 0.0
C356 C 0.24466 0.04753 0.47669 0.0
C357 C 0.23104 0.03732 0.48837 0.0
C358 C 0.24128 0.02553 0.50518 0.0
N359 N 0.26056 0.99867 0.54478 0.0
C360 C 0.24122 0.99963 0.53951 0.0
C361 C 0.23094 0.98744 0.55382 0.0
C362 C 0.24451 0.97787 0.56893 0.0
C363 C 0.2624 0.98475 0.56288 0.0
N364 N 0.27974 0.03476 0.55429 0.0
C365 C 0.27879 0.0653 0.59174 0.0
C366 C 0.26203 0.05503 0.58372 0.0
C367 C 0.26278 0.04001 0.56486 0.0
C368 C 0.296 0.05997 0.58105 0.0
C369 C 0.29619 0.04469 0.56274 0.0
N370 N 0.28175 0.99224 0.50064 0.0
C371 C 0.26578 0.96928 0.46974 0.0
C372 C 0.28331 0.9601 0.46564 0.0
C373 C 0.30004 0.96759 0.47894 0.0
C374 C 0.29896 0.98355 0.49601 0.0
C375 C 0.26533 0.98522 0.48717 0.0
H376 H 0.31226 0.98838 0.50551 0.0
H377 H 0.25154 0.99152 0.48961 0.0
H378 H 0.24946 0.03297 0.55905 0.0
H379 H 0.30986 0.04127 0.55574 0.0
C380 C 0.32825 0.01487 0.53361 0.0
C381 C 0.28065 0.97752 0.57489 0.0
C382 C 0.28076 0.04934 0.47951 0.0
C383 C 0.23315 0.01242 0.52136 0.0
H384 H 0.31959 0.97063 0.59508 0.0
H385 H 0.34574 0.99131 0.57317 0.0
H386 H 0.34601 0.03915 0.49831 0.0
H387 H 0.31981 0.05816 0.46923 0.0
H388 H 0.24178 0.05835 0.46219 0.0
H389 H 0.21551 0.03842 0.48508 0.0
H390 H 0.21542 0.98571 0.55331 0.0
H391 H 0.24156 0.96702 0.58282 0.0
H392 H 0.24836 0.05881 0.59154 0.0
H393 H 0.30937 0.06745 0.58704 0.0
H394 H 0.25243 0.96428 0.4595 0.0
H395 H 0.31397 0.96094 0.4767 0.0
C396 C 0.55612 0.79969 0.06081 0.0
C397 C 0.56001 0.81777 0.07236 0.0
C398 C 0.55061 0.83077 0.05668 0.0
C399 C 0.54138 0.81995 0.03667 0.0
N400 N 0.54419 0.80079 0.03871 0.0
Co401 Co 0.53263 0.77991 0.01448 0.0
N402 N 0.52037 0.79914 0.99002 0.0
C403 C 0.52226 0.8185 0.99211 0.0
C404 C 0.51211 0.82798 0.97253 0.0
C405 C 0.50308 0.81384 0.95706 0.0
C406 C 0.50827 0.79647 0.96816 0.0
N407 N 0.52037 0.75903 0.99086 0.0
C408 C 0.50768 0.76017 0.96954 0.0
C409 C 0.502 0.74207 0.95956 0.0
C410 C 0.51112 0.72902 0.97541 0.0
C411 C 0.52182 0.73985 0.99405 0.0
N412 N 0.54561 0.76069 0.03833 0.0
C413 C 0.54499 0.7413 0.03501 0.0
C414 C 0.55647 0.73179 0.05319 0.0
C415 C 0.56518 0.74592 0.06895 0.0
C416 C 0.55831 0.76335 0.05961 0.0
N417 N 0.50919 0.78006 0.03508 0.0
C418 C 0.47487 0.78019 0.06234 0.0
C419 C 0.486 0.76348 0.05977 0.0
C420 C 0.50284 0.7637 0.04607 0.0
C421 C 0.4815 0.79683 0.05113 0.0
C422 C 0.49855 0.7965 0.03804 0.0
N423 N 0.556 0.77983 0.99378 0.0
C424 C 0.57962 0.76285 0.96883 0.0
C425 C 0.58914 0.78004 0.96424 0.0
C426 C 0.58177 0.79708 0.97492 0.0
C427 C 0.56539 0.79666 0.98942 0.0
C428 C 0.56326 0.76307 0.9835 0.0
H429 H 0.56064 0.81018 0.99696 0.0
H430 H 0.55671 0.74948 0.98621 0.0
H431 H 0.51043 0.75041 0.04454 0.0
H432 H 0.50266 0.80977 0.03024 0.0
C433 C 0.53161 0.82738 0.01443 0.0
C434 C 0.56474 0.78203 0.07104 0.0
C435 C 0.50034 0.77797 0.95829 0.0
C436 C 0.53354 0.73245 0.01456 0.0
H437 H 0.56905 0.82124 0.09001 0.0
H438 H 0.55094 0.84629 0.05914 0.0
H439 H 0.51075 0.84336 0.97041 0.0
H440 H 0.49329 0.81612 0.94004 0.0
H441 H 0.49214 0.73867 0.94267 0.0
H442 H 0.51 0.71349 0.97366 0.0
H443 H 0.55852 0.71641 0.05455 0.0
H444 H 0.57566 0.74354 0.08518 0.0
H445 H 0.48188 0.75021 0.06838 0.0
H446 H 0.47344 0.81014 0.05192 0.0
H447 H 0.58455 0.74924 0.96082 0.0
H448 H 0.58872 0.81078 0.97244 0.0
C449 C 0.25314 0.55822 0.07281 0.0
C450 C 0.2369 0.56581 0.08377 0.0
C451 C 0.22127 0.55918 0.06845 0.0
C452 C 0.22879 0.54805 0.04901 0.0
N453 N 0.2483 0.54702 0.05109 0.0
Co454 Co 0.26513 0.53321 0.02623 0.0
N455 N 0.24208 0.52275 1.00448 0.0
C456 C 0.22327 0.52614 0.00813 0.0
C457 C 0.21077 0.51556 0.99136 0.0
C458 C 0.22232 0.50435 0.97656 0.0
C459 C 0.24121 0.50887 0.98517 0.0
N460 N 0.28193 0.51979 1.00106 0.0
C461 C 0.27707 0.50674 0.9815 0.0
C462 C 0.29307 0.5003 0.96896 0.0
C463 C 0.30874 0.50929 0.98159 0.0
C464 C 0.30138 0.52068 1.00096 0.0
N465 N 0.28823 0.54304 0.04841 0.0
C466 C 0.30702 0.53965 0.04438 0.0
C467 C 0.31965 0.54786 0.06335 0.0
C468 C 0.30827 0.55711 0.08049 0.0
C469 C 0.28928 0.5541 0.07083 0.0
N470 N 0.26504 0.50965 0.04764 0.0
C471 C 0.26441 0.47499 0.07579 0.0
C472 C 0.28121 0.48129 0.06486 0.0
C473 C 0.28125 0.49849 0.05122 0.0
C474 C 0.24799 0.48669 0.07246 0.0
C475 C 0.24859 0.50368 0.05841 0.0
N476 N 0.26522 0.55684 1.00447 0.0
C477 C 0.28267 0.58093 0.98191 0.0
C478 C 0.26552 0.58965 0.97237 0.0
C479 C 0.24821 0.58177 0.97973 0.0
C480 C 0.24838 0.56559 0.99556 0.0
C481 C 0.2822 0.56483 0.99773 0.0
H482 H 0.23464 0.56041 1.00014 0.0
H483 H 0.29586 0.55914 1.00423 0.0
H484 H 0.29453 0.50237 0.0434 0.0
H485 H 0.2355 0.51175 0.05634 0.0
C486 C 0.21789 0.53802 0.02896 0.0
C487 C 0.27283 0.56265 0.08315 0.0
C488 C 0.25787 0.49866 0.97602 0.0
C489 C 0.31237 0.52962 0.02185 0.0
H490 H 0.23637 0.57533 0.10092 0.0
H491 H 0.20621 0.56217 0.07112 0.0
H492 H 0.19515 0.51536 0.9908 0.0
H493 H 0.21742 0.4936 0.96177 0.0
H494 H 0.2934 0.48952 0.9532 0.0
H495 H 0.32377 0.50685 0.97817 0.0
H496 H 0.33528 0.54744 0.06436 0.0
H497 H 0.31337 0.56538 0.09794 0.0
H498 H 0.29432 0.47284 0.06631 0.0
H499 H 0.23464 0.48291 0.08081 0.0
H500 H 0.29656 0.58657 0.9774 0.0
H501 H 0.23445 0.58778 0.97286 0.0
C502 C 0.48326 0.29077 0.98507 0.0
C503 C 0.47647 0.30882 0.97817 0.0
C504 C 0.48781 0.322 0.99238 0.0
C505 C 0.50094 0.31133 0.00695 0.0
N506 N 0.49875 0.2921 1.00288 0.0
Co507 Co 0.5152 0.27149 0.01974 0.0
N508 N 0.53161 0.29094 0.04104 0.0
C509 C 0.52905 0.31022 0.04194 0.0
C510 C 0.5425 0.31994 0.05827 0.0
C511 C 0.55452 0.30606 0.06826 0.0
C512 C 0.54776 0.2886 0.05726 0.0
N513 N 0.53195 0.25089 0.03614 0.0
C514 C 0.54834 0.2523 0.05231 0.0
C515 C 0.5561 0.23429 0.05748 0.0
C516 C 0.54425 0.22108 0.04424 0.0
C517 C 0.53006 0.23168 0.03159 0.0
N518 N 0.49858 0.25202 0.99876 0.0
C519 C 0.50021 0.23265 0.9995 0.0
C520 C 0.48636 0.22288 0.98393 0.0
C521 C 0.47508 0.23679 0.97261 0.0
C522 C 0.48282 0.25437 0.98181 0.0
N523 N 0.53301 0.27267 0.99083 0.0
C524 C 0.56046 0.27418 0.95244 0.0
C525 C 0.55258 0.25665 0.95919 0.0
C526 C 0.53892 0.25624 0.97813 0.0
C527 C 0.55393 0.29096 0.96481 0.0
C528 C 0.54035 0.28989 0.98375 0.0
N529 N 0.49739 0.27034 0.04882 0.0
C530 C 0.47952 0.25192 0.07861 0.0
C531 C 0.4709 0.26855 0.08865 0.0
C532 C 0.47612 0.28614 0.07861 0.0
C533 C 0.48929 0.2867 0.05905 0.0
C534 C 0.49251 0.25311 0.05891 0.0
H535 H 0.49252 0.30058 0.05238 0.0
H536 H 0.49832 0.23985 0.05211 0.0
H537 H 0.53349 0.24243 0.98235 0.0
H538 H 0.53624 0.30319 0.9927 0.0
C539 C 0.5149 0.31889 0.0255 0.0
C540 C 0.47438 0.27285 0.97426 0.0
C541 C 0.55743 0.27028 0.0625 0.0
C542 C 0.51507 0.22406 0.01475 0.0
H543 H 0.46447 0.31215 0.96442 0.0
H544 H 0.4865 0.33751 0.99233 0.0
H545 H 0.54374 0.33533 0.06192 0.0
H546 H 0.56704 0.30855 0.0818 0.0
H547 H 0.56918 0.23099 0.06921 0.0
H548 H 0.546 0.20561 0.04348 0.0
H549 H 0.48461 0.20745 0.98124 0.0
H550 H 0.46248 0.23425 0.95926 0.0
H551 H 0.55687 0.24325 0.94985 0.0
H552 H 0.55963 0.3049 0.96045 0.0
H553 H 0.4764 0.23791 0.08596 0.0
H554 H 0.4698 0.29949 0.08535 0.0
C555 C 0.76481 0.55022 0.05354 0.0
C556 C 0.74697 0.55857 0.05717 0.0
C557 C 0.73334 0.54652 0.04509 0.0
C558 C 0.74354 0.53159 0.03465 0.0
N559 N 0.7629 0.53327 0.03943 0.0
Co560 Co 0.78301 0.515 0.02664 0.0
N561 N 0.76291 0.49763 0.00798 0.0
C562 C 0.74353 0.4999 0.00762 0.0
C563 C 0.73331 0.48568 0.99354 0.0
C564 C 0.74695 0.47356 0.98431 0.0
C565 C 0.7648 0.48115 0.99321 0.0
N566 N 0.80313 0.49687 0.0136 0.0
C567 C 0.8013 0.48051 0.9982 0.0
C568 C 0.81917 0.47262 0.99357 0.0
C569 C 0.83275 0.48427 0.00655 0.0
C570 C 0.82248 0.49862 0.01825 0.0
N571 N 0.8031 0.53229 0.04544 0.0
C572 C 0.82242 0.52947 0.04696 0.0
C573 C 0.83266 0.54359 0.06119 0.0
C574 C 0.81911 0.5563 0.06917 0.0
C575 C 0.80128 0.54924 0.05919 0.0
N576 N 0.78169 0.49983 0.05885 0.0
C577 C 0.7793 0.47644 0.10264 0.0
C578 C 0.79718 0.48137 0.09377 0.0
C579 C 0.79804 0.49301 0.07203 0.0
C580 C 0.76272 0.48397 0.08979 0.0
C581 C 0.76423 0.49551 0.06822 0.0
N582 N 0.78426 0.53014 0.99453 0.0
C583 C 0.80254 0.54761 0.96436 0.0
C584 C 0.78556 0.55347 0.95055 0.0
C585 C 0.76798 0.54704 0.95882 0.0
C586 C 0.76768 0.53545 0.98053 0.0
C587 C 0.80157 0.53601 0.9861 0.0
H588 H 0.7538 0.53122 0.98582 0.0
H589 H 0.81498 0.53211 0.99591 0.0
H590 H 0.81208 0.49604 0.06607 0.0
H591 H 0.751 0.50058 0.05937 0.0
C592 C 0.73537 0.51587 0.02004 0.0
C593 C 0.7831 0.55923 0.06338 0.0
C594 C 0.78308 0.47201 0.98719 0.0
C595 C 0.83057 0.51383 0.03388 0.0
H596 H 0.74408 0.57208 0.06728 0.0
H597 H 0.71784 0.54851 0.04382 0.0
H598 H 0.71779 0.48435 0.99026 0.0
H599 H 0.74406 0.46059 0.97236 0.0
H600 H 0.82211 0.45979 0.98193 0.0
H601 H 0.84827 0.48251 0.00734 0.0
H602 H 0.84817 0.54464 0.06503 0.0
H603 H 0.82203 0.56936 0.08092 0.0
H604 H 0.81047 0.47584 0.10302 0.0
H605 H 0.74853 0.48093 0.09625 0.0
H606 H 0.81655 0.55195 0.9585 0.0
H607 H 0.75438 0.55134 0.94908 0.0
C608 C 0.22256 0.29491 0.32325 0.0
C609 C 0.23845 0.2824 0.3253 0.0
C610 C 0.2096 0.29622 0.34299 0.0
C611 C 0.18995 0.26709 0.39327 0.0
H612 H 0.16515 0.31485 0.41311 0.0
C613 C 0.12794 0.2699 0.46451 0.0
C614 C 0.11271 0.28277 0.45873 0.0
C615 C 0.1447 0.27019 0.45066 0.0
C616 C 0.17177 0.30134 0.40761 0.0
H617 H 0.25361 0.26189 0.35018 0.0
H618 H 0.23082 0.26413 0.38488 0.0
H619 H 0.19261 0.31551 0.38589 0.0
H620 H 0.103 0.30563 0.43321 0.0
H621 H 0.13194 0.30598 0.40892 0.0
H622 H 0.16875 0.25284 0.4143 0.0
C623 C 0.22844 0.27294 0.36788 0.0
C624 C 0.18761 0.30174 0.39209 0.0
C625 C 0.24161 0.27183 0.34818 0.0
C626 C 0.11457 0.29574 0.43852 0.0
C627 C 0.13125 0.29598 0.42462 0.0
C628 C 0.17401 0.26666 0.4087 0.0
C629 C 0.21204 0.28487 0.36522 0.0
C630 C 0.19671 0.2846 0.38434 0.0
C631 C 0.14664 0.28331 0.43059 0.0
C632 C 0.16447 0.28377 0.4157 0.0
H633 H 0.21969 0.30318 0.30581 0.0
H634 H 0.19709 0.30542 0.34012 0.0
H635 H 0.19645 0.25359 0.38739 0.0
H636 H 0.12711 0.25987 0.48016 0.0
H637 H 0.15629 0.26036 0.45605 0.0
C638 C 0.76855 0.23433 0.33827 0.0
C639 C 0.78098 0.23078 0.31804 0.0
C640 C 0.76761 0.22131 0.35859 0.0
C641 C 0.79561 0.18295 0.39175 0.0
H642 H 0.74619 0.1617 0.40718 0.0
C643 C 0.78974 0.11026 0.4407 0.0
C644 C 0.77557 0.10785 0.45867 0.0
C645 C 0.79035 0.12705 0.42649 0.0
C646 C 0.7601 0.16771 0.40348 0.0
H647 H 0.80238 0.21104 0.30356 0.0
H648 H 0.80084 0.18873 0.33876 0.0
H649 H 0.74725 0.18862 0.37772 0.0
H650 H 0.75124 0.12142 0.47631 0.0
H651 H 0.75236 0.15077 0.45155 0.0
H652 H 0.80854 0.16198 0.41707 0.0
C653 C 0.79184 0.20146 0.33907 0.0
C654 C 0.76068 0.18314 0.38662 0.0
C655 C 0.79258 0.21421 0.31875 0.0
C656 C 0.76215 0.12271 0.4623 0.0
C657 C 0.7628 0.13954 0.44812 0.0
C658 C 0.79504 0.16764 0.40866 0.0
C659 C 0.77935 0.2048 0.35918 0.0
C660 C 0.77847 0.19055 0.38005 0.0
C661 C 0.77687 0.14189 0.42997 0.0
C662 C 0.77731 0.15948 0.41419 0.0
H663 H 0.75944 0.24697 0.33822 0.0
H664 H 0.75786 0.22421 0.3739 0.0
H665 H 0.80953 0.18859 0.38734 0.0
H666 H 0.80011 0.09899 0.43716 0.0
H667 H 0.80116 0.12819 0.4123 0.0
C668 C 0.83576 0.75609 0.30858 0.0
C669 C 0.8178 0.76415 0.31368 0.0
C670 C 0.8496 0.75274 0.32899 0.0
C671 C 0.86557 0.77164 0.39451 0.0
H672 H 0.90187 0.72933 0.39148 0.0
C673 C 0.93384 0.76572 0.46693 0.0
C674 C 0.95089 0.76038 0.45532 0.0
C675 C 0.91601 0.76472 0.4523 0.0
C676 C 0.89191 0.74128 0.39256 0.0
H677 H 0.79988 0.77434 0.34428 0.0
H678 H 0.82431 0.7685 0.38041 0.0
H679 H 0.8726 0.72877 0.36219 0.0
H680 H 0.96292 0.75021 0.41948 0.0
H681 H 0.93183 0.7484 0.39379 0.0
H682 H 0.88518 0.78435 0.42452 0.0
C683 C 0.8276 0.76479 0.36044 0.0
C684 C 0.87509 0.74093 0.37583 0.0
C685 C 0.81355 0.76794 0.33985 0.0
C686 C 0.9499 0.75424 0.42883 0.0
C687 C 0.9321 0.7531 0.41426 0.0
C688 C 0.88241 0.77196 0.41135 0.0
C689 C 0.84595 0.75752 0.35514 0.0
C690 C 0.86197 0.75636 0.37605 0.0
C691 C 0.91491 0.75824 0.42583 0.0
C692 C 0.89604 0.75703 0.41005 0.0
H693 H 0.83944 0.75305 0.28858 0.0
H694 H 0.86359 0.74736 0.32406 0.0
H695 H 0.8559 0.78385 0.39503 0.0
H696 H 0.93435 0.77051 0.48738 0.0
H697 H 0.90305 0.76871 0.46182 0.0
C698 C 0.26665 0.83918 0.29204 0.0
C699 C 0.27073 0.81964 0.29582 0.0
C700 C 0.27134 0.85297 0.31181 0.0
C701 C 0.27921 0.85968 0.38282 0.0
H702 H 0.29739 0.90972 0.36377 0.0
C703 C 0.26976 0.92863 0.4468 0.0
C704 C 0.28425 0.94281 0.4478 0.0
C705 C 0.27075 0.91235 0.4301 0.0
C706 C 0.2926 0.89578 0.36963 0.0
H707 H 0.28317 0.79923 0.32331 0.0
H708 H 0.29141 0.8236 0.35832 0.0
H709 H 0.29566 0.8833 0.33132 0.0
H710 H 0.3112 0.95092 0.43192 0.0
H711 H 0.31319 0.92236 0.40345 0.0
H712 H 0.2761 0.87225 0.42118 0.0
C713 C 0.2845 0.8281 0.33987 0.0
C714 C 0.29143 0.88067 0.35092 0.0
C715 C 0.27988 0.8142 0.31985 0.0
C716 C 0.29986 0.94021 0.43189 0.0
C717 C 0.30091 0.92391 0.41533 0.0
C718 C 0.28043 0.87483 0.40163 0.0
C719 C 0.28025 0.84764 0.33599 0.0
C720 C 0.28424 0.86261 0.35707 0.0
C721 C 0.2863 0.90984 0.41406 0.0
C722 C 0.28673 0.89318 0.39506 0.0
H723 H 0.25963 0.84392 0.27378 0.0
H724 H 0.26755 0.86782 0.30833 0.0
H725 H 0.27355 0.84594 0.38811 0.0
H726 H 0.25767 0.93002 0.45905 0.0
H727 H 0.2591 0.90195 0.42938 0.0
C728 C 0.20636 0.75924 0.69417 0.0
C729 C 0.22243 0.75224 0.68148 0.0
C730 C 0.18826 0.76061 0.6805 0.0
C731 C 0.16486 0.76352 0.61345 0.0
H732 H 0.11871 0.74924 0.64689 0.0
C733 C 0.08981 0.75769 0.55669 0.0
C734 C 0.07369 0.76383 0.5698 0.0
C735 C 0.10802 0.75675 0.57016 0.0
C736 C 0.13141 0.75354 0.63736 0.0
H737 H 0.23195 0.74122 0.64431 0.0
H738 H 0.20032 0.74338 0.62054 0.0
H739 H 0.15023 0.7463 0.67056 0.0
H740 H 0.06372 0.77387 0.60703 0.0
H741 H 0.09563 0.77264 0.63067 0.0
H742 H 0.14605 0.77082 0.58027 0.0
C743 C 0.20178 0.74797 0.64106 0.0
C744 C 0.14951 0.75182 0.65094 0.0
C745 C 0.21989 0.74652 0.65477 0.0
C746 C 0.07604 0.7692 0.59655 0.0
C747 C 0.09425 0.7683 0.61006 0.0
C748 C 0.14675 0.76529 0.59988 0.0
C749 C 0.18574 0.75507 0.65374 0.0
C750 C 0.16648 0.75678 0.63917 0.0
C751 C 0.11047 0.76192 0.59709 0.0
C752 C 0.12978 0.76031 0.61165 0.0
H753 H 0.2077 0.76357 0.71476 0.0
H754 H 0.17629 0.7663 0.69085 0.0
H755 H 0.17759 0.76776 0.60393 0.0
H756 H 0.08822 0.75333 0.53607 0.0
H757 H 0.12008 0.75152 0.5596 0.0
C758 C 0.2956 0.21021 0.73148 0.0
C759 C 0.29374 0.20869 0.75853 0.0
C760 C 0.29434 0.19388 0.71483 0.0
C761 C 0.27277 0.1466 0.70646 0.0
H762 H 0.31221 0.13685 0.65752 0.0
C763 C 0.27148 0.07932 0.63578 0.0
C764 C 0.2786 0.08161 0.61102 0.0
C765 C 0.2731 0.09433 0.65479 0.0
C766 C 0.30089 0.13949 0.67074 0.0
H767 H 0.28902 0.18904 0.78944 0.0
H768 H 0.28639 0.16029 0.76003 0.0
H769 H 0.31588 0.16385 0.68908 0.0
H770 H 0.29202 0.10147 0.58607 0.0
H771 H 0.29413 0.1279 0.61864 0.0
H772 H 0.25736 0.12272 0.68754 0.0
C773 C 0.289 0.17416 0.75189 0.0
C774 C 0.30311 0.15487 0.68895 0.0
C775 C 0.29064 0.19051 0.76867 0.0
C776 C 0.28666 0.09932 0.60518 0.0
C777 C 0.288 0.11438 0.62396 0.0
C778 C 0.27038 0.13134 0.68794 0.0
C779 C 0.29087 0.17575 0.72483 0.0
C780 C 0.28901 0.15866 0.7068 0.0
C781 C 0.28164 0.11197 0.64922 0.0
C782 C 0.28433 0.12772 0.66964 0.0
H783 H 0.29813 0.22406 0.72326 0.0
H784 H 0.29572 0.19547 0.69401 0.0
H785 H 0.26163 0.14936 0.71994 0.0
H786 H 0.26533 0.06571 0.64074 0.0
H787 H 0.26819 0.09187 0.67407 0.0
C788 C 0.83091 0.27967 0.6884 0.0
C789 C 0.82336 0.29785 0.69493 0.0
C790 C 0.84835 0.27806 0.67618 0.0
C791 C 0.89395 0.30294 0.66884 0.0
H792 H 0.89686 0.27166 0.60496 0.0
C793 C 0.96187 0.30398 0.60911 0.0
C794 C 0.96686 0.28741 0.59444 0.0
C795 C 0.94458 0.30487 0.6217 0.0
C796 C 0.89653 0.28018 0.62306 0.0
H797 H 0.82834 0.32855 0.69413 0.0
H798 H 0.85906 0.32575 0.67335 0.0
H799 H 0.86657 0.27365 0.62639 0.0
H800 H 0.95716 0.25861 0.58207 0.0
H801 H 0.92783 0.2597 0.60523 0.0
H802 H 0.92393 0.30903 0.6663 0.0
C803 C 0.85135 0.31276 0.67743 0.0
C804 C 0.87905 0.2814 0.63524 0.0
C805 C 0.83372 0.31438 0.68914 0.0
C806 C 0.95413 0.27158 0.59335 0.0
C807 C 0.93697 0.27235 0.60633 0.0
C808 C 0.91153 0.30145 0.65698 0.0
C809 C 0.85883 0.29459 0.67073 0.0
C810 C 0.87753 0.29292 0.65813 0.0
C811 C 0.93179 0.28908 0.62052 0.0
C812 C 0.9131 0.29018 0.63373 0.0
H813 H 0.82319 0.2667 0.69247 0.0
H814 H 0.8538 0.26387 0.67133 0.0
H815 H 0.89328 0.31175 0.68667 0.0
H816 H 0.97133 0.3164 0.611 0.0
H817 H 0.94116 0.31816 0.63201 0.0
C818 C 0.73612 0.81833 0.66469 0.0
C819 C 0.74789 0.8145 0.68744 0.0
C820 C 0.73801 0.83564 0.65184 0.0
C821 C 0.77218 0.87571 0.64502 0.0
H822 H 0.7264 0.90375 0.62093 0.0
C823 C 0.77583 0.95394 0.61093 0.0
C824 C 0.76359 0.95892 0.58914 0.0
C825 C 0.77394 0.9361 0.62237 0.0
C826 C 0.73935 0.89599 0.62724 0.0
H827 H 0.77059 0.82627 0.71479 0.0
H828 H 0.77394 0.85616 0.69239 0.0
H829 H 0.72302 0.87282 0.64131 0.0
H830 H 0.74012 0.94884 0.56186 0.0
H831 H 0.73689 0.91775 0.58169 0.0
H832 H 0.78852 0.89883 0.63097 0.0
C833 C 0.76348 0.84566 0.68418 0.0
C834 C 0.73739 0.87826 0.63891 0.0
C835 C 0.76156 0.82844 0.69703 0.0
C836 C 0.74953 0.9456 0.57895 0.0
C837 C 0.74768 0.92777 0.59032 0.0
C838 C 0.77414 0.89341 0.63329 0.0
C839 C 0.75175 0.84948 0.66144 0.0
C840 C 0.75379 0.86797 0.64809 0.0
C841 C 0.75983 0.9228 0.61221 0.0
C842 C 0.75775 0.90382 0.62438 0.0
H843 H 0.72559 0.80787 0.65661 0.0
H844 H 0.72888 0.83807 0.6342 0.0
H845 H 0.78511 0.86799 0.6515 0.0
H846 H 0.78666 0.96396 0.61942 0.0
H847 H 0.78336 0.93285 0.63944 0.0
C848 C 0.83158 0.76982 0.72883 0.0
C849 C 0.8182 0.75548 0.71984 0.0
C850 C 0.84965 0.77092 0.71798 0.0
C851 C 0.88352 0.742 0.67895 0.0
H852 H 0.90067 0.79108 0.65518 0.0
C853 C 0.93692 0.7469 0.59816 0.0
C854 C 0.95133 0.76122 0.60047 0.0
C855 C 0.92234 0.74661 0.61573 0.0
C856 C 0.89626 0.7773 0.66202 0.0
H857 H 0.81358 0.73071 0.69312 0.0
H858 H 0.84466 0.73257 0.67459 0.0
H859 H 0.87265 0.78979 0.68168 0.0
H860 H 0.96158 0.78643 0.62356 0.0
H861 H 0.93594 0.78603 0.65402 0.0
H862 H 0.90673 0.72941 0.65887 0.0
C863 C 0.84145 0.74296 0.68996 0.0
C864 C 0.88021 0.77656 0.67728 0.0
C865 C 0.82349 0.74199 0.7005 0.0
C866 C 0.95063 0.77531 0.62089 0.0
C867 C 0.93594 0.77508 0.63843 0.0
C868 C 0.89947 0.74272 0.66372 0.0
C869 C 0.85474 0.75752 0.69828 0.0
C870 C 0.87335 0.75883 0.68537 0.0
C871 C 0.92162 0.76068 0.63612 0.0
C872 C 0.90579 0.76031 0.6545 0.0
H873 H 0.82789 0.78048 0.74361 0.0
H874 H 0.8596 0.78228 0.72492 0.0
H875 H 0.8789 0.72813 0.68529 0.0
H876 H 0.93663 0.73606 0.58241 0.0
H877 H 0.91134 0.73554 0.61298 0.0
C878 C 0.26985 0.82479 0.68512 0.0
C879 C 0.27493 0.82338 0.71215 0.0
C880 C 0.26898 0.84259 0.6732 0.0
C881 C 0.28832 0.89218 0.67967 0.0
H882 H 0.25003 0.90064 0.62228 0.0
C883 C 0.28519 0.96272 0.61958 0.0
C884 C 0.28054 0.96058 0.5924 0.0
C885 C 0.28403 0.94696 0.636 0.0
C886 C 0.26099 0.8985 0.63805 0.0
H887 H 0.28276 0.83991 0.74798 0.0
H888 H 0.28125 0.8714 0.727 0.0
H889 H 0.24784 0.87222 0.64841 0.0
H890 H 0.27123 0.9403 0.56107 0.0
H891 H 0.26935 0.9128 0.58941 0.0
H892 H 0.30158 0.91845 0.66897 0.0
C893 C 0.27795 0.85849 0.71507 0.0
C894 C 0.25969 0.88215 0.65318 0.0
C895 C 0.27861 0.84049 0.72718 0.0
C896 C 0.27488 0.94234 0.58196 0.0
C897 C 0.27366 0.92663 0.59831 0.0
C898 C 0.28962 0.90862 0.66448 0.0
C899 C 0.27329 0.85974 0.68778 0.0
C900 C 0.27353 0.87849 0.6739 0.0
C901 C 0.27805 0.92868 0.62565 0.0
C902 C 0.27617 0.91184 0.64308 0.0
H903 H 0.26693 0.81195 0.67287 0.0
H904 H 0.2656 0.84277 0.65218 0.0
H905 H 0.29936 0.88983 0.69527 0.0
H906 H 0.28944 0.97667 0.62817 0.0
H907 H 0.28738 0.94923 0.6569 0.0
C908 C 0.22007 0.28242 0.73747 0.0
C909 C 0.23772 0.28495 0.72599 0.0
C910 C 0.20246 0.28304 0.72221 0.0
C911 C 0.18039 0.30057 0.6589 0.0
H912 H 0.13984 0.26392 0.66958 0.0
C913 C 0.11282 0.29174 0.58601 0.0
C914 C 0.09505 0.2877 0.59615 0.0
C915 C 0.12994 0.29188 0.60231 0.0
C916 C 0.15087 0.27446 0.66652 0.0
H917 H 0.25052 0.29011 0.68929 0.0
H918 H 0.21998 0.29113 0.66285 0.0
H919 H 0.16996 0.26328 0.69715 0.0
H920 H 0.08102 0.28102 0.63122 0.0
H921 H 0.11081 0.28155 0.65996 0.0
H922 H 0.16136 0.3118 0.62836 0.0
C923 C 0.21968 0.28886 0.6837 0.0
C924 C 0.16821 0.27407 0.68238 0.0
C925 C 0.23726 0.28815 0.69889 0.0
C926 C 0.09461 0.28407 0.62297 0.0
C927 C 0.11171 0.28425 0.63933 0.0
C928 C 0.16305 0.301 0.64312 0.0
C929 C 0.20201 0.28633 0.6951 0.0
C930 C 0.18327 0.28705 0.6787 0.0
C931 C 0.12968 0.28807 0.62924 0.0
C932 C 0.14805 0.28789 0.64656 0.0
H933 H 0.21983 0.27995 0.75826 0.0
H934 H 0.18916 0.28121 0.73176 0.0
H935 H 0.1915 0.31101 0.65575 0.0
H936 H 0.11348 0.29452 0.56534 0.0
H937 H 0.14343 0.29462 0.59365 0.0
C938 C 0.77572 0.21329 0.73276 0.0
C939 C 0.76886 0.22936 0.71887 0.0
C940 C 0.77724 0.19511 0.71974 0.0
C941 C 0.78064 0.17314 0.6524 0.0
H942 H 0.76108 0.12642 0.68025 0.0
C943 C 0.76571 0.10541 0.58541 0.0
C944 C 0.77003 0.08727 0.5955 0.0
C945 C 0.76646 0.12199 0.60193 0.0
C946 C 0.76684 0.13927 0.67226 0.0
H947 H 0.7584 0.2386 0.68019 0.0
H948 H 0.76107 0.20762 0.65814 0.0
H949 H 0.7618 0.15639 0.70705 0.0
H950 H 0.77806 0.07215 0.63089 0.0
H951 H 0.77956 0.1011 0.65989 0.0
H952 H 0.78561 0.15632 0.61766 0.0
C953 C 0.76543 0.20884 0.67891 0.0
C954 C 0.76728 0.15648 0.68771 0.0
C955 C 0.76376 0.22673 0.69179 0.0
C956 C 0.77472 0.086 0.62261 0.0
C957 C 0.77548 0.10259 0.63921 0.0
C958 C 0.78023 0.15604 0.63705 0.0
C959 C 0.77224 0.19272 0.69252 0.0
C960 C 0.77382 0.17377 0.67776 0.0
C961 C 0.77155 0.12091 0.62909 0.0
C962 C 0.77297 0.13888 0.64645 0.0
H963 H 0.77974 0.21472 0.75361 0.0
H964 H 0.78257 0.183 0.73087 0.0
H965 H 0.78618 0.18603 0.64421 0.0
H966 H 0.76194 0.10679 0.56461 0.0
H967 H 0.76294 0.13569 0.59336 0.0
C968 C 0.85596 0.2834 0.32726 0.0
C969 C 0.85729 0.27523 0.30182 0.0
C970 C 0.8721 0.28432 0.34535 0.0
C971 C 0.92082 0.26297 0.35967 0.0
H972 H 0.92826 0.30773 0.40668 0.0
C973 C 0.99069 0.2746 0.428 0.0
C974 C 0.98851 0.28204 0.45353 0.0
C975 C 0.97492 0.27386 0.40925 0.0
C976 C 0.92633 0.29501 0.39391 0.0
H977 H 0.87699 0.2615 0.27584 0.0
H978 H 0.90514 0.26345 0.30711 0.0
H979 H 0.90062 0.3063 0.37456 0.0
H980 H 0.96832 0.29465 0.47952 0.0
H981 H 0.94071 0.29336 0.44692 0.0
H982 H 0.9466 0.25173 0.37904 0.0
C983 C 0.89149 0.26896 0.31319 0.0
C984 C 0.91041 0.29418 0.37543 0.0
C985 C 0.87533 0.26804 0.29507 0.0
C986 C 0.97034 0.28888 0.45992 0.0
C987 C 0.95458 0.28822 0.44118 0.0
C988 C 0.93677 0.26383 0.37813 0.0
C989 C 0.89013 0.27712 0.33862 0.0
C990 C 0.90735 0.27812 0.35808 0.0
C991 C 0.95662 0.28065 0.41556 0.0
C992 C 0.93973 0.27983 0.39559 0.0
H993 H 0.84248 0.28931 0.33327 0.0
H994 H 0.87034 0.29049 0.36479 0.0
H995 H 0.91886 0.25023 0.34698 0.0
H996 H 1.00462 0.26937 0.42259 0.0
H997 H 0.97715 0.26818 0.38969 0.0
C998 C 0.79087 0.87329 0.30003 0.0
C999 C 0.78247 0.8552 0.3038 0.0
C1000 C 0.78946 0.88861 0.31844 0.0
C1001 C 0.76152 0.90564 0.37517 0.0
H1002 H 0.80396 0.94179 0.38723 0.0
C1003 C 0.76443 0.96469 0.45952 0.0
C1004 C 0.77178 0.98286 0.45413 0.0
C1005 C 0.76532 0.94916 0.44127 0.0
C1006 C 0.79186 0.93198 0.38394 0.0
H1007 H 0.76592 0.83952 0.3307 0.0
H1008 H 0.76396 0.86589 0.36289 0.0
H1009 H 0.80659 0.91477 0.35609 0.0
H1010 H 0.78541 0.99912 0.42514 0.0
H1011 H 0.78706 0.97212 0.39326 0.0
H1012 H 0.74692 0.92282 0.40336 0.0
C1013 C 0.77138 0.86835 0.34535 0.0
C1014 C 0.79334 0.9164 0.36595 0.0
C1015 C 0.77273 0.85302 0.32687 0.0
C1016 C 0.77978 0.98524 0.4299 0.0
C1017 C 0.7808 0.9697 0.41172 0.0
C1018 C 0.76009 0.92117 0.3933 0.0
C1019 C 0.77969 0.88645 0.34145 0.0
C1020 C 0.77817 0.90297 0.36112 0.0
C1021 C 0.77368 0.95137 0.41715 0.0
C1022 C 0.7752 0.93465 0.3979 0.0
H1023 H 0.79868 0.87574 0.28286 0.0
H1024 H 0.79585 0.90229 0.31434 0.0
H1025 H 0.74935 0.89591 0.37184 0.0
H1026 H 0.75822 0.96245 0.47807 0.0
H1027 H 0.75983 0.9353 0.44633 0.0
C1028 C 0.17146 0.78315 0.27315 0.0
C1029 C 0.18871 0.77264 0.27695 0.0
C1030 C 0.15693 0.78196 0.29079 0.0
C1031 C 0.13878 0.75122 0.34177 0.0
H1032 H 0.11289 0.79773 0.36413 0.0
C1033 C 0.08756 0.7521 0.42687 0.0
C1034 C 0.07119 0.76403 0.42504 0.0
C1035 C 0.1016 0.75295 0.40848 0.0
C1036 C 0.11974 0.78453 0.35786 0.0
H1037 H 0.20388 0.75231 0.30218 0.0
H1038 H 0.17866 0.75035 0.33294 0.0
H1039 H 0.13762 0.79952 0.33266 0.0
H1040 H 0.0566 0.78593 0.40186 0.0
H1041 H 0.08086 0.78726 0.36966 0.0
H1042 H 0.12085 0.73617 0.36678 0.0
C1043 C 0.17634 0.75948 0.31626 0.0
C1044 C 0.13398 0.78558 0.33979 0.0
C1045 C 0.19092 0.76077 0.29874 0.0
C1046 C 0.06915 0.77672 0.40414 0.0
C1047 C 0.08313 0.77751 0.38567 0.0
C1048 C 0.12447 0.75015 0.35974 0.0
C1049 C 0.15917 0.77012 0.3126 0.0
C1050 C 0.14375 0.76895 0.33156 0.0
C1051 C 0.09963 0.76571 0.38762 0.0
C1052 C 0.11476 0.7668 0.36814 0.0
H1053 H 0.1693 0.79254 0.25675 0.0
H1054 H 0.14384 0.79022 0.2872 0.0
H1055 H 0.14579 0.73807 0.3356 0.0
H1056 H 0.08978 0.74236 0.44291 0.0
H1057 H 0.11422 0.74386 0.41098 0.0
C1058 C 0.27467 0.16955 0.30516 0.0
C1059 C 0.27139 0.18883 0.31307 0.0
C1060 C 0.27618 0.15494 0.32351 0.0
C1061 C 0.26352 0.14279 0.39077 0.0
H1062 H 0.30136 0.10231 0.38338 0.0
C1063 C 0.27608 0.08441 0.46944 0.0
C1064 C 0.28064 0.06564 0.46093 0.0
C1065 C 0.27538 0.09961 0.45192 0.0
C1066 C 0.2905 0.1133 0.38565 0.0
H1067 H 0.26703 0.20757 0.34691 0.0
H1068 H 0.2697 0.18213 0.3789 0.0
H1069 H 0.29928 0.12818 0.35232 0.0
H1070 H 0.28791 0.048 0.42741 0.0
H1071 H 0.2864 0.07428 0.39663 0.0
H1072 H 0.25452 0.12781 0.42384 0.0
C1073 C 0.27104 0.17831 0.35837 0.0
C1074 C 0.28933 0.12825 0.36775 0.0
C1075 C 0.26968 0.19299 0.34001 0.0
C1076 C 0.28451 0.06237 0.43452 0.0
C1077 C 0.28373 0.07753 0.41694 0.0
C1078 C 0.2646 0.12777 0.40859 0.0
C1079 C 0.27434 0.15903 0.35043 0.0
C1080 C 0.2758 0.14323 0.36995 0.0
C1081 C 0.27912 0.09646 0.42529 0.0
C1082 C 0.27808 0.11271 0.40634 0.0
H1083 H 0.27628 0.16571 0.28473 0.0
H1084 H 0.27852 0.14031 0.31647 0.0
H1085 H 0.25272 0.15385 0.39299 0.0
H1086 H 0.27303 0.08732 0.48972 0.0
H1087 H 0.27208 0.1139 0.45941 0.0
C1088 C 0.7202 0.79941 0.81738 0.0
C1089 C 0.73336 0.78413 0.81517 0.0
C1090 C 0.7063 0.79927 0.83597 0.0
C1091 C 0.67976 0.76544 0.8751 0.0
H1092 H 0.66199 0.81237 0.90874 0.0
C1093 C 0.62045 0.76559 0.95024 0.0
C1094 C 0.60652 0.7803 0.94841 0.0
C1095 C 0.63679 0.766 0.93555 0.0
C1096 C 0.66665 0.79913 0.89934 0.0
H1097 H 0.74262 0.75707 0.83176 0.0
H1098 H 0.71858 0.75699 0.86451 0.0
H1099 H 0.68945 0.81348 0.88156 0.0
H1100 H 0.59886 0.80679 0.929 0.0
H1101 H 0.62726 0.80755 0.90363 0.0
H1102 H 0.65685 0.75113 0.89278 0.0
C1103 C 0.7188 0.76895 0.85149 0.0
C1104 C 0.68245 0.79977 0.88373 0.0
C1105 C 0.73275 0.76909 0.83286 0.0
C1106 C 0.6094 0.79539 0.93139 0.0
C1107 C 0.62574 0.79583 0.91678 0.0
C1108 C 0.66398 0.7648 0.89078 0.0
C1109 C 0.70512 0.78385 0.85296 0.0
C1110 C 0.68912 0.78297 0.87113 0.0
C1111 C 0.63969 0.78117 0.91867 0.0
C1112 C 0.65706 0.78167 0.90289 0.0
H1113 H 0.72016 0.81122 0.80409 0.0
H1114 H 0.69594 0.81092 0.83624 0.0
H1115 H 0.68423 0.75224 0.86543 0.0
H1116 H 0.61893 0.75387 0.96338 0.0
H1117 H 0.64732 0.75457 0.93776 0.0
C1118 C 0.26258 0.7313 0.82652 0.0
C1119 C 0.27714 0.72902 0.80877 0.0
C1120 C 0.26007 0.7174 0.84563 0.0
C1121 C 0.27148 0.66572 0.85759 0.0
H1122 H 0.26012 0.67708 0.92968 0.0
C1123 C 0.27942 0.60745 0.9355 0.0
C1124 C 0.26577 0.6065 0.95458 0.0
C1125 C 0.27964 0.62294 0.9186 0.0
C1126 C 0.26308 0.67361 0.90952 0.0
H1127 H 0.30119 0.71094 0.79858 0.0
H1128 H 0.29707 0.68741 0.83148 0.0
H1129 H 0.26236 0.7034 0.89919 0.0
H1130 H 0.24176 0.62167 0.97081 0.0
H1131 H 0.24202 0.64856 0.94113 0.0
H1132 H 0.27232 0.6361 0.86763 0.0
C1133 C 0.28713 0.69942 0.83037 0.0
C1134 C 0.26435 0.68875 0.89201 0.0
C1135 C 0.28957 0.71309 0.81148 0.0
C1136 C 0.25239 0.6217 0.95626 0.0
C1137 C 0.25267 0.63729 0.93937 0.0
C1138 C 0.27024 0.65069 0.87498 0.0
C1139 C 0.27206 0.70097 0.84733 0.0
C1140 C 0.26896 0.68505 0.86587 0.0
C1141 C 0.26622 0.63809 0.92012 0.0
C1142 C 0.26637 0.65435 0.90137 0.0
H1143 H 0.25274 0.74336 0.82502 0.0
H1144 H 0.24834 0.71916 0.85841 0.0
H1145 H 0.27451 0.66213 0.83748 0.0
H1146 H 0.28984 0.59602 0.93326 0.0
H1147 H 0.2905 0.62306 0.90438 0.0
C1148 C 0.34705 0.2799 0.79668 0.0
C1149 C 0.32992 0.28965 0.80184 0.0
C1150 C 0.36051 0.27517 0.81713 0.0
C1151 C 0.37676 0.29222 0.88453 0.0
H1152 H 0.41086 0.24816 0.88149 0.0
C1153 C 0.43899 0.27988 0.96456 0.0
C1154 C 0.45667 0.2734 0.95576 0.0
C1155 C 0.42241 0.28043 0.94723 0.0
C1156 C 0.40157 0.26064 0.88256 0.0
H1157 H 0.3135 0.30201 0.83264 0.0
H1158 H 0.33656 0.29314 0.8686 0.0
H1159 H 0.38321 0.25038 0.84956 0.0
H1160 H 0.47094 0.26244 0.92205 0.0
H1161 H 0.44208 0.2634 0.89166 0.0
H1162 H 0.39527 0.30258 0.91733 0.0
C1163 C 0.33966 0.28914 0.84865 0.0
C1164 C 0.38564 0.2619 0.86423 0.0
C1165 C 0.32614 0.29384 0.82807 0.0
C1166 C 0.45745 0.26741 0.92932 0.0
C1167 C 0.44087 0.26787 0.912 0.0
C1168 C 0.39266 0.29093 0.90291 0.0
C1169 C 0.35734 0.28027 0.8434 0.0
C1170 C 0.37313 0.27786 0.86466 0.0
C1171 C 0.42309 0.27442 0.92067 0.0
C1172 C 0.40548 0.27526 0.90197 0.0
H1173 H 0.35053 0.27686 0.7766 0.0
H1174 H 0.37396 0.26858 0.81211 0.0
H1175 H 0.36773 0.3049 0.88533 0.0
H1176 H 0.43802 0.2845 0.98491 0.0
H1177 H 0.40899 0.28537 0.95474 0.0
C1178 C 0.77904 0.34717 0.81207 0.0
C1179 C 0.77927 0.32743 0.81742 0.0
C1180 C 0.78044 0.36125 0.83225 0.0
C1181 C 0.7949 0.37256 0.90182 0.0
H1182 H 0.75753 0.41361 0.89187 0.0
C1183 C 0.78758 0.43622 0.97899 0.0
C1184 C 0.78312 0.45447 0.96921 0.0
C1185 C 0.78739 0.41981 0.96204 0.0
C1186 C 0.76828 0.40248 0.89493 0.0
H1187 H 0.78225 0.30714 0.84867 0.0
H1188 H 0.78494 0.33207 0.88446 0.0
H1189 H 0.75736 0.3866 0.86043 0.0
H1190 H 0.77526 0.46993 0.93411 0.0
H1191 H 0.77522 0.4416 0.90444 0.0
H1192 H 0.80606 0.38875 0.93617 0.0
C1193 C 0.78354 0.33647 0.86428 0.0
C1194 C 0.76811 0.38685 0.87686 0.0
C1195 C 0.78206 0.32218 0.84381 0.0
C1196 C 0.77862 0.45601 0.94216 0.0
C1197 C 0.77848 0.43968 0.92522 0.0
C1198 C 0.79516 0.38836 0.91994 0.0
C1199 C 0.78215 0.35621 0.85868 0.0
C1200 C 0.7816 0.37181 0.87972 0.0
C1201 C 0.78272 0.42125 0.93485 0.0
C1202 C 0.78204 0.40375 0.91651 0.0
H1203 H 0.77724 0.35188 0.79204 0.0
H1204 H 0.77984 0.37623 0.82707 0.0
H1205 H 0.80554 0.36129 0.90462 0.0
H1206 H 0.79107 0.43465 0.99981 0.0
H1207 H 0.79056 0.40596 0.97037 0.0
C1208 C 0.71446 0.27809 0.19347 0.0
C1209 C 0.72534 0.26103 0.19234 0.0
C1210 C 0.69634 0.2794 0.17965 0.0
C1211 C 0.65596 0.24951 0.14901 0.0
H1212 H 0.64168 0.29596 0.11254 0.0
C1213 C 0.57828 0.262 0.10298 0.0
C1214 C 0.57654 0.26997 0.07803 0.0
C1215 C 0.59629 0.26121 0.11716 0.0
C1216 C 0.64545 0.28284 0.1225 0.0
H1217 H 0.72541 0.2319 0.17582 0.0
H1218 H 0.69395 0.2342 0.15167 0.0
H1219 H 0.67333 0.29382 0.13636 0.0
H1220 H 0.5921 0.2837 0.04852 0.0
H1221 H 0.62362 0.28246 0.07325 0.0
H1222 H 0.62817 0.23845 0.13495 0.0
C1223 C 0.69938 0.24657 0.16336 0.0
C1224 C 0.66356 0.28168 0.13641 0.0
C1225 C 0.71756 0.24531 0.17702 0.0
C1226 C 0.59309 0.27749 0.06774 0.0
C1227 C 0.6111 0.27683 0.08197 0.0
C1228 C 0.6378 0.25072 0.13527 0.0
C1229 C 0.68851 0.26364 0.16444 0.0
C1230 C 0.6691 0.26498 0.1498 0.0
C1231 C 0.61299 0.26855 0.10682 0.0
C1232 C 0.6323 0.26738 0.12175 0.0
H1233 H 0.72003 0.29056 0.20481 0.0
H1234 H 0.68835 0.29273 0.18115 0.0
H1235 H 0.65961 0.23649 0.15927 0.0
H1236 H 0.56568 0.25627 0.11143 0.0
H1237 H 0.59711 0.25499 0.13636 0.0
C1238 C 0.79438 0.72477 0.16171 0.0
C1239 C 0.78838 0.72721 0.18743 0.0
C1240 C 0.79344 0.70671 0.1485 0.0
C1241 C 0.78969 0.65398 0.1598 0.0
H1242 H 0.77633 0.65073 0.08482 0.0
C1243 C 0.77662 0.58049 0.10295 0.0
C1244 C 0.78329 0.57849 0.07764 0.0
C1245 C 0.77699 0.59849 0.11637 0.0
C1246 C 0.78031 0.65132 0.10571 0.0
H1247 H 0.7767 0.712 0.2192 0.0
H1248 H 0.77471 0.68075 0.19608 0.0
H1249 H 0.77726 0.682 0.10791 0.0
H1250 H 0.79566 0.59368 0.0466 0.0
H1251 H 0.7965 0.62508 0.06994 0.0
H1252 H 0.79271 0.62328 0.15756 0.0
C1253 C 0.7804 0.69282 0.18618 0.0
C1254 C 0.78086 0.66936 0.11903 0.0
C1255 C 0.78132 0.71091 0.19941 0.0
C1256 C 0.79036 0.59486 0.06605 0.0
C1257 C 0.79071 0.61287 0.07942 0.0
C1258 C 0.78912 0.63594 0.14647 0.0
C1259 C 0.78646 0.6904 0.16049 0.0
C1260 C 0.78561 0.67102 0.14631 0.0
C1261 C 0.78404 0.615 0.10483 0.0
C1262 C 0.78447 0.6343 0.11918 0.0
H1263 H 0.79972 0.73686 0.15156 0.0
H1264 H 0.79849 0.70552 0.12892 0.0
H1265 H 0.79372 0.65457 0.18068 0.0
H1266 H 0.77113 0.56809 0.11234 0.0
H1267 H 0.77151 0.59949 0.13571 0.0
C1268 C 0.32017 0.76945 0.16864 0.0
C1269 C 0.31162 0.78741 0.1737 0.0
C1270 C 0.33766 0.76824 0.15651 0.0
C1271 C 0.38188 0.79494 0.14781 0.0
H1272 H 0.38709 0.76157 0.08637 0.0
C1273 C 0.45043 0.79711 0.08962 0.0
C1274 C 0.45649 0.78035 0.07627 0.0
C1275 C 0.43291 0.79759 0.10166 0.0
C1276 C 0.38612 0.77071 0.10381 0.0
H1277 H 0.31482 0.81818 0.1703 0.0
H1278 H 0.34567 0.81611 0.1497 0.0
H1279 H 0.35647 0.76288 0.10707 0.0
H1280 H 0.44846 0.75075 0.0657 0.0
H1281 H 0.4187 0.75122 0.08799 0.0
H1282 H 0.41157 0.80233 0.14544 0.0
C1283 C 0.33869 0.80296 0.15485 0.0
C1284 C 0.36845 0.77153 0.11555 0.0
C1285 C 0.32099 0.80415 0.16645 0.0
C1286 C 0.44458 0.76392 0.07596 0.0
C1287 C 0.42719 0.7643 0.08843 0.0
C1288 C 0.39966 0.79385 0.13642 0.0
C1289 C 0.34721 0.785 0.14971 0.0
C1290 C 0.36609 0.78379 0.13753 0.0
C1291 C 0.42095 0.7812 0.1013 0.0
C1292 C 0.40206 0.78185 0.11405 0.0
H1293 H 0.31321 0.75632 0.17387 0.0
H1294 H 0.34392 0.75421 0.15288 0.0
H1295 H 0.38057 0.80433 0.16496 0.0
H1296 H 0.45923 0.81 0.0909 0.0
H1297 H 0.42867 0.81102 0.11092 0.0
C1298 C 0.25835 0.31282 0.17127 0.0
C1299 C 0.26125 0.3123 0.19879 0.0
C1300 C 0.25891 0.33029 0.1583 0.0
C1301 C 0.27426 0.3822 0.1682 0.0
H1302 H 0.24224 0.38798 0.10376 0.0
C1303 C 0.28057 0.44965 0.10468 0.0
C1304 C 0.264 0.45643 0.09031 0.0
C1305 C 0.28025 0.43226 0.1179 0.0
C1306 C 0.25115 0.38684 0.12189 0.0
H1307 H 0.26678 0.33005 0.23417 0.0
H1308 H 0.26723 0.36048 0.21184 0.0
H1309 H 0.24119 0.35817 0.12693 0.0
H1310 H 0.23402 0.44956 0.07882 0.0
H1311 H 0.23322 0.42001 0.10267 0.0
H1312 H 0.28358 0.41119 0.16374 0.0
C1313 C 0.26505 0.34735 0.20002 0.0
C1314 C 0.25079 0.36944 0.13507 0.0
C1315 C 0.26473 0.32982 0.21296 0.0
C1316 C 0.24706 0.44519 0.08986 0.0
C1317 C 0.24669 0.42789 0.1033 0.0
C1318 C 0.27447 0.39968 0.15515 0.0
C1319 C 0.26214 0.34793 0.17242 0.0
C1320 C 0.2624 0.36673 0.15843 0.0
C1321 C 0.2633 0.42104 0.11751 0.0
C1322 C 0.26296 0.40233 0.13168 0.0
H1323 H 0.25593 0.29963 0.15964 0.0
H1324 H 0.25704 0.32984 0.13708 0.0
H1325 H 0.28365 0.38081 0.18585 0.0
H1326 H 0.29387 0.45785 0.106 0.0
H1327 H 0.29348 0.42754 0.12818 0.0
C1328 C 0.34207 0.27026 0.24605 0.0
C1329 C 0.33041 0.25392 0.2402 0.0
C1330 C 0.35953 0.27246 0.23395 0.0
C1331 C 0.39519 0.24501 0.19544 0.0
H1332 H 0.40499 0.29413 0.16516 0.0
C1333 C 0.44348 0.25187 0.10886 0.0
C1334 C 0.45639 0.2675 0.10902 0.0
C1335 C 0.42985 0.25083 0.12773 0.0
C1336 C 0.40262 0.28038 0.17377 0.0
H1337 H 0.32841 0.22674 0.21804 0.0
H1338 H 0.3584 0.2305 0.19724 0.0
H1339 H 0.37869 0.29116 0.1943 0.0
H1340 H 0.46493 0.29428 0.12974 0.0
H1341 H 0.44085 0.2926 0.16229 0.0
H1342 H 0.41867 0.23407 0.17431 0.0
C1343 C 0.35435 0.24163 0.21115 0.0
C1344 C 0.38757 0.27869 0.19058 0.0
C1345 C 0.337 0.23953 0.223 0.0
C1346 C 0.45511 0.28214 0.12862 0.0
C1347 C 0.44133 0.28117 0.1474 0.0
C1348 C 0.41011 0.24667 0.17857 0.0
C1349 C 0.36575 0.25825 0.21603 0.0
C1350 C 0.38336 0.26085 0.20116 0.0
C1351 C 0.42857 0.26545 0.14725 0.0
C1352 C 0.41377 0.26426 0.16705 0.0
H1353 H 0.33733 0.28166 0.25907 0.0
H1354 H 0.36802 0.28538 0.23834 0.0
H1355 H 0.3927 0.23115 0.20366 0.0
H1356 H 0.44361 0.24051 0.09383 0.0
H1357 H 0.42002 0.23868 0.12669 0.0
C1358 C 0.78346 0.34609 0.25849 0.0
C1359 C 0.77302 0.33165 0.24383 0.0
C1360 C 0.78231 0.36523 0.25069 0.0
C1361 C 0.75462 0.39865 0.20734 0.0
H1362 H 0.80472 0.41812 0.19157 0.0
C1363 C 0.76331 0.44865 0.12244 0.0
C1364 C 0.77774 0.46291 0.12436 0.0
C1365 C 0.76187 0.43561 0.14237 0.0
C1366 C 0.79062 0.4132 0.19632 0.0
H1367 H 0.75242 0.32569 0.2108 0.0
H1368 H 0.74987 0.35902 0.19771 0.0
H1369 H 0.80278 0.39029 0.21908 0.0
H1370 H 0.80181 0.47481 0.14903 0.0
H1371 H 0.79927 0.45193 0.18402 0.0
H1372 H 0.74239 0.42114 0.18399 0.0
C1373 C 0.75898 0.35576 0.21508 0.0
C1374 C 0.78952 0.39725 0.21214 0.0
C1375 C 0.76044 0.33669 0.22252 0.0
C1376 C 0.79065 0.46387 0.14685 0.0
C1377 C 0.78918 0.45079 0.1669 0.0
C1378 C 0.7557 0.41466 0.19171 0.0
C1379 C 0.77041 0.37013 0.22847 0.0
C1380 C 0.7715 0.38939 0.21699 0.0
C1381 C 0.77478 0.43645 0.16485 0.0
C1382 C 0.77371 0.42167 0.18514 0.0
H1383 H 0.79348 0.3424 0.27475 0.0
H1384 H 0.79127 0.37605 0.26134 0.0
H1385 H 0.74054 0.39302 0.21102 0.0
H1386 H 0.75338 0.44724 0.10517 0.0
H1387 H 0.75092 0.42448 0.13973 0.0
C1388 C 0.70651 0.77902 0.23197 0.0
C1389 C 0.72095 0.79011 0.22163 0.0
C1390 C 0.68761 0.77867 0.21999 0.0
C1391 C 0.65533 0.80546 0.17212 0.0
H1392 H 0.62881 0.75664 0.15915 0.0
C1393 C 0.59842 0.79214 0.08629 0.0
C1394 C 0.58105 0.78324 0.09166 0.0
C1395 C 0.61382 0.79342 0.10542 0.0
C1396 C 0.63595 0.77041 0.16292 0.0
H1397 H 0.72666 0.80975 0.19089 0.0
H1398 H 0.69442 0.80888 0.17017 0.0
H1399 H 0.65868 0.75823 0.18772 0.0
H1400 H 0.56598 0.76891 0.1212 0.0
H1401 H 0.59328 0.77059 0.1546 0.0
H1402 H 0.63317 0.81744 0.14634 0.0
C1403 C 0.69732 0.80069 0.18767 0.0
C1404 C 0.65301 0.77135 0.17938 0.0
C1405 C 0.71599 0.80104 0.19951 0.0
C1406 C 0.57934 0.77566 0.11656 0.0
C1407 C 0.5949 0.77662 0.13559 0.0
C1408 C 0.6385 0.80446 0.15548 0.0
C1409 C 0.68283 0.7895 0.1976 0.0
C1410 C 0.66321 0.78881 0.18359 0.0
C1411 C 0.61227 0.7856 0.13023 0.0
C1412 C 0.62888 0.78686 0.1502 0.0
H1413 H 0.70987 0.7704 0.24895 0.0
H1414 H 0.67678 0.76993 0.22823 0.0
H1415 H 0.66247 0.81927 0.17546 0.0
H1416 H 0.60007 0.79806 0.06722 0.0
H1417 H 0.62709 0.80028 0.10067 0.0
C1418 C 0.27 0.70308 0.23369 0.0
C1419 C 0.27004 0.71788 0.21565 0.0
C1420 C 0.27455 0.68418 0.22578 0.0
C1421 C 0.298 0.65572 0.1746 0.0
H1422 H 0.25648 0.61885 0.17851 0.0
C1423 C 0.28307 0.59609 0.09646 0.0
C1424 C 0.27624 0.57819 0.10355 0.0
C1425 C 0.28575 0.61108 0.1152 0.0
C1426 C 0.26845 0.62876 0.17774 0.0
H1427 H 0.2759 0.72499 0.17599 0.0
H1428 H 0.28425 0.69237 0.16247 0.0
H1429 H 0.25595 0.64922 0.20395 0.0
H1430 H 0.26718 0.56151 0.1355 0.0
H1431 H 0.27184 0.58788 0.16864 0.0
H1432 H 0.31016 0.6357 0.14766 0.0
C1433 C 0.28058 0.69514 0.18253 0.0
C1434 C 0.26815 0.64614 0.19236 0.0
C1435 C 0.27564 0.71378 0.1902 0.0
C1436 C 0.2724 0.57532 0.12974 0.0
C1437 C 0.27503 0.59037 0.14857 0.0
C1438 C 0.29837 0.63835 0.16014 0.0
C1439 C 0.27971 0.68007 0.20001 0.0
C1440 C 0.2825 0.66009 0.19004 0.0
C1441 C 0.28164 0.60847 0.14145 0.0
C1442 C 0.28318 0.62503 0.16065 0.0
H1443 H 0.26565 0.70596 0.25341 0.0
H1444 H 0.27375 0.67276 0.23957 0.0
H1445 H 0.30936 0.66617 0.17272 0.0
H1446 H 0.28602 0.59855 0.07628 0.0
H1447 H 0.29048 0.62492 0.1089 0.0
C1448 C 0.37302 0.77156 0.77692 0.0
C1449 C 0.35469 0.76709 0.78526 0.0
C1450 C 0.38924 0.77241 0.79485 0.0
C1451 C 0.40718 0.75637 0.86069 0.0
H1452 H 0.44429 0.79778 0.85771 0.0
C1453 C 0.46542 0.77232 0.94477 0.0
C1454 C 0.48397 0.77718 0.93789 0.0
C1455 C 0.45004 0.77096 0.92562 0.0
C1456 C 0.43419 0.78599 0.85863 0.0
H1457 H 0.33927 0.75955 0.819 0.0
H1458 H 0.36736 0.76137 0.85018 0.0
H1459 H 0.41691 0.79536 0.82508 0.0
H1460 H 0.50123 0.78431 0.90592 0.0
H1461 H 0.47432 0.78189 0.87218 0.0
H1462 H 0.42437 0.74704 0.89428 0.0
C1463 C 0.36926 0.7641 0.82976 0.0
C1464 C 0.41849 0.78459 0.8399 0.0
C1465 C 0.35307 0.76329 0.8119 0.0
C1466 C 0.48695 0.7807 0.9116 0.0
C1467 C 0.47155 0.77937 0.89239 0.0
C1468 C 0.42286 0.75777 0.8794 0.0
C1469 C 0.38756 0.76872 0.82152 0.0
C1470 C 0.4047 0.76984 0.84081 0.0
C1471 C 0.4529 0.7744 0.89915 0.0
C1472 C 0.43649 0.77268 0.87875 0.0
H1473 H 0.37479 0.7747 0.75662 0.0
H1474 H 0.40315 0.77583 0.78776 0.0
H1475 H 0.39706 0.74461 0.86172 0.0
H1476 H 0.46288 0.76955 0.965 0.0
H1477 H 0.43584 0.76737 0.9316 0.0
C1478 C 0.26993 0.33128 0.89558 0.0
C1479 C 0.26586 0.32931 0.86827 0.0
C1480 C 0.26718 0.34891 0.90876 0.0
C1481 C 0.24233 0.39581 0.90229 0.0
H1482 H 0.28323 0.41401 0.95262 0.0
C1483 C 0.24975 0.4752 0.9387 0.0
C1484 C 0.25586 0.47876 0.96512 0.0
C1485 C 0.24929 0.45638 0.92815 0.0
C1486 C 0.27153 0.40903 0.93893 0.0
H1487 H 0.25504 0.34414 0.83359 0.0
H1488 H 0.25062 0.37493 0.85643 0.0
H1489 H 0.28538 0.38202 0.93211 0.0
H1490 H 0.26601 0.46596 1.00153 0.0
H1491 H 0.26501 0.43293 0.98328 0.0
H1492 H 0.22862 0.42298 0.90886 0.0
C1493 C 0.25581 0.36283 0.86771 0.0
C1494 C 0.27276 0.39069 0.92718 0.0
C1495 C 0.2586 0.34524 0.85455 0.0
C1496 C 0.26123 0.46337 0.98105 0.0
C1497 C 0.26076 0.44457 0.97056 0.0
C1498 C 0.24108 0.41417 0.91406 0.0
C1499 C 0.26024 0.36492 0.89492 0.0
C1500 C 0.25827 0.38394 0.90855 0.0
C1501 C 0.25501 0.44088 0.94391 0.0
C1502 C 0.25576 0.42104 0.93234 0.0
H1503 H 0.27565 0.31933 0.90669 0.0
H1504 H 0.27055 0.35003 0.92978 0.0
H1505 H 0.23079 0.39091 0.88828 0.0
H1506 H 0.24576 0.48702 0.92614 0.0
H1507 H 0.24504 0.45404 0.90748 0.0
C1508 C 0.69756 0.27115 0.81058 0.0
C1509 C 0.69704 0.28512 0.79125 0.0
C1510 C 0.68257 0.26967 0.8274 0.0
C1511 C 0.63137 0.28391 0.83511 0.0
H1512 H 0.644 0.27202 0.90791 0.0
C1513 C 0.57544 0.28948 0.91456 0.0
C1514 C 0.57562 0.27494 0.93308 0.0
C1515 C 0.58993 0.29045 0.89685 0.0
C1516 C 0.64018 0.27514 0.88758 0.0
H1517 H 0.68021 0.30858 0.77471 0.0
H1518 H 0.65418 0.30619 0.80416 0.0
H1519 H 0.66971 0.27435 0.87804 0.0
H1520 H 0.59136 0.25005 0.94745 0.0
H1521 H 0.61651 0.25163 0.91647 0.0
H1522 H 0.60182 0.28491 0.84485 0.0
C1523 C 0.66604 0.29609 0.80603 0.0
C1524 C 0.65495 0.27646 0.87038 0.0
C1525 C 0.68101 0.2975 0.7891 0.0
C1526 C 0.59064 0.26133 0.93332 0.0
C1527 C 0.60519 0.26237 0.91573 0.0
C1528 C 0.6166 0.28268 0.85237 0.0
C1529 C 0.66662 0.28219 0.8255 0.0
C1530 C 0.65078 0.28083 0.84386 0.0
C1531 C 0.60508 0.27697 0.89729 0.0
C1532 C 0.62079 0.27825 0.87883 0.0
H1533 H 0.70949 0.26115 0.81254 0.0
H1534 H 0.6834 0.25853 0.84174 0.0
H1535 H 0.6275 0.28699 0.81478 0.0
H1536 H 0.56402 0.3001 0.91364 0.0
H1537 H 0.58945 0.30197 0.88309 0.0
C1538 C 0.78238 0.68637 0.79866 0.0
C1539 C 0.76603 0.6864 0.78078 0.0
C1540 C 0.786 0.67093 0.81505 0.0
C1541 C 0.77453 0.61997 0.82442 0.0
H1542 H 0.78743 0.63327 0.89791 0.0
C1543 C 0.77249 0.56486 0.90657 0.0
C1544 C 0.78594 0.56683 0.92841 0.0
C1545 C 0.77158 0.57849 0.88704 0.0
C1546 C 0.78419 0.62924 0.87741 0.0
H1547 H 0.74099 0.66982 0.76561 0.0
H1548 H 0.74741 0.64273 0.79418 0.0
H1549 H 0.78293 0.65866 0.8665 0.0
H1550 H 0.80947 0.58441 0.94624 0.0
H1551 H 0.80832 0.60779 0.91177 0.0
H1552 H 0.7758 0.59051 0.83537 0.0
C1553 C 0.75744 0.65471 0.79539 0.0
C1554 C 0.78155 0.64383 0.8594 0.0
C1555 C 0.75376 0.67024 0.77902 0.0
C1556 C 0.799 0.58235 0.92965 0.0
C1557 C 0.79816 0.59592 0.91004 0.0
C1558 C 0.7773 0.60533 0.84244 0.0
C1559 C 0.77343 0.65507 0.8139 0.0
C1560 C 0.77662 0.63938 0.83273 0.0
C1561 C 0.78417 0.59439 0.88876 0.0
C1562 C 0.78208 0.6098 0.8692 0.0
H1563 H 0.79243 0.69831 0.80012 0.0
H1564 H 0.79865 0.67146 0.82873 0.0
H1565 H 0.77093 0.6161 0.80394 0.0
H1566 H 0.76242 0.55291 0.90473 0.0
H1567 H 0.76054 0.57688 0.87105 0.0
loop_
_geom_bond_atom_site_label_1
_geom_bond_atom_site_label_2
_geom_bond_distance
_geom_bond_site_symmetry_2
_ccdc_geom_bond_type
Cu0 N1 1.999 . S
Cu0 O6 1.974 . S
Cu0 N11 1.985 . S
Cu0 O20 1.959 . S
N1 Cu0 1.999 . S
N1 C3 1.263 . S
N1 C5 1.389 . S
N2 C3 1.358 . S
N2 C4 1.400 . S
C3 N1 1.263 . S
C3 N2 1.358 . S
C3 H9 0.930 . S
C4 N2 1.400 . S
C4 C5 1.351 . S
C4 H21 0.930 . S
C5 N1 1.389 . S
C5 C4 1.351 . S
C5 H10 0.930 . S
O6 Cu0 1.974 . S
O6 C16 1.282 . S
C7 O8 1.261 . S
C7 O20 1.251 . S
O8 C7 1.261 . S
H9 C3 0.930 . S
H10 C5 0.930 . S
N11 Cu0 1.985 . S
N11 C13 1.335 . S
N11 C14 1.390 . S
N12 C13 1.345 . S
N12 C15 1.336 . S
C13 N11 1.335 . S
C13 N12 1.345 . S
C13 H18 0.930 . S
C14 N11 1.390 . S
C14 C15 1.346 . S
C14 H19 0.930 . S
C15 N12 1.336 . S
C15 C14 1.346 . S
C15 H22 0.929 . S
C16 O6 1.282 . S
C16 O17 1.216 . S
O17 C16 1.216 . S
H18 C13 0.930 . S
H19 C14 0.930 . S
O20 Cu0 1.959 . S
O20 C7 1.251 . S
H21 C4 0.930 . S
H22 C15 0.929 . S
Cu23 N24 1.999 . S
Cu23 O29 1.974 . S
Cu23 N34 1.985 . S
Cu23 O43 1.959 . S
N24 Cu23 1.999 . S
N24 C26 1.263 . S
N24 C28 1.389 . S
N25 C26 1.358 . S
N25 C27 1.400 . S
C26 N24 1.263 . S
C26 N25 1.358 . S
C26 H32 0.930 . S
C27 N25 1.400 . S
C27 C28 1.351 . S
C27 H44 0.930 . S
C28 N24 1.389 . S
C28 C27 1.351 . S
C28 H33 0.930 . S
O29 Cu23 1.974 . S
O29 C39 1.282 . S
C30 O31 1.261 . S
C30 O43 1.251 . S
O31 C30 1.261 . S
H32 C26 0.930 . S
H33 C28 0.930 . S
N34 Cu23 1.985 . S
N34 C36 1.335 . S
N34 C37 1.390 . S
N35 C36 1.345 . S
N35 C38 1.336 . S
C36 N34 1.335 . S
C36 N35 1.345 . S
C36 H41 0.930 . S
C37 N34 1.390 . S
C37 C38 1.346 . S
C37 H42 0.930 . S
C38 N35 1.336 . S
C38 C37 1.346 . S
C38 H45 0.929 . S
C39 O29 1.282 . S
C39 O40 1.216 . S
O40 C39 1.216 . S
H41 C36 0.930 . S
H42 C37 0.930 . S
O43 Cu23 1.959 . S
O43 C30 1.251 . S
H44 C27 0.930 . S
H45 C38 0.929 . S
Cu46 N47 1.999 . S
Cu46 O52 1.974 . S
Cu46 N57 1.985 . S
Cu46 O66 1.959 . S
N47 Cu46 1.999 . S
N47 C49 1.263 . S
N47 C51 1.389 . S
N48 C49 1.358 . S
N48 C50 1.400 . S
C49 N47 1.263 . S
C49 N48 1.358 . S
C49 H55 0.930 . S
C50 N48 1.400 . S
C50 C51 1.351 . S
C50 H67 0.930 . S
C51 N47 1.389 . S
C51 C50 1.351 . S
C51 H56 0.930 . S
O52 Cu46 1.974 . S
O52 C62 1.282 . S
C53 O54 1.261 . S
C53 O66 1.251 . S
O54 C53 1.261 . S
H55 C49 0.930 . S
H56 C51 0.930 . S
N57 Cu46 1.985 . S
N57 C59 1.335 . S
N57 C60 1.390 . S
N58 C59 1.345 . S
N58 C61 1.336 . S
C59 N57 1.335 . S
C59 N58 1.345 . S
C59 H64 0.930 . S
C60 N57 1.390 . S
C60 C61 1.346 . S
C60 H65 0.930 . S
C61 N58 1.336 . S
C61 C60 1.346 . S
C61 H68 0.929 . S
C62 O52 1.282 . S
C62 O63 1.216 . S
O63 C62 1.216 . S
H64 C59 0.930 . S
H65 C60 0.930 . S
O66 Cu46 1.959 . S
O66 C53 1.251 . S
H67 C50 0.930 . S
H68 C61 0.929 . S
Cu69 N70 1.999 . S
Cu69 O75 1.974 . S
Cu69 N80 1.985 . S
Cu69 O89 1.959 . S
N70 Cu69 1.999 . S
N70 C72 1.263 . S
N70 C74 1.389 . S
N71 C72 1.358 . S
N71 C73 1.400 . S
C72 N70 1.263 . S
C72 N71 1.358 . S
C72 H78 0.930 . S
C73 N71 1.400 . S
C73 C74 1.351 . S
C73 H90 0.930 . S
C74 N70 1.389 . S
C74 C73 1.351 . S
C74 H79 0.930 . S
O75 Cu69 1.974 . S
O75 C85 1.282 . S
C76 O77 1.261 . S
C76 O89 1.251 . S
O77 C76 1.261 . S
H78 C72 0.930 . S
H79 C74 0.930 . S
N80 Cu69 1.985 . S
N80 C82 1.335 . S
N80 C83 1.390 . S
N81 C82 1.345 . S
N81 C84 1.336 . S
C82 N80 1.335 . S
C82 N81 1.345 . S
C82 H87 0.930 . S
C83 N80 1.390 . S
C83 C84 1.346 . S
C83 H88 0.930 . S
C84 N81 1.336 . S
C84 C83 1.346 . S
C84 H91 0.929 . S
C85 O75 1.282 . S
C85 O86 1.216 . S
O86 C85 1.216 . S
H87 C82 0.930 . S
H88 C83 0.930 . S
O89 Cu69 1.959 . S
O89 C76 1.251 . S
H90 C73 0.930 . S
H91 C84 0.929 . S
Cu92 N93 1.999 . S
Cu92 O98 1.974 . S
Cu92 N103 1.985 . S
Cu92 O112 1.959 . S
N93 Cu92 1.999 . S
N93 C95 1.263 . S
N93 C97 1.389 . S
N94 C95 1.358 . S
N94 C96 1.400 . S
C95 N93 1.263 . S
C95 N94 1.358 . S
C95 H101 0.930 . S
C96 N94 1.400 . S
C96 C97 1.351 . S
C96 H113 0.930 . S
C97 N93 1.389 . S
C97 C96 1.351 . S
C97 H102 0.930 . S
O98 Cu92 1.974 . S
O98 C108 1.282 . S
C99 O100 1.261 . S
C99 O112 1.251 . S
O100 C99 1.261 . S
H101 C95 0.930 . S
H102 C97 0.930 . S
N103 Cu92 1.985 . S
N103 C105 1.335 . S
N103 C106 1.390 . S
N104 C105 1.345 . S
N104 C107 1.336 . S
C105 N103 1.335 . S
C105 N104 1.345 . S
C105 H110 0.930 . S
C106 N103 1.390 . S
C106 C107 1.346 . S
C106 H111 0.930 . S
C107 N104 1.336 . S
C107 C106 1.346 . S
C107 H114 0.929 . S
C108 O98 1.282 . S
C108 O109 1.216 . S
O109 C108 1.216 . S
H110 C105 0.930 . S
H111 C106 0.930 . S
O112 Cu92 1.959 . S
O112 C99 1.251 . S
H113 C96 0.930 . S
H114 C107 0.929 . S
Cu115 N116 1.999 . S
Cu115 O121 1.974 . S
Cu115 N126 1.985 . S
Cu115 O135 1.959 . S
N116 Cu115 1.999 . S
N116 C118 1.263 . S
N116 C120 1.389 . S
N117 C118 1.358 . S
N117 C119 1.400 . S
C118 N116 1.263 . S
C118 N117 1.358 . S
C118 H124 0.930 . S
C119 N117 1.400 . S
C119 C120 1.351 . S
C119 H136 0.930 . S
C120 N116 1.389 . S
C120 C119 1.351 . S
C120 H125 0.930 . S
O121 Cu115 1.974 . S
O121 C131 1.282 . S
C122 O123 1.261 . S
C122 O135 1.251 . S
O123 C122 1.261 . S
H124 C118 0.930 . S
H125 C120 0.930 . S
N126 Cu115 1.985 . S
N126 C128 1.335 . S
N126 C129 1.390 . S
N127 C128 1.345 . S
N127 C130 1.336 . S
C128 N126 1.335 . S
C128 N127 1.345 . S
C128 H133 0.930 . S
C129 N126 1.390 . S
C129 C130 1.346 . S
C129 H134 0.930 . S
C130 N127 1.336 . S
C130 C129 1.346 . S
C130 H137 0.929 . S
C131 O121 1.282 . S
C131 O132 1.216 . S
O132 C131 1.216 . S
H133 C128 0.930 . S
H134 C129 0.930 . S
O135 Cu115 1.959 . S
O135 C122 1.251 . S
H136 C119 0.930 . S
H137 C130 0.929 . S
Cu138 N139 1.999 . S
Cu138 O144 1.974 . S
Cu138 N149 1.985 . S
Cu138 O158 1.959 . S
N139 Cu138 1.999 . S
N139 C141 1.263 . S
N139 C143 1.389 . S
N140 C141 1.358 . S
N140 C142 1.400 . S
C141 N139 1.263 . S
C141 N140 1.358 . S
C141 H147 0.930 . S
C142 N140 1.400 . S
C142 C143 1.351 . S
C142 H159 0.930 . S
C143 N139 1.389 . S
C143 C142 1.351 . S
C143 H148 0.930 . S
O144 Cu138 1.974 . S
O144 C154 1.282 . S
C145 O146 1.261 . S
C145 O158 1.251 . S
O146 C145 1.261 . S
H147 C141 0.930 . S
H148 C143 0.930 . S
N149 Cu138 1.985 . S
N149 C151 1.335 . S
N149 C152 1.390 . S
N150 C151 1.345 . S
N150 C153 1.336 . S
C151 N149 1.335 . S
C151 N150 1.345 . S
C151 H156 0.930 . S
C152 N149 1.390 . S
C152 C153 1.346 . S
C152 H157 0.930 . S
C153 N150 1.336 . S
C153 C152 1.346 . S
C153 H160 0.929 . S
C154 O144 1.282 . S
C154 O155 1.216 . S
O155 C154 1.216 . S
H156 C151 0.930 . S
H157 C152 0.930 . S
O158 Cu138 1.959 . S
O158 C145 1.251 . S
H159 C142 0.930 . S
H160 C153 0.929 . S
Cu161 N162 1.999 . S
Cu161 O167 1.974 . S
Cu161 N172 1.985 . S
Cu161 O181 1.959 . S
N162 Cu161 1.999 . S
N162 C164 1.263 . S
N162 C166 1.389 . S
N163 C164 1.358 . S
N163 C165 1.400 . S
C164 N162 1.263 . S
C164 N163 1.358 . S
C164 H170 0.930 . S
C165 N163 1.400 . S
C165 C166 1.351 . S
C165 H182 0.930 . S
C166 N162 1.389 . S
C166 C165 1.351 . S
C166 H171 0.930 . S
O167 Cu161 1.974 . S
O167 C177 1.282 . S
C168 O169 1.261 . S
C168 O181 1.251 . S
O169 C168 1.261 . S
H170 C164 0.930 . S
H171 C166 0.930 . S
N172 Cu161 1.985 . S
N172 C174 1.335 . S
N172 C175 1.390 . S
N173 C174 1.345 . S
N173 C176 1.336 . S
C174 N172 1.335 . S
C174 N173 1.345 . S
C174 H179 0.930 . S
C175 N172 1.390 . S
C175 C176 1.346 . S
C175 H180 0.930 . S
C176 N173 1.336 . S
C176 C175 1.346 . S
C176 H183 0.929 . S
C177 O167 1.282 . S
C177 O178 1.216 . S
O178 C177 1.216 . S
H179 C174 0.930 . S
H180 C175 0.930 . S
O181 Cu161 1.959 . S
O181 C168 1.251 . S
H182 C165 0.930 . S
H183 C176 0.929 . S
C184 C185 1.443 . S
C184 N188 1.376 . S
C184 C222 1.389 . S
C185 C184 1.443 . S
C185 C186 1.340 . S
C185 H225 0.951 . S
C186 C185 1.340 . S
C186 C187 1.439 . S
C186 H226 0.950 . S
C187 C186 1.439 . S
C187 N188 1.374 . S
C187 C221 1.395 . S
N188 C184 1.376 . S
N188 C187 1.374 . S
N188 Co189 2.008 . S
Co189 N188 2.008 . S
Co189 N190 1.995 . S
Co189 N195 2.008 . S
Co189 N200 1.995 . S
Co189 N205 2.282 . S
Co189 N211 2.282 . S
N190 Co189 1.995 . S
N190 C191 1.376 . S
N190 C194 1.383 . S
C191 N190 1.376 . S
C191 C192 1.446 . S
C191 C221 1.391 . S
C192 C191 1.446 . S
C192 C193 1.339 1_455 S
C192 H227 0.949 . S
C193 C192 1.339 1_655 S
C193 C194 1.439 1_655 S
C193 H228 0.950 . S
C194 N190 1.383 . S
C194 C193 1.439 1_455 S
C194 C223 1.392 1_455 S
N195 Co189 2.008 . S
N195 C196 1.379 . S
N195 C199 1.374 . S
C196 N195 1.379 . S
C196 C197 1.442 1_455 S
C196 C223 1.388 1_455 S
C197 C196 1.442 1_655 S
C197 C198 1.325 1_655 S
C197 H229 0.951 . S
C198 C197 1.325 1_455 S
C198 C199 1.462 . S
C198 H230 0.944 1_455 S
C199 N195 1.374 . S
C199 C198 1.462 . S
C199 C224 1.395 . S
N200 Co189 1.995 . S
N200 C201 1.376 . S
N200 C204 1.383 . S
C201 N200 1.376 . S
C201 C202 1.446 . S
C201 C224 1.391 . S
C202 C201 1.446 . S
C202 C203 1.339 . S
C202 H231 0.949 . S
C203 C202 1.339 . S
C203 C204 1.439 . S
C203 H232 0.950 . S
C204 N200 1.383 . S
C204 C203 1.439 . S
C204 C222 1.392 . S
N205 Co189 2.282 . S
N205 C208 1.332 . S
N205 C210 1.332 1_455 S
C206 C207 1.386 . S
C206 C209 1.388 . S
C207 C206 1.386 . S
C207 C208 1.382 1_655 S
C207 H233 0.950 . S
C208 N205 1.332 . S
C208 C207 1.382 1_455 S
C208 H219 0.952 . S
C209 C206 1.388 . S
C209 C210 1.382 . S
C209 H234 0.950 . S
C210 N205 1.332 1_655 S
C210 C209 1.382 . S
C210 H220 0.948 1_655 S
N211 Co189 2.282 . S
N211 C215 1.332 . S
N211 C216 1.332 . S
C212 C213 1.388 . S
C212 C216 1.382 . S
C212 H235 0.950 . S
C213 C212 1.388 . S
C213 C214 1.386 . S
C214 C213 1.386 . S
C214 C215 1.382 . S
C214 H236 0.950 . S
C215 N211 1.332 . S
C215 C214 1.382 . S
C215 H217 0.952 . S
C216 N211 1.332 . S
C216 C212 1.382 . S
C216 H218 0.948 . S
H217 C215 0.952 . S
H218 C216 0.948 . S
H219 C208 0.952 . S
H220 C210 0.948 1_455 S
C221 C187 1.395 . S
C221 C191 1.391 . S
C222 C184 1.389 . S
C222 C204 1.392 . S
C223 C194 1.392 1_655 S
C223 C196 1.388 1_655 S
C224 C199 1.395 . S
C224 C201 1.391 . S
H225 C185 0.951 . S
H226 C186 0.950 . S
H227 C192 0.949 . S
H228 C193 0.950 . S
H229 C197 0.951 . S
H230 C198 0.944 1_655 S
H231 C202 0.949 . S
H232 C203 0.950 . S
H233 C207 0.950 . S
H234 C209 0.950 . S
H235 C212 0.950 . S
H236 C214 0.950 . S
C237 C238 1.443 . S
C237 N241 1.376 . S
C237 C275 1.389 . S
C238 C237 1.443 . S
C238 C239 1.340 . S
C238 H278 0.951 . S
C239 C238 1.340 . S
C239 C240 1.439 . S
C239 H279 0.950 . S
C240 C239 1.439 . S
C240 N241 1.374 . S
C240 C274 1.395 . S
N241 C237 1.376 . S
N241 C240 1.374 . S
N241 Co242 2.008 . S
Co242 N241 2.008 . S
Co242 N243 1.995 . S
Co242 N248 2.008 . S
Co242 N253 1.995 . S
Co242 N258 2.282 . S
Co242 N264 2.282 . S
N243 Co242 1.995 . S
N243 C244 1.376 . S
N243 C247 1.383 . S
C244 N243 1.376 . S
C244 C245 1.446 . S
C244 C274 1.391 . S
C245 C244 1.446 . S
C245 C246 1.339 1_545 S
C245 H280 0.949 . S
C246 C245 1.339 1_565 S
C246 C247 1.439 1_565 S
C246 H281 0.950 . S
C247 N243 1.383 . S
C247 C246 1.439 1_545 S
C247 C276 1.392 1_545 S
N248 Co242 2.008 . S
N248 C249 1.420 . S
N248 C252 1.374 . S
C249 N248 1.420 . S
C249 C250 1.419 1_545 S
C249 C276 1.373 1_545 S
C250 C249 1.419 1_565 S
C250 C251 1.340 1_565 S
C250 H282 0.951 . S
C251 C250 1.340 1_545 S
C251 C252 1.439 . S
C251 H283 0.950 1_545 S
C252 N248 1.374 . S
C252 C251 1.439 . S
C252 C277 1.395 . S
N253 Co242 1.995 . S
N253 C254 1.376 . S
N253 C257 1.383 . S
C254 N253 1.376 . S
C254 C255 1.446 . S
C254 C277 1.391 . S
C255 C254 1.446 . S
C255 C256 1.339 . S
C255 H284 0.949 . S
C256 C255 1.339 . S
C256 C257 1.439 . S
C256 H285 0.950 . S
C257 N253 1.383 . S
C257 C256 1.439 . S
C257 C275 1.392 . S
N258 Co242 2.282 . S
N258 C261 1.332 . S
N258 C263 1.332 1_545 S
C259 C260 1.386 . S
C259 C262 1.388 . S
C260 C259 1.386 . S
C260 C261 1.382 1_565 S
C260 H286 0.950 . S
C261 N258 1.332 . S
C261 C260 1.382 1_545 S
C261 H272 0.952 . S
C262 C259 1.388 . S
C262 C263 1.382 . S
C262 H287 0.950 . S
C263 N258 1.332 1_565 S
C263 C262 1.382 . S
C263 H273 0.948 1_565 S
N264 Co242 2.282 . S
N264 C268 1.332 . S
N264 C269 1.332 . S
C265 C266 1.388 . S
C265 C269 1.382 . S
C265 H288 0.950 . S
C266 C265 1.388 . S
C266 C267 1.386 . S
C267 C266 1.386 . S
C267 C268 1.382 . S
C267 H289 0.950 . S
C268 N264 1.332 . S
C268 C267 1.382 . S
C268 H270 0.952 . S
C269 N264 1.332 . S
C269 C265 1.382 . S
C269 H271 0.948 . S
H270 C268 0.952 . S
H271 C269 0.948 . S
H272 C261 0.952 . S
H273 C263 0.948 1_545 S
C274 C240 1.395 . S
C274 C244 1.391 . S
C275 C237 1.389 . S
C275 C257 1.392 . S
C276 C247 1.392 1_565 S
C276 C249 1.373 1_565 S
C277 C252 1.395 . S
C277 C254 1.391 . S
H278 C238 0.951 . S
H279 C239 0.950 . S
H280 C245 0.949 . S
H281 C246 0.950 . S
H282 C250 0.951 . S
H283 C251 0.950 1_565 S
H284 C255 0.949 . S
H285 C256 0.950 . S
H286 C260 0.950 . S
H287 C262 0.950 . S
H288 C265 0.950 . S
H289 C267 0.950 . S
C290 C291 1.443 . S
C290 N294 1.376 . S
C290 C328 1.389 . S
C291 C290 1.443 . S
C291 C292 1.340 . S
C291 H331 0.951 . S
C292 C291 1.340 . S
C292 C293 1.439 . S
C292 H332 0.950 . S
C293 C292 1.439 . S
C293 N294 1.374 . S
C293 C327 1.395 . S
N294 C290 1.376 . S
N294 C293 1.374 . S
N294 Co295 2.008 . S
Co295 N294 2.008 . S
Co295 N296 1.995 1_455 S
Co295 N301 2.008 1_455 S
Co295 N306 1.995 . S
Co295 N311 2.282 1_455 S
Co295 N317 2.282 . S
N296 Co295 1.995 1_655 S
N296 C297 1.376 . S
N296 C300 1.383 . S
C297 N296 1.376 . S
C297 C298 1.446 . S
C297 C327 1.391 1_655 S
C298 C297 1.446 . S
C298 C299 1.339 . S
C298 H333 0.949 . S
C299 C298 1.339 . S
C299 C300 1.439 . S
C299 H334 0.950 . S
C300 N296 1.383 . S
C300 C299 1.439 . S
C300 C329 1.392 . S
N301 Co295 2.008 1_655 S
N301 C302 1.376 . S
N301 C305 1.374 . S
C302 N301 1.376 . S
C302 C303 1.443 . S
C302 C329 1.389 . S
C303 C302 1.443 . S
C303 C304 1.340 . S
C303 H335 0.951 . S
C304 C303 1.340 . S
C304 C305 1.439 . S
C304 H336 0.950 . S
C305 N301 1.374 . S
C305 C304 1.439 . S
C305 C330 1.395 1_655 S
N306 Co295 1.995 . S
N306 C307 1.376 . S
N306 C310 1.383 . S
C307 N306 1.376 . S
C307 C308 1.446 . S
C307 C330 1.391 . S
C308 C307 1.446 . S
C308 C309 1.339 . S
C308 H337 0.949 . S
C309 C308 1.339 . S
C309 C310 1.439 . S
C309 H338 0.950 . S
C310 N306 1.383 . S
C310 C309 1.439 . S
C310 C328 1.392 . S
N311 Co295 2.282 1_655 S
N311 C314 1.332 . S
N311 C316 1.332 . S
C312 C313 1.386 . S
C312 C315 1.388 . S
C313 C312 1.386 . S
C313 C314 1.382 . S
C313 H339 0.950 . S
C314 N311 1.332 . S
C314 C313 1.382 . S
C314 H325 0.952 . S
C315 C312 1.388 . S
C315 C316 1.382 . S
C315 H340 0.950 . S
C316 N311 1.332 . S
C316 C315 1.382 . S
C316 H326 0.948 . S
N317 Co295 2.282 . S
N317 C321 1.332 . S
N317 C322 1.332 . S
C318 C319 1.388 . S
C318 C322 1.382 . S
C318 H341 0.950 . S
C319 C318 1.388 . S
C319 C320 1.386 . S
C320 C319 1.386 . S
C320 C321 1.382 . S
C320 H342 0.950 . S
C321 N317 1.332 . S
C321 C320 1.382 . S
C321 H323 0.952 . S
C322 N317 1.332 . S
C322 C318 1.382 . S
C322 H324 0.948 . S
H323 C321 0.952 . S
H324 C322 0.948 . S
H325 C314 0.952 . S
H326 C316 0.948 . S
C327 C293 1.395 . S
C327 C297 1.391 1_455 S
C328 C290 1.389 . S
C328 C310 1.392 . S
C329 C300 1.392 . S
C329 C302 1.389 . S
C330 C305 1.395 1_455 S
C330 C307 1.391 . S
H331 C291 0.951 . S
H332 C292 0.950 . S
H333 C298 0.949 . S
H334 C299 0.950 . S
H335 C303 0.951 . S
H336 C304 0.950 . S
H337 C308 0.949 . S
H338 C309 0.950 . S
H339 C313 0.950 . S
H340 C315 0.950 . S
H341 C318 0.950 . S
H342 C320 0.950 . S
C343 C344 1.443 . S
C343 N347 1.376 . S
C343 C381 1.389 . S
C344 C343 1.443 . S
C344 C345 1.340 . S
C344 H384 0.951 . S
C345 C344 1.340 . S
C345 C346 1.439 . S
C345 H385 0.950 . S
C346 C345 1.439 . S
C346 N347 1.374 . S
C346 C380 1.395 1_565 S
N347 C343 1.376 . S
N347 C346 1.374 . S
N347 Co348 2.008 1_565 S
Co348 N347 2.008 1_545 S
Co348 N349 1.995 . S
Co348 N354 2.008 . S
Co348 N359 1.995 1_545 S
Co348 N364 2.282 . S
Co348 N370 2.282 1_545 S
N349 Co348 1.995 . S
N349 C350 1.376 . S
N349 C353 1.383 . S
C350 N349 1.376 . S
C350 C351 1.446 . S
C350 C380 1.391 . S
C351 C350 1.446 . S
C351 C352 1.339 . S
C351 H386 0.949 . S
C352 C351 1.339 . S
C352 C353 1.439 . S
C352 H387 0.950 . S
C353 N349 1.383 . S
C353 C352 1.439 . S
C353 C382 1.392 . S
N354 Co348 2.008 . S
N354 C355 1.376 . S
N354 C358 1.374 . S
C355 N354 1.376 . S
C355 C356 1.443 . S
C355 C382 1.389 . S
C356 C355 1.443 . S
C356 C357 1.340 . S
C356 H388 0.951 . S
C357 C356 1.340 . S
C357 C358 1.439 . S
C357 H389 0.950 . S
C358 N354 1.374 . S
C358 C357 1.439 . S
C358 C383 1.395 . S
N359 Co348 1.995 1_565 S
N359 C360 1.376 . S
N359 C363 1.383 . S
C360 N359 1.376 . S
C360 C361 1.446 . S
C360 C383 1.391 1_565 S
C361 C360 1.446 . S
C361 C362 1.339 . S
C361 H390 0.949 . S
C362 C361 1.339 . S
C362 C363 1.439 . S
C362 H391 0.950 . S
C363 N359 1.383 . S
C363 C362 1.439 . S
C363 C381 1.392 . S
N364 Co348 2.282 . S
N364 C367 1.332 . S
N364 C369 1.332 . S
C365 C366 1.386 . S
C365 C368 1.388 . S
C366 C365 1.386 . S
C366 C367 1.382 . S
C366 H392 0.950 . S
C367 N364 1.332 . S
C367 C366 1.382 . S
C367 H378 0.952 . S
C368 C365 1.388 . S
C368 C369 1.382 . S
C368 H393 0.950 . S
C369 N364 1.332 . S
C369 C368 1.382 . S
C369 H379 0.948 . S
N370 Co348 2.282 1_565 S
N370 C374 1.332 . S
N370 C375 1.332 . S
C371 C372 1.388 . S
C371 C375 1.382 . S
C371 H394 0.950 . S
C372 C371 1.388 . S
C372 C373 1.386 . S
C373 C372 1.386 . S
C373 C374 1.382 . S
C373 H395 0.950 . S
C374 N370 1.332 . S
C374 C373 1.382 . S
C374 H376 0.952 . S
C375 N370 1.332 . S
C375 C371 1.382 . S
C375 H377 0.948 . S
H376 C374 0.952 . S
H377 C375 0.948 . S
H378 C367 0.952 . S
H379 C369 0.948 . S
C380 C346 1.395 1_545 S
C380 C350 1.391 . S
C381 C343 1.389 . S
C381 C363 1.392 . S
C382 C353 1.392 . S
C382 C355 1.389 . S
C383 C358 1.395 . S
C383 C360 1.391 1_545 S
H384 C344 0.951 . S
H385 C345 0.950 . S
H386 C351 0.949 . S
H387 C352 0.950 . S
H388 C356 0.951 . S
H389 C357 0.950 . S
H390 C361 0.949 . S
H391 C362 0.950 . S
H392 C366 0.950 . S
H393 C368 0.950 . S
H394 C371 0.950 . S
H395 C373 0.950 . S
C396 C397 1.443 . S
C396 N400 1.376 . S
C396 C434 1.389 . S
C397 C396 1.443 . S
C397 C398 1.340 . S
C397 H437 0.951 . S
C398 C397 1.340 . S
C398 C399 1.439 . S
C398 H438 0.950 . S
C399 C398 1.439 . S
C399 N400 1.374 . S
C399 C433 1.395 1_554 S
N400 C396 1.376 . S
N400 C399 1.374 . S
N400 Co401 2.008 . S
Co401 N400 2.008 . S
Co401 N402 1.995 1_554 S
Co401 N407 2.008 1_554 S
Co401 N412 1.995 . S
Co401 N417 2.282 . S
Co401 N423 2.282 1_554 S
N402 Co401 1.995 1_556 S
N402 C403 1.376 . S
N402 C406 1.383 . S
C403 N402 1.376 . S
C403 C404 1.446 . S
C403 C433 1.391 . S
C404 C403 1.446 . S
C404 C405 1.339 . S
C404 H439 0.949 . S
C405 C404 1.339 . S
C405 C406 1.439 . S
C405 H440 0.950 . S
C406 N402 1.383 . S
C406 C405 1.439 . S
C406 C435 1.392 . S
N407 Co401 2.008 1_556 S
N407 C408 1.376 . S
N407 C411 1.374 . S
C408 N407 1.376 . S
C408 C409 1.443 . S
C408 C435 1.389 . S
C409 C408 1.443 . S
C409 C410 1.340 . S
C409 H441 0.951 . S
C410 C409 1.340 . S
C410 C411 1.439 . S
C410 H442 0.950 . S
C411 N407 1.374 . S
C411 C410 1.439 . S
C411 C436 1.395 1_556 S
N412 Co401 1.995 . S
N412 C413 1.376 . S
N412 C416 1.383 . S
C413 N412 1.376 . S
C413 C414 1.446 . S
C413 C436 1.391 . S
C414 C413 1.446 . S
C414 C415 1.339 . S
C414 H443 0.949 . S
C415 C414 1.339 . S
C415 C416 1.439 . S
C415 H444 0.950 . S
C416 N412 1.383 . S
C416 C415 1.439 . S
C416 C434 1.392 . S
N417 Co401 2.282 . S
N417 C420 1.332 . S
N417 C422 1.332 . S
C418 C419 1.386 . S
C418 C421 1.388 . S
C419 C418 1.386 . S
C419 C420 1.382 . S
C419 H445 0.950 . S
C420 N417 1.332 . S
C420 C419 1.382 . S
C420 H431 0.952 . S
C421 C418 1.388 . S
C421 C422 1.382 . S
C421 H446 0.950 . S
C422 N417 1.332 . S
C422 C421 1.382 . S
C422 H432 0.948 . S
N423 Co401 2.282 1_556 S
N423 C427 1.332 . S
N423 C428 1.332 . S
C424 C425 1.388 . S
C424 C428 1.382 . S
C424 H447 0.950 . S
C425 C424 1.388 . S
C425 C426 1.386 . S
C426 C425 1.386 . S
C426 C427 1.382 . S
C426 H448 0.950 . S
C427 N423 1.332 . S
C427 C426 1.382 . S
C427 H429 0.952 . S
C428 N423 1.332 . S
C428 C424 1.382 . S
C428 H430 0.948 . S
H429 C427 0.952 . S
H430 C428 0.948 . S
H431 C420 0.952 . S
H432 C422 0.948 . S
C433 C399 1.395 1_556 S
C433 C403 1.391 . S
C434 C396 1.389 . S
C434 C416 1.392 . S
C435 C406 1.392 . S
C435 C408 1.389 . S
C436 C411 1.395 1_554 S
C436 C413 1.391 . S
H437 C397 0.951 . S
H438 C398 0.950 . S
H439 C404 0.949 . S
H440 C405 0.950 . S
H441 C409 0.951 . S
H442 C410 0.950 . S
H443 C414 0.949 . S
H444 C415 0.950 . S
H445 C419 0.950 . S
H446 C421 0.950 . S
H447 C424 0.950 . S
H448 C426 0.950 . S
C449 C450 1.443 . S
C449 N453 1.376 . S
C449 C487 1.389 . S
C450 C449 1.443 . S
C450 C451 1.340 . S
C450 H490 0.951 . S
C451 C450 1.340 . S
C451 C452 1.439 . S
C451 H491 0.950 . S
C452 C451 1.439 . S
C452 N453 1.374 . S
C452 C486 1.395 . S
N453 C449 1.376 . S
N453 C452 1.374 . S
N453 Co454 2.008 . S
Co454 N453 2.008 . S
Co454 N455 1.995 1_554 S
Co454 N460 2.008 1_554 S
Co454 N465 1.995 . S
Co454 N470 2.282 . S
Co454 N476 2.282 1_554 S
N455 Co454 1.995 1_556 S
N455 C456 1.376 . S
N455 C459 1.383 . S
C456 N455 1.376 . S
C456 C457 1.446 . S
C456 C486 1.391 1_556 S
C457 C456 1.446 . S
C457 C458 1.339 . S
C457 H492 0.949 . S
C458 C457 1.339 . S
C458 C459 1.439 . S
C458 H493 0.950 . S
C459 N455 1.383 . S
C459 C458 1.439 . S
C459 C488 1.392 . S
N460 Co454 2.008 1_556 S
N460 C461 1.376 . S
N460 C464 1.374 1_556 S
C461 N460 1.376 . S
C461 C462 1.443 . S
C461 C488 1.389 . S
C462 C461 1.443 . S
C462 C463 1.340 . S
C462 H494 0.951 . S
C463 C462 1.340 . S
C463 C464 1.439 1_556 S
C463 H495 0.950 . S
C464 N460 1.374 1_554 S
C464 C463 1.439 1_554 S
C464 C489 1.395 . S
N465 Co454 1.995 . S
N465 C466 1.376 . S
N465 C469 1.383 . S
C466 N465 1.376 . S
C466 C467 1.446 . S
C466 C489 1.391 . S
C467 C466 1.446 . S
C467 C468 1.339 . S
C467 H496 0.949 . S
C468 C467 1.339 . S
C468 C469 1.439 . S
C468 H497 0.950 . S
C469 N465 1.383 . S
C469 C468 1.439 . S
C469 C487 1.392 . S
N470 Co454 2.282 . S
N470 C473 1.332 . S
N470 C475 1.332 . S
C471 C472 1.386 . S
C471 C474 1.388 . S
C472 C471 1.386 . S
C472 C473 1.382 . S
C472 H498 0.950 . S
C473 N470 1.332 . S
C473 C472 1.382 . S
C473 H484 0.952 . S
C474 C471 1.388 . S
C474 C475 1.382 . S
C474 H499 0.950 . S
C475 N470 1.332 . S
C475 C474 1.382 . S
C475 H485 0.948 . S
N476 Co454 2.282 1_556 S
N476 C480 1.332 . S
N476 C481 1.332 . S
C477 C478 1.388 . S
C477 C481 1.382 . S
C477 H500 0.950 . S
C478 C477 1.388 . S
C478 C479 1.386 . S
C479 C478 1.386 . S
C479 C480 1.382 . S
C479 H501 0.950 . S
C480 N476 1.332 . S
C480 C479 1.382 . S
C480 H482 0.952 . S
C481 N476 1.332 . S
C481 C477 1.382 . S
C481 H483 0.948 . S
H482 C480 0.952 . S
H483 C481 0.948 . S
H484 C473 0.952 . S
H485 C475 0.948 . S
C486 C452 1.395 . S
C486 C456 1.391 1_554 S
C487 C449 1.389 . S
C487 C469 1.392 . S
C488 C459 1.392 . S
C488 C461 1.389 . S
C489 C464 1.395 . S
C489 C466 1.391 . S
H490 C450 0.951 . S
H491 C451 0.950 . S
H492 C457 0.949 . S
H493 C458 0.950 . S
H494 C462 0.951 . S
H495 C463 0.950 . S
H496 C467 0.949 . S
H497 C468 0.950 . S
H498 C472 0.950 . S
H499 C474 0.950 . S
H500 C477 0.950 . S
H501 C479 0.950 . S
C502 C503 1.443 . S
C502 N506 1.376 1_556 S
C502 C540 1.389 . S
C503 C502 1.443 . S
C503 C504 1.340 1_556 S
C503 H543 0.951 . S
C504 C503 1.340 1_554 S
C504 C505 1.439 . S
C504 H544 0.950 . S
C505 C504 1.439 . S
C505 N506 1.374 . S
C505 C539 1.395 . S
N506 C502 1.376 1_554 S
N506 C505 1.374 . S
N506 Co507 2.008 . S
Co507 N506 2.008 . S
Co507 N508 1.995 . S
Co507 N513 2.008 . S
Co507 N518 1.995 . S
Co507 N523 2.282 1_554 S
Co507 N529 2.282 . S
N508 Co507 1.995 . S
N508 C509 1.376 . S
N508 C512 1.383 . S
C509 N508 1.376 . S
C509 C510 1.446 . S
C509 C539 1.391 . S
C510 C509 1.446 . S
C510 C511 1.339 . S
C510 H545 0.949 . S
C511 C510 1.339 . S
C511 C512 1.439 . S
C511 H546 0.950 . S
C512 N508 1.383 . S
C512 C511 1.439 . S
C512 C541 1.392 . S
N513 Co507 2.008 . S
N513 C514 1.376 . S
N513 C517 1.374 . S
C514 N513 1.376 . S
C514 C515 1.443 . S
C514 C541 1.389 . S
C515 C514 1.443 . S
C515 C516 1.340 . S
C515 H547 0.951 . S
C516 C515 1.340 . S
C516 C517 1.439 . S
C516 H548 0.950 . S
C517 N513 1.374 . S
C517 C516 1.439 . S
C517 C542 1.395 . S
N518 Co507 1.995 . S
N518 C519 1.376 . S
N518 C522 1.383 1_554 S
C519 N518 1.376 . S
C519 C520 1.446 1_554 S
C519 C542 1.391 . S
C520 C519 1.446 1_556 S
C520 C521 1.339 . S
C520 H549 0.949 . S
C521 C520 1.339 . S
C521 C522 1.439 . S
C521 H550 0.950 . S
C522 N518 1.383 1_556 S
C522 C521 1.439 . S
C522 C540 1.392 . S
N523 Co507 2.282 1_556 S
N523 C526 1.332 . S
N523 C528 1.332 . S
C524 C525 1.386 . S
C524 C527 1.388 . S
C525 C524 1.386 . S
C525 C526 1.382 . S
C525 H551 0.950 . S
C526 N523 1.332 . S
C526 C525 1.382 . S
C526 H537 0.952 . S
C527 C524 1.388 . S
C527 C528 1.382 . S
C527 H552 0.950 . S
C528 N523 1.332 . S
C528 C527 1.382 . S
C528 H538 0.948 1_556 S
N529 Co507 2.282 . S
N529 C533 1.332 . S
N529 C534 1.332 . S
C530 C531 1.388 . S
C530 C534 1.382 . S
C530 H553 0.950 . S
C531 C530 1.388 . S
C531 C532 1.386 . S
C532 C531 1.386 . S
C532 C533 1.382 . S
C532 H554 0.950 . S
C533 N529 1.332 . S
C533 C532 1.382 . S
C533 H535 0.952 . S
C534 N529 1.332 . S
C534 C530 1.382 . S
C534 H536 0.948 . S
H535 C533 0.952 . S
H536 C534 0.948 . S
H537 C526 0.952 . S
H538 C528 0.948 1_554 S
C539 C505 1.395 . S
C539 C509 1.391 . S
C540 C502 1.389 . S
C540 C522 1.392 . S
C541 C512 1.392 . S
C541 C514 1.389 . S
C542 C517 1.395 . S
C542 C519 1.391 . S
H543 C503 0.951 . S
H544 C504 0.950 . S
H545 C510 0.949 . S
H546 C511 0.950 . S
H547 C515 0.951 . S
H548 C516 0.950 . S
H549 C520 0.949 . S
H550 C521 0.950 . S
H551 C525 0.950 . S
H552 C527 0.950 . S
H553 C530 0.950 . S
H554 C532 0.950 . S
C555 C556 1.443 . S
C555 N559 1.376 . S
C555 C593 1.389 . S
C556 C555 1.443 . S
C556 C557 1.340 . S
C556 H596 0.951 . S
C557 C556 1.340 . S
C557 C558 1.439 . S
C557 H597 0.950 . S
C558 C557 1.439 . S
C558 N559 1.374 . S
C558 C592 1.403 . S
N559 C555 1.376 . S
N559 C558 1.374 . S
N559 Co560 2.008 . S
Co560 N559 2.008 . S
Co560 N561 1.995 1_554 S
Co560 N566 2.008 1_554 S
Co560 N571 1.995 . S
Co560 N576 2.282 . S
Co560 N582 2.282 1_554 S
N561 Co560 1.995 1_556 S
N561 C562 1.376 . S
N561 C565 1.383 . S
C562 N561 1.376 . S
C562 C563 1.446 . S
C562 C592 1.384 1_556 S
C563 C562 1.446 . S
C563 C564 1.339 . S
C563 H598 0.949 . S
C564 C563 1.339 . S
C564 C565 1.439 . S
C564 H599 0.950 . S
C565 N561 1.383 . S
C565 C564 1.439 . S
C565 C594 1.392 . S
N566 Co560 2.008 1_556 S
N566 C567 1.376 . S
N566 C570 1.374 1_556 S
C567 N566 1.376 . S
C567 C568 1.443 . S
C567 C594 1.389 . S
C568 C567 1.443 . S
C568 C569 1.340 . S
C568 H600 0.951 . S
C569 C568 1.340 . S
C569 C570 1.439 1_556 S
C569 H601 0.950 . S
C570 N566 1.374 1_554 S
C570 C569 1.439 1_554 S
C570 C595 1.395 . S
N571 Co560 1.995 . S
N571 C572 1.376 . S
N571 C575 1.383 . S
C572 N571 1.376 . S
C572 C573 1.446 . S
C572 C595 1.391 . S
C573 C572 1.446 . S
C573 C574 1.339 . S
C573 H602 0.949 . S
C574 C573 1.339 . S
C574 C575 1.439 . S
C574 H603 0.950 . S
C575 N571 1.383 . S
C575 C574 1.439 . S
C575 C593 1.392 . S
N576 Co560 2.282 . S
N576 C579 1.332 . S
N576 C581 1.332 . S
C577 C578 1.386 . S
C577 C580 1.388 . S
C578 C577 1.386 . S
C578 C579 1.382 . S
C578 H604 0.950 . S
C579 N576 1.332 . S
C579 C578 1.382 . S
C579 H590 0.952 . S
C580 C577 1.388 . S
C580 C581 1.382 . S
C580 H605 0.950 . S
C581 N576 1.332 . S
C581 C580 1.382 . S
C581 H591 0.948 . S
N582 Co560 2.282 1_556 S
N582 C586 1.332 . S
N582 C587 1.332 . S
C583 C584 1.388 . S
C583 C587 1.382 . S
C583 H606 0.950 . S
C584 C583 1.388 . S
C584 C585 1.386 . S
C585 C584 1.386 . S
C585 C586 1.382 . S
C585 H607 0.950 . S
C586 N582 1.332 . S
C586 C585 1.382 . S
C586 H588 0.952 . S
C587 N582 1.332 . S
C587 C583 1.382 . S
C587 H589 0.948 . S
H588 C586 0.952 . S
H589 C587 0.948 . S
H590 C579 0.952 . S
H591 C581 0.948 . S
C592 C558 1.403 . S
C592 C562 1.384 1_554 S
C593 C555 1.389 . S
C593 C575 1.392 . S
C594 C565 1.392 . S
C594 C567 1.389 . S
C595 C570 1.395 . S
C595 C572 1.391 . S
H596 C556 0.951 . S
H597 C557 0.950 . S
H598 C563 0.949 . S
H599 C564 0.950 . S
H600 C568 0.951 . S
H601 C569 0.950 . S
H602 C573 0.949 . S
H603 C574 0.950 . S
H604 C578 0.950 . S
H605 C580 0.950 . S
H606 C583 0.950 . S
H607 C585 0.950 . S
C608 C609 1.349 . S
C608 C610 1.327 . S
C608 H633 0.950 . S
C609 C608 1.349 . S
C609 C625 1.349 . S
C610 C608 1.327 . S
C610 C629 1.429 . S
C610 H634 0.950 . S
C611 C628 1.574 . S
C611 C630 1.368 . S
C611 H635 0.949 . S
H612 C616 0.949 . S
C613 C614 1.349 . S
C613 C615 1.327 . S
C613 H636 0.950 . S
C614 C613 1.349 . S
C614 C626 1.349 . S
C615 C613 1.327 . S
C615 C631 1.429 . S
C615 H637 0.950 . S
C616 H612 0.949 . S
C616 C624 1.574 . S
C616 C632 1.368 . S
H617 C625 0.950 . S
H618 C623 0.950 . S
H619 C624 0.949 . S
H620 C626 0.950 . S
H621 C627 0.950 . S
H622 C628 0.949 . S
C623 H618 0.950 . S
C623 C625 1.327 . S
C623 C629 1.429 . S
C624 C616 1.574 . S
C624 H619 0.949 . S
C624 C630 1.368 . S
C625 C609 1.349 . S
C625 H617 0.950 . S
C625 C623 1.327 . S
C626 C614 1.349 . S
C626 H620 0.950 . S
C626 C627 1.327 . S
C627 H621 0.950 . S
C627 C626 1.327 . S
C627 C631 1.429 . S
C628 C611 1.574 . S
C628 H622 0.949 . S
C628 C632 1.368 . S
C629 C610 1.429 . S
C629 C623 1.429 . S
C629 C630 1.523 . S
C630 C611 1.368 . S
C630 C624 1.368 . S
C630 C629 1.523 . S
C631 C615 1.429 . S
C631 C627 1.429 . S
C631 C632 1.523 . S
C632 C616 1.368 . S
C632 C628 1.368 . S
C632 C631 1.523 . S
H633 C608 0.950 . S
H634 C610 0.950 . S
H635 C611 0.949 . S
H636 C613 0.950 . S
H637 C615 0.950 . S
C638 C639 1.349 . S
C638 C640 1.327 . S
C638 H663 0.950 . S
C639 C638 1.349 . S
C639 C655 1.349 . S
C640 C638 1.327 . S
C640 C659 1.429 . S
C640 H664 0.950 . S
C641 C658 1.574 . S
C641 C660 1.368 . S
C641 H665 0.949 . S
H642 C646 0.949 . S
C643 C644 1.349 . S
C643 C645 1.327 . S
C643 H666 0.950 . S
C644 C643 1.349 . S
C644 C656 1.349 . S
C645 C643 1.327 . S
C645 C661 1.429 . S
C645 H667 0.950 . S
C646 H642 0.949 . S
C646 C654 1.574 . S
C646 C662 1.368 . S
H647 C655 0.950 . S
H648 C653 0.950 . S
H649 C654 0.949 . S
H650 C656 0.950 . S
H651 C657 0.950 . S
H652 C658 0.949 . S
C653 H648 0.950 . S
C653 C655 1.327 . S
C653 C659 1.429 . S
C654 C646 1.574 . S
C654 H649 0.949 . S
C654 C660 1.368 . S
C655 C639 1.349 . S
C655 H647 0.950 . S
C655 C653 1.327 . S
C656 C644 1.349 . S
C656 H650 0.950 . S
C656 C657 1.327 . S
C657 H651 0.950 . S
C657 C656 1.327 . S
C657 C661 1.429 . S
C658 C641 1.574 . S
C658 H652 0.949 . S
C658 C662 1.368 . S
C659 C640 1.429 . S
C659 C653 1.429 . S
C659 C660 1.523 . S
C660 C641 1.368 . S
C660 C654 1.368 . S
C660 C659 1.523 . S
C661 C645 1.429 . S
C661 C657 1.429 . S
C661 C662 1.523 . S
C662 C646 1.368 . S
C662 C658 1.368 . S
C662 C661 1.523 . S
H663 C638 0.950 . S
H664 C640 0.950 . S
H665 C641 0.949 . S
H666 C643 0.950 . S
H667 C645 0.950 . S
C668 C669 1.349 . S
C668 C670 1.327 . S
C668 H693 0.950 . S
C669 C668 1.349 . S
C669 C685 1.349 . S
C670 C668 1.327 . S
C670 C689 1.429 . S
C670 H694 0.950 . S
C671 C688 1.574 . S
C671 C690 1.368 . S
C671 H695 0.949 . S
H672 C676 0.949 . S
C673 C674 1.349 . S
C673 C675 1.327 . S
C673 H696 0.950 . S
C674 C673 1.349 . S
C674 C686 1.349 . S
C675 C673 1.327 . S
C675 C691 1.429 . S
C675 H697 0.950 . S
C676 H672 0.949 . S
C676 C684 1.574 . S
C676 C692 1.368 . S
H677 C685 0.950 . S
H678 C683 0.950 . S
H679 C684 0.949 . S
H680 C686 0.950 . S
H681 C687 0.950 . S
H682 C688 0.949 . S
C683 H678 0.950 . S
C683 C685 1.327 . S
C683 C689 1.429 . S
C684 C676 1.574 . S
C684 H679 0.949 . S
C684 C690 1.368 . S
C685 C669 1.349 . S
C685 H677 0.950 . S
C685 C683 1.327 . S
C686 C674 1.349 . S
C686 H680 0.950 . S
C686 C687 1.327 . S
C687 H681 0.950 . S
C687 C686 1.327 . S
C687 C691 1.429 . S
C688 C671 1.574 . S
C688 H682 0.949 . S
C688 C692 1.368 . S
C689 C670 1.429 . S
C689 C683 1.429 . S
C689 C690 1.523 . S
C690 C671 1.368 . S
C690 C684 1.368 . S
C690 C689 1.523 . S
C691 C675 1.429 . S
C691 C687 1.429 . S
C691 C692 1.523 . S
C692 C676 1.368 . S
C692 C688 1.368 . S
C692 C691 1.523 . S
H693 C668 0.950 . S
H694 C670 0.950 . S
H695 C671 0.949 . S
H696 C673 0.950 . S
H697 C675 0.950 . S
C698 C699 1.349 . S
C698 C700 1.327 . S
C698 H723 0.950 . S
C699 C698 1.349 . S
C699 C715 1.349 . S
C700 C698 1.327 . S
C700 C719 1.429 . S
C700 H724 0.950 . S
C701 C718 1.574 . S
C701 C720 1.368 . S
C701 H725 0.949 . S
H702 C706 0.949 . S
C703 C704 1.349 . S
C703 C705 1.327 . S
C703 H726 0.950 . S
C704 C703 1.349 . S
C704 C716 1.349 . S
C705 C703 1.327 . S
C705 C721 1.429 . S
C705 H727 0.950 . S
C706 H702 0.949 . S
C706 C714 1.574 . S
C706 C722 1.368 . S
H707 C715 0.950 . S
H708 C713 0.950 . S
H709 C714 0.949 . S
H710 C716 0.950 . S
H711 C717 0.950 . S
H712 C718 0.949 . S
C713 H708 0.950 . S
C713 C715 1.327 . S
C713 C719 1.429 . S
C714 C706 1.574 . S
C714 H709 0.949 . S
C714 C720 1.368 . S
C715 C699 1.349 . S
C715 H707 0.950 . S
C715 C713 1.327 . S
C716 C704 1.349 . S
C716 H710 0.950 . S
C716 C717 1.327 . S
C717 H711 0.950 . S
C717 C716 1.327 . S
C717 C721 1.429 . S
C718 C701 1.574 . S
C718 H712 0.949 . S
C718 C722 1.368 . S
C719 C700 1.429 . S
C719 C713 1.429 . S
C719 C720 1.523 . S
C720 C701 1.368 . S
C720 C714 1.368 . S
C720 C719 1.523 . S
C721 C705 1.429 . S
C721 C717 1.429 . S
C721 C722 1.523 . S
C722 C706 1.368 . S
C722 C718 1.368 . S
C722 C721 1.523 . S
H723 C698 0.950 . S
H724 C700 0.950 . S
H725 C701 0.949 . S
H726 C703 0.950 . S
H727 C705 0.950 . S
C728 C729 1.349 . S
C728 C730 1.327 . S
C728 H753 0.950 . S
C729 C728 1.349 . S
C729 C745 1.349 . S
C730 C728 1.327 . S
C730 C749 1.429 . S
C730 H754 0.950 . S
C731 C748 1.574 . S
C731 C750 1.368 . S
C731 H755 0.949 . S
H732 C736 0.949 . S
C733 C734 1.349 . S
C733 C735 1.327 . S
C733 H756 0.950 . S
C734 C733 1.349 . S
C734 C746 1.349 . S
C735 C733 1.327 . S
C735 C751 1.429 . S
C735 H757 0.950 . S
C736 H732 0.949 . S
C736 C744 1.574 . S
C736 C752 1.368 . S
H737 C745 0.950 . S
H738 C743 0.950 . S
H739 C744 0.949 . S
H740 C746 0.950 . S
H741 C747 0.950 . S
H742 C748 0.949 . S
C743 H738 0.950 . S
C743 C745 1.327 . S
C743 C749 1.429 . S
C744 C736 1.574 . S
C744 H739 0.949 . S
C744 C750 1.368 . S
C745 C729 1.349 . S
C745 H737 0.950 . S
C745 C743 1.327 . S
C746 C734 1.349 . S
C746 H740 0.950 . S
C746 C747 1.327 . S
C747 H741 0.950 . S
C747 C746 1.327 . S
C747 C751 1.429 . S
C748 C731 1.574 . S
C748 H742 0.949 . S
C748 C752 1.368 . S
C749 C730 1.429 . S
C749 C743 1.429 . S
C749 C750 1.523 . S
C750 C731 1.368 . S
C750 C744 1.368 . S
C750 C749 1.523 . S
C751 C735 1.429 . S
C751 C747 1.429 . S
C751 C752 1.523 . S
C752 C736 1.368 . S
C752 C748 1.368 . S
C752 C751 1.523 . S
H753 C728 0.950 . S
H754 C730 0.950 . S
H755 C731 0.949 . S
H756 C733 0.950 . S
H757 C735 0.950 . S
C758 C759 1.349 . S
C758 C760 1.327 . S
C758 H783 0.950 . S
C759 C758 1.349 . S
C759 C775 1.349 . S
C760 C758 1.327 . S
C760 C779 1.429 . S
C760 H784 0.950 . S
C761 C778 1.574 . S
C761 C780 1.368 . S
C761 H785 0.949 . S
H762 C766 0.949 . S
C763 C764 1.349 . S
C763 C765 1.327 . S
C763 H786 0.950 . S
C764 C763 1.349 . S
C764 C776 1.349 . S
C765 C763 1.327 . S
C765 C781 1.429 . S
C765 H787 0.950 . S
C766 H762 0.949 . S
C766 C774 1.574 . S
C766 C782 1.368 . S
H767 C775 0.950 . S
H768 C773 0.950 . S
H769 C774 0.949 . S
H770 C776 0.950 . S
H771 C777 0.950 . S
H772 C778 0.949 . S
C773 H768 0.950 . S
C773 C775 1.327 . S
C773 C779 1.429 . S
C774 C766 1.574 . S
C774 H769 0.949 . S
C774 C780 1.368 . S
C775 C759 1.349 . S
C775 H767 0.950 . S
C775 C773 1.327 . S
C776 C764 1.349 . S
C776 H770 0.950 . S
C776 C777 1.327 . S
C777 H771 0.950 . S
C777 C776 1.327 . S
C777 C781 1.429 . S
C778 C761 1.574 . S
C778 H772 0.949 . S
C778 C782 1.368 . S
C779 C760 1.429 . S
C779 C773 1.429 . S
C779 C780 1.523 . S
C780 C761 1.368 . S
C780 C774 1.368 . S
C780 C779 1.523 . S
C781 C765 1.429 . S
C781 C777 1.429 . S
C781 C782 1.523 . S
C782 C766 1.368 . S
C782 C778 1.368 . S
C782 C781 1.523 . S
H783 C758 0.950 . S
H784 C760 0.950 . S
H785 C761 0.949 . S
H786 C763 0.950 . S
H787 C765 0.950 . S
C788 C789 1.349 . S
C788 C790 1.327 . S
C788 H813 0.950 . S
C789 C788 1.349 . S
C789 C805 1.349 . S
C790 C788 1.327 . S
C790 C809 1.429 . S
C790 H814 0.950 . S
C791 C808 1.574 . S
C791 C810 1.368 . S
C791 H815 0.949 . S
H792 C796 0.949 . S
C793 C794 1.349 . S
C793 C795 1.327 . S
C793 H816 0.950 . S
C794 C793 1.349 . S
C794 C806 1.349 . S
C795 C793 1.327 . S
C795 C811 1.429 . S
C795 H817 0.950 . S
C796 H792 0.949 . S
C796 C804 1.574 . S
C796 C812 1.368 . S
H797 C805 0.950 . S
H798 C803 0.950 . S
H799 C804 0.949 . S
H800 C806 0.950 . S
H801 C807 0.950 . S
H802 C808 0.949 . S
C803 H798 0.950 . S
C803 C805 1.327 . S
C803 C809 1.429 . S
C804 C796 1.574 . S
C804 H799 0.949 . S
C804 C810 1.368 . S
C805 C789 1.349 . S
C805 H797 0.950 . S
C805 C803 1.327 . S
C806 C794 1.349 . S
C806 H800 0.950 . S
C806 C807 1.327 . S
C807 H801 0.950 . S
C807 C806 1.327 . S
C807 C811 1.429 . S
C808 C791 1.574 . S
C808 H802 0.949 . S
C808 C812 1.368 . S
C809 C790 1.429 . S
C809 C803 1.429 . S
C809 C810 1.523 . S
C810 C791 1.368 . S
C810 C804 1.368 . S
C810 C809 1.523 . S
C811 C795 1.429 . S
C811 C807 1.429 . S
C811 C812 1.523 . S
C812 C796 1.368 . S
C812 C808 1.368 . S
C812 C811 1.523 . S
H813 C788 0.950 . S
H814 C790 0.950 . S
H815 C791 0.949 . S
H816 C793 0.950 . S
H817 C795 0.950 . S
C818 C819 1.349 . S
C818 C820 1.327 . S
C818 H843 0.950 . S
C819 C818 1.349 . S
C819 C835 1.349 . S
C820 C818 1.327 . S
C820 C839 1.429 . S
C820 H844 0.950 . S
C821 C838 1.574 . S
C821 C840 1.368 . S
C821 H845 0.949 . S
H822 C826 0.949 . S
C823 C824 1.349 . S
C823 C825 1.327 . S
C823 H846 0.950 . S
C824 C823 1.349 . S
C824 C836 1.349 . S
C825 C823 1.327 . S
C825 C841 1.429 . S
C825 H847 0.950 . S
C826 H822 0.949 . S
C826 C834 1.574 . S
C826 C842 1.368 . S
H827 C835 0.950 . S
H828 C833 0.950 . S
H829 C834 0.949 . S
H830 C836 0.950 . S
H831 C837 0.950 . S
H832 C838 0.949 . S
C833 H828 0.950 . S
C833 C835 1.327 . S
C833 C839 1.429 . S
C834 C826 1.574 . S
C834 H829 0.949 . S
C834 C840 1.368 . S
C835 C819 1.349 . S
C835 H827 0.950 . S
C835 C833 1.327 . S
C836 C824 1.349 . S
C836 H830 0.950 . S
C836 C837 1.327 . S
C837 H831 0.950 . S
C837 C836 1.327 . S
C837 C841 1.429 . S
C838 C821 1.574 . S
C838 H832 0.949 . S
C838 C842 1.368 . S
C839 C820 1.429 . S
C839 C833 1.429 . S
C839 C840 1.523 . S
C840 C821 1.368 . S
C840 C834 1.368 . S
C840 C839 1.523 . S
C841 C825 1.429 . S
C841 C837 1.429 . S
C841 C842 1.523 . S
C842 C826 1.368 . S
C842 C838 1.368 . S
C842 C841 1.523 . S
H843 C818 0.950 . S
H844 C820 0.950 . S
H845 C821 0.949 . S
H846 C823 0.950 . S
H847 C825 0.950 . S
C848 C849 1.349 . S
C848 C850 1.327 . S
C848 H873 0.950 . S
C849 C848 1.349 . S
C849 C865 1.349 . S
C850 C848 1.327 . S
C850 C869 1.429 . S
C850 H874 0.950 . S
C851 C868 1.574 . S
C851 C870 1.368 . S
C851 H875 0.949 . S
H852 C856 0.949 . S
C853 C854 1.349 . S
C853 C855 1.327 . S
C853 H876 0.950 . S
C854 C853 1.349 . S
C854 C866 1.349 . S
C855 C853 1.327 . S
C855 C871 1.429 . S
C855 H877 0.950 . S
C856 H852 0.949 . S
C856 C864 1.574 . S
C856 C872 1.368 . S
H857 C865 0.950 . S
H858 C863 0.950 . S
H859 C864 0.949 . S
H860 C866 0.950 . S
H861 C867 0.950 . S
H862 C868 0.949 . S
C863 H858 0.950 . S
C863 C865 1.327 . S
C863 C869 1.429 . S
C864 C856 1.574 . S
C864 H859 0.949 . S
C864 C870 1.368 . S
C865 C849 1.349 . S
C865 H857 0.950 . S
C865 C863 1.327 . S
C866 C854 1.349 . S
C866 H860 0.950 . S
C866 C867 1.327 . S
C867 H861 0.950 . S
C867 C866 1.327 . S
C867 C871 1.429 . S
C868 C851 1.574 . S
C868 H862 0.949 . S
C868 C872 1.368 . S
C869 C850 1.429 . S
C869 C863 1.429 . S
C869 C870 1.523 . S
C870 C851 1.368 . S
C870 C864 1.368 . S
C870 C869 1.523 . S
C871 C855 1.429 . S
C871 C867 1.429 . S
C871 C872 1.523 . S
C872 C856 1.368 . S
C872 C868 1.368 . S
C872 C871 1.523 . S
H873 C848 0.950 . S
H874 C850 0.950 . S
H875 C851 0.949 . S
H876 C853 0.950 . S
H877 C855 0.950 . S
C878 C879 1.349 . S
C878 C880 1.327 . S
C878 H903 0.950 . S
C879 C878 1.349 . S
C879 C895 1.349 . S
C880 C878 1.327 . S
C880 C899 1.429 . S
C880 H904 0.950 . S
C881 C898 1.574 . S
C881 C900 1.368 . S
C881 H905 0.949 . S
H882 C886 0.949 . S
C883 C884 1.349 . S
C883 C885 1.327 . S
C883 H906 0.950 . S
C884 C883 1.349 . S
C884 C896 1.349 . S
C885 C883 1.327 . S
C885 C901 1.429 . S
C885 H907 0.950 . S
C886 H882 0.949 . S
C886 C894 1.574 . S
C886 C902 1.368 . S
H887 C895 0.950 . S
H888 C893 0.950 . S
H889 C894 0.949 . S
H890 C896 0.950 . S
H891 C897 0.950 . S
H892 C898 0.949 . S
C893 H888 0.950 . S
C893 C895 1.327 . S
C893 C899 1.429 . S
C894 C886 1.574 . S
C894 H889 0.949 . S
C894 C900 1.368 . S
C895 C879 1.349 . S
C895 H887 0.950 . S
C895 C893 1.327 . S
C896 C884 1.349 . S
C896 H890 0.950 . S
C896 C897 1.327 . S
C897 H891 0.950 . S
C897 C896 1.327 . S
C897 C901 1.429 . S
C898 C881 1.574 . S
C898 H892 0.949 . S
C898 C902 1.368 . S
C899 C880 1.429 . S
C899 C893 1.429 . S
C899 C900 1.523 . S
C900 C881 1.368 . S
C900 C894 1.368 . S
C900 C899 1.523 . S
C901 C885 1.429 . S
C901 C897 1.429 . S
C901 C902 1.523 . S
C902 C886 1.368 . S
C902 C898 1.368 . S
C902 C901 1.523 . S
H903 C878 0.950 . S
H904 C880 0.950 . S
H905 C881 0.949 . S
H906 C883 0.950 . S
H907 C885 0.950 . S
C908 C909 1.349 . S
C908 C910 1.327 . S
C908 H933 0.950 . S
C909 C908 1.349 . S
C909 C925 1.349 . S
C910 C908 1.327 . S
C910 C929 1.429 . S
C910 H934 0.950 . S
C911 C928 1.574 . S
C911 C930 1.368 . S
C911 H935 0.949 . S
H912 C916 0.949 . S
C913 C914 1.349 . S
C913 C915 1.327 . S
C913 H936 0.950 . S
C914 C913 1.349 . S
C914 C926 1.349 . S
C915 C913 1.327 . S
C915 C931 1.429 . S
C915 H937 0.950 . S
C916 H912 0.949 . S
C916 C924 1.574 . S
C916 C932 1.368 . S
H917 C925 0.950 . S
H918 C923 0.950 . S
H919 C924 0.949 . S
H920 C926 0.950 . S
H921 C927 0.950 . S
H922 C928 0.949 . S
C923 H918 0.950 . S
C923 C925 1.327 . S
C923 C929 1.429 . S
C924 C916 1.574 . S
C924 H919 0.949 . S
C924 C930 1.368 . S
C925 C909 1.349 . S
C925 H917 0.950 . S
C925 C923 1.327 . S
C926 C914 1.349 . S
C926 H920 0.950 . S
C926 C927 1.327 . S
C927 H921 0.950 . S
C927 C926 1.327 . S
C927 C931 1.429 . S
C928 C911 1.574 . S
C928 H922 0.949 . S
C928 C932 1.368 . S
C929 C910 1.429 . S
C929 C923 1.429 . S
C929 C930 1.523 . S
C930 C911 1.368 . S
C930 C924 1.368 . S
C930 C929 1.523 . S
C931 C915 1.429 . S
C931 C927 1.429 . S
C931 C932 1.523 . S
C932 C916 1.368 . S
C932 C928 1.368 . S
C932 C931 1.523 . S
H933 C908 0.950 . S
H934 C910 0.950 . S
H935 C911 0.949 . S
H936 C913 0.950 . S
H937 C915 0.950 . S
C938 C939 1.349 . S
C938 C940 1.327 . S
C938 H963 0.950 . S
C939 C938 1.349 . S
C939 C955 1.349 . S
C940 C938 1.327 . S
C940 C959 1.429 . S
C940 H964 0.950 . S
C941 C958 1.574 . S
C941 C960 1.368 . S
C941 H965 0.949 . S
H942 C946 0.949 . S
C943 C944 1.349 . S
C943 C945 1.327 . S
C943 H966 0.950 . S
C944 C943 1.349 . S
C944 C956 1.349 . S
C945 C943 1.327 . S
C945 C961 1.429 . S
C945 H967 0.950 . S
C946 H942 0.949 . S
C946 C954 1.574 . S
C946 C962 1.368 . S
H947 C955 0.950 . S
H948 C953 0.950 . S
H949 C954 0.949 . S
H950 C956 0.950 . S
H951 C957 0.950 . S
H952 C958 0.949 . S
C953 H948 0.950 . S
C953 C955 1.327 . S
C953 C959 1.429 . S
C954 C946 1.574 . S
C954 H949 0.949 . S
C954 C960 1.368 . S
C955 C939 1.349 . S
C955 H947 0.950 . S
C955 C953 1.327 . S
C956 C944 1.349 . S
C956 H950 0.950 . S
C956 C957 1.327 . S
C957 H951 0.950 . S
C957 C956 1.327 . S
C957 C961 1.429 . S
C958 C941 1.574 . S
C958 H952 0.949 . S
C958 C962 1.368 . S
C959 C940 1.429 . S
C959 C953 1.429 . S
C959 C960 1.523 . S
C960 C941 1.368 . S
C960 C954 1.368 . S
C960 C959 1.523 . S
C961 C945 1.429 . S
C961 C957 1.429 . S
C961 C962 1.523 . S
C962 C946 1.368 . S
C962 C958 1.368 . S
C962 C961 1.523 . S
H963 C938 0.950 . S
H964 C940 0.950 . S
H965 C941 0.949 . S
H966 C943 0.950 . S
H967 C945 0.950 . S
C968 C969 1.349 . S
C968 C970 1.327 . S
C968 H993 0.950 . S
C969 C968 1.349 . S
C969 C985 1.349 . S
C970 C968 1.327 . S
C970 C989 1.429 . S
C970 H994 0.950 . S
C971 C988 1.574 . S
C971 C990 1.368 . S
C971 H995 0.949 . S
H972 C976 0.949 . S
C973 C974 1.349 . S
C973 C975 1.327 . S
C973 H996 0.950 . S
C974 C973 1.349 . S
C974 C986 1.349 . S
C975 C973 1.327 . S
C975 C991 1.429 . S
C975 H997 0.950 . S
C976 H972 0.949 . S
C976 C984 1.574 . S
C976 C992 1.368 . S
H977 C985 0.950 . S
H978 C983 0.950 . S
H979 C984 0.949 . S
H980 C986 0.950 . S
H981 C987 0.950 . S
H982 C988 0.949 . S
C983 H978 0.950 . S
C983 C985 1.327 . S
C983 C989 1.429 . S
C984 C976 1.574 . S
C984 H979 0.949 . S
C984 C990 1.368 . S
C985 C969 1.349 . S
C985 H977 0.950 . S
C985 C983 1.327 . S
C986 C974 1.349 . S
C986 H980 0.950 . S
C986 C987 1.327 . S
C987 H981 0.950 . S
C987 C986 1.327 . S
C987 C991 1.429 . S
C988 C971 1.574 . S
C988 H982 0.949 . S
C988 C992 1.368 . S
C989 C970 1.429 . S
C989 C983 1.429 . S
C989 C990 1.523 . S
C990 C971 1.368 . S
C990 C984 1.368 . S
C990 C989 1.523 . S
C991 C975 1.429 . S
C991 C987 1.429 . S
C991 C992 1.523 . S
C992 C976 1.368 . S
C992 C988 1.368 . S
C992 C991 1.523 . S
H993 C968 0.950 . S
H994 C970 0.950 . S
H995 C971 0.949 . S
H996 C973 0.950 . S
H997 C975 0.950 . S
C998 C999 1.349 . S
C998 C1000 1.327 . S
C998 H1023 0.950 . S
C999 C998 1.349 . S
C999 C1015 1.349 . S
C1000 C998 1.327 . S
C1000 C1019 1.429 . S
C1000 H1024 0.950 . S
C1001 C1018 1.574 . S
C1001 C1020 1.368 . S
C1001 H1025 0.949 . S
H1002 C1006 0.949 . S
C1003 C1004 1.349 . S
C1003 C1005 1.327 . S
C1003 H1026 0.950 . S
C1004 C1003 1.349 . S
C1004 C1016 1.349 . S
C1005 C1003 1.327 . S
C1005 C1021 1.429 . S
C1005 H1027 0.950 . S
C1006 H1002 0.949 . S
C1006 C1014 1.574 . S
C1006 C1022 1.368 . S
H1007 C1015 0.950 . S
H1008 C1013 0.950 . S
H1009 C1014 0.949 . S
H1010 C1016 0.950 . S
H1011 C1017 0.950 . S
H1012 C1018 0.949 . S
C1013 H1008 0.950 . S
C1013 C1015 1.327 . S
C1013 C1019 1.429 . S
C1014 C1006 1.574 . S
C1014 H1009 0.949 . S
C1014 C1020 1.368 . S
C1015 C999 1.349 . S
C1015 H1007 0.950 . S
C1015 C1013 1.327 . S
C1016 C1004 1.349 . S
C1016 H1010 0.950 . S
C1016 C1017 1.327 . S
C1017 H1011 0.950 . S
C1017 C1016 1.327 . S
C1017 C1021 1.429 . S
C1018 C1001 1.574 . S
C1018 H1012 0.949 . S
C1018 C1022 1.368 . S
C1019 C1000 1.429 . S
C1019 C1013 1.429 . S
C1019 C1020 1.523 . S
C1020 C1001 1.368 . S
C1020 C1014 1.368 . S
C1020 C1019 1.523 . S
C1021 C1005 1.429 . S
C1021 C1017 1.429 . S
C1021 C1022 1.523 . S
C1022 C1006 1.368 . S
C1022 C1018 1.368 . S
C1022 C1021 1.523 . S
H1023 C998 0.950 . S
H1024 C1000 0.950 . S
H1025 C1001 0.949 . S
H1026 C1003 0.950 . S
H1027 C1005 0.950 . S
C1028 C1029 1.349 . S
C1028 C1030 1.327 . S
C1028 H1053 0.950 . S
C1029 C1028 1.349 . S
C1029 C1045 1.349 . S
C1030 C1028 1.327 . S
C1030 C1049 1.429 . S
C1030 H1054 0.950 . S
C1031 C1048 1.574 . S
C1031 C1050 1.368 . S
C1031 H1055 0.949 . S
H1032 C1036 0.949 . S
C1033 C1034 1.349 . S
C1033 C1035 1.327 . S
C1033 H1056 0.950 . S
C1034 C1033 1.349 . S
C1034 C1046 1.349 . S
C1035 C1033 1.327 . S
C1035 C1051 1.429 . S
C1035 H1057 0.950 . S
C1036 H1032 0.949 . S
C1036 C1044 1.574 . S
C1036 C1052 1.368 . S
H1037 C1045 0.950 . S
H1038 C1043 0.950 . S
H1039 C1044 0.949 . S
H1040 C1046 0.950 . S
H1041 C1047 0.950 . S
H1042 C1048 0.949 . S
C1043 H1038 0.950 . S
C1043 C1045 1.327 . S
C1043 C1049 1.429 . S
C1044 C1036 1.574 . S
C1044 H1039 0.949 . S
C1044 C1050 1.368 . S
C1045 C1029 1.349 . S
C1045 H1037 0.950 . S
C1045 C1043 1.327 . S
C1046 C1034 1.349 . S
C1046 H1040 0.950 . S
C1046 C1047 1.327 . S
C1047 H1041 0.950 . S
C1047 C1046 1.327 . S
C1047 C1051 1.429 . S
C1048 C1031 1.574 . S
C1048 H1042 0.949 . S
C1048 C1052 1.368 . S
C1049 C1030 1.429 . S
C1049 C1043 1.429 . S
C1049 C1050 1.523 . S
C1050 C1031 1.368 . S
C1050 C1044 1.368 . S
C1050 C1049 1.523 . S
C1051 C1035 1.429 . S
C1051 C1047 1.429 . S
C1051 C1052 1.523 . S
C1052 C1036 1.368 . S
C1052 C1048 1.368 . S
C1052 C1051 1.523 . S
H1053 C1028 0.950 . S
H1054 C1030 0.950 . S
H1055 C1031 0.949 . S
H1056 C1033 0.950 . S
H1057 C1035 0.950 . S
C1058 C1059 1.349 . S
C1058 C1060 1.327 . S
C1058 H1083 0.950 . S
C1059 C1058 1.349 . S
C1059 C1075 1.349 . S
C1060 C1058 1.327 . S
C1060 C1079 1.429 . S
C1060 H1084 0.950 . S
C1061 C1078 1.574 . S
C1061 C1080 1.368 . S
C1061 H1085 0.949 . S
H1062 C1066 0.949 . S
C1063 C1064 1.349 . S
C1063 C1065 1.327 . S
C1063 H1086 0.950 . S
C1064 C1063 1.349 . S
C1064 C1076 1.349 . S
C1065 C1063 1.327 . S
C1065 C1081 1.429 . S
C1065 H1087 0.950 . S
C1066 H1062 0.949 . S
C1066 C1074 1.574 . S
C1066 C1082 1.368 . S
H1067 C1075 0.950 . S
H1068 C1073 0.950 . S
H1069 C1074 0.949 . S
H1070 C1076 0.950 . S
H1071 C1077 0.950 . S
H1072 C1078 0.949 . S
C1073 H1068 0.950 . S
C1073 C1075 1.327 . S
C1073 C1079 1.429 . S
C1074 C1066 1.574 . S
C1074 H1069 0.949 . S
C1074 C1080 1.368 . S
C1075 C1059 1.349 . S
C1075 H1067 0.950 . S
C1075 C1073 1.327 . S
C1076 C1064 1.349 . S
C1076 H1070 0.950 . S
C1076 C1077 1.327 . S
C1077 H1071 0.950 . S
C1077 C1076 1.327 . S
C1077 C1081 1.429 . S
C1078 C1061 1.574 . S
C1078 H1072 0.949 . S
C1078 C1082 1.368 . S
C1079 C1060 1.429 . S
C1079 C1073 1.429 . S
C1079 C1080 1.523 . S
C1080 C1061 1.368 . S
C1080 C1074 1.368 . S
C1080 C1079 1.523 . S
C1081 C1065 1.429 . S
C1081 C1077 1.429 . S
C1081 C1082 1.523 . S
C1082 C1066 1.368 . S
C1082 C1078 1.368 . S
C1082 C1081 1.523 . S
H1083 C1058 0.950 . S
H1084 C1060 0.950 . S
H1085 C1061 0.949 . S
H1086 C1063 0.950 . S
H1087 C1065 0.950 . S
C1088 C1089 1.349 . S
C1088 C1090 1.327 . S
C1088 H1113 0.950 . S
C1089 C1088 1.349 . S
C1089 C1105 1.349 . S
C1090 C1088 1.327 . S
C1090 C1109 1.429 . S
C1090 H1114 0.950 . S
C1091 C1108 1.574 . S
C1091 C1110 1.368 . S
C1091 H1115 0.949 . S
H1092 C1096 0.949 . S
C1093 C1094 1.349 . S
C1093 C1095 1.327 . S
C1093 H1116 0.950 . S
C1094 C1093 1.349 . S
C1094 C1106 1.349 . S
C1095 C1093 1.327 . S
C1095 C1111 1.429 . S
C1095 H1117 0.950 . S
C1096 H1092 0.949 . S
C1096 C1104 1.574 . S
C1096 C1112 1.368 . S
H1097 C1105 0.950 . S
H1098 C1103 0.950 . S
H1099 C1104 0.949 . S
H1100 C1106 0.950 . S
H1101 C1107 0.950 . S
H1102 C1108 0.949 . S
C1103 H1098 0.950 . S
C1103 C1105 1.327 . S
C1103 C1109 1.429 . S
C1104 C1096 1.574 . S
C1104 H1099 0.949 . S
C1104 C1110 1.368 . S
C1105 C1089 1.349 . S
C1105 H1097 0.950 . S
C1105 C1103 1.327 . S
C1106 C1094 1.349 . S
C1106 H1100 0.950 . S
C1106 C1107 1.327 . S
C1107 H1101 0.950 . S
C1107 C1106 1.327 . S
C1107 C1111 1.429 . S
C1108 C1091 1.574 . S
C1108 H1102 0.949 . S
C1108 C1112 1.368 . S
C1109 C1090 1.429 . S
C1109 C1103 1.429 . S
C1109 C1110 1.523 . S
C1110 C1091 1.368 . S
C1110 C1104 1.368 . S
C1110 C1109 1.523 . S
C1111 C1095 1.429 . S
C1111 C1107 1.429 . S
C1111 C1112 1.523 . S
C1112 C1096 1.368 . S
C1112 C1108 1.368 . S
C1112 C1111 1.523 . S
H1113 C1088 0.950 . S
H1114 C1090 0.950 . S
H1115 C1091 0.949 . S
H1116 C1093 0.950 . S
H1117 C1095 0.950 . S
C1118 C1119 1.349 . S
C1118 C1120 1.327 . S
C1118 H1143 0.950 . S
C1119 C1118 1.349 . S
C1119 C1135 1.349 . S
C1120 C1118 1.327 . S
C1120 C1139 1.429 . S
C1120 H1144 0.950 . S
C1121 C1138 1.574 . S
C1121 C1140 1.368 . S
C1121 H1145 0.949 . S
H1122 C1126 0.949 . S
C1123 C1124 1.349 . S
C1123 C1125 1.327 . S
C1123 H1146 0.950 . S
C1124 C1123 1.349 . S
C1124 C1136 1.349 . S
C1125 C1123 1.327 . S
C1125 C1141 1.429 . S
C1125 H1147 0.950 . S
C1126 H1122 0.949 . S
C1126 C1134 1.574 . S
C1126 C1142 1.368 . S
H1127 C1135 0.950 . S
H1128 C1133 0.950 . S
H1129 C1134 0.949 . S
H1130 C1136 0.950 . S
H1131 C1137 0.950 . S
H1132 C1138 0.949 . S
C1133 H1128 0.950 . S
C1133 C1135 1.327 . S
C1133 C1139 1.429 . S
C1134 C1126 1.574 . S
C1134 H1129 0.949 . S
C1134 C1140 1.368 . S
C1135 C1119 1.349 . S
C1135 H1127 0.950 . S
C1135 C1133 1.327 . S
C1136 C1124 1.349 . S
C1136 H1130 0.950 . S
C1136 C1137 1.327 . S
C1137 H1131 0.950 . S
C1137 C1136 1.327 . S
C1137 C1141 1.429 . S
C1138 C1121 1.574 . S
C1138 H1132 0.949 . S
C1138 C1142 1.368 . S
C1139 C1120 1.429 . S
C1139 C1133 1.429 . S
C1139 C1140 1.523 . S
C1140 C1121 1.368 . S
C1140 C1134 1.368 . S
C1140 C1139 1.523 . S
C1141 C1125 1.429 . S
C1141 C1137 1.429 . S
C1141 C1142 1.523 . S
C1142 C1126 1.368 . S
C1142 C1138 1.368 . S
C1142 C1141 1.523 . S
H1143 C1118 0.950 . S
H1144 C1120 0.950 . S
H1145 C1121 0.949 . S
H1146 C1123 0.950 . S
H1147 C1125 0.950 . S
C1148 C1149 1.349 . S
C1148 C1150 1.327 . S
C1148 H1173 0.950 . S
C1149 C1148 1.349 . S
C1149 C1165 1.349 . S
C1150 C1148 1.327 . S
C1150 C1169 1.429 . S
C1150 H1174 0.950 . S
C1151 C1168 1.574 . S
C1151 C1170 1.368 . S
C1151 H1175 0.949 . S
H1152 C1156 0.949 . S
C1153 C1154 1.349 . S
C1153 C1155 1.327 . S
C1153 H1176 0.950 . S
C1154 C1153 1.349 . S
C1154 C1166 1.349 . S
C1155 C1153 1.327 . S
C1155 C1171 1.429 . S
C1155 H1177 0.950 . S
C1156 H1152 0.949 . S
C1156 C1164 1.574 . S
C1156 C1172 1.368 . S
H1157 C1165 0.950 . S
H1158 C1163 0.950 . S
H1159 C1164 0.949 . S
H1160 C1166 0.950 . S
H1161 C1167 0.950 . S
H1162 C1168 0.949 . S
C1163 H1158 0.950 . S
C1163 C1165 1.327 . S
C1163 C1169 1.429 . S
C1164 C1156 1.574 . S
C1164 H1159 0.949 . S
C1164 C1170 1.368 . S
C1165 C1149 1.349 . S
C1165 H1157 0.950 . S
C1165 C1163 1.327 . S
C1166 C1154 1.349 . S
C1166 H1160 0.950 . S
C1166 C1167 1.327 . S
C1167 H1161 0.950 . S
C1167 C1166 1.327 . S
C1167 C1171 1.429 . S
C1168 C1151 1.574 . S
C1168 H1162 0.949 . S
C1168 C1172 1.368 . S
C1169 C1150 1.429 . S
C1169 C1163 1.429 . S
C1169 C1170 1.523 . S
C1170 C1151 1.368 . S
C1170 C1164 1.368 . S
C1170 C1169 1.523 . S
C1171 C1155 1.429 . S
C1171 C1167 1.429 . S
C1171 C1172 1.523 . S
C1172 C1156 1.368 . S
C1172 C1168 1.368 . S
C1172 C1171 1.523 . S
H1173 C1148 0.950 . S
H1174 C1150 0.950 . S
H1175 C1151 0.949 . S
H1176 C1153 0.950 . S
H1177 C1155 0.950 . S
C1178 C1179 1.349 . S
C1178 C1180 1.327 . S
C1178 H1203 0.950 . S
C1179 C1178 1.349 . S
C1179 C1195 1.349 . S
C1180 C1178 1.327 . S
C1180 C1199 1.429 . S
C1180 H1204 0.950 . S
C1181 C1198 1.574 . S
C1181 C1200 1.368 . S
C1181 H1205 0.949 . S
H1182 C1186 0.949 . S
C1183 C1184 1.349 . S
C1183 C1185 1.327 . S
C1183 H1206 0.950 . S
C1184 C1183 1.349 . S
C1184 C1196 1.349 . S
C1185 C1183 1.327 . S
C1185 C1201 1.429 . S
C1185 H1207 0.950 . S
C1186 H1182 0.949 . S
C1186 C1194 1.574 . S
C1186 C1202 1.368 . S
H1187 C1195 0.950 . S
H1188 C1193 0.950 . S
H1189 C1194 0.949 . S
H1190 C1196 0.950 . S
H1191 C1197 0.950 . S
H1192 C1198 0.949 . S
C1193 H1188 0.950 . S
C1193 C1195 1.327 . S
C1193 C1199 1.429 . S
C1194 C1186 1.574 . S
C1194 H1189 0.949 . S
C1194 C1200 1.368 . S
C1195 C1179 1.349 . S
C1195 H1187 0.950 . S
C1195 C1193 1.327 . S
C1196 C1184 1.349 . S
C1196 H1190 0.950 . S
C1196 C1197 1.327 . S
C1197 H1191 0.950 . S
C1197 C1196 1.327 . S
C1197 C1201 1.429 . S
C1198 C1181 1.574 . S
C1198 H1192 0.949 . S
C1198 C1202 1.368 . S
C1199 C1180 1.429 . S
C1199 C1193 1.429 . S
C1199 C1200 1.523 . S
C1200 C1181 1.368 . S
C1200 C1194 1.368 . S
C1200 C1199 1.523 . S
C1201 C1185 1.429 . S
C1201 C1197 1.429 . S
C1201 C1202 1.523 . S
C1202 C1186 1.368 . S
C1202 C1198 1.368 . S
C1202 C1201 1.523 . S
H1203 C1178 0.950 . S
H1204 C1180 0.950 . S
H1205 C1181 0.949 . S
H1206 C1183 0.950 . S
H1207 C1185 0.950 . S
C1208 C1209 1.349 . S
C1208 C1210 1.327 . S
C1208 H1233 0.950 . S
C1209 C1208 1.349 . S
C1209 C1225 1.349 . S
C1210 C1208 1.327 . S
C1210 C1229 1.429 . S
C1210 H1234 0.950 . S
C1211 C1228 1.574 . S
C1211 C1230 1.368 . S
C1211 H1235 0.949 . S
H1212 C1216 0.949 . S
C1213 C1214 1.349 . S
C1213 C1215 1.327 . S
C1213 H1236 0.950 . S
C1214 C1213 1.349 . S
C1214 C1226 1.349 . S
C1215 C1213 1.327 . S
C1215 C1231 1.429 . S
C1215 H1237 0.950 . S
C1216 H1212 0.949 . S
C1216 C1224 1.574 . S
C1216 C1232 1.368 . S
H1217 C1225 0.950 . S
H1218 C1223 0.950 . S
H1219 C1224 0.949 . S
H1220 C1226 0.950 . S
H1221 C1227 0.950 . S
H1222 C1228 0.949 . S
C1223 H1218 0.950 . S
C1223 C1225 1.327 . S
C1223 C1229 1.429 . S
C1224 C1216 1.574 . S
C1224 H1219 0.949 . S
C1224 C1230 1.368 . S
C1225 C1209 1.349 . S
C1225 H1217 0.950 . S
C1225 C1223 1.327 . S
C1226 C1214 1.349 . S
C1226 H1220 0.950 . S
C1226 C1227 1.327 . S
C1227 H1221 0.950 . S
C1227 C1226 1.327 . S
C1227 C1231 1.429 . S
C1228 C1211 1.574 . S
C1228 H1222 0.949 . S
C1228 C1232 1.368 . S
C1229 C1210 1.429 . S
C1229 C1223 1.429 . S
C1229 C1230 1.523 . S
C1230 C1211 1.368 . S
C1230 C1224 1.368 . S
C1230 C1229 1.523 . S
C1231 C1215 1.429 . S
C1231 C1227 1.429 . S
C1231 C1232 1.523 . S
C1232 C1216 1.368 . S
C1232 C1228 1.368 . S
C1232 C1231 1.523 . S
H1233 C1208 0.950 . S
H1234 C1210 0.950 . S
H1235 C1211 0.949 . S
H1236 C1213 0.950 . S
H1237 C1215 0.950 . S
C1238 C1239 1.349 . S
C1238 C1240 1.327 . S
C1238 H1263 0.950 . S
C1239 C1238 1.349 . S
C1239 C1255 1.349 . S
C1240 C1238 1.327 . S
C1240 C1259 1.429 . S
C1240 H1264 0.950 . S
C1241 C1258 1.574 . S
C1241 C1260 1.368 . S
C1241 H1265 0.949 . S
H1242 C1246 0.949 . S
C1243 C1244 1.349 . S
C1243 C1245 1.327 . S
C1243 H1266 0.950 . S
C1244 C1243 1.349 . S
C1244 C1256 1.349 . S
C1245 C1243 1.327 . S
C1245 C1261 1.429 . S
C1245 H1267 0.950 . S
C1246 H1242 0.949 . S
C1246 C1254 1.574 . S
C1246 C1262 1.368 . S
H1247 C1255 0.950 . S
H1248 C1253 0.950 . S
H1249 C1254 0.949 . S
H1250 C1256 0.950 . S
H1251 C1257 0.950 . S
H1252 C1258 0.949 . S
C1253 H1248 0.950 . S
C1253 C1255 1.327 . S
C1253 C1259 1.429 . S
C1254 C1246 1.574 . S
C1254 H1249 0.949 . S
C1254 C1260 1.368 . S
C1255 C1239 1.349 . S
C1255 H1247 0.950 . S
C1255 C1253 1.327 . S
C1256 C1244 1.349 . S
C1256 H1250 0.950 . S
C1256 C1257 1.327 . S
C1257 H1251 0.950 . S
C1257 C1256 1.327 . S
C1257 C1261 1.429 . S
C1258 C1241 1.574 . S
C1258 H1252 0.949 . S
C1258 C1262 1.368 . S
C1259 C1240 1.429 . S
C1259 C1253 1.429 . S
C1259 C1260 1.523 . S
C1260 C1241 1.368 . S
C1260 C1254 1.368 . S
C1260 C1259 1.523 . S
C1261 C1245 1.429 . S
C1261 C1257 1.429 . S
C1261 C1262 1.523 . S
C1262 C1246 1.368 . S
C1262 C1258 1.368 . S
C1262 C1261 1.523 . S
H1263 C1238 0.950 . S
H1264 C1240 0.950 . S
H1265 C1241 0.949 . S
H1266 C1243 0.950 . S
H1267 C1245 0.950 . S
C1268 C1269 1.349 . S
C1268 C1270 1.327 . S
C1268 H1293 0.950 . S
C1269 C1268 1.349 . S
C1269 C1285 1.349 . S
C1270 C1268 1.327 . S
C1270 C1289 1.429 . S
C1270 H1294 0.950 . S
C1271 C1288 1.574 . S
C1271 C1290 1.368 . S
C1271 H1295 0.949 . S
H1272 C1276 0.949 . S
C1273 C1274 1.349 . S
C1273 C1275 1.327 . S
C1273 H1296 0.950 . S
C1274 C1273 1.349 . S
C1274 C1286 1.349 . S
C1275 C1273 1.327 . S
C1275 C1291 1.429 . S
C1275 H1297 0.950 . S
C1276 H1272 0.949 . S
C1276 C1284 1.574 . S
C1276 C1292 1.368 . S
H1277 C1285 0.950 . S
H1278 C1283 0.950 . S
H1279 C1284 0.949 . S
H1280 C1286 0.950 . S
H1281 C1287 0.950 . S
H1282 C1288 0.949 . S
C1283 H1278 0.950 . S
C1283 C1285 1.327 . S
C1283 C1289 1.429 . S
C1284 C1276 1.574 . S
C1284 H1279 0.949 . S
C1284 C1290 1.368 . S
C1285 C1269 1.349 . S
C1285 H1277 0.950 . S
C1285 C1283 1.327 . S
C1286 C1274 1.349 . S
C1286 H1280 0.950 . S
C1286 C1287 1.327 . S
C1287 H1281 0.950 . S
C1287 C1286 1.327 . S
C1287 C1291 1.429 . S
C1288 C1271 1.574 . S
C1288 H1282 0.949 . S
C1288 C1292 1.368 . S
C1289 C1270 1.429 . S
C1289 C1283 1.429 . S
C1289 C1290 1.523 . S
C1290 C1271 1.368 . S
C1290 C1284 1.368 . S
C1290 C1289 1.523 . S
C1291 C1275 1.429 . S
C1291 C1287 1.429 . S
C1291 C1292 1.523 . S
C1292 C1276 1.368 . S
C1292 C1288 1.368 . S
C1292 C1291 1.523 . S
H1293 C1268 0.950 . S
H1294 C1270 0.950 . S
H1295 C1271 0.949 . S
H1296 C1273 0.950 . S
H1297 C1275 0.950 . S
C1298 C1299 1.349 . S
C1298 C1300 1.327 . S
C1298 H1323 0.950 . S
C1299 C1298 1.349 . S
C1299 C1315 1.349 . S
C1300 C1298 1.327 . S
C1300 C1319 1.429 . S
C1300 H1324 0.950 . S
C1301 C1318 1.574 . S
C1301 C1320 1.368 . S
C1301 H1325 0.949 . S
H1302 C1306 0.949 . S
C1303 C1304 1.349 . S
C1303 C1305 1.327 . S
C1303 H1326 0.950 . S
C1304 C1303 1.349 . S
C1304 C1316 1.349 . S
C1305 C1303 1.327 . S
C1305 C1321 1.429 . S
C1305 H1327 0.950 . S
C1306 H1302 0.949 . S
C1306 C1314 1.574 . S
C1306 C1322 1.368 . S
H1307 C1315 0.950 . S
H1308 C1313 0.950 . S
H1309 C1314 0.949 . S
H1310 C1316 0.950 . S
H1311 C1317 0.950 . S
H1312 C1318 0.949 . S
C1313 H1308 0.950 . S
C1313 C1315 1.327 . S
C1313 C1319 1.429 . S
C1314 C1306 1.574 . S
C1314 H1309 0.949 . S
C1314 C1320 1.368 . S
C1315 C1299 1.349 . S
C1315 H1307 0.950 . S
C1315 C1313 1.327 . S
C1316 C1304 1.349 . S
C1316 H1310 0.950 . S
C1316 C1317 1.327 . S
C1317 H1311 0.950 . S
C1317 C1316 1.327 . S
C1317 C1321 1.429 . S
C1318 C1301 1.574 . S
C1318 H1312 0.949 . S
C1318 C1322 1.368 . S
C1319 C1300 1.429 . S
C1319 C1313 1.429 . S
C1319 C1320 1.523 . S
C1320 C1301 1.368 . S
C1320 C1314 1.368 . S
C1320 C1319 1.523 . S
C1321 C1305 1.429 . S
C1321 C1317 1.429 . S
C1321 C1322 1.523 . S
C1322 C1306 1.368 . S
C1322 C1318 1.368 . S
C1322 C1321 1.523 . S
H1323 C1298 0.950 . S
H1324 C1300 0.950 . S
H1325 C1301 0.949 . S
H1326 C1303 0.950 . S
H1327 C1305 0.950 . S
C1328 C1329 1.349 . S
C1328 C1330 1.327 . S
C1328 H1353 0.950 . S
C1329 C1328 1.349 . S
C1329 C1345 1.349 . S
C1330 C1328 1.327 . S
C1330 C1349 1.429 . S
C1330 H1354 0.950 . S
C1331 C1348 1.574 . S
C1331 C1350 1.368 . S
C1331 H1355 0.949 . S
H1332 C1336 0.949 . S
C1333 C1334 1.349 . S
C1333 C1335 1.327 . S
C1333 H1356 0.950 . S
C1334 C1333 1.349 . S
C1334 C1346 1.349 . S
C1335 C1333 1.327 . S
C1335 C1351 1.429 . S
C1335 H1357 0.950 . S
C1336 H1332 0.949 . S
C1336 C1344 1.574 . S
C1336 C1352 1.368 . S
H1337 C1345 0.950 . S
H1338 C1343 0.950 . S
H1339 C1344 0.949 . S
H1340 C1346 0.950 . S
H1341 C1347 0.950 . S
H1342 C1348 0.949 . S
C1343 H1338 0.950 . S
C1343 C1345 1.327 . S
C1343 C1349 1.429 . S
C1344 C1336 1.574 . S
C1344 H1339 0.949 . S
C1344 C1350 1.368 . S
C1345 C1329 1.349 . S
C1345 H1337 0.950 . S
C1345 C1343 1.327 . S
C1346 C1334 1.349 . S
C1346 H1340 0.950 . S
C1346 C1347 1.327 . S
C1347 H1341 0.950 . S
C1347 C1346 1.327 . S
C1347 C1351 1.429 . S
C1348 C1331 1.574 . S
C1348 H1342 0.949 . S
C1348 C1352 1.368 . S
C1349 C1330 1.429 . S
C1349 C1343 1.429 . S
C1349 C1350 1.523 . S
C1350 C1331 1.368 . S
C1350 C1344 1.368 . S
C1350 C1349 1.523 . S
C1351 C1335 1.429 . S
C1351 C1347 1.429 . S
C1351 C1352 1.523 . S
C1352 C1336 1.368 . S
C1352 C1348 1.368 . S
C1352 C1351 1.523 . S
H1353 C1328 0.950 . S
H1354 C1330 0.950 . S
H1355 C1331 0.949 . S
H1356 C1333 0.950 . S
H1357 C1335 0.950 . S
C1358 C1359 1.349 . S
C1358 C1360 1.327 . S
C1358 H1383 0.950 . S
C1359 C1358 1.349 . S
C1359 C1375 1.349 . S
C1360 C1358 1.327 . S
C1360 C1379 1.429 . S
C1360 H1384 0.950 . S
C1361 C1378 1.574 . S
C1361 C1380 1.368 . S
C1361 H1385 0.949 . S
H1362 C1366 0.949 . S
C1363 C1364 1.349 . S
C1363 C1365 1.327 . S
C1363 H1386 0.950 . S
C1364 C1363 1.349 . S
C1364 C1376 1.349 . S
C1365 C1363 1.327 . S
C1365 C1381 1.429 . S
C1365 H1387 0.950 . S
C1366 H1362 0.949 . S
C1366 C1374 1.574 . S
C1366 C1382 1.368 . S
H1367 C1375 0.950 . S
H1368 C1373 0.950 . S
H1369 C1374 0.949 . S
H1370 C1376 0.950 . S
H1371 C1377 0.950 . S
H1372 C1378 0.949 . S
C1373 H1368 0.950 . S
C1373 C1375 1.327 . S
C1373 C1379 1.429 . S
C1374 C1366 1.574 . S
C1374 H1369 0.949 . S
C1374 C1380 1.368 . S
C1375 C1359 1.349 . S
C1375 H1367 0.950 . S
C1375 C1373 1.327 . S
C1376 C1364 1.349 . S
C1376 H1370 0.950 . S
C1376 C1377 1.327 . S
C1377 H1371 0.950 . S
C1377 C1376 1.327 . S
C1377 C1381 1.429 . S
C1378 C1361 1.574 . S
C1378 H1372 0.949 . S
C1378 C1382 1.368 . S
C1379 C1360 1.429 . S
C1379 C1373 1.429 . S
C1379 C1380 1.523 . S
C1380 C1361 1.368 . S
C1380 C1374 1.368 . S
C1380 C1379 1.523 . S
C1381 C1365 1.429 . S
C1381 C1377 1.429 . S
C1381 C1382 1.523 . S
C1382 C1366 1.368 . S
C1382 C1378 1.368 . S
C1382 C1381 1.523 . S
H1383 C1358 0.950 . S
H1384 C1360 0.950 . S
H1385 C1361 0.949 . S
H1386 C1363 0.950 . S
H1387 C1365 0.950 . S
C1388 C1389 1.349 . S
C1388 C1390 1.327 . S
C1388 H1413 0.950 . S
C1389 C1388 1.349 . S
C1389 C1405 1.349 . S
C1390 C1388 1.327 . S
C1390 C1409 1.429 . S
C1390 H1414 0.950 . S
C1391 C1408 1.574 . S
C1391 C1410 1.368 . S
C1391 H1415 0.949 . S
H1392 C1396 0.949 . S
C1393 C1394 1.349 . S
C1393 C1395 1.327 . S
C1393 H1416 0.950 . S
C1394 C1393 1.349 . S
C1394 C1406 1.349 . S
C1395 C1393 1.327 . S
C1395 C1411 1.429 . S
C1395 H1417 0.950 . S
C1396 H1392 0.949 . S
C1396 C1404 1.574 . S
C1396 C1412 1.368 . S
H1397 C1405 0.950 . S
H1398 C1403 0.950 . S
H1399 C1404 0.949 . S
H1400 C1406 0.950 . S
H1401 C1407 0.950 . S
H1402 C1408 0.949 . S
C1403 H1398 0.950 . S
C1403 C1405 1.327 . S
C1403 C1409 1.429 . S
C1404 C1396 1.574 . S
C1404 H1399 0.949 . S
C1404 C1410 1.368 . S
C1405 C1389 1.349 . S
C1405 H1397 0.950 . S
C1405 C1403 1.327 . S
C1406 C1394 1.349 . S
C1406 H1400 0.950 . S
C1406 C1407 1.327 . S
C1407 H1401 0.950 . S
C1407 C1406 1.327 . S
C1407 C1411 1.429 . S
C1408 C1391 1.574 . S
C1408 H1402 0.949 . S
C1408 C1412 1.368 . S
C1409 C1390 1.429 . S
C1409 C1403 1.429 . S
C1409 C1410 1.523 . S
C1410 C1391 1.368 . S
C1410 C1404 1.368 . S
C1410 C1409 1.523 . S
C1411 C1395 1.429 . S
C1411 C1407 1.429 . S
C1411 C1412 1.523 . S
C1412 C1396 1.368 . S
C1412 C1408 1.368 . S
C1412 C1411 1.523 . S
H1413 C1388 0.950 . S
H1414 C1390 0.950 . S
H1415 C1391 0.949 . S
H1416 C1393 0.950 . S
H1417 C1395 0.950 . S
C1418 C1419 1.349 . S
C1418 C1420 1.327 . S
C1418 H1443 0.950 . S
C1419 C1418 1.349 . S
C1419 C1435 1.349 . S
C1420 C1418 1.327 . S
C1420 C1439 1.429 . S
C1420 H1444 0.950 . S
C1421 C1438 1.574 . S
C1421 C1440 1.368 . S
C1421 H1445 0.949 . S
H1422 C1426 0.949 . S
C1423 C1424 1.349 . S
C1423 C1425 1.327 . S
C1423 H1446 0.950 . S
C1424 C1423 1.349 . S
C1424 C1436 1.349 . S
C1425 C1423 1.327 . S
C1425 C1441 1.429 . S
C1425 H1447 0.950 . S
C1426 H1422 0.949 . S
C1426 C1434 1.574 . S
C1426 C1442 1.368 . S
H1427 C1435 0.950 . S
H1428 C1433 0.950 . S
H1429 C1434 0.949 . S
H1430 C1436 0.950 . S
H1431 C1437 0.950 . S
H1432 C1438 0.949 . S
C1433 H1428 0.950 . S
C1433 C1435 1.327 . S
C1433 C1439 1.429 . S
C1434 C1426 1.574 . S
C1434 H1429 0.949 . S
C1434 C1440 1.368 . S
C1435 C1419 1.349 . S
C1435 H1427 0.950 . S
C1435 C1433 1.327 . S
C1436 C1424 1.349 . S
C1436 H1430 0.950 . S
C1436 C1437 1.327 . S
C1437 H1431 0.950 . S
C1437 C1436 1.327 . S
C1437 C1441 1.429 . S
C1438 C1421 1.574 . S
C1438 H1432 0.949 . S
C1438 C1442 1.368 . S
C1439 C1420 1.429 . S
C1439 C1433 1.429 . S
C1439 C1440 1.523 . S
C1440 C1421 1.368 . S
C1440 C1434 1.368 . S
C1440 C1439 1.523 . S
C1441 C1425 1.429 . S
C1441 C1437 1.429 . S
C1441 C1442 1.523 . S
C1442 C1426 1.368 . S
C1442 C1438 1.368 . S
C1442 C1441 1.523 . S
H1443 C1418 0.950 . S
H1444 C1420 0.950 . S
H1445 C1421 0.949 . S
H1446 C1423 0.950 . S
H1447 C1425 0.950 . S
C1448 C1449 1.349 . S
C1448 C1450 1.327 . S
C1448 H1473 0.950 . S
C1449 C1448 1.349 . S
C1449 C1465 1.349 . S
C1450 C1448 1.327 . S
C1450 C1469 1.429 . S
C1450 H1474 0.950 . S
C1451 C1468 1.574 . S
C1451 C1470 1.368 . S
C1451 H1475 0.949 . S
H1452 C1456 0.949 . S
C1453 C1454 1.349 . S
C1453 C1455 1.327 . S
C1453 H1476 0.950 . S
C1454 C1453 1.349 . S
C1454 C1466 1.349 . S
C1455 C1453 1.327 . S
C1455 C1471 1.429 . S
C1455 H1477 0.950 . S
C1456 H1452 0.949 . S
C1456 C1464 1.574 . S
C1456 C1472 1.368 . S
H1457 C1465 0.950 . S
H1458 C1463 0.950 . S
H1459 C1464 0.949 . S
H1460 C1466 0.950 . S
H1461 C1467 0.950 . S
H1462 C1468 0.949 . S
C1463 H1458 0.950 . S
C1463 C1465 1.327 . S
C1463 C1469 1.429 . S
C1464 C1456 1.574 . S
C1464 H1459 0.949 . S
C1464 C1470 1.368 . S
C1465 C1449 1.349 . S
C1465 H1457 0.950 . S
C1465 C1463 1.327 . S
C1466 C1454 1.349 . S
C1466 H1460 0.950 . S
C1466 C1467 1.327 . S
C1467 H1461 0.950 . S
C1467 C1466 1.327 . S
C1467 C1471 1.429 . S
C1468 C1451 1.574 . S
C1468 H1462 0.949 . S
C1468 C1472 1.368 . S
C1469 C1450 1.429 . S
C1469 C1463 1.429 . S
C1469 C1470 1.523 . S
C1470 C1451 1.368 . S
C1470 C1464 1.368 . S
C1470 C1469 1.523 . S
C1471 C1455 1.429 . S
C1471 C1467 1.429 . S
C1471 C1472 1.523 . S
C1472 C1456 1.368 . S
C1472 C1468 1.368 . S
C1472 C1471 1.523 . S
H1473 C1448 0.950 . S
H1474 C1450 0.950 . S
H1475 C1451 0.949 . S
H1476 C1453 0.950 . S
H1477 C1455 0.950 . S
C1478 C1479 1.349 . S
C1478 C1480 1.327 . S
C1478 H1503 0.950 . S
C1479 C1478 1.349 . S
C1479 C1495 1.349 . S
C1480 C1478 1.327 . S
C1480 C1499 1.429 . S
C1480 H1504 0.950 . S
C1481 C1498 1.574 . S
C1481 C1500 1.368 . S
C1481 H1505 0.949 . S
H1482 C1486 0.949 . S
C1483 C1484 1.349 . S
C1483 C1485 1.327 . S
C1483 H1506 0.950 . S
C1484 C1483 1.349 . S
C1484 C1496 1.349 . S
C1485 C1483 1.327 . S
C1485 C1501 1.429 . S
C1485 H1507 0.950 . S
C1486 H1482 0.949 . S
C1486 C1494 1.574 . S
C1486 C1502 1.368 . S
H1487 C1495 0.950 . S
H1488 C1493 0.950 . S
H1489 C1494 0.949 . S
H1490 C1496 0.950 . S
H1491 C1497 0.950 . S
H1492 C1498 0.949 . S
C1493 H1488 0.950 . S
C1493 C1495 1.327 . S
C1493 C1499 1.429 . S
C1494 C1486 1.574 . S
C1494 H1489 0.949 . S
C1494 C1500 1.368 . S
C1495 C1479 1.349 . S
C1495 H1487 0.950 . S
C1495 C1493 1.327 . S
C1496 C1484 1.349 . S
C1496 H1490 0.950 . S
C1496 C1497 1.327 . S
C1497 H1491 0.950 . S
C1497 C1496 1.327 . S
C1497 C1501 1.429 . S
C1498 C1481 1.574 . S
C1498 H1492 0.949 . S
C1498 C1502 1.368 . S
C1499 C1480 1.429 . S
C1499 C1493 1.429 . S
C1499 C1500 1.523 . S
C1500 C1481 1.368 . S
C1500 C1494 1.368 . S
C1500 C1499 1.523 . S
C1501 C1485 1.429 . S
C1501 C1497 1.429 . S
C1501 C1502 1.523 . S
C1502 C1486 1.368 . S
C1502 C1498 1.368 . S
C1502 C1501 1.523 . S
H1503 C1478 0.950 . S
H1504 C1480 0.950 . S
H1505 C1481 0.949 . S
H1506 C1483 0.950 . S
H1507 C1485 0.950 . S
C1508 C1509 1.349 . S
C1508 C1510 1.327 . S
C1508 H1533 0.950 . S
C1509 C1508 1.349 . S
C1509 C1525 1.349 . S
C1510 C1508 1.327 . S
C1510 C1529 1.429 . S
C1510 H1534 0.950 . S
C1511 C1528 1.574 . S
C1511 C1530 1.368 . S
C1511 H1535 0.949 . S
H1512 C1516 0.949 . S
C1513 C1514 1.349 . S
C1513 C1515 1.327 . S
C1513 H1536 0.950 . S
C1514 C1513 1.349 . S
C1514 C1526 1.349 . S
C1515 C1513 1.327 . S
C1515 C1531 1.429 . S
C1515 H1537 0.950 . S
C1516 H1512 0.949 . S
C1516 C1524 1.574 . S
C1516 C1532 1.368 . S
H1517 C1525 0.950 . S
H1518 C1523 0.950 . S
H1519 C1524 0.949 . S
H1520 C1526 0.950 . S
H1521 C1527 0.950 . S
H1522 C1528 0.949 . S
C1523 H1518 0.950 . S
C1523 C1525 1.327 . S
C1523 C1529 1.429 . S
C1524 C1516 1.574 . S
C1524 H1519 0.949 . S
C1524 C1530 1.368 . S
C1525 C1509 1.349 . S
C1525 H1517 0.950 . S
C1525 C1523 1.327 . S
C1526 C1514 1.349 . S
C1526 H1520 0.950 . S
C1526 C1527 1.327 . S
C1527 H1521 0.950 . S
C1527 C1526 1.327 . S
C1527 C1531 1.429 . S
C1528 C1511 1.574 . S
C1528 H1522 0.949 . S
C1528 C1532 1.368 . S
C1529 C1510 1.429 . S
C1529 C1523 1.429 . S
C1529 C1530 1.523 . S
C1530 C1511 1.368 . S
C1530 C1524 1.368 . S
C1530 C1529 1.523 . S
C1531 C1515 1.429 . S
C1531 C1527 1.429 . S
C1531 C1532 1.523 . S
C1532 C1516 1.368 . S
C1532 C1528 1.368 . S
C1532 C1531 1.523 . S
H1533 C1508 0.950 . S
H1534 C1510 0.950 . S
H1535 C1511 0.949 . S
H1536 C1513 0.950 . S
H1537 C1515 0.950 . S
C1538 C1539 1.349 . S
C1538 C1540 1.327 . S
C1538 H1563 0.950 . S
C1539 C1538 1.349 . S
C1539 C1555 1.349 . S
C1540 C1538 1.327 . S
C1540 C1559 1.429 . S
C1540 H1564 0.950 . S
C1541 C1558 1.574 . S
C1541 C1560 1.368 . S
C1541 H1565 0.949 . S
H1542 C1546 0.949 . S
C1543 C1544 1.349 . S
C1543 C1545 1.327 . S
C1543 H1566 0.950 . S
C1544 C1543 1.349 . S
C1544 C1556 1.349 . S
C1545 C1543 1.327 . S
C1545 C1561 1.429 . S
C1545 H1567 0.950 . S
C1546 H1542 0.949 . S
C1546 C1554 1.574 . S
C1546 C1562 1.368 . S
H1547 C1555 0.950 . S
H1548 C1553 0.950 . S
H1549 C1554 0.949 . S
H1550 C1556 0.950 . S
H1551 C1557 0.950 . S
H1552 C1558 0.949 . S
C1553 H1548 0.950 . S
C1553 C1555 1.327 . S
C1553 C1559 1.429 . S
C1554 C1546 1.574 . S
C1554 H1549 0.949 . S
C1554 C1560 1.368 . S
C1555 C1539 1.349 . S
C1555 H1547 0.950 . S
C1555 C1553 1.327 . S
C1556 C1544 1.349 . S
C1556 H1550 0.950 . S
C1556 C1557 1.327 . S
C1557 H1551 0.950 . S
C1557 C1556 1.327 . S
C1557 C1561 1.429 . S
C1558 C1541 1.574 . S
C1558 H1552 0.949 . S
C1558 C1562 1.368 . S
C1559 C1540 1.429 . S
C1559 C1553 1.429 . S
C1559 C1560 1.523 . S
C1560 C1541 1.368 . S
C1560 C1554 1.368 . S
C1560 C1559 1.523 . S
C1561 C1545 1.429 . S
C1561 C1557 1.429 . S
C1561 C1562 1.523 . S
C1562 C1546 1.368 . S
C1562 C1558 1.368 . S
C1562 C1561 1.523 . S
H1563 C1538 0.950 . S
H1564 C1540 0.950 . S
H1565 C1541 0.949 . S
H1566 C1543 0.950 . S
H1567 C1545 0.950 . S
C614 C213 1.509 . S
C609 C16 1.508 . S
C644 C266 1.326 . S
C639 C30 1.327 . S
C674 C329 1.593 . S
C669 C53 1.593 . S
C704 C372 1.318 . S
C699 C76 1.320 . S
C729 N104 1.462 . S
C734 C328 1.504 . S
C764 C365 1.315 . S
C759 N127 1.277 . S
C794 C206 1.425 . S
C789 N140 1.389 . S
C824 C259 1.178 . S
C819 N173 1.151 . S
C854 C312 1.511 . S
C849 C168 1.512 . S
C884 C381 1.860 . S
C879 C99 1.858 . S
C914 C222 1.595 . S
C909 C122 1.594 . S
C944 C275 1.743 . S
C939 C154 1.734 . S
C974 C223 1.512 . S
C969 N35 1.476 . S
C1004 C276 1.737 . S
C999 N58 1.694 . S
C1034 C319 1.438 . S
C1029 N81 1.406 . S
C1064 C382 1.691 . S
C1059 N2 1.657 . S
C1094 C425 1.465 . S
C1089 C177 1.468 . S
C1119 C108 1.717 . S
C1124 C478 1.718 . S
C1149 C131 1.618 . S
C1154 C540 1.621 . S
C1179 C145 1.730 . S
C1184 C594 1.729 . S
C1209 N25 1.437 . S
C1214 C541 1.476 . S
C1239 N48 1.678 . S
C1244 C593 1.722 . S
C1269 N71 1.426 . S
C1274 C418 1.461 . S
C1304 C471 1.566 . S
C1299 N12 1.527 . S
C1334 C531 1.481 . S
C1329 C7 1.481 . S
C1359 C39 1.382 . S
C1364 C577 1.389 . S
C1389 C62 1.623 . S
C1394 C434 1.628 . S
C1419 C85 1.333 . S
C1424 C487 1.337 . S
C1454 C435 1.476 . S
C1449 N94 1.444 . S
C1484 C488 1.358 . S
C1479 N117 1.325 . S
C1509 N150 1.432 . S
C1514 C524 1.466 . S
C1544 C584 1.246 . S
C1539 N163 1.216 . S
