# Generated by pormake.
# Topology anh, (6,3)-cn, num edge types: 1
# Building blocks:
#     Node 0, Type 0, BuildingBlock: INOVEN_clean_sbu_0, # of connection points: 6
#     Node 1, Type 0, BuildingBlock: INOVEN_clean_sbu_0, # of connection points: 6
#     Node 2, Type 0, BuildingBlock: INOVEN_clean_sbu_0, # of connection points: 6
#     Node 3, Type 1, BuildingBlock: WUSLED_clean_sbu_0, # of connection points: 3
#     Node 4, Type 1, BuildingBlock: WUSLED_clean_sbu_0, # of connection points: 3
#     Node 5, Type 1, BuildingBlock: WUSLED_clean_sbu_0, # of connection points: 3
#     Node 6, Type 1, BuildingBlock: WUSLED_clean_sbu_0, # of connection points: 3
#     Node 7, Type 1, BuildingBlock: WUSLED_clean_sbu_0, # of connection points: 3
#     Node 8, Type 1, BuildingBlock: WUSLED_clean_sbu_0, # of connection points: 3
#     Edge 9, Type (0, 1), BuildingBlock: TEMPAE_clean_linker_10, # of connection points: 2
#     Edge 10, Type (0, 1), BuildingBlock: TEMPAE_clean_linker_10, # of connection points: 2
#     Edge 11, Type (0, 1), BuildingBlock: TEMPAE_clean_linker_10, # of connection points: 2
#     Edge 12, Type (0, 1), BuildingBlock: TEMPAE_clean_linker_10, # of connection points: 2
#     Edge 13, Type (0, 1), BuildingBlock: TEMPAE_clean_linker_10, # of connection points: 2
#     Edge 14, Type (0, 1), BuildingBlock: TEMPAE_clean_linker_10, # of connection points: 2
#     Edge 15, Type (0, 1), BuildingBlock: TEMPAE_clean_linker_10, # of connection points: 2
#     Edge 16, Type (0, 1), BuildingBlock: TEMPAE_clean_linker_10, # of connection points: 2
#     Edge 17, Type (0, 1), BuildingBlock: TEMPAE_clean_linker_10, # of connection points: 2
#     Edge 18, Type (0, 1), BuildingBlock: TEMPAE_clean_linker_10, # of connection points: 2
#     Edge 19, Type (0, 1), BuildingBlock: TEMPAE_clean_linker_10, # of connection points: 2
#     Edge 20, Type (0, 1), BuildingBlock: TEMPAE_clean_linker_10, # of connection points: 2
#     Edge 21, Type (0, 1), BuildingBlock: TEMPAE_clean_linker_10, # of connection points: 2
#     Edge 22, Type (0, 1), BuildingBlock: TEMPAE_clean_linker_10, # of connection points: 2
#     Edge 23, Type (0, 1), BuildingBlock: TEMPAE_clean_linker_10, # of connection points: 2
#     Edge 24, Type (0, 1), BuildingBlock: TEMPAE_clean_linker_10, # of connection points: 2
#     Edge 25, Type (0, 1), BuildingBlock: TEMPAE_clean_linker_10, # of connection points: 2
#     Edge 26, Type (0, 1), BuildingBlock: TEMPAE_clean_linker_10, # of connection points: 2
# Relax obj value: 0.166
# Max RMSD: 0.205
# Mean RMSD: 0.150
data_MOF--net-anh--node1-INOVEN_clean_sbu_0--node2-WUSLED_clean_sbu_0--edge1-TEMPAE_clean_linker_10
_symmetry_space_group_name_H-M    P1
_symmetry_Int_Tables_number       1
_symmetry_cell_setting            triclinic
loop_
_symmetry_equiv_pos_as_xyz
'x, y, z'
_cell_length_a     40.602786
_cell_length_b     46.434456
_cell_length_c     69.548346
_cell_angle_alpha  92.734421
_cell_angle_beta   89.689524
_cell_angle_gamma 127.70877
loop_
_atom_site_label
_atom_site_type_symbol
_atom_site_fract_x
_atom_site_fract_y
_atom_site_fract_z
_atom_type_partial_charge
Gd0 Gd 0.0942 0.49949 0.17685 0.0
Gd1 Gd 0.05997 0.53221 0.17482 0.0
C2 C 0.15565 0.5877 0.17495 0.0
C3 C 0.14123 0.48111 0.17679 0.0
C4 C 0.18595 0.50769 0.17961 0.0
C5 C 0.20414 0.51253 0.19774 0.0
C6 C 0.21029 0.53159 0.16514 0.0
C7 C 0.27126 0.55446 0.18441 0.0
C8 C 0.25314 0.55589 0.16779 0.0
C9 C 0.24694 0.5372 0.20037 0.0
C10 C 0.06955 0.50549 0.21164 0.0
C11 C 0.99853 0.44448 0.17159 0.0
C12 C 1.02392 0.55681 0.18901 0.0
C13 C 0.9794 0.533 0.18992 0.0
C14 C 0.95579 0.50845 0.17416 0.0
C15 C 0.9612 0.52837 0.20776 0.0
C16 C 0.89469 0.48274 0.19247 0.0
C17 C 0.91859 0.50255 0.20913 0.0
C18 C 0.91339 0.48255 0.17561 0.0
C19 C 0.06414 0.52073 0.13699 0.0
O20 O 0.15343 0.55885 0.17841 0.0
O21 O 0.12192 0.58431 0.17185 0.0
O22 O 0.12033 0.47793 0.19186 0.0
O23 O 0.12572 0.48248 0.16076 0.0
O24 O 0.05645 0.47463 0.20327 0.0
O25 O 0.09127 0.53088 0.20027 0.0
O26 O 1.00114 0.47365 0.1762 0.0
O27 O 1.03241 0.44804 0.16807 0.0
O28 O 1.03897 0.56481 0.17173 0.0
O29 O 1.04052 0.54647 0.19989 0.0
O30 O 1.04415 0.53175 0.14446 0.0
O31 O 0.07974 0.51277 0.14961 0.0
H32 H 0.18561 0.49593 0.20952 0.0
H33 H 0.19676 0.5301 0.15139 0.0
H34 H 0.2719 0.56991 0.15549 0.0
H35 H 0.26088 0.53686 0.21352 0.0
H36 H 0.96975 0.50979 0.16058 0.0
H37 H 0.97975 0.54526 0.22041 0.0
H38 H 0.90393 0.50216 0.22229 0.0
H39 H 0.8948 0.46701 0.16269 0.0
Gd40 Gd 0.58883 1.0082 0.49702 0.0
Gd41 Gd 0.53926 0.03393 0.49489 0.0
C42 C 0.48772 0.94963 0.49347 0.0
C43 C 0.61627 0.97187 0.50352 0.0
C44 C 0.59893 0.93304 0.50338 0.0
C45 C 0.60219 0.91596 0.48701 0.0
C46 C 0.58188 0.91353 0.52008 0.0
C47 C 0.57701 0.86275 0.50493 0.0
C48 C 0.57103 0.87873 0.52083 0.0
C49 C 0.59112 0.88099 0.48776 0.0
C50 C 0.5796 0.02168 0.46091 0.0
C51 C 0.6407 0.0933 0.49916 0.0
C52 C 0.51268 0.07045 0.48729 0.0
C53 C 0.5283 0.1086 0.49112 0.0
C54 C 0.51501 0.11788 0.50726 0.0
C55 C 0.55531 0.13576 0.47839 0.0
C56 C 0.55298 0.18003 0.49723 0.0
C57 C 0.56764 0.17114 0.48146 0.0
C58 C 0.5271 0.15309 0.51026 0.0
C59 C 0.54831 0.02008 0.53088 0.0
O60 O 0.5226 0.9571 0.50033 0.0
O61 O 0.48741 0.9756 0.4869 0.0
O62 O 0.61876 0.98485 0.48688 0.0
O63 O 0.60476 0.98407 0.51721 0.0
O64 O 0.61392 0.02997 0.46812 0.0
O65 O 0.55103 1.00582 0.47297 0.0
O66 O 0.60493 0.08608 0.4942 0.0
O67 O 0.64278 0.06702 0.50329 0.0
O68 O 0.50075 0.05028 0.50215 0.0
O69 O 0.5332 0.06503 0.47505 0.0
O70 O 0.51385 0.01166 0.52376 0.0
O71 O 0.57704 0.03648 0.51893 0.0
H72 H 0.61497 0.93019 0.47388 0.0
H73 H 0.57852 0.92567 0.53288 0.0
H74 H 0.55961 0.86488 0.53415 0.0
H75 H 0.596 0.8692 0.47531 0.0
H76 H 0.49431 0.09767 0.51737 0.0
H77 H 0.56642 0.12962 0.46587 0.0
H78 H 0.58824 0.19136 0.47134 0.0
H79 H 0.51472 0.15869 0.52244 0.0
Gd80 Gd 0.63672 0.58384 0.84603 0.0
Gd81 Gd 0.58103 0.50466 0.84632 0.0
C82 C 0.53353 0.54041 0.85039 0.0
C83 C 0.66941 0.64996 0.83863 0.0
C84 C 0.65418 0.67184 0.83913 0.0
C85 C 0.65862 0.69219 0.85597 0.0
C86 C 0.63576 0.67315 0.82251 0.0
C87 C 0.62998 0.71708 0.83893 0.0
C88 C 0.6237 0.69546 0.82244 0.0
C89 C 0.64643 0.71455 0.85588 0.0
C90 C 0.62439 0.55867 0.8808 0.0
C91 C 0.68426 0.54834 0.8481 0.0
C92 C 0.54672 0.43713 0.85125 0.0
C93 C 0.55912 0.41323 0.84846 0.0
C94 C 0.54411 0.38908 0.83211 0.0
C95 C 0.58444 0.41312 0.86218 0.0
C96 C 0.57606 0.36294 0.84403 0.0
C97 C 0.593 0.38819 0.85992 0.0
C98 C 0.55251 0.36421 0.82992 0.0
C99 C 0.59222 0.53033 0.81117 0.0
O100 O 0.57104 0.57089 0.84641 0.0
O101 O 0.52985 0.51038 0.85297 0.0
O102 O 0.67474 0.64102 0.85523 0.0
O103 O 0.65282 0.62342 0.82527 0.0
O104 O 0.66028 0.58703 0.87568 0.0
O105 O 0.59654 0.54655 0.86804 0.0
O106 O 0.64603 0.51816 0.85111 0.0
O107 O 0.68883 0.57799 0.84338 0.0
O108 O 0.54118 0.44837 0.8356 0.0
O109 O 0.56535 0.46243 0.86527 0.0
O110 O 0.55652 0.50376 0.8174 0.0
O111 O 0.62097 0.54195 0.82357 0.0
H112 H 0.67243 0.69155 0.86906 0.0
H113 H 0.63146 0.65755 0.80938 0.0
H114 H 0.6104 0.69657 0.80929 0.0
H115 H 0.65152 0.73102 0.86876 0.0
H116 H 0.52492 0.38876 0.82119 0.0
H117 H 0.59679 0.43161 0.87487 0.0
H118 H 0.61134 0.38763 0.87093 0.0
H119 H 0.53974 0.34529 0.81739 0.0
C120 C 0.65677 0.12045 0.19517 0.0
C121 C 0.68078 0.14221 0.21159 0.0
C122 C 0.7308 0.19214 0.19131 0.0
C123 C 0.71755 0.17784 0.20967 0.0
C124 C 0.70578 0.17013 0.17509 0.0
C125 C 0.6695 0.13478 0.17702 0.0
U126 U 0.56762 0.03013 0.21888 0.0
O127 O 0.50297 0.99089 0.20748 0.0
O128 O 0.54469 0.97537 0.20746 0.0
C129 C 0.5083 0.96642 0.20225 0.0
C130 C 0.61921 0.08229 0.19595 0.0
C131 C 0.47195 0.92766 0.19977 0.0
C132 C 0.43041 0.8735 0.17808 0.0
C133 C 0.4646 0.91007 0.18156 0.0
C134 C 0.4097 0.87146 0.21102 0.0
C135 C 0.40257 0.85373 0.19275 0.0
C136 C 0.44429 0.90822 0.21454 0.0
C137 C 0.57371 0.03748 0.27669 0.0
C138 C 0.52959 1.0081 0.30411 0.0
C139 C 0.60358 0.0561 0.3092 0.0
C140 C 0.60813 0.05945 0.2894 0.0
C141 C 0.56424 0.03077 0.31694 0.0
C142 C 0.53426 0.01151 0.28409 0.0
C143 C 0.58095 0.045 0.25614 0.0
O144 O 0.62453 0.05905 0.20206 0.0
O145 O 0.58504 0.07648 0.20207 0.0
O146 O 0.55545 0.04763 0.24623 0.0
O147 O 0.59753 0.03249 0.24593 0.0
H148 H 0.67145 0.13155 0.22576 0.0
H149 H 0.73601 0.19379 0.2225 0.0
H150 H 0.71407 0.1802 0.16077 0.0
H151 H 0.65137 0.11838 0.16418 0.0
H152 H 0.42547 0.86077 0.16382 0.0
H153 H 0.48537 0.92476 0.1699 0.0
H154 H 0.38882 0.85675 0.22262 0.0
H155 H 0.44941 0.92137 0.22868 0.0
H156 H 0.49879 0.98834 0.30954 0.0
H157 H 0.63119 0.07342 0.31845 0.0
H158 H 0.6388 0.07979 0.28397 0.0
H159 H 0.50721 0.99436 0.2745 0.0
C160 C 0.56376 0.58544 0.53851 0.0
C161 C 0.55905 0.60454 0.55309 0.0
C162 C 0.56453 0.64437 0.52952 0.0
C163 C 0.55934 0.63377 0.54861 0.0
C164 C 0.56935 0.62514 0.51504 0.0
C165 C 0.56894 0.59593 0.51952 0.0
U166 U 0.56655 0.52661 0.574 0.0
O167 O 0.53423 0.46752 0.57266 0.0
O168 O 0.60273 0.50576 0.57338 0.0
C169 C 0.56921 0.47157 0.57193 0.0
C170 C 0.56408 0.55494 0.5428 0.0
C171 C 0.57047 0.44753 0.558 0.0
C172 C 0.55638 0.41651 0.52644 0.0
C173 C 0.55614 0.44125 0.53875 0.0
C174 C 0.58632 0.40539 0.55239 0.0
C175 C 0.57156 0.39853 0.53328 0.0
C176 C 0.58568 0.4296 0.56464 0.0
C177 C 0.57188 0.55023 0.62842 0.0
C178 C 0.57182 0.51703 0.6545 0.0
C179 C 0.58496 0.57495 0.66139 0.0
C180 C 0.58053 0.5776 0.64184 0.0
C181 C 0.58102 0.54486 0.66799 0.0
C182 C 0.56743 0.51977 0.63479 0.0
C183 C 0.56858 0.55499 0.60794 0.0
O184 O 0.59887 0.56428 0.55075 0.0
O185 O 0.53053 0.52742 0.55081 0.0
O186 O 0.53374 0.52879 0.59864 0.0
O187 O 0.60199 0.56746 0.59796 0.0
H188 H 0.55532 0.59693 0.56788 0.0
H189 H 0.55607 0.64837 0.5601 0.0
H190 H 0.57295 0.6324 0.50019 0.0
H191 H 0.57268 0.58149 0.50811 0.0
H192 H 0.54482 0.4114 0.5117 0.0
H193 H 0.54443 0.45505 0.53338 0.0
H194 H 0.59762 0.39139 0.55797 0.0
H195 H 0.59665 0.43401 0.57945 0.0
H196 H 0.56877 0.49358 0.65913 0.0
H197 H 0.59121 0.59649 0.67139 0.0
H198 H 0.58401 0.60124 0.63718 0.0
H199 H 0.56088 0.49839 0.62457 0.0
C200 C 1.01098 0.54321 0.87235 0.0
C201 C 0.99677 0.55351 0.88787 0.0
C202 C 0.94042 0.5455 0.86758 0.0
C203 C 0.96237 0.55453 0.88555 0.0
C204 C 0.95518 0.53536 0.8522 0.0
C205 C 0.98918 0.5342 0.85455 0.0
U206 U 0.10491 0.5399 0.89178 0.0
O207 O 0.12649 0.51083 0.87657 0.0
O208 O 0.16883 0.57001 0.88003 0.0
C209 C 0.164 0.54061 0.87336 0.0
C210 C 1.04889 0.54302 0.87336 0.0
C211 C 0.20155 0.53994 0.87252 0.0
C212 C 0.25164 0.539 0.85229 0.0
C213 C 0.21703 0.53938 0.8544 0.0
C214 C 0.25789 0.54 0.88659 0.0
C215 C 0.27377 0.53949 0.86826 0.0
C216 C 0.22278 0.54014 0.88866 0.0
C217 C 0.09977 0.53313 0.95064 0.0
C218 C 0.13367 0.54331 0.98187 0.0
C219 C 0.06056 0.51654 0.98019 0.0
C220 C 0.06233 0.51863 0.96006 0.0
C221 C 0.0962 0.52884 0.9914 0.0
C222 C 0.13542 0.54544 0.96174 0.0
C223 C 0.10164 0.53559 0.92935 0.0
O224 O 0.08511 0.57169 0.88051 0.0
O225 O 1.04367 0.51264 0.8761 0.0
O226 O 0.07992 0.50659 0.91742 0.0
O227 O 0.12504 0.5669 0.92113 0.0
H228 H 1.01225 0.56087 0.90187 0.0
H229 H 0.95284 0.56218 0.89807 0.0
H230 H 0.94105 0.52886 0.83795 0.0
H231 H 0.99892 0.52658 0.84208 0.0
H232 H 0.26031 0.53799 0.83774 0.0
H233 H 0.20204 0.53917 0.8415 0.0
H234 H 0.27257 0.54061 0.89967 0.0
H235 H 0.21241 0.54056 0.90297 0.0
H236 H 0.16156 0.55262 0.98999 0.0
H237 H 1.03136 0.50574 0.98704 0.0
H238 H 1.0345 0.50928 0.95186 0.0
H239 H 0.1646 0.55645 0.95481 0.0
C240 C 0.95923 0.42951 0.47923 0.0
C241 C 0.92596 0.41076 0.46567 0.0
C242 C 0.88942 0.3564 0.48459 0.0
C243 C 0.89123 0.37459 0.46839 0.0
C244 C 0.92347 0.37559 0.49785 0.0
C245 C 0.95758 0.41165 0.49527 0.0
U246 U 1.04627 0.51953 0.4544 0.0
O247 O 0.07334 0.57521 0.46611 0.0
O248 O 0.1114 0.55591 0.46527 0.0
C249 C 0.1087 0.58177 0.47099 0.0
C250 C 0.9958 0.4679 0.47779 0.0
C251 C 0.14695 0.61952 0.47343 0.0
C252 C 0.1988 0.66954 0.49558 0.0
C253 C 0.1617 0.63436 0.49226 0.0
C254 C 0.20665 0.6759 0.46115 0.0
C255 C 0.22194 0.69087 0.48009 0.0
C256 C 0.16954 0.64041 0.45785 0.0
C257 C 1.03829 0.51099 0.39644 0.0
C258 C 0.07941 0.54552 0.36916 0.0
C259 C 1.01162 0.48703 0.36364 0.0
C260 C 1.007 0.48363 0.3835 0.0
C261 C 1.04787 0.51784 0.35627 0.0
C262 C 0.07459 0.54221 0.3892 0.0
C263 C 1.03154 0.50444 0.41715 0.0
O264 O 1.0298 0.4738 0.47138 0.0
O265 O 0.98977 0.49072 0.47165 0.0
O266 O 1.01714 0.51884 0.42746 0.0
O267 O 0.05596 0.50034 0.4269 0.0
H268 H 0.92661 0.42411 0.45316 0.0
H269 H 0.86566 0.36124 0.45792 0.0
H270 H 0.92433 0.36278 0.51022 0.0
H271 H 0.98295 0.42571 0.50592 0.0
H272 H 0.20968 0.67964 0.51033 0.0
H273 H 0.14471 0.61845 0.50449 0.0
H274 H 0.22319 0.69165 0.44884 0.0
H275 H 0.1586 0.6293 0.44322 0.0
H276 H 0.10764 0.56954 0.36372 0.0
H277 H 0.98714 0.46523 0.354 0.0
H278 H 0.97892 0.4592 0.38879 0.0
H279 H 0.09914 0.56365 0.39895 0.0
C280 C 0.56595 0.94813 0.80383 0.0
C281 C 0.5625 0.92397 0.78948 0.0
C282 C 0.57281 0.89385 0.81385 0.0
C283 C 0.56575 0.89684 0.79449 0.0
C284 C 0.57506 0.91754 0.82807 0.0
C285 C 0.57173 0.94439 0.8231 0.0
U286 U 0.56143 1.00845 0.76924 0.0
O287 O 0.59952 0.06814 0.77004 0.0
O288 O 0.53172 0.03514 0.7736 0.0
C289 C 0.56746 0.06799 0.77304 0.0
C290 C 0.56544 0.97847 0.79932 0.0
C291 C 0.57484 0.09773 0.78588 0.0
C292 C 0.55857 0.12171 0.8131 0.0
C293 C 0.55432 0.09232 0.80327 0.0
C294 C 0.60536 0.16184 0.78884 0.0
C295 C 0.58311 0.15656 0.80555 0.0
C296 C 0.60102 0.13282 0.77911 0.0
C297 C 0.5539 0.9879 0.71404 0.0
C298 C 0.56695 0.02769 0.68853 0.0
C299 C 0.54461 0.96672 0.6805 0.0
C300 C 0.54311 0.96061 0.70004 0.0
C301 C 0.55738 1.00054 0.6744 0.0
C302 C 0.5653 0.02143 0.70823 0.0
C303 C 0.555 0.98077 0.73437 0.0
O304 O 0.59847 1.00545 0.7908 0.0
O305 O 0.53026 0.96972 0.7922 0.0
O306 O 0.52253 0.9707 0.74458 0.0
O307 O 0.59068 1.00394 0.74383 0.0
H308 H 0.55809 0.92652 0.77448 0.0
H309 H 0.56411 0.87903 0.78321 0.0
H310 H 0.57986 0.91554 0.84311 0.0
H311 H 0.57437 0.96273 0.83434 0.0
H312 H 0.54122 0.1168 0.82604 0.0
H313 H 0.53409 0.06543 0.80886 0.0
H314 H 0.62541 0.18841 0.78288 0.0
H315 H 0.61715 0.13762 0.76576 0.0
H316 H 0.57686 0.05405 0.68439 0.0
H317 H 0.53587 0.94479 0.67015 0.0
H318 H 0.53409 0.93454 0.70423 0.0
H319 H 0.57369 0.0429 0.71887 0.0
C320 C 0.57945 0.44885 0.1418 0.0
C321 C 0.61058 0.45806 0.12882 0.0
C322 C 0.65142 0.4623 0.15496 0.0
C323 C 0.64687 0.46532 0.13545 0.0
C324 C 0.61965 0.45188 0.16785 0.0
C325 C 0.58352 0.44543 0.16124 0.0
U326 U 0.52781 0.44869 0.09936 0.0
O327 O 0.50095 0.47645 0.09335 0.0
O328 O 0.46116 0.41634 0.0917 0.0
C329 C 0.46307 0.44558 0.09421 0.0
C330 C 0.54477 0.44609 0.13476 0.0
C331 C 0.44121 0.44519 0.11092 0.0
C332 C 0.44664 0.46357 0.14466 0.0
C333 C 0.46256 0.4573 0.12889 0.0
C334 C 0.3849 0.44126 0.12532 0.0
C335 C 0.40906 0.45778 0.14249 0.0
C336 C 0.40117 0.43505 0.1094 0.0
C337 C 0.57586 0.46456 0.05221 0.0
C338 C 0.54538 0.47622 0.02697 0.0
C339 C 0.60914 0.48318 0.02176 0.0
C340 C 0.60804 0.47289 0.04031 0.0
C341 C 0.57813 0.48532 0.01513 0.0
C342 C 0.54433 0.46595 0.04553 0.0
C343 C 0.57717 0.45816 0.07222 0.0
O344 O 0.55651 0.47648 0.12738 0.0
O345 O 0.51882 0.41654 0.12368 0.0
O346 O 0.54587 0.42553 0.07743 0.0
O347 O 0.58526 0.48498 0.08391 0.0
H348 H 0.60729 0.46082 0.11371 0.0
H349 H 0.67147 0.47371 0.12544 0.0
H350 H 0.62293 0.44892 0.18293 0.0
H351 H 0.5593 0.43839 0.17119 0.0
H352 H 0.46591 0.47706 0.15768 0.0
H353 H 0.49317 0.46508 0.1304 0.0
H354 H 0.35571 0.43707 0.12364 0.0
H355 H 0.38399 0.42491 0.09576 0.0
H356 H 0.52145 0.47805 0.02207 0.0
H357 H 0.63438 0.48981 0.01263 0.0
H358 H 0.63268 0.47224 0.0455 0.0
H359 H 0.51965 0.46009 0.05486 0.0
C360 C 0.34012 0.56943 0.19044 0.0
C361 C 0.3013 0.54794 0.18105 0.0
C362 C 0.36595 0.55915 0.18902 0.0
C363 C 0.3516 0.52669 0.17826 0.0
C364 C 0.31145 0.50413 0.16936 0.0
C365 C 0.28682 0.51525 0.17084 0.0
C366 C 0.40881 0.58337 0.19843 0.0
C367 C 0.29498 0.46903 0.15773 0.0
C368 C 0.41155 0.51111 0.1463 0.0
C369 C 0.40329 0.48049 0.15444 0.0
C370 C 0.39962 0.53034 0.15548 0.0
C371 C 0.37999 0.51863 0.17332 0.0
C372 C 0.37695 0.49083 0.18281 0.0
C373 C 0.38875 0.47163 0.17305 0.0
C374 C 0.40096 0.55831 0.14439 0.0
C375 C 0.356 0.4782 0.20187 0.0
H376 H 0.34995 0.59389 0.19882 0.0
H377 H 0.25563 0.49795 0.16436 0.0
H378 H 0.41486 0.56694 0.20652 0.0
H379 H 0.43248 0.59679 0.18717 0.0
H380 H 0.41289 0.60484 0.20838 0.0
H381 H 0.26259 0.45472 0.15211 0.0
H382 H 0.31501 0.47479 0.14528 0.0
H383 H 0.29539 0.45013 0.16669 0.0
H384 H 0.42418 0.51807 0.132 0.0
H385 H 0.38393 0.4484 0.17929 0.0
H386 H 0.40856 0.58147 0.15402 0.0
H387 H 0.36983 0.5453 0.13755 0.0
H388 H 0.424 0.56905 0.13279 0.0
H389 H 0.36715 0.50194 0.21196 0.0
H390 H 0.36167 0.46029 0.20856 0.0
H391 H 0.32188 0.46266 0.1997 0.0
C392 C 0.67433 0.15975 0.50054 0.0
C393 C 0.67851 0.13185 0.49971 0.0
C394 C 0.70899 0.19637 0.49932 0.0
C395 C 0.74894 0.20546 0.497 0.0
C396 C 0.75363 0.17758 0.49682 0.0
C397 C 0.71833 0.14106 0.49829 0.0
C398 C 0.70258 0.22521 0.4999 0.0
C399 C 0.79587 0.18631 0.49484 0.0
C400 C 0.82946 0.29263 0.4721 0.0
C401 C 0.85277 0.31769 0.48774 0.0
C402 C 0.79555 0.25619 0.47496 0.0
C403 C 0.78534 0.24392 0.49388 0.0
C404 C 0.80888 0.26873 0.50973 0.0
C405 C 0.84147 0.30534 0.5065 0.0
C406 C 0.77044 0.23077 0.45769 0.0
C407 C 0.79933 0.25695 0.53019 0.0
H408 H 0.64369 0.15293 0.50189 0.0
H409 H 0.72176 0.11965 0.49769 0.0
H410 H 0.72306 0.24674 0.51125 0.0
H411 H 0.71126 0.23845 0.48595 0.0
H412 H 0.66981 0.21381 0.50272 0.0
H413 H 0.79409 0.16144 0.49421 0.0
H414 H 0.81067 0.20118 0.48161 0.0
H415 H 0.81645 0.20446 0.50726 0.0
H416 H 0.83785 0.30121 0.45752 0.0
H417 H 0.85787 0.32429 0.51885 0.0
H418 H 0.73737 0.21964 0.45892 0.0
H419 H 0.77129 0.20732 0.45721 0.0
H420 H 0.7821 0.24453 0.44391 0.0
H421 H 0.7717 0.25472 0.53481 0.0
H422 H 0.82574 0.27681 0.54033 0.0
H423 H 0.79197 0.22982 0.53133 0.0
C424 C 0.59896 0.74701 0.85133 0.0
C425 C 0.62263 0.74434 0.8377 0.0
C426 C 0.59038 0.77181 0.84934 0.0
C427 C 0.60616 0.79431 0.83345 0.0
C428 C 0.63157 0.79269 0.82019 0.0
C429 C 0.63936 0.76762 0.82245 0.0
C430 C 0.56341 0.77306 0.86382 0.0
C431 C 0.65013 0.81712 0.80344 0.0
C432 C 0.554 0.8312 0.81213 0.0
C433 C 0.58002 0.8676 0.81934 0.0
C434 C 0.56099 0.8065 0.81745 0.0
C435 C 0.59514 0.81875 0.82998 0.0
C436 C 0.62126 0.85535 0.83742 0.0
C437 C 0.61323 0.87925 0.83208 0.0
C438 C 0.53253 0.76751 0.80932 0.0
C439 C 0.65806 0.86949 0.85078 0.0
H440 H 0.58623 0.72902 0.86317 0.0
H441 H 0.65855 0.76611 0.81221 0.0
H442 H 0.57834 0.80156 0.86912 0.0
H443 H 0.53319 0.76241 0.85679 0.0
H444 H 0.55724 0.75658 0.87635 0.0
H445 H 0.67028 0.81314 0.79479 0.0
H446 H 0.62492 0.81164 0.79384 0.0
H447 H 0.66897 0.84612 0.80877 0.0
H448 H 0.52808 0.82201 0.80244 0.0
H449 H 0.63363 0.90746 0.83755 0.0
H450 H 0.52034 0.74852 0.82117 0.0
H451 H 0.55029 0.76177 0.79992 0.0
H452 H 0.50582 0.76164 0.80078 0.0
H453 H 0.64671 0.85763 0.865 0.0
H454 H 0.67862 0.89967 0.85299 0.0
H455 H 0.67691 0.86122 0.8451 0.0
C456 C 0.82104 0.45466 0.19686 0.0
C457 C 0.85936 0.48193 0.18961 0.0
C458 C 0.78766 0.45514 0.19381 0.0
C459 C 0.794 0.48331 0.18322 0.0
C460 C 0.83341 0.51213 0.17689 0.0
C461 C 0.86609 0.51119 0.18034 0.0
C462 C 0.7453 0.42446 0.20072 0.0
C463 C 0.84034 0.5423 0.16544 0.0
C464 C 0.70448 0.45345 0.15156 0.0
C465 C 0.68915 0.46937 0.16177 0.0
C466 C 0.73977 0.45869 0.15829 0.0
C467 C 0.75855 0.47935 0.17582 0.0
C468 C 0.744 0.49635 0.18592 0.0
C469 C 0.70913 0.49132 0.17857 0.0
C470 C 0.75661 0.44194 0.14682 0.0
C471 C 0.76404 0.51847 0.2047 0.0
H472 H 0.8172 0.43293 0.20441 0.0
H473 H 0.89684 0.53284 0.17542 0.0
H474 H 0.72925 0.43512 0.207 0.0
H475 H 0.72584 0.4054 0.18831 0.0
H476 H 0.7474 0.40891 0.21164 0.0
H477 H 0.87361 0.56312 0.16209 0.0
H478 H 0.82193 0.53065 0.15167 0.0
H479 H 0.82942 0.55606 0.17352 0.0
H480 H 0.68845 0.43643 0.13854 0.0
H481 H 0.69711 0.50402 0.18605 0.0
H482 H 0.75493 0.42148 0.15532 0.0
H483 H 0.78985 0.46322 0.14367 0.0
H484 H 0.73912 0.42833 0.13294 0.0
H485 H 0.75427 0.4996 0.21643 0.0
H486 H 0.75458 0.53599 0.20831 0.0
H487 H 0.79851 0.53601 0.20433 0.0
C488 C 0.4131 0.90186 0.48315 0.0
C489 C 0.44878 0.91163 0.49314 0.0
C490 C 0.37641 0.86575 0.48221 0.0
C491 C 0.37516 0.83876 0.49167 0.0
C492 C 0.4107 0.84863 0.50226 0.0
C493 C 0.44718 0.88489 0.50275 0.0
C494 C 0.3391 0.85638 0.47087 0.0
C495 C 0.41053 0.82078 0.51272 0.0
C496 C 0.26693 0.75113 0.49937 0.0
C497 C 0.26197 0.72833 0.4837 0.0
C498 C 0.30423 0.78664 0.50262 0.0
C499 C 0.33715 0.80001 0.48971 0.0
C500 C 0.33285 0.7769 0.47424 0.0
C501 C 0.29549 0.74139 0.47148 0.0
C502 C 0.30815 0.81008 0.51966 0.0
C503 C 0.36719 0.79 0.46014 0.0
H504 H 0.41398 0.92235 0.47577 0.0
H505 H 0.4745 0.89223 0.51066 0.0
H506 H 0.32926 0.83459 0.45959 0.0
H507 H 0.31256 0.84573 0.48055 0.0
H508 H 0.34555 0.88029 0.46385 0.0
H509 H 0.43879 0.83358 0.52212 0.0
H510 H 0.38262 0.80468 0.52167 0.0
H511 H 0.40904 0.80141 0.50208 0.0
H512 H 0.24134 0.74159 0.50891 0.0
H513 H 0.2926 0.72384 0.45966 0.0
H514 H 0.31082 0.83368 0.51454 0.0
H515 H 0.3369 0.82117 0.5283 0.0
H516 H 0.28105 0.79477 0.52917 0.0
H517 H 0.36906 0.80961 0.45077 0.0
H518 H 0.36171 0.76723 0.45084 0.0
H519 H 0.3978 0.80446 0.46778 0.0
C520 C 0.54381 0.29721 0.84068 0.0
C521 C 0.57996 0.33337 0.84262 0.0
C522 C 0.54608 0.26854 0.83737 0.0
C523 C 0.58552 0.27633 0.83572 0.0
C524 C 0.62229 0.31277 0.83856 0.0
C525 C 0.61904 0.34099 0.84214 0.0
C526 C 0.50618 0.23007 0.83467 0.0
C527 C 0.66488 0.32225 0.83655 0.0
C528 C 0.58636 0.19469 0.8338 0.0
C529 C 0.58381 0.1871 0.81385 0.0
C530 C 0.58817 0.2244 0.84126 0.0
C531 C 0.58761 0.24692 0.82844 0.0
C532 C 0.58527 0.23945 0.80834 0.0
C533 C 0.58272 0.2094 0.80136 0.0
C534 C 0.59016 0.23149 0.86278 0.0
C535 C 0.58428 0.26259 0.79414 0.0
H536 H 0.51362 0.29146 0.84132 0.0
H537 H 0.64693 0.36908 0.84364 0.0
H538 H 0.50322 0.21948 0.81962 0.0
H539 H 0.50671 0.21191 0.84424 0.0
H540 H 0.47821 0.22842 0.83774 0.0
H541 H 0.69005 0.35066 0.84198 0.0
H542 H 0.6672 0.30331 0.84442 0.0
H543 H 0.67008 0.31936 0.82113 0.0
H544 H 0.58733 0.17768 0.84355 0.0
H545 H 0.57942 0.20316 0.78595 0.0
H546 H 0.56218 0.22882 0.86728 0.0
H547 H 0.61769 0.25982 0.86691 0.0
H548 H 0.59192 0.21235 0.87082 0.0
H549 H 0.55427 0.25829 0.79504 0.0
H550 H 0.58764 0.25586 0.77906 0.0
H551 H 0.60958 0.29195 0.79762 0.0
C552 C 0.551 0.79957 0.49389 0.0
C553 C 0.57368 0.82958 0.50721 0.0
C554 C 0.54828 0.76829 0.49633 0.0
C555 C 0.5693 0.76752 0.51226 0.0
C556 C 0.59312 0.79822 0.52539 0.0
C557 C 0.5948 0.82874 0.52276 0.0
C558 C 0.52252 0.73594 0.48209 0.0
C559 C 0.6173 0.79903 0.54213 0.0
C560 C 0.53565 0.67902 0.53236 0.0
C561 C 0.56499 0.67539 0.52463 0.0
C562 C 0.53581 0.70824 0.52788 0.0
C563 C 0.56629 0.73463 0.51553 0.0
C564 C 0.59578 0.73098 0.50755 0.0
C565 C 0.59461 0.70127 0.51211 0.0
C566 C 0.50374 0.71119 0.53657 0.0
C567 C 0.62879 0.75856 0.49431 0.0
H568 H 0.53493 0.80039 0.48178 0.0
H569 H 0.61327 0.85237 0.53276 0.0
H570 H 0.5417 0.72837 0.47595 0.0
H571 H 0.49652 0.71207 0.48958 0.0
H572 H 0.50935 0.74137 0.47011 0.0
H573 H 0.6339 0.82492 0.55114 0.0
H574 H 0.59604 0.77605 0.55138 0.0
H575 H 0.64054 0.79564 0.53666 0.0
H576 H 0.5123 0.65879 0.5418 0.0
H577 H 0.61751 0.69871 0.50619 0.0
H578 H 0.48634 0.71285 0.525 0.0
H579 H 0.51944 0.73657 0.54592 0.0
H580 H 0.48117 0.68766 0.54529 0.0
H581 H 0.61399 0.75606 0.48033 0.0
H582 H 0.65274 0.75455 0.4915 0.0
H583 H 0.64453 0.78674 0.50048 0.0
C584 C 0.7607 0.57388 0.84179 0.0
C585 C 0.72243 0.54876 0.8507 0.0
C586 C 0.79595 0.57404 0.84404 0.0
C587 C 0.79456 0.54911 0.85601 0.0
C588 C 0.75614 0.52412 0.86526 0.0
C589 C 0.72109 0.52395 0.86236 0.0
C590 C 0.83456 0.60053 0.83307 0.0
C591 C 0.75205 0.49745 0.87855 0.0
C592 C 0.87181 0.52498 0.84998 0.0
C593 C 0.90298 0.54661 0.86469 0.0
C594 C 0.83752 0.52587 0.84694 0.0
C595 C 0.83254 0.54881 0.85879 0.0
C596 C 0.86378 0.57084 0.87359 0.0
C597 C 0.89788 0.56951 0.87631 0.0
C598 C 0.80635 0.50195 0.83079 0.0
C599 C 0.86154 0.59649 0.88658 0.0
H600 H 0.76298 0.59322 0.83262 0.0
H601 H 0.69247 0.50446 0.86961 0.0
H602 H 0.86281 0.61455 0.84257 0.0
H603 H 0.8376 0.58534 0.82132 0.0
H604 H 0.8335 0.62138 0.82659 0.0
H605 H 0.72059 0.47961 0.8847 0.0
H606 H 0.75843 0.48005 0.8707 0.0
H607 H 0.77553 0.51254 0.89055 0.0
H608 H 0.87358 0.50654 0.84079 0.0
H609 H 0.92108 0.58716 0.88753 0.0
H610 H 0.80538 0.51908 0.82057 0.0
H611 H 0.77472 0.48321 0.8366 0.0
H612 H 0.81386 0.48548 0.82274 0.0
H613 H 0.86595 0.6181 0.87799 0.0
H614 H 0.88564 0.60968 0.89838 0.0
H615 H 0.83036 0.58166 0.89297 0.0
C616 C 0.22035 0.63968 0.19257 0.0
C617 C 0.19529 0.62499 0.17575 0.0
C618 C 0.25377 0.67718 0.19478 0.0
C619 C 0.26273 0.70028 0.17967 0.0
C620 C 0.23789 0.68523 0.16247 0.0
C621 C 0.20411 0.64788 0.16087 0.0
C622 C 0.27888 0.69233 0.21349 0.0
C623 C 0.24695 0.70846 0.14575 0.0
C624 C 0.32617 0.80178 0.19375 0.0
C625 C 0.36646 0.81467 0.18889 0.0
C626 C 0.29187 0.7649 0.19017 0.0
C627 C 0.29814 0.74011 0.18193 0.0
C628 C 0.33865 0.75322 0.17656 0.0
C629 C 0.37226 0.79032 0.18005 0.0
C630 C 0.24895 0.75243 0.1953 0.0
C631 C 0.34684 0.7279 0.1677 0.0
H632 H 0.21256 0.6222 0.20434 0.0
H633 H 0.18412 0.63653 0.148 0.0
H634 H 0.31214 0.70566 0.21068 0.0
H635 H 0.27708 0.71348 0.22021 0.0
H636 H 0.26783 0.67091 0.2239 0.0
H637 H 0.22197 0.69354 0.13435 0.0
H638 H 0.25083 0.73347 0.15069 0.0
H639 H 0.27665 0.71723 0.13931 0.0
H640 H 0.32145 0.82069 0.20019 0.0
H641 H 0.40336 0.80016 0.17624 0.0
H642 H 0.23653 0.73261 0.20672 0.0
H643 H 0.22734 0.73826 0.18258 0.0
H644 H 0.24898 0.77546 0.20046 0.0
H645 H 0.34552 0.71121 0.17903 0.0
H646 H 0.37793 0.74306 0.16114 0.0
H647 H 0.32275 0.70888 0.15649 0.0
C648 C 0.5626 0.2338 0.48352 0.0
C649 C 0.56232 0.21642 0.49959 0.0
C650 C 0.56701 0.26623 0.48576 0.0
C651 C 0.57044 0.28121 0.5045 0.0
C652 C 0.57154 0.2645 0.52073 0.0
C653 C 0.56802 0.23263 0.51806 0.0
C654 C 0.56694 0.28396 0.46813 0.0
C655 C 0.57456 0.27934 0.541 0.0
C656 C 0.60851 0.3772 0.51741 0.0
C657 C 0.57096 0.37126 0.52121 0.0
C658 C 0.60881 0.34859 0.51036 0.0
C659 C 0.5706 0.31318 0.50746 0.0
C660 C 0.53247 0.30764 0.51004 0.0
C661 C 0.53312 0.33697 0.5168 0.0
C662 C 0.65004 0.35572 0.50747 0.0
C663 C 0.49113 0.27021 0.50709 0.0
H664 H 0.55787 0.22141 0.46919 0.0
H665 H 0.56884 0.21994 0.53053 0.0
H666 H 0.5402 0.28476 0.46831 0.0
H667 H 0.59569 0.31258 0.4682 0.0
H668 H 0.56502 0.26934 0.45454 0.0
H669 H 0.57717 0.26421 0.55201 0.0
H670 H 0.60193 0.30853 0.54275 0.0
H671 H 0.54643 0.27753 0.54386 0.0
H672 H 0.6377 0.40383 0.52098 0.0
H673 H 0.50417 0.33248 0.51998 0.0
H674 H 0.64963 0.34277 0.49356 0.0
H675 H 0.65573 0.34351 0.51907 0.0
H676 H 0.67638 0.38535 0.50775 0.0
H677 H 0.48829 0.25892 0.49224 0.0
H678 H 0.46431 0.27057 0.50951 0.0
H679 H 0.48922 0.25138 0.51712 0.0
C680 C 0.45412 0.50754 0.85156 0.0
C681 C 0.49547 0.54024 0.85274 0.0
C682 C 0.41853 0.50688 0.85372 0.0
C683 C 0.42308 0.53964 0.8577 0.0
C684 C 0.46481 0.57271 0.85899 0.0
C685 C 0.49982 0.57264 0.85636 0.0
C686 C 0.37568 0.47079 0.85129 0.0
C687 C 0.47272 0.60857 0.8635 0.0
C688 C 0.33129 0.54435 0.84756 0.0
C689 C 0.31234 0.53949 0.86564 0.0
C690 C 0.36608 0.54402 0.84482 0.0
C691 C 0.38472 0.5394 0.86044 0.0
C692 C 0.36638 0.53475 0.87872 0.0
C693 C 0.33106 0.53455 0.88103 0.0
C694 C 0.38285 0.54843 0.82487 0.0
C695 C 0.38399 0.52955 0.89607 0.0
H696 H 0.44937 0.48209 0.84861 0.0
H697 H 0.53098 0.59829 0.85748 0.0
H698 H 0.35621 0.46705 0.86363 0.0
H699 H 0.36013 0.47041 0.8381 0.0
H700 H 0.37671 0.44742 0.85001 0.0
H701 H 0.50631 0.63213 0.86315 0.0
H702 H 0.45529 0.61238 0.85306 0.0
H703 H 0.4612 0.60846 0.87802 0.0
H704 H 0.31945 0.54879 0.83514 0.0
H705 H 0.31817 0.53019 0.89517 0.0
H706 H 0.38022 0.5239 0.82017 0.0
H707 H 0.41638 0.5721 0.82498 0.0
H708 H 0.36601 0.55241 0.81412 0.0
H709 H 0.37792 0.50279 0.89437 0.0
H710 H 0.37007 0.53044 0.90966 0.0
H711 H 0.41826 0.55091 0.89727 0.0
C712 C 0.95974 0.38152 0.18293 0.0
C713 C 0.95914 0.4075 0.17374 0.0
C714 C 0.92265 0.34692 0.18631 0.0
C715 C 0.88413 0.33749 0.17963 0.0
C716 C 0.88354 0.36343 0.16997 0.0
C717 C 0.921 0.39843 0.16753 0.0
C718 C 0.92464 0.32063 0.19724 0.0
C719 C 0.84331 0.35432 0.16232 0.0
C720 C 0.79488 0.23597 0.17261 0.0
C721 C 0.77057 0.22945 0.18873 0.0
C722 C 0.83122 0.27099 0.16928 0.0
C723 C 0.84458 0.3004 0.18266 0.0
C724 C 0.82077 0.29406 0.19916 0.0
C725 C 0.78403 0.25876 0.20196 0.0
C726 C 0.85535 0.27643 0.15142 0.0
C727 C 0.83458 0.32431 0.21417 0.0
H728 H 0.98922 0.38869 0.18806 0.0
H729 H 0.92057 0.41854 0.1605 0.0
H730 H 0.90308 0.31054 0.20943 0.0
H731 H 0.91445 0.29657 0.18766 0.0
H732 H 0.95651 0.33327 0.20301 0.0
H733 H 0.84854 0.37633 0.15376 0.0
H734 H 0.82615 0.32865 0.15312 0.0
H735 H 0.8232 0.34992 0.17449 0.0
H736 H 0.78568 0.21354 0.16252 0.0
H737 H 0.76562 0.2543 0.21442 0.0
H738 H 0.88616 0.28391 0.15554 0.0
H739 H 0.86105 0.29917 0.14345 0.0
H740 H 0.83881 0.25153 0.14159 0.0
H741 H 0.86115 0.33014 0.2228 0.0
H742 H 0.80926 0.31686 0.22411 0.0
H743 H 0.84547 0.3498 0.20739 0.0
C744 C 0.05258 0.53083 0.10338 0.0
C745 C 0.07052 0.52052 0.11576 0.0
C746 C 0.05859 0.53207 0.08339 0.0
C747 C 0.08309 0.52261 0.07526 0.0
C748 C 0.10139 0.51213 0.08765 0.0
C749 C 0.09501 0.51131 0.10773 0.0
C750 C 1.03841 0.54344 0.07093 0.0
C751 C 0.12825 0.50231 0.07977 0.0
C752 C 0.06196 0.49458 0.02136 0.0
C753 C 0.09426 0.5267 0.0129 0.0
C754 C 0.05911 0.49242 0.04155 0.0
C755 C 0.08873 0.52333 0.05378 0.0
C756 C 0.12178 0.5557 0.04531 0.0
C757 C 0.12432 0.55689 0.02506 0.0
C758 C 1.02392 0.45709 0.04981 0.0
C759 C 0.15369 0.58958 0.05762 0.0
H760 H 1.03374 0.53816 0.10935 0.0
H761 H 0.10937 0.50365 0.11713 0.0
H762 H 0.06214 0.56636 0.0622 0.0
H763 H 1.01534 0.52041 0.06076 0.0
H764 H 1.0223 0.55199 0.07953 0.0
H765 H 0.13554 0.49011 0.09069 0.0
H766 H 0.1127 0.48284 0.06703 0.0
H767 H 0.15797 0.52722 0.07496 0.0
H768 H 1.0389 0.47096 0.01213 0.0
H769 H 0.14923 0.58192 0.01871 0.0
H770 H 1.00334 0.46117 0.05791 0.0
H771 H 1.03651 0.44826 0.06012 0.0
H772 H 1.00488 0.43491 0.03848 0.0
H773 H 0.1385 0.60033 0.06486 0.0
H774 H 0.17963 0.61134 0.04905 0.0
H775 H 0.16679 0.58309 0.06906 0.0
C776 C 0.59754 0.0184 0.4271 0.0
C777 C 0.57262 0.02084 0.44 0.0
C778 C 0.59245 0.01813 0.40716 0.0
C779 C 0.56257 0.02159 0.39992 0.0
C780 C 0.53724 0.02409 0.4129 0.0
C781 C 0.54204 0.02297 0.43283 0.0
C782 C 0.6198 0.01496 0.3939 0.0
C783 C 0.50553 0.02839 0.40573 0.0
C784 C 0.58492 0.0601 0.35049 0.0
C785 C 0.56023 0.02838 0.33829 0.0
C786 C 0.58517 0.05832 0.37056 0.0
C787 C 0.5593 0.02404 0.37881 0.0
C788 C 0.53273 0.99206 0.36672 0.0
C789 C 0.53371 0.99456 0.34661 0.0
C790 C 0.61424 0.09308 0.38291 0.0
C791 C 0.50471 0.95499 0.37497 0.0
H792 H 0.62094 0.01636 0.43261 0.0
H793 H 0.52266 0.02472 0.44281 0.0
H794 H 0.60075 0.99365 0.38222 0.0
H795 H 0.64198 0.04117 0.38703 0.0
H796 H 0.6379 1.00818 0.40166 0.0
H797 H 0.48989 0.03194 0.41771 0.0
H798 H 0.52069 0.05232 0.39673 0.0
H799 H 0.48154 1.00403 0.39649 0.0
H800 H 0.60472 0.0865 0.34432 0.0
H801 H 0.51478 0.96985 0.3374 0.0
H802 H 0.63755 0.09216 0.39048 0.0
H803 H 0.59658 0.09579 0.3941 0.0
H804 H 0.6311 0.1177 0.37434 0.0
H805 H 0.52395 0.94764 0.38074 0.0
H806 H 0.48221 0.93347 0.36399 0.0
H807 H 0.48712 0.95539 0.3871 0.0
C808 C 0.6225 0.53317 0.77949 0.0
C809 C 0.59814 0.53879 0.79082 0.0
C810 C 0.62178 0.5344 0.75935 0.0
C811 C 0.59709 0.54251 0.75057 0.0
C812 C 0.57417 0.55007 0.76219 0.0
C813 C 0.57438 0.54743 0.78218 0.0
C814 C 0.64616 0.52572 0.74742 0.0
C815 C 0.54808 0.55951 0.75349 0.0
C816 C 0.61873 0.57469 0.69967 0.0
C817 C 0.58671 0.54314 0.68892 0.0
C818 C 0.62281 0.57472 0.71968 0.0
C819 C 0.5944 0.54232 0.72922 0.0
C820 C 0.56257 0.51008 0.71844 0.0
C821 C 0.55918 0.51084 0.69839 0.0
C822 C 0.65688 0.6097 0.73067 0.0
C823 C 0.53172 0.47497 0.72815 0.0
H824 H 0.64025 0.52586 0.78628 0.0
H825 H 0.55535 0.55148 0.79108 0.0
H826 H 0.62489 0.50226 0.73707 0.0
H827 H 0.66917 0.5493 0.73886 0.0
H828 H 0.66293 0.51902 0.75641 0.0
H829 H 0.53654 0.5691 0.76461 0.0
H830 H 0.56627 0.58103 0.74306 0.0
H831 H 0.52085 0.53508 0.74549 0.0
H832 H 0.64054 0.5996 0.69242 0.0
H833 H 0.53421 0.48644 0.69021 0.0
H834 H 0.67676 0.60552 0.73897 0.0
H835 H 0.64295 0.61789 0.74119 0.0
H836 H 0.67691 0.63242 0.72104 0.0
H837 H 0.54839 0.46619 0.73528 0.0
H838 H 0.5079 0.45265 0.71784 0.0
H839 H 0.51561 0.47924 0.73952 0.0
C840 C 0.59161 0.04386 0.5615 0.0
C841 C 0.55409 0.01725 0.55145 0.0
C842 C 0.5951 0.04324 0.5816 0.0
C843 C 0.56067 0.01468 0.59165 0.0
C844 C 0.52345 0.98683 0.5813 0.0
C845 C 0.52044 0.9888 0.56139 0.0
C846 C 0.63521 0.07351 0.59212 0.0
C847 C 0.48636 0.95536 0.59131 0.0
C848 C 0.57615 0.99259 0.64115 0.0
C849 C 0.56119 1.007 0.65337 0.0
C850 C 0.57685 0.99544 0.62114 0.0
C851 C 0.56309 0.01388 0.61301 0.0
C852 C 0.54945 0.02978 0.62525 0.0
C853 C 0.54859 0.02611 0.64528 0.0
C854 C 0.59115 0.97772 0.60863 0.0
C855 C 0.53501 0.05005 0.61712 0.0
H856 H 0.61762 0.06595 0.5538 0.0
H857 H 0.49153 0.96805 0.55355 0.0
H858 H 0.62888 0.08642 0.60385 0.0
H859 H 0.64942 0.06217 0.59889 0.0
H860 H 0.65812 0.09487 0.5824 0.0
H861 H 0.46155 0.93405 0.58094 0.0
H862 H 0.49595 0.94264 0.60051 0.0
H863 H 0.47307 0.96553 0.60083 0.0
H864 H 0.58704 0.97863 0.64724 0.0
H865 H 0.53688 0.03729 0.65451 0.0
H866 H 0.6178 0.9984 0.6 0.0
H867 H 0.5657 0.95699 0.59835 0.0
H868 H 0.60076 0.96426 0.6172 0.0
H869 H 0.56059 0.07337 0.60918 0.0
H870 H 0.52493 0.06054 0.62849 0.0
H871 H 0.50864 0.03189 0.60667 0.0
C872 C 0.62132 0.52375 0.90687 0.0
C873 C 0.61497 0.54792 0.90032 0.0
C874 C 0.61172 0.51269 0.92569 0.0
C875 C 0.59573 0.52654 0.93785 0.0
C876 C 0.58849 0.55045 0.93101 0.0
C877 C 0.59815 0.56083 0.91208 0.0
C878 C 0.6193 0.4868 0.93264 0.0
C879 C 0.57189 0.56587 0.94379 0.0
C880 C 0.54688 0.47659 0.98285 0.0
C881 C 0.58071 0.49773 0.99592 0.0
C882 C 0.5508 0.48636 0.96383 0.0
C883 C 0.58933 0.5179 0.95812 0.0
C884 C 0.62287 0.54026 0.97154 0.0
C885 C 0.61809 0.52981 0.9904 0.0
C886 C 0.51452 0.46227 0.94971 0.0
C887 C 0.66444 0.57407 0.96579 0.0
H888 H 0.63376 0.51362 0.89729 0.0
H889 H 0.59308 0.57931 0.90652 0.0
H890 H 0.64147 0.49963 0.9452 0.0
H891 H 0.58976 0.46178 0.93749 0.0
H892 H 0.63206 0.4788 0.92127 0.0
H893 H 0.56416 0.58113 0.93563 0.0
H894 H 0.5436 0.54373 0.95106 0.0
H895 H 0.59555 0.58467 0.9552 0.0
H896 H 0.51804 0.45175 0.98733 0.0
H897 H 0.64387 0.54624 1.00076 0.0
H898 H 0.52244 0.44948 0.93869 0.0
H899 H 0.50798 0.47875 0.94203 0.0
H900 H 0.48579 0.44031 0.95685 0.0
H901 H 0.67999 0.56601 0.95634 0.0
H902 H 0.68542 0.59057 0.97846 0.0
H903 H 0.66021 0.59145 0.95748 0.0
C904 C 0.08993 0.54379 0.24271 0.0
C905 C 0.06429 0.50985 0.23248 0.0
C906 C 0.08718 0.54678 0.26284 0.0
C907 C 0.05779 0.51521 0.27293 0.0
C908 C 1.03078 0.48117 0.26249 0.0
C909 C 1.03451 0.47892 0.24247 0.0
C910 C 0.11659 0.58351 0.27345 0.0
C911 C 0.99819 0.44696 0.27249 0.0
C912 C 0.07892 0.51375 0.32616 0.0
C913 C 0.05264 0.51992 0.33512 0.0
C914 C 0.08084 0.51214 0.30596 0.0
C915 C 0.05634 0.51739 0.29445 0.0
C916 C 1.02987 0.52383 0.30353 0.0
C917 C 1.02815 0.52477 0.32376 0.0
C918 C 0.10842 0.50401 0.29692 0.0
C919 C 1.0033 0.52965 0.29189 0.0
H920 H 0.11302 0.56778 0.23507 0.0
H921 H 1.01426 0.45267 0.23461 0.0
H922 H 0.0989 0.58977 0.2825 0.0
H923 H 0.13766 0.58295 0.28324 0.0
H924 H 0.13583 0.60579 0.26349 0.0
H925 H 0.98046 0.42245 0.26238 0.0
H926 H 1.01298 0.44227 0.28399 0.0
H927 H 0.9759 0.45018 0.27948 0.0
H928 H 0.09711 0.50918 0.33498 0.0
H929 H 1.00745 0.5291 0.33074 0.0
H930 H 0.13138 0.5264 0.28772 0.0
H931 H 0.08936 0.47866 0.28749 0.0
H932 H 0.12547 0.50058 0.30785 0.0
H933 H 1.02365 0.55588 0.28481 0.0
H934 H 0.98115 0.53035 0.30095 0.0
H935 H 0.98538 0.50778 0.28034 0.0
loop_
_geom_bond_atom_site_label_1
_geom_bond_atom_site_label_2
_geom_bond_distance
_geom_bond_site_symmetry_2
_ccdc_geom_bond_type
Gd0 C3 2.818 . S
Gd0 O20 2.377 . S
Gd0 O22 2.448 . S
Gd0 O23 2.506 . S
Gd0 O24 2.435 . S
Gd0 O25 2.717 . S
Gd0 O27 2.395 1_455 S
Gd0 O31 2.327 . S
Gd1 C12 2.818 . S
Gd1 O21 2.395 1_655 S
Gd1 O25 2.327 1_655 S
Gd1 O26 2.377 . S
Gd1 O28 2.448 . S
Gd1 O29 2.506 . S
Gd1 O30 2.435 1_655 S
Gd1 O31 2.717 1_655 S
C2 O20 1.240 . S
C2 O21 1.240 . S
C3 Gd0 2.818 . S
C3 C4 1.510 . S
C3 O22 1.249 . S
C3 O23 1.252 . S
C4 C3 1.510 . S
C4 C5 1.404 . S
C4 C6 1.352 . S
C5 C4 1.404 . S
C5 C9 1.389 . S
C5 H32 0.930 . S
C6 C4 1.352 . S
C6 C8 1.374 . S
C6 H33 0.931 . S
C7 C8 1.359 . S
C7 C9 1.364 . S
C8 C6 1.374 . S
C8 C7 1.359 . S
C8 H34 0.931 . S
C9 C5 1.389 . S
C9 C7 1.364 . S
C9 H35 0.931 . S
C10 O24 1.256 . S
C10 O25 1.257 . S
C11 O26 1.240 . S
C11 O27 1.240 . S
C12 Gd1 2.818 . S
C12 C13 1.510 . S
C12 O28 1.249 . S
C12 O29 1.252 . S
C13 C12 1.510 . S
C13 C14 1.404 . S
C13 C15 1.352 . S
C14 C13 1.404 . S
C14 C18 1.389 . S
C14 H36 0.930 . S
C15 C13 1.352 . S
C15 C17 1.374 . S
C15 H37 0.931 . S
C16 C17 1.359 . S
C16 C18 1.364 . S
C17 C15 1.374 . S
C17 C16 1.359 . S
C17 H38 0.931 . S
C18 C14 1.389 . S
C18 C16 1.364 . S
C18 H39 0.931 . S
C19 O30 1.256 . S
C19 O31 1.257 . S
O20 Gd0 2.377 . S
O20 C2 1.240 . S
O21 Gd1 2.395 1_455 S
O21 C2 1.240 . S
O22 Gd0 2.448 . S
O22 C3 1.249 . S
O23 Gd0 2.506 . S
O23 C3 1.252 . S
O24 Gd0 2.435 . S
O24 C10 1.256 . S
O25 Gd0 2.717 . S
O25 Gd1 2.327 1_455 S
O25 C10 1.257 . S
O26 Gd1 2.377 . S
O26 C11 1.240 . S
O27 Gd0 2.395 1_655 S
O27 C11 1.240 . S
O28 Gd1 2.448 . S
O28 C12 1.249 . S
O29 Gd1 2.506 . S
O29 C12 1.252 . S
O30 Gd1 2.435 1_455 S
O30 C19 1.256 . S
O31 Gd0 2.327 . S
O31 Gd1 2.717 1_455 S
O31 C19 1.257 . S
H32 C5 0.930 . S
H33 C6 0.931 . S
H34 C8 0.931 . S
H35 C9 0.931 . S
H36 C14 0.930 . S
H37 C15 0.931 . S
H38 C17 0.931 . S
H39 C18 0.931 . S
Gd40 C43 2.818 . S
Gd40 O60 2.377 . S
Gd40 O62 2.448 . S
Gd40 O63 2.506 . S
Gd40 O64 2.435 . S
Gd40 O65 2.717 1_565 S
Gd40 O67 2.395 1_565 S
Gd40 O71 2.327 1_565 S
Gd41 C52 2.818 . S
Gd41 O61 2.395 1_545 S
Gd41 O65 2.327 . S
Gd41 O66 2.377 . S
Gd41 O68 2.448 . S
Gd41 O69 2.506 . S
Gd41 O70 2.435 . S
Gd41 O71 2.717 . S
C42 O60 1.240 . S
C42 O61 1.240 . S
C43 Gd40 2.818 . S
C43 C44 1.510 . S
C43 O62 1.249 . S
C43 O63 1.252 . S
C44 C43 1.510 . S
C44 C45 1.404 . S
C44 C46 1.352 . S
C45 C44 1.404 . S
C45 C49 1.389 . S
C45 H72 0.930 . S
C46 C44 1.352 . S
C46 C48 1.374 . S
C46 H73 0.931 . S
C47 C48 1.359 . S
C47 C49 1.364 . S
C48 C46 1.374 . S
C48 C47 1.359 . S
C48 H74 0.931 . S
C49 C45 1.389 . S
C49 C47 1.364 . S
C49 H75 0.931 . S
C50 O64 1.256 1_545 S
C50 O65 1.257 . S
C51 O66 1.240 . S
C51 O67 1.240 . S
C52 Gd41 2.818 . S
C52 C53 1.510 . S
C52 O68 1.249 . S
C52 O69 1.252 . S
C53 C52 1.510 . S
C53 C54 1.404 . S
C53 C55 1.352 . S
C54 C53 1.404 . S
C54 C58 1.389 . S
C54 H76 0.930 . S
C55 C53 1.352 . S
C55 C57 1.374 . S
C55 H77 0.931 . S
C56 C57 1.359 . S
C56 C58 1.364 . S
C57 C55 1.374 . S
C57 C56 1.359 . S
C57 H78 0.931 . S
C58 C54 1.389 . S
C58 C56 1.364 . S
C58 H79 0.931 . S
C59 O70 1.256 . S
C59 O71 1.257 . S
O60 Gd40 2.377 . S
O60 C42 1.240 . S
O61 Gd41 2.395 1_565 S
O61 C42 1.240 . S
O62 Gd40 2.448 . S
O62 C43 1.249 . S
O63 Gd40 2.506 . S
O63 C43 1.252 . S
O64 Gd40 2.435 . S
O64 C50 1.256 1_565 S
O65 Gd40 2.717 1_545 S
O65 Gd41 2.327 . S
O65 C50 1.257 . S
O66 Gd41 2.377 . S
O66 C51 1.240 . S
O67 Gd40 2.395 1_545 S
O67 C51 1.240 . S
O68 Gd41 2.448 . S
O68 C52 1.249 . S
O69 Gd41 2.506 . S
O69 C52 1.252 . S
O70 Gd41 2.435 . S
O70 C59 1.256 . S
O71 Gd40 2.327 1_545 S
O71 Gd41 2.717 . S
O71 C59 1.257 . S
H72 C45 0.930 . S
H73 C46 0.931 . S
H74 C48 0.931 . S
H75 C49 0.931 . S
H76 C54 0.930 . S
H77 C55 0.931 . S
H78 C57 0.931 . S
H79 C58 0.931 . S
Gd80 C83 2.818 . S
Gd80 O100 2.377 . S
Gd80 O102 2.448 . S
Gd80 O103 2.506 . S
Gd80 O104 2.435 . S
Gd80 O105 2.717 . S
Gd80 O107 2.395 . S
Gd80 O111 2.327 . S
Gd81 C92 2.818 . S
Gd81 O101 2.395 . S
Gd81 O105 2.327 . S
Gd81 O106 2.377 . S
Gd81 O108 2.448 . S
Gd81 O109 2.506 . S
Gd81 O110 2.435 . S
Gd81 O111 2.717 . S
C82 O100 1.240 . S
C82 O101 1.240 . S
C83 Gd80 2.818 . S
C83 C84 1.510 . S
C83 O102 1.249 . S
C83 O103 1.252 . S
C84 C83 1.510 . S
C84 C85 1.404 . S
C84 C86 1.352 . S
C85 C84 1.404 . S
C85 C89 1.389 . S
C85 H112 0.930 . S
C86 C84 1.352 . S
C86 C88 1.374 . S
C86 H113 0.931 . S
C87 C88 1.359 . S
C87 C89 1.364 . S
C88 C86 1.374 . S
C88 C87 1.359 . S
C88 H114 0.931 . S
C89 C85 1.389 . S
C89 C87 1.364 . S
C89 H115 0.931 . S
C90 O104 1.256 . S
C90 O105 1.257 . S
C91 O106 1.240 . S
C91 O107 1.240 . S
C92 Gd81 2.818 . S
C92 C93 1.510 . S
C92 O108 1.249 . S
C92 O109 1.252 . S
C93 C92 1.510 . S
C93 C94 1.404 . S
C93 C95 1.352 . S
C94 C93 1.404 . S
C94 C98 1.389 . S
C94 H116 0.930 . S
C95 C93 1.352 . S
C95 C97 1.374 . S
C95 H117 0.931 . S
C96 C97 1.359 . S
C96 C98 1.364 . S
C97 C95 1.374 . S
C97 C96 1.359 . S
C97 H118 0.931 . S
C98 C94 1.389 . S
C98 C96 1.364 . S
C98 H119 0.931 . S
C99 O110 1.256 . S
C99 O111 1.257 . S
O100 Gd80 2.377 . S
O100 C82 1.240 . S
O101 Gd81 2.395 . S
O101 C82 1.240 . S
O102 Gd80 2.448 . S
O102 C83 1.249 . S
O103 Gd80 2.506 . S
O103 C83 1.252 . S
O104 Gd80 2.435 . S
O104 C90 1.256 . S
O105 Gd80 2.717 . S
O105 Gd81 2.327 . S
O105 C90 1.257 . S
O106 Gd81 2.377 . S
O106 C91 1.240 . S
O107 Gd80 2.395 . S
O107 C91 1.240 . S
O108 Gd81 2.448 . S
O108 C92 1.249 . S
O109 Gd81 2.506 . S
O109 C92 1.252 . S
O110 Gd81 2.435 . S
O110 C99 1.256 . S
O111 Gd80 2.327 . S
O111 Gd81 2.717 . S
O111 C99 1.257 . S
H112 C85 0.930 . S
H113 C86 0.931 . S
H114 C88 0.931 . S
H115 C89 0.931 . S
H116 C94 0.930 . S
H117 C95 0.931 . S
H118 C97 0.931 . S
H119 C98 0.931 . S
C120 C121 1.264 . S
C120 C125 1.479 . S
C120 C130 1.465 . S
C121 C120 1.264 . S
C121 C123 1.339 . S
C121 H148 0.931 . S
C122 C123 1.395 . S
C122 C124 1.320 . S
C123 C121 1.339 . S
C123 C122 1.395 . S
C123 H149 0.929 . S
C124 C122 1.320 . S
C124 C125 1.405 . S
C124 H150 0.930 . S
C125 C120 1.479 . S
C125 C124 1.405 . S
C125 H151 0.931 . S
U126 O127 2.454 1_545 S
U126 O128 2.458 1_545 S
U126 C129 2.984 1_545 S
U126 C130 2.847 . S
U126 C143 2.882 . S
U126 O144 2.441 . S
U126 O145 2.420 . S
U126 O146 2.455 1_545 S
U126 O147 2.449 . S
O127 U126 2.454 1_565 S
O127 C129 1.353 . S
O128 U126 2.458 1_565 S
O128 C129 1.286 . S
C129 U126 2.984 1_565 S
C129 O127 1.353 . S
C129 O128 1.286 . S
C129 C131 1.363 . S
C130 C120 1.465 . S
C130 U126 2.847 . S
C130 O144 1.249 . S
C130 O145 1.202 . S
C131 C129 1.363 . S
C131 C133 1.408 . S
C131 C136 1.342 . S
C132 C133 1.310 . S
C132 C135 1.461 . S
C132 H152 0.932 . S
C133 C131 1.408 . S
C133 C132 1.310 . S
C133 H153 0.930 . S
C134 C135 1.474 . S
C134 C136 1.285 . S
C134 H154 0.929 . S
C135 C132 1.461 . S
C135 C134 1.474 . S
C136 C131 1.342 . S
C136 C134 1.285 . S
C136 H155 0.930 . S
C137 C140 1.424 . S
C137 C142 1.256 . S
C137 C143 1.428 . S
C138 C141 1.260 . S
C138 C142 1.476 . S
C138 H156 0.932 1_545 S
C139 C140 1.384 . S
C139 C141 1.479 . S
C139 H157 0.929 . S
C140 C137 1.424 . S
C140 C139 1.384 . S
C140 H158 0.928 . S
C141 C138 1.260 . S
C141 C139 1.479 . S
C142 C137 1.256 . S
C142 C138 1.476 . S
C142 H159 0.922 1_545 S
C143 U126 2.882 . S
C143 C137 1.428 . S
C143 O146 1.301 1_545 S
C143 O147 1.282 . S
O144 U126 2.441 . S
O144 C130 1.249 . S
O145 U126 2.420 . S
O145 C130 1.202 . S
O146 U126 2.455 1_565 S
O146 C143 1.301 1_565 S
O147 U126 2.449 . S
O147 C143 1.282 . S
H148 C121 0.931 . S
H149 C123 0.929 . S
H150 C124 0.930 . S
H151 C125 0.931 . S
H152 C132 0.932 . S
H153 C133 0.930 . S
H154 C134 0.929 . S
H155 C136 0.930 . S
H156 C138 0.932 1_565 S
H157 C139 0.929 . S
H158 C140 0.928 . S
H159 C142 0.922 1_565 S
C160 C161 1.264 . S
C160 C165 1.479 . S
C160 C170 1.465 . S
C161 C160 1.264 . S
C161 C163 1.339 . S
C161 H188 0.931 . S
C162 C163 1.395 . S
C162 C164 1.320 . S
C163 C161 1.339 . S
C163 C162 1.395 . S
C163 H189 0.929 . S
C164 C162 1.320 . S
C164 C165 1.405 . S
C164 H190 0.930 . S
C165 C160 1.479 . S
C165 C164 1.405 . S
C165 H191 0.931 . S
U166 O167 2.454 . S
U166 O168 2.458 . S
U166 C169 2.984 . S
U166 C170 2.847 . S
U166 C183 2.882 . S
U166 O184 2.441 . S
U166 O185 2.420 . S
U166 O186 2.455 . S
U166 O187 2.449 . S
O167 U166 2.454 . S
O167 C169 1.353 . S
O168 U166 2.458 . S
O168 C169 1.286 . S
C169 U166 2.984 . S
C169 O167 1.353 . S
C169 O168 1.286 . S
C169 C171 1.363 . S
C170 C160 1.465 . S
C170 U166 2.847 . S
C170 O184 1.249 . S
C170 O185 1.202 . S
C171 C169 1.363 . S
C171 C173 1.408 . S
C171 C176 1.342 . S
C172 C173 1.310 . S
C172 C175 1.461 . S
C172 H192 0.932 . S
C173 C171 1.408 . S
C173 C172 1.310 . S
C173 H193 0.930 . S
C174 C175 1.474 . S
C174 C176 1.285 . S
C174 H194 0.929 . S
C175 C172 1.461 . S
C175 C174 1.474 . S
C176 C171 1.342 . S
C176 C174 1.285 . S
C176 H195 0.930 . S
C177 C180 1.424 . S
C177 C182 1.245 . S
C177 C183 1.428 . S
C178 C181 1.260 . S
C178 C182 1.477 . S
C178 H196 0.932 . S
C179 C180 1.384 . S
C179 C181 1.479 . S
C179 H197 0.929 . S
C180 C177 1.424 . S
C180 C179 1.384 . S
C180 H198 0.928 . S
C181 C178 1.260 . S
C181 C179 1.479 . S
C182 C177 1.245 . S
C182 C178 1.477 . S
C182 H199 0.932 . S
C183 U166 2.882 . S
C183 C177 1.428 . S
C183 O186 1.301 . S
C183 O187 1.282 . S
O184 U166 2.441 . S
O184 C170 1.249 . S
O185 U166 2.420 . S
O185 C170 1.202 . S
O186 U166 2.455 . S
O186 C183 1.301 . S
O187 U166 2.449 . S
O187 C183 1.282 . S
H188 C161 0.931 . S
H189 C163 0.929 . S
H190 C164 0.930 . S
H191 C165 0.931 . S
H192 C172 0.932 . S
H193 C173 0.930 . S
H194 C174 0.929 . S
H195 C176 0.930 . S
H196 C178 0.932 . S
H197 C179 0.929 . S
H198 C180 0.928 . S
H199 C182 0.932 . S
C200 C201 1.264 . S
C200 C205 1.479 . S
C200 C210 1.465 . S
C201 C200 1.264 . S
C201 C203 1.339 . S
C201 H228 0.931 . S
C202 C203 1.395 . S
C202 C204 1.320 . S
C203 C201 1.339 . S
C203 C202 1.395 . S
C203 H229 0.929 . S
C204 C202 1.320 . S
C204 C205 1.405 . S
C204 H230 0.930 . S
C205 C200 1.479 . S
C205 C204 1.405 . S
C205 H231 0.931 . S
U206 O207 2.454 . S
U206 O208 2.458 . S
U206 C209 2.984 . S
U206 C210 2.847 1_455 S
U206 C223 2.882 . S
U206 O224 2.441 . S
U206 O225 2.420 1_455 S
U206 O226 2.455 . S
U206 O227 2.449 . S
O207 U206 2.454 . S
O207 C209 1.353 . S
O208 U206 2.458 . S
O208 C209 1.286 . S
C209 U206 2.984 . S
C209 O207 1.353 . S
C209 O208 1.286 . S
C209 C211 1.363 . S
C210 C200 1.465 . S
C210 U206 2.847 1_655 S
C210 O224 1.249 1_655 S
C210 O225 1.202 . S
C211 C209 1.363 . S
C211 C213 1.408 . S
C211 C216 1.342 . S
C212 C213 1.310 . S
C212 C215 1.461 . S
C212 H232 0.932 . S
C213 C211 1.408 . S
C213 C212 1.310 . S
C213 H233 0.930 . S
C214 C215 1.474 . S
C214 C216 1.285 . S
C214 H234 0.929 . S
C215 C212 1.461 . S
C215 C214 1.474 . S
C216 C211 1.342 . S
C216 C214 1.285 . S
C216 H235 0.930 . S
C217 C220 1.424 . S
C217 C222 1.245 . S
C217 C223 1.428 . S
C218 C221 1.260 . S
C218 C222 1.477 . S
C218 H236 0.932 . S
C219 C220 1.384 . S
C219 C221 1.479 . S
C219 H237 0.929 1_455 S
C220 C217 1.424 . S
C220 C219 1.384 . S
C220 H238 0.954 . S
C221 C218 1.260 . S
C221 C219 1.479 . S
C222 C217 1.245 . S
C222 C218 1.477 . S
C222 H239 0.932 . S
C223 U206 2.882 . S
C223 C217 1.428 . S
C223 O226 1.301 . S
C223 O227 1.282 . S
O224 U206 2.441 . S
O224 C210 1.249 1_455 S
O225 U206 2.420 1_655 S
O225 C210 1.202 . S
O226 U206 2.455 . S
O226 C223 1.301 . S
O227 U206 2.449 . S
O227 C223 1.282 . S
H228 C201 0.931 . S
H229 C203 0.929 . S
H230 C204 0.930 . S
H231 C205 0.931 . S
H232 C212 0.932 . S
H233 C213 0.930 . S
H234 C214 0.929 . S
H235 C216 0.930 . S
H236 C218 0.932 . S
H237 C219 0.929 1_655 S
H238 C220 0.954 . S
H239 C222 0.932 . S
C240 C241 1.264 . S
C240 C245 1.479 . S
C240 C250 1.465 . S
C241 C240 1.264 . S
C241 C243 1.339 . S
C241 H268 0.931 . S
C242 C243 1.395 . S
C242 C244 1.320 . S
C243 C241 1.339 . S
C243 C242 1.395 . S
C243 H269 0.929 . S
C244 C242 1.320 . S
C244 C245 1.405 . S
C244 H270 0.930 . S
C245 C240 1.479 . S
C245 C244 1.405 . S
C245 H271 0.931 . S
U246 O247 2.454 1_655 S
U246 O248 2.458 1_655 S
U246 C249 2.984 1_655 S
U246 C250 2.847 . S
U246 C263 2.882 . S
U246 O264 2.441 . S
U246 O265 2.420 . S
U246 O266 2.455 1_655 S
U246 O267 2.449 . S
O247 U246 2.454 1_455 S
O247 C249 1.353 . S
O248 U246 2.458 1_455 S
O248 C249 1.286 . S
C249 U246 2.984 1_455 S
C249 O247 1.353 . S
C249 O248 1.286 . S
C249 C251 1.363 . S
C250 C240 1.465 . S
C250 U246 2.847 . S
C250 O264 1.249 . S
C250 O265 1.202 . S
C251 C249 1.363 . S
C251 C253 1.408 . S
C251 C256 1.342 . S
C252 C253 1.310 . S
C252 C255 1.461 . S
C252 H272 0.932 . S
C253 C251 1.408 . S
C253 C252 1.310 . S
C253 H273 0.930 . S
C254 C255 1.474 . S
C254 C256 1.285 . S
C254 H274 0.929 . S
C255 C252 1.461 . S
C255 C254 1.474 . S
C256 C251 1.342 . S
C256 C254 1.285 . S
C256 H275 0.930 . S
C257 C260 1.424 . S
C257 C262 1.245 1_655 S
C257 C263 1.428 . S
C258 C261 1.260 1_455 S
C258 C262 1.477 . S
C258 H276 0.932 . S
C259 C260 1.384 . S
C259 C261 1.479 . S
C259 H277 0.929 . S
C260 C257 1.424 . S
C260 C259 1.384 . S
C260 H278 0.928 . S
C261 C258 1.260 1_655 S
C261 C259 1.479 . S
C262 C257 1.245 1_455 S
C262 C258 1.477 . S
C262 H279 0.932 . S
C263 U246 2.882 . S
C263 C257 1.428 . S
C263 O266 1.301 1_655 S
C263 O267 1.282 . S
O264 U246 2.441 . S
O264 C250 1.249 . S
O265 U246 2.420 . S
O265 C250 1.202 . S
O266 U246 2.455 1_455 S
O266 C263 1.301 1_455 S
O267 U246 2.449 . S
O267 C263 1.282 . S
H268 C241 0.931 . S
H269 C243 0.929 . S
H270 C244 0.930 . S
H271 C245 0.931 . S
H272 C252 0.932 . S
H273 C253 0.930 . S
H274 C254 0.929 . S
H275 C256 0.930 . S
H276 C258 0.932 . S
H277 C259 0.929 . S
H278 C260 0.928 . S
H279 C262 0.932 . S
C280 C281 1.264 . S
C280 C285 1.479 . S
C280 C290 1.465 . S
C281 C280 1.264 . S
C281 C283 1.339 . S
C281 H308 0.931 . S
C282 C283 1.395 . S
C282 C284 1.320 . S
C283 C281 1.339 . S
C283 C282 1.395 . S
C283 H309 0.929 . S
C284 C282 1.320 . S
C284 C285 1.405 . S
C284 H310 0.930 . S
C285 C280 1.479 . S
C285 C284 1.405 . S
C285 H311 0.931 . S
U286 O287 2.454 1_565 S
U286 O288 2.458 1_565 S
U286 C289 2.984 1_565 S
U286 C290 2.847 . S
U286 C303 2.882 . S
U286 O304 2.441 . S
U286 O305 2.420 . S
U286 O306 2.455 1_565 S
U286 O307 2.449 . S
O287 U286 2.454 1_545 S
O287 C289 1.353 . S
O288 U286 2.458 1_545 S
O288 C289 1.286 . S
C289 U286 2.984 1_545 S
C289 O287 1.353 . S
C289 O288 1.286 . S
C289 C291 1.363 . S
C290 C280 1.465 . S
C290 U286 2.847 . S
C290 O304 1.249 . S
C290 O305 1.202 . S
C291 C289 1.363 . S
C291 C293 1.408 . S
C291 C296 1.342 . S
C292 C293 1.310 . S
C292 C295 1.461 . S
C292 H312 0.932 . S
C293 C291 1.408 . S
C293 C292 1.310 . S
C293 H313 0.930 . S
C294 C295 1.474 . S
C294 C296 1.285 . S
C294 H314 0.929 . S
C295 C292 1.461 . S
C295 C294 1.474 . S
C296 C291 1.342 . S
C296 C294 1.285 . S
C296 H315 0.930 . S
C297 C300 1.424 . S
C297 C302 1.245 1_565 S
C297 C303 1.428 . S
C298 C301 1.260 1_545 S
C298 C302 1.477 . S
C298 H316 0.932 . S
C299 C300 1.384 . S
C299 C301 1.479 . S
C299 H317 0.929 . S
C300 C297 1.424 . S
C300 C299 1.384 . S
C300 H318 0.928 . S
C301 C298 1.260 1_565 S
C301 C299 1.479 . S
C302 C297 1.245 1_545 S
C302 C298 1.477 . S
C302 H319 0.932 . S
C303 U286 2.882 . S
C303 C297 1.428 . S
C303 O306 1.301 1_565 S
C303 O307 1.282 . S
O304 U286 2.441 . S
O304 C290 1.249 . S
O305 U286 2.420 . S
O305 C290 1.202 . S
O306 U286 2.455 1_545 S
O306 C303 1.301 1_545 S
O307 U286 2.449 . S
O307 C303 1.282 . S
H308 C281 0.931 . S
H309 C283 0.929 . S
H310 C284 0.930 . S
H311 C285 0.931 . S
H312 C292 0.932 . S
H313 C293 0.930 . S
H314 C294 0.929 . S
H315 C296 0.930 . S
H316 C298 0.932 . S
H317 C299 0.929 . S
H318 C300 0.928 . S
H319 C302 0.932 . S
C320 C321 1.264 . S
C320 C325 1.479 . S
C320 C330 1.465 . S
C321 C320 1.264 . S
C321 C323 1.339 . S
C321 H348 0.931 . S
C322 C323 1.395 . S
C322 C324 1.320 . S
C323 C321 1.339 . S
C323 C322 1.395 . S
C323 H349 0.929 . S
C324 C322 1.320 . S
C324 C325 1.405 . S
C324 H350 0.930 . S
C325 C320 1.479 . S
C325 C324 1.405 . S
C325 H351 0.931 . S
U326 O327 2.454 . S
U326 O328 2.458 . S
U326 C329 2.984 . S
U326 C330 2.847 . S
U326 C343 2.882 . S
U326 O344 2.441 . S
U326 O345 2.420 . S
U326 O346 2.455 . S
U326 O347 2.449 . S
O327 U326 2.454 . S
O327 C329 1.353 . S
O328 U326 2.458 . S
O328 C329 1.286 . S
C329 U326 2.984 . S
C329 O327 1.353 . S
C329 O328 1.286 . S
C329 C331 1.363 . S
C330 C320 1.465 . S
C330 U326 2.847 . S
C330 O344 1.249 . S
C330 O345 1.202 . S
C331 C329 1.363 . S
C331 C333 1.408 . S
C331 C336 1.342 . S
C332 C333 1.310 . S
C332 C335 1.461 . S
C332 H352 0.932 . S
C333 C331 1.408 . S
C333 C332 1.310 . S
C333 H353 0.930 . S
C334 C335 1.474 . S
C334 C336 1.285 . S
C334 H354 0.929 . S
C335 C332 1.461 . S
C335 C334 1.474 . S
C336 C331 1.342 . S
C336 C334 1.285 . S
C336 H355 0.930 . S
C337 C340 1.424 . S
C337 C342 1.245 . S
C337 C343 1.428 . S
C338 C341 1.260 1_554 S
C338 C342 1.477 . S
C338 H356 0.929 1_554 S
C339 C340 1.384 . S
C339 C341 1.479 1_554 S
C339 H357 0.929 . S
C340 C337 1.424 . S
C340 C339 1.384 . S
C340 H358 0.928 . S
C341 C338 1.260 1_556 S
C341 C339 1.479 1_556 S
C342 C337 1.245 . S
C342 C338 1.477 . S
C342 H359 0.932 . S
C343 U326 2.882 . S
C343 C337 1.428 . S
C343 O346 1.301 . S
C343 O347 1.282 . S
O344 U326 2.441 . S
O344 C330 1.249 . S
O345 U326 2.420 . S
O345 C330 1.202 . S
O346 U326 2.455 . S
O346 C343 1.301 . S
O347 U326 2.449 . S
O347 C343 1.282 . S
H348 C321 0.931 . S
H349 C323 0.929 . S
H350 C324 0.930 . S
H351 C325 0.931 . S
H352 C332 0.932 . S
H353 C333 0.930 . S
H354 C334 0.929 . S
H355 C336 0.930 . S
H356 C338 0.929 1_556 S
H357 C339 0.929 . S
H358 C340 0.928 . S
H359 C342 0.932 . S
C360 C361 1.391 . S
C360 C362 1.394 . S
C360 H376 0.931 . S
C361 C360 1.391 . S
C361 C365 1.376 . S
C362 C360 1.394 . S
C362 C363 1.369 . S
C362 C366 1.531 . S
C363 C362 1.369 . S
C363 C364 1.410 . S
C363 C371 1.503 . S
C364 C363 1.410 . S
C364 C365 1.392 . S
C364 C367 1.511 . S
C365 C361 1.376 . S
C365 C364 1.392 . S
C365 H377 0.929 . S
C366 C362 1.531 . S
C366 H378 0.960 . S
C366 H379 0.962 . S
C366 H380 0.960 . S
C367 C364 1.511 . S
C367 H381 0.961 . S
C367 H382 0.961 . S
C367 H383 0.961 . S
C368 C369 1.370 . S
C368 C370 1.363 . S
C368 H384 0.931 . S
C369 C368 1.370 . S
C369 C373 1.408 . S
C370 C368 1.363 . S
C370 C371 1.370 . S
C370 C374 1.524 . S
C371 C363 1.503 . S
C371 C370 1.370 . S
C371 C372 1.403 . S
C372 C371 1.403 . S
C372 C373 1.404 . S
C372 C375 1.539 . S
C373 C369 1.408 . S
C373 C372 1.404 . S
C373 H385 0.930 . S
C374 C370 1.524 . S
C374 H386 0.956 . S
C374 H387 0.961 . S
C374 H388 0.961 . S
C375 C372 1.539 . S
C375 H389 0.958 . S
C375 H390 0.961 . S
C375 H391 0.960 . S
H376 C360 0.931 . S
H377 C365 0.929 . S
H378 C366 0.960 . S
H379 C366 0.962 . S
H380 C366 0.960 . S
H381 C367 0.961 . S
H382 C367 0.961 . S
H383 C367 0.961 . S
H384 C368 0.931 . S
H385 C373 0.930 . S
H386 C374 0.956 . S
H387 C374 0.961 . S
H388 C374 0.961 . S
H389 C375 0.958 . S
H390 C375 0.961 . S
H391 C375 0.960 . S
C392 C393 1.391 . S
C392 C394 1.394 . S
C392 H408 0.931 . S
C393 C392 1.391 . S
C393 C397 1.376 . S
C394 C392 1.394 . S
C394 C395 1.369 . S
C394 C398 1.531 . S
C395 C394 1.369 . S
C395 C396 1.410 . S
C395 C403 1.503 . S
C396 C395 1.410 . S
C396 C397 1.392 . S
C396 C399 1.511 . S
C397 C393 1.376 . S
C397 C396 1.392 . S
C397 H409 0.929 . S
C398 C394 1.531 . S
C398 H410 0.960 . S
C398 H411 0.962 . S
C398 H412 0.960 . S
C399 C396 1.511 . S
C399 H413 0.961 . S
C399 H414 0.961 . S
C399 H415 0.961 . S
C400 C401 1.370 . S
C400 C402 1.363 . S
C400 H416 0.931 . S
C401 C400 1.370 . S
C401 C405 1.408 . S
C402 C400 1.363 . S
C402 C403 1.370 . S
C402 C406 1.524 . S
C403 C395 1.503 . S
C403 C402 1.370 . S
C403 C404 1.403 . S
C404 C403 1.403 . S
C404 C405 1.404 . S
C404 C407 1.539 . S
C405 C401 1.408 . S
C405 C404 1.404 . S
C405 H417 0.930 . S
C406 C402 1.524 . S
C406 H418 0.956 . S
C406 H419 0.961 . S
C406 H420 0.961 . S
C407 C404 1.539 . S
C407 H421 0.958 . S
C407 H422 0.961 . S
C407 H423 0.960 . S
H408 C392 0.931 . S
H409 C397 0.929 . S
H410 C398 0.960 . S
H411 C398 0.962 . S
H412 C398 0.960 . S
H413 C399 0.961 . S
H414 C399 0.961 . S
H415 C399 0.961 . S
H416 C400 0.931 . S
H417 C405 0.930 . S
H418 C406 0.956 . S
H419 C406 0.961 . S
H420 C406 0.961 . S
H421 C407 0.958 . S
H422 C407 0.961 . S
H423 C407 0.960 . S
C424 C425 1.391 . S
C424 C426 1.394 . S
C424 H440 0.931 . S
C425 C424 1.391 . S
C425 C429 1.376 . S
C426 C424 1.394 . S
C426 C427 1.369 . S
C426 C430 1.531 . S
C427 C426 1.369 . S
C427 C428 1.410 . S
C427 C435 1.503 . S
C428 C427 1.410 . S
C428 C429 1.392 . S
C428 C431 1.511 . S
C429 C425 1.376 . S
C429 C428 1.392 . S
C429 H441 0.929 . S
C430 C426 1.531 . S
C430 H442 0.960 . S
C430 H443 0.962 . S
C430 H444 0.960 . S
C431 C428 1.511 . S
C431 H445 0.961 . S
C431 H446 0.961 . S
C431 H447 0.961 . S
C432 C433 1.370 . S
C432 C434 1.363 . S
C432 H448 0.931 . S
C433 C432 1.370 . S
C433 C437 1.408 . S
C434 C432 1.363 . S
C434 C435 1.370 . S
C434 C438 1.524 . S
C435 C427 1.503 . S
C435 C434 1.370 . S
C435 C436 1.403 . S
C436 C435 1.403 . S
C436 C437 1.404 . S
C436 C439 1.539 . S
C437 C433 1.408 . S
C437 C436 1.404 . S
C437 H449 0.930 . S
C438 C434 1.524 . S
C438 H450 0.956 . S
C438 H451 0.961 . S
C438 H452 0.961 . S
C439 C436 1.539 . S
C439 H453 0.958 . S
C439 H454 0.961 . S
C439 H455 0.960 . S
H440 C424 0.931 . S
H441 C429 0.929 . S
H442 C430 0.960 . S
H443 C430 0.962 . S
H444 C430 0.960 . S
H445 C431 0.961 . S
H446 C431 0.961 . S
H447 C431 0.961 . S
H448 C432 0.931 . S
H449 C437 0.930 . S
H450 C438 0.956 . S
H451 C438 0.961 . S
H452 C438 0.961 . S
H453 C439 0.958 . S
H454 C439 0.961 . S
H455 C439 0.960 . S
C456 C457 1.391 . S
C456 C458 1.394 . S
C456 H472 0.931 . S
C457 C456 1.391 . S
C457 C461 1.376 . S
C458 C456 1.394 . S
C458 C459 1.369 . S
C458 C462 1.531 . S
C459 C458 1.369 . S
C459 C460 1.410 . S
C459 C467 1.503 . S
C460 C459 1.410 . S
C460 C461 1.392 . S
C460 C463 1.511 . S
C461 C457 1.376 . S
C461 C460 1.392 . S
C461 H473 0.929 . S
C462 C458 1.531 . S
C462 H474 0.960 . S
C462 H475 0.962 . S
C462 H476 0.960 . S
C463 C460 1.511 . S
C463 H477 0.961 . S
C463 H478 0.961 . S
C463 H479 0.961 . S
C464 C465 1.370 . S
C464 C466 1.363 . S
C464 H480 0.931 . S
C465 C464 1.370 . S
C465 C469 1.408 . S
C466 C464 1.363 . S
C466 C467 1.370 . S
C466 C470 1.524 . S
C467 C459 1.503 . S
C467 C466 1.370 . S
C467 C468 1.403 . S
C468 C467 1.403 . S
C468 C469 1.404 . S
C468 C471 1.539 . S
C469 C465 1.408 . S
C469 C468 1.404 . S
C469 H481 0.930 . S
C470 C466 1.524 . S
C470 H482 0.956 . S
C470 H483 0.961 . S
C470 H484 0.961 . S
C471 C468 1.539 . S
C471 H485 0.958 . S
C471 H486 0.961 . S
C471 H487 0.960 . S
H472 C456 0.931 . S
H473 C461 0.929 . S
H474 C462 0.960 . S
H475 C462 0.962 . S
H476 C462 0.960 . S
H477 C463 0.961 . S
H478 C463 0.961 . S
H479 C463 0.961 . S
H480 C464 0.931 . S
H481 C469 0.930 . S
H482 C470 0.956 . S
H483 C470 0.961 . S
H484 C470 0.961 . S
H485 C471 0.958 . S
H486 C471 0.961 . S
H487 C471 0.960 . S
C488 C489 1.391 . S
C488 C490 1.394 . S
C488 H504 0.931 . S
C489 C488 1.391 . S
C489 C493 1.376 . S
C490 C488 1.394 . S
C490 C491 1.369 . S
C490 C494 1.531 . S
C491 C490 1.369 . S
C491 C492 1.410 . S
C491 C499 1.503 . S
C492 C491 1.410 . S
C492 C493 1.392 . S
C492 C495 1.511 . S
C493 C489 1.376 . S
C493 C492 1.392 . S
C493 H505 0.929 . S
C494 C490 1.531 . S
C494 H506 0.960 . S
C494 H507 0.962 . S
C494 H508 0.960 . S
C495 C492 1.511 . S
C495 H509 0.961 . S
C495 H510 0.961 . S
C495 H511 0.961 . S
C496 C497 1.370 . S
C496 C498 1.363 . S
C496 H512 0.931 . S
C497 C496 1.370 . S
C497 C501 1.408 . S
C498 C496 1.363 . S
C498 C499 1.370 . S
C498 C502 1.524 . S
C499 C491 1.503 . S
C499 C498 1.370 . S
C499 C500 1.403 . S
C500 C499 1.403 . S
C500 C501 1.404 . S
C500 C503 1.539 . S
C501 C497 1.408 . S
C501 C500 1.404 . S
C501 H513 0.930 . S
C502 C498 1.524 . S
C502 H514 0.956 . S
C502 H515 0.961 . S
C502 H516 0.961 . S
C503 C500 1.539 . S
C503 H517 0.958 . S
C503 H518 0.961 . S
C503 H519 0.960 . S
H504 C488 0.931 . S
H505 C493 0.929 . S
H506 C494 0.960 . S
H507 C494 0.962 . S
H508 C494 0.960 . S
H509 C495 0.961 . S
H510 C495 0.961 . S
H511 C495 0.961 . S
H512 C496 0.931 . S
H513 C501 0.930 . S
H514 C502 0.956 . S
H515 C502 0.961 . S
H516 C502 0.961 . S
H517 C503 0.958 . S
H518 C503 0.961 . S
H519 C503 0.960 . S
C520 C521 1.391 . S
C520 C522 1.394 . S
C520 H536 0.931 . S
C521 C520 1.391 . S
C521 C525 1.376 . S
C522 C520 1.394 . S
C522 C523 1.369 . S
C522 C526 1.531 . S
C523 C522 1.369 . S
C523 C524 1.410 . S
C523 C531 1.503 . S
C524 C523 1.410 . S
C524 C525 1.392 . S
C524 C527 1.511 . S
C525 C521 1.376 . S
C525 C524 1.392 . S
C525 H537 0.929 . S
C526 C522 1.531 . S
C526 H538 0.960 . S
C526 H539 0.962 . S
C526 H540 0.960 . S
C527 C524 1.511 . S
C527 H541 0.961 . S
C527 H542 0.961 . S
C527 H543 0.961 . S
C528 C529 1.370 . S
C528 C530 1.363 . S
C528 H544 0.931 . S
C529 C528 1.370 . S
C529 C533 1.408 . S
C530 C528 1.363 . S
C530 C531 1.370 . S
C530 C534 1.524 . S
C531 C523 1.503 . S
C531 C530 1.370 . S
C531 C532 1.403 . S
C532 C531 1.403 . S
C532 C533 1.404 . S
C532 C535 1.539 . S
C533 C529 1.408 . S
C533 C532 1.404 . S
C533 H545 0.930 . S
C534 C530 1.524 . S
C534 H546 0.956 . S
C534 H547 0.961 . S
C534 H548 0.961 . S
C535 C532 1.539 . S
C535 H549 0.958 . S
C535 H550 0.961 . S
C535 H551 0.960 . S
H536 C520 0.931 . S
H537 C525 0.929 . S
H538 C526 0.960 . S
H539 C526 0.962 . S
H540 C526 0.960 . S
H541 C527 0.961 . S
H542 C527 0.961 . S
H543 C527 0.961 . S
H544 C528 0.931 . S
H545 C533 0.930 . S
H546 C534 0.956 . S
H547 C534 0.961 . S
H548 C534 0.961 . S
H549 C535 0.958 . S
H550 C535 0.961 . S
H551 C535 0.960 . S
C552 C553 1.391 . S
C552 C554 1.394 . S
C552 H568 0.931 . S
C553 C552 1.391 . S
C553 C557 1.376 . S
C554 C552 1.394 . S
C554 C555 1.369 . S
C554 C558 1.531 . S
C555 C554 1.369 . S
C555 C556 1.410 . S
C555 C563 1.503 . S
C556 C555 1.410 . S
C556 C557 1.392 . S
C556 C559 1.511 . S
C557 C553 1.376 . S
C557 C556 1.392 . S
C557 H569 0.929 . S
C558 C554 1.531 . S
C558 H570 0.960 . S
C558 H571 0.962 . S
C558 H572 0.960 . S
C559 C556 1.511 . S
C559 H573 0.961 . S
C559 H574 0.961 . S
C559 H575 0.961 . S
C560 C561 1.370 . S
C560 C562 1.363 . S
C560 H576 0.931 . S
C561 C560 1.370 . S
C561 C565 1.408 . S
C562 C560 1.363 . S
C562 C563 1.370 . S
C562 C566 1.524 . S
C563 C555 1.503 . S
C563 C562 1.370 . S
C563 C564 1.403 . S
C564 C563 1.403 . S
C564 C565 1.404 . S
C564 C567 1.539 . S
C565 C561 1.408 . S
C565 C564 1.404 . S
C565 H577 0.930 . S
C566 C562 1.524 . S
C566 H578 0.956 . S
C566 H579 0.961 . S
C566 H580 0.961 . S
C567 C564 1.539 . S
C567 H581 0.958 . S
C567 H582 0.961 . S
C567 H583 0.960 . S
H568 C552 0.931 . S
H569 C557 0.929 . S
H570 C558 0.960 . S
H571 C558 0.962 . S
H572 C558 0.960 . S
H573 C559 0.961 . S
H574 C559 0.961 . S
H575 C559 0.961 . S
H576 C560 0.931 . S
H577 C565 0.930 . S
H578 C566 0.956 . S
H579 C566 0.961 . S
H580 C566 0.961 . S
H581 C567 0.958 . S
H582 C567 0.961 . S
H583 C567 0.960 . S
C584 C585 1.391 . S
C584 C586 1.394 . S
C584 H600 0.931 . S
C585 C584 1.391 . S
C585 C589 1.376 . S
C586 C584 1.394 . S
C586 C587 1.369 . S
C586 C590 1.531 . S
C587 C586 1.369 . S
C587 C588 1.410 . S
C587 C595 1.503 . S
C588 C587 1.410 . S
C588 C589 1.392 . S
C588 C591 1.511 . S
C589 C585 1.376 . S
C589 C588 1.392 . S
C589 H601 0.929 . S
C590 C586 1.531 . S
C590 H602 0.960 . S
C590 H603 0.962 . S
C590 H604 0.960 . S
C591 C588 1.511 . S
C591 H605 0.961 . S
C591 H606 0.961 . S
C591 H607 0.961 . S
C592 C593 1.370 . S
C592 C594 1.363 . S
C592 H608 0.931 . S
C593 C592 1.370 . S
C593 C597 1.408 . S
C594 C592 1.363 . S
C594 C595 1.370 . S
C594 C598 1.524 . S
C595 C587 1.503 . S
C595 C594 1.370 . S
C595 C596 1.403 . S
C596 C595 1.403 . S
C596 C597 1.404 . S
C596 C599 1.539 . S
C597 C593 1.408 . S
C597 C596 1.404 . S
C597 H609 0.930 . S
C598 C594 1.524 . S
C598 H610 0.956 . S
C598 H611 0.961 . S
C598 H612 0.961 . S
C599 C596 1.539 . S
C599 H613 0.958 . S
C599 H614 0.961 . S
C599 H615 0.960 . S
H600 C584 0.931 . S
H601 C589 0.929 . S
H602 C590 0.960 . S
H603 C590 0.962 . S
H604 C590 0.960 . S
H605 C591 0.961 . S
H606 C591 0.961 . S
H607 C591 0.961 . S
H608 C592 0.931 . S
H609 C597 0.930 . S
H610 C598 0.956 . S
H611 C598 0.961 . S
H612 C598 0.961 . S
H613 C599 0.958 . S
H614 C599 0.961 . S
H615 C599 0.960 . S
C616 C617 1.391 . S
C616 C618 1.394 . S
C616 H632 0.931 . S
C617 C616 1.391 . S
C617 C621 1.376 . S
C618 C616 1.394 . S
C618 C619 1.369 . S
C618 C622 1.531 . S
C619 C618 1.369 . S
C619 C620 1.410 . S
C619 C627 1.503 . S
C620 C619 1.410 . S
C620 C621 1.392 . S
C620 C623 1.511 . S
C621 C617 1.376 . S
C621 C620 1.392 . S
C621 H633 0.929 . S
C622 C618 1.531 . S
C622 H634 0.960 . S
C622 H635 0.962 . S
C622 H636 0.960 . S
C623 C620 1.511 . S
C623 H637 0.961 . S
C623 H638 0.961 . S
C623 H639 0.961 . S
C624 C625 1.370 . S
C624 C626 1.363 . S
C624 H640 0.931 . S
C625 C624 1.370 . S
C625 C629 1.408 . S
C626 C624 1.363 . S
C626 C627 1.370 . S
C626 C630 1.524 . S
C627 C619 1.503 . S
C627 C626 1.370 . S
C627 C628 1.403 . S
C628 C627 1.403 . S
C628 C629 1.404 . S
C628 C631 1.539 . S
C629 C625 1.408 . S
C629 C628 1.404 . S
C629 H641 0.930 . S
C630 C626 1.524 . S
C630 H642 0.956 . S
C630 H643 0.961 . S
C630 H644 0.961 . S
C631 C628 1.539 . S
C631 H645 0.958 . S
C631 H646 0.961 . S
C631 H647 0.960 . S
H632 C616 0.931 . S
H633 C621 0.929 . S
H634 C622 0.960 . S
H635 C622 0.962 . S
H636 C622 0.960 . S
H637 C623 0.961 . S
H638 C623 0.961 . S
H639 C623 0.961 . S
H640 C624 0.931 . S
H641 C629 0.930 . S
H642 C630 0.956 . S
H643 C630 0.961 . S
H644 C630 0.961 . S
H645 C631 0.958 . S
H646 C631 0.961 . S
H647 C631 0.960 . S
C648 C649 1.391 . S
C648 C650 1.394 . S
C648 H664 0.931 . S
C649 C648 1.391 . S
C649 C653 1.376 . S
C650 C648 1.394 . S
C650 C651 1.369 . S
C650 C654 1.531 . S
C651 C650 1.369 . S
C651 C652 1.410 . S
C651 C659 1.503 . S
C652 C651 1.410 . S
C652 C653 1.392 . S
C652 C655 1.511 . S
C653 C649 1.376 . S
C653 C652 1.392 . S
C653 H665 0.929 . S
C654 C650 1.531 . S
C654 H666 0.960 . S
C654 H667 0.962 . S
C654 H668 0.960 . S
C655 C652 1.511 . S
C655 H669 0.961 . S
C655 H670 0.961 . S
C655 H671 0.961 . S
C656 C657 1.370 . S
C656 C658 1.363 . S
C656 H672 0.931 . S
C657 C656 1.370 . S
C657 C661 1.408 . S
C658 C656 1.363 . S
C658 C659 1.370 . S
C658 C662 1.524 . S
C659 C651 1.503 . S
C659 C658 1.370 . S
C659 C660 1.403 . S
C660 C659 1.403 . S
C660 C661 1.404 . S
C660 C663 1.539 . S
C661 C657 1.408 . S
C661 C660 1.404 . S
C661 H673 0.930 . S
C662 C658 1.524 . S
C662 H674 0.956 . S
C662 H675 0.961 . S
C662 H676 0.961 . S
C663 C660 1.539 . S
C663 H677 0.958 . S
C663 H678 0.961 . S
C663 H679 0.960 . S
H664 C648 0.931 . S
H665 C653 0.929 . S
H666 C654 0.960 . S
H667 C654 0.962 . S
H668 C654 0.960 . S
H669 C655 0.961 . S
H670 C655 0.961 . S
H671 C655 0.961 . S
H672 C656 0.931 . S
H673 C661 0.930 . S
H674 C662 0.956 . S
H675 C662 0.961 . S
H676 C662 0.961 . S
H677 C663 0.958 . S
H678 C663 0.961 . S
H679 C663 0.960 . S
C680 C681 1.391 . S
C680 C682 1.394 . S
C680 H696 0.931 . S
C681 C680 1.391 . S
C681 C685 1.376 . S
C682 C680 1.394 . S
C682 C683 1.369 . S
C682 C686 1.531 . S
C683 C682 1.369 . S
C683 C684 1.410 . S
C683 C691 1.503 . S
C684 C683 1.410 . S
C684 C685 1.392 . S
C684 C687 1.511 . S
C685 C681 1.376 . S
C685 C684 1.392 . S
C685 H697 0.929 . S
C686 C682 1.531 . S
C686 H698 0.960 . S
C686 H699 0.962 . S
C686 H700 0.960 . S
C687 C684 1.511 . S
C687 H701 0.961 . S
C687 H702 0.961 . S
C687 H703 0.961 . S
C688 C689 1.370 . S
C688 C690 1.363 . S
C688 H704 0.931 . S
C689 C688 1.370 . S
C689 C693 1.408 . S
C690 C688 1.363 . S
C690 C691 1.370 . S
C690 C694 1.524 . S
C691 C683 1.503 . S
C691 C690 1.370 . S
C691 C692 1.403 . S
C692 C691 1.403 . S
C692 C693 1.404 . S
C692 C695 1.539 . S
C693 C689 1.408 . S
C693 C692 1.404 . S
C693 H705 0.930 . S
C694 C690 1.524 . S
C694 H706 0.956 . S
C694 H707 0.961 . S
C694 H708 0.961 . S
C695 C692 1.539 . S
C695 H709 0.958 . S
C695 H710 0.961 . S
C695 H711 0.960 . S
H696 C680 0.931 . S
H697 C685 0.929 . S
H698 C686 0.960 . S
H699 C686 0.962 . S
H700 C686 0.960 . S
H701 C687 0.961 . S
H702 C687 0.961 . S
H703 C687 0.961 . S
H704 C688 0.931 . S
H705 C693 0.930 . S
H706 C694 0.956 . S
H707 C694 0.961 . S
H708 C694 0.961 . S
H709 C695 0.958 . S
H710 C695 0.961 . S
H711 C695 0.960 . S
C712 C713 1.391 . S
C712 C714 1.394 . S
C712 H728 0.931 . S
C713 C712 1.391 . S
C713 C717 1.376 . S
C714 C712 1.394 . S
C714 C715 1.369 . S
C714 C718 1.531 . S
C715 C714 1.369 . S
C715 C716 1.410 . S
C715 C723 1.503 . S
C716 C715 1.410 . S
C716 C717 1.392 . S
C716 C719 1.511 . S
C717 C713 1.376 . S
C717 C716 1.392 . S
C717 H729 0.929 . S
C718 C714 1.531 . S
C718 H730 0.960 . S
C718 H731 0.962 . S
C718 H732 0.960 . S
C719 C716 1.511 . S
C719 H733 0.961 . S
C719 H734 0.961 . S
C719 H735 0.961 . S
C720 C721 1.370 . S
C720 C722 1.363 . S
C720 H736 0.931 . S
C721 C720 1.370 . S
C721 C725 1.408 . S
C722 C720 1.363 . S
C722 C723 1.370 . S
C722 C726 1.524 . S
C723 C715 1.503 . S
C723 C722 1.370 . S
C723 C724 1.403 . S
C724 C723 1.403 . S
C724 C725 1.404 . S
C724 C727 1.539 . S
C725 C721 1.408 . S
C725 C724 1.404 . S
C725 H737 0.930 . S
C726 C722 1.524 . S
C726 H738 0.956 . S
C726 H739 0.961 . S
C726 H740 0.961 . S
C727 C724 1.539 . S
C727 H741 0.958 . S
C727 H742 0.961 . S
C727 H743 0.960 . S
H728 C712 0.931 . S
H729 C717 0.929 . S
H730 C718 0.960 . S
H731 C718 0.962 . S
H732 C718 0.960 . S
H733 C719 0.961 . S
H734 C719 0.961 . S
H735 C719 0.961 . S
H736 C720 0.931 . S
H737 C725 0.930 . S
H738 C726 0.956 . S
H739 C726 0.961 . S
H740 C726 0.961 . S
H741 C727 0.958 . S
H742 C727 0.961 . S
H743 C727 0.960 . S
C744 C745 1.391 . S
C744 C746 1.394 . S
C744 H760 0.931 1_455 S
C745 C744 1.391 . S
C745 C749 1.376 . S
C746 C744 1.394 . S
C746 C747 1.369 . S
C746 C750 1.531 1_455 S
C747 C746 1.369 . S
C747 C748 1.410 . S
C747 C755 1.503 . S
C748 C747 1.410 . S
C748 C749 1.392 . S
C748 C751 1.511 . S
C749 C745 1.376 . S
C749 C748 1.392 . S
C749 H761 0.929 . S
C750 C746 1.531 1_655 S
C750 H762 0.960 1_655 S
C750 H763 0.962 . S
C750 H764 0.960 . S
C751 C748 1.511 . S
C751 H765 0.961 . S
C751 H766 0.961 . S
C751 H767 0.961 . S
C752 C753 1.370 . S
C752 C754 1.363 . S
C752 H768 0.931 1_455 S
C753 C752 1.370 . S
C753 C757 1.408 . S
C754 C752 1.363 . S
C754 C755 1.370 . S
C754 C758 1.524 1_455 S
C755 C747 1.503 . S
C755 C754 1.370 . S
C755 C756 1.403 . S
C756 C755 1.403 . S
C756 C757 1.404 . S
C756 C759 1.539 . S
C757 C753 1.408 . S
C757 C756 1.404 . S
C757 H769 0.930 . S
C758 C754 1.524 1_655 S
C758 H770 0.956 . S
C758 H771 0.961 . S
C758 H772 0.961 . S
C759 C756 1.539 . S
C759 H773 0.958 . S
C759 H774 0.961 . S
C759 H775 0.960 . S
H760 C744 0.931 1_655 S
H761 C749 0.929 . S
H762 C750 0.960 1_455 S
H763 C750 0.962 . S
H764 C750 0.960 . S
H765 C751 0.961 . S
H766 C751 0.961 . S
H767 C751 0.961 . S
H768 C752 0.931 1_655 S
H769 C757 0.930 . S
H770 C758 0.956 . S
H771 C758 0.961 . S
H772 C758 0.961 . S
H773 C759 0.958 . S
H774 C759 0.961 . S
H775 C759 0.960 . S
C776 C777 1.391 . S
C776 C778 1.394 . S
C776 H792 0.939 . S
C777 C776 1.391 . S
C777 C781 1.376 . S
C778 C776 1.394 . S
C778 C779 1.369 . S
C778 C782 1.531 1_545 S
C779 C778 1.369 . S
C779 C780 1.410 . S
C779 C787 1.503 . S
C780 C779 1.410 . S
C780 C781 1.392 . S
C780 C783 1.511 . S
C781 C777 1.376 . S
C781 C780 1.392 . S
C781 H793 0.929 . S
C782 C778 1.531 1_565 S
C782 H794 0.960 . S
C782 H795 0.962 1_565 S
C782 H796 0.960 . S
C783 C780 1.511 . S
C783 H797 0.961 . S
C783 H798 0.961 . S
C783 H799 0.961 . S
C784 C785 1.370 . S
C784 C786 1.363 . S
C784 H800 0.931 . S
C785 C784 1.370 . S
C785 C789 1.408 1_545 S
C786 C784 1.363 . S
C786 C787 1.370 . S
C786 C790 1.524 . S
C787 C779 1.503 . S
C787 C786 1.370 . S
C787 C788 1.403 1_545 S
C788 C787 1.403 1_565 S
C788 C789 1.404 . S
C788 C791 1.539 . S
C789 C785 1.408 1_565 S
C789 C788 1.404 . S
C789 H801 0.930 . S
C790 C786 1.524 . S
C790 H802 0.956 . S
C790 H803 0.961 . S
C790 H804 0.961 . S
C791 C788 1.539 . S
C791 H805 0.958 . S
C791 H806 0.961 . S
C791 H807 0.960 . S
H792 C776 0.939 . S
H793 C781 0.929 . S
H794 C782 0.960 . S
H795 C782 0.962 1_545 S
H796 C782 0.960 . S
H797 C783 0.961 . S
H798 C783 0.961 . S
H799 C783 0.961 . S
H800 C784 0.931 . S
H801 C789 0.930 . S
H802 C790 0.956 . S
H803 C790 0.961 . S
H804 C790 0.961 . S
H805 C791 0.958 . S
H806 C791 0.961 . S
H807 C791 0.960 . S
C808 C809 1.391 . S
C808 C810 1.394 . S
C808 H824 0.931 . S
C809 C808 1.391 . S
C809 C813 1.376 . S
C810 C808 1.394 . S
C810 C811 1.369 . S
C810 C814 1.531 . S
C811 C810 1.369 . S
C811 C812 1.410 . S
C811 C819 1.503 . S
C812 C811 1.410 . S
C812 C813 1.392 . S
C812 C815 1.511 . S
C813 C809 1.376 . S
C813 C812 1.392 . S
C813 H825 0.929 . S
C814 C810 1.531 . S
C814 H826 0.960 . S
C814 H827 0.962 . S
C814 H828 0.960 . S
C815 C812 1.511 . S
C815 H829 0.961 . S
C815 H830 0.961 . S
C815 H831 0.961 . S
C816 C817 1.370 . S
C816 C818 1.363 . S
C816 H832 0.931 . S
C817 C816 1.370 . S
C817 C821 1.408 . S
C818 C816 1.363 . S
C818 C819 1.370 . S
C818 C822 1.524 . S
C819 C811 1.503 . S
C819 C818 1.370 . S
C819 C820 1.403 . S
C820 C819 1.403 . S
C820 C821 1.404 . S
C820 C823 1.539 . S
C821 C817 1.408 . S
C821 C820 1.404 . S
C821 H833 0.930 . S
C822 C818 1.524 . S
C822 H834 0.956 . S
C822 H835 0.961 . S
C822 H836 0.961 . S
C823 C820 1.539 . S
C823 H837 0.958 . S
C823 H838 0.961 . S
C823 H839 0.960 . S
H824 C808 0.931 . S
H825 C813 0.929 . S
H826 C814 0.960 . S
H827 C814 0.962 . S
H828 C814 0.960 . S
H829 C815 0.961 . S
H830 C815 0.961 . S
H831 C815 0.961 . S
H832 C816 0.931 . S
H833 C821 0.930 . S
H834 C822 0.956 . S
H835 C822 0.961 . S
H836 C822 0.961 . S
H837 C823 0.958 . S
H838 C823 0.961 . S
H839 C823 0.960 . S
C840 C841 1.391 . S
C840 C842 1.394 . S
C840 H856 0.931 . S
C841 C840 1.391 . S
C841 C845 1.376 1_545 S
C842 C840 1.394 . S
C842 C843 1.369 . S
C842 C846 1.531 . S
C843 C842 1.369 . S
C843 C844 1.410 1_545 S
C843 C851 1.503 . S
C844 C843 1.410 1_565 S
C844 C845 1.392 . S
C844 C847 1.511 . S
C845 C841 1.376 1_565 S
C845 C844 1.392 . S
C845 H857 0.929 . S
C846 C842 1.531 . S
C846 H858 0.960 . S
C846 H859 0.962 . S
C846 H860 0.960 . S
C847 C844 1.511 . S
C847 H861 0.961 . S
C847 H862 0.961 . S
C847 H863 0.961 . S
C848 C849 1.370 . S
C848 C850 1.363 . S
C848 H864 0.931 . S
C849 C848 1.370 . S
C849 C853 1.408 1_565 S
C850 C848 1.363 . S
C850 C851 1.370 1_565 S
C850 C854 1.524 . S
C851 C843 1.503 . S
C851 C850 1.370 1_545 S
C851 C852 1.403 . S
C852 C851 1.403 . S
C852 C853 1.404 . S
C852 C855 1.539 . S
C853 C849 1.408 1_545 S
C853 C852 1.404 . S
C853 H865 0.930 . S
C854 C850 1.524 . S
C854 H866 0.956 . S
C854 H867 0.961 . S
C854 H868 0.961 . S
C855 C852 1.539 . S
C855 H869 0.958 . S
C855 H870 0.961 . S
C855 H871 0.960 . S
H856 C840 0.931 . S
H857 C845 0.929 . S
H858 C846 0.960 . S
H859 C846 0.962 . S
H860 C846 0.960 . S
H861 C847 0.961 . S
H862 C847 0.961 . S
H863 C847 0.961 . S
H864 C848 0.931 . S
H865 C853 0.930 . S
H866 C854 0.956 . S
H867 C854 0.961 . S
H868 C854 0.961 . S
H869 C855 0.958 . S
H870 C855 0.961 . S
H871 C855 0.960 . S
C872 C873 1.391 . S
C872 C874 1.394 . S
C872 H888 0.931 . S
C873 C872 1.391 . S
C873 C877 1.376 . S
C874 C872 1.394 . S
C874 C875 1.369 . S
C874 C878 1.531 . S
C875 C874 1.369 . S
C875 C876 1.410 . S
C875 C883 1.503 . S
C876 C875 1.410 . S
C876 C877 1.392 . S
C876 C879 1.511 . S
C877 C873 1.376 . S
C877 C876 1.392 . S
C877 H889 0.929 . S
C878 C874 1.531 . S
C878 H890 0.960 . S
C878 H891 0.962 . S
C878 H892 0.960 . S
C879 C876 1.511 . S
C879 H893 0.961 . S
C879 H894 0.961 . S
C879 H895 0.961 . S
C880 C881 1.370 . S
C880 C882 1.363 . S
C880 H896 0.931 . S
C881 C880 1.370 . S
C881 C885 1.408 . S
C882 C880 1.363 . S
C882 C883 1.370 . S
C882 C886 1.524 . S
C883 C875 1.503 . S
C883 C882 1.370 . S
C883 C884 1.403 . S
C884 C883 1.403 . S
C884 C885 1.404 . S
C884 C887 1.539 . S
C885 C881 1.408 . S
C885 C884 1.404 . S
C885 H897 0.930 . S
C886 C882 1.524 . S
C886 H898 0.956 . S
C886 H899 0.961 . S
C886 H900 0.961 . S
C887 C884 1.539 . S
C887 H901 0.958 . S
C887 H902 0.961 . S
C887 H903 0.960 . S
H888 C872 0.931 . S
H889 C877 0.929 . S
H890 C878 0.960 . S
H891 C878 0.962 . S
H892 C878 0.960 . S
H893 C879 0.961 . S
H894 C879 0.961 . S
H895 C879 0.961 . S
H896 C880 0.931 . S
H897 C885 0.930 . S
H898 C886 0.956 . S
H899 C886 0.961 . S
H900 C886 0.961 . S
H901 C887 0.958 . S
H902 C887 0.961 . S
H903 C887 0.960 . S
C904 C905 1.391 . S
C904 C906 1.394 . S
C904 H920 0.931 . S
C905 C904 1.391 . S
C905 C909 1.376 1_455 S
C906 C904 1.394 . S
C906 C907 1.369 . S
C906 C910 1.531 . S
C907 C906 1.369 . S
C907 C908 1.410 1_455 S
C907 C915 1.503 1_455 S
C908 C907 1.410 1_655 S
C908 C909 1.392 . S
C908 C911 1.511 . S
C909 C905 1.376 1_655 S
C909 C908 1.392 . S
C909 H921 0.929 . S
C910 C906 1.531 . S
C910 H922 0.960 . S
C910 H923 0.962 . S
C910 H924 0.960 . S
C911 C908 1.511 . S
C911 H925 0.961 . S
C911 H926 0.961 . S
C911 H927 0.961 . S
C912 C913 1.370 1_455 S
C912 C914 1.363 . S
C912 H928 0.931 . S
C913 C912 1.370 1_655 S
C913 C917 1.408 . S
C914 C912 1.363 . S
C914 C915 1.370 1_455 S
C914 C918 1.524 . S
C915 C907 1.503 1_655 S
C915 C914 1.370 1_655 S
C915 C916 1.403 . S
C916 C915 1.403 . S
C916 C917 1.404 . S
C916 C919 1.539 . S
C917 C913 1.408 . S
C917 C916 1.404 . S
C917 H929 0.930 . S
C918 C914 1.524 . S
C918 H930 0.956 . S
C918 H931 0.961 . S
C918 H932 0.961 . S
C919 C916 1.539 . S
C919 H933 0.958 . S
C919 H934 0.961 . S
C919 H935 0.960 . S
H920 C904 0.931 . S
H921 C909 0.929 . S
H922 C910 0.960 . S
H923 C910 0.962 . S
H924 C910 0.960 . S
H925 C911 0.961 . S
H926 C911 0.961 . S
H927 C911 0.961 . S
H928 C912 0.931 . S
H929 C917 0.930 . S
H930 C918 0.956 . S
H931 C918 0.961 . S
H932 C918 0.961 . S
H933 C919 0.958 . S
H934 C919 0.961 . S
H935 C919 0.960 . S
C361 C7 0.643 . S
C369 C335 0.674 . S
C393 C51 1.947 . S
C401 C242 1.937 . S
C425 C87 1.221 . S
C433 C282 1.220 . S
C457 C16 0.400 . S
C465 C322 0.329 . S
C497 C255 2.082 . S
C489 C42 2.160 . S
C529 C295 1.349 . S
C521 C96 1.353 . S
C553 C47 1.181 . S
C561 C162 1.192 . S
C585 C91 3.173 . S
C593 C202 3.129 . S
C617 C2 2.203 . S
C625 C135 2.135 . S
C657 C175 1.338 . S
C649 C56 1.326 . S
C689 C215 2.993 . S
C681 C82 3.045 . S
C713 C11 1.955 . S
C721 C122 1.915 . S
C753 C221 1.756 1_554 S
C745 C19 1.692 . S
C777 C50 1.347 . S
C785 C141 1.386 . S
C809 C99 1.440 . S
C817 C181 1.507 . S
C849 C301 1.494 . S
C841 C59 1.431 . S
C881 C341 1.147 . S
C873 C90 1.118 . S
C905 C10 1.376 . S
C913 C261 1.375 . S
