# Generated by pormake.
# Topology anh, (6,3)-cn, num edge types: 1
# Building blocks:
#     Node 0, Type 0, BuildingBlock: HISSIN_clean_sbu_0, # of connection points: 6
#     Node 1, Type 0, BuildingBlock: HISSIN_clean_sbu_0, # of connection points: 6
#     Node 2, Type 0, BuildingBlock: HISSIN_clean_sbu_0, # of connection points: 6
#     Node 3, Type 1, BuildingBlock: WUSLED_clean_sbu_0, # of connection points: 3
#     Node 4, Type 1, BuildingBlock: WUSLED_clean_sbu_0, # of connection points: 3
#     Node 5, Type 1, BuildingBlock: WUSLED_clean_sbu_0, # of connection points: 3
#     Node 6, Type 1, BuildingBlock: WUSLED_clean_sbu_0, # of connection points: 3
#     Node 7, Type 1, BuildingBlock: WUSLED_clean_sbu_0, # of connection points: 3
#     Node 8, Type 1, BuildingBlock: WUSLED_clean_sbu_0, # of connection points: 3
#     Edge 9, Type (0, 1), BuildingBlock: XUDNAN_clean_linker_2, # of connection points: 2
#     Edge 10, Type (0, 1), BuildingBlock: XUDNAN_clean_linker_2, # of connection points: 2
#     Edge 11, Type (0, 1), BuildingBlock: XUDNAN_clean_linker_2, # of connection points: 2
#     Edge 12, Type (0, 1), BuildingBlock: XUDNAN_clean_linker_2, # of connection points: 2
#     Edge 13, Type (0, 1), BuildingBlock: XUDNAN_clean_linker_2, # of connection points: 2
#     Edge 14, Type (0, 1), BuildingBlock: XUDNAN_clean_linker_2, # of connection points: 2
#     Edge 15, Type (0, 1), BuildingBlock: XUDNAN_clean_linker_2, # of connection points: 2
#     Edge 16, Type (0, 1), BuildingBlock: XUDNAN_clean_linker_2, # of connection points: 2
#     Edge 17, Type (0, 1), BuildingBlock: XUDNAN_clean_linker_2, # of connection points: 2
#     Edge 18, Type (0, 1), BuildingBlock: XUDNAN_clean_linker_2, # of connection points: 2
#     Edge 19, Type (0, 1), BuildingBlock: XUDNAN_clean_linker_2, # of connection points: 2
#     Edge 20, Type (0, 1), BuildingBlock: XUDNAN_clean_linker_2, # of connection points: 2
#     Edge 21, Type (0, 1), BuildingBlock: XUDNAN_clean_linker_2, # of connection points: 2
#     Edge 22, Type (0, 1), BuildingBlock: XUDNAN_clean_linker_2, # of connection points: 2
#     Edge 23, Type (0, 1), BuildingBlock: XUDNAN_clean_linker_2, # of connection points: 2
#     Edge 24, Type (0, 1), BuildingBlock: XUDNAN_clean_linker_2, # of connection points: 2
#     Edge 25, Type (0, 1), BuildingBlock: XUDNAN_clean_linker_2, # of connection points: 2
#     Edge 26, Type (0, 1), BuildingBlock: XUDNAN_clean_linker_2, # of connection points: 2
# Relax obj value: 0.217
# Max RMSD: 0.182
# Mean RMSD: 0.147
data_MOF--net-anh--node1-HISSIN_clean_sbu_0--node2-WUSLED_clean_sbu_0--edge1-XUDNAN_clean_linker_2
_symmetry_space_group_name_H-M    P1
_symmetry_Int_Tables_number       1
_symmetry_cell_setting            triclinic
loop_
_symmetry_equiv_pos_as_xyz
'x, y, z'
_cell_length_a     38.41752
_cell_length_b     38.515256
_cell_length_c     69.340876
_cell_angle_alpha  91.167388
_cell_angle_beta   91.350536
_cell_angle_gamma 119.94332
loop_
_atom_site_label
_atom_site_type_symbol
_atom_site_fract_x
_atom_site_fract_y
_atom_site_fract_z
_atom_type_partial_charge
Eu0 Eu 1.09749 0.52075 0.17839 0.0
Eu1 Eu 0.14031 0.61518 0.18859 0.0
C2 C 1.10119 0.55285 0.22178 0.0
C3 C 1.01789 0.41723 0.16607 0.0
C4 C 0.99216 0.43259 0.16885 0.0
C5 C 0.96129 0.35439 0.15397 0.0
C6 C 0.95156 0.40961 0.16389 0.0
C7 C 1.00256 0.37819 0.15841 0.0
C8 C 0.93532 0.36987 0.15682 0.0
C9 C 1.06081 0.44387 0.17012 0.0
O10 O 0.18997 0.60277 0.1786 0.0
O11 O 0.16014 0.53932 0.18917 0.0
C12 C 0.19218 0.57083 0.18315 0.0
O13 O 0.12612 0.5504 0.15076 0.0
O14 O 0.1921 0.66926 0.20109 0.0
O15 O 0.1404 0.67172 0.18965 0.0
O16 O 0.13241 0.61202 0.1566 0.0
C17 C 0.13192 0.58496 0.14476 0.0
O18 O 1.0507 0.53689 0.16939 0.0
O19 O 1.07278 0.59454 0.18779 0.0
O20 O 0.13295 0.58619 0.21716 0.0
O21 O 1.07823 0.47109 0.15739 0.0
O22 O 1.07058 0.45907 0.1877 0.0
O23 O 1.07749 0.52679 0.20823 0.0
C24 C 0.20479 0.72665 0.18433 0.0
C25 C 0.19279 0.73324 0.16604 0.0
C26 C 0.26941 0.78649 0.18172 0.0
C27 C 0.21874 0.76702 0.1559 0.0
C28 C 0.24344 0.7532 0.19189 0.0
C29 C 0.25718 0.79414 0.16376 0.0
C30 C 0.17793 0.69216 0.19565 0.0
C31 C 1.04453 0.56493 0.17683 0.0
H32 H 1.00364 0.46256 0.17491 0.0
H33 H 0.94971 0.32373 0.14879 0.0
H34 H 0.93283 0.42296 0.16587 0.0
H35 H 1.02229 0.3661 0.15604 0.0
H36 H 0.16318 0.71281 0.15974 0.0
H37 H 0.29841 0.8074 0.18846 0.0
H38 H 0.20849 0.77251 0.14222 0.0
H39 H 0.25332 0.74861 0.2059 0.0
Eu40 Eu 0.63693 1.04729 0.51373 0.0
Eu41 Eu 0.59015 0.09468 0.5259 0.0
C42 C 0.62392 1.06137 0.55838 0.0
C43 C 0.65953 0.9697 0.49283 0.0
C44 C 0.61846 0.94226 0.48943 0.0
C45 C 0.67588 0.9219 0.4787 0.0
C46 C 0.60612 0.90419 0.48136 0.0
C47 C 0.68817 0.95985 0.4869 0.0
C48 C 0.63474 0.89328 0.47645 0.0
C49 C 0.67251 1.00757 0.50353 0.0
O50 O 0.65599 0.14307 0.52806 0.0
O51 O 0.68549 0.11298 0.51142 0.0
C52 C 0.687 0.14526 0.5192 0.0
O53 O 0.60902 1.05496 0.4864 0.0
O54 O 0.57979 0.13315 0.5456 0.0
O55 O 0.54441 0.11056 0.51873 0.0
O56 O 0.61287 0.11335 0.49632 0.0
C57 C 0.61148 0.0892 0.48244 0.0
O58 O 0.57162 0.9965 0.51504 0.0
O59 O 0.54026 1.03393 0.51514 0.0
O60 O 0.59253 1.06394 0.55272 0.0
O61 O 0.6735 1.03636 0.49358 0.0
O62 O 0.6564 1.00446 0.52023 0.0
O63 O 0.6497 1.06282 0.54582 0.0
C64 C 0.57148 0.179 0.52737 0.0
C65 C 0.58601 0.19104 0.50878 0.0
C66 C 0.60351 0.24867 0.53814 0.0
C67 C 0.61018 0.23162 0.50511 0.0
C68 C 0.57902 0.20818 0.54177 0.0
C69 C 0.62044 0.26045 0.52003 0.0
C70 C 0.55669 0.13742 0.53288 0.0
C71 C 0.53869 0.99907 0.51361 0.0
H72 H 0.59598 0.94969 0.49375 0.0
H73 H 0.69859 0.91412 0.47532 0.0
H74 H 0.57426 0.8827 0.47974 0.0
H75 H 0.71997 0.98087 0.48935 0.0
H76 H 0.58103 0.16915 0.49742 0.0
H77 H 0.61093 0.27074 0.54979 0.0
H78 H 0.62303 0.24024 0.49107 0.0
H79 H 0.56846 0.19958 0.5562 0.0
Eu80 Eu 0.59195 0.57292 0.85328 0.0
Eu81 Eu 0.68804 0.61031 0.8499 0.0
C82 C 0.64849 0.59775 0.89121 0.0
C83 C 0.49235 0.56084 0.8431 0.0
C84 C 0.45073 0.54326 0.84462 0.0
C85 C 0.49387 0.61541 0.82559 0.0
C86 C 0.43086 0.56235 0.83704 0.0
C87 C 0.51357 0.59627 0.83301 0.0
C88 C 0.45262 0.59923 0.82806 0.0
C89 C 0.51473 0.54417 0.85271 0.0
O90 O 0.66544 0.54355 0.85153 0.0
O91 O 0.59933 0.52053 0.84324 0.0
C92 C 0.62978 0.51421 0.84574 0.0
O93 O 0.60843 0.60025 0.82439 0.0
O94 O 0.74473 0.61877 0.86197 0.0
O95 O 0.74367 0.64631 0.83513 0.0
O96 O 0.66107 0.59014 0.81969 0.0
C97 C 0.63358 0.59775 0.81289 0.0
O98 O 0.6147 0.64038 0.85421 0.0
O99 O 0.68038 0.66442 0.84608 0.0
O100 O 0.67742 0.62297 0.88049 0.0
O101 O 0.5322 0.53118 0.84104 0.0
O102 O 0.53869 0.56635 0.8671 0.0
O103 O 0.61471 0.56922 0.88314 0.0
C104 C 0.78611 0.61855 0.83783 0.0
C105 C 0.77396 0.59883 0.81952 0.0
C106 C 0.83388 0.59542 0.84159 0.0
C107 C 0.79172 0.57744 0.81234 0.0
C108 C 0.81663 0.61723 0.84863 0.0
C109 C 0.8211 0.57488 0.82356 0.0
C110 C 0.76439 0.63662 0.84676 0.0
C111 C 0.64983 0.67008 0.84926 0.0
H112 H 0.43399 0.51583 0.85229 0.0
H113 H 0.51115 0.64381 0.81875 0.0
H114 H 0.39906 0.54971 0.83935 0.0
H115 H 0.54572 0.61007 0.83158 0.0
H116 H 0.75004 0.59899 0.811 0.0
H117 H 0.85702 0.59425 0.85032 0.0
H118 H 0.78169 0.5619 0.79837 0.0
H119 H 0.8262 0.63202 0.86279 0.0
C120 C 0.6012 0.14564 0.21102 0.0
C121 C 0.64076 0.16865 0.21836 0.0
C122 C 0.66231 0.19441 0.18656 0.0
C123 C 0.6711 0.19281 0.20622 0.0
C124 C 0.62276 0.17054 0.17912 0.0
C125 C 0.59221 0.14632 0.19137 0.0
U126 U 0.56774 0.1089 0.26106 0.0
O127 O 0.51447 0.10103 0.27602 0.0
O128 O 0.52224 1.04917 0.27003 0.0
C129 C 0.49689 1.06176 0.27384 0.0
C130 C 0.56936 0.12174 0.22404 0.0
C131 C 0.46015 1.04256 0.26125 0.0
C132 C 0.42849 1.04922 0.2318 0.0
C133 C 0.4518 1.06616 0.24876 0.0
C134 C 0.41774 0.98413 0.24058 0.0
C135 C 0.41335 1.00857 0.22708 0.0
C136 C 0.44079 1.00098 0.25761 0.0
C137 C 0.63975 0.13847 0.30378 0.0
C138 C 0.61483 0.10527 0.33385 0.0
C139 C 0.67624 0.16974 0.33398 0.0
C140 C 0.67265 0.17013 0.31389 0.0
C141 C 0.64697 0.13761 0.34416 0.0
C142 C 0.61114 0.10581 0.31383 0.0
C143 C 0.63331 0.14114 0.28309 0.0
O144 O 0.57101 0.09119 0.23113 0.0
O145 O 0.56287 0.14281 0.23712 0.0
O146 O 0.61343 0.15983 0.27898 0.0
O147 O 0.62072 0.10766 0.27278 0.0
H148 H 0.64806 0.16814 0.23351 0.0
H149 H 0.70156 0.2103 0.21221 0.0
H150 H 0.61543 0.17128 0.164 0.0
H151 H 0.56163 0.12851 0.18558 0.0
H152 H 0.42505 1.06851 0.22171 0.0
H153 H 0.46622 0.09836 0.25108 0.0
H154 H 0.40531 0.95236 0.23742 0.0
H155 H 0.44673 0.98215 0.26695 0.0
H156 H 0.59151 0.08042 0.34133 0.0
H157 H 0.70144 0.19491 0.34159 0.0
H158 H 0.69486 0.19564 0.30633 0.0
H159 H 0.58521 0.08132 0.30627 0.0
C160 C 0.67094 0.63384 0.53964 0.0
C161 C 0.66057 0.66203 0.54612 0.0
C162 C 0.63608 0.6641 0.51371 0.0
C163 C 0.64352 0.6772 0.53326 0.0
C164 C 0.64484 0.63437 0.50751 0.0
C165 C 0.66226 0.61943 0.52041 0.0
U166 U 0.70423 0.62339 0.59015 0.0
O167 O 0.70826 0.57352 0.60263 0.0
O168 O 0.76274 0.63236 0.60077 0.0
C169 C 0.74777 0.59376 0.60326 0.0
C170 C 0.69249 0.62088 0.55263 0.0
C171 C 0.76557 0.5742 0.59202 0.0
C172 C 0.78526 0.56331 0.56042 0.0
C173 C 0.78074 0.58822 0.57378 0.0
C174 C 0.7628 0.51142 0.5839 0.0
C175 C 0.77405 0.5238 0.56495 0.0
C176 C 0.75872 0.5365 0.59733 0.0
C177 C 0.66832 0.65401 0.63426 0.0
C178 C 0.69395 0.65371 0.66657 0.0
C179 C 0.63015 0.65159 0.66203 0.0
C180 C 0.63449 0.65273 0.64209 0.0
C181 C 0.65976 0.65195 0.67452 0.0
C182 C 0.69809 0.65451 0.64658 0.0
C183 C 0.67035 0.65139 0.61324 0.0
O184 O 0.72401 0.65011 0.56203 0.0
O185 O 0.66977 0.59102 0.56357 0.0
O186 O 0.65163 0.61459 0.60583 0.0
O187 O 0.70578 0.67425 0.606 0.0
H188 H 0.66697 0.67335 0.56098 0.0
H189 H 0.63801 0.70063 0.53852 0.0
H190 H 0.63912 0.62337 0.49262 0.0
H191 H 0.66986 0.59739 0.51526 0.0
H192 H 0.79464 0.57396 0.54607 0.0
H193 H 0.78602 0.61715 0.56924 0.0
H194 H 0.75341 0.48106 0.58792 0.0
H195 H 0.74658 0.52498 0.61122 0.0
H196 H 0.7175 0.65444 0.67577 0.0
H197 H 0.60304 0.6494 0.66758 0.0
H198 H 0.61094 0.65166 0.63275 0.0
H199 H 0.72421 0.65496 0.64074 0.0
C200 C 1.09437 0.56416 0.86778 0.0
C201 C 1.05762 0.55415 0.87586 0.0
C202 C 1.02255 0.52395 0.84505 0.0
C203 C 1.02213 0.53458 0.86459 0.0
C204 C 1.05921 0.53119 0.83751 0.0
C205 C 1.09493 0.55144 0.84878 0.0
U206 U 0.15283 0.61087 0.91506 0.0
O207 O 0.21484 0.62815 0.92407 0.0
O208 O 0.19678 0.67391 0.92265 0.0
C209 C 0.22677 0.66663 0.92368 0.0
C210 C 0.13216 0.591 0.87848 0.0
C211 C 0.25944 0.6889 0.91045 0.0
C212 C 0.2782 0.71247 0.87802 0.0
C213 C 0.25154 0.70213 0.89298 0.0
C214 C 0.32269 0.69997 0.89832 0.0
C215 C 0.3129 0.70928 0.88016 0.0
C216 C 0.29612 0.68988 0.91335 0.0
C217 C 1.10368 0.57955 0.9633 0.0
C218 C 0.12118 0.56239 0.99422 0.0
C219 C 1.10008 0.61201 0.99304 0.0
C220 C 1.09493 0.60654 0.97299 0.0
C221 C 0.11385 0.59044 1.00383 0.0
C222 C 0.11599 0.55689 0.9742 0.0
C223 C 1.10109 0.5758 0.94196 0.0
O224 O 0.1331 0.62213 0.88717 0.0
O225 O 0.14708 0.57356 0.88929 0.0
O226 O 0.12157 0.56049 0.93414 0.0
O227 O 1.10425 0.60678 0.93278 0.0
H228 H 1.05664 0.56356 0.89058 0.0
H229 H 0.99493 0.53045 0.87096 0.0
H230 H 1.06062 0.52288 0.82266 0.0
H231 H 0.12314 0.55866 0.8424 0.0
H232 H 0.27014 0.71998 0.86428 0.0
H233 H 0.22338 0.70157 0.89029 0.0
H234 H 0.34898 0.6968 0.90041 0.0
H235 H 0.30265 0.67955 0.92664 0.0
H236 H 0.132 0.54545 1.00212 0.0
H237 H 1.09338 0.63323 1.00009 0.0
H238 H 1.08467 0.62392 0.96507 0.0
H239 H 0.12247 0.53542 0.96724 0.0
C240 C 1.01693 0.46357 0.48232 0.0
C241 C 1.01319 0.42798 0.48958 0.0
C242 C 0.93951 0.39481 0.48781 0.0
C243 C 0.97514 0.39408 0.49219 0.0
C244 C 0.94336 0.42981 0.47963 0.0
C245 C 0.98133 0.4636 0.47699 0.0
U246 U 0.11447 0.56003 0.46409 0.0
O247 O 0.14354 0.62 0.47857 0.0
O248 O 0.17654 0.58737 0.47689 0.0
C249 C 0.17759 0.62074 0.48246 0.0
C250 C 1.05707 0.50158 0.48346 0.0
C251 C 0.21609 0.65979 0.48089 0.0
C252 C 0.28574 0.70421 0.49285 0.0
C253 C 0.25107 0.66591 0.49102 0.0
C254 C 0.25202 0.73107 0.47372 0.0
C255 C 0.28644 0.73776 0.48471 0.0
C256 C 0.2174 0.69282 0.4719 0.0
C257 C 1.10365 0.5564 0.40499 0.0
C258 C 0.12878 0.55396 0.37328 0.0
C259 C 1.06386 0.54928 0.37571 0.0
C260 C 1.069 0.55308 0.39588 0.0
C261 C 1.09359 0.54947 0.36417 0.0
C262 C 0.13357 0.55696 0.39349 0.0
C263 C 0.10774 0.55772 0.42636 0.0
O264 O 1.08882 0.50064 0.47745 0.0
O265 O 1.05808 0.53536 0.47967 0.0
O266 O 1.09241 0.57448 0.43741 0.0
O267 O 0.127 0.54246 0.4356 0.0
H268 H 1.03983 0.42695 0.49413 0.0
H269 H 0.97374 0.36804 0.49862 0.0
H270 H 0.91686 0.43156 0.47569 0.0
H271 H 0.98265 0.49029 0.47144 0.0
H272 H 0.31123 0.70783 0.50152 0.0
H273 H 0.25101 0.64129 0.49833 0.0
H274 H 0.25137 0.75574 0.46684 0.0
H275 H 0.19118 0.68949 0.46401 0.0
H276 H 0.15212 0.554 0.36479 0.0
H277 H 1.03655 0.54616 0.36912 0.0
H278 H 1.04541 0.55246 0.40438 0.0
H279 H 0.16061 0.55955 0.40013 0.0
C280 C 0.63409 0.9883 0.81418 0.0
C281 C 0.66058 0.98222 0.80285 0.0
C282 C 0.64154 0.91834 0.8183 0.0
C283 C 0.66402 0.94766 0.80478 0.0
C284 C 0.61382 0.92388 0.82898 0.0
C285 C 0.61022 0.95826 0.82694 0.0
U286 U 0.63468 0.08894 0.79864 0.0
O287 O 0.60106 0.11237 0.81442 0.0
O288 O 0.66672 0.1471 0.81515 0.0
C289 C 0.63337 0.14604 0.82011 0.0
C290 C 0.63417 1.02723 0.81514 0.0
C291 C 0.63092 0.18375 0.81941 0.0
C292 C 0.59264 0.21758 0.82601 0.0
C293 C 0.5952 0.18255 0.82461 0.0
C294 C 0.66181 0.25688 0.81723 0.0
C295 C 0.62573 0.25544 0.82226 0.0
C296 C 0.6644 0.22155 0.81586 0.0
C297 C 0.63535 0.07883 0.74124 0.0
C298 C 0.60153 1.05273 0.70962 0.0
C299 C 0.67339 0.08033 0.71321 0.0
C300 C 0.67193 0.08803 0.73294 0.0
C301 C 0.63834 1.06341 0.70114 0.0
C302 C 0.6001 1.06048 0.72936 0.0
C303 C 0.63479 0.09517 0.76083 0.0
O304 O 0.66723 1.06044 0.8112 0.0
O305 O 0.60128 1.02765 0.80988 0.0
O306 O 0.60168 0.07688 0.77053 0.0
O307 O 0.6677 0.1105 0.77194 0.0
H308 H 0.67948 1.00468 0.7929 0.0
H309 H 0.68503 0.9444 0.79586 0.0
H310 H 0.59615 0.90262 0.83964 0.0
H311 H 0.58983 0.96221 0.83604 0.0
H312 H 0.56458 0.21489 0.83044 0.0
H313 H 0.56915 0.15436 0.82804 0.0
H314 H 0.68798 0.28525 0.81418 0.0
H315 H 0.69275 0.22396 0.8122 0.0
H316 H 0.5738 1.03909 0.70093 0.0
H317 H 0.7024 0.08947 0.70726 0.0
H318 H 0.69987 0.10298 0.74148 0.0
H319 H 0.57149 1.05363 0.73514 0.0
C320 C 0.72606 0.58966 0.14625 0.0
C321 C 0.73153 0.56497 0.13294 0.0
C322 C 0.79547 0.58029 0.14949 0.0
C323 C 0.76583 0.56061 0.13445 0.0
C324 C 0.79039 0.60615 0.16232 0.0
C325 C 0.75631 0.61072 0.16069 0.0
U326 U 0.62332 0.58852 0.13118 0.0
O327 O 0.56878 0.55719 0.14804 0.0
O328 O 0.60009 0.6226 0.14731 0.0
C329 C 0.56831 0.5901 0.15296 0.0
C330 C 0.68751 0.59034 0.14727 0.0
C331 C 0.52859 0.58872 0.1518 0.0
C332 C 0.48562 0.61455 0.16341 0.0
C333 C 0.52384 0.61828 0.16175 0.0
C334 C 0.45603 0.55229 0.14459 0.0
C335 C 0.45091 0.58087 0.15533 0.0
C336 C 0.49419 0.5561 0.14286 0.0
C337 C 0.62131 0.58333 0.07347 0.0
C338 C 0.59987 0.57147 0.03946 0.0
C339 C 0.67062 0.60281 0.04853 0.0
C340 C 0.66139 0.6001 0.06814 0.0
C341 C 0.64 0.58931 0.03385 0.0
C342 C 0.59074 0.56843 0.05898 0.0
C343 C 0.60991 0.58464 0.09358 0.0
O344 O 0.68663 0.62282 0.14257 0.0
O345 O 0.65359 0.55711 0.14285 0.0
O346 O 0.5978 0.55262 0.10391 0.0
O347 O 0.63033 0.61854 0.10372 0.0
H348 H 0.70883 0.5482 0.12167 0.0
H349 H 0.76868 0.54117 0.12389 0.0
H350 H 0.81182 0.62161 0.17421 0.0
H351 H 0.75277 0.62963 0.17132 0.0
H352 H 0.48306 0.63705 0.17189 0.0
H353 H 0.5496 0.64362 0.16894 0.0
H354 H 0.43025 0.52623 0.13786 0.0
H355 H 0.49645 0.53272 0.13504 0.0
H356 H 0.57537 0.56131 0.02882 0.0
H357 H 0.70184 0.61605 0.0449 0.0
H358 H 0.68551 0.61192 0.07909 0.0
H359 H 0.5596 0.55578 0.06275 0.0
H360 H 0.26991 0.62924 0.17243 0.0
H361 H 0.19828 0.50394 0.18665 0.0
H362 H 0.25527 0.4941 0.18063 0.0
H363 H 0.3248 0.61419 0.13428 0.0
H364 H 0.37219 0.65854 0.14053 0.0
H365 H 0.32575 0.65703 0.14583 0.0
H366 H 0.34887 0.67466 0.18178 0.0
H367 H 0.39544 0.67637 0.17659 0.0
H368 H 0.36396 0.64402 0.19484 0.0
H369 H 0.31825 0.49563 0.17254 0.0
H370 H 0.38605 0.50995 0.16463 0.0
H371 H 0.42134 0.63453 0.15617 0.0
C372 C 0.26634 0.59983 0.17436 0.0
C373 C 0.22905 0.56744 0.18009 0.0
C374 C 0.22606 0.52948 0.18239 0.0
C375 C 0.25842 0.52339 0.17893 0.0
C376 C 0.29437 0.55552 0.17326 0.0
C377 C 0.29892 0.59315 0.17112 0.0
C378 C 0.34164 0.62236 0.16515 0.0
C379 C 0.34105 0.63901 0.14526 0.0
C380 C 0.36378 0.65637 0.18051 0.0
C381 C 0.35995 0.59508 0.16427 0.0
C382 C 0.33175 0.55661 0.16888 0.0
C383 C 0.34063 0.52568 0.1689 0.0
C384 C 0.37934 0.5341 0.16421 0.0
C385 C 0.40939 0.57328 0.15956 0.0
C386 C 0.39932 0.60425 0.15969 0.0
H387 H 0.76167 0.16596 0.50392 0.0
H388 H 0.69386 0.21812 0.5279 0.0
H389 H 0.74967 0.28555 0.52201 0.0
H390 H 0.85981 0.24307 0.52377 0.0
H391 H 0.88658 0.24295 0.50279 0.0
H392 H 0.84125 0.1981 0.50876 0.0
H393 H 0.81043 0.1949 0.47473 0.0
H394 H 0.85561 0.23983 0.46868 0.0
H395 H 0.80768 0.23759 0.46648 0.0
H396 H 0.81159 0.34766 0.51266 0.0
H397 H 0.87764 0.40116 0.50303 0.0
H398 H 0.90863 0.31146 0.48532 0.0
C399 C 0.75869 0.19156 0.50809 0.0
C400 C 0.72296 0.18614 0.51656 0.0
C401 C 0.72062 0.22084 0.52162 0.0
C402 C 0.75229 0.25956 0.51823 0.0
C403 C 0.78676 0.26379 0.50984 0.0
C404 C 0.79046 0.23085 0.50497 0.0
C405 C 0.83126 0.24433 0.49626 0.0
C406 C 0.8562 0.23134 0.50864 0.0
C407 C 0.82592 0.22819 0.47529 0.0
C408 C 0.84983 0.28986 0.49712 0.0
C409 C 0.82327 0.30016 0.50483 0.0
C410 C 0.83278 0.34004 0.50678 0.0
C411 C 0.87044 0.37031 0.50101 0.0
C412 C 0.89884 0.36107 0.49321 0.0
C413 C 0.88805 0.31993 0.49131 0.0
H414 H 0.59252 0.69529 0.84817 0.0
H415 H 0.71959 0.73792 0.84137 0.0
H416 H 0.73004 0.80383 0.83278 0.0
H417 H 0.5797 0.7475 0.80897 0.0
H418 H 0.54698 0.76123 0.82096 0.0
H419 H 0.54788 0.71671 0.82754 0.0
H420 H 0.56333 0.74161 0.86279 0.0
H421 H 0.56427 0.78762 0.85728 0.0
H422 H 0.60714 0.7893 0.86925 0.0
H423 H 0.72781 0.86518 0.82417 0.0
H424 H 0.71339 0.91907 0.81725 0.0
H425 H 0.58763 0.83953 0.82896 0.0
C426 C 0.62262 0.71861 0.84509 0.0
C427 C 0.65524 0.71087 0.84557 0.0
C428 C 0.69397 0.74249 0.8412 0.0
C429 C 0.70031 0.78031 0.83624 0.0
C430 C 0.66776 0.78681 0.83568 0.0
C431 C 0.62966 0.75707 0.84009 0.0
C432 C 0.60019 0.7727 0.83839 0.0
C433 C 0.5667 0.74807 0.82305 0.0
C434 C 0.58267 0.77277 0.85809 0.0
C435 C 0.62764 0.81545 0.83202 0.0
C436 C 0.66648 0.82274 0.83063 0.0
C437 C 0.69742 0.85974 0.82512 0.0
C438 C 0.68872 0.89024 0.82098 0.0
C439 C 0.64919 0.88409 0.8222 0.0
C440 C 0.61828 0.8458 0.82788 0.0
H441 H 1.0191 0.62187 0.18202 0.0
H442 H 0.97767 0.49998 0.16097 0.0
H443 H 0.91143 0.49112 0.15291 0.0
H444 H 0.92394 0.60343 0.20186 0.0
H445 H 0.92832 0.64966 0.1939 0.0
H446 H 0.97291 0.64675 0.19926 0.0
H447 H 0.99789 0.67047 0.16508 0.0
H448 H 0.95335 0.67341 0.15962 0.0
H449 H 0.96603 0.64335 0.14427 0.0
H450 H 0.84898 0.49401 0.14677 0.0
H451 H 0.79475 0.50946 0.14203 0.0
H452 H 0.87444 0.6311 0.16447 0.0
C453 C 0.99597 0.59322 0.1759 0.0
C454 C 1.00411 0.56137 0.17256 0.0
C455 C 0.97278 0.52475 0.16411 0.0
C456 C 0.93469 0.51935 0.15934 0.0
C457 C 0.9277 0.55103 0.1627 0.0
C458 C 0.95737 0.58742 0.17066 0.0
C459 C 0.94159 0.6168 0.1719 0.0
C460 C 0.9417 0.62993 0.19299 0.0
C461 C 0.96619 0.65317 0.15948 0.0
C462 C 0.89866 0.59105 0.1635 0.0
C463 C 0.89151 0.55319 0.1584 0.0
C464 C 0.85437 0.52376 0.15052 0.0
C465 C 0.82366 0.53308 0.14767 0.0
C466 C 0.82976 0.57182 0.15247 0.0
C467 C 0.86816 0.60111 0.16061 0.0
H468 H 0.51748 0.91858 0.50527 0.0
H469 H 0.46626 0.99588 0.51361 0.0
H470 H 0.39878 0.9386 0.50708 0.0
H471 H 0.44776 0.85656 0.46619 0.0
H472 H 0.44355 0.8103 0.47398 0.0
H473 H 0.48896 0.8572 0.47952 0.0
H474 H 0.48233 0.84203 0.51579 0.0
H475 H 0.43692 0.79504 0.5104 0.0
H476 H 0.43656 0.8309 0.52739 0.0
H477 H 0.33634 0.87426 0.49954 0.0
H478 H 0.28196 0.80549 0.49196 0.0
H479 H 0.36971 0.7661 0.48792 0.0
C480 C 0.49206 0.92339 0.5058 0.0
C481 C 0.49786 0.96237 0.51 0.0
C482 C 0.46337 0.96689 0.51043 0.0
C483 C 0.42455 0.93432 0.50673 0.0
C484 C 0.41987 0.89671 0.50255 0.0
C485 C 0.45248 0.89078 0.50209 0.0
C486 C 0.43819 0.8467 0.4971 0.0
C487 C 0.45566 0.84245 0.47806 0.0
C488 C 0.44916 0.82754 0.51366 0.0
C489 C 0.39265 0.82914 0.49492 0.0
C490 C 0.3831 0.85884 0.4981 0.0
C491 C 0.34346 0.85075 0.49692 0.0
C492 C 0.31263 0.81138 0.4924 0.0
C493 C 0.32098 0.77984 0.489 0.0
C494 C 0.3619 0.78916 0.49042 0.0
H495 H 0.68354 0.48509 0.84983 0.0
H496 H 0.56137 0.44938 0.83061 0.0
H497 H 0.54932 0.38215 0.82173 0.0
H498 H 0.70133 0.42783 0.81266 0.0
H499 H 0.72931 0.41338 0.82858 0.0
H500 H 0.72956 0.4597 0.83326 0.0
H501 H 0.70458 0.43735 0.86756 0.0
H502 H 0.70438 0.39104 0.86299 0.0
H503 H 0.65932 0.39008 0.8705 0.0
H504 H 0.54944 0.31887 0.8144 0.0
H505 H 0.56032 0.26152 0.81086 0.0
H506 H 0.68146 0.33403 0.83571 0.0
C507 C 0.65424 0.46312 0.84377 0.0
C508 C 0.62341 0.47307 0.84098 0.0
C509 C 0.58558 0.44307 0.833 0.0
C510 C 0.57839 0.40456 0.8278 0.0
C511 C 0.60918 0.39582 0.83065 0.0
C512 C 0.64634 0.424 0.83854 0.0
C513 C 0.67365 0.40582 0.84039 0.0
C514 C 0.71065 0.428 0.82798 0.0
C515 C 0.68621 0.40609 0.86163 0.0
C516 C 0.6458 0.36305 0.83242 0.0
C517 C 0.60893 0.35837 0.82678 0.0
C518 C 0.57806 0.32207 0.81896 0.0
C519 C 0.58452 0.28939 0.81713 0.0
C520 C 0.62149 0.29243 0.82329 0.0
C521 C 0.65281 0.33031 0.83079 0.0
H522 H 0.58326 0.82974 0.4966 0.0
H523 H 0.66146 0.86229 0.44821 0.0
H524 H 0.65461 0.79502 0.44748 0.0
H525 H 0.62664 0.7901 0.52108 0.0
H526 H 0.58301 0.74973 0.53149 0.0
H527 H 0.58197 0.79354 0.5242 0.0
H528 H 0.519 0.75008 0.50198 0.0
H529 H 0.51934 0.70566 0.50945 0.0
H530 H 0.51983 0.71578 0.48416 0.0
H531 H 0.65493 0.73421 0.4575 0.0
H532 H 0.66294 0.68622 0.47725 0.0
H533 H 0.58287 0.69092 0.51896 0.0
C534 C 0.59695 0.82181 0.48513 0.0
C535 C 0.62239 0.85081 0.47229 0.0
C536 C 0.64153 0.84022 0.45805 0.0
C537 C 0.63759 0.80202 0.45748 0.0
C538 C 0.61423 0.77479 0.47118 0.0
C539 C 0.59371 0.78405 0.4846 0.0
C540 C 0.57728 0.75326 0.50006 0.0
C541 C 0.59321 0.77285 0.52038 0.0
C542 C 0.53111 0.72979 0.49883 0.0
C543 C 0.59437 0.72697 0.49412 0.0
C544 C 0.61456 0.73911 0.47711 0.0
C545 C 0.63805 0.72346 0.47043 0.0
C546 C 0.64235 0.69603 0.48177 0.0
C547 C 0.62348 0.68474 0.49968 0.0
C548 C 0.59763 0.69896 0.50534 0.0
H549 H 0.8218 0.51433 0.84197 0.0
H550 H 0.86253 0.58423 0.7909 0.0
H551 H 0.9081 0.55759 0.7849 0.0
H552 H 0.90784 0.5375 0.85998 0.0
H553 H 0.89695 0.49039 0.86995 0.0
H554 H 0.85727 0.50125 0.86603 0.0
H555 H 0.81729 0.43644 0.84465 0.0
H556 H 0.85692 0.42489 0.84872 0.0
H557 H 0.84068 0.42734 0.82443 0.0
H558 H 0.96301 0.54418 0.79088 0.0
H559 H 1.02013 0.54489 0.80762 0.0
H560 H 0.94325 0.47788 0.8538 0.0
C561 C 0.83893 0.52218 0.82901 0.0
C562 C 0.83894 0.55098 0.81684 0.0
C563 C 0.86196 0.56167 0.80019 0.0
C564 C 0.88778 0.54656 0.79668 0.0
C565 C 0.88945 0.52028 0.80978 0.0
C566 C 0.86479 0.50736 0.82541 0.0
C567 C 0.87759 0.48584 0.83942 0.0
C568 C 0.88541 0.50493 0.86002 0.0
C569 C 0.84626 0.44095 0.83929 0.0
C570 C 0.91598 0.49278 0.83045 0.0
C571 C 0.92156 0.5114 0.813 0.0
C572 C 0.95835 0.52815 0.80408 0.0
C573 C 0.99083 0.52828 0.81374 0.0
C574 C 0.98638 0.51171 0.8322 0.0
C575 C 0.94768 0.49106 0.8398 0.0
H576 H 0.33709 0.83135 0.1584 0.0
H577 H 0.23352 0.84657 0.15226 0.0
H578 H 0.2766 0.9192 0.15676 0.0
H579 H 0.36776 0.87423 0.19633 0.0
H580 H 0.42167 0.90157 0.19464 0.0
H581 H 0.3923 0.85887 0.179 0.0
H582 H 0.42217 0.90114 0.14902 0.0
H583 H 0.45283 0.94431 0.16477 0.0
H584 H 0.42066 0.94678 0.14616 0.0
H585 H 0.31793 0.97723 0.17733 0.0
H586 H 0.35456 1.01506 0.20718 0.0
H587 H 0.43288 0.9648 0.20347 0.0
C588 C 0.32438 0.85071 0.15669 0.0
C589 C 0.28234 0.8338 0.1555 0.0
C590 C 0.2658 0.85902 0.15321 0.0
C591 C 0.29027 0.90056 0.15587 0.0
C592 C 0.33099 0.9161 0.16073 0.0
C593 C 0.34848 0.89202 0.16035 0.0
C594 C 0.38899 0.91239 0.17115 0.0
C595 C 0.39275 0.88514 0.18617 0.0
C596 C 0.42318 0.92705 0.15693 0.0
C597 C 0.38776 0.94744 0.18062 0.0
C598 C 0.35558 0.9507 0.17347 0.0
C599 C 0.34409 0.97603 0.18249 0.0
C600 C 0.36473 0.99712 0.19956 0.0
C601 C 0.39595 0.99211 0.20758 0.0
C602 C 0.40881 0.96869 0.19749 0.0
H603 H 0.69016 0.30056 0.54072 0.0
H604 H 0.62044 0.31381 0.49456 0.0
H605 H 0.668 0.38704 0.49538 0.0
H606 H 0.70134 0.37483 0.56815 0.0
H607 H 0.75189 0.3927 0.57747 0.0
H608 H 0.72172 0.34161 0.56901 0.0
H609 H 0.77591 0.35033 0.54453 0.0
H610 H 0.80659 0.40113 0.55396 0.0
H611 H 0.79451 0.39171 0.52847 0.0
H612 H 0.71023 0.45744 0.50712 0.0
H613 H 0.74126 0.51745 0.52864 0.0
H614 H 0.78667 0.45996 0.56675 0.0
C615 C 0.68603 0.31894 0.53032 0.0
C616 C 0.652 0.30222 0.51765 0.0
C617 C 0.6467 0.32649 0.50428 0.0
C618 C 0.67369 0.36794 0.5046 0.0
C619 C 0.70604 0.3841 0.51807 0.0
C620 C 0.71271 0.36012 0.53048 0.0
C621 C 0.74479 0.38482 0.54585 0.0
C622 C 0.72895 0.37279 0.5663 0.0
C623 C 0.78269 0.38176 0.54303 0.0
C624 C 0.75245 0.42619 0.54135 0.0
C625 C 0.73096 0.42541 0.52487 0.0
C626 C 0.72836 0.45877 0.51961 0.0
C627 C 0.74637 0.49296 0.53194 0.0
C628 C 0.76655 0.49346 0.54944 0.0
C629 C 0.77156 0.46046 0.55348 0.0
H630 H 0.47814 0.67249 0.84384 0.0
H631 H 0.38377 0.57993 0.80691 0.0
H632 H 0.34512 0.61534 0.80891 0.0
H633 H 0.42022 0.67269 0.87599 0.0
H634 H 0.44574 0.72536 0.88277 0.0
H635 H 0.47323 0.70409 0.87222 0.0
H636 H 0.4959 0.75498 0.84491 0.0
H637 H 0.46947 0.77749 0.8559 0.0
H638 H 0.4591 0.76059 0.83089 0.0
H639 H 0.30992 0.64828 0.82164 0.0
H640 H 0.27866 0.67017 0.84577 0.0
H641 H 0.39387 0.74044 0.87638 0.0
C642 C 0.45042 0.66115 0.83527 0.0
C643 C 0.4341 0.62421 0.82488 0.0
C644 C 0.39685 0.60867 0.81464 0.0
C645 C 0.37495 0.62879 0.81562 0.0
C646 C 0.3907 0.66412 0.82701 0.0
C647 C 0.42783 0.6803 0.83662 0.0
C648 C 0.43386 0.71232 0.85151 0.0
C649 C 0.44377 0.70299 0.8718 0.0
C650 C 0.46651 0.75384 0.84544 0.0
C651 C 0.39284 0.70872 0.85023 0.0
C652 C 0.36918 0.68238 0.8353 0.0
C653 C 0.32846 0.66988 0.83296 0.0
C654 C 0.31094 0.68266 0.84677 0.0
C655 C 0.33398 0.70718 0.86294 0.0
C656 C 0.37578 0.72203 0.86405 0.0
H657 H 0.87867 0.37084 0.1792 0.0
H658 H 0.89194 0.3097 0.12905 0.0
H659 H 0.81835 0.26347 0.12739 0.0
H660 H 0.81148 0.2903 0.20141 0.0
H661 H 0.78277 0.31188 0.21069 0.0
H662 H 0.83469 0.34376 0.20568 0.0
H663 H 0.81579 0.38495 0.18296 0.0
H664 H 0.7635 0.35316 0.18798 0.0
H665 H 0.77924 0.35976 0.16339 0.0
H666 H 0.74558 0.21768 0.13491 0.0
H667 H 0.68192 0.17641 0.15141 0.0
H668 H 0.71711 0.27201 0.19464 0.0
C669 C 0.86623 0.34899 0.16728 0.0
C670 C 0.89114 0.34422 0.15414 0.0
C671 C 0.87347 0.31378 0.13938 0.0
C672 C 0.83168 0.28776 0.13816 0.0
C673 C 0.80813 0.29318 0.15157 0.0
C674 C 0.82493 0.32346 0.16571 0.0
C675 C 0.79443 0.32066 0.17979 0.0
C676 C 0.80657 0.31636 0.2006 0.0
C677 C 0.78784 0.35678 0.17844 0.0
C678 C 0.75812 0.28267 0.17207 0.0
C679 C 0.76617 0.26746 0.15559 0.0
C680 C 0.73855 0.22981 0.14748 0.0
C681 C 0.70251 0.20663 0.15688 0.0
C682 C 0.69499 0.22127 0.17423 0.0
C683 C 0.72227 0.26036 0.18132 0.0
H684 H 0.10962 0.53164 0.11383 0.0
H685 H 0.16524 0.65862 0.12916 0.0
H686 H 0.16879 0.67392 0.0947 0.0
H687 H 0.16558 0.54222 0.0701 0.0
H688 H 0.12261 0.50203 0.05716 0.0
H689 H 0.12746 0.50128 0.08304 0.0
H690 H 1.05741 0.49492 0.08613 0.0
H691 H 1.05245 0.49593 0.0603 0.0
H692 H 1.04783 0.53183 0.07551 0.0
H693 H 0.16307 0.67536 0.05888 0.0
H694 H 0.1496 0.6628 0.02372 0.0
H695 H 1.09582 0.53485 0.03167 0.0
C696 C 0.12325 0.56269 0.10991 0.0
C697 C 0.13728 0.59393 0.12413 0.0
C698 C 0.15423 0.63417 0.11848 0.0
C699 C 0.15648 0.64321 0.09895 0.0
C700 C 0.14158 0.61168 0.08528 0.0
C701 C 0.12543 0.57225 0.09046 0.0
C702 C 0.10968 0.5439 0.07291 0.0
C703 C 0.13272 0.52101 0.07067 0.0
C704 C 1.06414 0.51495 0.07377 0.0
C705 C 0.1192 0.57355 0.05711 0.0
C706 C 0.13775 0.61248 0.06456 0.0
C707 C 0.14866 0.64501 0.05285 0.0
C708 C 0.14056 0.63755 0.03293 0.0
C709 C 0.12159 0.59786 0.02496 0.0
C710 C 0.11082 0.56555 0.03729 0.0
H711 H 0.60863 1.04744 0.44918 0.0
H712 H 0.62839 0.16295 0.47066 0.0
H713 H 0.64283 0.18851 0.4379 0.0
H714 H 0.68622 0.08555 0.41452 0.0
H715 H 0.65741 1.04627 0.39658 0.0
H716 H 0.6487 1.03658 0.42183 0.0
H717 H 0.57323 1.01329 0.41579 0.0
H718 H 0.58163 1.02254 0.3905 0.0
H719 H 0.55917 1.04615 0.40412 0.0
H720 H 0.65604 0.2022 0.40318 0.0
H721 H 0.66154 0.20124 0.36781 0.0
H722 H 0.63286 0.07705 0.36857 0.0
C723 C 0.61581 0.07803 0.44697 0.0
C724 C 0.61736 0.10314 0.46249 0.0
C725 C 0.62685 0.14302 0.459 0.0
C726 C 0.63533 0.15796 0.44045 0.0
C727 C 0.63407 0.13265 0.42553 0.0
C728 C 0.62417 0.09344 0.42849 0.0
C729 C 0.62406 0.07236 0.4098 0.0
C730 C 0.65601 1.05944 0.41075 0.0
C731 C 0.58202 1.03647 0.40476 0.0
C732 C 0.63522 0.10584 0.3959 0.0
C733 C 0.64126 0.14045 0.40534 0.0
C734 C 0.6515 0.17533 0.39559 0.0
C735 C 0.65487 0.1746 0.37555 0.0
C736 C 0.64778 0.13914 0.36551 0.0
C737 C 0.63831 0.10452 0.3759 0.0
H738 H 0.66476 0.57891 0.78151 0.0
H739 H 0.60325 0.64274 0.79879 0.0
H740 H 0.60522 0.66481 0.76563 0.0
H741 H 0.72981 0.64969 0.74765 0.0
H742 H 0.72551 0.61213 0.7303 0.0
H743 H 0.72009 0.60147 0.75558 0.0
H744 H 0.65025 0.53883 0.74804 0.0
H745 H 0.65557 0.54913 0.72273 0.0
H746 H 0.61234 0.54415 0.73479 0.0
H747 H 0.61535 0.6819 0.73127 0.0
H748 H 0.62826 0.68863 0.69656 0.0
H749 H 0.67922 0.61037 0.70051 0.0
C750 C 0.65173 0.5975 0.77825 0.0
C751 C 0.63387 0.60911 0.7927 0.0
C752 C 0.61683 0.63321 0.78792 0.0
C753 C 0.61798 0.64613 0.76915 0.0
C754 C 0.63586 0.63434 0.75525 0.0
C755 C 0.65199 0.61019 0.75943 0.0
C756 C 0.66809 0.60083 0.7415 0.0
C757 C 0.71358 0.61701 0.74391 0.0
C758 C 0.64519 0.55555 0.73647 0.0
C759 C 0.6588 0.62386 0.72673 0.0
C760 C 0.64047 0.64315 0.73505 0.0
C761 C 0.62931 0.66662 0.72449 0.0
C762 C 0.63656 0.67004 0.70475 0.0
C763 C 0.65439 0.64975 0.6957 0.0
C764 C 0.6659 0.62661 0.70697 0.0
H765 H 0.58687 0.07368 0.5892 0.0
H766 H 0.6775 1.04237 0.57511 0.0
H767 H 0.68992 1.03783 0.60986 0.0
H768 H 0.63996 0.13584 0.63118 0.0
H769 H 0.59515 0.12072 0.64448 0.0
H770 H 0.59267 0.12032 0.6185 0.0
H771 H 0.53727 1.04543 0.61764 0.0
H772 H 0.53967 1.04556 0.64362 0.0
H773 H 0.54672 1.00971 0.62966 0.0
H774 H 0.69237 1.03667 0.64646 0.0
H775 H 0.68626 1.04106 0.68167 0.0
H776 H 0.59576 0.07558 0.67191 0.0
C777 C 0.60915 1.06559 0.59338 0.0
C778 C 0.63103 1.05813 0.57932 0.0
C779 C 0.66029 1.04817 0.58553 0.0
C780 C 0.66752 1.04545 0.60527 0.0
C781 C 0.64545 1.05303 0.61872 0.0
C782 C 0.61701 1.0631 0.61304 0.0
C783 C 0.59822 0.07092 0.6304 0.0
C784 C 0.60704 0.11454 0.63118 0.0
C785 C 0.55277 1.04112 0.63032 0.0
C786 C 0.6203 1.0634 0.64675 0.0
C787 C 0.64737 1.05304 0.63972 0.0
C788 C 0.67135 1.04491 0.65209 0.0
C789 C 0.6678 1.0477 0.67213 0.0
C790 C 0.64055 1.0587 0.67975 0.0
C791 C 0.61644 1.06645 0.66671 0.0
H792 H 0.59913 0.54755 0.91896 0.0
H793 H 0.71102 0.65889 0.91218 0.0
H794 H 0.72153 0.66779 0.94751 0.0
H795 H 0.56823 0.5799 0.96111 0.0
H796 H 0.54747 0.53223 0.97243 0.0
H797 H 0.54852 0.53427 0.94651 0.0
H798 H 0.58743 0.49543 0.94582 0.0
H799 H 0.58653 0.49331 0.97175 0.0
H800 H 0.63377 0.5145 0.95994 0.0
H801 H 0.7195 0.66582 0.98368 0.0
H802 H 0.70511 0.65296 0.01801 0.0
H803 H 0.59625 0.5412 1.00179 0.0
C804 C 0.62584 0.57381 0.92489 0.0
C805 C 0.65423 0.60251 0.91265 0.0
C806 C 0.68881 0.63637 0.92112 0.0
C807 C 0.6951 0.64175 0.94124 0.0
C808 C 0.66669 0.61296 0.95286 0.0
C809 C 0.63277 0.57958 0.94503 0.0
C810 C 0.60702 0.55319 0.96086 0.0
C811 C 0.56534 0.54971 0.96018 0.0
C812 C 0.60349 0.51164 0.95951 0.0
C813 C 0.63169 0.57705 0.97875 0.0
C814 C 0.66594 0.61144 0.97378 0.0
C815 C 0.69295 0.63874 0.98775 0.0
C816 C 0.68465 0.6309 1.00731 0.0
C817 C 0.64967 0.59584 0.01291 0.0
C818 C 0.62312 0.5685 0.99823 0.0
H819 H 0.14909 0.59607 0.25339 0.0
H820 H 1.03333 0.49218 0.23737 0.0
H821 H 1.01867 0.48026 0.27194 0.0
H822 H 0.17086 0.55395 0.2946 0.0
H823 H 0.19463 0.60047 0.30867 0.0
H824 H 0.19562 0.60107 0.28272 0.0
H825 H 0.16349 0.64632 0.28252 0.0
H826 H 0.16238 0.64585 0.30847 0.0
H827 H 0.11673 0.63016 0.29425 0.0
H828 H 1.01607 0.48085 0.3085 0.0
H829 H 1.02708 0.49175 0.34392 0.0
H830 H 0.14553 0.59379 0.33607 0.0
C831 C 0.12058 0.57078 0.25709 0.0
C832 C 1.09227 0.54512 0.24256 0.0
C833 C 1.0555 0.51228 0.24815 0.0
C834 C 1.04689 0.50531 0.26778 0.0
C835 C 1.07543 0.53128 0.28169 0.0
C836 C 0.11165 0.56323 0.27658 0.0
C837 C 0.13746 0.58641 0.29431 0.0
C838 C 0.17697 0.58539 0.29512 0.0
C839 C 0.14548 0.62975 0.29492 0.0
C840 C 0.1102 0.56246 0.31025 0.0
C841 C 1.07439 0.531 0.30266 0.0
C842 C 1.04406 0.50531 0.31455 0.0
C843 C 1.0505 0.51183 0.33466 0.0
C844 C 1.08716 0.54354 0.34278 0.0
C845 C 0.11736 0.56906 0.33031 0.0
loop_
_geom_bond_atom_site_label_1
_geom_bond_atom_site_label_2
_geom_bond_distance
_geom_bond_site_symmetry_2
_ccdc_geom_bond_type
Eu0 C9 2.828 . S
Eu0 O11 2.392 1_655 S
Eu0 O13 2.418 . S
Eu0 O18 2.373 . S
Eu0 O21 2.488 . S
Eu0 O22 2.471 . S
Eu0 O23 2.349 . S
Eu1 O10 2.373 . S
Eu1 O14 2.488 . S
Eu1 O15 2.471 . S
Eu1 O16 2.349 . S
Eu1 O19 2.392 1_455 S
Eu1 O20 2.418 . S
Eu1 C30 2.828 . S
C2 O20 1.244 . S
C2 O23 1.265 1_455 S
C3 C4 1.379 . S
C3 C7 1.373 . S
C3 C9 1.505 . S
C4 C3 1.379 . S
C4 C6 1.369 . S
C4 H32 0.930 . S
C5 C7 1.383 . S
C5 C8 1.382 . S
C5 H33 0.930 . S
C6 C4 1.369 . S
C6 C8 1.392 . S
C6 H34 0.930 . S
C7 C3 1.373 . S
C7 C5 1.383 . S
C7 H35 0.931 . S
C8 C5 1.382 . S
C8 C6 1.392 . S
C9 Eu0 2.828 . S
C9 C3 1.505 . S
C9 O21 1.249 . S
C9 O22 1.244 . S
O10 Eu1 2.373 . S
O10 C12 1.258 . S
O11 Eu0 2.392 1_455 S
O11 C12 1.242 . S
C12 O10 1.258 . S
C12 O11 1.242 . S
O13 Eu0 2.418 . S
O13 C17 1.244 . S
O14 Eu1 2.488 . S
O14 C30 1.249 . S
O15 Eu1 2.471 . S
O15 C30 1.244 . S
O16 Eu1 2.349 . S
O16 C17 1.265 1_455 S
C17 O13 1.244 . S
C17 O16 1.265 1_655 S
O18 Eu0 2.373 . S
O18 C31 1.258 . S
O19 Eu1 2.392 1_655 S
O19 C31 1.242 . S
O20 Eu1 2.418 . S
O20 C2 1.244 . S
O21 Eu0 2.488 . S
O21 C9 1.249 . S
O22 Eu0 2.471 . S
O22 C9 1.244 . S
O23 Eu0 2.349 . S
O23 C2 1.265 1_655 S
C24 C25 1.379 . S
C24 C28 1.373 . S
C24 C30 1.505 . S
C25 C24 1.379 . S
C25 C27 1.369 . S
C25 H36 0.930 . S
C26 C28 1.383 . S
C26 C29 1.382 . S
C26 H37 0.930 . S
C27 C25 1.369 . S
C27 C29 1.392 . S
C27 H38 0.930 . S
C28 C24 1.373 . S
C28 C26 1.383 . S
C28 H39 0.931 . S
C29 C26 1.382 . S
C29 C27 1.392 . S
C30 Eu1 2.828 . S
C30 O14 1.249 . S
C30 O15 1.244 . S
C30 C24 1.505 . S
C31 O18 1.258 . S
C31 O19 1.242 . S
H32 C4 0.930 . S
H33 C5 0.930 . S
H34 C6 0.930 . S
H35 C7 0.931 . S
H36 C25 0.930 . S
H37 C26 0.930 . S
H38 C27 0.930 . S
H39 C28 0.931 . S
Eu40 C49 2.828 . S
Eu40 O51 2.392 1_565 S
Eu40 O53 2.418 . S
Eu40 O58 2.373 . S
Eu40 O61 2.488 . S
Eu40 O62 2.471 . S
Eu40 O63 2.349 1_565 S
Eu41 O50 2.373 . S
Eu41 O54 2.488 . S
Eu41 O55 2.471 . S
Eu41 O56 2.349 . S
Eu41 O59 2.392 1_545 S
Eu41 O60 2.418 . S
Eu41 C70 2.828 . S
C42 O60 1.244 . S
C42 O63 1.265 . S
C43 C44 1.379 . S
C43 C47 1.373 . S
C43 C49 1.505 . S
C44 C43 1.379 . S
C44 C46 1.369 . S
C44 H72 0.930 . S
C45 C47 1.383 . S
C45 C48 1.382 . S
C45 H73 0.930 . S
C46 C44 1.369 . S
C46 C48 1.392 . S
C46 H74 0.930 . S
C47 C43 1.373 . S
C47 C45 1.383 . S
C47 H75 0.931 . S
C48 C45 1.382 . S
C48 C46 1.392 . S
C49 Eu40 2.828 . S
C49 C43 1.505 . S
C49 O61 1.249 . S
C49 O62 1.244 . S
O50 Eu41 2.373 . S
O50 C52 1.258 . S
O51 Eu40 2.392 1_545 S
O51 C52 1.242 . S
C52 O50 1.258 . S
C52 O51 1.242 . S
O53 Eu40 2.418 . S
O53 C57 1.244 1_565 S
O54 Eu41 2.488 . S
O54 C70 1.249 . S
O55 Eu41 2.471 . S
O55 C70 1.244 . S
O56 Eu41 2.349 . S
O56 C57 1.265 . S
C57 O53 1.244 1_545 S
C57 O56 1.265 . S
O58 Eu40 2.373 . S
O58 C71 1.258 . S
O59 Eu41 2.392 1_565 S
O59 C71 1.242 . S
O60 Eu41 2.418 . S
O60 C42 1.244 . S
O61 Eu40 2.488 . S
O61 C49 1.249 . S
O62 Eu40 2.471 . S
O62 C49 1.244 . S
O63 Eu40 2.349 1_545 S
O63 C42 1.265 . S
C64 C65 1.379 . S
C64 C68 1.373 . S
C64 C70 1.505 . S
C65 C64 1.379 . S
C65 C67 1.369 . S
C65 H76 0.930 . S
C66 C68 1.383 . S
C66 C69 1.382 . S
C66 H77 0.930 . S
C67 C65 1.369 . S
C67 C69 1.392 . S
C67 H78 0.930 . S
C68 C64 1.373 . S
C68 C66 1.383 . S
C68 H79 0.931 . S
C69 C66 1.382 . S
C69 C67 1.392 . S
C70 Eu41 2.828 . S
C70 O54 1.249 . S
C70 O55 1.244 . S
C70 C64 1.505 . S
C71 O58 1.258 . S
C71 O59 1.242 . S
H72 C44 0.930 . S
H73 C45 0.930 . S
H74 C46 0.930 . S
H75 C47 0.931 . S
H76 C65 0.930 . S
H77 C66 0.930 . S
H78 C67 0.930 . S
H79 C68 0.931 . S
Eu80 C89 2.828 . S
Eu80 O91 2.392 . S
Eu80 O93 2.418 . S
Eu80 O98 2.373 . S
Eu80 O101 2.488 . S
Eu80 O102 2.471 . S
Eu80 O103 2.349 . S
Eu81 O90 2.373 . S
Eu81 O94 2.488 . S
Eu81 O95 2.471 . S
Eu81 O96 2.349 . S
Eu81 O99 2.392 . S
Eu81 O100 2.418 . S
Eu81 C110 2.828 . S
C82 O100 1.244 . S
C82 O103 1.265 . S
C83 C84 1.379 . S
C83 C87 1.373 . S
C83 C89 1.505 . S
C84 C83 1.379 . S
C84 C86 1.369 . S
C84 H112 0.930 . S
C85 C87 1.383 . S
C85 C88 1.382 . S
C85 H113 0.930 . S
C86 C84 1.369 . S
C86 C88 1.392 . S
C86 H114 0.930 . S
C87 C83 1.373 . S
C87 C85 1.383 . S
C87 H115 0.931 . S
C88 C85 1.382 . S
C88 C86 1.392 . S
C89 Eu80 2.828 . S
C89 C83 1.505 . S
C89 O101 1.249 . S
C89 O102 1.244 . S
O90 Eu81 2.373 . S
O90 C92 1.258 . S
O91 Eu80 2.392 . S
O91 C92 1.242 . S
C92 O90 1.258 . S
C92 O91 1.242 . S
O93 Eu80 2.418 . S
O93 C97 1.244 . S
O94 Eu81 2.488 . S
O94 C110 1.249 . S
O95 Eu81 2.471 . S
O95 C110 1.244 . S
O96 Eu81 2.349 . S
O96 C97 1.265 . S
C97 O93 1.244 . S
C97 O96 1.265 . S
O98 Eu80 2.373 . S
O98 C111 1.258 . S
O99 Eu81 2.392 . S
O99 C111 1.242 . S
O100 Eu81 2.418 . S
O100 C82 1.244 . S
O101 Eu80 2.488 . S
O101 C89 1.249 . S
O102 Eu80 2.471 . S
O102 C89 1.244 . S
O103 Eu80 2.349 . S
O103 C82 1.265 . S
C104 C105 1.379 . S
C104 C108 1.373 . S
C104 C110 1.505 . S
C105 C104 1.379 . S
C105 C107 1.369 . S
C105 H116 0.930 . S
C106 C108 1.383 . S
C106 C109 1.382 . S
C106 H117 0.930 . S
C107 C105 1.369 . S
C107 C109 1.392 . S
C107 H118 0.930 . S
C108 C104 1.373 . S
C108 C106 1.383 . S
C108 H119 0.931 . S
C109 C106 1.382 . S
C109 C107 1.392 . S
C110 Eu81 2.828 . S
C110 O94 1.249 . S
C110 O95 1.244 . S
C110 C104 1.505 . S
C111 O98 1.258 . S
C111 O99 1.242 . S
H112 C84 0.930 . S
H113 C85 0.930 . S
H114 C86 0.930 . S
H115 C87 0.931 . S
H116 C105 0.930 . S
H117 C106 0.930 . S
H118 C107 0.930 . S
H119 C108 0.931 . S
C120 C121 1.264 . S
C120 C125 1.479 . S
C120 C130 1.465 . S
C121 C120 1.264 . S
C121 C123 1.339 . S
C121 H148 0.931 . S
C122 C123 1.395 . S
C122 C124 1.320 . S
C123 C121 1.339 . S
C123 C122 1.395 . S
C123 H149 0.929 . S
C124 C122 1.320 . S
C124 C125 1.405 . S
C124 H150 0.930 . S
C125 C120 1.479 . S
C125 C124 1.405 . S
C125 H151 0.931 . S
U126 O127 2.454 1_545 S
U126 O128 2.458 1_545 S
U126 C129 2.984 1_545 S
U126 C130 2.847 . S
U126 C143 2.882 . S
U126 O144 2.441 . S
U126 O145 2.420 . S
U126 O146 2.455 . S
U126 O147 2.449 . S
O127 U126 2.454 1_565 S
O127 C129 1.353 . S
O128 U126 2.458 1_565 S
O128 C129 1.286 . S
C129 U126 2.984 1_565 S
C129 O127 1.353 . S
C129 O128 1.286 . S
C129 C131 1.363 . S
C130 C120 1.465 . S
C130 U126 2.847 . S
C130 O144 1.249 . S
C130 O145 1.202 . S
C131 C129 1.363 . S
C131 C133 1.408 . S
C131 C136 1.342 . S
C132 C133 1.310 . S
C132 C135 1.461 . S
C132 H152 0.932 . S
C133 C131 1.408 . S
C133 C132 1.310 . S
C133 H153 0.930 . S
C134 C135 1.474 . S
C134 C136 1.285 . S
C134 H154 0.929 . S
C135 C132 1.461 . S
C135 C134 1.474 . S
C136 C131 1.342 . S
C136 C134 1.285 . S
C136 H155 0.930 . S
C137 C140 1.424 . S
C137 C142 1.245 . S
C137 C143 1.428 . S
C138 C141 1.260 . S
C138 C142 1.477 . S
C138 H156 0.932 1_545 S
C139 C140 1.384 . S
C139 C141 1.479 . S
C139 H157 0.929 . S
C140 C137 1.424 . S
C140 C139 1.384 . S
C140 H158 0.928 . S
C141 C138 1.260 . S
C141 C139 1.479 . S
C142 C137 1.245 . S
C142 C138 1.477 . S
C142 H159 0.932 1_545 S
C143 U126 2.882 . S
C143 C137 1.428 . S
C143 O146 1.301 . S
C143 O147 1.282 . S
O144 U126 2.441 . S
O144 C130 1.249 . S
O145 U126 2.420 . S
O145 C130 1.202 . S
O146 U126 2.455 . S
O146 C143 1.301 . S
O147 U126 2.449 . S
O147 C143 1.282 . S
H148 C121 0.931 . S
H149 C123 0.929 . S
H150 C124 0.930 . S
H151 C125 0.931 . S
H152 C132 0.932 . S
H153 C133 0.930 . S
H154 C134 0.929 . S
H155 C136 0.930 . S
H156 C138 0.932 1_565 S
H157 C139 0.929 . S
H158 C140 0.928 . S
H159 C142 0.932 1_565 S
C160 C161 1.264 . S
C160 C165 1.479 . S
C160 C170 1.465 . S
C161 C160 1.264 . S
C161 C163 1.339 . S
C161 H188 0.931 . S
C162 C163 1.395 . S
C162 C164 1.320 . S
C163 C161 1.339 . S
C163 C162 1.395 . S
C163 H189 0.929 . S
C164 C162 1.320 . S
C164 C165 1.405 . S
C164 H190 0.930 . S
C165 C160 1.479 . S
C165 C164 1.405 . S
C165 H191 0.931 . S
U166 O167 2.454 . S
U166 O168 2.458 . S
U166 C169 2.984 . S
U166 C170 2.847 . S
U166 C183 2.882 . S
U166 O184 2.441 . S
U166 O185 2.420 . S
U166 O186 2.455 . S
U166 O187 2.449 . S
O167 U166 2.454 . S
O167 C169 1.353 . S
O168 U166 2.458 . S
O168 C169 1.286 . S
C169 U166 2.984 . S
C169 O167 1.353 . S
C169 O168 1.286 . S
C169 C171 1.363 . S
C170 C160 1.465 . S
C170 U166 2.847 . S
C170 O184 1.249 . S
C170 O185 1.202 . S
C171 C169 1.363 . S
C171 C173 1.408 . S
C171 C176 1.342 . S
C172 C173 1.310 . S
C172 C175 1.461 . S
C172 H192 0.932 . S
C173 C171 1.408 . S
C173 C172 1.310 . S
C173 H193 0.930 . S
C174 C175 1.474 . S
C174 C176 1.285 . S
C174 H194 0.929 . S
C175 C172 1.461 . S
C175 C174 1.474 . S
C176 C171 1.342 . S
C176 C174 1.285 . S
C176 H195 0.930 . S
C177 C180 1.424 . S
C177 C182 1.245 . S
C177 C183 1.428 . S
C178 C181 1.260 . S
C178 C182 1.477 . S
C178 H196 0.932 . S
C179 C180 1.384 . S
C179 C181 1.479 . S
C179 H197 0.929 . S
C180 C177 1.424 . S
C180 C179 1.384 . S
C180 H198 0.928 . S
C181 C178 1.260 . S
C181 C179 1.479 . S
C182 C177 1.245 . S
C182 C178 1.477 . S
C182 H199 0.932 . S
C183 U166 2.882 . S
C183 C177 1.428 . S
C183 O186 1.301 . S
C183 O187 1.282 . S
O184 U166 2.441 . S
O184 C170 1.249 . S
O185 U166 2.420 . S
O185 C170 1.202 . S
O186 U166 2.455 . S
O186 C183 1.301 . S
O187 U166 2.449 . S
O187 C183 1.282 . S
H188 C161 0.931 . S
H189 C163 0.929 . S
H190 C164 0.930 . S
H191 C165 0.931 . S
H192 C172 0.932 . S
H193 C173 0.930 . S
H194 C174 0.929 . S
H195 C176 0.930 . S
H196 C178 0.932 . S
H197 C179 0.929 . S
H198 C180 0.928 . S
H199 C182 0.932 . S
C200 C201 1.264 . S
C200 C205 1.479 . S
C200 C210 1.465 . S
C201 C200 1.264 . S
C201 C203 1.339 . S
C201 H228 0.931 . S
C202 C203 1.395 . S
C202 C204 1.320 . S
C203 C201 1.339 . S
C203 C202 1.395 . S
C203 H229 0.929 . S
C204 C202 1.320 . S
C204 C205 1.405 . S
C204 H230 0.930 . S
C205 C200 1.479 . S
C205 C204 1.405 . S
C205 H231 0.931 . S
U206 O207 2.454 . S
U206 O208 2.458 . S
U206 C209 2.984 . S
U206 C210 2.847 1_455 S
U206 C223 2.882 . S
U206 O224 2.441 1_455 S
U206 O225 2.420 1_455 S
U206 O226 2.455 . S
U206 O227 2.449 1_455 S
O207 U206 2.454 . S
O207 C209 1.353 . S
O208 U206 2.458 . S
O208 C209 1.286 . S
C209 U206 2.984 . S
C209 O207 1.353 . S
C209 O208 1.286 . S
C209 C211 1.363 . S
C210 C200 1.465 . S
C210 U206 2.847 1_655 S
C210 O224 1.249 . S
C210 O225 1.202 . S
C211 C209 1.363 . S
C211 C213 1.408 . S
C211 C216 1.342 . S
C212 C213 1.310 . S
C212 C215 1.461 . S
C212 H232 0.932 . S
C213 C211 1.408 . S
C213 C212 1.310 . S
C213 H233 0.930 . S
C214 C215 1.474 . S
C214 C216 1.285 . S
C214 H234 0.929 . S
C215 C212 1.461 . S
C215 C214 1.474 . S
C216 C211 1.342 . S
C216 C214 1.285 . S
C216 H235 0.930 . S
C217 C220 1.423 1_455 S
C217 C222 1.245 . S
C217 C223 1.428 . S
C218 C221 1.260 1_556 S
C218 C222 1.477 . S
C218 H236 0.961 . S
C219 C220 1.384 . S
C219 C221 1.479 1_656 S
C219 H237 0.929 . S
C220 C217 1.423 1_655 S
C220 C219 1.384 . S
C220 H238 0.929 . S
C221 C218 1.260 1_554 S
C221 C219 1.479 1_454 S
C222 C217 1.245 . S
C222 C218 1.477 . S
C222 H239 0.932 . S
C223 U206 2.882 . S
C223 C217 1.428 . S
C223 O226 1.301 . S
C223 O227 1.282 1_455 S
O224 U206 2.441 1_655 S
O224 C210 1.249 . S
O225 U206 2.420 1_655 S
O225 C210 1.202 . S
O226 U206 2.455 . S
O226 C223 1.301 . S
O227 U206 2.449 1_655 S
O227 C223 1.282 1_655 S
H228 C201 0.931 . S
H229 C203 0.929 . S
H230 C204 0.930 . S
H231 C205 0.931 . S
H232 C212 0.932 . S
H233 C213 0.930 . S
H234 C214 0.929 . S
H235 C216 0.930 . S
H236 C218 0.961 . S
H237 C219 0.929 . S
H238 C220 0.929 . S
H239 C222 0.932 . S
C240 C241 1.264 . S
C240 C245 1.479 . S
C240 C250 1.465 . S
C241 C240 1.264 . S
C241 C243 1.339 . S
C241 H268 0.931 . S
C242 C243 1.395 . S
C242 C244 1.320 . S
C243 C241 1.339 . S
C243 C242 1.395 . S
C243 H269 0.929 . S
C244 C242 1.320 . S
C244 C245 1.405 . S
C244 H270 0.930 . S
C245 C240 1.479 . S
C245 C244 1.405 . S
C245 H271 0.931 . S
U246 O247 2.454 . S
U246 O248 2.458 . S
U246 C249 2.984 . S
U246 C250 2.847 1_455 S
U246 C263 2.882 . S
U246 O264 2.441 1_455 S
U246 O265 2.420 1_455 S
U246 O266 2.455 . S
U246 O267 2.449 1_455 S
O247 U246 2.454 . S
O247 C249 1.353 . S
O248 U246 2.458 . S
O248 C249 1.286 . S
C249 U246 2.984 . S
C249 O247 1.353 . S
C249 O248 1.286 . S
C249 C251 1.363 . S
C250 C240 1.465 . S
C250 U246 2.847 1_655 S
C250 O264 1.249 . S
C250 O265 1.202 . S
C251 C249 1.363 . S
C251 C253 1.408 . S
C251 C256 1.342 . S
C252 C253 1.310 . S
C252 C255 1.461 . S
C252 H272 0.932 . S
C253 C251 1.408 . S
C253 C252 1.310 . S
C253 H273 0.930 . S
C254 C255 1.474 . S
C254 C256 1.285 . S
C254 H274 0.929 . S
C255 C252 1.461 . S
C255 C254 1.474 . S
C256 C251 1.342 . S
C256 C254 1.285 . S
C256 H275 0.930 . S
C257 C260 1.424 1_455 S
C257 C262 1.245 . S
C257 C263 1.428 . S
C258 C261 1.260 . S
C258 C262 1.477 . S
C258 H276 0.932 . S
C259 C260 1.384 . S
C259 C261 1.479 1_655 S
C259 H277 0.929 . S
C260 C257 1.424 1_655 S
C260 C259 1.384 . S
C260 H278 0.928 . S
C261 C258 1.260 . S
C261 C259 1.479 1_455 S
C262 C257 1.245 . S
C262 C258 1.477 . S
C262 H279 0.932 . S
C263 U246 2.882 . S
C263 C257 1.428 . S
C263 O266 1.301 . S
C263 O267 1.282 1_455 S
O264 U246 2.441 1_655 S
O264 C250 1.249 . S
O265 U246 2.420 1_655 S
O265 C250 1.202 . S
O266 U246 2.455 . S
O266 C263 1.301 . S
O267 U246 2.449 1_655 S
O267 C263 1.282 1_655 S
H268 C241 0.931 . S
H269 C243 0.929 . S
H270 C244 0.930 . S
H271 C245 0.931 . S
H272 C252 0.932 . S
H273 C253 0.930 . S
H274 C254 0.929 . S
H275 C256 0.930 . S
H276 C258 0.932 . S
H277 C259 0.929 . S
H278 C260 0.928 . S
H279 C262 0.932 . S
C280 C281 1.264 . S
C280 C285 1.479 . S
C280 C290 1.465 . S
C281 C280 1.264 . S
C281 C283 1.339 . S
C281 H308 0.931 . S
C282 C283 1.395 . S
C282 C284 1.320 . S
C283 C281 1.339 . S
C283 C282 1.395 . S
C283 H309 0.929 . S
C284 C282 1.320 . S
C284 C285 1.405 . S
C284 H310 0.930 . S
C285 C280 1.479 . S
C285 C284 1.405 . S
C285 H311 0.931 . S
U286 O287 2.454 . S
U286 O288 2.458 . S
U286 C289 2.984 . S
U286 C290 2.847 1_545 S
U286 C303 2.882 . S
U286 O304 2.441 1_545 S
U286 O305 2.420 1_545 S
U286 O306 2.455 . S
U286 O307 2.449 1_545 S
O287 U286 2.454 . S
O287 C289 1.353 . S
O288 U286 2.458 . S
O288 C289 1.286 . S
C289 U286 2.984 . S
C289 O287 1.353 . S
C289 O288 1.286 . S
C289 C291 1.363 . S
C290 C280 1.465 . S
C290 U286 2.847 1_565 S
C290 O304 1.249 . S
C290 O305 1.202 . S
C291 C289 1.363 . S
C291 C293 1.408 . S
C291 C296 1.342 . S
C292 C293 1.310 . S
C292 C295 1.461 . S
C292 H312 0.932 . S
C293 C291 1.408 . S
C293 C292 1.310 . S
C293 H313 0.930 . S
C294 C295 1.474 . S
C294 C296 1.285 . S
C294 H314 0.929 . S
C295 C292 1.461 . S
C295 C294 1.474 . S
C296 C291 1.342 . S
C296 C294 1.285 . S
C296 H315 0.930 . S
C297 C300 1.424 1_545 S
C297 C302 1.245 . S
C297 C303 1.428 . S
C298 C301 1.260 . S
C298 C302 1.477 . S
C298 H316 0.932 . S
C299 C300 1.384 . S
C299 C301 1.479 1_565 S
C299 H317 0.929 . S
C300 C297 1.424 1_565 S
C300 C299 1.384 . S
C300 H318 0.928 . S
C301 C298 1.260 . S
C301 C299 1.479 1_545 S
C302 C297 1.245 . S
C302 C298 1.477 . S
C302 H319 0.932 . S
C303 U286 2.882 . S
C303 C297 1.428 . S
C303 O306 1.301 . S
C303 O307 1.282 1_545 S
O304 U286 2.441 1_565 S
O304 C290 1.249 . S
O305 U286 2.420 1_565 S
O305 C290 1.202 . S
O306 U286 2.455 . S
O306 C303 1.301 . S
O307 U286 2.449 1_565 S
O307 C303 1.282 1_565 S
H308 C281 0.931 . S
H309 C283 0.929 . S
H310 C284 0.930 . S
H311 C285 0.931 . S
H312 C292 0.932 . S
H313 C293 0.930 . S
H314 C294 0.929 . S
H315 C296 0.930 . S
H316 C298 0.932 . S
H317 C299 0.929 . S
H318 C300 0.928 . S
H319 C302 0.932 . S
C320 C321 1.264 . S
C320 C325 1.479 . S
C320 C330 1.465 . S
C321 C320 1.264 . S
C321 C323 1.339 . S
C321 H348 0.931 . S
C322 C323 1.395 . S
C322 C324 1.320 . S
C323 C321 1.339 . S
C323 C322 1.395 . S
C323 H349 0.929 . S
C324 C322 1.320 . S
C324 C325 1.405 . S
C324 H350 0.930 . S
C325 C320 1.479 . S
C325 C324 1.405 . S
C325 H351 0.931 . S
U326 O327 2.454 . S
U326 O328 2.458 . S
U326 C329 2.984 . S
U326 C330 2.847 . S
U326 C343 2.882 . S
U326 O344 2.441 . S
U326 O345 2.420 . S
U326 O346 2.455 . S
U326 O347 2.449 . S
O327 U326 2.454 . S
O327 C329 1.353 . S
O328 U326 2.458 . S
O328 C329 1.286 . S
C329 U326 2.984 . S
C329 O327 1.353 . S
C329 O328 1.286 . S
C329 C331 1.363 . S
C330 C320 1.465 . S
C330 U326 2.847 . S
C330 O344 1.249 . S
C330 O345 1.202 . S
C331 C329 1.363 . S
C331 C333 1.408 . S
C331 C336 1.342 . S
C332 C333 1.310 . S
C332 C335 1.461 . S
C332 H352 0.932 . S
C333 C331 1.408 . S
C333 C332 1.310 . S
C333 H353 0.930 . S
C334 C335 1.474 . S
C334 C336 1.285 . S
C334 H354 0.929 . S
C335 C332 1.461 . S
C335 C334 1.474 . S
C336 C331 1.342 . S
C336 C334 1.285 . S
C336 H355 0.930 . S
C337 C340 1.424 . S
C337 C342 1.245 . S
C337 C343 1.428 . S
C338 C341 1.260 . S
C338 C342 1.477 . S
C338 H356 0.932 . S
C339 C340 1.384 . S
C339 C341 1.479 . S
C339 H357 0.929 . S
C340 C337 1.424 . S
C340 C339 1.384 . S
C340 H358 0.928 . S
C341 C338 1.260 . S
C341 C339 1.479 . S
C342 C337 1.245 . S
C342 C338 1.477 . S
C342 H359 0.932 . S
C343 U326 2.882 . S
C343 C337 1.428 . S
C343 O346 1.301 . S
C343 O347 1.282 . S
O344 U326 2.441 . S
O344 C330 1.249 . S
O345 U326 2.420 . S
O345 C330 1.202 . S
O346 U326 2.455 . S
O346 C343 1.301 . S
O347 U326 2.449 . S
O347 C343 1.282 . S
H348 C321 0.931 . S
H349 C323 0.929 . S
H350 C324 0.930 . S
H351 C325 0.931 . S
H352 C332 0.932 . S
H353 C333 0.930 . S
H354 C334 0.929 . S
H355 C336 0.930 . S
H356 C338 0.932 . S
H357 C339 0.929 . S
H358 C340 0.928 . S
H359 C342 0.932 . S
H360 C372 0.930 . S
H361 C374 0.930 . S
H362 C375 0.930 . S
H363 C379 0.959 . S
H364 C379 0.959 . S
H365 C379 0.961 . S
H366 C380 0.960 . S
H367 C380 0.961 . S
H368 C380 0.959 . S
H369 C383 0.929 . S
H370 C384 0.931 . S
H371 C386 0.930 . S
C372 H360 0.930 . S
C372 C373 1.399 . S
C372 C377 1.399 . S
C373 C372 1.399 . S
C373 C374 1.376 . S
C374 H361 0.930 . S
C374 C373 1.376 . S
C374 C375 1.388 . S
C375 H362 0.930 . S
C375 C374 1.388 . S
C375 C376 1.390 . S
C376 C375 1.390 . S
C376 C377 1.394 . S
C376 C382 1.465 . S
C377 C372 1.399 . S
C377 C376 1.394 . S
C377 C378 1.516 . S
C378 C377 1.516 . S
C378 C379 1.502 . S
C378 C380 1.561 . S
C378 C381 1.526 . S
C379 H363 0.959 . S
C379 H364 0.959 . S
C379 H365 0.961 . S
C379 C378 1.502 . S
C380 H366 0.960 . S
C380 H367 0.961 . S
C380 H368 0.959 . S
C380 C378 1.561 . S
C381 C378 1.526 . S
C381 C382 1.396 . S
C381 C386 1.390 . S
C382 C376 1.465 . S
C382 C381 1.396 . S
C382 C383 1.399 . S
C383 H369 0.929 . S
C383 C382 1.399 . S
C383 C384 1.385 . S
C384 H370 0.931 . S
C384 C383 1.385 . S
C384 C385 1.389 . S
C385 C384 1.389 . S
C385 C386 1.387 . S
C386 H371 0.930 . S
C386 C381 1.390 . S
C386 C385 1.387 . S
H387 C399 0.930 . S
H388 C401 0.930 . S
H389 C402 0.930 . S
H390 C406 0.959 . S
H391 C406 0.959 . S
H392 C406 0.961 . S
H393 C407 0.960 . S
H394 C407 0.961 . S
H395 C407 0.959 . S
H396 C410 0.929 . S
H397 C411 0.931 . S
H398 C413 0.930 . S
C399 H387 0.930 . S
C399 C400 1.399 . S
C399 C404 1.399 . S
C400 C399 1.399 . S
C400 C401 1.376 . S
C401 H388 0.930 . S
C401 C400 1.376 . S
C401 C402 1.388 . S
C402 H389 0.930 . S
C402 C401 1.388 . S
C402 C403 1.390 . S
C403 C402 1.390 . S
C403 C404 1.394 . S
C403 C409 1.465 . S
C404 C399 1.399 . S
C404 C403 1.394 . S
C404 C405 1.516 . S
C405 C404 1.516 . S
C405 C406 1.502 . S
C405 C407 1.561 . S
C405 C408 1.526 . S
C406 H390 0.959 . S
C406 H391 0.959 . S
C406 H392 0.961 . S
C406 C405 1.502 . S
C407 H393 0.960 . S
C407 H394 0.961 . S
C407 H395 0.959 . S
C407 C405 1.561 . S
C408 C405 1.526 . S
C408 C409 1.396 . S
C408 C413 1.390 . S
C409 C403 1.465 . S
C409 C408 1.396 . S
C409 C410 1.399 . S
C410 H396 0.929 . S
C410 C409 1.399 . S
C410 C411 1.385 . S
C411 H397 0.931 . S
C411 C410 1.385 . S
C411 C412 1.389 . S
C412 C411 1.389 . S
C412 C413 1.387 . S
C413 H398 0.930 . S
C413 C408 1.390 . S
C413 C412 1.387 . S
H414 C426 0.930 . S
H415 C428 0.930 . S
H416 C429 0.930 . S
H417 C433 0.959 . S
H418 C433 0.959 . S
H419 C433 0.961 . S
H420 C434 0.960 . S
H421 C434 0.961 . S
H422 C434 0.959 . S
H423 C437 0.929 . S
H424 C438 0.931 . S
H425 C440 0.930 . S
C426 H414 0.930 . S
C426 C427 1.399 . S
C426 C431 1.399 . S
C427 C426 1.399 . S
C427 C428 1.376 . S
C428 H415 0.930 . S
C428 C427 1.376 . S
C428 C429 1.388 . S
C429 H416 0.930 . S
C429 C428 1.388 . S
C429 C430 1.390 . S
C430 C429 1.390 . S
C430 C431 1.394 . S
C430 C436 1.465 . S
C431 C426 1.399 . S
C431 C430 1.394 . S
C431 C432 1.516 . S
C432 C431 1.516 . S
C432 C433 1.502 . S
C432 C434 1.561 . S
C432 C435 1.526 . S
C433 H417 0.959 . S
C433 H418 0.959 . S
C433 H419 0.961 . S
C433 C432 1.502 . S
C434 H420 0.960 . S
C434 H421 0.961 . S
C434 H422 0.959 . S
C434 C432 1.561 . S
C435 C432 1.526 . S
C435 C436 1.396 . S
C435 C440 1.390 . S
C436 C430 1.465 . S
C436 C435 1.396 . S
C436 C437 1.399 . S
C437 H423 0.929 . S
C437 C436 1.399 . S
C437 C438 1.385 . S
C438 H424 0.931 . S
C438 C437 1.385 . S
C438 C439 1.389 . S
C439 C438 1.389 . S
C439 C440 1.387 . S
C440 H425 0.930 . S
C440 C435 1.390 . S
C440 C439 1.387 . S
H441 C453 0.930 . S
H442 C455 0.930 . S
H443 C456 0.930 . S
H444 C460 0.959 . S
H445 C460 0.959 . S
H446 C460 0.961 . S
H447 C461 0.960 . S
H448 C461 0.961 . S
H449 C461 0.959 . S
H450 C464 0.929 . S
H451 C465 0.931 . S
H452 C467 0.930 . S
C453 H441 0.930 . S
C453 C454 1.399 . S
C453 C458 1.399 . S
C454 C453 1.399 . S
C454 C455 1.376 . S
C455 H442 0.930 . S
C455 C454 1.376 . S
C455 C456 1.388 . S
C456 H443 0.930 . S
C456 C455 1.388 . S
C456 C457 1.390 . S
C457 C456 1.390 . S
C457 C458 1.394 . S
C457 C463 1.465 . S
C458 C453 1.399 . S
C458 C457 1.394 . S
C458 C459 1.516 . S
C459 C458 1.516 . S
C459 C460 1.502 . S
C459 C461 1.561 . S
C459 C462 1.526 . S
C460 H444 0.959 . S
C460 H445 0.959 . S
C460 H446 0.961 . S
C460 C459 1.502 . S
C461 H447 0.960 . S
C461 H448 0.961 . S
C461 H449 0.959 . S
C461 C459 1.561 . S
C462 C459 1.526 . S
C462 C463 1.396 . S
C462 C467 1.390 . S
C463 C457 1.465 . S
C463 C462 1.396 . S
C463 C464 1.399 . S
C464 H450 0.929 . S
C464 C463 1.399 . S
C464 C465 1.385 . S
C465 H451 0.931 . S
C465 C464 1.385 . S
C465 C466 1.389 . S
C466 C465 1.389 . S
C466 C467 1.387 . S
C467 H452 0.930 . S
C467 C462 1.390 . S
C467 C466 1.387 . S
H468 C480 0.930 . S
H469 C482 0.930 . S
H470 C483 0.930 . S
H471 C487 0.959 . S
H472 C487 0.959 . S
H473 C487 0.961 . S
H474 C488 0.960 . S
H475 C488 0.961 . S
H476 C488 0.959 . S
H477 C491 0.929 . S
H478 C492 0.931 . S
H479 C494 0.930 . S
C480 H468 0.930 . S
C480 C481 1.399 . S
C480 C485 1.399 . S
C481 C480 1.399 . S
C481 C482 1.376 . S
C482 H469 0.930 . S
C482 C481 1.376 . S
C482 C483 1.388 . S
C483 H470 0.930 . S
C483 C482 1.388 . S
C483 C484 1.390 . S
C484 C483 1.390 . S
C484 C485 1.394 . S
C484 C490 1.465 . S
C485 C480 1.399 . S
C485 C484 1.394 . S
C485 C486 1.516 . S
C486 C485 1.516 . S
C486 C487 1.502 . S
C486 C488 1.561 . S
C486 C489 1.526 . S
C487 H471 0.959 . S
C487 H472 0.959 . S
C487 H473 0.961 . S
C487 C486 1.502 . S
C488 H474 0.960 . S
C488 H475 0.961 . S
C488 H476 0.959 . S
C488 C486 1.561 . S
C489 C486 1.526 . S
C489 C490 1.396 . S
C489 C494 1.390 . S
C490 C484 1.465 . S
C490 C489 1.396 . S
C490 C491 1.399 . S
C491 H477 0.929 . S
C491 C490 1.399 . S
C491 C492 1.385 . S
C492 H478 0.931 . S
C492 C491 1.385 . S
C492 C493 1.389 . S
C493 C492 1.389 . S
C493 C494 1.387 . S
C494 H479 0.930 . S
C494 C489 1.390 . S
C494 C493 1.387 . S
H495 C507 0.930 . S
H496 C509 0.930 . S
H497 C510 0.930 . S
H498 C514 0.959 . S
H499 C514 0.959 . S
H500 C514 0.961 . S
H501 C515 0.960 . S
H502 C515 0.961 . S
H503 C515 0.959 . S
H504 C518 0.929 . S
H505 C519 0.931 . S
H506 C521 0.930 . S
C507 H495 0.930 . S
C507 C508 1.399 . S
C507 C512 1.399 . S
C508 C507 1.399 . S
C508 C509 1.376 . S
C509 H496 0.930 . S
C509 C508 1.376 . S
C509 C510 1.388 . S
C510 H497 0.930 . S
C510 C509 1.388 . S
C510 C511 1.390 . S
C511 C510 1.390 . S
C511 C512 1.394 . S
C511 C517 1.465 . S
C512 C507 1.399 . S
C512 C511 1.394 . S
C512 C513 1.516 . S
C513 C512 1.516 . S
C513 C514 1.502 . S
C513 C515 1.561 . S
C513 C516 1.526 . S
C514 H498 0.959 . S
C514 H499 0.959 . S
C514 H500 0.961 . S
C514 C513 1.502 . S
C515 H501 0.960 . S
C515 H502 0.961 . S
C515 H503 0.959 . S
C515 C513 1.561 . S
C516 C513 1.526 . S
C516 C517 1.396 . S
C516 C521 1.390 . S
C517 C511 1.465 . S
C517 C516 1.396 . S
C517 C518 1.399 . S
C518 H504 0.929 . S
C518 C517 1.399 . S
C518 C519 1.385 . S
C519 H505 0.931 . S
C519 C518 1.385 . S
C519 C520 1.389 . S
C520 C519 1.389 . S
C520 C521 1.387 . S
C521 H506 0.930 . S
C521 C516 1.390 . S
C521 C520 1.387 . S
H522 C534 0.930 . S
H523 C536 0.930 . S
H524 C537 0.930 . S
H525 C541 0.959 . S
H526 C541 0.959 . S
H527 C541 0.961 . S
H528 C542 0.960 . S
H529 C542 0.961 . S
H530 C542 0.959 . S
H531 C545 0.929 . S
H532 C546 0.931 . S
H533 C548 0.930 . S
C534 H522 0.930 . S
C534 C535 1.399 . S
C534 C539 1.399 . S
C535 C534 1.399 . S
C535 C536 1.376 . S
C536 H523 0.930 . S
C536 C535 1.376 . S
C536 C537 1.388 . S
C537 H524 0.930 . S
C537 C536 1.388 . S
C537 C538 1.390 . S
C538 C537 1.390 . S
C538 C539 1.394 . S
C538 C544 1.465 . S
C539 C534 1.399 . S
C539 C538 1.394 . S
C539 C540 1.516 . S
C540 C539 1.516 . S
C540 C541 1.502 . S
C540 C542 1.561 . S
C540 C543 1.526 . S
C541 H525 0.959 . S
C541 H526 0.959 . S
C541 H527 0.961 . S
C541 C540 1.502 . S
C542 H528 0.960 . S
C542 H529 0.961 . S
C542 H530 0.959 . S
C542 C540 1.561 . S
C543 C540 1.526 . S
C543 C544 1.396 . S
C543 C548 1.390 . S
C544 C538 1.465 . S
C544 C543 1.396 . S
C544 C545 1.399 . S
C545 H531 0.929 . S
C545 C544 1.399 . S
C545 C546 1.385 . S
C546 H532 0.931 . S
C546 C545 1.385 . S
C546 C547 1.389 . S
C547 C546 1.389 . S
C547 C548 1.387 . S
C548 H533 0.930 . S
C548 C543 1.390 . S
C548 C547 1.387 . S
H549 C561 0.930 . S
H550 C563 0.930 . S
H551 C564 0.930 . S
H552 C568 0.959 . S
H553 C568 0.959 . S
H554 C568 0.961 . S
H555 C569 0.960 . S
H556 C569 0.961 . S
H557 C569 0.959 . S
H558 C572 0.929 . S
H559 C573 0.931 . S
H560 C575 0.930 . S
C561 H549 0.930 . S
C561 C562 1.399 . S
C561 C566 1.399 . S
C562 C561 1.399 . S
C562 C563 1.376 . S
C563 H550 0.930 . S
C563 C562 1.376 . S
C563 C564 1.388 . S
C564 H551 0.930 . S
C564 C563 1.388 . S
C564 C565 1.390 . S
C565 C564 1.390 . S
C565 C566 1.394 . S
C565 C571 1.465 . S
C566 C561 1.399 . S
C566 C565 1.394 . S
C566 C567 1.516 . S
C567 C566 1.516 . S
C567 C568 1.502 . S
C567 C569 1.561 . S
C567 C570 1.526 . S
C568 H552 0.959 . S
C568 H553 0.959 . S
C568 H554 0.961 . S
C568 C567 1.502 . S
C569 H555 0.960 . S
C569 H556 0.961 . S
C569 H557 0.959 . S
C569 C567 1.561 . S
C570 C567 1.526 . S
C570 C571 1.396 . S
C570 C575 1.390 . S
C571 C565 1.465 . S
C571 C570 1.396 . S
C571 C572 1.399 . S
C572 H558 0.929 . S
C572 C571 1.399 . S
C572 C573 1.385 . S
C573 H559 0.931 . S
C573 C572 1.385 . S
C573 C574 1.389 . S
C574 C573 1.389 . S
C574 C575 1.387 . S
C575 H560 0.930 . S
C575 C570 1.390 . S
C575 C574 1.387 . S
H576 C588 0.930 . S
H577 C590 0.930 . S
H578 C591 0.930 . S
H579 C595 0.959 . S
H580 C595 0.959 . S
H581 C595 0.961 . S
H582 C596 0.960 . S
H583 C596 0.961 . S
H584 C596 0.959 . S
H585 C599 0.929 . S
H586 C600 0.931 . S
H587 C602 0.930 . S
C588 H576 0.930 . S
C588 C589 1.399 . S
C588 C593 1.399 . S
C589 C588 1.399 . S
C589 C590 1.376 . S
C590 H577 0.930 . S
C590 C589 1.376 . S
C590 C591 1.388 . S
C591 H578 0.930 . S
C591 C590 1.388 . S
C591 C592 1.390 . S
C592 C591 1.390 . S
C592 C593 1.394 . S
C592 C598 1.465 . S
C593 C588 1.399 . S
C593 C592 1.394 . S
C593 C594 1.516 . S
C594 C593 1.516 . S
C594 C595 1.502 . S
C594 C596 1.561 . S
C594 C597 1.526 . S
C595 H579 0.959 . S
C595 H580 0.959 . S
C595 H581 0.961 . S
C595 C594 1.502 . S
C596 H582 0.960 . S
C596 H583 0.961 . S
C596 H584 0.959 . S
C596 C594 1.561 . S
C597 C594 1.526 . S
C597 C598 1.396 . S
C597 C602 1.390 . S
C598 C592 1.465 . S
C598 C597 1.396 . S
C598 C599 1.399 . S
C599 H585 0.929 . S
C599 C598 1.399 . S
C599 C600 1.385 . S
C600 H586 0.931 . S
C600 C599 1.385 . S
C600 C601 1.389 . S
C601 C600 1.389 . S
C601 C602 1.387 . S
C602 H587 0.930 . S
C602 C597 1.390 . S
C602 C601 1.387 . S
H603 C615 0.930 . S
H604 C617 0.930 . S
H605 C618 0.930 . S
H606 C622 0.959 . S
H607 C622 0.959 . S
H608 C622 0.961 . S
H609 C623 0.960 . S
H610 C623 0.961 . S
H611 C623 0.959 . S
H612 C626 0.929 . S
H613 C627 0.931 . S
H614 C629 0.930 . S
C615 H603 0.930 . S
C615 C616 1.399 . S
C615 C620 1.399 . S
C616 C615 1.399 . S
C616 C617 1.376 . S
C617 H604 0.930 . S
C617 C616 1.376 . S
C617 C618 1.388 . S
C618 H605 0.930 . S
C618 C617 1.388 . S
C618 C619 1.390 . S
C619 C618 1.390 . S
C619 C620 1.394 . S
C619 C625 1.465 . S
C620 C615 1.399 . S
C620 C619 1.394 . S
C620 C621 1.516 . S
C621 C620 1.516 . S
C621 C622 1.502 . S
C621 C623 1.561 . S
C621 C624 1.526 . S
C622 H606 0.959 . S
C622 H607 0.959 . S
C622 H608 0.961 . S
C622 C621 1.502 . S
C623 H609 0.960 . S
C623 H610 0.961 . S
C623 H611 0.959 . S
C623 C621 1.561 . S
C624 C621 1.526 . S
C624 C625 1.396 . S
C624 C629 1.390 . S
C625 C619 1.465 . S
C625 C624 1.396 . S
C625 C626 1.399 . S
C626 H612 0.929 . S
C626 C625 1.399 . S
C626 C627 1.385 . S
C627 H613 0.931 . S
C627 C626 1.385 . S
C627 C628 1.389 . S
C628 C627 1.389 . S
C628 C629 1.387 . S
C629 H614 0.930 . S
C629 C624 1.390 . S
C629 C628 1.387 . S
H630 C642 0.930 . S
H631 C644 0.930 . S
H632 C645 0.930 . S
H633 C649 0.959 . S
H634 C649 0.959 . S
H635 C649 0.961 . S
H636 C650 0.960 . S
H637 C650 0.961 . S
H638 C650 0.959 . S
H639 C653 0.929 . S
H640 C654 0.931 . S
H641 C656 0.930 . S
C642 H630 0.930 . S
C642 C643 1.399 . S
C642 C647 1.399 . S
C643 C642 1.399 . S
C643 C644 1.376 . S
C644 H631 0.930 . S
C644 C643 1.376 . S
C644 C645 1.388 . S
C645 H632 0.930 . S
C645 C644 1.388 . S
C645 C646 1.390 . S
C646 C645 1.390 . S
C646 C647 1.394 . S
C646 C652 1.465 . S
C647 C642 1.399 . S
C647 C646 1.394 . S
C647 C648 1.516 . S
C648 C647 1.516 . S
C648 C649 1.502 . S
C648 C650 1.561 . S
C648 C651 1.526 . S
C649 H633 0.959 . S
C649 H634 0.959 . S
C649 H635 0.961 . S
C649 C648 1.502 . S
C650 H636 0.960 . S
C650 H637 0.961 . S
C650 H638 0.959 . S
C650 C648 1.561 . S
C651 C648 1.526 . S
C651 C652 1.396 . S
C651 C656 1.390 . S
C652 C646 1.465 . S
C652 C651 1.396 . S
C652 C653 1.399 . S
C653 H639 0.929 . S
C653 C652 1.399 . S
C653 C654 1.385 . S
C654 H640 0.931 . S
C654 C653 1.385 . S
C654 C655 1.389 . S
C655 C654 1.389 . S
C655 C656 1.387 . S
C656 H641 0.930 . S
C656 C651 1.390 . S
C656 C655 1.387 . S
H657 C669 0.930 . S
H658 C671 0.930 . S
H659 C672 0.930 . S
H660 C676 0.959 . S
H661 C676 0.959 . S
H662 C676 0.961 . S
H663 C677 0.960 . S
H664 C677 0.961 . S
H665 C677 0.959 . S
H666 C680 0.929 . S
H667 C681 0.931 . S
H668 C683 0.930 . S
C669 H657 0.930 . S
C669 C670 1.399 . S
C669 C674 1.399 . S
C670 C669 1.399 . S
C670 C671 1.376 . S
C671 H658 0.930 . S
C671 C670 1.376 . S
C671 C672 1.388 . S
C672 H659 0.930 . S
C672 C671 1.388 . S
C672 C673 1.390 . S
C673 C672 1.390 . S
C673 C674 1.394 . S
C673 C679 1.465 . S
C674 C669 1.399 . S
C674 C673 1.394 . S
C674 C675 1.516 . S
C675 C674 1.516 . S
C675 C676 1.502 . S
C675 C677 1.561 . S
C675 C678 1.526 . S
C676 H660 0.959 . S
C676 H661 0.959 . S
C676 H662 0.961 . S
C676 C675 1.502 . S
C677 H663 0.960 . S
C677 H664 0.961 . S
C677 H665 0.959 . S
C677 C675 1.561 . S
C678 C675 1.526 . S
C678 C679 1.396 . S
C678 C683 1.390 . S
C679 C673 1.465 . S
C679 C678 1.396 . S
C679 C680 1.399 . S
C680 H666 0.929 . S
C680 C679 1.399 . S
C680 C681 1.385 . S
C681 H667 0.931 . S
C681 C680 1.385 . S
C681 C682 1.389 . S
C682 C681 1.389 . S
C682 C683 1.387 . S
C683 H668 0.930 . S
C683 C678 1.390 . S
C683 C682 1.387 . S
H684 C696 0.930 . S
H685 C698 0.930 . S
H686 C699 0.930 . S
H687 C703 0.959 . S
H688 C703 0.959 . S
H689 C703 0.961 . S
H690 C704 0.960 . S
H691 C704 0.961 . S
H692 C704 0.959 . S
H693 C707 0.929 . S
H694 C708 0.931 . S
H695 C710 0.930 . S
C696 H684 0.930 . S
C696 C697 1.399 1_655 S
C696 C701 1.399 1_655 S
C697 C696 1.399 1_455 S
C697 C698 1.376 . S
C698 H685 0.930 . S
C698 C697 1.376 . S
C698 C699 1.388 . S
C699 H686 0.930 . S
C699 C698 1.388 . S
C699 C700 1.390 . S
C700 C699 1.390 . S
C700 C701 1.394 . S
C700 C706 1.465 . S
C701 C696 1.399 1_455 S
C701 C700 1.394 . S
C701 C702 1.516 1_455 S
C702 C701 1.516 1_655 S
C702 C703 1.502 1_655 S
C702 C704 1.561 . S
C702 C705 1.526 1_655 S
C703 H687 0.959 . S
C703 H688 0.959 . S
C703 H689 0.961 . S
C703 C702 1.502 1_455 S
C704 H690 0.960 . S
C704 H691 0.961 . S
C704 H692 0.959 . S
C704 C702 1.561 . S
C705 C702 1.526 1_455 S
C705 C706 1.396 . S
C705 C710 1.390 . S
C706 C700 1.465 . S
C706 C705 1.396 . S
C706 C707 1.399 . S
C707 H693 0.929 . S
C707 C706 1.399 . S
C707 C708 1.385 . S
C708 H694 0.931 . S
C708 C707 1.385 . S
C708 C709 1.389 . S
C709 C708 1.389 . S
C709 C710 1.387 . S
C710 H695 0.930 . S
C710 C705 1.390 . S
C710 C709 1.387 . S
H711 C723 0.930 . S
H712 C725 0.930 . S
H713 C726 0.930 . S
H714 C730 0.959 . S
H715 C730 0.959 . S
H716 C730 0.961 . S
H717 C731 0.960 . S
H718 C731 0.961 . S
H719 C731 0.959 . S
H720 C734 0.929 . S
H721 C735 0.931 . S
H722 C737 0.930 1_565 S
C723 H711 0.930 . S
C723 C724 1.399 1_565 S
C723 C728 1.397 1_565 S
C724 C723 1.399 1_545 S
C724 C725 1.376 . S
C725 H712 0.930 . S
C725 C724 1.376 . S
C725 C726 1.388 . S
C726 H713 0.930 . S
C726 C725 1.388 . S
C726 C727 1.390 . S
C727 C726 1.390 . S
C727 C728 1.398 . S
C727 C733 1.465 . S
C728 C723 1.397 1_545 S
C728 C727 1.398 . S
C728 C729 1.514 1_545 S
C729 C728 1.514 1_565 S
C729 C730 1.502 . S
C729 C731 1.561 . S
C729 C732 1.526 1_565 S
C730 H714 0.959 . S
C730 H715 0.959 . S
C730 H716 0.961 . S
C730 C729 1.502 . S
C731 H717 0.960 . S
C731 H718 0.961 . S
C731 H719 0.959 . S
C731 C729 1.561 . S
C732 C729 1.526 1_545 S
C732 C733 1.396 . S
C732 C737 1.390 . S
C733 C727 1.465 . S
C733 C732 1.396 . S
C733 C734 1.399 . S
C734 H720 0.929 . S
C734 C733 1.399 . S
C734 C735 1.385 . S
C735 H721 0.931 . S
C735 C734 1.385 . S
C735 C736 1.389 . S
C736 C735 1.389 . S
C736 C737 1.387 . S
C737 H722 0.930 1_545 S
C737 C732 1.390 . S
C737 C736 1.387 . S
H738 C750 0.930 . S
H739 C752 0.930 . S
H740 C753 0.930 . S
H741 C757 0.959 . S
H742 C757 0.959 . S
H743 C757 0.961 . S
H744 C758 0.960 . S
H745 C758 0.961 . S
H746 C758 0.959 . S
H747 C761 0.929 . S
H748 C762 0.931 . S
H749 C764 0.930 . S
C750 H738 0.930 . S
C750 C751 1.399 . S
C750 C755 1.399 . S
C751 C750 1.399 . S
C751 C752 1.376 . S
C752 H739 0.930 . S
C752 C751 1.376 . S
C752 C753 1.388 . S
C753 H740 0.930 . S
C753 C752 1.388 . S
C753 C754 1.390 . S
C754 C753 1.390 . S
C754 C755 1.394 . S
C754 C760 1.465 . S
C755 C750 1.399 . S
C755 C754 1.394 . S
C755 C756 1.516 . S
C756 C755 1.516 . S
C756 C757 1.502 . S
C756 C758 1.561 . S
C756 C759 1.526 . S
C757 H741 0.959 . S
C757 H742 0.959 . S
C757 H743 0.961 . S
C757 C756 1.502 . S
C758 H744 0.960 . S
C758 H745 0.961 . S
C758 H746 0.959 . S
C758 C756 1.561 . S
C759 C756 1.526 . S
C759 C760 1.396 . S
C759 C764 1.390 . S
C760 C754 1.465 . S
C760 C759 1.396 . S
C760 C761 1.399 . S
C761 H747 0.929 . S
C761 C760 1.399 . S
C761 C762 1.385 . S
C762 H748 0.931 . S
C762 C761 1.385 . S
C762 C763 1.389 . S
C763 C762 1.389 . S
C763 C764 1.387 . S
C764 H749 0.930 . S
C764 C759 1.390 . S
C764 C763 1.387 . S
H765 C777 0.930 . S
H766 C779 0.930 . S
H767 C780 0.930 . S
H768 C784 0.959 . S
H769 C784 0.959 . S
H770 C784 0.961 . S
H771 C785 0.960 . S
H772 C785 0.961 . S
H773 C785 0.959 . S
H774 C788 0.929 . S
H775 C789 0.931 . S
H776 C791 0.930 . S
C777 H765 0.930 . S
C777 C778 1.399 . S
C777 C782 1.399 . S
C778 C777 1.399 . S
C778 C779 1.376 1_545 S
C779 H766 0.930 . S
C779 C778 1.376 1_565 S
C779 C780 1.388 . S
C780 H767 0.930 . S
C780 C779 1.388 . S
C780 C781 1.390 . S
C781 C780 1.390 . S
C781 C782 1.394 1_565 S
C781 C787 1.465 . S
C782 C777 1.399 . S
C782 C781 1.394 1_545 S
C782 C783 1.516 . S
C783 C782 1.516 . S
C783 C784 1.502 . S
C783 C785 1.561 . S
C783 C786 1.526 . S
C784 H768 0.959 . S
C784 H769 0.959 . S
C784 H770 0.961 . S
C784 C783 1.502 . S
C785 H771 0.960 . S
C785 H772 0.961 . S
C785 H773 0.959 . S
C785 C783 1.561 . S
C786 C783 1.526 . S
C786 C787 1.396 1_545 S
C786 C791 1.390 . S
C787 C781 1.465 . S
C787 C786 1.396 1_565 S
C787 C788 1.399 . S
C788 H774 0.929 . S
C788 C787 1.399 . S
C788 C789 1.385 . S
C789 H775 0.931 . S
C789 C788 1.385 . S
C789 C790 1.389 1_565 S
C790 C789 1.389 1_545 S
C790 C791 1.387 . S
C791 H776 0.930 . S
C791 C786 1.390 . S
C791 C790 1.387 . S
H792 C804 0.930 . S
H793 C806 0.930 . S
H794 C807 0.930 . S
H795 C811 0.959 . S
H796 C811 0.959 . S
H797 C811 0.961 . S
H798 C812 0.960 . S
H799 C812 0.961 . S
H800 C812 0.959 . S
H801 C815 0.929 . S
H802 C816 0.931 . S
H803 C818 0.930 . S
C804 H792 0.930 . S
C804 C805 1.399 . S
C804 C809 1.399 . S
C805 C804 1.399 . S
C805 C806 1.376 . S
C806 H793 0.930 . S
C806 C805 1.376 . S
C806 C807 1.388 . S
C807 H794 0.930 . S
C807 C806 1.388 . S
C807 C808 1.390 . S
C808 C807 1.390 . S
C808 C809 1.394 . S
C808 C814 1.465 . S
C809 C804 1.399 . S
C809 C808 1.394 . S
C809 C810 1.516 . S
C810 C809 1.516 . S
C810 C811 1.502 . S
C810 C812 1.561 . S
C810 C813 1.526 . S
C811 H795 0.959 . S
C811 H796 0.959 . S
C811 H797 0.961 . S
C811 C810 1.502 . S
C812 H798 0.960 . S
C812 H799 0.961 . S
C812 H800 0.959 . S
C812 C810 1.561 . S
C813 C810 1.526 . S
C813 C814 1.396 . S
C813 C818 1.390 . S
C814 C808 1.465 . S
C814 C813 1.396 . S
C814 C815 1.399 . S
C815 H801 0.929 . S
C815 C814 1.399 . S
C815 C816 1.385 . S
C816 H802 0.931 . S
C816 C815 1.385 . S
C816 C817 1.389 . S
C817 C816 1.389 . S
C817 C818 1.387 . S
C818 H803 0.930 . S
C818 C813 1.390 . S
C818 C817 1.387 . S
H819 C831 0.930 . S
H820 C833 0.930 . S
H821 C834 0.930 . S
H822 C838 0.959 . S
H823 C838 0.959 . S
H824 C838 0.961 . S
H825 C839 0.960 . S
H826 C839 0.961 . S
H827 C839 0.966 . S
H828 C842 0.929 . S
H829 C843 0.931 . S
H830 C845 0.930 . S
C831 H819 0.930 . S
C831 C832 1.399 1_455 S
C831 C836 1.399 . S
C832 C831 1.399 1_655 S
C832 C833 1.376 . S
C833 H820 0.930 . S
C833 C832 1.376 . S
C833 C834 1.388 . S
C834 H821 0.930 . S
C834 C833 1.388 . S
C834 C835 1.390 . S
C835 C834 1.390 . S
C835 C836 1.394 1_655 S
C835 C841 1.465 . S
C836 C831 1.399 . S
C836 C835 1.394 1_455 S
C836 C837 1.516 . S
C837 C836 1.516 . S
C837 C838 1.502 . S
C837 C839 1.561 . S
C837 C840 1.526 . S
C838 H822 0.959 . S
C838 H823 0.959 . S
C838 H824 0.961 . S
C838 C837 1.502 . S
C839 H825 0.960 . S
C839 H826 0.961 . S
C839 H827 0.966 . S
C839 C837 1.561 . S
C840 C837 1.526 . S
C840 C841 1.396 1_455 S
C840 C845 1.390 . S
C841 C835 1.465 . S
C841 C840 1.396 1_655 S
C841 C842 1.399 . S
C842 H828 0.929 . S
C842 C841 1.399 . S
C842 C843 1.385 . S
C843 H829 0.931 . S
C843 C842 1.385 . S
C843 C844 1.389 1_655 S
C844 C843 1.389 1_455 S
C844 C845 1.387 . S
C845 H830 0.930 . S
C845 C840 1.390 . S
C845 C844 1.387 . S
C373 C12 2.990 . S
C385 C335 2.929 . S
C400 C52 2.972 . S
C412 C242 2.933 . S
C427 C111 3.028 . S
C439 C282 2.975 . S
C454 C31 3.196 . S
C466 C322 3.124 . S
C493 C255 3.128 . S
C481 C71 3.219 . S
C520 C295 3.096 . S
C508 C92 3.154 . S
C535 C48 0.524 . S
C547 C162 0.547 . S
C562 C109 0.595 . S
C574 C202 0.496 . S
C589 C29 0.359 . S
C601 C135 0.416 . S
C628 C175 0.262 . S
C616 C69 0.324 . S
C655 C215 0.285 . S
C643 C88 0.280 . S
C670 C8 0.358 . S
C682 C122 0.348 . S
C709 C221 1.113 . S
C697 C17 1.115 1_455 S
C724 C57 1.118 . S
C736 C141 1.088 . S
C751 C97 1.084 . S
C763 C181 1.097 . S
C790 C301 1.756 . S
C778 C42 1.705 . S
C817 C341 1.767 1_556 S
C805 C82 1.693 . S
C832 C2 1.751 1_655 S
C844 C261 1.767 . S
