# Generated by pormake.
# Topology tbo, (3,4)-cn, num edge types: 1
# Building blocks:
#     Node 0, Type 0, BuildingBlock: WUSLED_clean_sbu_0, # of connection points: 3
#     Node 1, Type 0, BuildingBlock: WUSLED_clean_sbu_0, # of connection points: 3
#     Node 2, Type 0, BuildingBlock: WUSLED_clean_sbu_0, # of connection points: 3
#     Node 3, Type 0, BuildingBlock: WUSLED_clean_sbu_0, # of connection points: 3
#     Node 4, Type 0, BuildingBlock: WUSLED_clean_sbu_0, # of connection points: 3
#     Node 5, Type 0, BuildingBlock: WUSLED_clean_sbu_0, # of connection points: 3
#     Node 6, Type 0, BuildingBlock: WUSLED_clean_sbu_0, # of connection points: 3
#     Node 7, Type 0, BuildingBlock: WUSLED_clean_sbu_0, # of connection points: 3
#     Node 8, Type 0, BuildingBlock: WUSLED_clean_sbu_0, # of connection points: 3
#     Node 9, Type 0, BuildingBlock: WUSLED_clean_sbu_0, # of connection points: 3
#     Node 10, Type 0, BuildingBlock: WUSLED_clean_sbu_0, # of connection points: 3
#     Node 11, Type 0, BuildingBlock: WUSLED_clean_sbu_0, # of connection points: 3
#     Node 12, Type 0, BuildingBlock: WUSLED_clean_sbu_0, # of connection points: 3
#     Node 13, Type 0, BuildingBlock: WUSLED_clean_sbu_0, # of connection points: 3
#     Node 14, Type 0, BuildingBlock: WUSLED_clean_sbu_0, # of connection points: 3
#     Node 15, Type 0, BuildingBlock: WUSLED_clean_sbu_0, # of connection points: 3
#     Node 16, Type 0, BuildingBlock: WUSLED_clean_sbu_0, # of connection points: 3
#     Node 17, Type 0, BuildingBlock: WUSLED_clean_sbu_0, # of connection points: 3
#     Node 18, Type 0, BuildingBlock: WUSLED_clean_sbu_0, # of connection points: 3
#     Node 19, Type 0, BuildingBlock: WUSLED_clean_sbu_0, # of connection points: 3
#     Node 20, Type 0, BuildingBlock: WUSLED_clean_sbu_0, # of connection points: 3
#     Node 21, Type 0, BuildingBlock: WUSLED_clean_sbu_0, # of connection points: 3
#     Node 22, Type 0, BuildingBlock: WUSLED_clean_sbu_0, # of connection points: 3
#     Node 23, Type 0, BuildingBlock: WUSLED_clean_sbu_0, # of connection points: 3
#     Node 24, Type 0, BuildingBlock: WUSLED_clean_sbu_0, # of connection points: 3
#     Node 25, Type 0, BuildingBlock: WUSLED_clean_sbu_0, # of connection points: 3
#     Node 26, Type 0, BuildingBlock: WUSLED_clean_sbu_0, # of connection points: 3
#     Node 27, Type 0, BuildingBlock: WUSLED_clean_sbu_0, # of connection points: 3
#     Node 28, Type 0, BuildingBlock: WUSLED_clean_sbu_0, # of connection points: 3
#     Node 29, Type 0, BuildingBlock: WUSLED_clean_sbu_0, # of connection points: 3
#     Node 30, Type 0, BuildingBlock: WUSLED_clean_sbu_0, # of connection points: 3
#     Node 31, Type 0, BuildingBlock: WUSLED_clean_sbu_0, # of connection points: 3
#     Node 32, Type 1, BuildingBlock: ESEHIV_clean_sbu_0, # of connection points: 4
#     Node 33, Type 1, BuildingBlock: ESEHIV_clean_sbu_0, # of connection points: 4
#     Node 34, Type 1, BuildingBlock: ESEHIV_clean_sbu_0, # of connection points: 4
#     Node 35, Type 1, BuildingBlock: ESEHIV_clean_sbu_0, # of connection points: 4
#     Node 36, Type 1, BuildingBlock: ESEHIV_clean_sbu_0, # of connection points: 4
#     Node 37, Type 1, BuildingBlock: ESEHIV_clean_sbu_0, # of connection points: 4
#     Node 38, Type 1, BuildingBlock: ESEHIV_clean_sbu_0, # of connection points: 4
#     Node 39, Type 1, BuildingBlock: ESEHIV_clean_sbu_0, # of connection points: 4
#     Node 40, Type 1, BuildingBlock: ESEHIV_clean_sbu_0, # of connection points: 4
#     Node 41, Type 1, BuildingBlock: ESEHIV_clean_sbu_0, # of connection points: 4
#     Node 42, Type 1, BuildingBlock: ESEHIV_clean_sbu_0, # of connection points: 4
#     Node 43, Type 1, BuildingBlock: ESEHIV_clean_sbu_0, # of connection points: 4
#     Node 44, Type 1, BuildingBlock: ESEHIV_clean_sbu_0, # of connection points: 4
#     Node 45, Type 1, BuildingBlock: ESEHIV_clean_sbu_0, # of connection points: 4
#     Node 46, Type 1, BuildingBlock: ESEHIV_clean_sbu_0, # of connection points: 4
#     Node 47, Type 1, BuildingBlock: ESEHIV_clean_sbu_0, # of connection points: 4
#     Node 48, Type 1, BuildingBlock: ESEHIV_clean_sbu_0, # of connection points: 4
#     Node 49, Type 1, BuildingBlock: ESEHIV_clean_sbu_0, # of connection points: 4
#     Node 50, Type 1, BuildingBlock: ESEHIV_clean_sbu_0, # of connection points: 4
#     Node 51, Type 1, BuildingBlock: ESEHIV_clean_sbu_0, # of connection points: 4
#     Node 52, Type 1, BuildingBlock: ESEHIV_clean_sbu_0, # of connection points: 4
#     Node 53, Type 1, BuildingBlock: ESEHIV_clean_sbu_0, # of connection points: 4
#     Node 54, Type 1, BuildingBlock: ESEHIV_clean_sbu_0, # of connection points: 4
#     Node 55, Type 1, BuildingBlock: ESEHIV_clean_sbu_0, # of connection points: 4
#     Edge 56, Type (0, 1), BuildingBlock: XUDNAN_clean_linker_2, # of connection points: 2
#     Edge 57, Type (0, 1), BuildingBlock: XUDNAN_clean_linker_2, # of connection points: 2
#     Edge 58, Type (0, 1), BuildingBlock: XUDNAN_clean_linker_2, # of connection points: 2
#     Edge 59, Type (0, 1), BuildingBlock: XUDNAN_clean_linker_2, # of connection points: 2
#     Edge 60, Type (0, 1), BuildingBlock: XUDNAN_clean_linker_2, # of connection points: 2
#     Edge 61, Type (0, 1), BuildingBlock: XUDNAN_clean_linker_2, # of connection points: 2
#     Edge 62, Type (0, 1), BuildingBlock: XUDNAN_clean_linker_2, # of connection points: 2
#     Edge 63, Type (0, 1), BuildingBlock: XUDNAN_clean_linker_2, # of connection points: 2
#     Edge 64, Type (0, 1), BuildingBlock: XUDNAN_clean_linker_2, # of connection points: 2
#     Edge 65, Type (0, 1), BuildingBlock: XUDNAN_clean_linker_2, # of connection points: 2
#     Edge 66, Type (0, 1), BuildingBlock: XUDNAN_clean_linker_2, # of connection points: 2
#     Edge 67, Type (0, 1), BuildingBlock: XUDNAN_clean_linker_2, # of connection points: 2
#     Edge 68, Type (0, 1), BuildingBlock: XUDNAN_clean_linker_2, # of connection points: 2
#     Edge 69, Type (0, 1), BuildingBlock: XUDNAN_clean_linker_2, # of connection points: 2
#     Edge 70, Type (0, 1), BuildingBlock: XUDNAN_clean_linker_2, # of connection points: 2
#     Edge 71, Type (0, 1), BuildingBlock: XUDNAN_clean_linker_2, # of connection points: 2
#     Edge 72, Type (0, 1), BuildingBlock: XUDNAN_clean_linker_2, # of connection points: 2
#     Edge 73, Type (0, 1), BuildingBlock: XUDNAN_clean_linker_2, # of connection points: 2
#     Edge 74, Type (0, 1), BuildingBlock: XUDNAN_clean_linker_2, # of connection points: 2
#     Edge 75, Type (0, 1), BuildingBlock: XUDNAN_clean_linker_2, # of connection points: 2
#     Edge 76, Type (0, 1), BuildingBlock: XUDNAN_clean_linker_2, # of connection points: 2
#     Edge 77, Type (0, 1), BuildingBlock: XUDNAN_clean_linker_2, # of connection points: 2
#     Edge 78, Type (0, 1), BuildingBlock: XUDNAN_clean_linker_2, # of connection points: 2
#     Edge 79, Type (0, 1), BuildingBlock: XUDNAN_clean_linker_2, # of connection points: 2
#     Edge 80, Type (0, 1), BuildingBlock: XUDNAN_clean_linker_2, # of connection points: 2
#     Edge 81, Type (0, 1), BuildingBlock: XUDNAN_clean_linker_2, # of connection points: 2
#     Edge 82, Type (0, 1), BuildingBlock: XUDNAN_clean_linker_2, # of connection points: 2
#     Edge 83, Type (0, 1), BuildingBlock: XUDNAN_clean_linker_2, # of connection points: 2
#     Edge 84, Type (0, 1), BuildingBlock: XUDNAN_clean_linker_2, # of connection points: 2
#     Edge 85, Type (0, 1), BuildingBlock: XUDNAN_clean_linker_2, # of connection points: 2
#     Edge 86, Type (0, 1), BuildingBlock: XUDNAN_clean_linker_2, # of connection points: 2
#     Edge 87, Type (0, 1), BuildingBlock: XUDNAN_clean_linker_2, # of connection points: 2
#     Edge 88, Type (0, 1), BuildingBlock: XUDNAN_clean_linker_2, # of connection points: 2
#     Edge 89, Type (0, 1), BuildingBlock: XUDNAN_clean_linker_2, # of connection points: 2
#     Edge 90, Type (0, 1), BuildingBlock: XUDNAN_clean_linker_2, # of connection points: 2
#     Edge 91, Type (0, 1), BuildingBlock: XUDNAN_clean_linker_2, # of connection points: 2
#     Edge 92, Type (0, 1), BuildingBlock: XUDNAN_clean_linker_2, # of connection points: 2
#     Edge 93, Type (0, 1), BuildingBlock: XUDNAN_clean_linker_2, # of connection points: 2
#     Edge 94, Type (0, 1), BuildingBlock: XUDNAN_clean_linker_2, # of connection points: 2
#     Edge 95, Type (0, 1), BuildingBlock: XUDNAN_clean_linker_2, # of connection points: 2
#     Edge 96, Type (0, 1), BuildingBlock: XUDNAN_clean_linker_2, # of connection points: 2
#     Edge 97, Type (0, 1), BuildingBlock: XUDNAN_clean_linker_2, # of connection points: 2
#     Edge 98, Type (0, 1), BuildingBlock: XUDNAN_clean_linker_2, # of connection points: 2
#     Edge 99, Type (0, 1), BuildingBlock: XUDNAN_clean_linker_2, # of connection points: 2
#     Edge 100, Type (0, 1), BuildingBlock: XUDNAN_clean_linker_2, # of connection points: 2
#     Edge 101, Type (0, 1), BuildingBlock: XUDNAN_clean_linker_2, # of connection points: 2
#     Edge 102, Type (0, 1), BuildingBlock: XUDNAN_clean_linker_2, # of connection points: 2
#     Edge 103, Type (0, 1), BuildingBlock: XUDNAN_clean_linker_2, # of connection points: 2
#     Edge 104, Type (0, 1), BuildingBlock: XUDNAN_clean_linker_2, # of connection points: 2
#     Edge 105, Type (0, 1), BuildingBlock: XUDNAN_clean_linker_2, # of connection points: 2
#     Edge 106, Type (0, 1), BuildingBlock: XUDNAN_clean_linker_2, # of connection points: 2
#     Edge 107, Type (0, 1), BuildingBlock: XUDNAN_clean_linker_2, # of connection points: 2
#     Edge 108, Type (0, 1), BuildingBlock: XUDNAN_clean_linker_2, # of connection points: 2
#     Edge 109, Type (0, 1), BuildingBlock: XUDNAN_clean_linker_2, # of connection points: 2
#     Edge 110, Type (0, 1), BuildingBlock: XUDNAN_clean_linker_2, # of connection points: 2
#     Edge 111, Type (0, 1), BuildingBlock: XUDNAN_clean_linker_2, # of connection points: 2
#     Edge 112, Type (0, 1), BuildingBlock: XUDNAN_clean_linker_2, # of connection points: 2
#     Edge 113, Type (0, 1), BuildingBlock: XUDNAN_clean_linker_2, # of connection points: 2
#     Edge 114, Type (0, 1), BuildingBlock: XUDNAN_clean_linker_2, # of connection points: 2
#     Edge 115, Type (0, 1), BuildingBlock: XUDNAN_clean_linker_2, # of connection points: 2
#     Edge 116, Type (0, 1), BuildingBlock: XUDNAN_clean_linker_2, # of connection points: 2
#     Edge 117, Type (0, 1), BuildingBlock: XUDNAN_clean_linker_2, # of connection points: 2
#     Edge 118, Type (0, 1), BuildingBlock: XUDNAN_clean_linker_2, # of connection points: 2
#     Edge 119, Type (0, 1), BuildingBlock: XUDNAN_clean_linker_2, # of connection points: 2
#     Edge 120, Type (0, 1), BuildingBlock: XUDNAN_clean_linker_2, # of connection points: 2
#     Edge 121, Type (0, 1), BuildingBlock: XUDNAN_clean_linker_2, # of connection points: 2
#     Edge 122, Type (0, 1), BuildingBlock: XUDNAN_clean_linker_2, # of connection points: 2
#     Edge 123, Type (0, 1), BuildingBlock: XUDNAN_clean_linker_2, # of connection points: 2
#     Edge 124, Type (0, 1), BuildingBlock: XUDNAN_clean_linker_2, # of connection points: 2
#     Edge 125, Type (0, 1), BuildingBlock: XUDNAN_clean_linker_2, # of connection points: 2
#     Edge 126, Type (0, 1), BuildingBlock: XUDNAN_clean_linker_2, # of connection points: 2
#     Edge 127, Type (0, 1), BuildingBlock: XUDNAN_clean_linker_2, # of connection points: 2
#     Edge 128, Type (0, 1), BuildingBlock: XUDNAN_clean_linker_2, # of connection points: 2
#     Edge 129, Type (0, 1), BuildingBlock: XUDNAN_clean_linker_2, # of connection points: 2
#     Edge 130, Type (0, 1), BuildingBlock: XUDNAN_clean_linker_2, # of connection points: 2
#     Edge 131, Type (0, 1), BuildingBlock: XUDNAN_clean_linker_2, # of connection points: 2
#     Edge 132, Type (0, 1), BuildingBlock: XUDNAN_clean_linker_2, # of connection points: 2
#     Edge 133, Type (0, 1), BuildingBlock: XUDNAN_clean_linker_2, # of connection points: 2
#     Edge 134, Type (0, 1), BuildingBlock: XUDNAN_clean_linker_2, # of connection points: 2
#     Edge 135, Type (0, 1), BuildingBlock: XUDNAN_clean_linker_2, # of connection points: 2
#     Edge 136, Type (0, 1), BuildingBlock: XUDNAN_clean_linker_2, # of connection points: 2
#     Edge 137, Type (0, 1), BuildingBlock: XUDNAN_clean_linker_2, # of connection points: 2
#     Edge 138, Type (0, 1), BuildingBlock: XUDNAN_clean_linker_2, # of connection points: 2
#     Edge 139, Type (0, 1), BuildingBlock: XUDNAN_clean_linker_2, # of connection points: 2
#     Edge 140, Type (0, 1), BuildingBlock: XUDNAN_clean_linker_2, # of connection points: 2
#     Edge 141, Type (0, 1), BuildingBlock: XUDNAN_clean_linker_2, # of connection points: 2
#     Edge 142, Type (0, 1), BuildingBlock: XUDNAN_clean_linker_2, # of connection points: 2
#     Edge 143, Type (0, 1), BuildingBlock: XUDNAN_clean_linker_2, # of connection points: 2
#     Edge 144, Type (0, 1), BuildingBlock: XUDNAN_clean_linker_2, # of connection points: 2
#     Edge 145, Type (0, 1), BuildingBlock: XUDNAN_clean_linker_2, # of connection points: 2
#     Edge 146, Type (0, 1), BuildingBlock: XUDNAN_clean_linker_2, # of connection points: 2
#     Edge 147, Type (0, 1), BuildingBlock: XUDNAN_clean_linker_2, # of connection points: 2
#     Edge 148, Type (0, 1), BuildingBlock: XUDNAN_clean_linker_2, # of connection points: 2
#     Edge 149, Type (0, 1), BuildingBlock: XUDNAN_clean_linker_2, # of connection points: 2
#     Edge 150, Type (0, 1), BuildingBlock: XUDNAN_clean_linker_2, # of connection points: 2
#     Edge 151, Type (0, 1), BuildingBlock: XUDNAN_clean_linker_2, # of connection points: 2
# Relax obj value: 0.002
# Max RMSD: 0.116
# Mean RMSD: 0.047
data_MOF--net-tbo--node1-WUSLED_clean_sbu_0--node2-ESEHIV_clean_sbu_0--edge1-XUDNAN_clean_linker_2
_symmetry_space_group_name_H-M    P1
_symmetry_Int_Tables_number       1
_symmetry_cell_setting            triclinic
loop_
_symmetry_equiv_pos_as_xyz
'x, y, z'
_cell_length_a     95.400183
_cell_length_b     95.786297
_cell_length_c     95.770238
_cell_angle_alpha  89.757657
_cell_angle_beta   92.036662
_cell_angle_gamma 91.172165
loop_
_atom_site_label
_atom_site_type_symbol
_atom_site_fract_x
_atom_site_fract_y
_atom_site_fract_z
_atom_type_partial_charge
C0 C 0.20553 0.14904 0.20786 0.0
C1 C 0.22014 0.15017 0.21038 0.0
C2 C 0.22146 0.12501 0.21465 0.0
C3 C 0.22801 0.13829 0.2137 0.0
C4 C 0.20692 0.1239 0.21167 0.0
C5 C 0.19909 0.13574 0.20837 0.0
U6 U 0.19255 0.18336 0.18973 0.0
O7 O 0.17069 0.19002 0.18617 0.0
O8 O 0.18521 0.2025 0.19954 0.0
C9 C 0.17221 0.20067 0.19474 0.0
C10 C 0.19655 0.16148 0.20604 0.0
C11 C 0.16092 0.20249 0.20479 0.0
C12 C 0.1522 0.20201 0.22841 0.0
C13 C 0.16296 0.1997 0.21912 0.0
C14 C 0.13715 0.20982 0.20919 0.0
C15 C 0.13911 0.2071 0.22358 0.0
C16 C 0.14792 0.20755 0.19994 0.0
C17 C 0.21015 0.1979 0.1566 0.0
C18 C 0.21054 0.22166 0.14736 0.0
C19 C 0.21618 0.2024 0.13244 0.0
C20 C 0.21403 0.19306 0.1435 0.0
C21 C 0.21453 0.21685 0.1342 0.0
C22 C 0.20835 0.21229 0.15842 0.0
C23 C 0.20853 0.18776 0.1682 0.0
O24 O 0.20237 0.17384 0.20853 0.0
O25 O 0.18766 0.16145 0.19524 0.0
O26 O 0.19716 0.17977 0.16761 0.0
O27 O 0.21177 0.19226 0.18088 0.0
H28 H 0.22545 0.16027 0.21016 0.0
H29 H 0.23915 0.13959 0.21603 0.0
H30 H 0.20152 0.11386 0.21204 0.0
H31 H 0.18785 0.13454 0.20654 0.0
H32 H 0.15422 0.19996 0.23941 0.0
H33 H 0.17289 0.19582 0.22317 0.0
H34 H 0.1272 0.21352 0.20501 0.0
H35 H 0.1461 0.20979 0.18893 0.0
H36 H 0.20933 0.2327 0.14922 0.0
H37 H 0.21899 0.19823 0.12245 0.0
H38 H 0.21548 0.18201 0.14184 0.0
H39 H 0.20538 0.21632 0.16842 0.0
C40 C 0.84163 0.20582 0.15633 0.0
C41 C 0.83137 0.21581 0.15867 0.0
C42 C 0.82879 0.22064 0.13367 0.0
C43 C 0.82508 0.22314 0.14752 0.0
C44 C 0.83935 0.21096 0.13133 0.0
C45 C 0.84563 0.20359 0.14252 0.0
U46 U 0.86761 0.19679 0.18708 0.0
O47 O 0.86307 0.18813 0.20781 0.0
O48 O 0.87595 0.17638 0.19364 0.0
C49 C 0.86962 0.17644 0.20561 0.0
C50 C 0.84702 0.19688 0.16804 0.0
C51 C 0.86206 0.16343 0.20943 0.0
C52 C 0.84213 0.14722 0.20698 0.0
C53 C 0.84912 0.15957 0.20299 0.0
C54 C 0.86093 0.14248 0.22387 0.0
C55 C 0.84795 0.13849 0.21749 0.0
C56 C 0.86788 0.1548 0.21988 0.0
C57 C 0.89877 0.22257 0.19574 0.0
C58 C 0.91219 0.24211 0.206 0.0
C59 C 0.92226 0.21913 0.20588 0.0
C60 C 0.90999 0.21376 0.1992 0.0
C61 C 0.92358 0.23342 0.20925 0.0
C62 C 0.89997 0.23675 0.19931 0.0
C63 C 0.88609 0.21759 0.18771 0.0
O64 O 0.85894 0.19054 0.16633 0.0
O65 O 0.84587 0.20173 0.18077 0.0
O66 O 0.87417 0.2179 0.19416 0.0
O67 O 0.8873 0.20636 0.18002 0.0
H68 H 0.8279 0.21774 0.16912 0.0
H69 H 0.81714 0.23065 0.14974 0.0
H70 H 0.84236 0.20866 0.12081 0.0
H71 H 0.85335 0.19584 0.14027 0.0
H72 H 0.83209 0.14461 0.20194 0.0
H73 H 0.84441 0.16613 0.19494 0.0
H74 H 0.86586 0.13597 0.23182 0.0
H75 H 0.87788 0.15758 0.22496 0.0
H76 H 0.91268 0.25309 0.20865 0.0
H77 H 0.93083 0.21214 0.20811 0.0
H78 H 0.90938 0.20277 0.19655 0.0
H79 H 0.89148 0.24375 0.19675 0.0
C80 C 0.83006 0.85704 0.14383 0.0
C81 C 0.82339 0.84378 0.14351 0.0
C82 C 0.8209 0.84471 0.11798 0.0
C83 C 0.81889 0.83768 0.13074 0.0
C84 C 0.82766 0.85791 0.11838 0.0
C85 C 0.83213 0.86397 0.13109 0.0
U86 U 0.85067 0.86595 0.1792 0.0
O87 O 0.85621 0.88699 0.18713 0.0
O88 O 0.84185 0.87347 0.19871 0.0
C89 C 0.84767 0.88598 0.19758 0.0
C90 C 0.83331 0.86462 0.15715 0.0
C91 C 0.8388 0.89829 0.20005 0.0
C92 C 0.81677 0.90865 0.20657 0.0
C93 C 0.82447 0.89692 0.20296 0.0
C94 C 0.83745 0.92334 0.20415 0.0
C95 C 0.82321 0.92201 0.20743 0.0
C96 C 0.84512 0.91166 0.20057 0.0
C97 C 0.88321 0.84522 0.19251 0.0
C98 C 0.89348 0.84342 0.21613 0.0
C99 C 0.9072 0.83725 0.19642 0.0
C100 C 0.89584 0.84047 0.18733 0.0
C101 C 0.90622 0.83868 0.21098 0.0
C102 C 0.88214 0.84668 0.20702 0.0
C103 C 0.87128 0.84815 0.18258 0.0
O104 O 0.83093 0.85815 0.16901 0.0
O105 O 0.84478 0.87247 0.15774 0.0
O106 O 0.87231 0.85968 0.17517 0.0
O107 O 0.85856 0.84581 0.18704 0.0
H108 H 0.82141 0.8382 0.15312 0.0
H109 H 0.81385 0.82745 0.13088 0.0
H110 H 0.82917 0.86381 0.10886 0.0
H111 H 0.8369 0.87434 0.13095 0.0
H112 H 0.80588 0.90715 0.20914 0.0
H113 H 0.81926 0.88677 0.20275 0.0
H114 H 0.84275 0.93345 0.20444 0.0
H115 H 0.85615 0.91306 0.19847 0.0
H116 H 0.89217 0.84449 0.22726 0.0
H117 H 0.91683 0.83385 0.19198 0.0
H118 H 0.89694 0.83923 0.17618 0.0
H119 H 0.87251 0.85028 0.21134 0.0
C120 C 0.15007 0.82502 0.18907 0.0
C121 C 0.14809 0.81052 0.19025 0.0
C122 C 0.1252 0.81354 0.20038 0.0
C123 C 0.13585 0.80484 0.19584 0.0
C124 C 0.12734 0.82812 0.19944 0.0
C125 C 0.13964 0.83381 0.19384 0.0
U126 U 0.18117 0.85138 0.18416 0.0
O127 O 0.20293 0.84703 0.17883 0.0
O128 O 0.1897 0.85939 0.16451 0.0
C129 C 0.20186 0.85339 0.16667 0.0
C130 C 0.16275 0.83053 0.1822 0.0
C131 C 0.20755 0.84597 0.15467 0.0
C132 C 0.20729 0.82659 0.13827 0.0
C133 C 0.20137 0.83355 0.14944 0.0
C134 C 0.22554 0.84446 0.13734 0.0
C135 C 0.21954 0.83191 0.1321 0.0
C136 C 0.21962 0.85138 0.14848 0.0
C137 C 0.18665 0.88317 0.20865 0.0
C138 C 0.20674 0.89925 0.20842 0.0
C139 C 0.18748 0.90385 0.22341 0.0
C140 C 0.18057 0.89164 0.2186 0.0
C141 C 0.20065 0.90787 0.21837 0.0
C142 C 0.1998 0.88704 0.2036 0.0
C143 C 0.17909 0.87036 0.20379 0.0
O144 O 0.16149 0.84229 0.17517 0.0
O145 O 0.1747 0.82977 0.1894 0.0
O146 O 0.18576 0.85859 0.20567 0.0
O147 O 0.17258 0.87115 0.19149 0.0
H148 H 0.15598 0.80352 0.18667 0.0
H149 H 0.13476 0.79359 0.19663 0.0
H150 H 0.11937 0.83517 0.20271 0.0
H151 H 0.14088 0.84504 0.19305 0.0
H152 H 0.20224 0.81707 0.13443 0.0
H153 H 0.19202 0.82921 0.15405 0.0
H154 H 0.23505 0.8488 0.13305 0.0
H155 H 0.22458 0.86094 0.15238 0.0
H156 H 0.21694 0.90187 0.20442 0.0
H157 H 0.18235 0.91027 0.2309 0.0
H158 H 0.17041 0.88885 0.22262 0.0
H159 H 0.20471 0.88062 0.19595 0.0
C160 C 0.1566 0.8404 0.84359 0.0
C161 C 0.15807 0.83925 0.82907 0.0
C162 C 0.13284 0.83486 0.82563 0.0
C163 C 0.14631 0.83651 0.82019 0.0
C164 C 0.13141 0.83651 0.84011 0.0
C165 C 0.14314 0.83919 0.84896 0.0
U166 U 0.192 0.85714 0.85675 0.0
O167 O 0.19942 0.8618 0.87835 0.0
O168 O 0.21069 0.84689 0.86577 0.0
C169 C 0.20941 0.85255 0.87814 0.0
C170 C 0.16889 0.84187 0.85345 0.0
C171 C 0.21094 0.84326 0.89056 0.0
C172 C 0.21518 0.84098 0.91572 0.0
C173 C 0.21225 0.84924 0.90391 0.0
C174 C 0.21525 0.82043 0.90115 0.0
C175 C 0.21699 0.82649 0.9145 0.0
C176 C 0.21229 0.82871 0.88932 0.0
C177 C 0.20814 0.88754 0.83486 0.0
C178 C 0.22579 0.90541 0.84125 0.0
C179 C 0.21964 0.90111 0.81688 0.0
C180 C 0.21002 0.89074 0.82075 0.0
C181 C 0.22771 0.90858 0.82704 0.0
C182 C 0.21611 0.89494 0.84513 0.0
C183 C 0.19744 0.8768 0.83831 0.0
O184 O 0.1811 0.83815 0.84889 0.0
O185 O 0.16966 0.85328 0.86105 0.0
O186 O 0.19013 0.87888 0.84947 0.0
O187 O 0.20101 0.86372 0.83682 0.0
H188 H 0.16832 0.84014 0.8246 0.0
H189 H 0.14787 0.83521 0.80914 0.0
H190 H 0.1212 0.83559 0.84467 0.0
H191 H 0.14171 0.84006 0.8601 0.0
H192 H 0.21618 0.84602 0.92582 0.0
H193 H 0.21132 0.86041 0.9052 0.0
H194 H 0.21669 0.80934 0.89975 0.0
H195 H 0.21141 0.82374 0.87918 0.0
H196 H 0.23188 0.91089 0.84934 0.0
H197 H 0.2206 0.90342 0.80587 0.0
H198 H 0.2039 0.88527 0.81266 0.0
H199 H 0.21484 0.89267 0.8561 0.0
C200 C 0.16634 0.19922 0.83644 0.0
C201 C 0.15978 0.20756 0.84623 0.0
C202 C 0.14524 0.21812 0.82759 0.0
C203 C 0.14929 0.2169 0.84185 0.0
C204 C 0.15184 0.20963 0.81792 0.0
C205 C 0.16224 0.20034 0.82229 0.0
U206 U 0.19663 0.18402 0.86002 0.0
O207 O 0.20066 0.16187 0.86492 0.0
O208 O 0.21597 0.17428 0.85332 0.0
C209 C 0.21239 0.16187 0.85812 0.0
C210 C 0.17722 0.189 0.84047 0.0
C211 C 0.21462 0.14976 0.84891 0.0
C212 C 0.21711 0.13935 0.82592 0.0
C213 C 0.21367 0.15075 0.83425 0.0
C214 C 0.2221 0.12572 0.84676 0.0
C215 C 0.22161 0.12673 0.83208 0.0
C216 C 0.21867 0.13708 0.85504 0.0
C217 C 0.20892 0.20313 0.89448 0.0
C218 C 0.23145 0.20609 0.90717 0.0
C219 C 0.20991 0.21023 0.91891 0.0
C220 C 0.20216 0.20676 0.90668 0.0
C221 C 0.22467 0.21022 0.91928 0.0
C222 C 0.22366 0.20262 0.89488 0.0
C223 C 0.2003 0.2011 0.88139 0.0
O224 O 0.19034 0.19329 0.83968 0.0
O225 O 0.17499 0.18122 0.85154 0.0
O226 O 0.1912 0.1906 0.88119 0.0
O227 O 0.20656 0.20284 0.86948 0.0
H228 H 0.16277 0.20685 0.85723 0.0
H229 H 0.14451 0.22332 0.84957 0.0
H230 H 0.14886 0.21004 0.80691 0.0
H231 H 0.16706 0.19394 0.81457 0.0
H232 H 0.21667 0.14057 0.81467 0.0
H233 H 0.21057 0.16042 0.82924 0.0
H234 H 0.22525 0.11613 0.85191 0.0
H235 H 0.21946 0.13603 0.86631 0.0
H236 H 0.2428 0.20603 0.90702 0.0
H237 H 0.20428 0.21308 0.92807 0.0
H238 H 0.19082 0.20725 0.90667 0.0
H239 H 0.22919 0.19987 0.88563 0.0
C240 C 0.84371 0.16306 0.84854 0.0
C241 C 0.84962 0.15912 0.83597 0.0
C242 C 0.8329 0.13947 0.8336 0.0
C243 C 0.84427 0.14744 0.82857 0.0
C244 C 0.82717 0.14342 0.8463 0.0
C245 C 0.83252 0.15508 0.85366 0.0
U246 U 0.86852 0.19511 0.85504 0.0
O247 O 0.86311 0.21618 0.86191 0.0
O248 O 0.87706 0.2034 0.87512 0.0
C249 C 0.87013 0.21509 0.87391 0.0
C250 C 0.84876 0.17555 0.85635 0.0
C251 C 0.8629 0.21979 0.88641 0.0
C252 C 0.84355 0.21864 0.90241 0.0
C253 C 0.85038 0.21344 0.89079 0.0
C254 C 0.86177 0.23643 0.90546 0.0
C255 C 0.84908 0.23034 0.90979 0.0
C256 C 0.86856 0.23122 0.89392 0.0
C257 C 0.89859 0.20278 0.82911 0.0
C258 C 0.90997 0.21283 0.80886 0.0
C259 C 0.92269 0.21186 0.83112 0.0
C260 C 0.91092 0.2056 0.8372 0.0
C261 C 0.92245 0.21539 0.8168 0.0
C262 C 0.89824 0.20659 0.81493 0.0
C263 C 0.88643 0.19485 0.83471 0.0
O264 O 0.86108 0.17467 0.86284 0.0
O265 O 0.84696 0.18761 0.85001 0.0
O266 O 0.87414 0.20079 0.83355 0.0
O267 O 0.88838 0.18814 0.84661 0.0
H268 H 0.8583 0.16513 0.83185 0.0
H269 H 0.84909 0.14464 0.81894 0.0
H270 H 0.8183 0.13772 0.85042 0.0
H271 H 0.82777 0.15797 0.86332 0.0
H272 H 0.83378 0.21373 0.90539 0.0
H273 H 0.84582 0.20459 0.88513 0.0
H274 H 0.86652 0.24526 0.911 0.0
H275 H 0.87824 0.23624 0.89077 0.0
H276 H 0.90924 0.21562 0.7979 0.0
H277 H 0.93212 0.21355 0.83757 0.0
H278 H 0.91158 0.20273 0.84815 0.0
H279 H 0.88891 0.20449 0.80842 0.0
C280 C 0.85317 0.89234 0.82369 0.0
C281 C 0.85044 0.90414 0.83179 0.0
C282 C 0.84053 0.91622 0.81123 0.0
C283 C 0.84416 0.91592 0.82564 0.0
C284 C 0.84295 0.90422 0.80329 0.0
C285 C 0.8492 0.89249 0.80943 0.0
U286 U 0.86226 0.86212 0.85007 0.0
O287 O 0.86967 0.84108 0.84525 0.0
O288 O 0.88317 0.85552 0.85761 0.0
C289 C 0.88199 0.84326 0.85152 0.0
C290 C 0.86125 0.88032 0.82934 0.0
C291 C 0.89431 0.83863 0.84402 0.0
C292 C 0.91158 0.84161 0.82608 0.0
C293 C 0.89951 0.84608 0.8326 0.0
C294 C 0.91324 0.82215 0.84222 0.0
C295 C 0.91867 0.82962 0.83087 0.0
C296 C 0.90121 0.82662 0.8487 0.0
C297 C 0.84115 0.85442 0.88289 0.0
C298 C 0.84155 0.83302 0.89682 0.0
C299 C 0.83274 0.85423 0.9066 0.0
C300 C 0.83535 0.86133 0.89412 0.0
C301 C 0.83585 0.83999 0.90816 0.0
C302 C 0.84424 0.84018 0.88432 0.0
C303 C 0.84386 0.86233 0.8699 0.0
O304 O 0.86878 0.88228 0.84097 0.0
O305 O 0.85507 0.86794 0.82868 0.0
O306 O 0.84177 0.85558 0.85805 0.0
O307 O 0.8553 0.87022 0.87014 0.0
H308 H 0.85344 0.90441 0.8428 0.0
H309 H 0.84257 0.92497 0.83209 0.0
H310 H 0.84007 0.9039 0.79226 0.0
H311 H 0.85122 0.88358 0.80292 0.0
H312 H 0.91533 0.84754 0.81727 0.0
H313 H 0.8943 0.85537 0.8288 0.0
H314 H 0.91848 0.81302 0.84636 0.0
H315 H 0.89739 0.82075 0.85754 0.0
H316 H 0.84419 0.8221 0.89769 0.0
H317 H 0.82817 0.85991 0.91501 0.0
H318 H 0.83284 0.87229 0.89325 0.0
H319 H 0.84879 0.83461 0.87583 0.0
C320 C 0.20678 0.65802 0.69281 0.0
C321 C 0.21851 0.65607 0.68467 0.0
C322 C 0.22479 0.6353 0.69834 0.0
C323 C 0.22744 0.64483 0.68741 0.0
C324 C 0.21307 0.63747 0.70654 0.0
C325 C 0.20419 0.64869 0.70379 0.0
U326 U 0.19238 0.68956 0.67158 0.0
O327 O 0.17041 0.69434 0.66608 0.0
O328 O 0.18294 0.70873 0.67944 0.0
C329 C 0.17044 0.70553 0.674 0.0
C330 C 0.1969 0.66945 0.68996 0.0
C331 C 0.15813 0.70725 0.68298 0.0
C332 C 0.14641 0.71996 0.70118 0.0
C333 C 0.15856 0.71699 0.69397 0.0
C334 C 0.13319 0.70332 0.68678 0.0
C335 C 0.13349 0.71339 0.69745 0.0
C336 C 0.14531 0.70033 0.67962 0.0
C337 C 0.21096 0.70183 0.63783 0.0
C338 C 0.21409 0.72432 0.62609 0.0
C339 C 0.21654 0.70289 0.6132 0.0
C340 C 0.21355 0.69515 0.6252 0.0
C341 C 0.2171 0.71759 0.6135 0.0
C342 C 0.21108 0.71653 0.63813 0.0
C343 C 0.20918 0.69314 0.65055 0.0
O344 O 0.20194 0.68225 0.69152 0.0
O345 O 0.18861 0.66799 0.67879 0.0
O346 O 0.1985 0.68424 0.65028 0.0
O347 O 0.21131 0.6992 0.66277 0.0
H348 H 0.22071 0.66317 0.67615 0.0
H349 H 0.23644 0.64364 0.68098 0.0
H350 H 0.21053 0.63029 0.71488 0.0
H351 H 0.19516 0.64998 0.71017 0.0
H352 H 0.14701 0.72785 0.70925 0.0
H353 H 0.16818 0.72268 0.69672 0.0
H354 H 0.12348 0.69791 0.68375 0.0
H355 H 0.14448 0.69288 0.67115 0.0
H356 H 0.21451 0.7356 0.62676 0.0
H357 H 0.21853 0.69732 0.60368 0.0
H358 H 0.21353 0.68385 0.62466 0.0
H359 H 0.20915 0.722 0.64773 0.0
C360 C 0.8369 0.70665 0.6475 0.0
C361 C 0.82236 0.70865 0.64732 0.0
C362 C 0.82275 0.71779 0.6235 0.0
C363 C 0.81538 0.71418 0.63551 0.0
C364 C 0.8374 0.71601 0.6238 0.0
C365 C 0.84439 0.71051 0.63566 0.0
U366 U 0.86568 0.70216 0.67699 0.0
O367 O 0.86298 0.69535 0.69872 0.0
O368 O 0.87515 0.68266 0.68473 0.0
C369 C 0.86954 0.68358 0.69702 0.0
C370 C 0.84366 0.69964 0.65974 0.0
C371 C 0.86236 0.67082 0.70208 0.0
C372 C 0.8414 0.65617 0.70431 0.0
C373 C 0.848 0.66827 0.69921 0.0
C374 C 0.86342 0.64895 0.71509 0.0
C375 C 0.84902 0.64632 0.71232 0.0
C376 C 0.87 0.66106 0.71003 0.0
C377 C 0.89683 0.7286 0.68133 0.0
C378 C 0.91065 0.74863 0.69002 0.0
C379 C 0.92078 0.72568 0.69047 0.0
C380 C 0.90824 0.71999 0.68464 0.0
C381 C 0.9222 0.74011 0.69316 0.0
C382 C 0.89815 0.74294 0.68415 0.0
C383 C 0.8837 0.72312 0.67442 0.0
O384 O 0.85564 0.6935 0.65779 0.0
O385 O 0.8434 0.70622 0.67175 0.0
O386 O 0.87226 0.72393 0.68161 0.0
O387 O 0.88446 0.71131 0.66754 0.0
H388 H 0.81634 0.70574 0.6563 0.0
H389 H 0.80416 0.71563 0.63581 0.0
H390 H 0.84343 0.71854 0.61473 0.0
H391 H 0.85561 0.70905 0.63545 0.0
H392 H 0.83026 0.65463 0.7021 0.0
H393 H 0.8419 0.67566 0.69309 0.0
H394 H 0.8697 0.64155 0.72101 0.0
H395 H 0.8811 0.66281 0.71232 0.0
H396 H 0.91119 0.75972 0.69217 0.0
H397 H 0.92947 0.71879 0.69259 0.0
H398 H 0.90755 0.70888 0.68258 0.0
H399 H 0.88951 0.74981 0.68171 0.0
C400 C 0.83691 0.35343 0.65854 0.0
C401 C 0.84695 0.34533 0.65208 0.0
C402 C 0.82858 0.33411 0.63722 0.0
C403 C 0.84282 0.33578 0.64147 0.0
C404 C 0.81867 0.3424 0.64369 0.0
C405 C 0.82278 0.35188 0.6542 0.0
U406 U 0.8592 0.36927 0.68996 0.0
O407 O 0.86409 0.39153 0.69431 0.0
O408 O 0.85148 0.37923 0.70881 0.0
C409 C 0.8566 0.39163 0.70558 0.0
C410 C 0.84062 0.36385 0.66956 0.0
C411 C 0.84753 0.4039 0.70759 0.0
C412 C 0.84601 0.42893 0.71184 0.0
C413 C 0.85378 0.4173 0.70826 0.0
C414 C 0.82533 0.41415 0.71382 0.0
C415 C 0.83172 0.42753 0.71494 0.0
C416 C 0.83314 0.40247 0.71023 0.0
C417 C 0.89272 0.35062 0.70426 0.0
C418 C 0.90614 0.35577 0.72582 0.0
C419 C 0.91509 0.33945 0.70928 0.0
C420 C 0.90323 0.34147 0.7005 0.0
C421 C 0.91675 0.34655 0.72209 0.0
C422 C 0.89426 0.35778 0.717 0.0
C423 C 0.88026 0.35226 0.69477 0.0
O424 O 0.83902 0.35982 0.68255 0.0
O425 O 0.85198 0.3716 0.66796 0.0
O426 O 0.88071 0.36271 0.68585 0.0
O427 O 0.86792 0.35062 0.70033 0.0
H428 H 0.85794 0.34636 0.65523 0.0
H429 H 0.85073 0.32955 0.63679 0.0
H430 H 0.80766 0.34167 0.64056 0.0
H431 H 0.81486 0.3581 0.65891 0.0
H432 H 0.85128 0.43905 0.71232 0.0
H433 H 0.86485 0.41873 0.70636 0.0
H434 H 0.81441 0.41259 0.71622 0.0
H435 H 0.82799 0.3923 0.7099 0.0
H436 H 0.90693 0.36131 0.73566 0.0
H437 H 0.92307 0.33247 0.70589 0.0
H438 H 0.90227 0.33585 0.6907 0.0
H439 H 0.88626 0.36488 0.72015 0.0
C440 C 0.15673 0.34141 0.70088 0.0
C441 C 0.14649 0.34982 0.70661 0.0
C442 C 0.13192 0.32915 0.7116 0.0
C443 C 0.13423 0.34375 0.71192 0.0
C444 C 0.14238 0.32082 0.70609 0.0
C445 C 0.15459 0.32688 0.7008 0.0
U446 U 0.18732 0.3686 0.69668 0.0
O447 O 0.20928 0.36469 0.69156 0.0
O448 O 0.19591 0.37704 0.67728 0.0
C449 C 0.20827 0.3715 0.67964 0.0
C450 C 0.16938 0.34737 0.69431 0.0
C451 C 0.21513 0.36543 0.66752 0.0
C452 C 0.21501 0.3513 0.64636 0.0
C453 C 0.20839 0.35569 0.65846 0.0
C454 C 0.23516 0.36606 0.65252 0.0
C455 C 0.22835 0.35672 0.64311 0.0
C456 C 0.22864 0.37033 0.66456 0.0
C457 C 0.19221 0.40054 0.72106 0.0
C458 C 0.191 0.42381 0.73111 0.0
C459 C 0.2136 0.41414 0.72651 0.0
C460 C 0.20691 0.40195 0.72128 0.0
C461 C 0.20574 0.42523 0.7316 0.0
C462 C 0.18435 0.41162 0.72593 0.0
C463 C 0.18482 0.38756 0.71622 0.0
O464 O 0.16791 0.35919 0.68742 0.0
O465 O 0.18124 0.34682 0.70169 0.0
O466 O 0.19149 0.37581 0.71825 0.0
O467 O 0.17824 0.38819 0.70395 0.0
H468 H 0.14788 0.36107 0.70679 0.0
H469 H 0.12641 0.35053 0.71598 0.0
H470 H 0.14117 0.30956 0.7059 0.0
H471 H 0.16233 0.32017 0.69647 0.0
H472 H 0.20949 0.34412 0.63929 0.0
H473 H 0.19794 0.35178 0.66055 0.0
H474 H 0.24551 0.37028 0.65044 0.0
H475 H 0.23404 0.37781 0.67142 0.0
H476 H 0.18455 0.43216 0.73465 0.0
H477 H 0.22495 0.41474 0.72682 0.0
H478 H 0.21325 0.39358 0.71756 0.0
H479 H 0.173 0.41081 0.72582 0.0
C480 C 0.15876 0.33767 0.35561 0.0
C481 C 0.15909 0.3389 0.34099 0.0
C482 C 0.13502 0.32972 0.33862 0.0
C483 C 0.14731 0.33498 0.33257 0.0
C484 C 0.13465 0.32897 0.35328 0.0
C485 C 0.14638 0.33287 0.36165 0.0
U486 U 0.19313 0.35762 0.36715 0.0
O487 O 0.20053 0.3633 0.38844 0.0
O488 O 0.21276 0.34898 0.3761 0.0
C489 C 0.21135 0.35502 0.38826 0.0
C490 C 0.17126 0.34049 0.36485 0.0
C491 C 0.21408 0.34628 0.40082 0.0
C492 C 0.20639 0.33351 0.42138 0.0
C493 C 0.20324 0.34083 0.40894 0.0
C494 C 0.23118 0.33669 0.4175 0.0
C495 C 0.22043 0.33155 0.42594 0.0
C496 C 0.22804 0.34397 0.40513 0.0
C497 C 0.20727 0.38874 0.34563 0.0
C498 C 0.22436 0.40643 0.35365 0.0
C499 C 0.21868 0.40407 0.32893 0.0
C500 C 0.20924 0.39313 0.33183 0.0
C501 C 0.22638 0.41091 0.33979 0.0
C502 C 0.21495 0.39544 0.35653 0.0
C503 C 0.197 0.37736 0.34836 0.0
O504 O 0.18355 0.33777 0.3598 0.0
O505 O 0.17129 0.3521 0.37213 0.0
O506 O 0.18926 0.37888 0.35933 0.0
O507 O 0.2015 0.36457 0.34703 0.0
H508 H 0.16852 0.3426 0.33607 0.0
H509 H 0.148 0.33563 0.32132 0.0
H510 H 0.12531 0.32524 0.35833 0.0
H511 H 0.14586 0.33188 0.3729 0.0
H512 H 0.19785 0.32975 0.42762 0.0
H513 H 0.19237 0.34246 0.40582 0.0
H514 H 0.2421 0.33515 0.42049 0.0
H515 H 0.23657 0.34802 0.39902 0.0
H516 H 0.22992 0.41153 0.36232 0.0
H517 H 0.22007 0.40703 0.31814 0.0
H518 H 0.20344 0.38808 0.32326 0.0
H519 H 0.21361 0.39225 0.36727 0.0
C520 C 0.15552 0.69191 0.32304 0.0
C521 C 0.15401 0.70283 0.33256 0.0
C522 C 0.13196 0.70957 0.32069 0.0
C523 C 0.14238 0.71157 0.33139 0.0
C524 C 0.13368 0.6987 0.31109 0.0
C525 C 0.14531 0.68998 0.31227 0.0
U526 U 0.18922 0.67826 0.34155 0.0
O527 O 0.19602 0.65662 0.3449 0.0
O528 O 0.20884 0.67106 0.3326 0.0
C529 C 0.20712 0.65821 0.33723 0.0
C530 C 0.16751 0.68232 0.32426 0.0
C531 C 0.21062 0.64663 0.32769 0.0
C532 C 0.2286 0.63481 0.31491 0.0
C533 C 0.2241 0.64642 0.32226 0.0
C534 C 0.20606 0.6234 0.3178 0.0
C535 C 0.21977 0.623 0.3128 0.0
C536 C 0.20155 0.63504 0.32521 0.0
C537 C 0.20257 0.69703 0.37569 0.0
C538 C 0.22421 0.69259 0.38911 0.0
C539 C 0.20782 0.70925 0.39759 0.0
C540 C 0.19894 0.70666 0.38589 0.0
C541 C 0.2206 0.70226 0.39941 0.0
C542 C 0.21528 0.69 0.37737 0.0
C543 C 0.19291 0.69471 0.36346 0.0
O544 O 0.18001 0.68795 0.3225 0.0
O545 O 0.16733 0.67344 0.33475 0.0
O546 O 0.18519 0.68319 0.36351 0.0
O547 O 0.19791 0.69759 0.35114 0.0
H548 H 0.16178 0.70455 0.34093 0.0
H549 H 0.14158 0.71993 0.33887 0.0
H550 H 0.12586 0.69668 0.30283 0.0
H551 H 0.14626 0.68159 0.30482 0.0
H552 H 0.23914 0.63504 0.31104 0.0
H553 H 0.23136 0.65512 0.32408 0.0
H554 H 0.19898 0.61449 0.31648 0.0
H555 H 0.19113 0.63478 0.32934 0.0
H556 H 0.23401 0.6871 0.39003 0.0
H557 H 0.20453 0.71657 0.40534 0.0
H558 H 0.18916 0.71218 0.38481 0.0
H559 H 0.21831 0.68256 0.3696 0.0
C560 C 0.83631 0.65792 0.34729 0.0
C561 C 0.84467 0.64617 0.3455 0.0
C562 C 0.8243 0.63262 0.33649 0.0
C563 C 0.83873 0.63367 0.34015 0.0
C564 C 0.81608 0.64452 0.338 0.0
C565 C 0.822 0.65697 0.34336 0.0
U566 U 0.86146 0.69039 0.35198 0.0
O567 O 0.85612 0.71165 0.35827 0.0
O568 O 0.87039 0.69937 0.37162 0.0
C569 C 0.86315 0.71085 0.3703 0.0
C570 C 0.84184 0.67084 0.35426 0.0
C571 C 0.85567 0.71525 0.38279 0.0
C572 C 0.83457 0.71624 0.39635 0.0
C573 C 0.8415 0.71165 0.38458 0.0
C574 C 0.8559 0.72797 0.4048 0.0
C575 C 0.84167 0.72448 0.40666 0.0
C576 C 0.86279 0.72341 0.39301 0.0
C577 C 0.89096 0.69706 0.32515 0.0
C578 C 0.90216 0.70564 0.30419 0.0
C579 C 0.91485 0.70674 0.32648 0.0
C580 C 0.9032 0.70078 0.33302 0.0
C581 C 0.91457 0.70907 0.31192 0.0
C582 C 0.89055 0.6997 0.31071 0.0
C583 C 0.87895 0.68941 0.33132 0.0
O584 O 0.85423 0.6703 0.36069 0.0
O585 O 0.83981 0.68266 0.34754 0.0
O586 O 0.86665 0.69535 0.3302 0.0
O587 O 0.88117 0.68315 0.34343 0.0
H588 H 0.85572 0.6465 0.3485 0.0
H589 H 0.84539 0.62472 0.33927 0.0
H590 H 0.80502 0.64424 0.33506 0.0
H591 H 0.8153 0.66583 0.34468 0.0
H592 H 0.82358 0.71348 0.39726 0.0
H593 H 0.83576 0.70537 0.37684 0.0
H594 H 0.86181 0.73407 0.41256 0.0
H595 H 0.87374 0.72629 0.39187 0.0
H596 H 0.9014 0.7075 0.29303 0.0
H597 H 0.92424 0.70913 0.33278 0.0
H598 H 0.90388 0.69882 0.34417 0.0
H599 H 0.88128 0.69691 0.30438 0.0
C600 C 0.86175 0.38563 0.34042 0.0
C601 C 0.84935 0.39017 0.34624 0.0
C602 C 0.84918 0.41064 0.33085 0.0
C603 C 0.84312 0.40254 0.34149 0.0
C604 C 0.86154 0.40589 0.32498 0.0
C605 C 0.86774 0.39353 0.32973 0.0
U606 U 0.86513 0.35361 0.36483 0.0
O607 O 0.87194 0.33237 0.35993 0.0
O608 O 0.88403 0.34504 0.37532 0.0
C609 C 0.88318 0.33331 0.36825 0.0
C610 C 0.86875 0.37286 0.34548 0.0
C611 C 0.89647 0.32815 0.36287 0.0
C612 C 0.91415 0.32669 0.34512 0.0
C613 C 0.90131 0.33179 0.3496 0.0
C614 C 0.91726 0.31424 0.36701 0.0
C615 C 0.92237 0.31799 0.35387 0.0
C616 C 0.90452 0.31928 0.37143 0.0
C617 C 0.83708 0.34759 0.39314 0.0
C618 C 0.81586 0.33882 0.40399 0.0
C619 C 0.83793 0.3391 0.41723 0.0
C620 C 0.8447 0.34472 0.40563 0.0
C621 C 0.82336 0.33623 0.41664 0.0
C622 C 0.82263 0.34445 0.39243 0.0
C623 C 0.84355 0.35492 0.38118 0.0
O624 O 0.87462 0.37356 0.35809 0.0
O625 O 0.86189 0.36101 0.34315 0.0
O626 O 0.84299 0.34845 0.36909 0.0
O627 O 0.85555 0.36159 0.38369 0.0
H628 H 0.84454 0.38419 0.35448 0.0
H629 H 0.83352 0.40574 0.34614 0.0
H630 H 0.86662 0.41189 0.31692 0.0
H631 H 0.87733 0.39022 0.32513 0.0
H632 H 0.91778 0.32983 0.33497 0.0
H633 H 0.89525 0.33863 0.3428 0.0
H634 H 0.92313 0.30736 0.37394 0.0
H635 H 0.90095 0.31624 0.38165 0.0
H636 H 0.80471 0.33652 0.40299 0.0
H637 H 0.84407 0.33739 0.42679 0.0
H638 H 0.85585 0.34708 0.40657 0.0
H639 H 0.81648 0.34661 0.38297 0.0
C640 C 0.70977 0.15053 0.69865 0.0
C641 C 0.70282 0.13763 0.7005 0.0
C642 C 0.72503 0.12617 0.70587 0.0
C643 C 0.71032 0.12563 0.70403 0.0
C644 C 0.73206 0.13902 0.70353 0.0
C645 C 0.72452 0.15107 0.70001 0.0
U646 U 0.69709 0.18505 0.68031 0.0
O647 O 0.67539 0.19224 0.67766 0.0
O648 O 0.69067 0.20449 0.69039 0.0
C649 C 0.6775 0.20295 0.68607 0.0
C650 C 0.70124 0.16329 0.69679 0.0
C651 C 0.66677 0.20511 0.69662 0.0
C652 C 0.65017 0.19624 0.71344 0.0
C653 C 0.66076 0.1939 0.70396 0.0
C654 C 0.65157 0.22102 0.70852 0.0
C655 C 0.64538 0.20984 0.71584 0.0
C656 C 0.66212 0.21866 0.69903 0.0
C657 C 0.71367 0.19844 0.64586 0.0
C658 C 0.71594 0.2013 0.62072 0.0
C659 C 0.71974 0.22122 0.63591 0.0
C660 C 0.71686 0.21276 0.64754 0.0
C661 C 0.71956 0.21554 0.62234 0.0
C662 C 0.71308 0.19288 0.63231 0.0
C663 C 0.71209 0.18879 0.65796 0.0
O664 O 0.70757 0.17549 0.69876 0.0
O665 O 0.69191 0.16333 0.68636 0.0
O666 O 0.70058 0.18101 0.65803 0.0
O667 O 0.716 0.19347 0.67043 0.0
H668 H 0.69148 0.1369 0.6996 0.0
H669 H 0.70454 0.11592 0.70549 0.0
H670 H 0.74336 0.13988 0.70494 0.0
H671 H 0.73022 0.16087 0.69873 0.0
H672 H 0.64558 0.18733 0.71872 0.0
H673 H 0.66414 0.18334 0.70225 0.0
H674 H 0.64838 0.23164 0.71022 0.0
H675 H 0.66661 0.22747 0.69349 0.0
H676 H 0.71543 0.19658 0.61045 0.0
H677 H 0.72258 0.23209 0.63763 0.0
H678 H 0.71746 0.21739 0.65785 0.0
H679 H 0.7107 0.18189 0.63068 0.0
C680 C 0.34091 0.20566 0.66212 0.0
C681 C 0.34824 0.21052 0.65052 0.0
C682 C 0.32633 0.21811 0.63907 0.0
C683 C 0.34102 0.21669 0.63912 0.0
C684 C 0.31913 0.21349 0.65086 0.0
C685 C 0.32633 0.20734 0.66221 0.0
U686 U 0.37083 0.19827 0.68992 0.0
O687 O 0.36877 0.1913 0.71168 0.0
O688 O 0.37867 0.1777 0.69671 0.0
C689 C 0.37371 0.17885 0.70928 0.0
C690 C 0.34786 0.19798 0.67381 0.0
C691 C 0.36543 0.16669 0.7144 0.0
C692 C 0.36418 0.14198 0.72069 0.0
C693 C 0.37167 0.15355 0.71557 0.0
C694 C 0.34407 0.15649 0.72372 0.0
C695 C 0.35026 0.14327 0.72483 0.0
C696 C 0.35153 0.16802 0.71853 0.0
C697 C 0.40424 0.22217 0.69298 0.0
C698 C 0.42741 0.23263 0.68971 0.0
C699 C 0.41984 0.22752 0.71306 0.0
C700 C 0.40703 0.22217 0.7075 0.0
C701 C 0.43017 0.23297 0.70425 0.0
C702 C 0.4146 0.22732 0.68417 0.0
C703 C 0.39042 0.21769 0.68677 0.0
O704 O 0.35916 0.19102 0.671 0.0
O705 O 0.34884 0.20435 0.68595 0.0
O706 O 0.37945 0.21929 0.6945 0.0
O707 O 0.39 0.20589 0.67979 0.0
H708 H 0.35948 0.20933 0.65015 0.0
H709 H 0.34692 0.22001 0.63021 0.0
H710 H 0.30789 0.21463 0.65135 0.0
H711 H 0.32045 0.20366 0.67102 0.0
H712 H 0.36927 0.13198 0.7212 0.0
H713 H 0.38239 0.15224 0.71251 0.0
H714 H 0.33348 0.15801 0.72702 0.0
H715 H 0.3464 0.178 0.71783 0.0
H716 H 0.43515 0.23646 0.68257 0.0
H717 H 0.42149 0.2277 0.72431 0.0
H718 H 0.39922 0.21828 0.71455 0.0
H719 H 0.41271 0.22743 0.67295 0.0
C720 C 0.34786 0.8475 0.64968 0.0
C721 C 0.35582 0.84214 0.63896 0.0
C722 C 0.33456 0.83636 0.62505 0.0
C723 C 0.34928 0.83665 0.6268 0.0
C724 C 0.3266 0.84191 0.63578 0.0
C725 C 0.33317 0.84742 0.64796 0.0
U726 U 0.35393 0.87114 0.68263 0.0
O727 O 0.3325 0.87712 0.68783 0.0
O728 O 0.34564 0.8914 0.6757 0.0
C729 C 0.33381 0.8896 0.68219 0.0
C730 C 0.35519 0.85228 0.66276 0.0
C731 C 0.32877 0.90156 0.69038 0.0
C732 C 0.33184 0.92499 0.70014 0.0
C733 C 0.33734 0.91334 0.69356 0.0
C734 C 0.3092 0.91324 0.70077 0.0
C735 C 0.31762 0.92519 0.70369 0.0
C736 C 0.31469 0.90163 0.69418 0.0
C737 C 0.38568 0.86315 0.70726 0.0
C738 C 0.40137 0.85428 0.72574 0.0
C739 C 0.40612 0.84973 0.70154 0.0
C740 C 0.39411 0.85707 0.69731 0.0
C741 C 0.40993 0.84821 0.71583 0.0
C742 C 0.38941 0.86167 0.72148 0.0
C743 C 0.37313 0.87122 0.70309 0.0
O744 O 0.34867 0.85016 0.67447 0.0
O745 O 0.36178 0.86445 0.66234 0.0
O746 O 0.361 0.86454 0.7038 0.0
O747 O 0.37406 0.87896 0.69178 0.0
H748 H 0.36716 0.84206 0.64006 0.0
H749 H 0.35579 0.83272 0.61872 0.0
H750 H 0.31525 0.84175 0.63491 0.0
H751 H 0.32677 0.85143 0.65609 0.0
H752 H 0.33865 0.93401 0.70208 0.0
H753 H 0.34823 0.91368 0.69072 0.0
H754 H 0.29829 0.91284 0.70356 0.0
H755 H 0.30782 0.89273 0.69183 0.0
H756 H 0.40378 0.85318 0.73681 0.0
H757 H 0.41251 0.8454 0.69357 0.0
H758 H 0.39147 0.85806 0.68626 0.0
H759 H 0.38304 0.86623 0.72935 0.0
C760 C 0.6535 0.82952 0.6881 0.0
C761 C 0.65237 0.81504 0.69022 0.0
C762 C 0.62954 0.81743 0.70071 0.0
C763 C 0.64058 0.80907 0.69646 0.0
C764 C 0.63082 0.83201 0.69879 0.0
C765 C 0.64266 0.83798 0.69258 0.0
U766 U 0.68364 0.85658 0.68258 0.0
O767 O 0.70511 0.85329 0.67567 0.0
O768 O 0.69075 0.86627 0.66304 0.0
C769 C 0.70317 0.86059 0.66412 0.0
C770 C 0.66569 0.83534 0.68059 0.0
C771 C 0.70911 0.85523 0.65111 0.0
C772 C 0.71964 0.8369 0.63748 0.0
C773 C 0.71222 0.84107 0.64917 0.0
C774 C 0.72051 0.86085 0.62938 0.0
C775 C 0.72421 0.84684 0.62766 0.0
C776 C 0.71306 0.86497 0.64092 0.0
C777 C 0.68783 0.88738 0.70934 0.0
C778 C 0.70781 0.90192 0.71744 0.0
C779 C 0.68421 0.90855 0.72259 0.0
C780 C 0.67884 0.89686 0.71536 0.0
C781 C 0.69877 0.91108 0.72402 0.0
C782 C 0.70239 0.89012 0.71021 0.0
C783 C 0.6816 0.87433 0.70331 0.0
O784 O 0.6639 0.84728 0.674 0.0
O785 O 0.67803 0.83455 0.68707 0.0
O786 O 0.68915 0.86301 0.70417 0.0
O787 O 0.67448 0.87546 0.69137 0.0
H788 H 0.66057 0.80827 0.68689 0.0
H789 H 0.64017 0.79786 0.69798 0.0
H790 H 0.62252 0.83881 0.70178 0.0
H791 H 0.64321 0.84919 0.69109 0.0
H792 H 0.72236 0.82604 0.63647 0.0
H793 H 0.70933 0.83333 0.65687 0.0
H794 H 0.7237 0.86874 0.62193 0.0
H795 H 0.71083 0.87593 0.64216 0.0
H796 H 0.71907 0.90356 0.71837 0.0
H797 H 0.67693 0.91549 0.72731 0.0
H798 H 0.66759 0.89501 0.71481 0.0
H799 H 0.70958 0.88296 0.70564 0.0
C800 C 0.64904 0.83769 0.3403 0.0
C801 C 0.65072 0.8356 0.32592 0.0
C802 C 0.6257 0.82998 0.32254 0.0
C803 C 0.63917 0.83181 0.31713 0.0
C804 C 0.62404 0.83251 0.33684 0.0
C805 C 0.63555 0.83626 0.34559 0.0
U806 U 0.68205 0.85812 0.35513 0.0
O807 O 0.68757 0.86296 0.37717 0.0
O808 O 0.70137 0.84992 0.3651 0.0
C809 C 0.69875 0.85517 0.37739 0.0
C810 C 0.66112 0.84027 0.35025 0.0
C811 C 0.70101 0.84611 0.38985 0.0
C812 C 0.70616 0.84454 0.41491 0.0
C813 C 0.70245 0.8524 0.40305 0.0
C814 C 0.70667 0.82372 0.40074 0.0
C815 C 0.70861 0.83015 0.4139 0.0
C816 C 0.70295 0.83162 0.38883 0.0
C817 C 0.69534 0.89208 0.33694 0.0
C818 C 0.71252 0.90529 0.32359 0.0
C819 C 0.70142 0.91626 0.3429 0.0
C820 C 0.69386 0.90387 0.34545 0.0
C821 C 0.71064 0.91723 0.33177 0.0
C822 C 0.7049 0.8929 0.3261 0.0
C823 C 0.68599 0.87953 0.33828 0.0
O824 O 0.67382 0.83853 0.3457 0.0
O825 O 0.66027 0.85114 0.35848 0.0
O826 O 0.67713 0.87951 0.34848 0.0
O827 O 0.69158 0.86727 0.33639 0.0
H828 H 0.66099 0.83657 0.32151 0.0
H829 H 0.64088 0.82986 0.3062 0.0
H830 H 0.61382 0.83146 0.34136 0.0
H831 H 0.63393 0.83777 0.35662 0.0
H832 H 0.7073 0.84982 0.42487 0.0
H833 H 0.70105 0.86354 0.40414 0.0
H834 H 0.70855 0.81269 0.39954 0.0
H835 H 0.70196 0.82645 0.3788 0.0
H836 H 0.71943 0.90569 0.31486 0.0
H837 H 0.69985 0.92519 0.34952 0.0
H838 H 0.68658 0.9037 0.35387 0.0
H839 H 0.70616 0.88408 0.31924 0.0
C840 C 0.65468 0.19249 0.32555 0.0
C841 C 0.64423 0.1951 0.33515 0.0
C842 C 0.62929 0.20541 0.31668 0.0
C843 C 0.63169 0.20148 0.33075 0.0
C844 C 0.63999 0.20317 0.30723 0.0
C845 C 0.65248 0.19676 0.31162 0.0
U846 U 0.68751 0.18203 0.34871 0.0
O847 O 0.6947 0.16082 0.35364 0.0
O848 O 0.70802 0.17508 0.3417 0.0
C849 C 0.70624 0.16237 0.34664 0.0
C850 C 0.6673 0.18424 0.32937 0.0
C851 C 0.70975 0.15076 0.33732 0.0
C852 C 0.70333 0.13284 0.32008 0.0
C853 C 0.69972 0.14433 0.32822 0.0
C854 C 0.72705 0.13428 0.32986 0.0
C855 C 0.71703 0.12755 0.32093 0.0
C856 C 0.72344 0.14571 0.33795 0.0
C857 C 0.69692 0.20258 0.38318 0.0
C858 C 0.7171 0.19992 0.39934 0.0
C859 C 0.69836 0.21525 0.40518 0.0
C860 C 0.69129 0.21199 0.39254 0.0
C861 C 0.71128 0.20917 0.40889 0.0
C862 C 0.70995 0.19661 0.38661 0.0
C863 C 0.68877 0.19935 0.37009 0.0
O864 O 0.67959 0.1906 0.32852 0.0
O865 O 0.66653 0.17593 0.34029 0.0
O866 O 0.68131 0.18765 0.3699 0.0
O867 O 0.69493 0.20189 0.35826 0.0
H868 H 0.6456 0.19195 0.34598 0.0
H869 H 0.62382 0.20323 0.33839 0.0
H870 H 0.63852 0.20589 0.2963 0.0
H871 H 0.66031 0.19477 0.30398 0.0
H872 H 0.69532 0.1279 0.31339 0.0
H873 H 0.68907 0.14805 0.32755 0.0
H874 H 0.73776 0.13074 0.33061 0.0
H875 H 0.73137 0.15054 0.34484 0.0
H876 H 0.727 0.195 0.40186 0.0
H877 H 0.69365 0.22261 0.41208 0.0
H878 H 0.68132 0.21681 0.39008 0.0
H879 H 0.7145 0.18933 0.37952 0.0
C880 C 0.33545 0.15818 0.36211 0.0
C881 C 0.34139 0.15475 0.34941 0.0
C882 C 0.32454 0.13528 0.34615 0.0
C883 C 0.33598 0.14342 0.3415 0.0
C884 C 0.3188 0.13872 0.359 0.0
C885 C 0.32419 0.15003 0.36686 0.0
U886 U 0.36134 0.18887 0.37149 0.0
O887 O 0.35662 0.20986 0.37902 0.0
O888 O 0.369 0.19574 0.39242 0.0
C889 C 0.36279 0.20784 0.39134 0.0
C890 C 0.34058 0.17026 0.37053 0.0
C891 C 0.35513 0.21239 0.40362 0.0
C892 C 0.33353 0.21602 0.41579 0.0
C893 C 0.3405 0.21088 0.40428 0.0
C894 C 0.35573 0.22403 0.42619 0.0
C895 C 0.34105 0.22274 0.42688 0.0
C896 C 0.36267 0.21893 0.41469 0.0
C897 C 0.3942 0.19709 0.35021 0.0
C898 C 0.40736 0.21253 0.33484 0.0
C899 C 0.41887 0.20278 0.35546 0.0
C900 C 0.40636 0.19589 0.35886 0.0
C901 C 0.4196 0.21107 0.34332 0.0
C902 C 0.39485 0.20556 0.33821 0.0
C903 C 0.38113 0.18893 0.35304 0.0
O904 O 0.35231 0.16856 0.3779 0.0
O905 O 0.3399 0.18258 0.36445 0.0
O906 O 0.36921 0.19542 0.35103 0.0
O907 O 0.38132 0.18098 0.36428 0.0
H908 H 0.35013 0.16087 0.34558 0.0
H909 H 0.34081 0.141 0.33177 0.0
H910 H 0.30989 0.13287 0.36285 0.0
H911 H 0.31944 0.15252 0.37663 0.0
H912 H 0.32221 0.21494 0.41586 0.0
H913 H 0.33445 0.20589 0.39584 0.0
H914 H 0.36192 0.22891 0.4346 0.0
H915 H 0.37397 0.22019 0.4144 0.0
H916 H 0.40756 0.21869 0.32534 0.0
H917 H 0.42804 0.20156 0.36232 0.0
H918 H 0.40631 0.18945 0.36818 0.0
H919 H 0.38572 0.20658 0.33125 0.0
C920 C 0.34953 0.88934 0.32672 0.0
C921 C 0.34545 0.90014 0.33551 0.0
C922 C 0.33806 0.9142 0.31525 0.0
C923 C 0.33977 0.91243 0.32983 0.0
C924 C 0.34186 0.90319 0.30655 0.0
C925 C 0.34754 0.89096 0.31222 0.0
U926 U 0.35524 0.85798 0.35231 0.0
O927 O 0.36153 0.83662 0.34734 0.0
O928 O 0.37529 0.84982 0.36077 0.0
C929 C 0.37378 0.83795 0.35399 0.0
C930 C 0.35671 0.87673 0.33217 0.0
C931 C 0.38613 0.83335 0.3464 0.0
C932 C 0.39966 0.83212 0.32535 0.0
C933 C 0.38796 0.83683 0.33232 0.0
C934 C 0.40792 0.82048 0.34645 0.0
C935 C 0.40984 0.82388 0.33231 0.0
C936 C 0.39621 0.82516 0.35338 0.0
C937 C 0.32989 0.85237 0.38315 0.0
C938 C 0.31779 0.8542 0.40504 0.0
C939 C 0.32338 0.83143 0.39622 0.0
C940 C 0.32964 0.83776 0.38465 0.0
C941 C 0.3172 0.83957 0.4065 0.0
C942 C 0.32404 0.86049 0.39353 0.0
C943 C 0.33532 0.85948 0.3706 0.0
O944 O 0.36365 0.87788 0.34424 0.0
O945 O 0.34984 0.86475 0.33074 0.0
O946 O 0.33377 0.85283 0.35864 0.0
O947 O 0.34749 0.86609 0.3721 0.0
H948 H 0.34688 0.89921 0.34674 0.0
H949 H 0.33707 0.92069 0.33688 0.0
H950 H 0.34047 0.904 0.29531 0.0
H951 H 0.3506 0.88279 0.30522 0.0
H952 H 0.40063 0.83482 0.31443 0.0
H953 H 0.38031 0.84313 0.32669 0.0
H954 H 0.41559 0.81437 0.35226 0.0
H955 H 0.39504 0.82238 0.36427 0.0
H956 H 0.31342 0.86085 0.41283 0.0
H957 H 0.32306 0.82014 0.39691 0.0
H958 H 0.33406 0.83123 0.37679 0.0
H959 H 0.3241 0.87177 0.39261 0.0
C960 C 0.69871 0.65222 0.2059 0.0
C961 C 0.71207 0.65045 0.20053 0.0
C962 C 0.71355 0.62738 0.21144 0.0
C963 C 0.71946 0.63814 0.20332 0.0
C964 C 0.70021 0.62934 0.21686 0.0
C965 C 0.6929 0.64161 0.21412 0.0
U966 U 0.6898 0.68616 0.18564 0.0
O967 O 0.66899 0.69411 0.17948 0.0
O968 O 0.6827 0.70618 0.19398 0.0
C969 C 0.67012 0.70482 0.18803 0.0
C970 C 0.69052 0.66492 0.20316 0.0
C971 C 0.65816 0.70681 0.19726 0.0
C972 C 0.64071 0.69756 0.21301 0.0
C973 C 0.65212 0.69553 0.20445 0.0
C974 C 0.64123 0.72221 0.20742 0.0
C975 C 0.6351 0.71094 0.21468 0.0
C976 C 0.65261 0.72015 0.19881 0.0
C977 C 0.7136 0.69601 0.15418 0.0
C978 C 0.7174 0.71797 0.14182 0.0
C979 C 0.72735 0.69676 0.13322 0.0
C980 C 0.72145 0.68926 0.1442 0.0
C981 C 0.72555 0.71126 0.13192 0.0
C982 C 0.71149 0.71042 0.15285 0.0
C983 C 0.70865 0.68774 0.16619 0.0
O984 O 0.69699 0.67694 0.20567 0.0
O985 O 0.68277 0.66496 0.19155 0.0
O986 O 0.69658 0.68098 0.1645 0.0
O987 O 0.71052 0.69328 0.17868 0.0
H988 H 0.71674 0.65853 0.19413 0.0
H989 H 0.72966 0.63694 0.19891 0.0
H990 H 0.69542 0.62142 0.22335 0.0
H991 H 0.68264 0.6428 0.21843 0.0
H992 H 0.6362 0.68856 0.21821 0.0
H993 H 0.6562 0.68512 0.20342 0.0
H994 H 0.63739 0.73269 0.20854 0.0
H995 H 0.65712 0.72902 0.19339 0.0
H996 H 0.71561 0.72908 0.14107 0.0
H997 H 0.73371 0.69122 0.12602 0.0
H998 H 0.7233 0.67816 0.14508 0.0
H999 H 0.70546 0.71585 0.16043 0.0
C1000 C 0.33389 0.68984 0.14625 0.0
C1001 C 0.31929 0.69136 0.14523 0.0
C1002 C 0.32087 0.70162 0.12192 0.0
C1003 C 0.31286 0.6972 0.13325 0.0
C1004 C 0.33556 0.70027 0.12307 0.0
C1005 C 0.342 0.69447 0.1351 0.0
U1006 U 0.36176 0.68571 0.17646 0.0
O1007 O 0.35878 0.67888 0.19816 0.0
O1008 O 0.37174 0.66656 0.18449 0.0
C1009 C 0.36614 0.66753 0.19678 0.0
C1010 C 0.34019 0.68276 0.15871 0.0
C1011 C 0.36071 0.65442 0.20308 0.0
C1012 C 0.34208 0.64017 0.21317 0.0
C1013 C 0.3464 0.65199 0.20553 0.0
C1014 C 0.3662 0.63294 0.21557 0.0
C1015 C 0.35201 0.63072 0.21861 0.0
C1016 C 0.37048 0.64462 0.20791 0.0
C1017 C 0.39255 0.7126 0.18075 0.0
C1018 C 0.40696 0.71844 0.20154 0.0
C1019 C 0.41497 0.72497 0.17868 0.0
C1020 C 0.4028 0.71889 0.17251 0.0
C1021 C 0.4172 0.72495 0.1933 0.0
C1022 C 0.39478 0.71232 0.19534 0.0
C1023 C 0.37951 0.70691 0.17386 0.0
O1024 O 0.35228 0.67669 0.15716 0.0
O1025 O 0.33951 0.68933 0.17068 0.0
O1026 O 0.36796 0.70754 0.18092 0.0
O1027 O 0.38061 0.69506 0.16715 0.0
H1028 H 0.31279 0.68789 0.15368 0.0
H1029 H 0.30158 0.69829 0.13292 0.0
H1030 H 0.3421 0.70341 0.11455 0.0
H1031 H 0.35329 0.69342 0.13557 0.0
H1032 H 0.33108 0.63877 0.21537 0.0
H1033 H 0.33864 0.65939 0.20192 0.0
H1034 H 0.3741 0.62577 0.21942 0.0
H1035 H 0.38156 0.64625 0.20617 0.0
H1036 H 0.4082 0.71833 0.21282 0.0
H1037 H 0.42267 0.72961 0.17195 0.0
H1038 H 0.40133 0.71921 0.16124 0.0
H1039 H 0.38705 0.70753 0.20195 0.0
C1040 C 0.34071 0.34178 0.15665 0.0
C1041 C 0.32665 0.3383 0.15331 0.0
C1042 C 0.33344 0.32497 0.13303 0.0
C1043 C 0.32305 0.32999 0.14169 0.0
C1044 C 0.34761 0.32814 0.13663 0.0
C1045 C 0.35121 0.33648 0.14831 0.0
U1046 U 0.36258 0.35509 0.18909 0.0
O1047 O 0.36759 0.37676 0.19551 0.0
O1048 O 0.35499 0.36325 0.20894 0.0
C1049 C 0.36003 0.37591 0.20672 0.0
C1050 C 0.34391 0.35146 0.16844 0.0
C1051 C 0.35064 0.38774 0.20962 0.0
C1052 C 0.33783 0.40086 0.22668 0.0
C1053 C 0.34565 0.38924 0.22314 0.0
C1054 C 0.33952 0.40974 0.20313 0.0
C1055 C 0.3348 0.41142 0.21681 0.0
C1056 C 0.34736 0.39806 0.19959 0.0
C1057 C 0.39595 0.33326 0.20023 0.0
C1058 C 0.42026 0.33737 0.20829 0.0
C1059 C 0.40949 0.31452 0.21116 0.0
C1060 C 0.39696 0.31941 0.20502 0.0
C1061 C 0.42143 0.32334 0.21267 0.0
C1062 C 0.4077 0.34226 0.20212 0.0
C1063 C 0.38325 0.33728 0.19182 0.0
O1064 O 0.3423 0.34636 0.18106 0.0
O1065 O 0.35512 0.35959 0.16756 0.0
O1066 O 0.38392 0.34872 0.1842 0.0
O1067 O 0.371 0.3353 0.19746 0.0
H1068 H 0.31836 0.3422 0.1596 0.0
H1069 H 0.31206 0.32756 0.13945 0.0
H1070 H 0.35589 0.32454 0.13018 0.0
H1071 H 0.36216 0.33898 0.15067 0.0
H1072 H 0.3342 0.40158 0.23724 0.0
H1073 H 0.34803 0.38149 0.23111 0.0
H1074 H 0.33753 0.41766 0.19525 0.0
H1075 H 0.35108 0.39729 0.18907 0.0
H1076 H 0.42912 0.34457 0.20947 0.0
H1077 H 0.40995 0.30363 0.21419 0.0
H1078 H 0.38817 0.31217 0.20352 0.0
H1079 H 0.40731 0.35298 0.1985 0.0
C1080 C 0.65891 0.34216 0.19946 0.0
C1081 C 0.65795 0.34563 0.21364 0.0
C1082 C 0.63378 0.33665 0.21359 0.0
C1083 C 0.64551 0.34283 0.22066 0.0
C1084 C 0.63487 0.33318 0.1994 0.0
C1085 C 0.64728 0.3359 0.19244 0.0
U1086 U 0.69322 0.36266 0.19236 0.0
O1087 O 0.7136 0.35489 0.186 0.0
O1088 O 0.7018 0.36903 0.17215 0.0
C1089 C 0.71267 0.36087 0.17362 0.0
C1090 C 0.67182 0.34487 0.19169 0.0
C1091 C 0.71548 0.35193 0.16148 0.0
C1092 C 0.71313 0.32985 0.149 0.0
C1093 C 0.71046 0.33807 0.16066 0.0
C1094 C 0.72591 0.34918 0.13877 0.0
C1095 C 0.72078 0.33532 0.1378 0.0
C1096 C 0.72328 0.35738 0.15047 0.0
C1097 C 0.70287 0.39411 0.21741 0.0
C1098 C 0.71219 0.41793 0.21543 0.0
C1099 C 0.71287 0.40624 0.23787 0.0
C1100 C 0.70661 0.39434 0.23172 0.0
C1101 C 0.71552 0.41831 0.22988 0.0
C1102 C 0.70589 0.40598 0.20926 0.0
C1103 C 0.69445 0.38205 0.21181 0.0
O1104 O 0.67209 0.35644 0.18428 0.0
O1105 O 0.6838 0.34244 0.19838 0.0
O1106 O 0.69973 0.36957 0.21362 0.0
O1107 O 0.68785 0.38358 0.19963 0.0
H1108 H 0.66679 0.35052 0.21926 0.0
H1109 H 0.645 0.34574 0.23154 0.0
H1110 H 0.62615 0.32822 0.19367 0.0
H1111 H 0.64781 0.33309 0.18153 0.0
H1112 H 0.70918 0.31917 0.14879 0.0
H1113 H 0.70443 0.3336 0.16901 0.0
H1114 H 0.73167 0.35385 0.13034 0.0
H1115 H 0.72725 0.36805 0.15087 0.0
H1116 H 0.71399 0.42704 0.20895 0.0
H1117 H 0.71552 0.40603 0.24896 0.0
H1118 H 0.70431 0.38539 0.23827 0.0
H1119 H 0.70305 0.4062 0.19822 0.0
C1120 C 0.66693 0.34409 0.84409 0.0
C1121 C 0.66745 0.34404 0.82942 0.0
C1122 C 0.64304 0.33575 0.82739 0.0
C1123 C 0.65562 0.33993 0.82117 0.0
C1124 C 0.64249 0.33625 0.84206 0.0
C1125 C 0.65428 0.34032 0.85027 0.0
U1126 U 0.70025 0.36542 0.85647 0.0
O1127 O 0.70764 0.37023 0.87799 0.0
O1128 O 0.72061 0.35772 0.86456 0.0
C1129 C 0.71909 0.36293 0.87707 0.0
C1130 C 0.6795 0.34705 0.85327 0.0
C1131 C 0.7226 0.35368 0.889 0.0
C1132 C 0.71661 0.33534 0.90556 0.0
C1133 C 0.71297 0.34375 0.894 0.0
C1134 C 0.73954 0.34665 0.90717 0.0
C1135 C 0.72995 0.3367 0.91232 0.0
C1136 C 0.73588 0.35503 0.89566 0.0
C1137 C 0.71205 0.39887 0.8377 0.0
C1138 C 0.73279 0.41245 0.8452 0.0
C1139 C 0.71808 0.42058 0.82584 0.0
C1140 C 0.70923 0.40885 0.82728 0.0
C1141 C 0.72995 0.42259 0.83482 0.0
C1142 C 0.72392 0.40071 0.84663 0.0
C1143 C 0.70242 0.38675 0.83921 0.0
O1144 O 0.69186 0.34556 0.84785 0.0
O1145 O 0.67895 0.35799 0.86146 0.0
O1146 O 0.6947 0.38684 0.8503 0.0
O1147 O 0.70775 0.37447 0.83684 0.0
H1148 H 0.67707 0.34689 0.82434 0.0
H1149 H 0.65649 0.3396 0.80993 0.0
H1150 H 0.63294 0.33338 0.84724 0.0
H1151 H 0.65359 0.34027 0.86154 0.0
H1152 H 0.7089 0.3279 0.9093 0.0
H1153 H 0.70264 0.34256 0.88903 0.0
H1154 H 0.74996 0.34786 0.91191 0.0
H1155 H 0.74348 0.36262 0.89193 0.0
H1156 H 0.74192 0.41353 0.85219 0.0
H1157 H 0.71543 0.42823 0.81787 0.0
H1158 H 0.70009 0.40764 0.82032 0.0
H1159 H 0.72629 0.3931 0.85472 0.0
C1160 C 0.66124 0.70381 0.83203 0.0
C1161 C 0.65633 0.71142 0.84328 0.0
C1162 C 0.63862 0.72233 0.82795 0.0
C1163 C 0.64511 0.72054 0.84128 0.0
C1164 C 0.64362 0.71463 0.81672 0.0
C1165 C 0.6548 0.70548 0.81875 0.0
U1166 U 0.69416 0.69147 0.8522 0.0
O1167 O 0.70133 0.67019 0.85701 0.0
O1168 O 0.71429 0.68423 0.84444 0.0
C1169 C 0.71253 0.67153 0.84945 0.0
C1170 C 0.67311 0.69419 0.83393 0.0
C1171 C 0.71584 0.65975 0.84008 0.0
C1172 C 0.7335 0.64712 0.82763 0.0
C1173 C 0.72955 0.6587 0.83537 0.0
C1174 C 0.70999 0.63741 0.82882 0.0
C1175 C 0.72386 0.63617 0.8244 0.0
C1176 C 0.70603 0.64903 0.83659 0.0
C1177 C 0.70439 0.71423 0.88565 0.0
C1178 C 0.71161 0.71127 0.91018 0.0
C1179 C 0.71453 0.7338 0.89909 0.0
C1180 C 0.70894 0.72826 0.88652 0.0
C1181 C 0.71568 0.72548 0.9112 0.0
C1182 C 0.70599 0.70572 0.89758 0.0
C1183 C 0.69627 0.70953 0.87291 0.0
O1184 O 0.68563 0.69975 0.83219 0.0
O1185 O 0.67268 0.68581 0.84482 0.0
O1186 O 0.68906 0.69771 0.87351 0.0
O1187 O 0.70194 0.71168 0.86076 0.0
H1188 H 0.66115 0.71032 0.85363 0.0
H1189 H 0.64147 0.72609 0.85023 0.0
H1190 H 0.63907 0.71585 0.80627 0.0
H1191 H 0.65847 0.69975 0.80991 0.0
H1192 H 0.74419 0.64675 0.82423 0.0
H1193 H 0.73734 0.66676 0.83792 0.0
H1194 H 0.70227 0.62918 0.82665 0.0
H1195 H 0.69538 0.64947 0.84009 0.0
H1196 H 0.71254 0.70444 0.91919 0.0
H1197 H 0.71736 0.74481 0.89943 0.0
H1198 H 0.70764 0.73514 0.87757 0.0
H1199 H 0.70252 0.69488 0.89731 0.0
C1200 C 0.33982 0.66056 0.8441 0.0
C1201 C 0.34797 0.64934 0.83993 0.0
C1202 C 0.32685 0.63631 0.83196 0.0
C1203 C 0.34156 0.63736 0.8339 0.0
C1204 C 0.31881 0.64773 0.83584 0.0
C1205 C 0.32521 0.65966 0.84185 0.0
U1206 U 0.3664 0.69168 0.85077 0.0
O1207 O 0.36179 0.71272 0.85837 0.0
O1208 O 0.37549 0.69914 0.87096 0.0
C1209 C 0.36876 0.71098 0.87032 0.0
C1210 C 0.34596 0.67281 0.85176 0.0
C1211 C 0.36141 0.7149 0.88303 0.0
C1212 C 0.34147 0.71302 0.89817 0.0
C1213 C 0.34823 0.7091 0.88605 0.0
C1214 C 0.36096 0.72859 0.90441 0.0
C1215 C 0.34776 0.72279 0.90757 0.0
C1216 C 0.36769 0.72468 0.89229 0.0
C1217 C 0.3964 0.69875 0.82459 0.0
C1218 C 0.41952 0.71 0.82737 0.0
C1219 C 0.40946 0.70575 0.8042 0.0
C1220 C 0.39747 0.69983 0.81005 0.0
C1221 C 0.42076 0.71076 0.81275 0.0
C1222 C 0.40748 0.70402 0.83323 0.0
C1223 C 0.38402 0.69126 0.83019 0.0
O1224 O 0.35829 0.67135 0.85812 0.0
O1225 O 0.34449 0.68507 0.84574 0.0
O1226 O 0.37202 0.69778 0.82938 0.0
O1227 O 0.38589 0.68426 0.84193 0.0
H1228 H 0.35927 0.64969 0.84157 0.0
H1229 H 0.3481 0.62876 0.83114 0.0
H1230 H 0.30751 0.64747 0.83429 0.0
H1231 H 0.31867 0.66813 0.84499 0.0
H1232 H 0.33124 0.70845 0.9001 0.0
H1233 H 0.34316 0.70156 0.87903 0.0
H1234 H 0.36625 0.73597 0.91143 0.0
H1235 H 0.37787 0.72927 0.89017 0.0
H1236 H 0.42802 0.71367 0.8343 0.0
H1237 H 0.40986 0.70639 0.79293 0.0
H1238 H 0.38908 0.69585 0.80315 0.0
H1239 H 0.40695 0.70331 0.84449 0.0
C1240 C 0.36449 0.39151 0.8341 0.0
C1241 C 0.352 0.3953 0.84025 0.0
C1242 C 0.34907 0.41446 0.82348 0.0
C1243 C 0.34437 0.40666 0.83499 0.0
C1244 C 0.36174 0.41069 0.81752 0.0
C1245 C 0.36933 0.39934 0.82278 0.0
U1246 U 0.37113 0.36045 0.85912 0.0
O1247 O 0.37739 0.33907 0.8542 0.0
O1248 O 0.39121 0.35233 0.8675 0.0
C1249 C 0.38962 0.34039 0.86086 0.0
C1250 C 0.37244 0.37925 0.83903 0.0
C1251 C 0.40184 0.33562 0.85324 0.0
C1252 C 0.41752 0.33729 0.83376 0.0
C1253 C 0.4062 0.34238 0.84107 0.0
C1254 C 0.42036 0.31875 0.85082 0.0
C1255 C 0.4247 0.32533 0.83848 0.0
C1256 C 0.40906 0.32385 0.85809 0.0
C1257 C 0.34587 0.35387 0.88942 0.0
C1258 C 0.34677 0.33422 0.9056 0.0
C1259 C 0.32859 0.35131 0.90742 0.0
C1260 C 0.33408 0.35869 0.89613 0.0
C1261 C 0.33479 0.33891 0.91228 0.0
C1262 C 0.35225 0.34163 0.89428 0.0
C1263 C 0.35102 0.36165 0.87722 0.0
O1264 O 0.37924 0.38056 0.85114 0.0
O1265 O 0.36592 0.3671 0.83756 0.0
O1266 O 0.34958 0.35524 0.86513 0.0
O1267 O 0.36319 0.36821 0.87893 0.0
H1268 H 0.3481 0.38941 0.84903 0.0
H1269 H 0.33478 0.40935 0.83998 0.0
H1270 H 0.36561 0.41629 0.80855 0.0
H1271 H 0.37894 0.39656 0.81785 0.0
H1272 H 0.42066 0.34276 0.82442 0.0
H1273 H 0.40079 0.35152 0.83717 0.0
H1274 H 0.42546 0.30943 0.85469 0.0
H1275 H 0.40583 0.31845 0.86745 0.0
H1276 H 0.35195 0.32482 0.90914 0.0
H1277 H 0.31927 0.35517 0.91211 0.0
H1278 H 0.32897 0.3681 0.89251 0.0
H1279 H 0.36139 0.33775 0.88926 0.0
Cu1280 Cu 0.27463 0.27467 0.02443 0.0
N1281 N 0.27747 0.28983 1.0122 0.0
N1282 N 0.28605 0.30137 0.99381 0.0
C1283 C 0.28586 0.28931 1.0012 0.0
C1284 C 0.27742 0.30988 1.00055 0.0
C1285 C 0.27212 0.30273 1.01185 0.0
O1286 O 0.27289 0.25833 1.01203 0.0
C1287 C 0.28886 0.28664 0.04646 0.0
O1288 O 0.27896 0.29552 0.04313 0.0
H1289 H 0.29178 0.28018 0.99874 0.0
H1290 H 0.26484 0.30665 0.01922 0.0
N1291 N 0.25796 0.2753 0.03435 0.0
N1292 N 0.24284 0.27043 0.05124 0.0
C1293 C 0.25561 0.26798 0.04614 0.0
C1294 C 0.24629 0.28266 0.03183 0.0
C1295 C 0.23696 0.27968 0.04219 0.0
C1296 C 0.26268 0.25949 1.0031 0.0
O1297 O 0.2549 0.27061 1.00377 0.0
H1298 H 0.26329 0.26117 0.05098 0.0
H1299 H 0.24463 0.28967 0.02307 0.0
O1300 O 0.2897 0.27567 0.03898 0.0
H1301 H 0.27487 0.32042 0.9974 0.0
H1302 H 0.22659 0.28392 0.04285 0.0
Cu1303 Cu 0.77317 0.27276 0.02254 0.0
N1304 N 0.7589 0.28336 0.03231 0.0
N1305 N 0.74611 0.29253 0.04909 0.0
C1306 C 0.75876 0.2875 0.04584 0.0
C1307 C 0.73813 0.29161 0.0372 0.0
C1308 C 0.74598 0.28596 0.02696 0.0
O1309 O 0.78 0.26468 0.04141 0.0
C1310 C 0.76695 0.2925 0.99918 0.0
O1311 O 0.77398 0.30172 1.00692 0.0
H1312 H 0.76737 0.28609 0.05334 0.0
H1313 H 0.74224 0.28328 0.0165 0.0
N1314 N 0.78688 0.26169 1.01255 0.0
N1315 N 0.8003 0.25404 0.99544 0.0
C1316 C 0.79305 0.26489 1.00041 0.0
C1317 C 0.79033 0.24839 1.01535 0.0
C1318 C 0.79864 0.2437 1.00492 0.0
C1319 C 0.79252 0.26493 0.04655 0.0
O1320 O 0.80266 0.27065 0.03941 0.0
H1321 H 0.7917 0.27474 0.99503 0.0
H1322 H 0.78669 0.24237 0.02413 0.0
O1323 O 0.76551 0.28002 1.00364 0.0
H1324 H 0.72719 0.29436 0.03613 0.0
H1325 H 0.80294 0.23337 1.00433 0.0
Cu1326 Cu 0.7777 0.77444 0.01606 0.0
N1327 N 0.79251 0.77324 1.00371 0.0
N1328 N 0.80634 0.7812 0.98681 0.0
C1329 C 0.79934 0.78442 0.99837 0.0
C1330 C 0.80403 0.76736 0.98497 0.0
C1331 C 0.79549 0.7625 0.99537 0.0
O1332 O 0.76043 0.7728 1.00431 0.0
C1333 C 0.77498 0.79674 0.0368 0.0
O1334 O 0.7625 0.79171 0.03968 0.0
H1335 H 0.79793 0.79497 1.002 0.0
H1336 H 0.79082 0.75216 0.99603 0.0
N1337 N 0.77715 0.75935 0.02877 0.0
N1338 N 0.77141 0.74714 0.04795 0.0
C1339 C 0.77391 0.75993 0.04238 0.0
C1340 C 0.77686 0.74566 0.02567 0.0
C1341 C 0.77339 0.73813 0.03743 0.0
C1342 C 0.76002 0.77622 0.99139 0.0
O1343 O 0.77011 0.78421 0.98659 0.0
H1344 H 0.77261 0.76956 0.0479 0.0
H1345 H 0.77826 0.74146 1.01536 0.0
O1346 O 0.78155 0.79163 0.0267 0.0
H1347 H 0.80759 0.76133 0.9763 0.0
H1348 H 0.77197 0.72691 0.03798 0.0
Cu1349 Cu 0.27836 0.77253 0.01887 0.0
N1350 N 0.27727 0.78716 0.03187 0.0
N1351 N 0.26958 0.79794 0.05086 0.0
C1352 C 0.26916 0.78617 0.0431 0.0
C1353 C 0.27832 0.80676 0.04417 0.0
C1354 C 0.28307 0.80008 0.03248 0.0
O1355 O 0.27903 0.75571 0.03058 0.0
C1356 C 0.26324 0.78588 0.99842 0.0
O1357 O 0.27353 0.79476 1.00159 0.0
H1358 H 0.26283 0.77698 0.04533 0.0
H1359 H 0.29012 0.80443 0.02494 0.0
N1360 N 0.29436 0.77235 1.00792 0.0
N1361 N 0.308 0.76478 0.99098 0.0
C1362 C 0.29631 0.76242 0.99828 0.0
C1363 C 0.30524 0.7814 1.00673 0.0
C1364 C 0.31366 0.77677 0.99627 0.0
C1365 C 0.28995 0.75554 0.03871 0.0
O1366 O 0.29926 0.76575 0.03762 0.0
H1367 H 0.28897 0.75381 0.99642 0.0
H1368 H 0.30688 0.79077 1.01286 0.0
O1369 O 0.26263 0.77443 1.00529 0.0
H1370 H 0.2812 0.81724 0.0475 0.0
H1371 H 0.32321 0.78182 0.99289 0.0
Cu1372 Cu 0.03033 0.26562 0.2843 0.0
N1373 N 0.04038 0.24901 0.28248 0.0
N1374 N 0.0571 0.2342 0.27648 0.0
C1375 C 0.05242 0.24745 0.27565 0.0
C1376 C 0.04754 0.2272 0.28406 0.0
C1377 C 0.0373 0.23631 0.28772 0.0
O1378 O 0.04443 0.28074 0.28634 0.0
C1379 C 1.00777 0.25683 0.26788 0.0
O1380 O 1.00835 0.24717 0.27765 0.0
H1381 H 0.05776 0.25595 0.27042 0.0
H1382 H 0.02824 0.23381 0.29378 0.0
N1383 N 0.01969 0.26568 0.3005 0.0
N1384 N 1.00445 0.27247 0.3163 0.0
C1385 C 1.00894 0.27417 0.30315 0.0
C1386 C 0.02193 0.2583 0.31233 0.0
C1387 C 1.01262 0.26249 0.32208 0.0
C1388 C 0.05316 0.27895 0.29659 0.0
O1389 O 0.05175 0.26764 0.30426 0.0
H1390 H 1.00494 0.28188 0.29583 0.0
H1391 H 0.0301 0.25075 0.31395 0.0
O1392 O 1.0169 0.26677 0.26841 0.0
H1393 H 0.04778 0.21621 0.28668 0.0
H1394 H 1.01208 0.2587 0.33272 0.0
Cu1395 Cu 0.77749 0.02535 0.27042 0.0
N1396 N 0.79323 0.03744 0.26989 0.0
N1397 N 0.80692 0.05485 0.26191 0.0
C1398 C 0.79567 0.04632 0.25925 0.0
C1399 C 0.81173 0.05114 0.27481 0.0
C1400 C 0.80327 0.04042 0.27971 0.0
O1401 O 0.76156 0.03789 0.27176 0.0
C1402 C 0.78969 1.00637 0.25354 0.0
O1403 O 0.79997 1.00991 0.26238 0.0
H1404 H 0.78892 0.04684 0.24995 0.0
H1405 H 0.80415 0.03544 0.28985 0.0
N1406 N 0.77718 1.01333 0.28597 0.0
N1407 N 0.76823 0.9967 0.2998 0.0
C1408 C 0.76543 1.00694 0.29043 0.0
C1409 C 0.78784 1.00694 0.29282 0.0
C1410 C 0.78235 0.99667 0.30136 0.0
C1411 C 0.7618 0.04464 0.28326 0.0
O1412 O 0.77178 0.04189 0.29262 0.0
H1413 H 0.75505 1.00914 0.28614 0.0
H1414 H 0.79884 1.00905 0.29116 0.0
O1415 O 0.77804 1.01265 0.25437 0.0
H1416 H 0.82067 0.05586 0.28039 0.0
H1417 H 0.78829 0.98949 0.30788 0.0
Cu1418 Cu 0.01951 0.77572 0.26763 0.0
N1419 N 1.00913 0.79233 0.26715 0.0
N1420 N 0.99184 0.80738 0.26214 0.0
C1421 C 0.99659 0.79427 0.26043 0.0
C1422 C 1.00189 0.81388 0.27018 0.0
C1423 C 1.01247 0.80464 0.27322 0.0
O1424 O 1.00549 0.76046 0.26841 0.0
C1425 C 0.04142 0.78606 0.25259 0.0
O1426 O 0.0413 0.79462 0.26327 0.0
H1427 H 0.99096 0.78614 0.2546 0.0
H1428 H 0.02197 0.80681 0.27938 0.0
N1429 N 0.03143 0.77405 0.28368 0.0
N1430 N 0.04865 0.76622 0.29815 0.0
C1431 C 0.04219 0.76514 0.28535 0.0
C1432 C 0.0311 0.78105 0.2958 0.0
C1433 C 0.04165 0.77628 0.30469 0.0
C1434 C 0.99786 0.76088 0.27911 0.0
O1435 O 1.00033 0.77094 0.2882 0.0
H1436 H 0.04503 0.75782 0.2774 0.0
H1437 H 0.02362 0.78898 0.2981 0.0
O1438 O 0.03211 0.77626 0.25183 0.0
H1439 H 1.00175 0.82466 0.27352 0.0
H1440 H 0.04399 0.78003 0.31517 0.0
Cu1441 Cu 0.27087 0.02027 0.27673 0.0
N1442 N 0.27225 0.03192 0.29252 0.0
N1443 N 0.27924 0.05078 0.30502 0.0
C1444 C 0.27936 0.04423 0.29254 0.0
C1445 C 0.27175 0.04213 0.31324 0.0
C1446 C 0.26743 0.03053 0.30551 0.0
O1447 O 0.26932 0.03339 0.26097 0.0
C1448 C 0.28675 0.9992 0.2879 0.0
O1449 O 0.27672 1.00027 0.29685 0.0
H1450 H 0.28474 0.04815 0.28353 0.0
H1451 H 0.26132 0.0217 0.30916 0.0
N1452 N 0.25504 1.00825 0.27538 0.0
N1453 N 0.24134 0.99093 0.2664 0.0
C1454 C 0.25296 0.99904 0.26488 0.0
C1455 C 0.24434 1.00594 0.28395 0.0
C1456 C 0.23589 0.99524 0.27844 0.0
C1457 C 0.2581 0.04047 0.26105 0.0
O1458 O 0.24907 0.03762 0.27076 0.0
H1459 H 0.26013 0.99809 0.25644 0.0
H1460 H 0.24284 1.01152 0.29355 0.0
O1461 O 0.28688 1.0077 0.27757 0.0
H1462 H 0.26941 0.04408 0.32402 0.0
H1463 H 0.22643 0.99105 0.28293 0.0
Cu1464 Cu 0.02945 0.77534 0.76507 0.0
N1465 N 0.0406 0.75951 0.76358 0.0
N1466 N 0.0564 0.74583 0.75397 0.0
C1467 C 0.04689 0.75593 0.75177 0.0
C1468 C 0.05606 0.74289 0.76775 0.0
C1469 C 0.04629 0.75134 0.77366 0.0
O1470 O 0.04282 0.79092 0.76826 0.0
C1471 C 1.00907 0.76504 0.74712 0.0
O1472 O 1.01102 0.75476 0.75607 0.0
H1473 H 0.04513 0.76128 0.7419 0.0
H1474 H 0.04404 0.75195 0.78462 0.0
N1475 N 1.01724 0.77506 0.78002 0.0
N1476 N 1.00021 0.7829 0.79331 0.0
C1477 C 1.00938 0.78602 0.78327 0.0
C1478 C 1.01293 0.76453 0.78828 0.0
C1479 C 1.00242 0.76935 0.79651 0.0
C1480 C 0.04906 0.79056 0.78029 0.0
O1481 O 0.04532 0.78069 0.78905 0.0
H1482 H 1.00998 0.79594 0.77785 0.0
H1483 H 1.01681 0.75401 0.78802 0.0
O1484 O 1.0169 0.77597 0.74847 0.0
H1485 H 0.06263 0.73541 0.77323 0.0
H1486 H 0.99675 0.76329 0.80411 0.0
Cu1487 Cu 0.28374 0.02705 0.77688 0.0
N1488 N 0.29947 0.03902 0.77552 0.0
N1489 N 0.31154 0.05788 0.7682 0.0
C1490 C 0.29986 0.04975 0.76641 0.0
C1491 C 0.31889 0.05184 0.77886 0.0
C1492 C 0.31139 0.04023 0.78339 0.0
O1493 O 0.26794 0.03955 0.77974 0.0
C1494 C 0.29394 1.00798 0.75875 0.0
O1495 O 0.3045 1.00991 0.76777 0.0
H1496 H 0.29148 0.05161 0.75877 0.0
H1497 H 0.31421 0.03347 0.79207 0.0
N1498 N 0.28453 1.01427 0.79186 0.0
N1499 N 0.27966 0.99431 0.80316 0.0
C1500 C 0.27957 1.00102 0.79075 0.0
C1501 C 0.28797 1.01598 0.80553 0.0
C1502 C 0.28488 1.00368 0.81255 0.0
C1503 C 0.26994 0.04787 0.79007 0.0
O1504 O 0.28174 0.04701 0.79748 0.0
H1505 H 0.2754 0.99654 0.78107 0.0
H1506 H 0.2921 0.02554 0.81017 0.0
O1507 O 0.28296 1.01522 0.76015 0.0
H1508 H 0.3287 0.05577 0.78345 0.0
H1509 H 0.2863 1.00179 0.82366 0.0
Cu1510 Cu 0.02859 0.28403 0.77795 0.0
N1511 N 1.0182 0.30036 0.77974 0.0
N1512 N 1.00136 0.31596 0.77516 0.0
C1513 C 1.00717 0.30385 0.77131 0.0
C1514 C 1.00913 0.32019 0.78652 0.0
C1515 C 0.01946 0.31056 0.78932 0.0
O1516 O 1.01454 0.26869 0.77766 0.0
C1517 C 0.04885 0.29693 0.76258 0.0
O1518 O 0.04852 0.30483 0.77374 0.0
H1519 H 1.00357 0.29761 0.76245 0.0
H1520 H 0.02726 0.31093 0.7978 0.0
N1521 N 0.04166 0.28065 0.79278 0.0
N1522 N 0.06127 0.27252 0.80332 0.0
C1523 C 0.05411 0.27456 0.79108 0.0
C1524 C 0.0409 0.28257 0.80666 0.0
C1525 C 0.05296 0.27751 0.81319 0.0
C1526 C 1.00681 0.26835 0.78831 0.0
O1527 O 1.00922 0.27771 0.79812 0.0
H1528 H 0.05772 0.27139 0.781 0.0
H1529 H 0.0322 0.28722 0.81172 0.0
O1530 O 0.04017 0.2866 0.76152 0.0
H1531 H 1.00737 0.32946 0.79258 0.0
H1532 H 0.05547 0.27762 0.8243 0.0
Cu1533 Cu 0.7736 0.02231 0.77093 0.0
N1534 N 0.77758 0.03462 0.78591 0.0
N1535 N 0.78634 0.05359 0.79716 0.0
C1536 C 0.78533 0.0465 0.78495 0.0
C1537 C 0.77894 0.04574 0.80618 0.0
C1538 C 0.77355 0.03409 0.79922 0.0
O1539 O 0.77115 0.03459 0.75451 0.0
C1540 C 0.78906 1.00064 0.78181 0.0
O1541 O 0.78025 1.00299 0.79172 0.0
H1542 H 0.79016 0.04981 0.7754 0.0
H1543 H 0.76707 0.02588 0.80357 0.0
N1544 N 0.75683 1.01191 0.77286 0.0
N1545 N 0.74073 0.99461 0.7701 0.0
C1546 C 0.75339 0.99974 0.76637 0.0
C1547 C 0.74597 1.01461 0.78093 0.0
C1548 C 0.73605 1.00402 0.77924 0.0
C1549 C 0.76105 0.04308 0.75549 0.0
O1550 O 0.75344 0.04227 0.76664 0.0
H1551 H 0.76021 0.99462 0.75929 0.0
H1552 H 0.74528 0.02366 0.78756 0.0
O1553 O 0.78851 1.00841 0.77091 0.0
H1554 H 0.77726 0.04832 0.81697 0.0
H1555 H 0.7261 1.00342 0.78431 0.0
Cu1556 Cu 0.27657 0.76934 0.50973 0.0
N1557 N 0.29161 0.77389 0.52227 0.0
N1558 N 0.30267 0.78476 0.54041 0.0
C1559 C 0.29042 0.78274 0.53306 0.0
C1560 C 0.31196 0.77676 0.53395 0.0
C1561 C 0.30513 0.77011 0.52275 0.0
O1562 O 0.26052 0.76647 0.52181 0.0
C1563 C 0.28651 0.78453 0.48786 0.0
O1564 O 0.29643 0.77547 0.49044 0.0
H1565 H 0.28064 0.78757 0.53545 0.0
H1566 H 0.30979 0.76324 0.51537 0.0
N1567 N 0.27851 0.75274 0.49956 0.0
N1568 N 0.27388 0.73651 0.48306 0.0
C1569 C 0.27018 0.74887 0.48848 0.0
C1570 C 0.28785 0.74249 0.50124 0.0
C1571 C 0.28503 0.7325 0.49111 0.0
C1572 C 0.26228 0.75627 0.53031 0.0
O1573 O 0.27377 0.74902 0.52948 0.0
H1574 H 0.26145 0.75499 0.48463 0.0
H1575 H 0.29609 0.74225 0.50927 0.0
O1576 O 0.27584 0.78423 0.49558 0.0
H1577 H 0.32299 0.77602 0.53684 0.0
H1578 H 0.29089 0.72308 0.48976 0.0
Cu1579 Cu 0.77658 0.78261 0.51763 0.0
N1580 N 0.79175 0.7802 0.50584 0.0
N1581 N 0.80396 0.77106 0.48857 0.0
C1582 C 0.79182 0.77071 0.49547 0.0
C1583 C 0.81184 0.78124 0.49489 0.0
C1584 C 0.80432 0.78682 0.50554 0.0
O1585 O 0.76 0.78383 0.50499 0.0
C1586 C 0.7884 0.76759 0.53901 0.0
O1587 O 0.79798 0.77726 0.53655 0.0
H1588 H 0.783 0.76376 0.49299 0.0
H1589 H 0.80787 0.79498 0.51266 0.0
N1590 N 0.77772 0.7991 0.52833 0.0
N1591 N 0.77381 0.81412 0.54566 0.0
C1592 C 0.77116 0.80119 0.54041 0.0
C1593 C 0.78471 0.81112 0.5258 0.0
C1594 C 0.78233 0.82036 0.53641 0.0
C1595 C 0.7607 0.79417 0.49654 0.0
O1596 O 0.7718 0.80249 0.49751 0.0
H1597 H 0.76471 0.79329 0.54531 0.0
H1598 H 0.79098 0.81312 0.5168 0.0
O1599 O 0.77716 0.76739 0.53134 0.0
H1600 H 0.82242 0.78425 0.49223 0.0
H1601 H 0.78641 0.83097 0.53706 0.0
Cu1602 Cu 0.77857 0.26959 0.52 0.0
N1603 N 0.77809 0.254 0.50799 0.0
N1604 N 0.76891 0.24029 0.49085 0.0
C1605 C 0.76638 0.24996 0.50064 0.0
C1606 C 0.78283 0.2381 0.4921 0.0
C1607 C 0.78847 0.24654 0.5027 0.0
O1608 O 0.77941 0.28575 0.50724 0.0
C1609 C 0.76255 0.25585 0.5388 0.0
O1610 O 0.7725 0.24703 0.53625 0.0
H1611 H 0.75629 0.25467 0.50194 0.0
H1612 H 0.79943 0.24762 0.50583 0.0
N1613 N 0.79378 0.27124 0.53313 0.0
N1614 N 0.8047 0.27859 0.55302 0.0
C1615 C 0.7924 0.27735 0.54567 0.0
C1616 C 0.80753 0.26841 0.53255 0.0
C1617 C 0.8143 0.27302 0.54479 0.0
C1618 C 0.79053 0.28625 0.50015 0.0
O1619 O 0.80006 0.2768 0.50271 0.0
H1620 H 0.78253 0.28119 0.54918 0.0
H1621 H 0.81238 0.26355 0.52383 0.0
O1622 O 0.76235 0.26736 0.53198 0.0
H1623 H 0.78858 0.23111 0.48567 0.0
H1624 H 0.82539 0.27226 0.54746 0.0
Cu1625 Cu 0.27927 0.28692 0.53599 0.0
N1626 N 0.28079 0.30375 0.54605 0.0
N1627 N 0.27574 0.3203 0.56151 0.0
C1628 C 0.27244 0.30743 0.55647 0.0
C1629 C 0.28666 0.32481 0.55396 0.0
C1630 C 0.28973 0.31463 0.54447 0.0
O1631 O 0.2792 0.272 0.55005 0.0
C1632 C 0.26479 0.2986 0.51417 0.0
O1633 O 0.2762 0.30644 0.51562 0.0
H1634 H 0.26389 0.30089 0.56004 0.0
H1635 H 0.29776 0.31525 0.53681 0.0
N1636 N 0.29448 0.28346 0.52459 0.0
N1637 N 0.30609 0.27318 0.50758 0.0
C1638 C 0.29373 0.2743 0.51393 0.0
C1639 C 0.30781 0.28836 0.52505 0.0
C1640 C 0.31498 0.28208 0.51453 0.0
C1641 C 0.29019 0.27232 0.55809 0.0
O1642 O 0.29969 0.28217 0.55601 0.0
H1643 H 0.28422 0.26856 0.51094 0.0
H1644 H 0.31215 0.2957 0.53265 0.0
O1645 O 0.26314 0.28852 0.52279 0.0
H1646 H 0.29212 0.33477 0.55518 0.0
H1647 H 0.32597 0.28366 0.51246 0.0
Cu1648 Cu 0.78699 0.53355 0.77558 0.0
N1649 N 0.80237 0.54552 0.77211 0.0
N1650 N 0.81434 0.56295 0.76191 0.0
C1651 C 0.80206 0.55568 0.76233 0.0
C1652 C 0.82272 0.5571 0.77189 0.0
C1653 C 0.81533 0.54633 0.77813 0.0
O1654 O 0.77096 0.54605 0.77744 0.0
C1655 C 0.79766 0.51191 0.76108 0.0
O1656 O 0.80771 0.5152 0.77029 0.0
H1657 H 0.79287 0.55778 0.75577 0.0
H1658 H 0.81921 0.53952 0.78634 0.0
N1659 N 0.78862 0.52345 0.79237 0.0
N1660 N 0.7837 0.50675 0.80805 0.0
C1661 C 0.78082 0.51194 0.79514 0.0
C1662 C 0.79676 0.52569 0.80393 0.0
C1663 C 0.79376 0.51542 0.81361 0.0
C1664 C 0.77312 0.55521 0.78703 0.0
O1665 O 0.78508 0.55494 0.79425 0.0
H1666 H 0.77294 0.50769 0.78786 0.0
H1667 H 0.8042 0.53427 0.80534 0.0
O1668 O 0.78649 0.51912 0.76092 0.0
H1669 H 0.8335 0.56019 0.77433 0.0
H1670 H 0.79867 0.51445 0.82391 0.0
Cu1671 Cu 0.28296 0.52876 0.76663 0.0
N1672 N 0.29816 0.51676 0.76963 0.0
N1673 N 0.30998 0.4982 0.77775 0.0
C1674 C 0.29761 0.50488 0.77722 0.0
C1675 C 0.31868 0.5063 0.77019 0.0
C1676 C 0.31137 0.51771 0.7652 0.0
O1677 O 0.26619 0.51652 0.76607 0.0
C1678 C 0.29472 0.55149 0.78066 0.0
O1679 O 0.30378 0.54954 0.77087 0.0
H1680 H 0.28828 0.50134 0.78239 0.0
H1681 H 0.31543 0.52608 0.7588 0.0
N1682 N 0.28334 0.53837 0.7495 0.0
N1683 N 0.27777 0.55403 0.7328 0.0
C1684 C 0.27527 0.5493 0.74584 0.0
C1685 C 0.29126 0.53607 0.73843 0.0
C1686 C 0.28786 0.54569 0.72815 0.0
C1687 C 0.26606 0.50721 0.75653 0.0
O1688 O 0.27656 0.50713 0.74801 0.0
H1689 H 0.26755 0.55352 0.75258 0.0
H1690 H 0.2989 0.52794 0.73783 0.0
O1691 O 0.28411 0.54316 0.78119 0.0
H1692 H 0.3295 0.50408 0.76819 0.0
H1693 H 0.2926 0.54649 0.71807 0.0
Cu1694 Cu 0.28731 0.5186 0.27429 0.0
N1695 N 0.28617 0.50908 0.29147 0.0
N1696 N 0.28058 0.49273 0.30727 0.0
C1697 C 0.2787 0.49725 0.29394 0.0
C1698 C 0.28951 0.50217 0.3134 0.0
C1699 C 0.29291 0.51221 0.30367 0.0
O1700 O 0.28829 0.50398 0.25981 0.0
C1701 C 0.27296 0.5415 0.2828 0.0
O1702 O 0.28393 0.54131 0.29148 0.0
H1703 H 0.27233 0.49186 0.286 0.0
H1704 H 0.2999 0.52111 0.30536 0.0
N1705 N 0.30397 0.52944 0.27353 0.0
N1706 N 0.31904 0.54697 0.26872 0.0
C1707 C 0.30585 0.5417 0.2667 0.0
C1708 C 0.31641 0.52684 0.27995 0.0
C1709 C 0.32568 0.53756 0.27702 0.0
C1710 C 0.29776 0.49492 0.26237 0.0
O1711 O 0.3055 0.49628 0.27391 0.0
H1712 H 0.2976 0.54681 0.2607 0.0
H1713 H 0.31857 0.51783 0.28645 0.0
O1714 O 0.27175 0.53193 0.27351 0.0
H1715 H 0.29331 0.50189 0.32418 0.0
H1716 H 0.33652 0.53831 0.28072 0.0
Cu1717 Cu 0.78448 0.52369 0.27293 0.0
N1718 N 0.80011 0.51212 0.27457 0.0
N1719 N 0.81332 0.4949 0.28348 0.0
C1720 C 0.8025 0.50349 0.2855 0.0
C1721 C 0.81791 0.49832 0.2707 0.0
C1722 C 0.80973 0.50894 0.26522 0.0
O1723 O 0.76835 0.51075 0.27166 0.0
C1724 C 0.79672 0.54404 0.2898 0.0
O1725 O 0.80698 0.5411 0.28157 0.0
H1726 H 0.79593 0.50307 0.29448 0.0
H1727 H 0.81042 0.51361 0.25497 0.0
N1728 N 0.78373 0.53502 0.25691 0.0
N1729 N 0.77423 0.55079 0.24225 0.0
C1730 C 0.77179 0.54067 0.25178 0.0
C1731 C 0.79415 0.54175 0.25034 0.0
C1732 C 0.78831 0.55151 0.2413 0.0
C1733 C 0.76799 0.50317 0.26071 0.0
O1734 O 0.77769 0.50532 0.25148 0.0
H1735 H 0.76156 0.53811 0.25574 0.0
H1736 H 0.80521 0.54029 0.25258 0.0
O1737 O 0.7853 0.53686 0.28855 0.0
H1738 H 0.82643 0.4934 0.26556 0.0
H1739 H 0.79398 0.55886 0.23488 0.0
Cu1740 Cu 0.53803 0.27073 0.77479 0.0
N1741 N 0.52597 0.27259 0.78979 0.0
N1742 N 0.50742 0.28011 0.80124 0.0
C1743 C 0.51443 0.28051 0.78921 0.0
C1744 C 0.51496 0.2716 0.80979 0.0
C1745 C 0.52636 0.26697 0.8027 0.0
O1746 O 0.5254 0.27011 0.75817 0.0
C1747 C 0.56 0.28513 0.7873 0.0
O1748 O 0.55765 0.27482 0.79606 0.0
H1749 H 0.51135 0.28655 0.78008 0.0
H1750 H 0.53432 0.25999 0.80669 0.0
N1751 N 0.54827 0.25413 0.77513 0.0
N1752 N 0.5651 0.23907 0.77015 0.0
C1753 C 0.5598 0.25189 0.76773 0.0
C1754 C 0.54613 0.24232 0.78245 0.0
C1755 C 0.55647 0.23304 0.77942 0.0
C1756 C 0.5164 0.26004 0.75847 0.0
O1757 O 0.51713 0.25128 0.76905 0.0
H1758 H 0.56434 0.25965 0.7609 0.0
H1759 H 0.53763 0.24054 0.78946 0.0
O1760 O 0.5521 0.28594 0.77628 0.0
H1761 H 0.51232 0.26871 0.82033 0.0
H1762 H 0.55742 0.22258 0.78363 0.0
Cu1763 Cu 0.52503 0.77984 0.7701 0.0
N1764 N 0.5365 0.78057 0.78643 0.0
N1765 N 0.55462 0.77586 0.80114 0.0
C1766 C 0.54827 0.77317 0.78856 0.0
C1767 C 0.54644 0.78532 0.80715 0.0
C1768 C 0.53528 0.78818 0.79808 0.0
O1769 O 0.53809 0.7797 0.75468 0.0
C1770 C 0.50372 0.76462 0.78198 0.0
O1771 O 0.50491 0.77559 0.79016 0.0
H1772 H 0.55223 0.76616 0.78087 0.0
H1773 H 0.52687 0.79529 0.79987 0.0
N1774 N 0.5135 0.79541 0.76752 0.0
N1775 N 0.49556 0.80801 0.75888 0.0
C1776 C 0.50178 0.79543 0.75924 0.0
C1777 C 0.51481 0.80844 0.77266 0.0
C1778 C 0.50376 0.81622 0.76737 0.0
C1779 C 0.54657 0.79021 0.75448 0.0
O1780 O 0.54539 0.79992 0.764 0.0
H1781 H 0.49789 0.78627 0.75365 0.0
H1782 H 0.52329 0.8121 0.77959 0.0
O1783 O 0.51207 0.76377 0.77187 0.0
H1784 H 0.54828 0.78978 0.81743 0.0
H1785 H 0.50213 0.82715 0.76941 0.0
Cu1786 Cu 0.52134 0.76653 0.26752 0.0
N1787 N 0.50912 0.7684 0.28244 0.0
N1788 N 0.49164 0.7773 0.29454 0.0
C1789 C 0.49892 0.77794 0.28267 0.0
C1790 C 0.49754 0.76685 0.30207 0.0
C1791 C 0.50831 0.76142 0.29462 0.0
O1792 O 0.50898 0.76559 0.25073 0.0
C1793 C 0.54234 0.78159 0.28063 0.0
O1794 O 0.53932 0.77172 0.28968 0.0
H1795 H 0.49685 0.78515 0.27415 0.0
H1796 H 0.51518 0.75312 0.29797 0.0
N1797 N 0.53212 0.75026 0.26805 0.0
N1798 N 0.54993 0.73607 0.26377 0.0
C1799 C 0.5443 0.74877 0.26147 0.0
C1800 C 0.5299 0.73805 0.27468 0.0
C1801 C 0.54084 0.72932 0.2721 0.0
C1802 C 0.50011 0.7554 0.25091 0.0
O1803 O 0.50064 0.7468 0.26163 0.0
H1804 H 0.54906 0.75697 0.25532 0.0
H1805 H 0.52093 0.73561 0.2809 0.0
O1806 O 0.53517 0.78194 0.26911 0.0
H1807 H 0.49452 0.76355 0.31238 0.0
H1808 H 0.54192 0.71874 0.27594 0.0
Cu1809 Cu 0.52602 0.27554 0.278 0.0
N1810 N 0.51451 0.27546 0.29347 0.0
N1811 N 0.49845 0.26708 0.30801 0.0
C1812 C 0.50886 0.26395 0.2994 0.0
C1813 C 0.49768 0.28113 0.30763 0.0
C1814 C 0.5076 0.28627 0.29867 0.0
O1815 O 0.51379 0.27869 0.2613 0.0
C1816 C 0.54958 0.25766 0.27547 0.0
O1817 O 0.55484 0.26793 0.26805 0.0
H1818 H 0.51149 0.25344 0.29648 0.0
H1819 H 0.50902 0.29702 0.29543 0.0
N1820 N 0.53908 0.29043 0.27883 0.0
N1821 N 0.55598 0.30478 0.27108 0.0
C1822 C 0.54436 0.29704 0.26765 0.0
C1823 C 0.54751 0.29429 0.28976 0.0
C1824 C 0.55794 0.30313 0.28502 0.0
C1825 C 0.50062 0.27592 0.261 0.0
O1826 O 0.49539 0.26825 0.27103 0.0
H1827 H 0.54052 0.29515 0.25704 0.0
H1828 H 0.54671 0.29017 0.30025 0.0
O1829 O 0.53686 0.25827 0.27916 0.0
H1830 H 0.49012 0.28723 0.31299 0.0
H1831 H 0.56664 0.3075 0.29124 0.0
H1832 H 0.23453 0.21588 0.11396 0.0
H1833 H 0.19973 0.24045 0.1274 0.0
H1834 H 0.20347 0.25692 0.10796 0.0
H1835 H 0.25643 0.24461 0.10299 0.0
H1836 H 0.26275 0.2356 0.08805 0.0
H1837 H 0.25756 0.22585 0.1032 0.0
H1838 H 0.24009 0.21107 0.08778 0.0
H1839 H 0.24526 0.22075 0.07257 0.0
H1840 H 0.22705 0.21973 0.07697 0.0
H1841 H 0.2109 0.27074 0.08687 0.0
H1842 H 0.2213 0.28074 0.06582 0.0
H1843 H 0.25068 0.2467 0.06542 0.0
C1844 C 0.2276 0.22465 0.11279 0.0
C1845 C 0.21684 0.22683 0.12236 0.0
C1846 C 0.20819 0.23861 0.12044 0.0
C1847 C 0.21018 0.248 0.10934 0.0
C1848 C 0.22084 0.24552 0.10014 0.0
C1849 C 0.2294 0.23412 0.10173 0.0
C1850 C 0.24002 0.23379 0.0903 0.0
C1851 C 0.25508 0.23504 0.09651 0.0
C1852 C 0.23798 0.22055 0.08138 0.0
C1853 C 0.23609 0.24677 0.08203 0.0
C1854 C 0.22501 0.25339 0.08791 0.0
C1855 C 0.21954 0.2656 0.08215 0.0
C1856 C 0.2255 0.27117 0.07008 0.0
C1857 C 0.23684 0.26456 0.06375 0.0
C1858 C 0.24215 0.25217 0.06993 0.0
H1859 H 0.83934 0.23179 0.10931 0.0
H1860 H 0.80054 0.22473 0.13087 0.0
H1861 H 0.78734 0.23563 0.11127 0.0
H1862 H 0.83025 0.26536 0.09431 0.0
H1863 H 0.83851 0.2622 0.07801 0.0
H1864 H 0.84507 0.254 0.09383 0.0
H1865 H 0.84204 0.22972 0.08219 0.0
H1866 H 0.83549 0.23785 0.06633 0.0
H1867 H 0.82516 0.22447 0.07469 0.0
H1868 H 0.77813 0.24661 0.08915 0.0
H1869 H 0.77357 0.25748 0.0661 0.0
H1870 H 0.8182 0.25787 0.05862 0.0
C1871 C 0.82807 0.23252 0.10989 0.0
C1872 C 0.82102 0.22747 0.12174 0.0
C1873 C 0.80625 0.22872 0.12208 0.0
C1874 C 0.79862 0.23482 0.11093 0.0
C1875 C 0.80587 0.2397 0.09947 0.0
C1876 C 0.82026 0.23867 0.09885 0.0
C1877 C 0.82543 0.24476 0.08524 0.0
C1878 C 0.8354 0.25733 0.08802 0.0
C1879 C 0.83244 0.23353 0.0766 0.0
C1880 C 0.81168 0.24928 0.07829 0.0
C1881 C 0.80055 0.24621 0.0867 0.0
C1882 C 0.78677 0.2491 0.08249 0.0
C1883 C 0.78429 0.25526 0.06935 0.0
C1884 C 0.79551 0.25857 0.06052 0.0
C1885 C 0.8094 0.25557 0.06514 0.0
H1886 H 0.79639 0.82944 0.11179 0.0
H1887 H 0.83414 0.84578 0.09301 0.0
H1888 H 0.82571 0.83669 0.07014 0.0
H1889 H 0.79418 0.79747 0.09173 0.0
H1890 H 0.77529 0.79726 0.0902 0.0
H1891 H 0.78413 0.80534 0.1051 0.0
H1892 H 0.77117 0.82834 0.09967 0.0
H1893 H 0.76239 0.82036 0.08467 0.0
H1894 H 0.7725 0.83631 0.08267 0.0
H1895 H 0.81348 0.82556 0.04927 0.0
H1896 H 0.79884 0.8121 0.03212 0.0
H1897 H 0.76896 0.80265 0.06415 0.0
C1898 C 0.80296 0.83102 0.10291 0.0
C1899 C 0.81592 0.8385 0.10429 0.0
C1900 C 0.82407 0.84037 0.09228 0.0
C1901 C 0.81939 0.83518 0.0792 0.0
C1902 C 0.80651 0.82806 0.07819 0.0
C1903 C 0.79844 0.82587 0.08973 0.0
C1904 C 0.78513 0.81759 0.08577 0.0
C1905 C 0.78466 0.80358 0.09366 0.0
C1906 C 0.77202 0.82617 0.08835 0.0
C1907 C 0.78703 0.81544 0.07024 0.0
C1908 C 0.79943 0.82162 0.0661 0.0
C1909 C 0.80372 0.82073 0.05238 0.0
C1910 C 0.7953 0.81308 0.04269 0.0
C1911 C 0.78266 0.80639 0.0467 0.0
C1912 C 0.77841 0.80782 0.06065 0.0
H1913 H 0.23231 0.84278 0.10875 0.0
H1914 H 0.22231 0.80356 0.12939 0.0
H1915 H 0.2339 0.79078 0.11087 0.0
H1916 H 0.22736 0.83033 0.07334 0.0
H1917 H 0.2418 0.84055 0.0668 0.0
H1918 H 0.23246 0.84666 0.08153 0.0
H1919 H 0.25579 0.8484 0.09616 0.0
H1920 H 0.2652 0.84227 0.08148 0.0
H1921 H 0.26663 0.83325 0.09801 0.0
H1922 H 0.24705 0.78219 0.09039 0.0
H1923 H 0.2603 0.77836 0.0692 0.0
H1924 H 0.26196 0.82307 0.06162 0.0
C1925 C 0.2326 0.83151 0.10944 0.0
C1926 C 0.22628 0.82422 0.1206 0.0
C1927 C 0.22681 0.80943 0.12091 0.0
C1928 C 0.23349 0.80206 0.11046 0.0
C1929 C 0.23964 0.80957 0.09971 0.0
C1930 C 0.23924 0.82396 0.09908 0.0
C1931 C 0.2467 0.8295 0.08637 0.0
C1932 C 0.23647 0.83721 0.07642 0.0
C1933 C 0.25933 0.83891 0.09077 0.0
C1934 C 0.25141 0.81596 0.07997 0.0
C1935 C 0.24721 0.80461 0.08785 0.0
C1936 C 0.25031 0.79101 0.0841 0.0
C1937 C 0.2578 0.78894 0.07195 0.0
C1938 C 0.26215 0.80037 0.06356 0.0
C1939 C 0.25893 0.81408 0.06777 0.0
H1940 H 0.23573 0.83383 0.93576 0.0
H1941 H 0.2084 0.79966 0.92147 0.0
H1942 H 0.21636 0.78551 0.94185 0.0
H1943 H 0.26407 0.81334 0.94775 0.0
H1944 H 0.26848 0.8243 0.96259 0.0
H1945 H 0.26018 0.83168 0.94717 0.0
H1946 H 0.24024 0.841 0.96205 0.0
H1947 H 0.24848 0.83364 0.97753 0.0
H1948 H 0.23052 0.82904 0.97283 0.0
H1949 H 0.22816 0.77485 0.96413 0.0
H1950 H 0.24286 0.76895 0.98521 0.0
H1951 H 0.26167 0.81056 0.98437 0.0
C1952 C 0.23118 0.82347 0.93698 0.0
C1953 C 0.22134 0.81794 0.92698 0.0
C1954 C 0.21602 0.80414 0.9289 0.0
C1955 C 0.22042 0.79604 0.94051 0.0
C1956 C 0.23015 0.80186 0.95016 0.0
C1957 C 0.23543 0.81529 0.94846 0.0
C1958 C 0.24606 0.81911 0.95998 0.0
C1959 C 0.26055 0.82229 0.95401 0.0
C1960 C 0.24102 0.83142 0.96861 0.0
C1961 C 0.24606 0.80571 0.9684 0.0
C1962 C 0.23681 0.79585 0.9627 0.0
C1963 C 0.23538 0.78256 0.96869 0.0
C1964 C 0.24374 0.7793 0.98068 0.0
C1965 C 0.25343 0.78926 0.9865 0.0
C1966 C 0.25439 0.80265 0.98027 0.0
H1967 H 0.21894 0.23234 0.93607 0.0
H1968 H 0.249 0.19948 0.93137 0.0
H1969 H 0.26217 0.20792 0.95259 0.0
H1970 H 0.24346 0.25876 0.94767 0.0
H1971 H 0.2316 0.26628 0.95966 0.0
H1972 H 0.22477 0.25745 0.94425 0.0
H1973 H 0.20969 0.24109 0.95961 0.0
H1974 H 0.2165 0.24987 0.97507 0.0
H1975 H 0.21808 0.23123 0.97351 0.0
H1976 H 0.27207 0.22057 0.97508 0.0
H1977 H 0.2776 0.2362 0.99532 0.0
H1978 H 0.24049 0.25996 0.98455 0.0
C1979 C 0.22819 0.22676 0.93955 0.0
C1980 C 0.23282 0.21514 0.93205 0.0
C1981 C 0.24523 0.20844 0.93686 0.0
C1982 C 0.25275 0.21313 0.94897 0.0
C1983 C 0.24778 0.22457 0.95616 0.0
C1984 C 0.23578 0.23128 0.95153 0.0
C1985 C 0.23261 0.24346 0.96081 0.0
C1986 C 0.23315 0.2573 0.95261 0.0
C1987 C 0.21838 0.24127 0.96766 0.0
C1988 C 0.24464 0.24259 0.97147 0.0
C1989 C 0.25336 0.23167 0.96873 0.0
C1990 C 0.26526 0.22912 0.97727 0.0
C1991 C 0.26832 0.23802 0.98878 0.0
C1992 C 0.25951 0.24933 0.9916 0.0
C1993 C 0.24751 0.25145 0.98279 0.0
H1994 H 0.83545 0.21665 0.93117 0.0
H1995 H 0.84573 0.25807 0.91551 0.0
H1996 H 0.83438 0.26854 0.93557 0.0
H1997 H 0.80121 0.22527 0.94406 0.0
H1998 H 0.80297 0.21415 0.95922 0.0
H1999 H 0.81173 0.20988 0.94348 0.0
H2000 H 0.83547 0.20932 0.95745 0.0
H2001 H 0.82679 0.21367 0.9732 0.0
H2002 H 0.84125 0.22439 0.96747 0.0
H2003 H 0.82226 0.27464 0.95765 0.0
H2004 H 0.81012 0.27583 0.9799 0.0
H2005 H 0.80711 0.23053 0.98106 0.0
C2006 C 0.83519 0.22792 0.93187 0.0
C2007 C 0.84162 0.2365 0.92174 0.0
C2008 C 0.84113 0.25122 0.9232 0.0
C2009 C 0.83462 0.2573 0.93454 0.0
C2010 C 0.82855 0.24856 0.94441 0.0
C2011 C 0.82873 0.23419 0.94318 0.0
C2012 C 0.82156 0.2272 0.95535 0.0
C2013 C 0.8086 0.21862 0.95022 0.0
C2014 C 0.83189 0.21811 0.96387 0.0
C2015 C 0.8174 0.23987 0.96362 0.0
C2016 C 0.82151 0.25209 0.95711 0.0
C2017 C 0.81892 0.26512 0.96281 0.0
C2018 C 0.81193 0.26569 0.97546 0.0
C2019 C 0.80755 0.25332 0.98239 0.0
C2020 C 0.81039 0.24024 0.97626 0.0
H2021 H 0.82461 0.81347 0.91239 0.0
H2022 H 0.84137 0.84987 0.93463 0.0
H2023 H 0.83644 0.83838 0.95708 0.0
H2024 H 0.79658 0.80611 0.93518 0.0
H2025 H 0.7979 0.78741 0.93413 0.0
H2026 H 0.80323 0.79822 0.91976 0.0
H2027 H 0.82779 0.78714 0.92099 0.0
H2028 H 0.82252 0.77629 0.93537 0.0
H2029 H 0.83792 0.78743 0.93724 0.0
H2030 H 0.82893 0.82336 0.97719 0.0
H2031 H 0.81935 0.80581 0.99346 0.0
H2032 H 0.80758 0.77901 0.9584 0.0
C2033 C 0.82742 0.81895 0.92199 0.0
C2034 C 0.83335 0.83264 0.92169 0.0
C2035 C 0.83665 0.83949 0.93453 0.0
C2036 C 0.83398 0.83301 0.94736 0.0
C2037 C 0.828 0.81961 0.94728 0.0
C2038 C 0.82477 0.81263 0.93494 0.0
C2039 C 0.81803 0.79845 0.93781 0.0
C2040 C 0.80305 0.7975 0.93134 0.0
C2041 C 0.82711 0.78663 0.93254 0.0
C2042 C 0.81791 0.79859 0.95366 0.0
C2043 C 0.82374 0.8109 0.9589 0.0
C2044 C 0.82441 0.81366 0.9732 0.0
C2045 C 0.81889 0.80365 0.98237 0.0
C2046 C 0.81277 0.79098 0.97728 0.0
C2047 C 0.81242 0.78844 0.96269 0.0
H2048 H 0.11952 0.22815 0.22329 0.0
H2049 H 0.13216 0.19101 0.24624 0.0
H2050 H 0.1131 0.19443 0.2625 0.0
H2051 H 0.10957 0.2483 0.25304 0.0
H2052 H 0.09465 0.25595 0.24407 0.0
H2053 H 0.10957 0.2509 0.23438 0.0
H2054 H 0.09341 0.23538 0.21833 0.0
H2055 H 0.07844 0.24041 0.22794 0.0
H2056 H 0.08231 0.22219 0.22601 0.0
H2057 H 0.09244 0.20155 0.27611 0.0
H2058 H 0.07153 0.21172 0.28603 0.0
H2059 H 0.07151 0.24392 0.25399 0.0
C2060 C 0.11827 0.22067 0.23168 0.0
C2061 C 0.12752 0.20933 0.23346 0.0
C2062 C 0.12548 0.19993 0.24473 0.0
C2063 C 0.11459 0.20173 0.254 0.0
C2064 C 0.10571 0.21298 0.25192 0.0
C2065 C 0.1074 0.2223 0.24104 0.0
C2066 C 0.09623 0.23339 0.24106 0.0
C2067 C 0.10291 0.248 0.24327 0.0
C2068 C 0.08705 0.2328 0.22753 0.0
C2069 C 0.08797 0.22882 0.25362 0.0
C2070 C 0.09367 0.21703 0.25972 0.0
C2071 C 0.08787 0.21075 0.27138 0.0
C2072 C 0.07589 0.21658 0.2769 0.0
C2073 C 0.0697 0.22861 0.2708 0.0
C2074 C 0.07597 0.23482 0.25902 0.0
H2075 H 0.84581 0.12706 0.24394 0.0
H2076 H 0.83365 0.11962 0.20044 0.0
H2077 H 0.82191 0.09751 0.20712 0.0
H2078 H 0.8533 0.09128 0.25274 0.0
H2079 H 0.8465 0.09232 0.27002 0.0
H2080 H 0.85376 0.1077 0.26189 0.0
H2081 H 0.83058 0.12066 0.26538 0.0
H2082 H 0.82326 0.10532 0.27355 0.0
H2083 H 0.81426 0.11307 0.25867 0.0
H2084 H 0.81175 0.07595 0.21848 0.0
H2085 H 0.80357 0.05684 0.23364 0.0
H2086 H 0.82229 0.07817 0.26983 0.0
C2087 C 0.84077 0.12076 0.23578 0.0
C2088 C 0.84067 0.12519 0.22163 0.0
C2089 C 0.83374 0.11664 0.21136 0.0
C2090 C 0.82711 0.10398 0.21505 0.0
C2091 C 0.82747 0.09994 0.22906 0.0
C2092 C 0.83409 0.10808 0.23927 0.0
C2093 C 0.83291 0.10135 0.25358 0.0
C2094 C 0.84748 0.09796 0.25993 0.0
C2095 C 0.82476 0.11066 0.26337 0.0
C2096 C 0.82461 0.08812 0.24981 0.0
C2097 C 0.82159 0.08753 0.2356 0.0
C2098 C 0.81401 0.07635 0.22962 0.0
C2099 C 0.80933 0.06555 0.23837 0.0
C2100 C 0.81217 0.06592 0.25301 0.0
C2101 C 0.82001 0.07741 0.25872 0.0
H2102 H 0.92589 0.81776 0.20908 0.0
H2103 H 0.91465 0.85266 0.23494 0.0
H2104 H 0.93473 0.84786 0.25098 0.0
H2105 H 0.93777 0.79506 0.23721 0.0
H2106 H 0.95215 0.78827 0.22777 0.0
H2107 H 0.93662 0.79411 0.21841 0.0
H2108 H 0.95176 0.81103 0.20379 0.0
H2109 H 0.96734 0.80522 0.21308 0.0
H2110 H 0.96333 0.82353 0.2126 0.0
H2111 H 0.95627 0.83967 0.26411 0.0
H2112 H 0.97784 0.82881 0.27333 0.0
H2113 H 0.97597 0.79947 0.23886 0.0
C2114 C 0.92766 0.82446 0.21807 0.0
C2115 C 0.91848 0.83557 0.22071 0.0
C2116 C 0.92124 0.84393 0.23273 0.0
C2117 C 0.93272 0.84134 0.2419 0.0
C2118 C 0.94149 0.83034 0.23898 0.0
C2119 C 0.93914 0.82203 0.22736 0.0
C2120 C 0.95035 0.811 0.22658 0.0
C2121 C 0.94383 0.79623 0.22755 0.0
C2122 C 0.95869 0.81281 0.21322 0.0
C2123 C 0.9594 0.81448 0.23954 0.0
C2124 C 0.95405 0.82567 0.24653 0.0
C2125 C 0.96057 0.83093 0.25869 0.0
C2126 C 0.97293 0.82472 0.26382 0.0
C2127 C 0.9788 0.8133 0.25683 0.0
C2128 C 0.97178 0.80808 0.24455 0.0
H2129 H 0.20191 0.91926 0.24497 0.0
H2130 H 0.2156 0.92672 0.20277 0.0
H2131 H 0.22734 0.94865 0.21054 0.0
H2132 H 0.1946 0.95523 0.25276 0.0
H2133 H 0.2008 0.95407 0.27072 0.0
H2134 H 0.1936 0.9388 0.26195 0.0
H2135 H 0.21642 0.9255 0.26796 0.0
H2136 H 0.22367 0.94073 0.27676 0.0
H2137 H 0.23303 0.93286 0.26289 0.0
H2138 H 0.23749 0.96991 0.22276 0.0
H2139 H 0.24555 0.98885 0.23859 0.0
H2140 H 0.22523 0.96796 0.27296 0.0
C2141 C 0.20728 0.92554 0.23732 0.0
C2142 C 0.20784 0.92113 0.22322 0.0
C2143 C 0.21518 0.92965 0.21365 0.0
C2144 C 0.22181 0.94221 0.21795 0.0
C2145 C 0.22104 0.94622 0.23187 0.0
C2146 C 0.21397 0.93815 0.24143 0.0
C2147 C 0.21477 0.94486 0.25579 0.0
C2148 C 0.20007 0.94845 0.26059 0.0
C2149 C 0.22243 0.93543 0.26648 0.0
C2150 C 0.22338 0.95798 0.2528 0.0
C2151 C 0.22688 0.95853 0.23893 0.0
C2152 C 0.23485 0.96956 0.23365 0.0
C2153 C 0.23946 0.98026 0.24278 0.0
C2154 C 0.23613 0.97995 0.2571 0.0
C2155 C 0.22788 0.96863 0.26209 0.0
H2156 H 0.11142 0.81645 0.83157 0.0
H2157 H 0.1262 0.84375 0.7987 0.0
H2158 H 0.10592 0.83625 0.78347 0.0
H2159 H 0.09957 0.78861 0.80987 0.0
H2160 H 0.08454 0.78439 0.82009 0.0
H2161 H 0.09996 0.79231 0.82832 0.0
H2162 H 0.08496 0.81235 0.83751 0.0
H2163 H 0.06948 0.80448 0.8293 0.0
H2164 H 0.07429 0.82232 0.82534 0.0
H2165 H 0.08374 0.82489 0.77155 0.0
H2166 H 0.06263 0.81066 0.76439 0.0
H2167 H 0.06282 0.79172 0.80563 0.0
C2168 C 0.11032 0.82109 0.82127 0.0
C2169 C 0.12044 0.83078 0.81642 0.0
C2170 C 0.11869 0.83623 0.80267 0.0
C2171 C 0.10714 0.8321 0.79396 0.0
C2172 C 0.09737 0.82251 0.79913 0.0
C2173 C 0.0989 0.81712 0.8125 0.0
C2174 C 0.08727 0.80672 0.81557 0.0
C2175 C 0.09319 0.79215 0.81864 0.0
C2176 C 0.07848 0.81178 0.82764 0.0
C2177 C 0.07897 0.80698 0.80182 0.0
C2178 C 0.08485 0.81615 0.79242 0.0
C2179 C 0.07903 0.81775 0.7789 0.0
C2180 C 0.06702 0.80965 0.77491 0.0
C2181 C 0.061 0.80008 0.78441 0.0
C2182 C 0.06707 0.79894 0.79806 0.0
H2183 H 0.24403 0.10973 0.83732 0.0
H2184 H 0.21002 0.11683 0.80702 0.0
H2185 H 0.21805 0.0971 0.79289 0.0
H2186 H 0.26978 0.10106 0.81297 0.0
H2187 H 0.27771 0.088 0.82412 0.0
H2188 H 0.26905 0.1025 0.83169 0.0
H2189 H 0.25309 0.08533 0.84523 0.0
H2190 H 0.26171 0.07076 0.83767 0.0
H2191 H 0.24293 0.07217 0.83576 0.0
H2192 H 0.23034 0.07591 0.78201 0.0
H2193 H 0.2459 0.05662 0.7755 0.0
H2194 H 0.27121 0.06404 0.81337 0.0
C2195 C 0.23812 0.10708 0.82781 0.0
C2196 C 0.2263 0.11484 0.82338 0.0
C2197 C 0.21915 0.11114 0.81064 0.0
C2198 C 0.2236 0.09987 0.80257 0.0
C2199 C 0.23526 0.0924 0.80732 0.0
C2200 C 0.24241 0.09594 0.81966 0.0
C2201 C 0.25476 0.08656 0.82248 0.0
C2202 C 0.26864 0.09504 0.82283 0.0
C2203 C 0.25301 0.07821 0.83609 0.0
C2204 C 0.25351 0.07716 0.80983 0.0
C2205 C 0.24221 0.08056 0.80116 0.0
C2206 C 0.23921 0.0732 0.78877 0.0
C2207 C 0.24807 0.06222 0.78516 0.0
C2208 C 0.25981 0.05877 0.79387 0.0
C2209 C 0.26237 0.06635 0.80639 0.0
H2210 H 0.94176 0.23476 0.8276 0.0
H2211 H 0.93214 0.20974 0.7907 0.0
H2212 H 0.95284 0.21997 0.77939 0.0
H2213 H 0.95341 0.26538 0.80987 0.0
H2214 H 0.9672 0.26954 0.82262 0.0
H2215 H 0.95178 0.26002 0.82782 0.0
H2216 H 0.96733 0.2402 0.8378 0.0
H2217 H 0.98282 0.24968 0.83262 0.0
H2218 H 0.97961 0.23203 0.82668 0.0
H2219 H 0.97492 0.23345 0.7719 0.0
H2220 H 0.9957 0.24914 0.76911 0.0
H2221 H 0.99067 0.26478 0.81106 0.0
C2222 C 0.94406 0.23129 0.81721 0.0
C2223 C 0.93519 0.22144 0.81008 0.0
C2224 C 0.93857 0.21741 0.79636 0.0
C2225 C 0.9504 0.22309 0.78986 0.0
C2226 C 0.95887 0.23281 0.79717 0.0
C2227 C 0.95582 0.23685 0.81056 0.0
C2228 C 0.96642 0.24763 0.81612 0.0
C2229 C 0.95927 0.26146 0.81929 0.0
C2230 C 0.97452 0.24205 0.82907 0.0
C2231 C 0.97583 0.24911 0.80375 0.0
C2232 C 0.97141 0.24046 0.79291 0.0
C2233 C 0.97848 0.24023 0.78037 0.0
C2234 C 0.9903 0.24916 0.77887 0.0
C2235 C 0.99488 0.25822 0.78983 0.0
C2236 C 0.98751 0.25802 0.80243 0.0
H2237 H 0.82127 0.93442 0.82153 0.0
H2238 H 0.84633 0.92722 0.7854 0.0
H2239 H 0.83635 0.94808 0.77391 0.0
H2240 H 0.79066 0.94614 0.80277 0.0
H2241 H 0.78666 0.95916 0.81549 0.0
H2242 H 0.79593 0.94375 0.82088 0.0
H2243 H 0.81608 0.9592 0.83171 0.0
H2244 H 0.80686 0.97466 0.82636 0.0
H2245 H 0.82456 0.97216 0.82103 0.0
H2246 H 0.82319 0.97008 0.76616 0.0
H2247 H 0.80796 0.99066 0.76308 0.0
H2248 H 0.79205 0.98334 0.80443 0.0
C2249 C 0.82479 0.93727 0.81126 0.0
C2250 C 0.83458 0.92904 0.8044 0.0
C2251 C 0.83869 0.93315 0.79085 0.0
C2252 C 0.83315 0.94508 0.78424 0.0
C2253 C 0.82348 0.95291 0.79128 0.0
C2254 C 0.81936 0.94915 0.80451 0.0
C2255 C 0.8087 0.95919 0.80978 0.0
C2256 C 0.79466 0.95161 0.81238 0.0
C2257 C 0.8144 0.96675 0.823 0.0
C2258 C 0.80743 0.96915 0.79747 0.0
C2259 C 0.81604 0.96543 0.78688 0.0
C2260 C 0.81644 0.97309 0.77443 0.0
C2261 C 0.80776 0.98478 0.77276 0.0
C2262 C 0.79879 0.9887 0.78348 0.0
C2263 C 0.79877 0.98073 0.79598 0.0
H2264 H 0.21304 0.1041 0.23239 0.0
H2265 H 0.24825 0.11755 0.20786 0.0
H2266 H 0.26148 0.09695 0.21618 0.0
H2267 H 0.23293 0.09179 0.2617 0.0
H2268 H 0.22119 0.07725 0.26495 0.0
H2269 H 0.21459 0.09281 0.25669 0.0
H2270 H 0.20464 0.07808 0.23581 0.0
H2271 H 0.21124 0.06247 0.24402 0.0
H2272 H 0.21619 0.067 0.22656 0.0
H2273 H 0.27102 0.07443 0.22791 0.0
H2274 H 0.27583 0.05324 0.24223 0.0
H2275 H 0.23398 0.05507 0.25834 0.0
C2276 C 0.22344 0.10265 0.22854 0.0
C2277 C 0.22952 0.11247 0.21936 0.0
C2278 C 0.24335 0.11027 0.21496 0.0
C2279 C 0.25093 0.09853 0.21957 0.0
C2280 C 0.24457 0.08905 0.22861 0.0
C2281 C 0.23112 0.09105 0.23303 0.0
C2282 C 0.22668 0.07966 0.24303 0.0
C2283 C 0.22368 0.08575 0.25744 0.0
C2284 C 0.21393 0.07131 0.23699 0.0
C2285 C 0.23972 0.07092 0.24363 0.0
C2286 C 0.24996 0.07638 0.23524 0.0
C2287 C 0.26301 0.07007 0.23446 0.0
C2288 C 0.26565 0.058 0.24259 0.0
C2289 C 0.25531 0.05242 0.25141 0.0
C2290 C 0.24216 0.05898 0.25172 0.0
H2291 H 0.23333 0.93465 0.83871 0.0
H2292 H 0.24543 0.90745 0.80524 0.0
H2293 H 0.26092 0.92609 0.79637 0.0
H2294 H 0.23222 0.96578 0.819 0.0
H2295 H 0.23948 0.97692 0.83267 0.0
H2296 H 0.22996 0.96118 0.83707 0.0
H2297 H 0.25132 0.9528 0.85206 0.0
H2298 H 0.26089 0.96856 0.84775 0.0
H2299 H 0.26821 0.95177 0.8443 0.0
H2300 H 0.2735 0.94812 0.78983 0.0
H2301 H 0.2833 0.97198 0.78676 0.0
H2302 H 0.26425 0.98494 0.82488 0.0
C2303 C 0.23946 0.93251 0.82969 0.0
C2304 C 0.23803 0.91956 0.82262 0.0
C2305 C 0.24611 0.91732 0.81072 0.0
C2306 C 0.25504 0.92783 0.80564 0.0
C2307 C 0.25596 0.94054 0.81263 0.0
C2308 C 0.24851 0.94291 0.82448 0.0
C2309 C 0.25111 0.95774 0.82971 0.0
C2310 C 0.23738 0.96588 0.8296 0.0
C2311 C 0.25831 0.95771 0.84432 0.0
C2312 C 0.26095 0.96337 0.81879 0.0
C2313 C 0.26359 0.95323 0.80905 0.0
C2314 C 0.27167 0.95609 0.7975 0.0
C2315 C 0.27714 0.96966 0.7958 0.0
C2316 C 0.27464 0.98024 0.80563 0.0
C2317 C 0.26656 0.97697 0.81737 0.0
H2318 H 0.12006 0.22459 0.83954 0.0
H2319 H 0.14575 0.23464 0.80421 0.0
H2320 H 0.12737 0.25003 0.79471 0.0
H2321 H 0.08723 0.22361 0.82083 0.0
H2322 H 0.07753 0.23162 0.83437 0.0
H2323 H 0.09295 0.22179 0.83888 0.0
H2324 H 0.10385 0.24317 0.85202 0.0
H2325 H 0.08843 0.25306 0.8476 0.0
H2326 H 0.1055 0.25965 0.84301 0.0
H2327 H 0.1058 0.26331 0.7882 0.0
H2328 H 0.08271 0.27436 0.78562 0.0
H2329 H 0.07084 0.25657 0.82531 0.0
C2330 C 0.12192 0.2302 0.82993 0.0
C2331 C 0.13438 0.22824 0.82259 0.0
C2332 C 0.13625 0.2357 0.80994 0.0
C2333 C 0.12588 0.24457 0.80448 0.0
C2334 C 0.11365 0.24604 0.8118 0.0
C2335 C 0.11163 0.23917 0.82431 0.0
C2336 C 0.09733 0.24243 0.82988 0.0
C2337 C 0.08823 0.22906 0.83105 0.0
C2338 C 0.09887 0.25003 0.84396 0.0
C2339 C 0.0916 0.25204 0.81845 0.0
C2340 C 0.10122 0.25396 0.80814 0.0
C2341 C 0.09822 0.26196 0.79626 0.0
C2342 C 0.08503 0.26813 0.79484 0.0
C2343 C 0.07494 0.26637 0.80524 0.0
C2344 C 0.07838 0.25828 0.81727 0.0
H2345 H 0.82289 0.11414 0.84361 0.0
H2346 H 0.82871 0.13735 0.80513 0.0
H2347 H 0.81788 0.11777 0.79169 0.0
H2348 H 0.82978 0.07994 0.82978 0.0
H2349 H 0.81659 0.07122 0.83986 0.0
H2350 H 0.82521 0.08689 0.84644 0.0
H2351 H 0.80107 0.09836 0.84891 0.0
H2352 H 0.79238 0.08274 0.84231 0.0
H2353 H 0.78915 0.0993 0.83392 0.0
H2354 H 0.80566 0.09592 0.78242 0.0
H2355 H 0.79341 0.07343 0.77799 0.0
H2356 H 0.79555 0.06424 0.82246 0.0
C2357 C 0.82186 0.11516 0.83236 0.0
C2358 C 0.82674 0.12736 0.82547 0.0
C2359 C 0.8253 0.12809 0.81069 0.0
C2360 C 0.81906 0.11704 0.80295 0.0
C2361 C 0.8143 0.10525 0.81008 0.0
C2362 C 0.81566 0.10421 0.82445 0.0
C2363 C 0.80955 0.09043 0.82958 0.0
C2364 C 0.82096 0.0816 0.83684 0.0
C2365 C 0.79731 0.09286 0.83925 0.0
C2366 C 0.80444 0.08392 0.81585 0.0
C2367 C 0.8073 0.09264 0.80474 0.0
C2368 C 0.80346 0.08897 0.79104 0.0
C2369 C 0.79655 0.07607 0.78863 0.0
C2370 C 0.79351 0.06687 0.79983 0.0
C2371 C 0.79756 0.07097 0.81363 0.0
H2372 H 0.92722 0.80278 0.8256 0.0
H2373 H 0.94027 0.84628 0.82169 0.0
H2374 H 0.96247 0.83899 0.81176 0.0
H2375 H 0.96113 0.78978 0.83603 0.0
H2376 H 0.95889 0.77371 0.82639 0.0
H2377 H 0.94381 0.78231 0.83286 0.0
H2378 H 0.93258 0.78292 0.80785 0.0
H2379 H 0.94759 0.77428 0.80131 0.0
H2380 H 0.94225 0.79074 0.79388 0.0
H2381 H 0.98353 0.82699 0.80268 0.0
H2382 H 1.00159 0.81122 0.79453 0.0
H2383 H 0.97506 0.77543 0.80441 0.0
C2384 C 0.93476 0.8108 0.82272 0.0
C2385 C 0.9319 0.82515 0.82442 0.0
C2386 C 0.94204 0.83525 0.82032 0.0
C2387 C 0.95476 0.8312 0.81476 0.0
C2388 C 0.95725 0.817 0.81334 0.0
C2389 C 0.94753 0.80695 0.81716 0.0
C2390 C 0.95281 0.79237 0.81455 0.0
C2391 C 0.95425 0.78406 0.82828 0.0
C2392 C 0.94324 0.78463 0.80375 0.0
C2393 C 0.96706 0.7958 0.80871 0.0
C2394 C 0.9694 0.81007 0.80811 0.0
C2395 C 0.98177 0.8158 0.80305 0.0
C2396 C 0.99197 0.80673 0.79837 0.0
C2397 C 0.9898 0.79204 0.79873 0.0
C2398 C 0.97716 0.78657 0.8041 0.0
H2399 H 0.83296 0.9432 0.22469 0.0
H2400 H 0.79562 0.92893 0.20132 0.0
H2401 H 0.78284 0.94934 0.20972 0.0
H2402 H 0.81574 0.95554 0.25431 0.0
H2403 H 0.82755 0.97029 0.25697 0.0
H2404 H 0.83359 0.95473 0.24883 0.0
H2405 H 0.84122 0.96934 0.22744 0.0
H2406 H 0.83518 0.98495 0.23552 0.0
H2407 H 0.82859 0.98011 0.2183 0.0
H2408 H 0.77402 0.97176 0.22145 0.0
H2409 H 0.77027 0.99302 0.23553 0.0
H2410 H 0.81379 0.9922 0.25026 0.0
C2411 C 0.82216 0.94442 0.22111 0.0
C2412 C 0.81537 0.93441 0.21224 0.0
C2413 C 0.80108 0.93634 0.20819 0.0
C2414 C 0.79374 0.94798 0.21285 0.0
C2415 C 0.80081 0.95765 0.22156 0.0
C2416 C 0.81472 0.95593 0.22563 0.0
C2417 C 0.81995 0.96751 0.23527 0.0
C2418 C 0.82447 0.96167 0.2497 0.0
C2419 C 0.83194 0.97598 0.22874 0.0
C2420 C 0.80684 0.97606 0.23607 0.0
C2421 C 0.79585 0.9703 0.22811 0.0
C2422 C 0.78261 0.97636 0.22765 0.0
C2423 C 0.78057 0.98847 0.23564 0.0
C2424 C 0.79171 0.99437 0.24399 0.0
C2425 C 0.805 0.98807 0.24398 0.0
H2426 H 0.10986 0.82281 0.22234 0.0
H2427 H 0.11034 0.79022 0.19102 0.0
H2428 H 0.0888 0.77969 0.20047 0.0
H2429 H 0.09795 0.80149 0.25023 0.0
H2430 H 0.08703 0.8147 0.25724 0.0
H2431 H 0.10233 0.81972 0.24781 0.0
H2432 H 0.08697 0.83462 0.23086 0.0
H2433 H 0.07161 0.82965 0.24025 0.0
H2434 H 0.07207 0.82659 0.22172 0.0
H2435 H 0.06692 0.77245 0.21387 0.0
H2436 H 0.04729 0.76935 0.23004 0.0
H2437 H 0.06127 0.80695 0.25197 0.0
C2438 C 0.10538 0.81356 0.21733 0.0
C2439 C 0.11193 0.80736 0.20593 0.0
C2440 C 0.10573 0.79509 0.19989 0.0
C2441 C 0.0934 0.78907 0.20513 0.0
C2442 C 0.08727 0.79541 0.21642 0.0
C2443 C 0.09307 0.80741 0.22241 0.0
C2444 C 0.08461 0.81212 0.23455 0.0
C2445 C 0.09351 0.81199 0.24827 0.0
C2446 C 0.07845 0.8266 0.23166 0.0
C2447 C 0.07321 0.80086 0.23453 0.0
C2448 C 0.07483 0.79131 0.22399 0.0
C2449 C 0.06555 0.77992 0.22214 0.0
C2450 C 0.05441 0.77823 0.23135 0.0
C2451 C 0.05267 0.78787 0.24229 0.0
C2452 C 0.06222 0.79935 0.24374 0.0
H2453 H 0.94047 0.22151 0.22981 0.0
H2454 H 0.93665 0.25873 0.20406 0.0
H2455 H 0.95809 0.26873 0.21566 0.0
H2456 H 0.95237 0.23838 0.261 0.0
H2457 H 0.96442 0.2249 0.26616 0.0
H2458 H 0.94902 0.2206 0.25553 0.0
H2459 H 0.96456 0.20977 0.23691 0.0
H2460 H 0.98002 0.21403 0.2475 0.0
H2461 H 0.97855 0.22012 0.22969 0.0
H2462 H 0.98012 0.27486 0.23065 0.0
H2463 H 1.00016 0.27648 0.24788 0.0
H2464 H 0.98932 0.2351 0.26324 0.0
C2465 C 0.94421 0.23169 0.22644 0.0
C2466 C 0.93678 0.23931 0.21601 0.0
C2467 C 0.94199 0.25272 0.21216 0.0
C2468 C 0.95425 0.25847 0.21862 0.0
C2469 C 0.96127 0.25068 0.22891 0.0
C2470 C 0.95642 0.23756 0.23276 0.0
C2471 C 0.96568 0.23141 0.24427 0.0
C2472 C 0.95738 0.22867 0.25752 0.0
C2473 C 0.97261 0.21804 0.23929 0.0
C2474 C 0.97638 0.24317 0.24644 0.0
C2475 C 0.97378 0.25418 0.23744 0.0
C2476 C 0.98227 0.26625 0.23771 0.0
C2477 C 0.99364 0.26709 0.24751 0.0
C2478 C 0.99634 0.25595 0.25694 0.0
C2479 C 0.98759 0.24384 0.25623 0.0
H2480 H 0.23761 0.7113 0.59528 0.0
H2481 H 0.20645 0.7424 0.60316 0.0
H2482 H 0.2138 0.75562 0.58225 0.0
H2483 H 0.26417 0.73477 0.58389 0.0
H2484 H 0.27026 0.72305 0.57084 0.0
H2485 H 0.26223 0.71615 0.58621 0.0
H2486 H 0.24406 0.70234 0.57061 0.0
H2487 H 0.25202 0.70924 0.5552 0.0
H2488 H 0.23357 0.71153 0.55768 0.0
H2489 H 0.22516 0.76555 0.55991 0.0
H2490 H 0.2398 0.7713 0.53959 0.0
H2491 H 0.26281 0.73322 0.54696 0.0
C2492 C 0.23215 0.72078 0.59255 0.0
C2493 C 0.22135 0.72571 0.60088 0.0
C2494 C 0.21481 0.73841 0.59704 0.0
C2495 C 0.21886 0.74595 0.58511 0.0
C2496 C 0.2295 0.74071 0.5771 0.0
C2497 C 0.23605 0.72841 0.58075 0.0
C2498 C 0.24741 0.72505 0.57075 0.0
C2499 C 0.26187 0.72474 0.57838 0.0
C2500 C 0.24406 0.71122 0.56311 0.0
C2501 C 0.24632 0.73738 0.56087 0.0
C2502 C 0.23593 0.74634 0.56458 0.0
C2503 C 0.23329 0.75855 0.55693 0.0
C2504 C 0.24161 0.76172 0.54537 0.0
C2505 C 0.25247 0.75274 0.54162 0.0
C2506 C 0.25463 0.74037 0.54947 0.0
H2507 H 0.83143 0.73843 0.60539 0.0
H2508 H 0.79684 0.70943 0.61251 0.0
H2509 H 0.78419 0.71861 0.59158 0.0
H2510 H 0.8109 0.76706 0.59351 0.0
H2511 H 0.82307 0.77261 0.58053 0.0
H2512 H 0.82933 0.76364 0.59601 0.0
H2513 H 0.84071 0.74504 0.58068 0.0
H2514 H 0.83448 0.75396 0.56515 0.0
H2515 H 0.83006 0.73577 0.5677 0.0
H2516 H 0.77512 0.73144 0.56956 0.0
H2517 H 0.77075 0.74673 0.54892 0.0
H2518 H 0.81162 0.76657 0.55637 0.0
C2519 C 0.82127 0.73387 0.6025 0.0
C2520 C 0.81516 0.72321 0.61071 0.0
C2521 C 0.8017 0.71775 0.60658 0.0
C2522 C 0.79445 0.72283 0.59462 0.0
C2523 C 0.80078 0.73336 0.58681 0.0
C2524 C 0.81391 0.73878 0.5906 0.0
C2525 C 0.81841 0.75011 0.58056 0.0
C2526 C 0.82055 0.76418 0.5881 0.0
C2527 C 0.8317 0.74597 0.57308 0.0
C2528 C 0.80576 0.75029 0.57056 0.0
C2529 C 0.79566 0.74056 0.57426 0.0
C2530 C 0.78299 0.73905 0.56656 0.0
C2531 C 0.78059 0.74777 0.55484 0.0
C2532 C 0.79081 0.75785 0.55096 0.0
C2533 C 0.80355 0.75897 0.55896 0.0
H2534 H 0.84091 0.32754 0.61221 0.0
H2535 H 0.8053 0.31696 0.63749 0.0
H2536 H 0.79603 0.30111 0.61909 0.0
H2537 H 0.82237 0.32764 0.57939 0.0
H2538 H 0.83606 0.3198 0.56978 0.0
H2539 H 0.84046 0.3299 0.5852 0.0
H2540 H 0.85369 0.30892 0.59603 0.0
H2541 H 0.84937 0.29876 0.58061 0.0
H2542 H 0.8447 0.29227 0.59756 0.0
H2543 H 0.78961 0.28761 0.59751 0.0
H2544 H 0.78701 0.27647 0.57434 0.0
H2545 H 0.82698 0.29464 0.56284 0.0
C2546 C 0.83129 0.32171 0.61397 0.0
C2547 C 0.82379 0.32368 0.62633 0.0
C2548 C 0.81114 0.31592 0.62808 0.0
C2549 C 0.80581 0.30678 0.6177 0.0
C2550 C 0.81327 0.30531 0.60557 0.0
C2551 C 0.82579 0.31244 0.60366 0.0
C2552 C 0.83148 0.30913 0.58942 0.0
C2553 C 0.83266 0.32241 0.58042 0.0
C2554 C 0.84565 0.30183 0.591 0.0
C2555 C 0.82008 0.2992 0.58359 0.0
C2556 C 0.80969 0.29718 0.59313 0.0
C2557 C 0.79774 0.28901 0.59001 0.0
C2558 C 0.79632 0.28277 0.57679 0.0
C2559 C 0.80679 0.28462 0.56679 0.0
C2560 C 0.81891 0.29286 0.57034 0.0
H2561 H 0.23202 0.33096 0.63062 0.0
H2562 H 0.23972 0.37542 0.6251 0.0
H2563 H 0.25196 0.37082 0.60343 0.0
H2564 H 0.26524 0.32014 0.61879 0.0
H2565 H 0.25848 0.30475 0.60988 0.0
H2566 H 0.24957 0.31141 0.62463 0.0
H2567 H 0.22656 0.31292 0.60957 0.0
H2568 H 0.23541 0.30622 0.59477 0.0
H2569 H 0.2265 0.32261 0.59339 0.0
H2570 H 0.264 0.36167 0.58289 0.0
H2571 H 0.27515 0.34846 0.5645 0.0
H2572 H 0.26041 0.30962 0.58299 0.0
C2573 C 0.23613 0.33971 0.62473 0.0
C2574 C 0.23495 0.35357 0.62961 0.0
C2575 C 0.24062 0.36472 0.62167 0.0
C2576 C 0.24755 0.36222 0.6093 0.0
C2577 C 0.24877 0.34848 0.60491 0.0
C2578 C 0.24323 0.33738 0.61231 0.0
C2579 C 0.2465 0.32361 0.6054 0.0
C2580 C 0.25548 0.31444 0.61526 0.0
C2581 C 0.23293 0.31589 0.60049 0.0
C2582 C 0.25481 0.32874 0.59304 0.0
C2583 C 0.25591 0.34314 0.59299 0.0
C2584 C 0.26322 0.35038 0.58282 0.0
C2585 C 0.26964 0.34274 0.57244 0.0
C2586 C 0.26881 0.32794 0.57224 0.0
C2587 C 0.26117 0.3209 0.5827 0.0
H2588 H 0.24104 0.3393 0.44517 0.0
H2589 H 0.20796 0.30821 0.43778 0.0
H2590 H 0.2147 0.29662 0.46017 0.0
H2591 H 0.26648 0.31619 0.45936 0.0
H2592 H 0.27362 0.32868 0.47186 0.0
H2593 H 0.2656 0.33463 0.45568 0.0
H2594 H 0.24867 0.34983 0.46944 0.0
H2595 H 0.25662 0.34388 0.48568 0.0
H2596 H 0.23797 0.34176 0.48248 0.0
H2597 H 0.22631 0.28783 0.48353 0.0
H2598 H 0.24127 0.28319 0.5048 0.0
H2599 H 0.26622 0.32035 0.49595 0.0
C2600 C 0.23522 0.33002 0.44818 0.0
C2601 C 0.22401 0.32465 0.43962 0.0
C2602 C 0.21653 0.31261 0.44418 0.0
C2603 C 0.22032 0.30592 0.45687 0.0
C2604 C 0.23156 0.31143 0.46496 0.0
C2605 C 0.23883 0.32327 0.46074 0.0
C2606 C 0.25065 0.32711 0.47102 0.0
C2607 C 0.26493 0.32662 0.46407 0.0
C2608 C 0.24833 0.3415 0.47754 0.0
C2609 C 0.24907 0.31553 0.48166 0.0
C2610 C 0.23801 0.30655 0.47812 0.0
C2611 C 0.23493 0.29488 0.4864 0.0
C2612 C 0.24346 0.29232 0.49848 0.0
C2613 C 0.25492 0.30138 0.50212 0.0
C2614 C 0.25755 0.31317 0.49358 0.0
H2615 H 0.22641 0.72728 0.41305 0.0
H2616 H 0.23581 0.68313 0.4148 0.0
H2617 H 0.25069 0.6872 0.43605 0.0
H2618 H 0.26061 0.74009 0.42512 0.0
H2619 H 0.25375 0.75406 0.43524 0.0
H2620 H 0.24412 0.74776 0.41993 0.0
H2621 H 0.22233 0.743 0.43476 0.0
H2622 H 0.2319 0.74926 0.45011 0.0
H2623 H 0.22391 0.73205 0.45006 0.0
H2624 H 0.26413 0.69596 0.45759 0.0
H2625 H 0.27526 0.70869 0.47747 0.0
H2626 H 0.25721 0.74722 0.46183 0.0
C2627 C 0.23153 0.71842 0.41791 0.0
C2628 C 0.22991 0.70485 0.41212 0.0
C2629 C 0.23701 0.69365 0.41881 0.0
C2630 C 0.24543 0.69584 0.43098 0.0
C2631 C 0.24672 0.70931 0.43641 0.0
C2632 C 0.23999 0.72043 0.43008 0.0
C2633 C 0.24305 0.73385 0.43811 0.0
C2634 C 0.25085 0.74457 0.42906 0.0
C2635 C 0.22949 0.73989 0.44358 0.0
C2636 C 0.25248 0.72854 0.45 0.0
C2637 C 0.25447 0.71436 0.4488 0.0
C2638 C 0.2627 0.70708 0.45857 0.0
C2639 C 0.26907 0.71447 0.46983 0.0
C2640 C 0.26725 0.72905 0.47133 0.0
C2641 C 0.25878 0.7361 0.46118 0.0
H2642 H 0.8447 0.74975 0.42057 0.0
H2643 H 0.82203 0.71 0.42168 0.0
H2644 H 0.80982 0.71774 0.44245 0.0
H2645 H 0.84981 0.75328 0.45795 0.0
H2646 H 0.84759 0.77192 0.45781 0.0
H2647 H 0.85436 0.7634 0.4428 0.0
H2648 H 0.83462 0.77401 0.42709 0.0
H2649 H 0.82778 0.78256 0.44204 0.0
H2650 H 0.81657 0.77113 0.43148 0.0
H2651 H 0.80007 0.72974 0.46328 0.0
H2652 H 0.79374 0.74494 0.48268 0.0
H2653 H 0.82295 0.77682 0.46844 0.0
C2654 C 0.83726 0.7426 0.42522 0.0
C2655 C 0.83433 0.72924 0.41933 0.0
C2656 C 0.82434 0.72036 0.42574 0.0
C2657 C 0.81739 0.72463 0.43764 0.0
C2658 C 0.82053 0.73783 0.44313 0.0
C2659 C 0.83025 0.74668 0.43715 0.0
C2660 C 0.83175 0.7603 0.44518 0.0
C2661 C 0.84677 0.76234 0.4513 0.0
C2662 C 0.82742 0.77274 0.43589 0.0
C2663 C 0.82138 0.75772 0.45662 0.0
C2664 C 0.81499 0.7447 0.45521 0.0
C2665 C 0.80498 0.73997 0.46446 0.0
C2666 C 0.80139 0.74874 0.47543 0.0
C2667 C 0.80778 0.76216 0.47716 0.0
C2668 C 0.81794 0.76662 0.46756 0.0
H2669 H 0.8328 0.31713 0.43632 0.0
H2670 H 0.79712 0.34291 0.4255 0.0
H2671 H 0.78484 0.33367 0.44596 0.0
H2672 H 0.81344 0.28745 0.44796 0.0
H2673 H 0.82579 0.28341 0.462 0.0
H2674 H 0.83172 0.29228 0.44662 0.0
H2675 H 0.84229 0.31234 0.46201 0.0
H2676 H 0.83637 0.30353 0.47744 0.0
H2677 H 0.83124 0.32123 0.47384 0.0
H2678 H 0.77619 0.32093 0.46795 0.0
H2679 H 0.77225 0.30577 0.48863 0.0
H2680 H 0.81396 0.28923 0.4849 0.0
C2681 C 0.82248 0.32099 0.4383 0.0
C2682 C 0.81598 0.33076 0.42917 0.0
C2683 C 0.80231 0.33529 0.43214 0.0
C2684 C 0.79526 0.33017 0.44384 0.0
C2685 C 0.80199 0.32054 0.45259 0.0
C2686 C 0.81532 0.31603 0.44993 0.0
C2687 C 0.82022 0.30548 0.46075 0.0
C2688 C 0.82295 0.29132 0.45392 0.0
C2689 C 0.8333 0.31098 0.469 0.0
C2690 C 0.80757 0.30465 0.46986 0.0
C2691 C 0.79713 0.31341 0.46508 0.0
C2692 C 0.78436 0.31408 0.47179 0.0
C2693 C 0.7822 0.30547 0.48356 0.0
C2694 C 0.79276 0.2963 0.48847 0.0
C2695 C 0.80562 0.2961 0.48152 0.0
H2696 H 0.12876 0.71889 0.72531 0.0
H2697 H 0.10813 0.71784 0.68417 0.0
H2698 H 0.08614 0.72524 0.69434 0.0
H2699 H 0.09884 0.70604 0.74441 0.0
H2700 H 0.10244 0.71723 0.75924 0.0
H2701 H 0.11662 0.71156 0.74885 0.0
H2702 H 0.12426 0.73731 0.74473 0.0
H2703 H 0.11014 0.74305 0.75514 0.0
H2704 H 0.1117 0.74941 0.73751 0.0
H2705 H 0.06656 0.73364 0.70867 0.0
H2706 H 0.05056 0.74197 0.72641 0.0
H2707 H 0.08342 0.73743 0.75847 0.0
C2708 C 0.11961 0.72022 0.71845 0.0
C2709 C 0.1202 0.71764 0.70391 0.0
C2710 C 0.10794 0.71947 0.69534 0.0
C2711 C 0.09539 0.72377 0.70102 0.0
C2712 C 0.09515 0.72617 0.71533 0.0
C2713 C 0.10691 0.72443 0.72397 0.0
C2714 C 0.10377 0.72782 0.73901 0.0
C2715 C 0.10552 0.71489 0.74843 0.0
C2716 C 0.11302 0.74013 0.74441 0.0
C2717 C 0.08847 0.73185 0.73744 0.0
C2718 C 0.08374 0.73085 0.72367 0.0
C2719 C 0.07013 0.7344 0.7195 0.0
C2720 C 0.06112 0.73918 0.72963 0.0
C2721 C 0.06568 0.74032 0.74383 0.0
C2722 C 0.07954 0.73647 0.74775 0.0
H2723 H 0.85351 0.63294 0.73771 0.0
H2724 H 0.82875 0.63002 0.69885 0.0
H2725 H 0.81715 0.60856 0.70744 0.0
H2726 H 0.8591 0.59595 0.7417 0.0
H2727 H 0.85788 0.59616 0.76044 0.0
H2728 H 0.86407 0.61148 0.75139 0.0
H2729 H 0.84483 0.62609 0.76248 0.0
H2730 H 0.83859 0.61081 0.77157 0.0
H2731 H 0.82671 0.62055 0.76039 0.0
H2732 H 0.80827 0.58731 0.72016 0.0
H2733 H 0.80285 0.56776 0.73601 0.0
H2734 H 0.8336 0.58412 0.76652 0.0
C2735 C 0.84574 0.62775 0.73093 0.0
C2736 C 0.84203 0.6333 0.71758 0.0
C2737 C 0.83164 0.6262 0.70919 0.0
C2738 C 0.82504 0.61392 0.71394 0.0
C2739 C 0.82895 0.60877 0.72711 0.0
C2740 C 0.83907 0.61544 0.73549 0.0
C2741 C 0.84137 0.60767 0.74921 0.0
C2742 C 0.8565 0.60251 0.75077 0.0
C2743 C 0.83765 0.61683 0.76164 0.0
C2744 C 0.83098 0.59558 0.74722 0.0
C2745 C 0.82391 0.59645 0.73441 0.0
C2746 C 0.81372 0.58655 0.73023 0.0
C2747 C 0.81065 0.57551 0.73937 0.0
C2748 C 0.81773 0.57436 0.75259 0.0
C2749 C 0.82808 0.58457 0.75647 0.0
H2750 H 0.93119 0.32218 0.72747 0.0
H2751 H 0.93161 0.36633 0.73763 0.0
H2752 H 0.95297 0.36319 0.75251 0.0
H2753 H 0.94344 0.30982 0.76135 0.0
H2754 H 0.95406 0.29636 0.75434 0.0
H2755 H 0.93859 0.30199 0.74474 0.0
H2756 H 0.95351 0.30749 0.72325 0.0
H2757 H 0.96902 0.3019 0.73279 0.0
H2758 H 0.96855 0.31912 0.72515 0.0
H2759 H 0.97473 0.35536 0.76595 0.0
H2760 H 0.99495 0.34348 0.777 0.0
H2761 H 0.98052 0.30437 0.75814 0.0
C2762 C 0.93579 0.33123 0.73274 0.0
C2763 C 0.92958 0.34453 0.73134 0.0
C2764 C 0.93593 0.35599 0.73865 0.0
C2765 C 0.94816 0.35433 0.74707 0.0
C2766 C 0.954 0.34113 0.74816 0.0
C2767 C 0.94801 0.32976 0.74121 0.0
C2768 C 0.95644 0.31671 0.74408 0.0
C2769 C 0.9476 0.30556 0.75157 0.0
C2770 C 0.96222 0.31097 0.73051 0.0
C2771 C 0.96815 0.32252 0.75366 0.0
C2772 C 0.96653 0.33662 0.75589 0.0
C2773 C 0.97605 0.34429 0.76432 0.0
C2774 C 0.98751 0.3374 0.77064 0.0
C2775 C 0.98945 0.32291 0.76856 0.0
C2776 C 0.97954 0.31545 0.75991 0.0
H2777 H 0.22959 0.43896 0.72263 0.0
H2778 H 0.19808 0.44082 0.75414 0.0
H2779 H 0.20954 0.46221 0.76375 0.0
H2780 H 0.25876 0.45011 0.74516 0.0
H2781 H 0.26716 0.45997 0.73162 0.0
H2782 H 0.25626 0.44497 0.72714 0.0
H2783 H 0.24118 0.46025 0.71028 0.0
H2784 H 0.25201 0.4753 0.71475 0.0
H2785 H 0.23332 0.47578 0.71679 0.0
H2786 H 0.22491 0.48369 0.77015 0.0
H2787 H 0.2428 0.50279 0.77262 0.0
H2788 H 0.26416 0.48632 0.73717 0.0
C2789 C 0.22513 0.44375 0.73163 0.0
C2790 C 0.21282 0.43813 0.73753 0.0
C2791 C 0.20732 0.44497 0.74921 0.0
C2792 C 0.21382 0.45711 0.75483 0.0
C2793 C 0.2259 0.46237 0.74873 0.0
C2794 C 0.2315 0.45586 0.73739 0.0
C2795 C 0.24461 0.46349 0.73279 0.0
C2796 C 0.25746 0.45408 0.73427 0.0
C2797 C 0.24266 0.46903 0.71776 0.0
C2798 C 0.24552 0.47533 0.74326 0.0
C2799 C 0.23466 0.47455 0.7524 0.0
C2800 C 0.23346 0.48438 0.76302 0.0
C2801 C 0.24365 0.49522 0.76435 0.0
C2802 C 0.2549 0.49614 0.75511 0.0
C2803 C 0.25571 0.48602 0.74443 0.0
H2804 H 0.11881 0.30626 0.3429 0.0
H2805 H 0.12359 0.34111 0.31428 0.0
H2806 H 0.10313 0.3322 0.30004 0.0
H2807 H 0.10887 0.28055 0.3173 0.0
H2808 H 0.09657 0.27178 0.32837 0.0
H2809 H 0.11156 0.28099 0.33602 0.0
H2810 H 0.09514 0.29571 0.35086 0.0
H2811 H 0.0801 0.28654 0.34325 0.0
H2812 H 0.08124 0.30532 0.34226 0.0
H2813 H 0.08133 0.31911 0.28909 0.0
H2814 H 0.06134 0.30308 0.28258 0.0
H2815 H 0.07157 0.27745 0.31885 0.0
C2816 C 0.11551 0.31214 0.33372 0.0
C2817 C 0.1228 0.32446 0.3298 0.0
C2818 C 0.11826 0.3316 0.31749 0.0
C2819 C 0.10659 0.32665 0.30937 0.0
C2820 C 0.09959 0.31451 0.31365 0.0
C2821 C 0.10397 0.30736 0.32555 0.0
C2822 C 0.09487 0.29455 0.32799 0.0
C2823 C 0.10348 0.28118 0.32738 0.0
C2824 C 0.0874 0.2956 0.34191 0.0
C2825 C 0.0846 0.29556 0.31565 0.0
C2826 C 0.08739 0.3071 0.30744 0.0
C2827 C 0.0791 0.31003 0.29548 0.0
C2828 C 0.06776 0.3009 0.29185 0.0
C2829 C 0.06484 0.28898 0.30016 0.0
C2830 C 0.07344 0.28642 0.3122 0.0
H2831 H 0.24577 0.61141 0.31654 0.0
H2832 H 0.20597 0.60524 0.29389 0.0
H2833 H 0.21506 0.58395 0.28304 0.0
H2834 H 0.26792 0.60017 0.28909 0.0
H2835 H 0.28016 0.59185 0.30106 0.0
H2836 H 0.27045 0.60662 0.30668 0.0
H2837 H 0.26101 0.59201 0.32731 0.0
H2838 H 0.2707 0.57722 0.32175 0.0
H2839 H 0.25203 0.57559 0.3238 0.0
H2840 H 0.22919 0.56276 0.27455 0.0
H2841 H 0.24626 0.54404 0.27041 0.0
H2842 H 0.27624 0.56478 0.29887 0.0
C2843 C 0.23898 0.60573 0.30915 0.0
C2844 C 0.22515 0.61015 0.30602 0.0
C2845 C 0.21657 0.6021 0.29655 0.0
C2846 C 0.22168 0.59 0.29026 0.0
C2847 C 0.23541 0.58599 0.29357 0.0
C2848 C 0.24388 0.59366 0.30285 0.0
C2849 C 0.2581 0.58711 0.30503 0.0
C2850 C 0.26985 0.59703 0.30017 0.0
C2851 C 0.2606 0.58272 0.32038 0.0
C2852 C 0.25637 0.57452 0.29557 0.0
C2853 C 0.24328 0.57399 0.28894 0.0
C2854 C 0.23946 0.56313 0.27973 0.0
C2855 C 0.24923 0.55254 0.27739 0.0
C2856 C 0.26261 0.55284 0.28431 0.0
C2857 C 0.26611 0.5641 0.29341 0.0
H2858 H 0.93335 0.72972 0.32102 0.0
H2859 H 0.92449 0.70132 0.28649 0.0
H2860 H 0.94496 0.71097 0.27437 0.0
H2861 H 0.94427 0.7589 0.30061 0.0
H2862 H 0.95793 0.7645 0.31296 0.0
H2863 H 0.94272 0.75514 0.31896 0.0
H2864 H 0.95875 0.73665 0.33074 0.0
H2865 H 0.97401 0.74596 0.32476 0.0
H2866 H 0.97128 0.72779 0.32044 0.0
H2867 H 0.96669 0.72419 0.26577 0.0
H2868 H 0.98714 0.73994 0.26165 0.0
H2869 H 0.98161 0.75919 0.30197 0.0
C2870 C 0.93577 0.7254 0.31098 0.0
C2871 C 0.92718 0.71476 0.30474 0.0
C2872 C 0.93071 0.7096 0.29146 0.0
C2873 C 0.94241 0.71495 0.2845 0.0
C2874 C 0.9506 0.72547 0.29093 0.0
C2875 C 0.94741 0.73062 0.30389 0.0
C2876 C 0.95772 0.74208 0.30848 0.0
C2877 C 0.95021 0.75597 0.31036 0.0
C2878 C 0.96593 0.73786 0.3219 0.0
C2879 C 0.96713 0.74266 0.29606 0.0
C2880 C 0.96295 0.73298 0.28604 0.0
C2881 C 0.97007 0.73177 0.27359 0.0
C2882 C 0.98169 0.74075 0.27133 0.0
C2883 C 0.98604 0.75083 0.28145 0.0
C2884 C 0.97863 0.75164 0.29397 0.0
H2885 H 0.84685 0.42151 0.30404 0.0
H2886 H 0.83741 0.43055 0.34705 0.0
H2887 H 0.82738 0.45301 0.33956 0.0
H2888 H 0.85713 0.45666 0.2946 0.0
H2889 H 0.84942 0.45558 0.27718 0.0
H2890 H 0.85567 0.44006 0.28583 0.0
H2891 H 0.83119 0.42819 0.28203 0.0
H2892 H 0.82488 0.44366 0.27334 0.0
H2893 H 0.81591 0.43671 0.28817 0.0
H2894 H 0.81857 0.47468 0.32749 0.0
H2895 H 0.81125 0.49376 0.31167 0.0
H2896 H 0.82646 0.47089 0.27643 0.0
C2897 C 0.84276 0.42823 0.31192 0.0
C2898 C 0.84291 0.42415 0.32617 0.0
C2899 C 0.83724 0.43326 0.33606 0.0
C2900 C 0.8316 0.44612 0.33192 0.0
C2901 C 0.83168 0.44981 0.31783 0.0
C2902 C 0.83708 0.44114 0.30796 0.0
C2903 C 0.83582 0.4476 0.29347 0.0
C2904 C 0.85038 0.45013 0.28742 0.0
C2905 C 0.82639 0.4385 0.28368 0.0
C2906 C 0.82891 0.46128 0.29674 0.0
C2907 C 0.82661 0.46233 0.31086 0.0
C2908 C 0.82028 0.47395 0.31641 0.0
C2909 C 0.81608 0.48472 0.30731 0.0
C2910 C 0.8182 0.48389 0.29275 0.0
C2911 C 0.8248 0.47199 0.28748 0.0
H2912 H 0.23327 0.62352 0.72366 0.0
H2913 H 0.23676 0.61875 0.67885 0.0
H2914 H 0.25106 0.59786 0.68288 0.0
H2915 H 0.26828 0.61219 0.73351 0.0
H2916 H 0.26277 0.60306 0.74894 0.0
H2917 H 0.25322 0.61797 0.74258 0.0
H2918 H 0.23028 0.60302 0.74144 0.0
H2919 H 0.23976 0.58807 0.74776 0.0
H2920 H 0.22963 0.58704 0.73154 0.0
H2921 H 0.26436 0.57697 0.6917 0.0
H2922 H 0.27589 0.55785 0.70459 0.0
H2923 H 0.26385 0.57601 0.74377 0.0
C2924 C 0.23699 0.61808 0.71467 0.0
C2925 C 0.23387 0.62291 0.7009 0.0
C2926 C 0.23915 0.61549 0.68949 0.0
C2927 C 0.24722 0.60352 0.69167 0.0
C2928 C 0.24999 0.59903 0.70534 0.0
C2929 C 0.24508 0.6061 0.71665 0.0
C2930 C 0.24943 0.59895 0.73027 0.0
C2931 C 0.259 0.60862 0.73936 0.0
C2932 C 0.2365 0.59398 0.73822 0.0
C2933 C 0.25745 0.5867 0.72484 0.0
C2934 C 0.25767 0.58697 0.71043 0.0
C2935 C 0.26433 0.57671 0.703 0.0
C2936 C 0.27094 0.56589 0.71046 0.0
C2937 C 0.27092 0.56532 0.72528 0.0
C2938 C 0.26403 0.57596 0.73249 0.0
H2939 H 0.22393 0.43174 0.31972 0.0
H2940 H 0.25206 0.41645 0.35274 0.0
H2941 H 0.2688 0.43566 0.34794 0.0
H2942 H 0.25112 0.44175 0.29591 0.0
H2943 H 0.24216 0.45705 0.28961 0.0
H2944 H 0.23223 0.44217 0.2957 0.0
H2945 H 0.21998 0.45792 0.31328 0.0
H2946 H 0.22988 0.47284 0.30725 0.0
H2947 H 0.2305 0.46826 0.32553 0.0
H2948 H 0.28251 0.4566 0.33974 0.0
H2949 H 0.29233 0.47765 0.32853 0.0
H2950 H 0.25573 0.47926 0.30039 0.0
C2951 C 0.23366 0.43232 0.32587 0.0
C2952 C 0.23656 0.42253 0.3367 0.0
C2953 C 0.24939 0.42388 0.34458 0.0
C2954 C 0.25905 0.43473 0.34186 0.0
C2955 C 0.25583 0.44417 0.33117 0.0
C2956 C 0.24347 0.44306 0.32326 0.0
C2957 C 0.24259 0.45462 0.31236 0.0
C2958 C 0.24199 0.44853 0.29751 0.0
C2959 C 0.22999 0.46396 0.31476 0.0
C2960 C 0.25638 0.4624 0.31541 0.0
C2961 C 0.26382 0.45619 0.32632 0.0
C2962 C 0.27676 0.46156 0.3312 0.0
C2963 C 0.28222 0.4736 0.3248 0.0
C2964 C 0.27482 0.48021 0.31359 0.0
C2965 C 0.26173 0.47442 0.30883 0.0
H2966 H 0.11765 0.71982 0.29712 0.0
H2967 H 0.11698 0.71934 0.34244 0.0
H2968 H 0.09587 0.73373 0.34144 0.0
H2969 H 0.10603 0.75522 0.29229 0.0
H2970 H 0.09534 0.75134 0.27684 0.0
H2971 H 0.11057 0.7411 0.28102 0.0
H2972 H 0.09514 0.71854 0.28029 0.0
H2973 H 0.07986 0.72871 0.27612 0.0
H2974 H 0.08005 0.71721 0.29107 0.0
H2975 H 0.07463 0.74794 0.33568 0.0
H2976 H 0.05487 0.76117 0.32561 0.0
H2977 H 0.06883 0.75266 0.28389 0.0
C2978 C 0.11304 0.72266 0.30685 0.0
C2979 C 0.11916 0.71845 0.31989 0.0
C2980 C 0.11277 0.72259 0.33233 0.0
C2981 C 0.10066 0.7307 0.33187 0.0
C2982 C 0.09495 0.73465 0.31889 0.0
C2983 C 0.1009 0.7308 0.30659 0.0
C2984 C 0.0926 0.73648 0.29402 0.0
C2985 C 0.10167 0.74664 0.28555 0.0
C2986 C 0.08655 0.72452 0.28484 0.0
C2987 C 0.08103 0.74409 0.3012 0.0
C2988 C 0.08263 0.74289 0.31554 0.0
C2989 C 0.07332 0.74901 0.32446 0.0
C2990 C 0.06213 0.75661 0.3186 0.0
C2991 C 0.06022 0.75813 0.30391 0.0
C2992 C 0.06985 0.75167 0.29514 0.0
H2993 H 0.83533 0.61323 0.31887 0.0
H2994 H 0.79842 0.62133 0.34256 0.0
H2995 H 0.78744 0.59933 0.33386 0.0
H2996 H 0.81743 0.59847 0.28903 0.0
H2997 H 0.83049 0.58555 0.2862 0.0
H2998 H 0.83546 0.60183 0.29449 0.0
H2999 H 0.84613 0.58835 0.31572 0.0
H3000 H 0.84118 0.57202 0.30748 0.0
H3001 H 0.8354 0.57578 0.32476 0.0
H3002 H 0.78019 0.57628 0.32194 0.0
H3003 H 0.77755 0.55469 0.30778 0.0
H3004 H 0.8195 0.56166 0.29271 0.0
C3005 C 0.82501 0.61034 0.32239 0.0
C3006 C 0.81777 0.61914 0.33139 0.0
C3007 C 0.80415 0.61495 0.3355 0.0
C3008 C 0.79784 0.60239 0.33069 0.0
C3009 C 0.80526 0.594 0.3218 0.0
C3010 C 0.81857 0.59782 0.31772 0.0
C3011 C 0.82426 0.58711 0.30793 0.0
C3012 C 0.82707 0.59363 0.29357 0.0
C3013 C 0.83752 0.58042 0.31436 0.0
C3014 C 0.81207 0.57671 0.30707 0.0
C3015 C 0.80119 0.58081 0.31514 0.0
C3016 C 0.7887 0.57295 0.31565 0.0
C3017 C 0.78729 0.56068 0.30759 0.0
C3018 C 0.79831 0.55638 0.29916 0.0
C3019 C 0.81087 0.56453 0.29908 0.0
H3020 H 0.9304 0.30774 0.32824 0.0
H3021 H 0.9463 0.31706 0.37029 0.0
H3022 H 0.96908 0.30728 0.36474 0.0
H3023 H 0.94735 0.27535 0.32483 0.0
H3024 H 0.95149 0.27766 0.30673 0.0
H3025 H 0.9365 0.2861 0.31356 0.0
H3026 H 0.94614 0.31009 0.3053 0.0
H3027 H 0.96114 0.30171 0.29838 0.0
H3028 H 0.96362 0.31571 0.3108 0.0
H3029 H 0.98948 0.29507 0.35555 0.0
H3030 H 1.00692 0.28203 0.3427 0.0
H3031 H 0.9789 0.2811 0.30607 0.0
C3032 C 0.93875 0.30793 0.33619 0.0
C3033 C 0.93644 0.31307 0.34978 0.0
C3034 C 0.94766 0.31297 0.35991 0.0
C3035 C 0.9607 0.30751 0.35683 0.0
C3036 C 0.96253 0.30226 0.34351 0.0
C3037 C 0.95196 0.30251 0.33327 0.0
C3038 C 0.95673 0.2958 0.31991 0.0
C3039 C 0.94747 0.28297 0.31604 0.0
C3040 C 0.95692 0.30646 0.30788 0.0
C3041 C 0.97153 0.29157 0.32435 0.0
C3042 C 0.97459 0.29542 0.33803 0.0
C3043 C 0.98727 0.29212 0.34479 0.0
C3044 C 0.99708 0.28464 0.33744 0.0
C3045 C 0.99429 0.28058 0.3234 0.0
C3046 C 0.98137 0.28424 0.31673 0.0
H3047 H 0.84116 0.4485 0.73267 0.0
H3048 H 0.80418 0.43451 0.70859 0.0
H3049 H 0.79123 0.45477 0.71711 0.0
H3050 H 0.82342 0.46037 0.76228 0.0
H3051 H 0.83518 0.4751 0.76532 0.0
H3052 H 0.84137 0.45966 0.75706 0.0
H3053 H 0.84932 0.47457 0.736 0.0
H3054 H 0.84314 0.49005 0.7442 0.0
H3055 H 0.83681 0.48546 0.72683 0.0
H3056 H 0.78225 0.47722 0.72885 0.0
H3057 H 0.77839 0.49854 0.74285 0.0
H3058 H 0.82156 0.49721 0.75856 0.0
C3059 C 0.8304 0.44974 0.72898 0.0
C3060 C 0.82378 0.43986 0.71985 0.0
C3061 C 0.80952 0.44182 0.71565 0.0
C3062 C 0.80208 0.45337 0.72038 0.0
C3063 C 0.80899 0.46292 0.72936 0.0
C3064 C 0.82285 0.46115 0.7336 0.0
C3065 C 0.82792 0.47262 0.74349 0.0
C3066 C 0.83222 0.46657 0.75789 0.0
C3067 C 0.84001 0.48118 0.73725 0.0
C3068 C 0.81477 0.48115 0.74421 0.0
C3069 C 0.80392 0.47551 0.736 0.0
C3070 C 0.79073 0.4817 0.73528 0.0
C3071 C 0.78863 0.49384 0.74323 0.0
C3072 C 0.79963 0.49963 0.75184 0.0
C3073 C 0.81286 0.49314 0.75214 0.0
H3074 H 0.11703 0.33638 0.73466 0.0
H3075 H 0.11665 0.30698 0.70029 0.0
H3076 H 0.09521 0.29567 0.7091 0.0
H3077 H 0.10541 0.31239 0.76059 0.0
H3078 H 0.09475 0.32488 0.76912 0.0
H3079 H 0.10993 0.33075 0.75993 0.0
H3080 H 0.09443 0.34734 0.74487 0.0
H3081 H 0.0792 0.34152 0.75403 0.0
H3082 H 0.0793 0.34034 0.73526 0.0
H3083 H 0.07364 0.28715 0.72222 0.0
H3084 H 0.0543 0.28248 0.7384 0.0
H3085 H 0.06879 0.31782 0.76361 0.0
C3086 C 0.11237 0.32767 0.72886 0.0
C3087 C 0.11867 0.32259 0.71677 0.0
C3088 C 0.11224 0.31099 0.70969 0.0
C3089 C 0.09997 0.30453 0.71457 0.0
C3090 C 0.09411 0.30975 0.72656 0.0
C3091 C 0.10011 0.3211 0.73358 0.0
C3092 C 0.09191 0.3246 0.74632 0.0
C3093 C 0.10105 0.32306 0.75978 0.0
C3094 C 0.08585 0.33932 0.74504 0.0
C3095 C 0.0804 0.31345 0.74541 0.0
C3096 C 0.08179 0.30497 0.73395 0.0
C3097 C 0.07244 0.29379 0.73119 0.0
C3098 C 0.06146 0.29121 0.74042 0.0
C3099 C 0.05993 0.29978 0.75227 0.0
C3100 C 0.06955 0.31106 0.75464 0.0
H3101 H 0.94019 0.7288 0.71316 0.0
H3102 H 0.93478 0.76545 0.68686 0.0
H3103 H 0.95666 0.77582 0.69721 0.0
H3104 H 0.95375 0.74639 0.74342 0.0
H3105 H 0.96607 0.73301 0.74815 0.0
H3106 H 0.9501 0.72851 0.73849 0.0
H3107 H 0.96452 0.71728 0.71919 0.0
H3108 H 0.98054 0.72176 0.72881 0.0
H3109 H 0.97803 0.72748 0.71096 0.0
H3110 H 0.97931 0.78245 0.71116 0.0
H3111 H 1.0002 0.78445 0.72733 0.0
H3112 H 0.99071 0.74307 0.74352 0.0
C3113 C 0.94366 0.73893 0.7094 0.0
C3114 C 0.93564 0.74628 0.69918 0.0
C3115 C 0.94055 0.75965 0.69482 0.0
C3116 C 0.95305 0.7656 0.70057 0.0
C3117 C 0.96065 0.75807 0.71065 0.0
C3118 C 0.95612 0.74499 0.71497 0.0
C3119 C 0.96604 0.73907 0.72606 0.0
C3120 C 0.95854 0.73661 0.73984 0.0
C3121 C 0.97268 0.7256 0.72095 0.0
C3122 C 0.9768 0.75087 0.72739 0.0
C3123 C 0.97359 0.76176 0.71843 0.0
C3124 C 0.98195 0.77392 0.71816 0.0
C3125 C 0.99381 0.77498 0.72735 0.0
C3126 C 0.99718 0.76393 0.73668 0.0
C3127 C 0.98855 0.75172 0.73651 0.0
H3128 H 0.73538 0.20769 0.60038 0.0
H3129 H 0.71338 0.2431 0.61637 0.0
H3130 H 0.72077 0.25728 0.59612 0.0
H3131 H 0.76462 0.22669 0.58805 0.0
H3132 H 0.76637 0.2159 0.57286 0.0
H3133 H 0.75885 0.20866 0.58833 0.0
H3134 H 0.73656 0.20106 0.5738 0.0
H3135 H 0.74401 0.20833 0.55828 0.0
H3136 H 0.72709 0.21389 0.56363 0.0
H3137 H 0.73143 0.2678 0.57373 0.0
H3138 H 0.74487 0.27345 0.55258 0.0
H3139 H 0.75911 0.23076 0.55173 0.0
C3140 C 0.73188 0.21835 0.59956 0.0
C3141 C 0.72368 0.22419 0.61 0.0
C3142 C 0.71972 0.23835 0.6086 0.0
C3143 C 0.7238 0.24648 0.59706 0.0
C3144 C 0.73186 0.24033 0.58695 0.0
C3145 C 0.73584 0.22657 0.58816 0.0
C3146 C 0.74487 0.22244 0.57624 0.0
C3147 C 0.75955 0.21818 0.5817 0.0
C3148 C 0.7377 0.21074 0.56747 0.0
C3149 C 0.74548 0.23603 0.56815 0.0
C3150 C 0.73787 0.24627 0.57436 0.0
C3151 C 0.73734 0.25979 0.56877 0.0
C3152 C 0.74494 0.26291 0.55671 0.0
C3153 C 0.75303 0.25257 0.55043 0.0
C3154 C 0.75303 0.23895 0.5562 0.0
H3155 H 0.33421 0.24035 0.6225 0.0
H3156 H 0.30064 0.20969 0.62762 0.0
H3157 H 0.28751 0.21999 0.60754 0.0
H3158 H 0.31256 0.26905 0.61297 0.0
H3159 H 0.32444 0.27603 0.60037 0.0
H3160 H 0.33113 0.26616 0.61511 0.0
H3161 H 0.34305 0.24924 0.59836 0.0
H3162 H 0.33642 0.25908 0.58357 0.0
H3163 H 0.33264 0.24061 0.58475 0.0
H3164 H 0.27791 0.23403 0.58648 0.0
H3165 H 0.27306 0.25045 0.56682 0.0
H3166 H 0.31319 0.27128 0.57573 0.0
C3167 C 0.32417 0.23568 0.61934 0.0
C3168 C 0.31849 0.22421 0.62675 0.0
C3169 C 0.30518 0.21861 0.62231 0.0
C3170 C 0.29765 0.22433 0.61083 0.0
C3171 C 0.30355 0.23567 0.60381 0.0
C3172 C 0.31653 0.24124 0.60792 0.0
C3173 C 0.32057 0.25346 0.59873 0.0
C3174 C 0.32227 0.26697 0.60731 0.0
C3175 C 0.33396 0.25041 0.59089 0.0
C3176 C 0.30785 0.25393 0.58883 0.0
C3177 C 0.29811 0.2436 0.59185 0.0
C3178 C 0.2855 0.24215 0.58403 0.0
C3179 C 0.28282 0.2515 0.57288 0.0
C3180 C 0.2927 0.26217 0.56968 0.0
C3181 C 0.30535 0.26328 0.57783 0.0
H3182 H 0.34202 0.81312 0.6101 0.0
H3183 H 0.31132 0.84596 0.61045 0.0
H3184 H 0.29982 0.83618 0.58908 0.0
H3185 H 0.34543 0.81237 0.5727 0.0
H3186 H 0.34724 0.7937 0.57198 0.0
H3187 H 0.35293 0.80309 0.58749 0.0
H3188 H 0.33694 0.78723 0.60235 0.0
H3189 H 0.33119 0.77778 0.5869 0.0
H3190 H 0.31849 0.78564 0.59774 0.0
H3191 H 0.29177 0.82302 0.56743 0.0
H3192 H 0.28769 0.8075 0.54723 0.0
H3193 H 0.32363 0.78312 0.56067 0.0
C3194 C 0.33295 0.81835 0.60565 0.0
C3195 C 0.32759 0.83035 0.61208 0.0
C3196 C 0.31554 0.83667 0.60593 0.0
C3197 C 0.30897 0.83123 0.59371 0.0
C3198 C 0.31454 0.81944 0.58766 0.0
C3199 C 0.32625 0.81307 0.59342 0.0
C3200 C 0.33012 0.80051 0.58482 0.0
C3201 C 0.3448 0.80255 0.5789 0.0
C3202 C 0.32912 0.78699 0.59347 0.0
C3203 C 0.31878 0.80085 0.5733 0.0
C3204 C 0.3099 0.81185 0.57517 0.0
C3205 C 0.29863 0.81434 0.56591 0.0
C3206 C 0.29634 0.80536 0.55446 0.0
C3207 C 0.30525 0.79394 0.55227 0.0
C3208 C 0.31666 0.79176 0.56189 0.0
H3209 H 0.7217 0.82493 0.60867 0.0
H3210 H 0.74843 0.86029 0.62096 0.0
H3211 H 0.76418 0.85519 0.60188 0.0
H3212 H 0.74988 0.80207 0.59833 0.0
H3213 H 0.74 0.79489 0.58356 0.0
H3214 H 0.73101 0.80082 0.5986 0.0
H3215 H 0.71608 0.81721 0.58278 0.0
H3216 H 0.72504 0.81134 0.56771 0.0
H3217 H 0.72475 0.8297 0.5717 0.0
H3218 H 0.77686 0.84679 0.58141 0.0
H3219 H 0.7856 0.83584 0.56037 0.0
H3220 H 0.75061 0.80608 0.56025 0.0
C3221 C 0.73095 0.83149 0.6074 0.0
C3222 C 0.73378 0.84307 0.61631 0.0
C3223 C 0.74593 0.85148 0.6142 0.0
C3224 C 0.755 0.84862 0.60343 0.0
C3225 C 0.75183 0.8373 0.59473 0.0
C3226 C 0.74012 0.82884 0.59653 0.0
C3227 C 0.73901 0.81763 0.5853 0.0
C3228 C 0.74004 0.80299 0.59184 0.0
C3229 C 0.72541 0.81906 0.57634 0.0
C3230 C 0.75187 0.8212 0.57692 0.0
C3231 C 0.75912 0.83254 0.58264 0.0
C3232 C 0.77125 0.83792 0.5768 0.0
C3233 C 0.77608 0.83166 0.56472 0.0
C3234 C 0.7688 0.82011 0.55842 0.0
C3235 C 0.75654 0.81479 0.56476 0.0
H3236 H 0.72831 0.83873 0.4337 0.0
H3237 H 0.70122 0.80339 0.42229 0.0
H3238 H 0.71056 0.79034 0.4429 0.0
H3239 H 0.75774 0.81931 0.44494 0.0
H3240 H 0.76273 0.83104 0.459 0.0
H3241 H 0.75341 0.83752 0.44373 0.0
H3242 H 0.73419 0.84717 0.45934 0.0
H3243 H 0.74345 0.84068 0.47467 0.0
H3244 H 0.72539 0.83555 0.4712 0.0
H3245 H 0.72362 0.78106 0.46522 0.0
H3246 H 0.73969 0.77641 0.48567 0.0
H3247 H 0.75762 0.81816 0.48169 0.0
C3248 C 0.72413 0.82833 0.43561 0.0
C3249 C 0.71391 0.82217 0.4264 0.0
C3250 C 0.70908 0.80835 0.42915 0.0
C3251 C 0.71426 0.80088 0.44089 0.0
C3252 C 0.72432 0.80734 0.44979 0.0
C3253 C 0.72919 0.82077 0.4472 0.0
C3254 C 0.74035 0.82531 0.45792 0.0
C3255 C 0.75438 0.82847 0.45098 0.0
C3256 C 0.73555 0.83792 0.46628 0.0
C3257 C 0.74114 0.81234 0.46694 0.0
C3258 C 0.73178 0.80206 0.46224 0.0
C3259 C 0.73095 0.78909 0.46897 0.0
C3260 C 0.74006 0.78654 0.48061 0.0
C3261 C 0.74994 0.79689 0.4853 0.0
C3262 C 0.75024 0.80997 0.4784 0.0
H3263 H 0.73955 0.21449 0.4156 0.0
H3264 H 0.69868 0.21088 0.43398 0.0
H3265 H 0.70923 0.21756 0.45687 0.0
H3266 H 0.75966 0.2009 0.44613 0.0
H3267 H 0.77428 0.21281 0.44389 0.0
H3268 H 0.76372 0.20713 0.42892 0.0
H3269 H 0.75904 0.23289 0.42229 0.0
H3270 H 0.76956 0.23864 0.43724 0.0
H3271 H 0.75171 0.24428 0.43495 0.0
H3272 H 0.7237 0.22587 0.47752 0.0
H3273 H 0.74145 0.23472 0.49483 0.0
H3274 H 0.77338 0.23265 0.46382 0.0
C3275 C 0.73287 0.2149 0.42449 0.0
C3276 C 0.7182 0.21225 0.42287 0.0
C3277 C 0.70986 0.21307 0.4348 0.0
C3278 C 0.71578 0.21678 0.44791 0.0
C3279 C 0.73015 0.21958 0.44909 0.0
C3280 C 0.73864 0.21861 0.43775 0.0
C3281 C 0.75375 0.22256 0.44193 0.0
C3282 C 0.76342 0.2101 0.44011 0.0
C3283 C 0.75881 0.23535 0.43361 0.0
C3284 C 0.75234 0.22605 0.4573 0.0
C3285 C 0.73861 0.22422 0.46117 0.0
C3286 C 0.73451 0.22725 0.47463 0.0
C3287 C 0.74466 0.23234 0.48439 0.0
C3288 C 0.75882 0.23437 0.48075 0.0
C3289 C 0.7627 0.23102 0.46701 0.0
H3290 H 0.34681 0.24719 0.4414 0.0
H3291 H 0.3186 0.21102 0.44022 0.0
H3292 H 0.30649 0.22018 0.4605 0.0
H3293 H 0.35034 0.24947 0.47889 0.0
H3294 H 0.35082 0.26829 0.47911 0.0
H3295 H 0.35708 0.25908 0.46427 0.0
H3296 H 0.33994 0.27264 0.44789 0.0
H3297 H 0.33363 0.2819 0.46267 0.0
H3298 H 0.32147 0.27231 0.4513 0.0
H3299 H 0.2976 0.2331 0.48115 0.0
H3300 H 0.29259 0.24876 0.50059 0.0
H3301 H 0.32668 0.27651 0.4886 0.0
C3302 C 0.33816 0.24111 0.44545 0.0
C3303 C 0.33367 0.22835 0.43912 0.0
C3304 C 0.32214 0.2209 0.44469 0.0
C3305 C 0.31523 0.22598 0.45628 0.0
C3306 C 0.31996 0.23854 0.46225 0.0
C3307 C 0.33116 0.24601 0.45704 0.0
C3308 C 0.33418 0.2592 0.46544 0.0
C3309 C 0.34898 0.25899 0.47234 0.0
C3310 C 0.33218 0.27229 0.45628 0.0
C3311 C 0.32297 0.25795 0.47625 0.0
C3312 C 0.31487 0.24597 0.47419 0.0
C3313 C 0.30385 0.24254 0.48281 0.0
C3314 C 0.30103 0.25158 0.49381 0.0
C3315 C 0.30917 0.26397 0.49617 0.0
C3316 C 0.32031 0.26711 0.48721 0.0
H3317 H 0.32524 0.81653 0.42205 0.0
H3318 H 0.29276 0.84753 0.41839 0.0
H3319 H 0.28111 0.83699 0.43863 0.0
H3320 H 0.30239 0.7876 0.43159 0.0
H3321 H 0.31522 0.78017 0.44356 0.0
H3322 H 0.32084 0.79014 0.42871 0.0
H3323 H 0.33572 0.80647 0.44517 0.0
H3324 H 0.33013 0.79657 0.46007 0.0
H3325 H 0.32743 0.81513 0.45927 0.0
H3326 H 0.27295 0.82277 0.45976 0.0
H3327 H 0.26948 0.80644 0.47963 0.0
H3328 H 0.30728 0.78502 0.46899 0.0
C3329 C 0.3156 0.82104 0.42537 0.0
C3330 C 0.31 0.83294 0.41857 0.0
C3331 C 0.29743 0.83856 0.42349 0.0
C3332 C 0.29066 0.83258 0.43495 0.0
C3333 C 0.29652 0.82092 0.44146 0.0
C3334 C 0.30871 0.81522 0.43681 0.0
C3335 C 0.31299 0.80278 0.44567 0.0
C3336 C 0.31285 0.78938 0.43686 0.0
C3337 C 0.32742 0.8054 0.45298 0.0
C3338 C 0.30138 0.80241 0.45607 0.0
C3339 C 0.29191 0.8129 0.45349 0.0
C3340 C 0.28032 0.81452 0.46185 0.0
C3341 C 0.27841 0.8052 0.47311 0.0
C3342 C 0.28809 0.79445 0.47595 0.0
C3343 C 0.29966 0.79312 0.46721 0.0
H3344 H 0.62376 0.22872 0.71371 0.0
H3345 H 0.64134 0.1968 0.74108 0.0
H3346 H 0.62272 0.20077 0.75775 0.0
H3347 H 0.61437 0.25224 0.74118 0.0
H3348 H 0.59841 0.25764 0.73227 0.0
H3349 H 0.61302 0.25218 0.72235 0.0
H3350 H 0.59707 0.23366 0.7097 0.0
H3351 H 0.58242 0.23905 0.71958 0.0
H3352 H 0.58752 0.22103 0.71988 0.0
H3353 H 0.60215 0.20822 0.77158 0.0
H3354 H 0.58133 0.21862 0.78153 0.0
H3355 H 0.57713 0.24595 0.74541 0.0
C3356 C 0.62381 0.22263 0.72326 0.0
C3357 C 0.63409 0.21237 0.72598 0.0
C3358 C 0.63353 0.20454 0.73856 0.0
C3359 C 0.62302 0.20679 0.74818 0.0
C3360 C 0.6131 0.21695 0.74515 0.0
C3361 C 0.6134 0.22476 0.73301 0.0
C3362 C 0.60147 0.23504 0.73228 0.0
C3363 C 0.60716 0.25017 0.73201 0.0
C3364 C 0.59153 0.23201 0.71961 0.0
C3365 C 0.5944 0.23178 0.7459 0.0
C3366 C 0.60128 0.2213 0.75315 0.0
C3367 C 0.59668 0.21641 0.76596 0.0
C3368 C 0.58475 0.22235 0.7715 0.0
C3369 C 0.57745 0.23312 0.76429 0.0
C3370 C 0.58247 0.23787 0.75131 0.0
H3371 H 0.35967 0.12135 0.74152 0.0
H3372 H 0.3223 0.13697 0.71998 0.0
H3373 H 0.30855 0.11709 0.72898 0.0
H3374 H 0.35183 0.08467 0.73475 0.0
H3375 H 0.35881 0.07892 0.75149 0.0
H3376 H 0.36579 0.09453 0.74354 0.0
H3377 H 0.36055 0.10858 0.76573 0.0
H3378 H 0.35349 0.09303 0.77373 0.0
H3379 H 0.34297 0.10841 0.77207 0.0
H3380 H 0.29866 0.09584 0.74053 0.0
H3381 H 0.2933 0.07425 0.75327 0.0
H3382 H 0.3372 0.07127 0.7665 0.0
C3383 C 0.34863 0.12055 0.73856 0.0
C3384 C 0.3421 0.13092 0.7301 0.0
C3385 C 0.32756 0.12943 0.72666 0.0
C3386 C 0.31964 0.11808 0.73165 0.0
C3387 C 0.32638 0.10816 0.74002 0.0
C3388 C 0.34055 0.1092 0.7434 0.0
C3389 C 0.34518 0.09698 0.7525 0.0
C3390 C 0.35605 0.08826 0.74513 0.0
C3391 C 0.35088 0.10206 0.76686 0.0
C3392 C 0.33137 0.08896 0.75374 0.0
C3393 C 0.32069 0.09564 0.74646 0.0
C3394 C 0.30697 0.09043 0.74615 0.0
C3395 C 0.30405 0.07802 0.75339 0.0
C3396 C 0.31481 0.07077 0.76085 0.0
C3397 C 0.32867 0.07645 0.761 0.0
H3398 H 0.42883 0.85378 0.73786 0.0
H3399 H 0.41987 0.82431 0.70421 0.0
H3400 H 0.44085 0.81114 0.71142 0.0
H3401 H 0.46635 0.85395 0.73614 0.0
H3402 H 0.46944 0.85483 0.75479 0.0
H3403 H 0.45378 0.86212 0.74693 0.0
H3404 H 0.43851 0.84679 0.76302 0.0
H3405 H 0.45412 0.83948 0.77097 0.0
H3406 H 0.44067 0.82813 0.76328 0.0
H3407 H 0.46287 0.80111 0.72221 0.0
H3408 H 0.48414 0.79482 0.73586 0.0
H3409 H 0.47844 0.83014 0.76325 0.0
C3410 C 0.43118 0.84449 0.73206 0.0
C3411 C 0.42264 0.8402 0.72036 0.0
C3412 C 0.4263 0.82804 0.71301 0.0
C3413 C 0.43818 0.8204 0.7171 0.0
C3414 C 0.44633 0.82496 0.72862 0.0
C3415 C 0.44298 0.83669 0.73603 0.0
C3416 C 0.45349 0.83927 0.74808 0.0
C3417 C 0.46122 0.85338 0.74638 0.0
C3418 C 0.44626 0.83836 0.76217 0.0
C3419 C 0.46328 0.82716 0.74626 0.0
C3420 C 0.45895 0.81905 0.73497 0.0
C3421 C 0.46631 0.80734 0.73114 0.0
C3422 C 0.47839 0.8038 0.73906 0.0
C3423 C 0.48307 0.81187 0.75079 0.0
C3424 C 0.47532 0.82375 0.75434 0.0
H3425 H 0.71993 0.9307 0.71897 0.0
H3426 H 0.69009 0.91774 0.74989 0.0
H3427 H 0.69807 0.93725 0.76503 0.0
H3428 H 0.74791 0.94199 0.74386 0.0
H3429 H 0.75321 0.95678 0.73347 0.0
H3430 H 0.74558 0.94147 0.7251 0.0
H3431 H 0.72659 0.95666 0.71292 0.0
H3432 H 0.73415 0.972 0.72126 0.0
H3433 H 0.71589 0.96754 0.72335 0.0
H3434 H 0.70868 0.95825 0.77671 0.0
H3435 H 0.72126 0.97972 0.78425 0.0
H3436 H 0.74428 0.97992 0.74593 0.0
C3437 C 0.7152 0.93191 0.72899 0.0
C3438 C 0.70428 0.9227 0.73318 0.0
C3439 C 0.69829 0.92474 0.74633 0.0
C3440 C 0.70282 0.93576 0.75507 0.0
C3441 C 0.7134 0.94474 0.75058 0.0
C3442 C 0.71956 0.94298 0.73787 0.0
C3443 C 0.7305 0.95446 0.7355 0.0
C3444 C 0.74517 0.9483 0.73442 0.0
C3445 C 0.72654 0.96318 0.72249 0.0
C3446 C 0.72942 0.96294 0.74881 0.0
C3447 C 0.71952 0.95706 0.75734 0.0
C3448 C 0.71645 0.96298 0.7701 0.0
C3449 C 0.7236 0.97528 0.77425 0.0
C3450 C 0.73374 0.9817 0.76569 0.0
C3451 C 0.73671 0.9753 0.75281 0.0
H3452 H 0.60527 0.81087 0.32942 0.0
H3453 H 0.6186 0.83722 0.29522 0.0
H3454 H 0.5984 0.82839 0.28058 0.0
H3455 H 0.594 0.78167 0.30889 0.0
H3456 H 0.57935 0.77742 0.3196 0.0
H3457 H 0.59469 0.78608 0.32719 0.0
H3458 H 0.57927 0.80599 0.33596 0.0
H3459 H 0.56387 0.7974 0.32838 0.0
H3460 H 0.56806 0.81519 0.32366 0.0
H3461 H 0.57614 0.8161 0.26961 0.0
H3462 H 0.5551 0.80129 0.26358 0.0
H3463 H 0.55697 0.78374 0.30543 0.0
C3464 C 0.60389 0.81498 0.31892 0.0
C3465 C 0.61353 0.82485 0.31355 0.0
C3466 C 0.61144 0.8296 0.29959 0.0
C3467 C 0.59993 0.8247 0.29121 0.0
C3468 C 0.59059 0.81501 0.29692 0.0
C3469 C 0.59253 0.81021 0.31047 0.0
C3470 C 0.58129 0.79961 0.31418 0.0
C3471 C 0.58772 0.78535 0.31767 0.0
C3472 C 0.57261 0.80487 0.32626 0.0
C3473 C 0.57269 0.79912 0.30061 0.0
C3474 C 0.5781 0.80806 0.29072 0.0
C3475 C 0.57184 0.8091 0.27733 0.0
C3476 C 0.55986 0.80069 0.27399 0.0
C3477 C 0.55433 0.79133 0.284 0.0
C3478 C 0.56086 0.79074 0.29748 0.0
H3479 H 0.73379 0.106 0.32971 0.0
H3480 H 0.70918 0.12047 0.29374 0.0
H3481 H 0.71657 0.10002 0.28026 0.0
H3482 H 0.76279 0.09463 0.31106 0.0
H3483 H 0.76601 0.07978 0.32226 0.0
H3484 H 0.75797 0.09502 0.32908 0.0
H3485 H 0.73695 0.07974 0.33703 0.0
H3486 H 0.74492 0.06445 0.33017 0.0
H3487 H 0.72738 0.06895 0.32444 0.0
H3488 H 0.7281 0.07804 0.2703 0.0
H3489 H 0.74249 0.05743 0.26522 0.0
H3490 H 0.75922 0.05816 0.30793 0.0
C3491 C 0.72994 0.10495 0.31898 0.0
C3492 C 0.72092 0.11495 0.31281 0.0
C3493 C 0.71599 0.11292 0.29879 0.0
C3494 C 0.72018 0.10135 0.29102 0.0
C3495 C 0.72925 0.09179 0.29742 0.0
C3496 C 0.734 0.09351 0.31113 0.0
C3497 C 0.74396 0.0821 0.31559 0.0
C3498 C 0.75854 0.08826 0.31973 0.0
C3499 C 0.73794 0.07329 0.32751 0.0
C3500 C 0.7443 0.07379 0.30221 0.0
C3501 C 0.73571 0.0794 0.29181 0.0
C3502 C 0.73477 0.07354 0.27844 0.0
C3503 C 0.74295 0.06181 0.27564 0.0
C3504 C 0.752 0.05612 0.28614 0.0
C3505 C 0.75243 0.06217 0.29961 0.0
H3506 H 0.42445 0.23757 0.33268 0.0
H3507 H 0.44558 0.19937 0.34453 0.0
H3508 H 0.4681 0.20984 0.33748 0.0
H3509 H 0.44428 0.24502 0.30228 0.0
H3510 H 0.4448 0.26364 0.30493 0.0
H3511 H 0.43036 0.25328 0.31121 0.0
H3512 H 0.43523 0.26303 0.33614 0.0
H3513 H 0.44971 0.2734 0.32994 0.0
H3514 H 0.45245 0.26141 0.34428 0.0
H3515 H 0.48827 0.22409 0.32826 0.0
H3516 H 0.50464 0.24138 0.31808 0.0
H3517 H 0.47062 0.27043 0.31246 0.0
C3518 C 0.43381 0.23139 0.33377 0.0
C3519 C 0.4332 0.21764 0.33925 0.0
C3520 C 0.44576 0.20999 0.34059 0.0
C3521 C 0.45861 0.21582 0.33654 0.0
C3522 C 0.45883 0.22937 0.3312 0.0
C3523 C 0.44678 0.2371 0.32986 0.0
C3524 C 0.44991 0.25143 0.32375 0.0
C3525 C 0.44186 0.25346 0.30971 0.0
C3526 C 0.44663 0.263 0.33415 0.0
C3527 C 0.46558 0.25051 0.32176 0.0
C3528 C 0.47051 0.23768 0.3261 0.0
C3529 C 0.48454 0.2342 0.3249 0.0
C3530 C 0.49375 0.24406 0.31907 0.0
C3531 C 0.48897 0.2573 0.31456 0.0
C3532 C 0.47468 0.26053 0.31604 0.0
H3533 H 0.317 0.93069 0.32481 0.0
H3534 H 0.34664 0.92799 0.29163 0.0
H3535 H 0.33728 0.94962 0.28111 0.0
H3536 H 0.28834 0.94332 0.30389 0.0
H3537 H 0.28232 0.95484 0.31715 0.0
H3538 H 0.29155 0.93928 0.32212 0.0
H3539 H 0.30974 0.95417 0.33662 0.0
H3540 H 0.30056 0.96978 0.33169 0.0
H3541 H 0.31894 0.96839 0.32831 0.0
H3542 H 0.32412 0.97176 0.27391 0.0
H3543 H 0.30832 0.99192 0.27087 0.0
H3544 H 0.28796 0.98006 0.30909 0.0
C3545 C 0.32166 0.9347 0.31543 0.0
C3546 C 0.33256 0.92751 0.30907 0.0
C3547 C 0.33815 0.93311 0.29664 0.0
C3548 C 0.33296 0.94548 0.29061 0.0
C3549 C 0.32219 0.95225 0.29713 0.0
C3550 C 0.31663 0.94704 0.30929 0.0
C3551 C 0.30498 0.95614 0.31415 0.0
C3552 C 0.29097 0.9479 0.31433 0.0
C3553 C 0.30879 0.9625 0.32855 0.0
C3554 C 0.30477 0.96723 0.30281 0.0
C3555 C 0.31477 0.96488 0.29307 0.0
C3556 C 0.31629 0.97371 0.28153 0.0
C3557 C 0.30729 0.98515 0.27988 0.0
C3558 C 0.2969 0.98766 0.28972 0.0
C3559 C 0.29579 0.97855 0.30135 0.0
H3560 H 0.71721 0.10713 0.7258 0.0
H3561 H 0.75062 0.11666 0.6975 0.0
H3562 H 0.76336 0.09587 0.70618 0.0
H3563 H 0.73892 0.09579 0.75427 0.0
H3564 H 0.7268 0.08227 0.75958 0.0
H3565 H 0.72036 0.09759 0.75074 0.0
H3566 H 0.70783 0.08198 0.73188 0.0
H3567 H 0.71427 0.0666 0.74066 0.0
H3568 H 0.71783 0.06954 0.72252 0.0
H3569 H 0.77258 0.07351 0.71863 0.0
H3570 H 0.77748 0.05312 0.7341 0.0
H3571 H 0.73771 0.0589 0.75365 0.0
C3572 C 0.7271 0.10478 0.72123 0.0
C3573 C 0.73281 0.11354 0.71085 0.0
C3574 C 0.74601 0.11019 0.7055 0.0
C3575 C 0.7533 0.09833 0.71031 0.0
C3576 C 0.7473 0.0899 0.72053 0.0
C3577 C 0.73449 0.09306 0.72592 0.0
C3578 C 0.73038 0.08271 0.7371 0.0
C3579 C 0.72904 0.09003 0.75126 0.0
C3580 C 0.71677 0.07474 0.73278 0.0
C3581 C 0.74288 0.07322 0.73727 0.0
C3582 C 0.75255 0.0774 0.72762 0.0
C3583 C 0.76502 0.07017 0.72618 0.0
C3584 C 0.76771 0.05856 0.73496 0.0
C3585 C 0.75801 0.05436 0.74511 0.0
C3586 C 0.7454 0.06178 0.74605 0.0
H3587 H 0.73798 0.92242 0.32403 0.0
H3588 H 0.69874 0.94297 0.33109 0.0
H3589 H 0.70951 0.96555 0.32451 0.0
H3590 H 0.7609 0.95063 0.33724 0.0
H3591 H 0.77391 0.94813 0.32432 0.0
H3592 H 0.76327 0.93354 0.32996 0.0
H3593 H 0.75521 0.92869 0.30429 0.0
H3594 H 0.76584 0.94324 0.29858 0.0
H3595 H 0.74734 0.94247 0.29401 0.0
H3596 H 0.72408 0.98577 0.31602 0.0
H3597 H 0.74179 1.00236 0.30695 0.0
H3598 H 0.77183 0.96907 0.30576 0.0
C3599 C 0.73167 0.93167 0.32421 0.0
C3600 C 0.7175 0.93088 0.32818 0.0
C3601 C 0.70965 0.94329 0.32833 0.0
C3602 C 0.71566 0.95618 0.32452 0.0
C3603 C 0.7296 0.95659 0.32065 0.0
C3604 C 0.73755 0.9447 0.32054 0.0
C3605 C 0.75229 0.94806 0.31584 0.0
C3606 C 0.76324 0.9449 0.32754 0.0
C3607 C 0.75534 0.94014 0.30238 0.0
C3608 C 0.75131 0.96366 0.31318 0.0
C3609 C 0.73811 0.96834 0.316 0.0
C3610 C 0.73449 0.98224 0.31387 0.0
C3611 C 0.74458 0.99157 0.30867 0.0
C3612 C 0.75821 0.98705 0.30573 0.0
C3613 C 0.7616 0.9729 0.30814 0.0
H3614 H 0.62443 0.2266 0.29746 0.0
H3615 H 0.60284 0.19749 0.32456 0.0
H3616 H 0.58009 0.2068 0.31621 0.0
H3617 H 0.60161 0.25532 0.30195 0.0
H3618 H 0.60243 0.26119 0.28409 0.0
H3619 H 0.61696 0.25207 0.2921 0.0
H3620 H 0.61544 0.23389 0.27211 0.0
H3621 H 0.60083 0.24292 0.26409 0.0
H3622 H 0.59909 0.22464 0.26837 0.0
H3623 H 0.55945 0.2196 0.30497 0.0
H3624 H 0.54299 0.2355 0.29266 0.0
H3625 H 0.57805 0.25585 0.27259 0.0
C3626 C 0.61493 0.22208 0.30157 0.0
C3627 C 0.61553 0.21129 0.31174 0.0
C3628 C 0.60277 0.20588 0.31695 0.0
C3629 C 0.58974 0.21102 0.31216 0.0
C3630 C 0.58956 0.2216 0.30211 0.0
C3631 C 0.60183 0.2271 0.29691 0.0
C3632 C 0.59877 0.23865 0.28641 0.0
C3633 C 0.60533 0.25263 0.29144 0.0
C3634 C 0.60383 0.23479 0.27189 0.0
C3635 C 0.58287 0.23883 0.28656 0.0
C3636 C 0.57773 0.22888 0.29563 0.0
C3637 C 0.56338 0.22738 0.29778 0.0
C3638 C 0.55408 0.23644 0.2907 0.0
C3639 C 0.55914 0.24691 0.28155 0.0
C3640 C 0.57375 0.2479 0.27936 0.0
H3641 H 0.31433 0.10953 0.35493 0.0
H3642 H 0.32037 0.13456 0.31764 0.0
H3643 H 0.30955 0.11568 0.30324 0.0
H3644 H 0.32135 0.07614 0.33952 0.0
H3645 H 0.30813 0.06683 0.34906 0.0
H3646 H 0.31659 0.08221 0.35647 0.0
H3647 H 0.29235 0.09335 0.35931 0.0
H3648 H 0.28382 0.07802 0.35187 0.0
H3649 H 0.28055 0.09495 0.34428 0.0
H3650 H 0.29754 0.09433 0.29285 0.0
H3651 H 0.2858 0.07187 0.28712 0.0
H3652 H 0.28749 0.06038 0.33105 0.0
C3653 C 0.31333 0.11109 0.34374 0.0
C3654 C 0.3183 0.1236 0.33746 0.0
C3655 C 0.3169 0.12505 0.32274 0.0
C3656 C 0.31066 0.1144 0.31445 0.0
C3657 C 0.30583 0.10229 0.32099 0.0
C3658 C 0.30712 0.10054 0.33529 0.0
C3659 C 0.30105 0.08646 0.33968 0.0
C3660 C 0.31246 0.07737 0.34659 0.0
C3661 C 0.28871 0.08831 0.34936 0.0
C3662 C 0.29609 0.0806 0.3256 0.0
C3663 C 0.29895 0.08992 0.31498 0.0
C3664 C 0.29533 0.08692 0.30108 0.0
C3665 C 0.28872 0.07403 0.29792 0.0
C3666 C 0.28577 0.06417 0.30858 0.0
C3667 C 0.28947 0.06763 0.32263 0.0
H3668 H 0.42332 0.79856 0.33496 0.0
H3669 H 0.42527 0.8383 0.31305 0.0
H3670 H 0.4461 0.83056 0.30092 0.0
H3671 H 0.46075 0.795 0.34027 0.0
H3672 H 0.46032 0.77636 0.33772 0.0
H3673 H 0.44533 0.78487 0.34449 0.0
H3674 H 0.42954 0.77428 0.32452 0.0
H3675 H 0.44447 0.76574 0.31768 0.0
H3676 H 0.43415 0.77717 0.30663 0.0
H3677 H 0.46696 0.81864 0.29128 0.0
H3678 H 0.48626 0.8035 0.28491 0.0
H3679 H 0.47111 0.77147 0.31316 0.0
C3680 C 0.42816 0.80571 0.3277 0.0
C3681 C 0.4225 0.81907 0.32496 0.0
C3682 C 0.42915 0.82794 0.3152 0.0
C3683 C 0.44109 0.82367 0.30831 0.0
C3684 C 0.44636 0.81048 0.31126 0.0
C3685 C 0.44013 0.80162 0.32073 0.0
C3686 C 0.44796 0.78799 0.32205 0.0
C3687 C 0.45394 0.78594 0.33702 0.0
C3688 C 0.43846 0.77556 0.31744 0.0
C3689 C 0.45958 0.79058 0.31186 0.0
C3690 C 0.45843 0.80362 0.30574 0.0
C3691 C 0.46792 0.80839 0.29598 0.0
C3692 C 0.47883 0.79964 0.29235 0.0
C3693 C 0.48029 0.78618 0.29843 0.0
C3694 C 0.47046 0.78169 0.30837 0.0
H3695 H 0.3299 0.94307 0.72339 0.0
H3696 H 0.29143 0.93617 0.69859 0.0
H3697 H 0.2812 0.9568 0.70938 0.0
H3698 H 0.31396 0.95422 0.75444 0.0
H3699 H 0.32735 0.96721 0.75868 0.0
H3700 H 0.33162 0.95198 0.74885 0.0
H3701 H 0.34114 0.96783 0.72918 0.0
H3702 H 0.33688 0.9831 0.73895 0.0
H3703 H 0.32999 0.98087 0.72131 0.0
H3704 H 0.27496 0.97843 0.72344 0.0
H3705 H 0.2735 0.99853 0.73957 0.0
H3706 H 0.31625 0.9913 0.75443 0.0
C3707 C 0.31938 0.94595 0.72008 0.0
C3708 C 0.31151 0.93785 0.71013 0.0
C3709 C 0.29766 0.94198 0.70633 0.0
C3710 C 0.29177 0.95379 0.71233 0.0
C3711 C 0.29981 0.96149 0.72212 0.0
C3712 C 0.31334 0.95771 0.72594 0.0
C3713 C 0.31975 0.96759 0.73682 0.0
C3714 C 0.32338 0.95978 0.75051 0.0
C3715 C 0.3327 0.97531 0.73122 0.0
C3716 C 0.30773 0.97747 0.73859 0.0
C3717 C 0.2963 0.97384 0.73003 0.0
C3718 C 0.2839 0.98138 0.73013 0.0
C3719 C 0.28315 0.99281 0.73931 0.0
C3720 C 0.29474 0.99659 0.74826 0.0
C3721 C 0.30718 0.9888 0.74771 0.0
H3722 H 0.61378 0.82745 0.72206 0.0
H3723 H 0.61601 0.79266 0.69338 0.0
H3724 H 0.59507 0.78181 0.7037 0.0
H3725 H 0.60274 0.80778 0.75162 0.0
H3726 H 0.59111 0.82097 0.75746 0.0
H3727 H 0.60627 0.82593 0.74777 0.0
H3728 H 0.59034 0.83874 0.72959 0.0
H3729 H 0.57513 0.83382 0.73923 0.0
H3730 H 0.57592 0.82935 0.72102 0.0
H3731 H 0.5735 0.7746 0.71756 0.0
H3732 H 0.55374 0.77196 0.73362 0.0
H3733 H 0.56564 0.81175 0.75255 0.0
C3734 C 0.60982 0.81762 0.71781 0.0
C3735 C 0.6167 0.81094 0.70689 0.0
C3736 C 0.61117 0.79795 0.70187 0.0
C3737 C 0.59917 0.79172 0.70761 0.0
C3738 C 0.5927 0.79858 0.71837 0.0
C3739 C 0.59785 0.81127 0.72339 0.0
C3740 C 0.58904 0.81652 0.73505 0.0
C3741 C 0.59782 0.81787 0.74879 0.0
C3742 C 0.5822 0.83043 0.73097 0.0
C3743 C 0.57817 0.8048 0.73587 0.0
C3744 C 0.58039 0.79453 0.72617 0.0
C3745 C 0.57166 0.78263 0.72516 0.0
C3746 C 0.56045 0.78121 0.73431 0.0
C3747 C 0.55805 0.79163 0.74436 0.0
C3748 C 0.56708 0.80356 0.74501 0.0
H3749 H 0.4462 0.22393 0.72698 0.0
H3750 H 0.44473 0.25619 0.69503 0.0
H3751 H 0.46695 0.26642 0.70475 0.0
H3752 H 0.45936 0.24612 0.75483 0.0
H3753 H 0.47021 0.23282 0.76269 0.0
H3754 H 0.45441 0.22794 0.75291 0.0
H3755 H 0.46877 0.21215 0.73707 0.0
H3756 H 0.48462 0.21703 0.74677 0.0
H3757 H 0.48349 0.21955 0.7281 0.0
H3758 H 0.48956 0.27348 0.71861 0.0
H3759 H 0.50995 0.27646 0.73527 0.0
H3760 H 0.49601 0.23966 0.7579 0.0
C3761 C 0.45045 0.2332 0.72205 0.0
C3762 C 0.44364 0.23917 0.71016 0.0
C3763 C 0.44979 0.25123 0.70399 0.0
C3764 C 0.4624 0.25719 0.7095 0.0
C3765 C 0.46881 0.25102 0.72122 0.0
C3766 C 0.46301 0.23929 0.72741 0.0
C3767 C 0.47182 0.2347 0.73999 0.0
C3768 C 0.46345 0.23545 0.7534 0.0
C3769 C 0.47751 0.21998 0.73784 0.0
C3770 C 0.48349 0.24567 0.73994 0.0
C3771 C 0.48164 0.25503 0.72907 0.0
C3772 C 0.4911 0.26616 0.72714 0.0
C3773 C 0.50267 0.26778 0.73664 0.0
C3774 C 0.50467 0.25831 0.7479 0.0
C3775 C 0.49491 0.24711 0.74941 0.0
H3776 H 0.7294 0.70332 0.10459 0.0
H3777 H 0.73804 0.7374 0.13358 0.0
H3778 H 0.75073 0.7502 0.11534 0.0
H3779 H 0.76286 0.70464 0.08855 0.0
H3780 H 0.75577 0.70056 0.07132 0.0
H3781 H 0.74695 0.69426 0.0865 0.0
H3782 H 0.72405 0.70601 0.07768 0.0
H3783 H 0.73278 0.71228 0.06244 0.0
H3784 H 0.72433 0.7244 0.07359 0.0
H3785 H 0.76323 0.75904 0.094 0.0
H3786 H 0.77358 0.76357 0.07117 0.0
H3787 H 0.75679 0.72371 0.05609 0.0
C3788 C 0.73399 0.71345 0.10716 0.0
C3789 C 0.73264 0.71931 0.12061 0.0
C3790 C 0.73869 0.73272 0.12336 0.0
C3791 C 0.74604 0.74005 0.11308 0.0
C3792 C 0.7473 0.73387 0.10003 0.0
C3793 C 0.74138 0.7209 0.09703 0.0
C3794 C 0.74429 0.71656 0.0822 0.0
C3795 C 0.75298 0.70321 0.08215 0.0
C3796 C 0.73055 0.71471 0.07347 0.0
C3797 C 0.75278 0.72911 0.07732 0.0
C3798 C 0.75443 0.73897 0.08777 0.0
C3799 C 0.76192 0.75141 0.08573 0.0
C3800 C 0.76773 0.75392 0.07265 0.0
C3801 C 0.76603 0.74407 0.06164 0.0
C3802 C 0.75849 0.73145 0.06418 0.0
H3803 H 0.33018 0.72327 0.10529 0.0
H3804 H 0.29574 0.69333 0.10906 0.0
H3805 H 0.2841 0.70331 0.08795 0.0
H3806 H 0.30979 0.75203 0.09374 0.0
H3807 H 0.32258 0.75848 0.08176 0.0
H3808 H 0.32817 0.74881 0.09705 0.0
H3809 H 0.34074 0.73128 0.08146 0.0
H3810 H 0.33518 0.7409 0.06611 0.0
H3811 H 0.33097 0.72252 0.0675 0.0
H3812 H 0.27594 0.71719 0.06619 0.0
H3813 H 0.27229 0.73365 0.04634 0.0
H3814 H 0.31248 0.75365 0.05688 0.0
C3815 C 0.32028 0.71866 0.10163 0.0
C3816 C 0.31392 0.7075 0.10897 0.0
C3817 C 0.30079 0.70201 0.10382 0.0
C3818 C 0.29412 0.70755 0.09175 0.0
C3819 C 0.30069 0.71857 0.08481 0.0
C3820 C 0.31351 0.72402 0.08958 0.0
C3821 C 0.31834 0.73595 0.0804 0.0
C3822 C 0.3198 0.74962 0.08874 0.0
C3823 C 0.33212 0.73245 0.07346 0.0
C3824 C 0.30622 0.73643 0.06976 0.0
C3825 C 0.29611 0.72634 0.0724 0.0
C3826 C 0.28385 0.72508 0.06401 0.0
C3827 C 0.28185 0.73445 0.05274 0.0
C3828 C 0.29208 0.74494 0.04997 0.0
C3829 C 0.30443 0.74576 0.05861 0.0
H3830 H 0.31147 0.32988 0.11454 0.0
H3831 H 0.34619 0.30197 0.12197 0.0
H3832 H 0.33899 0.2888 0.10057 0.0
H3833 H 0.28647 0.30386 0.10223 0.0
H3834 H 0.27841 0.31537 0.08951 0.0
H3835 H 0.28656 0.32242 0.10526 0.0
H3836 H 0.30231 0.33871 0.0905 0.0
H3837 H 0.29422 0.33169 0.07471 0.0
H3838 H 0.31301 0.33126 0.07741 0.0
H3839 H 0.32707 0.27832 0.07788 0.0
H3840 H 0.31235 0.27247 0.05664 0.0
H3841 H 0.28598 0.30761 0.06506 0.0
C3842 C 0.31752 0.32092 0.11181 0.0
C3843 C 0.32936 0.31694 0.12007 0.0
C3844 C 0.33713 0.30531 0.11581 0.0
C3845 C 0.33306 0.29771 0.10369 0.0
C3846 C 0.32123 0.30189 0.09586 0.0
C3847 C 0.31364 0.31328 0.09981 0.0
C3848 C 0.3014 0.31583 0.08974 0.0
C3849 C 0.28738 0.31427 0.09713 0.0
C3850 C 0.30283 0.33022 0.08267 0.0
C3851 C 0.30323 0.30414 0.07945 0.0
C3852 C 0.31465 0.2961 0.08307 0.0
C3853 C 0.31813 0.28461 0.07498 0.0
C3854 C 0.30972 0.28134 0.06293 0.0
C3855 C 0.29803 0.28958 0.05907 0.0
C3856 C 0.29487 0.30108 0.06756 0.0
H3857 H 0.74409 0.33441 0.12113 0.0
H3858 H 0.70197 0.31707 0.12501 0.0
H3859 H 0.70476 0.30327 0.10374 0.0
H3860 H 0.74226 0.33798 0.08387 0.0
H3861 H 0.76022 0.33332 0.08146 0.0
H3862 H 0.75538 0.34131 0.09753 0.0
H3863 H 0.76579 0.32055 0.11152 0.0
H3864 H 0.77063 0.31246 0.09548 0.0
H3865 H 0.75978 0.30302 0.10748 0.0
H3866 H 0.71132 0.29226 0.08154 0.0
H3867 H 0.72132 0.28471 0.05948 0.0
H3868 H 0.75932 0.30883 0.06921 0.0
C3869 C 0.73545 0.32771 0.11753 0.0
C3870 C 0.72283 0.32678 0.12496 0.0
C3871 C 0.71185 0.3178 0.11981 0.0
C3872 C 0.7133 0.30995 0.10764 0.0
C3873 C 0.72581 0.31111 0.10061 0.0
C3874 C 0.73672 0.31975 0.10533 0.0
C3875 C 0.74888 0.31932 0.09547 0.0
C3876 C 0.75186 0.33385 0.08921 0.0
C3877 C 0.76205 0.31349 0.10294 0.0
C3878 C 0.743 0.30924 0.0844 0.0
C3879 C 0.72967 0.30464 0.08767 0.0
C3880 C 0.72177 0.29573 0.07891 0.0
C3881 C 0.72752 0.29153 0.06637 0.0
C3882 C 0.74108 0.29617 0.06263 0.0
C3883 C 0.74901 0.30498 0.0719 0.0
H3884 H 0.74544 0.34411 0.93619 0.0
H3885 H 0.72372 0.30883 0.91623 0.0
H3886 H 0.73068 0.29384 0.93623 0.0
H3887 H 0.77485 0.3249 0.95015 0.0
H3888 H 0.77632 0.33476 0.96615 0.0
H3889 H 0.76938 0.3428 0.95041 0.0
H3890 H 0.74681 0.34905 0.96309 0.0
H3891 H 0.75369 0.34103 0.97887 0.0
H3892 H 0.73686 0.33543 0.97152 0.0
H3893 H 0.74035 0.28253 0.95827 0.0
H3894 H 0.75161 0.27586 0.98085 0.0
H3895 H 0.76735 0.3184 0.9864 0.0
C3896 C 0.7422 0.33321 0.93595 0.0
C3897 C 0.73397 0.3277 0.92457 0.0
C3898 C 0.72983 0.3134 0.92486 0.0
C3899 C 0.73382 0.30476 0.93615 0.0
C3900 C 0.74197 0.31052 0.94712 0.0
C3901 C 0.7461 0.32443 0.94713 0.0
C3902 C 0.75486 0.32803 0.96021 0.0
C3903 C 0.76973 0.33291 0.9565 0.0
C3904 C 0.74762 0.33904 0.96894 0.0
C3905 C 0.75504 0.31397 0.96756 0.0
C3906 C 0.74755 0.30401 0.95981 0.0
C3907 C 0.74623 0.29025 0.96442 0.0
C3908 C 0.75268 0.28656 0.97728 0.0
C3909 C 0.76039 0.29658 0.98546 0.0
C3910 C 0.76156 0.31047 0.98044 0.0
H3911 H 0.73628 0.7458 0.91644 0.0
H3912 H 0.7056 0.71971 0.93723 0.0
H3913 H 0.71272 0.73053 0.95978 0.0
H3914 H 0.76294 0.74508 0.94373 0.0
H3915 H 0.76846 0.763 0.94121 0.0
H3916 H 0.76091 0.75314 0.92675 0.0
H3917 H 0.74218 0.77209 0.92272 0.0
H3918 H 0.74963 0.78194 0.93725 0.0
H3919 H 0.73131 0.77688 0.93688 0.0
H3920 H 0.72351 0.74415 0.98038 0.0
H3921 H 0.73765 0.7587 0.99713 0.0
H3922 H 0.76059 0.77644 0.96273 0.0
C3923 C 0.73096 0.7424 0.92569 0.0
C3924 C 0.72037 0.73179 0.92495 0.0
C3925 C 0.71389 0.7276 0.93745 0.0
C3926 C 0.71778 0.7338 0.95033 0.0
C3927 C 0.72815 0.74426 0.95065 0.0
C3928 C 0.73468 0.74851 0.93865 0.0
C3929 C 0.74567 0.75983 0.94184 0.0
C3930 C 0.76036 0.75497 0.93817 0.0
C3931 C 0.74197 0.7735 0.93422 0.0
C3932 C 0.74436 0.76124 0.95751 0.0
C3933 C 0.73418 0.75221 0.96241 0.0
C3934 C 0.73144 0.75133 0.97662 0.0
C3935 C 0.7395 0.75968 0.98608 0.0
C3936 C 0.75017 0.76885 0.98131 0.0
C3937 C 0.7524 0.76973 0.96677 0.0
H3938 H 0.347 0.74871 0.92036 0.0
H3939 H 0.33269 0.70564 0.92485 0.0
H3940 H 0.32114 0.71177 0.94654 0.0
H3941 H 0.35454 0.75487 0.95715 0.0
H3942 H 0.34862 0.77262 0.95661 0.0
H3943 H 0.35565 0.76496 0.94127 0.0
H3944 H 0.33289 0.77075 0.92707 0.0
H3945 H 0.32579 0.77845 0.94235 0.0
H3946 H 0.3162 0.76465 0.93324 0.0
H3947 H 0.31118 0.72246 0.96787 0.0
H3948 H 0.30337 0.73696 0.98718 0.0
H3949 H 0.32422 0.77317 0.96928 0.0
C3950 C 0.34154 0.74052 0.92594 0.0
C3951 C 0.34074 0.72666 0.92074 0.0
C3952 C 0.33329 0.71637 0.92837 0.0
C3953 C 0.32677 0.71973 0.9408 0.0
C3954 C 0.32777 0.73345 0.94559 0.0
C3955 C 0.33496 0.74369 0.93841 0.0
C3956 C 0.33439 0.75765 0.94585 0.0
C3957 C 0.34918 0.76283 0.95049 0.0
C3958 C 0.32687 0.76852 0.93658 0.0
C3959 C 0.32575 0.75364 0.95834 0.0
C3960 C 0.32205 0.73962 0.95795 0.0
C3961 C 0.31399 0.73346 0.96824 0.0
C3962 C 0.30952 0.74183 0.97916 0.0
C3963 C 0.31308 0.75628 0.97981 0.0
C3964 C 0.32141 0.76218 0.96922 0.0
H3965 H 0.32297 0.34875 0.93624 0.0
H3966 H 0.332 0.3104 0.91459 0.0
H3967 H 0.32089 0.29675 0.93326 0.0
H3968 H 0.32877 0.33548 0.9714 0.0
H3969 H 0.31463 0.3451 0.97846 0.0
H3970 H 0.3237 0.35188 0.96363 0.0
H3971 H 0.30007 0.35334 0.94956 0.0
H3972 H 0.29093 0.34654 0.96433 0.0
H3973 H 0.28902 0.33793 0.94766 0.0
H3974 H 0.30813 0.28723 0.95389 0.0
H3975 H 0.29505 0.28247 0.97514 0.0
H3976 H 0.29417 0.32694 0.98358 0.0
C3977 C 0.32259 0.33748 0.93537 0.0
C3978 C 0.32846 0.33069 0.92389 0.0
C3979 C 0.32783 0.31589 0.92334 0.0
C3980 C 0.32144 0.30803 0.93386 0.0
C3981 C 0.31569 0.31507 0.94494 0.0
C3982 C 0.31624 0.32946 0.9458 0.0
C3983 C 0.30914 0.33444 0.95878 0.0
C3984 C 0.31969 0.34218 0.96865 0.0
C3985 C 0.29654 0.3436 0.95484 0.0
C3986 C 0.30442 0.3206 0.96501 0.0
C3987 C 0.30834 0.30957 0.95687 0.0
C3988 C 0.30509 0.29579 0.9604 0.0
C3989 C 0.29771 0.29319 0.97259 0.0
C3990 C 0.2936 0.30429 0.98122 0.0
C3991 C 0.29702 0.31819 0.97725 0.0
H3992 H 0.6127 0.72889 0.21113 0.0
H3993 H 0.63025 0.69808 0.23983 0.0
H3994 H 0.61044 0.70118 0.25525 0.0
H3995 H 0.6004 0.75201 0.23785 0.0
H3996 H 0.58471 0.75657 0.22798 0.0
H3997 H 0.60022 0.75188 0.21902 0.0
H3998 H 0.586 0.73258 0.20558 0.0
H3999 H 0.57046 0.7372 0.2145 0.0
H4000 H 0.57649 0.71949 0.21521 0.0
H4001 H 0.58859 0.70737 0.2676 0.0
H4002 H 0.56652 0.71654 0.27613 0.0
H4003 H 0.56317 0.74379 0.2399 0.0
C4004 C 0.61249 0.72288 0.22072 0.0
C4005 C 0.62311 0.71312 0.22412 0.0
C4006 C 0.6222 0.70539 0.23674 0.0
C4007 C 0.61101 0.70716 0.24567 0.0
C4008 C 0.60074 0.71676 0.24196 0.0
C4009 C 0.60139 0.72455 0.22982 0.0
C4010 C 0.58895 0.73418 0.22831 0.0
C4011 C 0.59387 0.74957 0.22829 0.0
C4012 C 0.57994 0.73064 0.21512 0.0
C4013 C 0.58121 0.73057 0.24149 0.0
C4014 C 0.5882 0.72047 0.24918 0.0
C4015 C 0.58303 0.71528 0.26165 0.0
C4016 C 0.57041 0.72051 0.26638 0.0
C4017 C 0.56299 0.73089 0.25873 0.0
C4018 C 0.56859 0.73598 0.24611 0.0
H4019 H 0.33019 0.61111 0.21577 0.0
H4020 H 0.36485 0.62433 0.24353 0.0
H4021 H 0.35947 0.60493 0.25954 0.0
H4022 H 0.30654 0.59969 0.24327 0.0
H4023 H 0.29971 0.58481 0.23355 0.0
H4024 H 0.30573 0.60018 0.22444 0.0
H4025 H 0.32271 0.58515 0.21065 0.0
H4026 H 0.31676 0.56976 0.21973 0.0
H4027 H 0.33518 0.57441 0.22005 0.0
H4028 H 0.35109 0.58397 0.27225 0.0
H4029 H 0.34028 0.56228 0.28095 0.0
H4030 H 0.31102 0.56167 0.24516 0.0
C4031 C 0.33652 0.60999 0.2253 0.0
C4032 C 0.34801 0.61922 0.22835 0.0
C4033 C 0.35613 0.61731 0.24087 0.0
C4034 C 0.3531 0.60636 0.25009 0.0
C4035 C 0.34189 0.59732 0.24671 0.0
C4036 C 0.33369 0.59897 0.23465 0.0
C4037 C 0.32256 0.58737 0.23341 0.0
C4038 C 0.30776 0.59337 0.23368 0.0
C4039 C 0.32442 0.57866 0.22017 0.0
C4040 C 0.32593 0.57894 0.24656 0.0
C4041 C 0.33708 0.58498 0.25408 0.0
C4042 C 0.34236 0.57912 0.26645 0.0
C4043 C 0.33619 0.56669 0.27126 0.0
C4044 C 0.32485 0.56009 0.26373 0.0
C4045 C 0.31959 0.56645 0.25124 0.0
H4046 H 0.42607 0.30393 0.23378 0.0
H4047 H 0.448 0.32979 0.20391 0.0
H4048 H 0.47051 0.32001 0.21234 0.0
H4049 H 0.45216 0.3064 0.26162 0.0
H4050 H 0.44965 0.28857 0.26725 0.0
H4051 H 0.43534 0.29774 0.2589 0.0
H4052 H 0.43249 0.27814 0.24039 0.0
H4053 H 0.44687 0.26896 0.24864 0.0
H4054 H 0.44733 0.27348 0.23037 0.0
H4055 H 0.49093 0.30725 0.22423 0.0
H4056 H 0.50725 0.29335 0.23909 0.0
H4057 H 0.4718 0.27536 0.26052 0.0
C4058 C 0.43556 0.3075 0.22891 0.0
C4059 C 0.43514 0.31773 0.21816 0.0
C4060 C 0.44795 0.32218 0.2123 0.0
C4061 C 0.46083 0.31657 0.21694 0.0
C4062 C 0.46082 0.30645 0.22745 0.0
C4063 C 0.44851 0.30199 0.23338 0.0
C4064 C 0.45135 0.2911 0.24462 0.0
C4065 C 0.44686 0.29626 0.25895 0.0
C4066 C 0.44408 0.27709 0.24077 0.0
C4067 C 0.46718 0.29013 0.24411 0.0
C4068 C 0.47247 0.29905 0.23413 0.0
C4069 C 0.48687 0.30019 0.23203 0.0
C4070 C 0.49607 0.29221 0.2405 0.0
C4071 C 0.49088 0.28314 0.25094 0.0
C4072 C 0.47619 0.28204 0.25256 0.0
H4073 H 0.73537 0.43691 0.22003 0.0
H4074 H 0.70883 0.42923 0.25525 0.0
H4075 H 0.71865 0.45044 0.2668 0.0
H4076 H 0.76541 0.44932 0.23969 0.0
H4077 H 0.77017 0.4624 0.22703 0.0
H4078 H 0.76076 0.44681 0.22145 0.0
H4079 H 0.74134 0.46188 0.20974 0.0
H4080 H 0.75071 0.47753 0.21531 0.0
H4081 H 0.73273 0.47469 0.21998 0.0
H4082 H 0.73193 0.47262 0.27479 0.0
H4083 H 0.74778 0.49324 0.27846 0.0
H4084 H 0.76511 0.4863 0.23783 0.0
C4085 C 0.73149 0.43975 0.2301 0.0
C4086 C 0.72134 0.4313 0.23672 0.0
C4087 C 0.71675 0.43536 0.25002 0.0
C4088 C 0.72219 0.44748 0.25664 0.0
C4089 C 0.73222 0.45552 0.24985 0.0
C4090 C 0.73681 0.4518 0.23686 0.0
C4091 C 0.7479 0.46203 0.2319 0.0
C4092 C 0.76188 0.4547 0.2299 0.0
C4093 C 0.74286 0.46947 0.21844 0.0
C4094 C 0.74891 0.47201 0.24415 0.0
C4095 C 0.73976 0.46816 0.2544 0.0
C4096 C 0.73909 0.47575 0.26679 0.0
C4097 C 0.74811 0.48746 0.26879 0.0
C4098 C 0.75769 0.49145 0.25846 0.0
C4099 C 0.75791 0.48362 0.24596 0.0
H4100 H 0.62535 0.31374 0.8334 0.0
H4101 H 0.63275 0.34537 0.80181 0.0
H4102 H 0.61226 0.3362 0.78782 0.0
H4103 H 0.6148 0.28621 0.81014 0.0
H4104 H 0.60171 0.2792 0.8215 0.0
H4105 H 0.61691 0.28836 0.82879 0.0
H4106 H 0.60081 0.30533 0.84146 0.0
H4107 H 0.58556 0.29622 0.83421 0.0
H4108 H 0.5877 0.31475 0.83147 0.0
H4109 H 0.59027 0.32312 0.77729 0.0
H4110 H 0.56982 0.30743 0.77147 0.0
H4111 H 0.57739 0.28512 0.81045 0.0
C4112 C 0.62261 0.3189 0.82363 0.0
C4113 C 0.63068 0.33037 0.8188 0.0
C4114 C 0.62684 0.33652 0.80574 0.0
C4115 C 0.61515 0.33142 0.79774 0.0
C4116 C 0.60739 0.32013 0.8029 0.0
C4117 C 0.61104 0.31397 0.81556 0.0
C4118 C 0.6012 0.30193 0.81886 0.0
C4119 C 0.60913 0.28811 0.81988 0.0
C4120 C 0.59335 0.30473 0.8323 0.0
C4121 C 0.59138 0.30223 0.80611 0.0
C4122 C 0.59503 0.31276 0.79696 0.0
C4123 C 0.58736 0.31485 0.78443 0.0
C4124 C 0.57574 0.30591 0.7812 0.0
C4125 C 0.57193 0.29502 0.79047 0.0
C4126 C 0.57992 0.29331 0.80308 0.0
H4127 H 0.74893 0.62258 0.82765 0.0
H4128 H 0.70923 0.62064 0.80413 0.0
H4129 H 0.71706 0.59962 0.79185 0.0
H4130 H 0.77055 0.61243 0.79958 0.0
H4131 H 0.78221 0.60252 0.81082 0.0
H4132 H 0.77326 0.61723 0.81767 0.0
H4133 H 0.76288 0.6014 0.83692 0.0
H4134 H 0.77178 0.58664 0.83011 0.0
H4135 H 0.75305 0.58581 0.83197 0.0
H4136 H 0.72999 0.57838 0.78175 0.0
H4137 H 0.74627 0.55956 0.77562 0.0
H4138 H 0.77702 0.57623 0.80592 0.0
C4139 C 0.74188 0.61788 0.81981 0.0
C4140 C 0.72844 0.62341 0.81687 0.0
C4141 C 0.71953 0.61661 0.80672 0.0
C4142 C 0.72392 0.60467 0.79961 0.0
C4143 C 0.73728 0.59957 0.80275 0.0
C4144 C 0.74609 0.60601 0.81266 0.0
C4145 C 0.75989 0.59857 0.8143 0.0
C4146 C 0.7722 0.60826 0.81035 0.0
C4147 C 0.76202 0.59276 0.82921 0.0
C4148 C 0.75757 0.58693 0.80377 0.0
C4149 C 0.74451 0.58759 0.79714 0.0
C4150 C 0.74023 0.57781 0.78694 0.0
C4151 C 0.74954 0.56714 0.78349 0.0
C4152 C 0.76295 0.56631 0.79026 0.0
C4153 C 0.76687 0.57642 0.80051 0.0
H4154 H 0.4372 0.73358 0.82109 0.0
H4155 H 0.43399 0.7009 0.78982 0.0
H4156 H 0.45504 0.71061 0.77872 0.0
H4157 H 0.44817 0.76093 0.79837 0.0
H4158 H 0.46011 0.76897 0.8111 0.0
H4159 H 0.445 0.75922 0.81675 0.0
H4160 H 0.4611 0.74356 0.83223 0.0
H4161 H 0.47626 0.7533 0.82662 0.0
H4162 H 0.4753 0.73462 0.82444 0.0
H4163 H 0.47656 0.7244 0.77064 0.0
H4164 H 0.49622 0.74111 0.76648 0.0
H4165 H 0.48529 0.76435 0.80321 0.0
C4166 C 0.44099 0.72834 0.81201 0.0
C4167 C 0.43381 0.71647 0.80634 0.0
C4168 C 0.43911 0.71012 0.79429 0.0
C4169 C 0.45115 0.71551 0.78793 0.0
C4170 C 0.45789 0.72728 0.79373 0.0
C4171 C 0.453 0.7336 0.80552 0.0
C4172 C 0.46198 0.74628 0.80954 0.0
C4173 C 0.45329 0.75964 0.8089 0.0
C4174 C 0.46908 0.74432 0.82407 0.0
C4175 C 0.47262 0.74617 0.79815 0.0
C4176 C 0.47016 0.73512 0.78913 0.0
C4177 C 0.4786 0.73307 0.77769 0.0
C4178 C 0.48976 0.74259 0.7754 0.0
C4179 C 0.49238 0.75406 0.78449 0.0
C4180 C 0.48366 0.75571 0.79603 0.0
H4181 H 0.35851 0.43986 0.81311 0.0
H4182 H 0.32043 0.41551 0.8198 0.0
H4183 H 0.30639 0.43439 0.8092 0.0
H4184 H 0.34417 0.47369 0.82016 0.0
H4185 H 0.35385 0.48252 0.80679 0.0
H4186 H 0.36091 0.46724 0.81526 0.0
H4187 H 0.36308 0.45543 0.79117 0.0
H4188 H 0.35599 0.47066 0.78263 0.0
H4189 H 0.34781 0.45376 0.77961 0.0
H4190 H 0.29645 0.45564 0.79719 0.0
H4191 H 0.29132 0.47778 0.78512 0.0
H4192 H 0.33579 0.48855 0.78625 0.0
C4193 C 0.34722 0.43845 0.81231 0.0
C4194 C 0.34061 0.42614 0.81739 0.0
C4195 C 0.32578 0.42487 0.81624 0.0
C4196 C 0.31769 0.43552 0.81013 0.0
C4197 C 0.32455 0.44744 0.80519 0.0
C4198 C 0.33897 0.449 0.80624 0.0
C4199 C 0.34373 0.46284 0.80002 0.0
C4200 C 0.3511 0.47212 0.81123 0.0
C4201 C 0.35321 0.46053 0.78762 0.0
C4202 C 0.32973 0.46878 0.79522 0.0
C4203 C 0.31881 0.45973 0.79832 0.0
C4204 C 0.30492 0.46285 0.7948 0.0
C4205 C 0.3021 0.47555 0.788 0.0
C4206 C 0.3131 0.4851 0.78474 0.0
C4207 C 0.32711 0.48154 0.78844 0.0
H4208 H 0.74167 0.62353 0.21828 0.0
H4209 H 0.70225 0.6009 0.21081 0.0
H4210 H 0.71387 0.57881 0.21676 0.0
H4211 H 0.76426 0.59659 0.20429 0.0
H4212 H 0.77807 0.59969 0.21731 0.0
H4213 H 0.76686 0.61374 0.21176 0.0
H4214 H 0.76047 0.61793 0.23744 0.0
H4215 H 0.77162 0.6039 0.24306 0.0
H4216 H 0.75342 0.60366 0.24752 0.0
H4217 H 0.72924 0.55934 0.22489 0.0
H4218 H 0.74759 0.5437 0.23428 0.0
H4219 H 0.77735 0.57852 0.23606 0.0
C4220 C 0.73554 0.6139 0.21766 0.0
C4221 C 0.72099 0.61401 0.21414 0.0
C4222 C 0.71333 0.60116 0.21367 0.0
C4223 C 0.71987 0.58852 0.21694 0.0
C4224 C 0.73413 0.58881 0.22059 0.0
C4225 C 0.74192 0.60113 0.2209 0.0
C4226 C 0.75701 0.59852 0.22566 0.0
C4227 C 0.76715 0.60236 0.21406 0.0
C4228 C 0.76085 0.60647 0.23923 0.0
C4229 C 0.7564 0.58285 0.22815 0.0
C4230 C 0.7431 0.57747 0.22512 0.0
C4231 C 0.73973 0.56341 0.22717 0.0
C4232 C 0.7502 0.55461 0.23257 0.0
C4233 C 0.76391 0.55984 0.23583 0.0
C4234 C 0.76705 0.57415 0.23342 0.0
H4235 H 0.73835 0.43592 0.81077 0.0
H4236 H 0.74222 0.43834 0.85601 0.0
H4237 H 0.75694 0.4597 0.85405 0.0
H4238 H 0.77352 0.44832 0.80381 0.0
H4239 H 0.76811 0.45814 0.78852 0.0
H4240 H 0.75827 0.44276 0.79347 0.0
H4241 H 0.73564 0.45724 0.79395 0.0
H4242 H 0.74542 0.47266 0.78902 0.0
H4243 H 0.73542 0.47268 0.80464 0.0
H4244 H 0.77069 0.4813 0.84718 0.0
H4245 H 0.78239 0.50136 0.83597 0.0
H4246 H 0.76965 0.48487 0.79518 0.0
C4247 C 0.74224 0.44095 0.82029 0.0
C4248 C 0.73912 0.43535 0.83357 0.0
C4249 C 0.74461 0.44224 0.84572 0.0
C4250 C 0.75292 0.45445 0.84472 0.0
C4251 C 0.75572 0.45969 0.83148 0.0
C4252 C 0.75057 0.45315 0.81948 0.0
C4253 C 0.75497 0.46105 0.80654 0.0
C4254 C 0.76427 0.45203 0.79756 0.0
C4255 C 0.7421 0.46621 0.79804 0.0
C4256 C 0.7633 0.47312 0.81314 0.0
C4257 C 0.76364 0.47212 0.82753 0.0
C4258 C 0.77056 0.48214 0.8359 0.0
C4259 C 0.77726 0.49349 0.8294 0.0
C4260 C 0.77704 0.49482 0.81463 0.0
C4261 C 0.76996 0.48437 0.80647 0.0
H4262 H 0.61489 0.71955 0.81054 0.0
H4263 H 0.63568 0.74797 0.84021 0.0
H4264 H 0.61637 0.76447 0.83679 0.0
H4265 H 0.60241 0.74619 0.78663 0.0
H4266 H 0.58603 0.73717 0.7825 0.0
H4267 H 0.60136 0.7274 0.78749 0.0
H4268 H 0.58777 0.71544 0.80736 0.0
H4269 H 0.5724 0.72518 0.80244 0.0
H4270 H 0.57954 0.72605 0.8201 0.0
H4271 H 0.59476 0.77804 0.83012 0.0
H4272 H 0.57272 0.78775 0.82042 0.0
H4273 H 0.56607 0.75081 0.79475 0.0
C4274 C 0.61548 0.72928 0.81626 0.0
C4275 C 0.62687 0.73234 0.82575 0.0
C4276 C 0.62702 0.74518 0.8331 0.0
C4277 C 0.61612 0.7547 0.83115 0.0
C4278 C 0.60508 0.75133 0.82176 0.0
C4279 C 0.60469 0.73895 0.8144 0.0
C4280 C 0.59166 0.73792 0.80486 0.0
C4281 C 0.59561 0.73713 0.78946 0.0
C4282 C 0.58229 0.7254 0.80894 0.0
C4283 C 0.5848 0.75166 0.808 0.0
C4284 C 0.5927 0.75922 0.81781 0.0
C4285 C 0.58848 0.77219 0.82245 0.0
C4286 C 0.57587 0.7776 0.81692 0.0
C4287 C 0.56756 0.77009 0.80681 0.0
C4288 C 0.57219 0.75692 0.80233 0.0
H4289 H 0.33544 0.61932 0.81074 0.0
H4290 H 0.30233 0.62366 0.84024 0.0
H4291 H 0.29046 0.60248 0.83064 0.0
H4292 H 0.31362 0.60733 0.78194 0.0
H4293 H 0.32622 0.5952 0.77586 0.0
H4294 H 0.33212 0.61064 0.78516 0.0
H4295 H 0.34581 0.59536 0.80317 0.0
H4296 H 0.33995 0.57986 0.7939 0.0
H4297 H 0.33667 0.58158 0.81222 0.0
H4298 H 0.28202 0.58051 0.81746 0.0
H4299 H 0.27795 0.56009 0.80187 0.0
H4300 H 0.31678 0.57019 0.78144 0.0
C4301 C 0.32577 0.61577 0.81529 0.0
C4302 C 0.31984 0.6233 0.82624 0.0
C4303 C 0.30703 0.61829 0.83171 0.0
C4304 C 0.30023 0.60618 0.82638 0.0
C4305 C 0.30634 0.59907 0.81556 0.0
C4306 C 0.31884 0.6037 0.8101 0.0
C4307 C 0.32317 0.59427 0.79841 0.0
C4308 C 0.32381 0.60234 0.78452 0.0
C4309 C 0.33723 0.58736 0.80216 0.0
C4310 C 0.31116 0.58365 0.79812 0.0
C4311 C 0.30154 0.58653 0.80809 0.0
C4312 C 0.28952 0.57815 0.80964 0.0
C4313 C 0.28728 0.56656 0.80074 0.0
C4314 C 0.29701 0.56347 0.79041 0.0
C4315 C 0.3091 0.57218 0.78921 0.0
H4316 H 0.44946 0.31366 0.84847 0.0
H4317 H 0.42621 0.32337 0.80997 0.0
H4318 H 0.44492 0.31315 0.79641 0.0
H4319 H 0.48409 0.32069 0.83559 0.0
H4320 H 0.49206 0.30649 0.84514 0.0
H4321 H 0.47699 0.31489 0.85187 0.0
H4322 H 0.46388 0.29098 0.85296 0.0
H4323 H 0.47889 0.28252 0.84621 0.0
H4324 H 0.46196 0.28046 0.83742 0.0
H4325 H 0.46586 0.30128 0.78695 0.0
H4326 H 0.48763 0.28908 0.78226 0.0
H4327 H 0.49755 0.28699 0.82682 0.0
C4328 C 0.44825 0.3136 0.83719 0.0
C4329 C 0.4363 0.31943 0.83033 0.0
C4330 C 0.4353 0.31924 0.81551 0.0
C4331 C 0.44586 0.31334 0.8077 0.0
C4332 C 0.45741 0.30765 0.81479 0.0
C4333 C 0.45871 0.30776 0.8292 0.0
C4334 C 0.47219 0.30088 0.83423 0.0
C4335 C 0.48191 0.31137 0.84217 0.0
C4336 C 0.46904 0.28794 0.84324 0.0
C4337 C 0.47823 0.29682 0.8204 0.0
C4338 C 0.46953 0.30084 0.80933 0.0
C4339 C 0.47279 0.29818 0.79555 0.0
C4340 C 0.48529 0.29129 0.79298 0.0
C4341 C 0.49449 0.2871 0.80413 0.0
C4342 C 0.49079 0.28992 0.81803 0.0
H4343 H 0.33739 0.42593 0.24159 0.0
H4344 H 0.31489 0.42623 0.20143 0.0
H4345 H 0.30252 0.44744 0.20842 0.0
H4346 H 0.3086 0.4369 0.26211 0.0
H4347 H 0.31974 0.44732 0.27375 0.0
H4348 H 0.32662 0.43221 0.26545 0.0
H4349 H 0.34651 0.44757 0.25526 0.0
H4350 H 0.33968 0.46271 0.26353 0.0
H4351 H 0.34208 0.46275 0.24495 0.0
H4352 H 0.2924 0.46925 0.22042 0.0
H4353 H 0.28644 0.48903 0.23575 0.0
H4354 H 0.31565 0.47358 0.26766 0.0
C4355 C 0.32974 0.43029 0.23428 0.0
C4356 C 0.32713 0.42425 0.22094 0.0
C4357 C 0.31723 0.43064 0.21166 0.0
C4358 C 0.31006 0.44268 0.21558 0.0
C4359 C 0.31288 0.44831 0.22884 0.0
C4360 C 0.32253 0.44226 0.23801 0.0
C4361 C 0.32392 0.4503 0.25158 0.0
C4362 C 0.31945 0.44114 0.26395 0.0
C4363 C 0.33894 0.45618 0.25396 0.0
C4364 C 0.3136 0.46185 0.24867 0.0
C4365 C 0.30724 0.4606 0.23555 0.0
C4366 C 0.29735 0.47027 0.23072 0.0
C4367 C 0.29399 0.48148 0.23949 0.0
C4368 C 0.30055 0.48297 0.25293 0.0
C4369 C 0.31041 0.47289 0.25746 0.0
H4370 H 0.63005 0.32599 0.24013 0.0
H4371 H 0.60706 0.341 0.20333 0.0
H4372 H 0.58473 0.33537 0.21449 0.0
H4373 H 0.60715 0.29729 0.2472 0.0
H4374 H 0.60861 0.299 0.26594 0.0
H4375 H 0.62285 0.30481 0.25537 0.0
H4376 H 0.62203 0.32943 0.26637 0.0
H4377 H 0.60778 0.32368 0.277 0.0
H4378 H 0.60578 0.33872 0.26578 0.0
H4379 H 0.56483 0.3271 0.22911 0.0
H4380 H 0.54882 0.31694 0.24634 0.0
H4381 H 0.5845 0.30756 0.27386 0.0
C4382 C 0.62032 0.3283 0.23451 0.0
C4383 C 0.62036 0.3339 0.22079 0.0
C4384 C 0.60735 0.33654 0.21374 0.0
C4385 C 0.59459 0.33346 0.22003 0.0
C4386 C 0.59492 0.32778 0.23345 0.0
C4387 C 0.60744 0.32526 0.24064 0.0
C4388 C 0.60483 0.31867 0.25479 0.0
C4389 C 0.61124 0.30408 0.25588 0.0
C4390 C 0.61044 0.3282 0.26669 0.0
C4391 C 0.58891 0.31778 0.25436 0.0
C4392 C 0.58342 0.32312 0.24196 0.0
C4393 C 0.56902 0.32298 0.2389 0.0
C4394 C 0.56 0.31713 0.24872 0.0
C4395 C 0.56535 0.31152 0.26149 0.0
C4396 C 0.58003 0.312 0.26434 0.0
H4397 H 0.43302 0.71621 0.2163 0.0
H4398 H 0.43059 0.74934 0.18529 0.0
H4399 H 0.45191 0.76051 0.19596 0.0
H4400 H 0.44402 0.7382 0.24515 0.0
H4401 H 0.45542 0.72534 0.25295 0.0
H4402 H 0.44021 0.71986 0.24257 0.0
H4403 H 0.45599 0.70549 0.22675 0.0
H4404 H 0.47126 0.71098 0.23705 0.0
H4405 H 0.47053 0.71402 0.21846 0.0
H4406 H 0.47376 0.76833 0.21058 0.0
H4407 H 0.49348 0.77199 0.2279 0.0
H4408 H 0.48095 0.73389 0.2492 0.0
C4409 C 0.43686 0.72587 0.21178 0.0
C4410 C 0.43006 0.7318 0.19986 0.0
C4411 C 0.43567 0.74439 0.19425 0.0
C4412 C 0.44777 0.75089 0.2003 0.0
C4413 C 0.4542 0.74473 0.21201 0.0
C4414 C 0.44889 0.73251 0.21769 0.0
C4415 C 0.4576 0.72805 0.23039 0.0
C4416 C 0.44879 0.72786 0.24354 0.0
C4417 C 0.46424 0.71379 0.22802 0.0
C4418 C 0.46862 0.73967 0.23102 0.0
C4419 C 0.46656 0.74921 0.22034 0.0
C4420 C 0.47546 0.76089 0.21897 0.0
C4421 C 0.48666 0.76288 0.22883 0.0
C4422 C 0.48883 0.75326 0.23993 0.0
C4423 C 0.47967 0.74149 0.24087 0.0
loop_
_geom_bond_atom_site_label_1
_geom_bond_atom_site_label_2
_geom_bond_distance
_geom_bond_site_symmetry_2
_ccdc_geom_bond_type
C0 C1 1.264 . S
C0 C5 1.479 . S
C0 C10 1.465 . S
C1 C0 1.264 . S
C1 C3 1.339 . S
C1 H28 0.931 . S
C2 C3 1.395 . S
C2 C4 1.320 . S
C3 C1 1.339 . S
C3 C2 1.395 . S
C3 H29 0.929 . S
C4 C2 1.320 . S
C4 C5 1.405 . S
C4 H30 0.930 . S
C5 C0 1.479 . S
C5 C4 1.405 . S
C5 H31 0.931 . S
U6 O7 2.454 . S
U6 O8 2.458 . S
U6 C9 2.984 . S
U6 C10 2.847 . S
U6 C23 2.882 . S
U6 O24 2.441 . S
U6 O25 2.420 . S
U6 O26 2.455 . S
U6 O27 2.449 . S
O7 U6 2.454 . S
O7 C9 1.353 . S
O8 U6 2.458 . S
O8 C9 1.286 . S
C9 U6 2.984 . S
C9 O7 1.353 . S
C9 O8 1.286 . S
C9 C11 1.363 . S
C10 C0 1.465 . S
C10 U6 2.847 . S
C10 O24 1.249 . S
C10 O25 1.202 . S
C11 C9 1.363 . S
C11 C13 1.408 . S
C11 C16 1.342 . S
C12 C13 1.310 . S
C12 C15 1.461 . S
C12 H32 0.932 . S
C13 C11 1.408 . S
C13 C12 1.310 . S
C13 H33 0.930 . S
C14 C15 1.474 . S
C14 C16 1.285 . S
C14 H34 0.929 . S
C15 C12 1.461 . S
C15 C14 1.474 . S
C16 C11 1.342 . S
C16 C14 1.285 . S
C16 H35 0.930 . S
C17 C20 1.424 . S
C17 C22 1.245 . S
C17 C23 1.428 . S
C18 C21 1.260 . S
C18 C22 1.477 . S
C18 H36 0.932 . S
C19 C20 1.384 . S
C19 C21 1.479 . S
C19 H37 0.929 . S
C20 C17 1.424 . S
C20 C19 1.384 . S
C20 H38 0.928 . S
C21 C18 1.260 . S
C21 C19 1.479 . S
C22 C17 1.245 . S
C22 C18 1.477 . S
C22 H39 0.932 . S
C23 U6 2.882 . S
C23 C17 1.428 . S
C23 O26 1.301 . S
C23 O27 1.282 . S
O24 U6 2.441 . S
O24 C10 1.249 . S
O25 U6 2.420 . S
O25 C10 1.202 . S
O26 U6 2.455 . S
O26 C23 1.301 . S
O27 U6 2.449 . S
O27 C23 1.282 . S
H28 C1 0.931 . S
H29 C3 0.929 . S
H30 C4 0.930 . S
H31 C5 0.931 . S
H32 C12 0.932 . S
H33 C13 0.930 . S
H34 C14 0.929 . S
H35 C16 0.930 . S
H36 C18 0.932 . S
H37 C19 0.929 . S
H38 C20 0.928 . S
H39 C22 0.932 . S
C40 C41 1.264 . S
C40 C45 1.479 . S
C40 C50 1.465 . S
C41 C40 1.264 . S
C41 C43 1.339 . S
C41 H68 0.931 . S
C42 C43 1.395 . S
C42 C44 1.320 . S
C43 C41 1.339 . S
C43 C42 1.395 . S
C43 H69 0.929 . S
C44 C42 1.320 . S
C44 C45 1.405 . S
C44 H70 0.930 . S
C45 C40 1.479 . S
C45 C44 1.405 . S
C45 H71 0.931 . S
U46 O47 2.454 . S
U46 O48 2.458 . S
U46 C49 2.984 . S
U46 C50 2.847 . S
U46 C63 2.882 . S
U46 O64 2.441 . S
U46 O65 2.420 . S
U46 O66 2.455 . S
U46 O67 2.449 . S
O47 U46 2.454 . S
O47 C49 1.353 . S
O48 U46 2.458 . S
O48 C49 1.286 . S
C49 U46 2.984 . S
C49 O47 1.353 . S
C49 O48 1.286 . S
C49 C51 1.363 . S
C50 C40 1.465 . S
C50 U46 2.847 . S
C50 O64 1.249 . S
C50 O65 1.202 . S
C51 C49 1.363 . S
C51 C53 1.408 . S
C51 C56 1.342 . S
C52 C53 1.310 . S
C52 C55 1.461 . S
C52 H72 0.932 . S
C53 C51 1.408 . S
C53 C52 1.310 . S
C53 H73 0.930 . S
C54 C55 1.474 . S
C54 C56 1.285 . S
C54 H74 0.929 . S
C55 C52 1.461 . S
C55 C54 1.474 . S
C56 C51 1.342 . S
C56 C54 1.285 . S
C56 H75 0.930 . S
C57 C60 1.424 . S
C57 C62 1.245 . S
C57 C63 1.428 . S
C58 C61 1.260 . S
C58 C62 1.477 . S
C58 H76 0.932 . S
C59 C60 1.384 . S
C59 C61 1.479 . S
C59 H77 0.929 . S
C60 C57 1.424 . S
C60 C59 1.384 . S
C60 H78 0.928 . S
C61 C58 1.260 . S
C61 C59 1.479 . S
C62 C57 1.245 . S
C62 C58 1.477 . S
C62 H79 0.932 . S
C63 U46 2.882 . S
C63 C57 1.428 . S
C63 O66 1.301 . S
C63 O67 1.282 . S
O64 U46 2.441 . S
O64 C50 1.249 . S
O65 U46 2.420 . S
O65 C50 1.202 . S
O66 U46 2.455 . S
O66 C63 1.301 . S
O67 U46 2.449 . S
O67 C63 1.282 . S
H68 C41 0.931 . S
H69 C43 0.929 . S
H70 C44 0.930 . S
H71 C45 0.931 . S
H72 C52 0.932 . S
H73 C53 0.930 . S
H74 C54 0.929 . S
H75 C56 0.930 . S
H76 C58 0.932 . S
H77 C59 0.929 . S
H78 C60 0.928 . S
H79 C62 0.932 . S
C80 C81 1.264 . S
C80 C85 1.479 . S
C80 C90 1.465 . S
C81 C80 1.264 . S
C81 C83 1.339 . S
C81 H108 0.931 . S
C82 C83 1.395 . S
C82 C84 1.320 . S
C83 C81 1.339 . S
C83 C82 1.395 . S
C83 H109 0.929 . S
C84 C82 1.320 . S
C84 C85 1.405 . S
C84 H110 0.930 . S
C85 C80 1.479 . S
C85 C84 1.405 . S
C85 H111 0.931 . S
U86 O87 2.454 . S
U86 O88 2.458 . S
U86 C89 2.984 . S
U86 C90 2.847 . S
U86 C103 2.882 . S
U86 O104 2.441 . S
U86 O105 2.420 . S
U86 O106 2.455 . S
U86 O107 2.449 . S
O87 U86 2.454 . S
O87 C89 1.353 . S
O88 U86 2.458 . S
O88 C89 1.286 . S
C89 U86 2.984 . S
C89 O87 1.353 . S
C89 O88 1.286 . S
C89 C91 1.363 . S
C90 C80 1.465 . S
C90 U86 2.847 . S
C90 O104 1.249 . S
C90 O105 1.202 . S
C91 C89 1.363 . S
C91 C93 1.408 . S
C91 C96 1.342 . S
C92 C93 1.310 . S
C92 C95 1.461 . S
C92 H112 0.932 . S
C93 C91 1.408 . S
C93 C92 1.310 . S
C93 H113 0.930 . S
C94 C95 1.474 . S
C94 C96 1.285 . S
C94 H114 0.929 . S
C95 C92 1.461 . S
C95 C94 1.474 . S
C96 C91 1.342 . S
C96 C94 1.285 . S
C96 H115 0.930 . S
C97 C100 1.424 . S
C97 C102 1.245 . S
C97 C103 1.428 . S
C98 C101 1.260 . S
C98 C102 1.477 . S
C98 H116 0.932 . S
C99 C100 1.384 . S
C99 C101 1.479 . S
C99 H117 0.929 . S
C100 C97 1.424 . S
C100 C99 1.384 . S
C100 H118 0.928 . S
C101 C98 1.260 . S
C101 C99 1.479 . S
C102 C97 1.245 . S
C102 C98 1.477 . S
C102 H119 0.932 . S
C103 U86 2.882 . S
C103 C97 1.428 . S
C103 O106 1.301 . S
C103 O107 1.282 . S
O104 U86 2.441 . S
O104 C90 1.249 . S
O105 U86 2.420 . S
O105 C90 1.202 . S
O106 U86 2.455 . S
O106 C103 1.301 . S
O107 U86 2.449 . S
O107 C103 1.282 . S
H108 C81 0.931 . S
H109 C83 0.929 . S
H110 C84 0.930 . S
H111 C85 0.931 . S
H112 C92 0.932 . S
H113 C93 0.930 . S
H114 C94 0.929 . S
H115 C96 0.930 . S
H116 C98 0.932 . S
H117 C99 0.929 . S
H118 C100 0.928 . S
H119 C102 0.932 . S
C120 C121 1.264 . S
C120 C125 1.479 . S
C120 C130 1.465 . S
C121 C120 1.264 . S
C121 C123 1.339 . S
C121 H148 0.931 . S
C122 C123 1.395 . S
C122 C124 1.320 . S
C123 C121 1.339 . S
C123 C122 1.395 . S
C123 H149 0.929 . S
C124 C122 1.320 . S
C124 C125 1.405 . S
C124 H150 0.930 . S
C125 C120 1.479 . S
C125 C124 1.405 . S
C125 H151 0.931 . S
U126 O127 2.454 . S
U126 O128 2.458 . S
U126 C129 2.984 . S
U126 C130 2.847 . S
U126 C143 2.882 . S
U126 O144 2.441 . S
U126 O145 2.420 . S
U126 O146 2.455 . S
U126 O147 2.449 . S
O127 U126 2.454 . S
O127 C129 1.353 . S
O128 U126 2.458 . S
O128 C129 1.286 . S
C129 U126 2.984 . S
C129 O127 1.353 . S
C129 O128 1.286 . S
C129 C131 1.363 . S
C130 C120 1.465 . S
C130 U126 2.847 . S
C130 O144 1.249 . S
C130 O145 1.202 . S
C131 C129 1.363 . S
C131 C133 1.408 . S
C131 C136 1.342 . S
C132 C133 1.310 . S
C132 C135 1.461 . S
C132 H152 0.932 . S
C133 C131 1.408 . S
C133 C132 1.310 . S
C133 H153 0.930 . S
C134 C135 1.474 . S
C134 C136 1.285 . S
C134 H154 0.929 . S
C135 C132 1.461 . S
C135 C134 1.474 . S
C136 C131 1.342 . S
C136 C134 1.285 . S
C136 H155 0.930 . S
C137 C140 1.424 . S
C137 C142 1.245 . S
C137 C143 1.428 . S
C138 C141 1.260 . S
C138 C142 1.477 . S
C138 H156 0.932 . S
C139 C140 1.384 . S
C139 C141 1.479 . S
C139 H157 0.929 . S
C140 C137 1.424 . S
C140 C139 1.384 . S
C140 H158 0.928 . S
C141 C138 1.260 . S
C141 C139 1.479 . S
C142 C137 1.245 . S
C142 C138 1.477 . S
C142 H159 0.932 . S
C143 U126 2.882 . S
C143 C137 1.428 . S
C143 O146 1.301 . S
C143 O147 1.282 . S
O144 U126 2.441 . S
O144 C130 1.249 . S
O145 U126 2.420 . S
O145 C130 1.202 . S
O146 U126 2.455 . S
O146 C143 1.301 . S
O147 U126 2.449 . S
O147 C143 1.282 . S
H148 C121 0.931 . S
H149 C123 0.929 . S
H150 C124 0.930 . S
H151 C125 0.931 . S
H152 C132 0.932 . S
H153 C133 0.930 . S
H154 C134 0.929 . S
H155 C136 0.930 . S
H156 C138 0.932 . S
H157 C139 0.929 . S
H158 C140 0.928 . S
H159 C142 0.932 . S
C160 C161 1.264 . S
C160 C165 1.479 . S
C160 C170 1.465 . S
C161 C160 1.264 . S
C161 C163 1.339 . S
C161 H188 0.931 . S
C162 C163 1.395 . S
C162 C164 1.320 . S
C163 C161 1.339 . S
C163 C162 1.395 . S
C163 H189 0.929 . S
C164 C162 1.320 . S
C164 C165 1.405 . S
C164 H190 0.930 . S
C165 C160 1.479 . S
C165 C164 1.405 . S
C165 H191 0.931 . S
U166 O167 2.454 . S
U166 O168 2.458 . S
U166 C169 2.984 . S
U166 C170 2.847 . S
U166 C183 2.882 . S
U166 O184 2.441 . S
U166 O185 2.420 . S
U166 O186 2.455 . S
U166 O187 2.449 . S
O167 U166 2.454 . S
O167 C169 1.353 . S
O168 U166 2.458 . S
O168 C169 1.286 . S
C169 U166 2.984 . S
C169 O167 1.353 . S
C169 O168 1.286 . S
C169 C171 1.363 . S
C170 C160 1.465 . S
C170 U166 2.847 . S
C170 O184 1.249 . S
C170 O185 1.202 . S
C171 C169 1.363 . S
C171 C173 1.408 . S
C171 C176 1.342 . S
C172 C173 1.310 . S
C172 C175 1.461 . S
C172 H192 0.932 . S
C173 C171 1.408 . S
C173 C172 1.310 . S
C173 H193 0.930 . S
C174 C175 1.474 . S
C174 C176 1.285 . S
C174 H194 0.929 . S
C175 C172 1.461 . S
C175 C174 1.474 . S
C176 C171 1.342 . S
C176 C174 1.285 . S
C176 H195 0.930 . S
C177 C180 1.424 . S
C177 C182 1.245 . S
C177 C183 1.428 . S
C178 C181 1.260 . S
C178 C182 1.477 . S
C178 H196 0.932 . S
C179 C180 1.384 . S
C179 C181 1.479 . S
C179 H197 0.929 . S
C180 C177 1.424 . S
C180 C179 1.384 . S
C180 H198 0.928 . S
C181 C178 1.260 . S
C181 C179 1.479 . S
C182 C177 1.245 . S
C182 C178 1.477 . S
C182 H199 0.932 . S
C183 U166 2.882 . S
C183 C177 1.428 . S
C183 O186 1.301 . S
C183 O187 1.282 . S
O184 U166 2.441 . S
O184 C170 1.249 . S
O185 U166 2.420 . S
O185 C170 1.202 . S
O186 U166 2.455 . S
O186 C183 1.301 . S
O187 U166 2.449 . S
O187 C183 1.282 . S
H188 C161 0.931 . S
H189 C163 0.929 . S
H190 C164 0.930 . S
H191 C165 0.931 . S
H192 C172 0.932 . S
H193 C173 0.930 . S
H194 C174 0.929 . S
H195 C176 0.930 . S
H196 C178 0.932 . S
H197 C179 0.929 . S
H198 C180 0.928 . S
H199 C182 0.932 . S
C200 C201 1.264 . S
C200 C205 1.479 . S
C200 C210 1.465 . S
C201 C200 1.264 . S
C201 C203 1.339 . S
C201 H228 0.931 . S
C202 C203 1.395 . S
C202 C204 1.320 . S
C203 C201 1.339 . S
C203 C202 1.395 . S
C203 H229 0.929 . S
C204 C202 1.320 . S
C204 C205 1.405 . S
C204 H230 0.930 . S
C205 C200 1.479 . S
C205 C204 1.405 . S
C205 H231 0.931 . S
U206 O207 2.454 . S
U206 O208 2.458 . S
U206 C209 2.984 . S
U206 C210 2.847 . S
U206 C223 2.882 . S
U206 O224 2.441 . S
U206 O225 2.420 . S
U206 O226 2.455 . S
U206 O227 2.449 . S
O207 U206 2.454 . S
O207 C209 1.353 . S
O208 U206 2.458 . S
O208 C209 1.286 . S
C209 U206 2.984 . S
C209 O207 1.353 . S
C209 O208 1.286 . S
C209 C211 1.363 . S
C210 C200 1.465 . S
C210 U206 2.847 . S
C210 O224 1.249 . S
C210 O225 1.202 . S
C211 C209 1.363 . S
C211 C213 1.408 . S
C211 C216 1.342 . S
C212 C213 1.310 . S
C212 C215 1.461 . S
C212 H232 0.932 . S
C213 C211 1.408 . S
C213 C212 1.310 . S
C213 H233 0.930 . S
C214 C215 1.474 . S
C214 C216 1.285 . S
C214 H234 0.929 . S
C215 C212 1.461 . S
C215 C214 1.474 . S
C216 C211 1.342 . S
C216 C214 1.285 . S
C216 H235 0.930 . S
C217 C220 1.424 . S
C217 C222 1.245 . S
C217 C223 1.428 . S
C218 C221 1.260 . S
C218 C222 1.477 . S
C218 H236 0.932 . S
C219 C220 1.384 . S
C219 C221 1.479 . S
C219 H237 0.929 . S
C220 C217 1.424 . S
C220 C219 1.384 . S
C220 H238 0.928 . S
C221 C218 1.260 . S
C221 C219 1.479 . S
C222 C217 1.245 . S
C222 C218 1.477 . S
C222 H239 0.932 . S
C223 U206 2.882 . S
C223 C217 1.428 . S
C223 O226 1.301 . S
C223 O227 1.282 . S
O224 U206 2.441 . S
O224 C210 1.249 . S
O225 U206 2.420 . S
O225 C210 1.202 . S
O226 U206 2.455 . S
O226 C223 1.301 . S
O227 U206 2.449 . S
O227 C223 1.282 . S
H228 C201 0.931 . S
H229 C203 0.929 . S
H230 C204 0.930 . S
H231 C205 0.931 . S
H232 C212 0.932 . S
H233 C213 0.930 . S
H234 C214 0.929 . S
H235 C216 0.930 . S
H236 C218 0.932 . S
H237 C219 0.929 . S
H238 C220 0.928 . S
H239 C222 0.932 . S
C240 C241 1.264 . S
C240 C245 1.479 . S
C240 C250 1.465 . S
C241 C240 1.264 . S
C241 C243 1.339 . S
C241 H268 0.931 . S
C242 C243 1.395 . S
C242 C244 1.320 . S
C243 C241 1.339 . S
C243 C242 1.395 . S
C243 H269 0.929 . S
C244 C242 1.320 . S
C244 C245 1.405 . S
C244 H270 0.930 . S
C245 C240 1.479 . S
C245 C244 1.405 . S
C245 H271 0.931 . S
U246 O247 2.454 . S
U246 O248 2.458 . S
U246 C249 2.984 . S
U246 C250 2.847 . S
U246 C263 2.882 . S
U246 O264 2.441 . S
U246 O265 2.420 . S
U246 O266 2.455 . S
U246 O267 2.449 . S
O247 U246 2.454 . S
O247 C249 1.353 . S
O248 U246 2.458 . S
O248 C249 1.286 . S
C249 U246 2.984 . S
C249 O247 1.353 . S
C249 O248 1.286 . S
C249 C251 1.363 . S
C250 C240 1.465 . S
C250 U246 2.847 . S
C250 O264 1.249 . S
C250 O265 1.202 . S
C251 C249 1.363 . S
C251 C253 1.408 . S
C251 C256 1.342 . S
C252 C253 1.310 . S
C252 C255 1.461 . S
C252 H272 0.932 . S
C253 C251 1.408 . S
C253 C252 1.310 . S
C253 H273 0.930 . S
C254 C255 1.474 . S
C254 C256 1.285 . S
C254 H274 0.929 . S
C255 C252 1.461 . S
C255 C254 1.474 . S
C256 C251 1.342 . S
C256 C254 1.285 . S
C256 H275 0.930 . S
C257 C260 1.424 . S
C257 C262 1.245 . S
C257 C263 1.428 . S
C258 C261 1.260 . S
C258 C262 1.477 . S
C258 H276 0.932 . S
C259 C260 1.384 . S
C259 C261 1.479 . S
C259 H277 0.929 . S
C260 C257 1.424 . S
C260 C259 1.384 . S
C260 H278 0.928 . S
C261 C258 1.260 . S
C261 C259 1.479 . S
C262 C257 1.245 . S
C262 C258 1.477 . S
C262 H279 0.932 . S
C263 U246 2.882 . S
C263 C257 1.428 . S
C263 O266 1.301 . S
C263 O267 1.282 . S
O264 U246 2.441 . S
O264 C250 1.249 . S
O265 U246 2.420 . S
O265 C250 1.202 . S
O266 U246 2.455 . S
O266 C263 1.301 . S
O267 U246 2.449 . S
O267 C263 1.282 . S
H268 C241 0.931 . S
H269 C243 0.929 . S
H270 C244 0.930 . S
H271 C245 0.931 . S
H272 C252 0.932 . S
H273 C253 0.930 . S
H274 C254 0.929 . S
H275 C256 0.930 . S
H276 C258 0.932 . S
H277 C259 0.929 . S
H278 C260 0.928 . S
H279 C262 0.932 . S
C280 C281 1.264 . S
C280 C285 1.479 . S
C280 C290 1.465 . S
C281 C280 1.264 . S
C281 C283 1.339 . S
C281 H308 0.931 . S
C282 C283 1.395 . S
C282 C284 1.320 . S
C283 C281 1.339 . S
C283 C282 1.395 . S
C283 H309 0.929 . S
C284 C282 1.320 . S
C284 C285 1.405 . S
C284 H310 0.930 . S
C285 C280 1.479 . S
C285 C284 1.405 . S
C285 H311 0.931 . S
U286 O287 2.454 . S
U286 O288 2.458 . S
U286 C289 2.984 . S
U286 C290 2.847 . S
U286 C303 2.882 . S
U286 O304 2.441 . S
U286 O305 2.420 . S
U286 O306 2.455 . S
U286 O307 2.449 . S
O287 U286 2.454 . S
O287 C289 1.353 . S
O288 U286 2.458 . S
O288 C289 1.286 . S
C289 U286 2.984 . S
C289 O287 1.353 . S
C289 O288 1.286 . S
C289 C291 1.363 . S
C290 C280 1.465 . S
C290 U286 2.847 . S
C290 O304 1.249 . S
C290 O305 1.202 . S
C291 C289 1.363 . S
C291 C293 1.408 . S
C291 C296 1.342 . S
C292 C293 1.310 . S
C292 C295 1.461 . S
C292 H312 0.932 . S
C293 C291 1.408 . S
C293 C292 1.310 . S
C293 H313 0.930 . S
C294 C295 1.474 . S
C294 C296 1.285 . S
C294 H314 0.929 . S
C295 C292 1.461 . S
C295 C294 1.474 . S
C296 C291 1.342 . S
C296 C294 1.285 . S
C296 H315 0.930 . S
C297 C300 1.424 . S
C297 C302 1.245 . S
C297 C303 1.428 . S
C298 C301 1.260 . S
C298 C302 1.477 . S
C298 H316 0.932 . S
C299 C300 1.384 . S
C299 C301 1.479 . S
C299 H317 0.929 . S
C300 C297 1.424 . S
C300 C299 1.384 . S
C300 H318 0.928 . S
C301 C298 1.260 . S
C301 C299 1.479 . S
C302 C297 1.245 . S
C302 C298 1.477 . S
C302 H319 0.932 . S
C303 U286 2.882 . S
C303 C297 1.428 . S
C303 O306 1.301 . S
C303 O307 1.282 . S
O304 U286 2.441 . S
O304 C290 1.249 . S
O305 U286 2.420 . S
O305 C290 1.202 . S
O306 U286 2.455 . S
O306 C303 1.301 . S
O307 U286 2.449 . S
O307 C303 1.282 . S
H308 C281 0.931 . S
H309 C283 0.929 . S
H310 C284 0.930 . S
H311 C285 0.931 . S
H312 C292 0.932 . S
H313 C293 0.930 . S
H314 C294 0.929 . S
H315 C296 0.930 . S
H316 C298 0.932 . S
H317 C299 0.929 . S
H318 C300 0.928 . S
H319 C302 0.932 . S
C320 C321 1.264 . S
C320 C325 1.479 . S
C320 C330 1.465 . S
C321 C320 1.264 . S
C321 C323 1.339 . S
C321 H348 0.931 . S
C322 C323 1.395 . S
C322 C324 1.320 . S
C323 C321 1.339 . S
C323 C322 1.395 . S
C323 H349 0.929 . S
C324 C322 1.320 . S
C324 C325 1.405 . S
C324 H350 0.930 . S
C325 C320 1.479 . S
C325 C324 1.405 . S
C325 H351 0.931 . S
U326 O327 2.454 . S
U326 O328 2.458 . S
U326 C329 2.984 . S
U326 C330 2.847 . S
U326 C343 2.882 . S
U326 O344 2.441 . S
U326 O345 2.420 . S
U326 O346 2.455 . S
U326 O347 2.449 . S
O327 U326 2.454 . S
O327 C329 1.353 . S
O328 U326 2.458 . S
O328 C329 1.286 . S
C329 U326 2.984 . S
C329 O327 1.353 . S
C329 O328 1.286 . S
C329 C331 1.363 . S
C330 C320 1.465 . S
C330 U326 2.847 . S
C330 O344 1.249 . S
C330 O345 1.202 . S
C331 C329 1.363 . S
C331 C333 1.408 . S
C331 C336 1.342 . S
C332 C333 1.310 . S
C332 C335 1.461 . S
C332 H352 0.932 . S
C333 C331 1.408 . S
C333 C332 1.310 . S
C333 H353 0.930 . S
C334 C335 1.474 . S
C334 C336 1.285 . S
C334 H354 0.929 . S
C335 C332 1.461 . S
C335 C334 1.474 . S
C336 C331 1.342 . S
C336 C334 1.285 . S
C336 H355 0.930 . S
C337 C340 1.424 . S
C337 C342 1.245 . S
C337 C343 1.428 . S
C338 C341 1.260 . S
C338 C342 1.477 . S
C338 H356 0.932 . S
C339 C340 1.384 . S
C339 C341 1.479 . S
C339 H357 0.929 . S
C340 C337 1.424 . S
C340 C339 1.384 . S
C340 H358 0.928 . S
C341 C338 1.260 . S
C341 C339 1.479 . S
C342 C337 1.245 . S
C342 C338 1.477 . S
C342 H359 0.932 . S
C343 U326 2.882 . S
C343 C337 1.428 . S
C343 O346 1.301 . S
C343 O347 1.282 . S
O344 U326 2.441 . S
O344 C330 1.249 . S
O345 U326 2.420 . S
O345 C330 1.202 . S
O346 U326 2.455 . S
O346 C343 1.301 . S
O347 U326 2.449 . S
O347 C343 1.282 . S
H348 C321 0.931 . S
H349 C323 0.929 . S
H350 C324 0.930 . S
H351 C325 0.931 . S
H352 C332 0.932 . S
H353 C333 0.930 . S
H354 C334 0.929 . S
H355 C336 0.930 . S
H356 C338 0.932 . S
H357 C339 0.929 . S
H358 C340 0.928 . S
H359 C342 0.932 . S
C360 C361 1.264 . S
C360 C365 1.479 . S
C360 C370 1.465 . S
C361 C360 1.264 . S
C361 C363 1.339 . S
C361 H388 0.931 . S
C362 C363 1.395 . S
C362 C364 1.320 . S
C363 C361 1.339 . S
C363 C362 1.395 . S
C363 H389 0.929 . S
C364 C362 1.320 . S
C364 C365 1.405 . S
C364 H390 0.930 . S
C365 C360 1.479 . S
C365 C364 1.405 . S
C365 H391 0.931 . S
U366 O367 2.454 . S
U366 O368 2.458 . S
U366 C369 2.984 . S
U366 C370 2.847 . S
U366 C383 2.882 . S
U366 O384 2.441 . S
U366 O385 2.420 . S
U366 O386 2.455 . S
U366 O387 2.449 . S
O367 U366 2.454 . S
O367 C369 1.353 . S
O368 U366 2.458 . S
O368 C369 1.286 . S
C369 U366 2.984 . S
C369 O367 1.353 . S
C369 O368 1.286 . S
C369 C371 1.363 . S
C370 C360 1.465 . S
C370 U366 2.847 . S
C370 O384 1.249 . S
C370 O385 1.202 . S
C371 C369 1.363 . S
C371 C373 1.408 . S
C371 C376 1.342 . S
C372 C373 1.310 . S
C372 C375 1.461 . S
C372 H392 0.932 . S
C373 C371 1.408 . S
C373 C372 1.310 . S
C373 H393 0.930 . S
C374 C375 1.474 . S
C374 C376 1.285 . S
C374 H394 0.929 . S
C375 C372 1.461 . S
C375 C374 1.474 . S
C376 C371 1.342 . S
C376 C374 1.285 . S
C376 H395 0.930 . S
C377 C380 1.424 . S
C377 C382 1.245 . S
C377 C383 1.428 . S
C378 C381 1.260 . S
C378 C382 1.477 . S
C378 H396 0.932 . S
C379 C380 1.384 . S
C379 C381 1.479 . S
C379 H397 0.929 . S
C380 C377 1.424 . S
C380 C379 1.384 . S
C380 H398 0.928 . S
C381 C378 1.260 . S
C381 C379 1.479 . S
C382 C377 1.245 . S
C382 C378 1.477 . S
C382 H399 0.932 . S
C383 U366 2.882 . S
C383 C377 1.428 . S
C383 O386 1.301 . S
C383 O387 1.282 . S
O384 U366 2.441 . S
O384 C370 1.249 . S
O385 U366 2.420 . S
O385 C370 1.202 . S
O386 U366 2.455 . S
O386 C383 1.301 . S
O387 U366 2.449 . S
O387 C383 1.282 . S
H388 C361 0.931 . S
H389 C363 0.929 . S
H390 C364 0.930 . S
H391 C365 0.931 . S
H392 C372 0.932 . S
H393 C373 0.930 . S
H394 C374 0.929 . S
H395 C376 0.930 . S
H396 C378 0.932 . S
H397 C379 0.929 . S
H398 C380 0.928 . S
H399 C382 0.932 . S
C400 C401 1.264 . S
C400 C405 1.479 . S
C400 C410 1.465 . S
C401 C400 1.264 . S
C401 C403 1.339 . S
C401 H428 0.931 . S
C402 C403 1.395 . S
C402 C404 1.320 . S
C403 C401 1.339 . S
C403 C402 1.395 . S
C403 H429 0.929 . S
C404 C402 1.320 . S
C404 C405 1.405 . S
C404 H430 0.930 . S
C405 C400 1.479 . S
C405 C404 1.405 . S
C405 H431 0.931 . S
U406 O407 2.454 . S
U406 O408 2.458 . S
U406 C409 2.984 . S
U406 C410 2.847 . S
U406 C423 2.882 . S
U406 O424 2.441 . S
U406 O425 2.420 . S
U406 O426 2.455 . S
U406 O427 2.449 . S
O407 U406 2.454 . S
O407 C409 1.353 . S
O408 U406 2.458 . S
O408 C409 1.286 . S
C409 U406 2.984 . S
C409 O407 1.353 . S
C409 O408 1.286 . S
C409 C411 1.363 . S
C410 C400 1.465 . S
C410 U406 2.847 . S
C410 O424 1.249 . S
C410 O425 1.202 . S
C411 C409 1.363 . S
C411 C413 1.408 . S
C411 C416 1.342 . S
C412 C413 1.310 . S
C412 C415 1.461 . S
C412 H432 0.932 . S
C413 C411 1.408 . S
C413 C412 1.310 . S
C413 H433 0.930 . S
C414 C415 1.474 . S
C414 C416 1.285 . S
C414 H434 0.929 . S
C415 C412 1.461 . S
C415 C414 1.474 . S
C416 C411 1.342 . S
C416 C414 1.285 . S
C416 H435 0.930 . S
C417 C420 1.424 . S
C417 C422 1.245 . S
C417 C423 1.428 . S
C418 C421 1.260 . S
C418 C422 1.477 . S
C418 H436 0.932 . S
C419 C420 1.384 . S
C419 C421 1.479 . S
C419 H437 0.929 . S
C420 C417 1.424 . S
C420 C419 1.384 . S
C420 H438 0.928 . S
C421 C418 1.260 . S
C421 C419 1.479 . S
C422 C417 1.245 . S
C422 C418 1.477 . S
C422 H439 0.932 . S
C423 U406 2.882 . S
C423 C417 1.428 . S
C423 O426 1.301 . S
C423 O427 1.282 . S
O424 U406 2.441 . S
O424 C410 1.249 . S
O425 U406 2.420 . S
O425 C410 1.202 . S
O426 U406 2.455 . S
O426 C423 1.301 . S
O427 U406 2.449 . S
O427 C423 1.282 . S
H428 C401 0.931 . S
H429 C403 0.929 . S
H430 C404 0.930 . S
H431 C405 0.931 . S
H432 C412 0.932 . S
H433 C413 0.930 . S
H434 C414 0.929 . S
H435 C416 0.930 . S
H436 C418 0.932 . S
H437 C419 0.929 . S
H438 C420 0.928 . S
H439 C422 0.932 . S
C440 C441 1.264 . S
C440 C445 1.479 . S
C440 C450 1.465 . S
C441 C440 1.264 . S
C441 C443 1.339 . S
C441 H468 0.931 . S
C442 C443 1.395 . S
C442 C444 1.320 . S
C443 C441 1.339 . S
C443 C442 1.395 . S
C443 H469 0.929 . S
C444 C442 1.320 . S
C444 C445 1.405 . S
C444 H470 0.930 . S
C445 C440 1.479 . S
C445 C444 1.405 . S
C445 H471 0.931 . S
U446 O447 2.454 . S
U446 O448 2.458 . S
U446 C449 2.984 . S
U446 C450 2.847 . S
U446 C463 2.882 . S
U446 O464 2.441 . S
U446 O465 2.420 . S
U446 O466 2.455 . S
U446 O467 2.449 . S
O447 U446 2.454 . S
O447 C449 1.353 . S
O448 U446 2.458 . S
O448 C449 1.286 . S
C449 U446 2.984 . S
C449 O447 1.353 . S
C449 O448 1.286 . S
C449 C451 1.363 . S
C450 C440 1.465 . S
C450 U446 2.847 . S
C450 O464 1.249 . S
C450 O465 1.202 . S
C451 C449 1.363 . S
C451 C453 1.408 . S
C451 C456 1.342 . S
C452 C453 1.310 . S
C452 C455 1.461 . S
C452 H472 0.932 . S
C453 C451 1.408 . S
C453 C452 1.310 . S
C453 H473 0.930 . S
C454 C455 1.474 . S
C454 C456 1.285 . S
C454 H474 0.929 . S
C455 C452 1.461 . S
C455 C454 1.474 . S
C456 C451 1.342 . S
C456 C454 1.285 . S
C456 H475 0.930 . S
C457 C460 1.424 . S
C457 C462 1.245 . S
C457 C463 1.428 . S
C458 C461 1.260 . S
C458 C462 1.477 . S
C458 H476 0.932 . S
C459 C460 1.384 . S
C459 C461 1.479 . S
C459 H477 0.929 . S
C460 C457 1.424 . S
C460 C459 1.384 . S
C460 H478 0.928 . S
C461 C458 1.260 . S
C461 C459 1.479 . S
C462 C457 1.245 . S
C462 C458 1.477 . S
C462 H479 0.932 . S
C463 U446 2.882 . S
C463 C457 1.428 . S
C463 O466 1.301 . S
C463 O467 1.282 . S
O464 U446 2.441 . S
O464 C450 1.249 . S
O465 U446 2.420 . S
O465 C450 1.202 . S
O466 U446 2.455 . S
O466 C463 1.301 . S
O467 U446 2.449 . S
O467 C463 1.282 . S
H468 C441 0.931 . S
H469 C443 0.929 . S
H470 C444 0.930 . S
H471 C445 0.931 . S
H472 C452 0.932 . S
H473 C453 0.930 . S
H474 C454 0.929 . S
H475 C456 0.930 . S
H476 C458 0.932 . S
H477 C459 0.929 . S
H478 C460 0.928 . S
H479 C462 0.932 . S
C480 C481 1.264 . S
C480 C485 1.479 . S
C480 C490 1.465 . S
C481 C480 1.264 . S
C481 C483 1.339 . S
C481 H508 0.931 . S
C482 C483 1.395 . S
C482 C484 1.320 . S
C483 C481 1.339 . S
C483 C482 1.395 . S
C483 H509 0.929 . S
C484 C482 1.320 . S
C484 C485 1.405 . S
C484 H510 0.930 . S
C485 C480 1.479 . S
C485 C484 1.405 . S
C485 H511 0.931 . S
U486 O487 2.454 . S
U486 O488 2.458 . S
U486 C489 2.984 . S
U486 C490 2.847 . S
U486 C503 2.882 . S
U486 O504 2.441 . S
U486 O505 2.420 . S
U486 O506 2.455 . S
U486 O507 2.449 . S
O487 U486 2.454 . S
O487 C489 1.353 . S
O488 U486 2.458 . S
O488 C489 1.286 . S
C489 U486 2.984 . S
C489 O487 1.353 . S
C489 O488 1.286 . S
C489 C491 1.363 . S
C490 C480 1.465 . S
C490 U486 2.847 . S
C490 O504 1.249 . S
C490 O505 1.202 . S
C491 C489 1.363 . S
C491 C493 1.408 . S
C491 C496 1.342 . S
C492 C493 1.310 . S
C492 C495 1.461 . S
C492 H512 0.932 . S
C493 C491 1.408 . S
C493 C492 1.310 . S
C493 H513 0.930 . S
C494 C495 1.474 . S
C494 C496 1.285 . S
C494 H514 0.929 . S
C495 C492 1.461 . S
C495 C494 1.474 . S
C496 C491 1.342 . S
C496 C494 1.285 . S
C496 H515 0.930 . S
C497 C500 1.424 . S
C497 C502 1.245 . S
C497 C503 1.428 . S
C498 C501 1.260 . S
C498 C502 1.477 . S
C498 H516 0.932 . S
C499 C500 1.384 . S
C499 C501 1.479 . S
C499 H517 0.929 . S
C500 C497 1.424 . S
C500 C499 1.384 . S
C500 H518 0.928 . S
C501 C498 1.260 . S
C501 C499 1.479 . S
C502 C497 1.245 . S
C502 C498 1.477 . S
C502 H519 0.932 . S
C503 U486 2.882 . S
C503 C497 1.428 . S
C503 O506 1.301 . S
C503 O507 1.282 . S
O504 U486 2.441 . S
O504 C490 1.249 . S
O505 U486 2.420 . S
O505 C490 1.202 . S
O506 U486 2.455 . S
O506 C503 1.301 . S
O507 U486 2.449 . S
O507 C503 1.282 . S
H508 C481 0.931 . S
H509 C483 0.929 . S
H510 C484 0.930 . S
H511 C485 0.931 . S
H512 C492 0.932 . S
H513 C493 0.930 . S
H514 C494 0.929 . S
H515 C496 0.930 . S
H516 C498 0.932 . S
H517 C499 0.929 . S
H518 C500 0.928 . S
H519 C502 0.932 . S
C520 C521 1.264 . S
C520 C525 1.479 . S
C520 C530 1.465 . S
C521 C520 1.264 . S
C521 C523 1.339 . S
C521 H548 0.931 . S
C522 C523 1.395 . S
C522 C524 1.320 . S
C523 C521 1.339 . S
C523 C522 1.395 . S
C523 H549 0.929 . S
C524 C522 1.320 . S
C524 C525 1.405 . S
C524 H550 0.930 . S
C525 C520 1.479 . S
C525 C524 1.405 . S
C525 H551 0.931 . S
U526 O527 2.454 . S
U526 O528 2.458 . S
U526 C529 2.984 . S
U526 C530 2.847 . S
U526 C543 2.882 . S
U526 O544 2.441 . S
U526 O545 2.420 . S
U526 O546 2.455 . S
U526 O547 2.449 . S
O527 U526 2.454 . S
O527 C529 1.353 . S
O528 U526 2.458 . S
O528 C529 1.286 . S
C529 U526 2.984 . S
C529 O527 1.353 . S
C529 O528 1.286 . S
C529 C531 1.363 . S
C530 C520 1.465 . S
C530 U526 2.847 . S
C530 O544 1.249 . S
C530 O545 1.202 . S
C531 C529 1.363 . S
C531 C533 1.408 . S
C531 C536 1.342 . S
C532 C533 1.310 . S
C532 C535 1.461 . S
C532 H552 0.932 . S
C533 C531 1.408 . S
C533 C532 1.310 . S
C533 H553 0.930 . S
C534 C535 1.474 . S
C534 C536 1.285 . S
C534 H554 0.929 . S
C535 C532 1.461 . S
C535 C534 1.474 . S
C536 C531 1.342 . S
C536 C534 1.285 . S
C536 H555 0.930 . S
C537 C540 1.424 . S
C537 C542 1.245 . S
C537 C543 1.428 . S
C538 C541 1.260 . S
C538 C542 1.477 . S
C538 H556 0.932 . S
C539 C540 1.384 . S
C539 C541 1.479 . S
C539 H557 0.929 . S
C540 C537 1.424 . S
C540 C539 1.384 . S
C540 H558 0.928 . S
C541 C538 1.260 . S
C541 C539 1.479 . S
C542 C537 1.245 . S
C542 C538 1.477 . S
C542 H559 0.932 . S
C543 U526 2.882 . S
C543 C537 1.428 . S
C543 O546 1.301 . S
C543 O547 1.282 . S
O544 U526 2.441 . S
O544 C530 1.249 . S
O545 U526 2.420 . S
O545 C530 1.202 . S
O546 U526 2.455 . S
O546 C543 1.301 . S
O547 U526 2.449 . S
O547 C543 1.282 . S
H548 C521 0.931 . S
H549 C523 0.929 . S
H550 C524 0.930 . S
H551 C525 0.931 . S
H552 C532 0.932 . S
H553 C533 0.930 . S
H554 C534 0.929 . S
H555 C536 0.930 . S
H556 C538 0.932 . S
H557 C539 0.929 . S
H558 C540 0.928 . S
H559 C542 0.932 . S
C560 C561 1.264 . S
C560 C565 1.479 . S
C560 C570 1.465 . S
C561 C560 1.264 . S
C561 C563 1.339 . S
C561 H588 0.931 . S
C562 C563 1.395 . S
C562 C564 1.320 . S
C563 C561 1.339 . S
C563 C562 1.395 . S
C563 H589 0.929 . S
C564 C562 1.320 . S
C564 C565 1.405 . S
C564 H590 0.930 . S
C565 C560 1.479 . S
C565 C564 1.405 . S
C565 H591 0.931 . S
U566 O567 2.454 . S
U566 O568 2.458 . S
U566 C569 2.984 . S
U566 C570 2.847 . S
U566 C583 2.882 . S
U566 O584 2.441 . S
U566 O585 2.420 . S
U566 O586 2.455 . S
U566 O587 2.449 . S
O567 U566 2.454 . S
O567 C569 1.353 . S
O568 U566 2.458 . S
O568 C569 1.286 . S
C569 U566 2.984 . S
C569 O567 1.353 . S
C569 O568 1.286 . S
C569 C571 1.363 . S
C570 C560 1.465 . S
C570 U566 2.847 . S
C570 O584 1.249 . S
C570 O585 1.202 . S
C571 C569 1.363 . S
C571 C573 1.408 . S
C571 C576 1.342 . S
C572 C573 1.310 . S
C572 C575 1.461 . S
C572 H592 0.932 . S
C573 C571 1.408 . S
C573 C572 1.310 . S
C573 H593 0.930 . S
C574 C575 1.474 . S
C574 C576 1.285 . S
C574 H594 0.929 . S
C575 C572 1.461 . S
C575 C574 1.474 . S
C576 C571 1.342 . S
C576 C574 1.285 . S
C576 H595 0.930 . S
C577 C580 1.424 . S
C577 C582 1.245 . S
C577 C583 1.428 . S
C578 C581 1.260 . S
C578 C582 1.477 . S
C578 H596 0.932 . S
C579 C580 1.384 . S
C579 C581 1.479 . S
C579 H597 0.929 . S
C580 C577 1.424 . S
C580 C579 1.384 . S
C580 H598 0.928 . S
C581 C578 1.260 . S
C581 C579 1.479 . S
C582 C577 1.245 . S
C582 C578 1.477 . S
C582 H599 0.932 . S
C583 U566 2.882 . S
C583 C577 1.428 . S
C583 O586 1.301 . S
C583 O587 1.282 . S
O584 U566 2.441 . S
O584 C570 1.249 . S
O585 U566 2.420 . S
O585 C570 1.202 . S
O586 U566 2.455 . S
O586 C583 1.301 . S
O587 U566 2.449 . S
O587 C583 1.282 . S
H588 C561 0.931 . S
H589 C563 0.929 . S
H590 C564 0.930 . S
H591 C565 0.931 . S
H592 C572 0.932 . S
H593 C573 0.930 . S
H594 C574 0.929 . S
H595 C576 0.930 . S
H596 C578 0.932 . S
H597 C579 0.929 . S
H598 C580 0.928 . S
H599 C582 0.932 . S
C600 C601 1.264 . S
C600 C605 1.479 . S
C600 C610 1.465 . S
C601 C600 1.264 . S
C601 C603 1.339 . S
C601 H628 0.931 . S
C602 C603 1.395 . S
C602 C604 1.320 . S
C603 C601 1.339 . S
C603 C602 1.395 . S
C603 H629 0.929 . S
C604 C602 1.320 . S
C604 C605 1.405 . S
C604 H630 0.930 . S
C605 C600 1.479 . S
C605 C604 1.405 . S
C605 H631 0.931 . S
U606 O607 2.454 . S
U606 O608 2.458 . S
U606 C609 2.984 . S
U606 C610 2.847 . S
U606 C623 2.882 . S
U606 O624 2.441 . S
U606 O625 2.420 . S
U606 O626 2.455 . S
U606 O627 2.449 . S
O607 U606 2.454 . S
O607 C609 1.353 . S
O608 U606 2.458 . S
O608 C609 1.286 . S
C609 U606 2.984 . S
C609 O607 1.353 . S
C609 O608 1.286 . S
C609 C611 1.363 . S
C610 C600 1.465 . S
C610 U606 2.847 . S
C610 O624 1.249 . S
C610 O625 1.202 . S
C611 C609 1.363 . S
C611 C613 1.408 . S
C611 C616 1.342 . S
C612 C613 1.310 . S
C612 C615 1.461 . S
C612 H632 0.932 . S
C613 C611 1.408 . S
C613 C612 1.310 . S
C613 H633 0.930 . S
C614 C615 1.474 . S
C614 C616 1.285 . S
C614 H634 0.929 . S
C615 C612 1.461 . S
C615 C614 1.474 . S
C616 C611 1.342 . S
C616 C614 1.285 . S
C616 H635 0.930 . S
C617 C620 1.424 . S
C617 C622 1.245 . S
C617 C623 1.428 . S
C618 C621 1.260 . S
C618 C622 1.477 . S
C618 H636 0.932 . S
C619 C620 1.384 . S
C619 C621 1.479 . S
C619 H637 0.929 . S
C620 C617 1.424 . S
C620 C619 1.384 . S
C620 H638 0.928 . S
C621 C618 1.260 . S
C621 C619 1.479 . S
C622 C617 1.245 . S
C622 C618 1.477 . S
C622 H639 0.932 . S
C623 U606 2.882 . S
C623 C617 1.428 . S
C623 O626 1.301 . S
C623 O627 1.282 . S
O624 U606 2.441 . S
O624 C610 1.249 . S
O625 U606 2.420 . S
O625 C610 1.202 . S
O626 U606 2.455 . S
O626 C623 1.301 . S
O627 U606 2.449 . S
O627 C623 1.282 . S
H628 C601 0.931 . S
H629 C603 0.929 . S
H630 C604 0.930 . S
H631 C605 0.931 . S
H632 C612 0.932 . S
H633 C613 0.930 . S
H634 C614 0.929 . S
H635 C616 0.930 . S
H636 C618 0.932 . S
H637 C619 0.929 . S
H638 C620 0.928 . S
H639 C622 0.932 . S
C640 C641 1.264 . S
C640 C645 1.479 . S
C640 C650 1.465 . S
C641 C640 1.264 . S
C641 C643 1.339 . S
C641 H668 0.931 . S
C642 C643 1.395 . S
C642 C644 1.320 . S
C643 C641 1.339 . S
C643 C642 1.395 . S
C643 H669 0.929 . S
C644 C642 1.320 . S
C644 C645 1.405 . S
C644 H670 0.930 . S
C645 C640 1.479 . S
C645 C644 1.405 . S
C645 H671 0.931 . S
U646 O647 2.454 . S
U646 O648 2.458 . S
U646 C649 2.984 . S
U646 C650 2.847 . S
U646 C663 2.882 . S
U646 O664 2.441 . S
U646 O665 2.420 . S
U646 O666 2.455 . S
U646 O667 2.449 . S
O647 U646 2.454 . S
O647 C649 1.353 . S
O648 U646 2.458 . S
O648 C649 1.286 . S
C649 U646 2.984 . S
C649 O647 1.353 . S
C649 O648 1.286 . S
C649 C651 1.363 . S
C650 C640 1.465 . S
C650 U646 2.847 . S
C650 O664 1.249 . S
C650 O665 1.202 . S
C651 C649 1.363 . S
C651 C653 1.408 . S
C651 C656 1.342 . S
C652 C653 1.310 . S
C652 C655 1.461 . S
C652 H672 0.932 . S
C653 C651 1.408 . S
C653 C652 1.310 . S
C653 H673 0.930 . S
C654 C655 1.474 . S
C654 C656 1.285 . S
C654 H674 0.929 . S
C655 C652 1.461 . S
C655 C654 1.474 . S
C656 C651 1.342 . S
C656 C654 1.285 . S
C656 H675 0.930 . S
C657 C660 1.424 . S
C657 C662 1.245 . S
C657 C663 1.428 . S
C658 C661 1.260 . S
C658 C662 1.477 . S
C658 H676 0.932 . S
C659 C660 1.384 . S
C659 C661 1.479 . S
C659 H677 0.929 . S
C660 C657 1.424 . S
C660 C659 1.384 . S
C660 H678 0.928 . S
C661 C658 1.260 . S
C661 C659 1.479 . S
C662 C657 1.245 . S
C662 C658 1.477 . S
C662 H679 0.932 . S
C663 U646 2.882 . S
C663 C657 1.428 . S
C663 O666 1.301 . S
C663 O667 1.282 . S
O664 U646 2.441 . S
O664 C650 1.249 . S
O665 U646 2.420 . S
O665 C650 1.202 . S
O666 U646 2.455 . S
O666 C663 1.301 . S
O667 U646 2.449 . S
O667 C663 1.282 . S
H668 C641 0.931 . S
H669 C643 0.929 . S
H670 C644 0.930 . S
H671 C645 0.931 . S
H672 C652 0.932 . S
H673 C653 0.930 . S
H674 C654 0.929 . S
H675 C656 0.930 . S
H676 C658 0.932 . S
H677 C659 0.929 . S
H678 C660 0.928 . S
H679 C662 0.932 . S
C680 C681 1.264 . S
C680 C685 1.479 . S
C680 C690 1.465 . S
C681 C680 1.264 . S
C681 C683 1.339 . S
C681 H708 0.931 . S
C682 C683 1.395 . S
C682 C684 1.320 . S
C683 C681 1.339 . S
C683 C682 1.395 . S
C683 H709 0.929 . S
C684 C682 1.320 . S
C684 C685 1.405 . S
C684 H710 0.930 . S
C685 C680 1.479 . S
C685 C684 1.405 . S
C685 H711 0.931 . S
U686 O687 2.454 . S
U686 O688 2.458 . S
U686 C689 2.984 . S
U686 C690 2.847 . S
U686 C703 2.882 . S
U686 O704 2.441 . S
U686 O705 2.420 . S
U686 O706 2.455 . S
U686 O707 2.449 . S
O687 U686 2.454 . S
O687 C689 1.353 . S
O688 U686 2.458 . S
O688 C689 1.286 . S
C689 U686 2.984 . S
C689 O687 1.353 . S
C689 O688 1.286 . S
C689 C691 1.363 . S
C690 C680 1.465 . S
C690 U686 2.847 . S
C690 O704 1.249 . S
C690 O705 1.202 . S
C691 C689 1.363 . S
C691 C693 1.408 . S
C691 C696 1.342 . S
C692 C693 1.310 . S
C692 C695 1.461 . S
C692 H712 0.932 . S
C693 C691 1.408 . S
C693 C692 1.310 . S
C693 H713 0.930 . S
C694 C695 1.474 . S
C694 C696 1.285 . S
C694 H714 0.929 . S
C695 C692 1.461 . S
C695 C694 1.474 . S
C696 C691 1.342 . S
C696 C694 1.285 . S
C696 H715 0.930 . S
C697 C700 1.424 . S
C697 C702 1.245 . S
C697 C703 1.428 . S
C698 C701 1.260 . S
C698 C702 1.477 . S
C698 H716 0.932 . S
C699 C700 1.384 . S
C699 C701 1.479 . S
C699 H717 0.929 . S
C700 C697 1.424 . S
C700 C699 1.384 . S
C700 H718 0.928 . S
C701 C698 1.260 . S
C701 C699 1.479 . S
C702 C697 1.245 . S
C702 C698 1.477 . S
C702 H719 0.932 . S
C703 U686 2.882 . S
C703 C697 1.428 . S
C703 O706 1.301 . S
C703 O707 1.282 . S
O704 U686 2.441 . S
O704 C690 1.249 . S
O705 U686 2.420 . S
O705 C690 1.202 . S
O706 U686 2.455 . S
O706 C703 1.301 . S
O707 U686 2.449 . S
O707 C703 1.282 . S
H708 C681 0.931 . S
H709 C683 0.929 . S
H710 C684 0.930 . S
H711 C685 0.931 . S
H712 C692 0.932 . S
H713 C693 0.930 . S
H714 C694 0.929 . S
H715 C696 0.930 . S
H716 C698 0.932 . S
H717 C699 0.929 . S
H718 C700 0.928 . S
H719 C702 0.932 . S
C720 C721 1.264 . S
C720 C725 1.479 . S
C720 C730 1.465 . S
C721 C720 1.264 . S
C721 C723 1.339 . S
C721 H748 0.931 . S
C722 C723 1.395 . S
C722 C724 1.320 . S
C723 C721 1.339 . S
C723 C722 1.395 . S
C723 H749 0.929 . S
C724 C722 1.320 . S
C724 C725 1.405 . S
C724 H750 0.930 . S
C725 C720 1.479 . S
C725 C724 1.405 . S
C725 H751 0.931 . S
U726 O727 2.454 . S
U726 O728 2.458 . S
U726 C729 2.984 . S
U726 C730 2.847 . S
U726 C743 2.882 . S
U726 O744 2.441 . S
U726 O745 2.420 . S
U726 O746 2.455 . S
U726 O747 2.449 . S
O727 U726 2.454 . S
O727 C729 1.353 . S
O728 U726 2.458 . S
O728 C729 1.286 . S
C729 U726 2.984 . S
C729 O727 1.353 . S
C729 O728 1.286 . S
C729 C731 1.363 . S
C730 C720 1.465 . S
C730 U726 2.847 . S
C730 O744 1.249 . S
C730 O745 1.202 . S
C731 C729 1.363 . S
C731 C733 1.408 . S
C731 C736 1.342 . S
C732 C733 1.310 . S
C732 C735 1.461 . S
C732 H752 0.932 . S
C733 C731 1.408 . S
C733 C732 1.310 . S
C733 H753 0.930 . S
C734 C735 1.474 . S
C734 C736 1.285 . S
C734 H754 0.929 . S
C735 C732 1.461 . S
C735 C734 1.474 . S
C736 C731 1.342 . S
C736 C734 1.285 . S
C736 H755 0.930 . S
C737 C740 1.424 . S
C737 C742 1.245 . S
C737 C743 1.428 . S
C738 C741 1.260 . S
C738 C742 1.477 . S
C738 H756 0.932 . S
C739 C740 1.384 . S
C739 C741 1.479 . S
C739 H757 0.929 . S
C740 C737 1.424 . S
C740 C739 1.384 . S
C740 H758 0.928 . S
C741 C738 1.260 . S
C741 C739 1.479 . S
C742 C737 1.245 . S
C742 C738 1.477 . S
C742 H759 0.932 . S
C743 U726 2.882 . S
C743 C737 1.428 . S
C743 O746 1.301 . S
C743 O747 1.282 . S
O744 U726 2.441 . S
O744 C730 1.249 . S
O745 U726 2.420 . S
O745 C730 1.202 . S
O746 U726 2.455 . S
O746 C743 1.301 . S
O747 U726 2.449 . S
O747 C743 1.282 . S
H748 C721 0.931 . S
H749 C723 0.929 . S
H750 C724 0.930 . S
H751 C725 0.931 . S
H752 C732 0.932 . S
H753 C733 0.930 . S
H754 C734 0.929 . S
H755 C736 0.930 . S
H756 C738 0.932 . S
H757 C739 0.929 . S
H758 C740 0.928 . S
H759 C742 0.932 . S
C760 C761 1.264 . S
C760 C765 1.479 . S
C760 C770 1.465 . S
C761 C760 1.264 . S
C761 C763 1.339 . S
C761 H788 0.931 . S
C762 C763 1.395 . S
C762 C764 1.320 . S
C763 C761 1.339 . S
C763 C762 1.395 . S
C763 H789 0.929 . S
C764 C762 1.320 . S
C764 C765 1.405 . S
C764 H790 0.930 . S
C765 C760 1.479 . S
C765 C764 1.405 . S
C765 H791 0.931 . S
U766 O767 2.454 . S
U766 O768 2.458 . S
U766 C769 2.984 . S
U766 C770 2.847 . S
U766 C783 2.882 . S
U766 O784 2.441 . S
U766 O785 2.420 . S
U766 O786 2.455 . S
U766 O787 2.449 . S
O767 U766 2.454 . S
O767 C769 1.353 . S
O768 U766 2.458 . S
O768 C769 1.286 . S
C769 U766 2.984 . S
C769 O767 1.353 . S
C769 O768 1.286 . S
C769 C771 1.363 . S
C770 C760 1.465 . S
C770 U766 2.847 . S
C770 O784 1.249 . S
C770 O785 1.202 . S
C771 C769 1.363 . S
C771 C773 1.408 . S
C771 C776 1.342 . S
C772 C773 1.310 . S
C772 C775 1.461 . S
C772 H792 0.932 . S
C773 C771 1.408 . S
C773 C772 1.310 . S
C773 H793 0.930 . S
C774 C775 1.474 . S
C774 C776 1.285 . S
C774 H794 0.929 . S
C775 C772 1.461 . S
C775 C774 1.474 . S
C776 C771 1.342 . S
C776 C774 1.285 . S
C776 H795 0.930 . S
C777 C780 1.424 . S
C777 C782 1.245 . S
C777 C783 1.428 . S
C778 C781 1.260 . S
C778 C782 1.477 . S
C778 H796 0.932 . S
C779 C780 1.384 . S
C779 C781 1.479 . S
C779 H797 0.929 . S
C780 C777 1.424 . S
C780 C779 1.384 . S
C780 H798 0.928 . S
C781 C778 1.260 . S
C781 C779 1.479 . S
C782 C777 1.245 . S
C782 C778 1.477 . S
C782 H799 0.932 . S
C783 U766 2.882 . S
C783 C777 1.428 . S
C783 O786 1.301 . S
C783 O787 1.282 . S
O784 U766 2.441 . S
O784 C770 1.249 . S
O785 U766 2.420 . S
O785 C770 1.202 . S
O786 U766 2.455 . S
O786 C783 1.301 . S
O787 U766 2.449 . S
O787 C783 1.282 . S
H788 C761 0.931 . S
H789 C763 0.929 . S
H790 C764 0.930 . S
H791 C765 0.931 . S
H792 C772 0.932 . S
H793 C773 0.930 . S
H794 C774 0.929 . S
H795 C776 0.930 . S
H796 C778 0.932 . S
H797 C779 0.929 . S
H798 C780 0.928 . S
H799 C782 0.932 . S
C800 C801 1.264 . S
C800 C805 1.479 . S
C800 C810 1.465 . S
C801 C800 1.264 . S
C801 C803 1.339 . S
C801 H828 0.931 . S
C802 C803 1.395 . S
C802 C804 1.320 . S
C803 C801 1.339 . S
C803 C802 1.395 . S
C803 H829 0.929 . S
C804 C802 1.320 . S
C804 C805 1.405 . S
C804 H830 0.930 . S
C805 C800 1.479 . S
C805 C804 1.405 . S
C805 H831 0.931 . S
U806 O807 2.454 . S
U806 O808 2.458 . S
U806 C809 2.984 . S
U806 C810 2.847 . S
U806 C823 2.882 . S
U806 O824 2.441 . S
U806 O825 2.420 . S
U806 O826 2.455 . S
U806 O827 2.449 . S
O807 U806 2.454 . S
O807 C809 1.353 . S
O808 U806 2.458 . S
O808 C809 1.286 . S
C809 U806 2.984 . S
C809 O807 1.353 . S
C809 O808 1.286 . S
C809 C811 1.363 . S
C810 C800 1.465 . S
C810 U806 2.847 . S
C810 O824 1.249 . S
C810 O825 1.202 . S
C811 C809 1.363 . S
C811 C813 1.408 . S
C811 C816 1.342 . S
C812 C813 1.310 . S
C812 C815 1.461 . S
C812 H832 0.932 . S
C813 C811 1.408 . S
C813 C812 1.310 . S
C813 H833 0.930 . S
C814 C815 1.474 . S
C814 C816 1.285 . S
C814 H834 0.929 . S
C815 C812 1.461 . S
C815 C814 1.474 . S
C816 C811 1.342 . S
C816 C814 1.285 . S
C816 H835 0.930 . S
C817 C820 1.424 . S
C817 C822 1.245 . S
C817 C823 1.428 . S
C818 C821 1.260 . S
C818 C822 1.477 . S
C818 H836 0.932 . S
C819 C820 1.384 . S
C819 C821 1.479 . S
C819 H837 0.929 . S
C820 C817 1.424 . S
C820 C819 1.384 . S
C820 H838 0.928 . S
C821 C818 1.260 . S
C821 C819 1.479 . S
C822 C817 1.245 . S
C822 C818 1.477 . S
C822 H839 0.932 . S
C823 U806 2.882 . S
C823 C817 1.428 . S
C823 O826 1.301 . S
C823 O827 1.282 . S
O824 U806 2.441 . S
O824 C810 1.249 . S
O825 U806 2.420 . S
O825 C810 1.202 . S
O826 U806 2.455 . S
O826 C823 1.301 . S
O827 U806 2.449 . S
O827 C823 1.282 . S
H828 C801 0.931 . S
H829 C803 0.929 . S
H830 C804 0.930 . S
H831 C805 0.931 . S
H832 C812 0.932 . S
H833 C813 0.930 . S
H834 C814 0.929 . S
H835 C816 0.930 . S
H836 C818 0.932 . S
H837 C819 0.929 . S
H838 C820 0.928 . S
H839 C822 0.932 . S
C840 C841 1.264 . S
C840 C845 1.479 . S
C840 C850 1.465 . S
C841 C840 1.264 . S
C841 C843 1.339 . S
C841 H868 0.931 . S
C842 C843 1.395 . S
C842 C844 1.320 . S
C843 C841 1.339 . S
C843 C842 1.395 . S
C843 H869 0.929 . S
C844 C842 1.320 . S
C844 C845 1.405 . S
C844 H870 0.930 . S
C845 C840 1.479 . S
C845 C844 1.405 . S
C845 H871 0.931 . S
U846 O847 2.454 . S
U846 O848 2.458 . S
U846 C849 2.984 . S
U846 C850 2.847 . S
U846 C863 2.882 . S
U846 O864 2.441 . S
U846 O865 2.420 . S
U846 O866 2.455 . S
U846 O867 2.449 . S
O847 U846 2.454 . S
O847 C849 1.353 . S
O848 U846 2.458 . S
O848 C849 1.286 . S
C849 U846 2.984 . S
C849 O847 1.353 . S
C849 O848 1.286 . S
C849 C851 1.363 . S
C850 C840 1.465 . S
C850 U846 2.847 . S
C850 O864 1.249 . S
C850 O865 1.202 . S
C851 C849 1.363 . S
C851 C853 1.408 . S
C851 C856 1.342 . S
C852 C853 1.310 . S
C852 C855 1.461 . S
C852 H872 0.932 . S
C853 C851 1.408 . S
C853 C852 1.310 . S
C853 H873 0.930 . S
C854 C855 1.474 . S
C854 C856 1.285 . S
C854 H874 0.929 . S
C855 C852 1.461 . S
C855 C854 1.474 . S
C856 C851 1.342 . S
C856 C854 1.285 . S
C856 H875 0.930 . S
C857 C860 1.424 . S
C857 C862 1.245 . S
C857 C863 1.428 . S
C858 C861 1.260 . S
C858 C862 1.477 . S
C858 H876 0.932 . S
C859 C860 1.384 . S
C859 C861 1.479 . S
C859 H877 0.929 . S
C860 C857 1.424 . S
C860 C859 1.384 . S
C860 H878 0.928 . S
C861 C858 1.260 . S
C861 C859 1.479 . S
C862 C857 1.245 . S
C862 C858 1.477 . S
C862 H879 0.932 . S
C863 U846 2.882 . S
C863 C857 1.428 . S
C863 O866 1.301 . S
C863 O867 1.282 . S
O864 U846 2.441 . S
O864 C850 1.249 . S
O865 U846 2.420 . S
O865 C850 1.202 . S
O866 U846 2.455 . S
O866 C863 1.301 . S
O867 U846 2.449 . S
O867 C863 1.282 . S
H868 C841 0.931 . S
H869 C843 0.929 . S
H870 C844 0.930 . S
H871 C845 0.931 . S
H872 C852 0.932 . S
H873 C853 0.930 . S
H874 C854 0.929 . S
H875 C856 0.930 . S
H876 C858 0.932 . S
H877 C859 0.929 . S
H878 C860 0.928 . S
H879 C862 0.932 . S
C880 C881 1.264 . S
C880 C885 1.479 . S
C880 C890 1.465 . S
C881 C880 1.264 . S
C881 C883 1.339 . S
C881 H908 0.931 . S
C882 C883 1.395 . S
C882 C884 1.320 . S
C883 C881 1.339 . S
C883 C882 1.395 . S
C883 H909 0.929 . S
C884 C882 1.320 . S
C884 C885 1.405 . S
C884 H910 0.930 . S
C885 C880 1.479 . S
C885 C884 1.405 . S
C885 H911 0.931 . S
U886 O887 2.454 . S
U886 O888 2.458 . S
U886 C889 2.984 . S
U886 C890 2.847 . S
U886 C903 2.882 . S
U886 O904 2.441 . S
U886 O905 2.420 . S
U886 O906 2.455 . S
U886 O907 2.449 . S
O887 U886 2.454 . S
O887 C889 1.353 . S
O888 U886 2.458 . S
O888 C889 1.286 . S
C889 U886 2.984 . S
C889 O887 1.353 . S
C889 O888 1.286 . S
C889 C891 1.363 . S
C890 C880 1.465 . S
C890 U886 2.847 . S
C890 O904 1.249 . S
C890 O905 1.202 . S
C891 C889 1.363 . S
C891 C893 1.408 . S
C891 C896 1.342 . S
C892 C893 1.310 . S
C892 C895 1.461 . S
C892 H912 0.932 . S
C893 C891 1.408 . S
C893 C892 1.310 . S
C893 H913 0.930 . S
C894 C895 1.474 . S
C894 C896 1.285 . S
C894 H914 0.929 . S
C895 C892 1.461 . S
C895 C894 1.474 . S
C896 C891 1.342 . S
C896 C894 1.285 . S
C896 H915 0.930 . S
C897 C900 1.424 . S
C897 C902 1.245 . S
C897 C903 1.428 . S
C898 C901 1.260 . S
C898 C902 1.477 . S
C898 H916 0.932 . S
C899 C900 1.384 . S
C899 C901 1.479 . S
C899 H917 0.929 . S
C900 C897 1.424 . S
C900 C899 1.384 . S
C900 H918 0.928 . S
C901 C898 1.260 . S
C901 C899 1.479 . S
C902 C897 1.245 . S
C902 C898 1.477 . S
C902 H919 0.932 . S
C903 U886 2.882 . S
C903 C897 1.428 . S
C903 O906 1.301 . S
C903 O907 1.282 . S
O904 U886 2.441 . S
O904 C890 1.249 . S
O905 U886 2.420 . S
O905 C890 1.202 . S
O906 U886 2.455 . S
O906 C903 1.301 . S
O907 U886 2.449 . S
O907 C903 1.282 . S
H908 C881 0.931 . S
H909 C883 0.929 . S
H910 C884 0.930 . S
H911 C885 0.931 . S
H912 C892 0.932 . S
H913 C893 0.930 . S
H914 C894 0.929 . S
H915 C896 0.930 . S
H916 C898 0.932 . S
H917 C899 0.929 . S
H918 C900 0.928 . S
H919 C902 0.932 . S
C920 C921 1.264 . S
C920 C925 1.479 . S
C920 C930 1.465 . S
C921 C920 1.264 . S
C921 C923 1.339 . S
C921 H948 0.931 . S
C922 C923 1.395 . S
C922 C924 1.320 . S
C923 C921 1.339 . S
C923 C922 1.395 . S
C923 H949 0.929 . S
C924 C922 1.320 . S
C924 C925 1.405 . S
C924 H950 0.930 . S
C925 C920 1.479 . S
C925 C924 1.405 . S
C925 H951 0.931 . S
U926 O927 2.454 . S
U926 O928 2.458 . S
U926 C929 2.984 . S
U926 C930 2.847 . S
U926 C943 2.882 . S
U926 O944 2.441 . S
U926 O945 2.420 . S
U926 O946 2.455 . S
U926 O947 2.449 . S
O927 U926 2.454 . S
O927 C929 1.353 . S
O928 U926 2.458 . S
O928 C929 1.286 . S
C929 U926 2.984 . S
C929 O927 1.353 . S
C929 O928 1.286 . S
C929 C931 1.363 . S
C930 C920 1.465 . S
C930 U926 2.847 . S
C930 O944 1.249 . S
C930 O945 1.202 . S
C931 C929 1.363 . S
C931 C933 1.408 . S
C931 C936 1.342 . S
C932 C933 1.310 . S
C932 C935 1.461 . S
C932 H952 0.932 . S
C933 C931 1.408 . S
C933 C932 1.310 . S
C933 H953 0.930 . S
C934 C935 1.474 . S
C934 C936 1.285 . S
C934 H954 0.929 . S
C935 C932 1.461 . S
C935 C934 1.474 . S
C936 C931 1.342 . S
C936 C934 1.285 . S
C936 H955 0.930 . S
C937 C940 1.424 . S
C937 C942 1.245 . S
C937 C943 1.428 . S
C938 C941 1.260 . S
C938 C942 1.477 . S
C938 H956 0.932 . S
C939 C940 1.384 . S
C939 C941 1.479 . S
C939 H957 0.929 . S
C940 C937 1.424 . S
C940 C939 1.384 . S
C940 H958 0.928 . S
C941 C938 1.260 . S
C941 C939 1.479 . S
C942 C937 1.245 . S
C942 C938 1.477 . S
C942 H959 0.932 . S
C943 U926 2.882 . S
C943 C937 1.428 . S
C943 O946 1.301 . S
C943 O947 1.282 . S
O944 U926 2.441 . S
O944 C930 1.249 . S
O945 U926 2.420 . S
O945 C930 1.202 . S
O946 U926 2.455 . S
O946 C943 1.301 . S
O947 U926 2.449 . S
O947 C943 1.282 . S
H948 C921 0.931 . S
H949 C923 0.929 . S
H950 C924 0.930 . S
H951 C925 0.931 . S
H952 C932 0.932 . S
H953 C933 0.930 . S
H954 C934 0.929 . S
H955 C936 0.930 . S
H956 C938 0.932 . S
H957 C939 0.929 . S
H958 C940 0.928 . S
H959 C942 0.932 . S
C960 C961 1.264 . S
C960 C965 1.479 . S
C960 C970 1.465 . S
C961 C960 1.264 . S
C961 C963 1.339 . S
C961 H988 0.931 . S
C962 C963 1.395 . S
C962 C964 1.320 . S
C963 C961 1.339 . S
C963 C962 1.395 . S
C963 H989 0.929 . S
C964 C962 1.320 . S
C964 C965 1.405 . S
C964 H990 0.930 . S
C965 C960 1.479 . S
C965 C964 1.405 . S
C965 H991 0.931 . S
U966 O967 2.454 . S
U966 O968 2.458 . S
U966 C969 2.984 . S
U966 C970 2.847 . S
U966 C983 2.882 . S
U966 O984 2.441 . S
U966 O985 2.420 . S
U966 O986 2.455 . S
U966 O987 2.449 . S
O967 U966 2.454 . S
O967 C969 1.353 . S
O968 U966 2.458 . S
O968 C969 1.286 . S
C969 U966 2.984 . S
C969 O967 1.353 . S
C969 O968 1.286 . S
C969 C971 1.363 . S
C970 C960 1.465 . S
C970 U966 2.847 . S
C970 O984 1.249 . S
C970 O985 1.202 . S
C971 C969 1.363 . S
C971 C973 1.408 . S
C971 C976 1.342 . S
C972 C973 1.310 . S
C972 C975 1.461 . S
C972 H992 0.932 . S
C973 C971 1.408 . S
C973 C972 1.310 . S
C973 H993 0.930 . S
C974 C975 1.474 . S
C974 C976 1.285 . S
C974 H994 0.929 . S
C975 C972 1.461 . S
C975 C974 1.474 . S
C976 C971 1.342 . S
C976 C974 1.285 . S
C976 H995 0.930 . S
C977 C980 1.424 . S
C977 C982 1.245 . S
C977 C983 1.428 . S
C978 C981 1.260 . S
C978 C982 1.477 . S
C978 H996 0.932 . S
C979 C980 1.384 . S
C979 C981 1.479 . S
C979 H997 0.929 . S
C980 C977 1.424 . S
C980 C979 1.384 . S
C980 H998 0.928 . S
C981 C978 1.260 . S
C981 C979 1.479 . S
C982 C977 1.245 . S
C982 C978 1.477 . S
C982 H999 0.932 . S
C983 U966 2.882 . S
C983 C977 1.428 . S
C983 O986 1.301 . S
C983 O987 1.282 . S
O984 U966 2.441 . S
O984 C970 1.249 . S
O985 U966 2.420 . S
O985 C970 1.202 . S
O986 U966 2.455 . S
O986 C983 1.301 . S
O987 U966 2.449 . S
O987 C983 1.282 . S
H988 C961 0.931 . S
H989 C963 0.929 . S
H990 C964 0.930 . S
H991 C965 0.931 . S
H992 C972 0.932 . S
H993 C973 0.930 . S
H994 C974 0.929 . S
H995 C976 0.930 . S
H996 C978 0.932 . S
H997 C979 0.929 . S
H998 C980 0.928 . S
H999 C982 0.932 . S
C1000 C1001 1.264 . S
C1000 C1005 1.479 . S
C1000 C1010 1.465 . S
C1001 C1000 1.264 . S
C1001 C1003 1.339 . S
C1001 H1028 0.931 . S
C1002 C1003 1.395 . S
C1002 C1004 1.320 . S
C1003 C1001 1.339 . S
C1003 C1002 1.395 . S
C1003 H1029 0.929 . S
C1004 C1002 1.320 . S
C1004 C1005 1.405 . S
C1004 H1030 0.930 . S
C1005 C1000 1.479 . S
C1005 C1004 1.405 . S
C1005 H1031 0.931 . S
U1006 O1007 2.454 . S
U1006 O1008 2.458 . S
U1006 C1009 2.984 . S
U1006 C1010 2.847 . S
U1006 C1023 2.882 . S
U1006 O1024 2.441 . S
U1006 O1025 2.420 . S
U1006 O1026 2.455 . S
U1006 O1027 2.449 . S
O1007 U1006 2.454 . S
O1007 C1009 1.353 . S
O1008 U1006 2.458 . S
O1008 C1009 1.286 . S
C1009 U1006 2.984 . S
C1009 O1007 1.353 . S
C1009 O1008 1.286 . S
C1009 C1011 1.363 . S
C1010 C1000 1.465 . S
C1010 U1006 2.847 . S
C1010 O1024 1.249 . S
C1010 O1025 1.202 . S
C1011 C1009 1.363 . S
C1011 C1013 1.408 . S
C1011 C1016 1.342 . S
C1012 C1013 1.310 . S
C1012 C1015 1.461 . S
C1012 H1032 0.932 . S
C1013 C1011 1.408 . S
C1013 C1012 1.310 . S
C1013 H1033 0.930 . S
C1014 C1015 1.474 . S
C1014 C1016 1.285 . S
C1014 H1034 0.929 . S
C1015 C1012 1.461 . S
C1015 C1014 1.474 . S
C1016 C1011 1.342 . S
C1016 C1014 1.285 . S
C1016 H1035 0.930 . S
C1017 C1020 1.424 . S
C1017 C1022 1.245 . S
C1017 C1023 1.428 . S
C1018 C1021 1.260 . S
C1018 C1022 1.477 . S
C1018 H1036 0.932 . S
C1019 C1020 1.384 . S
C1019 C1021 1.479 . S
C1019 H1037 0.929 . S
C1020 C1017 1.424 . S
C1020 C1019 1.384 . S
C1020 H1038 0.928 . S
C1021 C1018 1.260 . S
C1021 C1019 1.479 . S
C1022 C1017 1.245 . S
C1022 C1018 1.477 . S
C1022 H1039 0.932 . S
C1023 U1006 2.882 . S
C1023 C1017 1.428 . S
C1023 O1026 1.301 . S
C1023 O1027 1.282 . S
O1024 U1006 2.441 . S
O1024 C1010 1.249 . S
O1025 U1006 2.420 . S
O1025 C1010 1.202 . S
O1026 U1006 2.455 . S
O1026 C1023 1.301 . S
O1027 U1006 2.449 . S
O1027 C1023 1.282 . S
H1028 C1001 0.931 . S
H1029 C1003 0.929 . S
H1030 C1004 0.930 . S
H1031 C1005 0.931 . S
H1032 C1012 0.932 . S
H1033 C1013 0.930 . S
H1034 C1014 0.929 . S
H1035 C1016 0.930 . S
H1036 C1018 0.932 . S
H1037 C1019 0.929 . S
H1038 C1020 0.928 . S
H1039 C1022 0.932 . S
C1040 C1041 1.264 . S
C1040 C1045 1.479 . S
C1040 C1050 1.465 . S
C1041 C1040 1.264 . S
C1041 C1043 1.339 . S
C1041 H1068 0.931 . S
C1042 C1043 1.395 . S
C1042 C1044 1.320 . S
C1043 C1041 1.339 . S
C1043 C1042 1.395 . S
C1043 H1069 0.929 . S
C1044 C1042 1.320 . S
C1044 C1045 1.405 . S
C1044 H1070 0.930 . S
C1045 C1040 1.479 . S
C1045 C1044 1.405 . S
C1045 H1071 0.931 . S
U1046 O1047 2.454 . S
U1046 O1048 2.458 . S
U1046 C1049 2.984 . S
U1046 C1050 2.847 . S
U1046 C1063 2.882 . S
U1046 O1064 2.441 . S
U1046 O1065 2.420 . S
U1046 O1066 2.455 . S
U1046 O1067 2.449 . S
O1047 U1046 2.454 . S
O1047 C1049 1.353 . S
O1048 U1046 2.458 . S
O1048 C1049 1.286 . S
C1049 U1046 2.984 . S
C1049 O1047 1.353 . S
C1049 O1048 1.286 . S
C1049 C1051 1.363 . S
C1050 C1040 1.465 . S
C1050 U1046 2.847 . S
C1050 O1064 1.249 . S
C1050 O1065 1.202 . S
C1051 C1049 1.363 . S
C1051 C1053 1.408 . S
C1051 C1056 1.342 . S
C1052 C1053 1.310 . S
C1052 C1055 1.461 . S
C1052 H1072 0.932 . S
C1053 C1051 1.408 . S
C1053 C1052 1.310 . S
C1053 H1073 0.930 . S
C1054 C1055 1.474 . S
C1054 C1056 1.285 . S
C1054 H1074 0.929 . S
C1055 C1052 1.461 . S
C1055 C1054 1.474 . S
C1056 C1051 1.342 . S
C1056 C1054 1.285 . S
C1056 H1075 0.930 . S
C1057 C1060 1.424 . S
C1057 C1062 1.245 . S
C1057 C1063 1.428 . S
C1058 C1061 1.260 . S
C1058 C1062 1.477 . S
C1058 H1076 0.932 . S
C1059 C1060 1.384 . S
C1059 C1061 1.479 . S
C1059 H1077 0.929 . S
C1060 C1057 1.424 . S
C1060 C1059 1.384 . S
C1060 H1078 0.928 . S
C1061 C1058 1.260 . S
C1061 C1059 1.479 . S
C1062 C1057 1.245 . S
C1062 C1058 1.477 . S
C1062 H1079 0.932 . S
C1063 U1046 2.882 . S
C1063 C1057 1.428 . S
C1063 O1066 1.301 . S
C1063 O1067 1.282 . S
O1064 U1046 2.441 . S
O1064 C1050 1.249 . S
O1065 U1046 2.420 . S
O1065 C1050 1.202 . S
O1066 U1046 2.455 . S
O1066 C1063 1.301 . S
O1067 U1046 2.449 . S
O1067 C1063 1.282 . S
H1068 C1041 0.931 . S
H1069 C1043 0.929 . S
H1070 C1044 0.930 . S
H1071 C1045 0.931 . S
H1072 C1052 0.932 . S
H1073 C1053 0.930 . S
H1074 C1054 0.929 . S
H1075 C1056 0.930 . S
H1076 C1058 0.932 . S
H1077 C1059 0.929 . S
H1078 C1060 0.928 . S
H1079 C1062 0.932 . S
C1080 C1081 1.264 . S
C1080 C1085 1.479 . S
C1080 C1090 1.465 . S
C1081 C1080 1.264 . S
C1081 C1083 1.339 . S
C1081 H1108 0.931 . S
C1082 C1083 1.395 . S
C1082 C1084 1.320 . S
C1083 C1081 1.339 . S
C1083 C1082 1.395 . S
C1083 H1109 0.929 . S
C1084 C1082 1.320 . S
C1084 C1085 1.405 . S
C1084 H1110 0.930 . S
C1085 C1080 1.479 . S
C1085 C1084 1.405 . S
C1085 H1111 0.931 . S
U1086 O1087 2.454 . S
U1086 O1088 2.458 . S
U1086 C1089 2.984 . S
U1086 C1090 2.847 . S
U1086 C1103 2.882 . S
U1086 O1104 2.441 . S
U1086 O1105 2.420 . S
U1086 O1106 2.455 . S
U1086 O1107 2.449 . S
O1087 U1086 2.454 . S
O1087 C1089 1.353 . S
O1088 U1086 2.458 . S
O1088 C1089 1.286 . S
C1089 U1086 2.984 . S
C1089 O1087 1.353 . S
C1089 O1088 1.286 . S
C1089 C1091 1.363 . S
C1090 C1080 1.465 . S
C1090 U1086 2.847 . S
C1090 O1104 1.249 . S
C1090 O1105 1.202 . S
C1091 C1089 1.363 . S
C1091 C1093 1.408 . S
C1091 C1096 1.342 . S
C1092 C1093 1.310 . S
C1092 C1095 1.461 . S
C1092 H1112 0.932 . S
C1093 C1091 1.408 . S
C1093 C1092 1.310 . S
C1093 H1113 0.930 . S
C1094 C1095 1.474 . S
C1094 C1096 1.285 . S
C1094 H1114 0.929 . S
C1095 C1092 1.461 . S
C1095 C1094 1.474 . S
C1096 C1091 1.342 . S
C1096 C1094 1.285 . S
C1096 H1115 0.930 . S
C1097 C1100 1.424 . S
C1097 C1102 1.245 . S
C1097 C1103 1.428 . S
C1098 C1101 1.260 . S
C1098 C1102 1.477 . S
C1098 H1116 0.932 . S
C1099 C1100 1.384 . S
C1099 C1101 1.479 . S
C1099 H1117 0.929 . S
C1100 C1097 1.424 . S
C1100 C1099 1.384 . S
C1100 H1118 0.928 . S
C1101 C1098 1.260 . S
C1101 C1099 1.479 . S
C1102 C1097 1.245 . S
C1102 C1098 1.477 . S
C1102 H1119 0.932 . S
C1103 U1086 2.882 . S
C1103 C1097 1.428 . S
C1103 O1106 1.301 . S
C1103 O1107 1.282 . S
O1104 U1086 2.441 . S
O1104 C1090 1.249 . S
O1105 U1086 2.420 . S
O1105 C1090 1.202 . S
O1106 U1086 2.455 . S
O1106 C1103 1.301 . S
O1107 U1086 2.449 . S
O1107 C1103 1.282 . S
H1108 C1081 0.931 . S
H1109 C1083 0.929 . S
H1110 C1084 0.930 . S
H1111 C1085 0.931 . S
H1112 C1092 0.932 . S
H1113 C1093 0.930 . S
H1114 C1094 0.929 . S
H1115 C1096 0.930 . S
H1116 C1098 0.932 . S
H1117 C1099 0.929 . S
H1118 C1100 0.928 . S
H1119 C1102 0.932 . S
C1120 C1121 1.264 . S
C1120 C1125 1.479 . S
C1120 C1130 1.465 . S
C1121 C1120 1.264 . S
C1121 C1123 1.339 . S
C1121 H1148 0.931 . S
C1122 C1123 1.395 . S
C1122 C1124 1.320 . S
C1123 C1121 1.339 . S
C1123 C1122 1.395 . S
C1123 H1149 0.929 . S
C1124 C1122 1.320 . S
C1124 C1125 1.405 . S
C1124 H1150 0.930 . S
C1125 C1120 1.479 . S
C1125 C1124 1.405 . S
C1125 H1151 0.931 . S
U1126 O1127 2.454 . S
U1126 O1128 2.458 . S
U1126 C1129 2.984 . S
U1126 C1130 2.847 . S
U1126 C1143 2.882 . S
U1126 O1144 2.441 . S
U1126 O1145 2.420 . S
U1126 O1146 2.455 . S
U1126 O1147 2.449 . S
O1127 U1126 2.454 . S
O1127 C1129 1.353 . S
O1128 U1126 2.458 . S
O1128 C1129 1.286 . S
C1129 U1126 2.984 . S
C1129 O1127 1.353 . S
C1129 O1128 1.286 . S
C1129 C1131 1.363 . S
C1130 C1120 1.465 . S
C1130 U1126 2.847 . S
C1130 O1144 1.249 . S
C1130 O1145 1.202 . S
C1131 C1129 1.363 . S
C1131 C1133 1.408 . S
C1131 C1136 1.342 . S
C1132 C1133 1.310 . S
C1132 C1135 1.461 . S
C1132 H1152 0.932 . S
C1133 C1131 1.408 . S
C1133 C1132 1.310 . S
C1133 H1153 0.930 . S
C1134 C1135 1.474 . S
C1134 C1136 1.285 . S
C1134 H1154 0.929 . S
C1135 C1132 1.461 . S
C1135 C1134 1.474 . S
C1136 C1131 1.342 . S
C1136 C1134 1.285 . S
C1136 H1155 0.930 . S
C1137 C1140 1.424 . S
C1137 C1142 1.245 . S
C1137 C1143 1.428 . S
C1138 C1141 1.260 . S
C1138 C1142 1.477 . S
C1138 H1156 0.932 . S
C1139 C1140 1.384 . S
C1139 C1141 1.479 . S
C1139 H1157 0.929 . S
C1140 C1137 1.424 . S
C1140 C1139 1.384 . S
C1140 H1158 0.928 . S
C1141 C1138 1.260 . S
C1141 C1139 1.479 . S
C1142 C1137 1.245 . S
C1142 C1138 1.477 . S
C1142 H1159 0.932 . S
C1143 U1126 2.882 . S
C1143 C1137 1.428 . S
C1143 O1146 1.301 . S
C1143 O1147 1.282 . S
O1144 U1126 2.441 . S
O1144 C1130 1.249 . S
O1145 U1126 2.420 . S
O1145 C1130 1.202 . S
O1146 U1126 2.455 . S
O1146 C1143 1.301 . S
O1147 U1126 2.449 . S
O1147 C1143 1.282 . S
H1148 C1121 0.931 . S
H1149 C1123 0.929 . S
H1150 C1124 0.930 . S
H1151 C1125 0.931 . S
H1152 C1132 0.932 . S
H1153 C1133 0.930 . S
H1154 C1134 0.929 . S
H1155 C1136 0.930 . S
H1156 C1138 0.932 . S
H1157 C1139 0.929 . S
H1158 C1140 0.928 . S
H1159 C1142 0.932 . S
C1160 C1161 1.264 . S
C1160 C1165 1.479 . S
C1160 C1170 1.465 . S
C1161 C1160 1.264 . S
C1161 C1163 1.339 . S
C1161 H1188 0.931 . S
C1162 C1163 1.395 . S
C1162 C1164 1.320 . S
C1163 C1161 1.339 . S
C1163 C1162 1.395 . S
C1163 H1189 0.929 . S
C1164 C1162 1.320 . S
C1164 C1165 1.405 . S
C1164 H1190 0.930 . S
C1165 C1160 1.479 . S
C1165 C1164 1.405 . S
C1165 H1191 0.931 . S
U1166 O1167 2.454 . S
U1166 O1168 2.458 . S
U1166 C1169 2.984 . S
U1166 C1170 2.847 . S
U1166 C1183 2.882 . S
U1166 O1184 2.441 . S
U1166 O1185 2.420 . S
U1166 O1186 2.455 . S
U1166 O1187 2.449 . S
O1167 U1166 2.454 . S
O1167 C1169 1.353 . S
O1168 U1166 2.458 . S
O1168 C1169 1.286 . S
C1169 U1166 2.984 . S
C1169 O1167 1.353 . S
C1169 O1168 1.286 . S
C1169 C1171 1.363 . S
C1170 C1160 1.465 . S
C1170 U1166 2.847 . S
C1170 O1184 1.249 . S
C1170 O1185 1.202 . S
C1171 C1169 1.363 . S
C1171 C1173 1.408 . S
C1171 C1176 1.342 . S
C1172 C1173 1.310 . S
C1172 C1175 1.461 . S
C1172 H1192 0.932 . S
C1173 C1171 1.408 . S
C1173 C1172 1.310 . S
C1173 H1193 0.930 . S
C1174 C1175 1.474 . S
C1174 C1176 1.285 . S
C1174 H1194 0.929 . S
C1175 C1172 1.461 . S
C1175 C1174 1.474 . S
C1176 C1171 1.342 . S
C1176 C1174 1.285 . S
C1176 H1195 0.930 . S
C1177 C1180 1.424 . S
C1177 C1182 1.245 . S
C1177 C1183 1.428 . S
C1178 C1181 1.260 . S
C1178 C1182 1.477 . S
C1178 H1196 0.932 . S
C1179 C1180 1.384 . S
C1179 C1181 1.479 . S
C1179 H1197 0.929 . S
C1180 C1177 1.424 . S
C1180 C1179 1.384 . S
C1180 H1198 0.928 . S
C1181 C1178 1.260 . S
C1181 C1179 1.479 . S
C1182 C1177 1.245 . S
C1182 C1178 1.477 . S
C1182 H1199 0.932 . S
C1183 U1166 2.882 . S
C1183 C1177 1.428 . S
C1183 O1186 1.301 . S
C1183 O1187 1.282 . S
O1184 U1166 2.441 . S
O1184 C1170 1.249 . S
O1185 U1166 2.420 . S
O1185 C1170 1.202 . S
O1186 U1166 2.455 . S
O1186 C1183 1.301 . S
O1187 U1166 2.449 . S
O1187 C1183 1.282 . S
H1188 C1161 0.931 . S
H1189 C1163 0.929 . S
H1190 C1164 0.930 . S
H1191 C1165 0.931 . S
H1192 C1172 0.932 . S
H1193 C1173 0.930 . S
H1194 C1174 0.929 . S
H1195 C1176 0.930 . S
H1196 C1178 0.932 . S
H1197 C1179 0.929 . S
H1198 C1180 0.928 . S
H1199 C1182 0.932 . S
C1200 C1201 1.264 . S
C1200 C1205 1.479 . S
C1200 C1210 1.465 . S
C1201 C1200 1.264 . S
C1201 C1203 1.339 . S
C1201 H1228 0.931 . S
C1202 C1203 1.395 . S
C1202 C1204 1.320 . S
C1203 C1201 1.339 . S
C1203 C1202 1.395 . S
C1203 H1229 0.929 . S
C1204 C1202 1.320 . S
C1204 C1205 1.405 . S
C1204 H1230 0.930 . S
C1205 C1200 1.479 . S
C1205 C1204 1.405 . S
C1205 H1231 0.931 . S
U1206 O1207 2.454 . S
U1206 O1208 2.458 . S
U1206 C1209 2.984 . S
U1206 C1210 2.847 . S
U1206 C1223 2.882 . S
U1206 O1224 2.441 . S
U1206 O1225 2.420 . S
U1206 O1226 2.455 . S
U1206 O1227 2.449 . S
O1207 U1206 2.454 . S
O1207 C1209 1.353 . S
O1208 U1206 2.458 . S
O1208 C1209 1.286 . S
C1209 U1206 2.984 . S
C1209 O1207 1.353 . S
C1209 O1208 1.286 . S
C1209 C1211 1.363 . S
C1210 C1200 1.465 . S
C1210 U1206 2.847 . S
C1210 O1224 1.249 . S
C1210 O1225 1.202 . S
C1211 C1209 1.363 . S
C1211 C1213 1.408 . S
C1211 C1216 1.342 . S
C1212 C1213 1.310 . S
C1212 C1215 1.461 . S
C1212 H1232 0.932 . S
C1213 C1211 1.408 . S
C1213 C1212 1.310 . S
C1213 H1233 0.930 . S
C1214 C1215 1.474 . S
C1214 C1216 1.285 . S
C1214 H1234 0.929 . S
C1215 C1212 1.461 . S
C1215 C1214 1.474 . S
C1216 C1211 1.342 . S
C1216 C1214 1.285 . S
C1216 H1235 0.930 . S
C1217 C1220 1.424 . S
C1217 C1222 1.245 . S
C1217 C1223 1.428 . S
C1218 C1221 1.260 . S
C1218 C1222 1.477 . S
C1218 H1236 0.932 . S
C1219 C1220 1.384 . S
C1219 C1221 1.479 . S
C1219 H1237 0.929 . S
C1220 C1217 1.424 . S
C1220 C1219 1.384 . S
C1220 H1238 0.928 . S
C1221 C1218 1.260 . S
C1221 C1219 1.479 . S
C1222 C1217 1.245 . S
C1222 C1218 1.477 . S
C1222 H1239 0.932 . S
C1223 U1206 2.882 . S
C1223 C1217 1.428 . S
C1223 O1226 1.301 . S
C1223 O1227 1.282 . S
O1224 U1206 2.441 . S
O1224 C1210 1.249 . S
O1225 U1206 2.420 . S
O1225 C1210 1.202 . S
O1226 U1206 2.455 . S
O1226 C1223 1.301 . S
O1227 U1206 2.449 . S
O1227 C1223 1.282 . S
H1228 C1201 0.931 . S
H1229 C1203 0.929 . S
H1230 C1204 0.930 . S
H1231 C1205 0.931 . S
H1232 C1212 0.932 . S
H1233 C1213 0.930 . S
H1234 C1214 0.929 . S
H1235 C1216 0.930 . S
H1236 C1218 0.932 . S
H1237 C1219 0.929 . S
H1238 C1220 0.928 . S
H1239 C1222 0.932 . S
C1240 C1241 1.264 . S
C1240 C1245 1.479 . S
C1240 C1250 1.465 . S
C1241 C1240 1.264 . S
C1241 C1243 1.339 . S
C1241 H1268 0.931 . S
C1242 C1243 1.395 . S
C1242 C1244 1.320 . S
C1243 C1241 1.339 . S
C1243 C1242 1.395 . S
C1243 H1269 0.929 . S
C1244 C1242 1.320 . S
C1244 C1245 1.405 . S
C1244 H1270 0.930 . S
C1245 C1240 1.479 . S
C1245 C1244 1.405 . S
C1245 H1271 0.931 . S
U1246 O1247 2.454 . S
U1246 O1248 2.458 . S
U1246 C1249 2.984 . S
U1246 C1250 2.847 . S
U1246 C1263 2.882 . S
U1246 O1264 2.441 . S
U1246 O1265 2.420 . S
U1246 O1266 2.455 . S
U1246 O1267 2.449 . S
O1247 U1246 2.454 . S
O1247 C1249 1.353 . S
O1248 U1246 2.458 . S
O1248 C1249 1.286 . S
C1249 U1246 2.984 . S
C1249 O1247 1.353 . S
C1249 O1248 1.286 . S
C1249 C1251 1.363 . S
C1250 C1240 1.465 . S
C1250 U1246 2.847 . S
C1250 O1264 1.249 . S
C1250 O1265 1.202 . S
C1251 C1249 1.363 . S
C1251 C1253 1.408 . S
C1251 C1256 1.342 . S
C1252 C1253 1.310 . S
C1252 C1255 1.461 . S
C1252 H1272 0.932 . S
C1253 C1251 1.408 . S
C1253 C1252 1.310 . S
C1253 H1273 0.930 . S
C1254 C1255 1.474 . S
C1254 C1256 1.285 . S
C1254 H1274 0.929 . S
C1255 C1252 1.461 . S
C1255 C1254 1.474 . S
C1256 C1251 1.342 . S
C1256 C1254 1.285 . S
C1256 H1275 0.930 . S
C1257 C1260 1.424 . S
C1257 C1262 1.245 . S
C1257 C1263 1.428 . S
C1258 C1261 1.260 . S
C1258 C1262 1.477 . S
C1258 H1276 0.932 . S
C1259 C1260 1.384 . S
C1259 C1261 1.479 . S
C1259 H1277 0.929 . S
C1260 C1257 1.424 . S
C1260 C1259 1.384 . S
C1260 H1278 0.928 . S
C1261 C1258 1.260 . S
C1261 C1259 1.479 . S
C1262 C1257 1.245 . S
C1262 C1258 1.477 . S
C1262 H1279 0.932 . S
C1263 U1246 2.882 . S
C1263 C1257 1.428 . S
C1263 O1266 1.301 . S
C1263 O1267 1.282 . S
O1264 U1246 2.441 . S
O1264 C1250 1.249 . S
O1265 U1246 2.420 . S
O1265 C1250 1.202 . S
O1266 U1246 2.455 . S
O1266 C1263 1.301 . S
O1267 U1246 2.449 . S
O1267 C1263 1.282 . S
H1268 C1241 0.931 . S
H1269 C1243 0.929 . S
H1270 C1244 0.930 . S
H1271 C1245 0.931 . S
H1272 C1252 0.932 . S
H1273 C1253 0.930 . S
H1274 C1254 0.929 . S
H1275 C1256 0.930 . S
H1276 C1258 0.932 . S
H1277 C1259 0.929 . S
H1278 C1260 0.928 . S
H1279 C1262 0.932 . S
Cu1280 N1281 1.999 . S
Cu1280 O1286 1.974 1_554 S
Cu1280 N1291 1.985 . S
Cu1280 O1300 1.959 . S
N1281 Cu1280 1.999 . S
N1281 C1283 1.263 1_554 S
N1281 C1285 1.389 . S
N1282 C1283 1.358 . S
N1282 C1284 1.400 . S
C1283 N1281 1.263 1_556 S
C1283 N1282 1.358 . S
C1283 H1289 0.930 . S
C1284 N1282 1.400 . S
C1284 C1285 1.351 1_556 S
C1284 H1301 0.930 . S
C1285 N1281 1.389 . S
C1285 C1284 1.351 1_554 S
C1285 H1290 0.930 . S
O1286 Cu1280 1.974 1_556 S
O1286 C1296 1.282 . S
C1287 O1288 1.261 . S
C1287 O1300 1.251 . S
O1288 C1287 1.261 . S
H1289 C1283 0.930 . S
H1290 C1285 0.930 . S
N1291 Cu1280 1.985 . S
N1291 C1293 1.335 . S
N1291 C1294 1.390 . S
N1292 C1293 1.345 . S
N1292 C1295 1.336 . S
C1293 N1291 1.335 . S
C1293 N1292 1.345 . S
C1293 H1298 0.930 . S
C1294 N1291 1.390 . S
C1294 C1295 1.346 . S
C1294 H1299 0.930 . S
C1295 N1292 1.336 . S
C1295 C1294 1.346 . S
C1295 H1302 0.929 . S
C1296 O1286 1.282 . S
C1296 O1297 1.216 . S
O1297 C1296 1.216 . S
H1298 C1293 0.930 . S
H1299 C1294 0.930 . S
O1300 Cu1280 1.959 . S
O1300 C1287 1.251 . S
H1301 C1284 0.930 . S
H1302 C1295 0.929 . S
Cu1303 N1304 1.999 . S
Cu1303 O1309 1.974 . S
Cu1303 N1314 1.985 1_554 S
Cu1303 O1323 1.959 1_554 S
N1304 Cu1303 1.999 . S
N1304 C1306 1.263 . S
N1304 C1308 1.389 . S
N1305 C1306 1.358 . S
N1305 C1307 1.400 . S
C1306 N1304 1.263 . S
C1306 N1305 1.358 . S
C1306 H1312 0.930 . S
C1307 N1305 1.400 . S
C1307 C1308 1.351 . S
C1307 H1324 0.930 . S
C1308 N1304 1.389 . S
C1308 C1307 1.351 . S
C1308 H1313 0.930 . S
O1309 Cu1303 1.974 . S
O1309 C1319 1.282 . S
C1310 O1311 1.261 . S
C1310 O1323 1.251 . S
O1311 C1310 1.261 . S
H1312 C1306 0.930 . S
H1313 C1308 0.930 . S
N1314 Cu1303 1.985 1_556 S
N1314 C1316 1.335 . S
N1314 C1317 1.389 1_556 S
N1315 C1316 1.345 . S
N1315 C1318 1.336 . S
C1316 N1314 1.335 . S
C1316 N1315 1.345 . S
C1316 H1321 0.930 . S
C1317 N1314 1.389 1_554 S
C1317 C1318 1.341 1_554 S
C1317 H1322 0.936 . S
C1318 N1315 1.336 . S
C1318 C1317 1.341 1_556 S
C1318 H1325 0.929 . S
C1319 O1309 1.282 . S
C1319 O1320 1.216 . S
O1320 C1319 1.216 . S
H1321 C1316 0.930 . S
H1322 C1317 0.936 . S
O1323 Cu1303 1.959 1_556 S
O1323 C1310 1.251 . S
H1324 C1307 0.930 . S
H1325 C1318 0.929 . S
Cu1326 N1327 1.957 1_554 S
Cu1326 O1332 1.921 1_554 S
Cu1326 N1337 2.027 . S
Cu1326 O1346 2.012 . S
N1327 Cu1326 1.957 1_556 S
N1327 C1329 1.263 . S
N1327 C1331 1.389 . S
N1328 C1329 1.358 . S
N1328 C1330 1.400 . S
C1329 N1327 1.263 . S
C1329 N1328 1.358 . S
C1329 H1335 0.930 . S
C1330 N1328 1.400 . S
C1330 C1331 1.351 . S
C1330 H1347 0.930 . S
C1331 N1327 1.389 . S
C1331 C1330 1.351 . S
C1331 H1336 1.003 . S
O1332 Cu1326 1.921 1_556 S
O1332 C1342 1.282 . S
C1333 O1334 1.261 . S
C1333 O1346 1.251 . S
O1334 C1333 1.261 . S
H1335 C1329 0.930 . S
H1336 C1331 1.003 . S
N1337 Cu1326 2.027 . S
N1337 C1339 1.335 . S
N1337 C1340 1.390 . S
N1338 C1339 1.345 . S
N1338 C1341 1.336 . S
C1339 N1337 1.335 . S
C1339 N1338 1.345 . S
C1339 H1344 0.930 . S
C1340 N1337 1.390 . S
C1340 C1341 1.346 . S
C1340 H1345 0.975 . S
C1341 N1338 1.336 . S
C1341 C1340 1.346 . S
C1341 H1348 0.929 . S
C1342 O1332 1.282 . S
C1342 O1343 1.216 . S
O1343 C1342 1.216 . S
H1344 C1339 0.930 . S
H1345 C1340 0.975 . S
O1346 Cu1326 2.012 . S
O1346 C1333 1.251 . S
H1347 C1330 0.930 . S
H1348 C1341 0.929 . S
Cu1349 N1350 1.999 . S
Cu1349 O1355 1.974 . S
Cu1349 N1360 1.985 1_554 S
Cu1349 O1369 1.959 1_554 S
N1350 Cu1349 1.999 . S
N1350 C1352 1.263 . S
N1350 C1354 1.389 . S
N1351 C1352 1.358 . S
N1351 C1353 1.400 . S
C1352 N1350 1.263 . S
C1352 N1351 1.358 . S
C1352 H1358 0.930 . S
C1353 N1351 1.400 . S
C1353 C1354 1.351 . S
C1353 H1370 0.930 . S
C1354 N1350 1.389 . S
C1354 C1353 1.351 . S
C1354 H1359 0.930 . S
O1355 Cu1349 1.974 . S
O1355 C1365 1.282 . S
C1356 O1357 1.261 . S
C1356 O1369 1.251 . S
O1357 C1356 1.261 . S
H1358 C1352 0.930 . S
H1359 C1354 0.930 . S
N1360 Cu1349 1.985 1_556 S
N1360 C1362 1.335 . S
N1360 C1363 1.390 . S
N1361 C1362 1.345 . S
N1361 C1364 1.336 . S
C1362 N1360 1.335 . S
C1362 N1361 1.345 . S
C1362 H1367 0.930 . S
C1363 N1360 1.390 . S
C1363 C1364 1.346 . S
C1363 H1368 0.930 1_556 S
C1364 N1361 1.336 . S
C1364 C1363 1.346 . S
C1364 H1371 0.929 . S
C1365 O1355 1.282 . S
C1365 O1366 1.216 . S
O1366 C1365 1.216 . S
H1367 C1362 0.930 . S
H1368 C1363 0.930 1_554 S
O1369 Cu1349 1.959 1_556 S
O1369 C1356 1.251 . S
H1370 C1353 0.930 . S
H1371 C1364 0.929 . S
Cu1372 N1373 1.999 . S
Cu1372 O1378 1.974 . S
Cu1372 N1383 1.985 1_455 S
Cu1372 O1392 1.959 1_455 S
N1373 Cu1372 1.999 . S
N1373 C1375 1.263 . S
N1373 C1377 1.389 . S
N1374 C1375 1.358 . S
N1374 C1376 1.400 . S
C1375 N1373 1.263 . S
C1375 N1374 1.358 . S
C1375 H1381 0.930 . S
C1376 N1374 1.400 . S
C1376 C1377 1.351 . S
C1376 H1393 0.930 . S
C1377 N1373 1.389 . S
C1377 C1376 1.351 . S
C1377 H1382 0.930 . S
O1378 Cu1372 1.974 . S
O1378 C1388 1.282 . S
C1379 O1380 1.261 . S
C1379 O1392 1.251 . S
O1380 C1379 1.261 . S
H1381 C1375 0.930 . S
H1382 C1377 0.930 . S
N1383 Cu1372 1.985 1_655 S
N1383 C1385 1.335 . S
N1383 C1386 1.390 1_655 S
N1384 C1385 1.345 . S
N1384 C1387 1.336 . S
C1385 N1383 1.335 . S
C1385 N1384 1.345 . S
C1385 H1390 0.930 . S
C1386 N1383 1.390 1_455 S
C1386 C1387 1.346 1_455 S
C1386 H1391 0.930 . S
C1387 N1384 1.336 . S
C1387 C1386 1.346 1_655 S
C1387 H1394 0.929 . S
C1388 O1378 1.282 . S
C1388 O1389 1.216 . S
O1389 C1388 1.216 . S
H1390 C1385 0.930 . S
H1391 C1386 0.930 . S
O1392 Cu1372 1.959 1_655 S
O1392 C1379 1.251 . S
H1393 C1376 0.930 . S
H1394 C1387 0.929 . S
Cu1395 N1396 1.999 . S
Cu1395 O1401 1.974 . S
Cu1395 N1406 1.985 1_545 S
Cu1395 O1415 1.959 1_545 S
N1396 Cu1395 1.999 . S
N1396 C1398 1.263 . S
N1396 C1400 1.389 . S
N1397 C1398 1.358 . S
N1397 C1399 1.400 . S
C1398 N1396 1.263 . S
C1398 N1397 1.358 . S
C1398 H1404 0.930 . S
C1399 N1397 1.400 . S
C1399 C1400 1.351 . S
C1399 H1416 0.930 . S
C1400 N1396 1.389 . S
C1400 C1399 1.351 . S
C1400 H1405 0.930 . S
O1401 Cu1395 1.974 . S
O1401 C1411 1.282 . S
C1402 O1403 1.261 . S
C1402 O1415 1.251 . S
O1403 C1402 1.261 . S
H1404 C1398 0.930 . S
H1405 C1400 0.930 . S
N1406 Cu1395 1.985 1_565 S
N1406 C1408 1.335 . S
N1406 C1409 1.390 . S
N1407 C1408 1.345 . S
N1407 C1410 1.336 . S
C1408 N1406 1.335 . S
C1408 N1407 1.345 . S
C1408 H1413 0.930 . S
C1409 N1406 1.390 . S
C1409 C1410 1.346 . S
C1409 H1414 0.930 1_565 S
C1410 N1407 1.336 . S
C1410 C1409 1.346 . S
C1410 H1417 0.929 . S
C1411 O1401 1.282 . S
C1411 O1412 1.216 . S
O1412 C1411 1.216 . S
H1413 C1408 0.930 . S
H1414 C1409 0.930 1_545 S
O1415 Cu1395 1.959 1_565 S
O1415 C1402 1.251 . S
H1416 C1399 0.930 . S
H1417 C1410 0.929 . S
Cu1418 N1419 1.996 . S
Cu1418 O1424 1.970 . S
Cu1418 N1429 1.988 1_655 S
Cu1418 O1438 1.963 1_655 S
N1419 Cu1418 1.996 . S
N1419 C1421 1.263 . S
N1419 C1423 1.389 . S
N1420 C1421 1.358 . S
N1420 C1422 1.400 . S
C1421 N1419 1.263 . S
C1421 N1420 1.358 . S
C1421 H1427 0.930 . S
C1422 N1420 1.400 . S
C1422 C1423 1.351 . S
C1422 H1439 0.930 . S
C1423 N1419 1.389 . S
C1423 C1422 1.351 . S
C1423 H1428 0.930 . S
O1424 Cu1418 1.970 . S
O1424 C1434 1.282 . S
C1425 O1426 1.261 . S
C1425 O1438 1.251 . S
O1426 C1425 1.261 . S
H1427 C1421 0.930 . S
H1428 C1423 0.930 . S
N1429 Cu1418 1.988 1_455 S
N1429 C1431 1.335 . S
N1429 C1432 1.390 . S
N1430 C1431 1.345 . S
N1430 C1433 1.336 . S
C1431 N1429 1.335 . S
C1431 N1430 1.345 . S
C1431 H1436 0.930 . S
C1432 N1429 1.390 . S
C1432 C1433 1.346 . S
C1432 H1437 0.930 . S
C1433 N1430 1.336 . S
C1433 C1432 1.346 . S
C1433 H1440 0.929 . S
C1434 O1424 1.282 . S
C1434 O1435 1.216 . S
O1435 C1434 1.216 . S
H1436 C1431 0.930 . S
H1437 C1432 0.930 . S
O1438 Cu1418 1.963 1_455 S
O1438 C1425 1.251 . S
H1439 C1422 0.930 . S
H1440 C1433 0.929 . S
Cu1441 N1442 1.996 1_565 S
Cu1441 O1447 1.970 1_565 S
Cu1441 N1452 1.988 . S
Cu1441 O1461 1.963 . S
N1442 Cu1441 1.996 1_545 S
N1442 C1444 1.263 . S
N1442 C1446 1.389 . S
N1443 C1444 1.358 . S
N1443 C1445 1.400 . S
C1444 N1442 1.263 . S
C1444 N1443 1.358 . S
C1444 H1450 0.930 . S
C1445 N1443 1.400 . S
C1445 C1446 1.351 . S
C1445 H1462 0.930 . S
C1446 N1442 1.389 . S
C1446 C1445 1.351 . S
C1446 H1451 0.930 . S
O1447 Cu1441 1.970 1_545 S
O1447 C1457 1.282 . S
C1448 O1449 1.261 . S
C1448 O1461 1.251 . S
O1449 C1448 1.261 . S
H1450 C1444 0.930 . S
H1451 C1446 0.930 . S
N1452 Cu1441 1.988 . S
N1452 C1454 1.335 . S
N1452 C1455 1.390 . S
N1453 C1454 1.345 . S
N1453 C1456 1.336 . S
C1454 N1452 1.335 . S
C1454 N1453 1.345 . S
C1454 H1459 0.930 . S
C1455 N1452 1.390 . S
C1455 C1456 1.346 . S
C1455 H1460 0.930 . S
C1456 N1453 1.336 . S
C1456 C1455 1.346 . S
C1456 H1463 0.929 . S
C1457 O1447 1.282 . S
C1457 O1458 1.216 . S
O1458 C1457 1.216 . S
H1459 C1454 0.930 . S
H1460 C1455 0.930 . S
O1461 Cu1441 1.963 . S
O1461 C1448 1.251 . S
H1462 C1445 0.930 . S
H1463 C1456 0.929 . S
Cu1464 N1465 1.999 . S
Cu1464 O1470 1.974 . S
Cu1464 N1475 1.985 1_455 S
Cu1464 O1484 1.959 1_455 S
N1465 Cu1464 1.999 . S
N1465 C1467 1.263 . S
N1465 C1469 1.389 . S
N1466 C1467 1.358 . S
N1466 C1468 1.400 . S
C1467 N1465 1.263 . S
C1467 N1466 1.358 . S
C1467 H1473 0.930 . S
C1468 N1466 1.400 . S
C1468 C1469 1.351 . S
C1468 H1485 0.930 . S
C1469 N1465 1.389 . S
C1469 C1468 1.351 . S
C1469 H1474 0.930 . S
O1470 Cu1464 1.974 . S
O1470 C1480 1.282 . S
C1471 O1472 1.261 . S
C1471 O1484 1.251 . S
O1472 C1471 1.261 . S
H1473 C1467 0.930 . S
H1474 C1469 0.930 . S
N1475 Cu1464 1.985 1_655 S
N1475 C1477 1.335 . S
N1475 C1478 1.390 1_655 S
N1476 C1477 1.345 . S
N1476 C1479 1.336 . S
C1477 N1475 1.335 . S
C1477 N1476 1.345 . S
C1477 H1482 0.930 . S
C1478 N1475 1.390 1_455 S
C1478 C1479 1.346 1_455 S
C1478 H1483 0.930 . S
C1479 N1476 1.336 . S
C1479 C1478 1.346 1_655 S
C1479 H1486 0.929 . S
C1480 O1470 1.282 . S
C1480 O1481 1.216 . S
O1481 C1480 1.216 . S
H1482 C1477 0.930 . S
H1483 C1478 0.930 . S
O1484 Cu1464 1.959 1_655 S
O1484 C1471 1.251 . S
H1485 C1468 0.930 . S
H1486 C1479 0.929 . S
Cu1487 N1488 1.999 . S
Cu1487 O1493 1.974 . S
Cu1487 N1498 1.985 1_545 S
Cu1487 O1507 1.959 1_545 S
N1488 Cu1487 1.999 . S
N1488 C1490 1.263 . S
N1488 C1492 1.389 . S
N1489 C1490 1.358 . S
N1489 C1491 1.400 . S
C1490 N1488 1.263 . S
C1490 N1489 1.358 . S
C1490 H1496 0.930 . S
C1491 N1489 1.400 . S
C1491 C1492 1.351 . S
C1491 H1508 0.930 . S
C1492 N1488 1.389 . S
C1492 C1491 1.351 . S
C1492 H1497 0.930 . S
O1493 Cu1487 1.974 . S
O1493 C1503 1.282 . S
C1494 O1495 1.261 . S
C1494 O1507 1.251 . S
O1495 C1494 1.261 . S
H1496 C1490 0.930 . S
H1497 C1492 0.930 . S
N1498 Cu1487 1.985 1_565 S
N1498 C1500 1.335 . S
N1498 C1501 1.395 . S
N1499 C1500 1.345 . S
N1499 C1502 1.336 . S
C1500 N1498 1.335 . S
C1500 N1499 1.345 . S
C1500 H1505 0.930 . S
C1501 N1498 1.395 . S
C1501 C1502 1.370 . S
C1501 H1506 0.906 1_565 S
C1502 N1499 1.336 . S
C1502 C1501 1.370 . S
C1502 H1509 0.929 . S
C1503 O1493 1.282 . S
C1503 O1504 1.216 . S
O1504 C1503 1.216 . S
H1505 C1500 0.930 . S
H1506 C1501 0.906 1_545 S
O1507 Cu1487 1.959 1_565 S
O1507 C1494 1.251 . S
H1508 C1491 0.930 . S
H1509 C1502 0.929 . S
Cu1510 N1511 1.999 . S
Cu1510 O1516 1.974 . S
Cu1510 N1521 1.985 . S
Cu1510 O1530 1.959 . S
N1511 Cu1510 1.999 . S
N1511 C1513 1.263 1_455 S
N1511 C1515 1.389 . S
N1512 C1513 1.358 . S
N1512 C1514 1.400 . S
C1513 N1511 1.263 1_655 S
C1513 N1512 1.358 . S
C1513 H1519 0.930 . S
C1514 N1512 1.400 . S
C1514 C1515 1.351 1_655 S
C1514 H1531 0.930 . S
C1515 N1511 1.389 . S
C1515 C1514 1.351 1_455 S
C1515 H1520 0.930 . S
O1516 Cu1510 1.974 . S
O1516 C1526 1.282 1_455 S
C1517 O1518 1.261 . S
C1517 O1530 1.251 . S
O1518 C1517 1.261 . S
H1519 C1513 0.930 . S
H1520 C1515 0.930 . S
N1521 Cu1510 1.985 . S
N1521 C1523 1.335 . S
N1521 C1524 1.390 . S
N1522 C1523 1.345 . S
N1522 C1525 1.336 . S
C1523 N1521 1.335 . S
C1523 N1522 1.345 . S
C1523 H1528 0.930 . S
C1524 N1521 1.390 . S
C1524 C1525 1.346 . S
C1524 H1529 0.930 . S
C1525 N1522 1.336 . S
C1525 C1524 1.346 . S
C1525 H1532 0.929 . S
C1526 O1516 1.282 1_655 S
C1526 O1527 1.216 1_655 S
O1527 C1526 1.216 1_455 S
H1528 C1523 0.930 . S
H1529 C1524 0.930 . S
O1530 Cu1510 1.959 . S
O1530 C1517 1.251 . S
H1531 C1514 0.930 . S
H1532 C1525 0.929 . S
Cu1533 N1534 1.999 . S
Cu1533 O1539 1.974 . S
Cu1533 N1544 2.027 . S
Cu1533 O1553 1.959 1_545 S
N1534 Cu1533 1.999 . S
N1534 C1536 1.263 . S
N1534 C1538 1.389 . S
N1535 C1536 1.358 . S
N1535 C1537 1.400 . S
C1536 N1534 1.263 . S
C1536 N1535 1.358 . S
C1536 H1542 0.930 . S
C1537 N1535 1.400 . S
C1537 C1538 1.351 . S
C1537 H1554 0.930 . S
C1538 N1534 1.389 . S
C1538 C1537 1.351 . S
C1538 H1543 0.930 . S
O1539 Cu1533 1.974 . S
O1539 C1549 1.282 . S
C1540 O1541 1.264 1_565 S
C1540 O1553 1.251 . S
O1541 C1540 1.264 1_545 S
H1542 C1536 0.930 . S
H1543 C1538 0.930 . S
N1544 Cu1533 2.027 . S
N1544 C1546 1.269 1_545 S
N1544 C1547 1.407 . S
N1545 C1546 1.345 . S
N1545 C1548 1.336 . S
C1546 N1544 1.269 1_565 S
C1546 N1545 1.345 . S
C1546 H1551 0.930 . S
C1547 N1544 1.407 . S
C1547 C1548 1.346 1_545 S
C1547 H1552 0.930 . S
C1548 N1545 1.336 . S
C1548 C1547 1.346 1_565 S
C1548 H1555 0.929 . S
C1549 O1539 1.282 . S
C1549 O1550 1.216 . S
O1550 C1549 1.216 . S
H1551 C1546 0.930 . S
H1552 C1547 0.930 . S
O1553 Cu1533 1.959 1_565 S
O1553 C1540 1.251 . S
H1554 C1537 0.930 . S
H1555 C1548 0.929 . S
Cu1556 N1557 1.999 . S
Cu1556 O1562 1.974 . S
Cu1556 N1567 1.985 . S
Cu1556 O1576 1.959 . S
N1557 Cu1556 1.999 . S
N1557 C1559 1.263 . S
N1557 C1561 1.389 . S
N1558 C1559 1.358 . S
N1558 C1560 1.400 . S
C1559 N1557 1.263 . S
C1559 N1558 1.358 . S
C1559 H1565 0.930 . S
C1560 N1558 1.400 . S
C1560 C1561 1.351 . S
C1560 H1577 0.930 . S
C1561 N1557 1.389 . S
C1561 C1560 1.351 . S
C1561 H1566 0.930 . S
O1562 Cu1556 1.974 . S
O1562 C1572 1.282 . S
C1563 O1564 1.261 . S
C1563 O1576 1.251 . S
O1564 C1563 1.261 . S
H1565 C1559 0.930 . S
H1566 C1561 0.930 . S
N1567 Cu1556 1.985 . S
N1567 C1569 1.335 . S
N1567 C1570 1.390 . S
N1568 C1569 1.345 . S
N1568 C1571 1.336 . S
C1569 N1567 1.335 . S
C1569 N1568 1.345 . S
C1569 H1574 0.930 . S
C1570 N1567 1.390 . S
C1570 C1571 1.346 . S
C1570 H1575 0.930 . S
C1571 N1568 1.336 . S
C1571 C1570 1.346 . S
C1571 H1578 0.929 . S
C1572 O1562 1.282 . S
C1572 O1573 1.216 . S
O1573 C1572 1.216 . S
H1574 C1569 0.930 . S
H1575 C1570 0.930 . S
O1576 Cu1556 1.959 . S
O1576 C1563 1.251 . S
H1577 C1560 0.930 . S
H1578 C1571 0.929 . S
Cu1579 N1580 1.999 . S
Cu1579 O1585 1.974 . S
Cu1579 N1590 1.985 . S
Cu1579 O1599 1.959 . S
N1580 Cu1579 1.999 . S
N1580 C1582 1.263 . S
N1580 C1584 1.389 . S
N1581 C1582 1.358 . S
N1581 C1583 1.400 . S
C1582 N1580 1.263 . S
C1582 N1581 1.358 . S
C1582 H1588 0.930 . S
C1583 N1581 1.400 . S
C1583 C1584 1.351 . S
C1583 H1600 0.930 . S
C1584 N1580 1.389 . S
C1584 C1583 1.351 . S
C1584 H1589 0.930 . S
O1585 Cu1579 1.974 . S
O1585 C1595 1.282 . S
C1586 O1587 1.261 . S
C1586 O1599 1.251 . S
O1587 C1586 1.261 . S
H1588 C1582 0.930 . S
H1589 C1584 0.930 . S
N1590 Cu1579 1.985 . S
N1590 C1592 1.335 . S
N1590 C1593 1.390 . S
N1591 C1592 1.345 . S
N1591 C1594 1.336 . S
C1592 N1590 1.335 . S
C1592 N1591 1.345 . S
C1592 H1597 0.930 . S
C1593 N1590 1.390 . S
C1593 C1594 1.346 . S
C1593 H1598 0.930 . S
C1594 N1591 1.336 . S
C1594 C1593 1.346 . S
C1594 H1601 0.929 . S
C1595 O1585 1.282 . S
C1595 O1596 1.216 . S
O1596 C1595 1.216 . S
H1597 C1592 0.930 . S
H1598 C1593 0.930 . S
O1599 Cu1579 1.959 . S
O1599 C1586 1.251 . S
H1600 C1583 0.930 . S
H1601 C1594 0.929 . S
Cu1602 N1603 1.999 . S
Cu1602 O1608 1.974 . S
Cu1602 N1613 1.985 . S
Cu1602 O1622 1.959 . S
N1603 Cu1602 1.999 . S
N1603 C1605 1.263 . S
N1603 C1607 1.389 . S
N1604 C1605 1.358 . S
N1604 C1606 1.400 . S
C1605 N1603 1.263 . S
C1605 N1604 1.358 . S
C1605 H1611 0.930 . S
C1606 N1604 1.400 . S
C1606 C1607 1.351 . S
C1606 H1623 0.930 . S
C1607 N1603 1.389 . S
C1607 C1606 1.351 . S
C1607 H1612 0.930 . S
O1608 Cu1602 1.974 . S
O1608 C1618 1.282 . S
C1609 O1610 1.261 . S
C1609 O1622 1.251 . S
O1610 C1609 1.261 . S
H1611 C1605 0.930 . S
H1612 C1607 0.930 . S
N1613 Cu1602 1.985 . S
N1613 C1615 1.335 . S
N1613 C1616 1.390 . S
N1614 C1615 1.345 . S
N1614 C1617 1.336 . S
C1615 N1613 1.335 . S
C1615 N1614 1.345 . S
C1615 H1620 0.930 . S
C1616 N1613 1.390 . S
C1616 C1617 1.346 . S
C1616 H1621 0.930 . S
C1617 N1614 1.336 . S
C1617 C1616 1.346 . S
C1617 H1624 0.929 . S
C1618 O1608 1.282 . S
C1618 O1619 1.216 . S
O1619 C1618 1.216 . S
H1620 C1615 0.930 . S
H1621 C1616 0.930 . S
O1622 Cu1602 1.959 . S
O1622 C1609 1.251 . S
H1623 C1606 0.930 . S
H1624 C1617 0.929 . S
Cu1625 N1626 1.999 . S
Cu1625 O1631 1.974 . S
Cu1625 N1636 1.985 . S
Cu1625 O1645 1.959 . S
N1626 Cu1625 1.999 . S
N1626 C1628 1.263 . S
N1626 C1630 1.389 . S
N1627 C1628 1.358 . S
N1627 C1629 1.400 . S
C1628 N1626 1.263 . S
C1628 N1627 1.358 . S
C1628 H1634 0.930 . S
C1629 N1627 1.400 . S
C1629 C1630 1.351 . S
C1629 H1646 0.930 . S
C1630 N1626 1.389 . S
C1630 C1629 1.351 . S
C1630 H1635 0.930 . S
O1631 Cu1625 1.974 . S
O1631 C1641 1.282 . S
C1632 O1633 1.261 . S
C1632 O1645 1.251 . S
O1633 C1632 1.261 . S
H1634 C1628 0.930 . S
H1635 C1630 0.930 . S
N1636 Cu1625 1.985 . S
N1636 C1638 1.335 . S
N1636 C1639 1.390 . S
N1637 C1638 1.345 . S
N1637 C1640 1.336 . S
C1638 N1636 1.335 . S
C1638 N1637 1.345 . S
C1638 H1643 0.930 . S
C1639 N1636 1.390 . S
C1639 C1640 1.346 . S
C1639 H1644 0.930 . S
C1640 N1637 1.336 . S
C1640 C1639 1.346 . S
C1640 H1647 0.929 . S
C1641 O1631 1.282 . S
C1641 O1642 1.216 . S
O1642 C1641 1.216 . S
H1643 C1638 0.930 . S
H1644 C1639 0.930 . S
O1645 Cu1625 1.959 . S
O1645 C1632 1.251 . S
H1646 C1629 0.930 . S
H1647 C1640 0.929 . S
Cu1648 N1649 1.999 . S
Cu1648 O1654 1.974 . S
Cu1648 N1659 1.985 . S
Cu1648 O1668 1.959 . S
N1649 Cu1648 1.999 . S
N1649 C1651 1.263 . S
N1649 C1653 1.389 . S
N1650 C1651 1.358 . S
N1650 C1652 1.400 . S
C1651 N1649 1.263 . S
C1651 N1650 1.358 . S
C1651 H1657 0.930 . S
C1652 N1650 1.400 . S
C1652 C1653 1.351 . S
C1652 H1669 0.930 . S
C1653 N1649 1.389 . S
C1653 C1652 1.351 . S
C1653 H1658 0.930 . S
O1654 Cu1648 1.974 . S
O1654 C1664 1.282 . S
C1655 O1656 1.261 . S
C1655 O1668 1.251 . S
O1656 C1655 1.261 . S
H1657 C1651 0.930 . S
H1658 C1653 0.930 . S
N1659 Cu1648 1.985 . S
N1659 C1661 1.335 . S
N1659 C1662 1.390 . S
N1660 C1661 1.345 . S
N1660 C1663 1.336 . S
C1661 N1659 1.335 . S
C1661 N1660 1.345 . S
C1661 H1666 0.930 . S
C1662 N1659 1.390 . S
C1662 C1663 1.346 . S
C1662 H1667 0.930 . S
C1663 N1660 1.336 . S
C1663 C1662 1.346 . S
C1663 H1670 0.929 . S
C1664 O1654 1.282 . S
C1664 O1665 1.216 . S
O1665 C1664 1.216 . S
H1666 C1661 0.930 . S
H1667 C1662 0.930 . S
O1668 Cu1648 1.959 . S
O1668 C1655 1.251 . S
H1669 C1652 0.930 . S
H1670 C1663 0.929 . S
Cu1671 N1672 1.999 . S
Cu1671 O1677 1.974 . S
Cu1671 N1682 1.985 . S
Cu1671 O1691 1.959 . S
N1672 Cu1671 1.999 . S
N1672 C1674 1.263 . S
N1672 C1676 1.389 . S
N1673 C1674 1.358 . S
N1673 C1675 1.400 . S
C1674 N1672 1.263 . S
C1674 N1673 1.358 . S
C1674 H1680 0.930 . S
C1675 N1673 1.400 . S
C1675 C1676 1.351 . S
C1675 H1692 0.930 . S
C1676 N1672 1.389 . S
C1676 C1675 1.351 . S
C1676 H1681 0.930 . S
O1677 Cu1671 1.974 . S
O1677 C1687 1.282 . S
C1678 O1679 1.261 . S
C1678 O1691 1.251 . S
O1679 C1678 1.261 . S
H1680 C1674 0.930 . S
H1681 C1676 0.930 . S
N1682 Cu1671 1.985 . S
N1682 C1684 1.335 . S
N1682 C1685 1.390 . S
N1683 C1684 1.345 . S
N1683 C1686 1.336 . S
C1684 N1682 1.335 . S
C1684 N1683 1.345 . S
C1684 H1689 0.930 . S
C1685 N1682 1.390 . S
C1685 C1686 1.346 . S
C1685 H1690 0.930 . S
C1686 N1683 1.336 . S
C1686 C1685 1.346 . S
C1686 H1693 0.929 . S
C1687 O1677 1.282 . S
C1687 O1688 1.216 . S
O1688 C1687 1.216 . S
H1689 C1684 0.930 . S
H1690 C1685 0.930 . S
O1691 Cu1671 1.959 . S
O1691 C1678 1.251 . S
H1692 C1675 0.930 . S
H1693 C1686 0.929 . S
Cu1694 N1695 1.999 . S
Cu1694 O1700 1.974 . S
Cu1694 N1705 1.985 . S
Cu1694 O1714 1.959 . S
N1695 Cu1694 1.999 . S
N1695 C1697 1.263 . S
N1695 C1699 1.389 . S
N1696 C1697 1.358 . S
N1696 C1698 1.400 . S
C1697 N1695 1.263 . S
C1697 N1696 1.358 . S
C1697 H1703 0.930 . S
C1698 N1696 1.400 . S
C1698 C1699 1.351 . S
C1698 H1715 0.930 . S
C1699 N1695 1.389 . S
C1699 C1698 1.351 . S
C1699 H1704 0.930 . S
O1700 Cu1694 1.974 . S
O1700 C1710 1.282 . S
C1701 O1702 1.261 . S
C1701 O1714 1.251 . S
O1702 C1701 1.261 . S
H1703 C1697 0.930 . S
H1704 C1699 0.930 . S
N1705 Cu1694 1.985 . S
N1705 C1707 1.335 . S
N1705 C1708 1.390 . S
N1706 C1707 1.345 . S
N1706 C1709 1.336 . S
C1707 N1705 1.335 . S
C1707 N1706 1.345 . S
C1707 H1712 0.930 . S
C1708 N1705 1.390 . S
C1708 C1709 1.346 . S
C1708 H1713 0.930 . S
C1709 N1706 1.336 . S
C1709 C1708 1.346 . S
C1709 H1716 0.929 . S
C1710 O1700 1.282 . S
C1710 O1711 1.216 . S
O1711 C1710 1.216 . S
H1712 C1707 0.930 . S
H1713 C1708 0.930 . S
O1714 Cu1694 1.959 . S
O1714 C1701 1.251 . S
H1715 C1698 0.930 . S
H1716 C1709 0.929 . S
Cu1717 N1718 1.999 . S
Cu1717 O1723 1.974 . S
Cu1717 N1728 1.985 . S
Cu1717 O1737 1.959 . S
N1718 Cu1717 1.999 . S
N1718 C1720 1.263 . S
N1718 C1722 1.389 . S
N1719 C1720 1.358 . S
N1719 C1721 1.400 . S
C1720 N1718 1.263 . S
C1720 N1719 1.358 . S
C1720 H1726 0.930 . S
C1721 N1719 1.400 . S
C1721 C1722 1.351 . S
C1721 H1738 0.930 . S
C1722 N1718 1.389 . S
C1722 C1721 1.351 . S
C1722 H1727 0.930 . S
O1723 Cu1717 1.974 . S
O1723 C1733 1.282 . S
C1724 O1725 1.261 . S
C1724 O1737 1.251 . S
O1725 C1724 1.261 . S
H1726 C1720 0.930 . S
H1727 C1722 0.930 . S
N1728 Cu1717 1.985 . S
N1728 C1730 1.335 . S
N1728 C1731 1.390 . S
N1729 C1730 1.345 . S
N1729 C1732 1.336 . S
C1730 N1728 1.335 . S
C1730 N1729 1.345 . S
C1730 H1735 0.930 . S
C1731 N1728 1.390 . S
C1731 C1732 1.346 . S
C1731 H1736 0.930 . S
C1732 N1729 1.336 . S
C1732 C1731 1.346 . S
C1732 H1739 0.929 . S
C1733 O1723 1.282 . S
C1733 O1734 1.216 . S
O1734 C1733 1.216 . S
H1735 C1730 0.930 . S
H1736 C1731 0.930 . S
O1737 Cu1717 1.959 . S
O1737 C1724 1.251 . S
H1738 C1721 0.930 . S
H1739 C1732 0.929 . S
Cu1740 N1741 1.999 . S
Cu1740 O1746 1.974 . S
Cu1740 N1751 1.985 . S
Cu1740 O1760 1.959 . S
N1741 Cu1740 1.999 . S
N1741 C1743 1.263 . S
N1741 C1745 1.389 . S
N1742 C1743 1.358 . S
N1742 C1744 1.400 . S
C1743 N1741 1.263 . S
C1743 N1742 1.358 . S
C1743 H1749 0.930 . S
C1744 N1742 1.400 . S
C1744 C1745 1.351 . S
C1744 H1761 0.930 . S
C1745 N1741 1.389 . S
C1745 C1744 1.351 . S
C1745 H1750 0.930 . S
O1746 Cu1740 1.974 . S
O1746 C1756 1.282 . S
C1747 O1748 1.261 . S
C1747 O1760 1.251 . S
O1748 C1747 1.261 . S
H1749 C1743 0.930 . S
H1750 C1745 0.930 . S
N1751 Cu1740 1.985 . S
N1751 C1753 1.335 . S
N1751 C1754 1.390 . S
N1752 C1753 1.345 . S
N1752 C1755 1.336 . S
C1753 N1751 1.335 . S
C1753 N1752 1.345 . S
C1753 H1758 0.930 . S
C1754 N1751 1.390 . S
C1754 C1755 1.346 . S
C1754 H1759 0.930 . S
C1755 N1752 1.336 . S
C1755 C1754 1.346 . S
C1755 H1762 0.929 . S
C1756 O1746 1.282 . S
C1756 O1757 1.216 . S
O1757 C1756 1.216 . S
H1758 C1753 0.930 . S
H1759 C1754 0.930 . S
O1760 Cu1740 1.959 . S
O1760 C1747 1.251 . S
H1761 C1744 0.930 . S
H1762 C1755 0.929 . S
Cu1763 N1764 1.999 . S
Cu1763 O1769 1.974 . S
Cu1763 N1774 1.985 . S
Cu1763 O1783 1.959 . S
N1764 Cu1763 1.999 . S
N1764 C1766 1.263 . S
N1764 C1768 1.389 . S
N1765 C1766 1.358 . S
N1765 C1767 1.400 . S
C1766 N1764 1.263 . S
C1766 N1765 1.358 . S
C1766 H1772 0.930 . S
C1767 N1765 1.400 . S
C1767 C1768 1.351 . S
C1767 H1784 0.930 . S
C1768 N1764 1.389 . S
C1768 C1767 1.351 . S
C1768 H1773 0.930 . S
O1769 Cu1763 1.974 . S
O1769 C1779 1.282 . S
C1770 O1771 1.261 . S
C1770 O1783 1.251 . S
O1771 C1770 1.261 . S
H1772 C1766 0.930 . S
H1773 C1768 0.930 . S
N1774 Cu1763 1.985 . S
N1774 C1776 1.335 . S
N1774 C1777 1.390 . S
N1775 C1776 1.345 . S
N1775 C1778 1.336 . S
C1776 N1774 1.335 . S
C1776 N1775 1.345 . S
C1776 H1781 0.930 . S
C1777 N1774 1.390 . S
C1777 C1778 1.346 . S
C1777 H1782 0.930 . S
C1778 N1775 1.336 . S
C1778 C1777 1.346 . S
C1778 H1785 0.929 . S
C1779 O1769 1.282 . S
C1779 O1780 1.216 . S
O1780 C1779 1.216 . S
H1781 C1776 0.930 . S
H1782 C1777 0.930 . S
O1783 Cu1763 1.959 . S
O1783 C1770 1.251 . S
H1784 C1767 0.930 . S
H1785 C1778 0.929 . S
Cu1786 N1787 1.999 . S
Cu1786 O1792 1.974 . S
Cu1786 N1797 1.985 . S
Cu1786 O1806 1.959 . S
N1787 Cu1786 1.999 . S
N1787 C1789 1.263 . S
N1787 C1791 1.389 . S
N1788 C1789 1.358 . S
N1788 C1790 1.400 . S
C1789 N1787 1.263 . S
C1789 N1788 1.358 . S
C1789 H1795 0.930 . S
C1790 N1788 1.400 . S
C1790 C1791 1.351 . S
C1790 H1807 0.930 . S
C1791 N1787 1.389 . S
C1791 C1790 1.351 . S
C1791 H1796 0.930 . S
O1792 Cu1786 1.974 . S
O1792 C1802 1.282 . S
C1793 O1794 1.261 . S
C1793 O1806 1.251 . S
O1794 C1793 1.261 . S
H1795 C1789 0.930 . S
H1796 C1791 0.930 . S
N1797 Cu1786 1.985 . S
N1797 C1799 1.335 . S
N1797 C1800 1.390 . S
N1798 C1799 1.345 . S
N1798 C1801 1.336 . S
C1799 N1797 1.335 . S
C1799 N1798 1.345 . S
C1799 H1804 0.930 . S
C1800 N1797 1.390 . S
C1800 C1801 1.346 . S
C1800 H1805 0.930 . S
C1801 N1798 1.336 . S
C1801 C1800 1.346 . S
C1801 H1808 0.929 . S
C1802 O1792 1.282 . S
C1802 O1803 1.216 . S
O1803 C1802 1.216 . S
H1804 C1799 0.930 . S
H1805 C1800 0.930 . S
O1806 Cu1786 1.959 . S
O1806 C1793 1.251 . S
H1807 C1790 0.930 . S
H1808 C1801 0.929 . S
Cu1809 N1810 1.999 . S
Cu1809 O1815 1.974 . S
Cu1809 N1820 1.985 . S
Cu1809 O1829 1.959 . S
N1810 Cu1809 1.999 . S
N1810 C1812 1.263 . S
N1810 C1814 1.389 . S
N1811 C1812 1.358 . S
N1811 C1813 1.400 . S
C1812 N1810 1.263 . S
C1812 N1811 1.358 . S
C1812 H1818 0.930 . S
C1813 N1811 1.400 . S
C1813 C1814 1.351 . S
C1813 H1830 0.930 . S
C1814 N1810 1.389 . S
C1814 C1813 1.351 . S
C1814 H1819 0.930 . S
O1815 Cu1809 1.974 . S
O1815 C1825 1.282 . S
C1816 O1817 1.261 . S
C1816 O1829 1.251 . S
O1817 C1816 1.261 . S
H1818 C1812 0.930 . S
H1819 C1814 0.930 . S
N1820 Cu1809 1.985 . S
N1820 C1822 1.335 . S
N1820 C1823 1.390 . S
N1821 C1822 1.345 . S
N1821 C1824 1.336 . S
C1822 N1820 1.335 . S
C1822 N1821 1.345 . S
C1822 H1827 0.930 . S
C1823 N1820 1.390 . S
C1823 C1824 1.346 . S
C1823 H1828 0.930 . S
C1824 N1821 1.336 . S
C1824 C1823 1.346 . S
C1824 H1831 0.929 . S
C1825 O1815 1.282 . S
C1825 O1826 1.216 . S
O1826 C1825 1.216 . S
H1827 C1822 0.930 . S
H1828 C1823 0.930 . S
O1829 Cu1809 1.959 . S
O1829 C1816 1.251 . S
H1830 C1813 0.930 . S
H1831 C1824 0.929 . S
H1832 C1844 0.930 . S
H1833 C1846 0.930 . S
H1834 C1847 0.930 . S
H1835 C1851 0.959 . S
H1836 C1851 0.959 . S
H1837 C1851 0.961 . S
H1838 C1852 0.960 . S
H1839 C1852 0.961 . S
H1840 C1852 0.959 . S
H1841 C1855 0.929 . S
H1842 C1856 0.931 . S
H1843 C1858 0.930 . S
C1844 H1832 0.930 . S
C1844 C1845 1.399 . S
C1844 C1849 1.399 . S
C1845 C1844 1.399 . S
C1845 C1846 1.376 . S
C1846 H1833 0.930 . S
C1846 C1845 1.376 . S
C1846 C1847 1.388 . S
C1847 H1834 0.930 . S
C1847 C1846 1.388 . S
C1847 C1848 1.390 . S
C1848 C1847 1.390 . S
C1848 C1849 1.394 . S
C1848 C1854 1.465 . S
C1849 C1844 1.399 . S
C1849 C1848 1.394 . S
C1849 C1850 1.516 . S
C1850 C1849 1.516 . S
C1850 C1851 1.502 . S
C1850 C1852 1.561 . S
C1850 C1853 1.526 . S
C1851 H1835 0.959 . S
C1851 H1836 0.959 . S
C1851 H1837 0.961 . S
C1851 C1850 1.502 . S
C1852 H1838 0.960 . S
C1852 H1839 0.961 . S
C1852 H1840 0.959 . S
C1852 C1850 1.561 . S
C1853 C1850 1.526 . S
C1853 C1854 1.396 . S
C1853 C1858 1.390 . S
C1854 C1848 1.465 . S
C1854 C1853 1.396 . S
C1854 C1855 1.399 . S
C1855 H1841 0.929 . S
C1855 C1854 1.399 . S
C1855 C1856 1.385 . S
C1856 H1842 0.931 . S
C1856 C1855 1.385 . S
C1856 C1857 1.389 . S
C1857 C1856 1.389 . S
C1857 C1858 1.387 . S
C1858 H1843 0.930 . S
C1858 C1853 1.390 . S
C1858 C1857 1.387 . S
H1859 C1871 0.930 . S
H1860 C1873 0.930 . S
H1861 C1874 0.930 . S
H1862 C1878 0.959 . S
H1863 C1878 0.959 . S
H1864 C1878 0.961 . S
H1865 C1879 0.960 . S
H1866 C1879 0.961 . S
H1867 C1879 0.959 . S
H1868 C1882 0.929 . S
H1869 C1883 0.931 . S
H1870 C1885 0.930 . S
C1871 H1859 0.930 . S
C1871 C1872 1.399 . S
C1871 C1876 1.399 . S
C1872 C1871 1.399 . S
C1872 C1873 1.376 . S
C1873 H1860 0.930 . S
C1873 C1872 1.376 . S
C1873 C1874 1.388 . S
C1874 H1861 0.930 . S
C1874 C1873 1.388 . S
C1874 C1875 1.390 . S
C1875 C1874 1.390 . S
C1875 C1876 1.394 . S
C1875 C1881 1.465 . S
C1876 C1871 1.399 . S
C1876 C1875 1.394 . S
C1876 C1877 1.516 . S
C1877 C1876 1.516 . S
C1877 C1878 1.502 . S
C1877 C1879 1.561 . S
C1877 C1880 1.526 . S
C1878 H1862 0.959 . S
C1878 H1863 0.959 . S
C1878 H1864 0.961 . S
C1878 C1877 1.502 . S
C1879 H1865 0.960 . S
C1879 H1866 0.961 . S
C1879 H1867 0.959 . S
C1879 C1877 1.561 . S
C1880 C1877 1.526 . S
C1880 C1881 1.396 . S
C1880 C1885 1.390 . S
C1881 C1875 1.465 . S
C1881 C1880 1.396 . S
C1881 C1882 1.399 . S
C1882 H1868 0.929 . S
C1882 C1881 1.399 . S
C1882 C1883 1.385 . S
C1883 H1869 0.931 . S
C1883 C1882 1.385 . S
C1883 C1884 1.389 . S
C1884 C1883 1.389 . S
C1884 C1885 1.387 . S
C1885 H1870 0.930 . S
C1885 C1880 1.390 . S
C1885 C1884 1.387 . S
H1886 C1898 0.930 . S
H1887 C1900 0.930 . S
H1888 C1901 0.930 . S
H1889 C1905 0.959 . S
H1890 C1905 0.959 . S
H1891 C1905 0.961 . S
H1892 C1906 0.960 . S
H1893 C1906 0.961 . S
H1894 C1906 0.959 . S
H1895 C1909 0.929 . S
H1896 C1910 0.931 . S
H1897 C1912 0.930 . S
C1898 H1886 0.930 . S
C1898 C1899 1.399 . S
C1898 C1903 1.399 . S
C1899 C1898 1.399 . S
C1899 C1900 1.376 . S
C1900 H1887 0.930 . S
C1900 C1899 1.376 . S
C1900 C1901 1.388 . S
C1901 H1888 0.930 . S
C1901 C1900 1.388 . S
C1901 C1902 1.390 . S
C1902 C1901 1.390 . S
C1902 C1903 1.394 . S
C1902 C1908 1.465 . S
C1903 C1898 1.399 . S
C1903 C1902 1.394 . S
C1903 C1904 1.516 . S
C1904 C1903 1.516 . S
C1904 C1905 1.502 . S
C1904 C1906 1.561 . S
C1904 C1907 1.526 . S
C1905 H1889 0.959 . S
C1905 H1890 0.959 . S
C1905 H1891 0.961 . S
C1905 C1904 1.502 . S
C1906 H1892 0.960 . S
C1906 H1893 0.961 . S
C1906 H1894 0.959 . S
C1906 C1904 1.561 . S
C1907 C1904 1.526 . S
C1907 C1908 1.396 . S
C1907 C1912 1.390 . S
C1908 C1902 1.465 . S
C1908 C1907 1.396 . S
C1908 C1909 1.399 . S
C1909 H1895 0.929 . S
C1909 C1908 1.399 . S
C1909 C1910 1.385 . S
C1910 H1896 0.931 . S
C1910 C1909 1.385 . S
C1910 C1911 1.389 . S
C1911 C1910 1.389 . S
C1911 C1912 1.387 . S
C1912 H1897 0.930 . S
C1912 C1907 1.390 . S
C1912 C1911 1.387 . S
H1913 C1925 0.930 . S
H1914 C1927 0.930 . S
H1915 C1928 0.930 . S
H1916 C1932 0.959 . S
H1917 C1932 0.959 . S
H1918 C1932 0.961 . S
H1919 C1933 0.960 . S
H1920 C1933 0.961 . S
H1921 C1933 0.959 . S
H1922 C1936 0.929 . S
H1923 C1937 0.931 . S
H1924 C1939 0.930 . S
C1925 H1913 0.930 . S
C1925 C1926 1.399 . S
C1925 C1930 1.399 . S
C1926 C1925 1.399 . S
C1926 C1927 1.376 . S
C1927 H1914 0.930 . S
C1927 C1926 1.376 . S
C1927 C1928 1.388 . S
C1928 H1915 0.930 . S
C1928 C1927 1.388 . S
C1928 C1929 1.390 . S
C1929 C1928 1.390 . S
C1929 C1930 1.394 . S
C1929 C1935 1.465 . S
C1930 C1925 1.399 . S
C1930 C1929 1.394 . S
C1930 C1931 1.516 . S
C1931 C1930 1.516 . S
C1931 C1932 1.502 . S
C1931 C1933 1.561 . S
C1931 C1934 1.526 . S
C1932 H1916 0.959 . S
C1932 H1917 0.959 . S
C1932 H1918 0.961 . S
C1932 C1931 1.502 . S
C1933 H1919 0.960 . S
C1933 H1920 0.961 . S
C1933 H1921 0.959 . S
C1933 C1931 1.561 . S
C1934 C1931 1.526 . S
C1934 C1935 1.396 . S
C1934 C1939 1.390 . S
C1935 C1929 1.465 . S
C1935 C1934 1.396 . S
C1935 C1936 1.399 . S
C1936 H1922 0.929 . S
C1936 C1935 1.399 . S
C1936 C1937 1.385 . S
C1937 H1923 0.931 . S
C1937 C1936 1.385 . S
C1937 C1938 1.389 . S
C1938 C1937 1.389 . S
C1938 C1939 1.387 . S
C1939 H1924 0.930 . S
C1939 C1934 1.390 . S
C1939 C1938 1.387 . S
H1940 C1952 0.930 . S
H1941 C1954 0.930 . S
H1942 C1955 0.930 . S
H1943 C1959 0.959 . S
H1944 C1959 0.959 . S
H1945 C1959 0.961 . S
H1946 C1960 0.960 . S
H1947 C1960 0.961 . S
H1948 C1960 0.959 . S
H1949 C1963 0.929 . S
H1950 C1964 0.931 . S
H1951 C1966 0.930 . S
C1952 H1940 0.930 . S
C1952 C1953 1.399 . S
C1952 C1957 1.399 . S
C1953 C1952 1.399 . S
C1953 C1954 1.376 . S
C1954 H1941 0.930 . S
C1954 C1953 1.376 . S
C1954 C1955 1.388 . S
C1955 H1942 0.930 . S
C1955 C1954 1.388 . S
C1955 C1956 1.390 . S
C1956 C1955 1.390 . S
C1956 C1957 1.394 . S
C1956 C1962 1.465 . S
C1957 C1952 1.399 . S
C1957 C1956 1.394 . S
C1957 C1958 1.516 . S
C1958 C1957 1.516 . S
C1958 C1959 1.502 . S
C1958 C1960 1.561 . S
C1958 C1961 1.526 . S
C1959 H1943 0.959 . S
C1959 H1944 0.959 . S
C1959 H1945 0.961 . S
C1959 C1958 1.502 . S
C1960 H1946 0.960 . S
C1960 H1947 0.961 . S
C1960 H1948 0.959 . S
C1960 C1958 1.561 . S
C1961 C1958 1.526 . S
C1961 C1962 1.396 . S
C1961 C1966 1.390 . S
C1962 C1956 1.465 . S
C1962 C1961 1.396 . S
C1962 C1963 1.399 . S
C1963 H1949 0.929 . S
C1963 C1962 1.399 . S
C1963 C1964 1.385 . S
C1964 H1950 0.931 . S
C1964 C1963 1.385 . S
C1964 C1965 1.389 . S
C1965 C1964 1.389 . S
C1965 C1966 1.387 . S
C1966 H1951 0.930 . S
C1966 C1961 1.390 . S
C1966 C1965 1.387 . S
H1967 C1979 0.930 . S
H1968 C1981 0.930 . S
H1969 C1982 0.930 . S
H1970 C1986 0.959 . S
H1971 C1986 0.959 . S
H1972 C1986 0.961 . S
H1973 C1987 0.960 . S
H1974 C1987 0.961 . S
H1975 C1987 0.959 . S
H1976 C1990 0.929 . S
H1977 C1991 0.931 . S
H1978 C1993 0.930 . S
C1979 H1967 0.930 . S
C1979 C1980 1.399 . S
C1979 C1984 1.399 . S
C1980 C1979 1.399 . S
C1980 C1981 1.376 . S
C1981 H1968 0.930 . S
C1981 C1980 1.376 . S
C1981 C1982 1.388 . S
C1982 H1969 0.930 . S
C1982 C1981 1.388 . S
C1982 C1983 1.390 . S
C1983 C1982 1.390 . S
C1983 C1984 1.394 . S
C1983 C1989 1.465 . S
C1984 C1979 1.399 . S
C1984 C1983 1.394 . S
C1984 C1985 1.516 . S
C1985 C1984 1.516 . S
C1985 C1986 1.502 . S
C1985 C1987 1.561 . S
C1985 C1988 1.526 . S
C1986 H1970 0.959 . S
C1986 H1971 0.959 . S
C1986 H1972 0.961 . S
C1986 C1985 1.502 . S
C1987 H1973 0.960 . S
C1987 H1974 0.961 . S
C1987 H1975 0.959 . S
C1987 C1985 1.561 . S
C1988 C1985 1.526 . S
C1988 C1989 1.396 . S
C1988 C1993 1.390 . S
C1989 C1983 1.465 . S
C1989 C1988 1.396 . S
C1989 C1990 1.399 . S
C1990 H1976 0.929 . S
C1990 C1989 1.399 . S
C1990 C1991 1.385 . S
C1991 H1977 0.931 . S
C1991 C1990 1.385 . S
C1991 C1992 1.389 . S
C1992 C1991 1.389 . S
C1992 C1993 1.387 . S
C1993 H1978 0.930 . S
C1993 C1988 1.390 . S
C1993 C1992 1.387 . S
H1994 C2006 0.930 . S
H1995 C2008 0.930 . S
H1996 C2009 0.930 . S
H1997 C2013 0.959 . S
H1998 C2013 0.959 . S
H1999 C2013 0.961 . S
H2000 C2014 0.960 . S
H2001 C2014 0.961 . S
H2002 C2014 0.959 . S
H2003 C2017 0.929 . S
H2004 C2018 0.931 . S
H2005 C2020 0.930 . S
C2006 H1994 0.930 . S
C2006 C2007 1.399 . S
C2006 C2011 1.399 . S
C2007 C2006 1.399 . S
C2007 C2008 1.376 . S
C2008 H1995 0.930 . S
C2008 C2007 1.376 . S
C2008 C2009 1.388 . S
C2009 H1996 0.930 . S
C2009 C2008 1.388 . S
C2009 C2010 1.390 . S
C2010 C2009 1.390 . S
C2010 C2011 1.394 . S
C2010 C2016 1.465 . S
C2011 C2006 1.399 . S
C2011 C2010 1.394 . S
C2011 C2012 1.516 . S
C2012 C2011 1.516 . S
C2012 C2013 1.502 . S
C2012 C2014 1.561 . S
C2012 C2015 1.526 . S
C2013 H1997 0.959 . S
C2013 H1998 0.959 . S
C2013 H1999 0.961 . S
C2013 C2012 1.502 . S
C2014 H2000 0.960 . S
C2014 H2001 0.961 . S
C2014 H2002 0.959 . S
C2014 C2012 1.561 . S
C2015 C2012 1.526 . S
C2015 C2016 1.396 . S
C2015 C2020 1.390 . S
C2016 C2010 1.465 . S
C2016 C2015 1.396 . S
C2016 C2017 1.399 . S
C2017 H2003 0.929 . S
C2017 C2016 1.399 . S
C2017 C2018 1.385 . S
C2018 H2004 0.931 . S
C2018 C2017 1.385 . S
C2018 C2019 1.389 . S
C2019 C2018 1.389 . S
C2019 C2020 1.387 . S
C2020 H2005 0.930 . S
C2020 C2015 1.390 . S
C2020 C2019 1.387 . S
H2021 C2033 0.930 . S
H2022 C2035 0.930 . S
H2023 C2036 0.930 . S
H2024 C2040 0.959 . S
H2025 C2040 0.959 . S
H2026 C2040 0.961 . S
H2027 C2041 0.960 . S
H2028 C2041 0.961 . S
H2029 C2041 0.959 . S
H2030 C2044 0.929 . S
H2031 C2045 0.931 . S
H2032 C2047 0.930 . S
C2033 H2021 0.930 . S
C2033 C2034 1.399 . S
C2033 C2038 1.399 . S
C2034 C2033 1.399 . S
C2034 C2035 1.376 . S
C2035 H2022 0.930 . S
C2035 C2034 1.376 . S
C2035 C2036 1.388 . S
C2036 H2023 0.930 . S
C2036 C2035 1.388 . S
C2036 C2037 1.390 . S
C2037 C2036 1.390 . S
C2037 C2038 1.394 . S
C2037 C2043 1.465 . S
C2038 C2033 1.399 . S
C2038 C2037 1.394 . S
C2038 C2039 1.516 . S
C2039 C2038 1.516 . S
C2039 C2040 1.502 . S
C2039 C2041 1.561 . S
C2039 C2042 1.526 . S
C2040 H2024 0.959 . S
C2040 H2025 0.959 . S
C2040 H2026 0.961 . S
C2040 C2039 1.502 . S
C2041 H2027 0.960 . S
C2041 H2028 0.961 . S
C2041 H2029 0.959 . S
C2041 C2039 1.561 . S
C2042 C2039 1.526 . S
C2042 C2043 1.396 . S
C2042 C2047 1.390 . S
C2043 C2037 1.465 . S
C2043 C2042 1.396 . S
C2043 C2044 1.399 . S
C2044 H2030 0.929 . S
C2044 C2043 1.399 . S
C2044 C2045 1.385 . S
C2045 H2031 0.931 . S
C2045 C2044 1.385 . S
C2045 C2046 1.389 . S
C2046 C2045 1.389 . S
C2046 C2047 1.387 . S
C2047 H2032 0.930 . S
C2047 C2042 1.390 . S
C2047 C2046 1.387 . S
H2048 C2060 0.930 . S
H2049 C2062 0.930 . S
H2050 C2063 0.930 . S
H2051 C2067 0.959 . S
H2052 C2067 0.959 . S
H2053 C2067 0.961 . S
H2054 C2068 0.960 . S
H2055 C2068 0.961 . S
H2056 C2068 0.959 . S
H2057 C2071 0.929 . S
H2058 C2072 0.931 . S
H2059 C2074 0.930 . S
C2060 H2048 0.930 . S
C2060 C2061 1.399 . S
C2060 C2065 1.399 . S
C2061 C2060 1.399 . S
C2061 C2062 1.376 . S
C2062 H2049 0.930 . S
C2062 C2061 1.376 . S
C2062 C2063 1.388 . S
C2063 H2050 0.930 . S
C2063 C2062 1.388 . S
C2063 C2064 1.390 . S
C2064 C2063 1.390 . S
C2064 C2065 1.394 . S
C2064 C2070 1.465 . S
C2065 C2060 1.399 . S
C2065 C2064 1.394 . S
C2065 C2066 1.516 . S
C2066 C2065 1.516 . S
C2066 C2067 1.502 . S
C2066 C2068 1.561 . S
C2066 C2069 1.526 . S
C2067 H2051 0.959 . S
C2067 H2052 0.959 . S
C2067 H2053 0.961 . S
C2067 C2066 1.502 . S
C2068 H2054 0.960 . S
C2068 H2055 0.961 . S
C2068 H2056 0.959 . S
C2068 C2066 1.561 . S
C2069 C2066 1.526 . S
C2069 C2070 1.396 . S
C2069 C2074 1.390 . S
C2070 C2064 1.465 . S
C2070 C2069 1.396 . S
C2070 C2071 1.399 . S
C2071 H2057 0.929 . S
C2071 C2070 1.399 . S
C2071 C2072 1.385 . S
C2072 H2058 0.931 . S
C2072 C2071 1.385 . S
C2072 C2073 1.389 . S
C2073 C2072 1.389 . S
C2073 C2074 1.387 . S
C2074 H2059 0.930 . S
C2074 C2069 1.390 . S
C2074 C2073 1.387 . S
H2075 C2087 0.930 . S
H2076 C2089 0.930 . S
H2077 C2090 0.930 . S
H2078 C2094 0.959 . S
H2079 C2094 0.959 . S
H2080 C2094 0.961 . S
H2081 C2095 0.960 . S
H2082 C2095 0.961 . S
H2083 C2095 0.959 . S
H2084 C2098 0.929 . S
H2085 C2099 0.931 . S
H2086 C2101 0.930 . S
C2087 H2075 0.930 . S
C2087 C2088 1.399 . S
C2087 C2092 1.399 . S
C2088 C2087 1.399 . S
C2088 C2089 1.376 . S
C2089 H2076 0.930 . S
C2089 C2088 1.376 . S
C2089 C2090 1.388 . S
C2090 H2077 0.930 . S
C2090 C2089 1.388 . S
C2090 C2091 1.390 . S
C2091 C2090 1.390 . S
C2091 C2092 1.394 . S
C2091 C2097 1.465 . S
C2092 C2087 1.399 . S
C2092 C2091 1.394 . S
C2092 C2093 1.516 . S
C2093 C2092 1.516 . S
C2093 C2094 1.502 . S
C2093 C2095 1.561 . S
C2093 C2096 1.526 . S
C2094 H2078 0.959 . S
C2094 H2079 0.959 . S
C2094 H2080 0.961 . S
C2094 C2093 1.502 . S
C2095 H2081 0.960 . S
C2095 H2082 0.961 . S
C2095 H2083 0.959 . S
C2095 C2093 1.561 . S
C2096 C2093 1.526 . S
C2096 C2097 1.396 . S
C2096 C2101 1.390 . S
C2097 C2091 1.465 . S
C2097 C2096 1.396 . S
C2097 C2098 1.399 . S
C2098 H2084 0.929 . S
C2098 C2097 1.399 . S
C2098 C2099 1.385 . S
C2099 H2085 0.931 . S
C2099 C2098 1.385 . S
C2099 C2100 1.389 . S
C2100 C2099 1.389 . S
C2100 C2101 1.387 . S
C2101 H2086 0.930 . S
C2101 C2096 1.390 . S
C2101 C2100 1.387 . S
H2102 C2114 0.930 . S
H2103 C2116 0.930 . S
H2104 C2117 0.930 . S
H2105 C2121 0.959 . S
H2106 C2121 0.959 . S
H2107 C2121 0.961 . S
H2108 C2122 0.960 . S
H2109 C2122 0.961 . S
H2110 C2122 0.959 . S
H2111 C2125 0.929 . S
H2112 C2126 0.931 . S
H2113 C2128 0.930 . S
C2114 H2102 0.930 . S
C2114 C2115 1.399 . S
C2114 C2119 1.399 . S
C2115 C2114 1.399 . S
C2115 C2116 1.376 . S
C2116 H2103 0.930 . S
C2116 C2115 1.376 . S
C2116 C2117 1.388 . S
C2117 H2104 0.930 . S
C2117 C2116 1.388 . S
C2117 C2118 1.390 . S
C2118 C2117 1.390 . S
C2118 C2119 1.394 . S
C2118 C2124 1.465 . S
C2119 C2114 1.399 . S
C2119 C2118 1.394 . S
C2119 C2120 1.516 . S
C2120 C2119 1.516 . S
C2120 C2121 1.502 . S
C2120 C2122 1.561 . S
C2120 C2123 1.526 . S
C2121 H2105 0.959 . S
C2121 H2106 0.959 . S
C2121 H2107 0.961 . S
C2121 C2120 1.502 . S
C2122 H2108 0.960 . S
C2122 H2109 0.961 . S
C2122 H2110 0.959 . S
C2122 C2120 1.561 . S
C2123 C2120 1.526 . S
C2123 C2124 1.396 . S
C2123 C2128 1.390 . S
C2124 C2118 1.465 . S
C2124 C2123 1.396 . S
C2124 C2125 1.399 . S
C2125 H2111 0.929 . S
C2125 C2124 1.399 . S
C2125 C2126 1.385 . S
C2126 H2112 0.931 . S
C2126 C2125 1.385 . S
C2126 C2127 1.389 . S
C2127 C2126 1.389 . S
C2127 C2128 1.387 . S
C2128 H2113 0.930 . S
C2128 C2123 1.390 . S
C2128 C2127 1.387 . S
H2129 C2141 0.930 . S
H2130 C2143 0.930 . S
H2131 C2144 0.930 . S
H2132 C2148 0.959 . S
H2133 C2148 0.959 . S
H2134 C2148 0.961 . S
H2135 C2149 0.960 . S
H2136 C2149 0.961 . S
H2137 C2149 0.959 . S
H2138 C2152 0.929 . S
H2139 C2153 0.931 . S
H2140 C2155 0.930 . S
C2141 H2129 0.930 . S
C2141 C2142 1.399 . S
C2141 C2146 1.399 . S
C2142 C2141 1.399 . S
C2142 C2143 1.376 . S
C2143 H2130 0.930 . S
C2143 C2142 1.376 . S
C2143 C2144 1.388 . S
C2144 H2131 0.930 . S
C2144 C2143 1.388 . S
C2144 C2145 1.390 . S
C2145 C2144 1.390 . S
C2145 C2146 1.394 . S
C2145 C2151 1.465 . S
C2146 C2141 1.399 . S
C2146 C2145 1.394 . S
C2146 C2147 1.516 . S
C2147 C2146 1.516 . S
C2147 C2148 1.502 . S
C2147 C2149 1.561 . S
C2147 C2150 1.526 . S
C2148 H2132 0.959 . S
C2148 H2133 0.959 . S
C2148 H2134 0.961 . S
C2148 C2147 1.502 . S
C2149 H2135 0.960 . S
C2149 H2136 0.961 . S
C2149 H2137 0.959 . S
C2149 C2147 1.561 . S
C2150 C2147 1.526 . S
C2150 C2151 1.396 . S
C2150 C2155 1.390 . S
C2151 C2145 1.465 . S
C2151 C2150 1.396 . S
C2151 C2152 1.399 . S
C2152 H2138 0.929 . S
C2152 C2151 1.399 . S
C2152 C2153 1.385 . S
C2153 H2139 0.931 . S
C2153 C2152 1.385 . S
C2153 C2154 1.389 . S
C2154 C2153 1.389 . S
C2154 C2155 1.387 . S
C2155 H2140 0.930 . S
C2155 C2150 1.390 . S
C2155 C2154 1.387 . S
H2156 C2168 0.930 . S
H2157 C2170 0.930 . S
H2158 C2171 0.930 . S
H2159 C2175 0.959 . S
H2160 C2175 0.959 . S
H2161 C2175 0.961 . S
H2162 C2176 0.960 . S
H2163 C2176 0.961 . S
H2164 C2176 0.959 . S
H2165 C2179 0.929 . S
H2166 C2180 0.931 . S
H2167 C2182 0.930 . S
C2168 H2156 0.930 . S
C2168 C2169 1.399 . S
C2168 C2173 1.399 . S
C2169 C2168 1.399 . S
C2169 C2170 1.376 . S
C2170 H2157 0.930 . S
C2170 C2169 1.376 . S
C2170 C2171 1.388 . S
C2171 H2158 0.930 . S
C2171 C2170 1.388 . S
C2171 C2172 1.390 . S
C2172 C2171 1.390 . S
C2172 C2173 1.394 . S
C2172 C2178 1.465 . S
C2173 C2168 1.399 . S
C2173 C2172 1.394 . S
C2173 C2174 1.516 . S
C2174 C2173 1.516 . S
C2174 C2175 1.502 . S
C2174 C2176 1.561 . S
C2174 C2177 1.526 . S
C2175 H2159 0.959 . S
C2175 H2160 0.959 . S
C2175 H2161 0.961 . S
C2175 C2174 1.502 . S
C2176 H2162 0.960 . S
C2176 H2163 0.961 . S
C2176 H2164 0.959 . S
C2176 C2174 1.561 . S
C2177 C2174 1.526 . S
C2177 C2178 1.396 . S
C2177 C2182 1.390 . S
C2178 C2172 1.465 . S
C2178 C2177 1.396 . S
C2178 C2179 1.399 . S
C2179 H2165 0.929 . S
C2179 C2178 1.399 . S
C2179 C2180 1.385 . S
C2180 H2166 0.931 . S
C2180 C2179 1.385 . S
C2180 C2181 1.389 . S
C2181 C2180 1.389 . S
C2181 C2182 1.387 . S
C2182 H2167 0.930 . S
C2182 C2177 1.390 . S
C2182 C2181 1.387 . S
H2183 C2195 0.930 . S
H2184 C2197 0.930 . S
H2185 C2198 0.930 . S
H2186 C2202 0.959 . S
H2187 C2202 0.959 . S
H2188 C2202 0.961 . S
H2189 C2203 0.960 . S
H2190 C2203 0.961 . S
H2191 C2203 0.959 . S
H2192 C2206 0.929 . S
H2193 C2207 0.931 . S
H2194 C2209 0.930 . S
C2195 H2183 0.930 . S
C2195 C2196 1.399 . S
C2195 C2200 1.399 . S
C2196 C2195 1.399 . S
C2196 C2197 1.376 . S
C2197 H2184 0.930 . S
C2197 C2196 1.376 . S
C2197 C2198 1.388 . S
C2198 H2185 0.930 . S
C2198 C2197 1.388 . S
C2198 C2199 1.390 . S
C2199 C2198 1.390 . S
C2199 C2200 1.394 . S
C2199 C2205 1.465 . S
C2200 C2195 1.399 . S
C2200 C2199 1.394 . S
C2200 C2201 1.516 . S
C2201 C2200 1.516 . S
C2201 C2202 1.502 . S
C2201 C2203 1.561 . S
C2201 C2204 1.526 . S
C2202 H2186 0.959 . S
C2202 H2187 0.959 . S
C2202 H2188 0.961 . S
C2202 C2201 1.502 . S
C2203 H2189 0.960 . S
C2203 H2190 0.961 . S
C2203 H2191 0.959 . S
C2203 C2201 1.561 . S
C2204 C2201 1.526 . S
C2204 C2205 1.396 . S
C2204 C2209 1.390 . S
C2205 C2199 1.465 . S
C2205 C2204 1.396 . S
C2205 C2206 1.399 . S
C2206 H2192 0.929 . S
C2206 C2205 1.399 . S
C2206 C2207 1.385 . S
C2207 H2193 0.931 . S
C2207 C2206 1.385 . S
C2207 C2208 1.389 . S
C2208 C2207 1.389 . S
C2208 C2209 1.387 . S
C2209 H2194 0.930 . S
C2209 C2204 1.390 . S
C2209 C2208 1.387 . S
H2210 C2222 0.930 . S
H2211 C2224 0.930 . S
H2212 C2225 0.930 . S
H2213 C2229 0.959 . S
H2214 C2229 0.959 . S
H2215 C2229 0.961 . S
H2216 C2230 0.960 . S
H2217 C2230 0.961 . S
H2218 C2230 0.959 . S
H2219 C2233 0.929 . S
H2220 C2234 0.931 . S
H2221 C2236 0.930 . S
C2222 H2210 0.930 . S
C2222 C2223 1.399 . S
C2222 C2227 1.399 . S
C2223 C2222 1.399 . S
C2223 C2224 1.376 . S
C2224 H2211 0.930 . S
C2224 C2223 1.376 . S
C2224 C2225 1.388 . S
C2225 H2212 0.930 . S
C2225 C2224 1.388 . S
C2225 C2226 1.390 . S
C2226 C2225 1.390 . S
C2226 C2227 1.394 . S
C2226 C2232 1.465 . S
C2227 C2222 1.399 . S
C2227 C2226 1.394 . S
C2227 C2228 1.516 . S
C2228 C2227 1.516 . S
C2228 C2229 1.502 . S
C2228 C2230 1.561 . S
C2228 C2231 1.526 . S
C2229 H2213 0.959 . S
C2229 H2214 0.959 . S
C2229 H2215 0.961 . S
C2229 C2228 1.502 . S
C2230 H2216 0.960 . S
C2230 H2217 0.961 . S
C2230 H2218 0.959 . S
C2230 C2228 1.561 . S
C2231 C2228 1.526 . S
C2231 C2232 1.396 . S
C2231 C2236 1.390 . S
C2232 C2226 1.465 . S
C2232 C2231 1.396 . S
C2232 C2233 1.399 . S
C2233 H2219 0.929 . S
C2233 C2232 1.399 . S
C2233 C2234 1.385 . S
C2234 H2220 0.931 . S
C2234 C2233 1.385 . S
C2234 C2235 1.389 . S
C2235 C2234 1.389 . S
C2235 C2236 1.387 . S
C2236 H2221 0.930 . S
C2236 C2231 1.390 . S
C2236 C2235 1.387 . S
H2237 C2249 0.930 . S
H2238 C2251 0.930 . S
H2239 C2252 0.930 . S
H2240 C2256 0.959 . S
H2241 C2256 0.959 . S
H2242 C2256 0.961 . S
H2243 C2257 0.960 . S
H2244 C2257 0.961 . S
H2245 C2257 0.959 . S
H2246 C2260 0.929 . S
H2247 C2261 0.931 . S
H2248 C2263 0.930 . S
C2249 H2237 0.930 . S
C2249 C2250 1.399 . S
C2249 C2254 1.399 . S
C2250 C2249 1.399 . S
C2250 C2251 1.376 . S
C2251 H2238 0.930 . S
C2251 C2250 1.376 . S
C2251 C2252 1.388 . S
C2252 H2239 0.930 . S
C2252 C2251 1.388 . S
C2252 C2253 1.390 . S
C2253 C2252 1.390 . S
C2253 C2254 1.394 . S
C2253 C2259 1.465 . S
C2254 C2249 1.399 . S
C2254 C2253 1.394 . S
C2254 C2255 1.516 . S
C2255 C2254 1.516 . S
C2255 C2256 1.502 . S
C2255 C2257 1.561 . S
C2255 C2258 1.526 . S
C2256 H2240 0.959 . S
C2256 H2241 0.959 . S
C2256 H2242 0.961 . S
C2256 C2255 1.502 . S
C2257 H2243 0.960 . S
C2257 H2244 0.961 . S
C2257 H2245 0.959 . S
C2257 C2255 1.561 . S
C2258 C2255 1.526 . S
C2258 C2259 1.396 . S
C2258 C2263 1.390 . S
C2259 C2253 1.465 . S
C2259 C2258 1.396 . S
C2259 C2260 1.399 . S
C2260 H2246 0.929 . S
C2260 C2259 1.399 . S
C2260 C2261 1.385 . S
C2261 H2247 0.931 . S
C2261 C2260 1.385 . S
C2261 C2262 1.389 . S
C2262 C2261 1.389 . S
C2262 C2263 1.387 . S
C2263 H2248 0.930 . S
C2263 C2258 1.390 . S
C2263 C2262 1.387 . S
H2264 C2276 0.930 . S
H2265 C2278 0.930 . S
H2266 C2279 0.930 . S
H2267 C2283 0.959 . S
H2268 C2283 0.959 . S
H2269 C2283 0.961 . S
H2270 C2284 0.960 . S
H2271 C2284 0.961 . S
H2272 C2284 0.959 . S
H2273 C2287 0.929 . S
H2274 C2288 0.931 . S
H2275 C2290 0.930 . S
C2276 H2264 0.930 . S
C2276 C2277 1.399 . S
C2276 C2281 1.399 . S
C2277 C2276 1.399 . S
C2277 C2278 1.376 . S
C2278 H2265 0.930 . S
C2278 C2277 1.376 . S
C2278 C2279 1.388 . S
C2279 H2266 0.930 . S
C2279 C2278 1.388 . S
C2279 C2280 1.390 . S
C2280 C2279 1.390 . S
C2280 C2281 1.394 . S
C2280 C2286 1.465 . S
C2281 C2276 1.399 . S
C2281 C2280 1.394 . S
C2281 C2282 1.516 . S
C2282 C2281 1.516 . S
C2282 C2283 1.502 . S
C2282 C2284 1.561 . S
C2282 C2285 1.526 . S
C2283 H2267 0.959 . S
C2283 H2268 0.959 . S
C2283 H2269 0.961 . S
C2283 C2282 1.502 . S
C2284 H2270 0.960 . S
C2284 H2271 0.961 . S
C2284 H2272 0.959 . S
C2284 C2282 1.561 . S
C2285 C2282 1.526 . S
C2285 C2286 1.396 . S
C2285 C2290 1.390 . S
C2286 C2280 1.465 . S
C2286 C2285 1.396 . S
C2286 C2287 1.399 . S
C2287 H2273 0.929 . S
C2287 C2286 1.399 . S
C2287 C2288 1.385 . S
C2288 H2274 0.931 . S
C2288 C2287 1.385 . S
C2288 C2289 1.389 . S
C2289 C2288 1.389 . S
C2289 C2290 1.387 . S
C2290 H2275 0.930 . S
C2290 C2285 1.390 . S
C2290 C2289 1.387 . S
H2291 C2303 0.930 . S
H2292 C2305 0.930 . S
H2293 C2306 0.930 . S
H2294 C2310 0.959 . S
H2295 C2310 0.959 . S
H2296 C2310 0.961 . S
H2297 C2311 0.960 . S
H2298 C2311 0.961 . S
H2299 C2311 0.959 . S
H2300 C2314 0.929 . S
H2301 C2315 0.931 . S
H2302 C2317 0.930 . S
C2303 H2291 0.930 . S
C2303 C2304 1.399 . S
C2303 C2308 1.399 . S
C2304 C2303 1.399 . S
C2304 C2305 1.376 . S
C2305 H2292 0.930 . S
C2305 C2304 1.376 . S
C2305 C2306 1.388 . S
C2306 H2293 0.930 . S
C2306 C2305 1.388 . S
C2306 C2307 1.390 . S
C2307 C2306 1.390 . S
C2307 C2308 1.394 . S
C2307 C2313 1.465 . S
C2308 C2303 1.399 . S
C2308 C2307 1.394 . S
C2308 C2309 1.516 . S
C2309 C2308 1.516 . S
C2309 C2310 1.502 . S
C2309 C2311 1.561 . S
C2309 C2312 1.526 . S
C2310 H2294 0.959 . S
C2310 H2295 0.959 . S
C2310 H2296 0.961 . S
C2310 C2309 1.502 . S
C2311 H2297 0.960 . S
C2311 H2298 0.961 . S
C2311 H2299 0.959 . S
C2311 C2309 1.561 . S
C2312 C2309 1.526 . S
C2312 C2313 1.396 . S
C2312 C2317 1.390 . S
C2313 C2307 1.465 . S
C2313 C2312 1.396 . S
C2313 C2314 1.399 . S
C2314 H2300 0.929 . S
C2314 C2313 1.399 . S
C2314 C2315 1.385 . S
C2315 H2301 0.931 . S
C2315 C2314 1.385 . S
C2315 C2316 1.389 . S
C2316 C2315 1.389 . S
C2316 C2317 1.387 . S
C2317 H2302 0.930 . S
C2317 C2312 1.390 . S
C2317 C2316 1.387 . S
H2318 C2330 0.930 . S
H2319 C2332 0.930 . S
H2320 C2333 0.930 . S
H2321 C2337 0.959 . S
H2322 C2337 0.959 . S
H2323 C2337 0.961 . S
H2324 C2338 0.960 . S
H2325 C2338 0.961 . S
H2326 C2338 0.959 . S
H2327 C2341 0.929 . S
H2328 C2342 0.931 . S
H2329 C2344 0.930 . S
C2330 H2318 0.930 . S
C2330 C2331 1.399 . S
C2330 C2335 1.399 . S
C2331 C2330 1.399 . S
C2331 C2332 1.376 . S
C2332 H2319 0.930 . S
C2332 C2331 1.376 . S
C2332 C2333 1.388 . S
C2333 H2320 0.930 . S
C2333 C2332 1.388 . S
C2333 C2334 1.390 . S
C2334 C2333 1.390 . S
C2334 C2335 1.394 . S
C2334 C2340 1.465 . S
C2335 C2330 1.399 . S
C2335 C2334 1.394 . S
C2335 C2336 1.516 . S
C2336 C2335 1.516 . S
C2336 C2337 1.502 . S
C2336 C2338 1.561 . S
C2336 C2339 1.526 . S
C2337 H2321 0.959 . S
C2337 H2322 0.959 . S
C2337 H2323 0.961 . S
C2337 C2336 1.502 . S
C2338 H2324 0.960 . S
C2338 H2325 0.961 . S
C2338 H2326 0.959 . S
C2338 C2336 1.561 . S
C2339 C2336 1.526 . S
C2339 C2340 1.396 . S
C2339 C2344 1.390 . S
C2340 C2334 1.465 . S
C2340 C2339 1.396 . S
C2340 C2341 1.399 . S
C2341 H2327 0.929 . S
C2341 C2340 1.399 . S
C2341 C2342 1.385 . S
C2342 H2328 0.931 . S
C2342 C2341 1.385 . S
C2342 C2343 1.389 . S
C2343 C2342 1.389 . S
C2343 C2344 1.387 . S
C2344 H2329 0.930 . S
C2344 C2339 1.390 . S
C2344 C2343 1.387 . S
H2345 C2357 0.930 . S
H2346 C2359 0.930 . S
H2347 C2360 0.930 . S
H2348 C2364 0.959 . S
H2349 C2364 0.959 . S
H2350 C2364 0.961 . S
H2351 C2365 0.960 . S
H2352 C2365 0.961 . S
H2353 C2365 0.959 . S
H2354 C2368 0.929 . S
H2355 C2369 0.931 . S
H2356 C2371 0.930 . S
C2357 H2345 0.930 . S
C2357 C2358 1.399 . S
C2357 C2362 1.399 . S
C2358 C2357 1.399 . S
C2358 C2359 1.376 . S
C2359 H2346 0.930 . S
C2359 C2358 1.376 . S
C2359 C2360 1.388 . S
C2360 H2347 0.930 . S
C2360 C2359 1.388 . S
C2360 C2361 1.390 . S
C2361 C2360 1.390 . S
C2361 C2362 1.394 . S
C2361 C2367 1.465 . S
C2362 C2357 1.399 . S
C2362 C2361 1.394 . S
C2362 C2363 1.516 . S
C2363 C2362 1.516 . S
C2363 C2364 1.502 . S
C2363 C2365 1.561 . S
C2363 C2366 1.526 . S
C2364 H2348 0.959 . S
C2364 H2349 0.959 . S
C2364 H2350 0.961 . S
C2364 C2363 1.502 . S
C2365 H2351 0.960 . S
C2365 H2352 0.961 . S
C2365 H2353 0.959 . S
C2365 C2363 1.561 . S
C2366 C2363 1.526 . S
C2366 C2367 1.396 . S
C2366 C2371 1.390 . S
C2367 C2361 1.465 . S
C2367 C2366 1.396 . S
C2367 C2368 1.399 . S
C2368 H2354 0.929 . S
C2368 C2367 1.399 . S
C2368 C2369 1.385 . S
C2369 H2355 0.931 . S
C2369 C2368 1.385 . S
C2369 C2370 1.389 . S
C2370 C2369 1.389 . S
C2370 C2371 1.387 . S
C2371 H2356 0.930 . S
C2371 C2366 1.390 . S
C2371 C2370 1.387 . S
H2372 C2384 0.930 . S
H2373 C2386 0.930 . S
H2374 C2387 0.930 . S
H2375 C2391 0.959 . S
H2376 C2391 0.959 . S
H2377 C2391 0.961 . S
H2378 C2392 0.960 . S
H2379 C2392 0.961 . S
H2380 C2392 0.959 . S
H2381 C2395 0.929 . S
H2382 C2396 0.931 . S
H2383 C2398 0.930 . S
C2384 H2372 0.930 . S
C2384 C2385 1.399 . S
C2384 C2389 1.399 . S
C2385 C2384 1.399 . S
C2385 C2386 1.376 . S
C2386 H2373 0.930 . S
C2386 C2385 1.376 . S
C2386 C2387 1.388 . S
C2387 H2374 0.930 . S
C2387 C2386 1.388 . S
C2387 C2388 1.390 . S
C2388 C2387 1.390 . S
C2388 C2389 1.394 . S
C2388 C2394 1.465 . S
C2389 C2384 1.399 . S
C2389 C2388 1.394 . S
C2389 C2390 1.516 . S
C2390 C2389 1.516 . S
C2390 C2391 1.502 . S
C2390 C2392 1.561 . S
C2390 C2393 1.526 . S
C2391 H2375 0.959 . S
C2391 H2376 0.959 . S
C2391 H2377 0.961 . S
C2391 C2390 1.502 . S
C2392 H2378 0.960 . S
C2392 H2379 0.961 . S
C2392 H2380 0.959 . S
C2392 C2390 1.561 . S
C2393 C2390 1.526 . S
C2393 C2394 1.396 . S
C2393 C2398 1.390 . S
C2394 C2388 1.465 . S
C2394 C2393 1.396 . S
C2394 C2395 1.399 . S
C2395 H2381 0.929 . S
C2395 C2394 1.399 . S
C2395 C2396 1.385 . S
C2396 H2382 0.931 . S
C2396 C2395 1.385 . S
C2396 C2397 1.389 . S
C2397 C2396 1.389 . S
C2397 C2398 1.387 . S
C2398 H2383 0.930 . S
C2398 C2393 1.390 . S
C2398 C2397 1.387 . S
H2399 C2411 0.930 . S
H2400 C2413 0.930 . S
H2401 C2414 0.930 . S
H2402 C2418 0.959 . S
H2403 C2418 0.959 . S
H2404 C2418 0.961 . S
H2405 C2419 0.960 . S
H2406 C2419 0.961 . S
H2407 C2419 0.959 . S
H2408 C2422 0.929 . S
H2409 C2423 0.931 . S
H2410 C2425 0.930 . S
C2411 H2399 0.930 . S
C2411 C2412 1.399 . S
C2411 C2416 1.399 . S
C2412 C2411 1.399 . S
C2412 C2413 1.376 . S
C2413 H2400 0.930 . S
C2413 C2412 1.376 . S
C2413 C2414 1.388 . S
C2414 H2401 0.930 . S
C2414 C2413 1.388 . S
C2414 C2415 1.390 . S
C2415 C2414 1.390 . S
C2415 C2416 1.394 . S
C2415 C2421 1.465 . S
C2416 C2411 1.399 . S
C2416 C2415 1.394 . S
C2416 C2417 1.516 . S
C2417 C2416 1.516 . S
C2417 C2418 1.502 . S
C2417 C2419 1.561 . S
C2417 C2420 1.526 . S
C2418 H2402 0.959 . S
C2418 H2403 0.959 . S
C2418 H2404 0.961 . S
C2418 C2417 1.502 . S
C2419 H2405 0.960 . S
C2419 H2406 0.961 . S
C2419 H2407 0.959 . S
C2419 C2417 1.561 . S
C2420 C2417 1.526 . S
C2420 C2421 1.396 . S
C2420 C2425 1.390 . S
C2421 C2415 1.465 . S
C2421 C2420 1.396 . S
C2421 C2422 1.399 . S
C2422 H2408 0.929 . S
C2422 C2421 1.399 . S
C2422 C2423 1.385 . S
C2423 H2409 0.931 . S
C2423 C2422 1.385 . S
C2423 C2424 1.389 . S
C2424 C2423 1.389 . S
C2424 C2425 1.387 . S
C2425 H2410 0.930 . S
C2425 C2420 1.390 . S
C2425 C2424 1.387 . S
H2426 C2438 0.930 . S
H2427 C2440 0.930 . S
H2428 C2441 0.930 . S
H2429 C2445 0.959 . S
H2430 C2445 0.959 . S
H2431 C2445 0.961 . S
H2432 C2446 0.960 . S
H2433 C2446 0.961 . S
H2434 C2446 0.959 . S
H2435 C2449 0.929 . S
H2436 C2450 0.931 . S
H2437 C2452 0.930 . S
C2438 H2426 0.930 . S
C2438 C2439 1.399 . S
C2438 C2443 1.399 . S
C2439 C2438 1.399 . S
C2439 C2440 1.376 . S
C2440 H2427 0.930 . S
C2440 C2439 1.376 . S
C2440 C2441 1.388 . S
C2441 H2428 0.930 . S
C2441 C2440 1.388 . S
C2441 C2442 1.390 . S
C2442 C2441 1.390 . S
C2442 C2443 1.394 . S
C2442 C2448 1.465 . S
C2443 C2438 1.399 . S
C2443 C2442 1.394 . S
C2443 C2444 1.516 . S
C2444 C2443 1.516 . S
C2444 C2445 1.502 . S
C2444 C2446 1.561 . S
C2444 C2447 1.526 . S
C2445 H2429 0.959 . S
C2445 H2430 0.959 . S
C2445 H2431 0.961 . S
C2445 C2444 1.502 . S
C2446 H2432 0.960 . S
C2446 H2433 0.961 . S
C2446 H2434 0.959 . S
C2446 C2444 1.561 . S
C2447 C2444 1.526 . S
C2447 C2448 1.396 . S
C2447 C2452 1.390 . S
C2448 C2442 1.465 . S
C2448 C2447 1.396 . S
C2448 C2449 1.399 . S
C2449 H2435 0.929 . S
C2449 C2448 1.399 . S
C2449 C2450 1.385 . S
C2450 H2436 0.931 . S
C2450 C2449 1.385 . S
C2450 C2451 1.389 . S
C2451 C2450 1.389 . S
C2451 C2452 1.387 . S
C2452 H2437 0.930 . S
C2452 C2447 1.390 . S
C2452 C2451 1.387 . S
H2453 C2465 0.930 . S
H2454 C2467 0.930 . S
H2455 C2468 0.930 . S
H2456 C2472 0.959 . S
H2457 C2472 0.959 . S
H2458 C2472 0.961 . S
H2459 C2473 0.960 . S
H2460 C2473 0.961 . S
H2461 C2473 0.959 . S
H2462 C2476 0.929 . S
H2463 C2477 0.931 . S
H2464 C2479 0.930 . S
C2465 H2453 0.930 . S
C2465 C2466 1.399 . S
C2465 C2470 1.399 . S
C2466 C2465 1.399 . S
C2466 C2467 1.376 . S
C2467 H2454 0.930 . S
C2467 C2466 1.376 . S
C2467 C2468 1.388 . S
C2468 H2455 0.930 . S
C2468 C2467 1.388 . S
C2468 C2469 1.390 . S
C2469 C2468 1.390 . S
C2469 C2470 1.394 . S
C2469 C2475 1.465 . S
C2470 C2465 1.399 . S
C2470 C2469 1.394 . S
C2470 C2471 1.516 . S
C2471 C2470 1.516 . S
C2471 C2472 1.502 . S
C2471 C2473 1.561 . S
C2471 C2474 1.526 . S
C2472 H2456 0.959 . S
C2472 H2457 0.959 . S
C2472 H2458 0.961 . S
C2472 C2471 1.502 . S
C2473 H2459 0.960 . S
C2473 H2460 0.961 . S
C2473 H2461 0.959 . S
C2473 C2471 1.561 . S
C2474 C2471 1.526 . S
C2474 C2475 1.396 . S
C2474 C2479 1.390 . S
C2475 C2469 1.465 . S
C2475 C2474 1.396 . S
C2475 C2476 1.399 . S
C2476 H2462 0.929 . S
C2476 C2475 1.399 . S
C2476 C2477 1.385 . S
C2477 H2463 0.931 . S
C2477 C2476 1.385 . S
C2477 C2478 1.389 . S
C2478 C2477 1.389 . S
C2478 C2479 1.387 . S
C2479 H2464 0.930 . S
C2479 C2474 1.390 . S
C2479 C2478 1.387 . S
H2480 C2492 0.930 . S
H2481 C2494 0.930 . S
H2482 C2495 0.930 . S
H2483 C2499 0.959 . S
H2484 C2499 0.959 . S
H2485 C2499 0.961 . S
H2486 C2500 0.960 . S
H2487 C2500 0.961 . S
H2488 C2500 0.959 . S
H2489 C2503 0.929 . S
H2490 C2504 0.931 . S
H2491 C2506 0.930 . S
C2492 H2480 0.930 . S
C2492 C2493 1.399 . S
C2492 C2497 1.399 . S
C2493 C2492 1.399 . S
C2493 C2494 1.376 . S
C2494 H2481 0.930 . S
C2494 C2493 1.376 . S
C2494 C2495 1.388 . S
C2495 H2482 0.930 . S
C2495 C2494 1.388 . S
C2495 C2496 1.390 . S
C2496 C2495 1.390 . S
C2496 C2497 1.394 . S
C2496 C2502 1.465 . S
C2497 C2492 1.399 . S
C2497 C2496 1.394 . S
C2497 C2498 1.516 . S
C2498 C2497 1.516 . S
C2498 C2499 1.502 . S
C2498 C2500 1.561 . S
C2498 C2501 1.526 . S
C2499 H2483 0.959 . S
C2499 H2484 0.959 . S
C2499 H2485 0.961 . S
C2499 C2498 1.502 . S
C2500 H2486 0.960 . S
C2500 H2487 0.961 . S
C2500 H2488 0.959 . S
C2500 C2498 1.561 . S
C2501 C2498 1.526 . S
C2501 C2502 1.396 . S
C2501 C2506 1.390 . S
C2502 C2496 1.465 . S
C2502 C2501 1.396 . S
C2502 C2503 1.399 . S
C2503 H2489 0.929 . S
C2503 C2502 1.399 . S
C2503 C2504 1.385 . S
C2504 H2490 0.931 . S
C2504 C2503 1.385 . S
C2504 C2505 1.389 . S
C2505 C2504 1.389 . S
C2505 C2506 1.387 . S
C2506 H2491 0.930 . S
C2506 C2501 1.390 . S
C2506 C2505 1.387 . S
H2507 C2519 0.930 . S
H2508 C2521 0.930 . S
H2509 C2522 0.930 . S
H2510 C2526 0.959 . S
H2511 C2526 0.959 . S
H2512 C2526 0.961 . S
H2513 C2527 0.960 . S
H2514 C2527 0.961 . S
H2515 C2527 0.959 . S
H2516 C2530 0.929 . S
H2517 C2531 0.931 . S
H2518 C2533 0.930 . S
C2519 H2507 0.930 . S
C2519 C2520 1.399 . S
C2519 C2524 1.399 . S
C2520 C2519 1.399 . S
C2520 C2521 1.376 . S
C2521 H2508 0.930 . S
C2521 C2520 1.376 . S
C2521 C2522 1.388 . S
C2522 H2509 0.930 . S
C2522 C2521 1.388 . S
C2522 C2523 1.390 . S
C2523 C2522 1.390 . S
C2523 C2524 1.394 . S
C2523 C2529 1.465 . S
C2524 C2519 1.399 . S
C2524 C2523 1.394 . S
C2524 C2525 1.516 . S
C2525 C2524 1.516 . S
C2525 C2526 1.502 . S
C2525 C2527 1.561 . S
C2525 C2528 1.526 . S
C2526 H2510 0.959 . S
C2526 H2511 0.959 . S
C2526 H2512 0.961 . S
C2526 C2525 1.502 . S
C2527 H2513 0.960 . S
C2527 H2514 0.961 . S
C2527 H2515 0.959 . S
C2527 C2525 1.561 . S
C2528 C2525 1.526 . S
C2528 C2529 1.396 . S
C2528 C2533 1.390 . S
C2529 C2523 1.465 . S
C2529 C2528 1.396 . S
C2529 C2530 1.399 . S
C2530 H2516 0.929 . S
C2530 C2529 1.399 . S
C2530 C2531 1.385 . S
C2531 H2517 0.931 . S
C2531 C2530 1.385 . S
C2531 C2532 1.389 . S
C2532 C2531 1.389 . S
C2532 C2533 1.387 . S
C2533 H2518 0.930 . S
C2533 C2528 1.390 . S
C2533 C2532 1.387 . S
H2534 C2546 0.930 . S
H2535 C2548 0.930 . S
H2536 C2549 0.930 . S
H2537 C2553 0.959 . S
H2538 C2553 0.959 . S
H2539 C2553 0.961 . S
H2540 C2554 0.960 . S
H2541 C2554 0.961 . S
H2542 C2554 0.959 . S
H2543 C2557 0.929 . S
H2544 C2558 0.931 . S
H2545 C2560 0.930 . S
C2546 H2534 0.930 . S
C2546 C2547 1.399 . S
C2546 C2551 1.399 . S
C2547 C2546 1.399 . S
C2547 C2548 1.376 . S
C2548 H2535 0.930 . S
C2548 C2547 1.376 . S
C2548 C2549 1.388 . S
C2549 H2536 0.930 . S
C2549 C2548 1.388 . S
C2549 C2550 1.390 . S
C2550 C2549 1.390 . S
C2550 C2551 1.394 . S
C2550 C2556 1.465 . S
C2551 C2546 1.399 . S
C2551 C2550 1.394 . S
C2551 C2552 1.516 . S
C2552 C2551 1.516 . S
C2552 C2553 1.502 . S
C2552 C2554 1.561 . S
C2552 C2555 1.526 . S
C2553 H2537 0.959 . S
C2553 H2538 0.959 . S
C2553 H2539 0.961 . S
C2553 C2552 1.502 . S
C2554 H2540 0.960 . S
C2554 H2541 0.961 . S
C2554 H2542 0.959 . S
C2554 C2552 1.561 . S
C2555 C2552 1.526 . S
C2555 C2556 1.396 . S
C2555 C2560 1.390 . S
C2556 C2550 1.465 . S
C2556 C2555 1.396 . S
C2556 C2557 1.399 . S
C2557 H2543 0.929 . S
C2557 C2556 1.399 . S
C2557 C2558 1.385 . S
C2558 H2544 0.931 . S
C2558 C2557 1.385 . S
C2558 C2559 1.389 . S
C2559 C2558 1.389 . S
C2559 C2560 1.387 . S
C2560 H2545 0.930 . S
C2560 C2555 1.390 . S
C2560 C2559 1.387 . S
H2561 C2573 0.930 . S
H2562 C2575 0.930 . S
H2563 C2576 0.930 . S
H2564 C2580 0.959 . S
H2565 C2580 0.959 . S
H2566 C2580 0.961 . S
H2567 C2581 0.960 . S
H2568 C2581 0.961 . S
H2569 C2581 0.959 . S
H2570 C2584 0.929 . S
H2571 C2585 0.931 . S
H2572 C2587 0.930 . S
C2573 H2561 0.930 . S
C2573 C2574 1.399 . S
C2573 C2578 1.399 . S
C2574 C2573 1.399 . S
C2574 C2575 1.376 . S
C2575 H2562 0.930 . S
C2575 C2574 1.376 . S
C2575 C2576 1.388 . S
C2576 H2563 0.930 . S
C2576 C2575 1.388 . S
C2576 C2577 1.390 . S
C2577 C2576 1.390 . S
C2577 C2578 1.394 . S
C2577 C2583 1.465 . S
C2578 C2573 1.399 . S
C2578 C2577 1.394 . S
C2578 C2579 1.516 . S
C2579 C2578 1.516 . S
C2579 C2580 1.502 . S
C2579 C2581 1.561 . S
C2579 C2582 1.526 . S
C2580 H2564 0.959 . S
C2580 H2565 0.959 . S
C2580 H2566 0.961 . S
C2580 C2579 1.502 . S
C2581 H2567 0.960 . S
C2581 H2568 0.961 . S
C2581 H2569 0.959 . S
C2581 C2579 1.561 . S
C2582 C2579 1.526 . S
C2582 C2583 1.396 . S
C2582 C2587 1.390 . S
C2583 C2577 1.465 . S
C2583 C2582 1.396 . S
C2583 C2584 1.399 . S
C2584 H2570 0.929 . S
C2584 C2583 1.399 . S
C2584 C2585 1.385 . S
C2585 H2571 0.931 . S
C2585 C2584 1.385 . S
C2585 C2586 1.389 . S
C2586 C2585 1.389 . S
C2586 C2587 1.387 . S
C2587 H2572 0.930 . S
C2587 C2582 1.390 . S
C2587 C2586 1.387 . S
H2588 C2600 0.930 . S
H2589 C2602 0.930 . S
H2590 C2603 0.930 . S
H2591 C2607 0.959 . S
H2592 C2607 0.959 . S
H2593 C2607 0.961 . S
H2594 C2608 0.960 . S
H2595 C2608 0.961 . S
H2596 C2608 0.959 . S
H2597 C2611 0.929 . S
H2598 C2612 0.931 . S
H2599 C2614 0.930 . S
C2600 H2588 0.930 . S
C2600 C2601 1.399 . S
C2600 C2605 1.399 . S
C2601 C2600 1.399 . S
C2601 C2602 1.376 . S
C2602 H2589 0.930 . S
C2602 C2601 1.376 . S
C2602 C2603 1.388 . S
C2603 H2590 0.930 . S
C2603 C2602 1.388 . S
C2603 C2604 1.390 . S
C2604 C2603 1.390 . S
C2604 C2605 1.394 . S
C2604 C2610 1.465 . S
C2605 C2600 1.399 . S
C2605 C2604 1.394 . S
C2605 C2606 1.516 . S
C2606 C2605 1.516 . S
C2606 C2607 1.502 . S
C2606 C2608 1.561 . S
C2606 C2609 1.526 . S
C2607 H2591 0.959 . S
C2607 H2592 0.959 . S
C2607 H2593 0.961 . S
C2607 C2606 1.502 . S
C2608 H2594 0.960 . S
C2608 H2595 0.961 . S
C2608 H2596 0.959 . S
C2608 C2606 1.561 . S
C2609 C2606 1.526 . S
C2609 C2610 1.396 . S
C2609 C2614 1.390 . S
C2610 C2604 1.465 . S
C2610 C2609 1.396 . S
C2610 C2611 1.399 . S
C2611 H2597 0.929 . S
C2611 C2610 1.399 . S
C2611 C2612 1.385 . S
C2612 H2598 0.931 . S
C2612 C2611 1.385 . S
C2612 C2613 1.389 . S
C2613 C2612 1.389 . S
C2613 C2614 1.387 . S
C2614 H2599 0.930 . S
C2614 C2609 1.390 . S
C2614 C2613 1.387 . S
H2615 C2627 0.930 . S
H2616 C2629 0.930 . S
H2617 C2630 0.930 . S
H2618 C2634 0.959 . S
H2619 C2634 0.959 . S
H2620 C2634 0.961 . S
H2621 C2635 0.960 . S
H2622 C2635 0.961 . S
H2623 C2635 0.959 . S
H2624 C2638 0.929 . S
H2625 C2639 0.931 . S
H2626 C2641 0.930 . S
C2627 H2615 0.930 . S
C2627 C2628 1.399 . S
C2627 C2632 1.399 . S
C2628 C2627 1.399 . S
C2628 C2629 1.376 . S
C2629 H2616 0.930 . S
C2629 C2628 1.376 . S
C2629 C2630 1.388 . S
C2630 H2617 0.930 . S
C2630 C2629 1.388 . S
C2630 C2631 1.390 . S
C2631 C2630 1.390 . S
C2631 C2632 1.394 . S
C2631 C2637 1.465 . S
C2632 C2627 1.399 . S
C2632 C2631 1.394 . S
C2632 C2633 1.516 . S
C2633 C2632 1.516 . S
C2633 C2634 1.502 . S
C2633 C2635 1.561 . S
C2633 C2636 1.526 . S
C2634 H2618 0.959 . S
C2634 H2619 0.959 . S
C2634 H2620 0.961 . S
C2634 C2633 1.502 . S
C2635 H2621 0.960 . S
C2635 H2622 0.961 . S
C2635 H2623 0.959 . S
C2635 C2633 1.561 . S
C2636 C2633 1.526 . S
C2636 C2637 1.396 . S
C2636 C2641 1.390 . S
C2637 C2631 1.465 . S
C2637 C2636 1.396 . S
C2637 C2638 1.399 . S
C2638 H2624 0.929 . S
C2638 C2637 1.399 . S
C2638 C2639 1.385 . S
C2639 H2625 0.931 . S
C2639 C2638 1.385 . S
C2639 C2640 1.389 . S
C2640 C2639 1.389 . S
C2640 C2641 1.387 . S
C2641 H2626 0.930 . S
C2641 C2636 1.390 . S
C2641 C2640 1.387 . S
H2642 C2654 0.930 . S
H2643 C2656 0.930 . S
H2644 C2657 0.930 . S
H2645 C2661 0.959 . S
H2646 C2661 0.959 . S
H2647 C2661 0.961 . S
H2648 C2662 0.960 . S
H2649 C2662 0.961 . S
H2650 C2662 0.959 . S
H2651 C2665 0.929 . S
H2652 C2666 0.931 . S
H2653 C2668 0.930 . S
C2654 H2642 0.930 . S
C2654 C2655 1.399 . S
C2654 C2659 1.399 . S
C2655 C2654 1.399 . S
C2655 C2656 1.376 . S
C2656 H2643 0.930 . S
C2656 C2655 1.376 . S
C2656 C2657 1.388 . S
C2657 H2644 0.930 . S
C2657 C2656 1.388 . S
C2657 C2658 1.390 . S
C2658 C2657 1.390 . S
C2658 C2659 1.394 . S
C2658 C2664 1.465 . S
C2659 C2654 1.399 . S
C2659 C2658 1.394 . S
C2659 C2660 1.516 . S
C2660 C2659 1.516 . S
C2660 C2661 1.502 . S
C2660 C2662 1.561 . S
C2660 C2663 1.526 . S
C2661 H2645 0.959 . S
C2661 H2646 0.959 . S
C2661 H2647 0.961 . S
C2661 C2660 1.502 . S
C2662 H2648 0.960 . S
C2662 H2649 0.961 . S
C2662 H2650 0.959 . S
C2662 C2660 1.561 . S
C2663 C2660 1.526 . S
C2663 C2664 1.396 . S
C2663 C2668 1.390 . S
C2664 C2658 1.465 . S
C2664 C2663 1.396 . S
C2664 C2665 1.399 . S
C2665 H2651 0.929 . S
C2665 C2664 1.399 . S
C2665 C2666 1.385 . S
C2666 H2652 0.931 . S
C2666 C2665 1.385 . S
C2666 C2667 1.389 . S
C2667 C2666 1.389 . S
C2667 C2668 1.387 . S
C2668 H2653 0.930 . S
C2668 C2663 1.390 . S
C2668 C2667 1.387 . S
H2669 C2681 0.930 . S
H2670 C2683 0.930 . S
H2671 C2684 0.930 . S
H2672 C2688 0.959 . S
H2673 C2688 0.959 . S
H2674 C2688 0.961 . S
H2675 C2689 0.960 . S
H2676 C2689 0.961 . S
H2677 C2689 0.959 . S
H2678 C2692 0.929 . S
H2679 C2693 0.931 . S
H2680 C2695 0.930 . S
C2681 H2669 0.930 . S
C2681 C2682 1.399 . S
C2681 C2686 1.399 . S
C2682 C2681 1.399 . S
C2682 C2683 1.376 . S
C2683 H2670 0.930 . S
C2683 C2682 1.376 . S
C2683 C2684 1.388 . S
C2684 H2671 0.930 . S
C2684 C2683 1.388 . S
C2684 C2685 1.390 . S
C2685 C2684 1.390 . S
C2685 C2686 1.394 . S
C2685 C2691 1.465 . S
C2686 C2681 1.399 . S
C2686 C2685 1.394 . S
C2686 C2687 1.516 . S
C2687 C2686 1.516 . S
C2687 C2688 1.502 . S
C2687 C2689 1.561 . S
C2687 C2690 1.526 . S
C2688 H2672 0.959 . S
C2688 H2673 0.959 . S
C2688 H2674 0.961 . S
C2688 C2687 1.502 . S
C2689 H2675 0.960 . S
C2689 H2676 0.961 . S
C2689 H2677 0.959 . S
C2689 C2687 1.561 . S
C2690 C2687 1.526 . S
C2690 C2691 1.396 . S
C2690 C2695 1.390 . S
C2691 C2685 1.465 . S
C2691 C2690 1.396 . S
C2691 C2692 1.399 . S
C2692 H2678 0.929 . S
C2692 C2691 1.399 . S
C2692 C2693 1.385 . S
C2693 H2679 0.931 . S
C2693 C2692 1.385 . S
C2693 C2694 1.389 . S
C2694 C2693 1.389 . S
C2694 C2695 1.387 . S
C2695 H2680 0.930 . S
C2695 C2690 1.390 . S
C2695 C2694 1.387 . S
H2696 C2708 0.930 . S
H2697 C2710 0.930 . S
H2698 C2711 0.930 . S
H2699 C2715 0.959 . S
H2700 C2715 0.959 . S
H2701 C2715 0.961 . S
H2702 C2716 0.960 . S
H2703 C2716 0.961 . S
H2704 C2716 0.959 . S
H2705 C2719 0.929 . S
H2706 C2720 0.931 . S
H2707 C2722 0.930 . S
C2708 H2696 0.930 . S
C2708 C2709 1.399 . S
C2708 C2713 1.399 . S
C2709 C2708 1.399 . S
C2709 C2710 1.376 . S
C2710 H2697 0.930 . S
C2710 C2709 1.376 . S
C2710 C2711 1.388 . S
C2711 H2698 0.930 . S
C2711 C2710 1.388 . S
C2711 C2712 1.390 . S
C2712 C2711 1.390 . S
C2712 C2713 1.394 . S
C2712 C2718 1.465 . S
C2713 C2708 1.399 . S
C2713 C2712 1.394 . S
C2713 C2714 1.516 . S
C2714 C2713 1.516 . S
C2714 C2715 1.502 . S
C2714 C2716 1.561 . S
C2714 C2717 1.526 . S
C2715 H2699 0.959 . S
C2715 H2700 0.959 . S
C2715 H2701 0.961 . S
C2715 C2714 1.502 . S
C2716 H2702 0.960 . S
C2716 H2703 0.961 . S
C2716 H2704 0.959 . S
C2716 C2714 1.561 . S
C2717 C2714 1.526 . S
C2717 C2718 1.396 . S
C2717 C2722 1.390 . S
C2718 C2712 1.465 . S
C2718 C2717 1.396 . S
C2718 C2719 1.399 . S
C2719 H2705 0.929 . S
C2719 C2718 1.399 . S
C2719 C2720 1.385 . S
C2720 H2706 0.931 . S
C2720 C2719 1.385 . S
C2720 C2721 1.389 . S
C2721 C2720 1.389 . S
C2721 C2722 1.387 . S
C2722 H2707 0.930 . S
C2722 C2717 1.390 . S
C2722 C2721 1.387 . S
H2723 C2735 0.930 . S
H2724 C2737 0.930 . S
H2725 C2738 0.930 . S
H2726 C2742 0.959 . S
H2727 C2742 0.959 . S
H2728 C2742 0.961 . S
H2729 C2743 0.960 . S
H2730 C2743 0.961 . S
H2731 C2743 0.959 . S
H2732 C2746 0.929 . S
H2733 C2747 0.931 . S
H2734 C2749 0.930 . S
C2735 H2723 0.930 . S
C2735 C2736 1.399 . S
C2735 C2740 1.399 . S
C2736 C2735 1.399 . S
C2736 C2737 1.376 . S
C2737 H2724 0.930 . S
C2737 C2736 1.376 . S
C2737 C2738 1.388 . S
C2738 H2725 0.930 . S
C2738 C2737 1.388 . S
C2738 C2739 1.390 . S
C2739 C2738 1.390 . S
C2739 C2740 1.394 . S
C2739 C2745 1.465 . S
C2740 C2735 1.399 . S
C2740 C2739 1.394 . S
C2740 C2741 1.516 . S
C2741 C2740 1.516 . S
C2741 C2742 1.502 . S
C2741 C2743 1.561 . S
C2741 C2744 1.526 . S
C2742 H2726 0.959 . S
C2742 H2727 0.959 . S
C2742 H2728 0.961 . S
C2742 C2741 1.502 . S
C2743 H2729 0.960 . S
C2743 H2730 0.961 . S
C2743 H2731 0.959 . S
C2743 C2741 1.561 . S
C2744 C2741 1.526 . S
C2744 C2745 1.396 . S
C2744 C2749 1.390 . S
C2745 C2739 1.465 . S
C2745 C2744 1.396 . S
C2745 C2746 1.399 . S
C2746 H2732 0.929 . S
C2746 C2745 1.399 . S
C2746 C2747 1.385 . S
C2747 H2733 0.931 . S
C2747 C2746 1.385 . S
C2747 C2748 1.389 . S
C2748 C2747 1.389 . S
C2748 C2749 1.387 . S
C2749 H2734 0.930 . S
C2749 C2744 1.390 . S
C2749 C2748 1.387 . S
H2750 C2762 0.930 . S
H2751 C2764 0.930 . S
H2752 C2765 0.930 . S
H2753 C2769 0.959 . S
H2754 C2769 0.959 . S
H2755 C2769 0.961 . S
H2756 C2770 0.960 . S
H2757 C2770 0.961 . S
H2758 C2770 0.959 . S
H2759 C2773 0.929 . S
H2760 C2774 0.931 . S
H2761 C2776 0.930 . S
C2762 H2750 0.930 . S
C2762 C2763 1.399 . S
C2762 C2767 1.399 . S
C2763 C2762 1.399 . S
C2763 C2764 1.376 . S
C2764 H2751 0.930 . S
C2764 C2763 1.376 . S
C2764 C2765 1.388 . S
C2765 H2752 0.930 . S
C2765 C2764 1.388 . S
C2765 C2766 1.390 . S
C2766 C2765 1.390 . S
C2766 C2767 1.394 . S
C2766 C2772 1.465 . S
C2767 C2762 1.399 . S
C2767 C2766 1.394 . S
C2767 C2768 1.516 . S
C2768 C2767 1.516 . S
C2768 C2769 1.502 . S
C2768 C2770 1.561 . S
C2768 C2771 1.526 . S
C2769 H2753 0.959 . S
C2769 H2754 0.959 . S
C2769 H2755 0.961 . S
C2769 C2768 1.502 . S
C2770 H2756 0.960 . S
C2770 H2757 0.961 . S
C2770 H2758 0.959 . S
C2770 C2768 1.561 . S
C2771 C2768 1.526 . S
C2771 C2772 1.396 . S
C2771 C2776 1.390 . S
C2772 C2766 1.465 . S
C2772 C2771 1.396 . S
C2772 C2773 1.399 . S
C2773 H2759 0.929 . S
C2773 C2772 1.399 . S
C2773 C2774 1.385 . S
C2774 H2760 0.931 . S
C2774 C2773 1.385 . S
C2774 C2775 1.389 . S
C2775 C2774 1.389 . S
C2775 C2776 1.387 . S
C2776 H2761 0.930 . S
C2776 C2771 1.390 . S
C2776 C2775 1.387 . S
H2777 C2789 0.930 . S
H2778 C2791 0.930 . S
H2779 C2792 0.930 . S
H2780 C2796 0.959 . S
H2781 C2796 0.959 . S
H2782 C2796 0.961 . S
H2783 C2797 0.960 . S
H2784 C2797 0.961 . S
H2785 C2797 0.959 . S
H2786 C2800 0.929 . S
H2787 C2801 0.931 . S
H2788 C2803 0.930 . S
C2789 H2777 0.930 . S
C2789 C2790 1.399 . S
C2789 C2794 1.399 . S
C2790 C2789 1.399 . S
C2790 C2791 1.376 . S
C2791 H2778 0.930 . S
C2791 C2790 1.376 . S
C2791 C2792 1.388 . S
C2792 H2779 0.930 . S
C2792 C2791 1.388 . S
C2792 C2793 1.390 . S
C2793 C2792 1.390 . S
C2793 C2794 1.394 . S
C2793 C2799 1.465 . S
C2794 C2789 1.399 . S
C2794 C2793 1.394 . S
C2794 C2795 1.516 . S
C2795 C2794 1.516 . S
C2795 C2796 1.502 . S
C2795 C2797 1.561 . S
C2795 C2798 1.526 . S
C2796 H2780 0.959 . S
C2796 H2781 0.959 . S
C2796 H2782 0.961 . S
C2796 C2795 1.502 . S
C2797 H2783 0.960 . S
C2797 H2784 0.961 . S
C2797 H2785 0.959 . S
C2797 C2795 1.561 . S
C2798 C2795 1.526 . S
C2798 C2799 1.396 . S
C2798 C2803 1.390 . S
C2799 C2793 1.465 . S
C2799 C2798 1.396 . S
C2799 C2800 1.399 . S
C2800 H2786 0.929 . S
C2800 C2799 1.399 . S
C2800 C2801 1.385 . S
C2801 H2787 0.931 . S
C2801 C2800 1.385 . S
C2801 C2802 1.389 . S
C2802 C2801 1.389 . S
C2802 C2803 1.387 . S
C2803 H2788 0.930 . S
C2803 C2798 1.390 . S
C2803 C2802 1.387 . S
H2804 C2816 0.930 . S
H2805 C2818 0.930 . S
H2806 C2819 0.930 . S
H2807 C2823 0.959 . S
H2808 C2823 0.959 . S
H2809 C2823 0.961 . S
H2810 C2824 0.960 . S
H2811 C2824 0.961 . S
H2812 C2824 0.959 . S
H2813 C2827 0.929 . S
H2814 C2828 0.931 . S
H2815 C2830 0.930 . S
C2816 H2804 0.930 . S
C2816 C2817 1.399 . S
C2816 C2821 1.399 . S
C2817 C2816 1.399 . S
C2817 C2818 1.376 . S
C2818 H2805 0.930 . S
C2818 C2817 1.376 . S
C2818 C2819 1.388 . S
C2819 H2806 0.930 . S
C2819 C2818 1.388 . S
C2819 C2820 1.390 . S
C2820 C2819 1.390 . S
C2820 C2821 1.394 . S
C2820 C2826 1.465 . S
C2821 C2816 1.399 . S
C2821 C2820 1.394 . S
C2821 C2822 1.516 . S
C2822 C2821 1.516 . S
C2822 C2823 1.502 . S
C2822 C2824 1.561 . S
C2822 C2825 1.526 . S
C2823 H2807 0.959 . S
C2823 H2808 0.959 . S
C2823 H2809 0.961 . S
C2823 C2822 1.502 . S
C2824 H2810 0.960 . S
C2824 H2811 0.961 . S
C2824 H2812 0.959 . S
C2824 C2822 1.561 . S
C2825 C2822 1.526 . S
C2825 C2826 1.396 . S
C2825 C2830 1.390 . S
C2826 C2820 1.465 . S
C2826 C2825 1.396 . S
C2826 C2827 1.399 . S
C2827 H2813 0.929 . S
C2827 C2826 1.399 . S
C2827 C2828 1.385 . S
C2828 H2814 0.931 . S
C2828 C2827 1.385 . S
C2828 C2829 1.389 . S
C2829 C2828 1.389 . S
C2829 C2830 1.387 . S
C2830 H2815 0.930 . S
C2830 C2825 1.390 . S
C2830 C2829 1.387 . S
H2831 C2843 0.930 . S
H2832 C2845 0.930 . S
H2833 C2846 0.930 . S
H2834 C2850 0.959 . S
H2835 C2850 0.959 . S
H2836 C2850 0.961 . S
H2837 C2851 0.960 . S
H2838 C2851 0.961 . S
H2839 C2851 0.959 . S
H2840 C2854 0.929 . S
H2841 C2855 0.931 . S
H2842 C2857 0.930 . S
C2843 H2831 0.930 . S
C2843 C2844 1.399 . S
C2843 C2848 1.399 . S
C2844 C2843 1.399 . S
C2844 C2845 1.376 . S
C2845 H2832 0.930 . S
C2845 C2844 1.376 . S
C2845 C2846 1.388 . S
C2846 H2833 0.930 . S
C2846 C2845 1.388 . S
C2846 C2847 1.390 . S
C2847 C2846 1.390 . S
C2847 C2848 1.394 . S
C2847 C2853 1.465 . S
C2848 C2843 1.399 . S
C2848 C2847 1.394 . S
C2848 C2849 1.516 . S
C2849 C2848 1.516 . S
C2849 C2850 1.502 . S
C2849 C2851 1.561 . S
C2849 C2852 1.526 . S
C2850 H2834 0.959 . S
C2850 H2835 0.959 . S
C2850 H2836 0.961 . S
C2850 C2849 1.502 . S
C2851 H2837 0.960 . S
C2851 H2838 0.961 . S
C2851 H2839 0.959 . S
C2851 C2849 1.561 . S
C2852 C2849 1.526 . S
C2852 C2853 1.396 . S
C2852 C2857 1.390 . S
C2853 C2847 1.465 . S
C2853 C2852 1.396 . S
C2853 C2854 1.399 . S
C2854 H2840 0.929 . S
C2854 C2853 1.399 . S
C2854 C2855 1.385 . S
C2855 H2841 0.931 . S
C2855 C2854 1.385 . S
C2855 C2856 1.389 . S
C2856 C2855 1.389 . S
C2856 C2857 1.387 . S
C2857 H2842 0.930 . S
C2857 C2852 1.390 . S
C2857 C2856 1.387 . S
H2858 C2870 0.930 . S
H2859 C2872 0.930 . S
H2860 C2873 0.930 . S
H2861 C2877 0.959 . S
H2862 C2877 0.959 . S
H2863 C2877 0.961 . S
H2864 C2878 0.960 . S
H2865 C2878 0.961 . S
H2866 C2878 0.959 . S
H2867 C2881 0.929 . S
H2868 C2882 0.931 . S
H2869 C2884 0.930 . S
C2870 H2858 0.930 . S
C2870 C2871 1.399 . S
C2870 C2875 1.399 . S
C2871 C2870 1.399 . S
C2871 C2872 1.376 . S
C2872 H2859 0.930 . S
C2872 C2871 1.376 . S
C2872 C2873 1.388 . S
C2873 H2860 0.930 . S
C2873 C2872 1.388 . S
C2873 C2874 1.390 . S
C2874 C2873 1.390 . S
C2874 C2875 1.394 . S
C2874 C2880 1.465 . S
C2875 C2870 1.399 . S
C2875 C2874 1.394 . S
C2875 C2876 1.516 . S
C2876 C2875 1.516 . S
C2876 C2877 1.502 . S
C2876 C2878 1.561 . S
C2876 C2879 1.526 . S
C2877 H2861 0.959 . S
C2877 H2862 0.959 . S
C2877 H2863 0.961 . S
C2877 C2876 1.502 . S
C2878 H2864 0.960 . S
C2878 H2865 0.961 . S
C2878 H2866 0.959 . S
C2878 C2876 1.561 . S
C2879 C2876 1.526 . S
C2879 C2880 1.396 . S
C2879 C2884 1.390 . S
C2880 C2874 1.465 . S
C2880 C2879 1.396 . S
C2880 C2881 1.399 . S
C2881 H2867 0.929 . S
C2881 C2880 1.399 . S
C2881 C2882 1.385 . S
C2882 H2868 0.931 . S
C2882 C2881 1.385 . S
C2882 C2883 1.389 . S
C2883 C2882 1.389 . S
C2883 C2884 1.387 . S
C2884 H2869 0.930 . S
C2884 C2879 1.390 . S
C2884 C2883 1.387 . S
H2885 C2897 0.930 . S
H2886 C2899 0.930 . S
H2887 C2900 0.930 . S
H2888 C2904 0.959 . S
H2889 C2904 0.959 . S
H2890 C2904 0.961 . S
H2891 C2905 0.960 . S
H2892 C2905 0.961 . S
H2893 C2905 0.959 . S
H2894 C2908 0.929 . S
H2895 C2909 0.931 . S
H2896 C2911 0.930 . S
C2897 H2885 0.930 . S
C2897 C2898 1.399 . S
C2897 C2902 1.399 . S
C2898 C2897 1.399 . S
C2898 C2899 1.376 . S
C2899 H2886 0.930 . S
C2899 C2898 1.376 . S
C2899 C2900 1.388 . S
C2900 H2887 0.930 . S
C2900 C2899 1.388 . S
C2900 C2901 1.390 . S
C2901 C2900 1.390 . S
C2901 C2902 1.394 . S
C2901 C2907 1.465 . S
C2902 C2897 1.399 . S
C2902 C2901 1.394 . S
C2902 C2903 1.516 . S
C2903 C2902 1.516 . S
C2903 C2904 1.502 . S
C2903 C2905 1.561 . S
C2903 C2906 1.526 . S
C2904 H2888 0.959 . S
C2904 H2889 0.959 . S
C2904 H2890 0.961 . S
C2904 C2903 1.502 . S
C2905 H2891 0.960 . S
C2905 H2892 0.961 . S
C2905 H2893 0.959 . S
C2905 C2903 1.561 . S
C2906 C2903 1.526 . S
C2906 C2907 1.396 . S
C2906 C2911 1.390 . S
C2907 C2901 1.465 . S
C2907 C2906 1.396 . S
C2907 C2908 1.399 . S
C2908 H2894 0.929 . S
C2908 C2907 1.399 . S
C2908 C2909 1.385 . S
C2909 H2895 0.931 . S
C2909 C2908 1.385 . S
C2909 C2910 1.389 . S
C2910 C2909 1.389 . S
C2910 C2911 1.387 . S
C2911 H2896 0.930 . S
C2911 C2906 1.390 . S
C2911 C2910 1.387 . S
H2912 C2924 0.930 . S
H2913 C2926 0.930 . S
H2914 C2927 0.930 . S
H2915 C2931 0.959 . S
H2916 C2931 0.959 . S
H2917 C2931 0.961 . S
H2918 C2932 0.960 . S
H2919 C2932 0.961 . S
H2920 C2932 0.959 . S
H2921 C2935 0.929 . S
H2922 C2936 0.931 . S
H2923 C2938 0.930 . S
C2924 H2912 0.930 . S
C2924 C2925 1.399 . S
C2924 C2929 1.399 . S
C2925 C2924 1.399 . S
C2925 C2926 1.376 . S
C2926 H2913 0.930 . S
C2926 C2925 1.376 . S
C2926 C2927 1.388 . S
C2927 H2914 0.930 . S
C2927 C2926 1.388 . S
C2927 C2928 1.390 . S
C2928 C2927 1.390 . S
C2928 C2929 1.394 . S
C2928 C2934 1.465 . S
C2929 C2924 1.399 . S
C2929 C2928 1.394 . S
C2929 C2930 1.516 . S
C2930 C2929 1.516 . S
C2930 C2931 1.502 . S
C2930 C2932 1.561 . S
C2930 C2933 1.526 . S
C2931 H2915 0.959 . S
C2931 H2916 0.959 . S
C2931 H2917 0.961 . S
C2931 C2930 1.502 . S
C2932 H2918 0.960 . S
C2932 H2919 0.961 . S
C2932 H2920 0.959 . S
C2932 C2930 1.561 . S
C2933 C2930 1.526 . S
C2933 C2934 1.396 . S
C2933 C2938 1.390 . S
C2934 C2928 1.465 . S
C2934 C2933 1.396 . S
C2934 C2935 1.399 . S
C2935 H2921 0.929 . S
C2935 C2934 1.399 . S
C2935 C2936 1.385 . S
C2936 H2922 0.931 . S
C2936 C2935 1.385 . S
C2936 C2937 1.389 . S
C2937 C2936 1.389 . S
C2937 C2938 1.387 . S
C2938 H2923 0.930 . S
C2938 C2933 1.390 . S
C2938 C2937 1.387 . S
H2939 C2951 0.930 . S
H2940 C2953 0.930 . S
H2941 C2954 0.930 . S
H2942 C2958 0.959 . S
H2943 C2958 0.959 . S
H2944 C2958 0.961 . S
H2945 C2959 0.960 . S
H2946 C2959 0.961 . S
H2947 C2959 0.959 . S
H2948 C2962 0.929 . S
H2949 C2963 0.931 . S
H2950 C2965 0.930 . S
C2951 H2939 0.930 . S
C2951 C2952 1.399 . S
C2951 C2956 1.399 . S
C2952 C2951 1.399 . S
C2952 C2953 1.376 . S
C2953 H2940 0.930 . S
C2953 C2952 1.376 . S
C2953 C2954 1.388 . S
C2954 H2941 0.930 . S
C2954 C2953 1.388 . S
C2954 C2955 1.390 . S
C2955 C2954 1.390 . S
C2955 C2956 1.394 . S
C2955 C2961 1.465 . S
C2956 C2951 1.399 . S
C2956 C2955 1.394 . S
C2956 C2957 1.516 . S
C2957 C2956 1.516 . S
C2957 C2958 1.502 . S
C2957 C2959 1.561 . S
C2957 C2960 1.526 . S
C2958 H2942 0.959 . S
C2958 H2943 0.959 . S
C2958 H2944 0.961 . S
C2958 C2957 1.502 . S
C2959 H2945 0.960 . S
C2959 H2946 0.961 . S
C2959 H2947 0.959 . S
C2959 C2957 1.561 . S
C2960 C2957 1.526 . S
C2960 C2961 1.396 . S
C2960 C2965 1.390 . S
C2961 C2955 1.465 . S
C2961 C2960 1.396 . S
C2961 C2962 1.399 . S
C2962 H2948 0.929 . S
C2962 C2961 1.399 . S
C2962 C2963 1.385 . S
C2963 H2949 0.931 . S
C2963 C2962 1.385 . S
C2963 C2964 1.389 . S
C2964 C2963 1.389 . S
C2964 C2965 1.387 . S
C2965 H2950 0.930 . S
C2965 C2960 1.390 . S
C2965 C2964 1.387 . S
H2966 C2978 0.930 . S
H2967 C2980 0.930 . S
H2968 C2981 0.930 . S
H2969 C2985 0.959 . S
H2970 C2985 0.959 . S
H2971 C2985 0.961 . S
H2972 C2986 0.960 . S
H2973 C2986 0.961 . S
H2974 C2986 0.959 . S
H2975 C2989 0.929 . S
H2976 C2990 0.931 . S
H2977 C2992 0.930 . S
C2978 H2966 0.930 . S
C2978 C2979 1.399 . S
C2978 C2983 1.399 . S
C2979 C2978 1.399 . S
C2979 C2980 1.376 . S
C2980 H2967 0.930 . S
C2980 C2979 1.376 . S
C2980 C2981 1.388 . S
C2981 H2968 0.930 . S
C2981 C2980 1.388 . S
C2981 C2982 1.390 . S
C2982 C2981 1.390 . S
C2982 C2983 1.394 . S
C2982 C2988 1.465 . S
C2983 C2978 1.399 . S
C2983 C2982 1.394 . S
C2983 C2984 1.516 . S
C2984 C2983 1.516 . S
C2984 C2985 1.502 . S
C2984 C2986 1.561 . S
C2984 C2987 1.526 . S
C2985 H2969 0.959 . S
C2985 H2970 0.959 . S
C2985 H2971 0.961 . S
C2985 C2984 1.502 . S
C2986 H2972 0.960 . S
C2986 H2973 0.961 . S
C2986 H2974 0.959 . S
C2986 C2984 1.561 . S
C2987 C2984 1.526 . S
C2987 C2988 1.396 . S
C2987 C2992 1.390 . S
C2988 C2982 1.465 . S
C2988 C2987 1.396 . S
C2988 C2989 1.399 . S
C2989 H2975 0.929 . S
C2989 C2988 1.399 . S
C2989 C2990 1.385 . S
C2990 H2976 0.931 . S
C2990 C2989 1.385 . S
C2990 C2991 1.389 . S
C2991 C2990 1.389 . S
C2991 C2992 1.387 . S
C2992 H2977 0.930 . S
C2992 C2987 1.390 . S
C2992 C2991 1.387 . S
H2993 C3005 0.930 . S
H2994 C3007 0.930 . S
H2995 C3008 0.930 . S
H2996 C3012 0.959 . S
H2997 C3012 0.959 . S
H2998 C3012 0.961 . S
H2999 C3013 0.960 . S
H3000 C3013 0.961 . S
H3001 C3013 0.959 . S
H3002 C3016 0.929 . S
H3003 C3017 0.931 . S
H3004 C3019 0.930 . S
C3005 H2993 0.930 . S
C3005 C3006 1.399 . S
C3005 C3010 1.399 . S
C3006 C3005 1.399 . S
C3006 C3007 1.376 . S
C3007 H2994 0.930 . S
C3007 C3006 1.376 . S
C3007 C3008 1.388 . S
C3008 H2995 0.930 . S
C3008 C3007 1.388 . S
C3008 C3009 1.390 . S
C3009 C3008 1.390 . S
C3009 C3010 1.394 . S
C3009 C3015 1.465 . S
C3010 C3005 1.399 . S
C3010 C3009 1.394 . S
C3010 C3011 1.516 . S
C3011 C3010 1.516 . S
C3011 C3012 1.502 . S
C3011 C3013 1.561 . S
C3011 C3014 1.526 . S
C3012 H2996 0.959 . S
C3012 H2997 0.959 . S
C3012 H2998 0.961 . S
C3012 C3011 1.502 . S
C3013 H2999 0.960 . S
C3013 H3000 0.961 . S
C3013 H3001 0.959 . S
C3013 C3011 1.561 . S
C3014 C3011 1.526 . S
C3014 C3015 1.396 . S
C3014 C3019 1.390 . S
C3015 C3009 1.465 . S
C3015 C3014 1.396 . S
C3015 C3016 1.399 . S
C3016 H3002 0.929 . S
C3016 C3015 1.399 . S
C3016 C3017 1.385 . S
C3017 H3003 0.931 . S
C3017 C3016 1.385 . S
C3017 C3018 1.389 . S
C3018 C3017 1.389 . S
C3018 C3019 1.387 . S
C3019 H3004 0.930 . S
C3019 C3014 1.390 . S
C3019 C3018 1.387 . S
H3020 C3032 0.930 . S
H3021 C3034 0.930 . S
H3022 C3035 0.930 . S
H3023 C3039 0.959 . S
H3024 C3039 0.959 . S
H3025 C3039 0.961 . S
H3026 C3040 0.960 . S
H3027 C3040 0.961 . S
H3028 C3040 0.959 . S
H3029 C3043 0.929 . S
H3030 C3044 0.931 . S
H3031 C3046 0.930 . S
C3032 H3020 0.930 . S
C3032 C3033 1.399 . S
C3032 C3037 1.399 . S
C3033 C3032 1.399 . S
C3033 C3034 1.376 . S
C3034 H3021 0.930 . S
C3034 C3033 1.376 . S
C3034 C3035 1.388 . S
C3035 H3022 0.930 . S
C3035 C3034 1.388 . S
C3035 C3036 1.390 . S
C3036 C3035 1.390 . S
C3036 C3037 1.394 . S
C3036 C3042 1.465 . S
C3037 C3032 1.399 . S
C3037 C3036 1.394 . S
C3037 C3038 1.516 . S
C3038 C3037 1.516 . S
C3038 C3039 1.502 . S
C3038 C3040 1.561 . S
C3038 C3041 1.526 . S
C3039 H3023 0.959 . S
C3039 H3024 0.959 . S
C3039 H3025 0.961 . S
C3039 C3038 1.502 . S
C3040 H3026 0.960 . S
C3040 H3027 0.961 . S
C3040 H3028 0.959 . S
C3040 C3038 1.561 . S
C3041 C3038 1.526 . S
C3041 C3042 1.396 . S
C3041 C3046 1.390 . S
C3042 C3036 1.465 . S
C3042 C3041 1.396 . S
C3042 C3043 1.399 . S
C3043 H3029 0.929 . S
C3043 C3042 1.399 . S
C3043 C3044 1.385 . S
C3044 H3030 0.931 . S
C3044 C3043 1.385 . S
C3044 C3045 1.389 . S
C3045 C3044 1.389 . S
C3045 C3046 1.387 . S
C3046 H3031 0.930 . S
C3046 C3041 1.390 . S
C3046 C3045 1.387 . S
H3047 C3059 0.930 . S
H3048 C3061 0.930 . S
H3049 C3062 0.930 . S
H3050 C3066 0.959 . S
H3051 C3066 0.959 . S
H3052 C3066 0.961 . S
H3053 C3067 0.960 . S
H3054 C3067 0.961 . S
H3055 C3067 0.959 . S
H3056 C3070 0.929 . S
H3057 C3071 0.931 . S
H3058 C3073 0.930 . S
C3059 H3047 0.930 . S
C3059 C3060 1.399 . S
C3059 C3064 1.399 . S
C3060 C3059 1.399 . S
C3060 C3061 1.376 . S
C3061 H3048 0.930 . S
C3061 C3060 1.376 . S
C3061 C3062 1.388 . S
C3062 H3049 0.930 . S
C3062 C3061 1.388 . S
C3062 C3063 1.390 . S
C3063 C3062 1.390 . S
C3063 C3064 1.394 . S
C3063 C3069 1.465 . S
C3064 C3059 1.399 . S
C3064 C3063 1.394 . S
C3064 C3065 1.516 . S
C3065 C3064 1.516 . S
C3065 C3066 1.502 . S
C3065 C3067 1.561 . S
C3065 C3068 1.526 . S
C3066 H3050 0.959 . S
C3066 H3051 0.959 . S
C3066 H3052 0.961 . S
C3066 C3065 1.502 . S
C3067 H3053 0.960 . S
C3067 H3054 0.961 . S
C3067 H3055 0.959 . S
C3067 C3065 1.561 . S
C3068 C3065 1.526 . S
C3068 C3069 1.396 . S
C3068 C3073 1.390 . S
C3069 C3063 1.465 . S
C3069 C3068 1.396 . S
C3069 C3070 1.399 . S
C3070 H3056 0.929 . S
C3070 C3069 1.399 . S
C3070 C3071 1.385 . S
C3071 H3057 0.931 . S
C3071 C3070 1.385 . S
C3071 C3072 1.389 . S
C3072 C3071 1.389 . S
C3072 C3073 1.387 . S
C3073 H3058 0.930 . S
C3073 C3068 1.390 . S
C3073 C3072 1.387 . S
H3074 C3086 0.930 . S
H3075 C3088 0.930 . S
H3076 C3089 0.930 . S
H3077 C3093 0.959 . S
H3078 C3093 0.959 . S
H3079 C3093 0.961 . S
H3080 C3094 0.960 . S
H3081 C3094 0.961 . S
H3082 C3094 0.959 . S
H3083 C3097 0.929 . S
H3084 C3098 0.931 . S
H3085 C3100 0.930 . S
C3086 H3074 0.930 . S
C3086 C3087 1.399 . S
C3086 C3091 1.399 . S
C3087 C3086 1.399 . S
C3087 C3088 1.376 . S
C3088 H3075 0.930 . S
C3088 C3087 1.376 . S
C3088 C3089 1.388 . S
C3089 H3076 0.930 . S
C3089 C3088 1.388 . S
C3089 C3090 1.390 . S
C3090 C3089 1.390 . S
C3090 C3091 1.394 . S
C3090 C3096 1.465 . S
C3091 C3086 1.399 . S
C3091 C3090 1.394 . S
C3091 C3092 1.516 . S
C3092 C3091 1.516 . S
C3092 C3093 1.502 . S
C3092 C3094 1.561 . S
C3092 C3095 1.526 . S
C3093 H3077 0.959 . S
C3093 H3078 0.959 . S
C3093 H3079 0.961 . S
C3093 C3092 1.502 . S
C3094 H3080 0.960 . S
C3094 H3081 0.961 . S
C3094 H3082 0.959 . S
C3094 C3092 1.561 . S
C3095 C3092 1.526 . S
C3095 C3096 1.396 . S
C3095 C3100 1.390 . S
C3096 C3090 1.465 . S
C3096 C3095 1.396 . S
C3096 C3097 1.399 . S
C3097 H3083 0.929 . S
C3097 C3096 1.399 . S
C3097 C3098 1.385 . S
C3098 H3084 0.931 . S
C3098 C3097 1.385 . S
C3098 C3099 1.389 . S
C3099 C3098 1.389 . S
C3099 C3100 1.387 . S
C3100 H3085 0.930 . S
C3100 C3095 1.390 . S
C3100 C3099 1.387 . S
H3101 C3113 0.930 . S
H3102 C3115 0.930 . S
H3103 C3116 0.930 . S
H3104 C3120 0.959 . S
H3105 C3120 0.959 . S
H3106 C3120 0.961 . S
H3107 C3121 0.960 . S
H3108 C3121 0.961 . S
H3109 C3121 0.959 . S
H3110 C3124 0.929 . S
H3111 C3125 0.931 . S
H3112 C3127 0.930 . S
C3113 H3101 0.930 . S
C3113 C3114 1.399 . S
C3113 C3118 1.399 . S
C3114 C3113 1.399 . S
C3114 C3115 1.376 . S
C3115 H3102 0.930 . S
C3115 C3114 1.376 . S
C3115 C3116 1.388 . S
C3116 H3103 0.930 . S
C3116 C3115 1.388 . S
C3116 C3117 1.390 . S
C3117 C3116 1.390 . S
C3117 C3118 1.394 . S
C3117 C3123 1.465 . S
C3118 C3113 1.399 . S
C3118 C3117 1.394 . S
C3118 C3119 1.516 . S
C3119 C3118 1.516 . S
C3119 C3120 1.502 . S
C3119 C3121 1.561 . S
C3119 C3122 1.526 . S
C3120 H3104 0.959 . S
C3120 H3105 0.959 . S
C3120 H3106 0.961 . S
C3120 C3119 1.502 . S
C3121 H3107 0.960 . S
C3121 H3108 0.961 . S
C3121 H3109 0.959 . S
C3121 C3119 1.561 . S
C3122 C3119 1.526 . S
C3122 C3123 1.396 . S
C3122 C3127 1.390 . S
C3123 C3117 1.465 . S
C3123 C3122 1.396 . S
C3123 C3124 1.399 . S
C3124 H3110 0.929 . S
C3124 C3123 1.399 . S
C3124 C3125 1.385 . S
C3125 H3111 0.931 . S
C3125 C3124 1.385 . S
C3125 C3126 1.389 . S
C3126 C3125 1.389 . S
C3126 C3127 1.387 . S
C3127 H3112 0.930 . S
C3127 C3122 1.390 . S
C3127 C3126 1.387 . S
H3128 C3140 0.930 . S
H3129 C3142 0.930 . S
H3130 C3143 0.930 . S
H3131 C3147 0.959 . S
H3132 C3147 0.959 . S
H3133 C3147 0.961 . S
H3134 C3148 0.960 . S
H3135 C3148 0.961 . S
H3136 C3148 0.959 . S
H3137 C3151 0.929 . S
H3138 C3152 0.931 . S
H3139 C3154 0.930 . S
C3140 H3128 0.930 . S
C3140 C3141 1.399 . S
C3140 C3145 1.399 . S
C3141 C3140 1.399 . S
C3141 C3142 1.376 . S
C3142 H3129 0.930 . S
C3142 C3141 1.376 . S
C3142 C3143 1.388 . S
C3143 H3130 0.930 . S
C3143 C3142 1.388 . S
C3143 C3144 1.390 . S
C3144 C3143 1.390 . S
C3144 C3145 1.394 . S
C3144 C3150 1.465 . S
C3145 C3140 1.399 . S
C3145 C3144 1.394 . S
C3145 C3146 1.516 . S
C3146 C3145 1.516 . S
C3146 C3147 1.502 . S
C3146 C3148 1.561 . S
C3146 C3149 1.526 . S
C3147 H3131 0.959 . S
C3147 H3132 0.959 . S
C3147 H3133 0.961 . S
C3147 C3146 1.502 . S
C3148 H3134 0.960 . S
C3148 H3135 0.961 . S
C3148 H3136 0.959 . S
C3148 C3146 1.561 . S
C3149 C3146 1.526 . S
C3149 C3150 1.396 . S
C3149 C3154 1.390 . S
C3150 C3144 1.465 . S
C3150 C3149 1.396 . S
C3150 C3151 1.399 . S
C3151 H3137 0.929 . S
C3151 C3150 1.399 . S
C3151 C3152 1.385 . S
C3152 H3138 0.931 . S
C3152 C3151 1.385 . S
C3152 C3153 1.389 . S
C3153 C3152 1.389 . S
C3153 C3154 1.387 . S
C3154 H3139 0.930 . S
C3154 C3149 1.390 . S
C3154 C3153 1.387 . S
H3155 C3167 0.930 . S
H3156 C3169 0.930 . S
H3157 C3170 0.930 . S
H3158 C3174 0.959 . S
H3159 C3174 0.959 . S
H3160 C3174 0.961 . S
H3161 C3175 0.960 . S
H3162 C3175 0.961 . S
H3163 C3175 0.959 . S
H3164 C3178 0.929 . S
H3165 C3179 0.931 . S
H3166 C3181 0.930 . S
C3167 H3155 0.930 . S
C3167 C3168 1.399 . S
C3167 C3172 1.399 . S
C3168 C3167 1.399 . S
C3168 C3169 1.376 . S
C3169 H3156 0.930 . S
C3169 C3168 1.376 . S
C3169 C3170 1.388 . S
C3170 H3157 0.930 . S
C3170 C3169 1.388 . S
C3170 C3171 1.390 . S
C3171 C3170 1.390 . S
C3171 C3172 1.394 . S
C3171 C3177 1.465 . S
C3172 C3167 1.399 . S
C3172 C3171 1.394 . S
C3172 C3173 1.516 . S
C3173 C3172 1.516 . S
C3173 C3174 1.502 . S
C3173 C3175 1.561 . S
C3173 C3176 1.526 . S
C3174 H3158 0.959 . S
C3174 H3159 0.959 . S
C3174 H3160 0.961 . S
C3174 C3173 1.502 . S
C3175 H3161 0.960 . S
C3175 H3162 0.961 . S
C3175 H3163 0.959 . S
C3175 C3173 1.561 . S
C3176 C3173 1.526 . S
C3176 C3177 1.396 . S
C3176 C3181 1.390 . S
C3177 C3171 1.465 . S
C3177 C3176 1.396 . S
C3177 C3178 1.399 . S
C3178 H3164 0.929 . S
C3178 C3177 1.399 . S
C3178 C3179 1.385 . S
C3179 H3165 0.931 . S
C3179 C3178 1.385 . S
C3179 C3180 1.389 . S
C3180 C3179 1.389 . S
C3180 C3181 1.387 . S
C3181 H3166 0.930 . S
C3181 C3176 1.390 . S
C3181 C3180 1.387 . S
H3182 C3194 0.930 . S
H3183 C3196 0.930 . S
H3184 C3197 0.930 . S
H3185 C3201 0.959 . S
H3186 C3201 0.959 . S
H3187 C3201 0.961 . S
H3188 C3202 0.960 . S
H3189 C3202 0.961 . S
H3190 C3202 0.959 . S
H3191 C3205 0.929 . S
H3192 C3206 0.931 . S
H3193 C3208 0.930 . S
C3194 H3182 0.930 . S
C3194 C3195 1.399 . S
C3194 C3199 1.399 . S
C3195 C3194 1.399 . S
C3195 C3196 1.376 . S
C3196 H3183 0.930 . S
C3196 C3195 1.376 . S
C3196 C3197 1.388 . S
C3197 H3184 0.930 . S
C3197 C3196 1.388 . S
C3197 C3198 1.390 . S
C3198 C3197 1.390 . S
C3198 C3199 1.394 . S
C3198 C3204 1.465 . S
C3199 C3194 1.399 . S
C3199 C3198 1.394 . S
C3199 C3200 1.516 . S
C3200 C3199 1.516 . S
C3200 C3201 1.502 . S
C3200 C3202 1.561 . S
C3200 C3203 1.526 . S
C3201 H3185 0.959 . S
C3201 H3186 0.959 . S
C3201 H3187 0.961 . S
C3201 C3200 1.502 . S
C3202 H3188 0.960 . S
C3202 H3189 0.961 . S
C3202 H3190 0.959 . S
C3202 C3200 1.561 . S
C3203 C3200 1.526 . S
C3203 C3204 1.396 . S
C3203 C3208 1.390 . S
C3204 C3198 1.465 . S
C3204 C3203 1.396 . S
C3204 C3205 1.399 . S
C3205 H3191 0.929 . S
C3205 C3204 1.399 . S
C3205 C3206 1.385 . S
C3206 H3192 0.931 . S
C3206 C3205 1.385 . S
C3206 C3207 1.389 . S
C3207 C3206 1.389 . S
C3207 C3208 1.387 . S
C3208 H3193 0.930 . S
C3208 C3203 1.390 . S
C3208 C3207 1.387 . S
H3209 C3221 0.930 . S
H3210 C3223 0.930 . S
H3211 C3224 0.930 . S
H3212 C3228 0.959 . S
H3213 C3228 0.959 . S
H3214 C3228 0.961 . S
H3215 C3229 0.960 . S
H3216 C3229 0.961 . S
H3217 C3229 0.959 . S
H3218 C3232 0.929 . S
H3219 C3233 0.931 . S
H3220 C3235 0.930 . S
C3221 H3209 0.930 . S
C3221 C3222 1.399 . S
C3221 C3226 1.399 . S
C3222 C3221 1.399 . S
C3222 C3223 1.376 . S
C3223 H3210 0.930 . S
C3223 C3222 1.376 . S
C3223 C3224 1.388 . S
C3224 H3211 0.930 . S
C3224 C3223 1.388 . S
C3224 C3225 1.390 . S
C3225 C3224 1.390 . S
C3225 C3226 1.394 . S
C3225 C3231 1.465 . S
C3226 C3221 1.399 . S
C3226 C3225 1.394 . S
C3226 C3227 1.516 . S
C3227 C3226 1.516 . S
C3227 C3228 1.502 . S
C3227 C3229 1.561 . S
C3227 C3230 1.526 . S
C3228 H3212 0.959 . S
C3228 H3213 0.959 . S
C3228 H3214 0.961 . S
C3228 C3227 1.502 . S
C3229 H3215 0.960 . S
C3229 H3216 0.961 . S
C3229 H3217 0.959 . S
C3229 C3227 1.561 . S
C3230 C3227 1.526 . S
C3230 C3231 1.396 . S
C3230 C3235 1.390 . S
C3231 C3225 1.465 . S
C3231 C3230 1.396 . S
C3231 C3232 1.399 . S
C3232 H3218 0.929 . S
C3232 C3231 1.399 . S
C3232 C3233 1.385 . S
C3233 H3219 0.931 . S
C3233 C3232 1.385 . S
C3233 C3234 1.389 . S
C3234 C3233 1.389 . S
C3234 C3235 1.387 . S
C3235 H3220 0.930 . S
C3235 C3230 1.390 . S
C3235 C3234 1.387 . S
H3236 C3248 0.930 . S
H3237 C3250 0.930 . S
H3238 C3251 0.930 . S
H3239 C3255 0.959 . S
H3240 C3255 0.959 . S
H3241 C3255 0.961 . S
H3242 C3256 0.960 . S
H3243 C3256 0.961 . S
H3244 C3256 0.959 . S
H3245 C3259 0.929 . S
H3246 C3260 0.931 . S
H3247 C3262 0.930 . S
C3248 H3236 0.930 . S
C3248 C3249 1.399 . S
C3248 C3253 1.399 . S
C3249 C3248 1.399 . S
C3249 C3250 1.376 . S
C3250 H3237 0.930 . S
C3250 C3249 1.376 . S
C3250 C3251 1.388 . S
C3251 H3238 0.930 . S
C3251 C3250 1.388 . S
C3251 C3252 1.390 . S
C3252 C3251 1.390 . S
C3252 C3253 1.394 . S
C3252 C3258 1.465 . S
C3253 C3248 1.399 . S
C3253 C3252 1.394 . S
C3253 C3254 1.516 . S
C3254 C3253 1.516 . S
C3254 C3255 1.502 . S
C3254 C3256 1.561 . S
C3254 C3257 1.526 . S
C3255 H3239 0.959 . S
C3255 H3240 0.959 . S
C3255 H3241 0.961 . S
C3255 C3254 1.502 . S
C3256 H3242 0.960 . S
C3256 H3243 0.961 . S
C3256 H3244 0.959 . S
C3256 C3254 1.561 . S
C3257 C3254 1.526 . S
C3257 C3258 1.396 . S
C3257 C3262 1.390 . S
C3258 C3252 1.465 . S
C3258 C3257 1.396 . S
C3258 C3259 1.399 . S
C3259 H3245 0.929 . S
C3259 C3258 1.399 . S
C3259 C3260 1.385 . S
C3260 H3246 0.931 . S
C3260 C3259 1.385 . S
C3260 C3261 1.389 . S
C3261 C3260 1.389 . S
C3261 C3262 1.387 . S
C3262 H3247 0.930 . S
C3262 C3257 1.390 . S
C3262 C3261 1.387 . S
H3263 C3275 0.930 . S
H3264 C3277 0.930 . S
H3265 C3278 0.930 . S
H3266 C3282 0.959 . S
H3267 C3282 0.959 . S
H3268 C3282 0.961 . S
H3269 C3283 0.960 . S
H3270 C3283 0.961 . S
H3271 C3283 0.959 . S
H3272 C3286 0.929 . S
H3273 C3287 0.931 . S
H3274 C3289 0.930 . S
C3275 H3263 0.930 . S
C3275 C3276 1.399 . S
C3275 C3280 1.399 . S
C3276 C3275 1.399 . S
C3276 C3277 1.376 . S
C3277 H3264 0.930 . S
C3277 C3276 1.376 . S
C3277 C3278 1.388 . S
C3278 H3265 0.930 . S
C3278 C3277 1.388 . S
C3278 C3279 1.390 . S
C3279 C3278 1.390 . S
C3279 C3280 1.394 . S
C3279 C3285 1.465 . S
C3280 C3275 1.399 . S
C3280 C3279 1.394 . S
C3280 C3281 1.516 . S
C3281 C3280 1.516 . S
C3281 C3282 1.502 . S
C3281 C3283 1.561 . S
C3281 C3284 1.526 . S
C3282 H3266 0.959 . S
C3282 H3267 0.959 . S
C3282 H3268 0.961 . S
C3282 C3281 1.502 . S
C3283 H3269 0.960 . S
C3283 H3270 0.961 . S
C3283 H3271 0.959 . S
C3283 C3281 1.561 . S
C3284 C3281 1.526 . S
C3284 C3285 1.396 . S
C3284 C3289 1.390 . S
C3285 C3279 1.465 . S
C3285 C3284 1.396 . S
C3285 C3286 1.399 . S
C3286 H3272 0.929 . S
C3286 C3285 1.399 . S
C3286 C3287 1.385 . S
C3287 H3273 0.931 . S
C3287 C3286 1.385 . S
C3287 C3288 1.389 . S
C3288 C3287 1.389 . S
C3288 C3289 1.387 . S
C3289 H3274 0.930 . S
C3289 C3284 1.390 . S
C3289 C3288 1.387 . S
H3290 C3302 0.930 . S
H3291 C3304 0.930 . S
H3292 C3305 0.930 . S
H3293 C3309 0.959 . S
H3294 C3309 0.959 . S
H3295 C3309 0.961 . S
H3296 C3310 0.960 . S
H3297 C3310 0.961 . S
H3298 C3310 0.959 . S
H3299 C3313 0.929 . S
H3300 C3314 0.931 . S
H3301 C3316 0.930 . S
C3302 H3290 0.930 . S
C3302 C3303 1.399 . S
C3302 C3307 1.399 . S
C3303 C3302 1.399 . S
C3303 C3304 1.376 . S
C3304 H3291 0.930 . S
C3304 C3303 1.376 . S
C3304 C3305 1.388 . S
C3305 H3292 0.930 . S
C3305 C3304 1.388 . S
C3305 C3306 1.390 . S
C3306 C3305 1.390 . S
C3306 C3307 1.394 . S
C3306 C3312 1.465 . S
C3307 C3302 1.399 . S
C3307 C3306 1.394 . S
C3307 C3308 1.516 . S
C3308 C3307 1.516 . S
C3308 C3309 1.502 . S
C3308 C3310 1.561 . S
C3308 C3311 1.526 . S
C3309 H3293 0.959 . S
C3309 H3294 0.959 . S
C3309 H3295 0.961 . S
C3309 C3308 1.502 . S
C3310 H3296 0.960 . S
C3310 H3297 0.961 . S
C3310 H3298 0.959 . S
C3310 C3308 1.561 . S
C3311 C3308 1.526 . S
C3311 C3312 1.396 . S
C3311 C3316 1.390 . S
C3312 C3306 1.465 . S
C3312 C3311 1.396 . S
C3312 C3313 1.399 . S
C3313 H3299 0.929 . S
C3313 C3312 1.399 . S
C3313 C3314 1.385 . S
C3314 H3300 0.931 . S
C3314 C3313 1.385 . S
C3314 C3315 1.389 . S
C3315 C3314 1.389 . S
C3315 C3316 1.387 . S
C3316 H3301 0.930 . S
C3316 C3311 1.390 . S
C3316 C3315 1.387 . S
H3317 C3329 0.930 . S
H3318 C3331 0.930 . S
H3319 C3332 0.930 . S
H3320 C3336 0.959 . S
H3321 C3336 0.959 . S
H3322 C3336 0.961 . S
H3323 C3337 0.960 . S
H3324 C3337 0.961 . S
H3325 C3337 0.959 . S
H3326 C3340 0.929 . S
H3327 C3341 0.931 . S
H3328 C3343 0.930 . S
C3329 H3317 0.930 . S
C3329 C3330 1.399 . S
C3329 C3334 1.399 . S
C3330 C3329 1.399 . S
C3330 C3331 1.376 . S
C3331 H3318 0.930 . S
C3331 C3330 1.376 . S
C3331 C3332 1.388 . S
C3332 H3319 0.930 . S
C3332 C3331 1.388 . S
C3332 C3333 1.390 . S
C3333 C3332 1.390 . S
C3333 C3334 1.394 . S
C3333 C3339 1.465 . S
C3334 C3329 1.399 . S
C3334 C3333 1.394 . S
C3334 C3335 1.516 . S
C3335 C3334 1.516 . S
C3335 C3336 1.502 . S
C3335 C3337 1.561 . S
C3335 C3338 1.526 . S
C3336 H3320 0.959 . S
C3336 H3321 0.959 . S
C3336 H3322 0.961 . S
C3336 C3335 1.502 . S
C3337 H3323 0.960 . S
C3337 H3324 0.961 . S
C3337 H3325 0.959 . S
C3337 C3335 1.561 . S
C3338 C3335 1.526 . S
C3338 C3339 1.396 . S
C3338 C3343 1.390 . S
C3339 C3333 1.465 . S
C3339 C3338 1.396 . S
C3339 C3340 1.399 . S
C3340 H3326 0.929 . S
C3340 C3339 1.399 . S
C3340 C3341 1.385 . S
C3341 H3327 0.931 . S
C3341 C3340 1.385 . S
C3341 C3342 1.389 . S
C3342 C3341 1.389 . S
C3342 C3343 1.387 . S
C3343 H3328 0.930 . S
C3343 C3338 1.390 . S
C3343 C3342 1.387 . S
H3344 C3356 0.930 . S
H3345 C3358 0.930 . S
H3346 C3359 0.930 . S
H3347 C3363 0.959 . S
H3348 C3363 0.959 . S
H3349 C3363 0.961 . S
H3350 C3364 0.960 . S
H3351 C3364 0.961 . S
H3352 C3364 0.959 . S
H3353 C3367 0.929 . S
H3354 C3368 0.931 . S
H3355 C3370 0.930 . S
C3356 H3344 0.930 . S
C3356 C3357 1.399 . S
C3356 C3361 1.399 . S
C3357 C3356 1.399 . S
C3357 C3358 1.376 . S
C3358 H3345 0.930 . S
C3358 C3357 1.376 . S
C3358 C3359 1.388 . S
C3359 H3346 0.930 . S
C3359 C3358 1.388 . S
C3359 C3360 1.390 . S
C3360 C3359 1.390 . S
C3360 C3361 1.394 . S
C3360 C3366 1.465 . S
C3361 C3356 1.399 . S
C3361 C3360 1.394 . S
C3361 C3362 1.516 . S
C3362 C3361 1.516 . S
C3362 C3363 1.502 . S
C3362 C3364 1.561 . S
C3362 C3365 1.526 . S
C3363 H3347 0.959 . S
C3363 H3348 0.959 . S
C3363 H3349 0.961 . S
C3363 C3362 1.502 . S
C3364 H3350 0.960 . S
C3364 H3351 0.961 . S
C3364 H3352 0.959 . S
C3364 C3362 1.561 . S
C3365 C3362 1.526 . S
C3365 C3366 1.396 . S
C3365 C3370 1.390 . S
C3366 C3360 1.465 . S
C3366 C3365 1.396 . S
C3366 C3367 1.399 . S
C3367 H3353 0.929 . S
C3367 C3366 1.399 . S
C3367 C3368 1.385 . S
C3368 H3354 0.931 . S
C3368 C3367 1.385 . S
C3368 C3369 1.389 . S
C3369 C3368 1.389 . S
C3369 C3370 1.387 . S
C3370 H3355 0.930 . S
C3370 C3365 1.390 . S
C3370 C3369 1.387 . S
H3371 C3383 0.930 . S
H3372 C3385 0.930 . S
H3373 C3386 0.930 . S
H3374 C3390 0.959 . S
H3375 C3390 0.959 . S
H3376 C3390 0.961 . S
H3377 C3391 0.960 . S
H3378 C3391 0.961 . S
H3379 C3391 0.959 . S
H3380 C3394 0.929 . S
H3381 C3395 0.931 . S
H3382 C3397 0.930 . S
C3383 H3371 0.930 . S
C3383 C3384 1.399 . S
C3383 C3388 1.399 . S
C3384 C3383 1.399 . S
C3384 C3385 1.376 . S
C3385 H3372 0.930 . S
C3385 C3384 1.376 . S
C3385 C3386 1.388 . S
C3386 H3373 0.930 . S
C3386 C3385 1.388 . S
C3386 C3387 1.390 . S
C3387 C3386 1.390 . S
C3387 C3388 1.394 . S
C3387 C3393 1.465 . S
C3388 C3383 1.399 . S
C3388 C3387 1.394 . S
C3388 C3389 1.516 . S
C3389 C3388 1.516 . S
C3389 C3390 1.502 . S
C3389 C3391 1.561 . S
C3389 C3392 1.526 . S
C3390 H3374 0.959 . S
C3390 H3375 0.959 . S
C3390 H3376 0.961 . S
C3390 C3389 1.502 . S
C3391 H3377 0.960 . S
C3391 H3378 0.961 . S
C3391 H3379 0.959 . S
C3391 C3389 1.561 . S
C3392 C3389 1.526 . S
C3392 C3393 1.396 . S
C3392 C3397 1.390 . S
C3393 C3387 1.465 . S
C3393 C3392 1.396 . S
C3393 C3394 1.399 . S
C3394 H3380 0.929 . S
C3394 C3393 1.399 . S
C3394 C3395 1.385 . S
C3395 H3381 0.931 . S
C3395 C3394 1.385 . S
C3395 C3396 1.389 . S
C3396 C3395 1.389 . S
C3396 C3397 1.387 . S
C3397 H3382 0.930 . S
C3397 C3392 1.390 . S
C3397 C3396 1.387 . S
H3398 C3410 0.930 . S
H3399 C3412 0.930 . S
H3400 C3413 0.930 . S
H3401 C3417 0.959 . S
H3402 C3417 0.959 . S
H3403 C3417 0.961 . S
H3404 C3418 0.960 . S
H3405 C3418 0.961 . S
H3406 C3418 0.959 . S
H3407 C3421 0.929 . S
H3408 C3422 0.931 . S
H3409 C3424 0.930 . S
C3410 H3398 0.930 . S
C3410 C3411 1.399 . S
C3410 C3415 1.399 . S
C3411 C3410 1.399 . S
C3411 C3412 1.376 . S
C3412 H3399 0.930 . S
C3412 C3411 1.376 . S
C3412 C3413 1.388 . S
C3413 H3400 0.930 . S
C3413 C3412 1.388 . S
C3413 C3414 1.390 . S
C3414 C3413 1.390 . S
C3414 C3415 1.394 . S
C3414 C3420 1.465 . S
C3415 C3410 1.399 . S
C3415 C3414 1.394 . S
C3415 C3416 1.516 . S
C3416 C3415 1.516 . S
C3416 C3417 1.502 . S
C3416 C3418 1.561 . S
C3416 C3419 1.526 . S
C3417 H3401 0.959 . S
C3417 H3402 0.959 . S
C3417 H3403 0.961 . S
C3417 C3416 1.502 . S
C3418 H3404 0.960 . S
C3418 H3405 0.961 . S
C3418 H3406 0.959 . S
C3418 C3416 1.561 . S
C3419 C3416 1.526 . S
C3419 C3420 1.396 . S
C3419 C3424 1.390 . S
C3420 C3414 1.465 . S
C3420 C3419 1.396 . S
C3420 C3421 1.399 . S
C3421 H3407 0.929 . S
C3421 C3420 1.399 . S
C3421 C3422 1.385 . S
C3422 H3408 0.931 . S
C3422 C3421 1.385 . S
C3422 C3423 1.389 . S
C3423 C3422 1.389 . S
C3423 C3424 1.387 . S
C3424 H3409 0.930 . S
C3424 C3419 1.390 . S
C3424 C3423 1.387 . S
H3425 C3437 0.930 . S
H3426 C3439 0.930 . S
H3427 C3440 0.930 . S
H3428 C3444 0.959 . S
H3429 C3444 0.959 . S
H3430 C3444 0.961 . S
H3431 C3445 0.960 . S
H3432 C3445 0.961 . S
H3433 C3445 0.959 . S
H3434 C3448 0.929 . S
H3435 C3449 0.931 . S
H3436 C3451 0.930 . S
C3437 H3425 0.930 . S
C3437 C3438 1.399 . S
C3437 C3442 1.399 . S
C3438 C3437 1.399 . S
C3438 C3439 1.376 . S
C3439 H3426 0.930 . S
C3439 C3438 1.376 . S
C3439 C3440 1.388 . S
C3440 H3427 0.930 . S
C3440 C3439 1.388 . S
C3440 C3441 1.390 . S
C3441 C3440 1.390 . S
C3441 C3442 1.394 . S
C3441 C3447 1.465 . S
C3442 C3437 1.399 . S
C3442 C3441 1.394 . S
C3442 C3443 1.516 . S
C3443 C3442 1.516 . S
C3443 C3444 1.502 . S
C3443 C3445 1.561 . S
C3443 C3446 1.526 . S
C3444 H3428 0.959 . S
C3444 H3429 0.959 . S
C3444 H3430 0.961 . S
C3444 C3443 1.502 . S
C3445 H3431 0.960 . S
C3445 H3432 0.961 . S
C3445 H3433 0.959 . S
C3445 C3443 1.561 . S
C3446 C3443 1.526 . S
C3446 C3447 1.396 . S
C3446 C3451 1.390 . S
C3447 C3441 1.465 . S
C3447 C3446 1.396 . S
C3447 C3448 1.399 . S
C3448 H3434 0.929 . S
C3448 C3447 1.399 . S
C3448 C3449 1.385 . S
C3449 H3435 0.931 . S
C3449 C3448 1.385 . S
C3449 C3450 1.389 . S
C3450 C3449 1.389 . S
C3450 C3451 1.387 . S
C3451 H3436 0.930 . S
C3451 C3446 1.390 . S
C3451 C3450 1.387 . S
H3452 C3464 0.930 . S
H3453 C3466 0.930 . S
H3454 C3467 0.930 . S
H3455 C3471 0.959 . S
H3456 C3471 0.959 . S
H3457 C3471 0.961 . S
H3458 C3472 0.960 . S
H3459 C3472 0.961 . S
H3460 C3472 0.959 . S
H3461 C3475 0.929 . S
H3462 C3476 0.931 . S
H3463 C3478 0.930 . S
C3464 H3452 0.930 . S
C3464 C3465 1.399 . S
C3464 C3469 1.399 . S
C3465 C3464 1.399 . S
C3465 C3466 1.376 . S
C3466 H3453 0.930 . S
C3466 C3465 1.376 . S
C3466 C3467 1.388 . S
C3467 H3454 0.930 . S
C3467 C3466 1.388 . S
C3467 C3468 1.390 . S
C3468 C3467 1.390 . S
C3468 C3469 1.394 . S
C3468 C3474 1.465 . S
C3469 C3464 1.399 . S
C3469 C3468 1.394 . S
C3469 C3470 1.516 . S
C3470 C3469 1.516 . S
C3470 C3471 1.502 . S
C3470 C3472 1.561 . S
C3470 C3473 1.526 . S
C3471 H3455 0.959 . S
C3471 H3456 0.959 . S
C3471 H3457 0.961 . S
C3471 C3470 1.502 . S
C3472 H3458 0.960 . S
C3472 H3459 0.961 . S
C3472 H3460 0.959 . S
C3472 C3470 1.561 . S
C3473 C3470 1.526 . S
C3473 C3474 1.396 . S
C3473 C3478 1.390 . S
C3474 C3468 1.465 . S
C3474 C3473 1.396 . S
C3474 C3475 1.399 . S
C3475 H3461 0.929 . S
C3475 C3474 1.399 . S
C3475 C3476 1.385 . S
C3476 H3462 0.931 . S
C3476 C3475 1.385 . S
C3476 C3477 1.389 . S
C3477 C3476 1.389 . S
C3477 C3478 1.387 . S
C3478 H3463 0.930 . S
C3478 C3473 1.390 . S
C3478 C3477 1.387 . S
H3479 C3491 0.930 . S
H3480 C3493 0.930 . S
H3481 C3494 0.930 . S
H3482 C3498 0.959 . S
H3483 C3498 0.959 . S
H3484 C3498 0.961 . S
H3485 C3499 0.960 . S
H3486 C3499 0.961 . S
H3487 C3499 0.959 . S
H3488 C3502 0.929 . S
H3489 C3503 0.931 . S
H3490 C3505 0.930 . S
C3491 H3479 0.930 . S
C3491 C3492 1.399 . S
C3491 C3496 1.399 . S
C3492 C3491 1.399 . S
C3492 C3493 1.376 . S
C3493 H3480 0.930 . S
C3493 C3492 1.376 . S
C3493 C3494 1.388 . S
C3494 H3481 0.930 . S
C3494 C3493 1.388 . S
C3494 C3495 1.390 . S
C3495 C3494 1.390 . S
C3495 C3496 1.394 . S
C3495 C3501 1.465 . S
C3496 C3491 1.399 . S
C3496 C3495 1.394 . S
C3496 C3497 1.516 . S
C3497 C3496 1.516 . S
C3497 C3498 1.502 . S
C3497 C3499 1.561 . S
C3497 C3500 1.526 . S
C3498 H3482 0.959 . S
C3498 H3483 0.959 . S
C3498 H3484 0.961 . S
C3498 C3497 1.502 . S
C3499 H3485 0.960 . S
C3499 H3486 0.961 . S
C3499 H3487 0.959 . S
C3499 C3497 1.561 . S
C3500 C3497 1.526 . S
C3500 C3501 1.396 . S
C3500 C3505 1.390 . S
C3501 C3495 1.465 . S
C3501 C3500 1.396 . S
C3501 C3502 1.399 . S
C3502 H3488 0.929 . S
C3502 C3501 1.399 . S
C3502 C3503 1.385 . S
C3503 H3489 0.931 . S
C3503 C3502 1.385 . S
C3503 C3504 1.389 . S
C3504 C3503 1.389 . S
C3504 C3505 1.387 . S
C3505 H3490 0.930 . S
C3505 C3500 1.390 . S
C3505 C3504 1.387 . S
H3506 C3518 0.930 . S
H3507 C3520 0.930 . S
H3508 C3521 0.930 . S
H3509 C3525 0.959 . S
H3510 C3525 0.959 . S
H3511 C3525 0.961 . S
H3512 C3526 0.960 . S
H3513 C3526 0.961 . S
H3514 C3526 0.959 . S
H3515 C3529 0.929 . S
H3516 C3530 0.931 . S
H3517 C3532 0.930 . S
C3518 H3506 0.930 . S
C3518 C3519 1.399 . S
C3518 C3523 1.399 . S
C3519 C3518 1.399 . S
C3519 C3520 1.376 . S
C3520 H3507 0.930 . S
C3520 C3519 1.376 . S
C3520 C3521 1.388 . S
C3521 H3508 0.930 . S
C3521 C3520 1.388 . S
C3521 C3522 1.390 . S
C3522 C3521 1.390 . S
C3522 C3523 1.394 . S
C3522 C3528 1.465 . S
C3523 C3518 1.399 . S
C3523 C3522 1.394 . S
C3523 C3524 1.516 . S
C3524 C3523 1.516 . S
C3524 C3525 1.502 . S
C3524 C3526 1.561 . S
C3524 C3527 1.526 . S
C3525 H3509 0.959 . S
C3525 H3510 0.959 . S
C3525 H3511 0.961 . S
C3525 C3524 1.502 . S
C3526 H3512 0.960 . S
C3526 H3513 0.961 . S
C3526 H3514 0.959 . S
C3526 C3524 1.561 . S
C3527 C3524 1.526 . S
C3527 C3528 1.396 . S
C3527 C3532 1.390 . S
C3528 C3522 1.465 . S
C3528 C3527 1.396 . S
C3528 C3529 1.399 . S
C3529 H3515 0.929 . S
C3529 C3528 1.399 . S
C3529 C3530 1.385 . S
C3530 H3516 0.931 . S
C3530 C3529 1.385 . S
C3530 C3531 1.389 . S
C3531 C3530 1.389 . S
C3531 C3532 1.387 . S
C3532 H3517 0.930 . S
C3532 C3527 1.390 . S
C3532 C3531 1.387 . S
H3533 C3545 0.930 . S
H3534 C3547 0.930 . S
H3535 C3548 0.930 . S
H3536 C3552 0.959 . S
H3537 C3552 0.959 . S
H3538 C3552 0.961 . S
H3539 C3553 0.960 . S
H3540 C3553 0.961 . S
H3541 C3553 0.959 . S
H3542 C3556 0.929 . S
H3543 C3557 0.931 . S
H3544 C3559 0.930 . S
C3545 H3533 0.930 . S
C3545 C3546 1.399 . S
C3545 C3550 1.399 . S
C3546 C3545 1.399 . S
C3546 C3547 1.376 . S
C3547 H3534 0.930 . S
C3547 C3546 1.376 . S
C3547 C3548 1.388 . S
C3548 H3535 0.930 . S
C3548 C3547 1.388 . S
C3548 C3549 1.390 . S
C3549 C3548 1.390 . S
C3549 C3550 1.394 . S
C3549 C3555 1.465 . S
C3550 C3545 1.399 . S
C3550 C3549 1.394 . S
C3550 C3551 1.516 . S
C3551 C3550 1.516 . S
C3551 C3552 1.502 . S
C3551 C3553 1.561 . S
C3551 C3554 1.526 . S
C3552 H3536 0.959 . S
C3552 H3537 0.959 . S
C3552 H3538 0.961 . S
C3552 C3551 1.502 . S
C3553 H3539 0.960 . S
C3553 H3540 0.961 . S
C3553 H3541 0.959 . S
C3553 C3551 1.561 . S
C3554 C3551 1.526 . S
C3554 C3555 1.396 . S
C3554 C3559 1.390 . S
C3555 C3549 1.465 . S
C3555 C3554 1.396 . S
C3555 C3556 1.399 . S
C3556 H3542 0.929 . S
C3556 C3555 1.399 . S
C3556 C3557 1.385 . S
C3557 H3543 0.931 . S
C3557 C3556 1.385 . S
C3557 C3558 1.389 . S
C3558 C3557 1.389 . S
C3558 C3559 1.387 . S
C3559 H3544 0.930 . S
C3559 C3554 1.390 . S
C3559 C3558 1.387 . S
H3560 C3572 0.930 . S
H3561 C3574 0.930 . S
H3562 C3575 0.930 . S
H3563 C3579 0.959 . S
H3564 C3579 0.959 . S
H3565 C3579 0.961 . S
H3566 C3580 0.960 . S
H3567 C3580 0.961 . S
H3568 C3580 0.959 . S
H3569 C3583 0.929 . S
H3570 C3584 0.931 . S
H3571 C3586 0.930 . S
C3572 H3560 0.930 . S
C3572 C3573 1.399 . S
C3572 C3577 1.399 . S
C3573 C3572 1.399 . S
C3573 C3574 1.376 . S
C3574 H3561 0.930 . S
C3574 C3573 1.376 . S
C3574 C3575 1.388 . S
C3575 H3562 0.930 . S
C3575 C3574 1.388 . S
C3575 C3576 1.390 . S
C3576 C3575 1.390 . S
C3576 C3577 1.394 . S
C3576 C3582 1.465 . S
C3577 C3572 1.399 . S
C3577 C3576 1.394 . S
C3577 C3578 1.516 . S
C3578 C3577 1.516 . S
C3578 C3579 1.502 . S
C3578 C3580 1.561 . S
C3578 C3581 1.526 . S
C3579 H3563 0.959 . S
C3579 H3564 0.959 . S
C3579 H3565 0.961 . S
C3579 C3578 1.502 . S
C3580 H3566 0.960 . S
C3580 H3567 0.961 . S
C3580 H3568 0.959 . S
C3580 C3578 1.561 . S
C3581 C3578 1.526 . S
C3581 C3582 1.396 . S
C3581 C3586 1.390 . S
C3582 C3576 1.465 . S
C3582 C3581 1.396 . S
C3582 C3583 1.399 . S
C3583 H3569 0.929 . S
C3583 C3582 1.399 . S
C3583 C3584 1.385 . S
C3584 H3570 0.931 . S
C3584 C3583 1.385 . S
C3584 C3585 1.389 . S
C3585 C3584 1.389 . S
C3585 C3586 1.387 . S
C3586 H3571 0.930 . S
C3586 C3581 1.390 . S
C3586 C3585 1.387 . S
H3587 C3599 0.930 . S
H3588 C3601 0.930 . S
H3589 C3602 0.930 . S
H3590 C3606 0.959 . S
H3591 C3606 0.959 . S
H3592 C3606 0.961 . S
H3593 C3607 0.960 . S
H3594 C3607 0.961 . S
H3595 C3607 0.959 . S
H3596 C3610 0.929 . S
H3597 C3611 0.931 . S
H3598 C3613 0.930 . S
C3599 H3587 0.930 . S
C3599 C3600 1.399 . S
C3599 C3604 1.399 . S
C3600 C3599 1.399 . S
C3600 C3601 1.376 . S
C3601 H3588 0.930 . S
C3601 C3600 1.376 . S
C3601 C3602 1.388 . S
C3602 H3589 0.930 . S
C3602 C3601 1.388 . S
C3602 C3603 1.390 . S
C3603 C3602 1.390 . S
C3603 C3604 1.394 . S
C3603 C3609 1.465 . S
C3604 C3599 1.399 . S
C3604 C3603 1.394 . S
C3604 C3605 1.516 . S
C3605 C3604 1.516 . S
C3605 C3606 1.502 . S
C3605 C3607 1.561 . S
C3605 C3608 1.526 . S
C3606 H3590 0.959 . S
C3606 H3591 0.959 . S
C3606 H3592 0.961 . S
C3606 C3605 1.502 . S
C3607 H3593 0.960 . S
C3607 H3594 0.961 . S
C3607 H3595 0.959 . S
C3607 C3605 1.561 . S
C3608 C3605 1.526 . S
C3608 C3609 1.396 . S
C3608 C3613 1.390 . S
C3609 C3603 1.465 . S
C3609 C3608 1.396 . S
C3609 C3610 1.399 . S
C3610 H3596 0.929 . S
C3610 C3609 1.399 . S
C3610 C3611 1.385 . S
C3611 H3597 0.931 . S
C3611 C3610 1.385 . S
C3611 C3612 1.389 . S
C3612 C3611 1.389 . S
C3612 C3613 1.387 . S
C3613 H3598 0.930 . S
C3613 C3608 1.390 . S
C3613 C3612 1.387 . S
H3614 C3626 0.930 . S
H3615 C3628 0.930 . S
H3616 C3629 0.930 . S
H3617 C3633 0.959 . S
H3618 C3633 0.959 . S
H3619 C3633 0.961 . S
H3620 C3634 0.960 . S
H3621 C3634 0.961 . S
H3622 C3634 0.959 . S
H3623 C3637 0.929 . S
H3624 C3638 0.931 . S
H3625 C3640 0.930 . S
C3626 H3614 0.930 . S
C3626 C3627 1.399 . S
C3626 C3631 1.399 . S
C3627 C3626 1.399 . S
C3627 C3628 1.376 . S
C3628 H3615 0.930 . S
C3628 C3627 1.376 . S
C3628 C3629 1.388 . S
C3629 H3616 0.930 . S
C3629 C3628 1.388 . S
C3629 C3630 1.390 . S
C3630 C3629 1.390 . S
C3630 C3631 1.394 . S
C3630 C3636 1.465 . S
C3631 C3626 1.399 . S
C3631 C3630 1.394 . S
C3631 C3632 1.516 . S
C3632 C3631 1.516 . S
C3632 C3633 1.502 . S
C3632 C3634 1.561 . S
C3632 C3635 1.526 . S
C3633 H3617 0.959 . S
C3633 H3618 0.959 . S
C3633 H3619 0.961 . S
C3633 C3632 1.502 . S
C3634 H3620 0.960 . S
C3634 H3621 0.961 . S
C3634 H3622 0.959 . S
C3634 C3632 1.561 . S
C3635 C3632 1.526 . S
C3635 C3636 1.396 . S
C3635 C3640 1.390 . S
C3636 C3630 1.465 . S
C3636 C3635 1.396 . S
C3636 C3637 1.399 . S
C3637 H3623 0.929 . S
C3637 C3636 1.399 . S
C3637 C3638 1.385 . S
C3638 H3624 0.931 . S
C3638 C3637 1.385 . S
C3638 C3639 1.389 . S
C3639 C3638 1.389 . S
C3639 C3640 1.387 . S
C3640 H3625 0.930 . S
C3640 C3635 1.390 . S
C3640 C3639 1.387 . S
H3641 C3653 0.930 . S
H3642 C3655 0.930 . S
H3643 C3656 0.930 . S
H3644 C3660 0.959 . S
H3645 C3660 0.959 . S
H3646 C3660 0.961 . S
H3647 C3661 0.960 . S
H3648 C3661 0.961 . S
H3649 C3661 0.959 . S
H3650 C3664 0.929 . S
H3651 C3665 0.931 . S
H3652 C3667 0.930 . S
C3653 H3641 0.930 . S
C3653 C3654 1.399 . S
C3653 C3658 1.399 . S
C3654 C3653 1.399 . S
C3654 C3655 1.376 . S
C3655 H3642 0.930 . S
C3655 C3654 1.376 . S
C3655 C3656 1.388 . S
C3656 H3643 0.930 . S
C3656 C3655 1.388 . S
C3656 C3657 1.390 . S
C3657 C3656 1.390 . S
C3657 C3658 1.394 . S
C3657 C3663 1.465 . S
C3658 C3653 1.399 . S
C3658 C3657 1.394 . S
C3658 C3659 1.516 . S
C3659 C3658 1.516 . S
C3659 C3660 1.502 . S
C3659 C3661 1.561 . S
C3659 C3662 1.526 . S
C3660 H3644 0.959 . S
C3660 H3645 0.959 . S
C3660 H3646 0.961 . S
C3660 C3659 1.502 . S
C3661 H3647 0.960 . S
C3661 H3648 0.961 . S
C3661 H3649 0.959 . S
C3661 C3659 1.561 . S
C3662 C3659 1.526 . S
C3662 C3663 1.396 . S
C3662 C3667 1.390 . S
C3663 C3657 1.465 . S
C3663 C3662 1.396 . S
C3663 C3664 1.399 . S
C3664 H3650 0.929 . S
C3664 C3663 1.399 . S
C3664 C3665 1.385 . S
C3665 H3651 0.931 . S
C3665 C3664 1.385 . S
C3665 C3666 1.389 . S
C3666 C3665 1.389 . S
C3666 C3667 1.387 . S
C3667 H3652 0.930 . S
C3667 C3662 1.390 . S
C3667 C3666 1.387 . S
H3668 C3680 0.930 . S
H3669 C3682 0.930 . S
H3670 C3683 0.930 . S
H3671 C3687 0.959 . S
H3672 C3687 0.959 . S
H3673 C3687 0.961 . S
H3674 C3688 0.960 . S
H3675 C3688 0.961 . S
H3676 C3688 0.959 . S
H3677 C3691 0.929 . S
H3678 C3692 0.931 . S
H3679 C3694 0.930 . S
C3680 H3668 0.930 . S
C3680 C3681 1.399 . S
C3680 C3685 1.399 . S
C3681 C3680 1.399 . S
C3681 C3682 1.376 . S
C3682 H3669 0.930 . S
C3682 C3681 1.376 . S
C3682 C3683 1.388 . S
C3683 H3670 0.930 . S
C3683 C3682 1.388 . S
C3683 C3684 1.390 . S
C3684 C3683 1.390 . S
C3684 C3685 1.394 . S
C3684 C3690 1.465 . S
C3685 C3680 1.399 . S
C3685 C3684 1.394 . S
C3685 C3686 1.516 . S
C3686 C3685 1.516 . S
C3686 C3687 1.502 . S
C3686 C3688 1.561 . S
C3686 C3689 1.526 . S
C3687 H3671 0.959 . S
C3687 H3672 0.959 . S
C3687 H3673 0.961 . S
C3687 C3686 1.502 . S
C3688 H3674 0.960 . S
C3688 H3675 0.961 . S
C3688 H3676 0.959 . S
C3688 C3686 1.561 . S
C3689 C3686 1.526 . S
C3689 C3690 1.396 . S
C3689 C3694 1.390 . S
C3690 C3684 1.465 . S
C3690 C3689 1.396 . S
C3690 C3691 1.399 . S
C3691 H3677 0.929 . S
C3691 C3690 1.399 . S
C3691 C3692 1.385 . S
C3692 H3678 0.931 . S
C3692 C3691 1.385 . S
C3692 C3693 1.389 . S
C3693 C3692 1.389 . S
C3693 C3694 1.387 . S
C3694 H3679 0.930 . S
C3694 C3689 1.390 . S
C3694 C3693 1.387 . S
H3695 C3707 0.930 . S
H3696 C3709 0.930 . S
H3697 C3710 0.930 . S
H3698 C3714 0.959 . S
H3699 C3714 0.959 . S
H3700 C3714 0.961 . S
H3701 C3715 0.960 . S
H3702 C3715 0.961 . S
H3703 C3715 0.959 . S
H3704 C3718 0.929 . S
H3705 C3719 0.931 . S
H3706 C3721 0.930 . S
C3707 H3695 0.930 . S
C3707 C3708 1.399 . S
C3707 C3712 1.399 . S
C3708 C3707 1.399 . S
C3708 C3709 1.376 . S
C3709 H3696 0.930 . S
C3709 C3708 1.376 . S
C3709 C3710 1.388 . S
C3710 H3697 0.930 . S
C3710 C3709 1.388 . S
C3710 C3711 1.390 . S
C3711 C3710 1.390 . S
C3711 C3712 1.394 . S
C3711 C3717 1.465 . S
C3712 C3707 1.399 . S
C3712 C3711 1.394 . S
C3712 C3713 1.516 . S
C3713 C3712 1.516 . S
C3713 C3714 1.502 . S
C3713 C3715 1.561 . S
C3713 C3716 1.526 . S
C3714 H3698 0.959 . S
C3714 H3699 0.959 . S
C3714 H3700 0.961 . S
C3714 C3713 1.502 . S
C3715 H3701 0.960 . S
C3715 H3702 0.961 . S
C3715 H3703 0.959 . S
C3715 C3713 1.561 . S
C3716 C3713 1.526 . S
C3716 C3717 1.396 . S
C3716 C3721 1.390 . S
C3717 C3711 1.465 . S
C3717 C3716 1.396 . S
C3717 C3718 1.399 . S
C3718 H3704 0.929 . S
C3718 C3717 1.399 . S
C3718 C3719 1.385 . S
C3719 H3705 0.931 . S
C3719 C3718 1.385 . S
C3719 C3720 1.389 . S
C3720 C3719 1.389 . S
C3720 C3721 1.387 . S
C3721 H3706 0.930 . S
C3721 C3716 1.390 . S
C3721 C3720 1.387 . S
H3722 C3734 0.930 . S
H3723 C3736 0.930 . S
H3724 C3737 0.930 . S
H3725 C3741 0.959 . S
H3726 C3741 0.959 . S
H3727 C3741 0.961 . S
H3728 C3742 0.960 . S
H3729 C3742 0.961 . S
H3730 C3742 0.959 . S
H3731 C3745 0.929 . S
H3732 C3746 0.931 . S
H3733 C3748 0.930 . S
C3734 H3722 0.930 . S
C3734 C3735 1.399 . S
C3734 C3739 1.399 . S
C3735 C3734 1.399 . S
C3735 C3736 1.376 . S
C3736 H3723 0.930 . S
C3736 C3735 1.376 . S
C3736 C3737 1.388 . S
C3737 H3724 0.930 . S
C3737 C3736 1.388 . S
C3737 C3738 1.390 . S
C3738 C3737 1.390 . S
C3738 C3739 1.394 . S
C3738 C3744 1.465 . S
C3739 C3734 1.399 . S
C3739 C3738 1.394 . S
C3739 C3740 1.516 . S
C3740 C3739 1.516 . S
C3740 C3741 1.502 . S
C3740 C3742 1.561 . S
C3740 C3743 1.526 . S
C3741 H3725 0.959 . S
C3741 H3726 0.959 . S
C3741 H3727 0.961 . S
C3741 C3740 1.502 . S
C3742 H3728 0.960 . S
C3742 H3729 0.961 . S
C3742 H3730 0.959 . S
C3742 C3740 1.561 . S
C3743 C3740 1.526 . S
C3743 C3744 1.396 . S
C3743 C3748 1.390 . S
C3744 C3738 1.465 . S
C3744 C3743 1.396 . S
C3744 C3745 1.399 . S
C3745 H3731 0.929 . S
C3745 C3744 1.399 . S
C3745 C3746 1.385 . S
C3746 H3732 0.931 . S
C3746 C3745 1.385 . S
C3746 C3747 1.389 . S
C3747 C3746 1.389 . S
C3747 C3748 1.387 . S
C3748 H3733 0.930 . S
C3748 C3743 1.390 . S
C3748 C3747 1.387 . S
H3749 C3761 0.930 . S
H3750 C3763 0.930 . S
H3751 C3764 0.930 . S
H3752 C3768 0.959 . S
H3753 C3768 0.959 . S
H3754 C3768 0.961 . S
H3755 C3769 0.960 . S
H3756 C3769 0.961 . S
H3757 C3769 0.959 . S
H3758 C3772 0.929 . S
H3759 C3773 0.931 . S
H3760 C3775 0.930 . S
C3761 H3749 0.930 . S
C3761 C3762 1.399 . S
C3761 C3766 1.399 . S
C3762 C3761 1.399 . S
C3762 C3763 1.376 . S
C3763 H3750 0.930 . S
C3763 C3762 1.376 . S
C3763 C3764 1.388 . S
C3764 H3751 0.930 . S
C3764 C3763 1.388 . S
C3764 C3765 1.390 . S
C3765 C3764 1.390 . S
C3765 C3766 1.394 . S
C3765 C3771 1.465 . S
C3766 C3761 1.399 . S
C3766 C3765 1.394 . S
C3766 C3767 1.516 . S
C3767 C3766 1.516 . S
C3767 C3768 1.502 . S
C3767 C3769 1.561 . S
C3767 C3770 1.526 . S
C3768 H3752 0.959 . S
C3768 H3753 0.959 . S
C3768 H3754 0.961 . S
C3768 C3767 1.502 . S
C3769 H3755 0.960 . S
C3769 H3756 0.961 . S
C3769 H3757 0.959 . S
C3769 C3767 1.561 . S
C3770 C3767 1.526 . S
C3770 C3771 1.396 . S
C3770 C3775 1.390 . S
C3771 C3765 1.465 . S
C3771 C3770 1.396 . S
C3771 C3772 1.399 . S
C3772 H3758 0.929 . S
C3772 C3771 1.399 . S
C3772 C3773 1.385 . S
C3773 H3759 0.931 . S
C3773 C3772 1.385 . S
C3773 C3774 1.389 . S
C3774 C3773 1.389 . S
C3774 C3775 1.387 . S
C3775 H3760 0.930 . S
C3775 C3770 1.390 . S
C3775 C3774 1.387 . S
H3776 C3788 0.930 . S
H3777 C3790 0.930 . S
H3778 C3791 0.930 . S
H3779 C3795 0.959 . S
H3780 C3795 0.959 . S
H3781 C3795 0.961 . S
H3782 C3796 0.960 . S
H3783 C3796 0.961 . S
H3784 C3796 0.959 . S
H3785 C3799 0.929 . S
H3786 C3800 0.931 . S
H3787 C3802 0.930 . S
C3788 H3776 0.930 . S
C3788 C3789 1.399 . S
C3788 C3793 1.399 . S
C3789 C3788 1.399 . S
C3789 C3790 1.376 . S
C3790 H3777 0.930 . S
C3790 C3789 1.376 . S
C3790 C3791 1.388 . S
C3791 H3778 0.930 . S
C3791 C3790 1.388 . S
C3791 C3792 1.390 . S
C3792 C3791 1.390 . S
C3792 C3793 1.394 . S
C3792 C3798 1.465 . S
C3793 C3788 1.399 . S
C3793 C3792 1.394 . S
C3793 C3794 1.516 . S
C3794 C3793 1.516 . S
C3794 C3795 1.502 . S
C3794 C3796 1.561 . S
C3794 C3797 1.526 . S
C3795 H3779 0.959 . S
C3795 H3780 0.959 . S
C3795 H3781 0.961 . S
C3795 C3794 1.502 . S
C3796 H3782 0.960 . S
C3796 H3783 0.961 . S
C3796 H3784 0.959 . S
C3796 C3794 1.561 . S
C3797 C3794 1.526 . S
C3797 C3798 1.396 . S
C3797 C3802 1.390 . S
C3798 C3792 1.465 . S
C3798 C3797 1.396 . S
C3798 C3799 1.399 . S
C3799 H3785 0.929 . S
C3799 C3798 1.399 . S
C3799 C3800 1.385 . S
C3800 H3786 0.931 . S
C3800 C3799 1.385 . S
C3800 C3801 1.389 . S
C3801 C3800 1.389 . S
C3801 C3802 1.387 . S
C3802 H3787 0.930 . S
C3802 C3797 1.390 . S
C3802 C3801 1.387 . S
H3803 C3815 0.930 . S
H3804 C3817 0.930 . S
H3805 C3818 0.930 . S
H3806 C3822 0.959 . S
H3807 C3822 0.959 . S
H3808 C3822 0.961 . S
H3809 C3823 0.960 . S
H3810 C3823 0.961 . S
H3811 C3823 0.959 . S
H3812 C3826 0.929 . S
H3813 C3827 0.931 . S
H3814 C3829 0.930 . S
C3815 H3803 0.930 . S
C3815 C3816 1.399 . S
C3815 C3820 1.399 . S
C3816 C3815 1.399 . S
C3816 C3817 1.376 . S
C3817 H3804 0.930 . S
C3817 C3816 1.376 . S
C3817 C3818 1.388 . S
C3818 H3805 0.930 . S
C3818 C3817 1.388 . S
C3818 C3819 1.390 . S
C3819 C3818 1.390 . S
C3819 C3820 1.394 . S
C3819 C3825 1.465 . S
C3820 C3815 1.399 . S
C3820 C3819 1.394 . S
C3820 C3821 1.516 . S
C3821 C3820 1.516 . S
C3821 C3822 1.502 . S
C3821 C3823 1.561 . S
C3821 C3824 1.526 . S
C3822 H3806 0.959 . S
C3822 H3807 0.959 . S
C3822 H3808 0.961 . S
C3822 C3821 1.502 . S
C3823 H3809 0.960 . S
C3823 H3810 0.961 . S
C3823 H3811 0.959 . S
C3823 C3821 1.561 . S
C3824 C3821 1.526 . S
C3824 C3825 1.396 . S
C3824 C3829 1.390 . S
C3825 C3819 1.465 . S
C3825 C3824 1.396 . S
C3825 C3826 1.399 . S
C3826 H3812 0.929 . S
C3826 C3825 1.399 . S
C3826 C3827 1.385 . S
C3827 H3813 0.931 . S
C3827 C3826 1.385 . S
C3827 C3828 1.389 . S
C3828 C3827 1.389 . S
C3828 C3829 1.387 . S
C3829 H3814 0.930 . S
C3829 C3824 1.390 . S
C3829 C3828 1.387 . S
H3830 C3842 0.930 . S
H3831 C3844 0.930 . S
H3832 C3845 0.930 . S
H3833 C3849 0.959 . S
H3834 C3849 0.959 . S
H3835 C3849 0.961 . S
H3836 C3850 0.960 . S
H3837 C3850 0.961 . S
H3838 C3850 0.959 . S
H3839 C3853 0.929 . S
H3840 C3854 0.931 . S
H3841 C3856 0.930 . S
C3842 H3830 0.930 . S
C3842 C3843 1.399 . S
C3842 C3847 1.399 . S
C3843 C3842 1.399 . S
C3843 C3844 1.376 . S
C3844 H3831 0.930 . S
C3844 C3843 1.376 . S
C3844 C3845 1.388 . S
C3845 H3832 0.930 . S
C3845 C3844 1.388 . S
C3845 C3846 1.390 . S
C3846 C3845 1.390 . S
C3846 C3847 1.394 . S
C3846 C3852 1.465 . S
C3847 C3842 1.399 . S
C3847 C3846 1.394 . S
C3847 C3848 1.516 . S
C3848 C3847 1.516 . S
C3848 C3849 1.502 . S
C3848 C3850 1.561 . S
C3848 C3851 1.526 . S
C3849 H3833 0.959 . S
C3849 H3834 0.959 . S
C3849 H3835 0.961 . S
C3849 C3848 1.502 . S
C3850 H3836 0.960 . S
C3850 H3837 0.961 . S
C3850 H3838 0.959 . S
C3850 C3848 1.561 . S
C3851 C3848 1.526 . S
C3851 C3852 1.396 . S
C3851 C3856 1.390 . S
C3852 C3846 1.465 . S
C3852 C3851 1.396 . S
C3852 C3853 1.399 . S
C3853 H3839 0.929 . S
C3853 C3852 1.399 . S
C3853 C3854 1.385 . S
C3854 H3840 0.931 . S
C3854 C3853 1.385 . S
C3854 C3855 1.389 . S
C3855 C3854 1.389 . S
C3855 C3856 1.387 . S
C3856 H3841 0.930 . S
C3856 C3851 1.390 . S
C3856 C3855 1.387 . S
H3857 C3869 0.930 . S
H3858 C3871 0.930 . S
H3859 C3872 0.930 . S
H3860 C3876 0.959 . S
H3861 C3876 0.959 . S
H3862 C3876 0.961 . S
H3863 C3877 0.960 . S
H3864 C3877 0.961 . S
H3865 C3877 0.959 . S
H3866 C3880 0.929 . S
H3867 C3881 0.931 . S
H3868 C3883 0.930 . S
C3869 H3857 0.930 . S
C3869 C3870 1.399 . S
C3869 C3874 1.399 . S
C3870 C3869 1.399 . S
C3870 C3871 1.376 . S
C3871 H3858 0.930 . S
C3871 C3870 1.376 . S
C3871 C3872 1.388 . S
C3872 H3859 0.930 . S
C3872 C3871 1.388 . S
C3872 C3873 1.390 . S
C3873 C3872 1.390 . S
C3873 C3874 1.394 . S
C3873 C3879 1.465 . S
C3874 C3869 1.399 . S
C3874 C3873 1.394 . S
C3874 C3875 1.516 . S
C3875 C3874 1.516 . S
C3875 C3876 1.502 . S
C3875 C3877 1.561 . S
C3875 C3878 1.526 . S
C3876 H3860 0.959 . S
C3876 H3861 0.959 . S
C3876 H3862 0.961 . S
C3876 C3875 1.502 . S
C3877 H3863 0.960 . S
C3877 H3864 0.961 . S
C3877 H3865 0.959 . S
C3877 C3875 1.561 . S
C3878 C3875 1.526 . S
C3878 C3879 1.396 . S
C3878 C3883 1.390 . S
C3879 C3873 1.465 . S
C3879 C3878 1.396 . S
C3879 C3880 1.399 . S
C3880 H3866 0.929 . S
C3880 C3879 1.399 . S
C3880 C3881 1.385 . S
C3881 H3867 0.931 . S
C3881 C3880 1.385 . S
C3881 C3882 1.389 . S
C3882 C3881 1.389 . S
C3882 C3883 1.387 . S
C3883 H3868 0.930 . S
C3883 C3878 1.390 . S
C3883 C3882 1.387 . S
H3884 C3896 0.930 . S
H3885 C3898 0.930 . S
H3886 C3899 0.930 . S
H3887 C3903 0.959 . S
H3888 C3903 0.959 . S
H3889 C3903 0.961 . S
H3890 C3904 0.960 . S
H3891 C3904 0.961 . S
H3892 C3904 0.959 . S
H3893 C3907 0.929 . S
H3894 C3908 0.931 . S
H3895 C3910 0.930 . S
C3896 H3884 0.930 . S
C3896 C3897 1.399 . S
C3896 C3901 1.399 . S
C3897 C3896 1.399 . S
C3897 C3898 1.376 . S
C3898 H3885 0.930 . S
C3898 C3897 1.376 . S
C3898 C3899 1.388 . S
C3899 H3886 0.930 . S
C3899 C3898 1.388 . S
C3899 C3900 1.390 . S
C3900 C3899 1.390 . S
C3900 C3901 1.394 . S
C3900 C3906 1.465 . S
C3901 C3896 1.399 . S
C3901 C3900 1.394 . S
C3901 C3902 1.516 . S
C3902 C3901 1.516 . S
C3902 C3903 1.502 . S
C3902 C3904 1.561 . S
C3902 C3905 1.526 . S
C3903 H3887 0.959 . S
C3903 H3888 0.959 . S
C3903 H3889 0.961 . S
C3903 C3902 1.502 . S
C3904 H3890 0.960 . S
C3904 H3891 0.961 . S
C3904 H3892 0.959 . S
C3904 C3902 1.561 . S
C3905 C3902 1.526 . S
C3905 C3906 1.396 . S
C3905 C3910 1.390 . S
C3906 C3900 1.465 . S
C3906 C3905 1.396 . S
C3906 C3907 1.399 . S
C3907 H3893 0.929 . S
C3907 C3906 1.399 . S
C3907 C3908 1.385 . S
C3908 H3894 0.931 . S
C3908 C3907 1.385 . S
C3908 C3909 1.389 . S
C3909 C3908 1.389 . S
C3909 C3910 1.387 . S
C3910 H3895 0.930 . S
C3910 C3905 1.390 . S
C3910 C3909 1.387 . S
H3911 C3923 0.930 . S
H3912 C3925 0.930 . S
H3913 C3926 0.930 . S
H3914 C3930 0.959 . S
H3915 C3930 0.959 . S
H3916 C3930 0.961 . S
H3917 C3931 0.960 . S
H3918 C3931 0.961 . S
H3919 C3931 0.959 . S
H3920 C3934 0.929 . S
H3921 C3935 0.931 . S
H3922 C3937 0.930 . S
C3923 H3911 0.930 . S
C3923 C3924 1.399 . S
C3923 C3928 1.399 . S
C3924 C3923 1.399 . S
C3924 C3925 1.376 . S
C3925 H3912 0.930 . S
C3925 C3924 1.376 . S
C3925 C3926 1.388 . S
C3926 H3913 0.930 . S
C3926 C3925 1.388 . S
C3926 C3927 1.390 . S
C3927 C3926 1.390 . S
C3927 C3928 1.394 . S
C3927 C3933 1.465 . S
C3928 C3923 1.399 . S
C3928 C3927 1.394 . S
C3928 C3929 1.516 . S
C3929 C3928 1.516 . S
C3929 C3930 1.502 . S
C3929 C3931 1.561 . S
C3929 C3932 1.526 . S
C3930 H3914 0.959 . S
C3930 H3915 0.959 . S
C3930 H3916 0.961 . S
C3930 C3929 1.502 . S
C3931 H3917 0.960 . S
C3931 H3918 0.961 . S
C3931 H3919 0.959 . S
C3931 C3929 1.561 . S
C3932 C3929 1.526 . S
C3932 C3933 1.396 . S
C3932 C3937 1.390 . S
C3933 C3927 1.465 . S
C3933 C3932 1.396 . S
C3933 C3934 1.399 . S
C3934 H3920 0.929 . S
C3934 C3933 1.399 . S
C3934 C3935 1.385 . S
C3935 H3921 0.931 . S
C3935 C3934 1.385 . S
C3935 C3936 1.389 . S
C3936 C3935 1.389 . S
C3936 C3937 1.387 . S
C3937 H3922 0.930 . S
C3937 C3932 1.390 . S
C3937 C3936 1.387 . S
H3938 C3950 0.930 . S
H3939 C3952 0.930 . S
H3940 C3953 0.930 . S
H3941 C3957 0.959 . S
H3942 C3957 0.959 . S
H3943 C3957 0.961 . S
H3944 C3958 0.960 . S
H3945 C3958 0.961 . S
H3946 C3958 0.959 . S
H3947 C3961 0.929 . S
H3948 C3962 0.931 . S
H3949 C3964 0.930 . S
C3950 H3938 0.930 . S
C3950 C3951 1.399 . S
C3950 C3955 1.399 . S
C3951 C3950 1.399 . S
C3951 C3952 1.376 . S
C3952 H3939 0.930 . S
C3952 C3951 1.376 . S
C3952 C3953 1.388 . S
C3953 H3940 0.930 . S
C3953 C3952 1.388 . S
C3953 C3954 1.390 . S
C3954 C3953 1.390 . S
C3954 C3955 1.394 . S
C3954 C3960 1.465 . S
C3955 C3950 1.399 . S
C3955 C3954 1.394 . S
C3955 C3956 1.516 . S
C3956 C3955 1.516 . S
C3956 C3957 1.502 . S
C3956 C3958 1.561 . S
C3956 C3959 1.526 . S
C3957 H3941 0.959 . S
C3957 H3942 0.959 . S
C3957 H3943 0.961 . S
C3957 C3956 1.502 . S
C3958 H3944 0.960 . S
C3958 H3945 0.961 . S
C3958 H3946 0.959 . S
C3958 C3956 1.561 . S
C3959 C3956 1.526 . S
C3959 C3960 1.396 . S
C3959 C3964 1.390 . S
C3960 C3954 1.465 . S
C3960 C3959 1.396 . S
C3960 C3961 1.399 . S
C3961 H3947 0.929 . S
C3961 C3960 1.399 . S
C3961 C3962 1.385 . S
C3962 H3948 0.931 . S
C3962 C3961 1.385 . S
C3962 C3963 1.389 . S
C3963 C3962 1.389 . S
C3963 C3964 1.387 . S
C3964 H3949 0.930 . S
C3964 C3959 1.390 . S
C3964 C3963 1.387 . S
H3965 C3977 0.930 . S
H3966 C3979 0.930 . S
H3967 C3980 0.930 . S
H3968 C3984 0.959 . S
H3969 C3984 0.959 . S
H3970 C3984 0.961 . S
H3971 C3985 0.960 . S
H3972 C3985 0.961 . S
H3973 C3985 0.959 . S
H3974 C3988 0.929 . S
H3975 C3989 0.931 . S
H3976 C3991 0.930 . S
C3977 H3965 0.930 . S
C3977 C3978 1.399 . S
C3977 C3982 1.399 . S
C3978 C3977 1.399 . S
C3978 C3979 1.376 . S
C3979 H3966 0.930 . S
C3979 C3978 1.376 . S
C3979 C3980 1.388 . S
C3980 H3967 0.930 . S
C3980 C3979 1.388 . S
C3980 C3981 1.390 . S
C3981 C3980 1.390 . S
C3981 C3982 1.394 . S
C3981 C3987 1.465 . S
C3982 C3977 1.399 . S
C3982 C3981 1.394 . S
C3982 C3983 1.516 . S
C3983 C3982 1.516 . S
C3983 C3984 1.502 . S
C3983 C3985 1.561 . S
C3983 C3986 1.526 . S
C3984 H3968 0.959 . S
C3984 H3969 0.959 . S
C3984 H3970 0.961 . S
C3984 C3983 1.502 . S
C3985 H3971 0.960 . S
C3985 H3972 0.961 . S
C3985 H3973 0.959 . S
C3985 C3983 1.561 . S
C3986 C3983 1.526 . S
C3986 C3987 1.396 . S
C3986 C3991 1.390 . S
C3987 C3981 1.465 . S
C3987 C3986 1.396 . S
C3987 C3988 1.399 . S
C3988 H3974 0.929 . S
C3988 C3987 1.399 . S
C3988 C3989 1.385 . S
C3989 H3975 0.931 . S
C3989 C3988 1.385 . S
C3989 C3990 1.389 . S
C3990 C3989 1.389 . S
C3990 C3991 1.387 . S
C3991 H3976 0.930 . S
C3991 C3986 1.390 . S
C3991 C3990 1.387 . S
H3992 C4004 0.930 . S
H3993 C4006 0.930 . S
H3994 C4007 0.930 . S
H3995 C4011 0.959 . S
H3996 C4011 0.959 . S
H3997 C4011 0.961 . S
H3998 C4012 0.960 . S
H3999 C4012 0.961 . S
H4000 C4012 0.959 . S
H4001 C4015 0.929 . S
H4002 C4016 0.931 . S
H4003 C4018 0.930 . S
C4004 H3992 0.930 . S
C4004 C4005 1.399 . S
C4004 C4009 1.399 . S
C4005 C4004 1.399 . S
C4005 C4006 1.376 . S
C4006 H3993 0.930 . S
C4006 C4005 1.376 . S
C4006 C4007 1.388 . S
C4007 H3994 0.930 . S
C4007 C4006 1.388 . S
C4007 C4008 1.390 . S
C4008 C4007 1.390 . S
C4008 C4009 1.394 . S
C4008 C4014 1.465 . S
C4009 C4004 1.399 . S
C4009 C4008 1.394 . S
C4009 C4010 1.516 . S
C4010 C4009 1.516 . S
C4010 C4011 1.502 . S
C4010 C4012 1.561 . S
C4010 C4013 1.526 . S
C4011 H3995 0.959 . S
C4011 H3996 0.959 . S
C4011 H3997 0.961 . S
C4011 C4010 1.502 . S
C4012 H3998 0.960 . S
C4012 H3999 0.961 . S
C4012 H4000 0.959 . S
C4012 C4010 1.561 . S
C4013 C4010 1.526 . S
C4013 C4014 1.396 . S
C4013 C4018 1.390 . S
C4014 C4008 1.465 . S
C4014 C4013 1.396 . S
C4014 C4015 1.399 . S
C4015 H4001 0.929 . S
C4015 C4014 1.399 . S
C4015 C4016 1.385 . S
C4016 H4002 0.931 . S
C4016 C4015 1.385 . S
C4016 C4017 1.389 . S
C4017 C4016 1.389 . S
C4017 C4018 1.387 . S
C4018 H4003 0.930 . S
C4018 C4013 1.390 . S
C4018 C4017 1.387 . S
H4019 C4031 0.930 . S
H4020 C4033 0.930 . S
H4021 C4034 0.930 . S
H4022 C4038 0.959 . S
H4023 C4038 0.959 . S
H4024 C4038 0.961 . S
H4025 C4039 0.960 . S
H4026 C4039 0.961 . S
H4027 C4039 0.959 . S
H4028 C4042 0.929 . S
H4029 C4043 0.931 . S
H4030 C4045 0.930 . S
C4031 H4019 0.930 . S
C4031 C4032 1.399 . S
C4031 C4036 1.399 . S
C4032 C4031 1.399 . S
C4032 C4033 1.376 . S
C4033 H4020 0.930 . S
C4033 C4032 1.376 . S
C4033 C4034 1.388 . S
C4034 H4021 0.930 . S
C4034 C4033 1.388 . S
C4034 C4035 1.390 . S
C4035 C4034 1.390 . S
C4035 C4036 1.394 . S
C4035 C4041 1.465 . S
C4036 C4031 1.399 . S
C4036 C4035 1.394 . S
C4036 C4037 1.516 . S
C4037 C4036 1.516 . S
C4037 C4038 1.502 . S
C4037 C4039 1.561 . S
C4037 C4040 1.526 . S
C4038 H4022 0.959 . S
C4038 H4023 0.959 . S
C4038 H4024 0.961 . S
C4038 C4037 1.502 . S
C4039 H4025 0.960 . S
C4039 H4026 0.961 . S
C4039 H4027 0.959 . S
C4039 C4037 1.561 . S
C4040 C4037 1.526 . S
C4040 C4041 1.396 . S
C4040 C4045 1.390 . S
C4041 C4035 1.465 . S
C4041 C4040 1.396 . S
C4041 C4042 1.399 . S
C4042 H4028 0.929 . S
C4042 C4041 1.399 . S
C4042 C4043 1.385 . S
C4043 H4029 0.931 . S
C4043 C4042 1.385 . S
C4043 C4044 1.389 . S
C4044 C4043 1.389 . S
C4044 C4045 1.387 . S
C4045 H4030 0.930 . S
C4045 C4040 1.390 . S
C4045 C4044 1.387 . S
H4046 C4058 0.930 . S
H4047 C4060 0.930 . S
H4048 C4061 0.930 . S
H4049 C4065 0.959 . S
H4050 C4065 0.959 . S
H4051 C4065 0.961 . S
H4052 C4066 0.960 . S
H4053 C4066 0.961 . S
H4054 C4066 0.959 . S
H4055 C4069 0.929 . S
H4056 C4070 0.931 . S
H4057 C4072 0.930 . S
C4058 H4046 0.930 . S
C4058 C4059 1.399 . S
C4058 C4063 1.399 . S
C4059 C4058 1.399 . S
C4059 C4060 1.376 . S
C4060 H4047 0.930 . S
C4060 C4059 1.376 . S
C4060 C4061 1.388 . S
C4061 H4048 0.930 . S
C4061 C4060 1.388 . S
C4061 C4062 1.390 . S
C4062 C4061 1.390 . S
C4062 C4063 1.394 . S
C4062 C4068 1.465 . S
C4063 C4058 1.399 . S
C4063 C4062 1.394 . S
C4063 C4064 1.516 . S
C4064 C4063 1.516 . S
C4064 C4065 1.502 . S
C4064 C4066 1.561 . S
C4064 C4067 1.526 . S
C4065 H4049 0.959 . S
C4065 H4050 0.959 . S
C4065 H4051 0.961 . S
C4065 C4064 1.502 . S
C4066 H4052 0.960 . S
C4066 H4053 0.961 . S
C4066 H4054 0.959 . S
C4066 C4064 1.561 . S
C4067 C4064 1.526 . S
C4067 C4068 1.396 . S
C4067 C4072 1.390 . S
C4068 C4062 1.465 . S
C4068 C4067 1.396 . S
C4068 C4069 1.399 . S
C4069 H4055 0.929 . S
C4069 C4068 1.399 . S
C4069 C4070 1.385 . S
C4070 H4056 0.931 . S
C4070 C4069 1.385 . S
C4070 C4071 1.389 . S
C4071 C4070 1.389 . S
C4071 C4072 1.387 . S
C4072 H4057 0.930 . S
C4072 C4067 1.390 . S
C4072 C4071 1.387 . S
H4073 C4085 0.930 . S
H4074 C4087 0.930 . S
H4075 C4088 0.930 . S
H4076 C4092 0.959 . S
H4077 C4092 0.959 . S
H4078 C4092 0.961 . S
H4079 C4093 0.960 . S
H4080 C4093 0.961 . S
H4081 C4093 0.959 . S
H4082 C4096 0.929 . S
H4083 C4097 0.931 . S
H4084 C4099 0.930 . S
C4085 H4073 0.930 . S
C4085 C4086 1.399 . S
C4085 C4090 1.399 . S
C4086 C4085 1.399 . S
C4086 C4087 1.376 . S
C4087 H4074 0.930 . S
C4087 C4086 1.376 . S
C4087 C4088 1.388 . S
C4088 H4075 0.930 . S
C4088 C4087 1.388 . S
C4088 C4089 1.390 . S
C4089 C4088 1.390 . S
C4089 C4090 1.394 . S
C4089 C4095 1.465 . S
C4090 C4085 1.399 . S
C4090 C4089 1.394 . S
C4090 C4091 1.516 . S
C4091 C4090 1.516 . S
C4091 C4092 1.502 . S
C4091 C4093 1.561 . S
C4091 C4094 1.526 . S
C4092 H4076 0.959 . S
C4092 H4077 0.959 . S
C4092 H4078 0.961 . S
C4092 C4091 1.502 . S
C4093 H4079 0.960 . S
C4093 H4080 0.961 . S
C4093 H4081 0.959 . S
C4093 C4091 1.561 . S
C4094 C4091 1.526 . S
C4094 C4095 1.396 . S
C4094 C4099 1.390 . S
C4095 C4089 1.465 . S
C4095 C4094 1.396 . S
C4095 C4096 1.399 . S
C4096 H4082 0.929 . S
C4096 C4095 1.399 . S
C4096 C4097 1.385 . S
C4097 H4083 0.931 . S
C4097 C4096 1.385 . S
C4097 C4098 1.389 . S
C4098 C4097 1.389 . S
C4098 C4099 1.387 . S
C4099 H4084 0.930 . S
C4099 C4094 1.390 . S
C4099 C4098 1.387 . S
H4100 C4112 0.930 . S
H4101 C4114 0.930 . S
H4102 C4115 0.930 . S
H4103 C4119 0.959 . S
H4104 C4119 0.959 . S
H4105 C4119 0.961 . S
H4106 C4120 0.960 . S
H4107 C4120 0.961 . S
H4108 C4120 0.959 . S
H4109 C4123 0.929 . S
H4110 C4124 0.931 . S
H4111 C4126 0.930 . S
C4112 H4100 0.930 . S
C4112 C4113 1.399 . S
C4112 C4117 1.399 . S
C4113 C4112 1.399 . S
C4113 C4114 1.376 . S
C4114 H4101 0.930 . S
C4114 C4113 1.376 . S
C4114 C4115 1.388 . S
C4115 H4102 0.930 . S
C4115 C4114 1.388 . S
C4115 C4116 1.390 . S
C4116 C4115 1.390 . S
C4116 C4117 1.394 . S
C4116 C4122 1.465 . S
C4117 C4112 1.399 . S
C4117 C4116 1.394 . S
C4117 C4118 1.516 . S
C4118 C4117 1.516 . S
C4118 C4119 1.502 . S
C4118 C4120 1.561 . S
C4118 C4121 1.526 . S
C4119 H4103 0.959 . S
C4119 H4104 0.959 . S
C4119 H4105 0.961 . S
C4119 C4118 1.502 . S
C4120 H4106 0.960 . S
C4120 H4107 0.961 . S
C4120 H4108 0.959 . S
C4120 C4118 1.561 . S
C4121 C4118 1.526 . S
C4121 C4122 1.396 . S
C4121 C4126 1.390 . S
C4122 C4116 1.465 . S
C4122 C4121 1.396 . S
C4122 C4123 1.399 . S
C4123 H4109 0.929 . S
C4123 C4122 1.399 . S
C4123 C4124 1.385 . S
C4124 H4110 0.931 . S
C4124 C4123 1.385 . S
C4124 C4125 1.389 . S
C4125 C4124 1.389 . S
C4125 C4126 1.387 . S
C4126 H4111 0.930 . S
C4126 C4121 1.390 . S
C4126 C4125 1.387 . S
H4127 C4139 0.930 . S
H4128 C4141 0.930 . S
H4129 C4142 0.930 . S
H4130 C4146 0.959 . S
H4131 C4146 0.959 . S
H4132 C4146 0.961 . S
H4133 C4147 0.960 . S
H4134 C4147 0.961 . S
H4135 C4147 0.959 . S
H4136 C4150 0.929 . S
H4137 C4151 0.931 . S
H4138 C4153 0.930 . S
C4139 H4127 0.930 . S
C4139 C4140 1.399 . S
C4139 C4144 1.399 . S
C4140 C4139 1.399 . S
C4140 C4141 1.376 . S
C4141 H4128 0.930 . S
C4141 C4140 1.376 . S
C4141 C4142 1.388 . S
C4142 H4129 0.930 . S
C4142 C4141 1.388 . S
C4142 C4143 1.390 . S
C4143 C4142 1.390 . S
C4143 C4144 1.394 . S
C4143 C4149 1.465 . S
C4144 C4139 1.399 . S
C4144 C4143 1.394 . S
C4144 C4145 1.516 . S
C4145 C4144 1.516 . S
C4145 C4146 1.502 . S
C4145 C4147 1.561 . S
C4145 C4148 1.526 . S
C4146 H4130 0.959 . S
C4146 H4131 0.959 . S
C4146 H4132 0.961 . S
C4146 C4145 1.502 . S
C4147 H4133 0.960 . S
C4147 H4134 0.961 . S
C4147 H4135 0.959 . S
C4147 C4145 1.561 . S
C4148 C4145 1.526 . S
C4148 C4149 1.396 . S
C4148 C4153 1.390 . S
C4149 C4143 1.465 . S
C4149 C4148 1.396 . S
C4149 C4150 1.399 . S
C4150 H4136 0.929 . S
C4150 C4149 1.399 . S
C4150 C4151 1.385 . S
C4151 H4137 0.931 . S
C4151 C4150 1.385 . S
C4151 C4152 1.389 . S
C4152 C4151 1.389 . S
C4152 C4153 1.387 . S
C4153 H4138 0.930 . S
C4153 C4148 1.390 . S
C4153 C4152 1.387 . S
H4154 C4166 0.930 . S
H4155 C4168 0.930 . S
H4156 C4169 0.930 . S
H4157 C4173 0.959 . S
H4158 C4173 0.959 . S
H4159 C4173 0.961 . S
H4160 C4174 0.960 . S
H4161 C4174 0.961 . S
H4162 C4174 0.959 . S
H4163 C4177 0.929 . S
H4164 C4178 0.931 . S
H4165 C4180 0.930 . S
C4166 H4154 0.930 . S
C4166 C4167 1.399 . S
C4166 C4171 1.399 . S
C4167 C4166 1.399 . S
C4167 C4168 1.376 . S
C4168 H4155 0.930 . S
C4168 C4167 1.376 . S
C4168 C4169 1.388 . S
C4169 H4156 0.930 . S
C4169 C4168 1.388 . S
C4169 C4170 1.390 . S
C4170 C4169 1.390 . S
C4170 C4171 1.394 . S
C4170 C4176 1.465 . S
C4171 C4166 1.399 . S
C4171 C4170 1.394 . S
C4171 C4172 1.516 . S
C4172 C4171 1.516 . S
C4172 C4173 1.502 . S
C4172 C4174 1.561 . S
C4172 C4175 1.526 . S
C4173 H4157 0.959 . S
C4173 H4158 0.959 . S
C4173 H4159 0.961 . S
C4173 C4172 1.502 . S
C4174 H4160 0.960 . S
C4174 H4161 0.961 . S
C4174 H4162 0.959 . S
C4174 C4172 1.561 . S
C4175 C4172 1.526 . S
C4175 C4176 1.396 . S
C4175 C4180 1.390 . S
C4176 C4170 1.465 . S
C4176 C4175 1.396 . S
C4176 C4177 1.399 . S
C4177 H4163 0.929 . S
C4177 C4176 1.399 . S
C4177 C4178 1.385 . S
C4178 H4164 0.931 . S
C4178 C4177 1.385 . S
C4178 C4179 1.389 . S
C4179 C4178 1.389 . S
C4179 C4180 1.387 . S
C4180 H4165 0.930 . S
C4180 C4175 1.390 . S
C4180 C4179 1.387 . S
H4181 C4193 0.930 . S
H4182 C4195 0.930 . S
H4183 C4196 0.930 . S
H4184 C4200 0.959 . S
H4185 C4200 0.959 . S
H4186 C4200 0.961 . S
H4187 C4201 0.960 . S
H4188 C4201 0.961 . S
H4189 C4201 0.959 . S
H4190 C4204 0.929 . S
H4191 C4205 0.931 . S
H4192 C4207 0.930 . S
C4193 H4181 0.930 . S
C4193 C4194 1.399 . S
C4193 C4198 1.399 . S
C4194 C4193 1.399 . S
C4194 C4195 1.376 . S
C4195 H4182 0.930 . S
C4195 C4194 1.376 . S
C4195 C4196 1.388 . S
C4196 H4183 0.930 . S
C4196 C4195 1.388 . S
C4196 C4197 1.390 . S
C4197 C4196 1.390 . S
C4197 C4198 1.394 . S
C4197 C4203 1.465 . S
C4198 C4193 1.399 . S
C4198 C4197 1.394 . S
C4198 C4199 1.516 . S
C4199 C4198 1.516 . S
C4199 C4200 1.502 . S
C4199 C4201 1.561 . S
C4199 C4202 1.526 . S
C4200 H4184 0.959 . S
C4200 H4185 0.959 . S
C4200 H4186 0.961 . S
C4200 C4199 1.502 . S
C4201 H4187 0.960 . S
C4201 H4188 0.961 . S
C4201 H4189 0.959 . S
C4201 C4199 1.561 . S
C4202 C4199 1.526 . S
C4202 C4203 1.396 . S
C4202 C4207 1.390 . S
C4203 C4197 1.465 . S
C4203 C4202 1.396 . S
C4203 C4204 1.399 . S
C4204 H4190 0.929 . S
C4204 C4203 1.399 . S
C4204 C4205 1.385 . S
C4205 H4191 0.931 . S
C4205 C4204 1.385 . S
C4205 C4206 1.389 . S
C4206 C4205 1.389 . S
C4206 C4207 1.387 . S
C4207 H4192 0.930 . S
C4207 C4202 1.390 . S
C4207 C4206 1.387 . S
H4208 C4220 0.930 . S
H4209 C4222 0.930 . S
H4210 C4223 0.930 . S
H4211 C4227 0.959 . S
H4212 C4227 0.959 . S
H4213 C4227 0.961 . S
H4214 C4228 0.960 . S
H4215 C4228 0.961 . S
H4216 C4228 0.959 . S
H4217 C4231 0.929 . S
H4218 C4232 0.931 . S
H4219 C4234 0.930 . S
C4220 H4208 0.930 . S
C4220 C4221 1.399 . S
C4220 C4225 1.399 . S
C4221 C4220 1.399 . S
C4221 C4222 1.376 . S
C4222 H4209 0.930 . S
C4222 C4221 1.376 . S
C4222 C4223 1.388 . S
C4223 H4210 0.930 . S
C4223 C4222 1.388 . S
C4223 C4224 1.390 . S
C4224 C4223 1.390 . S
C4224 C4225 1.394 . S
C4224 C4230 1.465 . S
C4225 C4220 1.399 . S
C4225 C4224 1.394 . S
C4225 C4226 1.516 . S
C4226 C4225 1.516 . S
C4226 C4227 1.502 . S
C4226 C4228 1.561 . S
C4226 C4229 1.526 . S
C4227 H4211 0.959 . S
C4227 H4212 0.959 . S
C4227 H4213 0.961 . S
C4227 C4226 1.502 . S
C4228 H4214 0.960 . S
C4228 H4215 0.961 . S
C4228 H4216 0.959 . S
C4228 C4226 1.561 . S
C4229 C4226 1.526 . S
C4229 C4230 1.396 . S
C4229 C4234 1.390 . S
C4230 C4224 1.465 . S
C4230 C4229 1.396 . S
C4230 C4231 1.399 . S
C4231 H4217 0.929 . S
C4231 C4230 1.399 . S
C4231 C4232 1.385 . S
C4232 H4218 0.931 . S
C4232 C4231 1.385 . S
C4232 C4233 1.389 . S
C4233 C4232 1.389 . S
C4233 C4234 1.387 . S
C4234 H4219 0.930 . S
C4234 C4229 1.390 . S
C4234 C4233 1.387 . S
H4235 C4247 0.930 . S
H4236 C4249 0.930 . S
H4237 C4250 0.930 . S
H4238 C4254 0.959 . S
H4239 C4254 0.959 . S
H4240 C4254 0.961 . S
H4241 C4255 0.960 . S
H4242 C4255 0.961 . S
H4243 C4255 0.959 . S
H4244 C4258 0.929 . S
H4245 C4259 0.931 . S
H4246 C4261 0.930 . S
C4247 H4235 0.930 . S
C4247 C4248 1.399 . S
C4247 C4252 1.399 . S
C4248 C4247 1.399 . S
C4248 C4249 1.376 . S
C4249 H4236 0.930 . S
C4249 C4248 1.376 . S
C4249 C4250 1.388 . S
C4250 H4237 0.930 . S
C4250 C4249 1.388 . S
C4250 C4251 1.390 . S
C4251 C4250 1.390 . S
C4251 C4252 1.394 . S
C4251 C4257 1.465 . S
C4252 C4247 1.399 . S
C4252 C4251 1.394 . S
C4252 C4253 1.516 . S
C4253 C4252 1.516 . S
C4253 C4254 1.502 . S
C4253 C4255 1.561 . S
C4253 C4256 1.526 . S
C4254 H4238 0.959 . S
C4254 H4239 0.959 . S
C4254 H4240 0.961 . S
C4254 C4253 1.502 . S
C4255 H4241 0.960 . S
C4255 H4242 0.961 . S
C4255 H4243 0.959 . S
C4255 C4253 1.561 . S
C4256 C4253 1.526 . S
C4256 C4257 1.396 . S
C4256 C4261 1.390 . S
C4257 C4251 1.465 . S
C4257 C4256 1.396 . S
C4257 C4258 1.399 . S
C4258 H4244 0.929 . S
C4258 C4257 1.399 . S
C4258 C4259 1.385 . S
C4259 H4245 0.931 . S
C4259 C4258 1.385 . S
C4259 C4260 1.389 . S
C4260 C4259 1.389 . S
C4260 C4261 1.387 . S
C4261 H4246 0.930 . S
C4261 C4256 1.390 . S
C4261 C4260 1.387 . S
H4262 C4274 0.930 . S
H4263 C4276 0.930 . S
H4264 C4277 0.930 . S
H4265 C4281 0.959 . S
H4266 C4281 0.959 . S
H4267 C4281 0.961 . S
H4268 C4282 0.960 . S
H4269 C4282 0.961 . S
H4270 C4282 0.959 . S
H4271 C4285 0.929 . S
H4272 C4286 0.931 . S
H4273 C4288 0.930 . S
C4274 H4262 0.930 . S
C4274 C4275 1.399 . S
C4274 C4279 1.399 . S
C4275 C4274 1.399 . S
C4275 C4276 1.376 . S
C4276 H4263 0.930 . S
C4276 C4275 1.376 . S
C4276 C4277 1.388 . S
C4277 H4264 0.930 . S
C4277 C4276 1.388 . S
C4277 C4278 1.390 . S
C4278 C4277 1.390 . S
C4278 C4279 1.394 . S
C4278 C4284 1.465 . S
C4279 C4274 1.399 . S
C4279 C4278 1.394 . S
C4279 C4280 1.516 . S
C4280 C4279 1.516 . S
C4280 C4281 1.502 . S
C4280 C4282 1.561 . S
C4280 C4283 1.526 . S
C4281 H4265 0.959 . S
C4281 H4266 0.959 . S
C4281 H4267 0.961 . S
C4281 C4280 1.502 . S
C4282 H4268 0.960 . S
C4282 H4269 0.961 . S
C4282 H4270 0.959 . S
C4282 C4280 1.561 . S
C4283 C4280 1.526 . S
C4283 C4284 1.396 . S
C4283 C4288 1.390 . S
C4284 C4278 1.465 . S
C4284 C4283 1.396 . S
C4284 C4285 1.399 . S
C4285 H4271 0.929 . S
C4285 C4284 1.399 . S
C4285 C4286 1.385 . S
C4286 H4272 0.931 . S
C4286 C4285 1.385 . S
C4286 C4287 1.389 . S
C4287 C4286 1.389 . S
C4287 C4288 1.387 . S
C4288 H4273 0.930 . S
C4288 C4283 1.390 . S
C4288 C4287 1.387 . S
H4289 C4301 0.930 . S
H4290 C4303 0.930 . S
H4291 C4304 0.930 . S
H4292 C4308 0.959 . S
H4293 C4308 0.959 . S
H4294 C4308 0.961 . S
H4295 C4309 0.960 . S
H4296 C4309 0.961 . S
H4297 C4309 0.959 . S
H4298 C4312 0.929 . S
H4299 C4313 0.931 . S
H4300 C4315 0.930 . S
C4301 H4289 0.930 . S
C4301 C4302 1.399 . S
C4301 C4306 1.399 . S
C4302 C4301 1.399 . S
C4302 C4303 1.376 . S
C4303 H4290 0.930 . S
C4303 C4302 1.376 . S
C4303 C4304 1.388 . S
C4304 H4291 0.930 . S
C4304 C4303 1.388 . S
C4304 C4305 1.390 . S
C4305 C4304 1.390 . S
C4305 C4306 1.394 . S
C4305 C4311 1.465 . S
C4306 C4301 1.399 . S
C4306 C4305 1.394 . S
C4306 C4307 1.516 . S
C4307 C4306 1.516 . S
C4307 C4308 1.502 . S
C4307 C4309 1.561 . S
C4307 C4310 1.526 . S
C4308 H4292 0.959 . S
C4308 H4293 0.959 . S
C4308 H4294 0.961 . S
C4308 C4307 1.502 . S
C4309 H4295 0.960 . S
C4309 H4296 0.961 . S
C4309 H4297 0.959 . S
C4309 C4307 1.561 . S
C4310 C4307 1.526 . S
C4310 C4311 1.396 . S
C4310 C4315 1.390 . S
C4311 C4305 1.465 . S
C4311 C4310 1.396 . S
C4311 C4312 1.399 . S
C4312 H4298 0.929 . S
C4312 C4311 1.399 . S
C4312 C4313 1.385 . S
C4313 H4299 0.931 . S
C4313 C4312 1.385 . S
C4313 C4314 1.389 . S
C4314 C4313 1.389 . S
C4314 C4315 1.387 . S
C4315 H4300 0.930 . S
C4315 C4310 1.390 . S
C4315 C4314 1.387 . S
H4316 C4328 0.930 . S
H4317 C4330 0.930 . S
H4318 C4331 0.930 . S
H4319 C4335 0.959 . S
H4320 C4335 0.959 . S
H4321 C4335 0.961 . S
H4322 C4336 0.960 . S
H4323 C4336 0.961 . S
H4324 C4336 0.959 . S
H4325 C4339 0.929 . S
H4326 C4340 0.931 . S
H4327 C4342 0.930 . S
C4328 H4316 0.930 . S
C4328 C4329 1.399 . S
C4328 C4333 1.399 . S
C4329 C4328 1.399 . S
C4329 C4330 1.376 . S
C4330 H4317 0.930 . S
C4330 C4329 1.376 . S
C4330 C4331 1.388 . S
C4331 H4318 0.930 . S
C4331 C4330 1.388 . S
C4331 C4332 1.390 . S
C4332 C4331 1.390 . S
C4332 C4333 1.394 . S
C4332 C4338 1.465 . S
C4333 C4328 1.399 . S
C4333 C4332 1.394 . S
C4333 C4334 1.516 . S
C4334 C4333 1.516 . S
C4334 C4335 1.502 . S
C4334 C4336 1.561 . S
C4334 C4337 1.526 . S
C4335 H4319 0.959 . S
C4335 H4320 0.959 . S
C4335 H4321 0.961 . S
C4335 C4334 1.502 . S
C4336 H4322 0.960 . S
C4336 H4323 0.961 . S
C4336 H4324 0.959 . S
C4336 C4334 1.561 . S
C4337 C4334 1.526 . S
C4337 C4338 1.396 . S
C4337 C4342 1.390 . S
C4338 C4332 1.465 . S
C4338 C4337 1.396 . S
C4338 C4339 1.399 . S
C4339 H4325 0.929 . S
C4339 C4338 1.399 . S
C4339 C4340 1.385 . S
C4340 H4326 0.931 . S
C4340 C4339 1.385 . S
C4340 C4341 1.389 . S
C4341 C4340 1.389 . S
C4341 C4342 1.387 . S
C4342 H4327 0.930 . S
C4342 C4337 1.390 . S
C4342 C4341 1.387 . S
H4343 C4355 0.930 . S
H4344 C4357 0.930 . S
H4345 C4358 0.930 . S
H4346 C4362 0.959 . S
H4347 C4362 0.959 . S
H4348 C4362 0.961 . S
H4349 C4363 0.960 . S
H4350 C4363 0.961 . S
H4351 C4363 0.959 . S
H4352 C4366 0.929 . S
H4353 C4367 0.931 . S
H4354 C4369 0.930 . S
C4355 H4343 0.930 . S
C4355 C4356 1.399 . S
C4355 C4360 1.399 . S
C4356 C4355 1.399 . S
C4356 C4357 1.376 . S
C4357 H4344 0.930 . S
C4357 C4356 1.376 . S
C4357 C4358 1.388 . S
C4358 H4345 0.930 . S
C4358 C4357 1.388 . S
C4358 C4359 1.390 . S
C4359 C4358 1.390 . S
C4359 C4360 1.394 . S
C4359 C4365 1.465 . S
C4360 C4355 1.399 . S
C4360 C4359 1.394 . S
C4360 C4361 1.516 . S
C4361 C4360 1.516 . S
C4361 C4362 1.502 . S
C4361 C4363 1.561 . S
C4361 C4364 1.526 . S
C4362 H4346 0.959 . S
C4362 H4347 0.959 . S
C4362 H4348 0.961 . S
C4362 C4361 1.502 . S
C4363 H4349 0.960 . S
C4363 H4350 0.961 . S
C4363 H4351 0.959 . S
C4363 C4361 1.561 . S
C4364 C4361 1.526 . S
C4364 C4365 1.396 . S
C4364 C4369 1.390 . S
C4365 C4359 1.465 . S
C4365 C4364 1.396 . S
C4365 C4366 1.399 . S
C4366 H4352 0.929 . S
C4366 C4365 1.399 . S
C4366 C4367 1.385 . S
C4367 H4353 0.931 . S
C4367 C4366 1.385 . S
C4367 C4368 1.389 . S
C4368 C4367 1.389 . S
C4368 C4369 1.387 . S
C4369 H4354 0.930 . S
C4369 C4364 1.390 . S
C4369 C4368 1.387 . S
H4370 C4382 0.930 . S
H4371 C4384 0.930 . S
H4372 C4385 0.930 . S
H4373 C4389 0.959 . S
H4374 C4389 0.959 . S
H4375 C4389 0.961 . S
H4376 C4390 0.960 . S
H4377 C4390 0.961 . S
H4378 C4390 0.959 . S
H4379 C4393 0.929 . S
H4380 C4394 0.931 . S
H4381 C4396 0.930 . S
C4382 H4370 0.930 . S
C4382 C4383 1.399 . S
C4382 C4387 1.399 . S
C4383 C4382 1.399 . S
C4383 C4384 1.376 . S
C4384 H4371 0.930 . S
C4384 C4383 1.376 . S
C4384 C4385 1.388 . S
C4385 H4372 0.930 . S
C4385 C4384 1.388 . S
C4385 C4386 1.390 . S
C4386 C4385 1.390 . S
C4386 C4387 1.394 . S
C4386 C4392 1.465 . S
C4387 C4382 1.399 . S
C4387 C4386 1.394 . S
C4387 C4388 1.516 . S
C4388 C4387 1.516 . S
C4388 C4389 1.502 . S
C4388 C4390 1.561 . S
C4388 C4391 1.526 . S
C4389 H4373 0.959 . S
C4389 H4374 0.959 . S
C4389 H4375 0.961 . S
C4389 C4388 1.502 . S
C4390 H4376 0.960 . S
C4390 H4377 0.961 . S
C4390 H4378 0.959 . S
C4390 C4388 1.561 . S
C4391 C4388 1.526 . S
C4391 C4392 1.396 . S
C4391 C4396 1.390 . S
C4392 C4386 1.465 . S
C4392 C4391 1.396 . S
C4392 C4393 1.399 . S
C4393 H4379 0.929 . S
C4393 C4392 1.399 . S
C4393 C4394 1.385 . S
C4394 H4380 0.931 . S
C4394 C4393 1.385 . S
C4394 C4395 1.389 . S
C4395 C4394 1.389 . S
C4395 C4396 1.387 . S
C4396 H4381 0.930 . S
C4396 C4391 1.390 . S
C4396 C4395 1.387 . S
H4397 C4409 0.930 . S
H4398 C4411 0.930 . S
H4399 C4412 0.930 . S
H4400 C4416 0.959 . S
H4401 C4416 0.959 . S
H4402 C4416 0.961 . S
H4403 C4417 0.960 . S
H4404 C4417 0.961 . S
H4405 C4417 0.959 . S
H4406 C4420 0.929 . S
H4407 C4421 0.931 . S
H4408 C4423 0.930 . S
C4409 H4397 0.930 . S
C4409 C4410 1.399 . S
C4409 C4414 1.399 . S
C4410 C4409 1.399 . S
C4410 C4411 1.376 . S
C4411 H4398 0.930 . S
C4411 C4410 1.376 . S
C4411 C4412 1.388 . S
C4412 H4399 0.930 . S
C4412 C4411 1.388 . S
C4412 C4413 1.390 . S
C4413 C4412 1.390 . S
C4413 C4414 1.394 . S
C4413 C4419 1.465 . S
C4414 C4409 1.399 . S
C4414 C4413 1.394 . S
C4414 C4415 1.516 . S
C4415 C4414 1.516 . S
C4415 C4416 1.502 . S
C4415 C4417 1.561 . S
C4415 C4418 1.526 . S
C4416 H4400 0.959 . S
C4416 H4401 0.959 . S
C4416 H4402 0.961 . S
C4416 C4415 1.502 . S
C4417 H4403 0.960 . S
C4417 H4404 0.961 . S
C4417 H4405 0.959 . S
C4417 C4415 1.561 . S
C4418 C4415 1.526 . S
C4418 C4419 1.396 . S
C4418 C4423 1.390 . S
C4419 C4413 1.465 . S
C4419 C4418 1.396 . S
C4419 C4420 1.399 . S
C4420 H4406 0.929 . S
C4420 C4419 1.399 . S
C4420 C4421 1.385 . S
C4421 H4407 0.931 . S
C4421 C4420 1.385 . S
C4421 C4422 1.389 . S
C4422 C4421 1.389 . S
C4422 C4423 1.387 . S
C4423 H4408 0.930 . S
C4423 C4418 1.390 . S
C4423 C4422 1.387 . S
C1857 N1292 1.460 . S
C1845 C21 1.527 . S
C1884 C1319 1.537 . S
C1872 C42 1.491 . S
C1899 C82 1.518 . S
C1911 C1333 1.523 . S
C1938 N1351 1.463 . S
C1926 C135 1.463 . S
C1953 C175 1.497 . S
C1965 C1356 1.503 . S
C1980 C221 1.508 . S
C1992 C1296 1.513 . S
C2007 C255 1.399 . S
C2019 N1315 1.374 . S
C2046 N1328 1.484 . S
C2034 C301 1.551 . S
C2073 N1374 1.420 . S
C2061 C15 1.457 . S
C2088 C55 1.466 . S
C2100 N1397 1.431 . S
C2115 C101 1.594 . S
C2127 N1420 1.578 . S
C2154 N1453 1.421 . S
C2142 C141 1.444 . S
C2169 C162 1.478 . S
C2181 C1480 1.485 . S
C2208 C1503 1.573 . S
C2196 C215 1.576 . S
C2223 C261 1.452 . S
C2235 C1526 1.494 . S
C2262 C1540 1.445 . S
C2250 C282 1.460 . S
C2277 C2 1.450 . S
C2289 C1457 1.452 . S
C2304 C181 1.436 . S
C2316 N1499 1.428 . S
C2343 N1522 1.500 . S
C2331 C202 1.511 . S
C2358 C242 1.440 . S
C2370 N1535 1.434 . S
C2397 N1476 1.427 . S
C2385 C295 1.458 . S
C2424 C1402 1.670 . S
C2412 C95 1.687 . S
C2439 C122 1.474 . S
C2451 C1425 1.508 . S
C2478 C1379 1.538 . S
C2466 C61 1.495 . S
C2505 C1572 1.498 . S
C2493 C341 1.492 . S
C2520 C362 1.493 . S
C2532 C1586 1.541 . S
C2547 C402 1.526 . S
C2559 N1614 1.512 . S
C2586 N1627 1.396 . S
C2574 C455 1.464 . S
C2601 C495 1.517 . S
C2613 C1632 1.506 . S
C2628 C541 1.496 . S
C2640 N1568 1.437 . S
C2655 C575 1.480 . S
C2667 N1581 1.437 . S
C2682 C621 1.458 . S
C2694 C1618 1.507 . S
C2721 N1466 1.407 . S
C2709 C335 1.452 . S
C2736 C375 1.458 . S
C2748 N1650 1.391 . S
C2775 N1512 1.480 . S
C2763 C421 1.507 . S
C2790 C461 1.483 . S
C2802 C1687 1.497 . S
C2817 C482 1.513 . S
C2829 C1388 1.520 . S
C2856 C1701 1.600 . S
C2844 C535 1.606 . S
C2871 C581 1.502 . S
C2883 C1434 1.546 . S
C2910 N1719 1.378 . S
C2898 C602 1.445 . S
C2925 C322 1.470 . S
C2937 N1683 1.412 . S
C2964 N1696 1.442 . S
C2952 C501 1.457 . S
C2979 C522 1.490 . S
C2991 N1430 1.427 . S
C3018 C1724 1.437 . S
C3006 C562 1.441 . S
C3033 C615 1.443 . S
C3045 N1384 1.364 . S
C3060 C415 1.580 . S
C3072 C1655 1.592 . S
C3087 C442 1.546 . S
C3099 C1517 1.535 . S
C3114 C381 1.509 . S
C3126 C1471 1.551 . S
C3141 C661 1.566 . S
C3153 C1609 1.567 . S
C3180 C1641 1.471 . S
C3168 C682 1.485 . S
C3195 C722 1.479 . S
C3207 N1558 1.420 . S
C3222 C775 1.437 . S
C3234 N1591 1.407 . S
C3249 C815 1.507 . S
C3261 C1595 1.509 . S
C3276 C861 1.566 . S
C3288 N1604 1.515 . S
C3315 N1637 1.339 . S
C3303 C895 1.384 . S
C3330 C941 1.537 . S
C3342 C1563 1.554 . S
C3369 N1752 1.453 . S
C3357 C655 1.477 . S
C3384 C695 1.417 . S
C3396 N1489 1.412 . S
C3423 N1775 1.439 . S
C3411 C741 1.457 . S
C3438 C781 1.462 . S
C3450 N1545 1.436 . S
C3465 C802 1.479 . S
C3477 C1793 1.491 . S
C3492 C855 1.662 . S
C3504 C1411 1.660 . S
C3531 N1811 1.412 . S
C3519 C901 1.419 . S
C3546 C922 1.485 . S
C3558 C1448 1.499 . S
C3585 C1549 1.521 . S
C3573 C642 1.513 . S
C3612 N1407 1.452 . S
C3600 C821 1.470 . S
C3627 C842 1.604 . S
C3639 C1816 1.604 . S
C3654 C882 1.358 . S
C3666 N1443 1.385 . S
C3693 N1788 1.458 . S
C3681 C935 1.497 . S
C3720 C1494 1.593 . S
C3708 C735 1.576 . S
C3747 C1779 1.541 . S
C3735 C762 1.508 . S
C3774 C1756 1.484 . S
C3762 C701 1.494 . S
C3789 C981 1.445 . S
C3801 N1338 1.382 . S
C3816 C1002 1.458 . S
C3828 C1365 1.484 . S
C3855 C1287 1.559 . S
C3843 C1042 1.545 . S
C3882 N1305 1.335 . S
C3870 C1095 1.403 . S
C3909 C1310 1.518 . S
C3897 C1135 1.524 . S
C3936 C1342 1.515 . S
C3924 C1181 1.516 . S
C3963 N1361 1.467 . S
C3951 C1215 1.489 . S
C3978 C1261 1.514 . S
C3990 N1282 1.557 . S
C4005 C975 1.396 . S
C4017 N1798 1.356 . S
C4044 N1706 1.400 . S
C4032 C1015 1.433 . S
C4071 C1825 1.611 . S
C4059 C1061 1.600 . S
C4098 C1733 1.376 . S
C4086 C1101 1.396 . S
C4113 C1122 1.518 . S
C4125 C1747 1.523 . S
C4152 C1664 1.578 . S
C4140 C1175 1.594 . S
C4179 C1770 1.627 . S
C4167 C1221 1.632 . S
C4194 C1242 1.445 . S
C4206 N1673 1.490 . S
C4233 N1729 1.389 . S
C4221 C962 1.392 . S
C4260 N1660 1.372 . S
C4248 C1141 1.414 . S
C4287 N1765 1.440 . S
C4275 C1162 1.452 . S
C4302 C1202 1.495 . S
C4314 C1678 1.502 . S
C4329 C1255 1.457 . S
C4341 N1742 1.452 . S
C4356 C1055 1.677 . S
C4368 C1710 1.657 . S
C4383 C1082 1.428 . S
C4395 N1821 1.370 . S
C4422 C1802 1.490 . S
C4410 C1021 1.459 . S
