# Generated by pormake.
# Topology pyr, (3,6)-cn, num edge types: 1
# Building blocks:
#     Node 0, Type 0, BuildingBlock: OLANEW_clean_sbu_2, # of connection points: 3
#     Node 1, Type 0, BuildingBlock: OLANEW_clean_sbu_2, # of connection points: 3
#     Node 2, Type 0, BuildingBlock: OLANEW_clean_sbu_2, # of connection points: 3
#     Node 3, Type 0, BuildingBlock: OLANEW_clean_sbu_2, # of connection points: 3
#     Node 4, Type 0, BuildingBlock: OLANEW_clean_sbu_2, # of connection points: 3
#     Node 5, Type 0, BuildingBlock: OLANEW_clean_sbu_2, # of connection points: 3
#     Node 6, Type 0, BuildingBlock: OLANEW_clean_sbu_2, # of connection points: 3
#     Node 7, Type 0, BuildingBlock: OLANEW_clean_sbu_2, # of connection points: 3
#     Node 8, Type 1, BuildingBlock: VOLQOD_clean_sbu_1, # of connection points: 6
#     Node 9, Type 1, BuildingBlock: VOLQOD_clean_sbu_1, # of connection points: 6
#     Node 10, Type 1, BuildingBlock: VOLQOD_clean_sbu_1, # of connection points: 6
#     Node 11, Type 1, BuildingBlock: VOLQOD_clean_sbu_1, # of connection points: 6
#     Edge 12, Type (0, 1), BuildingBlock: MIFKUJ_clean_linker_0, # of connection points: 2
#     Edge 13, Type (0, 1), BuildingBlock: MIFKUJ_clean_linker_0, # of connection points: 2
#     Edge 14, Type (0, 1), BuildingBlock: MIFKUJ_clean_linker_0, # of connection points: 2
#     Edge 15, Type (0, 1), BuildingBlock: MIFKUJ_clean_linker_0, # of connection points: 2
#     Edge 16, Type (0, 1), BuildingBlock: MIFKUJ_clean_linker_0, # of connection points: 2
#     Edge 17, Type (0, 1), BuildingBlock: MIFKUJ_clean_linker_0, # of connection points: 2
#     Edge 18, Type (0, 1), BuildingBlock: MIFKUJ_clean_linker_0, # of connection points: 2
#     Edge 19, Type (0, 1), BuildingBlock: MIFKUJ_clean_linker_0, # of connection points: 2
#     Edge 20, Type (0, 1), BuildingBlock: MIFKUJ_clean_linker_0, # of connection points: 2
#     Edge 21, Type (0, 1), BuildingBlock: MIFKUJ_clean_linker_0, # of connection points: 2
#     Edge 22, Type (0, 1), BuildingBlock: MIFKUJ_clean_linker_0, # of connection points: 2
#     Edge 23, Type (0, 1), BuildingBlock: MIFKUJ_clean_linker_0, # of connection points: 2
#     Edge 24, Type (0, 1), BuildingBlock: MIFKUJ_clean_linker_0, # of connection points: 2
#     Edge 25, Type (0, 1), BuildingBlock: MIFKUJ_clean_linker_0, # of connection points: 2
#     Edge 26, Type (0, 1), BuildingBlock: MIFKUJ_clean_linker_0, # of connection points: 2
#     Edge 27, Type (0, 1), BuildingBlock: MIFKUJ_clean_linker_0, # of connection points: 2
#     Edge 28, Type (0, 1), BuildingBlock: MIFKUJ_clean_linker_0, # of connection points: 2
#     Edge 29, Type (0, 1), BuildingBlock: MIFKUJ_clean_linker_0, # of connection points: 2
#     Edge 30, Type (0, 1), BuildingBlock: MIFKUJ_clean_linker_0, # of connection points: 2
#     Edge 31, Type (0, 1), BuildingBlock: MIFKUJ_clean_linker_0, # of connection points: 2
#     Edge 32, Type (0, 1), BuildingBlock: MIFKUJ_clean_linker_0, # of connection points: 2
#     Edge 33, Type (0, 1), BuildingBlock: MIFKUJ_clean_linker_0, # of connection points: 2
#     Edge 34, Type (0, 1), BuildingBlock: MIFKUJ_clean_linker_0, # of connection points: 2
#     Edge 35, Type (0, 1), BuildingBlock: MIFKUJ_clean_linker_0, # of connection points: 2
# Relax obj value: 0.087
# Max RMSD: 0.154
# Mean RMSD: 0.135
data_MOF--net-pry--node1-OLANEW_clean_sbu_2--node2-VOLQOD_clean_sbu_1--edge1-MIFKUJ_clean_linker_0
_symmetry_space_group_name_H-M    P1
_symmetry_Int_Tables_number       1
_symmetry_cell_setting            triclinic
loop_
_symmetry_equiv_pos_as_xyz
'x, y, z'
_cell_length_a     49.928776
_cell_length_b     50.22802
_cell_length_c     49.605449
_cell_angle_alpha  94.118468
_cell_angle_beta   89.005795
_cell_angle_gamma 95.032268
loop_
_atom_site_label
_atom_site_type_symbol
_atom_site_fract_x
_atom_site_fract_y
_atom_site_fract_z
_atom_type_partial_charge
O0 O 0.16572 0.14759 0.12678 0.0
Cd1 Cd 0.1185 0.15617 0.1342 0.0
O2 O 0.16353 0.11767 0.15725 0.0
Cd3 Cd 0.12308 0.12266 0.1731 0.0
O4 O 0.09733 0.11489 0.20823 0.0
C5 C 0.10725 0.12371 0.2309 0.0
O6 O 0.13053 0.13814 0.23118 0.0
C7 C 0.17672 0.13021 0.13923 0.0
C8 C 0.10571 0.20529 0.11705 0.0
O9 O 0.11115 0.20276 0.14186 0.0
O10 O 0.10662 0.18472 0.10032 0.0
O11 O 0.43126 0.9127 0.71153 0.0
Cd12 Cd 0.41829 0.89923 0.66481 0.0
O13 O 0.39092 0.90266 0.72844 0.0
Cd14 Cd 0.37162 0.89284 0.68946 0.0
O15 O 0.33864 0.89531 0.66174 0.0
C16 C 0.33933 0.91438 0.64616 0.0
O17 O 0.36097 0.93124 0.64563 0.0
C18 C 0.41546 0.9111 0.73184 0.0
C19 C 0.43385 0.84866 0.64743 0.0
O20 O 0.4502 0.8697 0.64625 0.0
O21 O 0.41015 0.85149 0.65695 0.0
O22 O 0.65304 0.48622 0.94576 0.0
Cd23 Cd 0.6053 0.48782 0.93655 0.0
O24 O 0.6464 0.44263 0.94594 0.0
Cd25 Cd 0.65465 0.40153 0.95232 0.0
O26 O 0.64476 0.35958 0.96029 0.0
C27 C 0.65364 0.34946 0.98075 0.0
O28 O 0.67034 0.36428 0.99699 0.0
C29 C 0.66233 0.46382 0.94847 0.0
C30 C 0.59467 0.48885 0.88163 0.0
O31 O 0.60064 0.51053 0.89633 0.0
O32 O 0.59392 0.46659 0.89288 0.0
O33 O 0.91856 0.64857 0.43324 0.0
Cd34 Cd 0.89592 0.6047 0.42002 0.0
O35 O 0.95122 0.63439 0.45617 0.0
Cd36 Cd 0.93028 0.59443 0.45413 0.0
O37 O 0.89153 0.5738 0.46388 0.0
C38 C 0.87873 0.58602 0.48261 0.0
O39 O 0.89038 0.60801 0.4948 0.0
C40 C 0.94022 0.65348 0.44651 0.0
C41 C 0.90879 0.59089 0.36635 0.0
O42 O 0.8886 0.6043 0.37253 0.0
O43 O 0.92258 0.58355 0.38563 0.0
O44 O 0.93335 0.92529 0.9132 0.0
Cd45 Cd 0.91486 0.91141 0.95647 0.0
O46 O 0.92209 0.96666 0.91971 0.0
Cd47 Cd 0.90119 0.96033 0.95801 0.0
O48 O 0.86561 0.96112 0.98411 0.0
C49 C 0.84449 0.94763 0.97519 0.0
O50 O 0.84595 0.93306 0.95221 0.0
C51 C 0.93294 0.94868 0.90504 0.0
C52 C 0.92814 0.85997 0.96542 0.0
O53 O 0.90714 0.86355 0.95211 0.0
O54 O 0.94279 0.88074 0.97469 0.0
O55 O 0.5945 0.03557 0.43869 0.0
Cd56 Cd 0.6066 0.03642 0.48631 0.0
O57 O 0.60027 0.07934 0.44244 0.0
Cd58 Cd 0.59767 0.12012 0.4306 0.0
O59 O 0.59253 0.16296 0.43299 0.0
C60 C 0.56912 0.17083 0.43153 0.0
O61 O 0.54857 0.1529 0.42729 0.0
C62 C 0.59406 0.05778 0.42804 0.0
C63 C 0.6616 0.03455 0.49401 0.0
O64 O 0.64569 0.01305 0.4921 0.0
O65 O 0.65151 0.05693 0.49206 0.0
O66 O 0.49498 0.66925 0.13131 0.0
Cd67 Cd 0.50051 0.62152 0.13203 0.0
O68 O 0.45515 0.6571 0.1146 0.0
Cd69 Cd 0.41487 0.66316 0.10106 0.0
O70 O 0.37223 0.65738 0.0912 0.0
C71 C 0.36425 0.63678 0.07612 0.0
O72 O 0.38203 0.62064 0.06654 0.0
C73 C 0.47289 0.67562 0.1224 0.0
C74 C 0.50069 0.60585 0.1847 0.0
O75 O 0.52274 0.61243 0.17226 0.0
O76 O 0.47857 0.60659 0.17215 0.0
O77 O 0.10597 0.46604 0.65329 0.0
Cd78 Cd 0.11141 0.44402 0.60791 0.0
O79 O 0.12875 0.43748 0.67316 0.0
Cd80 Cd 0.12616 0.40725 0.63967 0.0
O81 O 0.11479 0.36705 0.6222 0.0
C82 C 0.09252 0.35615 0.63048 0.0
O83 O 0.07781 0.37008 0.64753 0.0
C84 C 0.11691 0.45891 0.67428 0.0
C85 C 0.16509 0.44886 0.59046 0.0
O86 O 0.14938 0.46692 0.58612 0.0
O87 O 0.15534 0.42851 0.60261 0.0
O88 O 0.00686 0.06189 0.58303 0.0
Zn89 Zn 0.99062 0.02366 0.57886 0.0
O90 O 0.01283 0.00167 0.55497 0.0
Zn91 Zn 0.99248 0.98836 0.5226 0.0
Zn92 Zn 0.04546 0.02299 0.54438 0.0
Zn93 Zn 0.02301 0.97158 0.57411 0.0
O94 O 0.99126 0.94806 0.51734 0.0
O95 O 0.01036 0.93661 0.55443 0.0
O96 O 0.95309 0.02354 0.56426 0.0
O97 O 0.95431 0.99837 0.52567 0.0
O98 O 0.00885 0.00416 0.48909 0.0
O99 O 0.04623 0.02698 0.5044 0.0
O100 O 0.07929 0.00681 0.55444 0.0
O101 O 0.98746 0.00984 0.61608 0.0
O102 O 0.06309 0.9717 0.57614 0.0
O103 O 0.00852 0.97261 0.61229 0.0
C104 C 0.02933 0.07328 0.57563 0.0
C105 C 0.99878 0.93027 0.53193 0.0
C106 C 0.03037 0.019 0.48509 0.0
C107 C 0.9416 0.01251 0.54305 0.0
C108 C 0.0829 0.98639 0.56731 0.0
C109 C 0.99524 0.9893 0.62628 0.0
O110 O 0.04621 0.0604 0.56166 0.0
O111 O 0.51524 0.08279 0.04637 0.0
Zn112 Zn 0.49284 0.04766 0.0499 0.0
O113 O 0.51037 0.02514 0.07385 0.0
Zn114 Zn 0.52016 0.99324 0.05266 0.0
Zn115 Zn 0.54296 0.04474 0.08918 0.0
Zn116 Zn 0.48585 0.01447 0.10328 0.0
O117 O 0.5022 0.95997 0.06714 0.0
O118 O 0.47816 0.97409 0.10262 0.0
O119 O 0.48744 0.02961 0.01212 0.0
O120 O 0.50856 0.99283 0.01433 0.0
O121 O 0.56001 0.99061 0.05226 0.0
O122 O 0.57607 0.02579 0.07854 0.0
O123 O 0.5411 0.04859 0.12997 0.0
O124 O 0.45642 0.05569 0.06499 0.0
O125 O 0.50208 0.02639 0.13957 0.0
O126 O 0.45082 0.0316 0.10087 0.0
C127 C 0.53657 0.09354 0.05785 0.0
C128 C 0.48623 0.95524 0.0868 0.0
C129 C 0.57968 0.00473 0.06352 0.0
C130 C 0.49544 0.00797 0.00106 0.0
C131 C 0.52381 0.03985 0.14711 0.0
C132 C 0.44223 0.04772 0.08495 0.0
O133 O 0.54869 0.08142 0.07507 0.0
O134 O 0.54348 0.52917 0.59104 0.0
Zn135 Zn 0.54323 0.54261 0.55382 0.0
O136 O 0.52067 0.51749 0.52998 0.0
Zn137 Zn 0.5423 0.50459 0.49951 0.0
Zn138 Zn 0.50584 0.48682 0.54956 0.0
Zn139 Zn 0.49144 0.53606 0.51644 0.0
O140 O 0.5308 0.51806 0.46476 0.0
O141 O 0.49456 0.53913 0.47613 0.0
O142 O 0.58189 0.54596 0.54069 0.0
O143 O 0.58112 0.51732 0.50445 0.0
O144 O 0.53992 0.46436 0.49537 0.0
O145 O 0.5166 0.45189 0.53151 0.0
O146 O 0.46517 0.48435 0.54996 0.0
O147 O 0.52911 0.57929 0.55781 0.0
O148 O 0.45563 0.51699 0.52475 0.0
O149 O 0.49141 0.57335 0.53421 0.0
C150 C 0.53337 0.50822 0.60176 0.0
C151 C 0.51148 0.53125 0.45845 0.0
C152 C 0.52961 0.44611 0.50985 0.0
C153 C 0.59393 0.53396 0.52114 0.0
C154 C 0.44813 0.4973 0.53869 0.0
C155 C 0.50774 0.58804 0.54952 0.0
O156 O 0.51877 0.49008 0.5882 0.0
O157 O 0.98549 0.51714 0.07795 0.0
Zn158 Zn 0.99115 0.50078 0.04031 0.0
O159 O 0.01443 0.52508 0.01912 0.0
Zn160 Zn 0.99472 0.53483 0.98805 0.0
Zn161 Zn 0.02603 0.55761 0.04163 0.0
Zn162 Zn 0.04592 0.5071 0.00627 0.0
O163 O 0.01425 0.52624 0.95308 0.0
O164 O 0.04903 0.50569 0.96576 0.0
O165 O 0.95455 0.49249 0.02315 0.0
O166 O 0.95792 0.51505 0.98616 0.0
O167 O 0.99 0.57441 0.99031 0.0
O168 O 0.01331 0.59042 0.02649 0.0
O169 O 0.06648 0.56291 0.04421 0.0
O170 O 0.00784 0.46601 0.04396 0.0
O171 O 0.07998 0.52741 0.02026 0.0
O172 O 0.04483 0.46951 0.01844 0.0
C173 C 0.99454 0.53891 0.09066 0.0
C174 C 0.03542 0.51449 0.94737 0.0
C175 C 0.99888 0.59401 0.00637 0.0
C176 C 0.94453 0.49939 0.00151 0.0
C177 C 0.0852 0.54919 0.03471 0.0
C178 C 0.02883 0.45628 0.03387 0.0
O179 O 0.01047 0.55601 0.0793 0.0
H180 H 0.12511 0.13753 0.28204 0.0
H181 H 0.10835 0.11906 0.32386 0.0
H182 H 0.04492 0.07165 0.28007 0.0
H183 H 0.06154 0.09015 0.23788 0.0
H184 H 0.02827 0.09414 0.33119 0.0
H185 H 0.09784 0.04203 0.29355 0.0
H186 H 0.14267 0.03509 0.27405 0.0
H187 H 0.17982 0.07137 0.34668 0.0
H188 H 0.1352 0.07889 0.36647 0.0
H189 H 0.00152 0.00701 0.43845 0.0
H190 H 0.01147 0.0239 0.39397 0.0
H191 H 0.0829 0.06916 0.42563 0.0
H192 H 0.07345 0.05212 0.46985 0.0
H193 H 0.09322 0.04459 0.37813 0.0
H194 H 0.02493 0.09906 0.41513 0.0
H195 H 0.98064 0.10734 0.43521 0.0
H196 H 0.94155 0.06797 0.36495 0.0
H197 H 0.98564 0.05914 0.34458 0.0
C198 C 0.10739 0.12344 0.28126 0.0
C199 C 0.09485 0.11508 0.25655 0.0
C200 C 0.09787 0.11287 0.30521 0.0
C201 C 0.07568 0.09368 0.30496 0.0
C202 C 0.06216 0.08636 0.28063 0.0
C203 C 0.07172 0.09692 0.25656 0.0
C204 C 0.06786 0.08017 0.32985 0.0
C205 C 0.04227 0.08293 0.34128 0.0
C206 C 0.08632 0.06592 0.34316 0.0
C207 C 0.11318 0.06122 0.3314 0.0
C208 C 0.11557 0.04871 0.30528 0.0
C209 C 0.14095 0.04464 0.29419 0.0
C210 C 0.16408 0.05284 0.30909 0.0
C211 C 0.16188 0.06506 0.33515 0.0
C212 C 0.13655 0.0692 0.34632 0.0
C213 C 0.01941 0.02047 0.43592 0.0
C214 C 0.03666 0.02822 0.45777 0.0
C215 C 0.02498 0.03023 0.41051 0.0
C216 C 0.04777 0.04804 0.40656 0.0
C217 C 0.06519 0.05545 0.42821 0.0
C218 C 0.05971 0.04568 0.45353 0.0
C219 C 0.05378 0.05897 0.37989 0.0
C220 C 0.07908 0.05562 0.36802 0.0
C221 C 0.03508 0.07279 0.36634 0.0
C222 C 0.00857 0.07818 0.37847 0.0
C223 C 0.00688 0.09198 0.40406 0.0
C224 C 0.98182 0.09681 0.41547 0.0
C225 C 0.95829 0.08812 0.4014 0.0
C226 C 0.95979 0.07465 0.37585 0.0
C227 C 0.98481 0.06974 0.36435 0.0
H228 H 0.93892 0.09191 0.41027 0.0
H229 H 0.1837 0.04967 0.30046 0.0
H230 H 0.46584 0.93282 0.74658 0.0
H231 H 0.48103 0.94941 0.79184 0.0
H232 H 0.40218 0.92726 0.82433 0.0
H233 H 0.38691 0.91036 0.77936 0.0
H234 H 0.46419 0.98899 0.82601 0.0
H235 H 0.40851 0.90697 0.8876 0.0
H236 H 0.39289 0.85894 0.88193 0.0
H237 H 0.45416 0.84657 0.82164 0.0
H238 H 0.47037 0.89443 0.82721 0.0
H239 H 0.46217 0.03052 0.96716 0.0
H240 H 0.45011 0.01462 0.92073 0.0
H241 H 0.50222 0.95082 0.92394 0.0
H242 H 0.51396 0.96617 0.97022 0.0
H243 H 0.45567 0.93176 0.9037 0.0
H244 H 0.51991 0.00615 0.88834 0.0
H245 H 0.53911 0.05315 0.89343 0.0
H246 H 0.46768 0.07886 0.86009 0.0
H247 H 0.44791 0.03201 0.85513 0.0
C248 C 0.45177 0.9313 0.76338 0.0
C249 C 0.42518 0.92016 0.75933 0.0
C250 C 0.46046 0.94093 0.7892 0.0
C251 C 0.44279 0.93944 0.81147 0.0
C252 C 0.41626 0.92832 0.8075 0.0
C253 C 0.40756 0.9187 0.78173 0.0
C254 C 0.45199 0.94963 0.83887 0.0
C255 C 0.46235 0.97649 0.84302 0.0
C256 C 0.44987 0.93324 0.86097 0.0
C257 C 0.44046 0.90435 0.85764 0.0
C258 C 0.4187 0.89398 0.8732 0.0
C259 C 0.40974 0.86679 0.86999 0.0
C260 C 0.42247 0.84973 0.85137 0.0
C261 C 0.44425 0.85982 0.83598 0.0
C262 C 0.45331 0.88699 0.83913 0.0
C263 C 0.47118 0.01321 0.9579 0.0
C264 C 0.48898 0.9996 0.97247 0.0
C265 C 0.46433 0.00419 0.93134 0.0
C266 C 0.47536 0.98158 0.91881 0.0
C267 C 0.49336 0.96822 0.93322 0.0
C268 C 0.5001 0.9771 0.95971 0.0
C269 C 0.46771 0.97122 0.89097 0.0
C270 C 0.45751 0.94431 0.88674 0.0
C271 C 0.47045 0.98745 0.86874 0.0
C272 C 0.48233 0.01561 0.87161 0.0
C273 C 0.50822 0.02185 0.88229 0.0
C274 C 0.51922 0.04846 0.88512 0.0
C275 C 0.5046 0.06899 0.87716 0.0
C276 C 0.47897 0.06294 0.86628 0.0
C277 C 0.46787 0.03636 0.86343 0.0
H278 H 0.51315 0.08957 0.87936 0.0
H279 H 0.41549 0.82869 0.84891 0.0
H280 H 0.59859 0.53236 0.85133 0.0
H281 H 0.58731 0.53377 0.8038 0.0
H282 H 0.56485 0.44865 0.79883 0.0
H283 H 0.57671 0.44696 0.84631 0.0
H284 H 0.5928 0.46211 0.75518 0.0
H285 H 0.51698 0.49398 0.80332 0.0
H286 H 0.49306 0.52204 0.83692 0.0
H287 H 0.52304 0.59265 0.7983 0.0
H288 H 0.54746 0.56504 0.76466 0.0
H289 H 0.52342 0.46321 0.62986 0.0
H290 H 0.53315 0.45826 0.67739 0.0
H291 H 0.56523 0.54093 0.6863 0.0
H292 H 0.55571 0.54609 0.63895 0.0
H293 H 0.53018 0.52653 0.72793 0.0
H294 H 0.60721 0.49362 0.6806 0.0
H295 H 0.6301 0.46475 0.6469 0.0
H296 H 0.59594 0.39477 0.68409 0.0
H297 H 0.57252 0.42324 0.71781 0.0
C298 C 0.59129 0.51391 0.84014 0.0
C299 C 0.58841 0.48957 0.85264 0.0
C300 C 0.58472 0.51478 0.81298 0.0
C301 C 0.57479 0.49139 0.79785 0.0
C302 C 0.57238 0.46696 0.81013 0.0
C303 C 0.57912 0.46604 0.83728 0.0
C304 C 0.56697 0.49253 0.76923 0.0
C305 C 0.57878 0.47589 0.74928 0.0
C306 C 0.54894 0.51076 0.76145 0.0
C307 C 0.53424 0.52745 0.78161 0.0
C308 C 0.51864 0.51551 0.80211 0.0
C309 C 0.50496 0.53133 0.82114 0.0
C310 C 0.50658 0.55912 0.81978 0.0
C311 C 0.52183 0.57113 0.79934 0.0
C312 C 0.53557 0.5554 0.78027 0.0
C313 C 0.53251 0.48035 0.64194 0.0
C314 C 0.53884 0.50503 0.63056 0.0
C315 C 0.53814 0.47745 0.66905 0.0
C316 C 0.55004 0.4992 0.68528 0.0
C317 C 0.55604 0.52391 0.6741 0.0
C318 C 0.55067 0.52677 0.64699 0.0
C319 C 0.55624 0.49636 0.71398 0.0
C320 C 0.54408 0.51265 0.73391 0.0
C321 C 0.57375 0.47767 0.72174 0.0
C322 C 0.58787 0.46055 0.70153 0.0
C323 C 0.60438 0.47207 0.68144 0.0
C324 C 0.6175 0.45578 0.66237 0.0
C325 C 0.61441 0.42794 0.6633 0.0
C326 C 0.59827 0.41634 0.68336 0.0
C327 C 0.58509 0.43254 0.70247 0.0
H328 H 0.62459 0.41537 0.64852 0.0
H329 H 0.49598 0.57133 0.83454 0.0
H330 H 0.94745 0.55913 0.34667 0.0
H331 H 0.96136 0.55078 0.29957 0.0
H332 H 0.90205 0.60117 0.27447 0.0
H333 H 0.88756 0.60906 0.32144 0.0
H334 H 0.90249 0.55865 0.2409 0.0
H335 H 0.96906 0.624 0.279 0.0
H336 H 0.00324 0.64335 0.31179 0.0
H337 H 0.05087 0.57729 0.29238 0.0
H338 H 0.01678 0.55736 0.25971 0.0
H339 H 0.00415 0.58557 0.12239 0.0
H340 H 0.98881 0.5952 0.16881 0.0
H341 H 0.95098 0.51469 0.16995 0.0
H342 H 0.96568 0.50506 0.12337 0.0
H343 H 0.99856 0.57546 0.21481 0.0
H344 H 0.89433 0.51433 0.20819 0.0
H345 H 0.85944 0.50024 0.17423 0.0
H346 H 0.88566 0.56746 0.12869 0.0
H347 H 0.92044 0.58216 0.16255 0.0
C348 C 0.93728 0.56833 0.33111 0.0
C349 C 0.91648 0.58485 0.33779 0.0
C350 C 0.94534 0.56365 0.30421 0.0
C351 C 0.93303 0.57569 0.28352 0.0
C352 C 0.91186 0.5917 0.29009 0.0
C353 C 0.90364 0.59623 0.31697 0.0
C354 C 0.94236 0.57177 0.25507 0.0
C355 C 0.9235 0.5623 0.23521 0.0
C356 C 0.96968 0.57712 0.2475 0.0
C357 C 0.99025 0.58906 0.2671 0.0
C358 C 0.98673 0.6135 0.28187 0.0
C359 C 0.0061 0.62459 0.30041 0.0
C360 C 0.02918 0.61152 0.30421 0.0
C361 C 0.03297 0.58737 0.28943 0.0
C362 C 0.01364 0.57618 0.27089 0.0
C363 C 0.99257 0.56989 0.1325 0.0
C364 C 0.98601 0.54458 0.11908 0.0
C365 C 0.98387 0.57543 0.15906 0.0
C366 C 0.96846 0.55578 0.17274 0.0
C367 C 0.96239 0.53032 0.15962 0.0
C368 C 0.97091 0.52482 0.133 0.0
C369 C 0.95876 0.5619 0.20075 0.0
C370 C 0.97756 0.57178 0.22052 0.0
C371 C 0.93127 0.55765 0.20809 0.0
C372 C 0.91017 0.54917 0.18778 0.0
C373 C 0.89258 0.52616 0.19099 0.0
C374 C 0.87283 0.51806 0.17174 0.0
C375 C 0.87039 0.53289 0.14927 0.0
C376 C 0.88763 0.55593 0.14605 0.0
C377 C 0.90739 0.56413 0.16524 0.0
H378 H 0.85511 0.52657 0.13439 0.0
H379 H 0.04416 0.62014 0.31857 0.0
H380 H 0.20593 0.09553 0.16364 0.0
H381 H 0.25176 0.08482 0.15336 0.0
H382 H 0.2574 0.14023 0.09057 0.0
H383 H 0.2111 0.15097 0.10056 0.0
H384 H 0.27707 0.09262 0.07395 0.0
H385 H 0.28933 0.15688 0.14947 0.0
H386 H 0.2807 0.17703 0.19524 0.0
H387 H 0.30311 0.10629 0.22971 0.0
H388 H 0.31152 0.08555 0.1841 0.0
H389 H 0.41825 0.08421 0.05705 0.0
H390 H 0.37408 0.10072 0.06541 0.0
H391 H 0.36082 0.0501 0.13188 0.0
H392 H 0.40516 0.03379 0.124 0.0
H393 H 0.34607 0.09912 0.14546 0.0
H394 H 0.33085 0.03376 0.07024 0.0
H395 H 0.33896 0.01301 0.02458 0.0
H396 H 0.3218 0.08539 0.98974 0.0
H397 H 0.31393 0.1067 0.03525 0.0
C398 C 0.21684 0.10556 0.14766 0.0
C399 C 0.2048 0.12419 0.13296 0.0
C400 C 0.24315 0.09948 0.1419 0.0
C401 C 0.25814 0.11198 0.12144 0.0
C402 C 0.2462 0.13043 0.10652 0.0
C403 C 0.21978 0.13659 0.11231 0.0
C404 C 0.28606 0.10519 0.11546 0.0
C405 C 0.29233 0.0945 0.08943 0.0
C406 C 0.30578 0.10712 0.13584 0.0
C407 C 0.30086 0.11958 0.16333 0.0
C408 C 0.29223 0.14554 0.16679 0.0
C409 C 0.28741 0.15708 0.19272 0.0
C410 C 0.2913 0.14293 0.21537 0.0
C411 C 0.30009 0.11722 0.21214 0.0
C412 C 0.30492 0.10558 0.18626 0.0
C413 C 0.40595 0.07651 0.07344 0.0
C414 C 0.41528 0.05758 0.08981 0.0
C415 C 0.38064 0.08593 0.07812 0.0
C416 C 0.364 0.07644 0.09909 0.0
C417 C 0.37331 0.0577 0.11558 0.0
C418 C 0.39866 0.04834 0.11098 0.0
C419 C 0.33698 0.08616 0.10405 0.0
C420 C 0.33089 0.09744 0.1299 0.0
C421 C 0.31743 0.08471 0.08352 0.0
C422 C 0.32209 0.07191 0.05616 0.0
C423 C 0.32902 0.04532 0.05285 0.0
C424 C 0.33353 0.03345 0.027 0.0
C425 C 0.33097 0.0479 0.00428 0.0
C426 C 0.32382 0.07424 0.00736 0.0
C427 C 0.31931 0.08622 0.03317 0.0
H428 H 0.33447 0.03868 0.98428 0.0
H429 H 0.28755 0.1519 0.23542 0.0
H430 H 0.33359 0.95351 0.61155 0.0
H431 H 0.29191 0.96523 0.59206 0.0
H432 H 0.24792 0.89938 0.62917 0.0
H433 H 0.28952 0.88718 0.64821 0.0
H434 H 0.22917 0.90415 0.57989 0.0
H435 H 0.25089 0.96356 0.65882 0.0
H436 H 0.27957 0.99668 0.68696 0.0
H437 H 0.28201 0.05138 0.62412 0.0
H438 H 0.2536 0.01842 0.59546 0.0
H439 H 0.09775 0.94412 0.59359 0.0
H440 H 0.14304 0.93196 0.60108 0.0
H441 H 0.17617 0.99968 0.55888 0.0
H442 H 0.13073 0.01231 0.55151 0.0
H443 H 0.20234 0.99547 0.60552 0.0
H444 H 0.17551 0.93681 0.52872 0.0
H445 H 0.14553 0.9035 0.50223 0.0
H446 H 0.15149 0.84702 0.56238 0.0
H447 H 0.18122 0.88012 0.58944 0.0
C448 C 0.31511 0.9413 0.61527 0.0
C449 C 0.31484 0.91958 0.63168 0.0
C450 C 0.29128 0.9481 0.60419 0.0
C451 C 0.26672 0.93349 0.60958 0.0
C452 C 0.26662 0.911 0.62482 0.0
C453 C 0.29044 0.90409 0.63576 0.0
C454 C 0.24091 0.94239 0.60071 0.0
C455 C 0.22323 0.92406 0.58561 0.0
C456 C 0.2334 0.96857 0.60767 0.0
C457 C 0.2504 0.98842 0.62489 0.0
C458 C 0.25772 0.98258 0.65093 0.0
C459 C 0.27389 0.00133 0.66698 0.0
C460 C 0.28268 0.02609 0.6573 0.0
C461 C 0.27524 0.03218 0.63157 0.0
C462 C 0.25909 0.01348 0.61542 0.0
C463 C 0.1146 0.95648 0.58581 0.0
C464 C 0.11055 0.9792 0.57188 0.0
C465 C 0.14052 0.94936 0.58999 0.0
C466 C 0.16296 0.96466 0.58017 0.0
C467 C 0.15909 0.98752 0.56649 0.0
C468 C 0.13311 0.99469 0.56229 0.0
C469 C 0.19044 0.95712 0.58501 0.0
C470 C 0.20843 0.97569 0.59941 0.0
C471 C 0.19813 0.9311 0.57756 0.0
C472 C 0.18046 0.91103 0.5612 0.0
C473 C 0.17029 0.91735 0.53639 0.0
C474 C 0.15336 0.89849 0.52126 0.0
C475 C 0.14657 0.87318 0.53064 0.0
C476 C 0.15676 0.86664 0.55515 0.0
C477 C 0.17369 0.88543 0.57037 0.0
H478 H 0.13344 0.85861 0.51891 0.0
H479 H 0.29519 0.04058 0.66975 0.0
H480 H 0.69397 0.5019 0.97723 0.0
H481 H 0.74214 0.50287 0.98531 0.0
H482 H 0.74412 0.42571 0.9414 0.0
H483 H 0.69563 0.42445 0.93369 0.0
H484 H 0.77648 0.42865 0.98369 0.0
H485 H 0.76416 0.48323 0.91106 0.0
H486 H 0.74512 0.51861 0.88734 0.0
H487 H 0.77754 0.57808 0.94731 0.0
H488 H 0.79646 0.543 0.97162 0.0
H489 H 0.92082 0.49855 0.95228 0.0
H490 H 0.8737 0.48636 0.94126 0.0
H491 H 0.85713 0.46825 0.02397 0.0
H492 H 0.90452 0.47944 0.03486 0.0
H493 H 0.83262 0.50928 0.9573 0.0
H494 H 0.80228 0.42426 0.02869 0.0
H495 H 0.82236 0.3864 0.04723 0.0
H496 H 0.8777 0.38293 0.9801 0.0
H497 H 0.85772 0.42052 0.96096 0.0
C498 C 0.70462 0.48502 0.9695 0.0
C499 C 0.69103 0.46305 0.95492 0.0
C500 C 0.73217 0.48563 0.97406 0.0
C501 C 0.74686 0.46458 0.96356 0.0
C502 C 0.73319 0.44217 0.94972 0.0
C503 C 0.70547 0.44141 0.94543 0.0
C504 C 0.77659 0.46666 0.96616 0.0
C505 C 0.78881 0.44623 0.97789 0.0
C506 C 0.7928 0.48925 0.95787 0.0
C507 C 0.78154 0.51045 0.94327 0.0
C508 C 0.76707 0.50383 0.91929 0.0
C509 C 0.75632 0.52383 0.90573 0.0
C510 C 0.76007 0.55057 0.91584 0.0
C511 C 0.77463 0.55736 0.93952 0.0
C512 C 0.78539 0.53743 0.95318 0.0
C513 C 0.90721 0.49164 0.96806 0.0
C514 C 0.9164 0.49003 0.99447 0.0
C515 C 0.88024 0.4847 0.96173 0.0
C516 C 0.86178 0.47625 0.98171 0.0
C517 C 0.87101 0.47418 0.00803 0.0
C518 C 0.89812 0.48073 0.01429 0.0
C519 C 0.83264 0.47153 0.97542 0.0
C520 C 0.82045 0.49156 0.963 0.0
C521 C 0.81669 0.44821 0.98233 0.0
C522 C 0.82864 0.42538 0.99353 0.0
C523 C 0.81865 0.41534 0.01782 0.0
C524 C 0.83003 0.39394 0.02845 0.0
C525 C 0.85134 0.38232 0.0149 0.0
C526 C 0.86126 0.39202 0.99063 0.0
C527 C 0.84994 0.4134 0.97991 0.0
H528 H 0.86014 0.36577 0.02317 0.0
H529 H 0.75173 0.56602 0.90531 0.0
H530 H 0.84678 0.60761 0.52201 0.0
H531 H 0.79889 0.59638 0.52977 0.0
H532 H 0.79835 0.53402 0.46523 0.0
H533 H 0.84637 0.54535 0.45707 0.0
H534 H 0.7581 0.5661 0.46053 0.0
H535 H 0.79282 0.51831 0.53056 0.0
H536 H 0.82048 0.5126 0.57008 0.0
H537 H 0.77965 0.57236 0.61674 0.0
H538 H 0.75198 0.57871 0.57736 0.0
H539 H 0.62638 0.5089 0.48439 0.0
H540 H 0.67499 0.51637 0.47921 0.0
H541 H 0.67723 0.57767 0.54486 0.0
H542 H 0.62844 0.56997 0.5506 0.0
H543 H 0.71678 0.54526 0.5491 0.0
H544 H 0.68305 0.59412 0.47933 0.0
H545 H 0.65552 0.60065 0.43994 0.0
H546 H 0.69473 0.53992 0.39294 0.0
H547 H 0.72225 0.53276 0.43219 0.0
C548 C 0.83659 0.5913 0.50963 0.0
C549 C 0.85037 0.5774 0.48888 0.0
C550 C 0.80921 0.58484 0.51418 0.0
C551 C 0.79511 0.56426 0.49819 0.0
C552 C 0.8089 0.54997 0.4778 0.0
C553 C 0.83634 0.5564 0.47324 0.0
C554 C 0.76569 0.55871 0.50184 0.0
C555 C 0.74907 0.56108 0.47978 0.0
C556 C 0.75394 0.553 0.52717 0.0
C557 C 0.77048 0.54915 0.55092 0.0
C558 C 0.78988 0.53039 0.54918 0.0
C559 C 0.80553 0.52701 0.57157 0.0
C560 C 0.80187 0.54215 0.59589 0.0
C561 C 0.78248 0.56067 0.59788 0.0
C562 C 0.76679 0.56414 0.57554 0.0
C563 C 0.63712 0.52405 0.49773 0.0
C564 C 0.62345 0.53894 0.51785 0.0
C565 C 0.66495 0.52834 0.49467 0.0
C566 C 0.67969 0.54782 0.51141 0.0
C567 C 0.6662 0.56257 0.53169 0.0
C568 C 0.63831 0.5582 0.53487 0.0
C569 C 0.7092 0.55262 0.50778 0.0
C570 C 0.72582 0.55018 0.52984 0.0
C571 C 0.72098 0.55838 0.48246 0.0
C572 C 0.70453 0.56273 0.45879 0.0
C573 C 0.68566 0.58201 0.46066 0.0
C574 C 0.67008 0.58585 0.43835 0.0
C575 C 0.67332 0.57066 0.41398 0.0
C576 C 0.69221 0.55165 0.41185 0.0
C577 C 0.70783 0.54771 0.43411 0.0
H578 H 0.66124 0.57366 0.39672 0.0
H579 H 0.81401 0.5395 0.6132 0.0
H580 H 0.10644 0.22143 0.06558 0.0
H581 H 0.09323 0.26388 0.05075 0.0
H582 H 0.07387 0.28935 0.13308 0.0
H583 H 0.08764 0.24724 0.14821 0.0
H584 H 0.03274 0.29476 0.09102 0.0
H585 H 0.12709 0.31651 0.11181 0.0
H586 H 0.17529 0.30942 0.10795 0.0
H587 H 0.17315 0.31713 0.02238 0.0
H588 H 0.12481 0.32389 0.02569 0.0
H589 H 0.01336 0.43091 0.07912 0.0
H590 H 0.02609 0.3879 0.09225 0.0
H591 H 0.0709 0.3776 0.01754 0.0
H592 H 0.0594 0.42141 0.00506 0.0
H593 H 0.09891 0.36295 0.05456 0.0
H594 H 0.00694 0.34183 0.03117 0.0
H595 H 0.9582 0.34665 0.03164 0.0
H596 H 0.95425 0.33462 0.11649 0.0
H597 H 0.00305 0.33008 0.11662 0.0
C598 C 0.09945 0.2361 0.08054 0.0
C599 C 0.09813 0.23104 0.10807 0.0
C600 C 0.09194 0.26031 0.07203 0.0
C601 C 0.08259 0.27966 0.09085 0.0
C602 C 0.08101 0.2746 0.11829 0.0
C603 C 0.089 0.25062 0.12689 0.0
C604 C 0.07443 0.3052 0.08186 0.0
C605 C 0.04716 0.30989 0.08332 0.0
C606 C 0.0932 0.32434 0.07093 0.0
C607 C 0.12227 0.32041 0.06896 0.0
C608 C 0.13684 0.31644 0.09214 0.0
C609 C 0.1642 0.31254 0.09006 0.0
C610 C 0.17726 0.31275 0.06492 0.0
C611 C 0.163 0.31693 0.04183 0.0
C612 C 0.13563 0.32082 0.0438 0.0
C613 C 0.02577 0.41938 0.06541 0.0
C614 C 0.0353 0.42949 0.04101 0.0
C615 C 0.03294 0.39467 0.07286 0.0
C616 C 0.04909 0.37911 0.05569 0.0
C617 C 0.05843 0.38914 0.03118 0.0
C618 C 0.05178 0.41415 0.02401 0.0
C619 C 0.05698 0.35287 0.06373 0.0
C620 C 0.08428 0.34794 0.0621 0.0
C621 C 0.03809 0.33322 0.07394 0.0
C622 C 0.00871 0.33586 0.07394 0.0
C623 C 0.99571 0.3404 0.04997 0.0
C624 C 0.96807 0.34305 0.05012 0.0
C625 C 0.95315 0.34101 0.07409 0.0
C626 C 0.96584 0.33623 0.09795 0.0
C627 C 0.99349 0.33359 0.09791 0.0
H628 H 0.93176 0.34308 0.07417 0.0
H629 H 0.19845 0.30973 0.06335 0.0
H630 H 0.61521 0.31573 0.95426 0.0
H631 H 0.59616 0.2719 0.96703 0.0
H632 H 0.64965 0.27726 0.0349 0.0
H633 H 0.66896 0.32118 0.02224 0.0
H634 H 0.64554 0.2269 0.00755 0.0
H635 H 0.58632 0.29082 0.04533 0.0
H636 H 0.55716 0.32786 0.04405 0.0
H637 H 0.50583 0.28065 0.98695 0.0
H638 H 0.53492 0.24344 0.9876 0.0
H639 H 0.57907 0.12455 0.08097 0.0
H640 H 0.59929 0.16761 0.0674 0.0
H641 H 0.54114 0.16589 0.00384 0.0
H642 H 0.52038 0.12303 0.01764 0.0
H643 H 0.5479 0.21443 0.02864 0.0
H644 H 0.60613 0.15051 0.99047 0.0
H645 H 0.63511 0.11322 0.99066 0.0
H646 H 0.68809 0.15977 0.04673 0.0
H647 H 0.65921 0.19723 0.04717 0.0
C648 C 0.62309 0.30755 0.9718 0.0
C649 C 0.6435 0.32205 0.98734 0.0
C650 C 0.6121 0.28252 0.97911 0.0
C651 C 0.62126 0.27151 0.00211 0.0
C652 C 0.64225 0.28547 0.01713 0.0
C653 C 0.65321 0.31058 0.0099 0.0
C654 C 0.60842 0.24575 0.01083 0.0
C655 C 0.62426 0.22423 0.0125 0.0
C656 C 0.58053 0.24215 0.01663 0.0
C657 C 0.56295 0.26445 0.01631 0.0
C658 C 0.56894 0.28842 0.03233 0.0
C659 C 0.5524 0.30943 0.03175 0.0
C660 C 0.5297 0.30664 0.01538 0.0
C661 C 0.52345 0.28279 0.9996 0.0
C662 C 0.53994 0.26173 8e-05 0.0
C663 C 0.57049 0.13332 0.06415 0.0
C664 C 0.54815 0.12023 0.05032 0.0
C665 C 0.58219 0.15791 0.05632 0.0
C666 C 0.57203 0.16977 0.0343 0.0
C667 C 0.54938 0.15706 0.02083 0.0
C668 C 0.53755 0.13253 0.02874 0.0
C669 C 0.58499 0.19545 0.02536 0.0
C670 C 0.56917 0.21701 0.02366 0.0
C671 C 0.61287 0.19902 0.01937 0.0
C672 C 0.63036 0.17658 0.01905 0.0
C673 C 0.62385 0.15273 0.003 0.0
C674 C 0.64028 0.13157 0.00297 0.0
C675 C 0.66339 0.1341 0.01876 0.0
C676 C 0.67016 0.15783 0.03455 0.0
C677 C 0.65379 0.17904 0.03467 0.0
H678 H 0.67608 0.1177 0.01871 0.0
H679 H 0.51692 0.32293 0.01496 0.0
H680 H 0.92425 0.69798 0.42511 0.0
H681 H 0.93904 0.74466 0.43784 0.0
H682 H 0.99587 0.71956 0.49331 0.0
H683 H 0.98102 0.6726 0.48081 0.0
H684 H 0.96426 0.75645 0.51689 0.0
H685 H 0.01806 0.74758 0.43647 0.0
H686 H 0.02703 0.73575 0.38826 0.0
H687 H 0.97299 0.79216 0.36586 0.0
H688 H 0.96339 0.80406 0.41395 0.0
H689 H 0.02092 0.88808 0.55199 0.0
H690 H 0.01479 0.84098 0.53583 0.0
H691 H 0.96107 0.86034 0.47431 0.0
H692 H 0.9677 0.90774 0.48989 0.0
H693 H 0.99426 0.82573 0.45385 0.0
H694 H 0.93752 0.83219 0.53285 0.0
H695 H 0.92671 0.8438 0.58072 0.0
H696 H 0.98405 0.79167 0.60532 0.0
H697 H 0.99547 0.78001 0.55757 0.0
C698 C 0.94015 0.70232 0.43977 0.0
C699 C 0.95138 0.68156 0.45206 0.0
C700 C 0.94867 0.72904 0.44691 0.0
C701 C 0.96864 0.73555 0.4664 0.0
C702 C 0.98044 0.71491 0.47818 0.0
C703 C 0.972 0.68811 0.47096 0.0
C704 C 0.97564 0.76389 0.47585 0.0
C705 C 0.97135 0.77154 0.50323 0.0
C706 C 0.98405 0.78361 0.45781 0.0
C707 C 0.98985 0.77656 0.42884 0.0
C708 C 0.00792 0.75732 0.42127 0.0
C709 C 0.01315 0.75063 0.39396 0.0
C710 C 0.00054 0.76315 0.37401 0.0
C711 C 0.98273 0.78245 0.38134 0.0
C712 C 0.97741 0.7892 0.40862 0.0
C713 C 0.00772 0.88236 0.53507 0.0
C714 C 0.99465 0.90166 0.52233 0.0
C715 C 0.0042 0.85538 0.52589 0.0
C716 C 0.98717 0.84708 0.50411 0.0
C717 C 0.97429 0.86632 0.49117 0.0
C718 C 0.97802 0.89338 0.50016 0.0
C719 C 0.98272 0.81832 0.49488 0.0
C720 C 0.98742 0.8106 0.46757 0.0
C721 C 0.97444 0.79852 0.51293 0.0
C722 C 0.96755 0.80545 0.54165 0.0
C723 C 0.94797 0.82336 0.54847 0.0
C724 C 0.94171 0.82992 0.57558 0.0
C725 C 0.95474 0.81854 0.59605 0.0
C726 C 0.97401 0.8005 0.58944 0.0
C727 C 0.98037 0.79389 0.56237 0.0
H728 H 0.94986 0.82364 0.61702 0.0
H729 H 0.00462 0.75795 0.35288 0.0
H730 H 0.40152 0.8025 0.63662 0.0
H731 H 0.41502 0.75865 0.62001 0.0
H732 H 0.49825 0.79029 0.62087 0.0
H733 H 0.48472 0.83449 0.63643 0.0
H734 H 0.49001 0.76013 0.57721 0.0
H735 H 0.46935 0.74876 0.67027 0.0
H736 H 0.44219 0.75003 0.71226 0.0
H737 H 0.38136 0.69486 0.67421 0.0
H738 H 0.408 0.69353 0.63186 0.0
H739 H 0.54169 0.63003 0.57043 0.0
H740 H 0.52993 0.67485 0.58673 0.0
H741 H 0.44701 0.65243 0.56645 0.0
H742 H 0.45857 0.60786 0.54967 0.0
H743 H 0.45657 0.67748 0.62067 0.0
H744 H 0.47893 0.69026 0.52707 0.0
H745 H 0.5082 0.68855 0.48655 0.0
H746 H 0.56888 0.74088 0.52842 0.0
H747 H 0.54009 0.74258 0.56935 0.0
C748 C 0.4227 0.8001 0.63334 0.0
C749 C 0.44206 0.82194 0.63793 0.0
C750 C 0.43043 0.77496 0.62397 0.0
C751 C 0.45773 0.77096 0.6196 0.0
C752 C 0.47708 0.79281 0.6241 0.0
C753 C 0.46932 0.81806 0.63307 0.0
C754 C 0.46605 0.74414 0.60988 0.0
C755 C 0.48299 0.74216 0.58702 0.0
C756 C 0.45666 0.72051 0.62237 0.0
C757 C 0.44057 0.72125 0.64781 0.0
C758 C 0.45009 0.73706 0.67079 0.0
C759 C 0.4348 0.73776 0.69467 0.0
C760 C 0.41003 0.72259 0.69588 0.0
C761 C 0.40053 0.70663 0.67323 0.0
C762 C 0.41573 0.70587 0.64929 0.0
C763 C 0.52098 0.63469 0.56933 0.0
C764 C 0.50108 0.61541 0.5587 0.0
C765 C 0.51432 0.66028 0.57861 0.0
C766 C 0.48762 0.66686 0.57776 0.0
C767 C 0.46772 0.64767 0.56727 0.0
C768 C 0.47441 0.62228 0.55758 0.0
C769 C 0.48029 0.69367 0.58811 0.0
C770 C 0.46359 0.69558 0.61105 0.0
C771 C 0.4902 0.71723 0.57598 0.0
C772 C 0.50748 0.7163 0.55136 0.0
C773 C 0.49862 0.70119 0.52772 0.0
C774 C 0.5151 0.70027 0.50466 0.0
C775 C 0.54042 0.71453 0.50493 0.0
C776 C 0.54928 0.72981 0.52825 0.0
C777 C 0.53288 0.73077 0.55138 0.0
H778 H 0.55315 0.7138 0.48706 0.0
H779 H 0.39823 0.72316 0.71439 0.0
H780 H 0.96003 0.9163 0.86925 0.0
H781 H 0.97293 0.92441 0.82254 0.0
H782 H 0.9416 0.0019 0.83204 0.0
H783 H 0.92864 0.99403 0.87868 0.0
H784 H 0.92261 0.97199 0.78672 0.0
H785 H 0.0077 0.99828 0.82848 0.0
H786 H 0.04678 0.99288 0.85667 0.0
H787 H 0.06561 0.92434 0.80537 0.0
H788 H 0.0264 0.92911 0.77707 0.0
H789 H 0.97016 0.02206 0.66333 0.0
H790 H 0.96133 0.01556 0.71106 0.0
H791 H 0.99771 0.94057 0.70244 0.0
H792 H 0.00707 0.94711 0.65473 0.0
H793 H 0.01449 0.96914 0.74752 0.0
H794 H 0.92952 0.94194 0.70624 0.0
H795 H 0.89016 0.94638 0.67808 0.0
H796 H 0.87061 0.01523 0.72853 0.0
H797 H 0.9101 0.01142 0.75678 0.0
C798 C 0.95617 0.9352 0.86152 0.0
C799 C 0.94322 0.95448 0.8777 0.0
C800 C 0.96362 0.93983 0.83484 0.0
C801 C 0.95824 0.96377 0.82387 0.0
C802 C 0.94588 0.98328 0.84013 0.0
C803 C 0.93859 0.97876 0.86683 0.0
C804 C 0.96419 0.96791 0.79503 0.0
C805 C 0.94276 0.97177 0.77821 0.0
C806 C 0.99035 0.96682 0.78384 0.0
C807 C 0.01394 0.9639 0.80082 0.0
C808 C 0.02003 0.98191 0.82335 0.0
C809 C 0.04224 0.97899 0.83932 0.0
C810 C 0.05863 0.95823 0.83286 0.0
C811 C 0.05288 0.94039 0.81037 0.0
C812 C 0.03067 0.94321 0.79435 0.0
C813 C 0.97623 0.00413 0.67151 0.0
C814 C 0.98925 0.98506 0.65512 0.0
C815 C 0.97109 0.00041 0.69882 0.0
C816 C 0.97861 0.97744 0.71026 0.0
C817 C 0.99173 0.95844 0.69403 0.0
C818 C 0.99697 0.96218 0.66672 0.0
C819 C 0.97291 0.97333 0.7392 0.0
C820 C 0.99434 0.9694 0.75602 0.0
C821 C 0.9467 0.97421 0.7504 0.0
C822 C 0.92293 0.97655 0.73346 0.0
C823 C 0.91696 0.95816 0.7112 0.0
C824 C 0.8946 0.96054 0.69525 0.0
C825 C 0.87794 0.98112 0.70147 0.0
C826 C 0.88356 0.99932 0.72371 0.0
C827 C 0.90592 0.99705 0.73971 0.0
H828 H 0.86063 0.98292 0.6891 0.0
H829 H 0.07582 0.95601 0.84524 0.0
H830 H 0.55707 0.02336 0.40122 0.0
H831 H 0.5442 0.02265 0.35386 0.0
H832 H 0.6004 0.09151 0.34306 0.0
H833 H 0.61272 0.09271 0.39074 0.0
H834 H 0.55679 0.09662 0.31664 0.0
H835 H 0.61447 0.02615 0.32146 0.0
H836 H 0.63077 0.98556 0.33836 0.0
H837 H 0.55673 0.94037 0.31523 0.0
H838 H 0.53983 0.98079 0.2985 0.0
H839 H 0.5632 0.0742 0.17171 0.0
H840 H 0.57399 0.07964 0.21987 0.0
H841 H 0.50871 0.02096 0.23678 0.0
H842 H 0.49762 0.0155 0.18881 0.0
H843 H 0.558 0.01157 0.25937 0.0
H844 H 0.50145 0.08403 0.25389 0.0
H845 H 0.48756 0.12512 0.23584 0.0
H846 H 0.56332 0.1671 0.25865 0.0
H847 H 0.57781 0.12612 0.2765 0.0
C848 C 0.56656 0.03842 0.38875 0.0
C849 C 0.58575 0.05819 0.39966 0.0
C850 C 0.5593 0.03793 0.36165 0.0
C851 C 0.57167 0.05674 0.34469 0.0
C852 C 0.59054 0.07681 0.35571 0.0
C853 C 0.59749 0.07756 0.38299 0.0
C854 C 0.56516 0.05516 0.31544 0.0
C855 C 0.55743 0.0781 0.30406 0.0
C856 C 0.56568 0.03094 0.29898 0.0
C857 C 0.5758 0.00656 0.30896 0.0
C858 C 0.60159 0.0076 0.32015 0.0
C859 C 0.61095 0.98462 0.32967 0.0
C860 C 0.59477 0.96042 0.32793 0.0
C861 C 0.56922 0.95914 0.31659 0.0
C862 C 0.55976 0.98207 0.30707 0.0
C863 C 0.55101 0.06259 0.18569 0.0
C864 C 0.52956 0.04438 0.17638 0.0
C865 C 0.55716 0.0658 0.2132 0.0
C866 C 0.54209 0.05075 0.23185 0.0
C867 C 0.52056 0.03276 0.22268 0.0
C868 C 0.51421 0.02975 0.19526 0.0
C869 C 0.54942 0.05289 0.26079 0.0
C870 C 0.5574 0.03005 0.27203 0.0
C871 C 0.54953 0.07727 0.27694 0.0
C872 C 0.54082 0.10193 0.26627 0.0
C873 C 0.51524 0.10195 0.25483 0.0
C874 C 0.50724 0.12524 0.24469 0.0
C875 C 0.52458 0.14869 0.24603 0.0
C876 C 0.54993 0.14891 0.25759 0.0
C877 C 0.55803 0.12567 0.26775 0.0
H878 H 0.51834 0.1667 0.23817 0.0
H879 H 0.60205 0.94265 0.33531 0.0
H880 H 0.54371 0.59382 0.21337 0.0
H881 H 0.54375 0.58019 0.25975 0.0
H882 H 0.45818 0.58607 0.26589 0.0
H883 H 0.45788 0.5995 0.21941 0.0
H884 H 0.48784 0.61106 0.31071 0.0
H885 H 0.47855 0.52666 0.25767 0.0
H886 H 0.49108 0.49362 0.2215 0.0
H887 H 0.56835 0.49141 0.25755 0.0
H888 H 0.55642 0.52475 0.29374 0.0
H889 H 0.46811 0.54908 0.43437 0.0
H890 H 0.46472 0.56081 0.38764 0.0
H891 H 0.54633 0.54142 0.37205 0.0
H892 H 0.54953 0.52877 0.41837 0.0
H893 H 0.51692 0.52286 0.33141 0.0
H894 H 0.52876 0.60751 0.38283 0.0
H895 H 0.51869 0.6418 0.4188 0.0
H896 H 0.44019 0.64548 0.38599 0.0
H897 H 0.44967 0.61093 0.35001 0.0
C898 C 0.52489 0.5922 0.22457 0.0
C899 C 0.50077 0.59766 0.21273 0.0
C900 C 0.52495 0.58435 0.25102 0.0
C901 C 0.50094 0.582 0.26611 0.0
C902 C 0.47689 0.58776 0.2545 0.0
C903 C 0.47676 0.59533 0.22794 0.0
C904 C 0.50101 0.57358 0.29408 0.0
C905 C 0.4938 0.59164 0.31529 0.0
C906 C 0.50952 0.54854 0.29995 0.0
C907 C 0.51668 0.52839 0.27827 0.0
C908 C 0.4983 0.5193 0.25776 0.0
C909 C 0.50528 0.50048 0.23728 0.0
C910 C 0.53052 0.49047 0.23719 0.0
C911 C 0.54882 0.49921 0.25762 0.0
C912 C 0.54195 0.51804 0.27814 0.0
C913 C 0.48532 0.54729 0.42097 0.0
C914 C 0.50911 0.53807 0.43011 0.0
C915 C 0.4834 0.55412 0.39429 0.0
C916 C 0.50542 0.55241 0.37642 0.0
C917 C 0.52907 0.54291 0.38544 0.0
C918 C 0.53088 0.53573 0.41197 0.0
C919 C 0.50392 0.56042 0.34828 0.0
C920 C 0.51086 0.54229 0.32696 0.0
C921 C 0.49554 0.58558 0.34235 0.0
C922 C 0.48982 0.60643 0.3639 0.0
C923 C 0.50928 0.61549 0.38341 0.0
C924 C 0.50369 0.63499 0.40378 0.0
C925 C 0.47879 0.64575 0.40473 0.0
C926 C 0.45946 0.63709 0.38525 0.0
C927 C 0.46493 0.61756 0.36485 0.0
H928 H 0.47451 0.66085 0.42052 0.0
H929 H 0.53588 0.4759 0.22131 0.0
H930 H 0.14779 0.45842 0.71884 0.0
H931 H 0.13658 0.47415 0.76501 0.0
H932 H 0.06596 0.50661 0.73643 0.0
H933 H 0.07751 0.49154 0.68994 0.0
H934 H 0.08799 0.53729 0.7798 0.0
H935 H 0.06101 0.4442 0.75703 0.0
H936 H 0.06799 0.39799 0.73983 0.0
H937 H 0.12618 0.39296 0.80159 0.0
H938 H 0.11983 0.43931 0.81891 0.0
H939 H 0.01104 0.52909 0.90223 0.0
H940 H 0.02711 0.52465 0.85544 0.0
H941 H 0.09741 0.48972 0.88137 0.0
H942 H 0.08135 0.49363 0.92808 0.0
H943 H 0.0752 0.46143 0.83894 0.0
H944 H 0.10066 0.55464 0.86277 0.0
H945 H 0.09303 0.60077 0.87966 0.0
H946 H 0.03657 0.60547 0.81621 0.0
H947 H 0.0436 0.55921 0.79915 0.0
C948 C 0.13022 0.46947 0.7223 0.0
C949 C 0.11327 0.47338 0.70087 0.0
C950 C 0.12381 0.4784 0.74868 0.0
C951 C 0.10005 0.49088 0.75418 0.0
C952 C 0.08429 0.49684 0.73261 0.0
C953 C 0.09091 0.48822 0.70607 0.0
C954 C 0.09028 0.49495 0.78241 0.0
C955 C 0.08494 0.52071 0.7927 0.0
C956 C 0.08654 0.4733 0.79926 0.0
C957 C 0.09012 0.4453 0.78911 0.0
C958 C 0.07541 0.43329 0.76683 0.0
C959 C 0.07924 0.40708 0.75707 0.0
C960 C 0.09756 0.39257 0.76957 0.0
C961 C 0.11202 0.40424 0.79191 0.0
C962 C 0.10831 0.43047 0.80172 0.0
C963 C 0.02993 0.52047 0.898 0.0
C964 C 0.04488 0.51167 0.91894 0.0
C965 C 0.03917 0.51812 0.87125 0.0
C966 C 0.06362 0.50716 0.86497 0.0
C967 C 0.07851 0.49829 0.88579 0.0
C968 C 0.06927 0.50054 0.91249 0.0
C969 C 0.07326 0.50387 0.8366 0.0
C970 C 0.07838 0.47811 0.82617 0.0
C971 C 0.07663 0.52551 0.8197 0.0
C972 C 0.07247 0.55337 0.82985 0.0
C973 C 0.08646 0.56543 0.85255 0.0
C974 C 0.08227 0.59162 0.86213 0.0
C975 C 0.06427 0.60602 0.84906 0.0
C976 C 0.05048 0.59428 0.82633 0.0
C977 C 0.05458 0.56809 0.81669 0.0
H978 H 0.06105 0.62628 0.85651 0.0
H979 H 0.1005 0.37228 0.76198 0.0
H980 H 0.7956 0.92377 0.95927 0.0
H981 H 0.75155 0.93255 0.97817 0.0
H982 H 0.78921 0.98732 0.04002 0.0
H983 H 0.83358 0.97854 0.0213 0.0
H984 H 0.74545 0.95591 0.05966 0.0
H985 H 0.76537 0.01255 0.98732 0.0
H986 H 0.77936 0.02368 0.94127 0.0
H987 H 0.71253 0.97277 0.90831 0.0
H988 H 0.69836 0.96101 0.95418 0.0
H989 H 0.62641 0.02538 0.08843 0.0
H990 H 0.67223 0.01411 0.07717 0.0
H991 H 0.64135 0.9559 0.01473 0.0
H992 H 0.59562 0.96683 0.02584 0.0
H993 H 0.68286 0.99128 0.99715 0.0
H994 H 0.66344 0.93462 0.07055 0.0
H995 H 0.64969 0.92476 0.11702 0.0
H996 H 0.71573 0.97772 0.14854 0.0
H997 H 0.72966 0.98821 0.10224 0.0
C998 C 0.79461 0.93746 0.97708 0.0
C999 C 0.81811 0.95068 0.9886 0.0
C1000 C 0.76939 0.94249 0.98782 0.0
C1001 C 0.76714 0.9609 0.01022 0.0
C1002 C 0.79055 0.97312 0.02265 0.0
C1003 C 0.81586 0.96812 0.01188 0.0
C1004 C 0.74028 0.96838 0.01956 0.0
C1005 C 0.73187 0.96399 0.04614 0.0
C1006 C 0.72253 0.97868 0.00181 0.0
C1007 C 0.73097 0.98569 0.97417 0.0
C1008 C 0.75379 0.00354 0.97024 0.0
C1009 C 0.76173 0.01 0.94418 0.0
C1010 C 0.74688 0.99888 0.92187 0.0
C1011 C 0.72403 0.98133 0.9256 0.0
C1012 C 0.71602 0.97478 0.95163 0.0
C1013 C 0.62935 0.01004 0.07244 0.0
C1014 C 0.60733 0.99706 0.058 0.0
C1015 C 0.65552 0.00357 0.06611 0.0
C1016 C 0.66011 0.98414 0.04517 0.0
C1017 C 0.63819 0.97095 0.03096 0.0
C1018 C 0.61206 0.9772 0.03741 0.0
C1019 C 0.6878 0.97835 0.03708 0.0
C1020 C 0.69643 0.98323 0.01071 0.0
C1021 C 0.70573 0.96871 0.0551 0.0
C1022 C 0.6974 0.96244 0.08295 0.0
C1023 C 0.67488 0.94437 0.0874 0.0
C1024 C 0.66709 0.93862 0.11371 0.0
C1025 C 0.68178 0.95067 0.13572 0.0
C1026 C 0.70434 0.96844 0.13147 0.0
C1027 C 0.7122 0.97428 0.1052 0.0
H1028 H 0.67572 0.94619 0.15607 0.0
H1029 H 0.75305 0.00392 0.90171 0.0
H1030 H 0.68792 0.99099 0.50444 0.0
H1031 H 0.73577 0.98968 0.51341 0.0
H1032 H 0.74894 0.07443 0.5034 0.0
H1033 H 0.70108 0.07595 0.49437 0.0
H1034 H 0.78746 0.0462 0.47725 0.0
H1035 H 0.74694 0.05375 0.56527 0.0
H1036 H 0.71462 0.0416 0.60144 0.0
H1037 H 0.74403 0.96376 0.60106 0.0
H1038 H 0.77629 0.97532 0.5646 0.0
H1039 H 0.90785 0.04172 0.57506 0.0
H1040 H 0.86073 0.04803 0.56698 0.0
H1041 H 0.86317 0.99774 0.4929 0.0
H1042 H 0.91031 0.9916 0.50055 0.0
H1043 H 0.81715 0.01313 0.56281 0.0
H1044 H 0.82248 0.02021 0.44677 0.0
H1045 H 0.85515 0.03512 0.41191 0.0
H1046 H 0.89682 0.08959 0.47088 0.0
H1047 H 0.86419 0.0753 0.50602 0.0
C1048 C 0.70098 0.00935 0.50408 0.0
C1049 C 0.69068 0.0336 0.49878 0.0
C1050 C 0.7283 0.00858 0.50931 0.0
C1051 C 0.74584 0.032 0.5093 0.0
C1052 C 0.73573 0.05614 0.50353 0.0
C1053 C 0.70837 0.05697 0.49846 0.0
C1054 C 0.77471 0.03129 0.51545 0.0
C1055 C 0.79398 0.03899 0.49595 0.0
C1056 C 0.78319 0.02232 0.54006 0.0
C1057 C 0.76386 0.01532 0.56203 0.0
C1058 C 0.74637 0.03396 0.57274 0.0
C1059 C 0.72809 0.0272 0.59333 0.0
C1060 C 0.72722 0.00191 0.6035 0.0
C1061 C 0.7447 0.98334 0.59314 0.0
C1062 C 0.763 0.98999 0.57253 0.0
C1063 C 0.89841 0.03203 0.557 0.0
C1064 C 0.91295 0.01623 0.53841 0.0
C1065 C 0.87145 0.03562 0.55246 0.0
C1066 C 0.85852 0.0236 0.5292 0.0
C1067 C 0.87286 0.00757 0.51076 0.0
C1068 C 0.89981 0.004 0.51525 0.0
C1069 C 0.82993 0.02752 0.52436 0.0
C1070 C 0.81068 0.02039 0.54411 0.0
C1071 C 0.82151 0.03739 0.50013 0.0
C1072 C 0.84101 0.04649 0.47907 0.0
C1073 C 0.83854 0.03546 0.45227 0.0
C1074 C 0.85706 0.04379 0.43247 0.0
C1075 C 0.87809 0.06323 0.43919 0.0
C1076 C 0.88058 0.07446 0.46572 0.0
C1077 C 0.86209 0.06623 0.4856 0.0
H1078 H 0.89241 0.06961 0.42383 0.0
H1079 H 0.71306 0.99671 0.61944 0.0
H1080 H 0.34105 0.59437 0.04476 0.0
H1081 H 0.29322 0.58214 0.03746 0.0
H1082 H 0.27394 0.65181 0.08756 0.0
H1083 H 0.32187 0.66407 0.09527 0.0
H1084 H 0.24333 0.60751 0.10068 0.0
H1085 H 0.26757 0.65015 0.01957 0.0
H1086 H 0.29416 0.65883 0.97829 0.0
H1087 H 0.27356 0.57798 0.94651 0.0
H1088 H 0.24714 0.56869 0.98779 0.0
H1089 H 0.10463 0.59447 0.06487 0.0
H1090 H 0.15163 0.61127 0.07183 0.0
H1091 H 0.17716 0.54326 0.02313 0.0
H1092 H 0.13032 0.52642 0.01582 0.0
H1093 H 0.20398 0.58951 0.00935 0.0
H1094 H 0.18167 0.54633 0.09126 0.0
H1095 H 0.15525 0.53743 0.1326 0.0
H1096 H 0.17233 0.61934 0.16279 0.0
H1097 H 0.19857 0.62882 0.12143 0.0
C1098 C 0.32669 0.60722 0.05411 0.0
C1099 C 0.33529 0.63021 0.07059 0.0
C1100 C 0.29933 0.60024 0.04982 0.0
C1101 C 0.28002 0.61619 0.06177 0.0
C1102 C 0.28852 0.63924 0.07813 0.0
C1103 C 0.31592 0.64626 0.08243 0.0
C1104 C 0.25095 0.60824 0.05785 0.0
C1105 C 0.23461 0.60403 0.08072 0.0
C1106 C 0.23973 0.60314 0.03179 0.0
C1107 C 0.25556 0.60866 0.0069 0.0
C1108 C 0.26888 0.63415 0.00388 0.0
C1109 C 0.28389 0.63919 0.98046 0.0
C1110 C 0.2856 0.61895 0.95982 0.0
C1111 C 0.27224 0.59363 0.96253 0.0
C1112 C 0.25722 0.58848 0.98593 0.0
C1113 C 0.12022 0.58301 0.05571 0.0
C1114 C 0.11365 0.55905 0.03981 0.0
C1115 C 0.14709 0.59262 0.05977 0.0
C1116 C 0.16789 0.57842 0.04813 0.0
C1117 C 0.16142 0.55454 0.03227 0.0
C1118 C 0.1346 0.5449 0.02822 0.0
C1119 C 0.19644 0.58854 0.05216 0.0
C1120 C 0.21268 0.59317 0.0293 0.0
C1121 C 0.20756 0.59402 0.07823 0.0
C1122 C 0.19183 0.58835 0.10312 0.0
C1123 C 0.1796 0.5625 0.10661 0.0
C1124 C 0.16469 0.55734 0.13006 0.0
C1125 C 0.16204 0.57782 0.15027 0.0
C1126 C 0.17436 0.6035 0.1471 0.0
C1127 C 0.18927 0.60877 0.12367 0.0
H1128 H 0.1505 0.57379 0.16842 0.0
H1129 H 0.29723 0.62289 0.9417 0.0
H1130 H 0.20357 0.4157 0.60071 0.0
H1131 H 0.25151 0.42142 0.58978 0.0
H1132 H 0.23977 0.49388 0.5515 0.0
H1133 H 0.19162 0.4883 0.56231 0.0
H1134 H 0.27366 0.46097 0.52197 0.0
H1135 H 0.26376 0.49866 0.6134 0.0
H1136 H 0.24885 0.49819 0.66103 0.0
H1137 H 0.29609 0.43245 0.67207 0.0
H1138 H 0.31099 0.43228 0.62437 0.0
H1139 H 0.40633 0.52239 0.52029 0.0
H1140 H 0.35839 0.51095 0.52705 0.0
H1141 H 0.37561 0.44365 0.57124 0.0
H1142 H 0.42383 0.45525 0.56502 0.0
H1143 H 0.33888 0.47126 0.59716 0.0
H1144 H 0.35084 0.43449 0.50687 0.0
H1145 H 0.36578 0.43409 0.45922 0.0
H1146 H 0.31501 0.49642 0.44562 0.0
H1147 H 0.30004 0.49747 0.49331 0.0
C1148 C 0.21111 0.43279 0.58982 0.0
C1149 C 0.19382 0.45166 0.58251 0.0
C1150 C 0.23853 0.43604 0.58366 0.0
C1151 C 0.24918 0.45821 0.5701 0.0
C1152 C 0.23189 0.47665 0.56203 0.0
C1153 C 0.20444 0.47348 0.56829 0.0
C1154 C 0.2785 0.46257 0.5651 0.0
C1155 C 0.28796 0.46352 0.53837 0.0
C1156 C 0.29709 0.46511 0.58653 0.0
C1157 C 0.28826 0.46527 0.61525 0.0
C1158 C 0.27079 0.48396 0.62593 0.0
C1159 C 0.26237 0.48384 0.65295 0.0
C1160 C 0.27145 0.46525 0.66955 0.0
C1161 C 0.28904 0.4468 0.65918 0.0
C1162 C 0.29749 0.44682 0.63216 0.0
C1163 C 0.40001 0.50505 0.53134 0.0
C1164 C 0.41899 0.48973 0.54211 0.0
C1165 C 0.37253 0.49846 0.53505 0.0
C1166 C 0.36339 0.47624 0.54934 0.0
C1167 C 0.38223 0.46084 0.56008 0.0
C1168 C 0.40979 0.46748 0.55647 0.0
C1169 C 0.33418 0.46983 0.55396 0.0
C1170 C 0.32469 0.46853 0.58066 0.0
C1171 C 0.3156 0.46682 0.53248 0.0
C1172 C 0.3245 0.46622 0.50375 0.0
C1173 C 0.34302 0.44826 0.49378 0.0
C1174 C 0.35146 0.44789 0.46675 0.0
C1175 C 0.3414 0.46526 0.44942 0.0
C1176 C 0.32281 0.483 0.45908 0.0
C1177 C 0.31431 0.48347 0.4861 0.0
H1178 H 0.34796 0.46494 0.4285 0.0
H1179 H 0.26492 0.46519 0.69046 0.0
H1180 H 0.96667 0.84566 0.99878 0.0
H1181 H 0.97876 0.80054 0.00555 0.0
H1182 H 0.91878 0.76748 0.94798 0.0
H1183 H 0.90601 0.81249 0.94177 0.0
H1184 H 0.9169 0.73835 0.98941 0.0
H1185 H 0.98758 0.77366 0.93213 0.0
H1186 H 0.02416 0.80615 0.9181 0.0
H1187 H 0.06811 0.79513 0.98952 0.0
H1188 H 0.03161 0.76282 0.00417 0.0
H1189 H 0.96459 0.60904 0.96882 0.0
H1190 H 0.95292 0.65426 0.96179 0.0
H1191 H 0.00593 0.68635 0.02613 0.0
H1192 H 0.01784 0.64123 0.0333 0.0
H1193 H 0.01155 0.7156 0.98102 0.0
H1194 H 0.9398 0.6797 0.0376 0.0
H1195 H 0.90326 0.64639 0.05003 0.0
H1196 H 0.86135 0.65781 0.97745 0.0
H1197 H 0.89785 0.69094 0.9644 0.0
C1198 C 0.95605 0.82878 0.98756 0.0
C1199 C 0.93543 0.83265 0.96968 0.0
C1200 C 0.96309 0.80299 0.99134 0.0
C1201 C 0.94999 0.78059 0.97695 0.0
C1202 C 0.92921 0.78442 0.95928 0.0
C1203 C 0.92197 0.81018 0.95572 0.0
C1204 C 0.9577 0.75315 0.98053 0.0
C1205 C 0.93756 0.73332 0.98719 0.0
C1206 C 0.98473 0.74662 0.97815 0.0
C1207 C 0.00673 0.76602 0.96937 0.0
C1208 C 0.00495 0.77832 0.94495 0.0
C1209 C 0.02568 0.79668 0.93687 0.0
C1210 C 0.04841 0.80276 0.95295 0.0
C1211 C 0.05048 0.79043 0.97711 0.0
C1212 C 0.02978 0.77207 0.9853 0.0
C1213 C 0.97383 0.62569 0.98148 0.0
C1214 C 0.99208 0.62145 0.00171 0.0
C1215 C 0.96706 0.65152 0.97747 0.0
C1216 C 0.97838 0.67361 0.99361 0.0
C1217 C 0.99694 0.66955 0.01349 0.0
C1218 C 0.00364 0.64372 0.01761 0.0
C1219 C 0.97076 0.70096 0.98985 0.0
C1220 C 0.99091 0.72072 0.98319 0.0
C1221 C 0.94373 0.70736 0.99198 0.0
C1222 C 0.92168 0.68761 -0.0001 0.0
C1223 C 0.92289 0.67496 0.02419 0.0
C1224 C 0.90217 0.65614 0.03137 0.0
C1225 C 0.88003 0.64994 0.01451 0.0
C1226 C 0.87853 0.66261 0.99047 0.0
C1227 C 0.89921 0.68142 0.98319 0.0
H1228 H 0.86401 0.63536 0.0201 0.0
H1229 H 0.06444 0.81698 0.94665 0.0
H1230 H 0.44769 0.69828 0.08268 0.0
H1231 H 0.444 0.74616 0.07836 0.0
H1232 H 0.4845 0.76494 0.15429 0.0
H1233 H 0.48872 0.71708 0.15848 0.0
H1234 H 0.43378 0.79463 0.14172 0.0
H1235 H 0.52297 0.7724 0.10946 0.0
H1236 H 0.55307 0.7452 0.08135 0.0
H1237 H 0.51341 0.76368 0.00974 0.0
H1238 H 0.4828 0.79067 0.03752 0.0
H1239 H 0.47827 0.93287 0.13519 0.0
H1240 H 0.47029 0.88513 0.14249 0.0
H1241 H 0.46601 0.86673 0.05616 0.0
H1242 H 0.47574 0.91417 0.04893 0.0
H1243 H 0.49593 0.83548 0.07407 0.0
H1244 H 0.40934 0.86038 0.10274 0.0
H1245 H 0.37632 0.88616 0.12841 0.0
H1246 H 0.40573 0.86189 0.20288 0.0
H1247 H 0.43917 0.83624 0.17768 0.0
C1248 C 0.45523 0.71258 0.09873 0.0
C1249 C 0.4683 0.70407 0.12101 0.0
C1250 C 0.4532 0.73986 0.09619 0.0
C1251 C 0.46386 0.75892 0.11609 0.0
C1252 C 0.47598 0.75042 0.13887 0.0
C1253 C 0.47851 0.72319 0.14115 0.0
C1254 C 0.46461 0.78778 0.11186 0.0
C1255 C 0.44745 0.80378 0.12713 0.0
C1256 C 0.4819 0.7993 0.09226 0.0
C1257 C 0.50042 0.78326 0.07557 0.0
C1258 C 0.5205 0.77043 0.08775 0.0
C1259 C 0.53769 0.75511 0.07187 0.0
C1260 C 0.5351 0.75264 0.04378 0.0
C1261 C 0.51537 0.76556 0.0315 0.0
C1262 C 0.49811 0.78088 0.0473 0.0
C1263 C 0.47522 0.91859 0.11786 0.0
C1264 C 0.47773 0.92709 0.09152 0.0
C1265 C 0.4705 0.8913 0.12201 0.0
C1266 C 0.4673 0.87216 0.09988 0.0
C1267 C 0.46859 0.88096 0.07359 0.0
C1268 C 0.47406 0.90808 0.06945 0.0
C1269 C 0.46488 0.84293 0.10385 0.0
C1270 C 0.48192 0.82666 0.08857 0.0
C1271 C 0.44701 0.83117 0.12308 0.0
C1272 C 0.42694 0.84659 0.13832 0.0
C1273 C 0.40891 0.86071 0.12461 0.0
C1274 C 0.39009 0.87527 0.13907 0.0
C1275 C 0.38897 0.87572 0.16726 0.0
C1276 C 0.40663 0.86155 0.18105 0.0
C1277 C 0.42551 0.84697 0.16668 0.0
H1278 H 0.37439 0.887 0.17842 0.0
H1279 H 0.54843 0.74077 0.03152 0.0
H1280 H 0.12027 0.3205 0.59928 0.0
H1281 H 0.10783 0.2727 0.58948 0.0
H1282 H 0.03375 0.27957 0.63451 0.0
H1283 H 0.04622 0.3273 0.64479 0.0
H1284 H 0.05838 0.23765 0.64854 0.0
H1285 H 0.03394 0.27181 0.56561 0.0
H1286 H 0.04066 0.29757 0.52519 0.0
H1287 H 0.10458 0.25002 0.49799 0.0
H1288 H 0.0985 0.2242 0.53846 0.0
H1289 H 0.99838 0.10794 0.6046 0.0
H1290 H 0.00811 0.15625 0.61383 0.0
H1291 H 0.08402 0.15265 0.57144 0.0
H1292 H 0.07442 0.10448 0.56185 0.0
H1293 H 0.05676 0.19309 0.55596 0.0
H1294 H 0.08177 0.15976 0.63965 0.0
H1295 H 0.07487 0.13406 0.68009 0.0
H1296 H 0.00937 0.18015 0.70577 0.0
H1297 H 0.01564 0.2059 0.66526 0.0
C1298 C 0.10122 0.3119 0.6069 0.0
C1299 C 0.08423 0.32769 0.62283 0.0
C1300 C 0.0941 0.28459 0.60122 0.0
C1301 C 0.06977 0.27263 0.61111 0.0
C1302 C 0.05262 0.28841 0.62671 0.0
C1303 C 0.05975 0.3157 0.63247 0.0
C1304 C 0.06267 0.24347 0.60601 0.0
C1305 C 0.0576 0.22795 0.62827 0.0
C1306 C 0.06224 0.23079 0.5796 0.0
C1307 C 0.06592 0.24624 0.5552 0.0
C1308 C 0.04957 0.26699 0.55112 0.0
C1309 C 0.05324 0.28157 0.52818 0.0
C1310 C 0.07308 0.27548 0.50907 0.0
C1311 C 0.08924 0.25474 0.51283 0.0
C1312 C 0.08568 0.2401 0.53575 0.0
C1313 C 0.01722 0.11737 0.59736 0.0
C1314 C 0.03562 0.10231 0.58248 0.0
C1315 C 0.02277 0.14498 0.60272 0.0
C1316 C 0.04685 0.15797 0.59343 0.0
C1317 C 0.0653 0.14299 0.57874 0.0
C1318 C 0.0598 0.11542 0.57338 0.0
C1319 C 0.05263 0.1873 0.59849 0.0
C1320 C 0.05744 0.20283 0.57621 0.0
C1321 C 0.05277 0.2 0.62488 0.0
C1322 C 0.049 0.18456 0.64927 0.0
C1323 C 0.06575 0.16427 0.6538 0.0
C1324 C 0.06198 0.14972 0.67675 0.0
C1325 C 0.04164 0.15541 0.69544 0.0
C1326 C 0.02508 0.17573 0.69125 0.0
C1327 C 0.02875 0.19032 0.66831 0.0
H1328 H 0.03876 0.14413 0.71321 0.0
H1329 H 0.07588 0.28679 0.49132 0.0
H1330 H 0.60673 0.21248 0.44484 0.0
H1331 H 0.59896 0.25924 0.45686 0.0
H1332 H 0.51415 0.24098 0.44257 0.0
H1333 H 0.52174 0.1942 0.43028 0.0
H1334 H 0.53242 0.28827 0.42274 0.0
H1335 H 0.53703 0.24578 0.50595 0.0
H1336 H 0.55727 0.21927 0.53896 0.0
H1337 H 0.62589 0.2771 0.54543 0.0
H1338 H 0.60621 0.30378 0.51216 0.0
H1339 H 0.51079 0.40142 0.53536 0.0
H1340 H 0.51608 0.35459 0.52086 0.0
H1341 H 0.56132 0.3795 0.45079 0.0
H1342 H 0.55589 0.42629 0.46489 0.0
H1343 H 0.56014 0.328 0.51356 0.0
H1344 H 0.54824 0.33283 0.39818 0.0
H1345 H 0.52485 0.3583 0.36648 0.0
H1346 H 0.46461 0.37399 0.42698 0.0
H1347 H 0.48743 0.34832 0.4589 0.0
C1348 C 0.58644 0.21842 0.44403 0.0
C1349 C 0.56481 0.19955 0.43679 0.0
C1350 C 0.58203 0.24515 0.451 0.0
C1351 C 0.55593 0.25349 0.45095 0.0
C1352 C 0.53444 0.23494 0.4428 0.0
C1353 C 0.53882 0.20819 0.43586 0.0
C1354 C 0.55091 0.28137 0.46022 0.0
C1355 C 0.53853 0.297 0.44257 0.0
C1356 C 0.55844 0.29257 0.48628 0.0
C1357 C 0.57026 0.27664 0.50638 0.0
C1358 C 0.55653 0.25273 0.51426 0.0
C1359 C 0.56789 0.2377 0.53304 0.0
C1360 C 0.59288 0.24646 0.54423 0.0
C1361 C 0.60655 0.27032 0.53671 0.0
C1362 C 0.59529 0.28542 0.51791 0.0
C1363 C 0.52182 0.39697 0.51683 0.0
C1364 C 0.53283 0.41766 0.50126 0.0
C1365 C 0.52488 0.37018 0.50861 0.0
C1366 C 0.53887 0.36354 0.48462 0.0
C1367 C 0.55009 0.38414 0.46916 0.0
C1368 C 0.54704 0.41091 0.47734 0.0
C1369 C 0.54202 0.33509 0.47593 0.0
C1370 C 0.55409 0.31934 0.4937 0.0
C1371 C 0.5338 0.32367 0.45015 0.0
C1372 C 0.51971 0.33887 0.431 0.0
C1373 C 0.52995 0.34163 0.40467 0.0
C1374 C 0.5168 0.35612 0.38668 0.0
C1375 C 0.49331 0.36783 0.39474 0.0
C1376 C 0.48286 0.365 0.42079 0.0
C1377 C 0.49592 0.35051 0.43886 0.0
H1378 H 0.48317 0.37906 0.38079 0.0
H1379 H 0.60164 0.23479 0.55877 0.0
loop_
_geom_bond_atom_site_label_1
_geom_bond_atom_site_label_2
_geom_bond_distance
_geom_bond_site_symmetry_2
_ccdc_geom_bond_type
O0 Cd1 2.300 . S
O0 C7 1.275 . S
Cd1 O0 2.300 . S
Cd1 O9 2.381 . S
Cd1 O10 2.378 . S
O2 Cd3 2.385 . S
O2 C7 1.255 . S
Cd3 O2 2.385 . S
Cd3 O4 2.317 . S
O4 Cd3 2.317 . S
O4 C5 1.232 . S
C5 O4 1.232 . S
C5 O6 1.218 . S
O6 C5 1.218 . S
C7 O0 1.275 . S
C7 O2 1.255 . S
C8 O9 1.258 . S
C8 O10 1.256 . S
O9 Cd1 2.381 . S
O9 C8 1.258 . S
O10 Cd1 2.378 . S
O10 C8 1.256 . S
O11 Cd12 2.300 . S
O11 C18 1.275 . S
Cd12 O11 2.300 . S
Cd12 O20 2.381 . S
Cd12 O21 2.378 . S
O13 Cd14 2.385 . S
O13 C18 1.255 . S
Cd14 O13 2.385 . S
Cd14 O15 2.317 . S
O15 Cd14 2.317 . S
O15 C16 1.232 . S
C16 O15 1.232 . S
C16 O17 1.218 . S
O17 C16 1.218 . S
C18 O11 1.275 . S
C18 O13 1.255 . S
C19 O20 1.258 . S
C19 O21 1.256 . S
O20 Cd12 2.381 . S
O20 C19 1.258 . S
O21 Cd12 2.378 . S
O21 C19 1.256 . S
O22 Cd23 2.300 . S
O22 C29 1.275 . S
Cd23 O22 2.300 . S
Cd23 O31 2.381 . S
Cd23 O32 2.378 . S
O24 Cd25 2.385 . S
O24 C29 1.255 . S
Cd25 O24 2.385 . S
Cd25 O26 2.317 . S
O26 Cd25 2.317 . S
O26 C27 1.232 . S
C27 O26 1.232 . S
C27 O28 1.218 . S
O28 C27 1.218 . S
C29 O22 1.275 . S
C29 O24 1.255 . S
C30 O31 1.258 . S
C30 O32 1.256 . S
O31 Cd23 2.381 . S
O31 C30 1.258 . S
O32 Cd23 2.378 . S
O32 C30 1.256 . S
O33 Cd34 2.300 . S
O33 C40 1.275 . S
Cd34 O33 2.300 . S
Cd34 O42 2.381 . S
Cd34 O43 2.378 . S
O35 Cd36 2.385 . S
O35 C40 1.255 . S
Cd36 O35 2.385 . S
Cd36 O37 2.317 . S
O37 Cd36 2.317 . S
O37 C38 1.232 . S
C38 O37 1.232 . S
C38 O39 1.218 . S
O39 C38 1.218 . S
C40 O33 1.275 . S
C40 O35 1.255 . S
C41 O42 1.258 . S
C41 O43 1.256 . S
O42 Cd34 2.381 . S
O42 C41 1.258 . S
O43 Cd34 2.378 . S
O43 C41 1.256 . S
O44 Cd45 2.300 . S
O44 C51 1.275 . S
Cd45 O44 2.300 . S
Cd45 O53 2.381 . S
Cd45 O54 2.378 . S
O46 Cd47 2.385 . S
O46 C51 1.255 . S
Cd47 O46 2.385 . S
Cd47 O48 2.317 . S
O48 Cd47 2.317 . S
O48 C49 1.232 . S
C49 O48 1.232 . S
C49 O50 1.218 1_565 S
O50 C49 1.218 1_545 S
C51 O44 1.275 . S
C51 O46 1.255 . S
C52 O53 1.258 . S
C52 O54 1.256 . S
O53 Cd45 2.381 . S
O53 C52 1.258 . S
O54 Cd45 2.378 . S
O54 C52 1.256 . S
O55 Cd56 2.300 . S
O55 C62 1.275 . S
Cd56 O55 2.300 . S
Cd56 O64 2.381 . S
Cd56 O65 2.378 . S
O57 Cd58 2.385 . S
O57 C62 1.255 . S
Cd58 O57 2.385 . S
Cd58 O59 2.317 . S
O59 Cd58 2.317 . S
O59 C60 1.232 . S
C60 O59 1.232 . S
C60 O61 1.218 . S
O61 C60 1.218 . S
C62 O55 1.275 . S
C62 O57 1.255 . S
C63 O64 1.258 . S
C63 O65 1.256 . S
O64 Cd56 2.381 . S
O64 C63 1.258 . S
O65 Cd56 2.378 . S
O65 C63 1.256 . S
O66 Cd67 2.300 . S
O66 C73 1.275 . S
Cd67 O66 2.300 . S
Cd67 O75 2.381 . S
Cd67 O76 2.378 . S
O68 Cd69 2.385 . S
O68 C73 1.255 . S
Cd69 O68 2.385 . S
Cd69 O70 2.317 . S
O70 Cd69 2.317 . S
O70 C71 1.232 . S
C71 O70 1.232 . S
C71 O72 1.218 . S
O72 C71 1.218 . S
C73 O66 1.275 . S
C73 O68 1.255 . S
C74 O75 1.258 . S
C74 O76 1.256 . S
O75 Cd67 2.381 . S
O75 C74 1.258 . S
O76 Cd67 2.378 . S
O76 C74 1.256 . S
O77 Cd78 2.300 . S
O77 C84 1.275 . S
Cd78 O77 2.300 . S
Cd78 O86 2.381 . S
Cd78 O87 2.378 . S
O79 Cd80 2.385 . S
O79 C84 1.255 . S
Cd80 O79 2.385 . S
Cd80 O81 2.317 . S
O81 Cd80 2.317 . S
O81 C82 1.232 . S
C82 O81 1.232 . S
C82 O83 1.218 . S
O83 C82 1.218 . S
C84 O77 1.275 . S
C84 O79 1.255 . S
C85 O86 1.258 . S
C85 O87 1.256 . S
O86 Cd78 2.381 . S
O86 C85 1.258 . S
O87 Cd78 2.378 . S
O87 C85 1.256 . S
O88 Zn89 1.968 . S
O88 C104 1.189 1_655 S
Zn89 O88 1.968 . S
Zn89 O90 1.949 1_655 S
Zn89 O96 1.919 . S
Zn89 O101 1.924 . S
O90 Zn89 1.949 1_455 S
O90 Zn91 1.923 1_445 S
O90 Zn92 1.950 . S
O90 Zn93 1.945 1_545 S
Zn91 O90 1.923 1_665 S
Zn91 O94 1.933 . S
Zn91 O97 1.941 1_565 S
Zn91 O98 1.965 1_665 S
Zn92 O90 1.950 . S
Zn92 O99 1.938 . S
Zn92 O100 1.906 . S
Zn92 O110 1.953 . S
Zn93 O90 1.945 1_565 S
Zn93 O95 1.932 1_455 S
Zn93 O102 1.977 . S
Zn93 O103 1.910 1_455 S
O94 Zn91 1.933 . S
O94 C105 1.226 . S
O95 Zn93 1.932 1_655 S
O95 C105 1.307 . S
O96 Zn89 1.919 . S
O96 C107 1.253 . S
O97 Zn91 1.941 1_545 S
O97 C107 1.283 . S
O98 Zn91 1.965 1_445 S
O98 C106 1.303 . S
O99 Zn92 1.938 . S
O99 C106 1.247 . S
O100 Zn92 1.906 . S
O100 C108 1.304 1_545 S
O101 Zn89 1.924 . S
O101 C109 1.311 . S
O102 Zn93 1.977 . S
O102 C108 1.272 . S
O103 Zn93 1.910 1_655 S
O103 C109 1.231 1_565 S
C104 O88 1.189 1_455 S
C104 O110 1.298 . S
C105 O94 1.226 . S
C105 O95 1.307 . S
C106 O98 1.303 . S
C106 O99 1.247 . S
C107 O96 1.253 . S
C107 O97 1.283 . S
C108 O100 1.304 1_565 S
C108 O102 1.272 . S
C109 O101 1.311 . S
C109 O103 1.231 1_545 S
O110 Zn92 1.953 . S
O110 C104 1.298 . S
O111 Zn112 1.953 . S
O111 C127 1.225 . S
Zn112 O111 1.953 . S
Zn112 O113 1.949 . S
Zn112 O119 1.919 . S
Zn112 O124 1.924 . S
O113 Zn112 1.949 . S
O113 Zn114 1.923 1_545 S
O113 Zn115 1.950 . S
O113 Zn116 1.945 . S
Zn114 O113 1.923 1_565 S
Zn114 O117 1.933 . S
Zn114 O120 1.941 . S
Zn114 O121 1.965 . S
Zn115 O113 1.950 . S
Zn115 O122 1.938 . S
Zn115 O123 1.906 . S
Zn115 O133 1.953 . S
Zn116 O113 1.945 . S
Zn116 O118 1.932 1_545 S
Zn116 O125 1.977 . S
Zn116 O126 1.910 . S
O117 Zn114 1.933 . S
O117 C128 1.226 . S
O118 Zn116 1.932 1_565 S
O118 C128 1.307 . S
O119 Zn112 1.919 . S
O119 C130 1.267 1_554 S
O120 Zn114 1.941 . S
O120 C130 1.276 1_564 S
O121 Zn114 1.965 . S
O121 C129 1.303 1_565 S
O122 Zn115 1.938 . S
O122 C129 1.247 . S
O123 Zn115 1.906 . S
O123 C131 1.304 . S
O124 Zn112 1.924 . S
O124 C132 1.311 . S
O125 Zn116 1.977 . S
O125 C131 1.272 . S
O126 Zn116 1.910 . S
O126 C132 1.231 . S
C127 O111 1.225 . S
C127 O133 1.298 . S
C128 O117 1.226 . S
C128 O118 1.307 . S
C129 O121 1.303 1_545 S
C129 O122 1.247 . S
C130 O119 1.267 1_556 S
C130 O120 1.276 1_546 S
C131 O123 1.304 . S
C131 O125 1.272 . S
C132 O124 1.311 . S
C132 O126 1.231 . S
O133 Zn115 1.953 . S
O133 C127 1.298 . S
O134 Zn135 1.953 . S
O134 C150 1.225 . S
Zn135 O134 1.953 . S
Zn135 O136 1.949 . S
Zn135 O142 1.919 . S
Zn135 O147 1.924 . S
O136 Zn135 1.949 . S
O136 Zn137 1.923 . S
O136 Zn138 1.950 . S
O136 Zn139 1.945 . S
Zn137 O136 1.923 . S
Zn137 O140 1.933 . S
Zn137 O143 1.941 . S
Zn137 O144 1.965 . S
Zn138 O136 1.950 . S
Zn138 O145 1.938 . S
Zn138 O146 1.906 . S
Zn138 O156 1.953 . S
Zn139 O136 1.945 . S
Zn139 O141 1.932 . S
Zn139 O148 1.977 . S
Zn139 O149 1.910 . S
O140 Zn137 1.933 . S
O140 C151 1.226 . S
O141 Zn139 1.932 . S
O141 C151 1.307 . S
O142 Zn135 1.919 . S
O142 C153 1.253 . S
O143 Zn137 1.941 . S
O143 C153 1.283 . S
O144 Zn137 1.965 . S
O144 C152 1.303 . S
O145 Zn138 1.938 . S
O145 C152 1.247 . S
O146 Zn138 1.906 . S
O146 C154 1.304 . S
O147 Zn135 1.924 . S
O147 C155 1.311 . S
O148 Zn139 1.977 . S
O148 C154 1.272 . S
O149 Zn139 1.910 . S
O149 C155 1.231 . S
C150 O134 1.225 . S
C150 O156 1.298 . S
C151 O140 1.226 . S
C151 O141 1.307 . S
C152 O144 1.303 . S
C152 O145 1.247 . S
C153 O142 1.253 . S
C153 O143 1.283 . S
C154 O146 1.304 . S
C154 O148 1.272 . S
C155 O147 1.311 . S
C155 O149 1.231 . S
O156 Zn138 1.953 . S
O156 C150 1.298 . S
O157 Zn158 1.953 . S
O157 C173 1.225 1_655 S
Zn158 O157 1.953 . S
Zn158 O159 1.949 1_655 S
Zn158 O165 1.919 . S
Zn158 O170 1.924 1_655 S
O159 Zn158 1.949 1_455 S
O159 Zn160 1.923 1_554 S
O159 Zn161 1.950 . S
O159 Zn162 1.945 1_554 S
Zn160 O159 1.923 1_556 S
Zn160 O163 1.933 . S
Zn160 O166 1.941 1_455 S
Zn160 O167 1.965 . S
Zn161 O159 1.950 . S
Zn161 O168 1.938 . S
Zn161 O169 1.906 . S
Zn161 O179 1.953 . S
Zn162 O159 1.945 1_556 S
Zn162 O164 1.932 . S
Zn162 O171 1.977 1_556 S
Zn162 O172 1.910 1_556 S
O163 Zn160 1.933 . S
O163 C174 1.226 . S
O164 Zn162 1.932 . S
O164 C174 1.307 . S
O165 Zn158 1.919 . S
O165 C176 1.253 1_554 S
O166 Zn160 1.941 1_655 S
O166 C176 1.283 . S
O167 Zn160 1.965 . S
O167 C175 1.313 . S
O168 Zn161 1.938 . S
O168 C175 1.237 1_554 S
O169 Zn161 1.906 . S
O169 C177 1.304 . S
O170 Zn158 1.924 1_455 S
O170 C178 1.311 . S
O171 Zn162 1.977 1_554 S
O171 C177 1.272 . S
O172 Zn162 1.910 1_554 S
O172 C178 1.231 . S
C173 O157 1.225 1_455 S
C173 O179 1.298 . S
C174 O163 1.226 . S
C174 O164 1.307 . S
C175 O167 1.313 . S
C175 O168 1.237 1_556 S
C176 O165 1.253 1_556 S
C176 O166 1.283 . S
C177 O169 1.304 . S
C177 O171 1.272 . S
C178 O170 1.311 . S
C178 O172 1.231 . S
O179 Zn161 1.953 . S
O179 C173 1.298 . S
H180 C198 0.951 . S
H181 C200 0.951 . S
H182 C202 0.950 . S
H183 C203 0.950 . S
H184 C205 0.950 . S
H185 C208 0.950 . S
H186 C209 0.950 . S
H187 C211 0.950 . S
H188 C212 0.950 . S
H189 C213 0.951 . S
H190 C215 0.951 . S
H191 C217 0.950 . S
H192 C218 0.950 . S
H193 C220 0.950 . S
H194 C223 0.950 . S
H195 C224 0.950 . S
H196 C226 0.950 . S
H197 C227 0.950 . S
C198 H180 0.951 . S
C198 C199 1.366 . S
C198 C200 1.388 . S
C199 C198 1.366 . S
C199 C203 1.385 . S
C200 H181 0.951 . S
C200 C198 1.388 . S
C200 C201 1.366 . S
C201 C200 1.366 . S
C201 C202 1.414 . S
C201 C204 1.499 . S
C202 H182 0.950 . S
C202 C201 1.414 . S
C202 C203 1.374 . S
C203 H183 0.950 . S
C203 C199 1.385 . S
C203 C202 1.374 . S
C204 C201 1.499 . S
C204 C205 1.373 . S
C204 C206 1.389 . S
C205 H184 0.950 . S
C205 C204 1.373 . S
C205 C221 1.377 . S
C206 C204 1.389 . S
C206 C207 1.524 . S
C206 C220 1.377 . S
C207 C206 1.524 . S
C207 C208 1.397 . S
C207 C212 1.363 . S
C208 H185 0.950 . S
C208 C207 1.397 . S
C208 C209 1.334 . S
C209 H186 0.950 . S
C209 C208 1.334 . S
C209 C210 1.287 . S
C210 C209 1.287 . S
C210 C211 1.524 . S
C210 H229 0.913 . S
C211 H187 0.950 . S
C211 C210 1.524 . S
C211 C212 1.415 . S
C212 H188 0.950 . S
C212 C207 1.363 . S
C212 C211 1.415 . S
C213 H189 0.951 . S
C213 C214 1.366 . S
C213 C215 1.388 . S
C214 C213 1.366 . S
C214 C218 1.385 . S
C215 H190 0.951 . S
C215 C213 1.388 . S
C215 C216 1.366 . S
C216 C215 1.366 . S
C216 C217 1.414 . S
C216 C219 1.499 . S
C217 H191 0.950 . S
C217 C216 1.414 . S
C217 C218 1.374 . S
C218 H192 0.950 . S
C218 C214 1.385 . S
C218 C217 1.374 . S
C219 C216 1.499 . S
C219 C220 1.373 . S
C219 C221 1.389 . S
C220 H193 0.950 . S
C220 C206 1.377 . S
C220 C219 1.373 . S
C221 C205 1.377 . S
C221 C219 1.389 . S
C221 C222 1.524 . S
C222 C221 1.524 . S
C222 C223 1.397 . S
C222 C227 1.363 . S
C223 H194 0.950 . S
C223 C222 1.397 . S
C223 C224 1.334 1_455 S
C224 H195 0.950 . S
C224 C223 1.334 1_655 S
C224 C225 1.287 . S
C225 C224 1.287 . S
C225 C226 1.524 . S
C225 H228 0.999 . S
C226 H196 0.950 . S
C226 C225 1.524 . S
C226 C227 1.415 1_655 S
C227 H197 0.950 . S
C227 C222 1.363 . S
C227 C226 1.415 1_455 S
H228 C225 0.999 . S
H229 C210 0.913 . S
H230 C248 0.951 . S
H231 C250 0.951 . S
H232 C252 0.950 . S
H233 C253 0.950 . S
H234 C255 0.950 . S
H235 C258 0.950 . S
H236 C259 0.950 . S
H237 C261 0.950 . S
H238 C262 0.950 . S
H239 C263 0.951 1_545 S
H240 C265 0.951 . S
H241 C267 0.950 . S
H242 C268 0.950 . S
H243 C270 0.950 . S
H244 C273 0.950 1_565 S
H245 C274 0.950 . S
H246 C276 0.950 . S
H247 C277 0.950 . S
C248 H230 0.951 . S
C248 C249 1.366 . S
C248 C250 1.388 . S
C249 C248 1.366 . S
C249 C253 1.385 . S
C250 H231 0.951 . S
C250 C248 1.388 . S
C250 C251 1.366 . S
C251 C250 1.366 . S
C251 C252 1.414 . S
C251 C254 1.499 . S
C252 H232 0.950 . S
C252 C251 1.414 . S
C252 C253 1.374 . S
C253 H233 0.950 . S
C253 C249 1.385 . S
C253 C252 1.374 . S
C254 C251 1.499 . S
C254 C255 1.373 . S
C254 C256 1.389 . S
C255 H234 0.950 . S
C255 C254 1.373 . S
C255 C271 1.377 . S
C256 C254 1.389 . S
C256 C257 1.524 . S
C256 C270 1.377 . S
C257 C256 1.524 . S
C257 C258 1.397 . S
C257 C262 1.363 . S
C258 H235 0.950 . S
C258 C257 1.397 . S
C258 C259 1.334 . S
C259 H236 0.950 . S
C259 C258 1.334 . S
C259 C260 1.287 . S
C260 C259 1.287 . S
C260 C261 1.524 . S
C260 H279 0.913 . S
C261 H237 0.950 . S
C261 C260 1.524 . S
C261 C262 1.415 . S
C262 H238 0.950 . S
C262 C257 1.363 . S
C262 C261 1.415 . S
C263 H239 0.951 1_565 S
C263 C264 1.366 . S
C263 C265 1.388 . S
C264 C263 1.366 . S
C264 C268 1.385 . S
C265 H240 0.951 . S
C265 C263 1.388 . S
C265 C266 1.366 . S
C266 C265 1.366 . S
C266 C267 1.414 . S
C266 C269 1.499 . S
C267 H241 0.950 . S
C267 C266 1.414 . S
C267 C268 1.374 . S
C268 H242 0.950 . S
C268 C264 1.385 . S
C268 C267 1.374 . S
C269 C266 1.499 . S
C269 C270 1.373 . S
C269 C271 1.389 . S
C270 H243 0.950 . S
C270 C256 1.377 . S
C270 C269 1.373 . S
C271 C255 1.377 . S
C271 C269 1.389 . S
C271 C272 1.524 1_565 S
C272 C271 1.524 1_545 S
C272 C273 1.397 . S
C272 C277 1.363 . S
C273 H244 0.950 1_545 S
C273 C272 1.397 . S
C273 C274 1.334 . S
C274 H245 0.950 . S
C274 C273 1.334 . S
C274 C275 1.287 . S
C275 C274 1.287 . S
C275 C276 1.524 . S
C275 H278 0.999 . S
C276 H246 0.950 . S
C276 C275 1.524 . S
C276 C277 1.415 . S
C277 H247 0.950 . S
C277 C272 1.363 . S
C277 C276 1.415 . S
H278 C275 0.999 . S
H279 C260 0.913 . S
H280 C298 0.951 . S
H281 C300 0.951 . S
H282 C302 0.950 . S
H283 C303 0.950 . S
H284 C305 0.950 . S
H285 C308 0.950 . S
H286 C309 0.950 . S
H287 C311 0.950 . S
H288 C312 0.950 . S
H289 C313 0.951 . S
H290 C315 0.951 . S
H291 C317 0.950 . S
H292 C318 0.950 . S
H293 C320 0.950 . S
H294 C323 0.950 . S
H295 C324 0.950 . S
H296 C326 0.950 . S
H297 C327 0.950 . S
C298 H280 0.951 . S
C298 C299 1.366 . S
C298 C300 1.388 . S
C299 C298 1.366 . S
C299 C303 1.385 . S
C300 H281 0.951 . S
C300 C298 1.388 . S
C300 C301 1.366 . S
C301 C300 1.366 . S
C301 C302 1.414 . S
C301 C304 1.499 . S
C302 H282 0.950 . S
C302 C301 1.414 . S
C302 C303 1.374 . S
C303 H283 0.950 . S
C303 C299 1.385 . S
C303 C302 1.374 . S
C304 C301 1.499 . S
C304 C305 1.373 . S
C304 C306 1.389 . S
C305 H284 0.950 . S
C305 C304 1.373 . S
C305 C321 1.377 . S
C306 C304 1.389 . S
C306 C307 1.524 . S
C306 C320 1.377 . S
C307 C306 1.524 . S
C307 C308 1.397 . S
C307 C312 1.363 . S
C308 H285 0.950 . S
C308 C307 1.397 . S
C308 C309 1.334 . S
C309 H286 0.950 . S
C309 C308 1.334 . S
C309 C310 1.287 . S
C310 C309 1.287 . S
C310 C311 1.524 . S
C310 H329 0.913 . S
C311 H287 0.950 . S
C311 C310 1.524 . S
C311 C312 1.415 . S
C312 H288 0.950 . S
C312 C307 1.363 . S
C312 C311 1.415 . S
C313 H289 0.951 . S
C313 C314 1.366 . S
C313 C315 1.388 . S
C314 C313 1.366 . S
C314 C318 1.385 . S
C315 H290 0.951 . S
C315 C313 1.388 . S
C315 C316 1.366 . S
C316 C315 1.366 . S
C316 C317 1.414 . S
C316 C319 1.499 . S
C317 H291 0.950 . S
C317 C316 1.414 . S
C317 C318 1.374 . S
C318 H292 0.950 . S
C318 C314 1.385 . S
C318 C317 1.374 . S
C319 C316 1.499 . S
C319 C320 1.373 . S
C319 C321 1.389 . S
C320 H293 0.950 . S
C320 C306 1.377 . S
C320 C319 1.373 . S
C321 C305 1.377 . S
C321 C319 1.389 . S
C321 C322 1.524 . S
C322 C321 1.524 . S
C322 C323 1.397 . S
C322 C327 1.363 . S
C323 H294 0.950 . S
C323 C322 1.397 . S
C323 C324 1.334 . S
C324 H295 0.950 . S
C324 C323 1.334 . S
C324 C325 1.287 . S
C325 C324 1.287 . S
C325 C326 1.524 . S
C325 H328 0.999 . S
C326 H296 0.950 . S
C326 C325 1.524 . S
C326 C327 1.415 . S
C327 H297 0.950 . S
C327 C322 1.363 . S
C327 C326 1.415 . S
H328 C325 0.999 . S
H329 C310 0.913 . S
H330 C348 0.951 . S
H331 C350 0.951 . S
H332 C352 0.950 . S
H333 C353 0.950 . S
H334 C355 0.950 . S
H335 C358 0.950 . S
H336 C359 0.950 . S
H337 C361 0.950 . S
H338 C362 0.950 . S
H339 C363 0.951 . S
H340 C365 0.951 . S
H341 C367 0.950 . S
H342 C368 0.950 . S
H343 C370 0.933 1_455 S
H344 C373 0.950 . S
H345 C374 0.950 . S
H346 C376 0.950 . S
H347 C377 0.950 . S
C348 H330 0.951 . S
C348 C349 1.366 . S
C348 C350 1.388 . S
C349 C348 1.366 . S
C349 C353 1.385 . S
C350 H331 0.951 . S
C350 C348 1.388 . S
C350 C351 1.366 . S
C351 C350 1.366 . S
C351 C352 1.414 . S
C351 C354 1.499 . S
C352 H332 0.950 . S
C352 C351 1.414 . S
C352 C353 1.374 . S
C353 H333 0.950 . S
C353 C349 1.385 . S
C353 C352 1.374 . S
C354 C351 1.499 . S
C354 C355 1.373 . S
C354 C356 1.389 . S
C355 H334 0.950 . S
C355 C354 1.373 . S
C355 C371 1.377 . S
C356 C354 1.389 . S
C356 C357 1.524 1_655 S
C356 C370 1.380 . S
C357 C356 1.524 1_455 S
C357 C358 1.397 . S
C357 C362 1.363 . S
C358 H335 0.950 . S
C358 C357 1.397 . S
C358 C359 1.334 . S
C359 H336 0.950 . S
C359 C358 1.334 . S
C359 C360 1.287 . S
C360 C359 1.287 . S
C360 C361 1.524 . S
C360 H379 0.913 . S
C361 H337 0.950 . S
C361 C360 1.524 . S
C361 C362 1.415 . S
C362 H338 0.950 . S
C362 C357 1.363 . S
C362 C361 1.415 . S
C363 H339 0.951 . S
C363 C364 1.366 . S
C363 C365 1.388 . S
C364 C363 1.366 . S
C364 C368 1.385 1_655 S
C365 H340 0.951 . S
C365 C363 1.388 . S
C365 C366 1.366 . S
C366 C365 1.366 . S
C366 C367 1.414 1_655 S
C366 C369 1.499 . S
C367 H341 0.950 . S
C367 C366 1.414 1_455 S
C367 C368 1.374 . S
C368 H342 0.950 . S
C368 C364 1.385 1_455 S
C368 C367 1.374 . S
C369 C366 1.499 . S
C369 C370 1.387 . S
C369 C371 1.389 . S
C370 H343 0.933 1_655 S
C370 C356 1.380 . S
C370 C369 1.387 . S
C371 C355 1.377 . S
C371 C369 1.389 . S
C371 C372 1.524 . S
C372 C371 1.524 . S
C372 C373 1.397 . S
C372 C377 1.363 . S
C373 H344 0.950 . S
C373 C372 1.397 . S
C373 C374 1.334 . S
C374 H345 0.950 . S
C374 C373 1.334 . S
C374 C375 1.287 . S
C375 C374 1.287 . S
C375 C376 1.524 . S
C375 H378 0.999 . S
C376 H346 0.950 . S
C376 C375 1.524 . S
C376 C377 1.415 . S
C377 H347 0.950 . S
C377 C372 1.363 . S
C377 C376 1.415 . S
H378 C375 0.999 . S
H379 C360 0.913 . S
H380 C398 0.951 . S
H381 C400 0.951 . S
H382 C402 0.950 . S
H383 C403 0.950 . S
H384 C405 0.950 . S
H385 C408 0.950 . S
H386 C409 0.950 . S
H387 C411 0.950 . S
H388 C412 0.950 . S
H389 C413 0.951 . S
H390 C415 0.951 . S
H391 C417 0.950 . S
H392 C418 0.950 . S
H393 C420 0.950 . S
H394 C423 0.950 . S
H395 C424 0.950 . S
H396 C426 0.950 . S
H397 C427 0.950 . S
C398 H380 0.951 . S
C398 C399 1.366 . S
C398 C400 1.388 . S
C399 C398 1.366 . S
C399 C403 1.385 . S
C400 H381 0.951 . S
C400 C398 1.388 . S
C400 C401 1.366 . S
C401 C400 1.366 . S
C401 C402 1.414 . S
C401 C404 1.499 . S
C402 H382 0.950 . S
C402 C401 1.414 . S
C402 C403 1.374 . S
C403 H383 0.950 . S
C403 C399 1.385 . S
C403 C402 1.374 . S
C404 C401 1.499 . S
C404 C405 1.373 . S
C404 C406 1.389 . S
C405 H384 0.950 . S
C405 C404 1.373 . S
C405 C421 1.377 . S
C406 C404 1.389 . S
C406 C407 1.524 . S
C406 C420 1.377 . S
C407 C406 1.524 . S
C407 C408 1.397 . S
C407 C412 1.363 . S
C408 H385 0.950 . S
C408 C407 1.397 . S
C408 C409 1.334 . S
C409 H386 0.950 . S
C409 C408 1.334 . S
C409 C410 1.287 . S
C410 C409 1.287 . S
C410 C411 1.524 . S
C410 H429 0.913 . S
C411 H387 0.950 . S
C411 C410 1.524 . S
C411 C412 1.415 . S
C412 H388 0.950 . S
C412 C407 1.363 . S
C412 C411 1.415 . S
C413 H389 0.951 . S
C413 C414 1.366 . S
C413 C415 1.388 . S
C414 C413 1.366 . S
C414 C418 1.385 . S
C415 H390 0.951 . S
C415 C413 1.388 . S
C415 C416 1.366 . S
C416 C415 1.366 . S
C416 C417 1.414 . S
C416 C419 1.499 . S
C417 H391 0.950 . S
C417 C416 1.414 . S
C417 C418 1.374 . S
C418 H392 0.950 . S
C418 C414 1.385 . S
C418 C417 1.374 . S
C419 C416 1.499 . S
C419 C420 1.373 . S
C419 C421 1.389 . S
C420 H393 0.950 . S
C420 C406 1.377 . S
C420 C419 1.373 . S
C421 C405 1.377 . S
C421 C419 1.389 . S
C421 C422 1.524 . S
C422 C421 1.524 . S
C422 C423 1.397 . S
C422 C427 1.363 . S
C423 H394 0.950 . S
C423 C422 1.397 . S
C423 C424 1.334 . S
C424 H395 0.950 . S
C424 C423 1.334 . S
C424 C425 1.287 . S
C425 C424 1.287 . S
C425 C426 1.524 . S
C425 H428 0.999 1_554 S
C426 H396 0.950 . S
C426 C425 1.524 . S
C426 C427 1.415 . S
C427 H397 0.950 . S
C427 C422 1.363 . S
C427 C426 1.415 . S
H428 C425 0.999 1_556 S
H429 C410 0.913 . S
H430 C448 0.951 . S
H431 C450 0.951 . S
H432 C452 0.950 . S
H433 C453 0.950 . S
H434 C455 0.950 . S
H435 C458 0.950 . S
H436 C459 0.950 . S
H437 C461 0.950 . S
H438 C462 0.954 . S
H439 C463 0.951 . S
H440 C465 0.951 . S
H441 C467 0.950 . S
H442 C468 0.950 . S
H443 C470 0.950 . S
H444 C473 0.950 . S
H445 C474 0.950 . S
H446 C476 0.950 . S
H447 C477 0.950 . S
C448 H430 0.951 . S
C448 C449 1.366 . S
C448 C450 1.388 . S
C449 C448 1.366 . S
C449 C453 1.385 . S
C450 H431 0.951 . S
C450 C448 1.388 . S
C450 C451 1.366 . S
C451 C450 1.366 . S
C451 C452 1.414 . S
C451 C454 1.499 . S
C452 H432 0.950 . S
C452 C451 1.414 . S
C452 C453 1.374 . S
C453 H433 0.950 . S
C453 C449 1.385 . S
C453 C452 1.374 . S
C454 C451 1.499 . S
C454 C455 1.373 . S
C454 C456 1.389 . S
C455 H434 0.950 . S
C455 C454 1.373 . S
C455 C471 1.377 . S
C456 C454 1.389 . S
C456 C457 1.524 . S
C456 C470 1.377 . S
C457 C456 1.524 . S
C457 C458 1.397 . S
C457 C462 1.376 . S
C458 H435 0.950 . S
C458 C457 1.397 . S
C458 C459 1.334 1_565 S
C459 H436 0.950 . S
C459 C458 1.334 1_545 S
C459 C460 1.287 . S
C460 C459 1.287 . S
C460 C461 1.524 . S
C460 H479 0.913 . S
C461 H437 0.950 . S
C461 C460 1.524 . S
C461 C462 1.398 1_545 S
C462 H438 0.954 . S
C462 C457 1.376 . S
C462 C461 1.398 1_565 S
C463 H439 0.951 . S
C463 C464 1.366 . S
C463 C465 1.388 . S
C464 C463 1.366 . S
C464 C468 1.385 . S
C465 H440 0.951 . S
C465 C463 1.388 . S
C465 C466 1.366 . S
C466 C465 1.366 . S
C466 C467 1.414 . S
C466 C469 1.499 . S
C467 H441 0.950 . S
C467 C466 1.414 . S
C467 C468 1.374 . S
C468 H442 0.950 . S
C468 C464 1.385 . S
C468 C467 1.374 . S
C469 C466 1.499 . S
C469 C470 1.373 . S
C469 C471 1.389 . S
C470 H443 0.950 . S
C470 C456 1.377 . S
C470 C469 1.373 . S
C471 C455 1.377 . S
C471 C469 1.389 . S
C471 C472 1.524 . S
C472 C471 1.524 . S
C472 C473 1.397 . S
C472 C477 1.363 . S
C473 H444 0.950 . S
C473 C472 1.397 . S
C473 C474 1.334 . S
C474 H445 0.950 . S
C474 C473 1.334 . S
C474 C475 1.287 . S
C475 C474 1.287 . S
C475 C476 1.524 . S
C475 H478 0.999 . S
C476 H446 0.950 . S
C476 C475 1.524 . S
C476 C477 1.415 . S
C477 H447 0.950 . S
C477 C472 1.363 . S
C477 C476 1.415 . S
H478 C475 0.999 . S
H479 C460 0.913 . S
H480 C498 0.951 . S
H481 C500 0.951 . S
H482 C502 0.950 . S
H483 C503 0.950 . S
H484 C505 0.950 . S
H485 C508 0.950 . S
H486 C509 0.950 . S
H487 C511 0.950 . S
H488 C512 0.950 . S
H489 C513 0.951 . S
H490 C515 0.951 . S
H491 C517 0.950 . S
H492 C518 0.953 1_554 S
H493 C520 0.950 . S
H494 C523 0.950 1_554 S
H495 C524 0.950 . S
H496 C526 0.950 . S
H497 C527 0.950 . S
C498 H480 0.951 . S
C498 C499 1.366 . S
C498 C500 1.388 . S
C499 C498 1.366 . S
C499 C503 1.385 . S
C500 H481 0.951 . S
C500 C498 1.388 . S
C500 C501 1.366 . S
C501 C500 1.366 . S
C501 C502 1.414 . S
C501 C504 1.499 . S
C502 H482 0.950 . S
C502 C501 1.414 . S
C502 C503 1.374 . S
C503 H483 0.950 . S
C503 C499 1.385 . S
C503 C502 1.374 . S
C504 C501 1.499 . S
C504 C505 1.373 . S
C504 C506 1.389 . S
C505 H484 0.950 . S
C505 C504 1.373 . S
C505 C521 1.377 . S
C506 C504 1.389 . S
C506 C507 1.524 . S
C506 C520 1.377 . S
C507 C506 1.524 . S
C507 C508 1.397 . S
C507 C512 1.363 . S
C508 H485 0.950 . S
C508 C507 1.397 . S
C508 C509 1.334 . S
C509 H486 0.950 . S
C509 C508 1.334 . S
C509 C510 1.287 . S
C510 C509 1.287 . S
C510 C511 1.524 . S
C510 H529 0.913 . S
C511 H487 0.950 . S
C511 C510 1.524 . S
C511 C512 1.415 . S
C512 H488 0.950 . S
C512 C507 1.363 . S
C512 C511 1.415 . S
C513 H489 0.951 . S
C513 C514 1.366 . S
C513 C515 1.388 . S
C514 C513 1.366 . S
C514 C518 1.385 . S
C515 H490 0.951 . S
C515 C513 1.388 . S
C515 C516 1.366 . S
C516 C515 1.366 . S
C516 C517 1.414 . S
C516 C519 1.499 . S
C517 H491 0.950 . S
C517 C516 1.414 . S
C517 C518 1.374 . S
C518 H492 0.953 1_556 S
C518 C514 1.385 . S
C518 C517 1.374 . S
C519 C516 1.499 . S
C519 C520 1.373 . S
C519 C521 1.389 . S
C520 H493 0.950 . S
C520 C506 1.377 . S
C520 C519 1.373 . S
C521 C505 1.377 . S
C521 C519 1.389 . S
C521 C522 1.524 . S
C522 C521 1.524 . S
C522 C523 1.397 . S
C522 C527 1.363 . S
C523 H494 0.950 1_556 S
C523 C522 1.397 . S
C523 C524 1.334 1_556 S
C524 H495 0.950 . S
C524 C523 1.334 1_554 S
C524 C525 1.287 1_554 S
C525 C524 1.287 1_556 S
C525 C526 1.524 . S
C525 H528 0.999 . S
C526 H496 0.950 . S
C526 C525 1.524 . S
C526 C527 1.415 . S
C527 H497 0.950 . S
C527 C522 1.363 . S
C527 C526 1.415 . S
H528 C525 0.999 . S
H529 C510 0.913 . S
H530 C548 0.951 . S
H531 C550 0.951 . S
H532 C552 0.950 . S
H533 C553 0.950 . S
H534 C555 0.950 . S
H535 C558 0.950 . S
H536 C559 0.950 . S
H537 C561 0.950 . S
H538 C562 0.950 . S
H539 C563 0.951 . S
H540 C565 0.951 . S
H541 C567 0.950 . S
H542 C568 0.950 . S
H543 C570 0.950 . S
H544 C573 0.950 . S
H545 C574 0.950 . S
H546 C576 0.950 . S
H547 C577 0.950 . S
C548 H530 0.951 . S
C548 C549 1.366 . S
C548 C550 1.388 . S
C549 C548 1.366 . S
C549 C553 1.385 . S
C550 H531 0.951 . S
C550 C548 1.388 . S
C550 C551 1.366 . S
C551 C550 1.366 . S
C551 C552 1.414 . S
C551 C554 1.499 . S
C552 H532 0.950 . S
C552 C551 1.414 . S
C552 C553 1.374 . S
C553 H533 0.950 . S
C553 C549 1.385 . S
C553 C552 1.374 . S
C554 C551 1.499 . S
C554 C555 1.373 . S
C554 C556 1.389 . S
C555 H534 0.950 . S
C555 C554 1.373 . S
C555 C571 1.377 . S
C556 C554 1.389 . S
C556 C557 1.524 . S
C556 C570 1.377 . S
C557 C556 1.524 . S
C557 C558 1.397 . S
C557 C562 1.363 . S
C558 H535 0.950 . S
C558 C557 1.397 . S
C558 C559 1.334 . S
C559 H536 0.950 . S
C559 C558 1.334 . S
C559 C560 1.287 . S
C560 C559 1.287 . S
C560 C561 1.524 . S
C560 H579 0.913 . S
C561 H537 0.950 . S
C561 C560 1.524 . S
C561 C562 1.415 . S
C562 H538 0.950 . S
C562 C557 1.363 . S
C562 C561 1.415 . S
C563 H539 0.951 . S
C563 C564 1.366 . S
C563 C565 1.388 . S
C564 C563 1.366 . S
C564 C568 1.385 . S
C565 H540 0.951 . S
C565 C563 1.388 . S
C565 C566 1.366 . S
C566 C565 1.366 . S
C566 C567 1.414 . S
C566 C569 1.499 . S
C567 H541 0.950 . S
C567 C566 1.414 . S
C567 C568 1.374 . S
C568 H542 0.950 . S
C568 C564 1.385 . S
C568 C567 1.374 . S
C569 C566 1.499 . S
C569 C570 1.373 . S
C569 C571 1.389 . S
C570 H543 0.950 . S
C570 C556 1.377 . S
C570 C569 1.373 . S
C571 C555 1.377 . S
C571 C569 1.389 . S
C571 C572 1.524 . S
C572 C571 1.524 . S
C572 C573 1.397 . S
C572 C577 1.363 . S
C573 H544 0.950 . S
C573 C572 1.397 . S
C573 C574 1.334 . S
C574 H545 0.950 . S
C574 C573 1.334 . S
C574 C575 1.287 . S
C575 C574 1.287 . S
C575 C576 1.524 . S
C575 H578 0.999 . S
C576 H546 0.950 . S
C576 C575 1.524 . S
C576 C577 1.415 . S
C577 H547 0.950 . S
C577 C572 1.363 . S
C577 C576 1.415 . S
H578 C575 0.999 . S
H579 C560 0.913 . S
H580 C598 0.951 . S
H581 C600 0.951 . S
H582 C602 0.950 . S
H583 C603 0.950 . S
H584 C605 0.950 . S
H585 C608 0.950 . S
H586 C609 0.950 . S
H587 C611 0.950 . S
H588 C612 0.950 . S
H589 C613 0.951 . S
H590 C615 0.951 . S
H591 C617 0.950 . S
H592 C618 0.950 . S
H593 C620 0.950 . S
H594 C623 0.950 . S
H595 C624 0.950 . S
H596 C626 0.950 . S
H597 C627 0.950 . S
C598 H580 0.951 . S
C598 C599 1.366 . S
C598 C600 1.388 . S
C599 C598 1.366 . S
C599 C603 1.385 . S
C600 H581 0.951 . S
C600 C598 1.388 . S
C600 C601 1.366 . S
C601 C600 1.366 . S
C601 C602 1.414 . S
C601 C604 1.499 . S
C602 H582 0.950 . S
C602 C601 1.414 . S
C602 C603 1.374 . S
C603 H583 0.950 . S
C603 C599 1.385 . S
C603 C602 1.374 . S
C604 C601 1.499 . S
C604 C605 1.373 . S
C604 C606 1.389 . S
C605 H584 0.950 . S
C605 C604 1.373 . S
C605 C621 1.377 . S
C606 C604 1.389 . S
C606 C607 1.524 . S
C606 C620 1.377 . S
C607 C606 1.524 . S
C607 C608 1.397 . S
C607 C612 1.363 . S
C608 H585 0.950 . S
C608 C607 1.397 . S
C608 C609 1.334 . S
C609 H586 0.950 . S
C609 C608 1.334 . S
C609 C610 1.287 . S
C610 C609 1.287 . S
C610 C611 1.524 . S
C610 H629 0.913 . S
C611 H587 0.950 . S
C611 C610 1.524 . S
C611 C612 1.415 . S
C612 H588 0.950 . S
C612 C607 1.363 . S
C612 C611 1.415 . S
C613 H589 0.951 . S
C613 C614 1.366 . S
C613 C615 1.388 . S
C614 C613 1.366 . S
C614 C618 1.385 . S
C615 H590 0.951 . S
C615 C613 1.388 . S
C615 C616 1.366 . S
C616 C615 1.366 . S
C616 C617 1.414 . S
C616 C619 1.499 . S
C617 H591 0.950 . S
C617 C616 1.414 . S
C617 C618 1.374 . S
C618 H592 0.950 . S
C618 C614 1.385 . S
C618 C617 1.374 . S
C619 C616 1.499 . S
C619 C620 1.373 . S
C619 C621 1.389 . S
C620 H593 0.950 . S
C620 C606 1.377 . S
C620 C619 1.373 . S
C621 C605 1.377 . S
C621 C619 1.389 . S
C621 C622 1.524 . S
C622 C621 1.524 . S
C622 C623 1.397 . S
C622 C627 1.363 . S
C623 H594 0.950 . S
C623 C622 1.397 . S
C623 C624 1.334 1_455 S
C624 H595 0.950 . S
C624 C623 1.334 1_655 S
C624 C625 1.287 . S
C625 C624 1.287 . S
C625 C626 1.524 1_655 S
C625 H628 0.999 . S
C626 H596 0.950 . S
C626 C625 1.524 1_455 S
C626 C627 1.415 . S
C627 H597 0.950 . S
C627 C622 1.363 . S
C627 C626 1.415 . S
H628 C625 0.999 . S
H629 C610 0.913 . S
H630 C648 0.951 . S
H631 C650 0.951 . S
H632 C652 0.950 1_554 S
H633 C653 0.950 . S
H634 C655 0.950 . S
H635 C658 0.950 . S
H636 C659 0.950 . S
H637 C661 0.950 . S
H638 C662 0.950 . S
H639 C663 0.951 . S
H640 C665 0.951 . S
H641 C667 0.950 1_556 S
H642 C668 0.950 . S
H643 C670 0.950 . S
H644 C673 0.950 . S
H645 C674 0.950 . S
H646 C676 0.950 1_554 S
H647 C677 0.950 . S
C648 H630 0.951 . S
C648 C649 1.366 . S
C648 C650 1.388 . S
C649 C648 1.366 . S
C649 C653 1.385 . S
C650 H631 0.951 . S
C650 C648 1.388 . S
C650 C651 1.366 . S
C651 C650 1.366 . S
C651 C652 1.414 . S
C651 C654 1.499 . S
C652 H632 0.950 1_556 S
C652 C651 1.414 . S
C652 C653 1.374 . S
C653 H633 0.950 . S
C653 C649 1.385 . S
C653 C652 1.374 . S
C654 C651 1.499 . S
C654 C655 1.373 . S
C654 C656 1.400 . S
C655 H634 0.950 . S
C655 C654 1.373 . S
C655 C671 1.377 . S
C656 C654 1.400 . S
C656 C657 1.522 1_556 S
C656 C670 1.367 1_556 S
C657 C656 1.522 1_554 S
C657 C658 1.397 . S
C657 C662 1.363 1_554 S
C658 H635 0.950 . S
C658 C657 1.397 . S
C658 C659 1.334 . S
C659 H636 0.950 . S
C659 C658 1.334 . S
C659 C660 1.287 . S
C660 C659 1.287 . S
C660 C661 1.524 1_554 S
C660 H679 0.913 . S
C661 H637 0.950 . S
C661 C660 1.524 1_556 S
C661 C662 1.415 . S
C662 H638 0.950 . S
C662 C657 1.363 1_556 S
C662 C661 1.415 . S
C663 H639 0.951 . S
C663 C664 1.366 . S
C663 C665 1.388 . S
C664 C663 1.366 . S
C664 C668 1.385 . S
C665 H640 0.951 . S
C665 C663 1.388 . S
C665 C666 1.366 . S
C666 C665 1.366 . S
C666 C667 1.414 . S
C666 C669 1.499 . S
C667 H641 0.950 1_554 S
C667 C666 1.414 . S
C667 C668 1.374 . S
C668 H642 0.950 . S
C668 C664 1.385 . S
C668 C667 1.374 . S
C669 C666 1.499 . S
C669 C670 1.373 . S
C669 C671 1.389 1_554 S
C670 H643 0.950 . S
C670 C656 1.367 1_554 S
C670 C669 1.373 . S
C671 C655 1.377 . S
C671 C669 1.389 1_556 S
C671 C672 1.524 . S
C672 C671 1.524 . S
C672 C673 1.397 . S
C672 C677 1.363 1_556 S
C673 H644 0.950 . S
C673 C672 1.397 . S
C673 C674 1.334 . S
C674 H645 0.950 . S
C674 C673 1.334 . S
C674 C675 1.287 . S
C675 C674 1.287 . S
C675 C676 1.524 . S
C675 H678 0.999 . S
C676 H646 0.950 1_556 S
C676 C675 1.524 . S
C676 C677 1.415 1_556 S
C677 H647 0.950 . S
C677 C672 1.363 1_554 S
C677 C676 1.415 1_554 S
H678 C675 0.999 . S
H679 C660 0.913 . S
H680 C698 0.951 . S
H681 C700 0.951 . S
H682 C702 0.950 . S
H683 C703 0.950 . S
H684 C705 0.950 . S
H685 C708 0.950 . S
H686 C709 0.950 . S
H687 C711 0.950 . S
H688 C712 0.950 . S
H689 C713 0.951 1_455 S
H690 C715 0.951 1_455 S
H691 C717 0.950 . S
H692 C718 0.950 . S
H693 C720 0.950 . S
H694 C723 0.950 . S
H695 C724 0.950 . S
H696 C726 0.950 . S
H697 C727 0.950 . S
C698 H680 0.951 . S
C698 C699 1.366 . S
C698 C700 1.388 . S
C699 C698 1.366 . S
C699 C703 1.385 . S
C700 H681 0.951 . S
C700 C698 1.388 . S
C700 C701 1.366 . S
C701 C700 1.366 . S
C701 C702 1.414 . S
C701 C704 1.499 . S
C702 H682 0.950 . S
C702 C701 1.414 . S
C702 C703 1.374 . S
C703 H683 0.950 . S
C703 C699 1.385 . S
C703 C702 1.374 . S
C704 C701 1.499 . S
C704 C705 1.373 . S
C704 C706 1.389 . S
C705 H684 0.950 . S
C705 C704 1.373 . S
C705 C721 1.377 . S
C706 C704 1.389 . S
C706 C707 1.524 . S
C706 C720 1.377 . S
C707 C706 1.524 . S
C707 C708 1.397 . S
C707 C712 1.363 . S
C708 H685 0.950 . S
C708 C707 1.397 . S
C708 C709 1.334 . S
C709 H686 0.950 . S
C709 C708 1.334 . S
C709 C710 1.287 . S
C710 C709 1.287 . S
C710 C711 1.524 . S
C710 H729 0.913 . S
C711 H687 0.950 . S
C711 C710 1.524 . S
C711 C712 1.415 . S
C712 H688 0.950 . S
C712 C707 1.363 . S
C712 C711 1.415 . S
C713 H689 0.951 1_655 S
C713 C714 1.366 . S
C713 C715 1.388 . S
C714 C713 1.366 . S
C714 C718 1.385 . S
C715 H690 0.951 1_655 S
C715 C713 1.388 . S
C715 C716 1.366 . S
C716 C715 1.366 . S
C716 C717 1.414 . S
C716 C719 1.499 . S
C717 H691 0.950 . S
C717 C716 1.414 . S
C717 C718 1.374 . S
C718 H692 0.950 . S
C718 C714 1.385 . S
C718 C717 1.374 . S
C719 C716 1.499 . S
C719 C720 1.373 . S
C719 C721 1.389 . S
C720 H693 0.950 . S
C720 C706 1.377 . S
C720 C719 1.373 . S
C721 C705 1.377 . S
C721 C719 1.389 . S
C721 C722 1.524 . S
C722 C721 1.524 . S
C722 C723 1.397 . S
C722 C727 1.363 1_655 S
C723 H694 0.950 . S
C723 C722 1.397 . S
C723 C724 1.334 . S
C724 H695 0.950 . S
C724 C723 1.334 . S
C724 C725 1.287 . S
C725 C724 1.287 . S
C725 C726 1.524 1_655 S
C725 H728 0.999 1_655 S
C726 H696 0.950 . S
C726 C725 1.524 1_455 S
C726 C727 1.415 . S
C727 H697 0.950 . S
C727 C722 1.363 1_455 S
C727 C726 1.415 . S
H728 C725 0.999 1_455 S
H729 C710 0.913 . S
H730 C748 0.951 . S
H731 C750 0.951 . S
H732 C752 0.950 . S
H733 C753 0.950 . S
H734 C755 0.950 . S
H735 C758 0.950 . S
H736 C759 0.950 . S
H737 C761 0.950 . S
H738 C762 0.950 . S
H739 C763 0.951 . S
H740 C765 0.951 . S
H741 C767 0.950 . S
H742 C768 0.950 . S
H743 C770 0.950 . S
H744 C773 0.950 . S
H745 C774 0.950 . S
H746 C776 0.950 . S
H747 C777 0.950 . S
C748 H730 0.951 . S
C748 C749 1.366 . S
C748 C750 1.388 . S
C749 C748 1.366 . S
C749 C753 1.385 . S
C750 H731 0.951 . S
C750 C748 1.388 . S
C750 C751 1.366 . S
C751 C750 1.366 . S
C751 C752 1.414 . S
C751 C754 1.499 . S
C752 H732 0.950 . S
C752 C751 1.414 . S
C752 C753 1.374 . S
C753 H733 0.950 . S
C753 C749 1.385 . S
C753 C752 1.374 . S
C754 C751 1.499 . S
C754 C755 1.373 . S
C754 C756 1.389 . S
C755 H734 0.950 . S
C755 C754 1.373 . S
C755 C771 1.377 . S
C756 C754 1.389 . S
C756 C757 1.524 . S
C756 C770 1.377 . S
C757 C756 1.524 . S
C757 C758 1.397 . S
C757 C762 1.363 . S
C758 H735 0.950 . S
C758 C757 1.397 . S
C758 C759 1.334 . S
C759 H736 0.950 . S
C759 C758 1.334 . S
C759 C760 1.287 . S
C760 C759 1.287 . S
C760 C761 1.524 . S
C760 H779 0.913 . S
C761 H737 0.950 . S
C761 C760 1.524 . S
C761 C762 1.415 . S
C762 H738 0.950 . S
C762 C757 1.363 . S
C762 C761 1.415 . S
C763 H739 0.951 . S
C763 C764 1.366 . S
C763 C765 1.388 . S
C764 C763 1.366 . S
C764 C768 1.385 . S
C765 H740 0.951 . S
C765 C763 1.388 . S
C765 C766 1.366 . S
C766 C765 1.366 . S
C766 C767 1.414 . S
C766 C769 1.499 . S
C767 H741 0.950 . S
C767 C766 1.414 . S
C767 C768 1.374 . S
C768 H742 0.950 . S
C768 C764 1.385 . S
C768 C767 1.374 . S
C769 C766 1.499 . S
C769 C770 1.373 . S
C769 C771 1.389 . S
C770 H743 0.950 . S
C770 C756 1.377 . S
C770 C769 1.373 . S
C771 C755 1.377 . S
C771 C769 1.389 . S
C771 C772 1.524 . S
C772 C771 1.524 . S
C772 C773 1.397 . S
C772 C777 1.363 . S
C773 H744 0.950 . S
C773 C772 1.397 . S
C773 C774 1.334 . S
C774 H745 0.950 . S
C774 C773 1.334 . S
C774 C775 1.287 . S
C775 C774 1.287 . S
C775 C776 1.524 . S
C775 H778 0.999 . S
C776 H746 0.950 . S
C776 C775 1.524 . S
C776 C777 1.415 . S
C777 H747 0.950 . S
C777 C772 1.363 . S
C777 C776 1.415 . S
H778 C775 0.999 . S
H779 C760 0.913 . S
H780 C798 0.951 . S
H781 C800 0.951 . S
H782 C802 0.950 . S
H783 C803 0.950 . S
H784 C805 0.950 . S
H785 C808 0.950 . S
H786 C809 0.950 . S
H787 C811 0.950 . S
H788 C812 0.950 1_565 S
H789 C813 0.951 . S
H790 C815 0.958 . S
H791 C817 0.950 1_455 S
H792 C818 0.950 1_455 S
H793 C820 0.950 1_545 S
H794 C823 0.950 . S
H795 C824 0.950 . S
H796 C826 0.950 . S
H797 C827 0.950 . S
C798 H780 0.951 . S
C798 C799 1.366 . S
C798 C800 1.388 . S
C799 C798 1.366 . S
C799 C803 1.385 . S
C800 H781 0.951 . S
C800 C798 1.388 . S
C800 C801 1.366 . S
C801 C800 1.366 . S
C801 C802 1.414 . S
C801 C804 1.499 . S
C802 H782 0.950 . S
C802 C801 1.414 . S
C802 C803 1.374 . S
C803 H783 0.950 . S
C803 C799 1.385 . S
C803 C802 1.374 . S
C804 C801 1.499 . S
C804 C805 1.373 . S
C804 C806 1.389 . S
C805 H784 0.950 . S
C805 C804 1.373 . S
C805 C821 1.377 . S
C806 C804 1.389 . S
C806 C807 1.524 1_565 S
C806 C820 1.377 . S
C807 C806 1.524 1_545 S
C807 C808 1.397 . S
C807 C812 1.363 1_655 S
C808 H785 0.950 . S
C808 C807 1.397 . S
C808 C809 1.334 . S
C809 H786 0.950 . S
C809 C808 1.334 . S
C809 C810 1.287 1_655 S
C810 C809 1.287 1_455 S
C810 C811 1.524 . S
C810 H829 0.913 . S
C811 H787 0.950 . S
C811 C810 1.524 . S
C811 C812 1.415 . S
C812 H788 0.950 1_545 S
C812 C807 1.363 1_455 S
C812 C811 1.415 . S
C813 H789 0.951 . S
C813 C814 1.374 . S
C813 C815 1.394 . S
C814 C813 1.374 . S
C814 C818 1.369 1_545 S
C815 H790 0.958 . S
C815 C813 1.394 . S
C815 C816 1.353 1_545 S
C816 C815 1.353 1_565 S
C816 C817 1.414 . S
C816 C819 1.499 . S
C817 H791 0.950 1_655 S
C817 C816 1.414 . S
C817 C818 1.374 . S
C818 H792 0.950 1_655 S
C818 C814 1.369 1_565 S
C818 C817 1.374 . S
C819 C816 1.499 . S
C819 C820 1.373 . S
C819 C821 1.389 . S
C820 H793 0.950 1_565 S
C820 C806 1.377 . S
C820 C819 1.373 . S
C821 C805 1.377 . S
C821 C819 1.389 . S
C821 C822 1.524 . S
C822 C821 1.524 . S
C822 C823 1.397 . S
C822 C827 1.363 . S
C823 H794 0.950 . S
C823 C822 1.397 . S
C823 C824 1.334 . S
C824 H795 0.950 . S
C824 C823 1.334 . S
C824 C825 1.287 . S
C825 C824 1.287 . S
C825 C826 1.524 . S
C825 H828 0.999 . S
C826 H796 0.950 . S
C826 C825 1.524 . S
C826 C827 1.415 . S
C827 H797 0.950 . S
C827 C822 1.363 . S
C827 C826 1.415 . S
H828 C825 0.999 . S
H829 C810 0.913 . S
H830 C848 0.951 . S
H831 C850 0.951 . S
H832 C852 0.950 . S
H833 C853 0.950 . S
H834 C855 0.950 . S
H835 C858 0.950 . S
H836 C859 0.950 . S
H837 C861 0.950 . S
H838 C862 0.950 1_545 S
H839 C863 0.951 . S
H840 C865 0.951 . S
H841 C867 0.950 . S
H842 C868 0.950 . S
H843 C870 0.950 . S
H844 C873 0.950 . S
H845 C874 0.950 . S
H846 C876 0.950 . S
H847 C877 0.950 . S
C848 H830 0.951 . S
C848 C849 1.366 . S
C848 C850 1.388 . S
C849 C848 1.366 . S
C849 C853 1.385 . S
C850 H831 0.951 . S
C850 C848 1.388 . S
C850 C851 1.366 . S
C851 C850 1.366 . S
C851 C852 1.414 . S
C851 C854 1.499 . S
C852 H832 0.950 . S
C852 C851 1.414 . S
C852 C853 1.374 . S
C853 H833 0.950 . S
C853 C849 1.385 . S
C853 C852 1.374 . S
C854 C851 1.499 . S
C854 C855 1.373 . S
C854 C856 1.389 . S
C855 H834 0.950 . S
C855 C854 1.373 . S
C855 C871 1.377 . S
C856 C854 1.389 . S
C856 C857 1.524 . S
C856 C870 1.377 . S
C857 C856 1.524 . S
C857 C858 1.397 . S
C857 C862 1.363 1_545 S
C858 H835 0.950 . S
C858 C857 1.397 . S
C858 C859 1.334 1_545 S
C859 H836 0.950 . S
C859 C858 1.334 1_565 S
C859 C860 1.287 . S
C860 C859 1.287 . S
C860 C861 1.524 . S
C860 H879 0.913 . S
C861 H837 0.950 . S
C861 C860 1.524 . S
C861 C862 1.415 . S
C862 H838 0.950 1_565 S
C862 C857 1.363 1_565 S
C862 C861 1.415 . S
C863 H839 0.951 . S
C863 C864 1.366 . S
C863 C865 1.388 . S
C864 C863 1.366 . S
C864 C868 1.385 . S
C865 H840 0.951 . S
C865 C863 1.388 . S
C865 C866 1.366 . S
C866 C865 1.366 . S
C866 C867 1.414 . S
C866 C869 1.499 . S
C867 H841 0.950 . S
C867 C866 1.414 . S
C867 C868 1.374 . S
C868 H842 0.950 . S
C868 C864 1.385 . S
C868 C867 1.374 . S
C869 C866 1.499 . S
C869 C870 1.373 . S
C869 C871 1.389 . S
C870 H843 0.950 . S
C870 C856 1.377 . S
C870 C869 1.373 . S
C871 C855 1.377 . S
C871 C869 1.389 . S
C871 C872 1.524 . S
C872 C871 1.524 . S
C872 C873 1.397 . S
C872 C877 1.363 . S
C873 H844 0.950 . S
C873 C872 1.397 . S
C873 C874 1.334 . S
C874 H845 0.950 . S
C874 C873 1.334 . S
C874 C875 1.287 . S
C875 C874 1.287 . S
C875 C876 1.524 . S
C875 H878 0.999 . S
C876 H846 0.950 . S
C876 C875 1.524 . S
C876 C877 1.415 . S
C877 H847 0.950 . S
C877 C872 1.363 . S
C877 C876 1.415 . S
H878 C875 0.999 . S
H879 C860 0.913 . S
H880 C898 0.951 . S
H881 C900 0.951 . S
H882 C902 0.950 . S
H883 C903 0.950 . S
H884 C905 0.950 . S
H885 C908 0.950 . S
H886 C909 0.950 . S
H887 C911 0.950 . S
H888 C912 0.950 . S
H889 C913 0.951 . S
H890 C915 0.951 . S
H891 C917 0.950 . S
H892 C918 0.950 . S
H893 C920 0.950 . S
H894 C923 0.950 . S
H895 C924 0.950 . S
H896 C926 0.950 . S
H897 C927 0.950 . S
C898 H880 0.951 . S
C898 C899 1.366 . S
C898 C900 1.388 . S
C899 C898 1.366 . S
C899 C903 1.385 . S
C900 H881 0.951 . S
C900 C898 1.388 . S
C900 C901 1.366 . S
C901 C900 1.366 . S
C901 C902 1.414 . S
C901 C904 1.499 . S
C902 H882 0.950 . S
C902 C901 1.414 . S
C902 C903 1.374 . S
C903 H883 0.950 . S
C903 C899 1.385 . S
C903 C902 1.374 . S
C904 C901 1.499 . S
C904 C905 1.373 . S
C904 C906 1.389 . S
C905 H884 0.950 . S
C905 C904 1.373 . S
C905 C921 1.377 . S
C906 C904 1.389 . S
C906 C907 1.524 . S
C906 C920 1.377 . S
C907 C906 1.524 . S
C907 C908 1.397 . S
C907 C912 1.363 . S
C908 H885 0.950 . S
C908 C907 1.397 . S
C908 C909 1.334 . S
C909 H886 0.950 . S
C909 C908 1.334 . S
C909 C910 1.287 . S
C910 C909 1.287 . S
C910 C911 1.524 . S
C910 H929 0.913 . S
C911 H887 0.950 . S
C911 C910 1.524 . S
C911 C912 1.415 . S
C912 H888 0.950 . S
C912 C907 1.363 . S
C912 C911 1.415 . S
C913 H889 0.951 . S
C913 C914 1.366 . S
C913 C915 1.388 . S
C914 C913 1.366 . S
C914 C918 1.385 . S
C915 H890 0.951 . S
C915 C913 1.388 . S
C915 C916 1.366 . S
C916 C915 1.366 . S
C916 C917 1.414 . S
C916 C919 1.499 . S
C917 H891 0.950 . S
C917 C916 1.414 . S
C917 C918 1.374 . S
C918 H892 0.950 . S
C918 C914 1.385 . S
C918 C917 1.374 . S
C919 C916 1.499 . S
C919 C920 1.373 . S
C919 C921 1.389 . S
C920 H893 0.950 . S
C920 C906 1.377 . S
C920 C919 1.373 . S
C921 C905 1.377 . S
C921 C919 1.389 . S
C921 C922 1.524 . S
C922 C921 1.524 . S
C922 C923 1.397 . S
C922 C927 1.363 . S
C923 H894 0.950 . S
C923 C922 1.397 . S
C923 C924 1.334 . S
C924 H895 0.950 . S
C924 C923 1.334 . S
C924 C925 1.287 . S
C925 C924 1.287 . S
C925 C926 1.524 . S
C925 H928 0.999 . S
C926 H896 0.950 . S
C926 C925 1.524 . S
C926 C927 1.415 . S
C927 H897 0.950 . S
C927 C922 1.363 . S
C927 C926 1.415 . S
H928 C925 0.999 . S
H929 C910 0.913 . S
H930 C948 0.951 . S
H931 C950 0.951 . S
H932 C952 0.950 . S
H933 C953 0.950 . S
H934 C955 0.950 . S
H935 C958 0.950 . S
H936 C959 0.950 . S
H937 C961 0.950 . S
H938 C962 0.950 . S
H939 C963 0.951 . S
H940 C965 0.951 . S
H941 C967 0.950 . S
H942 C968 0.950 . S
H943 C970 0.950 . S
H944 C973 0.950 . S
H945 C974 0.950 . S
H946 C976 0.950 . S
H947 C977 0.950 . S
C948 H930 0.951 . S
C948 C949 1.366 . S
C948 C950 1.388 . S
C949 C948 1.366 . S
C949 C953 1.385 . S
C950 H931 0.951 . S
C950 C948 1.388 . S
C950 C951 1.366 . S
C951 C950 1.366 . S
C951 C952 1.414 . S
C951 C954 1.499 . S
C952 H932 0.950 . S
C952 C951 1.414 . S
C952 C953 1.374 . S
C953 H933 0.950 . S
C953 C949 1.385 . S
C953 C952 1.374 . S
C954 C951 1.499 . S
C954 C955 1.373 . S
C954 C956 1.389 . S
C955 H934 0.950 . S
C955 C954 1.373 . S
C955 C971 1.377 . S
C956 C954 1.389 . S
C956 C957 1.524 . S
C956 C970 1.377 . S
C957 C956 1.524 . S
C957 C958 1.397 . S
C957 C962 1.363 . S
C958 H935 0.950 . S
C958 C957 1.397 . S
C958 C959 1.334 . S
C959 H936 0.950 . S
C959 C958 1.334 . S
C959 C960 1.287 . S
C960 C959 1.287 . S
C960 C961 1.524 . S
C960 H979 0.913 . S
C961 H937 0.950 . S
C961 C960 1.524 . S
C961 C962 1.415 . S
C962 H938 0.950 . S
C962 C957 1.363 . S
C962 C961 1.415 . S
C963 H939 0.951 . S
C963 C964 1.366 . S
C963 C965 1.388 . S
C964 C963 1.366 . S
C964 C968 1.385 . S
C965 H940 0.951 . S
C965 C963 1.388 . S
C965 C966 1.366 . S
C966 C965 1.366 . S
C966 C967 1.414 . S
C966 C969 1.499 . S
C967 H941 0.950 . S
C967 C966 1.414 . S
C967 C968 1.374 . S
C968 H942 0.950 . S
C968 C964 1.385 . S
C968 C967 1.374 . S
C969 C966 1.499 . S
C969 C970 1.373 . S
C969 C971 1.389 . S
C970 H943 0.950 . S
C970 C956 1.377 . S
C970 C969 1.373 . S
C971 C955 1.377 . S
C971 C969 1.389 . S
C971 C972 1.524 . S
C972 C971 1.524 . S
C972 C973 1.397 . S
C972 C977 1.363 . S
C973 H944 0.950 . S
C973 C972 1.397 . S
C973 C974 1.334 1_455 S
C974 H945 0.950 . S
C974 C973 1.334 1_655 S
C974 C975 1.287 . S
C975 C974 1.287 . S
C975 C976 1.524 . S
C975 H978 0.999 . S
C976 H946 0.950 . S
C976 C975 1.524 . S
C976 C977 1.415 1_655 S
C977 H947 0.950 . S
C977 C972 1.363 . S
C977 C976 1.415 1_455 S
H978 C975 0.999 . S
H979 C960 0.913 . S
H980 C998 0.951 . S
H981 C1000 0.951 . S
H982 C1002 0.950 . S
H983 C1003 0.950 . S
H984 C1005 0.950 . S
H985 C1008 0.950 1_554 S
H986 C1009 0.950 . S
H987 C1011 0.950 . S
H988 C1012 0.950 . S
H989 C1013 0.951 . S
H990 C1015 0.951 . S
H991 C1017 0.950 . S
H992 C1018 0.950 1_556 S
H993 C1020 0.950 . S
H994 C1023 0.950 . S
H995 C1024 0.950 . S
H996 C1026 0.950 . S
H997 C1027 0.950 . S
C998 H980 0.951 . S
C998 C999 1.366 . S
C998 C1000 1.388 . S
C999 C998 1.366 . S
C999 C1003 1.385 1_556 S
C1000 H981 0.951 . S
C1000 C998 1.388 . S
C1000 C1001 1.366 . S
C1001 C1000 1.366 . S
C1001 C1002 1.414 1_556 S
C1001 C1004 1.499 1_556 S
C1002 H982 0.950 . S
C1002 C1001 1.414 1_554 S
C1002 C1003 1.374 . S
C1003 H983 0.950 . S
C1003 C999 1.385 1_554 S
C1003 C1002 1.374 . S
C1004 C1001 1.499 1_554 S
C1004 C1005 1.373 . S
C1004 C1006 1.389 1_564 S
C1005 H984 0.950 . S
C1005 C1004 1.373 . S
C1005 C1021 1.377 . S
C1006 C1004 1.389 1_546 S
C1006 C1007 1.524 . S
C1006 C1020 1.377 . S
C1007 C1006 1.524 . S
C1007 C1008 1.397 . S
C1007 C1012 1.363 . S
C1008 H985 0.950 1_556 S
C1008 C1007 1.397 . S
C1008 C1009 1.334 . S
C1009 H986 0.950 . S
C1009 C1008 1.334 . S
C1009 C1010 1.287 . S
C1010 C1009 1.287 . S
C1010 C1011 1.524 . S
C1010 H1029 0.913 . S
C1011 H987 0.950 . S
C1011 C1010 1.524 . S
C1011 C1012 1.415 . S
C1012 H988 0.950 . S
C1012 C1007 1.363 . S
C1012 C1011 1.415 . S
C1013 H989 0.951 . S
C1013 C1014 1.366 . S
C1013 C1015 1.388 . S
C1014 C1013 1.366 . S
C1014 C1018 1.385 . S
C1015 H990 0.951 . S
C1015 C1013 1.388 . S
C1015 C1016 1.366 . S
C1016 C1015 1.366 . S
C1016 C1017 1.414 1_554 S
C1016 C1019 1.508 . S
C1017 H991 0.950 . S
C1017 C1016 1.414 1_556 S
C1017 C1018 1.374 1_556 S
C1018 H992 0.950 1_554 S
C1018 C1014 1.385 . S
C1018 C1017 1.374 1_554 S
C1019 C1016 1.508 . S
C1019 C1020 1.398 1_554 S
C1019 C1021 1.358 1_545 S
C1020 H993 0.950 . S
C1020 C1006 1.377 . S
C1020 C1019 1.398 1_556 S
C1021 C1005 1.377 . S
C1021 C1019 1.358 1_565 S
C1021 C1022 1.524 . S
C1022 C1021 1.524 . S
C1022 C1023 1.397 . S
C1022 C1027 1.363 . S
C1023 H994 0.950 . S
C1023 C1022 1.397 . S
C1023 C1024 1.334 . S
C1024 H995 0.950 . S
C1024 C1023 1.334 . S
C1024 C1025 1.287 . S
C1025 C1024 1.287 . S
C1025 C1026 1.524 . S
C1025 H1028 0.999 . S
C1026 H996 0.950 . S
C1026 C1025 1.524 . S
C1026 C1027 1.415 . S
C1027 H997 0.950 . S
C1027 C1022 1.363 . S
C1027 C1026 1.415 . S
H1028 C1025 0.999 . S
H1029 C1010 0.913 . S
H1030 C1048 0.951 . S
H1031 C1050 0.951 . S
H1032 C1052 0.950 . S
H1033 C1053 0.950 . S
H1034 C1055 0.950 . S
H1035 C1058 0.950 . S
H1036 C1059 0.950 . S
H1037 C1061 0.950 1_565 S
H1038 C1062 0.950 1_565 S
H1039 C1063 0.951 . S
H1040 C1065 0.951 . S
H1041 C1067 0.950 1_565 S
H1042 C1068 0.950 . S
H1043 C1070 0.950 . S
H1044 C1073 0.950 . S
H1045 C1074 0.950 . S
H1046 C1076 0.950 . S
H1047 C1077 0.950 . S
C1048 H1030 0.951 . S
C1048 C1049 1.366 . S
C1048 C1050 1.388 . S
C1049 C1048 1.366 . S
C1049 C1053 1.385 . S
C1050 H1031 0.951 . S
C1050 C1048 1.388 . S
C1050 C1051 1.366 . S
C1051 C1050 1.366 . S
C1051 C1052 1.414 . S
C1051 C1054 1.499 . S
C1052 H1032 0.950 . S
C1052 C1051 1.414 . S
C1052 C1053 1.374 . S
C1053 H1033 0.950 . S
C1053 C1049 1.385 . S
C1053 C1052 1.374 . S
C1054 C1051 1.499 . S
C1054 C1055 1.373 . S
C1054 C1056 1.389 . S
C1055 H1034 0.950 . S
C1055 C1054 1.373 . S
C1055 C1071 1.377 . S
C1056 C1054 1.389 . S
C1056 C1057 1.524 . S
C1056 C1070 1.377 . S
C1057 C1056 1.524 . S
C1057 C1058 1.397 . S
C1057 C1062 1.363 . S
C1058 H1035 0.950 . S
C1058 C1057 1.397 . S
C1058 C1059 1.334 . S
C1059 H1036 0.950 . S
C1059 C1058 1.334 . S
C1059 C1060 1.287 . S
C1060 C1059 1.287 . S
C1060 C1061 1.524 . S
C1060 H1079 0.913 . S
C1061 H1037 0.950 1_545 S
C1061 C1060 1.524 . S
C1061 C1062 1.415 . S
C1062 H1038 0.950 1_545 S
C1062 C1057 1.363 . S
C1062 C1061 1.415 . S
C1063 H1039 0.951 . S
C1063 C1064 1.366 . S
C1063 C1065 1.388 . S
C1064 C1063 1.366 . S
C1064 C1068 1.385 1_545 S
C1065 H1040 0.951 . S
C1065 C1063 1.388 . S
C1065 C1066 1.366 . S
C1066 C1065 1.366 . S
C1066 C1067 1.414 . S
C1066 C1069 1.499 . S
C1067 H1041 0.950 1_545 S
C1067 C1066 1.414 . S
C1067 C1068 1.374 1_545 S
C1068 H1042 0.950 . S
C1068 C1064 1.385 1_565 S
C1068 C1067 1.374 1_565 S
C1069 C1066 1.499 . S
C1069 C1070 1.373 . S
C1069 C1071 1.389 . S
C1070 H1043 0.950 . S
C1070 C1056 1.377 . S
C1070 C1069 1.373 . S
C1071 C1055 1.377 . S
C1071 C1069 1.389 . S
C1071 C1072 1.524 . S
C1072 C1071 1.524 . S
C1072 C1073 1.397 . S
C1072 C1077 1.363 . S
C1073 H1044 0.950 . S
C1073 C1072 1.397 . S
C1073 C1074 1.334 . S
C1074 H1045 0.950 . S
C1074 C1073 1.334 . S
C1074 C1075 1.287 . S
C1075 C1074 1.287 . S
C1075 C1076 1.524 . S
C1075 H1078 0.999 . S
C1076 H1046 0.950 . S
C1076 C1075 1.524 . S
C1076 C1077 1.415 . S
C1077 H1047 0.950 . S
C1077 C1072 1.363 . S
C1077 C1076 1.415 . S
H1078 C1075 0.999 . S
H1079 C1060 0.913 . S
H1080 C1098 0.951 . S
H1081 C1100 0.951 . S
H1082 C1102 0.950 . S
H1083 C1103 0.950 . S
H1084 C1105 0.950 . S
H1085 C1108 0.950 . S
H1086 C1109 0.950 1_554 S
H1087 C1111 0.950 . S
H1088 C1112 0.950 . S
H1089 C1113 0.951 . S
H1090 C1115 0.951 . S
H1091 C1117 0.948 1_556 S
H1092 C1118 0.950 1_556 S
H1093 C1120 0.950 . S
H1094 C1123 0.950 . S
H1095 C1124 0.950 . S
H1096 C1126 0.950 . S
H1097 C1127 0.950 . S
C1098 H1080 0.951 . S
C1098 C1099 1.366 . S
C1098 C1100 1.388 . S
C1099 C1098 1.366 . S
C1099 C1103 1.385 . S
C1100 H1081 0.951 . S
C1100 C1098 1.388 . S
C1100 C1101 1.366 . S
C1101 C1100 1.366 . S
C1101 C1102 1.414 . S
C1101 C1104 1.499 . S
C1102 H1082 0.950 . S
C1102 C1101 1.414 . S
C1102 C1103 1.374 . S
C1103 H1083 0.950 . S
C1103 C1099 1.385 . S
C1103 C1102 1.374 . S
C1104 C1101 1.499 . S
C1104 C1105 1.373 . S
C1104 C1106 1.389 . S
C1105 H1084 0.950 . S
C1105 C1104 1.373 . S
C1105 C1121 1.377 . S
C1106 C1104 1.389 . S
C1106 C1107 1.524 . S
C1106 C1120 1.377 . S
C1107 C1106 1.524 . S
C1107 C1108 1.397 . S
C1107 C1112 1.363 1_554 S
C1108 H1085 0.950 . S
C1108 C1107 1.397 . S
C1108 C1109 1.334 1_554 S
C1109 H1086 0.950 1_556 S
C1109 C1108 1.334 1_556 S
C1109 C1110 1.287 . S
C1110 C1109 1.287 . S
C1110 C1111 1.524 . S
C1110 H1129 0.913 . S
C1111 H1087 0.950 . S
C1111 C1110 1.524 . S
C1111 C1112 1.415 . S
C1112 H1088 0.950 . S
C1112 C1107 1.363 1_556 S
C1112 C1111 1.415 . S
C1113 H1089 0.951 . S
C1113 C1114 1.366 . S
C1113 C1115 1.388 . S
C1114 C1113 1.366 . S
C1114 C1118 1.385 . S
C1115 H1090 0.951 . S
C1115 C1113 1.388 . S
C1115 C1116 1.366 . S
C1116 C1115 1.366 . S
C1116 C1117 1.414 . S
C1116 C1119 1.499 . S
C1117 H1091 0.948 1_554 S
C1117 C1116 1.414 . S
C1117 C1118 1.374 . S
C1118 H1092 0.950 1_554 S
C1118 C1114 1.385 . S
C1118 C1117 1.374 . S
C1119 C1116 1.499 . S
C1119 C1120 1.373 . S
C1119 C1121 1.389 . S
C1120 H1093 0.950 . S
C1120 C1106 1.377 . S
C1120 C1119 1.373 . S
C1121 C1105 1.377 . S
C1121 C1119 1.389 . S
C1121 C1122 1.524 . S
C1122 C1121 1.524 . S
C1122 C1123 1.397 . S
C1122 C1127 1.363 . S
C1123 H1094 0.950 . S
C1123 C1122 1.397 . S
C1123 C1124 1.334 . S
C1124 H1095 0.950 . S
C1124 C1123 1.334 . S
C1124 C1125 1.287 . S
C1125 C1124 1.287 . S
C1125 C1126 1.524 . S
C1125 H1128 0.999 . S
C1126 H1096 0.950 . S
C1126 C1125 1.524 . S
C1126 C1127 1.415 . S
C1127 H1097 0.950 . S
C1127 C1122 1.363 . S
C1127 C1126 1.415 . S
H1128 C1125 0.999 . S
H1129 C1110 0.913 . S
H1130 C1148 0.951 . S
H1131 C1150 0.951 . S
H1132 C1152 0.950 . S
H1133 C1153 0.950 . S
H1134 C1155 0.950 . S
H1135 C1158 0.950 . S
H1136 C1159 0.950 . S
H1137 C1161 0.950 . S
H1138 C1162 0.950 . S
H1139 C1163 0.951 . S
H1140 C1165 0.951 . S
H1141 C1167 0.950 . S
H1142 C1168 0.950 . S
H1143 C1170 0.950 . S
H1144 C1173 0.950 . S
H1145 C1174 0.950 . S
H1146 C1176 0.950 . S
H1147 C1177 0.950 . S
C1148 H1130 0.951 . S
C1148 C1149 1.366 . S
C1148 C1150 1.388 . S
C1149 C1148 1.366 . S
C1149 C1153 1.385 . S
C1150 H1131 0.951 . S
C1150 C1148 1.388 . S
C1150 C1151 1.366 . S
C1151 C1150 1.366 . S
C1151 C1152 1.414 . S
C1151 C1154 1.499 . S
C1152 H1132 0.950 . S
C1152 C1151 1.414 . S
C1152 C1153 1.374 . S
C1153 H1133 0.950 . S
C1153 C1149 1.385 . S
C1153 C1152 1.374 . S
C1154 C1151 1.499 . S
C1154 C1155 1.373 . S
C1154 C1156 1.389 . S
C1155 H1134 0.950 . S
C1155 C1154 1.373 . S
C1155 C1171 1.377 . S
C1156 C1154 1.389 . S
C1156 C1157 1.524 . S
C1156 C1170 1.377 . S
C1157 C1156 1.524 . S
C1157 C1158 1.397 . S
C1157 C1162 1.363 . S
C1158 H1135 0.950 . S
C1158 C1157 1.397 . S
C1158 C1159 1.334 . S
C1159 H1136 0.950 . S
C1159 C1158 1.334 . S
C1159 C1160 1.287 . S
C1160 C1159 1.287 . S
C1160 C1161 1.524 . S
C1160 H1179 0.913 . S
C1161 H1137 0.950 . S
C1161 C1160 1.524 . S
C1161 C1162 1.415 . S
C1162 H1138 0.950 . S
C1162 C1157 1.363 . S
C1162 C1161 1.415 . S
C1163 H1139 0.951 . S
C1163 C1164 1.366 . S
C1163 C1165 1.388 . S
C1164 C1163 1.366 . S
C1164 C1168 1.385 . S
C1165 H1140 0.951 . S
C1165 C1163 1.388 . S
C1165 C1166 1.366 . S
C1166 C1165 1.366 . S
C1166 C1167 1.414 . S
C1166 C1169 1.499 . S
C1167 H1141 0.950 . S
C1167 C1166 1.414 . S
C1167 C1168 1.374 . S
C1168 H1142 0.950 . S
C1168 C1164 1.385 . S
C1168 C1167 1.374 . S
C1169 C1166 1.499 . S
C1169 C1170 1.373 . S
C1169 C1171 1.389 . S
C1170 H1143 0.950 . S
C1170 C1156 1.377 . S
C1170 C1169 1.373 . S
C1171 C1155 1.377 . S
C1171 C1169 1.389 . S
C1171 C1172 1.524 . S
C1172 C1171 1.524 . S
C1172 C1173 1.397 . S
C1172 C1177 1.363 . S
C1173 H1144 0.950 . S
C1173 C1172 1.397 . S
C1173 C1174 1.334 . S
C1174 H1145 0.950 . S
C1174 C1173 1.334 . S
C1174 C1175 1.287 . S
C1175 C1174 1.287 . S
C1175 C1176 1.524 . S
C1175 H1178 0.999 . S
C1176 H1146 0.950 . S
C1176 C1175 1.524 . S
C1176 C1177 1.415 . S
C1177 H1147 0.950 . S
C1177 C1172 1.363 . S
C1177 C1176 1.415 . S
H1178 C1175 0.999 . S
H1179 C1160 0.913 . S
H1180 C1198 0.951 . S
H1181 C1200 0.951 . S
H1182 C1202 0.950 . S
H1183 C1203 0.950 . S
H1184 C1205 0.950 . S
H1185 C1208 0.950 1_556 S
H1186 C1209 0.950 . S
H1187 C1211 0.950 . S
H1188 C1212 0.950 . S
H1189 C1213 0.952 . S
H1190 C1215 0.951 . S
H1191 C1217 0.950 . S
H1192 C1218 0.956 . S
H1193 C1220 0.950 1_455 S
H1194 C1223 0.950 . S
H1195 C1224 0.950 . S
H1196 C1226 0.950 . S
H1197 C1227 0.950 . S
C1198 H1180 0.951 . S
C1198 C1199 1.366 1_554 S
C1198 C1200 1.388 . S
C1199 C1198 1.366 1_556 S
C1199 C1203 1.385 . S
C1200 H1181 0.951 . S
C1200 C1198 1.388 . S
C1200 C1201 1.366 1_554 S
C1201 C1200 1.366 1_556 S
C1201 C1202 1.414 . S
C1201 C1204 1.499 . S
C1202 H1182 0.950 . S
C1202 C1201 1.414 . S
C1202 C1203 1.374 . S
C1203 H1183 0.950 . S
C1203 C1199 1.385 . S
C1203 C1202 1.374 . S
C1204 C1201 1.499 . S
C1204 C1205 1.373 . S
C1204 C1206 1.389 1_556 S
C1205 H1184 0.950 . S
C1205 C1204 1.373 . S
C1205 C1221 1.377 . S
C1206 C1204 1.389 1_554 S
C1206 C1207 1.524 1_655 S
C1206 C1220 1.377 . S
C1207 C1206 1.524 1_455 S
C1207 C1208 1.397 . S
C1207 C1212 1.363 . S
C1208 H1185 0.950 1_554 S
C1208 C1207 1.397 . S
C1208 C1209 1.334 . S
C1209 H1186 0.950 . S
C1209 C1208 1.334 . S
C1209 C1210 1.287 . S
C1210 C1209 1.287 . S
C1210 C1211 1.524 . S
C1210 H1229 0.913 . S
C1211 H1187 0.950 . S
C1211 C1210 1.524 . S
C1211 C1212 1.415 . S
C1212 H1188 0.950 . S
C1212 C1207 1.363 . S
C1212 C1211 1.415 . S
C1213 H1189 0.952 . S
C1213 C1214 1.363 1_655 S
C1213 C1215 1.388 . S
C1214 C1213 1.363 1_455 S
C1214 C1218 1.382 1_456 S
C1215 H1190 0.951 . S
C1215 C1213 1.388 . S
C1215 C1216 1.366 . S
C1216 C1215 1.366 . S
C1216 C1217 1.414 1_556 S
C1216 C1219 1.499 . S
C1217 H1191 0.950 . S
C1217 C1216 1.414 1_554 S
C1217 C1218 1.374 . S
C1218 H1192 0.956 . S
C1218 C1214 1.382 1_654 S
C1218 C1217 1.374 . S
C1219 C1216 1.499 . S
C1219 C1220 1.373 1_556 S
C1219 C1221 1.389 . S
C1220 H1193 0.950 1_655 S
C1220 C1206 1.377 . S
C1220 C1219 1.373 1_554 S
C1221 C1205 1.377 . S
C1221 C1219 1.389 . S
C1221 C1222 1.524 . S
C1222 C1221 1.524 . S
C1222 C1223 1.397 . S
C1222 C1227 1.363 . S
C1223 H1194 0.950 . S
C1223 C1222 1.397 . S
C1223 C1224 1.334 . S
C1224 H1195 0.950 . S
C1224 C1223 1.334 . S
C1224 C1225 1.287 . S
C1225 C1224 1.287 . S
C1225 C1226 1.524 . S
C1225 H1228 0.999 . S
C1226 H1196 0.950 . S
C1226 C1225 1.524 . S
C1226 C1227 1.415 . S
C1227 H1197 0.950 . S
C1227 C1222 1.363 . S
C1227 C1226 1.415 . S
H1228 C1225 0.999 . S
H1229 C1210 0.913 . S
H1230 C1248 0.951 . S
H1231 C1250 0.951 . S
H1232 C1252 0.950 . S
H1233 C1253 0.950 . S
H1234 C1255 0.950 . S
H1235 C1258 0.950 . S
H1236 C1259 0.950 . S
H1237 C1261 0.950 1_556 S
H1238 C1262 0.950 . S
H1239 C1263 0.951 . S
H1240 C1265 0.951 . S
H1241 C1267 0.950 . S
H1242 C1268 0.950 . S
H1243 C1270 0.950 . S
H1244 C1273 0.950 . S
H1245 C1274 0.950 . S
H1246 C1276 0.950 . S
H1247 C1277 0.950 . S
C1248 H1230 0.951 . S
C1248 C1249 1.366 . S
C1248 C1250 1.388 . S
C1249 C1248 1.366 . S
C1249 C1253 1.385 . S
C1250 H1231 0.951 . S
C1250 C1248 1.388 . S
C1250 C1251 1.366 . S
C1251 C1250 1.366 . S
C1251 C1252 1.414 . S
C1251 C1254 1.499 . S
C1252 H1232 0.950 . S
C1252 C1251 1.414 . S
C1252 C1253 1.374 . S
C1253 H1233 0.950 . S
C1253 C1249 1.385 . S
C1253 C1252 1.374 . S
C1254 C1251 1.499 . S
C1254 C1255 1.373 . S
C1254 C1256 1.389 . S
C1255 H1234 0.950 . S
C1255 C1254 1.373 . S
C1255 C1271 1.377 . S
C1256 C1254 1.389 . S
C1256 C1257 1.524 . S
C1256 C1270 1.377 . S
C1257 C1256 1.524 . S
C1257 C1258 1.397 . S
C1257 C1262 1.363 . S
C1258 H1235 0.950 . S
C1258 C1257 1.397 . S
C1258 C1259 1.334 . S
C1259 H1236 0.950 . S
C1259 C1258 1.334 . S
C1259 C1260 1.287 . S
C1260 C1259 1.287 . S
C1260 C1261 1.524 . S
C1260 H1279 0.913 . S
C1261 H1237 0.950 1_554 S
C1261 C1260 1.524 . S
C1261 C1262 1.415 . S
C1262 H1238 0.950 . S
C1262 C1257 1.363 . S
C1262 C1261 1.415 . S
C1263 H1239 0.951 . S
C1263 C1264 1.366 . S
C1263 C1265 1.388 . S
C1264 C1263 1.366 . S
C1264 C1268 1.385 . S
C1265 H1240 0.951 . S
C1265 C1263 1.388 . S
C1265 C1266 1.366 . S
C1266 C1265 1.366 . S
C1266 C1267 1.414 . S
C1266 C1269 1.499 . S
C1267 H1241 0.950 . S
C1267 C1266 1.414 . S
C1267 C1268 1.374 . S
C1268 H1242 0.950 . S
C1268 C1264 1.385 . S
C1268 C1267 1.374 . S
C1269 C1266 1.499 . S
C1269 C1270 1.373 . S
C1269 C1271 1.389 . S
C1270 H1243 0.950 . S
C1270 C1256 1.377 . S
C1270 C1269 1.373 . S
C1271 C1255 1.377 . S
C1271 C1269 1.389 . S
C1271 C1272 1.524 . S
C1272 C1271 1.524 . S
C1272 C1273 1.397 . S
C1272 C1277 1.363 . S
C1273 H1244 0.950 . S
C1273 C1272 1.397 . S
C1273 C1274 1.334 . S
C1274 H1245 0.950 . S
C1274 C1273 1.334 . S
C1274 C1275 1.287 . S
C1275 C1274 1.287 . S
C1275 C1276 1.524 . S
C1275 H1278 0.999 . S
C1276 H1246 0.950 . S
C1276 C1275 1.524 . S
C1276 C1277 1.415 . S
C1277 H1247 0.950 . S
C1277 C1272 1.363 . S
C1277 C1276 1.415 . S
H1278 C1275 0.999 . S
H1279 C1260 0.913 . S
H1280 C1298 0.951 . S
H1281 C1300 0.951 . S
H1282 C1302 0.950 . S
H1283 C1303 0.950 . S
H1284 C1305 0.950 . S
H1285 C1308 0.950 . S
H1286 C1309 0.950 . S
H1287 C1311 0.950 . S
H1288 C1312 0.950 . S
H1289 C1313 0.951 . S
H1290 C1315 0.951 . S
H1291 C1317 0.950 . S
H1292 C1318 0.950 . S
H1293 C1320 0.950 . S
H1294 C1323 0.950 . S
H1295 C1324 0.950 . S
H1296 C1326 0.950 . S
H1297 C1327 0.950 . S
C1298 H1280 0.951 . S
C1298 C1299 1.366 . S
C1298 C1300 1.388 . S
C1299 C1298 1.366 . S
C1299 C1303 1.385 . S
C1300 H1281 0.951 . S
C1300 C1298 1.388 . S
C1300 C1301 1.366 . S
C1301 C1300 1.366 . S
C1301 C1302 1.414 . S
C1301 C1304 1.499 . S
C1302 H1282 0.950 . S
C1302 C1301 1.414 . S
C1302 C1303 1.374 . S
C1303 H1283 0.950 . S
C1303 C1299 1.385 . S
C1303 C1302 1.374 . S
C1304 C1301 1.499 . S
C1304 C1305 1.373 . S
C1304 C1306 1.389 . S
C1305 H1284 0.950 . S
C1305 C1304 1.373 . S
C1305 C1321 1.377 . S
C1306 C1304 1.389 . S
C1306 C1307 1.524 . S
C1306 C1320 1.377 . S
C1307 C1306 1.524 . S
C1307 C1308 1.397 . S
C1307 C1312 1.363 . S
C1308 H1285 0.950 . S
C1308 C1307 1.397 . S
C1308 C1309 1.334 . S
C1309 H1286 0.950 . S
C1309 C1308 1.334 . S
C1309 C1310 1.287 . S
C1310 C1309 1.287 . S
C1310 C1311 1.524 . S
C1310 H1329 0.913 . S
C1311 H1287 0.950 . S
C1311 C1310 1.524 . S
C1311 C1312 1.415 . S
C1312 H1288 0.950 . S
C1312 C1307 1.363 . S
C1312 C1311 1.415 . S
C1313 H1289 0.951 . S
C1313 C1314 1.366 . S
C1313 C1315 1.388 . S
C1314 C1313 1.366 . S
C1314 C1318 1.385 . S
C1315 H1290 0.951 . S
C1315 C1313 1.388 . S
C1315 C1316 1.366 . S
C1316 C1315 1.366 . S
C1316 C1317 1.414 . S
C1316 C1319 1.499 . S
C1317 H1291 0.950 . S
C1317 C1316 1.414 . S
C1317 C1318 1.374 . S
C1318 H1292 0.950 . S
C1318 C1314 1.385 . S
C1318 C1317 1.374 . S
C1319 C1316 1.499 . S
C1319 C1320 1.373 . S
C1319 C1321 1.389 . S
C1320 H1293 0.950 . S
C1320 C1306 1.377 . S
C1320 C1319 1.373 . S
C1321 C1305 1.377 . S
C1321 C1319 1.389 . S
C1321 C1322 1.524 . S
C1322 C1321 1.524 . S
C1322 C1323 1.397 . S
C1322 C1327 1.363 . S
C1323 H1294 0.950 . S
C1323 C1322 1.397 . S
C1323 C1324 1.334 . S
C1324 H1295 0.950 . S
C1324 C1323 1.334 . S
C1324 C1325 1.287 . S
C1325 C1324 1.287 . S
C1325 C1326 1.524 . S
C1325 H1328 0.999 . S
C1326 H1296 0.950 . S
C1326 C1325 1.524 . S
C1326 C1327 1.415 . S
C1327 H1297 0.950 . S
C1327 C1322 1.363 . S
C1327 C1326 1.415 . S
H1328 C1325 0.999 . S
H1329 C1310 0.913 . S
H1330 C1348 0.951 . S
H1331 C1350 0.951 . S
H1332 C1352 0.950 . S
H1333 C1353 0.950 . S
H1334 C1355 0.950 . S
H1335 C1358 0.950 . S
H1336 C1359 0.950 . S
H1337 C1361 0.950 . S
H1338 C1362 0.950 . S
H1339 C1363 0.951 . S
H1340 C1365 0.951 . S
H1341 C1367 0.950 . S
H1342 C1368 0.950 . S
H1343 C1370 0.950 . S
H1344 C1373 0.950 . S
H1345 C1374 0.950 . S
H1346 C1376 0.950 . S
H1347 C1377 0.950 . S
C1348 H1330 0.951 . S
C1348 C1349 1.366 . S
C1348 C1350 1.388 . S
C1349 C1348 1.366 . S
C1349 C1353 1.385 . S
C1350 H1331 0.951 . S
C1350 C1348 1.388 . S
C1350 C1351 1.366 . S
C1351 C1350 1.366 . S
C1351 C1352 1.414 . S
C1351 C1354 1.499 . S
C1352 H1332 0.950 . S
C1352 C1351 1.414 . S
C1352 C1353 1.374 . S
C1353 H1333 0.950 . S
C1353 C1349 1.385 . S
C1353 C1352 1.374 . S
C1354 C1351 1.499 . S
C1354 C1355 1.373 . S
C1354 C1356 1.389 . S
C1355 H1334 0.950 . S
C1355 C1354 1.373 . S
C1355 C1371 1.377 . S
C1356 C1354 1.389 . S
C1356 C1357 1.524 . S
C1356 C1370 1.377 . S
C1357 C1356 1.524 . S
C1357 C1358 1.397 . S
C1357 C1362 1.363 . S
C1358 H1335 0.950 . S
C1358 C1357 1.397 . S
C1358 C1359 1.334 . S
C1359 H1336 0.950 . S
C1359 C1358 1.334 . S
C1359 C1360 1.287 . S
C1360 C1359 1.287 . S
C1360 C1361 1.524 . S
C1360 H1379 0.913 . S
C1361 H1337 0.950 . S
C1361 C1360 1.524 . S
C1361 C1362 1.415 . S
C1362 H1338 0.950 . S
C1362 C1357 1.363 . S
C1362 C1361 1.415 . S
C1363 H1339 0.951 . S
C1363 C1364 1.366 . S
C1363 C1365 1.388 . S
C1364 C1363 1.366 . S
C1364 C1368 1.385 . S
C1365 H1340 0.951 . S
C1365 C1363 1.388 . S
C1365 C1366 1.366 . S
C1366 C1365 1.366 . S
C1366 C1367 1.414 . S
C1366 C1369 1.499 . S
C1367 H1341 0.950 . S
C1367 C1366 1.414 . S
C1367 C1368 1.374 . S
C1368 H1342 0.950 . S
C1368 C1364 1.385 . S
C1368 C1367 1.374 . S
C1369 C1366 1.499 . S
C1369 C1370 1.373 . S
C1369 C1371 1.389 . S
C1370 H1343 0.950 . S
C1370 C1356 1.377 . S
C1370 C1369 1.373 . S
C1371 C1355 1.377 . S
C1371 C1369 1.389 . S
C1371 C1372 1.524 . S
C1372 C1371 1.524 . S
C1372 C1373 1.397 . S
C1372 C1377 1.363 . S
C1373 H1344 0.950 . S
C1373 C1372 1.397 . S
C1373 C1374 1.334 . S
C1374 H1345 0.950 . S
C1374 C1373 1.334 . S
C1374 C1375 1.287 . S
C1375 C1374 1.287 . S
C1375 C1376 1.524 . S
C1375 H1378 0.999 . S
C1376 H1346 0.950 . S
C1376 C1375 1.524 . S
C1376 C1377 1.415 . S
C1377 H1347 0.950 . S
C1377 C1372 1.363 . S
C1377 C1376 1.415 . S
H1378 C1375 0.999 . S
H1379 C1360 0.913 . S
C199 C5 1.790 . S
C214 C106 1.918 . S
C249 C18 1.636 . S
C264 C130 1.684 1_565 S
C314 C150 1.187 . S
C299 C30 1.158 . S
C349 C41 1.095 . S
C364 C173 1.096 1_655 S
C414 C132 2.009 . S
C399 C7 1.991 . S
C464 C108 1.942 . S
C449 C16 1.718 . S
C514 C176 1.641 . S
C499 C29 1.582 . S
C564 C153 1.077 . S
C549 C38 1.054 . S
C599 C8 1.530 . S
C614 C178 1.508 . S
C664 C127 1.806 . S
C649 C27 1.510 . S
C699 C40 1.622 . S
C714 C105 1.644 . S
C749 C19 1.022 . S
C764 C155 1.014 . S
C814 C109 1.681 . S
C799 C51 1.652 . S
C849 C62 1.657 . S
C864 C131 1.755 . S
C899 C74 1.605 . S
C914 C151 1.664 . S
C949 C84 1.496 . S
C964 C174 1.623 . S
C999 C49 1.882 . S
C1014 C129 1.923 . S
C1064 C107 1.464 . S
C1049 C63 1.432 . S
C1114 C177 1.342 . S
C1099 C71 1.110 . S
C1164 C154 1.087 . S
C1149 C85 1.080 . S
C1199 C52 1.940 . S
C1214 C175 1.918 . S
C1264 C128 1.839 . S
C1249 C73 1.702 . S
C1314 C104 1.332 . S
C1299 C82 1.041 . S
C1349 C60 1.593 . S
C1364 C152 1.935 . S
