# Generated by pormake.
# Topology tsx, (6,3)-cn, num edge types: 1
# Building blocks:
#     Node 0, Type 0, BuildingBlock: MIDCAF_clean_sbu_0, # of connection points: 6
#     Node 1, Type 0, BuildingBlock: MIDCAF_clean_sbu_0, # of connection points: 6
#     Node 2, Type 1, BuildingBlock: WUSLED_clean_sbu_0, # of connection points: 3
#     Node 3, Type 1, BuildingBlock: WUSLED_clean_sbu_0, # of connection points: 3
#     Node 4, Type 1, BuildingBlock: WUSLED_clean_sbu_0, # of connection points: 3
#     Node 5, Type 1, BuildingBlock: WUSLED_clean_sbu_0, # of connection points: 3
#     Edge 6, Type (0, 1), BuildingBlock: KIFKEQ_clean_linker_1, # of connection points: 2
#     Edge 7, Type (0, 1), BuildingBlock: KIFKEQ_clean_linker_1, # of connection points: 2
#     Edge 8, Type (0, 1), BuildingBlock: KIFKEQ_clean_linker_1, # of connection points: 2
#     Edge 9, Type (0, 1), BuildingBlock: KIFKEQ_clean_linker_1, # of connection points: 2
#     Edge 10, Type (0, 1), BuildingBlock: KIFKEQ_clean_linker_1, # of connection points: 2
#     Edge 11, Type (0, 1), BuildingBlock: KIFKEQ_clean_linker_1, # of connection points: 2
#     Edge 12, Type (0, 1), BuildingBlock: KIFKEQ_clean_linker_1, # of connection points: 2
#     Edge 13, Type (0, 1), BuildingBlock: KIFKEQ_clean_linker_1, # of connection points: 2
#     Edge 14, Type (0, 1), BuildingBlock: KIFKEQ_clean_linker_1, # of connection points: 2
#     Edge 15, Type (0, 1), BuildingBlock: KIFKEQ_clean_linker_1, # of connection points: 2
#     Edge 16, Type (0, 1), BuildingBlock: KIFKEQ_clean_linker_1, # of connection points: 2
#     Edge 17, Type (0, 1), BuildingBlock: KIFKEQ_clean_linker_1, # of connection points: 2
# Relax obj value: 0.113
# Max RMSD: 0.180
# Mean RMSD: 0.109
data_MOF--net-tsx--node1-MIDCAF_clean_sbu_0--node2-WUSLED_clean_sbu_0--edge1-KIFKEQ_clean_linker_1
_symmetry_space_group_name_H-M    P1
_symmetry_Int_Tables_number       1
_symmetry_cell_setting            triclinic
loop_
_symmetry_equiv_pos_as_xyz
'x, y, z'
_cell_length_a     24.90682
_cell_length_b     26.69488
_cell_length_c     50.161796
_cell_angle_alpha  90.731383
_cell_angle_beta   95.658537
_cell_angle_gamma 90.440617
loop_
_atom_site_label
_atom_site_type_symbol
_atom_site_fract_x
_atom_site_fract_y
_atom_site_fract_z
_atom_type_partial_charge
Zn0 Zn 0.98018 0.02373 0.98173 0.0
Zn1 Zn 0.16134 0.03216 0.04389 0.0
Zn2 Zn 0.07089 0.03186 0.01266 0.0
C3 C 0.13559 0.13266 0.03377 0.0
C4 C 0.18349 0.97874 0.99912 0.0
O5 O 1.00944 0.98891 0.03357 0.0
O6 O 0.9344 0.98998 0.00609 0.0
C7 C 1.0053 0.12653 0.98777 0.0
O8 O 0.09552 0.11237 0.01912 0.0
O9 O 0.1695 0.10565 0.04712 0.0
O10 O 0.20774 0.99556 0.02068 0.0
O11 O 0.13309 0.9884 0.9931 0.0
O12 O 0.97166 0.09647 0.97562 0.0
O13 O 0.04554 0.10994 1.0032 0.0
O14 O 0.08681 0.99249 0.97486 0.0
O15 O 1.00618 0.98296 0.95252 0.0
C16 C 0.0565 0.97655 0.9541 0.0
O17 O 0.05535 0.9996 0.05185 0.0
O18 O 0.13569 0.99752 0.07488 0.0
C19 C 0.9593 0.97649 0.0279 0.0
C20 C 0.08548 0.98952 0.07352 0.0
Zn21 Zn 0.66091 0.52284 0.54945 0.0
Zn22 Zn 0.48479 0.52217 0.48531 0.0
Zn23 Zn 0.57518 0.52577 0.51591 0.0
C24 C 0.56433 0.48529 0.45489 0.0
C25 C 0.5058 0.62316 0.49903 0.0
O26 O 0.55425 0.49365 0.55459 0.0
O27 O 0.62983 0.49929 0.58159 0.0
C28 C 0.68094 0.46011 0.50686 0.0
O29 O 0.59328 0.49043 0.47755 0.0
O30 O 0.51535 0.49779 0.45255 0.0
O31 O 0.46863 0.59414 0.48913 0.0
O32 O 0.5516 0.60536 0.50862 0.0
O33 O 0.70052 0.47287 0.53013 0.0
O34 O 0.63579 0.47877 0.49688 0.0
O35 O 0.60333 0.60507 0.52279 0.0
O36 O 0.67992 0.59473 0.54844 0.0
C37 C 0.64658 0.62328 0.53576 0.0
O38 O 0.51215 0.48128 0.53515 0.0
O39 O 0.4421 0.47509 0.50456 0.0
C40 C 0.58035 0.48819 0.57792 0.0
C41 C 0.46447 0.46393 0.52733 0.0
C42 C 1.0127 0.13263 0.43657 0.0
C43 C 0.98994 0.16114 0.41501 0.0
C44 C 0.92719 0.1991 0.44347 0.0
C45 C 0.94781 0.1943 0.41847 0.0
C46 C 0.9499 0.17013 0.46494 0.0
C47 C 0.99228 0.13729 0.46151 0.0
U48 U 0.08436 0.04799 0.39107 0.0
O49 O 0.11953 0.97304 0.39613 0.0
O50 O 0.17082 0.03664 0.38694 0.0
C51 C 0.16862 0.98893 0.39299 0.0
C52 C 0.05681 0.09731 0.43306 0.0
C53 C 0.21351 0.96933 0.41143 0.0
C54 C 0.24689 0.9164 0.44857 0.0
C55 C 0.20426 0.94112 0.43404 0.0
C56 C 0.30909 0.94953 0.41896 0.0
C57 C 0.29966 0.91923 0.44079 0.0
C58 C 0.2665 0.97414 0.40444 0.0
C59 C 1.02353 0.0423 0.31713 0.0
C60 C 1.00591 0.97816 0.28228 0.0
C61 C 0.02945 0.06258 0.2704 0.0
C62 C 0.03312 0.07704 0.29735 0.0
C63 C 1.01542 0.01306 0.26246 0.0
C64 C 1.00985 0.99262 0.30934 0.0
C65 C 1.02504 0.05958 0.34535 0.0
O66 O 0.04156 0.05077 0.42748 0.0
O67 O 0.09394 0.11338 0.41824 0.0
O68 O 0.06513 0.08987 0.35391 0.0
O69 O 1.01416 0.02623 0.36316 0.0
H70 H 1.00467 0.15768 0.39546 0.0
H71 H 0.93091 0.21568 0.4015 0.0
H72 H 0.93541 0.17338 0.48454 0.0
H73 H 1.00914 0.11552 0.47835 0.0
H74 H 0.23793 0.89304 0.46509 0.0
H75 H 0.16384 0.9365 0.43991 0.0
H76 H 0.34925 0.95321 0.41263 0.0
H77 H 0.27474 0.9955 0.38705 0.0
H78 H 0.99459 0.93985 0.27687 0.0
H79 H 0.03815 0.09026 0.25579 0.0
H80 H 0.04328 0.11564 0.30273 0.0
H81 H 1.00165 0.96498 0.32406 0.0
C82 C 0.96854 0.98444 0.58168 0.0
C83 C 0.93998 0.95941 0.60034 0.0
C84 C 0.8784 0.92304 0.5643 0.0
C85 C 0.89536 0.92919 0.59177 0.0
C86 C 0.90728 0.94811 0.54562 0.0
C87 C 0.9519 0.97867 0.55426 0.0
U88 U 0.07282 0.02305 0.63781 0.0
O89 O 0.15972 0.03965 0.63957 0.0
O90 O 0.10433 0.09702 0.65216 0.0
C91 C 0.15415 0.0861 0.64787 0.0
C92 C 1.01595 0.01578 0.59096 0.0
C93 C 0.18466 0.12521 0.6351 0.0
C94 C 0.22753 0.15815 0.59738 0.0
C95 C 0.19574 0.12154 0.60824 0.0
C96 C 0.23684 0.20277 0.63994 0.0
C97 C 0.24878 0.19913 0.61315 0.0
C98 C 0.20522 0.1662 0.65075 0.0
C99 C 0.06162 0.9565 0.7047 0.0
C100 C 0.10686 0.9833 0.74776 0.0
C101 C 0.05101 0.90832 0.74454 0.0
C102 C 0.04018 0.91513 0.71699 0.0
C103 C 0.08348 0.9429 0.76037 0.0
C104 C 0.09591 0.99012 0.7201 0.0
C105 C 0.04503 0.96518 0.67621 0.0
O106 O 1.00737 0.05007 0.60906 0.0
O107 O 0.061 0.99117 0.59686 0.0
O108 O 0.07938 0.95151 0.65929 0.0
O109 O 1.02287 0.0088 0.67066 0.0
H110 H 0.95246 0.963 0.62159 0.0
H111 H 0.87486 0.90972 0.60669 0.0
H112 H 0.89521 0.94434 0.52434 0.0
H113 H 0.9735 0.99762 0.53955 0.0
H114 H 0.23625 0.15386 0.57675 0.0
H115 H 0.18041 0.09015 0.59578 0.0
H116 H 0.25156 0.23417 0.65254 0.0
H117 H 0.19713 0.16974 0.67153 0.0
H118 H 0.13169 0.01076 0.75942 0.0
H119 H 0.03304 0.87644 0.75357 0.0
H120 H 1.01384 0.8887 0.70538 0.0
H121 H 0.11286 0.0223 0.71087 0.0
C122 C 0.48947 0.62205 0.93604 0.0
C123 C 0.46086 0.64526 0.9141 0.0
C124 C 0.41554 0.69913 0.94429 0.0
C125 C 0.42432 0.68352 0.91817 0.0
C126 C 0.44325 0.67458 0.96617 0.0
C127 C 0.47996 0.63651 0.96206 0.0
U128 U 0.55078 0.53065 0.88979 0.0
O129 O 0.63543 0.51479 0.88399 0.0
O130 O 0.58264 0.45448 0.89581 0.0
C131 C 0.632 0.46802 0.89163 0.0
C132 C 0.53002 0.58365 0.93187 0.0
C133 C 0.67677 0.44894 0.91049 0.0
C134 C 0.77163 0.45143 0.92821 0.0
C135 C 0.72726 0.47352 0.91367 0.0
C136 C 0.71573 0.38051 0.93749 0.0
C137 C 0.76672 0.40413 0.93983 0.0
C138 C 0.67144 0.40252 0.92294 0.0
C139 C 0.48526 0.52355 0.81724 0.0
C140 C 0.52455 0.47991 0.78121 0.0
C141 C 0.43869 0.52165 0.77238 0.0
C142 C 0.44094 0.53633 0.79931 0.0
C143 C 0.48088 0.49394 0.76289 0.0
C144 C 0.52672 0.49461 0.80817 0.0
C145 C 0.48858 0.54264 0.84494 0.0
O146 O 0.51098 0.53804 0.92697 0.0
O147 O 0.56643 0.59681 0.91595 0.0
O148 O 0.53067 0.5713 0.85238 0.0
O149 O 0.4781 0.51003 0.86317 0.0
H150 H 0.46754 0.63439 0.89381 0.0
H151 H 0.40416 0.70179 0.90087 0.0
H152 H 0.43675 0.68488 0.98655 0.0
H153 H 0.50134 0.61871 0.97922 0.0
H154 H 0.81015 0.47089 0.9298 0.0
H155 H 0.7331 0.50907 0.90416 0.0
H156 H 0.71053 0.3437 0.94575 0.0
H157 H 0.63347 0.38211 0.92054 0.0
H158 H 0.55805 0.45915 0.77453 0.0
H159 H 0.40422 0.53254 0.7589 0.0
H160 H 0.40849 0.55852 0.80605 0.0
H161 H 0.56129 0.48447 0.8218 0.0
C162 C 0.46656 0.48571 0.07908 0.0
C163 C 0.47324 0.43556 0.07114 0.0
C164 C 0.37597 0.42501 0.06054 0.0
C165 C 0.42857 0.40564 0.06204 0.0
C166 C 0.36938 0.47547 0.0679 0.0
C167 C 0.41411 0.50548 0.07691 0.0
U168 U 0.57138 0.5275 0.13609 0.0
O169 O 0.65841 0.54429 0.13698 0.0
O170 O 0.60287 0.60206 0.14895 0.0
C171 C 0.65263 0.59119 0.14442 0.0
C172 C 0.51371 0.5174 0.08952 0.0
C173 C 0.68325 0.6294 0.13087 0.0
C174 C 0.77045 0.66629 0.1239 0.0
C175 C 0.73984 0.62828 0.13421 0.0
C176 C 0.68831 0.7071 0.10626 0.0
C177 C 0.74515 0.70658 0.11005 0.0
C178 C 0.65767 0.66894 0.11656 0.0
C179 C 0.56364 0.46451 0.20425 0.0
C180 C 0.60538 0.49602 0.24714 0.0
C181 C 0.55966 0.41542 0.24442 0.0
C182 C 0.54779 0.42105 0.21682 0.0
C183 C 0.58753 0.45331 0.26004 0.0
C184 C 0.59348 0.5016 0.21945 0.0
C185 C 0.54576 0.47147 0.1757 0.0
O186 O 0.50444 0.55206 0.10733 0.0
O187 O 0.55964 0.49415 0.09553 0.0
O188 O 0.57944 0.45707 0.15859 0.0
O189 O 0.5228 0.51454 0.16961 0.0
H190 H 0.51296 0.41904 0.07226 0.0
H191 H 0.43521 0.36683 0.05685 0.0
H192 H 0.32958 0.49184 0.06665 0.0
H193 H 0.40753 0.54415 0.08242 0.0
H194 H 0.81402 0.66406 0.12681 0.0
H195 H 0.7605 0.5983 0.14526 0.0
H196 H 0.66735 0.73772 0.09595 0.0
H197 H 0.61407 0.67097 0.11377 0.0
H198 H 0.62656 0.52605 0.25859 0.0
H199 H 0.54611 0.38172 0.25362 0.0
H200 H 0.52498 0.39192 0.20537 0.0
H201 H 0.60617 0.53542 0.21004 0.0
H202 H 0.14653 0.19497 0.99174 0.0
H203 H 0.15346 0.19118 0.07787 0.0
H204 H 0.19501 0.27571 0.99484 0.0
H205 H 0.20113 0.27119 0.08114 0.0
H206 H 0.27952 0.42092 0.08256 0.0
H207 H 0.20562 0.36093 0.07258 0.0
H208 H 0.2912 0.29306 0.01082 0.0
H209 H 0.36439 0.3539 0.02027 0.0
C210 C 0.15625 0.21253 0.01123 0.0
C211 C 0.14616 0.18713 0.03457 0.0
C212 C 0.18465 0.25834 0.01306 0.0
C213 C 0.20263 0.27967 0.03827 0.0
C214 C 0.18771 0.25625 0.06141 0.0
C215 C 0.16021 0.21038 0.05957 0.0
C216 C 0.28205 0.394 0.06641 0.0
C217 C 0.3283 0.39196 0.05244 0.0
C218 C 0.23977 0.35938 0.0608 0.0
C219 C 0.24248 0.32195 0.04098 0.0
C220 C 0.2874 0.32162 0.02603 0.0
C221 C 0.3298 0.35609 0.03172 0.0
H222 H 0.28839 0.98574 0.98984 0.0
H223 H 0.146 0.89356 0.97221 0.0
H224 H 0.34323 0.92067 0.97202 0.0
H225 H 0.20119 0.82715 0.95517 0.0
H226 H 0.31822 0.72269 0.91637 0.0
H227 H 0.26067 0.79445 0.92365 0.0
H228 H 0.37296 0.84307 0.9903 0.0
H229 H 0.43127 0.77346 0.98222 0.0
C230 C 0.26873 0.95177 0.98166 0.0
C231 C 0.21309 0.9445 0.98256 0.0
C232 C 0.30019 0.91422 0.97171 0.0
C233 C 0.27697 0.86799 0.96289 0.0
C234 C 0.2205 0.86222 0.96182 0.0
C235 C 0.18877 0.9003 0.9715 0.0
C236 C 0.33087 0.74912 0.93236 0.0
C237 C 0.37942 0.74211 0.94876 0.0
C238 C 0.29762 0.79002 0.93667 0.0
C239 C 0.31227 0.82492 0.95741 0.0
C240 C 0.36075 0.81768 0.97377 0.0
C241 C 0.39389 0.77708 0.96943 0.0
H242 H 0.85219 0.97508 0.03364 0.0
H243 H 1.00095 0.90113 0.06035 0.0
H244 H 0.80147 0.91209 0.05559 0.0
H245 H 0.95003 0.83751 0.08235 0.0
H246 H 0.83774 0.75082 0.13445 0.0
H247 H 0.89091 0.81883 0.11779 0.0
H248 H 0.77986 0.82451 0.04616 0.0
H249 H 0.72708 0.75652 0.06261 0.0
C250 C 0.87414 0.94569 0.04458 0.0
C251 C 0.9306 0.94317 0.04532 0.0
C252 C 0.84501 0.90932 0.05698 0.0
C253 C 0.8715 0.86917 0.07035 0.0
C254 C 0.92832 0.86802 0.07232 0.0
C255 C 0.95758 0.90459 0.05983 0.0
C256 C 0.8249 0.76625 0.11502 0.0
C257 C 0.7779 0.74809 0.09991 0.0
C258 C 0.85539 0.80536 0.10552 0.0
C259 C 0.83951 0.82748 0.08074 0.0
C260 C 0.7927 0.80914 0.06561 0.0
C261 C 0.76235 0.77004 0.07505 0.0
H262 H 0.99177 0.19725 0.02636 0.0
H263 H 0.99123 0.17523 0.94108 0.0
H264 H 0.94485 0.27726 0.0187 0.0
H265 H 0.94526 0.25445 0.93328 0.0
H266 H 0.86725 0.40009 0.92216 0.0
H267 H 0.94158 0.3456 0.93771 0.0
H268 H 0.84957 0.29061 0.99998 0.0
H269 H 0.77583 0.34634 0.98499 0.0
C270 C 0.98376 0.21066 0.00608 0.0
C271 C 0.99509 0.18041 0.98428 0.0
C272 C 0.95637 0.25606 1.00165 0.0
C273 C 0.94075 0.27203 0.97536 0.0
C274 C 0.95697 0.24372 0.95377 0.0
C275 C 0.9834 0.19826 0.9582 0.0
C276 C 0.86342 0.37759 0.93969 0.0
C277 C 0.81514 0.37718 0.95209 0.0
C278 C 0.90598 0.34604 0.94848 0.0
C279 C 0.90139 0.31333 0.96991 0.0
C280 C 0.8547 0.31553 0.98353 0.0
C281 C 0.81206 0.34701 0.9747 0.0
H282 H 0.66793 0.68022 0.58008 0.0
H283 H 0.65815 0.6862 0.49393 0.0
H284 H 0.71355 0.76118 0.58354 0.0
H285 H 0.70424 0.76822 0.49718 0.0
H286 H 0.86966 0.85468 0.52269 0.0
H287 H 0.79936 0.79119 0.51243 0.0
H288 H 0.71179 0.85077 0.5757 0.0
H289 H 0.78211 0.91414 0.58599 0.0
C290 C 0.67386 0.69998 0.56183 0.0
C291 C 0.65919 0.67735 0.53676 0.0
C292 C 0.70004 0.74645 0.56377 0.0
C293 C 0.71299 0.77119 0.54064 0.0
C294 C 0.69523 0.74993 0.51539 0.0
C295 C 0.66823 0.7034 0.51347 0.0
C296 C 0.83479 0.85501 0.534 0.0
C297 C 0.83204 0.88901 0.55547 0.0
C298 C 0.79431 0.81866 0.52804 0.0
C299 C 0.75011 0.81551 0.54341 0.0
C300 C 0.74573 0.85156 0.56376 0.0
C301 C 0.78615 0.88779 0.56972 0.0
H302 H 0.69649 0.44844 0.45316 0.0
H303 H 0.72825 0.38016 0.53053 0.0
H304 H 0.74876 0.38208 0.43323 0.0
H305 H 0.78027 0.31535 0.51116 0.0
H306 H 0.83832 0.18259 0.47008 0.0
H307 H 0.7705 0.24294 0.48084 0.0
H308 H 0.8472 0.35635 0.43666 0.0
H309 H 0.91509 0.29564 0.42569 0.0
C310 C 0.71367 0.41887 0.46572 0.0
C311 C 0.70816 0.41934 0.49332 0.0
C312 C 0.74401 0.38123 0.45444 0.0
C313 C 0.76841 0.3432 0.4706 0.0
C314 C 0.7614 0.3434 0.49802 0.0
C315 C 0.73193 0.38093 0.50918 0.0
C316 C 0.84058 0.22031 0.46253 0.0
C317 C 0.88267 0.23453 0.44744 0.0
C318 C 0.80161 0.25486 0.4686 0.0
C319 C 0.80383 0.30466 0.45989 0.0
C320 C 0.8441 0.31822 0.44351 0.0
C321 C 0.88312 0.28347 0.43732 0.0
H322 H 0.50605 0.39381 0.56332 0.0
H323 H 0.35634 0.45586 0.52821 0.0
H324 H 0.45537 0.33024 0.58559 0.0
H325 H 0.30593 0.39322 0.55042 0.0
H326 H 0.23541 0.23993 0.56312 0.0
H327 H 0.28964 0.30465 0.5447 0.0
H328 H 0.39234 0.31358 0.61922 0.0
H329 H 0.33929 0.24706 0.63734 0.0
C330 C 0.46239 0.3946 0.56089 0.0
C331 C 0.43518 0.42979 0.54403 0.0
C332 C 0.4333 0.35809 0.57354 0.0
C333 C 0.37651 0.35603 0.56941 0.0
C334 C 0.34958 0.3928 0.5535 0.0
C335 C 0.3785 0.42898 0.54092 0.0
C336 C 0.26992 0.25514 0.57551 0.0
C337 C 0.28275 0.23823 0.60176 0.0
C338 C 0.30067 0.29283 0.56506 0.0
C339 C 0.34508 0.31483 0.58058 0.0
C340 C 0.35855 0.29741 0.60669 0.0
C341 C 0.32772 0.25962 0.61716 0.0
H342 H 0.55728 0.70079 0.47648 0.0
H343 H 0.42371 0.66533 0.52155 0.0
H344 H 0.51861 0.78373 0.46662 0.0
H345 H 0.38477 0.7469 0.5117 0.0
H346 H 0.32173 0.89815 0.49431 0.0
H347 H 0.38532 0.83686 0.51438 0.0
H348 H 0.43951 0.80606 0.43669 0.0
H349 H 0.37639 0.86709 0.41675 0.0
C350 C 0.52091 0.71159 0.48517 0.0
C351 C 0.49351 0.67702 0.49986 0.0
C352 C 0.49829 0.75871 0.47926 0.0
C353 C 0.44813 0.77188 0.48808 0.0
C354 C 0.42356 0.73856 0.50475 0.0
C355 C 0.44584 0.69165 0.5104 0.0
C356 C 0.34764 0.87867 0.48158 0.0
C357 C 0.3434 0.88728 0.45384 0.0
C358 C 0.38425 0.84363 0.4931 0.0
C359 C 0.41742 0.81617 0.47716 0.0
C360 C 0.41533 0.82694 0.44971 0.0
C361 C 0.37883 0.86198 0.43821 0.0
H362 H 0.98428 0.00899 0.08783 0.0
H363 H 0.13492 0.9392 0.11562 0.0
H364 H 0.95429 1.00179 0.13249 0.0
H365 H 0.1066 0.93451 0.1604 0.0
H366 H 0.04857 0.92538 0.24023 0.0
H367 H 0.05161 0.90543 0.19285 0.0
H368 H 0.97995 0.04854 0.17224 0.0
H369 H 0.97388 0.06694 0.21931 0.0
C370 C 1.0103 0.99071 0.10324 0.0
C371 C 0.062 0.97477 0.09823 0.0
C372 C 0.99349 0.98727 0.12898 0.0
C373 C 1.02839 0.96848 0.15026 0.0
C374 C 0.07834 0.94889 0.14461 0.0
C375 C 0.09487 0.95194 0.1189 0.0
C376 C 0.03212 0.95198 0.22555 0.0
C377 C 1.01187 0.99819 0.23363 0.0
C378 C 0.03433 0.94074 0.19835 0.0
C379 C 1.01667 0.97558 0.17863 0.0
C380 C 0.99353 0.02049 0.18672 0.0
C381 C 0.99095 0.03152 0.21384 0.0
H382 H 0.13972 0.0146 0.92915 0.0
H383 H 1.02263 0.89432 0.92495 0.0
H384 H 0.15515 0.99854 0.88245 0.0
H385 H 0.04021 0.87581 0.87896 0.0
H386 H 1.00411 0.92249 0.79212 0.0
H387 H 1.00986 0.91997 0.84046 0.0
H388 H 0.181 0.95191 0.8448 0.0
H389 H 0.17464 0.95552 0.79578 0.0
C390 C 0.11923 0.98319 0.91856 0.0
C391 C 0.07947 0.95611 0.93035 0.0
C392 C 0.12794 0.97394 0.89176 0.0
C393 C 0.09757 0.93689 0.87656 0.0
C394 C 0.06281 0.90589 0.88967 0.0
C395 C 0.05321 0.91594 0.91614 0.0
C396 C 0.04323 0.92806 0.80329 0.0
C397 C 0.08896 0.93886 0.79006 0.0
C398 C 0.04669 0.92634 0.83116 0.0
C399 C 0.09613 0.93498 0.84674 0.0
C400 C 0.14222 0.94527 0.83351 0.0
C401 C 0.13862 0.94735 0.80544 0.0
H402 H 0.47632 0.50688 0.58841 0.0
H403 H 0.6237 0.43671 0.62078 0.0
H404 H 0.43938 0.49749 0.63159 0.0
H405 H 0.58778 0.42833 0.66377 0.0
H406 H 0.51152 0.40722 0.7388 0.0
H407 H 0.523 0.39352 0.69145 0.0
H408 H 0.4634 0.54227 0.67398 0.0
H409 H 0.45186 0.55584 0.72104 0.0
C410 C 0.50014 0.48816 0.60449 0.0
C411 C 0.55298 0.47283 0.60135 0.0
C412 C 0.47926 0.48321 0.62928 0.0
C413 C 0.51088 0.46273 0.65126 0.0
C414 C 0.56207 0.4439 0.64731 0.0
C415 C 0.58289 0.44904 0.62269 0.0
C416 C 0.50039 0.43677 0.72477 0.0
C417 C 0.48133 0.48281 0.73377 0.0
C418 C 0.50677 0.42886 0.69764 0.0
C419 C 0.49441 0.46689 0.67892 0.0
C420 C 0.47254 0.51185 0.68772 0.0
C421 C 0.4661 0.51972 0.71481 0.0
H422 H 0.63502 0.53586 0.42733 0.0
H423 H 0.54182 0.39922 0.42691 0.0
H424 H 0.64981 0.5213 0.38042 0.0
H425 H 0.55851 0.38285 0.38045 0.0
H426 H 0.51302 0.42159 0.29245 0.0
H427 H 0.52004 0.42057 0.3409 0.0
H428 H 0.6839 0.47654 0.34405 0.0
H429 H 0.67634 0.4782 0.29503 0.0
C430 C 0.61988 0.50151 0.41745 0.0
C431 C 0.58759 0.46846 0.43057 0.0
C432 C 0.62822 0.4931 0.39056 0.0
C433 C 0.60438 0.45138 0.37638 0.0
C434 C 0.57626 0.41605 0.39048 0.0
C435 C 0.5673 0.42491 0.41719 0.0
C436 C 0.55099 0.43274 0.30339 0.0
C437 C 0.59416 0.44981 0.28979 0.0
C438 C 0.55517 0.43197 0.33131 0.0
C439 C 0.60277 0.44804 0.34657 0.0
C440 C 0.64648 0.46426 0.33299 0.0
C441 C 0.64217 0.46525 0.30491 0.0
loop_
_geom_bond_atom_site_label_1
_geom_bond_atom_site_label_2
_geom_bond_distance
_geom_bond_site_symmetry_2
_ccdc_geom_bond_type
Zn0 O6 1.920 1_545 S
Zn0 O12 1.898 . S
Zn0 O15 1.905 1_545 S
Zn1 O9 1.905 . S
Zn1 O10 1.898 1_545 S
Zn1 O18 1.920 1_545 S
Zn2 O5 2.080 1_445 S
Zn2 O8 2.114 . S
Zn2 O11 2.120 1_545 S
Zn2 O13 2.120 1_455 S
Zn2 O14 2.114 1_554 S
Zn2 O17 2.080 . S
C3 O8 1.166 . S
C3 O9 1.182 . S
C4 O10 1.167 . S
C4 O11 1.299 . S
O5 Zn2 2.080 1_665 S
O5 C19 1.305 . S
O6 Zn0 1.920 1_565 S
O6 C19 1.234 1_556 S
C7 O12 1.167 . S
C7 O13 1.299 1_556 S
O8 Zn2 2.114 . S
O8 C3 1.166 . S
O9 Zn1 1.905 . S
O9 C3 1.182 . S
O10 Zn1 1.898 1_565 S
O10 C4 1.167 . S
O11 Zn2 2.120 1_565 S
O11 C4 1.299 . S
O12 Zn0 1.898 . S
O12 C7 1.167 . S
O13 Zn2 2.120 1_655 S
O13 C7 1.299 1_554 S
O14 Zn2 2.114 1_556 S
O14 C16 1.166 1_545 S
O15 Zn0 1.905 1_565 S
O15 C16 1.182 1_655 S
C16 O14 1.166 1_565 S
C16 O15 1.182 1_455 S
O17 Zn2 2.080 . S
O17 C20 1.305 1_545 S
O18 Zn1 1.920 1_565 S
O18 C20 1.234 . S
C19 O5 1.305 . S
C19 O6 1.234 1_554 S
C20 O17 1.305 1_565 S
C20 O18 1.234 . S
Zn21 O27 1.920 . S
Zn21 O33 1.898 . S
Zn21 O36 1.905 . S
Zn22 O30 1.905 . S
Zn22 O31 1.898 . S
Zn22 O39 1.920 . S
Zn23 O26 2.080 . S
Zn23 O29 2.114 . S
Zn23 O32 2.120 . S
Zn23 O34 2.120 . S
Zn23 O35 2.114 . S
Zn23 O38 2.080 . S
C24 O29 1.166 . S
C24 O30 1.182 . S
C25 O31 1.167 . S
C25 O32 1.299 . S
O26 Zn23 2.080 . S
O26 C40 1.305 . S
O27 Zn21 1.920 . S
O27 C40 1.234 . S
C28 O33 1.167 . S
C28 O34 1.299 . S
O29 Zn23 2.114 . S
O29 C24 1.166 . S
O30 Zn22 1.905 . S
O30 C24 1.182 . S
O31 Zn22 1.898 . S
O31 C25 1.167 . S
O32 Zn23 2.120 . S
O32 C25 1.299 . S
O33 Zn21 1.898 . S
O33 C28 1.167 . S
O34 Zn23 2.120 . S
O34 C28 1.299 . S
O35 Zn23 2.114 . S
O35 C37 1.166 . S
O36 Zn21 1.905 . S
O36 C37 1.182 . S
C37 O35 1.166 . S
C37 O36 1.182 . S
O38 Zn23 2.080 . S
O38 C41 1.305 . S
O39 Zn22 1.920 . S
O39 C41 1.234 . S
C40 O26 1.305 . S
C40 O27 1.234 . S
C41 O38 1.305 . S
C41 O39 1.234 . S
C42 C43 1.264 . S
C42 C47 1.479 . S
C42 C52 1.465 1_655 S
C43 C42 1.264 . S
C43 C45 1.339 . S
C43 H70 0.931 . S
C44 C45 1.395 . S
C44 C46 1.320 . S
C45 C43 1.339 . S
C45 C44 1.395 . S
C45 H71 0.929 . S
C46 C44 1.320 . S
C46 C47 1.405 . S
C46 H72 0.930 . S
C47 C42 1.479 . S
C47 C46 1.405 . S
C47 H73 0.931 1_655 S
U48 O49 2.454 . S
U48 O50 2.458 1_545 S
U48 C51 2.984 1_545 S
U48 C52 2.847 . S
U48 C65 2.882 . S
U48 O66 2.441 . S
U48 O67 2.420 . S
U48 O68 2.455 . S
U48 O69 2.449 . S
O49 U48 2.454 . S
O49 C51 1.353 1_545 S
O50 U48 2.458 1_565 S
O50 C51 1.286 . S
C51 U48 2.984 1_565 S
C51 O49 1.353 1_565 S
C51 O50 1.286 . S
C51 C53 1.363 . S
C52 C42 1.465 1_455 S
C52 U48 2.847 . S
C52 O66 1.249 . S
C52 O67 1.202 . S
C53 C51 1.363 . S
C53 C55 1.408 . S
C53 C58 1.342 . S
C54 C55 1.310 . S
C54 C57 1.461 . S
C54 H74 0.932 . S
C55 C53 1.408 . S
C55 C54 1.310 . S
C55 H75 0.930 . S
C56 C57 1.474 . S
C56 C58 1.285 . S
C56 H76 0.929 . S
C57 C54 1.461 . S
C57 C56 1.474 . S
C58 C53 1.342 . S
C58 C56 1.285 . S
C58 H77 0.930 . S
C59 C62 1.424 . S
C59 C64 1.245 . S
C59 C65 1.428 . S
C60 C63 1.260 . S
C60 C64 1.477 . S
C60 H78 0.932 . S
C61 C62 1.384 . S
C61 C63 1.479 . S
C61 H79 0.929 . S
C62 C59 1.424 . S
C62 C61 1.384 . S
C62 H80 0.928 . S
C63 C60 1.260 . S
C63 C61 1.479 . S
C64 C59 1.245 . S
C64 C60 1.477 . S
C64 H81 0.940 . S
C65 U48 2.882 . S
C65 C59 1.428 . S
C65 O68 1.301 . S
C65 O69 1.282 . S
O66 U48 2.441 . S
O66 C52 1.249 . S
O67 U48 2.420 . S
O67 C52 1.202 . S
O68 U48 2.455 . S
O68 C65 1.301 . S
O69 U48 2.449 . S
O69 C65 1.282 . S
H70 C43 0.931 . S
H71 C45 0.929 . S
H72 C46 0.930 . S
H73 C47 0.931 1_455 S
H74 C54 0.932 . S
H75 C55 0.930 . S
H76 C56 0.929 . S
H77 C58 0.930 . S
H78 C60 0.932 . S
H79 C61 0.929 . S
H80 C62 0.928 . S
H81 C64 0.940 . S
C82 C83 1.264 . S
C82 C87 1.479 . S
C82 C92 1.465 . S
C83 C82 1.264 . S
C83 C85 1.339 . S
C83 H110 0.931 . S
C84 C85 1.395 . S
C84 C86 1.320 . S
C85 C83 1.339 . S
C85 C84 1.395 . S
C85 H111 0.929 . S
C86 C84 1.320 . S
C86 C87 1.405 . S
C86 H112 0.930 . S
C87 C82 1.479 . S
C87 C86 1.405 . S
C87 H113 0.931 . S
U88 O89 2.454 . S
U88 O90 2.458 . S
U88 C91 2.984 . S
U88 C92 2.847 1_445 S
U88 C105 2.882 . S
U88 O106 2.441 1_445 S
U88 O107 2.420 1_445 S
U88 O108 2.455 . S
U88 O109 2.449 1_545 S
O89 U88 2.454 . S
O89 C91 1.353 . S
O90 U88 2.458 . S
O90 C91 1.286 . S
C91 U88 2.984 . S
C91 O89 1.353 . S
C91 O90 1.286 . S
C91 C93 1.363 . S
C92 C82 1.465 . S
C92 U88 2.847 1_665 S
C92 O106 1.249 . S
C92 O107 1.202 . S
C93 C91 1.363 . S
C93 C95 1.408 . S
C93 C98 1.342 . S
C94 C95 1.310 . S
C94 C97 1.461 . S
C94 H114 0.932 . S
C95 C93 1.408 . S
C95 C94 1.310 . S
C95 H115 0.930 . S
C96 C97 1.474 . S
C96 C98 1.285 . S
C96 H116 0.929 . S
C97 C94 1.461 . S
C97 C96 1.474 . S
C98 C93 1.342 . S
C98 C96 1.285 . S
C98 H117 0.930 . S
C99 C102 1.424 1_445 S
C99 C104 1.245 . S
C99 C105 1.428 . S
C100 C103 1.260 . S
C100 C104 1.477 . S
C100 H118 0.932 . S
C101 C102 1.384 . S
C101 C103 1.479 1_665 S
C101 H119 0.929 . S
C102 C99 1.424 1_665 S
C102 C101 1.384 . S
C102 H120 0.928 . S
C103 C100 1.260 . S
C103 C101 1.479 1_445 S
C104 C99 1.245 . S
C104 C100 1.477 . S
C104 H121 0.932 . S
C105 U88 2.882 . S
C105 C99 1.428 . S
C105 O108 1.301 . S
C105 O109 1.282 1_545 S
O106 U88 2.441 1_665 S
O106 C92 1.249 . S
O107 U88 2.420 1_665 S
O107 C92 1.202 . S
O108 U88 2.455 . S
O108 C105 1.301 . S
O109 U88 2.449 1_565 S
O109 C105 1.282 1_565 S
H110 C83 0.931 . S
H111 C85 0.929 . S
H112 C86 0.930 . S
H113 C87 0.931 . S
H114 C94 0.932 . S
H115 C95 0.930 . S
H116 C96 0.929 . S
H117 C98 0.930 . S
H118 C100 0.932 . S
H119 C101 0.929 . S
H120 C102 0.928 . S
H121 C104 0.932 . S
C122 C123 1.264 . S
C122 C127 1.479 . S
C122 C132 1.465 . S
C123 C122 1.264 . S
C123 C125 1.339 . S
C123 H150 0.931 . S
C124 C125 1.395 . S
C124 C126 1.320 . S
C125 C123 1.339 . S
C125 C124 1.395 . S
C125 H151 0.929 . S
C126 C124 1.320 . S
C126 C127 1.405 . S
C126 H152 0.971 . S
C127 C122 1.479 . S
C127 C126 1.405 . S
C127 H153 0.931 . S
U128 O129 2.454 . S
U128 O130 2.458 . S
U128 C131 2.984 . S
U128 C132 2.847 . S
U128 C145 2.882 . S
U128 O146 2.441 . S
U128 O147 2.420 . S
U128 O148 2.455 . S
U128 O149 2.449 . S
O129 U128 2.454 . S
O129 C131 1.353 . S
O130 U128 2.458 . S
O130 C131 1.286 . S
C131 U128 2.984 . S
C131 O129 1.353 . S
C131 O130 1.286 . S
C131 C133 1.363 . S
C132 C122 1.465 . S
C132 U128 2.847 . S
C132 O146 1.249 . S
C132 O147 1.202 . S
C133 C131 1.363 . S
C133 C135 1.408 . S
C133 C138 1.342 . S
C134 C135 1.310 . S
C134 C137 1.461 . S
C134 H154 0.932 1_556 S
C135 C133 1.408 . S
C135 C134 1.310 . S
C135 H155 0.930 . S
C136 C137 1.474 . S
C136 C138 1.285 . S
C136 H156 0.929 . S
C137 C134 1.461 . S
C137 C136 1.474 . S
C138 C133 1.342 . S
C138 C136 1.285 . S
C138 H157 0.930 . S
C139 C142 1.424 . S
C139 C144 1.245 . S
C139 C145 1.428 . S
C140 C143 1.260 . S
C140 C144 1.477 . S
C140 H158 0.932 . S
C141 C142 1.384 . S
C141 C143 1.479 . S
C141 H159 0.929 . S
C142 C139 1.424 . S
C142 C141 1.384 . S
C142 H160 0.928 . S
C143 C140 1.260 . S
C143 C141 1.479 . S
C144 C139 1.245 . S
C144 C140 1.477 . S
C144 H161 0.932 . S
C145 U128 2.882 . S
C145 C139 1.428 . S
C145 O148 1.301 . S
C145 O149 1.282 . S
O146 U128 2.441 . S
O146 C132 1.249 . S
O147 U128 2.420 . S
O147 C132 1.202 . S
O148 U128 2.455 . S
O148 C145 1.301 . S
O149 U128 2.449 . S
O149 C145 1.282 . S
H150 C123 0.931 . S
H151 C125 0.929 . S
H152 C126 0.971 . S
H153 C127 0.931 . S
H154 C134 0.932 1_554 S
H155 C135 0.930 . S
H156 C136 0.929 . S
H157 C138 0.930 . S
H158 C140 0.932 . S
H159 C141 0.929 . S
H160 C142 0.928 . S
H161 C144 0.932 . S
C162 C163 1.264 . S
C162 C167 1.479 . S
C162 C172 1.465 . S
C163 C162 1.264 . S
C163 C165 1.339 . S
C163 H190 0.931 . S
C164 C165 1.395 . S
C164 C166 1.320 . S
C165 C163 1.339 . S
C165 C164 1.395 . S
C165 H191 0.929 . S
C166 C164 1.320 . S
C166 C167 1.405 . S
C166 H192 0.930 . S
C167 C162 1.479 . S
C167 C166 1.405 . S
C167 H193 0.931 . S
U168 O169 2.454 . S
U168 O170 2.458 . S
U168 C171 2.984 . S
U168 C172 2.847 . S
U168 C185 2.882 . S
U168 O186 2.441 . S
U168 O187 2.420 . S
U168 O188 2.455 . S
U168 O189 2.449 . S
O169 U168 2.454 . S
O169 C171 1.353 . S
O170 U168 2.458 . S
O170 C171 1.286 . S
C171 U168 2.984 . S
C171 O169 1.353 . S
C171 O170 1.286 . S
C171 C173 1.363 . S
C172 C162 1.465 . S
C172 U168 2.847 . S
C172 O186 1.249 . S
C172 O187 1.202 . S
C173 C171 1.363 . S
C173 C175 1.408 . S
C173 C178 1.342 . S
C174 C175 1.310 . S
C174 C177 1.461 . S
C174 H194 0.932 . S
C175 C173 1.408 . S
C175 C174 1.310 . S
C175 H195 0.930 . S
C176 C177 1.474 . S
C176 C178 1.285 . S
C176 H196 0.929 . S
C177 C174 1.461 . S
C177 C176 1.474 . S
C178 C173 1.342 . S
C178 C176 1.285 . S
C178 H197 0.930 . S
C179 C182 1.424 . S
C179 C184 1.245 . S
C179 C185 1.428 . S
C180 C183 1.260 . S
C180 C184 1.477 . S
C180 H198 0.932 . S
C181 C182 1.384 . S
C181 C183 1.479 . S
C181 H199 0.929 . S
C182 C179 1.424 . S
C182 C181 1.384 . S
C182 H200 0.928 . S
C183 C180 1.260 . S
C183 C181 1.479 . S
C184 C179 1.245 . S
C184 C180 1.477 . S
C184 H201 0.932 . S
C185 U168 2.882 . S
C185 C179 1.428 . S
C185 O188 1.301 . S
C185 O189 1.282 . S
O186 U168 2.441 . S
O186 C172 1.249 . S
O187 U168 2.420 . S
O187 C172 1.202 . S
O188 U168 2.455 . S
O188 C185 1.301 . S
O189 U168 2.449 . S
O189 C185 1.282 . S
H190 C163 0.931 . S
H191 C165 0.929 . S
H192 C166 0.930 . S
H193 C167 0.931 . S
H194 C174 0.932 . S
H195 C175 0.930 . S
H196 C176 0.929 . S
H197 C178 0.930 . S
H198 C180 0.932 . S
H199 C181 0.929 . S
H200 C182 0.928 . S
H201 C184 0.932 . S
H202 C210 0.950 . S
H203 C215 0.950 1_556 S
H204 C212 0.950 . S
H205 C214 0.950 . S
H206 C216 0.950 . S
H207 C218 0.950 . S
H208 C220 0.950 . S
H209 C221 0.950 . S
C210 H202 0.950 . S
C210 C211 1.386 . S
C210 C212 1.391 . S
C211 C210 1.386 . S
C211 C215 1.393 . S
C212 H204 0.950 . S
C212 C210 1.391 . S
C212 C213 1.400 . S
C213 C212 1.400 . S
C213 C214 1.398 . S
C213 C219 1.491 . S
C214 H205 0.950 . S
C214 C213 1.398 . S
C214 C215 1.391 . S
C215 H203 0.950 1_554 S
C215 C211 1.393 . S
C215 C214 1.391 . S
C216 H206 0.950 . S
C216 C217 1.386 . S
C216 C218 1.391 . S
C217 C216 1.386 . S
C217 C221 1.393 . S
C218 H207 0.950 . S
C218 C216 1.391 . S
C218 C219 1.400 . S
C219 C213 1.491 . S
C219 C218 1.400 . S
C219 C220 1.398 . S
C220 H208 0.950 . S
C220 C219 1.398 . S
C220 C221 1.391 . S
C221 H209 0.950 . S
C221 C217 1.393 . S
C221 C220 1.391 . S
H222 C230 0.950 . S
H223 C235 0.950 . S
H224 C232 0.950 . S
H225 C234 0.950 . S
H226 C236 0.950 . S
H227 C238 0.950 . S
H228 C240 0.950 . S
H229 C241 0.950 . S
C230 H222 0.950 . S
C230 C231 1.386 . S
C230 C232 1.391 . S
C231 C230 1.386 . S
C231 C235 1.393 . S
C232 H224 0.950 . S
C232 C230 1.391 . S
C232 C233 1.400 . S
C233 C232 1.400 . S
C233 C234 1.398 . S
C233 C239 1.491 . S
C234 H225 0.950 . S
C234 C233 1.398 . S
C234 C235 1.391 . S
C235 H223 0.950 . S
C235 C231 1.393 . S
C235 C234 1.391 . S
C236 H226 0.950 . S
C236 C237 1.386 . S
C236 C238 1.391 . S
C237 C236 1.386 . S
C237 C241 1.393 . S
C238 H227 0.950 . S
C238 C236 1.391 . S
C238 C239 1.400 . S
C239 C233 1.491 . S
C239 C238 1.400 . S
C239 C240 1.398 . S
C240 H228 0.950 . S
C240 C239 1.398 . S
C240 C241 1.391 . S
C241 H229 0.950 . S
C241 C237 1.393 . S
C241 C240 1.391 . S
H242 C250 0.950 . S
H243 C255 0.950 . S
H244 C252 0.950 . S
H245 C254 0.950 . S
H246 C256 0.950 . S
H247 C258 0.950 . S
H248 C260 0.950 . S
H249 C261 0.950 . S
C250 H242 0.950 . S
C250 C251 1.386 . S
C250 C252 1.391 . S
C251 C250 1.386 . S
C251 C255 1.393 . S
C252 H244 0.950 . S
C252 C250 1.391 . S
C252 C253 1.400 . S
C253 C252 1.400 . S
C253 C254 1.398 . S
C253 C259 1.491 . S
C254 H245 0.950 . S
C254 C253 1.398 . S
C254 C255 1.391 . S
C255 H243 0.950 . S
C255 C251 1.393 . S
C255 C254 1.391 . S
C256 H246 0.950 . S
C256 C257 1.386 . S
C256 C258 1.391 . S
C257 C256 1.386 . S
C257 C261 1.393 . S
C258 H247 0.950 . S
C258 C256 1.391 . S
C258 C259 1.400 . S
C259 C253 1.491 . S
C259 C258 1.400 . S
C259 C260 1.398 . S
C260 H248 0.950 . S
C260 C259 1.398 . S
C260 C261 1.391 . S
C261 H249 0.950 . S
C261 C257 1.393 . S
C261 C260 1.391 . S
H262 C270 0.950 . S
H263 C275 0.949 1_554 S
H264 C272 0.950 . S
H265 C274 0.950 . S
H266 C276 0.950 . S
H267 C278 0.950 . S
H268 C280 0.950 . S
H269 C281 0.950 . S
C270 H262 0.950 . S
C270 C271 1.386 . S
C270 C272 1.391 . S
C271 C270 1.386 . S
C271 C275 1.391 . S
C272 H264 0.950 . S
C272 C270 1.391 . S
C272 C273 1.400 . S
C273 C272 1.400 . S
C273 C274 1.398 . S
C273 C279 1.491 . S
C274 H265 0.950 . S
C274 C273 1.398 . S
C274 C275 1.395 . S
C275 H263 0.949 1_556 S
C275 C271 1.391 . S
C275 C274 1.395 . S
C276 H266 0.950 . S
C276 C277 1.386 . S
C276 C278 1.391 . S
C277 C276 1.386 . S
C277 C281 1.393 . S
C278 H267 0.950 . S
C278 C276 1.391 . S
C278 C279 1.400 . S
C279 C273 1.491 . S
C279 C278 1.400 . S
C279 C280 1.398 . S
C280 H268 0.950 . S
C280 C279 1.398 . S
C280 C281 1.391 . S
C281 H269 0.950 . S
C281 C277 1.393 . S
C281 C280 1.391 . S
H282 C290 0.950 . S
H283 C295 0.950 . S
H284 C292 0.950 . S
H285 C294 0.950 . S
H286 C296 0.950 . S
H287 C298 0.950 . S
H288 C300 0.950 . S
H289 C301 0.950 . S
C290 H282 0.950 . S
C290 C291 1.386 . S
C290 C292 1.391 . S
C291 C290 1.386 . S
C291 C295 1.393 . S
C292 H284 0.950 . S
C292 C290 1.391 . S
C292 C293 1.400 . S
C293 C292 1.400 . S
C293 C294 1.398 . S
C293 C299 1.491 . S
C294 H285 0.950 . S
C294 C293 1.398 . S
C294 C295 1.391 . S
C295 H283 0.950 . S
C295 C291 1.393 . S
C295 C294 1.391 . S
C296 H286 0.950 . S
C296 C297 1.386 . S
C296 C298 1.391 . S
C297 C296 1.386 . S
C297 C301 1.393 . S
C298 H287 0.950 . S
C298 C296 1.391 . S
C298 C299 1.400 . S
C299 C293 1.491 . S
C299 C298 1.400 . S
C299 C300 1.398 . S
C300 H288 0.950 . S
C300 C299 1.398 . S
C300 C301 1.391 . S
C301 H289 0.950 . S
C301 C297 1.393 . S
C301 C300 1.391 . S
H302 C310 0.950 . S
H303 C315 0.950 . S
H304 C312 0.950 . S
H305 C314 0.950 . S
H306 C316 0.950 . S
H307 C318 0.950 . S
H308 C320 0.950 . S
H309 C321 0.950 . S
C310 H302 0.950 . S
C310 C311 1.386 . S
C310 C312 1.391 . S
C311 C310 1.386 . S
C311 C315 1.393 . S
C312 H304 0.950 . S
C312 C310 1.391 . S
C312 C313 1.400 . S
C313 C312 1.400 . S
C313 C314 1.398 . S
C313 C319 1.491 . S
C314 H305 0.950 . S
C314 C313 1.398 . S
C314 C315 1.391 . S
C315 H303 0.950 . S
C315 C311 1.393 . S
C315 C314 1.391 . S
C316 H306 0.950 . S
C316 C317 1.386 . S
C316 C318 1.391 . S
C317 C316 1.386 . S
C317 C321 1.393 . S
C318 H307 0.950 . S
C318 C316 1.391 . S
C318 C319 1.400 . S
C319 C313 1.491 . S
C319 C318 1.400 . S
C319 C320 1.398 . S
C320 H308 0.950 . S
C320 C319 1.398 . S
C320 C321 1.391 . S
C321 H309 0.950 . S
C321 C317 1.393 . S
C321 C320 1.391 . S
H322 C330 0.950 . S
H323 C335 0.950 . S
H324 C332 0.950 . S
H325 C334 0.950 . S
H326 C336 0.950 . S
H327 C338 0.950 . S
H328 C340 0.950 . S
H329 C341 0.950 . S
C330 H322 0.950 . S
C330 C331 1.386 . S
C330 C332 1.391 . S
C331 C330 1.386 . S
C331 C335 1.393 . S
C332 H324 0.950 . S
C332 C330 1.391 . S
C332 C333 1.400 . S
C333 C332 1.400 . S
C333 C334 1.398 . S
C333 C339 1.491 . S
C334 H325 0.950 . S
C334 C333 1.398 . S
C334 C335 1.391 . S
C335 H323 0.950 . S
C335 C331 1.393 . S
C335 C334 1.391 . S
C336 H326 0.950 . S
C336 C337 1.386 . S
C336 C338 1.391 . S
C337 C336 1.386 . S
C337 C341 1.393 . S
C338 H327 0.950 . S
C338 C336 1.391 . S
C338 C339 1.400 . S
C339 C333 1.491 . S
C339 C338 1.400 . S
C339 C340 1.398 . S
C340 H328 0.950 . S
C340 C339 1.398 . S
C340 C341 1.391 . S
C341 H329 0.950 . S
C341 C337 1.393 . S
C341 C340 1.391 . S
H342 C350 0.950 . S
H343 C355 0.950 . S
H344 C352 0.950 . S
H345 C354 0.950 . S
H346 C356 0.950 . S
H347 C358 0.950 . S
H348 C360 0.950 . S
H349 C361 0.950 . S
C350 H342 0.950 . S
C350 C351 1.386 . S
C350 C352 1.391 . S
C351 C350 1.386 . S
C351 C355 1.393 . S
C352 H344 0.950 . S
C352 C350 1.391 . S
C352 C353 1.400 . S
C353 C352 1.400 . S
C353 C354 1.398 . S
C353 C359 1.491 . S
C354 H345 0.950 . S
C354 C353 1.398 . S
C354 C355 1.391 . S
C355 H343 0.950 . S
C355 C351 1.393 . S
C355 C354 1.391 . S
C356 H346 0.950 . S
C356 C357 1.386 . S
C356 C358 1.391 . S
C357 C356 1.386 . S
C357 C361 1.393 . S
C358 H347 0.950 . S
C358 C356 1.391 . S
C358 C359 1.400 . S
C359 C353 1.491 . S
C359 C358 1.400 . S
C359 C360 1.398 . S
C360 H348 0.950 . S
C360 C359 1.398 . S
C360 C361 1.391 . S
C361 H349 0.950 . S
C361 C357 1.393 . S
C361 C360 1.391 . S
H362 C370 0.950 1_655 S
H363 C375 0.950 . S
H364 C372 0.950 1_655 S
H365 C374 0.950 . S
H366 C376 0.950 . S
H367 C378 0.950 . S
H368 C380 0.950 1_655 S
H369 C381 0.950 1_655 S
C370 H362 0.950 1_455 S
C370 C371 1.386 . S
C370 C372 1.391 . S
C371 C370 1.386 . S
C371 C375 1.393 1_565 S
C372 H364 0.950 1_455 S
C372 C370 1.391 . S
C372 C373 1.400 1_565 S
C373 C372 1.400 1_545 S
C373 C374 1.398 . S
C373 C379 1.491 . S
C374 H365 0.950 . S
C374 C373 1.398 . S
C374 C375 1.391 . S
C375 H363 0.950 . S
C375 C371 1.393 1_545 S
C375 C374 1.391 . S
C376 H366 0.950 . S
C376 C377 1.386 . S
C376 C378 1.391 . S
C377 C376 1.386 . S
C377 C381 1.393 . S
C378 H367 0.950 . S
C378 C376 1.391 . S
C378 C379 1.400 . S
C379 C373 1.491 . S
C379 C378 1.400 . S
C379 C380 1.398 . S
C380 H368 0.950 1_455 S
C380 C379 1.398 . S
C380 C381 1.391 . S
C381 H369 0.950 1_455 S
C381 C377 1.393 . S
C381 C380 1.391 . S
H382 C390 0.950 . S
H383 C395 0.950 . S
H384 C392 0.950 . S
H385 C394 0.950 . S
H386 C396 0.950 . S
H387 C398 0.950 . S
H388 C400 0.950 . S
H389 C401 0.950 . S
C390 H382 0.950 . S
C390 C391 1.386 . S
C390 C392 1.391 . S
C391 C390 1.386 . S
C391 C395 1.393 1_455 S
C392 H384 0.950 . S
C392 C390 1.391 . S
C392 C393 1.400 1_565 S
C393 C392 1.400 1_545 S
C393 C394 1.398 1_455 S
C393 C399 1.491 . S
C394 H385 0.950 . S
C394 C393 1.398 1_655 S
C394 C395 1.391 1_545 S
C395 H383 0.950 . S
C395 C391 1.393 1_655 S
C395 C394 1.391 1_565 S
C396 H386 0.950 . S
C396 C397 1.386 1_655 S
C396 C398 1.391 . S
C397 C396 1.386 1_455 S
C397 C401 1.393 . S
C398 H387 0.950 . S
C398 C396 1.391 . S
C398 C399 1.400 1_655 S
C399 C393 1.491 . S
C399 C398 1.400 1_455 S
C399 C400 1.398 . S
C400 H388 0.950 . S
C400 C399 1.398 . S
C400 C401 1.391 . S
C401 H389 0.950 . S
C401 C397 1.393 . S
C401 C400 1.391 . S
H402 C410 0.950 . S
H403 C415 0.950 . S
H404 C412 0.950 . S
H405 C414 0.950 . S
H406 C416 0.950 . S
H407 C418 0.950 . S
H408 C420 0.950 . S
H409 C421 0.950 . S
C410 H402 0.950 . S
C410 C411 1.386 . S
C410 C412 1.391 . S
C411 C410 1.386 . S
C411 C415 1.393 . S
C412 H404 0.950 . S
C412 C410 1.391 . S
C412 C413 1.400 . S
C413 C412 1.400 . S
C413 C414 1.398 . S
C413 C419 1.491 . S
C414 H405 0.950 . S
C414 C413 1.398 . S
C414 C415 1.391 . S
C415 H403 0.950 . S
C415 C411 1.393 . S
C415 C414 1.391 . S
C416 H406 0.950 . S
C416 C417 1.386 . S
C416 C418 1.391 . S
C417 C416 1.386 . S
C417 C421 1.393 . S
C418 H407 0.950 . S
C418 C416 1.391 . S
C418 C419 1.400 . S
C419 C413 1.491 . S
C419 C418 1.400 . S
C419 C420 1.398 . S
C420 H408 0.950 . S
C420 C419 1.398 . S
C420 C421 1.391 . S
C421 H409 0.950 . S
C421 C417 1.393 . S
C421 C420 1.391 . S
H422 C430 0.950 . S
H423 C435 0.950 . S
H424 C432 0.950 . S
H425 C434 0.950 . S
H426 C436 0.950 . S
H427 C438 0.950 . S
H428 C440 0.950 . S
H429 C441 0.950 . S
C430 H422 0.950 . S
C430 C431 1.386 . S
C430 C432 1.391 . S
C431 C430 1.386 . S
C431 C435 1.393 . S
C432 H424 0.950 . S
C432 C430 1.391 . S
C432 C433 1.400 . S
C433 C432 1.400 . S
C433 C434 1.398 . S
C433 C439 1.491 . S
C434 H425 0.950 . S
C434 C433 1.398 . S
C434 C435 1.391 . S
C435 H423 0.950 . S
C435 C431 1.393 . S
C435 C434 1.391 . S
C436 H426 0.950 . S
C436 C437 1.386 . S
C436 C438 1.391 . S
C437 C436 1.386 . S
C437 C441 1.393 . S
C438 H427 0.950 . S
C438 C436 1.391 . S
C438 C439 1.400 . S
C439 C433 1.491 . S
C439 C438 1.400 . S
C439 C440 1.398 . S
C440 H428 0.950 . S
C440 C439 1.398 . S
C440 C441 1.391 . S
C441 H429 0.950 . S
C441 C437 1.393 . S
C441 C440 1.391 . S
C217 C164 1.235 . S
C211 C3 1.142 . S
C231 C4 1.509 1_556 S
C237 C124 1.648 . S
C251 C19 1.536 . S
C257 C177 1.651 . S
C271 C7 1.161 . S
C277 C137 1.235 . S
C291 C37 1.118 . S
C297 C84 1.245 . S
C311 C28 1.507 . S
C317 C44 1.649 . S
C337 C97 1.664 . S
C331 C41 1.559 . S
C357 C57 1.242 . S
C351 C25 1.131 . S
C371 C20 1.294 . S
C377 C63 1.464 . S
C391 C16 1.346 . S
C397 C103 1.485 . S
C417 C143 1.461 . S
C411 C40 1.315 . S
C431 C24 1.352 . S
C437 C183 1.487 . S
