# Generated by pormake.
# Topology gar, (4,6)-cn, num edge types: 1
# Building blocks:
#     Node 0, Type 0, BuildingBlock: AZAVOO_clean_sbu_0, # of connection points: 4
#     Node 1, Type 0, BuildingBlock: AZAVOO_clean_sbu_0, # of connection points: 4
#     Node 2, Type 0, BuildingBlock: AZAVOO_clean_sbu_0, # of connection points: 4
#     Node 3, Type 0, BuildingBlock: AZAVOO_clean_sbu_0, # of connection points: 4
#     Node 4, Type 0, BuildingBlock: AZAVOO_clean_sbu_0, # of connection points: 4
#     Node 5, Type 0, BuildingBlock: AZAVOO_clean_sbu_0, # of connection points: 4
#     Node 6, Type 0, BuildingBlock: AZAVOO_clean_sbu_0, # of connection points: 4
#     Node 7, Type 0, BuildingBlock: AZAVOO_clean_sbu_0, # of connection points: 4
#     Node 8, Type 0, BuildingBlock: AZAVOO_clean_sbu_0, # of connection points: 4
#     Node 9, Type 0, BuildingBlock: AZAVOO_clean_sbu_0, # of connection points: 4
#     Node 10, Type 0, BuildingBlock: AZAVOO_clean_sbu_0, # of connection points: 4
#     Node 11, Type 0, BuildingBlock: AZAVOO_clean_sbu_0, # of connection points: 4
#     Node 12, Type 0, BuildingBlock: AZAVOO_clean_sbu_0, # of connection points: 4
#     Node 13, Type 0, BuildingBlock: AZAVOO_clean_sbu_0, # of connection points: 4
#     Node 14, Type 0, BuildingBlock: AZAVOO_clean_sbu_0, # of connection points: 4
#     Node 15, Type 0, BuildingBlock: AZAVOO_clean_sbu_0, # of connection points: 4
#     Node 16, Type 0, BuildingBlock: AZAVOO_clean_sbu_0, # of connection points: 4
#     Node 17, Type 0, BuildingBlock: AZAVOO_clean_sbu_0, # of connection points: 4
#     Node 18, Type 0, BuildingBlock: AZAVOO_clean_sbu_0, # of connection points: 4
#     Node 19, Type 0, BuildingBlock: AZAVOO_clean_sbu_0, # of connection points: 4
#     Node 20, Type 0, BuildingBlock: AZAVOO_clean_sbu_0, # of connection points: 4
#     Node 21, Type 0, BuildingBlock: AZAVOO_clean_sbu_0, # of connection points: 4
#     Node 22, Type 0, BuildingBlock: AZAVOO_clean_sbu_0, # of connection points: 4
#     Node 23, Type 0, BuildingBlock: AZAVOO_clean_sbu_0, # of connection points: 4
#     Node 24, Type 1, BuildingBlock: BETDIP_clean_sbu_0, # of connection points: 6
#     Node 25, Type 1, BuildingBlock: BETDIP_clean_sbu_0, # of connection points: 6
#     Node 26, Type 1, BuildingBlock: BETDIP_clean_sbu_0, # of connection points: 6
#     Node 27, Type 1, BuildingBlock: BETDIP_clean_sbu_0, # of connection points: 6
#     Node 28, Type 1, BuildingBlock: BETDIP_clean_sbu_0, # of connection points: 6
#     Node 29, Type 1, BuildingBlock: BETDIP_clean_sbu_0, # of connection points: 6
#     Node 30, Type 1, BuildingBlock: BETDIP_clean_sbu_0, # of connection points: 6
#     Node 31, Type 1, BuildingBlock: BETDIP_clean_sbu_0, # of connection points: 6
#     Node 32, Type 1, BuildingBlock: BETDIP_clean_sbu_0, # of connection points: 6
#     Node 33, Type 1, BuildingBlock: BETDIP_clean_sbu_0, # of connection points: 6
#     Node 34, Type 1, BuildingBlock: BETDIP_clean_sbu_0, # of connection points: 6
#     Node 35, Type 1, BuildingBlock: BETDIP_clean_sbu_0, # of connection points: 6
#     Node 36, Type 1, BuildingBlock: BETDIP_clean_sbu_0, # of connection points: 6
#     Node 37, Type 1, BuildingBlock: BETDIP_clean_sbu_0, # of connection points: 6
#     Node 38, Type 1, BuildingBlock: BETDIP_clean_sbu_0, # of connection points: 6
#     Node 39, Type 1, BuildingBlock: BETDIP_clean_sbu_0, # of connection points: 6
#     Edge 40, Type (0, 1), BuildingBlock: CIFDUS_clean_linker_0, # of connection points: 2
#     Edge 41, Type (0, 1), BuildingBlock: CIFDUS_clean_linker_0, # of connection points: 2
#     Edge 42, Type (0, 1), BuildingBlock: CIFDUS_clean_linker_0, # of connection points: 2
#     Edge 43, Type (0, 1), BuildingBlock: CIFDUS_clean_linker_0, # of connection points: 2
#     Edge 44, Type (0, 1), BuildingBlock: CIFDUS_clean_linker_0, # of connection points: 2
#     Edge 45, Type (0, 1), BuildingBlock: CIFDUS_clean_linker_0, # of connection points: 2
#     Edge 46, Type (0, 1), BuildingBlock: CIFDUS_clean_linker_0, # of connection points: 2
#     Edge 47, Type (0, 1), BuildingBlock: CIFDUS_clean_linker_0, # of connection points: 2
#     Edge 48, Type (0, 1), BuildingBlock: CIFDUS_clean_linker_0, # of connection points: 2
#     Edge 49, Type (0, 1), BuildingBlock: CIFDUS_clean_linker_0, # of connection points: 2
#     Edge 50, Type (0, 1), BuildingBlock: CIFDUS_clean_linker_0, # of connection points: 2
#     Edge 51, Type (0, 1), BuildingBlock: CIFDUS_clean_linker_0, # of connection points: 2
#     Edge 52, Type (0, 1), BuildingBlock: CIFDUS_clean_linker_0, # of connection points: 2
#     Edge 53, Type (0, 1), BuildingBlock: CIFDUS_clean_linker_0, # of connection points: 2
#     Edge 54, Type (0, 1), BuildingBlock: CIFDUS_clean_linker_0, # of connection points: 2
#     Edge 55, Type (0, 1), BuildingBlock: CIFDUS_clean_linker_0, # of connection points: 2
#     Edge 56, Type (0, 1), BuildingBlock: CIFDUS_clean_linker_0, # of connection points: 2
#     Edge 57, Type (0, 1), BuildingBlock: CIFDUS_clean_linker_0, # of connection points: 2
#     Edge 58, Type (0, 1), BuildingBlock: CIFDUS_clean_linker_0, # of connection points: 2
#     Edge 59, Type (0, 1), BuildingBlock: CIFDUS_clean_linker_0, # of connection points: 2
#     Edge 60, Type (0, 1), BuildingBlock: CIFDUS_clean_linker_0, # of connection points: 2
#     Edge 61, Type (0, 1), BuildingBlock: CIFDUS_clean_linker_0, # of connection points: 2
#     Edge 62, Type (0, 1), BuildingBlock: CIFDUS_clean_linker_0, # of connection points: 2
#     Edge 63, Type (0, 1), BuildingBlock: CIFDUS_clean_linker_0, # of connection points: 2
#     Edge 64, Type (0, 1), BuildingBlock: CIFDUS_clean_linker_0, # of connection points: 2
#     Edge 65, Type (0, 1), BuildingBlock: CIFDUS_clean_linker_0, # of connection points: 2
#     Edge 66, Type (0, 1), BuildingBlock: CIFDUS_clean_linker_0, # of connection points: 2
#     Edge 67, Type (0, 1), BuildingBlock: CIFDUS_clean_linker_0, # of connection points: 2
#     Edge 68, Type (0, 1), BuildingBlock: CIFDUS_clean_linker_0, # of connection points: 2
#     Edge 69, Type (0, 1), BuildingBlock: CIFDUS_clean_linker_0, # of connection points: 2
#     Edge 70, Type (0, 1), BuildingBlock: CIFDUS_clean_linker_0, # of connection points: 2
#     Edge 71, Type (0, 1), BuildingBlock: CIFDUS_clean_linker_0, # of connection points: 2
#     Edge 72, Type (0, 1), BuildingBlock: CIFDUS_clean_linker_0, # of connection points: 2
#     Edge 73, Type (0, 1), BuildingBlock: CIFDUS_clean_linker_0, # of connection points: 2
#     Edge 74, Type (0, 1), BuildingBlock: CIFDUS_clean_linker_0, # of connection points: 2
#     Edge 75, Type (0, 1), BuildingBlock: CIFDUS_clean_linker_0, # of connection points: 2
#     Edge 76, Type (0, 1), BuildingBlock: CIFDUS_clean_linker_0, # of connection points: 2
#     Edge 77, Type (0, 1), BuildingBlock: CIFDUS_clean_linker_0, # of connection points: 2
#     Edge 78, Type (0, 1), BuildingBlock: CIFDUS_clean_linker_0, # of connection points: 2
#     Edge 79, Type (0, 1), BuildingBlock: CIFDUS_clean_linker_0, # of connection points: 2
#     Edge 80, Type (0, 1), BuildingBlock: CIFDUS_clean_linker_0, # of connection points: 2
#     Edge 81, Type (0, 1), BuildingBlock: CIFDUS_clean_linker_0, # of connection points: 2
#     Edge 82, Type (0, 1), BuildingBlock: CIFDUS_clean_linker_0, # of connection points: 2
#     Edge 83, Type (0, 1), BuildingBlock: CIFDUS_clean_linker_0, # of connection points: 2
#     Edge 84, Type (0, 1), BuildingBlock: CIFDUS_clean_linker_0, # of connection points: 2
#     Edge 85, Type (0, 1), BuildingBlock: CIFDUS_clean_linker_0, # of connection points: 2
#     Edge 86, Type (0, 1), BuildingBlock: CIFDUS_clean_linker_0, # of connection points: 2
#     Edge 87, Type (0, 1), BuildingBlock: CIFDUS_clean_linker_0, # of connection points: 2
#     Edge 88, Type (0, 1), BuildingBlock: CIFDUS_clean_linker_0, # of connection points: 2
#     Edge 89, Type (0, 1), BuildingBlock: CIFDUS_clean_linker_0, # of connection points: 2
#     Edge 90, Type (0, 1), BuildingBlock: CIFDUS_clean_linker_0, # of connection points: 2
#     Edge 91, Type (0, 1), BuildingBlock: CIFDUS_clean_linker_0, # of connection points: 2
#     Edge 92, Type (0, 1), BuildingBlock: CIFDUS_clean_linker_0, # of connection points: 2
#     Edge 93, Type (0, 1), BuildingBlock: CIFDUS_clean_linker_0, # of connection points: 2
#     Edge 94, Type (0, 1), BuildingBlock: CIFDUS_clean_linker_0, # of connection points: 2
#     Edge 95, Type (0, 1), BuildingBlock: CIFDUS_clean_linker_0, # of connection points: 2
#     Edge 96, Type (0, 1), BuildingBlock: CIFDUS_clean_linker_0, # of connection points: 2
#     Edge 97, Type (0, 1), BuildingBlock: CIFDUS_clean_linker_0, # of connection points: 2
#     Edge 98, Type (0, 1), BuildingBlock: CIFDUS_clean_linker_0, # of connection points: 2
#     Edge 99, Type (0, 1), BuildingBlock: CIFDUS_clean_linker_0, # of connection points: 2
#     Edge 100, Type (0, 1), BuildingBlock: CIFDUS_clean_linker_0, # of connection points: 2
#     Edge 101, Type (0, 1), BuildingBlock: CIFDUS_clean_linker_0, # of connection points: 2
#     Edge 102, Type (0, 1), BuildingBlock: CIFDUS_clean_linker_0, # of connection points: 2
#     Edge 103, Type (0, 1), BuildingBlock: CIFDUS_clean_linker_0, # of connection points: 2
#     Edge 104, Type (0, 1), BuildingBlock: CIFDUS_clean_linker_0, # of connection points: 2
#     Edge 105, Type (0, 1), BuildingBlock: CIFDUS_clean_linker_0, # of connection points: 2
#     Edge 106, Type (0, 1), BuildingBlock: CIFDUS_clean_linker_0, # of connection points: 2
#     Edge 107, Type (0, 1), BuildingBlock: CIFDUS_clean_linker_0, # of connection points: 2
#     Edge 108, Type (0, 1), BuildingBlock: CIFDUS_clean_linker_0, # of connection points: 2
#     Edge 109, Type (0, 1), BuildingBlock: CIFDUS_clean_linker_0, # of connection points: 2
#     Edge 110, Type (0, 1), BuildingBlock: CIFDUS_clean_linker_0, # of connection points: 2
#     Edge 111, Type (0, 1), BuildingBlock: CIFDUS_clean_linker_0, # of connection points: 2
#     Edge 112, Type (0, 1), BuildingBlock: CIFDUS_clean_linker_0, # of connection points: 2
#     Edge 113, Type (0, 1), BuildingBlock: CIFDUS_clean_linker_0, # of connection points: 2
#     Edge 114, Type (0, 1), BuildingBlock: CIFDUS_clean_linker_0, # of connection points: 2
#     Edge 115, Type (0, 1), BuildingBlock: CIFDUS_clean_linker_0, # of connection points: 2
#     Edge 116, Type (0, 1), BuildingBlock: CIFDUS_clean_linker_0, # of connection points: 2
#     Edge 117, Type (0, 1), BuildingBlock: CIFDUS_clean_linker_0, # of connection points: 2
#     Edge 118, Type (0, 1), BuildingBlock: CIFDUS_clean_linker_0, # of connection points: 2
#     Edge 119, Type (0, 1), BuildingBlock: CIFDUS_clean_linker_0, # of connection points: 2
#     Edge 120, Type (0, 1), BuildingBlock: CIFDUS_clean_linker_0, # of connection points: 2
#     Edge 121, Type (0, 1), BuildingBlock: CIFDUS_clean_linker_0, # of connection points: 2
#     Edge 122, Type (0, 1), BuildingBlock: CIFDUS_clean_linker_0, # of connection points: 2
#     Edge 123, Type (0, 1), BuildingBlock: CIFDUS_clean_linker_0, # of connection points: 2
#     Edge 124, Type (0, 1), BuildingBlock: CIFDUS_clean_linker_0, # of connection points: 2
#     Edge 125, Type (0, 1), BuildingBlock: CIFDUS_clean_linker_0, # of connection points: 2
#     Edge 126, Type (0, 1), BuildingBlock: CIFDUS_clean_linker_0, # of connection points: 2
#     Edge 127, Type (0, 1), BuildingBlock: CIFDUS_clean_linker_0, # of connection points: 2
#     Edge 128, Type (0, 1), BuildingBlock: CIFDUS_clean_linker_0, # of connection points: 2
#     Edge 129, Type (0, 1), BuildingBlock: CIFDUS_clean_linker_0, # of connection points: 2
#     Edge 130, Type (0, 1), BuildingBlock: CIFDUS_clean_linker_0, # of connection points: 2
#     Edge 131, Type (0, 1), BuildingBlock: CIFDUS_clean_linker_0, # of connection points: 2
#     Edge 132, Type (0, 1), BuildingBlock: CIFDUS_clean_linker_0, # of connection points: 2
#     Edge 133, Type (0, 1), BuildingBlock: CIFDUS_clean_linker_0, # of connection points: 2
#     Edge 134, Type (0, 1), BuildingBlock: CIFDUS_clean_linker_0, # of connection points: 2
#     Edge 135, Type (0, 1), BuildingBlock: CIFDUS_clean_linker_0, # of connection points: 2
# Relax obj value: 0.238
# Max RMSD: 0.341
# Mean RMSD: 0.192
data_MOF--net-gar--node1-AZAVOO_clean_sbu_0--node2-BETDIP_clean_sbu_0--edge1-CIFDUS_clean_linker_0
_symmetry_space_group_name_H-M    P1
_symmetry_Int_Tables_number       1
_symmetry_cell_setting            triclinic
loop_
_symmetry_equiv_pos_as_xyz
'x, y, z'
_cell_length_a     57.575216
_cell_length_b     48.803185
_cell_length_c     47.878214
_cell_angle_alpha  100.57552
_cell_angle_beta   99.071436
_cell_angle_gamma 102.71806
loop_
_atom_site_label
_atom_site_type_symbol
_atom_site_fract_x
_atom_site_fract_y
_atom_site_fract_z
_atom_type_partial_charge
Mg0 Mg 0.02159 0.31277 0.41051 0.0
O1 O 0.02504 0.35666 0.44067 0.0
O2 O 0.99768 0.34973 0.46886 0.0
Mg3 Mg 0.97545 0.30287 0.45497 0.0
C4 C 1.01511 0.36588 0.46133 0.0
C5 C 0.05918 0.33005 0.37258 0.0
O6 O 0.03903 0.32657 0.3536 0.0
O7 O 0.03992 0.2987 0.44877 0.0
O8 O 1.01046 0.2921 0.47422 0.0
O9 O 0.99397 0.32013 0.37675 0.0
O10 O 0.9855 0.29908 0.41239 0.0
C11 C 0.03195 0.29191 0.47062 0.0
C12 C 0.97791 0.30801 0.38987 0.0
O13 O 0.05792 0.32835 0.3985 0.0
Mg14 Mg 0.05132 0.78125 0.76027 0.0
O15 O 0.04827 0.73779 0.73045 0.0
O16 O 1.01144 0.72467 0.70116 0.0
Mg17 Mg 0.98877 0.75449 0.71876 0.0
C18 C 0.03272 0.72124 0.70858 0.0
C19 C 0.10427 0.77266 0.77038 0.0
O20 O 0.09253 0.74616 0.76979 0.0
O21 O 0.05047 0.80031 0.72077 0.0
O22 O 1.01125 0.78762 0.69841 0.0
O23 O 0.04019 0.76237 0.79676 0.0
O24 O 1.01497 0.76958 0.76065 0.0
C25 C 0.03343 0.80109 0.70062 0.0
C26 C 1.01809 0.761 0.78449 0.0
O27 O 0.09244 0.79149 0.76802 0.0
Mg28 Mg 0.52006 0.82797 0.88135 0.0
O29 O 0.51872 0.8636 0.91965 0.0
O30 O 0.48287 0.84963 0.93223 0.0
Mg31 Mg 0.46162 0.80608 0.90263 0.0
C32 C 0.50354 0.86757 0.93588 0.0
C33 C 0.56597 0.84507 0.85922 0.0
O34 O 0.54825 0.83966 0.83642 0.0
O35 O 0.52726 0.80036 0.91345 0.0
O36 O 0.49057 0.78671 0.92417 0.0
O37 O 0.50066 0.84682 0.84781 0.0
O38 O 0.483 0.81461 0.86999 0.0
C39 C 0.51295 0.7864 0.92681 0.0
C40 C 0.48102 0.83013 0.85132 0.0
O41 O 0.56049 0.84525 0.88395 0.0
Mg42 Mg 0.55326 0.25705 0.27388 0.0
O43 O 0.54918 0.21878 0.23632 0.0
O44 O 0.51272 0.21139 0.20751 0.0
Mg45 Mg 0.49071 0.23776 0.23198 0.0
C46 C 0.53364 0.20638 0.21281 0.0
C47 C 0.60499 0.26404 0.26015 0.0
O48 O 0.5919 0.25549 0.23359 0.0
O49 O 0.55334 0.28649 0.24232 0.0
O50 O 0.514 0.27736 0.22141 0.0
O51 O 0.54025 0.22934 0.30426 0.0
O52 O 0.51695 0.24451 0.2726 0.0
C53 C 0.53613 0.29179 0.22558 0.0
C54 C 0.51868 0.23041 0.29258 0.0
O55 O 0.59444 0.26629 0.28157 0.0
Mg56 Mg 0.09094 0.83474 0.19765 0.0
O57 O 0.08002 0.79007 0.16453 0.0
O58 O 0.04124 0.78433 0.14354 0.0
Mg59 Mg 0.02732 0.82317 0.16059 0.0
C60 C 0.06034 0.77504 0.14684 0.0
C61 C 0.14234 0.85231 0.23174 0.0
O62 O 0.1299 0.86904 0.24378 0.0
O63 O 0.09435 0.86158 0.16202 0.0
O64 O 0.0547 0.85368 0.14305 0.0
O65 O 0.07561 0.81327 0.23108 0.0
O66 O 0.05431 0.83172 0.20077 0.0
C67 C 0.077 0.86587 0.14433 0.0
C68 C 0.05498 0.81808 0.22129 0.0
O69 O 0.13165 0.83415 0.20803 0.0
Mg70 Mg 0.50739 0.76751 0.4459 0.0
O71 O 0.51375 0.8099 0.48063 0.0
O72 O 0.481 0.80428 0.50068 0.0
Mg73 Mg 0.45441 0.75982 0.47924 0.0
C74 C 0.5014 0.81963 0.49833 0.0
C75 C 0.55735 0.7996 0.43309 0.0
O76 O 0.54418 0.81773 0.42825 0.0
O77 O 0.51461 0.74086 0.47979 0.0
O78 O 0.48016 0.73232 0.49619 0.0
O79 O 0.49004 0.78825 0.41387 0.0
O80 O 0.46893 0.76294 0.43934 0.0
C81 C 0.50126 0.72828 0.49503 0.0
C82 C 0.46944 0.77972 0.42128 0.0
O83 O 0.54792 0.77748 0.44196 0.0
Mg84 Mg 0.59027 0.33181 0.69509 0.0
O85 O 0.57806 0.28787 0.66119 0.0
O86 O 0.53925 0.28218 0.64068 0.0
Mg87 Mg 0.52641 0.32154 0.65941 0.0
C88 C 0.5584 0.27296 0.64354 0.0
C89 C 0.63473 0.30483 0.70707 0.0
O90 O 0.61619 0.28269 0.7046 0.0
O91 O 0.59331 0.35945 0.65988 0.0
O92 O 0.55358 0.35218 0.64167 0.0
O93 O 0.57503 0.31029 0.72866 0.0
O94 O 0.55393 0.32984 0.69933 0.0
C95 C 0.57587 0.36423 0.64272 0.0
C96 C 0.55462 0.31604 0.71973 0.0
O97 O 0.63044 0.32843 0.70262 0.0
Mg98 Mg 1.00715 0.26937 0.94898 0.0
O99 O 1.01239 0.31162 0.9831 0.0
O100 O 0.98163 0.30441 1.0063 0.0
Mg101 Mg 0.95743 0.25804 0.9879 0.0
C102 C 1.00072 0.32074 1.00191 0.0
C103 C 0.05165 0.28544 0.9181 0.0
O104 O 0.03351 0.28148 0.8961 0.0
O105 O 0.01933 0.24491 0.98329 0.0
O106 O 0.98713 0.23555 1.00384 0.0
O107 O 0.98331 0.28642 0.91759 0.0
O108 O 0.96909 0.25927 0.94621 0.0
C109 C 1.00825 0.23284 1.00077 0.0
C110 C 0.96487 0.27411 0.92723 0.0
O111 O 0.04688 0.2833 0.94283 0.0
Mg112 Mg 0.43945 0.08675 0.31248 0.0
O113 O 0.40909 0.04147 0.30705 0.0
O114 O 0.39441 0.04742 0.3476 0.0
Mg115 Mg 0.41297 0.09259 0.37789 0.0
C116 C 0.39511 0.03145 0.3235 0.0
C117 C 0.46898 0.07518 0.25741 0.0
O118 O 0.48605 0.07878 0.28047 0.0
O119 O 0.41144 0.1188 0.30683 0.0
O120 O 0.39824 0.12206 0.34839 0.0
O121 O 0.46758 0.0679 0.3364 0.0
O122 O 0.44718 0.092 0.36111 0.0
C123 C 0.399 0.12988 0.3243 0.0
C124 C 0.46331 0.07722 0.36161 0.0
O125 O 0.44756 0.07673 0.2619 0.0
Mg126 Mg 0.28203 0.17718 0.53984 0.0
O127 O 0.28309 0.20694 0.5841 0.0
O128 O 0.31925 0.23881 0.59647 0.0
Mg129 Mg 0.34086 0.23013 0.5606 0.0
C130 C 0.29859 0.22821 0.602 0.0
C131 C 0.22438 0.16387 0.54627 0.0
O132 O 0.2275 0.19134 0.5578 0.0
O133 O 0.27672 0.21067 0.51193 0.0
O134 O 0.31432 0.24006 0.52443 0.0
O135 O 0.29924 0.14917 0.56357 0.0
O136 O 0.32049 0.18419 0.54759 0.0
C137 C 0.29274 0.23225 0.50892 0.0
C138 C 0.3202 0.16356 0.56102 0.0
O139 O 0.24158 0.15529 0.53669 0.0
Mg140 Mg 0.15263 0.08587 0.86782 0.0
O141 O 0.18324 0.12793 0.87888 0.0
O142 O 0.20874 0.12678 0.91866 0.0
Mg143 Mg 0.19329 0.08639 0.93479 0.0
C144 C 0.20292 0.13882 0.89798 0.0
C145 C 0.13326 0.06865 0.80232 0.0
O146 O 0.13253 0.04387 0.80968 0.0
O147 O 0.17945 0.06176 0.85303 0.0
O148 O 0.202 0.05961 0.89475 0.0
O149 O 0.12935 0.10468 0.89565 0.0
O150 O 0.15644 0.0821 0.91061 0.0
C151 C 0.19627 0.05331 0.86699 0.0
C152 C 0.13979 0.0947 0.91614 0.0
O153 O 0.14098 0.09179 0.82204 0.0
Mg154 Mg 0.25172 0.87327 0.03015 0.0
O155 O 0.26011 0.87868 0.98481 0.0
O156 O 0.28942 0.85553 0.97863 0.0
Mg157 Mg 0.29468 0.82901 0.01199 0.0
C158 C 0.27589 0.87146 0.97069 0.0
C159 C 0.2193 0.90251 0.05506 0.0
O160 O 0.23112 0.89151 0.0741 0.0
O161 O 0.22646 0.82893 1.00848 0.0
O162 O 0.25387 0.80913 0.99511 0.0
O163 O 0.28284 0.9099 0.05206 0.0
O164 O 0.28679 0.86548 0.04074 0.0
C165 C 0.23987 0.81206 0.0128 0.0
C166 C 0.29699 0.89277 0.04987 0.0
O167 O 0.22156 0.89624 0.02879 0.0
Mg168 Mg 0.34788 0.44084 0.11996 0.0
O169 O 0.33603 0.40735 0.07577 0.0
O170 O 0.3655 0.38455 0.0736 0.0
Mg171 Mg 0.39562 0.40336 0.11509 0.0
C172 C 0.34528 0.3887 0.06226 0.0
C173 C 0.29962 0.45596 0.09423 0.0
O174 O 0.31142 0.45815 0.07304 0.0
O175 O 0.33917 0.4064 0.14725 0.0
O176 O 0.37128 0.3879 0.14691 0.0
O177 O 0.367 0.47288 0.09776 0.0
O178 O 0.38559 0.44497 0.1189 0.0
C179 C 0.35188 0.39 0.15611 0.0
C180 C 0.38653 0.46423 0.10355 0.0
O181 O 0.30925 0.44804 0.1162 0.0
Mg182 Mg 0.8454 0.22061 0.03744 0.0
O183 O 0.84515 0.22812 0.0855 0.0
O184 O 0.88296 0.23772 0.1113 0.0
Mg185 Mg 0.90777 0.23514 0.07816 0.0
C186 C 0.86014 0.23449 0.10972 0.0
C187 C 0.79598 0.23607 0.04591 0.0
O188 O 0.80965 0.25969 0.06413 0.0
O189 O 0.86044 0.26862 0.04415 0.0
O190 O 0.89965 0.2763 0.0657 0.0
O191 O 0.84152 0.17449 0.03513 0.0
O192 O 0.87711 0.20694 0.04393 0.0
C193 C 0.88172 0.2852 0.05482 0.0
C194 C 0.86503 0.18072 0.04159 0.0
O195 O 0.80571 0.22113 0.02895 0.0
Mg196 Mg 0.17464 0.53203 0.34023 0.0
O197 O 0.20252 0.57828 0.34405 0.0
O198 O 0.22712 0.58572 0.38682 0.0
Mg199 Mg 0.21623 0.54687 0.40869 0.0
C200 C 0.22046 0.59447 0.36397 0.0
C201 C 0.15949 0.53808 0.26695 0.0
O202 O 0.18218 0.54986 0.26636 0.0
O203 O 0.20206 0.4999 0.33192 0.0
O204 O 0.22529 0.50912 0.37615 0.0
O205 O 0.14991 0.55425 0.36474 0.0
O206 O 0.17588 0.53663 0.3888 0.0
C207 C 0.21888 0.49425 0.34985 0.0
C208 C 0.1586 0.54974 0.3895 0.0
O209 O 0.15472 0.53027 0.29023 0.0
Mg210 Mg 0.84715 0.9389 0.6222 0.0
O211 O 0.83676 0.9063 0.57744 0.0
O212 O 0.8673 0.88515 0.57541 0.0
Mg213 Mg 0.89583 0.90218 0.61775 0.0
C214 C 0.84694 0.88873 0.56387 0.0
C215 C 0.7997 0.95479 0.59542 0.0
O216 O 0.81274 0.95851 0.57559 0.0
O217 O 0.8381 0.90326 0.64728 0.0
O218 O 0.86879 0.88235 0.64454 0.0
O219 O 0.86683 0.97192 0.60199 0.0
O220 O 0.8849 0.94323 0.62272 0.0
C221 C 0.84932 0.88456 0.65345 0.0
C222 C 0.88622 0.96303 0.60802 0.0
O223 O 0.80824 0.94555 0.61704 0.0
Mg224 Mg 0.96258 0.02724 0.30393 0.0
O225 O 0.9374 0.98315 0.30633 0.0
O226 O 0.92576 0.99292 0.34895 0.0
Mg227 Mg 0.93998 0.04034 0.37155 0.0
C228 C 0.92588 0.97542 0.32565 0.0
C229 C 0.97197 0.03649 0.24685 0.0
O230 O 0.972 0.06116 0.26344 0.0
O231 O 0.92883 0.0429 0.29082 0.0
O232 O 0.91726 0.0513 0.33338 0.0
O233 O 0.99502 1.01864 0.33058 0.0
O234 O 0.96969 0.0412 0.34872 0.0
C235 C 0.91448 0.05126 0.30635 0.0
C236 C 0.98831 0.03102 0.35314 0.0
O237 O 0.96626 1.01373 0.25644 0.0
Mg238 Mg 0.35512 0.7058 0.54366 0.0
O239 O 0.34709 0.70191 0.58766 0.0
O240 O 0.38151 0.70984 0.62011 0.0
Mg241 Mg 0.41229 0.71488 0.59473 0.0
C242 C 0.35837 0.70487 0.61355 0.0
C243 C 0.30627 0.72404 0.54689 0.0
O244 O 0.32044 0.74652 0.56628 0.0
O245 O 0.36977 0.75326 0.56238 0.0
O246 O 0.40649 0.75954 0.59058 0.0
O247 O 0.35192 0.65952 0.53129 0.0
O248 O 0.38639 0.69242 0.55314 0.0
C249 C 0.38939 0.76935 0.57915 0.0
C250 C 0.37474 0.66563 0.54351 0.0
O251 O 0.31582 0.70754 0.53125 0.0
Mg252 Mg 0.46293 0.52998 0.80513 0.0
O253 O 0.43869 0.48702 0.81083 0.0
O254 O 0.43035 0.49799 0.85518 0.0
Mg255 Mg 0.44433 0.546 0.87507 0.0
C256 C 0.4292 0.47986 0.83178 0.0
C257 C 0.46552 0.53394 0.74405 0.0
O258 O 0.46428 0.55915 0.75824 0.0
O259 O 0.42889 0.54597 0.79389 0.0
O260 O 0.419 0.55462 0.83753 0.0
O261 O 0.49626 0.52173 0.83065 0.0
O262 O 0.47223 0.54618 0.84948 0.0
C263 C 0.41507 0.55402 0.81038 0.0
C264 C 0.49071 0.5357 0.85329 0.0
O265 O 0.46341 0.51326 0.7571 0.0
Mg266 Mg 0.67224 0.02979 0.8359 0.0
O267 O 0.69887 0.07695 0.83899 0.0
O268 O 0.72458 0.0861 0.88138 0.0
Mg269 Mg 0.7152 0.04882 0.90589 0.0
C270 C 0.71706 0.09389 0.85817 0.0
C271 C 0.65656 0.0394 0.76508 0.0
O272 O 0.67698 0.0595 0.76969 0.0
O273 O 0.7015 0.99897 0.82982 0.0
O274 O 0.72482 1.01145 0.8744 0.0
O275 O 0.64557 0.04876 0.86195 0.0
O276 O 0.67584 0.03624 0.884 0.0
C277 C 0.71875 0.99521 0.84873 0.0
C278 C 0.65696 0.04601 0.88628 0.0
O279 O 0.65249 0.02573 0.78524 0.0
Mg280 Mg 0.78001 0.68202 0.04698 0.0
O281 O 0.79101 0.7124 0.09294 0.0
O282 O 0.82869 0.73918 0.09738 0.0
Mg283 Mg 0.84225 0.7267 0.0555 0.0
C284 C 0.80977 0.73185 0.10782 0.0
C285 C 0.72524 0.64736 0.03724 0.0
O286 O 0.73231 0.6328 0.01568 0.0
O287 O 0.77482 0.7184 0.02291 0.0
O288 O 0.81375 0.74243 0.02795 0.0
O289 O 0.79772 0.64935 0.0638 0.0
O290 O 0.8167 0.68373 0.0454 0.0
C291 C 0.79108 0.73842 0.01782 0.0
C292 C 0.81753 0.66215 0.057 0.0
O293 O 0.7403 0.66988 0.05359 0.0
Mg294 Mg 0.93943 0.58642 0.81656 0.0
O295 O 0.90868 0.54121 0.81401 0.0
O296 O 0.89646 0.55205 0.85575 0.0
Mg297 Mg 0.91594 0.5974 0.88433 0.0
C298 C 0.8955 0.53385 0.83236 0.0
C299 C 0.96958 0.57562 0.76181 0.0
O300 O 0.98647 0.57965 0.78516 0.0
O301 O 0.91175 0.61911 0.81085 0.0
O302 O 0.9003 0.62502 0.8535 0.0
O303 O 0.96812 0.56829 0.84071 0.0
O304 O 0.94822 0.59331 0.86514 0.0
C305 C 0.90011 0.63135 0.82863 0.0
C306 C 0.96426 0.57846 0.86591 0.0
O307 O 0.94785 0.57624 0.76588 0.0
Mg308 Mg 0.75786 0.38738 0.5384 0.0
O309 O 0.74491 0.37451 0.48738 0.0
O310 O 0.7741 0.35714 0.50245 0.0
Mg311 Mg 0.80421 0.34232 0.52367 0.0
C312 C 0.75976 0.35989 0.48105 0.0
C313 C 0.72165 0.42439 0.53463 0.0
O314 O 0.73467 0.43204 0.51581 0.0
O315 O 0.74214 0.34171 0.54445 0.0
O316 O 0.77273 0.31979 0.54259 0.0
O317 O 0.785 0.42676 0.53639 0.0
O318 O 0.79387 0.38476 0.53495 0.0
C319 C 0.75154 0.32061 0.54741 0.0
C320 C 0.80091 0.41177 0.53485 0.0
O321 O 0.72473 0.40325 0.54544 0.0
Mg322 Mg 0.65169 0.57541 0.36847 0.0
O323 O 0.67623 0.62038 0.37064 0.0
O324 O 0.70288 0.63185 0.41283 0.0
Mg325 Mg 0.69258 0.59815 0.43962 0.0
C326 C 0.69504 0.6372 0.38844 0.0
C327 C 0.62915 0.58255 0.30601 0.0
O328 O 0.62478 0.60563 0.32091 0.0
O329 O 0.68329 0.55619 0.36305 0.0
O330 O 0.70575 0.56621 0.40806 0.0
O331 O 0.62369 0.59255 0.38934 0.0
O332 O 0.65557 0.58238 0.41293 0.0
C333 C 0.70118 0.55386 0.38109 0.0
C334 C 0.63581 0.59028 0.41366 0.0
O335 O 0.63984 0.56718 0.3194 0.0
Tb336 Tb 0.03643 0.03717 0.06605 0.0
Tb337 Tb 0.08315 0.07949 0.09832 0.0
C338 C 0.99211 1.01309 0.04795 0.0
C339 C 0.97147 0.02624 0.04341 0.0
C340 C 0.96295 0.0389 0.06728 0.0
C341 C 0.94771 0.05714 0.0639 0.0
C342 C 0.9407 0.063 0.03665 0.0
C343 C 0.94754 0.04852 0.01238 0.0
C344 C 0.96267 0.03011 0.0157 0.0
C345 C 0.07157 0.04459 0.03691 0.0
C346 C 0.04351 0.1055 0.06979 0.0
C347 C 0.12799 0.10169 0.11244 0.0
C348 C 0.14724 0.08612 0.11249 0.0
C349 C 0.16287 0.08949 0.09294 0.0
C350 C 0.17514 0.06846 0.08507 0.0
C351 C 0.17175 0.04352 0.09637 0.0
C352 C 0.15793 0.04174 0.11806 0.0
C353 C 0.14611 0.063 0.12629 0.0
C354 C 0.04832 0.07411 0.12774 0.0
C355 C 0.07518 1.01068 0.09483 0.0
O356 O 1.00329 1.01695 0.07498 0.0
O357 O 1.00744 1.01727 0.03068 0.0
O358 O 0.06602 0.06346 0.05418 0.0
O359 O 0.05608 1.01997 0.0339 0.0
O360 O 0.02837 0.07962 0.06613 0.0
O361 O 0.0671 0.11032 0.08008 0.0
O362 O 0.11517 0.09896 0.08649 0.0
O363 O 0.11421 0.0984 0.13159 0.0
O364 O 0.05306 0.05404 0.11072 0.0
O365 O 0.06467 0.09812 0.13048 0.0
O366 O 0.09034 0.03679 0.10022 0.0
O367 O 0.05194 1.0058 0.0831 0.0
H368 H 0.96919 0.03619 0.08892 0.0
H369 H 0.9427 0.0681 0.08297 0.0
H370 H 0.94198 0.05234 0.99105 0.0
H371 H 0.96868 1.02033 0.99687 0.0
H372 H 0.16411 0.1072 0.08205 0.0
H373 H 0.1863 0.07111 0.06906 0.0
H374 H 0.1547 1.02296 0.12731 0.0
H375 H 0.13439 0.05992 0.14165 0.0
Tb376 Tb 0.30823 0.80015 0.30322 0.0
Tb377 Tb 0.29744 0.82269 0.36168 0.0
C378 C 0.30508 0.77433 0.25167 0.0
C379 C 0.30511 0.78142 0.22334 0.0
C380 C 0.30392 0.80889 0.21945 0.0
C381 C 0.30105 0.8142 0.19159 0.0
C382 C 0.2993 0.79208 0.16732 0.0
C383 C 0.30157 0.76497 0.17161 0.0
C384 C 0.30443 0.7597 0.19944 0.0
C385 C 0.3443 0.80804 0.34824 0.0
C386 C 0.32374 0.86714 0.32637 0.0
C387 C 0.30423 0.84852 0.41376 0.0
C388 C 0.31473 0.85095 0.44441 0.0
C389 C 0.30425 0.83183 0.46021 0.0
C390 C 0.3141 0.83551 0.48959 0.0
C391 C 0.33456 0.85841 0.50369 0.0
C392 C 0.34453 0.87803 0.48806 0.0
C393 C 0.33459 0.87442 0.45871 0.0
C394 C 0.26274 0.82713 0.31974 0.0
C395 C 0.28078 0.75474 0.3378 0.0
O396 O 0.28636 0.77775 0.2629 0.0
O397 O 0.32556 0.78405 0.27078 0.0
O398 O 0.32189 0.79814 0.34739 0.0
O399 O 0.34681 0.81299 0.32308 0.0
O400 O 0.31702 0.84646 0.30217 0.0
O401 O 0.32067 0.86074 0.35159 0.0
O402 O 0.3197 0.85404 0.39692 0.0
O403 O 0.28482 0.82757 0.40065 0.0
O404 O 0.28113 0.81779 0.3176 0.0
O405 O 0.26306 0.83397 0.34714 0.0
O406 O 0.28434 0.77623 0.36095 0.0
O407 O 0.28818 0.75984 0.31372 0.0
H408 H 0.30445 0.82588 0.23781 0.0
H409 H 0.29963 0.83538 0.18894 0.0
H410 H 0.29999 0.74741 0.15334 0.0
H411 H 0.30523 0.73835 0.20218 0.0
H412 H 0.28867 0.81385 0.44987 0.0
H413 H 0.30636 0.81961 0.50092 0.0
H414 H 0.36033 0.89574 0.49837 0.0
H415 H 0.34259 0.88991 0.44709 0.0
Tb416 Tb 0.58 0.05598 0.55389 0.0
Tb417 Tb 0.52971 0.04736 0.57538 0.0
C418 C 0.62356 0.05778 0.55078 0.0
C419 C 0.64211 0.04129 0.55611 0.0
C420 C 0.65876 0.04804 0.58283 0.0
C421 C 0.67808 0.03483 0.58621 0.0
C422 C 0.68132 1.01485 0.56285 0.0
C423 C 0.6641 1.00735 0.53657 0.0
C424 C 0.64485 1.02042 0.53322 0.0
C425 C 0.54352 0.06126 0.51294 0.0
C426 C 0.54602 0.99243 0.54801 0.0
C427 C 0.48599 0.04498 0.57756 0.0
C428 C 0.46842 0.06227 0.57232 0.0
C429 C 0.47603 0.09091 0.56973 0.0
C430 C 0.45932 0.10778 0.56739 0.0
C431 C 0.43466 0.09628 0.56758 0.0
C432 C 0.42711 0.0673 0.56941 0.0
C433 C 0.44383 0.05054 0.57183 0.0
C434 C 0.56643 0.04299 0.61639 0.0
C435 C 0.56411 0.11064 0.58271 0.0
O436 O 0.61727 0.07198 0.5732 0.0
O437 O 0.60494 0.04538 0.5292 0.0
O438 O 0.54307 0.05629 0.53802 0.0
O439 O 0.56602 0.06378 0.51075 0.0
O440 O 0.56786 1.00912 0.54879 0.0
O441 O 0.52777 1.00283 0.55516 0.0
O442 O 0.49275 0.03208 0.55479 0.0
O443 O 0.50424 0.05689 0.59969 0.0
O444 O 0.5666 0.0478 0.59126 0.0
O445 O 0.54388 0.0397 0.6187 0.0
O446 O 0.54196 0.09408 0.58063 0.0
O447 O 0.5825 0.10021 0.57607 0.0
H448 H 0.65736 0.0642 0.60085 0.0
H449 H 0.6911 0.04124 0.60669 0.0
H450 H 0.66581 0.99175 0.51826 0.0
H451 H 0.63254 1.01476 0.51227 0.0
H452 H 0.49496 0.10036 0.5701 0.0
H453 H 0.46584 0.13001 0.56616 0.0
H454 H 0.40822 0.05749 0.56897 0.0
H455 H 0.4376 0.02847 0.57377 0.0
Tb456 Tb 0.28519 0.30459 0.82735 0.0
Tb457 Tb 0.33482 0.2915 0.83632 0.0
C458 C 0.24142 0.30578 0.82599 0.0
C459 C 0.22166 0.30728 0.84232 0.0
C460 C 0.21231 0.28544 0.85618 0.0
C461 C 0.19082 0.28505 0.86678 0.0
C462 C 0.17814 0.30621 0.86336 0.0
C463 C 0.18823 0.3287 0.85078 0.0
C464 C 0.20968 0.32921 0.84043 0.0
C465 C 0.32108 0.34412 0.81911 0.0
C466 C 0.31821 0.31686 0.89196 0.0
C467 C 0.3775 0.28737 0.83504 0.0
C468 C 0.39545 0.29053 0.81606 0.0
C469 C 0.40155 0.31531 0.80495 0.0
C470 C 0.41997 0.31861 0.78893 0.0
C471 C 0.43264 0.29718 0.78352 0.0
C472 C 0.42601 0.27213 0.79414 0.0
C473 C 0.4077 0.26892 0.81027 0.0
C474 C 0.29835 0.25239 0.84448 0.0
C475 C 0.30498 0.28397 0.7721 0.0
O476 O 0.24865 0.28199 0.82167 0.0
O477 O 0.25932 0.32891 0.83028 0.0
O478 O 0.3223 0.32957 0.83824 0.0
O479 O 0.29872 0.33842 0.80526 0.0
O480 O 0.29618 0.31291 0.87561 0.0
O481 O 0.337 0.31299 0.88049 0.0
O482 O 0.37227 0.31089 0.84743 0.0
O483 O 0.35826 0.26544 0.82583 0.0
O484 O 0.29772 0.26671 0.82517 0.0
O485 O 0.32053 0.2582 0.85885 0.0
O486 O 0.3264 0.28969 0.78982 0.0
O487 O 0.2848 0.28442 0.78212 0.0
H488 H 0.22101 0.26808 0.8578 0.0
H489 H 0.18346 0.26736 0.87625 0.0
H490 H 0.17909 0.34551 0.84811 0.0
H491 H 0.21632 0.34617 0.82969 0.0
H492 H 0.39243 0.33238 0.80905 0.0
H493 H 0.42468 0.33835 0.78145 0.0
H494 H 0.43497 0.25492 0.79 0.0
H495 H 0.40332 0.24962 0.81858 0.0
Tb496 Tb 0.05694 0.07971 0.58903 0.0
Tb497 Tb 0.06282 1.02214 0.56686 0.0
C498 C 0.06493 0.1318 0.6145 0.0
C499 C 0.06748 0.1601 0.60701 0.0
C500 C 0.08877 0.17408 0.59916 0.0
C501 C 0.09012 0.20002 0.59038 0.0
C502 C 0.07033 0.21252 0.58957 0.0
C503 C 0.04968 0.19933 0.59907 0.0
C504 C 0.04833 0.17347 0.60782 0.0
C505 C 1.01781 0.03786 0.58469 0.0
C506 C 0.04025 0.056 0.52269 0.0
C507 C 0.05542 0.96951 0.54435 0.0
C508 C 0.05338 0.94437 0.55728 0.0
C509 C 0.03776 0.91771 0.54205 0.0
C510 C 0.03359 0.89465 0.55574 0.0
C511 C 0.04501 0.8981 0.58484 0.0
C512 C 0.06109 0.92473 0.5997 0.0
C513 C 0.06524 0.94762 0.58605 0.0
C514 C 0.1013 0.06481 0.56982 0.0
C515 C 0.07981 0.04573 0.63288 0.0
O516 O 0.08209 0.11877 0.61037 0.0
O517 O 0.04324 0.11398 0.6064 0.0
O518 O 0.03956 0.03727 0.59346 0.0
O519 O 1.01764 0.06302 0.57975 0.0
O520 O 0.04769 0.08007 0.54323 0.0
O521 O 0.0428 0.03109 0.52812 0.0
O522 O 0.03796 0.98246 0.54654 0.0
O523 O 0.07691 0.98774 0.55088 0.0
O524 O 0.07934 0.06442 0.56211 0.0
O525 O 0.10241 0.03968 0.57421 0.0
O526 O 0.07188 1.02177 0.61247 0.0
O527 O 0.07747 0.07061 0.62735 0.0
H528 H 0.10417 0.16475 0.59917 0.0
H529 H 0.10637 0.2099 0.5835 0.0
H530 H 0.03397 0.20817 0.59834 0.0
H531 H 0.03194 0.16346 0.61437 0.0
H532 H 0.02831 0.91498 0.51988 0.0
H533 H 0.0212 0.87431 0.54376 0.0
H534 H 0.06977 0.92831 0.62231 0.0
H535 H 0.07717 0.96812 0.5983 0.0
Tb536 Tb 0.29591 0.77401 0.78213 0.0
Tb537 Tb 0.29256 0.82685 0.76113 0.0
C538 C 0.2928 0.72248 0.78488 0.0
C539 C 0.30798 0.70182 0.78182 0.0
C540 C 0.31631 0.69421 0.75611 0.0
C541 C 0.33016 0.674 0.75364 0.0
C542 C 0.33579 0.66092 0.77676 0.0
C543 C 0.32754 0.66877 0.80248 0.0
C544 C 0.31372 0.68891 0.80491 0.0
C545 C 0.30148 0.82002 0.82349 0.0
C546 C 0.34441 0.81601 0.78216 0.0
C547 C 0.29567 0.87789 0.75668 0.0
C548 C 0.28588 0.90012 0.7719 0.0
C549 C 0.27618 0.89579 0.79631 0.0
C550 C 0.26745 0.91711 0.81159 0.0
C551 C 0.2681 0.94302 0.80254 0.0
C552 C 0.27755 0.94714 0.77783 0.0
C553 C 0.28649 0.9258 0.76264 0.0
C554 C 0.29092 0.78098 0.72049 0.0
C555 C 0.24439 0.78734 0.76697 0.0
O556 O 0.28441 0.73029 0.76134 0.0
O557 O 0.30033 0.74409 0.80763 0.0
O558 O 0.28644 0.81302 0.79968 0.0
O559 O 0.31226 0.79965 0.82585 0.0
O560 O 0.3334 0.78847 0.77872 0.0
O561 O 0.33178 0.83531 0.77917 0.0
O562 O 0.31218 0.87013 0.77325 0.0
O563 O 0.27949 0.85574 0.7393 0.0
O564 O 0.30367 0.78925 0.74545 0.0
O565 O 0.27999 0.80072 0.71605 0.0
O566 O 0.25599 0.81441 0.76905 0.0
O567 O 0.25649 0.76742 0.76851 0.0
H568 H 0.31199 0.70361 0.73781 0.0
H569 H 0.33613 0.66831 0.73351 0.0
H570 H 0.33199 0.65957 0.82094 0.0
H571 H 0.30748 0.6944 0.82491 0.0
H572 H 0.27548 0.87592 0.80359 0.0
H573 H 0.25992 0.91319 0.83028 0.0
H574 H 0.27831 0.96699 0.77051 0.0
H575 H 0.29396 0.92938 0.74382 0.0
Tb576 Tb 0.53376 0.05206 0.04753 0.0
Tb577 Tb 0.58276 0.06162 0.08742 0.0
C578 C 0.49163 0.02673 0.019 0.0
C579 C 0.46827 1.01496 0.02635 0.0
C580 C 0.45233 0.99011 1.0078 0.0
C581 C 0.43099 0.97683 0.0155 0.0
C582 C 0.42529 0.98815 0.04201 0.0
C583 C 0.44129 1.01323 0.06052 0.0
C584 C 0.46266 0.0265 0.05277 0.0
C585 C 0.5545 0.1061 0.07458 0.0
C586 C 0.53602 0.05314 0.11713 0.0
C587 C 0.62498 0.08777 0.11525 0.0
C588 C 0.64789 0.09918 0.10664 0.0
C589 C 0.66457 0.12391 0.12447 0.0
C590 C 0.68413 0.13835 0.11427 0.0
C591 C 0.68707 0.12859 0.08579 0.0
C592 C 0.67074 0.10304 0.06845 0.0
C593 C 0.65151 0.08836 0.07892 0.0
C594 C 0.56034 1.00768 0.06271 0.0
C595 C 0.58063 0.06138 0.01831 0.0
O596 O 0.50836 1.01349 0.02592 0.0
O597 O 0.5001 0.05487 0.02548 0.0
O598 O 0.55509 0.0836 0.08359 0.0
O599 O 0.54083 0.09827 0.04856 0.0
O600 O 0.52239 0.04771 0.09024 0.0
O601 O 0.56029 0.05969 0.12099 0.0
O602 O 0.60801 0.10065 0.10802 0.0
O603 O 0.61664 0.05962 0.10971 0.0
O604 O 0.56084 0.02942 0.05203 0.0
O605 O 0.57561 1.01558 0.08766 0.0
O606 O 0.59397 0.06617 0.0451 0.0
O607 O 0.55637 0.05499 0.01405 0.0
H608 H 0.45656 0.98074 0.98748 0.0
H609 H 0.41884 0.95783 1.00058 0.0
H610 H 0.43748 1.02232 0.08118 0.0
H611 H 0.47493 0.04549 0.06757 0.0
H612 H 0.66199 0.13264 0.14592 0.0
H613 H 0.69667 0.15744 0.12856 0.0
H614 H 0.67217 0.09488 0.04635 0.0
H615 H 0.63892 0.06917 0.06494 0.0
Tb616 Tb 0.28325 0.29194 0.32047 0.0
Tb617 Tb 0.33442 0.3323 0.34166 0.0
C618 C 0.24261 0.26385 0.32499 0.0
C619 C 0.21819 0.2684 0.32272 0.0
C620 C 0.20137 0.25105 0.33445 0.0
C621 C 0.18081 0.25961 0.34052 0.0
C622 C 0.17684 0.28568 0.33497 0.0
C623 C 0.19267 0.30185 0.32096 0.0
C624 C 0.21336 0.29331 0.31499 0.0
C625 C 0.29807 0.31355 0.27685 0.0
C626 C 0.28969 0.36195 0.33609 0.0
C627 C 0.37876 0.35394 0.34655 0.0
C628 C 0.3985 0.33898 0.34872 0.0
C629 C 0.40663 0.32869 0.32366 0.0
C630 C 0.42179 0.31003 0.32421 0.0
C631 C 0.42933 0.30137 0.34986 0.0
C632 C 0.42231 0.31283 0.37533 0.0
C633 C 0.40701 0.33143 0.37477 0.0
C634 C 0.31224 0.31673 0.38278 0.0
C635 C 0.32851 0.26215 0.32389 0.0
O636 O 0.25855 0.28217 0.34668 0.0
O637 O 0.25107 0.25948 0.30105 0.0
O638 O 0.30901 0.31723 0.30267 0.0
O639 O 0.27702 0.29589 0.27452 0.0
O640 O 0.2751 0.33537 0.33189 0.0
O641 O 0.31373 0.36562 0.3381 0.0
O642 O 0.36325 0.34635 0.32154 0.0
O643 O 0.36782 0.35607 0.36855 0.0
O644 O 0.31157 0.30114 0.35826 0.0
O645 O 0.32655 0.34196 0.38496 0.0
O646 O 0.34315 0.28892 0.33262 0.0
O647 O 0.3043 0.25827 0.31835 0.0
H648 H 0.20499 0.23196 0.34081 0.0
H649 H 0.16866 0.24662 0.35099 0.0
H650 H 0.18998 0.32204 0.31654 0.0
H651 H 0.22639 0.30713 0.30624 0.0
H652 H 0.40056 0.33423 0.30333 0.0
H653 H 0.42753 0.30221 0.30442 0.0
H654 H 0.42805 0.30674 0.39545 0.0
H655 H 0.40116 0.339 0.39454 0.0
Tb656 Tb 0.55862 0.57689 0.0782 0.0
Tb657 Tb 0.56452 0.51773 0.07294 0.0
C658 C 0.56391 0.63027 0.08545 0.0
C659 C 0.55544 0.6493 0.0681 0.0
C660 C 0.55307 0.64298 0.03781 0.0
C661 C 0.54572 0.66172 0.02165 0.0
C662 C 0.54035 0.68684 0.03549 0.0
C663 C 0.54226 0.69282 0.06572 0.0
C664 C 0.54988 0.6742 0.08194 0.0
C665 C 0.51813 0.53708 0.07625 0.0
C666 C 0.54347 0.53647 0.01713 0.0
C667 C 0.56165 0.46602 0.07366 0.0
C668 C 0.55609 0.4465 0.09291 0.0
C669 C 0.56564 0.4548 0.12293 0.0
C670 C 0.55991 0.43547 0.14052 0.0
C671 C 0.54435 0.40786 0.12832 0.0
C672 C 0.53464 0.39985 0.09835 0.0
C673 C 0.54054 0.41902 0.08079 0.0
C674 C 0.59845 0.55252 0.05533 0.0
C675 C 0.57899 0.55942 0.13552 0.0
O676 O 0.57923 0.61682 0.07537 0.0
O677 O 0.54721 0.6135 0.0947 0.0
O678 O 0.53932 0.53878 0.08938 0.0
O679 O 0.51894 0.55892 0.06419 0.0
O680 O 0.55304 0.56339 0.03157 0.0
O681 O 0.54213 0.51491 0.0305 0.0
O682 O 0.54331 0.4752 0.06251 0.0
O683 O 0.58215 0.48626 0.08207 0.0
O684 O 0.58934 0.559 0.07716 0.0
O685 O 0.58949 0.52541 0.04374 0.0
O686 O 0.57652 0.533 0.12027 0.0
O687 O 0.57355 0.57983 0.12321 0.0
H688 H 0.55704 0.62368 0.02666 0.0
H689 H 0.54404 0.65648 0.99831 0.0
H690 H 0.53826 0.71213 0.07683 0.0
H691 H 0.55157 0.67931 0.10529 0.0
H692 H 0.57749 0.47608 0.13276 0.0
H693 H 0.56747 0.44213 0.16364 0.0
H694 H 0.52283 0.37856 0.08842 0.0
H695 H 0.53299 0.41235 0.05766 0.0
Tb696 Tb 0.7904 0.25738 0.28144 0.0
Tb697 Tb 0.79883 0.32172 0.29128 0.0
C698 C 0.78088 0.20432 0.25994 0.0
C699 C 0.79235 0.1815 0.26614 0.0
C700 C 0.79139 0.15808 0.24372 0.0
C701 C 0.80335 0.13701 0.24925 0.0
C702 C 0.81625 0.13906 0.27735 0.0
C703 C 0.81703 0.16253 0.29976 0.0
C704 C 0.80531 0.18365 0.29417 0.0
C705 C 0.7897 0.28343 0.33412 0.0
C706 C 0.8431 0.29387 0.30902 0.0
C707 C 0.81078 0.37454 0.31454 0.0
C708 C 0.79922 0.39592 0.32781 0.0
C709 C 0.77388 0.39136 0.32149 0.0
C710 C 0.76328 0.41269 0.33318 0.0
C711 C 0.7779 0.43867 0.35155 0.0
C712 C 0.80319 0.44264 0.35874 0.0
C713 C 0.81379 0.42138 0.34682 0.0
C714 C 0.80137 0.29493 0.23935 0.0
C715 C 0.7466 0.28564 0.26636 0.0
O716 O 0.79383 0.2239 0.24927 0.0
O717 O 0.7707 0.21556 0.28028 0.0
O718 O 0.78112 0.28968 0.31099 0.0
O719 O 0.79732 0.26033 0.32812 0.0
O720 O 0.82928 0.26738 0.29817 0.0
O721 O 0.83484 0.31704 0.30855 0.0
O722 O 0.8134 0.3546 0.32881 0.0
O723 O 0.8031 0.36415 0.28651 0.0
O724 O 0.80897 0.28968 0.26319 0.0
O725 O 0.7933 0.31781 0.24396 0.0
O726 O 0.75967 0.31005 0.28411 0.0
O727 O 0.75645 0.26406 0.25854 0.0
H728 H 0.78162 0.15628 0.2219 0.0
H729 H 0.8025 0.11912 0.23163 0.0
H730 H 0.82724 0.16493 0.32149 0.0
H731 H 0.80662 0.20185 0.31168 0.0
H732 H 0.76237 0.37157 0.30716 0.0
H733 H 0.74369 0.40905 0.32767 0.0
H734 H 0.81479 0.46254 0.37277 0.0
H735 H 0.8334 0.42502 0.35204 0.0
Tb736 Tb 0.04505 0.55882 0.55648 0.0
Tb737 Tb 0.09112 0.56981 0.60094 0.0
C738 C 1.00492 0.53319 0.52321 0.0
C739 C 0.97913 0.52603 0.5241 0.0
C740 C 0.96289 0.50586 0.50075 0.0
C741 C 0.93863 0.49597 0.50228 0.0
C742 C 0.93032 0.50614 0.52726 0.0
C743 C 0.94646 0.52729 0.55023 0.0
C744 C 0.97083 0.53711 0.54871 0.0
C745 C 0.0636 0.61356 0.58325 0.0
C746 C 0.04224 0.56018 0.62561 0.0
C747 C 0.13272 0.59601 0.62971 0.0
C748 C 0.15387 0.61102 0.61952 0.0
C749 C 0.15144 0.63125 0.60244 0.0
C750 C 0.17074 0.64359 0.59065 0.0
C751 C 0.19282 0.63582 0.59543 0.0
C752 C 0.19541 0.6159 0.61282 0.0
C753 C 0.1761 0.60366 0.62482 0.0
C754 C 0.07023 0.51588 0.57605 0.0
C755 C 0.09457 0.56855 0.53292 0.0
O756 O 0.01816 0.52044 0.53868 0.0
O757 O 1.01548 0.56047 0.52569 0.0
O758 O 0.06358 0.59154 0.59329 0.0
O759 O 0.0518 0.60478 0.55638 0.0
O760 O 0.03031 0.55541 0.59783 0.0
O761 O 0.06653 0.56664 0.63178 0.0
O762 O 0.11423 0.60763 0.62811 0.0
O763 O 0.12591 0.56785 0.62062 0.0
O764 O 0.07225 0.53713 0.56453 0.0
O765 O 0.0818 0.52409 0.6031 0.0
O766 O 0.1055 0.57643 0.56098 0.0
O767 O 0.0704 0.55913 0.52568 0.0
H768 H 0.96913 0.49711 0.48166 0.0
H769 H 0.92645 0.47992 0.48417 0.0
H770 H 0.94049 0.53528 0.56979 0.0
H771 H 0.9833 0.55263 0.56698 0.0
H772 H 0.13442 0.63713 0.59754 0.0
H773 H 0.16813 0.6586 0.57708 0.0
H774 H 0.21236 0.60973 0.61706 0.0
H775 H 0.17836 0.58802 0.63775 0.0
Tb776 Tb 0.78449 0.80135 0.33173 0.0
Tb777 Tb 0.83476 0.78984 0.33713 0.0
C778 C 0.74114 0.80155 0.33485 0.0
C779 C 0.72318 0.7986 0.35409 0.0
C780 C 0.7072 0.77163 0.35209 0.0
C781 C 0.68775 0.76938 0.36657 0.0
C782 C 0.68363 0.79406 0.38339 0.0
C783 C 0.70019 0.82088 0.38625 0.0
C784 C 0.71962 0.82314 0.3717 0.0
C785 C 0.8182 0.84059 0.31874 0.0
C786 C 0.82064 0.81686 0.39395 0.0
C787 C 0.87755 0.78665 0.33492 0.0
C788 C 0.89605 0.79016 0.31689 0.0
C789 C 0.92059 0.79647 0.33054 0.0
C790 C 0.93883 0.79956 0.31441 0.0
C791 C 0.93294 0.79635 0.28414 0.0
C792 C 0.90822 0.79023 0.27047 0.0
C793 C 0.88991 0.78714 0.28672 0.0
C794 C 0.80135 0.75183 0.35196 0.0
C795 C 0.80058 0.77752 0.27472 0.0
O796 O 0.74789 0.77849 0.32437 0.0
O797 O 0.75916 0.8249 0.3416 0.0
O798 O 0.82112 0.82704 0.33844 0.0
O799 O 0.79521 0.83422 0.30709 0.0
O800 O 0.79776 0.81034 0.37934 0.0
O801 O 0.83883 0.81421 0.38082 0.0
O802 O 0.87211 0.81014 0.34686 0.0
O803 O 0.85837 0.76467 0.32525 0.0
O804 O 0.79812 0.76427 0.33139 0.0
O805 O 0.82434 0.75867 0.36331 0.0
O806 O 0.82303 0.78471 0.29033 0.0
O807 O 0.78158 0.77875 0.28691 0.0
H808 H 0.70912 0.7523 0.3384 0.0
H809 H 0.67532 0.74838 0.36348 0.0
H810 H 0.69793 0.84031 0.39936 0.0
H811 H 0.73138 0.8443 0.37355 0.0
H812 H 0.9257 0.79904 0.35383 0.0
H813 H 0.95761 0.80488 0.3258 0.0
H814 H 0.903 0.78749 0.24719 0.0
H815 H 0.87104 0.78227 0.27577 0.0
Tb816 Tb 0.80784 0.29438 0.79801 0.0
Tb817 Tb 0.79695 0.32085 0.84889 0.0
C818 C 0.81283 0.27858 0.74677 0.0
C819 C 0.79685 0.26117 0.71952 0.0
C820 C 0.77144 0.25488 0.71624 0.0
C821 C 0.75653 0.24436 0.68854 0.0
C822 C 0.7669 0.24024 0.66385 0.0
C823 C 0.79226 0.24373 0.66784 0.0
C824 C 0.80708 0.25419 0.69545 0.0
C825 C 0.83986 0.29446 0.84485 0.0
C826 C 0.8299 0.36352 0.82159 0.0
C827 C 0.78976 0.3362 0.89934 0.0
C828 C 0.80229 0.35723 0.92632 0.0
C829 C 0.79255 0.35571 0.95106 0.0
C830 C 0.80702 0.36879 0.97847 0.0
C831 C 0.83166 0.38346 0.98155 0.0
C832 C 0.83998 0.38872 0.95637 0.0
C833 C 0.82549 0.37523 0.92884 0.0
C834 C 0.76634 0.32257 0.80202 0.0
C835 C 0.77495 0.25202 0.82513 0.0
O836 O 0.81782 0.26503 0.76712 0.0
O837 O 0.80768 0.30279 0.75679 0.0
O838 O 0.83114 0.31513 0.84026 0.0
O839 O 0.83109 0.27331 0.82252 0.0
O840 O 0.82391 0.34097 0.7991 0.0
O841 O 0.82402 0.35957 0.84646 0.0
O842 O 0.78161 0.34623 0.87742 0.0
O843 O 0.80047 0.31588 0.89167 0.0
O844 O 0.77385 0.30094 0.8063 0.0
O845 O 0.77543 0.3434 0.82453 0.0
O846 O 0.78259 0.27386 0.84829 0.0
O847 O 0.77922 0.25709 0.80002 0.0
H848 H 0.76327 0.25996 0.73479 0.0
H849 H 0.73707 0.24153 0.68629 0.0
H850 H 0.80105 0.24113 0.64948 0.0
H851 H 0.82667 0.25885 0.69771 0.0
H852 H 0.77451 0.34211 0.94937 0.0
H853 H 0.79955 0.36418 0.99696 0.0
H854 H 0.85848 0.40077 0.9578 0.0
H855 H 0.83311 0.37696 0.90975 0.0
Tb856 Tb 0.7806 0.78671 0.81362 0.0
Tb857 Tb 0.82494 0.8279 0.84684 0.0
C858 C 0.73675 0.75892 0.79913 0.0
C859 C 0.71421 0.76866 0.79791 0.0
C860 C 0.69782 0.75886 0.81489 0.0
C861 C 0.6787 0.77151 0.81856 0.0
C862 C 0.67545 0.79404 0.80508 0.0
C863 C 0.69101 0.80278 0.78674 0.0
C864 C 0.7104 0.79038 0.78337 0.0
C865 C 0.80778 0.81221 0.78131 0.0
C866 C 0.77961 0.85457 0.83585 0.0
C867 C 0.86885 0.85506 0.86366 0.0
C868 C 0.89039 0.84393 0.86985 0.0
C869 C 0.91271 0.8585 0.86506 0.0
C870 C 0.93182 0.84513 0.86487 0.0
C871 C 0.9286 0.81683 0.86889 0.0
C872 C 0.90672 0.80283 0.87517 0.0
C873 C 0.88787 0.81652 0.87617 0.0
C874 C 0.7974 0.8034 0.87936 0.0
C875 C 0.82545 0.75959 0.82441 0.0
O876 O 0.74981 0.76388 0.82534 0.0
O877 O 0.75013 0.76513 0.78029 0.0
O878 O 0.80359 0.8236 0.8052 0.0
O879 O 0.79593 0.78517 0.77426 0.0
O880 O 0.76748 0.8267 0.82675 0.0
O881 O 0.80386 0.86104 0.843 0.0
O882 O 0.85763 0.84754 0.83635 0.0
O883 O 0.85369 0.852 0.88122 0.0
O884 O 0.80168 0.79142 0.85571 0.0
O885 O 0.80968 0.8302 0.88604 0.0
O886 O 0.83801 0.78727 0.83411 0.0
O887 O 0.80134 0.75373 0.8169 0.0
H888 H 0.70045 0.74223 0.82636 0.0
H889 H 0.66665 0.76399 0.83236 0.0
H890 H 0.68889 0.82014 0.77613 0.0
H891 H 0.72294 0.79864 0.77043 0.0
H892 H 0.91493 0.87954 0.85997 0.0
H893 H 0.94854 0.85612 0.85968 0.0
H894 H 0.90391 0.78096 0.8782 0.0
H895 H 0.8709 0.80503 0.88037 0.0
Tb896 Tb 0.52918 0.52934 0.55824 0.0
Tb897 Tb 0.57249 0.57492 0.59433 0.0
C898 C 0.48706 0.4976 0.53769 0.0
C899 C 0.46308 0.50253 0.53963 0.0
C900 C 0.45822 0.51363 0.56673 0.0
C901 C 0.43837 0.52527 0.5681 0.0
C902 C 0.42327 0.52615 0.54247 0.0
C903 C 0.42642 0.51211 0.51555 0.0
C904 C 0.44632 0.50032 0.51414 0.0
C905 C 0.56711 0.54008 0.53355 0.0
C906 C 0.53167 0.59646 0.56109 0.0
C907 C 0.61598 0.60248 0.61336 0.0
C908 C 0.63738 0.59049 0.61434 0.0
C909 C 0.65479 0.59945 0.59822 0.0
C910 C 0.66951 0.58164 0.5894 0.0
C911 C 0.66663 0.55424 0.59597 0.0
C912 C 0.6511 0.54699 0.61492 0.0
C913 C 0.63702 0.56521 0.62445 0.0
C914 C 0.53463 0.56678 0.61887 0.0
C915 C 0.56945 0.50728 0.5913 0.0
O916 O 0.50043 0.49671 0.56212 0.0
O917 O 0.49952 0.51322 0.52287 0.0
O918 O 0.5593 0.55775 0.5494 0.0
O919 O 0.552 0.51493 0.52862 0.0
O920 O 0.51756 0.56989 0.55738 0.0
O921 O 0.55511 0.60299 0.57304 0.0
O922 O 0.60432 0.6002 0.58692 0.0
O923 O 0.6011 0.59502 0.63037 0.0
O924 O 0.54168 0.54742 0.60372 0.0
O925 O 0.55019 0.59156 0.62259 0.0
O926 O 0.58294 0.53433 0.59816 0.0
O927 O 0.5468 0.5003 0.57689 0.0
H928 H 0.47073 0.51548 0.58682 0.0
H929 H 0.43616 0.53604 0.58905 0.0
H930 H 0.41502 0.51282 0.49554 0.0
H931 H 0.44971 0.49168 0.49309 0.0
H932 H 0.65557 0.61902 0.59037 0.0
H933 H 0.68205 0.58868 0.57596 0.0
H934 H 0.64817 0.52627 0.62071 0.0
H935 H 0.62417 0.55808 0.63746 0.0
Tb936 Tb 0.0796 0.55677 0.05845 0.0
Tb937 Tb 0.02957 0.54843 0.08042 0.0
C938 C 0.1231 0.5588 0.05498 0.0
C939 C 0.14157 0.54218 0.06007 0.0
C940 C 0.15987 0.55078 0.0855 0.0
C941 C 0.17908 0.53737 0.08837 0.0
C942 C 0.18055 0.51532 0.06571 0.0
C943 C 0.16172 0.50601 0.04086 0.0
C944 C 0.14255 0.51925 0.03804 0.0
C945 C 0.04315 0.56224 0.01768 0.0
C946 C 0.04574 0.49343 0.05249 0.0
C947 C 0.98567 0.54393 0.08314 0.0
C948 C 0.96536 0.55751 0.0775 0.0
C949 C 0.94166 0.53973 0.06741 0.0
C950 C 0.92161 0.55159 0.06551 0.0
C951 C 0.92476 0.5816 0.07379 0.0
C952 C 0.94866 0.5995 0.08283 0.0
C953 C 0.96877 0.58758 0.08468 0.0
C954 C 0.06653 0.54379 0.1211 0.0
C955 C 0.06373 0.61148 0.08736 0.0
O956 O 0.11693 0.57294 0.07754 0.0
O957 O 0.1044 0.54653 0.03347 0.0
O958 O 0.0426 0.55731 0.04277 0.0
O959 O 0.06561 0.56463 0.01547 0.0
O960 O 0.0676 0.50998 0.05323 0.0
O961 O 0.02765 0.50397 0.05988 0.0
O962 O 0.99255 0.53067 0.06067 0.0
O963 O 1.00404 0.55828 0.10446 0.0
O964 O 0.06641 0.54821 0.09581 0.0
O965 O 0.04419 0.54142 0.12393 0.0
O966 O 0.04146 0.59508 0.08499 0.0
O967 O 0.08209 0.60086 0.08095 0.0
H968 H 0.15981 0.56851 0.10278 0.0
H969 H 0.19337 0.54517 0.10773 0.0
H970 H 0.16208 0.48881 0.02318 0.0
H971 H 0.1289 0.51204 0.01807 0.0
H972 H 0.93859 0.5165 0.06177 0.0
H973 H 0.90357 0.53716 0.05784 0.0
H974 H 0.95183 0.62268 0.08949 0.0
H975 H 0.98689 0.60181 0.09257 0.0
H976 H 0.98577 0.19183 0.0268 0.0
H977 H 0.05551 0.22875 1.00855 0.0
H978 H 0.07281 0.19392 0.02977 0.0
H979 H 0.06775 0.15128 0.05136 0.0
H980 H 0.99739 0.11254 0.06675 0.0
H981 H 0.98109 0.15019 0.04969 0.0
C982 C 1.00485 0.19256 0.02777 0.0
C983 C 0.01927 0.21313 0.01606 0.0
C984 C 1.01461 0.17197 0.03947 0.0
C985 C 0.04389 0.2133 0.01729 0.0
C986 C 0.05383 0.1933 0.02942 0.0
C987 C 0.04887 0.15115 0.05114 0.0
C988 C 0.03388 0.1291 0.06049 0.0
C989 C 0.0393 0.17227 0.04023 0.0
C990 C 1.00935 0.12912 0.05964 0.0
C991 C 0.99996 0.15058 0.04972 0.0
H992 H 0.17243 0.81607 0.21944 0.0
H993 H 0.16808 0.89074 0.28084 0.0
H994 H 0.20541 0.89024 0.3119 0.0
H995 H 0.23751 0.8668 0.32426 0.0
H996 H 0.24434 0.79333 0.264 0.0
H997 H 0.20825 0.79532 0.22988 0.0
C998 C 0.17986 0.83244 0.2394 0.0
C999 C 0.16704 0.85316 0.24782 0.0
C1000 C 0.20179 0.83218 0.25755 0.0
C1001 C 0.17716 0.87428 0.27377 0.0
C1002 C 0.19862 0.87407 0.2917 0.0
C1003 C 0.23129 0.85141 0.30347 0.0
C1004 C 0.24345 0.82988 0.29671 0.0
C1005 C 0.21075 0.85281 0.28419 0.0
C1006 C 0.23536 0.81025 0.26962 0.0
C1007 C 0.21461 0.81129 0.25024 0.0
H1008 H 0.54089 0.86159 0.49512 0.0
H1009 H 0.47842 0.84847 0.53526 0.0
H1010 H 0.48672 0.90026 0.55422 0.0
H1011 H 0.51017 0.94981 0.55716 0.0
H1012 H 0.57313 0.96308 0.51803 0.0
H1013 H 0.56611 0.91104 0.50109 0.0
C1014 C 0.52927 0.86995 0.50838 0.0
C1015 C 0.50896 0.85084 0.51351 0.0
C1016 C 0.53404 0.90001 0.5192 0.0
C1017 C 0.49418 0.86238 0.53079 0.0
C1018 C 0.49882 0.89215 0.54159 0.0
C1019 C 0.52239 0.94136 0.54496 0.0
C1020 C 0.54202 0.96054 0.5387 0.0
C1021 C 0.51841 0.91124 0.53547 0.0
C1022 C 0.55783 0.94899 0.52318 0.0
C1023 C 0.55383 0.91914 0.51343 0.0
H1024 H 0.51051 0.32771 0.70661 0.0
H1025 H 0.55036 0.28656 0.76289 0.0
H1026 H 0.51609 0.27659 0.78711 0.0
H1027 H 0.4756 0.28161 0.79384 0.0
H1028 H 0.4355 0.32178 0.73662 0.0
H1029 H 0.46922 0.33031 0.71152 0.0
C1030 C 0.51165 0.31622 0.72391 0.0
C1031 C 0.53305 0.30785 0.73281 0.0
C1032 C 0.4919 0.31066 0.73784 0.0
C1033 C 0.53415 0.29322 0.75551 0.0
C1034 C 0.51456 0.28758 0.76944 0.0
C1035 C 0.474 0.29183 0.7756 0.0
C1036 C 0.45293 0.30117 0.76737 0.0
C1037 C 0.49343 0.29646 0.761 0.0
C1038 C 0.45156 0.31482 0.7439 0.0
C1039 C 0.47081 0.31954 0.72935 0.0
H1040 H 1.00251 0.80965 0.65571 0.0
H1041 H 0.07862 0.83019 0.69664 0.0
H1042 H 0.08904 0.85944 0.66217 0.0
H1043 H 0.07646 0.88143 0.62239 0.0
H1044 H 1.00033 0.8632 0.583 0.0
H1045 H 0.99011 0.82997 0.61428 0.0
C1046 C 0.02139 0.82042 0.65706 0.0
C1047 C 0.03969 0.81797 0.67898 0.0
C1048 C 0.0273 0.83742 0.6373 0.0
C1049 C 0.06409 0.83191 0.68021 0.0
C1050 C 0.07012 0.8486 0.66045 0.0
C1051 C 0.05763 0.87012 0.62062 0.0
C1052 C 0.03917 0.87495 0.60064 0.0
C1053 C 0.05184 0.85184 0.63923 0.0
C1054 C 1.01491 0.85968 0.59807 0.0
C1055 C 1.00903 0.84093 0.61616 0.0
H1056 H 0.45527 0.86939 0.84069 0.0
H1057 H 0.45398 0.77923 0.81966 0.0
H1058 H 0.41217 0.76734 0.79268 0.0
H1059 H 0.37493 0.78153 0.77998 0.0
H1060 H 0.37392 0.87089 0.80339 0.0
H1061 H 0.41768 0.88431 0.82409 0.0
C1062 C 0.44584 0.84734 0.82966 0.0
C1063 C 0.45737 0.82513 0.83206 0.0
C1064 C 0.4214 0.8405 0.8149 0.0
C1065 C 0.44517 0.79653 0.81807 0.0
C1066 C 0.42133 0.78972 0.80271 0.0
C1067 C 0.38427 0.80402 0.78934 0.0
C1068 C 0.37119 0.82511 0.79055 0.0
C1069 C 0.40907 0.81138 0.80178 0.0
C1070 C 0.38364 0.8542 0.80232 0.0
C1071 C 0.40862 0.86187 0.81429 0.0
H1072 H 0.52048 0.1995 0.15449 0.0
H1073 H 0.56449 0.17217 0.22023 0.0
H1074 H 0.57792 0.14195 0.18266 0.0
H1075 H 0.57508 0.1212 0.13148 0.0
H1076 H 0.5312 0.14804 0.06527 0.0
H1077 H 0.52059 0.18167 0.10278 0.0
C1078 C 0.53291 0.18678 0.16052 0.0
C1079 C 0.54112 0.18753 0.19001 0.0
C1080 C 0.54096 0.16997 0.13883 0.0
C1081 C 0.55773 0.17163 0.19764 0.0
C1082 C 0.56551 0.15452 0.17621 0.0
C1083 C 0.56373 0.13495 0.12517 0.0
C1084 C 0.55387 0.13203 0.09563 0.0
C1085 C 0.55711 0.1534 0.14678 0.0
C1086 C 0.53912 0.14996 0.08784 0.0
C1087 C 0.53277 0.16887 0.1093 0.0
H1088 H 0.10016 0.32274 0.40318 0.0
H1089 H 0.06933 0.33418 0.31922 0.0
H1090 H 0.10428 0.32355 0.30041 0.0
H1091 H 0.14157 0.30596 0.30666 0.0
H1092 H 0.17022 0.2918 0.39013 0.0
H1093 H 0.13806 0.30835 0.41024 0.0
C1094 C 0.1012 0.32341 0.38088 0.0
C1095 C 0.08207 0.32902 0.36258 0.0
C1096 C 0.1208 0.31627 0.36998 0.0
C1097 C 0.08379 0.32978 0.33375 0.0
C1098 C 0.1037 0.32354 0.32292 0.0
C1099 C 0.14078 0.30679 0.32928 0.0
C1100 C 0.15789 0.29726 0.3468 0.0
C1101 C 0.12195 0.3159 0.34062 0.0
C1102 C 0.15687 0.29848 0.37611 0.0
C1103 C 0.13861 0.30809 0.38766 0.0
H1104 H 0.98553 0.08238 0.22346 0.0
H1105 H 0.98114 0.99136 0.20991 0.0
H1106 H 1.00255 0.9943 0.16967 0.0
H1107 H 0.02588 0.02402 0.14127 0.0
H1108 H 0.03179 0.11546 0.15792 0.0
H1109 H 1.00634 0.11105 0.19389 0.0
C1110 C 0.98899 0.06302 0.2116 0.0
C1111 C 0.98186 0.03671 0.21994 0.0
C1112 C 1.00179 0.06505 0.18911 0.0
C1113 C 0.98643 1.0119 0.20405 0.0
C1114 C 0.99878 1.01363 0.18111 0.0
C1115 C 0.0213 0.04285 0.15257 0.0
C1116 C 0.03084 0.07011 0.14714 0.0
C1117 C 1.00706 0.04025 0.17387 0.0
C1118 C 0.02485 0.09434 0.16193 0.0
C1119 C 1.01029 0.09183 0.18249 0.0
H1120 H 0.36011 0.79988 0.59969 0.0
H1121 H 0.42479 0.80715 0.56422 0.0
H1122 H 0.41608 0.84677 0.54336 0.0
H1123 H 0.38267 0.86423 0.52089 0.0
H1124 H 0.31542 0.85168 0.55152 0.0
H1125 H 0.33254 0.82995 0.58919 0.0
C1126 C 0.37295 0.81139 0.58881 0.0
C1127 C 0.39254 0.80039 0.58256 0.0
C1128 C 0.36681 0.83255 0.5752 0.0
C1129 C 0.40943 0.81528 0.56892 0.0
C1130 C 0.40418 0.83758 0.55656 0.0
C1131 C 0.37221 0.85814 0.53676 0.0
C1132 C 0.34754 0.85836 0.53285 0.0
C1133 C 0.38174 0.84426 0.55725 0.0
C1134 C 0.33424 0.8508 0.55371 0.0
C1135 C 0.34399 0.83827 0.57513 0.0
H1136 H 0.66155 0.05828 0.71435 0.0
H1137 H 0.60779 1.0111 0.75326 0.0
H1138 H 0.5761 1.00762 0.71121 0.0
H1139 H 0.56281 1.01969 0.66396 0.0
H1140 H 0.61638 0.06519 0.62396 0.0
H1141 H 0.64856 0.06729 0.66514 0.0
C1142 C 0.64295 0.04698 0.71364 0.0
C1143 C 0.63741 0.03504 0.73758 0.0
C1144 C 0.62455 0.04477 0.6889 0.0
C1145 C 0.61298 1.02046 0.73561 0.0
C1146 C 0.59469 1.01855 0.71142 0.0
C1147 C 0.58157 0.02986 0.66402 0.0
C1148 C 0.58691 0.04217 0.64031 0.0
C1149 C 0.60014 0.03086 0.68802 0.0
C1150 C 0.61147 0.05518 0.64124 0.0
C1151 C 0.62996 0.05657 0.66513 0.0
H1152 H 0.36013 0.3485 0.0269 0.0
H1153 H 0.30511 0.39588 0.02727 0.0
H1154 H 0.2903 0.37632 0.97497 0.0
H1155 H 0.29525 0.34852 0.92784 0.0
H1156 H 0.35164 0.30301 0.92914 0.0
H1157 H 0.36335 0.31891 0.9816 0.0
C1158 C 0.34469 0.35438 0.01575 0.0
C1159 C 0.33393 0.37384 0.03127 0.0
C1160 C 0.33655 0.34349 0.98559 0.0
C1161 C 0.31386 0.38097 0.0161 0.0
C1162 C 0.30542 0.36987 0.98604 0.0
C1163 C 0.30987 0.34184 0.9397 0.0
C1164 C 0.32271 0.32485 0.92432 0.0
C1165 C 0.31694 0.35153 0.97035 0.0
C1166 C 0.34165 0.31644 0.94016 0.0
C1167 C 0.34838 0.32547 0.97031 0.0
H1168 H 0.98894 0.06982 0.40151 0.0
H1169 H 1.01529 0.99575 0.37168 0.0
H1170 H 0.03391 0.99728 0.4218 0.0
H1171 H 0.04161 1.01889 0.47395 0.0
H1172 H 1.01715 0.09451 0.50367 0.0
H1173 H 0.99891 0.09333 0.45349 0.0
C1174 C 0.99877 0.05401 0.40601 0.0
C1175 C 1.00056 0.03249 0.38305 0.0
C1176 C 1.00971 0.05535 0.43473 0.0
C1177 C 1.01367 1.01246 0.38904 0.0
C1178 C 0.02424 1.01331 0.41766 0.0
C1179 C 0.03228 0.03513 0.46946 0.0
C1180 C 0.03045 0.05659 0.49246 0.0
C1181 C 0.0222 0.03452 0.44065 0.0
C1182 C 0.01875 0.07779 0.4863 0.0
C1183 C 1.00827 0.07705 0.45766 0.0
H1184 H 0.31261 0.71198 0.60856 0.0
H1185 H 0.37342 0.70733 0.67149 0.0
H1186 H 0.35504 0.72655 0.71089 0.0
H1187 H 0.32591 0.75259 0.72664 0.0
H1188 H 0.26784 0.76242 0.66345 0.0
H1189 H 0.28113 0.73328 0.62478 0.0
C1190 C 0.3217 0.71459 0.63085 0.0
C1191 C 0.34465 0.70878 0.63703 0.0
C1192 C 0.31177 0.72716 0.65326 0.0
C1193 C 0.35591 0.71197 0.66611 0.0
C1194 C 0.3455 0.72316 0.68864 0.0
C1195 C 0.31587 0.74795 0.70445 0.0
C1196 C 0.29615 0.75992 0.69772 0.0
C1197 C 0.32411 0.73215 0.68235 0.0
C1198 C 0.28324 0.75364 0.66899 0.0
C1199 C 0.29082 0.73702 0.64693 0.0
H1200 H 0.61202 0.05507 0.89397 0.0
H1201 H 0.67903 0.04764 0.94275 0.0
H1202 H 0.66255 0.05286 0.98717 0.0
H1203 H 0.62815 0.05783 0.01269 0.0
H1204 H 0.56077 0.06328 0.9628 0.0
H1205 H 0.57812 0.06048 0.91933 0.0
C1206 C 0.62325 0.05483 0.9143 0.0
C1207 C 0.64715 0.05113 0.91438 0.0
C1208 C 0.61334 0.05734 0.94007 0.0
C1209 C 0.66081 0.05056 0.9414 0.0
C1210 C 0.65126 0.05349 0.96705 0.0
C1211 C 0.61724 0.05876 0.99248 0.0
C1212 C 0.59285 0.06106 0.99185 0.0
C1213 C 0.62741 0.05669 0.96679 0.0
C1214 C 0.57938 0.06162 0.96471 0.0
C1215 C 0.58939 0.05999 0.93952 0.0
H1216 H 0.30769 0.37658 0.17267 0.0
H1217 H 0.38148 0.36931 0.19287 0.0
H1218 H 0.37227 0.34698 0.23283 0.0
H1219 H 0.34305 0.32893 0.26252 0.0
H1220 H 0.26859 0.33267 0.23966 0.0
H1221 H 0.2782 0.35681 0.20089 0.0
C1222 C 0.32176 0.37004 0.18573 0.0
C1223 C 0.3453 0.37477 0.17949 0.0
C1224 C 0.31623 0.3566 0.20858 0.0
C1225 C 0.36315 0.36588 0.19678 0.0
C1226 C 0.35794 0.35317 0.21987 0.0
C1227 C 0.32905 0.33534 0.24923 0.0
C1228 C 0.30518 0.32933 0.25431 0.0
C1229 C 0.33455 0.34844 0.22611 0.0
C1230 C 0.28712 0.33713 0.23634 0.0
C1231 C 0.2926 0.35093 0.21408 0.0
H1232 H 0.20228 0.93913 0.02502 0.0
H1233 H 0.2114 0.91839 0.10933 0.0
H1234 H 0.19886 0.96085 0.12974 0.0
H1235 H 0.18768 1.00516 0.12458 0.0
H1236 H 0.17525 0.02457 0.03981 0.0
H1237 H 0.18776 0.98208 0.0191 0.0
C1238 C 0.20115 0.94367 0.04774 0.0
C1239 C 0.20793 0.92568 0.06561 0.0
C1240 C 0.19399 0.96832 0.05951 0.0
C1241 C 0.20641 0.93192 0.09505 0.0
C1242 C 0.19937 0.95631 0.10684 0.0
C1243 C 0.18731 1.00002 0.10148 0.0
C1244 C 0.18066 1.0184 0.08399 0.0
C1245 C 0.19353 0.97491 0.0894 0.0
C1246 C 0.18089 1.01142 0.05415 0.0
C1247 C 0.18769 0.9868 0.0421 0.0
H1248 H 0.68871 0.6026 1.00418 0.0
H1249 H 0.70704 0.6661 0.08512 0.0
H1250 H 0.6686 0.64388 0.09743 0.0
H1251 H 0.63068 0.60388 0.08645 0.0
H1252 H 0.61381 0.54063 1.00543 0.0
H1253 H 0.65047 0.56531 0.99194 0.0
C1254 C 0.6843 0.6118 0.02445 0.0
C1255 C 0.70093 0.6359 0.04374 0.0
C1256 C 0.66231 0.59879 0.03148 0.0
C1257 C 0.69466 0.64754 0.06982 0.0
C1258 C 0.67266 0.63476 0.07693 0.0
C1259 C 0.63496 0.59579 0.06574 0.0
C1260 C 0.61962 0.57027 0.04709 0.0
C1261 C 0.65647 0.61003 0.05814 0.0
C1262 C 0.6254 0.56004 0.02032 0.0
C1263 C 0.6464 0.57414 0.01255 0.0
H1264 H 0.73667 0.53732 0.41348 0.0
H1265 H 0.69849 0.52628 0.32523 0.0
H1266 H 0.71932 0.49006 0.30849 0.0
H1267 H 0.74671 0.4598 0.31907 0.0
H1268 H 0.78488 0.47025 0.40692 0.0
H1269 H 0.76572 0.50862 0.42371 0.0
C1270 C 0.73307 0.52724 0.39054 0.0
C1271 C 0.71587 0.53437 0.37071 0.0
C1272 C 0.74492 0.50618 0.38103 0.0
C1273 C 0.71151 0.5211 0.34104 0.0
C1274 C 0.72336 0.50032 0.33141 0.0
C1275 C 0.7507 0.47043 0.34191 0.0
C1276 C 0.76684 0.46212 0.36184 0.0
C1277 C 0.73973 0.49234 0.35127 0.0
C1278 C 0.77241 0.47638 0.39126 0.0
C1279 C 0.76146 0.49822 0.40083 0.0
H1280 H 0.82286 0.46864 0.54539 0.0
H1281 H 0.83428 0.38435 0.51687 0.0
H1282 H 0.8753 0.40637 0.5118 0.0
H1283 H 0.90795 0.44949 0.51592 0.0
H1284 H 0.89706 0.53385 0.54518 0.0
H1285 H 0.85568 0.51186 0.54975 0.0
C1286 C 0.83431 0.4551 0.53796 0.0
C1287 C 0.8256 0.42492 0.53153 0.0
C1288 C 0.8579 0.46791 0.53533 0.0
C1289 C 0.84064 0.40761 0.52216 0.0
C1290 C 0.86406 0.42019 0.51918 0.0
C1291 C 0.89639 0.46303 0.52302 0.0
C1292 C 0.90532 0.49318 0.52997 0.0
C1293 C 0.87285 0.45028 0.52574 0.0
C1294 C 0.89048 0.51056 0.53978 0.0
C1295 C 0.86687 0.49802 0.5423 0.0
H1296 H 0.36201 0.14857 0.34817 0.0
H1297 H 0.40799 0.1681 0.28792 0.0
H1298 H 0.39158 0.20974 0.28261 0.0
H1299 H 0.36526 0.24345 0.29709 0.0
H1300 H 0.31636 0.21989 0.35323 0.0
H1301 H 0.33296 0.17862 0.35841 0.0
C1302 C 0.36852 0.1617 0.33366 0.0
C1303 C 0.3867 0.15434 0.31857 0.0
C1304 C 0.35861 0.18592 0.33036 0.0
C1305 C 0.39423 0.17234 0.29991 0.0
C1306 C 0.38489 0.19667 0.29707 0.0
C1307 C 0.35805 0.22927 0.31036 0.0
C1308 C 0.33923 0.23567 0.3249 0.0
C1309 C 0.36726 0.20417 0.31248 0.0
C1310 C 0.33051 0.21621 0.34165 0.0
C1311 C 0.34015 0.19231 0.3447 0.0
H1312 H 0.36206 0.17305 0.54035 0.0
H1313 H 0.32764 0.13144 0.60076 0.0
H1314 H 0.36093 0.10853 0.60958 0.0
H1315 H 0.39799 0.09719 0.59724 0.0
H1316 H 0.43118 0.13611 0.53441 0.0
H1317 H 0.40049 0.16344 0.52977 0.0
C1318 C 0.36211 0.15943 0.55588 0.0
C1319 C 0.34238 0.15396 0.56988 0.0
C1320 C 0.38099 0.14556 0.56017 0.0
C1321 C 0.34258 0.13597 0.58967 0.0
C1322 C 0.36156 0.12275 0.59463 0.0
C1323 C 0.39849 0.11153 0.5824 0.0
C1324 C 0.4168 0.11427 0.56598 0.0
C1325 C 0.38051 0.12677 0.57942 0.0
C1326 C 0.41744 0.13361 0.54745 0.0
C1327 C 0.39979 0.14916 0.54466 0.0
H1328 H 0.73875 0.67304 0.41751 0.0
H1329 H 0.68527 0.65634 0.33822 0.0
H1330 H 0.71264 0.692 0.32047 0.0
H1331 H 0.75363 0.72474 0.32566 0.0
H1332 H 0.80691 0.73922 0.40462 0.0
H1333 H 0.77787 0.70759 0.42408 0.0
C1334 C 0.73284 0.67736 0.39647 0.0
C1335 C 0.70996 0.66173 0.37922 0.0
C1336 C 0.74886 0.69733 0.3861 0.0
C1337 C 0.70278 0.66787 0.35201 0.0
C1338 C 0.7185 0.68821 0.34175 0.0
C1339 C 0.75868 0.72124 0.34726 0.0
C1340 C 0.78244 0.73417 0.3636 0.0
C1341 C 0.74186 0.70258 0.3583 0.0
C1342 C 0.78882 0.72928 0.39147 0.0
C1343 C 0.77221 0.71124 0.40268 0.0
H1344 H 0.89448 0.47956 0.79653 0.0
H1345 H 0.86068 0.51777 0.86267 0.0
H1346 H 0.8391 0.47046 0.86611 0.0
H1347 H 0.83001 0.41737 0.85241 0.0
H1348 H 0.86029 0.37737 0.78403 0.0
H1349 H 0.88242 0.42507 0.77971 0.0
C1350 C 0.88212 0.47766 0.81136 0.0
C1351 C 0.87981 0.5032 0.82945 0.0
C1352 C 0.86903 0.44949 0.81326 0.0
C1353 C 0.86348 0.49931 0.84849 0.0
C1354 C 0.85093 0.47189 0.85064 0.0
C1355 C 0.84147 0.41894 0.83654 0.0
C1356 C 0.84347 0.39324 0.81887 0.0
C1357 C 0.85374 0.44673 0.83355 0.0
C1358 C 0.85825 0.39636 0.79814 0.0
C1359 C 0.871 0.42388 0.79562 0.0
H1360 H 0.10752 0.92046 0.16145 0.0
H1361 H 0.05492 0.86192 0.08909 0.0
H1362 H 0.05168 0.90163 0.06563 0.0
H1363 H 0.05874 0.95371 0.06921 0.0
H1364 H 0.11029 1.01308 0.1418 0.0
H1365 H 0.11925 0.9727 0.16133 0.0
C1366 C 0.09609 0.9163 0.14005 0.0
C1367 C 0.08148 0.88819 0.12704 0.0
C1368 C 0.09372 0.93959 0.12697 0.0
C1369 C 0.06638 0.88329 0.09954 0.0
C1370 C 0.06434 0.90607 0.08622 0.0
C1371 C 0.07226 0.9578 0.08905 0.0
C1372 C 0.08375 0.98644 0.10406 0.0
C1373 C 0.07707 0.93444 0.10031 0.0
C1374 C 0.10137 0.99132 0.12961 0.0
C1375 C 0.10633 0.96816 0.14094 0.0
H1376 H 0.95011 0.31807 0.90716 0.0
H1377 H 0.92294 0.23336 0.92183 0.0
H1378 H 0.88172 0.2326 0.89882 0.0
H1379 H 0.85369 0.25455 0.87133 0.0
H1380 H 0.87961 0.34091 0.86042 0.0
H1381 H 0.92077 0.34272 0.88531 0.0
C1382 C 0.9351 0.29959 0.90552 0.0
C1383 C 0.93968 0.27563 0.91587 0.0
C1384 C 0.91118 0.2996 0.89288 0.0
C1385 C 0.91997 0.25204 0.914 0.0
C1386 C 0.89637 0.25154 0.90075 0.0
C1387 C 0.86831 0.27392 0.87486 0.0
C1388 C 0.86368 0.29748 0.86393 0.0
C1389 C 0.8918 0.27498 0.88968 0.0
C1390 C 0.8827 0.32254 0.86876 0.0
C1391 C 0.90628 0.32349 0.88282 0.0
H1392 H 0.59466 0.24426 0.64217 0.0
H1393 H 0.51814 0.23372 0.60914 0.0
H1394 H 0.51357 0.18341 0.58691 0.0
H1395 H 0.53042 0.14155 0.5787 0.0
H1396 H 0.6068 0.15104 0.61011 0.0
H1397 H 0.61228 0.20246 0.63073 0.0
C1398 C 0.57703 0.23106 0.62988 0.0
C1399 C 0.55677 0.24301 0.62765 0.0
C1400 C 0.57443 0.2018 0.61689 0.0
C1401 C 0.53412 0.22538 0.61144 0.0
C1402 C 0.53141 0.19644 0.59869 0.0
C1403 C 0.5483 0.15482 0.59002 0.0
C1404 C 0.56809 0.14231 0.59313 0.0
C1405 C 0.55131 0.18431 0.60164 0.0
C1406 C 0.59123 0.16006 0.60738 0.0
C1407 C 0.59435 0.18948 0.61928 0.0
H1408 H 0.58819 0.76388 0.43481 0.0
H1409 H 0.58189 0.84484 0.41434 0.0
H1410 H 0.62046 0.85072 0.3984 0.0
H1411 H 0.65491 0.83185 0.38756 0.0
H1412 H 0.662 0.75133 0.40844 0.0
H1413 H 0.62424 0.74628 0.4265 0.0
C1414 C 0.59535 0.78294 0.42711 0.0
C1415 C 0.58194 0.8038 0.42572 0.0
C1416 C 0.61766 0.78619 0.41771 0.0
C1417 C 0.59162 0.82833 0.41562 0.0
C1418 C 0.61374 0.83173 0.40642 0.0
C1419 C 0.64852 0.81341 0.39654 0.0
C1420 C 0.66144 0.79198 0.39645 0.0
C1421 C 0.62679 0.81066 0.40702 0.0
C1422 C 0.65239 0.76801 0.40774 0.0
C1423 C 0.63079 0.76515 0.41825 0.0
H1424 H 0.03339 0.30085 0.52804 0.0
H1425 H 0.06511 0.26104 0.46081 0.0
H1426 H 0.08418 0.23638 0.49449 0.0
H1427 H 0.0851 0.21965 0.5398 0.0
H1428 H 0.0532 0.25949 0.60698 0.0
H1429 H 0.04115 0.29111 0.57659 0.0
C1430 C 0.04485 0.28716 0.52099 0.0
C1431 C 0.04743 0.28207 0.49198 0.0
C1432 C 0.05549 0.27296 0.54031 0.0
C1433 C 0.06275 0.26496 0.48308 0.0
C1434 C 0.07353 0.25079 0.50225 0.0
C1435 C 0.07632 0.23595 0.54826 0.0
C1436 C 0.0695 0.23679 0.57528 0.0
C1437 C 0.06911 0.25369 0.53051 0.0
C1438 C 0.05808 0.258 0.5859 0.0
C1439 C 0.05117 0.27603 0.56856 0.0
H1440 H 0.63275 0.24524 0.22396 0.0
H1441 H 0.63702 0.30015 0.30727 0.0
H1442 H 0.68139 0.31356 0.31522 0.0
H1443 H 0.71881 0.30856 0.29921 0.0
H1444 H 0.71503 0.25058 0.21798 0.0
H1445 H 0.67047 0.23961 0.20824 0.0
C1446 C 0.64344 0.26022 0.24379 0.0
C1447 C 0.63173 0.27175 0.265 0.0
C1448 C 0.66892 0.26732 0.24848 0.0
C1449 C 0.6457 0.29088 0.29073 0.0
C1450 C 0.67102 0.29864 0.29523 0.0
C1451 C 0.70822 0.29384 0.27918 0.0
C1452 C 0.72002 0.28062 0.25913 0.0
C1453 C 0.68279 0.2869 0.27432 0.0
C1454 C 0.70619 0.26106 0.2336 0.0
C1455 C 0.6808 0.25476 0.2281 0.0
H1456 H 0.54914 0.90113 0.96161 0.0
H1457 H 0.47361 0.89019 0.96701 0.0
H1458 H 0.48492 0.93045 1.00935 0.0
H1459 H 0.5162 0.96979 0.04414 0.0
H1460 H 0.59135 0.98212 0.03767 0.0
H1461 H 0.58049 0.93953 0.99736 0.0
C1462 C 0.53513 0.90763 0.97195 0.0
C1463 C 0.51053 0.89278 0.96092 0.0
C1464 C 0.54178 0.93065 0.99653 0.0
C1465 C 0.49268 0.90126 0.97493 0.0
C1466 C 0.49912 0.92422 0.99925 0.0
C1467 C 0.53013 0.96291 0.03396 0.0
C1468 C 0.55446 0.9788 0.04368 0.0
C1469 C 0.5236 0.93911 1.0102 0.0
C1470 C 0.57252 0.96974 0.03071 0.0
C1471 C 0.56627 0.94569 1.00745 0.0
H1472 H 0.02167 0.78223 0.84116 0.0
H1473 H 0.97013 0.73413 0.76288 0.0
H1474 H 0.93644 0.74273 0.78569 0.0
H1475 H 0.9227 0.77231 0.82394 0.0
H1476 H 0.97516 0.82702 0.89851 0.0
H1477 H 1.00749 0.80745 0.88158 0.0
C1478 C 1.00299 0.77267 0.82957 0.0
C1479 C 0.99825 0.7575 0.8005 0.0
C1480 C 0.98396 0.77955 0.84209 0.0
C1481 C 0.97408 0.74577 0.78535 0.0
C1482 C 0.95488 0.75093 0.79831 0.0
C1483 C 0.94113 0.77921 0.8368 0.0
C1484 C 0.94677 0.80091 0.86236 0.0
C1485 C 0.95972 0.76908 0.82606 0.0
C1486 C 0.97061 0.81025 0.87879 0.0
C1487 C 0.98902 0.79916 0.86904 0.0
H1488 H 0.13838 0.05205 0.9449 0.0
H1489 H 0.11795 0.13199 0.9456 0.0
H1490 H 0.09694 0.12467 0.98547 0.0
H1491 H 0.08165 0.09347 0.01722 0.0
H1492 H 0.0976 1.01062 0.01161 0.0
H1493 H 0.12326 1.02103 0.97657 0.0
C1494 C 0.12972 0.06815 0.95417 0.0
C1495 C 0.12994 0.09273 0.94263 0.0
C1496 C 0.11667 0.063 0.97591 0.0
C1497 C 0.11815 0.11304 0.95431 0.0
C1498 C 0.10606 0.10876 0.97697 0.0
C1499 C 0.09094 0.07783 1.00845 0.0
C1500 C 0.08784 0.0513 0.01684 0.0
C1501 C 0.10477 0.08352 0.98749 0.0
C1502 C 0.09968 0.03106 1.00523 0.0
C1503 C 0.11434 0.03706 0.98529 0.0
H1504 H 0.75625 0.26602 0.54371 0.0
H1505 H 0.72117 0.32701 0.58511 0.0
H1506 H 0.71623 0.30041 0.62306 0.0
H1507 H 0.7332 0.26965 0.65095 0.0
H1508 H 0.76966 0.20955 0.61071 0.0
H1509 H 0.76217 0.22553 0.56549 0.0
C1510 C 0.74672 0.27285 0.56047 0.0
C1511 C 0.73993 0.29899 0.56227 0.0
C1512 C 0.74466 0.25798 0.58276 0.0
C1513 C 0.72696 0.30721 0.58352 0.0
C1514 C 0.72433 0.29214 0.60543 0.0
C1515 C 0.7385 0.25893 0.63197 0.0
C1516 C 0.753 0.23938 0.63462 0.0
C1517 C 0.7348 0.26886 0.60636 0.0
C1518 C 0.75929 0.22548 0.60954 0.0
C1519 C 0.75511 0.2347 0.5837 0.0
H1520 H 0.45716 0.08253 0.42087 0.0
H1521 H 0.50554 0.06177 0.36449 0.0
H1522 H 0.53295 0.05495 0.40477 0.0
H1523 H 0.54484 0.05534 0.45604 0.0
H1524 H 0.49774 0.07304 0.51459 0.0
H1525 H 0.46878 0.0802 0.47425 0.0
C1526 C 0.47365 0.07646 0.41736 0.0
C1527 C 0.47883 0.07285 0.38882 0.0
C1528 C 0.48987 0.07187 0.44133 0.0
C1529 C 0.50049 0.06475 0.38548 0.0
C1530 C 0.51648 0.06082 0.40879 0.0
C1531 C 0.52817 0.0606 0.46019 0.0
C1532 C 0.5238 0.06358 0.48876 0.0
C1533 C 0.51153 0.06436 0.43678 0.0
C1534 C 0.50183 0.07032 0.4931 0.0
C1535 C 0.48523 0.07459 0.46983 0.0
H1536 H 0.77327 0.72405 0.13887 0.0
H1537 H 0.84851 0.7689 0.14716 0.0
H1538 H 0.85186 0.78722 0.19877 0.0
H1539 H 0.83436 0.7892 0.2421 0.0
H1540 H 0.75915 0.74569 0.235 0.0
H1541 H 0.75487 0.72851 0.18251 0.0
C1542 C 0.79034 0.73802 0.1519 0.0
C1543 C 0.81062 0.74484 0.13888 0.0
C1544 C 0.79223 0.74871 0.1819 0.0
C1545 C 0.83255 0.76313 0.1563 0.0
C1546 C 0.83456 0.77364 0.18597 0.0
C1547 C 0.81699 0.77592 0.22914 0.0
C1548 C 0.79719 0.76846 0.24261 0.0
C1549 C 0.81465 0.76629 0.19906 0.0
C1550 C 0.77471 0.75173 0.22526 0.0
C1551 C 0.77229 0.74183 0.19523 0.0
H1552 H 0.1168 1.02302 0.75582 0.0
H1553 H 0.1309 0.11579 0.7798 0.0
H1554 H 0.11616 0.11672 0.72937 0.0
H1555 H 0.09858 0.09128 0.67892 0.0
H1556 H 0.0842 0.99849 0.65466 0.0
H1557 H 0.0999 0.99756 0.7049 0.0
C1558 C 0.11669 0.04348 0.75005 0.0
C1559 C 0.12486 0.0693 0.77163 0.0
C1560 C 0.10816 0.04386 0.72101 0.0
C1561 C 0.12467 0.09559 0.76369 0.0
C1562 C 0.11624 0.09614 0.73485 0.0
C1563 C 0.09888 0.07079 0.68452 0.0
C1564 C 0.09011 0.04497 0.663 0.0
C1565 C 0.10783 0.07041 0.7134 0.0
C1566 C 0.0908 1.01869 0.67074 0.0
C1567 C 0.09975 1.01814 0.69949 0.0
H1568 H 0.78628 0.32309 0.46529 0.0
H1569 H 0.73792 0.36994 0.42978 0.0
H1570 H 0.74366 0.35125 0.38078 0.0
H1571 H 0.76272 0.32139 0.34828 0.0
H1572 H 0.81024 0.2742 0.38505 0.0
H1573 H 0.80474 0.29357 0.43357 0.0
C1574 C 0.77691 0.32923 0.44687 0.0
C1575 C 0.76169 0.34785 0.45111 0.0
C1576 C 0.78028 0.31846 0.41908 0.0
C1577 C 0.74962 0.35548 0.427 0.0
C1578 C 0.753 0.34491 0.39905 0.0
C1579 C 0.7719 0.31549 0.36699 0.0
C1580 C 0.78685 0.2964 0.36324 0.0
C1581 C 0.76835 0.32641 0.39486 0.0
C1582 C 0.79861 0.2888 0.3875 0.0
C1583 C 0.79545 0.29982 0.4152 0.0
H1584 H 0.51296 0.06907 0.24529 0.0
H1585 H 0.44177 0.06894 0.2009 0.0
H1586 H 0.45508 0.06127 0.15416 0.0
H1587 H 0.48806 0.0554 0.12517 0.0
H1588 H 0.55867 0.05604 0.17239 0.0
H1589 H 0.54445 0.06253 0.21761 0.0
C1590 C 0.50006 0.06736 0.22554 0.0
C1591 C 0.47609 0.06975 0.22746 0.0
C1592 C 0.50793 0.06294 0.19859 0.0
C1593 C 0.46021 0.06729 0.20088 0.0
C1594 C 0.46795 0.06287 0.17388 0.0
C1595 C 0.50033 0.05666 0.14526 0.0
C1596 C 0.5248 0.055 0.14445 0.0
C1597 C 0.4919 0.0607 0.17227 0.0
C1598 C 0.53998 0.05711 0.1714 0.0
C1599 C 0.5318 0.06091 0.19769 0.0
H1600 H 0.77262 0.71709 0.96041 0.0
H1601 H 0.79848 0.79642 0.02569 0.0
H1602 H 0.79998 0.82411 0.98792 0.0
H1603 H 0.79948 0.82532 0.9366 0.0
H1604 H 0.77735 0.74563 0.87145 0.0
H1605 H 0.76876 0.71858 0.90854 0.0
C1606 C 0.77765 0.74048 0.96625 0.0
C1607 C 0.78484 0.75477 0.99579 0.0
C1608 C 0.77971 0.75616 0.94433 0.0
C1609 C 0.79231 0.78503 1.00313 0.0
C1610 C 0.79347 0.80082 0.9815 0.0
C1611 C 0.7924 0.80207 0.93044 0.0
C1612 C 0.78919 0.78753 0.90126 0.0
C1613 C 0.78809 0.78658 0.95206 0.0
C1614 C 0.78004 0.75738 0.89372 0.0
C1615 C 0.77516 0.74188 0.91496 0.0
H1616 H 0.90508 0.17358 0.02229 0.0
H1617 H 0.85188 0.13693 0.06821 0.0
H1618 H 0.87073 0.09685 0.07093 0.0
H1619 H 0.90171 0.07172 0.05888 0.0
H1620 H 0.95271 0.10655 1.00937 0.0
H1621 H 0.93508 0.14762 1.00878 0.0
C1622 C 0.89788 0.15694 0.03316 0.0
C1623 C 0.87745 0.15812 0.04534 0.0
C1624 C 0.90811 0.13348 0.03349 0.0
C1625 C 0.86775 0.13629 0.05883 0.0
C1626 C 0.87843 0.11341 0.06027 0.0
C1627 C 0.90886 0.08831 0.04793 0.0
C1628 C 0.92843 0.08624 0.03423 0.0
C1629 C 0.89845 0.11164 0.04739 0.0
C1630 C 0.93743 0.10759 0.01978 0.0
C1631 C 0.92752 0.13118 0.01965 0.0
H1632 H 0.43313 0.45757 0.11767 0.0
H1633 H 0.39038 0.50017 0.06639 0.0
H1634 H 0.42667 0.5251 0.05236 0.0
H1635 H 0.47107 0.53729 0.05652 0.0
H1636 H 0.51444 0.49553 0.10786 0.0
H1637 H 0.47774 0.46793 0.11967 0.0
C1638 C 0.43173 0.47206 0.10318 0.0
C1639 C 0.40888 0.47695 0.09329 0.0
C1640 C 0.45294 0.48675 0.09526 0.0
C1641 C 0.40758 0.49595 0.07455 0.0
C1642 C 0.42842 0.51034 0.06647 0.0
C1643 C 0.47247 0.52199 0.07012 0.0
C1644 C 0.49554 0.51869 0.08141 0.0
C1645 C 0.45126 0.5063 0.07701 0.0
C1646 C 0.49696 0.49865 0.09894 0.0
C1647 C 0.47593 0.48285 0.10576 0.0
H1648 H 0.41599 0.59145 0.77495 0.0
H1649 H 0.3698 0.5435 0.82159 0.0
H1650 H 0.33937 0.57024 0.81174 0.0
H1651 H 0.32843 0.61113 0.79545 0.0
H1652 H 0.37634 0.66263 0.7531 0.0
H1653 H 0.40329 0.63038 0.75509 0.0
C1654 C 0.39894 0.58641 0.7822 0.0
C1655 C 0.395 0.56563 0.79891 0.0
C1656 C 0.38203 0.60279 0.77759 0.0
C1657 C 0.37311 0.55949 0.80869 0.0
C1658 C 0.35581 0.57485 0.80321 0.0
C1659 C 0.34476 0.61529 0.78661 0.0
C1660 C 0.35057 0.63951 0.77461 0.0
C1661 C 0.36051 0.59726 0.78867 0.0
C1662 C 0.37142 0.64412 0.76247 0.0
C1663 C 0.38693 0.62579 0.76376 0.0
H1664 H 0.28273 0.66788 0.53741 0.0
H1665 H 0.27474 0.75367 0.56677 0.0
H1666 H 0.23741 0.73354 0.5826 0.0
H1667 H 0.21003 0.69187 0.59321 0.0
H1668 H 0.22027 0.60671 0.56647 0.0
H1669 H 0.25422 0.62641 0.54508 0.0
C1670 C 0.27253 0.68221 0.54661 0.0
C1671 C 0.28137 0.71224 0.55077 0.0
C1672 C 0.25194 0.67063 0.55692 0.0
C1673 C 0.26816 0.73047 0.56319 0.0
C1674 C 0.24696 0.71898 0.57243 0.0
C1675 C 0.21954 0.67763 0.58238 0.0
C1676 C 0.21287 0.64793 0.58169 0.0
C1677 C 0.23919 0.68916 0.57032 0.0
C1678 C 0.22541 0.62971 0.56778 0.0
C1679 C 0.24467 0.64092 0.55535 0.0
H1680 H 0.70214 0.93403 0.83088 0.0
H1681 H 0.768 1.00262 0.85546 0.0
H1682 H 0.79233 0.96727 0.85394 0.0
H1683 H 0.79586 0.91601 0.84745 0.0
H1684 H 0.72993 0.84752 0.82529 0.0
H1685 H 0.70567 0.88265 0.82411 0.0
C1686 C 0.72181 0.94139 0.8352 0.0
C1687 C 0.73282 0.97179 0.84242 0.0
C1688 C 0.73614 0.92043 0.83515 0.0
C1689 C 0.75856 0.97993 0.84911 0.0
C1690 C 0.77268 0.95944 0.8485 0.0
C1691 C 0.77619 0.90856 0.84235 0.0
C1692 C 0.76523 0.87819 0.83629 0.0
C1693 C 0.76186 0.92948 0.8419 0.0
C1694 C 0.73946 0.87007 0.82982 0.0
C1695 C 0.72532 0.89049 0.82917 0.0
H1696 H 0.77635 0.9726 0.55097 0.0
H1697 H 0.77043 0.95666 0.63559 0.0
H1698 H 0.73339 0.97374 0.63323 0.0
H1699 H 0.70296 0.99434 0.60733 0.0
H1700 H 0.70968 1.00998 0.52275 0.0
H1701 H 0.74593 0.99187 0.52494 0.0
C1702 C 0.76696 0.97271 0.56891 0.0
C1703 C 0.77631 0.96339 0.59346 0.0
C1704 C 0.74572 0.9826 0.56743 0.0
C1705 C 0.76371 0.96365 0.61639 0.0
C1706 C 0.74253 0.97352 0.61509 0.0
C1707 C 0.71241 0.99383 0.58944 0.0
C1708 C 0.70342 1.0034 0.56483 0.0
C1709 C 0.73344 0.98329 0.5908 0.0
C1710 C 0.71586 1.00237 0.54176 0.0
C1711 C 0.73673 0.99214 0.54304 0.0
H1712 H 0.39177 0.44731 0.7883 0.0
H1713 H 0.43431 0.44678 0.87061 0.0
H1714 H 0.40573 0.40228 0.87254 0.0
H1715 H 0.36587 0.36731 0.85401 0.0
H1716 H 0.32163 0.36992 0.77354 0.0
H1717 H 0.3534 0.40959 0.7676 0.0
C1718 C 0.39507 0.43689 0.80616 0.0
C1719 C 0.41511 0.45004 0.82917 0.0
C1720 C 0.37793 0.412 0.80774 0.0
C1721 C 0.419 0.43683 0.8526 0.0
C1722 C 0.40259 0.41154 0.85381 0.0
C1723 C 0.36339 0.37631 0.83498 0.0
C1724 C 0.3414 0.366 0.81442 0.0
C1725 C 0.38153 0.39952 0.83204 0.0
C1726 C 0.33834 0.37782 0.78986 0.0
C1727 C 0.35651 0.40045 0.78641 0.0
H1728 H 0.22306 0.62076 0.31616 0.0
H1729 H 0.24622 0.63892 0.40931 0.0
H1730 H 0.26566 0.68874 0.41008 0.0
H1731 H 0.27671 0.72855 0.38479 0.0
H1732 H 0.25639 0.7101 0.29145 0.0
H1733 H 0.2358 0.66034 0.29052 0.0
C1734 C 0.23237 0.63552 0.33666 0.0
C1735 C 0.23285 0.62528 0.36267 0.0
C1736 C 0.24428 0.66476 0.33704 0.0
C1737 C 0.24536 0.64539 0.38879 0.0
C1738 C 0.25657 0.67428 0.38934 0.0
C1739 C 0.26776 0.71374 0.36419 0.0
C1740 C 0.26826 0.72378 0.33822 0.0
C1741 C 0.25623 0.68442 0.36367 0.0
C1742 C 0.2566 0.70357 0.3119 0.0
C1743 C 0.24466 0.67482 0.31131 0.0
H1744 H 0.47465 0.68097 0.51043 0.0
H1745 H 0.54832 0.7278 0.51374 0.0
H1746 H 0.56387 0.69222 0.53542 0.0
H1747 H 0.55693 0.64687 0.55159 0.0
H1748 H 0.48361 0.59773 0.5461 0.0
H1749 H 0.46766 0.63494 0.52729 0.0
C1750 C 0.49411 0.68357 0.51622 0.0
C1751 C 0.51026 0.70732 0.51047 0.0
C1752 C 0.50305 0.66242 0.52815 0.0
C1753 C 0.53542 0.70991 0.51779 0.0
C1754 C 0.54436 0.68949 0.53021 0.0
C1755 C 0.53743 0.64428 0.54653 0.0
C1756 C 0.52156 0.61939 0.55047 0.0
C1757 C 0.5284 0.66549 0.53519 0.0
C1758 C 0.49633 0.61651 0.54334 0.0
C1759 C 0.48719 0.63786 0.53256 0.0
H1760 H 0.67593 0.34888 0.72942 0.0
H1761 H 0.64992 0.25625 0.71135 0.0
H1762 H 0.68921 0.25283 0.73635 0.0
H1763 H 0.72992 0.27657 0.7679 0.0
H1764 H 0.75477 0.36933 0.78751 0.0
H1765 H 0.71747 0.37218 0.75735 0.0
C1766 C 0.67896 0.32791 0.73052 0.0
C1767 C 0.65982 0.30292 0.71865 0.0
C1768 C 0.70152 0.32608 0.74554 0.0
C1769 C 0.66419 0.27593 0.72045 0.0
C1770 C 0.6867 0.27392 0.73483 0.0
C1771 C 0.72728 0.29731 0.76512 0.0
C1772 C 0.74503 0.32272 0.78012 0.0
C1773 C 0.70535 0.29889 0.74815 0.0
C1774 C 0.7413 0.34946 0.77639 0.0
C1775 C 0.71993 0.35114 0.75916 0.0
H1776 H 0.04033 0.36268 0.99937 0.0
H1777 H 0.97649 0.34967 0.03706 0.0
H1778 H 0.9848 0.40148 0.05613 0.0
H1779 H 1.00896 0.45097 0.06017 0.0
H1780 H 0.07322 0.46397 0.02335 0.0
H1781 H 0.0659 0.41196 1.00603 0.0
C1782 C 0.02835 0.37108 0.01203 0.0
C1783 C 1.00773 0.35203 0.01657 0.0
C1784 C 0.03316 0.4011 0.02295 0.0
C1785 C 0.99252 0.36357 0.03315 0.0
C1786 C 0.99718 0.39333 0.04399 0.0
C1787 C 0.02139 0.44247 0.04838 0.0
C1788 C 0.04151 0.46156 0.04292 0.0
C1789 C 1.01722 0.41237 0.03865 0.0
C1790 C 0.05756 0.44995 0.0279 0.0
C1791 C 0.05339 0.42012 0.01793 0.0
H1792 H 1.01112 0.83045 0.20881 0.0
H1793 H 0.04974 0.78519 0.2615 0.0
H1794 H 1.01491 0.77313 0.28434 0.0
H1795 H 0.97424 0.7773 0.29096 0.0
H1796 H 0.9362 0.82394 0.23937 0.0
H1797 H 0.9698 0.83298 0.21406 0.0
C1798 C 1.01185 0.81763 0.22502 0.0
C1799 C 0.03309 0.80875 0.2334 0.0
C1800 C 0.99182 0.81102 0.2383 0.0
C1801 C 0.03369 0.79235 0.25463 0.0
C1802 C 1.01377 0.78548 0.26775 0.0
C1803 C 0.9733 0.78954 0.27425 0.0
C1804 C 0.9527 0.80007 0.26728 0.0
C1805 C 0.99288 0.79506 0.26007 0.0
C1806 C 0.95165 0.81533 0.24507 0.0
C1807 C 0.97098 0.82071 0.23071 0.0
H1808 H 0.50428 0.30973 0.18977 0.0
H1809 H 0.58082 0.32706 0.2274 0.0
H1810 H 0.58993 0.36573 0.20175 0.0
H1811 H 0.57622 0.39346 0.16733 0.0
H1812 H 0.49982 0.37529 0.12939 0.0
H1813 H 0.49055 0.33798 0.15665 0.0
C1814 C 0.52299 0.32193 0.19246 0.0
C1815 C 0.54183 0.31541 0.21041 0.0
C1816 C 0.5281 0.34397 0.17763 0.0
C1817 C 0.56594 0.33157 0.21366 0.0
C1818 C 0.57118 0.3537 0.19903 0.0
C1819 C 0.55753 0.38156 0.16541 0.0
C1820 C 0.5387 0.38696 0.14648 0.0
C1821 C 0.55241 0.35997 0.18086 0.0
C1822 C 0.51458 0.37123 0.14373 0.0
C1823 C 0.5093 0.34998 0.15929 0.0
H1824 H 0.95656 0.33355 0.35108 0.0
H1825 H 0.94063 0.27112 0.40317 0.0
H1826 H 0.89738 0.25967 0.38127 0.0
H1827 H 0.86401 0.26712 0.34676 0.0
H1828 H 0.87983 0.33192 0.2974 0.0
H1829 H 0.92325 0.34249 0.3184 0.0
C1830 C 0.94359 0.31756 0.35773 0.0
C1831 C 0.95171 0.30319 0.37861 0.0
C1832 C 0.91879 0.31128 0.34528 0.0
C1833 C 0.93475 0.28264 0.38722 0.0
C1834 C 0.91005 0.27591 0.37458 0.0
C1835 C 0.87711 0.28331 0.34052 0.0
C1836 C 0.86908 0.29854 0.32048 0.0
C1837 C 0.90188 0.28994 0.35342 0.0
C1838 C 0.88587 0.31993 0.3128 0.0
C1839 C 0.9106 0.32602 0.32482 0.0
H1840 H 0.02386 0.71033 0.65007 0.0
H1841 H 0.06135 0.68648 0.7235 0.0
H1842 H 0.07694 0.65342 0.69085 0.0
H1843 H 0.07823 0.62997 0.64152 0.0
H1844 H 0.04186 0.6548 0.56796 0.0
H1845 H 0.02824 0.68983 0.6007 0.0
C1846 C 0.03525 0.69763 0.65882 0.0
C1847 C 0.04097 0.70012 0.689 0.0
C1848 C 0.04476 0.67949 0.64001 0.0
C1849 C 0.05641 0.68443 0.70027 0.0
C1850 C 0.06545 0.66576 0.68166 0.0
C1851 C 0.06785 0.64354 0.63263 0.0
C1852 C 0.061 0.63971 0.60233 0.0
C1853 C 0.05967 0.66308 0.65151 0.0
C1854 C 0.04746 0.6574 0.59118 0.0
C1855 C 0.0394 0.67715 0.60989 0.0
H1856 H 0.58199 0.84005 0.80862 0.0
H1857 H 0.60526 0.84618 0.90033 0.0
H1858 H 0.64253 0.83322 0.89166 0.0
H1859 H 0.66592 0.81437 0.8574 0.0
H1860 H 0.64206 0.80674 0.76566 0.0
H1861 H 0.60763 0.82627 0.77498 0.0
C1862 C 0.59539 0.83905 0.82682 0.0
C1863 C 0.59063 0.84361 0.85503 0.0
C1864 C 0.61649 0.83092 0.8216 0.0
C1865 C 0.60835 0.84257 0.87837 0.0
C1866 C 0.62961 0.83497 0.87341 0.0
C1867 C 0.6532 0.81712 0.8395 0.0
C1868 C 0.65617 0.80865 0.81086 0.0
C1869 C 0.63341 0.82807 0.84502 0.0
C1870 C 0.64002 0.81299 0.78787 0.0
C1871 C 0.62032 0.82405 0.79319 0.0
H1872 H 0.47012 0.57444 0.71223 0.0
H1873 H 0.47919 0.48906 0.71252 0.0
H1874 H 0.49884 0.49008 0.67072 0.0
H1875 H 0.518 0.51797 0.63801 0.0
H1876 H 0.51101 0.60461 0.64119 0.0
H1877 H 0.4858 0.60028 0.67744 0.0
C1878 C 0.47607 0.55582 0.70299 0.0
C1879 C 0.47343 0.53185 0.7158 0.0
C1880 C 0.48794 0.55693 0.67962 0.0
C1881 C 0.48106 0.50785 0.70321 0.0
C1882 C 0.49243 0.5085 0.67938 0.0
C1883 C 0.51055 0.53563 0.64633 0.0
C1884 C 0.51648 0.5617 0.63721 0.0
C1885 C 0.49666 0.53331 0.66798 0.0
C1886 C 0.50684 0.58448 0.64813 0.0
C1887 C 0.49247 0.58202 0.66887 0.0
H1888 H 0.8599 0.32566 0.07601 0.0
H1889 H 0.91224 0.31006 0.02397 0.0
H1890 H 0.90687 0.34982 1.0013 0.0
H1891 H 0.87792 0.37655 0.98635 0.0
H1892 H 0.82572 0.39313 0.03861 0.0
H1893 H 0.84138 0.36644 0.0723 0.0
C1894 C 0.87092 0.33197 0.06071 0.0
C1895 C 0.88595 0.31483 0.05097 0.0
C1896 C 0.86747 0.35456 0.04754 0.0
C1897 C 0.90044 0.32303 0.03147 0.0
C1898 C 0.89721 0.3456 0.01838 0.0
C1899 C 0.8706 0.37579 1.00577 0.0
C1900 C 0.84922 0.38472 1.00856 0.0
C1901 C 0.87935 0.35988 0.02467 0.0
C1902 C 0.84112 0.38468 0.03484 0.0
C1903 C 0.84998 0.36928 0.05409 0.0
H1904 H 0.16313 0.54747 0.21187 0.0
H1905 H 0.10985 0.5247 0.26337 0.0
H1906 H 0.07736 0.52438 0.22357 0.0
H1907 H 0.06357 0.53174 0.17432 0.0
H1908 H 0.11612 0.55241 0.12168 0.0
H1909 H 0.14893 0.55237 0.16119 0.0
C1910 C 0.14442 0.54227 0.21447 0.0
C1911 C 0.13933 0.53617 0.24121 0.0
C1912 C 0.12548 0.54191 0.19105 0.0
C1913 C 0.11471 0.52943 0.2435 0.0
C1914 C 0.09597 0.52933 0.22058 0.0
C1915 C 0.0822 0.53619 0.17133 0.0
C1916 C 0.08711 0.54249 0.14467 0.0
C1917 C 0.10107 0.53572 0.19429 0.0
C1918 C 0.11151 0.54789 0.14163 0.0
C1919 C 0.13039 0.54777 0.16443 0.0
H1920 H 0.86607 0.85436 0.52783 0.0
H1921 H 0.80405 0.89026 0.52966 0.0
H1922 H 0.78931 0.86971 0.47744 0.0
H1923 H 0.79561 0.84385 0.43031 0.0
H1924 H 0.85923 0.8107 0.43006 0.0
H1925 H 0.87159 0.82782 0.4824 0.0
C1926 C 0.84917 0.85757 0.51702 0.0
C1927 C 0.83628 0.87396 0.53285 0.0
C1928 C 0.84113 0.8463 0.48701 0.0
C1929 C 0.81442 0.87776 0.51816 0.0
C1930 C 0.80601 0.86608 0.48821 0.0
C1931 C 0.81205 0.84023 0.44181 0.0
C1932 C 0.82657 0.82625 0.42613 0.0
C1933 C 0.81943 0.85067 0.47226 0.0
C1934 C 0.84786 0.82175 0.44139 0.0
C1935 C 0.85496 0.83146 0.47143 0.0
H1936 H 0.50086 0.49465 0.88157 0.0
H1937 H 0.50984 0.58618 0.89139 0.0
H1938 H 0.52787 0.59457 0.94286 0.0
H1939 H 0.53868 0.57593 0.98532 0.0
H1940 H 0.52781 0.48427 0.97758 0.0
H1941 H 0.51272 0.47576 0.92511 0.0
C1942 C 0.50729 0.51637 0.89501 0.0
C1943 C 0.50448 0.53987 0.88291 0.0
C1944 C 0.51686 0.52094 0.92493 0.0
C1945 C 0.51214 0.5679 0.90042 0.0
C1946 C 0.52229 0.57268 0.9298 0.0
C1947 C 0.53314 0.55404 0.97225 0.0
C1948 C 0.53432 0.53078 0.98541 0.0
C1949 C 0.52433 0.54935 0.94236 0.0
C1950 C 0.52695 0.50258 0.96803 0.0
C1951 C 0.5184 0.49771 0.93801 0.0
H1952 H 0.81902 0.25137 0.11471 0.0
H1953 H 0.88059 0.23336 0.16506 0.0
H1954 H 0.86648 0.24855 0.20965 0.0
H1955 H 0.83802 0.26963 0.23422 0.0
H1956 H 0.77923 0.29274 0.18409 0.0
H1957 H 0.79092 0.27286 0.13904 0.0
C1958 C 0.82931 0.25057 0.13534 0.0
C1959 C 0.85084 0.24127 0.13654 0.0
C1960 C 0.82166 0.26045 0.16079 0.0
C1961 C 0.86401 0.24051 0.16357 0.0
C1962 C 0.85597 0.24923 0.18902 0.0
C1963 C 0.8277 0.27015 0.21338 0.0
C1964 C 0.80779 0.28251 0.21221 0.0
C1965 C 0.83505 0.25967 0.18788 0.0
C1966 C 0.79467 0.28339 0.18529 0.0
C1967 C 0.80133 0.27202 0.15967 0.0
H1968 H 0.1738 0.55837 0.45118 0.0
H1969 H 0.111 0.54988 0.38468 0.0
H1970 H 0.08626 0.55451 0.42112 0.0
H1971 H 0.08111 0.56049 0.47235 0.0
H1972 H 0.14398 0.57297 0.53998 0.0
H1973 H 0.16909 0.56762 0.50357 0.0
C1974 C 0.15473 0.55755 0.44456 0.0
C1975 C 0.1447 0.55355 0.41441 0.0
C1976 C 0.14015 0.56107 0.46628 0.0
C1977 C 0.11976 0.55295 0.40717 0.0
C1978 C 0.10532 0.55557 0.42824 0.0
C1979 C 0.10033 0.56223 0.47933 0.0
C1980 C 0.11017 0.56712 0.50955 0.0
C1981 C 0.11513 0.55962 0.45796 0.0
C1982 C 0.13539 0.56931 0.51733 0.0
C1983 C 0.14997 0.56612 0.49626 0.0
H1984 H 0.8324 0.90083 0.70205 0.0
H1985 H 0.8482 0.82779 0.65037 0.0
H1986 H 0.83634 0.79851 0.68482 0.0
H1987 H 0.82198 0.79393 0.7305 0.0
H1988 H 0.81026 0.86888 0.78409 0.0
H1989 H 0.82013 0.89702 0.74845 0.0
C1990 C 0.83298 0.8784 0.69819 0.0
C1991 C 0.84079 0.86636 0.67344 0.0
C1992 C 0.82708 0.86206 0.71871 0.0
C1993 C 0.84207 0.83749 0.66914 0.0
C1994 C 0.83535 0.82077 0.68889 0.0
C1995 C 0.82168 0.81644 0.73434 0.0
C1996 C 0.81528 0.82918 0.75992 0.0
C1997 C 0.82796 0.83285 0.7139 0.0
C1998 C 0.81517 0.85847 0.76469 0.0
C1999 C 0.82072 0.87462 0.74422 0.0
H2000 H 0.70691 0.46713 0.51362 0.0
H2001 H 0.70754 0.42669 0.58663 0.0
H2002 H 0.69216 0.46433 0.61274 0.0
H2003 H 0.68106 0.5101 0.61603 0.0
H2004 H 0.67607 0.54774 0.54091 0.0
H2005 H 0.69186 0.5106 0.51518 0.0
C2006 C 0.70338 0.46636 0.53509 0.0
C2007 C 0.70848 0.44423 0.54817 0.0
C2008 C 0.69447 0.48803 0.55001 0.0
C2009 C 0.70367 0.44341 0.57595 0.0
C2010 C 0.6951 0.46509 0.59105 0.0
C2011 C 0.68298 0.51012 0.59388 0.0
C2012 C 0.67757 0.53224 0.58085 0.0
C2013 C 0.69083 0.48776 0.57846 0.0
C2014 C 0.68079 0.5318 0.55219 0.0
C2015 C 0.68945 0.51019 0.53711 0.0
H2016 H 0.17897 0.17061 0.55122 0.0
H2017 H 0.22146 0.10786 0.54781 0.0
H2018 H 0.18779 0.07235 0.556 0.0
H2019 H 0.14643 0.05897 0.56504 0.0
H2020 H 0.10206 0.11936 0.56348 0.0
H2021 H 0.13614 0.15587 0.55674 0.0
C2022 C 0.18077 0.14912 0.55211 0.0
C2023 C 0.2028 0.14203 0.54894 0.0
C2024 C 0.16102 0.1284 0.55629 0.0
C2025 C 0.20473 0.11395 0.54995 0.0
C2026 C 0.18549 0.09359 0.55482 0.0
C2027 C 0.14426 0.08016 0.56332 0.0
C2028 C 0.12195 0.08672 0.56551 0.0
C2029 C 0.16361 0.10059 0.55821 0.0
C2030 C 0.11925 0.11404 0.56257 0.0
C2031 C 0.13869 0.13485 0.55849 0.0
H2032 H 0.23082 0.02857 0.88885 0.0
H2033 H 0.19058 0.0368 0.80798 0.0
H2034 H 0.21036 1.00463 0.78091 0.0
H2035 H 0.23754 0.97224 0.78023 0.0
H2036 H 0.27704 0.96342 0.86108 0.0
H2037 H 0.25901 0.99779 0.88817 0.0
C2038 C 0.22643 0.0235 0.8653 0.0
C2039 C 0.20914 0.035 0.85053 0.0
C2040 C 0.23766 1.00479 0.84986 0.0
C2041 C 0.20375 0.02818 0.81997 0.0
C2042 C 0.21504 1.00977 0.80443 0.0
C2043 C 0.24243 0.97819 0.80376 0.0
C2044 C 0.25848 0.96533 0.81869 0.0
C2045 C 0.23182 0.99772 0.81916 0.0
C2046 C 0.26448 0.97287 0.84918 0.0
C2047 C 0.25425 0.99254 0.86465 0.0
H2048 H 0.3212 0.94886 0.06843 0.0
H2049 H 0.33211 0.86473 0.03768 0.0
H2050 H 0.3737 0.88702 0.03439 0.0
H2051 H 0.40551 0.93073 0.03601 0.0
H2052 H 0.39345 1.01456 0.0653 0.0
H2053 H 0.35381 0.99197 0.07384 0.0
C2054 C 0.3327 0.93528 0.06128 0.0
C2055 C 0.32333 0.90516 0.05265 0.0
C2056 C 0.35636 0.94823 0.05908 0.0
C2057 C 0.33867 0.88795 0.04397 0.0
C2058 C 0.36246 0.90071 0.04205 0.0
C2059 C 0.39419 0.94402 0.0443 0.0
C2060 C 0.4023 0.97428 0.04972 0.0
C2061 C 0.37123 0.93087 0.04873 0.0
C2062 C 0.38771 0.99125 0.06109 0.0
C2063 C 0.36497 0.97835 0.06581 0.0
H2064 H 0.86026 0.64665 0.84817 0.0
H2065 H 0.91198 0.67273 0.79612 0.0
H2066 H 0.8955 0.71447 0.79136 0.0
H2067 H 0.8663 0.74543 0.80282 0.0
H2068 H 0.81228 0.71541 0.85078 0.0
H2069 H 0.82952 0.67472 0.85617 0.0
C2070 C 0.8679 0.66114 0.8354 0.0
C2071 C 0.88765 0.65554 0.82241 0.0
C2072 C 0.85783 0.68524 0.83217 0.0
C2073 C 0.8968 0.6754 0.80616 0.0
C2074 C 0.88738 0.69976 0.80362 0.0
C2075 C 0.85821 0.73004 0.81446 0.0
C2076 C 0.83766 0.73442 0.82658 0.0
C2077 C 0.8679 0.70526 0.81667 0.0
C2078 C 0.82781 0.71336 0.84115 0.0
C2079 C 0.83779 0.68975 0.84428 0.0
H2080 H 0.82481 0.61547 0.07803 0.0
H2081 H 0.86117 0.68568 0.04447 0.0
H2082 H 0.89744 0.66769 0.04747 0.0
H2083 H 0.91846 0.63074 0.05728 0.0
H2084 H 0.88233 0.56024 0.0906 0.0
H2085 H 0.84651 0.57929 0.08954 0.0
C2086 C 0.84075 0.627 0.07165 0.0
C2087 C 0.84016 0.65207 0.06124 0.0
C2088 C 0.86162 0.61623 0.07298 0.0
C2089 C 0.86101 0.66654 0.05287 0.0
C2090 C 0.88183 0.65615 0.05439 0.0
C2091 C 0.90288 0.61969 0.06463 0.0
C2092 C 0.90316 0.59391 0.07376 0.0
C2093 C 0.88228 0.63085 0.06411 0.0
C2094 C 0.88257 0.57979 0.08289 0.0
C2095 C 0.86207 0.5908 0.08251 0.0
H2096 H 0.2023 0.16371 0.85109 0.0
H2097 H 0.24489 0.17045 0.936 0.0
H2098 H 0.27767 0.20679 0.92718 0.0
H2099 H 0.29565 0.23415 0.89414 0.0
H2100 H 0.2537 0.22721 0.80908 0.0
H2101 H 0.2193 0.19366 0.8192 0.0
C2102 C 0.21857 0.17343 0.86789 0.0
C2103 C 0.22106 0.16407 0.89414 0.0
C2104 C 0.23763 0.19413 0.86252 0.0
C2105 C 0.2424 0.17699 0.91554 0.0
C2106 C 0.26126 0.19776 0.91049 0.0
C2107 C 0.27893 0.22532 0.87787 0.0
C2108 C 0.27719 0.23304 0.85089 0.0
C2109 C 0.25932 0.20599 0.88383 0.0
C2110 C 0.25538 0.22171 0.83009 0.0
C2111 C 0.23576 0.20245 0.83585 0.0
H2112 H 0.36689 1.00383 0.35636 0.0
H2113 H 0.39173 0.98627 0.27621 0.0
H2114 H 0.37151 0.93472 0.26878 0.0
H2115 H 0.34758 0.89332 0.28643 0.0
H2116 H 0.32489 0.91355 0.36792 0.0
H2117 H 0.34321 0.96435 0.37303 0.0
C2118 C 0.36786 0.989 0.337 0.0
C2119 C 0.38102 0.99971 0.31686 0.0
C2120 C 0.35649 0.95919 0.33309 0.0
C2121 C 0.38181 0.97932 0.29216 0.0
C2122 C 0.37023 0.94956 0.28796 0.0
C2123 C 0.34648 0.90883 0.3052 0.0
C2124 C 0.33464 0.89878 0.32681 0.0
C2125 C 0.35761 0.93899 0.30844 0.0
C2126 C 0.33381 0.91982 0.35092 0.0
C2127 C 0.34435 0.94926 0.35394 0.0
H2128 H 0.60378 0.4201 0.66115 0.0
H2129 H 0.5558 0.35932 0.58657 0.0
H2130 H 0.55176 0.39846 0.56249 0.0
H2131 H 0.5566 0.4502 0.56564 0.0
H2132 H 0.60317 0.51177 0.64058 0.0
H2133 H 0.61328 0.47248 0.6612 0.0
C2134 C 0.59325 0.41539 0.63918 0.0
C2135 C 0.58024 0.38672 0.62559 0.0
C2136 C 0.59031 0.43832 0.62573 0.0
C2137 C 0.56614 0.3811 0.5974 0.0
C2138 C 0.56361 0.40355 0.58372 0.0
C2139 C 0.56931 0.45508 0.58627 0.0
C2140 C 0.57903 0.48401 0.60155 0.0
C2141 C 0.57475 0.4323 0.59816 0.0
C2142 C 0.59561 0.48984 0.62814 0.0
C2143 C 0.60123 0.46727 0.64009 0.0
H2144 H 0.42122 0.76384 0.42723 0.0
H2145 H 0.4695 0.81892 0.38806 0.0
H2146 H 0.43562 0.83398 0.36445 0.0
H2147 H 0.3921 0.82953 0.35173 0.0
H2148 H 0.34245 0.77516 0.38955 0.0
H2149 H 0.37677 0.7623 0.417 0.0
C2150 C 0.42431 0.7793 0.41374 0.0
C2151 C 0.44806 0.78987 0.40932 0.0
C2152 C 0.40441 0.78807 0.39983 0.0
C2153 C 0.45158 0.81006 0.3918 0.0
C2154 C 0.43214 0.81881 0.37819 0.0
C2155 C 0.38877 0.8151 0.36624 0.0
C2156 C 0.36474 0.8032 0.3684 0.0
C2157 C 0.40847 0.80763 0.3816 0.0
C2158 C 0.36078 0.78469 0.38749 0.0
C2159 C 0.38043 0.77719 0.40305 0.0
H2160 H 0.09617 0.74552 0.14546 0.0
H2161 H 0.01962 0.73593 0.11352 0.0
H2162 H 1.01425 0.68533 0.09214 0.0
H2163 H 0.03034 0.64288 0.08424 0.0
H2164 H 0.10683 0.65142 0.11396 0.0
H2165 H 0.11307 0.70305 0.13412 0.0
C2166 C 0.07838 0.73245 0.13359 0.0
C2167 C 0.05836 0.74481 0.13145 0.0
C2168 C 0.07528 0.70297 0.12098 0.0
C2169 C 0.03546 0.72732 0.11576 0.0
C2170 C 0.03226 0.69819 0.10349 0.0
C2171 C 0.04842 0.65601 0.09505 0.0
C2172 C 0.06803 0.64318 0.0978 0.0
C2173 C 0.05192 0.68567 0.10631 0.0
C2174 C 0.09139 0.6607 0.1115 0.0
C2175 C 0.09496 0.69025 0.12314 0.0
H2176 H 0.06803 0.29792 0.87045 0.0
H2177 H 0.09261 0.28337 0.95505 0.0
H2178 H 0.13378 0.28811 0.94577 0.0
H2179 H 0.16286 0.2955 0.9129 0.0
H2180 H 0.13771 0.31107 0.82893 0.0
H2181 H 0.09693 0.30683 0.83868 0.0
C2182 C 0.08238 0.29588 0.88696 0.0
C2183 C 0.0771 0.29019 0.91339 0.0
C2184 C 0.10603 0.29876 0.88153 0.0
C2185 C 0.09607 0.28782 0.93453 0.0
C2186 C 0.11965 0.29042 0.92919 0.0
C2187 C 0.14842 0.29791 0.89679 0.0
C2188 C 0.15344 0.30371 0.87025 0.0
C2189 C 0.12484 0.29569 0.90265 0.0
C2190 C 0.1345 0.30697 0.84966 0.0
C2191 C 0.1111 0.30443 0.85517 0.0
H2192 H 0.49265 0.76688 0.96896 0.0
H2193 H 0.55428 0.76728 0.92786 0.0
H2194 H 0.56839 0.73665 0.9583 0.0
H2195 H 0.56248 0.70873 0.99567 0.0
H2196 H 0.50123 0.70928 0.03713 0.0
H2197 H 0.48768 0.74081 1.00744 0.0
C2198 C 0.50918 0.76027 0.96661 0.0
C2199 C 0.52228 0.7691 0.94601 0.0
C2200 C 0.5172 0.74289 0.98421 0.0
C2201 C 0.54386 0.76074 0.94356 0.0
C2202 C 0.55189 0.74318 0.96088 0.0
C2203 C 0.54614 0.71577 0.99808 0.0
C2204 C 0.53273 0.70668 0.01831 0.0
C2205 C 0.53858 0.73395 0.98109 0.0
C2206 C 0.51184 0.71619 0.02172 0.0
C2207 C 0.50406 0.73408 1.00471 0.0
H2208 H 0.13363 0.73614 0.7659 0.0
H2209 H 0.13428 0.82616 0.77704 0.0
H2210 H 0.17758 0.83855 0.7765 0.0
H2211 H 0.21512 0.82386 0.77236 0.0
H2212 H 0.21451 0.73381 0.76087 0.0
H2213 H 0.17128 0.72145 0.7619 0.0
C2214 C 0.14327 0.75849 0.7684 0.0
C2215 C 0.13074 0.78017 0.77155 0.0
C2216 C 0.16813 0.76547 0.7678 0.0
C2217 C 0.14348 0.80902 0.77457 0.0
C2218 C 0.16824 0.81614 0.77421 0.0
C2219 C 0.20553 0.8015 0.76995 0.0
C2220 C 0.21803 0.77981 0.7665 0.0
C2221 C 0.18071 0.79453 0.77067 0.0
C2222 C 0.20533 0.75097 0.76356 0.0
C2223 C 0.18061 0.74385 0.76419 0.0
H2224 H 0.01986 0.38455 0.51926 0.0
H2225 H 0.0339 0.4136 0.44225 0.0
H2226 H 0.05185 0.46279 0.47129 0.0
H2227 H 0.06378 0.49715 0.51838 0.0
H2228 H 0.05287 0.46797 0.59617 0.0
H2229 H 0.0335 0.41886 0.56702 0.0
C2230 C 0.02668 0.40175 0.50886 0.0
C2231 C 0.02532 0.39567 0.47865 0.0
C2232 C 0.03763 0.42971 0.52581 0.0
C2233 C 0.0347 0.41789 0.46545 0.0
C2234 C 0.04495 0.44593 0.48203 0.0
C2235 C 0.05716 0.48002 0.52896 0.0
C2236 C 0.05954 0.48601 0.5593 0.0
C2237 C 0.04657 0.45202 0.51219 0.0
C2238 C 0.05121 0.46369 0.57283 0.0
C2239 C 0.0401 0.43574 0.55617 0.0
H2240 H 0.51792 0.24889 0.34849 0.0
H2241 H 0.47257 0.20023 0.26636 0.0
H2242 H 0.43743 0.21469 0.28067 0.0
H2243 H 0.42347 0.25198 0.31015 0.0
H2244 H 0.47044 0.30543 0.38948 0.0
H2245 H 0.50097 0.27836 0.3831 0.0
C2246 C 0.5 0.24008 0.33453 0.0
C2247 C 0.49774 0.2239 0.30633 0.0
C2248 C 0.4804 0.25043 0.34204 0.0
C2249 C 0.47459 0.21274 0.28819 0.0
C2250 C 0.45462 0.22149 0.29617 0.0
C2251 C 0.44015 0.25716 0.32635 0.0
C2252 C 0.44504 0.28107 0.34977 0.0
C2253 C 0.45788 0.24215 0.32199 0.0
C2254 C 0.46642 0.2873 0.37107 0.0
C2255 C 0.48391 0.27188 0.36736 0.0
H2256 H 0.64175 0.55683 0.4516 0.0
H2257 H 0.60368 0.62006 0.43199 0.0
H2258 H 0.58058 0.61189 0.46997 0.0
H2259 H 0.56874 0.58345 0.50554 0.0
H2260 H 0.60293 0.51558 0.51963 0.0
H2261 H 0.63023 0.52881 0.48703 0.0
C2262 C 0.62877 0.5693 0.45605 0.0
C2263 C 0.62461 0.58933 0.43932 0.0
C2264 C 0.61467 0.56324 0.4766 0.0
C2265 C 0.6073 0.60475 0.44479 0.0
C2266 C 0.59402 0.59992 0.46634 0.0
C2267 C 0.58232 0.57174 0.50152 0.0
C2268 C 0.58396 0.54856 0.51473 0.0
C2269 C 0.59713 0.5787 0.48184 0.0
C2270 C 0.60134 0.53331 0.50938 0.0
C2271 C 0.61692 0.54094 0.49087 0.0
H2272 H 0.27612 0.78895 0.03365 0.0
H2273 H 0.22367 0.83358 0.06082 0.0
H2274 H 0.23874 0.83321 0.11119 0.0
H2275 H 0.26559 0.8185 0.1472 0.0
H2276 H 0.31836 0.77435 0.12036 0.0
H2277 H 0.30458 0.77668 0.07008 0.0
C2278 C 0.26832 0.79918 0.05062 0.0
C2279 C 0.24933 0.81215 0.04346 0.0
C2280 C 0.27708 0.79892 0.07956 0.0
C2281 C 0.23876 0.82415 0.0657 0.0
C2282 C 0.24729 0.82386 0.09454 0.0
C2283 C 0.27445 0.80994 0.13047 0.0
C2284 C 0.29296 0.79628 0.13748 0.0
C2285 C 0.26639 0.81124 0.10169 0.0
C2286 C 0.3039 0.78474 0.11543 0.0
C2287 C 0.29605 0.78608 0.08672 0.0
H2288 H 0.95735 0.58324 0.92475 0.0
H2289 H 1.0069 0.56408 0.86941 0.0
H2290 H 0.03402 0.55724 0.91 0.0
H2291 H 0.04521 0.55706 0.96114 0.0
H2292 H 0.997 0.57328 0.01872 0.0
H2293 H 0.96835 0.58048 0.97807 0.0
C2294 C 0.97405 0.57755 0.92156 0.0
C2295 C 0.97968 0.57436 0.89325 0.0
C2296 C 0.99008 0.57295 0.94567 0.0
C2297 C 1.00156 0.56671 0.89025 0.0
C2298 C 1.01736 0.56277 0.91371 0.0
C2299 C 0.02837 0.56202 0.96502 0.0
C2300 C 0.02359 0.56458 0.99339 0.0
C2301 C 1.01196 0.56584 0.94148 0.0
C2302 C 1.00141 0.57092 0.99739 0.0
C2303 C 0.985 0.57521 0.97395 0.0
H2304 H 0.32894 0.26954 0.64701 0.0
H2305 H 0.25754 0.21045 0.62372 0.0
H2306 H 0.25202 0.22389 0.67365 0.0
H2307 H 0.269 0.24998 0.72543 0.0
H2308 H 0.34124 0.30723 0.74745 0.0
H2309 H 0.3447 0.29706 0.69689 0.0
C2310 C 0.31199 0.25977 0.65261 0.0
C2311 C 0.29376 0.23887 0.63138 0.0
C2312 C 0.30912 0.26715 0.68149 0.0
C2313 C 0.27198 0.22658 0.63943 0.0
C2314 C 0.26882 0.23419 0.66811 0.0
C2315 C 0.28532 0.26046 0.71902 0.0
C2316 C 0.30491 0.27915 0.74041 0.0
C2317 C 0.28747 0.25408 0.68956 0.0
C2318 C 0.32598 0.29245 0.73166 0.0
C2319 C 0.32801 0.2867 0.70264 0.0
H2320 H 0.60825 0.61171 0.27049 0.0
H2321 H 0.63213 0.53376 0.26948 0.0
H2322 H 0.61841 0.51915 0.21676 0.0
H2323 H 0.59956 0.52866 0.17058 0.0
H2324 H 0.57656 0.60741 0.17268 0.0
H2325 H 0.58992 0.62129 0.22502 0.0
C2326 C 0.61048 0.59153 0.25878 0.0
C2327 C 0.62118 0.57392 0.27397 0.0
C2328 C 0.60267 0.58329 0.22849 0.0
C2329 C 0.62396 0.54782 0.25836 0.0
C2330 C 0.61609 0.53939 0.22817 0.0
C2331 C 0.59745 0.5488 0.18252 0.0
C2332 C 0.58713 0.56691 0.16755 0.0
C2333 C 0.60539 0.55696 0.21295 0.0
C2334 C 0.58459 0.59302 0.18344 0.0
C2335 C 0.59219 0.60107 0.21351 0.0
H2336 H 0.31597 0.88705 0.9498 0.0
H2337 H 0.23781 0.86698 0.92644 0.0
H2338 H 0.23941 0.85475 0.8749 0.0
H2339 H 0.26251 0.83737 0.83879 0.0
H2340 H 0.34014 0.85136 0.86472 0.0
H2341 H 0.33954 0.87852 0.91268 0.0
C2342 C 0.29937 0.88114 0.93328 0.0
C2343 C 0.27682 0.87736 0.94174 0.0
C2344 C 0.30041 0.87221 0.90412 0.0
C2345 C 0.25539 0.87001 0.92036 0.0
C2346 C 0.25631 0.8625 0.89092 0.0
C2347 C 0.27931 0.84724 0.85473 0.0
C2348 C 0.30132 0.84218 0.84868 0.0
C2349 C 0.2786 0.86155 0.8828 0.0
C2350 C 0.32302 0.85482 0.86927 0.0
C2351 C 0.32266 0.87028 0.89664 0.0
H2352 H 1.01335 0.56789 0.7506 0.0
H2353 H 0.94435 0.57324 0.70505 0.0
H2354 H 0.95939 0.56816 0.65928 0.0
H2355 H 0.9936 0.56338 0.63156 0.0
H2356 H 0.06167 0.55805 0.68036 0.0
H2357 H 0.04559 0.56185 0.7242 0.0
C2358 C 1.00127 0.5679 0.7308 0.0
C2359 C 0.97741 0.57108 0.73216 0.0
C2360 C 1.01013 0.56497 0.70443 0.0
C2361 C 0.96264 0.57083 0.70549 0.0
C2362 C 0.9714 0.56796 0.67904 0.0
C2363 C 1.00489 0.56276 0.65167 0.0
C2364 C 0.02933 0.56038 0.65168 0.0
C2365 C 0.99531 0.56512 0.67804 0.0
C2366 C 0.04314 0.55993 0.67869 0.0
C2367 C 0.03386 0.56213 0.70424 0.0
H2368 H 0.31048 0.28798 0.50612 0.0
H2369 H 0.26638 0.20596 0.45401 0.0
H2370 H 0.26777 0.2246 0.40994 0.0
H2371 H 0.28547 0.26301 0.38571 0.0
H2372 H 0.32708 0.34588 0.439 0.0
H2373 H 0.32286 0.32813 0.4827 0.0
C2374 C 0.30065 0.27439 0.48519 0.0
C2375 C 0.28834 0.24558 0.48351 0.0
C2376 C 0.30147 0.28529 0.45992 0.0
C2377 C 0.27574 0.2283 0.45611 0.0
C2378 C 0.27679 0.23888 0.43079 0.0
C2379 C 0.29318 0.27733 0.40687 0.0
C2380 C 0.30677 0.30577 0.40885 0.0
C2381 C 0.29019 0.26714 0.43231 0.0
C2382 C 0.31667 0.3239 0.43661 0.0
C2383 C 0.31427 0.31376 0.46176 0.0
H2384 H 0.35453 0.60804 0.52629 0.0
H2385 H 0.4219 0.67138 0.56899 0.0
H2386 H 0.44183 0.63313 0.57483 0.0
H2387 H 0.44075 0.58218 0.56571 0.0
H2388 H 0.37488 0.51838 0.51973 0.0
H2389 H 0.35345 0.55651 0.5173 0.0
C2390 C 0.37353 0.61348 0.53704 0.0
C2391 C 0.38665 0.6425 0.54748 0.0
C2392 C 0.38502 0.59138 0.53977 0.0
C2393 C 0.41129 0.64924 0.56112 0.0
C2394 C 0.42274 0.62739 0.56439 0.0
C2395 C 0.42153 0.57662 0.55573 0.0
C2396 C 0.4091 0.54773 0.54343 0.0
C2397 C 0.40981 0.59849 0.55366 0.0
C2398 C 0.38453 0.54061 0.52963 0.0
C2399 C 0.37242 0.56234 0.52816 0.0
H2400 H 0.9324 0.95489 0.62169 0.0
H2401 H 0.89079 1.00021 0.57242 0.0
H2402 H 0.9274 0.02544 0.55949 0.0
H2403 H 0.97147 0.03751 0.56459 0.0
H2404 H 1.01435 0.99337 0.61336 0.0
H2405 H 0.9772 0.96468 0.62371 0.0
C2406 C 0.93135 0.97004 0.60788 0.0
C2407 C 0.90875 0.97574 0.59832 0.0
C2408 C 0.95277 0.98486 0.6005 0.0
C2409 C 0.90781 0.99545 0.58036 0.0
C2410 C 0.92881 1.00999 0.5729 0.0
C2411 C 0.9727 1.02143 0.57731 0.0
C2412 C 0.99564 1.0178 0.58845 0.0
C2413 C 0.9514 1.0053 0.58326 0.0
C2414 C 0.9969 0.99666 0.60461 0.0
C2415 C 0.97565 0.98034 0.61061 0.0
H2416 H 0.87641 0.06115 0.32952 0.0
H2417 H 0.90832 0.06792 0.25448 0.0
H2418 H 0.87877 0.09337 0.23717 0.0
H2419 H 0.84677 0.1182 0.24631 0.0
H2420 H 0.81613 0.1122 0.32228 0.0
H2421 H 0.8424 0.0819 0.33634 0.0
C2422 C 0.87684 0.06795 0.30923 0.0
C2423 C 0.89479 0.06303 0.29356 0.0
C2424 C 0.86015 0.08292 0.29973 0.0
C2425 C 0.89477 0.07156 0.26706 0.0
C2426 C 0.87795 0.08623 0.25721 0.0
C2427 C 0.84555 0.10974 0.2656 0.0
C2428 C 0.82977 0.11761 0.28343 0.0
C2429 C 0.86097 0.09267 0.27378 0.0
C2430 C 0.82842 0.10674 0.30849 0.0
C2431 C 0.84338 0.08941 0.3165 0.0
H2432 H 0.77206 0.17967 0.02678 0.0
H2433 H 0.76745 0.25952 0.07929 0.0
H2434 H 0.73239 0.2333 0.09527 0.0
H2435 H 0.70486 0.18727 0.0965 0.0
H2436 H 0.71359 0.10744 0.04822 0.0
H2437 H 0.74514 0.1343 0.02819 0.0
C2438 C 0.76321 0.19157 0.04134 0.0
C2439 C 0.77234 0.22162 0.0517 0.0
C2440 C 0.74392 0.17628 0.05142 0.0
C2441 C 0.76071 0.23644 0.07083 0.0
C2442 C 0.7408 0.22142 0.08015 0.0
C2443 C 0.71383 0.17565 0.08189 0.0
C2444 C 0.70668 0.14523 0.07396 0.0
C2445 C 0.73263 0.19123 0.07109 0.0
C2446 C 0.71827 0.13076 0.05443 0.0
C2447 C 0.73648 0.14612 0.04304 0.0
H2448 H 0.26366 0.48479 0.37348 0.0
H2449 H 0.19867 0.44279 0.30824 0.0
H2450 H 0.21327 0.39897 0.29901 0.0
H2451 H 0.24453 0.37086 0.31014 0.0
H2452 H 0.31109 0.41529 0.37203 0.0
H2453 H 0.29607 0.45852 0.38148 0.0
C2454 C 0.25265 0.46627 0.35691 0.0
C2455 C 0.22973 0.46804 0.34164 0.0
C2456 C 0.26156 0.4408 0.35111 0.0
C2457 C 0.2163 0.44306 0.32035 0.0
C2458 C 0.2247 0.41758 0.31515 0.0
C2459 C 0.25587 0.38995 0.3257 0.0
C2460 C 0.27926 0.38889 0.34046 0.0
C2461 C 0.24728 0.41587 0.3305 0.0
C2462 C 0.29326 0.41464 0.36016 0.0
C2463 C 0.28455 0.43971 0.36567 0.0
H2464 H 0.2735 0.47018 0.04915 0.0
H2465 H 0.27348 0.46183 0.13731 0.0
H2466 H 0.23673 0.47935 0.13649 0.0
H2467 H 0.20494 0.49829 0.11091 0.0
H2468 H 0.20553 0.50611 0.02269 0.0
H2469 H 0.24153 0.48754 0.0234 0.0
C2470 C 0.26545 0.47205 0.0682 0.0
C2471 C 0.27638 0.46476 0.09328 0.0
C2472 C 0.24434 0.48214 0.06759 0.0
C2473 C 0.26551 0.46723 0.11766 0.0
C2474 C 0.2445 0.47736 0.11725 0.0
C2475 C 0.21301 0.49596 0.0919 0.0
C2476 C 0.2024 0.5035 0.06674 0.0
C2477 C 0.23384 0.48513 0.0924 0.0
C2478 C 0.21302 0.50012 0.0422 0.0
C2479 C 0.23373 0.48962 0.04262 0.0
H2480 H 0.88427 0.94693 0.28621 0.0
H2481 H 0.93477 0.9382 0.35853 0.0
H2482 H 0.90643 0.89393 0.36149 0.0
H2483 H 0.86526 0.86152 0.34769 0.0
H2484 H 0.81382 0.87083 0.27653 0.0
H2485 H 0.84424 0.91109 0.26904 0.0
C2486 C 0.8893 0.93469 0.30189 0.0
C2487 C 0.91168 0.9454 0.32181 0.0
C2488 C 0.87246 0.9098 0.30415 0.0
C2489 C 0.91778 0.92998 0.3427 0.0
C2490 C 0.90147 0.90488 0.3446 0.0
C2491 C 0.86088 0.87195 0.33016 0.0
C2492 C 0.83731 0.86328 0.31277 0.0
C2493 C 0.87843 0.89515 0.3261 0.0
C2494 C 0.8318 0.87727 0.29036 0.0
C2495 C 0.84921 0.90026 0.28603 0.0
H2496 H 0.71488 0.11964 0.80958 0.0
H2497 H 0.74678 0.13841 0.901 0.0
H2498 H 0.766 0.18762 0.89962 0.0
H2499 H 0.77473 0.22667 0.87293 0.0
H2500 H 0.74528 0.20794 0.78105 0.0
H2501 H 0.72468 0.15876 0.78236 0.0
C2502 C 0.72604 0.13439 0.82924 0.0
C2503 C 0.72906 0.12442 0.85542 0.0
C2504 C 0.73773 0.16338 0.82834 0.0
C2505 C 0.74388 0.14459 0.88038 0.0
C2506 C 0.755 0.17316 0.8797 0.0
C2507 C 0.7637 0.21197 0.85316 0.0
C2508 C 0.76166 0.22175 0.82692 0.0
C2509 C 0.75216 0.183 0.85388 0.0
C2510 C 0.7474 0.20164 0.80166 0.0
C2511 C 0.7355 0.17321 0.80237 0.0
loop_
_geom_bond_atom_site_label_1
_geom_bond_atom_site_label_2
_geom_bond_distance
_geom_bond_site_symmetry_2
_ccdc_geom_bond_type
Mg0 O1 2.029 1_655 S
Mg0 O7 1.986 1_655 S
Mg0 O9 2.113 . S
Mg0 O10 2.250 . S
Mg0 O13 2.012 1_655 S
O1 Mg0 2.029 1_455 S
O1 C4 1.250 . S
O2 Mg3 2.028 . S
O2 C4 1.248 1_655 S
Mg3 O2 2.028 . S
Mg3 O8 2.032 . S
Mg3 O10 2.079 . S
C4 O1 1.250 . S
C4 O2 1.248 1_455 S
C5 O6 1.264 . S
C5 O13 1.249 . S
O6 C5 1.264 . S
O7 Mg0 1.986 1_455 S
O7 C11 1.246 1_455 S
O8 Mg3 2.032 . S
O8 C11 1.259 . S
O9 Mg0 2.113 . S
O9 C12 1.252 . S
O10 Mg0 2.250 . S
O10 Mg3 2.079 . S
O10 C12 1.273 . S
C11 O7 1.246 1_655 S
C11 O8 1.259 . S
C12 O9 1.252 . S
C12 O10 1.273 . S
O13 Mg0 2.012 1_455 S
O13 C5 1.249 . S
Mg14 O15 2.028 . S
Mg14 O21 1.986 . S
Mg14 O23 2.114 . S
Mg14 O24 2.251 . S
Mg14 O27 2.010 . S
O15 Mg14 2.028 . S
O15 C18 1.250 . S
O16 Mg17 2.028 . S
O16 C18 1.248 . S
Mg17 O16 2.028 . S
Mg17 O22 2.032 . S
Mg17 O24 2.079 . S
C18 O15 1.250 . S
C18 O16 1.248 . S
C19 O20 1.264 . S
C19 O27 1.249 . S
O20 C19 1.264 . S
O21 Mg14 1.986 . S
O21 C25 1.246 . S
O22 Mg17 2.032 . S
O22 C25 1.259 . S
O23 Mg14 2.114 . S
O23 C26 1.252 . S
O24 Mg14 2.251 . S
O24 Mg17 2.079 . S
O24 C26 1.273 . S
C25 O21 1.246 . S
C25 O22 1.259 . S
C26 O23 1.252 . S
C26 O24 1.273 . S
O27 Mg14 2.010 . S
O27 C19 1.249 . S
Mg28 O29 2.028 . S
Mg28 O35 1.986 . S
Mg28 O37 2.114 . S
Mg28 O38 2.251 . S
Mg28 O41 2.010 . S
O29 Mg28 2.028 . S
O29 C32 1.250 . S
O30 Mg31 2.028 . S
O30 C32 1.248 . S
Mg31 O30 2.028 . S
Mg31 O36 2.032 . S
Mg31 O38 2.079 . S
C32 O29 1.250 . S
C32 O30 1.248 . S
C33 O34 1.264 . S
C33 O41 1.249 . S
O34 C33 1.264 . S
O35 Mg28 1.986 . S
O35 C39 1.246 . S
O36 Mg31 2.032 . S
O36 C39 1.259 . S
O37 Mg28 2.114 . S
O37 C40 1.252 . S
O38 Mg28 2.251 . S
O38 Mg31 2.079 . S
O38 C40 1.273 . S
C39 O35 1.246 . S
C39 O36 1.259 . S
C40 O37 1.252 . S
C40 O38 1.273 . S
O41 Mg28 2.010 . S
O41 C33 1.249 . S
Mg42 O43 2.028 . S
Mg42 O49 1.986 . S
Mg42 O51 2.114 . S
Mg42 O52 2.251 . S
Mg42 O55 2.010 . S
O43 Mg42 2.028 . S
O43 C46 1.250 . S
O44 Mg45 2.028 . S
O44 C46 1.248 . S
Mg45 O44 2.028 . S
Mg45 O50 2.032 . S
Mg45 O52 2.079 . S
C46 O43 1.250 . S
C46 O44 1.248 . S
C47 O48 1.264 . S
C47 O55 1.249 . S
O48 C47 1.264 . S
O49 Mg42 1.986 . S
O49 C53 1.246 . S
O50 Mg45 2.032 . S
O50 C53 1.259 . S
O51 Mg42 2.114 . S
O51 C54 1.252 . S
O52 Mg42 2.251 . S
O52 Mg45 2.079 . S
O52 C54 1.273 . S
C53 O49 1.246 . S
C53 O50 1.259 . S
C54 O51 1.252 . S
C54 O52 1.273 . S
O55 Mg42 2.010 . S
O55 C47 1.249 . S
Mg56 O57 2.028 . S
Mg56 O63 1.986 . S
Mg56 O65 2.114 . S
Mg56 O66 2.251 . S
Mg56 O69 2.010 . S
O57 Mg56 2.028 . S
O57 C60 1.250 . S
O58 Mg59 2.028 . S
O58 C60 1.248 . S
Mg59 O58 2.028 . S
Mg59 O64 2.032 . S
Mg59 O66 2.079 . S
C60 O57 1.250 . S
C60 O58 1.248 . S
C61 O62 1.264 . S
C61 O69 1.249 . S
O62 C61 1.264 . S
O63 Mg56 1.986 . S
O63 C67 1.246 . S
O64 Mg59 2.032 . S
O64 C67 1.259 . S
O65 Mg56 2.114 . S
O65 C68 1.252 . S
O66 Mg56 2.251 . S
O66 Mg59 2.079 . S
O66 C68 1.273 . S
C67 O63 1.246 . S
C67 O64 1.259 . S
C68 O65 1.252 . S
C68 O66 1.273 . S
O69 Mg56 2.010 . S
O69 C61 1.249 . S
Mg70 O71 2.028 . S
Mg70 O77 1.986 . S
Mg70 O79 2.114 . S
Mg70 O80 2.251 . S
Mg70 O83 2.010 . S
O71 Mg70 2.028 . S
O71 C74 1.250 . S
O72 Mg73 2.028 . S
O72 C74 1.248 . S
Mg73 O72 2.028 . S
Mg73 O78 2.032 . S
Mg73 O80 2.079 . S
C74 O71 1.250 . S
C74 O72 1.248 . S
C75 O76 1.264 . S
C75 O83 1.249 . S
O76 C75 1.264 . S
O77 Mg70 1.986 . S
O77 C81 1.246 . S
O78 Mg73 2.032 . S
O78 C81 1.259 . S
O79 Mg70 2.114 . S
O79 C82 1.252 . S
O80 Mg70 2.251 . S
O80 Mg73 2.079 . S
O80 C82 1.273 . S
C81 O77 1.246 . S
C81 O78 1.259 . S
C82 O79 1.252 . S
C82 O80 1.273 . S
O83 Mg70 2.010 . S
O83 C75 1.249 . S
Mg84 O85 2.028 . S
Mg84 O91 1.986 . S
Mg84 O93 2.114 . S
Mg84 O94 2.251 . S
Mg84 O97 2.010 . S
O85 Mg84 2.028 . S
O85 C88 1.250 . S
O86 Mg87 2.028 . S
O86 C88 1.248 . S
Mg87 O86 2.028 . S
Mg87 O92 2.032 . S
Mg87 O94 2.079 . S
C88 O85 1.250 . S
C88 O86 1.248 . S
C89 O90 1.264 . S
C89 O97 1.249 . S
O90 C89 1.264 . S
O91 Mg84 1.986 . S
O91 C95 1.246 . S
O92 Mg87 2.032 . S
O92 C95 1.259 . S
O93 Mg84 2.114 . S
O93 C96 1.252 . S
O94 Mg84 2.251 . S
O94 Mg87 2.079 . S
O94 C96 1.273 . S
C95 O91 1.246 . S
C95 O92 1.259 . S
C96 O93 1.252 . S
C96 O94 1.273 . S
O97 Mg84 2.010 . S
O97 C89 1.249 . S
Mg98 O99 2.028 . S
Mg98 O105 1.986 . S
Mg98 O107 2.114 1_455 S
Mg98 O108 2.251 1_455 S
Mg98 O111 2.010 . S
O99 Mg98 2.028 . S
O99 C102 1.250 . S
O100 Mg101 2.032 1_554 S
O100 C102 1.234 1_654 S
Mg101 O100 2.032 1_556 S
Mg101 O106 2.032 1_556 S
Mg101 O108 2.079 . S
C102 O99 1.250 . S
C102 O100 1.234 1_456 S
C103 O104 1.264 . S
C103 O111 1.249 . S
O104 C103 1.264 . S
O105 Mg98 1.986 . S
O105 C109 1.246 . S
O106 Mg101 2.032 1_554 S
O106 C109 1.259 1_654 S
O107 Mg98 2.114 1_655 S
O107 C110 1.252 . S
O108 Mg98 2.251 1_655 S
O108 Mg101 2.079 . S
O108 C110 1.273 . S
C109 O105 1.246 . S
C109 O106 1.259 1_456 S
C110 O107 1.252 . S
C110 O108 1.273 . S
O111 Mg98 2.010 . S
O111 C103 1.249 . S
Mg112 O113 2.028 . S
Mg112 O119 1.986 . S
Mg112 O121 2.114 . S
Mg112 O122 2.251 . S
Mg112 O125 2.010 . S
O113 Mg112 2.028 . S
O113 C116 1.250 1_545 S
O114 Mg115 2.003 1_565 S
O114 C116 1.257 . S
Mg115 O114 2.003 1_545 S
Mg115 O120 2.032 . S
Mg115 O122 2.079 . S
C116 O113 1.250 1_565 S
C116 O114 1.257 . S
C117 O118 1.264 . S
C117 O125 1.249 . S
O118 C117 1.264 . S
O119 Mg112 1.986 . S
O119 C123 1.246 . S
O120 Mg115 2.032 . S
O120 C123 1.259 . S
O121 Mg112 2.114 . S
O121 C124 1.252 . S
O122 Mg112 2.251 . S
O122 Mg115 2.079 . S
O122 C124 1.273 . S
C123 O119 1.246 . S
C123 O120 1.259 . S
C124 O121 1.252 . S
C124 O122 1.273 . S
O125 Mg112 2.010 . S
O125 C117 1.249 . S
Mg126 O127 2.028 . S
Mg126 O133 1.986 . S
Mg126 O135 2.114 . S
Mg126 O136 2.251 . S
Mg126 O139 2.010 . S
O127 Mg126 2.028 . S
O127 C130 1.250 . S
O128 Mg129 2.028 . S
O128 C130 1.248 . S
Mg129 O128 2.028 . S
Mg129 O134 2.032 . S
Mg129 O136 2.079 . S
C130 O127 1.250 . S
C130 O128 1.248 . S
C131 O132 1.264 . S
C131 O139 1.249 . S
O132 C131 1.264 . S
O133 Mg126 1.986 . S
O133 C137 1.246 . S
O134 Mg129 2.032 . S
O134 C137 1.259 . S
O135 Mg126 2.114 . S
O135 C138 1.252 . S
O136 Mg126 2.251 . S
O136 Mg129 2.079 . S
O136 C138 1.273 . S
C137 O133 1.246 . S
C137 O134 1.259 . S
C138 O135 1.252 . S
C138 O136 1.273 . S
O139 Mg126 2.010 . S
O139 C131 1.249 . S
Mg140 O141 2.028 . S
Mg140 O147 1.986 . S
Mg140 O149 2.114 . S
Mg140 O150 2.251 . S
Mg140 O153 2.010 . S
O141 Mg140 2.028 . S
O141 C144 1.250 . S
O142 Mg143 2.028 . S
O142 C144 1.248 . S
Mg143 O142 2.028 . S
Mg143 O148 2.032 . S
Mg143 O150 2.079 . S
C144 O141 1.250 . S
C144 O142 1.248 . S
C145 O146 1.264 . S
C145 O153 1.249 . S
O146 C145 1.264 . S
O147 Mg140 1.986 . S
O147 C151 1.246 . S
O148 Mg143 2.032 . S
O148 C151 1.259 . S
O149 Mg140 2.114 . S
O149 C152 1.252 . S
O150 Mg140 2.251 . S
O150 Mg143 2.079 . S
O150 C152 1.273 . S
C151 O147 1.246 . S
C151 O148 1.259 . S
C152 O149 1.252 . S
C152 O150 1.273 . S
O153 Mg140 2.010 . S
O153 C145 1.249 . S
Mg154 O155 2.028 1_554 S
Mg154 O161 1.986 . S
Mg154 O163 2.112 1_554 S
Mg154 O164 2.251 . S
Mg154 O167 2.010 . S
O155 Mg154 2.028 1_556 S
O155 C158 1.250 . S
O156 Mg157 2.028 1_556 S
O156 C158 1.248 . S
Mg157 O156 2.028 1_554 S
Mg157 O162 2.032 . S
Mg157 O164 2.079 . S
C158 O155 1.250 . S
C158 O156 1.248 . S
C159 O160 1.264 . S
C159 O167 1.249 . S
O160 C159 1.264 . S
O161 Mg154 1.986 . S
O161 C165 1.246 . S
O162 Mg157 2.032 . S
O162 C165 1.259 . S
O163 Mg154 2.112 1_556 S
O163 C166 1.251 1_556 S
O164 Mg154 2.251 . S
O164 Mg157 2.079 . S
O164 C166 1.273 . S
C165 O161 1.246 . S
C165 O162 1.259 . S
C166 O163 1.251 1_554 S
C166 O164 1.273 . S
O167 Mg154 2.010 . S
O167 C159 1.249 . S
Mg168 O169 2.028 . S
Mg168 O175 1.986 . S
Mg168 O177 2.114 . S
Mg168 O178 2.251 . S
Mg168 O181 2.010 . S
O169 Mg168 2.028 . S
O169 C172 1.250 . S
O170 Mg171 2.028 . S
O170 C172 1.248 . S
Mg171 O170 2.028 . S
Mg171 O176 2.032 . S
Mg171 O178 2.079 . S
C172 O169 1.250 . S
C172 O170 1.248 . S
C173 O174 1.264 . S
C173 O181 1.249 . S
O174 C173 1.264 . S
O175 Mg168 1.986 . S
O175 C179 1.246 . S
O176 Mg171 2.032 . S
O176 C179 1.259 . S
O177 Mg168 2.114 . S
O177 C180 1.252 . S
O178 Mg168 2.251 . S
O178 Mg171 2.079 . S
O178 C180 1.273 . S
C179 O175 1.246 . S
C179 O176 1.259 . S
C180 O177 1.252 . S
C180 O178 1.273 . S
O181 Mg168 2.010 . S
O181 C173 1.249 . S
Mg182 O183 2.028 . S
Mg182 O189 1.986 . S
Mg182 O191 2.114 . S
Mg182 O192 2.251 . S
Mg182 O195 2.010 . S
O183 Mg182 2.028 . S
O183 C186 1.250 . S
O184 Mg185 2.028 . S
O184 C186 1.248 . S
Mg185 O184 2.028 . S
Mg185 O190 2.032 . S
Mg185 O192 2.079 . S
C186 O183 1.250 . S
C186 O184 1.248 . S
C187 O188 1.264 . S
C187 O195 1.249 . S
O188 C187 1.264 . S
O189 Mg182 1.986 . S
O189 C193 1.246 . S
O190 Mg185 2.032 . S
O190 C193 1.259 . S
O191 Mg182 2.114 . S
O191 C194 1.252 . S
O192 Mg182 2.251 . S
O192 Mg185 2.079 . S
O192 C194 1.273 . S
C193 O189 1.246 . S
C193 O190 1.259 . S
C194 O191 1.252 . S
C194 O192 1.273 . S
O195 Mg182 2.010 . S
O195 C187 1.249 . S
Mg196 O197 2.028 . S
Mg196 O203 1.986 . S
Mg196 O205 2.114 . S
Mg196 O206 2.251 . S
Mg196 O209 2.010 . S
O197 Mg196 2.028 . S
O197 C200 1.250 . S
O198 Mg199 2.028 . S
O198 C200 1.248 . S
Mg199 O198 2.028 . S
Mg199 O204 2.032 . S
Mg199 O206 2.079 . S
C200 O197 1.250 . S
C200 O198 1.248 . S
C201 O202 1.264 . S
C201 O209 1.249 . S
O202 C201 1.264 . S
O203 Mg196 1.986 . S
O203 C207 1.246 . S
O204 Mg199 2.032 . S
O204 C207 1.259 . S
O205 Mg196 2.114 . S
O205 C208 1.252 . S
O206 Mg196 2.251 . S
O206 Mg199 2.079 . S
O206 C208 1.273 . S
C207 O203 1.246 . S
C207 O204 1.259 . S
C208 O205 1.252 . S
C208 O206 1.273 . S
O209 Mg196 2.010 . S
O209 C201 1.249 . S
Mg210 O211 2.028 . S
Mg210 O217 1.986 . S
Mg210 O219 2.114 . S
Mg210 O220 2.251 . S
Mg210 O223 2.010 . S
O211 Mg210 2.028 . S
O211 C214 1.250 . S
O212 Mg213 2.028 . S
O212 C214 1.248 . S
Mg213 O212 2.028 . S
Mg213 O218 2.032 . S
Mg213 O220 2.079 . S
C214 O211 1.250 . S
C214 O212 1.248 . S
C215 O216 1.264 . S
C215 O223 1.249 . S
O216 C215 1.264 . S
O217 Mg210 1.986 . S
O217 C221 1.246 . S
O218 Mg213 2.032 . S
O218 C221 1.259 . S
O219 Mg210 2.114 . S
O219 C222 1.252 . S
O220 Mg210 2.251 . S
O220 Mg213 2.079 . S
O220 C222 1.273 . S
C221 O217 1.246 . S
C221 O218 1.259 . S
C222 O219 1.252 . S
C222 O220 1.273 . S
O223 Mg210 2.010 . S
O223 C215 1.249 . S
Mg224 O225 2.028 1_545 S
Mg224 O231 1.986 . S
Mg224 O233 2.121 . S
Mg224 O234 2.251 . S
Mg224 O237 2.010 . S
O225 Mg224 2.028 1_565 S
O225 C228 1.250 . S
O226 Mg227 2.028 1_565 S
O226 C228 1.248 . S
Mg227 O226 2.028 1_545 S
Mg227 O232 2.032 . S
Mg227 O234 2.079 . S
C228 O225 1.250 . S
C228 O226 1.248 . S
C229 O230 1.264 . S
C229 O237 1.249 . S
O230 C229 1.264 . S
O231 Mg224 1.986 . S
O231 C235 1.246 . S
O232 Mg227 2.032 . S
O232 C235 1.259 . S
O233 Mg224 2.121 . S
O233 C236 1.255 . S
O234 Mg224 2.251 . S
O234 Mg227 2.079 . S
O234 C236 1.273 . S
C235 O231 1.246 . S
C235 O232 1.259 . S
C236 O233 1.255 . S
C236 O234 1.273 . S
O237 Mg224 2.010 . S
O237 C229 1.249 . S
Mg238 O239 2.028 . S
Mg238 O245 1.986 . S
Mg238 O247 2.114 . S
Mg238 O248 2.251 . S
Mg238 O251 2.010 . S
O239 Mg238 2.028 . S
O239 C242 1.250 . S
O240 Mg241 2.028 . S
O240 C242 1.248 . S
Mg241 O240 2.028 . S
Mg241 O246 2.032 . S
Mg241 O248 2.079 . S
C242 O239 1.250 . S
C242 O240 1.248 . S
C243 O244 1.264 . S
C243 O251 1.249 . S
O244 C243 1.264 . S
O245 Mg238 1.986 . S
O245 C249 1.246 . S
O246 Mg241 2.032 . S
O246 C249 1.259 . S
O247 Mg238 2.114 . S
O247 C250 1.252 . S
O248 Mg238 2.251 . S
O248 Mg241 2.079 . S
O248 C250 1.273 . S
C249 O245 1.246 . S
C249 O246 1.259 . S
C250 O247 1.252 . S
C250 O248 1.273 . S
O251 Mg238 2.010 . S
O251 C243 1.249 . S
Mg252 O253 2.028 . S
Mg252 O259 1.986 . S
Mg252 O261 2.114 . S
Mg252 O262 2.251 . S
Mg252 O265 2.010 . S
O253 Mg252 2.028 . S
O253 C256 1.250 . S
O254 Mg255 2.028 . S
O254 C256 1.248 . S
Mg255 O254 2.028 . S
Mg255 O260 2.032 . S
Mg255 O262 2.079 . S
C256 O253 1.250 . S
C256 O254 1.248 . S
C257 O258 1.264 . S
C257 O265 1.249 . S
O258 C257 1.264 . S
O259 Mg252 1.986 . S
O259 C263 1.246 . S
O260 Mg255 2.032 . S
O260 C263 1.259 . S
O261 Mg252 2.114 . S
O261 C264 1.252 . S
O262 Mg252 2.251 . S
O262 Mg255 2.079 . S
O262 C264 1.273 . S
C263 O259 1.246 . S
C263 O260 1.259 . S
C264 O261 1.252 . S
C264 O262 1.273 . S
O265 Mg252 2.010 . S
O265 C257 1.249 . S
Mg266 O267 2.028 . S
Mg266 O273 1.986 1_545 S
Mg266 O275 2.114 . S
Mg266 O276 2.251 . S
Mg266 O279 2.010 . S
O267 Mg266 2.028 . S
O267 C270 1.250 . S
O268 Mg269 2.028 . S
O268 C270 1.248 . S
Mg269 O268 2.028 . S
Mg269 O274 2.032 . S
Mg269 O276 2.079 . S
C270 O267 1.250 . S
C270 O268 1.248 . S
C271 O272 1.264 1_545 S
C271 O279 1.249 . S
O272 C271 1.264 1_565 S
O273 Mg266 1.986 1_565 S
O273 C277 1.246 . S
O274 Mg269 2.032 . S
O274 C277 1.259 1_545 S
O275 Mg266 2.114 . S
O275 C278 1.252 . S
O276 Mg266 2.251 . S
O276 Mg269 2.079 . S
O276 C278 1.273 . S
C277 O273 1.246 . S
C277 O274 1.259 1_565 S
C278 O275 1.252 . S
C278 O276 1.273 . S
O279 Mg266 2.010 . S
O279 C271 1.249 . S
Mg280 O281 2.028 . S
Mg280 O287 1.986 . S
Mg280 O289 2.114 . S
Mg280 O290 2.251 . S
Mg280 O293 2.010 . S
O281 Mg280 2.028 . S
O281 C284 1.250 . S
O282 Mg283 2.028 . S
O282 C284 1.248 . S
Mg283 O282 2.028 . S
Mg283 O288 2.032 . S
Mg283 O290 2.079 . S
C284 O281 1.250 . S
C284 O282 1.248 . S
C285 O286 1.264 . S
C285 O293 1.249 . S
O286 C285 1.264 . S
O287 Mg280 1.986 . S
O287 C291 1.246 . S
O288 Mg283 2.032 . S
O288 C291 1.259 . S
O289 Mg280 2.114 . S
O289 C292 1.252 . S
O290 Mg280 2.251 . S
O290 Mg283 2.079 . S
O290 C292 1.273 . S
C291 O287 1.246 . S
C291 O288 1.259 . S
C292 O289 1.252 . S
C292 O290 1.273 . S
O293 Mg280 2.010 . S
O293 C285 1.249 . S
Mg294 O295 2.028 . S
Mg294 O301 1.986 . S
Mg294 O303 2.114 . S
Mg294 O304 2.251 . S
Mg294 O307 2.010 . S
O295 Mg294 2.028 . S
O295 C298 1.250 . S
O296 Mg297 2.028 . S
O296 C298 1.248 . S
Mg297 O296 2.028 . S
Mg297 O302 2.032 . S
Mg297 O304 2.079 . S
C298 O295 1.250 . S
C298 O296 1.248 . S
C299 O300 1.264 . S
C299 O307 1.249 . S
O300 C299 1.264 . S
O301 Mg294 1.986 . S
O301 C305 1.246 . S
O302 Mg297 2.032 . S
O302 C305 1.259 . S
O303 Mg294 2.114 . S
O303 C306 1.252 . S
O304 Mg294 2.251 . S
O304 Mg297 2.079 . S
O304 C306 1.273 . S
C305 O301 1.246 . S
C305 O302 1.259 . S
C306 O303 1.252 . S
C306 O304 1.273 . S
O307 Mg294 2.010 . S
O307 C299 1.249 . S
Mg308 O309 2.028 . S
Mg308 O315 1.986 . S
Mg308 O317 2.114 . S
Mg308 O318 2.251 . S
Mg308 O321 2.010 . S
O309 Mg308 2.028 . S
O309 C312 1.250 . S
O310 Mg311 2.028 . S
O310 C312 1.248 . S
Mg311 O310 2.028 . S
Mg311 O316 2.032 . S
Mg311 O318 2.079 . S
C312 O309 1.250 . S
C312 O310 1.248 . S
C313 O314 1.264 . S
C313 O321 1.249 . S
O314 C313 1.264 . S
O315 Mg308 1.986 . S
O315 C319 1.246 . S
O316 Mg311 2.032 . S
O316 C319 1.259 . S
O317 Mg308 2.114 . S
O317 C320 1.252 . S
O318 Mg308 2.251 . S
O318 Mg311 2.079 . S
O318 C320 1.273 . S
C319 O315 1.246 . S
C319 O316 1.259 . S
C320 O317 1.252 . S
C320 O318 1.273 . S
O321 Mg308 2.010 . S
O321 C313 1.249 . S
Mg322 O323 2.028 . S
Mg322 O329 1.986 . S
Mg322 O331 2.114 . S
Mg322 O332 2.251 . S
Mg322 O335 2.010 . S
O323 Mg322 2.028 . S
O323 C326 1.250 . S
O324 Mg325 2.028 . S
O324 C326 1.248 . S
Mg325 O324 2.028 . S
Mg325 O330 2.032 . S
Mg325 O332 2.079 . S
C326 O323 1.250 . S
C326 O324 1.248 . S
C327 O328 1.264 . S
C327 O335 1.249 . S
O328 C327 1.264 . S
O329 Mg322 1.986 . S
O329 C333 1.246 . S
O330 Mg325 2.032 . S
O330 C333 1.259 . S
O331 Mg322 2.114 . S
O331 C334 1.252 . S
O332 Mg322 2.251 . S
O332 Mg325 2.079 . S
O332 C334 1.273 . S
C333 O329 1.246 . S
C333 O330 1.259 . S
C334 O331 1.252 . S
C334 O332 1.273 . S
O335 Mg322 2.010 . S
O335 C327 1.249 . S
Tb336 C338 2.809 . S
Tb336 O356 2.484 . S
Tb336 O357 2.440 . S
Tb336 O358 2.658 1_655 S
Tb336 O359 2.409 1_654 S
Tb336 O360 2.378 1_655 S
Tb336 O364 2.325 1_655 S
Tb336 O367 2.341 1_645 S
Tb337 C347 2.809 . S
Tb337 O358 2.325 . S
Tb337 O361 2.341 . S
Tb337 O362 2.484 . S
Tb337 O363 2.440 . S
Tb337 O364 2.658 . S
Tb337 O365 2.409 . S
Tb337 O366 2.378 1_545 S
C338 Tb336 2.809 . S
C338 C339 1.514 . S
C338 O356 1.248 . S
C338 O357 1.266 . S
C339 C338 1.514 . S
C339 C340 1.359 . S
C339 C344 1.348 . S
C340 C339 1.359 . S
C340 C341 1.380 . S
C340 H368 0.929 . S
C341 C340 1.380 . S
C341 C342 1.347 . S
C341 H369 0.931 . S
C342 C341 1.347 . S
C342 C343 1.369 1_554 S
C343 C342 1.369 1_556 S
C343 C344 1.408 1_556 S
C343 H370 0.930 . S
C344 C339 1.348 . S
C344 C343 1.408 1_554 S
C344 H371 0.930 1_554 S
C345 O358 1.281 . S
C345 O359 1.254 1_554 S
C346 O360 1.236 . S
C346 O361 1.266 . S
C347 Tb337 2.809 . S
C347 C348 1.514 1_545 S
C347 O362 1.248 . S
C347 O363 1.266 . S
C348 C347 1.514 1_565 S
C348 C349 1.359 . S
C348 C353 1.348 . S
C349 C348 1.359 . S
C349 C350 1.380 . S
C349 H372 0.929 . S
C350 C349 1.380 . S
C350 C351 1.347 . S
C350 H373 0.931 . S
C351 C350 1.347 . S
C351 C352 1.369 . S
C352 C351 1.369 . S
C352 C353 1.408 . S
C352 H374 0.930 . S
C353 C348 1.348 . S
C353 C352 1.408 . S
C353 H375 0.930 . S
C354 O364 1.281 . S
C354 O365 1.254 . S
C355 O366 1.236 . S
C355 O367 1.266 . S
O356 Tb336 2.484 . S
O356 C338 1.248 . S
O357 Tb336 2.440 . S
O357 C338 1.266 . S
O358 Tb336 2.658 1_455 S
O358 Tb337 2.325 . S
O358 C345 1.281 . S
O359 Tb336 2.409 1_456 S
O359 C345 1.254 1_556 S
O360 Tb336 2.378 1_455 S
O360 C346 1.236 . S
O361 Tb337 2.341 . S
O361 C346 1.266 . S
O362 Tb337 2.484 . S
O362 C347 1.248 . S
O363 Tb337 2.440 . S
O363 C347 1.266 . S
O364 Tb336 2.325 1_455 S
O364 Tb337 2.658 . S
O364 C354 1.281 . S
O365 Tb337 2.409 . S
O365 C354 1.254 . S
O366 Tb337 2.378 1_565 S
O366 C355 1.236 . S
O367 Tb336 2.341 1_465 S
O367 C355 1.266 . S
H368 C340 0.929 . S
H369 C341 0.931 . S
H370 C343 0.930 . S
H371 C344 0.930 1_556 S
H372 C349 0.929 . S
H373 C350 0.931 . S
H374 C352 0.930 . S
H375 C353 0.930 . S
Tb376 C378 2.809 . S
Tb376 O396 2.484 . S
Tb376 O397 2.440 . S
Tb376 O398 2.658 . S
Tb376 O399 2.409 . S
Tb376 O400 2.378 . S
Tb376 O404 2.325 . S
Tb376 O407 2.341 . S
Tb377 C387 2.809 . S
Tb377 O398 2.325 . S
Tb377 O401 2.341 . S
Tb377 O402 2.484 . S
Tb377 O403 2.440 . S
Tb377 O404 2.658 . S
Tb377 O405 2.409 . S
Tb377 O406 2.378 . S
C378 Tb376 2.809 . S
C378 C379 1.514 . S
C378 O396 1.248 . S
C378 O397 1.266 . S
C379 C378 1.514 . S
C379 C380 1.359 . S
C379 C384 1.348 . S
C380 C379 1.359 . S
C380 C381 1.380 . S
C380 H408 0.929 . S
C381 C380 1.380 . S
C381 C382 1.347 . S
C381 H409 0.931 . S
C382 C381 1.347 . S
C382 C383 1.369 . S
C383 C382 1.369 . S
C383 C384 1.408 . S
C383 H410 0.930 . S
C384 C379 1.348 . S
C384 C383 1.408 . S
C384 H411 0.930 . S
C385 O398 1.281 . S
C385 O399 1.254 . S
C386 O400 1.236 . S
C386 O401 1.266 . S
C387 Tb377 2.809 . S
C387 C388 1.514 . S
C387 O402 1.248 . S
C387 O403 1.266 . S
C388 C387 1.514 . S
C388 C389 1.359 . S
C388 C393 1.348 . S
C389 C388 1.359 . S
C389 C390 1.380 . S
C389 H412 0.929 . S
C390 C389 1.380 . S
C390 C391 1.347 . S
C390 H413 0.931 . S
C391 C390 1.347 . S
C391 C392 1.369 . S
C392 C391 1.369 . S
C392 C393 1.408 . S
C392 H414 0.930 . S
C393 C388 1.348 . S
C393 C392 1.408 . S
C393 H415 0.930 . S
C394 O404 1.281 . S
C394 O405 1.254 . S
C395 O406 1.236 . S
C395 O407 1.266 . S
O396 Tb376 2.484 . S
O396 C378 1.248 . S
O397 Tb376 2.440 . S
O397 C378 1.266 . S
O398 Tb376 2.658 . S
O398 Tb377 2.325 . S
O398 C385 1.281 . S
O399 Tb376 2.409 . S
O399 C385 1.254 . S
O400 Tb376 2.378 . S
O400 C386 1.236 . S
O401 Tb377 2.341 . S
O401 C386 1.266 . S
O402 Tb377 2.484 . S
O402 C387 1.248 . S
O403 Tb377 2.440 . S
O403 C387 1.266 . S
O404 Tb376 2.325 . S
O404 Tb377 2.658 . S
O404 C394 1.281 . S
O405 Tb377 2.409 . S
O405 C394 1.254 . S
O406 Tb377 2.378 . S
O406 C395 1.236 . S
O407 Tb376 2.341 . S
O407 C395 1.266 . S
H408 C380 0.929 . S
H409 C381 0.931 . S
H410 C383 0.930 . S
H411 C384 0.930 . S
H412 C389 0.929 . S
H413 C390 0.931 . S
H414 C392 0.930 . S
H415 C393 0.930 . S
Tb416 C418 2.809 . S
Tb416 O436 2.484 . S
Tb416 O437 2.440 . S
Tb416 O438 2.658 . S
Tb416 O439 2.409 . S
Tb416 O440 2.378 1_545 S
Tb416 O444 2.325 . S
Tb416 O447 2.341 . S
Tb417 C427 2.809 . S
Tb417 O438 2.325 . S
Tb417 O441 2.341 1_545 S
Tb417 O442 2.484 . S
Tb417 O443 2.440 . S
Tb417 O444 2.658 . S
Tb417 O445 2.409 . S
Tb417 O446 2.378 . S
C418 Tb416 2.809 . S
C418 C419 1.514 1_545 S
C418 O436 1.248 . S
C418 O437 1.266 . S
C419 C418 1.514 1_565 S
C419 C420 1.359 . S
C419 C424 1.348 . S
C420 C419 1.359 . S
C420 C421 1.380 . S
C420 H448 0.929 . S
C421 C420 1.380 . S
C421 C422 1.347 . S
C421 H449 0.931 . S
C422 C421 1.347 . S
C422 C423 1.369 . S
C423 C422 1.369 . S
C423 C424 1.408 . S
C423 H450 0.930 . S
C424 C419 1.348 . S
C424 C423 1.408 . S
C424 H451 0.930 . S
C425 O438 1.281 . S
C425 O439 1.254 . S
C426 O440 1.236 . S
C426 O441 1.266 . S
C427 Tb417 2.809 . S
C427 C428 1.514 . S
C427 O442 1.248 . S
C427 O443 1.266 . S
C428 C427 1.514 . S
C428 C429 1.359 . S
C428 C433 1.348 . S
C429 C428 1.359 . S
C429 C430 1.380 . S
C429 H452 0.929 . S
C430 C429 1.380 . S
C430 C431 1.347 . S
C430 H453 0.931 . S
C431 C430 1.347 . S
C431 C432 1.369 . S
C432 C431 1.369 . S
C432 C433 1.408 . S
C432 H454 0.930 . S
C433 C428 1.348 . S
C433 C432 1.408 . S
C433 H455 0.930 . S
C434 O444 1.281 . S
C434 O445 1.254 . S
C435 O446 1.236 . S
C435 O447 1.266 . S
O436 Tb416 2.484 . S
O436 C418 1.248 . S
O437 Tb416 2.440 . S
O437 C418 1.266 . S
O438 Tb416 2.658 . S
O438 Tb417 2.325 . S
O438 C425 1.281 . S
O439 Tb416 2.409 . S
O439 C425 1.254 . S
O440 Tb416 2.378 1_565 S
O440 C426 1.236 . S
O441 Tb417 2.341 1_565 S
O441 C426 1.266 . S
O442 Tb417 2.484 . S
O442 C427 1.248 . S
O443 Tb417 2.440 . S
O443 C427 1.266 . S
O444 Tb416 2.325 . S
O444 Tb417 2.658 . S
O444 C434 1.281 . S
O445 Tb417 2.409 . S
O445 C434 1.254 . S
O446 Tb417 2.378 . S
O446 C435 1.236 . S
O447 Tb416 2.341 . S
O447 C435 1.266 . S
H448 C420 0.929 . S
H449 C421 0.931 . S
H450 C423 0.930 . S
H451 C424 0.930 . S
H452 C429 0.929 . S
H453 C430 0.931 . S
H454 C432 0.930 . S
H455 C433 0.930 . S
Tb456 C458 2.809 . S
Tb456 O476 2.484 . S
Tb456 O477 2.440 . S
Tb456 O478 2.658 . S
Tb456 O479 2.409 . S
Tb456 O480 2.378 . S
Tb456 O484 2.325 . S
Tb456 O487 2.341 . S
Tb457 C467 2.809 . S
Tb457 O478 2.325 . S
Tb457 O481 2.341 . S
Tb457 O482 2.484 . S
Tb457 O483 2.440 . S
Tb457 O484 2.658 . S
Tb457 O485 2.409 . S
Tb457 O486 2.378 . S
C458 Tb456 2.809 . S
C458 C459 1.514 . S
C458 O476 1.248 . S
C458 O477 1.266 . S
C459 C458 1.514 . S
C459 C460 1.359 . S
C459 C464 1.348 . S
C460 C459 1.359 . S
C460 C461 1.380 . S
C460 H488 0.929 . S
C461 C460 1.380 . S
C461 C462 1.347 . S
C461 H489 0.931 . S
C462 C461 1.347 . S
C462 C463 1.369 . S
C463 C462 1.369 . S
C463 C464 1.408 . S
C463 H490 0.930 . S
C464 C459 1.348 . S
C464 C463 1.408 . S
C464 H491 0.930 . S
C465 O478 1.281 . S
C465 O479 1.254 . S
C466 O480 1.236 . S
C466 O481 1.266 . S
C467 Tb457 2.809 . S
C467 C468 1.514 . S
C467 O482 1.248 . S
C467 O483 1.266 . S
C468 C467 1.514 . S
C468 C469 1.359 . S
C468 C473 1.348 . S
C469 C468 1.359 . S
C469 C470 1.380 . S
C469 H492 0.929 . S
C470 C469 1.380 . S
C470 C471 1.347 . S
C470 H493 0.931 . S
C471 C470 1.347 . S
C471 C472 1.369 . S
C472 C471 1.369 . S
C472 C473 1.408 . S
C472 H494 0.930 . S
C473 C468 1.348 . S
C473 C472 1.408 . S
C473 H495 0.930 . S
C474 O484 1.281 . S
C474 O485 1.254 . S
C475 O486 1.236 . S
C475 O487 1.266 . S
O476 Tb456 2.484 . S
O476 C458 1.248 . S
O477 Tb456 2.440 . S
O477 C458 1.266 . S
O478 Tb456 2.658 . S
O478 Tb457 2.325 . S
O478 C465 1.281 . S
O479 Tb456 2.409 . S
O479 C465 1.254 . S
O480 Tb456 2.378 . S
O480 C466 1.236 . S
O481 Tb457 2.341 . S
O481 C466 1.266 . S
O482 Tb457 2.484 . S
O482 C467 1.248 . S
O483 Tb457 2.440 . S
O483 C467 1.266 . S
O484 Tb456 2.325 . S
O484 Tb457 2.658 . S
O484 C474 1.281 . S
O485 Tb457 2.409 . S
O485 C474 1.254 . S
O486 Tb457 2.378 . S
O486 C475 1.236 . S
O487 Tb456 2.341 . S
O487 C475 1.266 . S
H488 C460 0.929 . S
H489 C461 0.931 . S
H490 C463 0.930 . S
H491 C464 0.930 . S
H492 C469 0.929 . S
H493 C470 0.931 . S
H494 C472 0.930 . S
H495 C473 0.930 . S
Tb496 C498 2.809 . S
Tb496 O516 2.484 . S
Tb496 O517 2.440 1_455 S
Tb496 O518 2.658 . S
Tb496 O519 2.409 1_455 S
Tb496 O520 2.378 . S
Tb496 O524 2.325 . S
Tb496 O527 2.341 . S
Tb497 C507 2.809 . S
Tb497 O518 2.325 1_565 S
Tb497 O521 2.341 1_565 S
Tb497 O522 2.484 . S
Tb497 O523 2.440 . S
Tb497 O524 2.658 1_565 S
Tb497 O525 2.409 1_565 S
Tb497 O526 2.378 1_565 S
C498 Tb496 2.809 . S
C498 C499 1.514 . S
C498 O516 1.248 . S
C498 O517 1.266 1_455 S
C499 C498 1.514 . S
C499 C500 1.359 . S
C499 C504 1.348 1_455 S
C500 C499 1.359 . S
C500 C501 1.380 . S
C500 H528 0.929 . S
C501 C500 1.380 . S
C501 C502 1.347 1_455 S
C501 H529 0.931 . S
C502 C501 1.347 1_655 S
C502 C503 1.369 . S
C503 C502 1.369 . S
C503 C504 1.408 . S
C503 H530 0.930 . S
C504 C499 1.348 1_655 S
C504 C503 1.408 . S
C504 H531 0.930 . S
C505 O518 1.281 1_655 S
C505 O519 1.254 . S
C506 O520 1.236 . S
C506 O521 1.266 . S
C507 Tb497 2.809 . S
C507 C508 1.514 . S
C507 O522 1.248 . S
C507 O523 1.266 . S
C508 C507 1.514 . S
C508 C509 1.359 . S
C508 C513 1.348 . S
C509 C508 1.359 . S
C509 C510 1.380 . S
C509 H532 0.929 . S
C510 C509 1.380 . S
C510 C511 1.347 . S
C510 H533 0.931 . S
C511 C510 1.347 . S
C511 C512 1.369 . S
C512 C511 1.369 . S
C512 C513 1.408 . S
C512 H534 0.930 . S
C513 C508 1.348 . S
C513 C512 1.408 . S
C513 H535 0.930 . S
C514 O524 1.281 . S
C514 O525 1.254 . S
C515 O526 1.236 . S
C515 O527 1.266 . S
O516 Tb496 2.484 . S
O516 C498 1.248 . S
O517 Tb496 2.440 1_655 S
O517 C498 1.266 1_655 S
O518 Tb496 2.658 . S
O518 Tb497 2.325 1_545 S
O518 C505 1.281 1_455 S
O519 Tb496 2.409 1_655 S
O519 C505 1.254 . S
O520 Tb496 2.378 . S
O520 C506 1.236 . S
O521 Tb497 2.341 1_545 S
O521 C506 1.266 . S
O522 Tb497 2.484 . S
O522 C507 1.248 . S
O523 Tb497 2.440 . S
O523 C507 1.266 . S
O524 Tb496 2.325 . S
O524 Tb497 2.658 1_545 S
O524 C514 1.281 . S
O525 Tb497 2.409 1_545 S
O525 C514 1.254 . S
O526 Tb497 2.378 1_545 S
O526 C515 1.236 . S
O527 Tb496 2.341 . S
O527 C515 1.266 . S
H528 C500 0.929 . S
H529 C501 0.931 . S
H530 C503 0.930 . S
H531 C504 0.930 . S
H532 C509 0.929 . S
H533 C510 0.931 . S
H534 C512 0.930 . S
H535 C513 0.930 . S
Tb536 C538 2.809 . S
Tb536 O556 2.484 . S
Tb536 O557 2.440 . S
Tb536 O558 2.658 . S
Tb536 O559 2.409 . S
Tb536 O560 2.378 . S
Tb536 O564 2.325 . S
Tb536 O567 2.341 . S
Tb537 C547 2.809 . S
Tb537 O558 2.325 . S
Tb537 O561 2.341 . S
Tb537 O562 2.484 . S
Tb537 O563 2.440 . S
Tb537 O564 2.658 . S
Tb537 O565 2.409 . S
Tb537 O566 2.378 . S
C538 Tb536 2.809 . S
C538 C539 1.514 . S
C538 O556 1.248 . S
C538 O557 1.266 . S
C539 C538 1.514 . S
C539 C540 1.359 . S
C539 C544 1.348 . S
C540 C539 1.359 . S
C540 C541 1.380 . S
C540 H568 0.929 . S
C541 C540 1.380 . S
C541 C542 1.347 . S
C541 H569 0.931 . S
C542 C541 1.347 . S
C542 C543 1.369 . S
C543 C542 1.369 . S
C543 C544 1.408 . S
C543 H570 0.930 . S
C544 C539 1.348 . S
C544 C543 1.408 . S
C544 H571 0.930 . S
C545 O558 1.281 . S
C545 O559 1.254 . S
C546 O560 1.236 . S
C546 O561 1.266 . S
C547 Tb537 2.809 . S
C547 C548 1.514 . S
C547 O562 1.248 . S
C547 O563 1.266 . S
C548 C547 1.514 . S
C548 C549 1.359 . S
C548 C553 1.348 . S
C549 C548 1.359 . S
C549 C550 1.380 . S
C549 H572 0.929 . S
C550 C549 1.380 . S
C550 C551 1.347 . S
C550 H573 0.931 . S
C551 C550 1.347 . S
C551 C552 1.369 . S
C552 C551 1.369 . S
C552 C553 1.408 . S
C552 H574 0.930 . S
C553 C548 1.348 . S
C553 C552 1.408 . S
C553 H575 0.930 . S
C554 O564 1.281 . S
C554 O565 1.254 . S
C555 O566 1.236 . S
C555 O567 1.266 . S
O556 Tb536 2.484 . S
O556 C538 1.248 . S
O557 Tb536 2.440 . S
O557 C538 1.266 . S
O558 Tb536 2.658 . S
O558 Tb537 2.325 . S
O558 C545 1.281 . S
O559 Tb536 2.409 . S
O559 C545 1.254 . S
O560 Tb536 2.378 . S
O560 C546 1.236 . S
O561 Tb537 2.341 . S
O561 C546 1.266 . S
O562 Tb537 2.484 . S
O562 C547 1.248 . S
O563 Tb537 2.440 . S
O563 C547 1.266 . S
O564 Tb536 2.325 . S
O564 Tb537 2.658 . S
O564 C554 1.281 . S
O565 Tb537 2.409 . S
O565 C554 1.254 . S
O566 Tb537 2.378 . S
O566 C555 1.236 . S
O567 Tb536 2.341 . S
O567 C555 1.266 . S
H568 C540 0.929 . S
H569 C541 0.931 . S
H570 C543 0.930 . S
H571 C544 0.930 . S
H572 C549 0.929 . S
H573 C550 0.931 . S
H574 C552 0.930 . S
H575 C553 0.930 . S
Tb576 C578 2.809 . S
Tb576 O596 2.484 1_545 S
Tb576 O597 2.440 . S
Tb576 O598 2.658 . S
Tb576 O599 2.409 . S
Tb576 O600 2.378 . S
Tb576 O604 2.325 1_545 S
Tb576 O607 2.341 . S
Tb577 C587 2.809 . S
Tb577 O598 2.325 . S
Tb577 O601 2.341 . S
Tb577 O602 2.484 . S
Tb577 O603 2.440 . S
Tb577 O604 2.658 1_545 S
Tb577 O605 2.409 1_545 S
Tb577 O606 2.378 . S
C578 Tb576 2.809 . S
C578 C579 1.514 1_545 S
C578 O596 1.248 1_545 S
C578 O597 1.266 . S
C579 C578 1.514 1_565 S
C579 C580 1.359 . S
C579 C584 1.348 1_565 S
C580 C579 1.359 . S
C580 C581 1.380 . S
C580 H608 0.929 . S
C581 C580 1.380 . S
C581 C582 1.347 . S
C581 H609 0.931 . S
C582 C581 1.347 . S
C582 C583 1.369 . S
C583 C582 1.369 . S
C583 C584 1.408 1_565 S
C583 H610 0.930 1_565 S
C584 C579 1.348 1_545 S
C584 C583 1.408 1_545 S
C584 H611 0.930 . S
C585 O598 1.281 . S
C585 O599 1.254 . S
C586 O600 1.236 . S
C586 O601 1.266 . S
C587 Tb577 2.809 . S
C587 C588 1.514 . S
C587 O602 1.248 . S
C587 O603 1.266 . S
C588 C587 1.514 . S
C588 C589 1.359 . S
C588 C593 1.348 . S
C589 C588 1.359 . S
C589 C590 1.380 . S
C589 H612 0.929 . S
C590 C589 1.380 . S
C590 C591 1.347 . S
C590 H613 0.931 . S
C591 C590 1.347 . S
C591 C592 1.369 . S
C592 C591 1.369 . S
C592 C593 1.408 . S
C592 H614 0.930 . S
C593 C588 1.348 . S
C593 C592 1.408 . S
C593 H615 0.930 . S
C594 O604 1.281 . S
C594 O605 1.254 . S
C595 O606 1.236 . S
C595 O607 1.266 . S
O596 Tb576 2.484 1_565 S
O596 C578 1.248 1_565 S
O597 Tb576 2.440 . S
O597 C578 1.266 . S
O598 Tb576 2.658 . S
O598 Tb577 2.325 . S
O598 C585 1.281 . S
O599 Tb576 2.409 . S
O599 C585 1.254 . S
O600 Tb576 2.378 . S
O600 C586 1.236 . S
O601 Tb577 2.341 . S
O601 C586 1.266 . S
O602 Tb577 2.484 . S
O602 C587 1.248 . S
O603 Tb577 2.440 . S
O603 C587 1.266 . S
O604 Tb576 2.325 1_565 S
O604 Tb577 2.658 1_565 S
O604 C594 1.281 . S
O605 Tb577 2.409 1_565 S
O605 C594 1.254 . S
O606 Tb577 2.378 . S
O606 C595 1.236 . S
O607 Tb576 2.341 . S
O607 C595 1.266 . S
H608 C580 0.929 . S
H609 C581 0.931 . S
H610 C583 0.930 1_545 S
H611 C584 0.930 . S
H612 C589 0.929 . S
H613 C590 0.931 . S
H614 C592 0.930 . S
H615 C593 0.930 . S
Tb616 C618 2.809 . S
Tb616 O636 2.484 . S
Tb616 O637 2.440 . S
Tb616 O638 2.658 . S
Tb616 O639 2.409 . S
Tb616 O640 2.378 . S
Tb616 O644 2.325 . S
Tb616 O647 2.341 . S
Tb617 C627 2.809 . S
Tb617 O638 2.325 . S
Tb617 O641 2.341 . S
Tb617 O642 2.484 . S
Tb617 O643 2.440 . S
Tb617 O644 2.658 . S
Tb617 O645 2.409 . S
Tb617 O646 2.378 . S
C618 Tb616 2.809 . S
C618 C619 1.514 . S
C618 O636 1.248 . S
C618 O637 1.266 . S
C619 C618 1.514 . S
C619 C620 1.359 . S
C619 C624 1.348 . S
C620 C619 1.359 . S
C620 C621 1.380 . S
C620 H648 0.929 . S
C621 C620 1.380 . S
C621 C622 1.347 . S
C621 H649 0.931 . S
C622 C621 1.347 . S
C622 C623 1.369 . S
C623 C622 1.369 . S
C623 C624 1.408 . S
C623 H650 0.930 . S
C624 C619 1.348 . S
C624 C623 1.408 . S
C624 H651 0.930 . S
C625 O638 1.281 . S
C625 O639 1.254 . S
C626 O640 1.236 . S
C626 O641 1.266 . S
C627 Tb617 2.809 . S
C627 C628 1.514 . S
C627 O642 1.248 . S
C627 O643 1.266 . S
C628 C627 1.514 . S
C628 C629 1.359 . S
C628 C633 1.348 . S
C629 C628 1.359 . S
C629 C630 1.380 . S
C629 H652 0.929 . S
C630 C629 1.380 . S
C630 C631 1.347 . S
C630 H653 0.931 . S
C631 C630 1.347 . S
C631 C632 1.369 . S
C632 C631 1.369 . S
C632 C633 1.408 . S
C632 H654 0.930 . S
C633 C628 1.348 . S
C633 C632 1.408 . S
C633 H655 0.930 . S
C634 O644 1.281 . S
C634 O645 1.254 . S
C635 O646 1.236 . S
C635 O647 1.266 . S
O636 Tb616 2.484 . S
O636 C618 1.248 . S
O637 Tb616 2.440 . S
O637 C618 1.266 . S
O638 Tb616 2.658 . S
O638 Tb617 2.325 . S
O638 C625 1.281 . S
O639 Tb616 2.409 . S
O639 C625 1.254 . S
O640 Tb616 2.378 . S
O640 C626 1.236 . S
O641 Tb617 2.341 . S
O641 C626 1.266 . S
O642 Tb617 2.484 . S
O642 C627 1.248 . S
O643 Tb617 2.440 . S
O643 C627 1.266 . S
O644 Tb616 2.325 . S
O644 Tb617 2.658 . S
O644 C634 1.281 . S
O645 Tb617 2.409 . S
O645 C634 1.254 . S
O646 Tb617 2.378 . S
O646 C635 1.236 . S
O647 Tb616 2.341 . S
O647 C635 1.266 . S
H648 C620 0.929 . S
H649 C621 0.931 . S
H650 C623 0.930 . S
H651 C624 0.930 . S
H652 C629 0.929 . S
H653 C630 0.931 . S
H654 C632 0.930 . S
H655 C633 0.930 . S
Tb656 C658 2.809 . S
Tb656 O676 2.484 . S
Tb656 O677 2.440 . S
Tb656 O678 2.658 . S
Tb656 O679 2.409 . S
Tb656 O680 2.378 . S
Tb656 O684 2.325 . S
Tb656 O687 2.341 . S
Tb657 C667 2.809 . S
Tb657 O678 2.325 . S
Tb657 O681 2.341 . S
Tb657 O682 2.484 . S
Tb657 O683 2.440 . S
Tb657 O684 2.658 . S
Tb657 O685 2.409 . S
Tb657 O686 2.378 . S
C658 Tb656 2.809 . S
C658 C659 1.514 . S
C658 O676 1.248 . S
C658 O677 1.266 . S
C659 C658 1.514 . S
C659 C660 1.359 . S
C659 C664 1.348 . S
C660 C659 1.359 . S
C660 C661 1.380 1_554 S
C660 H688 0.929 . S
C661 C660 1.380 1_556 S
C661 C662 1.347 . S
C661 H689 0.931 . S
C662 C661 1.347 . S
C662 C663 1.377 . S
C663 C662 1.377 . S
C663 C664 1.401 1_556 S
C663 H690 0.930 . S
C664 C659 1.348 . S
C664 C663 1.401 1_554 S
C664 H691 0.930 . S
C665 O678 1.281 . S
C665 O679 1.254 . S
C666 O680 1.236 . S
C666 O681 1.266 . S
C667 Tb657 2.809 . S
C667 C668 1.514 . S
C667 O682 1.248 . S
C667 O683 1.266 . S
C668 C667 1.514 . S
C668 C669 1.359 . S
C668 C673 1.348 . S
C669 C668 1.359 . S
C669 C670 1.380 . S
C669 H692 0.929 . S
C670 C669 1.380 . S
C670 C671 1.347 . S
C670 H693 0.931 . S
C671 C670 1.347 . S
C671 C672 1.369 . S
C672 C671 1.369 . S
C672 C673 1.408 . S
C672 H694 0.930 . S
C673 C668 1.348 . S
C673 C672 1.408 . S
C673 H695 0.930 . S
C674 O684 1.281 . S
C674 O685 1.254 . S
C675 O686 1.236 . S
C675 O687 1.266 . S
O676 Tb656 2.484 . S
O676 C658 1.248 . S
O677 Tb656 2.440 . S
O677 C658 1.266 . S
O678 Tb656 2.658 . S
O678 Tb657 2.325 . S
O678 C665 1.281 . S
O679 Tb656 2.409 . S
O679 C665 1.254 . S
O680 Tb656 2.378 . S
O680 C666 1.236 . S
O681 Tb657 2.341 . S
O681 C666 1.266 . S
O682 Tb657 2.484 . S
O682 C667 1.248 . S
O683 Tb657 2.440 . S
O683 C667 1.266 . S
O684 Tb656 2.325 . S
O684 Tb657 2.658 . S
O684 C674 1.281 . S
O685 Tb657 2.409 . S
O685 C674 1.254 . S
O686 Tb657 2.378 . S
O686 C675 1.236 . S
O687 Tb656 2.341 . S
O687 C675 1.266 . S
H688 C660 0.929 . S
H689 C661 0.931 . S
H690 C663 0.930 . S
H691 C664 0.930 . S
H692 C669 0.929 . S
H693 C670 0.931 . S
H694 C672 0.930 . S
H695 C673 0.930 . S
Tb696 C698 2.809 . S
Tb696 O716 2.484 . S
Tb696 O717 2.440 . S
Tb696 O718 2.658 . S
Tb696 O719 2.409 . S
Tb696 O720 2.378 . S
Tb696 O724 2.325 . S
Tb696 O727 2.341 . S
Tb697 C707 2.809 . S
Tb697 O718 2.325 . S
Tb697 O721 2.341 . S
Tb697 O722 2.484 . S
Tb697 O723 2.440 . S
Tb697 O724 2.658 . S
Tb697 O725 2.409 . S
Tb697 O726 2.378 . S
C698 Tb696 2.809 . S
C698 C699 1.514 . S
C698 O716 1.248 . S
C698 O717 1.266 . S
C699 C698 1.514 . S
C699 C700 1.359 . S
C699 C704 1.348 . S
C700 C699 1.359 . S
C700 C701 1.380 . S
C700 H728 0.929 . S
C701 C700 1.380 . S
C701 C702 1.347 . S
C701 H729 0.931 . S
C702 C701 1.347 . S
C702 C703 1.369 . S
C703 C702 1.369 . S
C703 C704 1.408 . S
C703 H730 0.930 . S
C704 C699 1.348 . S
C704 C703 1.408 . S
C704 H731 0.930 . S
C705 O718 1.281 . S
C705 O719 1.254 . S
C706 O720 1.236 . S
C706 O721 1.266 . S
C707 Tb697 2.809 . S
C707 C708 1.514 . S
C707 O722 1.248 . S
C707 O723 1.266 . S
C708 C707 1.514 . S
C708 C709 1.359 . S
C708 C713 1.348 . S
C709 C708 1.359 . S
C709 C710 1.380 . S
C709 H732 0.929 . S
C710 C709 1.380 . S
C710 C711 1.347 . S
C710 H733 0.931 . S
C711 C710 1.347 . S
C711 C712 1.369 . S
C712 C711 1.369 . S
C712 C713 1.408 . S
C712 H734 0.930 . S
C713 C708 1.348 . S
C713 C712 1.408 . S
C713 H735 0.930 . S
C714 O724 1.281 . S
C714 O725 1.254 . S
C715 O726 1.236 . S
C715 O727 1.266 . S
O716 Tb696 2.484 . S
O716 C698 1.248 . S
O717 Tb696 2.440 . S
O717 C698 1.266 . S
O718 Tb696 2.658 . S
O718 Tb697 2.325 . S
O718 C705 1.281 . S
O719 Tb696 2.409 . S
O719 C705 1.254 . S
O720 Tb696 2.378 . S
O720 C706 1.236 . S
O721 Tb697 2.341 . S
O721 C706 1.266 . S
O722 Tb697 2.484 . S
O722 C707 1.248 . S
O723 Tb697 2.440 . S
O723 C707 1.266 . S
O724 Tb696 2.325 . S
O724 Tb697 2.658 . S
O724 C714 1.281 . S
O725 Tb697 2.409 . S
O725 C714 1.254 . S
O726 Tb697 2.378 . S
O726 C715 1.236 . S
O727 Tb696 2.341 . S
O727 C715 1.266 . S
H728 C700 0.929 . S
H729 C701 0.931 . S
H730 C703 0.930 . S
H731 C704 0.930 . S
H732 C709 0.929 . S
H733 C710 0.931 . S
H734 C712 0.930 . S
H735 C713 0.930 . S
Tb736 C738 2.809 1_455 S
Tb736 O756 2.484 1_455 S
Tb736 O757 2.440 1_455 S
Tb736 O758 2.658 . S
Tb736 O759 2.409 . S
Tb736 O760 2.378 . S
Tb736 O764 2.325 . S
Tb736 O767 2.341 . S
Tb737 C747 2.809 . S
Tb737 O758 2.325 . S
Tb737 O761 2.341 . S
Tb737 O762 2.484 . S
Tb737 O763 2.440 . S
Tb737 O764 2.658 . S
Tb737 O765 2.409 . S
Tb737 O766 2.378 . S
C738 Tb736 2.809 1_655 S
C738 C739 1.514 . S
C738 O756 1.248 . S
C738 O757 1.266 . S
C739 C738 1.514 . S
C739 C740 1.359 . S
C739 C744 1.348 . S
C740 C739 1.359 . S
C740 C741 1.380 . S
C740 H768 0.929 . S
C741 C740 1.380 . S
C741 C742 1.347 . S
C741 H769 0.931 . S
C742 C741 1.347 . S
C742 C743 1.369 . S
C743 C742 1.369 . S
C743 C744 1.408 . S
C743 H770 0.930 . S
C744 C739 1.348 . S
C744 C743 1.408 . S
C744 H771 0.930 . S
C745 O758 1.281 . S
C745 O759 1.254 . S
C746 O760 1.236 . S
C746 O761 1.266 . S
C747 Tb737 2.809 . S
C747 C748 1.514 . S
C747 O762 1.248 . S
C747 O763 1.266 . S
C748 C747 1.514 . S
C748 C749 1.359 . S
C748 C753 1.348 . S
C749 C748 1.359 . S
C749 C750 1.380 . S
C749 H772 0.929 . S
C750 C749 1.380 . S
C750 C751 1.347 . S
C750 H773 0.931 . S
C751 C750 1.347 . S
C751 C752 1.369 . S
C752 C751 1.369 . S
C752 C753 1.408 . S
C752 H774 0.930 . S
C753 C748 1.348 . S
C753 C752 1.408 . S
C753 H775 0.930 . S
C754 O764 1.281 . S
C754 O765 1.254 . S
C755 O766 1.236 . S
C755 O767 1.266 . S
O756 Tb736 2.484 1_655 S
O756 C738 1.248 . S
O757 Tb736 2.440 1_655 S
O757 C738 1.266 . S
O758 Tb736 2.658 . S
O758 Tb737 2.325 . S
O758 C745 1.281 . S
O759 Tb736 2.409 . S
O759 C745 1.254 . S
O760 Tb736 2.378 . S
O760 C746 1.236 . S
O761 Tb737 2.341 . S
O761 C746 1.266 . S
O762 Tb737 2.484 . S
O762 C747 1.248 . S
O763 Tb737 2.440 . S
O763 C747 1.266 . S
O764 Tb736 2.325 . S
O764 Tb737 2.658 . S
O764 C754 1.281 . S
O765 Tb737 2.409 . S
O765 C754 1.254 . S
O766 Tb737 2.378 . S
O766 C755 1.236 . S
O767 Tb736 2.341 . S
O767 C755 1.266 . S
H768 C740 0.929 . S
H769 C741 0.931 . S
H770 C743 0.930 . S
H771 C744 0.930 . S
H772 C749 0.929 . S
H773 C750 0.931 . S
H774 C752 0.930 . S
H775 C753 0.930 . S
Tb776 C778 2.809 . S
Tb776 O796 2.484 . S
Tb776 O797 2.440 . S
Tb776 O798 2.658 . S
Tb776 O799 2.409 . S
Tb776 O800 2.378 . S
Tb776 O804 2.325 . S
Tb776 O807 2.341 . S
Tb777 C787 2.809 . S
Tb777 O798 2.325 . S
Tb777 O801 2.341 . S
Tb777 O802 2.484 . S
Tb777 O803 2.440 . S
Tb777 O804 2.658 . S
Tb777 O805 2.409 . S
Tb777 O806 2.378 . S
C778 Tb776 2.809 . S
C778 C779 1.514 . S
C778 O796 1.248 . S
C778 O797 1.266 . S
C779 C778 1.514 . S
C779 C780 1.359 . S
C779 C784 1.348 . S
C780 C779 1.359 . S
C780 C781 1.380 . S
C780 H808 0.929 . S
C781 C780 1.380 . S
C781 C782 1.347 . S
C781 H809 0.931 . S
C782 C781 1.347 . S
C782 C783 1.369 . S
C783 C782 1.369 . S
C783 C784 1.408 . S
C783 H810 0.930 . S
C784 C779 1.348 . S
C784 C783 1.408 . S
C784 H811 0.930 . S
C785 O798 1.281 . S
C785 O799 1.254 . S
C786 O800 1.236 . S
C786 O801 1.266 . S
C787 Tb777 2.809 . S
C787 C788 1.514 . S
C787 O802 1.248 . S
C787 O803 1.266 . S
C788 C787 1.514 . S
C788 C789 1.359 . S
C788 C793 1.348 . S
C789 C788 1.359 . S
C789 C790 1.380 . S
C789 H812 0.929 . S
C790 C789 1.380 . S
C790 C791 1.347 . S
C790 H813 0.931 . S
C791 C790 1.347 . S
C791 C792 1.369 . S
C792 C791 1.369 . S
C792 C793 1.408 . S
C792 H814 0.930 . S
C793 C788 1.348 . S
C793 C792 1.408 . S
C793 H815 0.930 . S
C794 O804 1.281 . S
C794 O805 1.254 . S
C795 O806 1.236 . S
C795 O807 1.266 . S
O796 Tb776 2.484 . S
O796 C778 1.248 . S
O797 Tb776 2.440 . S
O797 C778 1.266 . S
O798 Tb776 2.658 . S
O798 Tb777 2.325 . S
O798 C785 1.281 . S
O799 Tb776 2.409 . S
O799 C785 1.254 . S
O800 Tb776 2.378 . S
O800 C786 1.236 . S
O801 Tb777 2.341 . S
O801 C786 1.266 . S
O802 Tb777 2.484 . S
O802 C787 1.248 . S
O803 Tb777 2.440 . S
O803 C787 1.266 . S
O804 Tb776 2.325 . S
O804 Tb777 2.658 . S
O804 C794 1.281 . S
O805 Tb777 2.409 . S
O805 C794 1.254 . S
O806 Tb777 2.378 . S
O806 C795 1.236 . S
O807 Tb776 2.341 . S
O807 C795 1.266 . S
H808 C780 0.929 . S
H809 C781 0.931 . S
H810 C783 0.930 . S
H811 C784 0.930 . S
H812 C789 0.929 . S
H813 C790 0.931 . S
H814 C792 0.930 . S
H815 C793 0.930 . S
Tb816 C818 2.809 . S
Tb816 O836 2.484 . S
Tb816 O837 2.440 . S
Tb816 O838 2.658 . S
Tb816 O839 2.409 . S
Tb816 O840 2.378 . S
Tb816 O844 2.325 . S
Tb816 O847 2.341 . S
Tb817 C827 2.809 . S
Tb817 O838 2.325 . S
Tb817 O841 2.341 . S
Tb817 O842 2.484 . S
Tb817 O843 2.440 . S
Tb817 O844 2.658 . S
Tb817 O845 2.409 . S
Tb817 O846 2.378 . S
C818 Tb816 2.809 . S
C818 C819 1.514 . S
C818 O836 1.248 . S
C818 O837 1.266 . S
C819 C818 1.514 . S
C819 C820 1.359 . S
C819 C824 1.348 . S
C820 C819 1.359 . S
C820 C821 1.380 . S
C820 H848 0.929 . S
C821 C820 1.380 . S
C821 C822 1.347 . S
C821 H849 0.931 . S
C822 C821 1.347 . S
C822 C823 1.369 . S
C823 C822 1.369 . S
C823 C824 1.408 . S
C823 H850 0.930 . S
C824 C819 1.348 . S
C824 C823 1.408 . S
C824 H851 0.930 . S
C825 O838 1.281 . S
C825 O839 1.254 . S
C826 O840 1.236 . S
C826 O841 1.266 . S
C827 Tb817 2.809 . S
C827 C828 1.514 . S
C827 O842 1.248 . S
C827 O843 1.266 . S
C828 C827 1.514 . S
C828 C829 1.359 . S
C828 C833 1.348 . S
C829 C828 1.359 . S
C829 C830 1.380 . S
C829 H852 0.929 . S
C830 C829 1.380 . S
C830 C831 1.347 . S
C830 H853 0.931 . S
C831 C830 1.347 . S
C831 C832 1.369 . S
C832 C831 1.369 . S
C832 C833 1.408 . S
C832 H854 0.930 . S
C833 C828 1.348 . S
C833 C832 1.408 . S
C833 H855 0.930 . S
C834 O844 1.281 . S
C834 O845 1.254 . S
C835 O846 1.236 . S
C835 O847 1.266 . S
O836 Tb816 2.484 . S
O836 C818 1.248 . S
O837 Tb816 2.440 . S
O837 C818 1.266 . S
O838 Tb816 2.658 . S
O838 Tb817 2.325 . S
O838 C825 1.281 . S
O839 Tb816 2.409 . S
O839 C825 1.254 . S
O840 Tb816 2.378 . S
O840 C826 1.236 . S
O841 Tb817 2.341 . S
O841 C826 1.266 . S
O842 Tb817 2.484 . S
O842 C827 1.248 . S
O843 Tb817 2.440 . S
O843 C827 1.266 . S
O844 Tb816 2.325 . S
O844 Tb817 2.658 . S
O844 C834 1.281 . S
O845 Tb817 2.409 . S
O845 C834 1.254 . S
O846 Tb817 2.378 . S
O846 C835 1.236 . S
O847 Tb816 2.341 . S
O847 C835 1.266 . S
H848 C820 0.929 . S
H849 C821 0.931 . S
H850 C823 0.930 . S
H851 C824 0.930 . S
H852 C829 0.929 . S
H853 C830 0.931 . S
H854 C832 0.930 . S
H855 C833 0.930 . S
Tb856 C858 2.809 . S
Tb856 O876 2.484 . S
Tb856 O877 2.440 . S
Tb856 O878 2.658 . S
Tb856 O879 2.409 . S
Tb856 O880 2.378 . S
Tb856 O884 2.325 . S
Tb856 O887 2.341 . S
Tb857 C867 2.809 . S
Tb857 O878 2.325 . S
Tb857 O881 2.341 . S
Tb857 O882 2.484 . S
Tb857 O883 2.440 . S
Tb857 O884 2.658 . S
Tb857 O885 2.409 . S
Tb857 O886 2.378 . S
C858 Tb856 2.809 . S
C858 C859 1.514 . S
C858 O876 1.248 . S
C858 O877 1.266 . S
C859 C858 1.514 . S
C859 C860 1.359 . S
C859 C864 1.348 . S
C860 C859 1.359 . S
C860 C861 1.380 . S
C860 H888 0.929 . S
C861 C860 1.380 . S
C861 C862 1.347 . S
C861 H889 0.931 . S
C862 C861 1.347 . S
C862 C863 1.369 . S
C863 C862 1.369 . S
C863 C864 1.408 . S
C863 H890 0.930 . S
C864 C859 1.348 . S
C864 C863 1.408 . S
C864 H891 0.930 . S
C865 O878 1.281 . S
C865 O879 1.254 . S
C866 O880 1.236 . S
C866 O881 1.266 . S
C867 Tb857 2.809 . S
C867 C868 1.514 . S
C867 O882 1.248 . S
C867 O883 1.266 . S
C868 C867 1.514 . S
C868 C869 1.359 . S
C868 C873 1.348 . S
C869 C868 1.359 . S
C869 C870 1.380 . S
C869 H892 0.929 . S
C870 C869 1.380 . S
C870 C871 1.347 . S
C870 H893 0.931 . S
C871 C870 1.347 . S
C871 C872 1.369 . S
C872 C871 1.369 . S
C872 C873 1.408 . S
C872 H894 0.930 . S
C873 C868 1.348 . S
C873 C872 1.408 . S
C873 H895 0.930 . S
C874 O884 1.281 . S
C874 O885 1.254 . S
C875 O886 1.236 . S
C875 O887 1.266 . S
O876 Tb856 2.484 . S
O876 C858 1.248 . S
O877 Tb856 2.440 . S
O877 C858 1.266 . S
O878 Tb856 2.658 . S
O878 Tb857 2.325 . S
O878 C865 1.281 . S
O879 Tb856 2.409 . S
O879 C865 1.254 . S
O880 Tb856 2.378 . S
O880 C866 1.236 . S
O881 Tb857 2.341 . S
O881 C866 1.266 . S
O882 Tb857 2.484 . S
O882 C867 1.248 . S
O883 Tb857 2.440 . S
O883 C867 1.266 . S
O884 Tb856 2.325 . S
O884 Tb857 2.658 . S
O884 C874 1.281 . S
O885 Tb857 2.409 . S
O885 C874 1.254 . S
O886 Tb857 2.378 . S
O886 C875 1.236 . S
O887 Tb856 2.341 . S
O887 C875 1.266 . S
H888 C860 0.929 . S
H889 C861 0.931 . S
H890 C863 0.930 . S
H891 C864 0.930 . S
H892 C869 0.929 . S
H893 C870 0.931 . S
H894 C872 0.930 . S
H895 C873 0.930 . S
Tb896 C898 2.809 . S
Tb896 O916 2.484 . S
Tb896 O917 2.440 . S
Tb896 O918 2.658 . S
Tb896 O919 2.409 . S
Tb896 O920 2.378 . S
Tb896 O924 2.325 . S
Tb896 O927 2.341 . S
Tb897 C907 2.809 . S
Tb897 O918 2.325 . S
Tb897 O921 2.341 . S
Tb897 O922 2.484 . S
Tb897 O923 2.440 . S
Tb897 O924 2.658 . S
Tb897 O925 2.409 . S
Tb897 O926 2.378 . S
C898 Tb896 2.809 . S
C898 C899 1.514 . S
C898 O916 1.248 . S
C898 O917 1.266 . S
C899 C898 1.514 . S
C899 C900 1.359 . S
C899 C904 1.348 . S
C900 C899 1.359 . S
C900 C901 1.380 . S
C900 H928 0.929 . S
C901 C900 1.380 . S
C901 C902 1.347 . S
C901 H929 0.931 . S
C902 C901 1.347 . S
C902 C903 1.369 . S
C903 C902 1.369 . S
C903 C904 1.408 . S
C903 H930 0.930 . S
C904 C899 1.348 . S
C904 C903 1.408 . S
C904 H931 0.930 . S
C905 O918 1.281 . S
C905 O919 1.254 . S
C906 O920 1.236 . S
C906 O921 1.266 . S
C907 Tb897 2.809 . S
C907 C908 1.514 . S
C907 O922 1.248 . S
C907 O923 1.266 . S
C908 C907 1.514 . S
C908 C909 1.359 . S
C908 C913 1.348 . S
C909 C908 1.359 . S
C909 C910 1.380 . S
C909 H932 0.929 . S
C910 C909 1.380 . S
C910 C911 1.347 . S
C910 H933 0.931 . S
C911 C910 1.347 . S
C911 C912 1.369 . S
C912 C911 1.369 . S
C912 C913 1.408 . S
C912 H934 0.930 . S
C913 C908 1.348 . S
C913 C912 1.408 . S
C913 H935 0.930 . S
C914 O924 1.281 . S
C914 O925 1.254 . S
C915 O926 1.236 . S
C915 O927 1.266 . S
O916 Tb896 2.484 . S
O916 C898 1.248 . S
O917 Tb896 2.440 . S
O917 C898 1.266 . S
O918 Tb896 2.658 . S
O918 Tb897 2.325 . S
O918 C905 1.281 . S
O919 Tb896 2.409 . S
O919 C905 1.254 . S
O920 Tb896 2.378 . S
O920 C906 1.236 . S
O921 Tb897 2.341 . S
O921 C906 1.266 . S
O922 Tb897 2.484 . S
O922 C907 1.248 . S
O923 Tb897 2.440 . S
O923 C907 1.266 . S
O924 Tb896 2.325 . S
O924 Tb897 2.658 . S
O924 C914 1.281 . S
O925 Tb897 2.409 . S
O925 C914 1.254 . S
O926 Tb897 2.378 . S
O926 C915 1.236 . S
O927 Tb896 2.341 . S
O927 C915 1.266 . S
H928 C900 0.929 . S
H929 C901 0.931 . S
H930 C903 0.930 . S
H931 C904 0.930 . S
H932 C909 0.929 . S
H933 C910 0.931 . S
H934 C912 0.930 . S
H935 C913 0.930 . S
Tb936 C938 2.809 . S
Tb936 O956 2.484 . S
Tb936 O957 2.440 . S
Tb936 O958 2.658 . S
Tb936 O959 2.409 . S
Tb936 O960 2.378 . S
Tb936 O964 2.325 . S
Tb936 O967 2.341 . S
Tb937 C947 2.783 1_455 S
Tb937 O958 2.342 . S
Tb937 O961 2.358 . S
Tb937 O962 2.463 1_455 S
Tb937 O963 2.415 1_455 S
Tb937 O964 2.688 . S
Tb937 O965 2.420 . S
Tb937 O966 2.386 . S
C938 Tb936 2.809 . S
C938 C939 1.514 . S
C938 O956 1.248 . S
C938 O957 1.266 . S
C939 C938 1.514 . S
C939 C940 1.359 . S
C939 C944 1.348 . S
C940 C939 1.359 . S
C940 C941 1.380 . S
C940 H968 0.929 . S
C941 C940 1.380 . S
C941 C942 1.347 . S
C941 H969 0.931 . S
C942 C941 1.347 . S
C942 C943 1.369 . S
C943 C942 1.369 . S
C943 C944 1.408 . S
C943 H970 0.930 1_554 S
C944 C939 1.348 . S
C944 C943 1.408 . S
C944 H971 0.930 1_554 S
C945 O958 1.281 . S
C945 O959 1.254 . S
C946 O960 1.236 . S
C946 O961 1.266 . S
C947 Tb937 2.783 1_655 S
C947 C948 1.514 . S
C947 O962 1.248 . S
C947 O963 1.266 . S
C948 C947 1.514 . S
C948 C949 1.359 . S
C948 C953 1.348 . S
C949 C948 1.359 . S
C949 C950 1.380 . S
C949 H972 0.929 . S
C950 C949 1.380 . S
C950 C951 1.347 . S
C950 H973 0.931 . S
C951 C950 1.347 . S
C951 C952 1.369 . S
C952 C951 1.369 . S
C952 C953 1.408 . S
C952 H974 0.930 . S
C953 C948 1.348 . S
C953 C952 1.408 . S
C953 H975 0.930 . S
C954 O964 1.281 . S
C954 O965 1.254 . S
C955 O966 1.236 . S
C955 O967 1.266 . S
O956 Tb936 2.484 . S
O956 C938 1.248 . S
O957 Tb936 2.440 . S
O957 C938 1.266 . S
O958 Tb936 2.658 . S
O958 Tb937 2.342 . S
O958 C945 1.281 . S
O959 Tb936 2.409 . S
O959 C945 1.254 . S
O960 Tb936 2.378 . S
O960 C946 1.236 . S
O961 Tb937 2.358 . S
O961 C946 1.266 . S
O962 Tb937 2.463 1_655 S
O962 C947 1.248 . S
O963 Tb937 2.415 1_655 S
O963 C947 1.266 . S
O964 Tb936 2.325 . S
O964 Tb937 2.688 . S
O964 C954 1.281 . S
O965 Tb937 2.420 . S
O965 C954 1.254 . S
O966 Tb937 2.386 . S
O966 C955 1.236 . S
O967 Tb936 2.341 . S
O967 C955 1.266 . S
H968 C940 0.929 . S
H969 C941 0.931 . S
H970 C943 0.930 1_556 S
H971 C944 0.930 1_556 S
H972 C949 0.929 . S
H973 C950 0.931 . S
H974 C952 0.930 . S
H975 C953 0.930 . S
H976 C982 0.930 1_656 S
H977 C985 0.930 . S
H978 C986 0.930 . S
H979 C987 0.930 . S
H980 C990 0.930 . S
H981 C991 0.930 1_656 S
C982 H976 0.930 1_454 S
C982 C983 1.355 . S
C982 C984 1.415 . S
C983 C982 1.355 . S
C983 C985 1.419 . S
C984 C982 1.415 . S
C984 C989 1.425 . S
C984 C991 1.409 . S
C985 H977 0.930 . S
C985 C983 1.419 . S
C985 C986 1.362 . S
C986 H978 0.930 . S
C986 C985 1.362 . S
C986 C989 1.409 . S
C987 H979 0.930 . S
C987 C988 1.355 . S
C987 C989 1.415 . S
C988 C987 1.355 . S
C988 C990 1.419 . S
C989 C984 1.425 . S
C989 C986 1.409 . S
C989 C987 1.415 . S
C990 H980 0.930 . S
C990 C988 1.419 . S
C990 C991 1.362 . S
C991 H981 0.930 1_454 S
C991 C984 1.409 . S
C991 C990 1.362 . S
H992 C998 0.930 . S
H993 C1001 0.930 . S
H994 C1002 0.930 . S
H995 C1003 0.930 . S
H996 C1006 0.930 . S
H997 C1007 0.930 . S
C998 H992 0.930 . S
C998 C999 1.355 . S
C998 C1000 1.415 . S
C999 C998 1.355 . S
C999 C1001 1.419 . S
C1000 C998 1.415 . S
C1000 C1005 1.425 . S
C1000 C1007 1.409 . S
C1001 H993 0.930 . S
C1001 C999 1.419 . S
C1001 C1002 1.362 . S
C1002 H994 0.930 . S
C1002 C1001 1.362 . S
C1002 C1005 1.409 . S
C1003 H995 0.930 . S
C1003 C1004 1.355 . S
C1003 C1005 1.415 . S
C1004 C1003 1.355 . S
C1004 C1006 1.419 . S
C1005 C1000 1.425 . S
C1005 C1002 1.409 . S
C1005 C1003 1.415 . S
C1006 H996 0.930 . S
C1006 C1004 1.419 . S
C1006 C1007 1.362 . S
C1007 H997 0.930 . S
C1007 C1000 1.409 . S
C1007 C1006 1.362 . S
H1008 C1014 0.930 . S
H1009 C1017 0.930 . S
H1010 C1018 0.930 . S
H1011 C1019 0.930 . S
H1012 C1022 0.930 . S
H1013 C1023 0.930 . S
C1014 H1008 0.930 . S
C1014 C1015 1.355 . S
C1014 C1016 1.415 . S
C1015 C1014 1.355 . S
C1015 C1017 1.419 . S
C1016 C1014 1.415 . S
C1016 C1021 1.425 . S
C1016 C1023 1.409 . S
C1017 H1009 0.930 . S
C1017 C1015 1.419 . S
C1017 C1018 1.362 . S
C1018 H1010 0.930 . S
C1018 C1017 1.362 . S
C1018 C1021 1.409 . S
C1019 H1011 0.930 . S
C1019 C1020 1.355 . S
C1019 C1021 1.415 . S
C1020 C1019 1.355 . S
C1020 C1022 1.419 . S
C1021 C1016 1.425 . S
C1021 C1018 1.409 . S
C1021 C1019 1.415 . S
C1022 H1012 0.930 . S
C1022 C1020 1.419 . S
C1022 C1023 1.362 . S
C1023 H1013 0.930 . S
C1023 C1016 1.409 . S
C1023 C1022 1.362 . S
H1024 C1030 0.930 . S
H1025 C1033 0.930 . S
H1026 C1034 0.930 . S
H1027 C1035 0.930 . S
H1028 C1038 0.930 . S
H1029 C1039 0.930 . S
C1030 H1024 0.930 . S
C1030 C1031 1.355 . S
C1030 C1032 1.415 . S
C1031 C1030 1.355 . S
C1031 C1033 1.419 . S
C1032 C1030 1.415 . S
C1032 C1037 1.425 . S
C1032 C1039 1.409 . S
C1033 H1025 0.930 . S
C1033 C1031 1.419 . S
C1033 C1034 1.362 . S
C1034 H1026 0.930 . S
C1034 C1033 1.362 . S
C1034 C1037 1.409 . S
C1035 H1027 0.930 . S
C1035 C1036 1.355 . S
C1035 C1037 1.415 . S
C1036 C1035 1.355 . S
C1036 C1038 1.419 . S
C1037 C1032 1.425 . S
C1037 C1034 1.409 . S
C1037 C1035 1.415 . S
C1038 H1028 0.930 . S
C1038 C1036 1.419 . S
C1038 C1039 1.362 . S
C1039 H1029 0.930 . S
C1039 C1032 1.409 . S
C1039 C1038 1.362 . S
H1040 C1046 0.930 . S
H1041 C1049 0.930 . S
H1042 C1050 0.930 . S
H1043 C1051 0.930 . S
H1044 C1054 0.930 . S
H1045 C1055 0.930 . S
C1046 H1040 0.930 . S
C1046 C1047 1.355 . S
C1046 C1048 1.415 . S
C1047 C1046 1.355 . S
C1047 C1049 1.419 . S
C1048 C1046 1.415 . S
C1048 C1053 1.425 . S
C1048 C1055 1.409 . S
C1049 H1041 0.930 . S
C1049 C1047 1.419 . S
C1049 C1050 1.362 . S
C1050 H1042 0.930 . S
C1050 C1049 1.362 . S
C1050 C1053 1.409 . S
C1051 H1043 0.930 . S
C1051 C1052 1.355 . S
C1051 C1053 1.415 . S
C1052 C1051 1.355 . S
C1052 C1054 1.419 . S
C1053 C1048 1.425 . S
C1053 C1050 1.409 . S
C1053 C1051 1.415 . S
C1054 H1044 0.930 . S
C1054 C1052 1.419 . S
C1054 C1055 1.362 . S
C1055 H1045 0.930 . S
C1055 C1048 1.409 . S
C1055 C1054 1.362 . S
H1056 C1062 0.930 . S
H1057 C1065 0.930 . S
H1058 C1066 0.930 . S
H1059 C1067 0.930 . S
H1060 C1070 0.930 . S
H1061 C1071 0.930 . S
C1062 H1056 0.930 . S
C1062 C1063 1.355 . S
C1062 C1064 1.415 . S
C1063 C1062 1.355 . S
C1063 C1065 1.419 . S
C1064 C1062 1.415 . S
C1064 C1069 1.425 . S
C1064 C1071 1.409 . S
C1065 H1057 0.930 . S
C1065 C1063 1.419 . S
C1065 C1066 1.362 . S
C1066 H1058 0.930 . S
C1066 C1065 1.362 . S
C1066 C1069 1.409 . S
C1067 H1059 0.930 . S
C1067 C1068 1.355 . S
C1067 C1069 1.415 . S
C1068 C1067 1.355 . S
C1068 C1070 1.419 . S
C1069 C1064 1.425 . S
C1069 C1066 1.409 . S
C1069 C1067 1.415 . S
C1070 H1060 0.930 . S
C1070 C1068 1.419 . S
C1070 C1071 1.362 . S
C1071 H1061 0.930 . S
C1071 C1064 1.409 . S
C1071 C1070 1.362 . S
H1072 C1078 0.930 . S
H1073 C1081 0.930 . S
H1074 C1082 0.930 . S
H1075 C1083 0.930 . S
H1076 C1086 0.930 . S
H1077 C1087 0.930 . S
C1078 H1072 0.930 . S
C1078 C1079 1.355 . S
C1078 C1080 1.415 . S
C1079 C1078 1.355 . S
C1079 C1081 1.419 . S
C1080 C1078 1.415 . S
C1080 C1085 1.425 . S
C1080 C1087 1.409 . S
C1081 H1073 0.930 . S
C1081 C1079 1.419 . S
C1081 C1082 1.362 . S
C1082 H1074 0.930 . S
C1082 C1081 1.362 . S
C1082 C1085 1.409 . S
C1083 H1075 0.930 . S
C1083 C1084 1.355 . S
C1083 C1085 1.415 . S
C1084 C1083 1.355 . S
C1084 C1086 1.419 . S
C1085 C1080 1.425 . S
C1085 C1082 1.409 . S
C1085 C1083 1.415 . S
C1086 H1076 0.930 . S
C1086 C1084 1.419 . S
C1086 C1087 1.362 . S
C1087 H1077 0.930 . S
C1087 C1080 1.409 . S
C1087 C1086 1.362 . S
H1088 C1094 0.930 . S
H1089 C1097 0.930 . S
H1090 C1098 0.930 . S
H1091 C1099 0.930 . S
H1092 C1102 0.930 . S
H1093 C1103 0.930 . S
C1094 H1088 0.930 . S
C1094 C1095 1.355 . S
C1094 C1096 1.415 . S
C1095 C1094 1.355 . S
C1095 C1097 1.419 . S
C1096 C1094 1.415 . S
C1096 C1101 1.425 . S
C1096 C1103 1.409 . S
C1097 H1089 0.930 . S
C1097 C1095 1.419 . S
C1097 C1098 1.362 . S
C1098 H1090 0.930 . S
C1098 C1097 1.362 . S
C1098 C1101 1.409 . S
C1099 H1091 0.930 . S
C1099 C1100 1.355 . S
C1099 C1101 1.415 . S
C1100 C1099 1.355 . S
C1100 C1102 1.419 . S
C1101 C1096 1.425 . S
C1101 C1098 1.409 . S
C1101 C1099 1.415 . S
C1102 H1092 0.930 . S
C1102 C1100 1.419 . S
C1102 C1103 1.362 . S
C1103 H1093 0.930 . S
C1103 C1096 1.409 . S
C1103 C1102 1.362 . S
H1104 C1110 0.930 1_455 S
H1105 C1113 0.930 1_565 S
H1106 C1114 0.930 . S
H1107 C1115 0.930 . S
H1108 C1118 0.930 . S
H1109 C1119 0.930 . S
C1110 H1104 0.930 1_655 S
C1110 C1111 1.355 . S
C1110 C1112 1.415 1_655 S
C1111 C1110 1.355 . S
C1111 C1113 1.419 . S
C1112 C1110 1.415 1_455 S
C1112 C1117 1.425 1_455 S
C1112 C1119 1.409 . S
C1113 H1105 0.930 1_545 S
C1113 C1111 1.419 . S
C1113 C1114 1.362 . S
C1114 H1106 0.930 . S
C1114 C1113 1.362 . S
C1114 C1117 1.409 . S
C1115 H1107 0.930 . S
C1115 C1116 1.355 1_655 S
C1115 C1117 1.415 . S
C1116 C1115 1.355 1_455 S
C1116 C1118 1.419 . S
C1117 C1112 1.425 1_655 S
C1117 C1114 1.409 . S
C1117 C1115 1.415 . S
C1118 H1108 0.930 . S
C1118 C1116 1.419 . S
C1118 C1119 1.362 . S
C1119 H1109 0.930 . S
C1119 C1112 1.409 . S
C1119 C1118 1.362 . S
H1120 C1126 0.930 . S
H1121 C1129 0.930 . S
H1122 C1130 0.930 . S
H1123 C1131 0.930 . S
H1124 C1134 0.930 . S
H1125 C1135 0.930 . S
C1126 H1120 0.930 . S
C1126 C1127 1.355 . S
C1126 C1128 1.415 . S
C1127 C1126 1.355 . S
C1127 C1129 1.419 . S
C1128 C1126 1.415 . S
C1128 C1133 1.425 . S
C1128 C1135 1.409 . S
C1129 H1121 0.930 . S
C1129 C1127 1.419 . S
C1129 C1130 1.362 . S
C1130 H1122 0.930 . S
C1130 C1129 1.362 . S
C1130 C1133 1.409 . S
C1131 H1123 0.930 . S
C1131 C1132 1.355 . S
C1131 C1133 1.415 . S
C1132 C1131 1.355 . S
C1132 C1134 1.419 . S
C1133 C1128 1.425 . S
C1133 C1130 1.409 . S
C1133 C1131 1.415 . S
C1134 H1124 0.930 . S
C1134 C1132 1.419 . S
C1134 C1135 1.362 . S
C1135 H1125 0.930 . S
C1135 C1128 1.409 . S
C1135 C1134 1.362 . S
H1136 C1142 0.930 . S
H1137 C1145 0.930 . S
H1138 C1146 0.930 . S
H1139 C1147 0.930 . S
H1140 C1150 0.930 . S
H1141 C1151 0.930 . S
C1142 H1136 0.930 . S
C1142 C1143 1.355 . S
C1142 C1144 1.415 . S
C1143 C1142 1.355 . S
C1143 C1145 1.419 . S
C1144 C1142 1.415 . S
C1144 C1149 1.425 . S
C1144 C1151 1.409 . S
C1145 H1137 0.930 . S
C1145 C1143 1.419 . S
C1145 C1146 1.362 . S
C1146 H1138 0.930 . S
C1146 C1145 1.362 . S
C1146 C1149 1.409 . S
C1147 H1139 0.930 . S
C1147 C1148 1.355 . S
C1147 C1149 1.415 . S
C1148 C1147 1.355 . S
C1148 C1150 1.419 . S
C1149 C1144 1.425 . S
C1149 C1146 1.409 . S
C1149 C1147 1.415 . S
C1150 H1140 0.930 . S
C1150 C1148 1.419 . S
C1150 C1151 1.362 . S
C1151 H1141 0.930 . S
C1151 C1144 1.409 . S
C1151 C1150 1.362 . S
H1152 C1158 0.930 . S
H1153 C1161 0.930 . S
H1154 C1162 0.930 . S
H1155 C1163 0.930 . S
H1156 C1166 0.930 . S
H1157 C1167 0.930 . S
C1158 H1152 0.930 . S
C1158 C1159 1.355 . S
C1158 C1160 1.415 . S
C1159 C1158 1.355 . S
C1159 C1161 1.419 . S
C1160 C1158 1.415 . S
C1160 C1165 1.425 . S
C1160 C1167 1.409 . S
C1161 H1153 0.930 . S
C1161 C1159 1.419 . S
C1161 C1162 1.362 . S
C1162 H1154 0.930 . S
C1162 C1161 1.362 . S
C1162 C1165 1.409 . S
C1163 H1155 0.930 . S
C1163 C1164 1.355 . S
C1163 C1165 1.415 . S
C1164 C1163 1.355 . S
C1164 C1166 1.419 . S
C1165 C1160 1.425 . S
C1165 C1162 1.409 . S
C1165 C1163 1.415 . S
C1166 H1156 0.930 . S
C1166 C1164 1.419 . S
C1166 C1167 1.362 . S
C1167 H1157 0.930 . S
C1167 C1160 1.409 . S
C1167 C1166 1.362 . S
H1168 C1174 0.930 . S
H1169 C1177 0.930 . S
H1170 C1178 0.930 1_455 S
H1171 C1179 0.930 1_565 S
H1172 C1182 0.930 . S
H1173 C1183 0.930 . S
C1174 H1168 0.930 . S
C1174 C1175 1.355 . S
C1174 C1176 1.415 . S
C1175 C1174 1.355 . S
C1175 C1177 1.419 1_545 S
C1176 C1174 1.415 . S
C1176 C1181 1.425 . S
C1176 C1183 1.409 . S
C1177 H1169 0.930 . S
C1177 C1175 1.419 1_565 S
C1177 C1178 1.362 . S
C1178 H1170 0.930 1_655 S
C1178 C1177 1.362 . S
C1178 C1181 1.409 1_565 S
C1179 H1171 0.930 1_545 S
C1179 C1180 1.355 . S
C1179 C1181 1.415 1_455 S
C1180 C1179 1.355 . S
C1180 C1182 1.419 1_455 S
C1181 C1176 1.425 . S
C1181 C1178 1.409 1_545 S
C1181 C1179 1.415 1_655 S
C1182 H1172 0.930 . S
C1182 C1180 1.419 1_655 S
C1182 C1183 1.362 . S
C1183 H1173 0.930 . S
C1183 C1176 1.409 . S
C1183 C1182 1.362 . S
H1184 C1190 0.930 . S
H1185 C1193 0.930 . S
H1186 C1194 0.930 . S
H1187 C1195 0.930 . S
H1188 C1198 0.930 . S
H1189 C1199 0.930 . S
C1190 H1184 0.930 . S
C1190 C1191 1.355 . S
C1190 C1192 1.415 . S
C1191 C1190 1.355 . S
C1191 C1193 1.419 . S
C1192 C1190 1.415 . S
C1192 C1197 1.425 . S
C1192 C1199 1.409 . S
C1193 H1185 0.930 . S
C1193 C1191 1.419 . S
C1193 C1194 1.362 . S
C1194 H1186 0.930 . S
C1194 C1193 1.362 . S
C1194 C1197 1.409 . S
C1195 H1187 0.930 . S
C1195 C1196 1.355 . S
C1195 C1197 1.415 . S
C1196 C1195 1.355 . S
C1196 C1198 1.419 . S
C1197 C1192 1.425 . S
C1197 C1194 1.409 . S
C1197 C1195 1.415 . S
C1198 H1188 0.930 . S
C1198 C1196 1.419 . S
C1198 C1199 1.362 . S
C1199 H1189 0.930 . S
C1199 C1192 1.409 . S
C1199 C1198 1.362 . S
H1200 C1206 0.930 . S
H1201 C1209 0.930 . S
H1202 C1210 0.930 . S
H1203 C1211 0.930 1_554 S
H1204 C1214 0.930 . S
H1205 C1215 0.930 1_565 S
C1206 H1200 0.930 . S
C1206 C1207 1.355 . S
C1206 C1208 1.415 . S
C1207 C1206 1.355 . S
C1207 C1209 1.419 . S
C1208 C1206 1.415 . S
C1208 C1213 1.425 . S
C1208 C1215 1.409 . S
C1209 H1201 0.930 . S
C1209 C1207 1.419 . S
C1209 C1210 1.362 . S
C1210 H1202 0.930 . S
C1210 C1209 1.362 . S
C1210 C1213 1.409 . S
C1211 H1203 0.930 1_556 S
C1211 C1212 1.355 . S
C1211 C1213 1.415 . S
C1212 C1211 1.355 . S
C1212 C1214 1.419 . S
C1213 C1208 1.425 . S
C1213 C1210 1.409 . S
C1213 C1211 1.415 . S
C1214 H1204 0.930 . S
C1214 C1212 1.419 . S
C1214 C1215 1.362 . S
C1215 H1205 0.930 1_545 S
C1215 C1208 1.409 . S
C1215 C1214 1.362 . S
H1216 C1222 0.930 . S
H1217 C1225 0.930 . S
H1218 C1226 0.930 . S
H1219 C1227 0.930 . S
H1220 C1230 0.930 . S
H1221 C1231 0.930 . S
C1222 H1216 0.930 . S
C1222 C1223 1.355 . S
C1222 C1224 1.415 . S
C1223 C1222 1.355 . S
C1223 C1225 1.419 . S
C1224 C1222 1.415 . S
C1224 C1229 1.425 . S
C1224 C1231 1.409 . S
C1225 H1217 0.930 . S
C1225 C1223 1.419 . S
C1225 C1226 1.362 . S
C1226 H1218 0.930 . S
C1226 C1225 1.362 . S
C1226 C1229 1.409 . S
C1227 H1219 0.930 . S
C1227 C1228 1.355 . S
C1227 C1229 1.415 . S
C1228 C1227 1.355 . S
C1228 C1230 1.419 . S
C1229 C1224 1.425 . S
C1229 C1226 1.409 . S
C1229 C1227 1.415 . S
C1230 H1220 0.930 . S
C1230 C1228 1.419 . S
C1230 C1231 1.362 . S
C1231 H1221 0.930 . S
C1231 C1224 1.409 . S
C1231 C1230 1.362 . S
H1232 C1238 0.930 1_556 S
H1233 C1241 0.930 . S
H1234 C1242 0.930 . S
H1235 C1243 0.930 . S
H1236 C1246 0.930 . S
H1237 C1247 0.930 . S
C1238 H1232 0.930 1_554 S
C1238 C1239 1.355 . S
C1238 C1240 1.415 . S
C1239 C1238 1.355 . S
C1239 C1241 1.419 . S
C1240 C1238 1.415 . S
C1240 C1245 1.425 . S
C1240 C1247 1.409 . S
C1241 H1233 0.930 . S
C1241 C1239 1.419 . S
C1241 C1242 1.362 . S
C1242 H1234 0.930 . S
C1242 C1241 1.362 . S
C1242 C1245 1.409 . S
C1243 H1235 0.930 . S
C1243 C1244 1.355 . S
C1243 C1245 1.415 . S
C1244 C1243 1.355 . S
C1244 C1246 1.419 . S
C1245 C1240 1.425 . S
C1245 C1242 1.409 . S
C1245 C1243 1.415 . S
C1246 H1236 0.930 . S
C1246 C1244 1.419 . S
C1246 C1247 1.362 . S
C1247 H1237 0.930 . S
C1247 C1240 1.409 . S
C1247 C1246 1.362 . S
H1248 C1254 0.930 . S
H1249 C1257 0.930 . S
H1250 C1258 0.930 . S
H1251 C1259 0.930 . S
H1252 C1262 0.930 . S
H1253 C1263 0.930 1_556 S
C1254 H1248 0.930 . S
C1254 C1255 1.355 . S
C1254 C1256 1.415 . S
C1255 C1254 1.355 . S
C1255 C1257 1.419 . S
C1256 C1254 1.415 . S
C1256 C1261 1.425 . S
C1256 C1263 1.409 . S
C1257 H1249 0.930 . S
C1257 C1255 1.419 . S
C1257 C1258 1.362 . S
C1258 H1250 0.930 . S
C1258 C1257 1.362 . S
C1258 C1261 1.409 . S
C1259 H1251 0.930 . S
C1259 C1260 1.355 . S
C1259 C1261 1.415 . S
C1260 C1259 1.355 . S
C1260 C1262 1.419 . S
C1261 C1256 1.425 . S
C1261 C1258 1.409 . S
C1261 C1259 1.415 . S
C1262 H1252 0.930 . S
C1262 C1260 1.419 . S
C1262 C1263 1.362 . S
C1263 H1253 0.930 1_554 S
C1263 C1256 1.409 . S
C1263 C1262 1.362 . S
H1264 C1270 0.930 . S
H1265 C1273 0.930 . S
H1266 C1274 0.930 . S
H1267 C1275 0.930 . S
H1268 C1278 0.930 . S
H1269 C1279 0.930 . S
C1270 H1264 0.930 . S
C1270 C1271 1.355 . S
C1270 C1272 1.415 . S
C1271 C1270 1.355 . S
C1271 C1273 1.419 . S
C1272 C1270 1.415 . S
C1272 C1277 1.425 . S
C1272 C1279 1.409 . S
C1273 H1265 0.930 . S
C1273 C1271 1.419 . S
C1273 C1274 1.362 . S
C1274 H1266 0.930 . S
C1274 C1273 1.362 . S
C1274 C1277 1.409 . S
C1275 H1267 0.930 . S
C1275 C1276 1.355 . S
C1275 C1277 1.415 . S
C1276 C1275 1.355 . S
C1276 C1278 1.419 . S
C1277 C1272 1.425 . S
C1277 C1274 1.409 . S
C1277 C1275 1.415 . S
C1278 H1268 0.930 . S
C1278 C1276 1.419 . S
C1278 C1279 1.362 . S
C1279 H1269 0.930 . S
C1279 C1272 1.409 . S
C1279 C1278 1.362 . S
H1280 C1286 0.930 . S
H1281 C1289 0.930 . S
H1282 C1290 0.930 . S
H1283 C1291 0.930 . S
H1284 C1294 0.930 . S
H1285 C1295 0.930 . S
C1286 H1280 0.930 . S
C1286 C1287 1.355 . S
C1286 C1288 1.415 . S
C1287 C1286 1.355 . S
C1287 C1289 1.419 . S
C1288 C1286 1.415 . S
C1288 C1293 1.425 . S
C1288 C1295 1.409 . S
C1289 H1281 0.930 . S
C1289 C1287 1.419 . S
C1289 C1290 1.362 . S
C1290 H1282 0.930 . S
C1290 C1289 1.362 . S
C1290 C1293 1.409 . S
C1291 H1283 0.930 . S
C1291 C1292 1.355 . S
C1291 C1293 1.415 . S
C1292 C1291 1.355 . S
C1292 C1294 1.419 . S
C1293 C1288 1.425 . S
C1293 C1290 1.409 . S
C1293 C1291 1.415 . S
C1294 H1284 0.930 . S
C1294 C1292 1.419 . S
C1294 C1295 1.362 . S
C1295 H1285 0.930 . S
C1295 C1288 1.409 . S
C1295 C1294 1.362 . S
H1296 C1302 0.930 . S
H1297 C1305 0.930 . S
H1298 C1306 0.930 . S
H1299 C1307 0.930 . S
H1300 C1310 0.930 . S
H1301 C1311 0.930 . S
C1302 H1296 0.930 . S
C1302 C1303 1.355 . S
C1302 C1304 1.415 . S
C1303 C1302 1.355 . S
C1303 C1305 1.419 . S
C1304 C1302 1.415 . S
C1304 C1309 1.425 . S
C1304 C1311 1.409 . S
C1305 H1297 0.930 . S
C1305 C1303 1.419 . S
C1305 C1306 1.362 . S
C1306 H1298 0.930 . S
C1306 C1305 1.362 . S
C1306 C1309 1.409 . S
C1307 H1299 0.930 . S
C1307 C1308 1.355 . S
C1307 C1309 1.415 . S
C1308 C1307 1.355 . S
C1308 C1310 1.419 . S
C1309 C1304 1.425 . S
C1309 C1306 1.409 . S
C1309 C1307 1.415 . S
C1310 H1300 0.930 . S
C1310 C1308 1.419 . S
C1310 C1311 1.362 . S
C1311 H1301 0.930 . S
C1311 C1304 1.409 . S
C1311 C1310 1.362 . S
H1312 C1318 0.930 . S
H1313 C1321 0.930 . S
H1314 C1322 0.930 . S
H1315 C1323 0.930 . S
H1316 C1326 0.930 . S
H1317 C1327 0.930 . S
C1318 H1312 0.930 . S
C1318 C1319 1.355 . S
C1318 C1320 1.415 . S
C1319 C1318 1.355 . S
C1319 C1321 1.419 . S
C1320 C1318 1.415 . S
C1320 C1325 1.425 . S
C1320 C1327 1.409 . S
C1321 H1313 0.930 . S
C1321 C1319 1.419 . S
C1321 C1322 1.362 . S
C1322 H1314 0.930 . S
C1322 C1321 1.362 . S
C1322 C1325 1.409 . S
C1323 H1315 0.930 . S
C1323 C1324 1.355 . S
C1323 C1325 1.415 . S
C1324 C1323 1.355 . S
C1324 C1326 1.419 . S
C1325 C1320 1.425 . S
C1325 C1322 1.409 . S
C1325 C1323 1.415 . S
C1326 H1316 0.930 . S
C1326 C1324 1.419 . S
C1326 C1327 1.362 . S
C1327 H1317 0.930 . S
C1327 C1320 1.409 . S
C1327 C1326 1.362 . S
H1328 C1334 0.930 . S
H1329 C1337 0.930 . S
H1330 C1338 0.930 . S
H1331 C1339 0.930 . S
H1332 C1342 0.930 . S
H1333 C1343 0.930 . S
C1334 H1328 0.930 . S
C1334 C1335 1.355 . S
C1334 C1336 1.415 . S
C1335 C1334 1.355 . S
C1335 C1337 1.419 . S
C1336 C1334 1.415 . S
C1336 C1341 1.425 . S
C1336 C1343 1.409 . S
C1337 H1329 0.930 . S
C1337 C1335 1.419 . S
C1337 C1338 1.362 . S
C1338 H1330 0.930 . S
C1338 C1337 1.362 . S
C1338 C1341 1.409 . S
C1339 H1331 0.930 . S
C1339 C1340 1.355 . S
C1339 C1341 1.415 . S
C1340 C1339 1.355 . S
C1340 C1342 1.419 . S
C1341 C1336 1.425 . S
C1341 C1338 1.409 . S
C1341 C1339 1.415 . S
C1342 H1332 0.930 . S
C1342 C1340 1.419 . S
C1342 C1343 1.362 . S
C1343 H1333 0.930 . S
C1343 C1336 1.409 . S
C1343 C1342 1.362 . S
H1344 C1350 0.930 . S
H1345 C1353 0.930 . S
H1346 C1354 0.930 . S
H1347 C1355 0.930 . S
H1348 C1358 0.930 . S
H1349 C1359 0.930 . S
C1350 H1344 0.930 . S
C1350 C1351 1.355 . S
C1350 C1352 1.415 . S
C1351 C1350 1.355 . S
C1351 C1353 1.419 . S
C1352 C1350 1.415 . S
C1352 C1357 1.425 . S
C1352 C1359 1.409 . S
C1353 H1345 0.930 . S
C1353 C1351 1.419 . S
C1353 C1354 1.362 . S
C1354 H1346 0.930 . S
C1354 C1353 1.362 . S
C1354 C1357 1.409 . S
C1355 H1347 0.930 . S
C1355 C1356 1.355 . S
C1355 C1357 1.415 . S
C1356 C1355 1.355 . S
C1356 C1358 1.419 . S
C1357 C1352 1.425 . S
C1357 C1354 1.409 . S
C1357 C1355 1.415 . S
C1358 H1348 0.930 . S
C1358 C1356 1.419 . S
C1358 C1359 1.362 . S
C1359 H1349 0.930 . S
C1359 C1352 1.409 . S
C1359 C1358 1.362 . S
H1360 C1366 0.930 . S
H1361 C1369 0.930 . S
H1362 C1370 0.930 . S
H1363 C1371 0.930 . S
H1364 C1374 0.930 . S
H1365 C1375 0.930 . S
C1366 H1360 0.930 . S
C1366 C1367 1.355 . S
C1366 C1368 1.415 . S
C1367 C1366 1.355 . S
C1367 C1369 1.419 . S
C1368 C1366 1.415 . S
C1368 C1373 1.425 . S
C1368 C1375 1.409 . S
C1369 H1361 0.930 . S
C1369 C1367 1.419 . S
C1369 C1370 1.362 . S
C1370 H1362 0.930 . S
C1370 C1369 1.362 . S
C1370 C1373 1.409 . S
C1371 H1363 0.930 . S
C1371 C1372 1.355 . S
C1371 C1373 1.415 . S
C1372 C1371 1.355 . S
C1372 C1374 1.419 . S
C1373 C1368 1.425 . S
C1373 C1370 1.409 . S
C1373 C1371 1.415 . S
C1374 H1364 0.930 . S
C1374 C1372 1.419 . S
C1374 C1375 1.362 . S
C1375 H1365 0.930 . S
C1375 C1368 1.409 . S
C1375 C1374 1.362 . S
H1376 C1382 0.930 . S
H1377 C1385 0.930 . S
H1378 C1386 0.930 . S
H1379 C1387 0.930 . S
H1380 C1390 0.930 . S
H1381 C1391 0.930 . S
C1382 H1376 0.930 . S
C1382 C1383 1.355 . S
C1382 C1384 1.415 . S
C1383 C1382 1.355 . S
C1383 C1385 1.419 . S
C1384 C1382 1.415 . S
C1384 C1389 1.425 . S
C1384 C1391 1.409 . S
C1385 H1377 0.930 . S
C1385 C1383 1.419 . S
C1385 C1386 1.362 . S
C1386 H1378 0.930 . S
C1386 C1385 1.362 . S
C1386 C1389 1.409 . S
C1387 H1379 0.930 . S
C1387 C1388 1.355 . S
C1387 C1389 1.415 . S
C1388 C1387 1.355 . S
C1388 C1390 1.419 . S
C1389 C1384 1.425 . S
C1389 C1386 1.409 . S
C1389 C1387 1.415 . S
C1390 H1380 0.930 . S
C1390 C1388 1.419 . S
C1390 C1391 1.362 . S
C1391 H1381 0.930 . S
C1391 C1384 1.409 . S
C1391 C1390 1.362 . S
H1392 C1398 0.930 . S
H1393 C1401 0.930 . S
H1394 C1402 0.930 . S
H1395 C1403 0.930 . S
H1396 C1406 0.930 . S
H1397 C1407 0.930 . S
C1398 H1392 0.930 . S
C1398 C1399 1.355 . S
C1398 C1400 1.415 . S
C1399 C1398 1.355 . S
C1399 C1401 1.419 . S
C1400 C1398 1.415 . S
C1400 C1405 1.425 . S
C1400 C1407 1.409 . S
C1401 H1393 0.930 . S
C1401 C1399 1.419 . S
C1401 C1402 1.362 . S
C1402 H1394 0.930 . S
C1402 C1401 1.362 . S
C1402 C1405 1.409 . S
C1403 H1395 0.930 . S
C1403 C1404 1.355 . S
C1403 C1405 1.415 . S
C1404 C1403 1.355 . S
C1404 C1406 1.419 . S
C1405 C1400 1.425 . S
C1405 C1402 1.409 . S
C1405 C1403 1.415 . S
C1406 H1396 0.930 . S
C1406 C1404 1.419 . S
C1406 C1407 1.362 . S
C1407 H1397 0.930 . S
C1407 C1400 1.409 . S
C1407 C1406 1.362 . S
H1408 C1414 0.930 . S
H1409 C1417 0.930 . S
H1410 C1418 0.930 . S
H1411 C1419 0.930 . S
H1412 C1422 0.930 . S
H1413 C1423 0.930 . S
C1414 H1408 0.930 . S
C1414 C1415 1.355 . S
C1414 C1416 1.415 . S
C1415 C1414 1.355 . S
C1415 C1417 1.419 . S
C1416 C1414 1.415 . S
C1416 C1421 1.425 . S
C1416 C1423 1.409 . S
C1417 H1409 0.930 . S
C1417 C1415 1.419 . S
C1417 C1418 1.362 . S
C1418 H1410 0.930 . S
C1418 C1417 1.362 . S
C1418 C1421 1.409 . S
C1419 H1411 0.930 . S
C1419 C1420 1.355 . S
C1419 C1421 1.415 . S
C1420 C1419 1.355 . S
C1420 C1422 1.419 . S
C1421 C1416 1.425 . S
C1421 C1418 1.409 . S
C1421 C1419 1.415 . S
C1422 H1412 0.930 . S
C1422 C1420 1.419 . S
C1422 C1423 1.362 . S
C1423 H1413 0.930 . S
C1423 C1416 1.409 . S
C1423 C1422 1.362 . S
H1424 C1430 0.930 . S
H1425 C1433 0.930 . S
H1426 C1434 0.930 . S
H1427 C1435 0.930 . S
H1428 C1438 0.930 . S
H1429 C1439 0.930 . S
C1430 H1424 0.930 . S
C1430 C1431 1.355 1_655 S
C1430 C1432 1.415 . S
C1431 C1430 1.355 1_455 S
C1431 C1433 1.419 . S
C1432 C1430 1.415 . S
C1432 C1437 1.425 1_655 S
C1432 C1439 1.409 . S
C1433 H1425 0.930 . S
C1433 C1431 1.419 . S
C1433 C1434 1.362 . S
C1434 H1426 0.930 . S
C1434 C1433 1.362 . S
C1434 C1437 1.409 . S
C1435 H1427 0.930 . S
C1435 C1436 1.355 1_455 S
C1435 C1437 1.415 . S
C1436 C1435 1.355 1_655 S
C1436 C1438 1.419 . S
C1437 C1432 1.425 1_455 S
C1437 C1434 1.409 . S
C1437 C1435 1.415 . S
C1438 H1428 0.930 . S
C1438 C1436 1.419 . S
C1438 C1439 1.362 . S
C1439 H1429 0.930 . S
C1439 C1432 1.409 . S
C1439 C1438 1.362 . S
H1440 C1446 0.930 . S
H1441 C1449 0.930 . S
H1442 C1450 0.930 . S
H1443 C1451 0.930 . S
H1444 C1454 0.930 . S
H1445 C1455 0.930 . S
C1446 H1440 0.930 . S
C1446 C1447 1.355 . S
C1446 C1448 1.415 . S
C1447 C1446 1.355 . S
C1447 C1449 1.419 . S
C1448 C1446 1.415 . S
C1448 C1453 1.425 . S
C1448 C1455 1.409 . S
C1449 H1441 0.930 . S
C1449 C1447 1.419 . S
C1449 C1450 1.362 . S
C1450 H1442 0.930 . S
C1450 C1449 1.362 . S
C1450 C1453 1.409 . S
C1451 H1443 0.930 . S
C1451 C1452 1.355 . S
C1451 C1453 1.415 . S
C1452 C1451 1.355 . S
C1452 C1454 1.419 . S
C1453 C1448 1.425 . S
C1453 C1450 1.409 . S
C1453 C1451 1.415 . S
C1454 H1444 0.930 . S
C1454 C1452 1.419 . S
C1454 C1455 1.362 . S
C1455 H1445 0.930 . S
C1455 C1448 1.409 . S
C1455 C1454 1.362 . S
H1456 C1462 0.930 . S
H1457 C1465 0.930 . S
H1458 C1466 0.930 1_554 S
H1459 C1467 0.930 . S
H1460 C1470 0.930 . S
H1461 C1471 0.930 . S
C1462 H1456 0.930 . S
C1462 C1463 1.355 . S
C1462 C1464 1.415 . S
C1463 C1462 1.355 . S
C1463 C1465 1.419 . S
C1464 C1462 1.415 . S
C1464 C1469 1.449 . S
C1464 C1471 1.409 . S
C1465 H1457 0.930 . S
C1465 C1463 1.419 . S
C1465 C1466 1.362 . S
C1466 H1458 0.930 1_556 S
C1466 C1465 1.362 . S
C1466 C1469 1.410 . S
C1467 H1459 0.930 . S
C1467 C1468 1.355 . S
C1467 C1469 1.392 1_554 S
C1468 C1467 1.355 . S
C1468 C1470 1.419 . S
C1469 C1464 1.449 . S
C1469 C1466 1.410 . S
C1469 C1467 1.392 1_556 S
C1470 H1460 0.930 . S
C1470 C1468 1.419 . S
C1470 C1471 1.362 1_554 S
C1471 H1461 0.930 . S
C1471 C1464 1.409 . S
C1471 C1470 1.362 1_556 S
H1472 C1478 0.930 . S
H1473 C1481 0.930 . S
H1474 C1482 0.930 . S
H1475 C1483 0.930 . S
H1476 C1486 0.930 . S
H1477 C1487 0.930 1_455 S
C1478 H1472 0.930 . S
C1478 C1479 1.355 . S
C1478 C1480 1.415 1_455 S
C1479 C1478 1.355 . S
C1479 C1481 1.419 1_455 S
C1480 C1478 1.415 1_655 S
C1480 C1485 1.425 . S
C1480 C1487 1.409 . S
C1481 H1473 0.930 . S
C1481 C1479 1.419 1_655 S
C1481 C1482 1.362 . S
C1482 H1474 0.930 . S
C1482 C1481 1.362 . S
C1482 C1485 1.409 . S
C1483 H1475 0.930 . S
C1483 C1484 1.355 . S
C1483 C1485 1.415 . S
C1484 C1483 1.355 . S
C1484 C1486 1.419 . S
C1485 C1480 1.425 . S
C1485 C1482 1.409 . S
C1485 C1483 1.415 . S
C1486 H1476 0.930 . S
C1486 C1484 1.419 . S
C1486 C1487 1.362 . S
C1487 H1477 0.930 1_655 S
C1487 C1480 1.409 . S
C1487 C1486 1.362 . S
H1488 C1494 0.930 . S
H1489 C1497 0.930 . S
H1490 C1498 0.930 . S
H1491 C1499 0.930 . S
H1492 C1502 0.930 1_565 S
H1493 C1503 0.930 1_565 S
C1494 H1488 0.930 . S
C1494 C1495 1.355 . S
C1494 C1496 1.415 . S
C1495 C1494 1.355 . S
C1495 C1497 1.419 . S
C1496 C1494 1.415 . S
C1496 C1501 1.425 . S
C1496 C1503 1.409 . S
C1497 H1489 0.930 . S
C1497 C1495 1.419 . S
C1497 C1498 1.362 . S
C1498 H1490 0.930 . S
C1498 C1497 1.362 . S
C1498 C1501 1.409 . S
C1499 H1491 0.930 . S
C1499 C1500 1.355 . S
C1499 C1501 1.415 . S
C1500 C1499 1.355 . S
C1500 C1502 1.419 . S
C1501 C1496 1.425 . S
C1501 C1498 1.409 . S
C1501 C1499 1.415 . S
C1502 H1492 0.930 1_545 S
C1502 C1500 1.419 . S
C1502 C1503 1.362 . S
C1503 H1493 0.930 1_545 S
C1503 C1496 1.409 . S
C1503 C1502 1.362 . S
H1504 C1510 0.930 . S
H1505 C1513 0.930 . S
H1506 C1514 0.930 . S
H1507 C1515 0.930 . S
H1508 C1518 0.930 . S
H1509 C1519 0.930 . S
C1510 H1504 0.930 . S
C1510 C1511 1.355 . S
C1510 C1512 1.415 . S
C1511 C1510 1.355 . S
C1511 C1513 1.419 . S
C1512 C1510 1.415 . S
C1512 C1517 1.425 . S
C1512 C1519 1.409 . S
C1513 H1505 0.930 . S
C1513 C1511 1.419 . S
C1513 C1514 1.362 . S
C1514 H1506 0.930 . S
C1514 C1513 1.362 . S
C1514 C1517 1.409 . S
C1515 H1507 0.930 . S
C1515 C1516 1.355 . S
C1515 C1517 1.415 . S
C1516 C1515 1.355 . S
C1516 C1518 1.419 . S
C1517 C1512 1.425 . S
C1517 C1514 1.409 . S
C1517 C1515 1.415 . S
C1518 H1508 0.930 . S
C1518 C1516 1.419 . S
C1518 C1519 1.362 . S
C1519 H1509 0.930 . S
C1519 C1512 1.409 . S
C1519 C1518 1.362 . S
H1520 C1526 0.930 . S
H1521 C1529 0.930 . S
H1522 C1530 0.930 . S
H1523 C1531 0.930 . S
H1524 C1534 0.930 . S
H1525 C1535 0.930 . S
C1526 H1520 0.930 . S
C1526 C1527 1.355 . S
C1526 C1528 1.415 . S
C1527 C1526 1.355 . S
C1527 C1529 1.419 . S
C1528 C1526 1.415 . S
C1528 C1533 1.425 . S
C1528 C1535 1.409 . S
C1529 H1521 0.930 . S
C1529 C1527 1.419 . S
C1529 C1530 1.362 . S
C1530 H1522 0.930 . S
C1530 C1529 1.362 . S
C1530 C1533 1.409 . S
C1531 H1523 0.930 . S
C1531 C1532 1.355 . S
C1531 C1533 1.415 . S
C1532 C1531 1.355 . S
C1532 C1534 1.419 . S
C1533 C1528 1.425 . S
C1533 C1530 1.409 . S
C1533 C1531 1.415 . S
C1534 H1524 0.930 . S
C1534 C1532 1.419 . S
C1534 C1535 1.362 . S
C1535 H1525 0.930 . S
C1535 C1528 1.409 . S
C1535 C1534 1.362 . S
H1536 C1542 0.930 . S
H1537 C1545 0.930 . S
H1538 C1546 0.930 . S
H1539 C1547 0.930 . S
H1540 C1550 0.930 . S
H1541 C1551 0.930 . S
C1542 H1536 0.930 . S
C1542 C1543 1.355 . S
C1542 C1544 1.415 . S
C1543 C1542 1.355 . S
C1543 C1545 1.419 . S
C1544 C1542 1.415 . S
C1544 C1549 1.425 . S
C1544 C1551 1.409 . S
C1545 H1537 0.930 . S
C1545 C1543 1.419 . S
C1545 C1546 1.362 . S
C1546 H1538 0.930 . S
C1546 C1545 1.362 . S
C1546 C1549 1.409 . S
C1547 H1539 0.930 . S
C1547 C1548 1.355 . S
C1547 C1549 1.415 . S
C1548 C1547 1.355 . S
C1548 C1550 1.419 . S
C1549 C1544 1.425 . S
C1549 C1546 1.409 . S
C1549 C1547 1.415 . S
C1550 H1540 0.930 . S
C1550 C1548 1.419 . S
C1550 C1551 1.362 . S
C1551 H1541 0.930 . S
C1551 C1544 1.409 . S
C1551 C1550 1.362 . S
H1552 C1558 0.930 . S
H1553 C1561 0.930 . S
H1554 C1562 0.930 . S
H1555 C1563 0.930 . S
H1556 C1566 0.930 . S
H1557 C1567 0.930 . S
C1558 H1552 0.930 . S
C1558 C1559 1.355 . S
C1558 C1560 1.415 . S
C1559 C1558 1.355 . S
C1559 C1561 1.419 . S
C1560 C1558 1.415 . S
C1560 C1565 1.425 . S
C1560 C1567 1.409 . S
C1561 H1553 0.930 . S
C1561 C1559 1.419 . S
C1561 C1562 1.362 . S
C1562 H1554 0.930 . S
C1562 C1561 1.362 . S
C1562 C1565 1.409 . S
C1563 H1555 0.930 . S
C1563 C1564 1.355 . S
C1563 C1565 1.415 . S
C1564 C1563 1.355 . S
C1564 C1566 1.419 . S
C1565 C1560 1.425 . S
C1565 C1562 1.409 . S
C1565 C1563 1.415 . S
C1566 H1556 0.930 . S
C1566 C1564 1.419 . S
C1566 C1567 1.362 . S
C1567 H1557 0.930 . S
C1567 C1560 1.409 . S
C1567 C1566 1.362 . S
H1568 C1574 0.930 . S
H1569 C1577 0.930 . S
H1570 C1578 0.930 . S
H1571 C1579 0.930 . S
H1572 C1582 0.930 . S
H1573 C1583 0.930 . S
C1574 H1568 0.930 . S
C1574 C1575 1.355 . S
C1574 C1576 1.415 . S
C1575 C1574 1.355 . S
C1575 C1577 1.419 . S
C1576 C1574 1.415 . S
C1576 C1581 1.425 . S
C1576 C1583 1.409 . S
C1577 H1569 0.930 . S
C1577 C1575 1.419 . S
C1577 C1578 1.362 . S
C1578 H1570 0.930 . S
C1578 C1577 1.362 . S
C1578 C1581 1.409 . S
C1579 H1571 0.930 . S
C1579 C1580 1.355 . S
C1579 C1581 1.415 . S
C1580 C1579 1.355 . S
C1580 C1582 1.419 . S
C1581 C1576 1.425 . S
C1581 C1578 1.409 . S
C1581 C1579 1.415 . S
C1582 H1572 0.930 . S
C1582 C1580 1.419 . S
C1582 C1583 1.362 . S
C1583 H1573 0.930 . S
C1583 C1576 1.409 . S
C1583 C1582 1.362 . S
H1584 C1590 0.930 . S
H1585 C1593 0.940 . S
H1586 C1594 0.930 . S
H1587 C1595 0.930 . S
H1588 C1598 0.930 . S
H1589 C1599 0.930 . S
C1590 H1584 0.930 . S
C1590 C1591 1.355 . S
C1590 C1592 1.415 . S
C1591 C1590 1.355 . S
C1591 C1593 1.404 1_545 S
C1592 C1590 1.415 . S
C1592 C1597 1.425 . S
C1592 C1599 1.409 . S
C1593 H1585 0.940 . S
C1593 C1591 1.404 1_565 S
C1593 C1594 1.369 . S
C1594 H1586 0.930 . S
C1594 C1593 1.369 . S
C1594 C1597 1.409 1_565 S
C1595 H1587 0.930 . S
C1595 C1596 1.355 1_565 S
C1595 C1597 1.415 1_565 S
C1596 C1595 1.355 1_545 S
C1596 C1598 1.419 . S
C1597 C1592 1.425 . S
C1597 C1594 1.409 1_545 S
C1597 C1595 1.415 1_545 S
C1598 H1588 0.930 . S
C1598 C1596 1.419 . S
C1598 C1599 1.362 . S
C1599 H1589 0.930 . S
C1599 C1592 1.409 . S
C1599 C1598 1.362 . S
H1600 C1606 0.930 . S
H1601 C1609 0.930 1_554 S
H1602 C1610 0.930 . S
H1603 C1611 0.930 . S
H1604 C1614 0.930 . S
H1605 C1615 0.930 . S
C1606 H1600 0.930 . S
C1606 C1607 1.355 . S
C1606 C1608 1.415 . S
C1607 C1606 1.355 . S
C1607 C1609 1.419 . S
C1608 C1606 1.415 . S
C1608 C1613 1.425 . S
C1608 C1615 1.409 . S
C1609 H1601 0.930 1_556 S
C1609 C1607 1.419 . S
C1609 C1610 1.362 . S
C1610 H1602 0.930 . S
C1610 C1609 1.362 . S
C1610 C1613 1.409 . S
C1611 H1603 0.930 . S
C1611 C1612 1.355 . S
C1611 C1613 1.415 . S
C1612 C1611 1.355 . S
C1612 C1614 1.419 . S
C1613 C1608 1.425 . S
C1613 C1610 1.409 . S
C1613 C1611 1.415 . S
C1614 H1604 0.930 . S
C1614 C1612 1.419 . S
C1614 C1615 1.362 . S
C1615 H1605 0.930 . S
C1615 C1608 1.409 . S
C1615 C1614 1.362 . S
H1616 C1622 0.930 . S
H1617 C1625 0.930 . S
H1618 C1626 0.930 . S
H1619 C1627 0.930 . S
H1620 C1630 0.930 . S
H1621 C1631 0.930 . S
C1622 H1616 0.930 . S
C1622 C1623 1.355 . S
C1622 C1624 1.415 . S
C1623 C1622 1.355 . S
C1623 C1625 1.419 . S
C1624 C1622 1.415 . S
C1624 C1629 1.425 . S
C1624 C1631 1.409 . S
C1625 H1617 0.930 . S
C1625 C1623 1.419 . S
C1625 C1626 1.362 . S
C1626 H1618 0.930 . S
C1626 C1625 1.362 . S
C1626 C1629 1.409 . S
C1627 H1619 0.930 . S
C1627 C1628 1.355 . S
C1627 C1629 1.415 . S
C1628 C1627 1.355 . S
C1628 C1630 1.419 . S
C1629 C1624 1.425 . S
C1629 C1626 1.409 . S
C1629 C1627 1.415 . S
C1630 H1620 0.930 . S
C1630 C1628 1.419 . S
C1630 C1631 1.362 . S
C1631 H1621 0.930 . S
C1631 C1624 1.409 . S
C1631 C1630 1.362 . S
H1632 C1638 0.930 . S
H1633 C1641 0.930 . S
H1634 C1642 0.930 . S
H1635 C1643 0.930 . S
H1636 C1646 0.930 . S
H1637 C1647 0.930 . S
C1638 H1632 0.930 . S
C1638 C1639 1.355 . S
C1638 C1640 1.415 . S
C1639 C1638 1.355 . S
C1639 C1641 1.419 . S
C1640 C1638 1.415 . S
C1640 C1645 1.425 . S
C1640 C1647 1.409 . S
C1641 H1633 0.930 . S
C1641 C1639 1.419 . S
C1641 C1642 1.362 . S
C1642 H1634 0.930 . S
C1642 C1641 1.362 . S
C1642 C1645 1.409 . S
C1643 H1635 0.930 . S
C1643 C1644 1.355 . S
C1643 C1645 1.415 . S
C1644 C1643 1.355 . S
C1644 C1646 1.419 . S
C1645 C1640 1.425 . S
C1645 C1642 1.409 . S
C1645 C1643 1.415 . S
C1646 H1636 0.930 . S
C1646 C1644 1.419 . S
C1646 C1647 1.362 . S
C1647 H1637 0.930 . S
C1647 C1640 1.409 . S
C1647 C1646 1.362 . S
H1648 C1654 0.930 . S
H1649 C1657 0.930 . S
H1650 C1658 0.930 . S
H1651 C1659 0.930 . S
H1652 C1662 0.930 . S
H1653 C1663 0.930 . S
C1654 H1648 0.930 . S
C1654 C1655 1.355 . S
C1654 C1656 1.415 . S
C1655 C1654 1.355 . S
C1655 C1657 1.419 . S
C1656 C1654 1.415 . S
C1656 C1661 1.425 . S
C1656 C1663 1.409 . S
C1657 H1649 0.930 . S
C1657 C1655 1.419 . S
C1657 C1658 1.362 . S
C1658 H1650 0.930 . S
C1658 C1657 1.362 . S
C1658 C1661 1.409 . S
C1659 H1651 0.930 . S
C1659 C1660 1.355 . S
C1659 C1661 1.415 . S
C1660 C1659 1.355 . S
C1660 C1662 1.419 . S
C1661 C1656 1.425 . S
C1661 C1658 1.409 . S
C1661 C1659 1.415 . S
C1662 H1652 0.930 . S
C1662 C1660 1.419 . S
C1662 C1663 1.362 . S
C1663 H1653 0.930 . S
C1663 C1656 1.409 . S
C1663 C1662 1.362 . S
H1664 C1670 0.930 . S
H1665 C1673 0.930 . S
H1666 C1674 0.930 . S
H1667 C1675 0.930 . S
H1668 C1678 0.930 . S
H1669 C1679 0.930 . S
C1670 H1664 0.930 . S
C1670 C1671 1.355 . S
C1670 C1672 1.415 . S
C1671 C1670 1.355 . S
C1671 C1673 1.419 . S
C1672 C1670 1.415 . S
C1672 C1677 1.425 . S
C1672 C1679 1.409 . S
C1673 H1665 0.930 . S
C1673 C1671 1.419 . S
C1673 C1674 1.362 . S
C1674 H1666 0.930 . S
C1674 C1673 1.362 . S
C1674 C1677 1.409 . S
C1675 H1667 0.930 . S
C1675 C1676 1.355 . S
C1675 C1677 1.415 . S
C1676 C1675 1.355 . S
C1676 C1678 1.419 . S
C1677 C1672 1.425 . S
C1677 C1674 1.409 . S
C1677 C1675 1.415 . S
C1678 H1668 0.930 . S
C1678 C1676 1.419 . S
C1678 C1679 1.362 . S
C1679 H1669 0.930 . S
C1679 C1672 1.409 . S
C1679 C1678 1.362 . S
H1680 C1686 0.930 . S
H1681 C1689 0.930 . S
H1682 C1690 0.930 . S
H1683 C1691 0.930 . S
H1684 C1694 0.930 . S
H1685 C1695 0.930 . S
C1686 H1680 0.930 . S
C1686 C1687 1.355 . S
C1686 C1688 1.415 . S
C1687 C1686 1.355 . S
C1687 C1689 1.419 . S
C1688 C1686 1.415 . S
C1688 C1693 1.425 . S
C1688 C1695 1.409 . S
C1689 H1681 0.930 . S
C1689 C1687 1.419 . S
C1689 C1690 1.362 . S
C1690 H1682 0.930 . S
C1690 C1689 1.362 . S
C1690 C1693 1.409 . S
C1691 H1683 0.930 . S
C1691 C1692 1.355 . S
C1691 C1693 1.415 . S
C1692 C1691 1.355 . S
C1692 C1694 1.419 . S
C1693 C1688 1.425 . S
C1693 C1690 1.409 . S
C1693 C1691 1.415 . S
C1694 H1684 0.930 . S
C1694 C1692 1.419 . S
C1694 C1695 1.362 . S
C1695 H1685 0.930 . S
C1695 C1688 1.409 . S
C1695 C1694 1.362 . S
H1696 C1702 0.930 . S
H1697 C1705 0.930 . S
H1698 C1706 0.930 . S
H1699 C1707 0.930 . S
H1700 C1710 0.930 . S
H1701 C1711 0.930 . S
C1702 H1696 0.930 . S
C1702 C1703 1.355 . S
C1702 C1704 1.415 . S
C1703 C1702 1.355 . S
C1703 C1705 1.419 . S
C1704 C1702 1.415 . S
C1704 C1709 1.425 . S
C1704 C1711 1.409 . S
C1705 H1697 0.930 . S
C1705 C1703 1.419 . S
C1705 C1706 1.362 . S
C1706 H1698 0.930 . S
C1706 C1705 1.362 . S
C1706 C1709 1.409 . S
C1707 H1699 0.930 . S
C1707 C1708 1.355 . S
C1707 C1709 1.415 . S
C1708 C1707 1.355 . S
C1708 C1710 1.419 . S
C1709 C1704 1.425 . S
C1709 C1706 1.409 . S
C1709 C1707 1.415 . S
C1710 H1700 0.930 . S
C1710 C1708 1.419 . S
C1710 C1711 1.362 . S
C1711 H1701 0.930 . S
C1711 C1704 1.409 . S
C1711 C1710 1.362 . S
H1712 C1718 0.930 . S
H1713 C1721 0.930 . S
H1714 C1722 0.930 . S
H1715 C1723 0.930 . S
H1716 C1726 0.930 . S
H1717 C1727 0.930 . S
C1718 H1712 0.930 . S
C1718 C1719 1.355 . S
C1718 C1720 1.415 . S
C1719 C1718 1.355 . S
C1719 C1721 1.419 . S
C1720 C1718 1.415 . S
C1720 C1725 1.425 . S
C1720 C1727 1.409 . S
C1721 H1713 0.930 . S
C1721 C1719 1.419 . S
C1721 C1722 1.362 . S
C1722 H1714 0.930 . S
C1722 C1721 1.362 . S
C1722 C1725 1.409 . S
C1723 H1715 0.930 . S
C1723 C1724 1.355 . S
C1723 C1725 1.415 . S
C1724 C1723 1.355 . S
C1724 C1726 1.419 . S
C1725 C1720 1.425 . S
C1725 C1722 1.409 . S
C1725 C1723 1.415 . S
C1726 H1716 0.930 . S
C1726 C1724 1.419 . S
C1726 C1727 1.362 . S
C1727 H1717 0.930 . S
C1727 C1720 1.409 . S
C1727 C1726 1.362 . S
H1728 C1734 0.930 . S
H1729 C1737 0.930 . S
H1730 C1738 0.930 . S
H1731 C1739 0.930 . S
H1732 C1742 0.930 . S
H1733 C1743 0.930 . S
C1734 H1728 0.930 . S
C1734 C1735 1.355 . S
C1734 C1736 1.415 . S
C1735 C1734 1.355 . S
C1735 C1737 1.419 . S
C1736 C1734 1.415 . S
C1736 C1741 1.425 . S
C1736 C1743 1.409 . S
C1737 H1729 0.930 . S
C1737 C1735 1.419 . S
C1737 C1738 1.362 . S
C1738 H1730 0.930 . S
C1738 C1737 1.362 . S
C1738 C1741 1.409 . S
C1739 H1731 0.930 . S
C1739 C1740 1.355 . S
C1739 C1741 1.415 . S
C1740 C1739 1.355 . S
C1740 C1742 1.419 . S
C1741 C1736 1.425 . S
C1741 C1738 1.409 . S
C1741 C1739 1.415 . S
C1742 H1732 0.930 . S
C1742 C1740 1.419 . S
C1742 C1743 1.362 . S
C1743 H1733 0.930 . S
C1743 C1736 1.409 . S
C1743 C1742 1.362 . S
H1744 C1750 0.930 . S
H1745 C1753 0.930 . S
H1746 C1754 0.930 . S
H1747 C1755 0.930 . S
H1748 C1758 0.930 . S
H1749 C1759 0.930 . S
C1750 H1744 0.930 . S
C1750 C1751 1.355 . S
C1750 C1752 1.415 . S
C1751 C1750 1.355 . S
C1751 C1753 1.419 . S
C1752 C1750 1.415 . S
C1752 C1757 1.425 . S
C1752 C1759 1.409 . S
C1753 H1745 0.930 . S
C1753 C1751 1.419 . S
C1753 C1754 1.362 . S
C1754 H1746 0.930 . S
C1754 C1753 1.362 . S
C1754 C1757 1.409 . S
C1755 H1747 0.930 . S
C1755 C1756 1.355 . S
C1755 C1757 1.415 . S
C1756 C1755 1.355 . S
C1756 C1758 1.419 . S
C1757 C1752 1.425 . S
C1757 C1754 1.409 . S
C1757 C1755 1.415 . S
C1758 H1748 0.930 . S
C1758 C1756 1.419 . S
C1758 C1759 1.362 . S
C1759 H1749 0.930 . S
C1759 C1752 1.409 . S
C1759 C1758 1.362 . S
H1760 C1766 0.930 . S
H1761 C1769 0.930 . S
H1762 C1770 0.930 . S
H1763 C1771 0.930 . S
H1764 C1774 0.930 . S
H1765 C1775 0.930 . S
C1766 H1760 0.930 . S
C1766 C1767 1.355 . S
C1766 C1768 1.415 . S
C1767 C1766 1.355 . S
C1767 C1769 1.419 . S
C1768 C1766 1.415 . S
C1768 C1773 1.425 . S
C1768 C1775 1.409 . S
C1769 H1761 0.930 . S
C1769 C1767 1.419 . S
C1769 C1770 1.362 . S
C1770 H1762 0.930 . S
C1770 C1769 1.362 . S
C1770 C1773 1.409 . S
C1771 H1763 0.930 . S
C1771 C1772 1.355 . S
C1771 C1773 1.415 . S
C1772 C1771 1.355 . S
C1772 C1774 1.419 . S
C1773 C1768 1.425 . S
C1773 C1770 1.409 . S
C1773 C1771 1.415 . S
C1774 H1764 0.930 . S
C1774 C1772 1.419 . S
C1774 C1775 1.362 . S
C1775 H1765 0.930 . S
C1775 C1768 1.409 . S
C1775 C1774 1.362 . S
H1776 C1782 0.930 . S
H1777 C1785 0.930 . S
H1778 C1786 0.930 . S
H1779 C1787 0.930 1_655 S
H1780 C1790 0.930 . S
H1781 C1791 0.930 . S
C1782 H1776 0.930 . S
C1782 C1783 1.355 . S
C1782 C1784 1.415 . S
C1783 C1782 1.355 . S
C1783 C1785 1.419 1_454 S
C1784 C1782 1.415 . S
C1784 C1789 1.425 . S
C1784 C1791 1.409 . S
C1785 H1777 0.930 . S
C1785 C1783 1.419 1_656 S
C1785 C1786 1.362 . S
C1786 H1778 0.930 . S
C1786 C1785 1.362 . S
C1786 C1789 1.409 1_656 S
C1787 H1779 0.930 1_455 S
C1787 C1788 1.355 . S
C1787 C1789 1.415 . S
C1788 C1787 1.355 . S
C1788 C1790 1.419 . S
C1789 C1784 1.425 . S
C1789 C1786 1.409 1_454 S
C1789 C1787 1.415 . S
C1790 H1780 0.930 . S
C1790 C1788 1.419 . S
C1790 C1791 1.362 . S
C1791 H1781 0.930 . S
C1791 C1784 1.409 . S
C1791 C1790 1.362 . S
H1792 C1798 0.930 . S
H1793 C1801 0.930 1_455 S
H1794 C1802 0.930 . S
H1795 C1803 0.930 . S
H1796 C1806 0.930 . S
H1797 C1807 0.930 . S
C1798 H1792 0.930 . S
C1798 C1799 1.355 1_655 S
C1798 C1800 1.415 . S
C1799 C1798 1.355 1_455 S
C1799 C1801 1.419 1_455 S
C1800 C1798 1.415 . S
C1800 C1805 1.425 . S
C1800 C1807 1.409 . S
C1801 H1793 0.930 1_655 S
C1801 C1799 1.419 1_655 S
C1801 C1802 1.362 . S
C1802 H1794 0.930 . S
C1802 C1801 1.362 . S
C1802 C1805 1.409 . S
C1803 H1795 0.930 . S
C1803 C1804 1.355 . S
C1803 C1805 1.415 . S
C1804 C1803 1.355 . S
C1804 C1806 1.419 . S
C1805 C1800 1.425 . S
C1805 C1802 1.409 . S
C1805 C1803 1.415 . S
C1806 H1796 0.930 . S
C1806 C1804 1.419 . S
C1806 C1807 1.362 . S
C1807 H1797 0.930 . S
C1807 C1800 1.409 . S
C1807 C1806 1.362 . S
H1808 C1814 0.930 . S
H1809 C1817 0.930 . S
H1810 C1818 0.930 . S
H1811 C1819 0.930 . S
H1812 C1822 0.930 . S
H1813 C1823 0.930 . S
C1814 H1808 0.930 . S
C1814 C1815 1.355 . S
C1814 C1816 1.415 . S
C1815 C1814 1.355 . S
C1815 C1817 1.419 . S
C1816 C1814 1.415 . S
C1816 C1821 1.425 . S
C1816 C1823 1.409 . S
C1817 H1809 0.930 . S
C1817 C1815 1.419 . S
C1817 C1818 1.362 . S
C1818 H1810 0.930 . S
C1818 C1817 1.362 . S
C1818 C1821 1.409 . S
C1819 H1811 0.930 . S
C1819 C1820 1.355 . S
C1819 C1821 1.415 . S
C1820 C1819 1.355 . S
C1820 C1822 1.419 . S
C1821 C1816 1.425 . S
C1821 C1818 1.409 . S
C1821 C1819 1.415 . S
C1822 H1812 0.930 . S
C1822 C1820 1.419 . S
C1822 C1823 1.362 . S
C1823 H1813 0.930 . S
C1823 C1816 1.409 . S
C1823 C1822 1.362 . S
H1824 C1830 0.930 . S
H1825 C1833 0.930 . S
H1826 C1834 0.930 . S
H1827 C1835 0.930 . S
H1828 C1838 0.930 . S
H1829 C1839 0.930 . S
C1830 H1824 0.930 . S
C1830 C1831 1.355 . S
C1830 C1832 1.415 . S
C1831 C1830 1.355 . S
C1831 C1833 1.419 . S
C1832 C1830 1.415 . S
C1832 C1837 1.425 . S
C1832 C1839 1.409 . S
C1833 H1825 0.930 . S
C1833 C1831 1.419 . S
C1833 C1834 1.362 . S
C1834 H1826 0.930 . S
C1834 C1833 1.362 . S
C1834 C1837 1.409 . S
C1835 H1827 0.930 . S
C1835 C1836 1.355 . S
C1835 C1837 1.415 . S
C1836 C1835 1.355 . S
C1836 C1838 1.419 . S
C1837 C1832 1.425 . S
C1837 C1834 1.409 . S
C1837 C1835 1.415 . S
C1838 H1828 0.930 . S
C1838 C1836 1.419 . S
C1838 C1839 1.362 . S
C1839 H1829 0.930 . S
C1839 C1832 1.409 . S
C1839 C1838 1.362 . S
H1840 C1846 0.930 . S
H1841 C1849 0.930 . S
H1842 C1850 0.930 . S
H1843 C1851 0.930 . S
H1844 C1854 0.930 . S
H1845 C1855 0.930 . S
C1846 H1840 0.930 . S
C1846 C1847 1.355 . S
C1846 C1848 1.415 . S
C1847 C1846 1.355 . S
C1847 C1849 1.419 . S
C1848 C1846 1.415 . S
C1848 C1853 1.425 . S
C1848 C1855 1.409 . S
C1849 H1841 0.930 . S
C1849 C1847 1.419 . S
C1849 C1850 1.362 . S
C1850 H1842 0.930 . S
C1850 C1849 1.362 . S
C1850 C1853 1.409 . S
C1851 H1843 0.930 . S
C1851 C1852 1.355 . S
C1851 C1853 1.415 . S
C1852 C1851 1.355 . S
C1852 C1854 1.419 . S
C1853 C1848 1.425 . S
C1853 C1850 1.409 . S
C1853 C1851 1.415 . S
C1854 H1844 0.930 . S
C1854 C1852 1.419 . S
C1854 C1855 1.362 . S
C1855 H1845 0.930 . S
C1855 C1848 1.409 . S
C1855 C1854 1.362 . S
H1856 C1862 0.930 . S
H1857 C1865 0.930 . S
H1858 C1866 0.930 . S
H1859 C1867 0.930 . S
H1860 C1870 0.930 . S
H1861 C1871 0.930 . S
C1862 H1856 0.930 . S
C1862 C1863 1.355 . S
C1862 C1864 1.415 . S
C1863 C1862 1.355 . S
C1863 C1865 1.419 . S
C1864 C1862 1.415 . S
C1864 C1869 1.425 . S
C1864 C1871 1.409 . S
C1865 H1857 0.930 . S
C1865 C1863 1.419 . S
C1865 C1866 1.362 . S
C1866 H1858 0.930 . S
C1866 C1865 1.362 . S
C1866 C1869 1.409 . S
C1867 H1859 0.930 . S
C1867 C1868 1.355 . S
C1867 C1869 1.415 . S
C1868 C1867 1.355 . S
C1868 C1870 1.419 . S
C1869 C1864 1.425 . S
C1869 C1866 1.409 . S
C1869 C1867 1.415 . S
C1870 H1860 0.930 . S
C1870 C1868 1.419 . S
C1870 C1871 1.362 . S
C1871 H1861 0.930 . S
C1871 C1864 1.409 . S
C1871 C1870 1.362 . S
H1872 C1878 0.930 . S
H1873 C1881 0.930 . S
H1874 C1882 0.930 . S
H1875 C1883 0.930 . S
H1876 C1886 0.930 . S
H1877 C1887 0.930 . S
C1878 H1872 0.930 . S
C1878 C1879 1.355 . S
C1878 C1880 1.415 . S
C1879 C1878 1.355 . S
C1879 C1881 1.419 . S
C1880 C1878 1.415 . S
C1880 C1885 1.425 . S
C1880 C1887 1.409 . S
C1881 H1873 0.930 . S
C1881 C1879 1.419 . S
C1881 C1882 1.362 . S
C1882 H1874 0.930 . S
C1882 C1881 1.362 . S
C1882 C1885 1.409 . S
C1883 H1875 0.930 . S
C1883 C1884 1.355 . S
C1883 C1885 1.415 . S
C1884 C1883 1.355 . S
C1884 C1886 1.419 . S
C1885 C1880 1.425 . S
C1885 C1882 1.409 . S
C1885 C1883 1.415 . S
C1886 H1876 0.930 . S
C1886 C1884 1.419 . S
C1886 C1887 1.362 . S
C1887 H1877 0.930 . S
C1887 C1880 1.409 . S
C1887 C1886 1.362 . S
H1888 C1894 0.930 . S
H1889 C1897 0.930 . S
H1890 C1898 0.930 . S
H1891 C1899 0.930 1_556 S
H1892 C1902 0.930 . S
H1893 C1903 0.930 . S
C1894 H1888 0.930 . S
C1894 C1895 1.355 . S
C1894 C1896 1.415 . S
C1895 C1894 1.355 . S
C1895 C1897 1.419 . S
C1896 C1894 1.415 . S
C1896 C1901 1.425 . S
C1896 C1903 1.409 . S
C1897 H1889 0.930 . S
C1897 C1895 1.419 . S
C1897 C1898 1.362 . S
C1898 H1890 0.930 . S
C1898 C1897 1.362 . S
C1898 C1901 1.409 . S
C1899 H1891 0.930 1_554 S
C1899 C1900 1.355 1_554 S
C1899 C1901 1.415 . S
C1900 C1899 1.355 1_556 S
C1900 C1902 1.419 . S
C1901 C1896 1.425 . S
C1901 C1898 1.409 . S
C1901 C1899 1.415 . S
C1902 H1892 0.930 . S
C1902 C1900 1.419 . S
C1902 C1903 1.362 1_556 S
C1903 H1893 0.930 . S
C1903 C1896 1.409 . S
C1903 C1902 1.362 1_554 S
H1904 C1910 0.930 . S
H1905 C1913 0.930 . S
H1906 C1914 0.930 . S
H1907 C1915 0.930 . S
H1908 C1918 0.930 . S
H1909 C1919 0.930 . S
C1910 H1904 0.930 . S
C1910 C1911 1.355 . S
C1910 C1912 1.415 . S
C1911 C1910 1.355 . S
C1911 C1913 1.419 . S
C1912 C1910 1.415 . S
C1912 C1917 1.425 . S
C1912 C1919 1.409 . S
C1913 H1905 0.930 . S
C1913 C1911 1.419 . S
C1913 C1914 1.362 . S
C1914 H1906 0.930 . S
C1914 C1913 1.362 . S
C1914 C1917 1.409 . S
C1915 H1907 0.930 . S
C1915 C1916 1.355 . S
C1915 C1917 1.415 . S
C1916 C1915 1.355 . S
C1916 C1918 1.419 . S
C1917 C1912 1.425 . S
C1917 C1914 1.409 . S
C1917 C1915 1.415 . S
C1918 H1908 0.930 . S
C1918 C1916 1.419 . S
C1918 C1919 1.362 . S
C1919 H1909 0.930 . S
C1919 C1912 1.409 . S
C1919 C1918 1.362 . S
H1920 C1926 0.930 . S
H1921 C1929 0.930 . S
H1922 C1930 0.930 . S
H1923 C1931 0.930 . S
H1924 C1934 0.930 . S
H1925 C1935 0.930 . S
C1926 H1920 0.930 . S
C1926 C1927 1.355 . S
C1926 C1928 1.415 . S
C1927 C1926 1.355 . S
C1927 C1929 1.419 . S
C1928 C1926 1.415 . S
C1928 C1933 1.425 . S
C1928 C1935 1.409 . S
C1929 H1921 0.930 . S
C1929 C1927 1.419 . S
C1929 C1930 1.362 . S
C1930 H1922 0.930 . S
C1930 C1929 1.362 . S
C1930 C1933 1.409 . S
C1931 H1923 0.930 . S
C1931 C1932 1.355 . S
C1931 C1933 1.415 . S
C1932 C1931 1.355 . S
C1932 C1934 1.419 . S
C1933 C1928 1.425 . S
C1933 C1930 1.409 . S
C1933 C1931 1.415 . S
C1934 H1924 0.930 . S
C1934 C1932 1.419 . S
C1934 C1935 1.362 . S
C1935 H1925 0.930 . S
C1935 C1928 1.409 . S
C1935 C1934 1.362 . S
H1936 C1942 0.930 . S
H1937 C1945 0.930 . S
H1938 C1946 0.930 . S
H1939 C1947 0.930 . S
H1940 C1950 0.930 . S
H1941 C1951 0.930 . S
C1942 H1936 0.930 . S
C1942 C1943 1.355 . S
C1942 C1944 1.415 . S
C1943 C1942 1.355 . S
C1943 C1945 1.419 . S
C1944 C1942 1.415 . S
C1944 C1949 1.425 . S
C1944 C1951 1.409 . S
C1945 H1937 0.930 . S
C1945 C1943 1.419 . S
C1945 C1946 1.362 . S
C1946 H1938 0.930 . S
C1946 C1945 1.362 . S
C1946 C1949 1.409 . S
C1947 H1939 0.930 . S
C1947 C1948 1.355 . S
C1947 C1949 1.415 . S
C1948 C1947 1.355 . S
C1948 C1950 1.419 . S
C1949 C1944 1.425 . S
C1949 C1946 1.409 . S
C1949 C1947 1.415 . S
C1950 H1940 0.930 . S
C1950 C1948 1.419 . S
C1950 C1951 1.362 . S
C1951 H1941 0.930 . S
C1951 C1944 1.409 . S
C1951 C1950 1.362 . S
H1952 C1958 0.930 . S
H1953 C1961 0.930 . S
H1954 C1962 0.930 . S
H1955 C1963 0.930 . S
H1956 C1966 0.930 . S
H1957 C1967 0.930 . S
C1958 H1952 0.930 . S
C1958 C1959 1.355 . S
C1958 C1960 1.415 . S
C1959 C1958 1.355 . S
C1959 C1961 1.419 . S
C1960 C1958 1.415 . S
C1960 C1965 1.425 . S
C1960 C1967 1.409 . S
C1961 H1953 0.930 . S
C1961 C1959 1.419 . S
C1961 C1962 1.362 . S
C1962 H1954 0.930 . S
C1962 C1961 1.362 . S
C1962 C1965 1.409 . S
C1963 H1955 0.930 . S
C1963 C1964 1.355 . S
C1963 C1965 1.415 . S
C1964 C1963 1.355 . S
C1964 C1966 1.419 . S
C1965 C1960 1.425 . S
C1965 C1962 1.409 . S
C1965 C1963 1.415 . S
C1966 H1956 0.930 . S
C1966 C1964 1.419 . S
C1966 C1967 1.362 . S
C1967 H1957 0.930 . S
C1967 C1960 1.409 . S
C1967 C1966 1.362 . S
H1968 C1974 0.930 . S
H1969 C1977 0.930 . S
H1970 C1978 0.930 . S
H1971 C1979 0.930 . S
H1972 C1982 0.930 . S
H1973 C1983 0.930 . S
C1974 H1968 0.930 . S
C1974 C1975 1.355 . S
C1974 C1976 1.415 . S
C1975 C1974 1.355 . S
C1975 C1977 1.419 . S
C1976 C1974 1.415 . S
C1976 C1981 1.425 . S
C1976 C1983 1.409 . S
C1977 H1969 0.930 . S
C1977 C1975 1.419 . S
C1977 C1978 1.362 . S
C1978 H1970 0.930 . S
C1978 C1977 1.362 . S
C1978 C1981 1.409 . S
C1979 H1971 0.930 . S
C1979 C1980 1.355 . S
C1979 C1981 1.415 . S
C1980 C1979 1.355 . S
C1980 C1982 1.419 . S
C1981 C1976 1.425 . S
C1981 C1978 1.409 . S
C1981 C1979 1.415 . S
C1982 H1972 0.930 . S
C1982 C1980 1.419 . S
C1982 C1983 1.362 . S
C1983 H1973 0.930 . S
C1983 C1976 1.409 . S
C1983 C1982 1.362 . S
H1984 C1990 0.930 . S
H1985 C1993 0.930 . S
H1986 C1994 0.930 . S
H1987 C1995 0.930 . S
H1988 C1998 0.930 . S
H1989 C1999 0.930 . S
C1990 H1984 0.930 . S
C1990 C1991 1.355 . S
C1990 C1992 1.415 . S
C1991 C1990 1.355 . S
C1991 C1993 1.419 . S
C1992 C1990 1.415 . S
C1992 C1997 1.425 . S
C1992 C1999 1.409 . S
C1993 H1985 0.930 . S
C1993 C1991 1.419 . S
C1993 C1994 1.362 . S
C1994 H1986 0.930 . S
C1994 C1993 1.362 . S
C1994 C1997 1.409 . S
C1995 H1987 0.930 . S
C1995 C1996 1.355 . S
C1995 C1997 1.415 . S
C1996 C1995 1.355 . S
C1996 C1998 1.419 . S
C1997 C1992 1.425 . S
C1997 C1994 1.409 . S
C1997 C1995 1.415 . S
C1998 H1988 0.930 . S
C1998 C1996 1.419 . S
C1998 C1999 1.362 . S
C1999 H1989 0.930 . S
C1999 C1992 1.409 . S
C1999 C1998 1.362 . S
H2000 C2006 0.930 . S
H2001 C2009 0.930 . S
H2002 C2010 0.930 . S
H2003 C2011 0.930 . S
H2004 C2014 0.930 . S
H2005 C2015 0.930 . S
C2006 H2000 0.930 . S
C2006 C2007 1.355 . S
C2006 C2008 1.415 . S
C2007 C2006 1.355 . S
C2007 C2009 1.419 . S
C2008 C2006 1.415 . S
C2008 C2013 1.425 . S
C2008 C2015 1.409 . S
C2009 H2001 0.930 . S
C2009 C2007 1.419 . S
C2009 C2010 1.362 . S
C2010 H2002 0.930 . S
C2010 C2009 1.362 . S
C2010 C2013 1.409 . S
C2011 H2003 0.930 . S
C2011 C2012 1.355 . S
C2011 C2013 1.415 . S
C2012 C2011 1.355 . S
C2012 C2014 1.419 . S
C2013 C2008 1.425 . S
C2013 C2010 1.409 . S
C2013 C2011 1.415 . S
C2014 H2004 0.930 . S
C2014 C2012 1.419 . S
C2014 C2015 1.362 . S
C2015 H2005 0.930 . S
C2015 C2008 1.409 . S
C2015 C2014 1.362 . S
H2016 C2022 0.930 . S
H2017 C2025 0.930 . S
H2018 C2026 0.930 . S
H2019 C2027 0.930 . S
H2020 C2030 0.930 . S
H2021 C2031 0.930 . S
C2022 H2016 0.930 . S
C2022 C2023 1.355 . S
C2022 C2024 1.415 . S
C2023 C2022 1.355 . S
C2023 C2025 1.419 . S
C2024 C2022 1.415 . S
C2024 C2029 1.425 . S
C2024 C2031 1.409 . S
C2025 H2017 0.930 . S
C2025 C2023 1.419 . S
C2025 C2026 1.362 . S
C2026 H2018 0.930 . S
C2026 C2025 1.362 . S
C2026 C2029 1.409 . S
C2027 H2019 0.930 . S
C2027 C2028 1.355 . S
C2027 C2029 1.415 . S
C2028 C2027 1.355 . S
C2028 C2030 1.419 . S
C2029 C2024 1.425 . S
C2029 C2026 1.409 . S
C2029 C2027 1.415 . S
C2030 H2020 0.930 . S
C2030 C2028 1.419 . S
C2030 C2031 1.362 . S
C2031 H2021 0.930 . S
C2031 C2024 1.409 . S
C2031 C2030 1.362 . S
H2032 C2038 0.930 . S
H2033 C2041 0.930 . S
H2034 C2042 0.930 . S
H2035 C2043 0.930 . S
H2036 C2046 0.930 . S
H2037 C2047 0.930 . S
C2038 H2032 0.930 . S
C2038 C2039 1.355 . S
C2038 C2040 1.415 1_545 S
C2039 C2038 1.355 . S
C2039 C2041 1.419 1_545 S
C2040 C2038 1.415 1_565 S
C2040 C2045 1.425 . S
C2040 C2047 1.409 . S
C2041 H2033 0.930 . S
C2041 C2039 1.419 1_565 S
C2041 C2042 1.362 . S
C2042 H2034 0.930 . S
C2042 C2041 1.362 . S
C2042 C2045 1.409 . S
C2043 H2035 0.930 . S
C2043 C2044 1.355 . S
C2043 C2045 1.415 . S
C2044 C2043 1.355 . S
C2044 C2046 1.419 . S
C2045 C2040 1.425 . S
C2045 C2042 1.409 . S
C2045 C2043 1.415 . S
C2046 H2036 0.930 . S
C2046 C2044 1.419 . S
C2046 C2047 1.362 . S
C2047 H2037 0.930 . S
C2047 C2040 1.409 . S
C2047 C2046 1.362 . S
H2048 C2054 0.930 1_556 S
H2049 C2057 0.930 . S
H2050 C2058 0.930 . S
H2051 C2059 0.930 . S
H2052 C2062 0.930 . S
H2053 C2063 0.930 1_556 S
C2054 H2048 0.930 1_554 S
C2054 C2055 1.355 . S
C2054 C2056 1.415 . S
C2055 C2054 1.355 . S
C2055 C2057 1.419 . S
C2056 C2054 1.415 . S
C2056 C2061 1.425 . S
C2056 C2063 1.409 . S
C2057 H2049 0.930 . S
C2057 C2055 1.419 . S
C2057 C2058 1.362 . S
C2058 H2050 0.930 . S
C2058 C2057 1.362 . S
C2058 C2061 1.409 . S
C2059 H2051 0.930 . S
C2059 C2060 1.355 . S
C2059 C2061 1.415 . S
C2060 C2059 1.355 . S
C2060 C2062 1.419 . S
C2061 C2056 1.425 . S
C2061 C2058 1.409 . S
C2061 C2059 1.415 . S
C2062 H2052 0.930 . S
C2062 C2060 1.419 . S
C2062 C2063 1.362 . S
C2063 H2053 0.930 1_554 S
C2063 C2056 1.409 . S
C2063 C2062 1.362 . S
H2064 C2070 0.930 . S
H2065 C2073 0.930 . S
H2066 C2074 0.930 . S
H2067 C2075 0.930 . S
H2068 C2078 0.930 . S
H2069 C2079 0.930 . S
C2070 H2064 0.930 . S
C2070 C2071 1.355 . S
C2070 C2072 1.415 . S
C2071 C2070 1.355 . S
C2071 C2073 1.419 . S
C2072 C2070 1.415 . S
C2072 C2077 1.425 . S
C2072 C2079 1.409 . S
C2073 H2065 0.930 . S
C2073 C2071 1.419 . S
C2073 C2074 1.362 . S
C2074 H2066 0.930 . S
C2074 C2073 1.362 . S
C2074 C2077 1.409 . S
C2075 H2067 0.930 . S
C2075 C2076 1.355 . S
C2075 C2077 1.415 . S
C2076 C2075 1.355 . S
C2076 C2078 1.419 . S
C2077 C2072 1.425 . S
C2077 C2074 1.409 . S
C2077 C2075 1.415 . S
C2078 H2068 0.930 . S
C2078 C2076 1.419 . S
C2078 C2079 1.362 . S
C2079 H2069 0.930 . S
C2079 C2072 1.409 . S
C2079 C2078 1.362 . S
H2080 C2086 0.930 . S
H2081 C2089 0.930 . S
H2082 C2090 0.930 . S
H2083 C2091 0.930 . S
H2084 C2094 0.930 . S
H2085 C2095 0.930 . S
C2086 H2080 0.930 . S
C2086 C2087 1.355 . S
C2086 C2088 1.415 . S
C2087 C2086 1.355 . S
C2087 C2089 1.419 . S
C2088 C2086 1.415 . S
C2088 C2093 1.425 . S
C2088 C2095 1.409 . S
C2089 H2081 0.930 . S
C2089 C2087 1.419 . S
C2089 C2090 1.362 . S
C2090 H2082 0.930 . S
C2090 C2089 1.362 . S
C2090 C2093 1.409 . S
C2091 H2083 0.930 . S
C2091 C2092 1.355 . S
C2091 C2093 1.415 . S
C2092 C2091 1.355 . S
C2092 C2094 1.419 . S
C2093 C2088 1.425 . S
C2093 C2090 1.409 . S
C2093 C2091 1.415 . S
C2094 H2084 0.930 . S
C2094 C2092 1.419 . S
C2094 C2095 1.362 . S
C2095 H2085 0.930 . S
C2095 C2088 1.409 . S
C2095 C2094 1.362 . S
H2096 C2102 0.930 . S
H2097 C2105 0.930 . S
H2098 C2106 0.930 . S
H2099 C2107 0.930 . S
H2100 C2110 0.930 . S
H2101 C2111 0.930 . S
C2102 H2096 0.930 . S
C2102 C2103 1.355 . S
C2102 C2104 1.415 . S
C2103 C2102 1.355 . S
C2103 C2105 1.419 . S
C2104 C2102 1.415 . S
C2104 C2109 1.425 . S
C2104 C2111 1.409 . S
C2105 H2097 0.930 . S
C2105 C2103 1.419 . S
C2105 C2106 1.362 . S
C2106 H2098 0.930 . S
C2106 C2105 1.362 . S
C2106 C2109 1.409 . S
C2107 H2099 0.930 . S
C2107 C2108 1.355 . S
C2107 C2109 1.415 . S
C2108 C2107 1.355 . S
C2108 C2110 1.419 . S
C2109 C2104 1.425 . S
C2109 C2106 1.409 . S
C2109 C2107 1.415 . S
C2110 H2100 0.930 . S
C2110 C2108 1.419 . S
C2110 C2111 1.362 . S
C2111 H2101 0.930 . S
C2111 C2104 1.409 . S
C2111 C2110 1.362 . S
H2112 C2118 0.930 . S
H2113 C2121 0.930 . S
H2114 C2122 0.930 . S
H2115 C2123 0.930 . S
H2116 C2126 0.930 . S
H2117 C2127 0.930 . S
C2118 H2112 0.930 . S
C2118 C2119 1.355 . S
C2118 C2120 1.415 . S
C2119 C2118 1.355 . S
C2119 C2121 1.419 . S
C2120 C2118 1.415 . S
C2120 C2125 1.425 . S
C2120 C2127 1.409 . S
C2121 H2113 0.930 . S
C2121 C2119 1.419 . S
C2121 C2122 1.362 . S
C2122 H2114 0.930 . S
C2122 C2121 1.362 . S
C2122 C2125 1.409 . S
C2123 H2115 0.930 . S
C2123 C2124 1.355 . S
C2123 C2125 1.415 . S
C2124 C2123 1.355 . S
C2124 C2126 1.419 . S
C2125 C2120 1.425 . S
C2125 C2122 1.409 . S
C2125 C2123 1.415 . S
C2126 H2116 0.930 . S
C2126 C2124 1.419 . S
C2126 C2127 1.362 . S
C2127 H2117 0.930 . S
C2127 C2120 1.409 . S
C2127 C2126 1.362 . S
H2128 C2134 0.930 . S
H2129 C2137 0.930 . S
H2130 C2138 0.930 . S
H2131 C2139 0.930 . S
H2132 C2142 0.930 . S
H2133 C2143 0.930 . S
C2134 H2128 0.930 . S
C2134 C2135 1.355 . S
C2134 C2136 1.415 . S
C2135 C2134 1.355 . S
C2135 C2137 1.419 . S
C2136 C2134 1.415 . S
C2136 C2141 1.425 . S
C2136 C2143 1.409 . S
C2137 H2129 0.930 . S
C2137 C2135 1.419 . S
C2137 C2138 1.362 . S
C2138 H2130 0.930 . S
C2138 C2137 1.362 . S
C2138 C2141 1.409 . S
C2139 H2131 0.930 . S
C2139 C2140 1.355 . S
C2139 C2141 1.415 . S
C2140 C2139 1.355 . S
C2140 C2142 1.419 . S
C2141 C2136 1.425 . S
C2141 C2138 1.409 . S
C2141 C2139 1.415 . S
C2142 H2132 0.930 . S
C2142 C2140 1.419 . S
C2142 C2143 1.362 . S
C2143 H2133 0.930 . S
C2143 C2136 1.409 . S
C2143 C2142 1.362 . S
H2144 C2150 0.930 . S
H2145 C2153 0.930 . S
H2146 C2154 0.930 . S
H2147 C2155 0.930 . S
H2148 C2158 0.930 . S
H2149 C2159 0.930 . S
C2150 H2144 0.930 . S
C2150 C2151 1.355 . S
C2150 C2152 1.415 . S
C2151 C2150 1.355 . S
C2151 C2153 1.419 . S
C2152 C2150 1.415 . S
C2152 C2157 1.425 . S
C2152 C2159 1.409 . S
C2153 H2145 0.930 . S
C2153 C2151 1.419 . S
C2153 C2154 1.362 . S
C2154 H2146 0.930 . S
C2154 C2153 1.362 . S
C2154 C2157 1.409 . S
C2155 H2147 0.930 . S
C2155 C2156 1.355 . S
C2155 C2157 1.415 . S
C2156 C2155 1.355 . S
C2156 C2158 1.419 . S
C2157 C2152 1.425 . S
C2157 C2154 1.409 . S
C2157 C2155 1.415 . S
C2158 H2148 0.930 . S
C2158 C2156 1.419 . S
C2158 C2159 1.362 . S
C2159 H2149 0.930 . S
C2159 C2152 1.409 . S
C2159 C2158 1.362 . S
H2160 C2166 0.930 . S
H2161 C2169 0.930 . S
H2162 C2170 0.930 . S
H2163 C2171 0.930 . S
H2164 C2174 0.930 . S
H2165 C2175 0.930 . S
C2166 H2160 0.930 . S
C2166 C2167 1.355 . S
C2166 C2168 1.415 . S
C2167 C2166 1.355 . S
C2167 C2169 1.419 . S
C2168 C2166 1.415 . S
C2168 C2173 1.425 . S
C2168 C2175 1.409 . S
C2169 H2161 0.930 . S
C2169 C2167 1.419 . S
C2169 C2170 1.362 . S
C2170 H2162 0.930 . S
C2170 C2169 1.362 . S
C2170 C2173 1.409 . S
C2171 H2163 0.930 . S
C2171 C2172 1.355 . S
C2171 C2173 1.415 . S
C2172 C2171 1.355 . S
C2172 C2174 1.419 . S
C2173 C2168 1.425 . S
C2173 C2170 1.409 . S
C2173 C2171 1.415 . S
C2174 H2164 0.930 . S
C2174 C2172 1.419 . S
C2174 C2175 1.362 . S
C2175 H2165 0.930 . S
C2175 C2168 1.409 . S
C2175 C2174 1.362 . S
H2176 C2182 0.930 . S
H2177 C2185 0.930 . S
H2178 C2186 0.930 . S
H2179 C2187 0.930 . S
H2180 C2190 0.930 . S
H2181 C2191 0.930 . S
C2182 H2176 0.930 . S
C2182 C2183 1.355 . S
C2182 C2184 1.415 . S
C2183 C2182 1.355 . S
C2183 C2185 1.419 . S
C2184 C2182 1.415 . S
C2184 C2189 1.425 . S
C2184 C2191 1.409 . S
C2185 H2177 0.930 . S
C2185 C2183 1.419 . S
C2185 C2186 1.362 . S
C2186 H2178 0.930 . S
C2186 C2185 1.362 . S
C2186 C2189 1.409 . S
C2187 H2179 0.930 . S
C2187 C2188 1.355 . S
C2187 C2189 1.415 . S
C2188 C2187 1.355 . S
C2188 C2190 1.419 . S
C2189 C2184 1.425 . S
C2189 C2186 1.409 . S
C2189 C2187 1.415 . S
C2190 H2180 0.930 . S
C2190 C2188 1.419 . S
C2190 C2191 1.362 . S
C2191 H2181 0.930 . S
C2191 C2184 1.409 . S
C2191 C2190 1.362 . S
H2192 C2198 0.930 . S
H2193 C2201 0.930 . S
H2194 C2202 0.930 1_554 S
H2195 C2203 0.930 1_554 S
H2196 C2206 0.930 . S
H2197 C2207 0.930 . S
C2198 H2192 0.930 . S
C2198 C2199 1.355 . S
C2198 C2200 1.415 . S
C2199 C2198 1.355 . S
C2199 C2201 1.419 . S
C2200 C2198 1.415 . S
C2200 C2205 1.425 . S
C2200 C2207 1.409 . S
C2201 H2193 0.930 . S
C2201 C2199 1.419 . S
C2201 C2202 1.362 . S
C2202 H2194 0.930 1_556 S
C2202 C2201 1.362 . S
C2202 C2205 1.409 . S
C2203 H2195 0.930 1_556 S
C2203 C2204 1.355 . S
C2203 C2205 1.415 . S
C2204 C2203 1.355 . S
C2204 C2206 1.419 . S
C2205 C2200 1.425 . S
C2205 C2202 1.409 . S
C2205 C2203 1.415 . S
C2206 H2196 0.930 . S
C2206 C2204 1.419 . S
C2206 C2207 1.362 . S
C2207 H2197 0.930 . S
C2207 C2200 1.409 . S
C2207 C2206 1.362 . S
H2208 C2214 0.930 . S
H2209 C2217 0.930 . S
H2210 C2218 0.930 . S
H2211 C2219 0.930 . S
H2212 C2222 0.930 . S
H2213 C2223 0.930 . S
C2214 H2208 0.930 . S
C2214 C2215 1.355 . S
C2214 C2216 1.415 . S
C2215 C2214 1.355 . S
C2215 C2217 1.419 . S
C2216 C2214 1.415 . S
C2216 C2221 1.425 . S
C2216 C2223 1.409 . S
C2217 H2209 0.930 . S
C2217 C2215 1.419 . S
C2217 C2218 1.362 . S
C2218 H2210 0.930 . S
C2218 C2217 1.362 . S
C2218 C2221 1.409 . S
C2219 H2211 0.930 . S
C2219 C2220 1.355 . S
C2219 C2221 1.415 . S
C2220 C2219 1.355 . S
C2220 C2222 1.419 . S
C2221 C2216 1.425 . S
C2221 C2218 1.409 . S
C2221 C2219 1.415 . S
C2222 H2212 0.930 . S
C2222 C2220 1.419 . S
C2222 C2223 1.362 . S
C2223 H2213 0.930 . S
C2223 C2216 1.409 . S
C2223 C2222 1.362 . S
H2224 C2230 0.930 . S
H2225 C2233 0.933 . S
H2226 C2234 0.930 1_655 S
H2227 C2235 0.930 . S
H2228 C2238 0.930 . S
H2229 C2239 0.930 . S
C2230 H2224 0.930 . S
C2230 C2231 1.355 . S
C2230 C2232 1.415 . S
C2231 C2230 1.355 . S
C2231 C2233 1.414 1_455 S
C2232 C2230 1.415 . S
C2232 C2237 1.425 . S
C2232 C2239 1.409 . S
C2233 H2225 0.933 . S
C2233 C2231 1.414 1_655 S
C2233 C2234 1.364 1_655 S
C2234 H2226 0.930 1_455 S
C2234 C2233 1.364 1_455 S
C2234 C2237 1.409 . S
C2235 H2227 0.930 . S
C2235 C2236 1.355 . S
C2235 C2237 1.415 . S
C2236 C2235 1.355 . S
C2236 C2238 1.419 . S
C2237 C2232 1.425 . S
C2237 C2234 1.409 . S
C2237 C2235 1.415 . S
C2238 H2228 0.930 . S
C2238 C2236 1.419 . S
C2238 C2239 1.362 . S
C2239 H2229 0.930 . S
C2239 C2232 1.409 . S
C2239 C2238 1.362 . S
H2240 C2246 0.930 . S
H2241 C2249 0.930 . S
H2242 C2250 0.930 . S
H2243 C2251 0.930 . S
H2244 C2254 0.930 . S
H2245 C2255 0.930 . S
C2246 H2240 0.930 . S
C2246 C2247 1.355 . S
C2246 C2248 1.415 . S
C2247 C2246 1.355 . S
C2247 C2249 1.419 . S
C2248 C2246 1.415 . S
C2248 C2253 1.425 . S
C2248 C2255 1.409 . S
C2249 H2241 0.930 . S
C2249 C2247 1.419 . S
C2249 C2250 1.362 . S
C2250 H2242 0.930 . S
C2250 C2249 1.362 . S
C2250 C2253 1.409 . S
C2251 H2243 0.930 . S
C2251 C2252 1.355 . S
C2251 C2253 1.415 . S
C2252 C2251 1.355 . S
C2252 C2254 1.419 . S
C2253 C2248 1.425 . S
C2253 C2250 1.409 . S
C2253 C2251 1.415 . S
C2254 H2244 0.930 . S
C2254 C2252 1.419 . S
C2254 C2255 1.362 . S
C2255 H2245 0.930 . S
C2255 C2248 1.409 . S
C2255 C2254 1.362 . S
H2256 C2262 0.930 . S
H2257 C2265 0.930 . S
H2258 C2266 0.930 . S
H2259 C2267 0.930 . S
H2260 C2270 0.930 . S
H2261 C2271 0.930 . S
C2262 H2256 0.930 . S
C2262 C2263 1.355 . S
C2262 C2264 1.415 . S
C2263 C2262 1.355 . S
C2263 C2265 1.419 . S
C2264 C2262 1.415 . S
C2264 C2269 1.425 . S
C2264 C2271 1.409 . S
C2265 H2257 0.930 . S
C2265 C2263 1.419 . S
C2265 C2266 1.362 . S
C2266 H2258 0.930 . S
C2266 C2265 1.362 . S
C2266 C2269 1.409 . S
C2267 H2259 0.930 . S
C2267 C2268 1.355 . S
C2267 C2269 1.415 . S
C2268 C2267 1.355 . S
C2268 C2270 1.419 . S
C2269 C2264 1.425 . S
C2269 C2266 1.409 . S
C2269 C2267 1.415 . S
C2270 H2260 0.930 . S
C2270 C2268 1.419 . S
C2270 C2271 1.362 . S
C2271 H2261 0.930 . S
C2271 C2264 1.409 . S
C2271 C2270 1.362 . S
H2272 C2278 0.930 . S
H2273 C2281 0.930 . S
H2274 C2282 0.930 . S
H2275 C2283 0.930 . S
H2276 C2286 0.930 . S
H2277 C2287 0.930 . S
C2278 H2272 0.930 . S
C2278 C2279 1.355 . S
C2278 C2280 1.415 . S
C2279 C2278 1.355 . S
C2279 C2281 1.419 . S
C2280 C2278 1.415 . S
C2280 C2285 1.425 . S
C2280 C2287 1.409 . S
C2281 H2273 0.930 . S
C2281 C2279 1.419 . S
C2281 C2282 1.362 . S
C2282 H2274 0.930 . S
C2282 C2281 1.362 . S
C2282 C2285 1.409 . S
C2283 H2275 0.930 . S
C2283 C2284 1.355 . S
C2283 C2285 1.415 . S
C2284 C2283 1.355 . S
C2284 C2286 1.419 . S
C2285 C2280 1.425 . S
C2285 C2282 1.409 . S
C2285 C2283 1.415 . S
C2286 H2276 0.930 . S
C2286 C2284 1.419 . S
C2286 C2287 1.362 . S
C2287 H2277 0.930 . S
C2287 C2280 1.409 . S
C2287 C2286 1.362 . S
H2288 C2294 0.930 . S
H2289 C2297 0.930 . S
H2290 C2298 0.930 . S
H2291 C2299 0.930 . S
H2292 C2302 0.930 . S
H2293 C2303 0.930 . S
C2294 H2288 0.930 . S
C2294 C2295 1.355 . S
C2294 C2296 1.415 . S
C2295 C2294 1.355 . S
C2295 C2297 1.419 . S
C2296 C2294 1.415 . S
C2296 C2301 1.425 . S
C2296 C2303 1.409 . S
C2297 H2289 0.930 . S
C2297 C2295 1.419 . S
C2297 C2298 1.362 . S
C2298 H2290 0.930 . S
C2298 C2297 1.362 . S
C2298 C2301 1.409 . S
C2299 H2291 0.930 . S
C2299 C2300 1.355 . S
C2299 C2301 1.415 . S
C2300 C2299 1.355 . S
C2300 C2302 1.419 . S
C2301 C2296 1.425 . S
C2301 C2298 1.409 . S
C2301 C2299 1.415 . S
C2302 H2292 0.930 . S
C2302 C2300 1.419 . S
C2302 C2303 1.362 . S
C2303 H2293 0.930 . S
C2303 C2296 1.409 . S
C2303 C2302 1.362 . S
H2304 C2310 0.930 . S
H2305 C2313 0.930 . S
H2306 C2314 0.930 . S
H2307 C2315 0.930 . S
H2308 C2318 0.930 . S
H2309 C2319 0.930 . S
C2310 H2304 0.930 . S
C2310 C2311 1.355 . S
C2310 C2312 1.415 . S
C2311 C2310 1.355 . S
C2311 C2313 1.419 . S
C2312 C2310 1.415 . S
C2312 C2317 1.425 . S
C2312 C2319 1.409 . S
C2313 H2305 0.930 . S
C2313 C2311 1.419 . S
C2313 C2314 1.362 . S
C2314 H2306 0.930 . S
C2314 C2313 1.362 . S
C2314 C2317 1.409 . S
C2315 H2307 0.930 . S
C2315 C2316 1.355 . S
C2315 C2317 1.415 . S
C2316 C2315 1.355 . S
C2316 C2318 1.419 . S
C2317 C2312 1.425 . S
C2317 C2314 1.409 . S
C2317 C2315 1.415 . S
C2318 H2308 0.930 . S
C2318 C2316 1.419 . S
C2318 C2319 1.362 . S
C2319 H2309 0.930 . S
C2319 C2312 1.409 . S
C2319 C2318 1.362 . S
H2320 C2326 0.930 . S
H2321 C2329 0.930 . S
H2322 C2330 0.930 . S
H2323 C2331 0.930 . S
H2324 C2334 0.930 . S
H2325 C2335 0.930 . S
C2326 H2320 0.930 . S
C2326 C2327 1.355 . S
C2326 C2328 1.415 . S
C2327 C2326 1.355 . S
C2327 C2329 1.419 . S
C2328 C2326 1.415 . S
C2328 C2333 1.425 . S
C2328 C2335 1.409 . S
C2329 H2321 0.930 . S
C2329 C2327 1.419 . S
C2329 C2330 1.362 . S
C2330 H2322 0.930 . S
C2330 C2329 1.362 . S
C2330 C2333 1.409 . S
C2331 H2323 0.930 . S
C2331 C2332 1.355 . S
C2331 C2333 1.415 . S
C2332 C2331 1.355 . S
C2332 C2334 1.419 . S
C2333 C2328 1.425 . S
C2333 C2330 1.409 . S
C2333 C2331 1.415 . S
C2334 H2324 0.930 . S
C2334 C2332 1.419 . S
C2334 C2335 1.362 . S
C2335 H2325 0.930 . S
C2335 C2328 1.409 . S
C2335 C2334 1.362 . S
H2336 C2342 0.930 . S
H2337 C2345 0.930 . S
H2338 C2346 0.930 . S
H2339 C2347 0.930 . S
H2340 C2350 0.930 . S
H2341 C2351 0.930 . S
C2342 H2336 0.930 . S
C2342 C2343 1.355 . S
C2342 C2344 1.415 . S
C2343 C2342 1.355 . S
C2343 C2345 1.419 . S
C2344 C2342 1.415 . S
C2344 C2349 1.425 . S
C2344 C2351 1.409 . S
C2345 H2337 0.930 . S
C2345 C2343 1.419 . S
C2345 C2346 1.362 . S
C2346 H2338 0.930 . S
C2346 C2345 1.362 . S
C2346 C2349 1.409 . S
C2347 H2339 0.930 . S
C2347 C2348 1.355 . S
C2347 C2349 1.415 . S
C2348 C2347 1.355 . S
C2348 C2350 1.419 . S
C2349 C2344 1.425 . S
C2349 C2346 1.409 . S
C2349 C2347 1.415 . S
C2350 H2340 0.930 . S
C2350 C2348 1.419 . S
C2350 C2351 1.362 . S
C2351 H2341 0.930 . S
C2351 C2344 1.409 . S
C2351 C2350 1.362 . S
H2352 C2358 0.930 . S
H2353 C2361 0.930 . S
H2354 C2362 0.930 . S
H2355 C2363 0.930 . S
H2356 C2366 0.930 . S
H2357 C2367 0.935 . S
C2358 H2352 0.930 . S
C2358 C2359 1.355 . S
C2358 C2360 1.415 . S
C2359 C2358 1.355 . S
C2359 C2361 1.419 . S
C2360 C2358 1.415 . S
C2360 C2365 1.425 . S
C2360 C2367 1.409 . S
C2361 H2353 0.930 . S
C2361 C2359 1.419 . S
C2361 C2362 1.362 . S
C2362 H2354 0.930 . S
C2362 C2361 1.362 . S
C2362 C2365 1.409 . S
C2363 H2355 0.930 . S
C2363 C2364 1.355 . S
C2363 C2365 1.415 . S
C2364 C2363 1.355 . S
C2364 C2366 1.419 1_655 S
C2365 C2360 1.425 . S
C2365 C2362 1.409 . S
C2365 C2363 1.415 . S
C2366 H2356 0.930 . S
C2366 C2364 1.419 1_455 S
C2366 C2367 1.362 1_455 S
C2367 H2357 0.935 . S
C2367 C2360 1.409 . S
C2367 C2366 1.362 1_655 S
H2368 C2374 0.930 . S
H2369 C2377 0.930 . S
H2370 C2378 0.930 . S
H2371 C2379 0.930 . S
H2372 C2382 0.930 . S
H2373 C2383 0.930 . S
C2374 H2368 0.930 . S
C2374 C2375 1.355 . S
C2374 C2376 1.415 . S
C2375 C2374 1.355 . S
C2375 C2377 1.419 . S
C2376 C2374 1.415 . S
C2376 C2381 1.425 . S
C2376 C2383 1.409 . S
C2377 H2369 0.930 . S
C2377 C2375 1.419 . S
C2377 C2378 1.362 . S
C2378 H2370 0.930 . S
C2378 C2377 1.362 . S
C2378 C2381 1.409 . S
C2379 H2371 0.930 . S
C2379 C2380 1.355 . S
C2379 C2381 1.415 . S
C2380 C2379 1.355 . S
C2380 C2382 1.419 . S
C2381 C2376 1.425 . S
C2381 C2378 1.409 . S
C2381 C2379 1.415 . S
C2382 H2372 0.930 . S
C2382 C2380 1.419 . S
C2382 C2383 1.362 . S
C2383 H2373 0.930 . S
C2383 C2376 1.409 . S
C2383 C2382 1.362 . S
H2384 C2390 0.930 . S
H2385 C2393 0.930 . S
H2386 C2394 0.930 . S
H2387 C2395 0.930 . S
H2388 C2398 0.930 . S
H2389 C2399 0.930 . S
C2390 H2384 0.930 . S
C2390 C2391 1.355 . S
C2390 C2392 1.415 . S
C2391 C2390 1.355 . S
C2391 C2393 1.419 . S
C2392 C2390 1.415 . S
C2392 C2397 1.425 . S
C2392 C2399 1.409 . S
C2393 H2385 0.930 . S
C2393 C2391 1.419 . S
C2393 C2394 1.362 . S
C2394 H2386 0.930 . S
C2394 C2393 1.362 . S
C2394 C2397 1.409 . S
C2395 H2387 0.930 . S
C2395 C2396 1.355 . S
C2395 C2397 1.415 . S
C2396 C2395 1.355 . S
C2396 C2398 1.419 . S
C2397 C2392 1.425 . S
C2397 C2394 1.409 . S
C2397 C2395 1.415 . S
C2398 H2388 0.930 . S
C2398 C2396 1.419 . S
C2398 C2399 1.362 . S
C2399 H2389 0.930 . S
C2399 C2392 1.409 . S
C2399 C2398 1.362 . S
H2400 C2406 0.930 . S
H2401 C2409 0.930 . S
H2402 C2410 0.930 . S
H2403 C2411 0.930 . S
H2404 C2414 0.930 . S
H2405 C2415 0.930 . S
C2406 H2400 0.930 . S
C2406 C2407 1.355 . S
C2406 C2408 1.415 . S
C2407 C2406 1.355 . S
C2407 C2409 1.419 . S
C2408 C2406 1.415 . S
C2408 C2413 1.425 . S
C2408 C2415 1.409 . S
C2409 H2401 0.930 . S
C2409 C2407 1.419 . S
C2409 C2410 1.362 . S
C2410 H2402 0.930 . S
C2410 C2409 1.362 . S
C2410 C2413 1.409 . S
C2411 H2403 0.930 . S
C2411 C2412 1.355 . S
C2411 C2413 1.415 . S
C2412 C2411 1.355 . S
C2412 C2414 1.419 . S
C2413 C2408 1.425 . S
C2413 C2410 1.409 . S
C2413 C2411 1.415 . S
C2414 H2404 0.930 . S
C2414 C2412 1.419 . S
C2414 C2415 1.362 . S
C2415 H2405 0.930 . S
C2415 C2408 1.409 . S
C2415 C2414 1.362 . S
H2416 C2422 0.930 . S
H2417 C2425 0.930 . S
H2418 C2426 0.930 . S
H2419 C2427 0.930 . S
H2420 C2430 0.930 . S
H2421 C2431 0.930 . S
C2422 H2416 0.930 . S
C2422 C2423 1.355 . S
C2422 C2424 1.415 . S
C2423 C2422 1.355 . S
C2423 C2425 1.419 . S
C2424 C2422 1.415 . S
C2424 C2429 1.425 . S
C2424 C2431 1.409 . S
C2425 H2417 0.930 . S
C2425 C2423 1.419 . S
C2425 C2426 1.362 . S
C2426 H2418 0.930 . S
C2426 C2425 1.362 . S
C2426 C2429 1.409 . S
C2427 H2419 0.930 . S
C2427 C2428 1.355 . S
C2427 C2429 1.415 . S
C2428 C2427 1.355 . S
C2428 C2430 1.419 . S
C2429 C2424 1.425 . S
C2429 C2426 1.409 . S
C2429 C2427 1.415 . S
C2430 H2420 0.930 . S
C2430 C2428 1.419 . S
C2430 C2431 1.362 . S
C2431 H2421 0.930 . S
C2431 C2424 1.409 . S
C2431 C2430 1.362 . S
H2432 C2438 0.930 . S
H2433 C2441 0.930 . S
H2434 C2442 0.930 . S
H2435 C2443 0.930 . S
H2436 C2446 0.930 . S
H2437 C2447 0.930 . S
C2438 H2432 0.930 . S
C2438 C2439 1.355 . S
C2438 C2440 1.415 . S
C2439 C2438 1.355 . S
C2439 C2441 1.419 . S
C2440 C2438 1.415 . S
C2440 C2445 1.425 . S
C2440 C2447 1.409 . S
C2441 H2433 0.930 . S
C2441 C2439 1.419 . S
C2441 C2442 1.362 . S
C2442 H2434 0.930 . S
C2442 C2441 1.362 . S
C2442 C2445 1.409 . S
C2443 H2435 0.930 . S
C2443 C2444 1.355 . S
C2443 C2445 1.415 . S
C2444 C2443 1.355 . S
C2444 C2446 1.419 . S
C2445 C2440 1.425 . S
C2445 C2442 1.409 . S
C2445 C2443 1.415 . S
C2446 H2436 0.930 . S
C2446 C2444 1.419 . S
C2446 C2447 1.362 . S
C2447 H2437 0.930 . S
C2447 C2440 1.409 . S
C2447 C2446 1.362 . S
H2448 C2454 0.930 . S
H2449 C2457 0.930 . S
H2450 C2458 0.930 . S
H2451 C2459 0.930 . S
H2452 C2462 0.930 . S
H2453 C2463 0.930 . S
C2454 H2448 0.930 . S
C2454 C2455 1.355 . S
C2454 C2456 1.415 . S
C2455 C2454 1.355 . S
C2455 C2457 1.419 . S
C2456 C2454 1.415 . S
C2456 C2461 1.425 . S
C2456 C2463 1.409 . S
C2457 H2449 0.930 . S
C2457 C2455 1.419 . S
C2457 C2458 1.362 . S
C2458 H2450 0.930 . S
C2458 C2457 1.362 . S
C2458 C2461 1.409 . S
C2459 H2451 0.930 . S
C2459 C2460 1.355 . S
C2459 C2461 1.415 . S
C2460 C2459 1.355 . S
C2460 C2462 1.419 . S
C2461 C2456 1.425 . S
C2461 C2458 1.409 . S
C2461 C2459 1.415 . S
C2462 H2452 0.930 . S
C2462 C2460 1.419 . S
C2462 C2463 1.362 . S
C2463 H2453 0.930 . S
C2463 C2456 1.409 . S
C2463 C2462 1.362 . S
H2464 C2470 0.930 . S
H2465 C2473 0.930 . S
H2466 C2474 0.930 . S
H2467 C2475 0.930 . S
H2468 C2478 0.911 1_556 S
H2469 C2479 0.930 . S
C2470 H2464 0.930 . S
C2470 C2471 1.355 . S
C2470 C2472 1.415 . S
C2471 C2470 1.355 . S
C2471 C2473 1.419 . S
C2472 C2470 1.415 . S
C2472 C2477 1.425 . S
C2472 C2479 1.409 . S
C2473 H2465 0.930 . S
C2473 C2471 1.419 . S
C2473 C2474 1.362 . S
C2474 H2466 0.930 . S
C2474 C2473 1.362 . S
C2474 C2477 1.409 . S
C2475 H2467 0.930 . S
C2475 C2476 1.355 . S
C2475 C2477 1.415 . S
C2476 C2475 1.355 . S
C2476 C2478 1.419 . S
C2477 C2472 1.425 . S
C2477 C2474 1.409 . S
C2477 C2475 1.415 . S
C2478 H2468 0.911 1_554 S
C2478 C2476 1.419 . S
C2478 C2479 1.362 . S
C2479 H2469 0.930 . S
C2479 C2472 1.409 . S
C2479 C2478 1.362 . S
H2480 C2486 0.930 . S
H2481 C2489 0.930 . S
H2482 C2490 0.930 . S
H2483 C2491 0.930 . S
H2484 C2494 0.930 . S
H2485 C2495 0.930 . S
C2486 H2480 0.930 . S
C2486 C2487 1.355 . S
C2486 C2488 1.415 . S
C2487 C2486 1.355 . S
C2487 C2489 1.419 . S
C2488 C2486 1.415 . S
C2488 C2493 1.425 . S
C2488 C2495 1.409 . S
C2489 H2481 0.930 . S
C2489 C2487 1.419 . S
C2489 C2490 1.362 . S
C2490 H2482 0.930 . S
C2490 C2489 1.362 . S
C2490 C2493 1.409 . S
C2491 H2483 0.930 . S
C2491 C2492 1.355 . S
C2491 C2493 1.415 . S
C2492 C2491 1.355 . S
C2492 C2494 1.419 . S
C2493 C2488 1.425 . S
C2493 C2490 1.409 . S
C2493 C2491 1.415 . S
C2494 H2484 0.930 . S
C2494 C2492 1.419 . S
C2494 C2495 1.362 . S
C2495 H2485 0.930 . S
C2495 C2488 1.409 . S
C2495 C2494 1.362 . S
H2496 C2502 0.930 . S
H2497 C2505 0.930 . S
H2498 C2506 0.930 . S
H2499 C2507 0.930 . S
H2500 C2510 0.930 . S
H2501 C2511 0.930 . S
C2502 H2496 0.930 . S
C2502 C2503 1.355 . S
C2502 C2504 1.415 . S
C2503 C2502 1.355 . S
C2503 C2505 1.419 . S
C2504 C2502 1.415 . S
C2504 C2509 1.425 . S
C2504 C2511 1.409 . S
C2505 H2497 0.930 . S
C2505 C2503 1.419 . S
C2505 C2506 1.362 . S
C2506 H2498 0.930 . S
C2506 C2505 1.362 . S
C2506 C2509 1.409 . S
C2507 H2499 0.930 . S
C2507 C2508 1.355 . S
C2507 C2509 1.415 . S
C2508 C2507 1.355 . S
C2508 C2510 1.419 . S
C2509 C2504 1.425 . S
C2509 C2506 1.409 . S
C2509 C2507 1.415 . S
C2510 H2500 0.930 . S
C2510 C2508 1.419 . S
C2510 C2511 1.362 . S
C2511 H2501 0.930 . S
C2511 C2504 1.409 . S
C2511 C2510 1.362 . S
C983 C109 2.241 1_554 S
C988 C346 2.137 . S
C999 C61 1.792 . S
C1004 C394 1.971 . S
C1015 C74 1.352 . S
C1020 C426 1.439 . S
C1036 C471 1.605 . S
C1031 C96 1.673 . S
C1047 C25 0.897 . S
C1052 C511 0.857 . S
C1068 C546 1.047 . S
C1063 C40 1.050 . S
C1084 C585 1.215 . S
C1079 C46 1.182 . S
C1095 C5 0.876 . S
C1100 C622 1.165 . S
C1116 C354 1.969 . S
C1111 C229 1.567 . S
C1127 C249 0.661 . S
C1132 C391 0.632 . S
C1148 C434 2.228 . S
C1143 C271 2.060 . S
C1164 C466 1.259 . S
C1159 C172 1.262 1_556 S
C1175 C236 1.335 . S
C1180 C506 1.319 . S
C1196 C554 0.594 . S
C1191 C242 0.569 . S
C1212 C595 1.982 1_556 S
C1207 C278 2.094 . S
C1228 C625 2.025 . S
C1223 C179 2.058 . S
C1244 C351 1.480 . S
C1239 C159 0.874 . S
C1255 C285 1.911 . S
C1260 C674 2.018 . S
C1276 C711 1.042 . S
C1271 C333 1.079 . S
C1292 C742 0.847 . S
C1287 C320 0.821 . S
C1303 C123 2.662 . S
C1308 C635 2.623 . S
C1319 C138 1.433 . S
C1324 C431 1.389 . S
C1335 C326 1.797 . S
C1340 C794 1.773 . S
C1356 C826 1.898 . S
C1351 C298 1.743 . S
C1372 C355 2.185 . S
C1367 C67 2.180 . S
C1388 C825 1.882 . S
C1383 C110 1.901 . S
C1399 C88 1.379 . S
C1404 C435 1.401 . S
C1415 C75 1.487 . S
C1420 C782 1.495 . S
C1436 C502 0.861 . S
C1431 C11 0.867 1_455 S
C1447 C47 0.973 . S
C1452 C715 1.061 . S
C1468 C594 1.181 . S
C1463 C32 1.151 . S
C1484 C871 1.257 . S
C1479 C26 1.270 . S
C1500 C345 2.125 1_556 S
C1495 C152 2.110 . S
C1516 C822 0.772 . S
C1511 C319 0.785 . S
C1527 C124 2.257 . S
C1532 C425 2.242 . S
C1543 C284 1.262 . S
C1548 C795 1.263 . S
C1559 C145 1.097 . S
C1564 C515 1.263 . S
C1580 C705 0.529 . S
C1575 C312 0.734 . S
C1591 C117 1.653 . S
C1596 C586 1.801 . S
C1607 C291 1.979 1_556 S
C1612 C874 2.021 . S
C1623 C194 1.765 . S
C1628 C342 1.736 . S
C1639 C180 2.005 . S
C1644 C665 1.988 . S
C1655 C263 0.999 . S
C1660 C542 1.030 . S
C1671 C243 0.832 . S
C1676 C751 0.802 . S
C1692 C866 2.638 . S
C1687 C277 2.669 . S
C1703 C215 1.221 . S
C1708 C422 1.397 . S
C1724 C465 1.646 . S
C1719 C256 1.512 . S
C1740 C395 1.941 . S
C1735 C200 1.976 . S
C1751 C81 2.240 . S
C1756 C906 2.163 . S
C1772 C834 1.958 . S
C1767 C89 1.826 . S
C1783 C102 1.354 1_554 S
C1788 C946 1.436 . S
C1799 C68 1.687 . S
C1804 C791 1.647 . S
C1815 C53 0.882 . S
C1820 C671 0.843 . S
C1836 C706 1.043 . S
C1831 C12 0.979 . S
C1852 C745 1.179 . S
C1847 C18 1.197 . S
C1868 C862 1.213 . S
C1863 C33 1.003 . S
C1884 C914 1.968 . S
C1879 C257 1.534 . S
C1895 C193 0.726 . S
C1900 C831 0.753 . S
C1916 C954 2.228 . S
C1911 C201 2.063 . S
C1932 C786 1.272 . S
C1927 C214 1.228 . S
C1948 C666 1.327 1_556 S
C1943 C264 1.298 . S
C1959 C186 0.626 . S
C1964 C714 0.685 . S
C1980 C755 2.029 . S
C1975 C208 2.088 . S
C1991 C221 2.073 . S
C1996 C865 2.054 . S
C2012 C911 1.491 . S
C2007 C313 0.888 . S
C2023 C131 1.906 . S
C2028 C514 2.026 . S
C2044 C551 1.039 . S
C2039 C151 1.079 . S
C2060 C582 0.707 . S
C2055 C166 0.730 . S
C2076 C875 2.617 . S
C2071 C305 2.666 . S
C2087 C292 1.430 . S
C2092 C951 1.385 . S
C2108 C474 1.792 . S
C2103 C144 1.754 . S
C2124 C386 1.903 . S
C2119 C116 1.751 . S
C2135 C95 2.176 . S
C2140 C915 2.180 . S
C2156 C385 1.890 . S
C2151 C82 1.894 . S
C2167 C60 1.413 . S
C2172 C955 1.400 . S
C2183 C103 1.422 . S
C2188 C462 1.557 . S
C2199 C39 0.845 . S
C2204 C662 0.857 . S
C2220 C555 1.060 . S
C2215 C19 0.960 . S
C2231 C4 1.125 . S
C2236 C754 1.145 . S
C2247 C54 1.246 . S
C2252 C631 1.271 . S
C2268 C905 2.106 . S
C2263 C334 2.104 . S
C2279 C165 0.827 . S
C2284 C382 0.802 . S
C2300 C945 2.236 1_656 S
C2295 C306 2.254 . S
C2311 C130 1.295 . S
C2316 C475 1.291 . S
C2327 C327 1.100 . S
C2332 C675 1.263 . S
C2348 C545 0.582 . S
C2343 C158 0.780 . S
C2359 C299 1.588 . S
C2364 C746 1.838 1_655 S
C2380 C634 1.999 . S
C2375 C137 1.984 . S
C2396 C902 1.755 . S
C2391 C250 1.786 . S
C2412 C505 1.976 1_565 S
C2407 C222 1.996 . S
C2423 C235 0.999 . S
C2428 C702 1.003 . S
C2444 C591 0.781 . S
C2439 C187 0.764 . S
C2455 C207 2.683 . S
C2460 C626 2.654 . S
C2471 C173 1.227 . S
C2476 C942 1.395 . S
C2492 C785 1.646 . S
C2487 C228 1.528 . S
C2508 C835 1.939 . S
C2503 C270 1.975 . S
