# Generated by pormake.
# Topology nia, (6,6)-cn, num edge types: 1
# Building blocks:
#     Node 0, Type 0, BuildingBlock: VOLQOD_clean_sbu_1, # of connection points: 6
#     Node 1, Type 0, BuildingBlock: VOLQOD_clean_sbu_1, # of connection points: 6
#     Node 2, Type 1, BuildingBlock: MIDCAF_clean_sbu_0, # of connection points: 6
#     Node 3, Type 1, BuildingBlock: MIDCAF_clean_sbu_0, # of connection points: 6
#     Edge 4, Type (0, 1), BuildingBlock: KIFKEQ_clean_linker_1, # of connection points: 2
#     Edge 5, Type (0, 1), BuildingBlock: KIFKEQ_clean_linker_1, # of connection points: 2
#     Edge 6, Type (0, 1), BuildingBlock: KIFKEQ_clean_linker_1, # of connection points: 2
#     Edge 7, Type (0, 1), BuildingBlock: KIFKEQ_clean_linker_1, # of connection points: 2
#     Edge 8, Type (0, 1), BuildingBlock: KIFKEQ_clean_linker_1, # of connection points: 2
#     Edge 9, Type (0, 1), BuildingBlock: KIFKEQ_clean_linker_1, # of connection points: 2
#     Edge 10, Type (0, 1), BuildingBlock: KIFKEQ_clean_linker_1, # of connection points: 2
#     Edge 11, Type (0, 1), BuildingBlock: KIFKEQ_clean_linker_1, # of connection points: 2
#     Edge 12, Type (0, 1), BuildingBlock: KIFKEQ_clean_linker_1, # of connection points: 2
#     Edge 13, Type (0, 1), BuildingBlock: KIFKEQ_clean_linker_1, # of connection points: 2
#     Edge 14, Type (0, 1), BuildingBlock: KIFKEQ_clean_linker_1, # of connection points: 2
#     Edge 15, Type (0, 1), BuildingBlock: KIFKEQ_clean_linker_1, # of connection points: 2
# Relax obj value: 0.144
# Max RMSD: 0.235
# Mean RMSD: 0.189
data_MOF--net-nia--node1-VOLQOD_clean_sbu_1--node2-MIDCAF_clean_sbu_0--edge1-KIFKEQ_clean_linker_1
_symmetry_space_group_name_H-M    P1
_symmetry_Int_Tables_number       1
_symmetry_cell_setting            triclinic
loop_
_symmetry_equiv_pos_as_xyz
'x, y, z'
_cell_length_a     25.19327
_cell_length_b     25.134168
_cell_length_c     33.22611
_cell_angle_alpha  89.908455
_cell_angle_beta   90.259802
_cell_angle_gamma 120.49302
loop_
_atom_site_label
_atom_site_type_symbol
_atom_site_fract_x
_atom_site_fract_y
_atom_site_fract_z
_atom_type_partial_charge
O0 O 0.03267 0.01652 0.97912 0.0
Zn1 Zn -0.05446 -0.0309 1.00026 0.0
O2 O -0.05548 -0.03023 0.05949 0.0
Zn3 Zn 0.90045 0.88564 0.08026 0.0
Zn4 Zn 0.02861 0.01099 0.08023 0.0
Zn5 Zn 0.90364 0.01349 0.07803 0.0
O6 O 0.82747 0.86944 0.1138 0.0
O7 O 0.83036 0.95913 0.11218 0.0
O8 O 0.90606 0.88184 0.97922 0.0
O9 O 0.87327 0.82476 1.0347 0.0
O10 O -0.04592 0.86913 0.11656 0.0
O11 O 0.04541 0.95482 0.11427 0.0
O12 O 0.04462 0.08157 0.11601 0.0
O13 O 0.89888 0.00792 0.97686 0.0
O14 O -0.04048 0.08693 0.11248 0.0
O15 O 0.87281 0.04056 1.03125 0.0
C16 C 0.08495 0.04383 0.99668 0.0
C17 C 0.80596 0.90352 0.12412 0.0
C18 C 0.01038 0.90016 0.12711 0.0
C19 C 0.87908 0.8294 0.99657 0.0
C20 C 0.01378 0.1068 0.12593 0.0
C21 C 0.87304 0.03475 0.99319 0.0
O22 O 0.08938 0.04467 1.03492 0.0
O23 O 0.01831 0.11376 0.5335 0.0
Zn24 Zn -0.0091 0.05402 0.57965 0.0
O25 O -0.05497 -0.03068 0.55985 0.0
Zn26 Zn 0.86109 0.93017 0.58008 0.0
Zn27 Zn -0.05549 -0.03123 0.50063 0.0
Zn28 Zn -0.01653 0.92397 0.57985 0.0
O29 O 0.84275 0.85958 0.61678 0.0
O30 O 0.92538 0.85008 0.6129 0.0
O31 O 0.93828 0.07297 0.61504 0.0
O32 O 0.84584 -0.01139 0.61244 0.0
O33 O 0.80082 0.89589 0.53435 0.0
O34 O 0.85755 0.92012 0.47897 0.0
O35 O -0.00803 0.93011 0.47888 0.0
O36 O 0.06389 0.06959 0.61356 0.0
O37 O 0.0167 0.89753 0.53415 0.0
O38 O 0.05418 -0.02311 0.6164 0.0
C39 C 0.01145 0.10832 0.49542 0.0
C40 C 0.87172 0.83217 0.62644 0.0
C41 C 0.80529 0.89438 0.49625 0.0
C42 C 0.88175 0.04335 0.62496 0.0
C43 C 0.01755 0.90345 0.49603 0.0
C44 C 0.0815 0.03343 0.62672 0.0
O45 O -0.01652 0.05548 0.47855 0.0
Zn46 Zn 0.2823 0.64123 0.2336 0.0
Zn47 Zn 0.27461 0.63608 0.3844 0.0
Zn48 Zn 0.27657 0.63782 0.3104 0.0
C49 C 0.39266 0.67108 0.3669 0.0
C50 C 0.19179 0.51809 0.3637 0.0
O51 O 0.22909 0.68634 0.2891 0.0
O52 O 0.22037 0.66574 0.22389 0.0
C53 C 0.40127 0.71082 0.25788 0.0
O54 O 0.37248 0.67853 0.33291 0.0
O55 O 0.35568 0.64447 0.39547 0.0
O56 O 0.20104 0.55384 0.39288 0.0
O57 O 0.22037 0.54013 0.33025 0.0
O58 O 0.3702 0.70285 0.22631 0.0
O59 O 0.37439 0.68689 0.29149 0.0
O60 O 0.22831 0.54137 0.28856 0.0
O61 O 0.2572 0.55404 0.22483 0.0
C62 C 0.23011 0.5188 0.25417 0.0
O63 O 0.2348 0.69258 0.3309 0.0
O64 O 0.26618 0.70893 0.39416 0.0
C65 C 0.20816 0.6881 0.25399 0.0
C66 C 0.24076 0.71956 0.36496 0.0
Zn67 Zn 0.6149 0.29945 0.88269 0.0
Zn68 Zn 0.61034 0.3015 0.73466 0.0
Zn69 Zn 0.61258 0.30082 0.8091 0.0
C70 C 0.65322 0.42091 0.75545 0.0
C71 C 0.49154 0.2233 0.75556 0.0
O72 O 0.65583 0.24664 0.82806 0.0
O73 O 0.62416 0.22676 0.89101 0.0
C74 C 0.69611 0.41863 0.86423 0.0
O75 O 0.65863 0.39823 0.78897 0.0
O76 O 0.62499 0.38565 0.72624 0.0
O77 O 0.52592 0.2318 0.72585 0.0
O78 O 0.51508 0.25001 0.7894 0.0
O79 O 0.68789 0.38177 0.89254 0.0
O80 O 0.66724 0.39774 0.8306 0.0
O81 O 0.51608 0.25723 0.83107 0.0
O82 O 0.53346 0.28949 0.89407 0.0
C83 C 0.49613 0.26317 0.86544 0.0
O84 O 0.66245 0.25526 0.78651 0.0
O85 O 0.67907 0.28738 0.72344 0.0
C86 C 0.65006 0.21809 0.86145 0.0
C87 C 0.68809 0.26004 0.75217 0.0
H88 H 0.12999 0.94734 0.15179 0.0
H89 H -0.05315 0.78907 0.16547 0.0
H90 H 0.17152 0.89624 0.19281 0.0
H91 H -0.01162 0.73878 0.207 0.0
H92 H 0.10475 0.64184 0.20959 0.0
H93 H 0.052 0.69518 0.18734 0.0
H94 H 0.17509 0.85316 0.26008 0.0
H95 H 0.2287 0.7992 0.28199 0.0
C96 C 0.09849 0.90207 0.16398 0.0
C97 C 0.03528 0.87179 0.15468 0.0
C98 C 0.12223 0.87311 0.18786 0.0
C99 C 0.0832 0.81339 0.20293 0.0
C100 C 0.01964 0.78451 0.19536 0.0
C101 C -0.00407 0.81332 0.17146 0.0
C102 C 0.11954 0.68741 0.22152 0.0
C103 C 0.17038 0.71652 0.24752 0.0
C104 C 0.08917 0.71786 0.20901 0.0
C105 C 0.1095 0.77844 0.2219 0.0
C106 C 0.15873 0.8066 0.24951 0.0
C107 C 0.18894 0.77568 0.26233 0.0
H108 H 0.15872 0.15301 0.65069 0.0
H109 H 0.12407 -0.03281 0.66639 0.0
H110 H 0.25094 0.19224 0.69244 0.0
H111 H 0.21546 0.00643 0.70868 0.0
H112 H 0.43062 0.11759 0.7132 0.0
H113 H 0.32413 0.06671 0.69046 0.0
H114 H 0.29535 0.19503 0.76007 0.0
H115 H 0.40322 0.24681 0.78235 0.0
C116 C 0.17025 0.12046 0.66347 0.0
C117 C 0.1347 0.05713 0.65456 0.0
C118 C 0.22272 0.14288 0.68776 0.0
C119 C 0.24053 0.10238 0.70367 0.0
C120 C 0.20325 0.03878 0.6964 0.0
C121 C 0.15099 0.0164 0.67207 0.0
C122 C 0.40102 0.13387 0.72442 0.0
C123 C 0.42468 0.18578 0.74954 0.0
C124 C 0.33996 0.10459 0.71161 0.0
C125 C 0.30145 0.12707 0.72334 0.0
C126 C 0.32422 0.17707 0.75033 0.0
C127 C 0.38553 0.20621 0.76341 0.0
H128 H 0.12222 0.15252 0.16715 0.0
H129 H -0.03122 0.18146 0.14802 0.0
H130 H 0.17255 0.24462 0.209 0.0
H131 H 0.02004 0.27451 0.18934 0.0
H132 H 0.1163 0.42894 0.27946 0.0
H133 H 0.06048 0.32076 0.25714 0.0
H134 H 0.2202 0.35291 0.18938 0.0
H135 H 0.2754 0.45954 0.21208 0.0
C136 C 0.09904 0.17834 0.17199 0.0
C137 C 0.04197 0.16027 0.15362 0.0
C138 C 0.12787 0.23101 0.19607 0.0
C139 C 0.10045 0.26698 0.20219 0.0
C140 C 0.042 0.24734 0.18551 0.0
C141 C 0.01297 0.1944 0.16147 0.0
C142 C 0.1397 0.41194 0.26081 0.0
C143 C 0.19996 0.45199 0.24751 0.0
C144 C 0.10774 0.35047 0.24775 0.0
C145 C 0.13593 0.32849 0.22142 0.0
C146 C 0.19743 0.36809 0.21006 0.0
C147 C 0.22896 0.42925 0.22283 0.0
H148 H 0.76266 -0.00206 0.64932 0.0
H149 H -0.0538 0.15654 0.661 0.0
H150 H 0.72216 0.05068 0.68911 0.0
H151 H 0.9057 0.20856 0.70141 0.0
H152 H 0.79068 0.30636 0.70696 0.0
H153 H 0.84214 0.25258 0.68343 0.0
H154 H 0.7199 0.09401 0.75553 0.0
H155 H 0.66722 0.14798 0.77835 0.0
C156 C 0.79449 0.0437 0.66076 0.0
C157 C 0.85753 0.07339 0.65141 0.0
C158 C 0.77133 0.07366 0.68394 0.0
C159 C 0.81074 0.13386 0.69827 0.0
C160 C 0.87411 0.16247 0.69035 0.0
C161 C 0.89725 0.13262 0.66715 0.0
C162 C 0.77572 0.26051 0.71842 0.0
C163 C 0.7254 0.23133 0.7446 0.0
C164 C 0.80538 0.22979 0.70516 0.0
C165 C 0.78497 0.16896 0.71754 0.0
C166 C 0.7363 0.14072 0.74527 0.0
C167 C 0.7067 0.17176 0.75871 0.0
H168 H 0.72348 0.94244 0.13139 0.0
H169 H 0.76775 0.80906 0.178 0.0
H170 H 0.63266 0.89934 0.17363 0.0
H171 H 0.67862 0.76783 0.22227 0.0
H172 H 0.46757 0.65664 0.2435 0.0
H173 H 0.57214 0.7068 0.21762 0.0
H174 H 0.58971 0.88531 0.23738 0.0
H175 H 0.48314 0.83381 0.26089 0.0
C176 C 0.71421 0.90444 0.15121 0.0
C177 C 0.75217 0.87858 0.15104 0.0
C178 C 0.66246 0.88009 0.1759 0.0
C179 C 0.64806 0.83002 0.20165 0.0
C180 C 0.68748 0.80561 0.20239 0.0
C181 C 0.73862 0.82922 0.17705 0.0
C182 C 0.49476 0.70664 0.24334 0.0
C183 C 0.46815 0.7417 0.25413 0.0
C184 C 0.55479 0.7356 0.22859 0.0
C185 C 0.58936 0.8003 0.22466 0.0
C186 C 0.56396 0.83538 0.23889 0.0
C187 C 0.50341 0.80619 0.25292 0.0
H188 H 0.76227 0.78715 0.66591 0.0
H189 H 0.91472 0.75619 0.64967 0.0
H190 H 0.71059 0.69529 0.70786 0.0
H191 H 0.86225 0.66355 0.69099 0.0
H192 H 0.76695 0.51118 0.78083 0.0
H193 H 0.82237 0.61898 0.75824 0.0
H194 H 0.66164 0.58641 0.69052 0.0
H195 H 0.60662 0.48003 0.71372 0.0
C196 C 0.78492 0.76094 0.67138 0.0
C197 C 0.84222 0.77848 0.65388 0.0
C198 C 0.7553 0.70836 0.6955 0.0
C199 C 0.78218 0.67203 0.70255 0.0
C200 C 0.84067 0.691 0.68652 0.0
C201 C 0.87043 0.74374 0.66245 0.0
C202 C 0.74313 0.528 0.76225 0.0
C203 C 0.68263 0.4878 0.74909 0.0
C204 C 0.77492 0.5893 0.74897 0.0
C205 C 0.74648 0.61103 0.72239 0.0
C206 C 0.68468 0.57144 0.71132 0.0
C207 C 0.65322 0.51041 0.7244 0.0
H208 H 0.09248 0.8624 0.52319 0.0
H209 H 0.01834 0.89276 0.4136 0.0
H210 H 0.14942 0.82679 0.484 0.0
H211 H 0.07615 0.85671 0.37412 0.0
H212 H 0.13049 0.70307 0.33826 0.0
H213 H 0.07738 0.7547 0.36479 0.0
H214 H 0.23818 0.87478 0.43603 0.0
H215 H 0.29066 0.82329 0.40978 0.0
C216 C 0.08826 0.8615 0.49071 0.0
C217 C 0.05089 0.88059 0.47157 0.0
C218 C 0.12138 0.84156 0.46821 0.0
C219 C 0.11785 0.83983 0.42599 0.0
C220 C 0.07977 0.85782 0.40664 0.0
C221 C 0.04688 0.8785 0.42925 0.0
C222 C 0.15502 0.74198 0.35845 0.0
C223 C 0.21442 0.7592 0.37218 0.0
C224 C 0.12465 0.77133 0.37372 0.0
C225 C 0.15333 0.81783 0.40306 0.0
C226 C 0.2146 0.83824 0.41405 0.0
C227 C 0.24471 0.80903 0.39891 0.0
H228 H 0.09764 0.04264 0.91447 0.0
H229 H 0.20165 0.11949 1.02427 0.0
H230 H 0.19288 0.09905 0.87545 0.0
H231 H 0.29563 0.17492 0.98555 0.0
H232 H 0.44432 0.31379 0.91036 0.0
H233 H 0.33992 0.26225 0.93689 0.0
H234 H 0.29492 0.09961 0.86723 0.0
H235 H 0.40011 0.15184 0.8404 0.0
C236 C 0.14062 0.07148 0.93027 0.0
C237 C 0.14197 0.07667 0.97251 0.0
C238 C 0.19501 0.10355 0.90792 0.0
C239 C 0.25143 0.14193 0.92743 0.0
C240 C 0.25264 0.14666 0.96959 0.0
C241 C 0.19872 0.11441 0.99183 0.0
C242 C 0.41164 0.26757 0.89997 0.0
C243 C 0.43004 0.23663 0.87346 0.0
C244 C 0.35206 0.23799 0.91527 0.0
C245 C 0.30976 0.17655 0.90473 0.0
C246 C 0.32663 0.14704 0.87581 0.0
C247 C 0.38661 0.1769 0.86036 0.0
H248 H 0.05269 0.22525 0.52201 0.0
H249 H 0.02171 0.11945 0.41296 0.0
H250 H 0.0873 0.31811 0.48232 0.0
H251 H 0.05694 0.21367 0.373 0.0
H252 H 0.21012 0.42547 0.33763 0.0
H253 H 0.15943 0.31973 0.36408 0.0
H254 H 0.03683 0.3563 0.43342 0.0
H255 H 0.08721 0.46125 0.40713 0.0
C256 C 0.05333 0.22172 0.48954 0.0
C257 C 0.03427 0.1648 0.4707 0.0
C258 C 0.07269 0.27494 0.46677 0.0
C259 C 0.07392 0.27284 0.42457 0.0
C260 C 0.05614 0.21637 0.4055 0.0
C261 C 0.03596 0.16261 0.42838 0.0
C262 C 0.17079 0.40993 0.35729 0.0
C263 C 0.15255 0.45128 0.37052 0.0
C264 C 0.14201 0.34964 0.37254 0.0
C265 C 0.09511 0.33046 0.40138 0.0
C266 C 0.07365 0.37036 0.41179 0.0
C267 C 0.10224 0.43023 0.39663 0.0
H268 H 0.79497 0.07235 1.01859 0.0
H269 H 0.87638 0.04859 0.91079 0.0
H270 H 0.73842 0.10755 0.97822 0.0
H271 H 0.81901 0.0845 0.87007 0.0
H272 H 0.59905 0.11005 0.90145 0.0
H273 H 0.65193 0.05822 0.92698 0.0
H274 H 0.81626 0.18762 0.86288 0.0
H275 H 0.76275 0.23957 0.83703 0.0
C276 C 0.80092 0.07467 0.98624 0.0
C277 C 0.84018 0.05752 0.96794 0.0
C278 C 0.76801 0.09436 0.96307 0.0
C279 C 0.7737 0.09785 0.921 0.0
C280 C 0.8137 0.08189 0.90247 0.0
C281 C 0.84634 0.06134 0.92576 0.0
C282 C 0.64588 0.12625 0.89187 0.0
C283 C 0.67705 0.17877 0.86749 0.0
C284 C 0.67617 0.09681 0.90656 0.0
C285 C 0.73844 0.11974 0.8975 0.0
C286 C 0.76819 0.16904 0.87025 0.0
C287 C 0.73763 0.19861 0.85541 0.0
H288 H 0.79237 0.89029 0.41378 0.0
H289 H 0.68883 0.82074 0.524 0.0
H290 H 0.69686 0.83137 0.37478 0.0
H291 H 0.59472 0.7629 0.48534 0.0
H292 H 0.44429 0.62118 0.4134 0.0
H293 H 0.54958 0.67254 0.43893 0.0
H294 H 0.59522 0.83137 0.36482 0.0
H295 H 0.48922 0.77941 0.3391 0.0
C296 C 0.74945 0.86251 0.42966 0.0
C297 C 0.74825 0.86015 0.47202 0.0
C298 C 0.69495 0.82897 0.40734 0.0
C299 C 0.63866 0.79195 0.42704 0.0
C300 C 0.63764 0.79 0.46928 0.0
C301 C 0.69163 0.82369 0.49148 0.0
C302 C 0.47725 0.66643 0.40181 0.0
C303 C 0.45881 0.69658 0.37447 0.0
C304 C 0.53737 0.69588 0.4165 0.0
C305 C 0.58009 0.75638 0.40447 0.0
C306 C 0.56318 0.78465 0.37452 0.0
C307 C 0.50272 0.75487 0.35963 0.0
H308 H 0.86622 0.81677 0.91431 0.0
H309 H 0.83943 0.71307 1.02386 0.0
H310 H 0.82975 0.72193 0.87489 0.0
H311 H 0.80344 0.61945 0.98468 0.0
H312 H 0.80033 0.47483 0.90869 0.0
H313 H 0.85092 0.57947 0.93562 0.0
H314 H 0.72766 0.61676 0.86667 0.0
H315 H 0.6767 0.51132 0.83969 0.0
C316 C 0.85264 0.77393 0.92996 0.0
C317 C 0.85583 0.7725 0.97225 0.0
C318 C 0.83172 0.7198 0.90739 0.0
C319 C 0.81461 0.66367 0.92673 0.0
C320 C 0.81747 0.66233 0.96892 0.0
C321 C 0.83761 0.71597 0.9914 0.0
C322 C 0.78509 0.50591 0.89851 0.0
C323 C 0.7347 0.48522 0.8722 0.0
C324 C 0.81381 0.5656 0.91403 0.0
C325 C 0.79242 0.60569 0.90377 0.0
C326 C 0.7451 0.58673 0.87498 0.0
C327 C 0.71616 0.52663 0.85942 0.0
loop_
_geom_bond_atom_site_label_1
_geom_bond_atom_site_label_2
_geom_bond_distance
_geom_bond_site_symmetry_2
_ccdc_geom_bond_type
O0 Zn1 1.953 1_545 S
O0 C16 1.225 . S
Zn1 O0 1.953 1_565 S
Zn1 O2 1.949 1_566 S
Zn1 O8 1.919 1_455 S
Zn1 O13 1.924 1_465 S
O2 Zn1 1.949 1_544 S
O2 Zn3 1.923 1_445 S
O2 Zn4 1.950 . S
O2 Zn5 1.945 1_455 S
Zn3 O2 1.923 1_665 S
Zn3 O6 1.933 . S
Zn3 O9 1.941 1_554 S
Zn3 O10 1.965 1_655 S
Zn4 O2 1.950 . S
Zn4 O11 1.938 . S
Zn4 O12 1.906 . S
Zn4 O22 1.953 1_554 S
Zn5 O2 1.945 1_655 S
Zn5 O7 1.932 1_545 S
Zn5 O14 1.977 1_655 S
Zn5 O15 1.910 1_554 S
O6 Zn3 1.933 . S
O6 C17 1.226 . S
O7 Zn5 1.932 1_565 S
O7 C17 1.307 . S
O8 Zn1 1.919 1_655 S
O8 C19 1.253 . S
O9 Zn3 1.941 1_556 S
O9 C19 1.283 . S
O10 Zn3 1.965 1_455 S
O10 C18 1.303 . S
O11 Zn4 1.938 . S
O11 C18 1.247 1_545 S
O12 Zn4 1.906 . S
O12 C20 1.304 . S
O13 Zn1 1.924 1_645 S
O13 C21 1.311 . S
O14 Zn5 1.977 1_455 S
O14 C20 1.272 . S
O15 Zn5 1.910 1_556 S
O15 C21 1.231 . S
C16 O0 1.225 . S
C16 O22 1.298 . S
C17 O6 1.226 . S
C17 O7 1.307 . S
C18 O10 1.303 . S
C18 O11 1.247 1_565 S
C19 O8 1.253 . S
C19 O9 1.283 . S
C20 O12 1.304 . S
C20 O14 1.272 . S
C21 O13 1.311 . S
C21 O15 1.231 . S
O22 Zn4 1.953 1_556 S
O22 C16 1.298 . S
O23 Zn24 1.953 . S
O23 C39 1.225 . S
Zn24 O23 1.953 . S
Zn24 O25 1.949 . S
Zn24 O31 1.919 1_455 S
Zn24 O36 1.924 . S
O25 Zn24 1.949 . S
O25 Zn26 1.923 1_445 S
O25 Zn27 1.950 . S
O25 Zn28 1.945 1_545 S
Zn26 O25 1.923 1_665 S
Zn26 O29 1.933 . S
Zn26 O32 1.941 1_565 S
Zn26 O33 1.965 . S
Zn27 O25 1.950 . S
Zn27 O34 1.938 1_445 S
Zn27 O35 1.906 1_545 S
Zn27 O45 1.953 . S
Zn28 O25 1.945 1_565 S
Zn28 O30 1.932 1_455 S
Zn28 O37 1.977 . S
Zn28 O38 1.910 1_565 S
O29 Zn26 1.933 . S
O29 C40 1.226 . S
O30 Zn28 1.932 1_655 S
O30 C40 1.307 . S
O31 Zn24 1.919 1_655 S
O31 C42 1.253 . S
O32 Zn26 1.941 1_545 S
O32 C42 1.283 . S
O33 Zn26 1.965 . S
O33 C41 1.303 . S
O34 Zn27 1.938 1_665 S
O34 C41 1.247 . S
O35 Zn27 1.906 1_565 S
O35 C43 1.304 . S
O36 Zn24 1.924 . S
O36 C44 1.311 . S
O37 Zn28 1.977 . S
O37 C43 1.272 . S
O38 Zn28 1.910 1_545 S
O38 C44 1.231 . S
C39 O23 1.225 . S
C39 O45 1.298 . S
C40 O29 1.226 . S
C40 O30 1.307 . S
C41 O33 1.303 . S
C41 O34 1.247 . S
C42 O31 1.253 . S
C42 O32 1.283 . S
C43 O35 1.304 . S
C43 O37 1.272 . S
C44 O36 1.311 . S
C44 O38 1.231 . S
O45 Zn27 1.953 . S
O45 C39 1.298 . S
Zn46 O52 1.920 . S
Zn46 O58 1.898 . S
Zn46 O61 1.905 . S
Zn47 O55 1.905 . S
Zn47 O56 1.898 . S
Zn47 O64 1.920 . S
Zn48 O51 2.080 . S
Zn48 O54 2.114 . S
Zn48 O57 2.120 . S
Zn48 O59 2.120 . S
Zn48 O60 2.114 . S
Zn48 O63 2.080 . S
C49 O54 1.166 . S
C49 O55 1.182 . S
C50 O56 1.167 . S
C50 O57 1.299 . S
O51 Zn48 2.080 . S
O51 C65 1.305 . S
O52 Zn46 1.920 . S
O52 C65 1.234 . S
C53 O58 1.167 . S
C53 O59 1.299 . S
O54 Zn48 2.114 . S
O54 C49 1.166 . S
O55 Zn47 1.905 . S
O55 C49 1.182 . S
O56 Zn47 1.898 . S
O56 C50 1.167 . S
O57 Zn48 2.120 . S
O57 C50 1.299 . S
O58 Zn46 1.898 . S
O58 C53 1.167 . S
O59 Zn48 2.120 . S
O59 C53 1.299 . S
O60 Zn48 2.114 . S
O60 C62 1.166 . S
O61 Zn46 1.905 . S
O61 C62 1.182 . S
C62 O60 1.166 . S
C62 O61 1.182 . S
O63 Zn48 2.080 . S
O63 C66 1.305 . S
O64 Zn47 1.920 . S
O64 C66 1.234 . S
C65 O51 1.305 . S
C65 O52 1.234 . S
C66 O63 1.305 . S
C66 O64 1.234 . S
Zn67 O73 1.920 . S
Zn67 O79 1.898 . S
Zn67 O82 1.905 . S
Zn68 O76 1.905 . S
Zn68 O77 1.898 . S
Zn68 O85 1.920 . S
Zn69 O72 2.080 . S
Zn69 O75 2.114 . S
Zn69 O78 2.120 . S
Zn69 O80 2.120 . S
Zn69 O81 2.114 . S
Zn69 O84 2.080 . S
C70 O75 1.166 . S
C70 O76 1.182 . S
C71 O77 1.167 . S
C71 O78 1.299 . S
O72 Zn69 2.080 . S
O72 C86 1.305 . S
O73 Zn67 1.920 . S
O73 C86 1.234 . S
C74 O79 1.167 . S
C74 O80 1.299 . S
O75 Zn69 2.114 . S
O75 C70 1.166 . S
O76 Zn68 1.905 . S
O76 C70 1.182 . S
O77 Zn68 1.898 . S
O77 C71 1.167 . S
O78 Zn69 2.120 . S
O78 C71 1.299 . S
O79 Zn67 1.898 . S
O79 C74 1.167 . S
O80 Zn69 2.120 . S
O80 C74 1.299 . S
O81 Zn69 2.114 . S
O81 C83 1.166 . S
O82 Zn67 1.905 . S
O82 C83 1.182 . S
C83 O81 1.166 . S
C83 O82 1.182 . S
O84 Zn69 2.080 . S
O84 C87 1.305 . S
O85 Zn68 1.920 . S
O85 C87 1.234 . S
C86 O72 1.305 . S
C86 O73 1.234 . S
C87 O84 1.305 . S
C87 O85 1.234 . S
H88 C96 0.950 . S
H89 C101 0.950 . S
H90 C98 0.950 . S
H91 C100 0.950 . S
H92 C102 0.950 . S
H93 C104 0.950 . S
H94 C106 0.950 . S
H95 C107 0.950 . S
C96 H88 0.950 . S
C96 C97 1.386 . S
C96 C98 1.391 . S
C97 C96 1.386 . S
C97 C101 1.393 . S
C98 H90 0.950 . S
C98 C96 1.391 . S
C98 C99 1.400 . S
C99 C98 1.400 . S
C99 C100 1.398 . S
C99 C105 1.491 . S
C100 H91 0.950 . S
C100 C99 1.398 . S
C100 C101 1.391 . S
C101 H89 0.950 . S
C101 C97 1.393 . S
C101 C100 1.391 . S
C102 H92 0.950 . S
C102 C103 1.386 . S
C102 C104 1.391 . S
C103 C102 1.386 . S
C103 C107 1.393 . S
C104 H93 0.950 . S
C104 C102 1.391 . S
C104 C105 1.400 . S
C105 C99 1.491 . S
C105 C104 1.400 . S
C105 C106 1.398 . S
C106 H94 0.950 . S
C106 C105 1.398 . S
C106 C107 1.391 . S
C107 H95 0.950 . S
C107 C103 1.393 . S
C107 C106 1.391 . S
H108 C116 0.950 . S
H109 C121 0.950 . S
H110 C118 0.950 . S
H111 C120 0.950 . S
H112 C122 0.950 . S
H113 C124 0.950 . S
H114 C126 0.950 . S
H115 C127 0.950 . S
C116 H108 0.950 . S
C116 C117 1.386 . S
C116 C118 1.391 . S
C117 C116 1.386 . S
C117 C121 1.393 . S
C118 H110 0.950 . S
C118 C116 1.391 . S
C118 C119 1.400 . S
C119 C118 1.400 . S
C119 C120 1.398 . S
C119 C125 1.491 . S
C120 H111 0.950 . S
C120 C119 1.398 . S
C120 C121 1.391 . S
C121 H109 0.950 . S
C121 C117 1.393 . S
C121 C120 1.391 . S
C122 H112 0.950 . S
C122 C123 1.386 . S
C122 C124 1.391 . S
C123 C122 1.386 . S
C123 C127 1.393 . S
C124 H113 0.950 . S
C124 C122 1.391 . S
C124 C125 1.400 . S
C125 C119 1.491 . S
C125 C124 1.400 . S
C125 C126 1.398 . S
C126 H114 0.950 . S
C126 C125 1.398 . S
C126 C127 1.391 . S
C127 H115 0.950 . S
C127 C123 1.393 . S
C127 C126 1.391 . S
H128 C136 0.950 . S
H129 C141 0.950 . S
H130 C138 0.950 . S
H131 C140 0.950 . S
H132 C142 0.950 . S
H133 C144 0.950 . S
H134 C146 0.950 . S
H135 C147 0.950 . S
C136 H128 0.950 . S
C136 C137 1.386 . S
C136 C138 1.391 . S
C137 C136 1.386 . S
C137 C141 1.393 . S
C138 H130 0.950 . S
C138 C136 1.391 . S
C138 C139 1.400 . S
C139 C138 1.400 . S
C139 C140 1.398 . S
C139 C145 1.491 . S
C140 H131 0.950 . S
C140 C139 1.398 . S
C140 C141 1.391 . S
C141 H129 0.950 . S
C141 C137 1.393 . S
C141 C140 1.391 . S
C142 H132 0.950 . S
C142 C143 1.386 . S
C142 C144 1.391 . S
C143 C142 1.386 . S
C143 C147 1.393 . S
C144 H133 0.950 . S
C144 C142 1.391 . S
C144 C145 1.400 . S
C145 C139 1.491 . S
C145 C144 1.400 . S
C145 C146 1.398 . S
C146 H134 0.950 . S
C146 C145 1.398 . S
C146 C147 1.391 . S
C147 H135 0.950 . S
C147 C143 1.393 . S
C147 C146 1.391 . S
H148 C156 0.950 . S
H149 C161 0.950 . S
H150 C158 0.950 . S
H151 C160 0.950 . S
H152 C162 0.950 . S
H153 C164 0.950 . S
H154 C166 0.950 . S
H155 C167 0.950 . S
C156 H148 0.950 . S
C156 C157 1.386 . S
C156 C158 1.391 . S
C157 C156 1.386 . S
C157 C161 1.393 . S
C158 H150 0.950 . S
C158 C156 1.391 . S
C158 C159 1.400 . S
C159 C158 1.400 . S
C159 C160 1.398 . S
C159 C165 1.491 . S
C160 H151 0.950 . S
C160 C159 1.398 . S
C160 C161 1.391 . S
C161 H149 0.950 . S
C161 C157 1.393 . S
C161 C160 1.391 . S
C162 H152 0.950 . S
C162 C163 1.386 . S
C162 C164 1.391 . S
C163 C162 1.386 . S
C163 C167 1.393 . S
C164 H153 0.950 . S
C164 C162 1.391 . S
C164 C165 1.400 . S
C165 C159 1.491 . S
C165 C164 1.400 . S
C165 C166 1.398 . S
C166 H154 0.950 . S
C166 C165 1.398 . S
C166 C167 1.391 . S
C167 H155 0.950 . S
C167 C163 1.393 . S
C167 C166 1.391 . S
H168 C176 0.950 . S
H169 C181 0.950 . S
H170 C178 0.950 . S
H171 C180 0.950 . S
H172 C182 0.950 . S
H173 C184 0.950 . S
H174 C186 0.950 . S
H175 C187 0.950 . S
C176 H168 0.950 . S
C176 C177 1.386 . S
C176 C178 1.391 . S
C177 C176 1.386 . S
C177 C181 1.393 . S
C178 H170 0.950 . S
C178 C176 1.391 . S
C178 C179 1.400 . S
C179 C178 1.400 . S
C179 C180 1.398 . S
C179 C185 1.491 . S
C180 H171 0.950 . S
C180 C179 1.398 . S
C180 C181 1.391 . S
C181 H169 0.950 . S
C181 C177 1.393 . S
C181 C180 1.391 . S
C182 H172 0.950 . S
C182 C183 1.386 . S
C182 C184 1.391 . S
C183 C182 1.386 . S
C183 C187 1.393 . S
C184 H173 0.950 . S
C184 C182 1.391 . S
C184 C185 1.400 . S
C185 C179 1.491 . S
C185 C184 1.400 . S
C185 C186 1.398 . S
C186 H174 0.950 . S
C186 C185 1.398 . S
C186 C187 1.391 . S
C187 H175 0.950 . S
C187 C183 1.393 . S
C187 C186 1.391 . S
H188 C196 0.950 . S
H189 C201 0.950 . S
H190 C198 0.950 . S
H191 C200 0.950 . S
H192 C202 0.950 . S
H193 C204 0.950 . S
H194 C206 0.950 . S
H195 C207 0.950 . S
C196 H188 0.950 . S
C196 C197 1.386 . S
C196 C198 1.391 . S
C197 C196 1.386 . S
C197 C201 1.393 . S
C198 H190 0.950 . S
C198 C196 1.391 . S
C198 C199 1.400 . S
C199 C198 1.400 . S
C199 C200 1.398 . S
C199 C205 1.491 . S
C200 H191 0.950 . S
C200 C199 1.398 . S
C200 C201 1.391 . S
C201 H189 0.950 . S
C201 C197 1.393 . S
C201 C200 1.391 . S
C202 H192 0.950 . S
C202 C203 1.386 . S
C202 C204 1.391 . S
C203 C202 1.386 . S
C203 C207 1.393 . S
C204 H193 0.950 . S
C204 C202 1.391 . S
C204 C205 1.400 . S
C205 C199 1.491 . S
C205 C204 1.400 . S
C205 C206 1.398 . S
C206 H194 0.950 . S
C206 C205 1.398 . S
C206 C207 1.391 . S
C207 H195 0.950 . S
C207 C203 1.393 . S
C207 C206 1.391 . S
H208 C216 0.950 . S
H209 C221 0.950 . S
H210 C218 0.950 . S
H211 C220 0.950 . S
H212 C222 0.950 . S
H213 C224 0.950 . S
H214 C226 0.950 . S
H215 C227 0.950 . S
C216 H208 0.950 . S
C216 C217 1.386 . S
C216 C218 1.391 . S
C217 C216 1.386 . S
C217 C221 1.393 . S
C218 H210 0.950 . S
C218 C216 1.391 . S
C218 C219 1.400 . S
C219 C218 1.400 . S
C219 C220 1.398 . S
C219 C225 1.491 . S
C220 H211 0.950 . S
C220 C219 1.398 . S
C220 C221 1.391 . S
C221 H209 0.950 . S
C221 C217 1.393 . S
C221 C220 1.391 . S
C222 H212 0.950 . S
C222 C223 1.386 . S
C222 C224 1.391 . S
C223 C222 1.386 . S
C223 C227 1.393 . S
C224 H213 0.950 . S
C224 C222 1.391 . S
C224 C225 1.400 . S
C225 C219 1.491 . S
C225 C224 1.400 . S
C225 C226 1.398 . S
C226 H214 0.950 . S
C226 C225 1.398 . S
C226 C227 1.391 . S
C227 H215 0.950 . S
C227 C223 1.393 . S
C227 C226 1.391 . S
H228 C236 0.950 . S
H229 C241 0.950 . S
H230 C238 0.950 . S
H231 C240 0.950 . S
H232 C242 0.950 . S
H233 C244 0.950 . S
H234 C246 0.950 . S
H235 C247 0.950 . S
C236 H228 0.950 . S
C236 C237 1.386 . S
C236 C238 1.391 . S
C237 C236 1.386 . S
C237 C241 1.393 . S
C238 H230 0.950 . S
C238 C236 1.391 . S
C238 C239 1.400 . S
C239 C238 1.400 . S
C239 C240 1.398 . S
C239 C245 1.491 . S
C240 H231 0.950 . S
C240 C239 1.398 . S
C240 C241 1.391 . S
C241 H229 0.950 . S
C241 C237 1.393 . S
C241 C240 1.391 . S
C242 H232 0.950 . S
C242 C243 1.386 . S
C242 C244 1.391 . S
C243 C242 1.386 . S
C243 C247 1.393 . S
C244 H233 0.950 . S
C244 C242 1.391 . S
C244 C245 1.400 . S
C245 C239 1.491 . S
C245 C244 1.400 . S
C245 C246 1.398 . S
C246 H234 0.950 . S
C246 C245 1.398 . S
C246 C247 1.391 . S
C247 H235 0.950 . S
C247 C243 1.393 . S
C247 C246 1.391 . S
H248 C256 0.950 . S
H249 C261 0.950 . S
H250 C258 0.950 . S
H251 C260 0.950 . S
H252 C262 0.950 . S
H253 C264 0.950 . S
H254 C266 0.950 . S
H255 C267 0.950 . S
C256 H248 0.950 . S
C256 C257 1.386 . S
C256 C258 1.391 . S
C257 C256 1.386 . S
C257 C261 1.393 . S
C258 H250 0.950 . S
C258 C256 1.391 . S
C258 C259 1.400 . S
C259 C258 1.400 . S
C259 C260 1.398 . S
C259 C265 1.491 . S
C260 H251 0.950 . S
C260 C259 1.398 . S
C260 C261 1.391 . S
C261 H249 0.950 . S
C261 C257 1.393 . S
C261 C260 1.391 . S
C262 H252 0.950 . S
C262 C263 1.386 . S
C262 C264 1.391 . S
C263 C262 1.386 . S
C263 C267 1.393 . S
C264 H253 0.950 . S
C264 C262 1.391 . S
C264 C265 1.400 . S
C265 C259 1.491 . S
C265 C264 1.400 . S
C265 C266 1.398 . S
C266 H254 0.950 . S
C266 C265 1.398 . S
C266 C267 1.391 . S
C267 H255 0.950 . S
C267 C263 1.393 . S
C267 C266 1.391 . S
H268 C276 0.950 . S
H269 C281 0.950 . S
H270 C278 0.950 . S
H271 C280 0.950 . S
H272 C282 0.950 . S
H273 C284 0.950 . S
H274 C286 0.950 . S
H275 C287 0.950 . S
C276 H268 0.950 . S
C276 C277 1.386 . S
C276 C278 1.391 . S
C277 C276 1.386 . S
C277 C281 1.393 . S
C278 H270 0.950 . S
C278 C276 1.391 . S
C278 C279 1.400 . S
C279 C278 1.400 . S
C279 C280 1.398 . S
C279 C285 1.491 . S
C280 H271 0.950 . S
C280 C279 1.398 . S
C280 C281 1.391 . S
C281 H269 0.950 . S
C281 C277 1.393 . S
C281 C280 1.391 . S
C282 H272 0.950 . S
C282 C283 1.386 . S
C282 C284 1.391 . S
C283 C282 1.386 . S
C283 C287 1.393 . S
C284 H273 0.950 . S
C284 C282 1.391 . S
C284 C285 1.400 . S
C285 C279 1.491 . S
C285 C284 1.400 . S
C285 C286 1.398 . S
C286 H274 0.950 . S
C286 C285 1.398 . S
C286 C287 1.391 . S
C287 H275 0.950 . S
C287 C283 1.393 . S
C287 C286 1.391 . S
H288 C296 0.950 . S
H289 C301 0.950 . S
H290 C298 0.950 . S
H291 C300 0.950 . S
H292 C302 0.950 . S
H293 C304 0.950 . S
H294 C306 0.950 . S
H295 C307 0.950 . S
C296 H288 0.950 . S
C296 C297 1.386 . S
C296 C298 1.391 . S
C297 C296 1.386 . S
C297 C301 1.393 . S
C298 H290 0.950 . S
C298 C296 1.391 . S
C298 C299 1.400 . S
C299 C298 1.400 . S
C299 C300 1.398 . S
C299 C305 1.491 . S
C300 H291 0.950 . S
C300 C299 1.398 . S
C300 C301 1.391 . S
C301 H289 0.950 . S
C301 C297 1.393 . S
C301 C300 1.391 . S
C302 H292 0.950 . S
C302 C303 1.386 . S
C302 C304 1.391 . S
C303 C302 1.386 . S
C303 C307 1.393 . S
C304 H293 0.950 . S
C304 C302 1.391 . S
C304 C305 1.400 . S
C305 C299 1.491 . S
C305 C304 1.400 . S
C305 C306 1.398 . S
C306 H294 0.950 . S
C306 C305 1.398 . S
C306 C307 1.391 . S
C307 H295 0.950 . S
C307 C303 1.393 . S
C307 C306 1.391 . S
H308 C316 0.950 . S
H309 C321 0.950 . S
H310 C318 0.950 . S
H311 C320 0.950 . S
H312 C322 0.950 . S
H313 C324 0.950 . S
H314 C326 0.950 . S
H315 C327 0.950 . S
C316 H308 0.950 . S
C316 C317 1.386 . S
C316 C318 1.391 . S
C317 C316 1.386 . S
C317 C321 1.393 . S
C318 H310 0.950 . S
C318 C316 1.391 . S
C318 C319 1.400 . S
C319 C318 1.400 . S
C319 C320 1.398 . S
C319 C325 1.491 . S
C320 H311 0.950 . S
C320 C319 1.398 . S
C320 C321 1.391 . S
C321 H309 0.950 . S
C321 C317 1.393 . S
C321 C320 1.391 . S
C322 H312 0.950 . S
C322 C323 1.386 . S
C322 C324 1.391 . S
C323 C322 1.386 . S
C323 C327 1.393 . S
C324 H313 0.950 . S
C324 C322 1.391 . S
C324 C325 1.400 . S
C325 C319 1.491 . S
C325 C324 1.400 . S
C325 C326 1.398 . S
C326 H314 0.950 . S
C326 C325 1.398 . S
C326 C327 1.391 . S
C327 H315 0.950 . S
C327 C323 1.393 . S
C327 C326 1.391 . S
C97 C18 1.468 . S
C103 C65 1.337 . S
C117 C44 1.447 . S
C123 C71 1.317 . S
C137 C20 1.422 . S
C143 C62 1.368 . S
C157 C42 1.499 . S
C163 C87 1.388 . S
C177 C17 1.461 . S
C183 C53 1.326 . S
C203 C70 1.368 . S
C197 C40 1.492 . S
C217 C43 1.461 . S
C223 C66 1.349 . S
C243 C83 1.352 . S
C237 C16 1.503 . S
C263 C50 1.364 . S
C257 C39 1.500 . S
C283 C86 1.359 . S
C277 C21 1.456 . S
C303 C49 1.401 . S
C297 C41 1.458 . S
C323 C74 1.337 . S
C317 C19 1.439 . S
