# Generated by pormake.
# Topology tph, (6,8)-cn, num edge types: 1
# Building blocks:
#     Node 0, Type 0, BuildingBlock: IZENUY_clean_sbu_0, # of connection points: 6
#     Node 1, Type 0, BuildingBlock: IZENUY_clean_sbu_0, # of connection points: 6
#     Node 2, Type 0, BuildingBlock: IZENUY_clean_sbu_0, # of connection points: 6
#     Node 3, Type 0, BuildingBlock: IZENUY_clean_sbu_0, # of connection points: 6
#     Node 4, Type 0, BuildingBlock: IZENUY_clean_sbu_0, # of connection points: 6
#     Node 5, Type 0, BuildingBlock: IZENUY_clean_sbu_0, # of connection points: 6
#     Node 6, Type 0, BuildingBlock: IZENUY_clean_sbu_0, # of connection points: 6
#     Node 7, Type 0, BuildingBlock: IZENUY_clean_sbu_0, # of connection points: 6
#     Node 8, Type 0, BuildingBlock: IZENUY_clean_sbu_0, # of connection points: 6
#     Node 9, Type 0, BuildingBlock: IZENUY_clean_sbu_0, # of connection points: 6
#     Node 10, Type 0, BuildingBlock: IZENUY_clean_sbu_0, # of connection points: 6
#     Node 11, Type 0, BuildingBlock: IZENUY_clean_sbu_0, # of connection points: 6
#     Node 12, Type 0, BuildingBlock: IZENUY_clean_sbu_0, # of connection points: 6
#     Node 13, Type 0, BuildingBlock: IZENUY_clean_sbu_0, # of connection points: 6
#     Node 14, Type 0, BuildingBlock: IZENUY_clean_sbu_0, # of connection points: 6
#     Node 15, Type 0, BuildingBlock: IZENUY_clean_sbu_0, # of connection points: 6
#     Node 16, Type 1, BuildingBlock: TAGTUT_clean_sbu_1, # of connection points: 8
#     Node 17, Type 1, BuildingBlock: TAGTUT_clean_sbu_1, # of connection points: 8
#     Node 18, Type 1, BuildingBlock: TAGTUT_clean_sbu_1, # of connection points: 8
#     Node 19, Type 1, BuildingBlock: TAGTUT_clean_sbu_1, # of connection points: 8
#     Node 20, Type 1, BuildingBlock: TAGTUT_clean_sbu_1, # of connection points: 8
#     Node 21, Type 1, BuildingBlock: TAGTUT_clean_sbu_1, # of connection points: 8
#     Node 22, Type 1, BuildingBlock: TAGTUT_clean_sbu_1, # of connection points: 8
#     Node 23, Type 1, BuildingBlock: TAGTUT_clean_sbu_1, # of connection points: 8
#     Node 24, Type 1, BuildingBlock: TAGTUT_clean_sbu_1, # of connection points: 8
#     Node 25, Type 1, BuildingBlock: TAGTUT_clean_sbu_1, # of connection points: 8
#     Node 26, Type 1, BuildingBlock: TAGTUT_clean_sbu_1, # of connection points: 8
#     Node 27, Type 1, BuildingBlock: TAGTUT_clean_sbu_1, # of connection points: 8
#     Edge 28, Type (0, 1), BuildingBlock: CIFDUS_clean_linker_0, # of connection points: 2
#     Edge 29, Type (0, 1), BuildingBlock: CIFDUS_clean_linker_0, # of connection points: 2
#     Edge 30, Type (0, 1), BuildingBlock: CIFDUS_clean_linker_0, # of connection points: 2
#     Edge 31, Type (0, 1), BuildingBlock: CIFDUS_clean_linker_0, # of connection points: 2
#     Edge 32, Type (0, 1), BuildingBlock: CIFDUS_clean_linker_0, # of connection points: 2
#     Edge 33, Type (0, 1), BuildingBlock: CIFDUS_clean_linker_0, # of connection points: 2
#     Edge 34, Type (0, 1), BuildingBlock: CIFDUS_clean_linker_0, # of connection points: 2
#     Edge 35, Type (0, 1), BuildingBlock: CIFDUS_clean_linker_0, # of connection points: 2
#     Edge 36, Type (0, 1), BuildingBlock: CIFDUS_clean_linker_0, # of connection points: 2
#     Edge 37, Type (0, 1), BuildingBlock: CIFDUS_clean_linker_0, # of connection points: 2
#     Edge 38, Type (0, 1), BuildingBlock: CIFDUS_clean_linker_0, # of connection points: 2
#     Edge 39, Type (0, 1), BuildingBlock: CIFDUS_clean_linker_0, # of connection points: 2
#     Edge 40, Type (0, 1), BuildingBlock: CIFDUS_clean_linker_0, # of connection points: 2
#     Edge 41, Type (0, 1), BuildingBlock: CIFDUS_clean_linker_0, # of connection points: 2
#     Edge 42, Type (0, 1), BuildingBlock: CIFDUS_clean_linker_0, # of connection points: 2
#     Edge 43, Type (0, 1), BuildingBlock: CIFDUS_clean_linker_0, # of connection points: 2
#     Edge 44, Type (0, 1), BuildingBlock: CIFDUS_clean_linker_0, # of connection points: 2
#     Edge 45, Type (0, 1), BuildingBlock: CIFDUS_clean_linker_0, # of connection points: 2
#     Edge 46, Type (0, 1), BuildingBlock: CIFDUS_clean_linker_0, # of connection points: 2
#     Edge 47, Type (0, 1), BuildingBlock: CIFDUS_clean_linker_0, # of connection points: 2
#     Edge 48, Type (0, 1), BuildingBlock: CIFDUS_clean_linker_0, # of connection points: 2
#     Edge 49, Type (0, 1), BuildingBlock: CIFDUS_clean_linker_0, # of connection points: 2
#     Edge 50, Type (0, 1), BuildingBlock: CIFDUS_clean_linker_0, # of connection points: 2
#     Edge 51, Type (0, 1), BuildingBlock: CIFDUS_clean_linker_0, # of connection points: 2
#     Edge 52, Type (0, 1), BuildingBlock: CIFDUS_clean_linker_0, # of connection points: 2
#     Edge 53, Type (0, 1), BuildingBlock: CIFDUS_clean_linker_0, # of connection points: 2
#     Edge 54, Type (0, 1), BuildingBlock: CIFDUS_clean_linker_0, # of connection points: 2
#     Edge 55, Type (0, 1), BuildingBlock: CIFDUS_clean_linker_0, # of connection points: 2
#     Edge 56, Type (0, 1), BuildingBlock: CIFDUS_clean_linker_0, # of connection points: 2
#     Edge 57, Type (0, 1), BuildingBlock: CIFDUS_clean_linker_0, # of connection points: 2
#     Edge 58, Type (0, 1), BuildingBlock: CIFDUS_clean_linker_0, # of connection points: 2
#     Edge 59, Type (0, 1), BuildingBlock: CIFDUS_clean_linker_0, # of connection points: 2
#     Edge 60, Type (0, 1), BuildingBlock: CIFDUS_clean_linker_0, # of connection points: 2
#     Edge 61, Type (0, 1), BuildingBlock: CIFDUS_clean_linker_0, # of connection points: 2
#     Edge 62, Type (0, 1), BuildingBlock: CIFDUS_clean_linker_0, # of connection points: 2
#     Edge 63, Type (0, 1), BuildingBlock: CIFDUS_clean_linker_0, # of connection points: 2
#     Edge 64, Type (0, 1), BuildingBlock: CIFDUS_clean_linker_0, # of connection points: 2
#     Edge 65, Type (0, 1), BuildingBlock: CIFDUS_clean_linker_0, # of connection points: 2
#     Edge 66, Type (0, 1), BuildingBlock: CIFDUS_clean_linker_0, # of connection points: 2
#     Edge 67, Type (0, 1), BuildingBlock: CIFDUS_clean_linker_0, # of connection points: 2
#     Edge 68, Type (0, 1), BuildingBlock: CIFDUS_clean_linker_0, # of connection points: 2
#     Edge 69, Type (0, 1), BuildingBlock: CIFDUS_clean_linker_0, # of connection points: 2
#     Edge 70, Type (0, 1), BuildingBlock: CIFDUS_clean_linker_0, # of connection points: 2
#     Edge 71, Type (0, 1), BuildingBlock: CIFDUS_clean_linker_0, # of connection points: 2
#     Edge 72, Type (0, 1), BuildingBlock: CIFDUS_clean_linker_0, # of connection points: 2
#     Edge 73, Type (0, 1), BuildingBlock: CIFDUS_clean_linker_0, # of connection points: 2
#     Edge 74, Type (0, 1), BuildingBlock: CIFDUS_clean_linker_0, # of connection points: 2
#     Edge 75, Type (0, 1), BuildingBlock: CIFDUS_clean_linker_0, # of connection points: 2
#     Edge 76, Type (0, 1), BuildingBlock: CIFDUS_clean_linker_0, # of connection points: 2
#     Edge 77, Type (0, 1), BuildingBlock: CIFDUS_clean_linker_0, # of connection points: 2
#     Edge 78, Type (0, 1), BuildingBlock: CIFDUS_clean_linker_0, # of connection points: 2
#     Edge 79, Type (0, 1), BuildingBlock: CIFDUS_clean_linker_0, # of connection points: 2
#     Edge 80, Type (0, 1), BuildingBlock: CIFDUS_clean_linker_0, # of connection points: 2
#     Edge 81, Type (0, 1), BuildingBlock: CIFDUS_clean_linker_0, # of connection points: 2
#     Edge 82, Type (0, 1), BuildingBlock: CIFDUS_clean_linker_0, # of connection points: 2
#     Edge 83, Type (0, 1), BuildingBlock: CIFDUS_clean_linker_0, # of connection points: 2
#     Edge 84, Type (0, 1), BuildingBlock: CIFDUS_clean_linker_0, # of connection points: 2
#     Edge 85, Type (0, 1), BuildingBlock: CIFDUS_clean_linker_0, # of connection points: 2
#     Edge 86, Type (0, 1), BuildingBlock: CIFDUS_clean_linker_0, # of connection points: 2
#     Edge 87, Type (0, 1), BuildingBlock: CIFDUS_clean_linker_0, # of connection points: 2
#     Edge 88, Type (0, 1), BuildingBlock: CIFDUS_clean_linker_0, # of connection points: 2
#     Edge 89, Type (0, 1), BuildingBlock: CIFDUS_clean_linker_0, # of connection points: 2
#     Edge 90, Type (0, 1), BuildingBlock: CIFDUS_clean_linker_0, # of connection points: 2
#     Edge 91, Type (0, 1), BuildingBlock: CIFDUS_clean_linker_0, # of connection points: 2
#     Edge 92, Type (0, 1), BuildingBlock: CIFDUS_clean_linker_0, # of connection points: 2
#     Edge 93, Type (0, 1), BuildingBlock: CIFDUS_clean_linker_0, # of connection points: 2
#     Edge 94, Type (0, 1), BuildingBlock: CIFDUS_clean_linker_0, # of connection points: 2
#     Edge 95, Type (0, 1), BuildingBlock: CIFDUS_clean_linker_0, # of connection points: 2
#     Edge 96, Type (0, 1), BuildingBlock: CIFDUS_clean_linker_0, # of connection points: 2
#     Edge 97, Type (0, 1), BuildingBlock: CIFDUS_clean_linker_0, # of connection points: 2
#     Edge 98, Type (0, 1), BuildingBlock: CIFDUS_clean_linker_0, # of connection points: 2
#     Edge 99, Type (0, 1), BuildingBlock: CIFDUS_clean_linker_0, # of connection points: 2
#     Edge 100, Type (0, 1), BuildingBlock: CIFDUS_clean_linker_0, # of connection points: 2
#     Edge 101, Type (0, 1), BuildingBlock: CIFDUS_clean_linker_0, # of connection points: 2
#     Edge 102, Type (0, 1), BuildingBlock: CIFDUS_clean_linker_0, # of connection points: 2
#     Edge 103, Type (0, 1), BuildingBlock: CIFDUS_clean_linker_0, # of connection points: 2
#     Edge 104, Type (0, 1), BuildingBlock: CIFDUS_clean_linker_0, # of connection points: 2
#     Edge 105, Type (0, 1), BuildingBlock: CIFDUS_clean_linker_0, # of connection points: 2
#     Edge 106, Type (0, 1), BuildingBlock: CIFDUS_clean_linker_0, # of connection points: 2
#     Edge 107, Type (0, 1), BuildingBlock: CIFDUS_clean_linker_0, # of connection points: 2
#     Edge 108, Type (0, 1), BuildingBlock: CIFDUS_clean_linker_0, # of connection points: 2
#     Edge 109, Type (0, 1), BuildingBlock: CIFDUS_clean_linker_0, # of connection points: 2
#     Edge 110, Type (0, 1), BuildingBlock: CIFDUS_clean_linker_0, # of connection points: 2
#     Edge 111, Type (0, 1), BuildingBlock: CIFDUS_clean_linker_0, # of connection points: 2
#     Edge 112, Type (0, 1), BuildingBlock: CIFDUS_clean_linker_0, # of connection points: 2
#     Edge 113, Type (0, 1), BuildingBlock: CIFDUS_clean_linker_0, # of connection points: 2
#     Edge 114, Type (0, 1), BuildingBlock: CIFDUS_clean_linker_0, # of connection points: 2
#     Edge 115, Type (0, 1), BuildingBlock: CIFDUS_clean_linker_0, # of connection points: 2
#     Edge 116, Type (0, 1), BuildingBlock: CIFDUS_clean_linker_0, # of connection points: 2
#     Edge 117, Type (0, 1), BuildingBlock: CIFDUS_clean_linker_0, # of connection points: 2
#     Edge 118, Type (0, 1), BuildingBlock: CIFDUS_clean_linker_0, # of connection points: 2
#     Edge 119, Type (0, 1), BuildingBlock: CIFDUS_clean_linker_0, # of connection points: 2
#     Edge 120, Type (0, 1), BuildingBlock: CIFDUS_clean_linker_0, # of connection points: 2
#     Edge 121, Type (0, 1), BuildingBlock: CIFDUS_clean_linker_0, # of connection points: 2
#     Edge 122, Type (0, 1), BuildingBlock: CIFDUS_clean_linker_0, # of connection points: 2
#     Edge 123, Type (0, 1), BuildingBlock: CIFDUS_clean_linker_0, # of connection points: 2
# Relax obj value: 0.216
# Max RMSD: 0.315
# Mean RMSD: 0.272
data_MOF--net-tph--node1-IZENUY_clean_sbu_0--node2-TAGTUT_clean_sbu_1--edge1-CIFDUS_clean_linker_0
_symmetry_space_group_name_H-M    P1
_symmetry_Int_Tables_number       1
_symmetry_cell_setting            triclinic
loop_
_symmetry_equiv_pos_as_xyz
'x, y, z'
_cell_length_a     41.920121
_cell_length_b     41.628217
_cell_length_c     41.369469
_cell_angle_alpha  90.249388
_cell_angle_beta   92.054945
_cell_angle_gamma 90.130716
loop_
_atom_site_label
_atom_site_type_symbol
_atom_site_fract_x
_atom_site_fract_y
_atom_site_fract_z
_atom_type_partial_charge
Fe0 Fe 0.21212 0.20187 0.13214 0.0
Fe1 Fe 0.15903 0.20197 0.18074 0.0
O2 O 0.19294 0.1839 0.16475 0.0
Fe3 Fe 0.20715 0.14732 0.18133 0.0
O4 O 0.19923 0.12728 0.14374 0.0
O5 O 0.22228 0.16275 0.11286 0.0
O6 O 0.17626 0.20111 0.10672 0.0
C7 C 0.1513 0.21597 0.1135 0.0
C8 C 0.26439 0.18022 0.16589 0.0
O9 O 0.14486 0.22114 0.14273 0.0
C10 C 0.19253 0.17748 0.23638 0.0
O11 O 0.20404 0.24364 0.14589 0.0
O12 O 0.18168 0.23687 0.19268 0.0
O13 O 0.24954 0.1544 0.1718 0.0
O14 O 0.24951 0.20429 0.15512 0.0
C15 C 0.14024 0.14002 0.18043 0.0
O16 O 0.16697 0.1868 0.22197 0.0
O17 O 0.21491 0.16562 0.22058 0.0
C18 C 0.19444 0.25494 0.17257 0.0
O19 O 0.13483 0.16764 0.16931 0.0
O20 O 0.16741 0.13301 0.19289 0.0
C21 C 0.2093 0.13534 0.11676 0.0
Fe22 Fe 0.45149 0.58403 0.11865 0.0
Fe23 Fe 0.44331 0.62731 0.0585 0.0
O24 O 0.43185 0.59317 0.08095 0.0
Fe25 Fe 0.39905 0.56898 0.06695 0.0
O26 O 0.37654 0.58017 0.10211 0.0
O27 O 0.41504 0.56876 0.13757 0.0
O28 O 0.44066 0.62228 0.1352 0.0
C29 C 0.44297 0.64974 0.12307 0.0
C30 C 0.44201 0.52293 0.09715 0.0
O31 O 0.45182 0.65328 0.09426 0.0
C32 C 0.42884 0.57814 0.01046 0.0
O33 O 0.49146 0.59893 0.10689 0.0
O34 O 0.48437 0.6145 0.05647 0.0
O35 O 0.41445 0.5317 0.08656 0.0
O36 O 0.46272 0.54389 0.10525 0.0
C37 C 0.37998 0.63098 0.04415 0.0
O38 O 0.43581 0.6068 0.01928 0.0
O39 O 0.41925 0.5576 0.03052 0.0
C40 C 0.50276 0.60811 0.08023 0.0
O41 O 0.40367 0.64403 0.05814 0.0
O42 O 0.37739 0.60072 0.04394 0.0
C43 C 0.38607 0.57611 0.13112 0.0
Fe44 Fe 0.81802 0.298 0.15772 0.0
Fe45 Fe 0.86214 0.28847 0.21708 0.0
O46 O 0.83482 0.31278 0.19462 0.0
Fe47 Fe 0.82415 0.35131 0.20838 0.0
O48 O 0.83682 0.37056 0.17167 0.0
O49 O 0.81093 0.33751 0.13914 0.0
O50 O 0.85659 0.29823 0.14076 0.0
C51 C 0.88006 0.28265 0.15221 0.0
C52 C 0.76557 0.32321 0.18329 0.0
O53 O 0.87983 0.2707 0.18048 0.0
C54 C 0.82551 0.31813 0.2655 0.0
O55 O 0.82158 0.25521 0.16845 0.0
O56 O 0.83273 0.25688 0.2203 0.0
O57 O 0.78208 0.34753 0.19279 0.0
O58 O 0.77882 0.29787 0.17374 0.0
C59 C 0.89121 0.34715 0.22307 0.0
O60 O 0.85002 0.3027 0.25729 0.0
O61 O 0.8103 0.3354 0.24553 0.0
C62 C 0.82208 0.24182 0.19584 0.0
O63 O 0.89295 0.31808 0.21524 0.0
O64 O 0.86445 0.36097 0.22644 0.0
C65 C 0.82337 0.36477 0.14457 0.0
Fe66 Fe 0.54864 0.93805 0.10779 0.0
Fe67 Fe 0.56525 0.8998 0.04742 0.0
O68 O 0.57442 0.93138 0.07525 0.0
Fe69 Fe 0.60984 0.95468 0.0722 0.0
O70 O 0.62359 0.94372 0.11269 0.0
O71 O 0.57929 0.95325 0.13698 0.0
O72 O 0.55709 0.89824 0.1235 0.0
C73 C 0.55265 0.8726 0.1076 0.0
C74 C 0.56091 1.00021 0.0916 0.0
O75 O 0.54698 0.87337 0.07735 0.0
C76 C 0.59311 0.94784 0.00731 0.0
O77 O 0.51214 0.92374 0.08557 0.0
O78 O 0.52704 0.91755 0.0357 0.0
O79 O 0.59003 0.99274 0.08637 0.0
O80 O 0.5399 0.97845 0.09402 0.0
C81 C 0.62974 0.89041 0.06108 0.0
O82 O 0.58268 0.91979 0.01257 0.0
O83 O 0.60023 0.96676 0.03053 0.0
C84 C 0.5051 0.9199 0.0557 0.0
O85 O 0.6018 0.87955 0.058 0.0
O86 O 0.63517 0.92046 0.05901 0.0
C87 C 0.60871 0.9471 0.13823 0.0
Fe88 Fe 0.2003 0.85879 0.3098 0.0
Fe89 Fe 0.20779 0.80496 0.35915 0.0
O90 O 0.1864 0.82258 0.3263 0.0
Fe91 Fe 0.1518 0.80354 0.30967 0.0
O92 O 0.12721 0.83819 0.31744 0.0
O93 O 0.15985 0.87347 0.29704 0.0
O94 O 0.19602 0.87979 0.3474 0.0
C95 C 0.21209 0.87246 0.37254 0.0
C96 C 0.1831 0.82794 0.25456 0.0
O97 O 0.22216 0.84388 0.37666 0.0
C98 C 0.18878 0.75104 0.32069 0.0
O99 O 0.24335 0.85034 0.31908 0.0
O100 O 0.24271 0.80025 0.33538 0.0
O101 O 0.15836 0.81674 0.26749 0.0
O102 O 0.20557 0.83998 0.27148 0.0
C103 C 0.14796 0.79437 0.37844 0.0
O104 O 0.19723 0.76286 0.34801 0.0
O105 O 0.17404 0.76791 0.30002 0.0
C106 C 0.25735 0.82355 0.32356 0.0
O107 O 0.17405 0.80859 0.38431 0.0
O108 O 0.13938 0.787 0.34937 0.0
C109 C 0.13176 0.86499 0.30426 0.0
Fe110 Fe 0.10733 0.56215 0.94673 0.0
Fe111 Fe 0.06372 0.58965 0.89186 0.0
O112 O 0.07764 0.58973 0.93286 0.0
Fe113 Fe 0.06223 0.61858 0.95956 0.0
O114 O 0.10115 0.63601 0.96655 0.0
O115 O 0.12729 0.59087 0.97567 0.0
O116 O 0.13485 0.57605 0.91715 0.0
C117 C 0.13016 0.57779 0.88698 0.0
C118 C 0.07316 0.5643 0.00082 0.0
O119 O 0.10197 0.57613 0.87477 0.0
C120 C 1.00722 0.60285 0.92739 0.0
O121 O 0.09184 0.52864 0.92031 0.0
O122 O 0.04923 0.54896 0.89489 0.0
O123 O 0.06728 0.59365 0.99566 0.0
O124 O 0.08278 0.54657 0.97838 0.0
C125 C 0.06921 0.65407 0.90245 0.0
O126 O 0.02249 0.60358 0.90121 0.0
O127 O 0.02232 0.60242 0.95424 0.0
C128 C 0.06561 0.52498 0.90398 0.0
O129 O 0.07806 0.63023 0.88631 0.0
O130 O 0.05498 0.64988 0.9286 0.0
C131 C 0.12449 0.6211 0.9793 0.0
Fe132 Fe 0.80056 0.65218 0.29095 0.0
Fe133 Fe 0.85792 0.6966 0.30012 0.0
O134 O 0.82148 0.6816 0.31404 0.0
Fe135 Fe 0.80677 0.69565 0.35094 0.0
O136 O 0.76959 0.70897 0.33203 0.0
O137 O 0.76091 0.66521 0.30311 0.0
O138 O 0.79634 0.67926 0.25709 0.0
C139 C 0.81993 0.69048 0.24293 0.0
C140 C 0.79455 0.6288 0.35165 0.0
O141 O 0.84727 0.69082 0.25694 0.0
C142 C 0.86986 0.6927 0.36721 0.0
O143 O 0.83701 0.63306 0.27563 0.0
O144 O 0.87557 0.65756 0.30353 0.0
O145 O 0.78946 0.65687 0.36223 0.0
O146 O 0.80337 0.62383 0.32335 0.0
C147 C 0.83228 0.7515 0.32103 0.0
O148 O 0.87571 0.70536 0.3404 0.0
O149 O 0.84238 0.68267 0.37276 0.0
C150 C 0.86459 0.63298 0.28935 0.0
O151 O 0.84164 0.73619 0.29684 0.0
O152 O 0.8223 0.73691 0.34572 0.0
C153 C 0.75069 0.69032 0.31675 0.0
Fe154 Fe 0.89629 0.96153 0.92366 0.0
Fe155 Fe 0.95599 0.94087 0.8883 0.0
O156 O 0.92936 0.93532 0.92028 0.0
Fe157 Fe 0.935 0.90256 0.9471 0.0
O158 O 0.89633 0.88623 0.9359 0.0
O159 O 0.86809 0.93049 0.93793 0.0
O160 O 0.8817 0.95064 0.88367 0.0
C161 C 0.89693 0.95256 0.85822 0.0
C162 C 0.91194 0.95368 0.98791 0.0
O163 O 0.92644 0.95862 0.85955 0.0
C164 C 0.99733 0.91882 0.93992 0.0
O165 O 0.91858 0.99743 0.90911 0.0
O166 O 0.96784 0.97982 0.90401 0.0
O167 O 0.91938 0.92441 0.98274 0.0
O168 O 0.90812 0.97306 0.96463 0.0
C169 C 0.94511 0.87621 0.88511 0.0
O170 O 0.9909 0.92333 0.91012 0.0
O171 O 0.97507 0.91614 0.95958 0.0
C172 C 0.94843 1.0028 0.90654 0.0
O173 O 0.94465 0.90283 0.87092 0.0
O174 O 0.95019 0.87479 0.91564 0.0
C175 C 0.86977 0.90018 0.93502 0.0
Fe176 Fe 0.40421 0.45519 0.43352 0.0
Fe177 Fe 0.46355 0.43723 0.3959 0.0
O178 O 0.43721 0.42932 0.42761 0.0
Fe179 Fe 0.44306 0.39458 0.45161 0.0
O180 O 0.40412 0.37923 0.43951 0.0
O181 O 0.37628 0.42325 0.4458 0.0
O182 O 0.38899 0.44765 0.39258 0.0
C183 C 0.4042 0.45226 0.36737 0.0
C184 C 0.42168 0.44234 0.49695 0.0
O185 O 0.43389 0.45717 0.36908 0.0
C186 C 0.5054 0.41212 0.44548 0.0
O187 O 0.4263 0.49199 0.42121 0.0
O188 O 0.47549 0.47502 0.41432 0.0
O189 O 0.42832 0.41358 0.48892 0.0
O190 O 0.41642 0.4636 0.47555 0.0
C191 C 0.45219 0.37288 0.38792 0.0
O192 O 0.4988 0.41834 0.41602 0.0
O193 O 0.48321 0.40725 0.46478 0.0
C194 C 0.45593 0.49777 0.4177 0.0
O195 O 0.45189 0.40045 0.37562 0.0
O196 O 0.45786 0.36937 0.41812 0.0
C197 C 0.37767 0.39338 0.43998 0.0
Fe198 Fe 0.33332 0.81457 0.65596 0.0
Fe199 Fe 0.32856 0.85621 0.71649 0.0
O200 O 0.34409 0.82227 0.69698 0.0
Fe201 Fe 0.37044 0.79579 0.71798 0.0
O202 O 0.34334 0.76239 0.71072 0.0
O203 O 0.33796 0.77065 0.65863 0.0
O204 O 0.2917 0.80956 0.66506 0.0
C205 C 0.27559 0.83118 0.67843 0.0
C206 C 0.39692 0.80346 0.65681 0.0
O207 O 0.2894 0.85395 0.69426 0.0
C208 C 0.39367 0.85366 0.73985 0.0
O209 O 0.32713 0.85667 0.64497 0.0
O210 O 0.34485 0.88358 0.68755 0.0
O211 O 0.39367 0.78639 0.68186 0.0
O212 O 0.37411 0.81988 0.64531 0.0
C213 C 0.32543 0.81235 0.76506 0.0
O214 O 0.36523 0.86397 0.7421 0.0
O215 O 0.39905 0.82724 0.72627 0.0
C216 C 0.33859 0.88199 0.65766 0.0
O217 O 0.31087 0.83154 0.74648 0.0
O218 O 0.35241 0.80119 0.75787 0.0
C219 C 0.3367 0.75201 0.68263 0.0
Fe220 Fe 0.07938 0.40121 0.5511 0.0
Fe221 Fe 0.12052 0.4596 0.57286 0.0
O222 O 0.08701 0.43411 0.57826 0.0
Fe223 Fe 0.06196 0.44036 0.61141 0.0
O224 O 0.05518 0.39726 0.61827 0.0
O225 O 0.08533 0.37255 0.58356 0.0
O226 O 0.1215 0.39421 0.54234 0.0
C227 C 0.14594 0.4 0.56024 0.0
C228 C 0.01617 0.42067 0.56749 0.0
O229 O 0.14799 0.42572 0.5763 0.0
C230 C 0.07624 0.50473 0.59088 0.0
O231 O 0.07426 0.42823 0.51655 0.0
O232 O 0.11762 0.45686 0.52832 0.0
O233 O 0.02676 0.44364 0.58486 0.0
O234 O 0.03544 0.40072 0.55561 0.0
C235 C 0.1211 0.45096 0.64063 0.0
O236 O 0.0958 0.4957 0.57004 0.0
O237 O 0.06512 0.48472 0.61075 0.0
C238 C 0.09569 0.44786 0.50818 0.0
O239 O 0.12958 0.46652 0.61619 0.0
O240 O 0.0948 0.43655 0.64058 0.0
C241 C 0.07187 0.37336 0.61022 0.0
Fe242 Fe 0.95067 0.08135 0.61123 0.0
Fe243 Fe 0.94989 0.11442 0.54505 0.0
O244 O 0.93417 0.08567 0.57158 0.0
Fe245 Fe 0.90106 0.06218 0.55884 0.0
O246 O 0.87716 0.0791 0.58978 0.0
O247 O 0.91188 0.07128 0.62992 0.0
O248 O 0.94095 0.12233 0.62038 0.0
C249 C 0.95003 0.14652 0.60527 0.0
C250 C 0.93972 0.01822 0.59688 0.0
O251 O 0.96176 0.14337 0.57756 0.0
C252 C 0.9332 0.06085 0.50403 0.0
O253 O 0.99243 0.09213 0.59955 0.0
O254 O 0.98848 0.09555 0.54653 0.0
O255 O 0.91293 0.02685 0.58406 0.0
O256 O 0.9605 0.03919 0.6047 0.0
C257 C 0.88786 0.12338 0.52929 0.0
O258 O 0.93997 0.09048 0.5079 0.0
O259 O 0.92343 0.04446 0.52712 0.0
C260 C 1.00556 0.09447 0.57213 0.0
O261 O 0.91269 0.13545 0.54205 0.0
O262 O 0.88303 0.09319 0.53095 0.0
C263 C 0.88373 0.07852 0.61969 0.0
Fe264 Fe 0.72399 0.70339 0.64093 0.0
Fe265 Fe 0.72227 0.6569 0.6981 0.0
O266 O 0.70497 0.68845 0.67503 0.0
Fe267 Fe 0.66805 0.70452 0.68599 0.0
O268 O 0.6857 0.74296 0.69358 0.0
O269 O 0.71032 0.74588 0.64754 0.0
O270 O 0.75941 0.7139 0.66474 0.0
C271 C 0.776 0.69433 0.68104 0.0
C272 C 0.66321 0.70581 0.61726 0.0
O273 O 0.76418 0.66788 0.69003 0.0
C274 C 0.65627 0.64173 0.69526 0.0
O275 O 0.73945 0.66309 0.62847 0.0
O276 O 0.71964 0.63049 0.66433 0.0
O277 O 0.6544 0.71627 0.64434 0.0
O278 O 0.69032 0.69384 0.61472 0.0
C279 C 0.69981 0.69139 0.74686 0.0
O280 O 0.68356 0.63956 0.70945 0.0
O281 O 0.64895 0.66628 0.67892 0.0
C282 C 0.72936 0.63529 0.63648 0.0
O283 O 0.72484 0.68182 0.73387 0.0
O284 O 0.67455 0.69632 0.72967 0.0
C285 C 0.69802 0.7595 0.67198 0.0
Fe286 Fe 0.69286 0.36277 0.81554 0.0
Fe287 Fe 0.70686 0.30921 0.86413 0.0
O288 O 0.68366 0.32458 0.83127 0.0
Fe289 Fe 0.65176 0.30171 0.81428 0.0
O290 O 0.62327 0.33297 0.8222 0.0
O291 O 0.65104 0.37266 0.80245 0.0
O292 O 0.68565 0.38181 0.85377 0.0
C293 C 0.70379 0.3768 0.87812 0.0
C294 C 0.68088 0.33013 0.75985 0.0
O295 O 0.71688 0.3494 0.88183 0.0
C296 C 0.6936 0.25327 0.8258 0.0
O297 O 0.73659 0.35953 0.82507 0.0
O298 O 0.7421 0.30927 0.84027 0.0
O299 O 0.65747 0.31576 0.77227 0.0
O300 O 0.70068 0.34604 0.77688 0.0
C301 C 0.64818 0.29191 0.88282 0.0
O302 O 0.70109 0.26612 0.85292 0.0
O303 O 0.67798 0.2689 0.80478 0.0
C304 C 0.75403 0.33486 0.82983 0.0
O305 O 0.67284 0.30842 0.88926 0.0
O306 O 0.64083 0.28377 0.85368 0.0
C307 C 0.6245 0.36068 0.81031 0.0
Fe308 Fe 0.6113 0.05495 0.43723 0.0
Fe309 Fe 0.55937 0.0834 0.39178 0.0
O310 O 0.58044 0.08342 0.42973 0.0
Fe311 Fe 0.57091 0.11253 0.45951 0.0
O312 O 0.61096 0.12853 0.4609 0.0
O313 O 0.63663 0.08229 0.46228 0.0
O314 O 0.63355 0.06876 0.40274 0.0
C315 C 0.62291 0.07011 0.37389 0.0
C316 C 0.58636 0.0566 0.49709 0.0
O317 O 0.59305 0.06868 0.36789 0.0
C318 C 0.51056 0.09867 0.43647 0.0
O319 O 0.59095 0.02223 0.4137 0.0
O320 O 0.54473 0.04312 0.39784 0.0
O321 O 0.58087 0.08639 0.49423 0.0
O322 O 0.59216 0.03949 0.47273 0.0
C323 C 0.56909 0.14774 0.40123 0.0
O324 O 0.52124 0.09816 0.40804 0.0
O325 O 0.52973 0.09876 0.46074 0.0
C326 C 0.56209 0.0189 0.4035 0.0
O327 O 0.57331 0.12357 0.3835 0.0
O328 O 0.56027 0.14443 0.43005 0.0
C329 C 0.63575 0.11234 0.46727 0.0
Fe330 Fe 0.30222 0.15705 0.79454 0.0
Fe331 Fe 0.35582 0.20609 0.79257 0.0
O332 O 0.32239 0.19041 0.81179 0.0
Fe333 Fe 0.30985 0.20798 0.84808 0.0
O334 O 0.27044 0.21643 0.83108 0.0
O335 O 0.26302 0.16869 0.80915 0.0
O336 O 0.29257 0.17923 0.758 0.0
C337 C 0.31374 0.19064 0.74053 0.0
C338 C 0.30288 0.14096 0.85812 0.0
O339 O 0.34194 0.19445 0.75175 0.0
C340 C 0.37405 0.20996 0.85797 0.0
O341 O 0.33843 0.13887 0.77767 0.0
O342 O 0.37703 0.16912 0.79858 0.0
O343 O 0.29648 0.16978 0.86563 0.0
O344 O 0.31057 0.13342 0.82996 0.0
C345 C 0.32643 0.26085 0.80854 0.0
O346 O 0.3763 0.22089 0.82976 0.0
O347 O 0.34791 0.19989 0.86769 0.0
C348 C 0.36725 0.1425 0.78762 0.0
O349 O 0.3356 0.24332 0.78594 0.0
O350 O 0.32173 0.24929 0.83644 0.0
C351 C 0.25196 0.19464 0.82034 0.0
C352 C 0.97133 0.27534 0.99024 0.0
C353 C 0.06391 0.27442 0.9556 0.0
C354 C 0.01846 0.34233 0.85658 0.0
Mg355 Mg 1.00613 0.23323 0.94051 0.0
O356 O 0.98959 0.26359 0.91207 0.0
Mg357 Mg 0.99728 0.31021 0.92306 0.0
Mg358 Mg 1.00529 0.26368 0.86725 0.0
O359 O 0.01896 0.26499 0.82282 0.0
Mg360 Mg 1.00487 0.29765 0.79505 0.0
Mg361 Mg 0.01421 0.2193 0.80947 0.0
C362 C 0.99155 0.18619 0.88046 0.0
C363 C 0.07282 0.22598 0.8619 0.0
O364 O 0.97457 0.29935 0.97126 0.0
O365 O 0.98096 0.24701 0.98319 0.0
O366 O 0.04635 0.29924 0.95045 0.0
O367 O 0.05444 0.24621 0.9482 0.0
O368 O 0.99668 0.19102 0.91091 0.0
O369 O 0.99043 0.2097 0.85994 0.0
C370 C 0.93817 0.30225 0.86881 0.0
O371 O 0.95556 0.28168 0.85457 0.0
O372 O 0.94815 0.31695 0.89475 0.0
O373 O 0.04115 0.2356 0.76202 0.0
O374 O 0.04189 0.28983 0.76309 0.0
O375 O 0.96625 0.22833 0.78267 0.0
C376 C 0.05057 0.263 0.75115 0.0
O377 O 0.96462 0.27918 0.76555 0.0
O378 O 0.01116 0.34079 0.82611 0.0
C379 C 0.95558 0.24982 0.76312 0.0
O380 O 0.01994 0.31677 0.87394 0.0
O381 O 0.05713 0.24598 0.87895 0.0
O382 O 0.06063 0.21306 0.83626 0.0
C383 C 0.47906 0.75991 0.49673 0.0
C384 C 0.56835 0.76318 0.45961 0.0
C385 C 0.51496 0.83567 0.36328 0.0
Mg386 Mg 0.5111 0.7234 0.44145 0.0
O387 O 0.49145 0.75516 0.41697 0.0
Mg388 Mg 0.50093 0.80068 0.43097 0.0
Mg389 Mg 0.50292 0.75746 0.37078 0.0
O390 O 0.51289 0.76079 0.3249 0.0
Mg391 Mg 0.49368 0.79399 0.30082 0.0
Mg392 Mg 0.50666 0.71539 0.31006 0.0
C393 C 0.49117 0.67951 0.38084 0.0
C394 C 0.56931 0.71931 0.3579 0.0
O395 O 0.48104 0.78606 0.48039 0.0
O396 O 0.48834 0.73269 0.48604 0.0
O397 O 0.55066 0.78808 0.45577 0.0
O398 O 0.55963 0.73601 0.44817 0.0
O399 O 0.49996 0.68303 0.41066 0.0
O400 O 0.48668 0.70388 0.36177 0.0
C401 C 0.43824 0.79931 0.38051 0.0
O402 O 0.45238 0.77838 0.36318 0.0
O403 O 0.45145 0.8108 0.40664 0.0
O404 O 0.52925 0.73332 0.26118 0.0
O405 O 0.52383 0.78742 0.26162 0.0
O406 O 0.4578 0.72543 0.28652 0.0
C407 C 0.53402 0.76142 0.2491 0.0
O408 O 0.448 0.77781 0.28017 0.0
O409 O 0.50394 0.83488 0.3338 0.0
C410 C 0.44028 0.74833 0.27573 0.0
O411 O 0.51954 0.80975 0.37968 0.0
O412 O 0.55517 0.73821 0.37744 0.0
O413 O 0.5549 0.70791 0.33269 0.0
C414 C 0.97777 0.74995 0.51719 0.0
C415 C 0.07348 0.75552 0.54641 0.0
C416 C 0.03239 0.68351 0.65102 0.0
Mg417 Mg 0.0155 0.79342 0.56575 0.0
O418 O 1.005 0.76126 0.5944 0.0
Mg419 Mg 0.01294 0.71526 0.58237 0.0
Mg420 Mg 0.02156 0.76176 0.63988 0.0
O421 O 0.03623 0.76137 0.68566 0.0
Mg422 Mg 0.01835 0.72974 0.71151 0.0
Mg423 Mg 0.03024 0.80759 0.69823 0.0
C424 C 1.00156 0.83937 0.62566 0.0
C425 C 0.08905 0.80137 0.64898 0.0
O426 O 0.98533 0.72571 0.53486 0.0
O427 O 0.98597 0.77875 0.52475 0.0
O428 O 0.05879 0.72961 0.55402 0.0
O429 O 0.0632 0.78334 0.55365 0.0
O430 O 1.00402 0.83491 0.59512 0.0
O431 O 1.00589 0.81602 0.64617 0.0
C432 C 0.95639 0.71826 0.63524 0.0
O433 O 0.97165 0.74089 0.65041 0.0
O434 O 0.96728 0.70503 0.60979 0.0
O435 O 0.05569 0.79245 0.74853 0.0
O436 O 0.0505 0.73836 0.75094 0.0
O437 O 0.98282 0.79845 0.72243 0.0
C438 C 0.06103 0.7651 0.76237 0.0
O439 O 0.97359 0.74624 0.73037 0.0
O440 O 0.02419 0.68717 0.68053 0.0
C441 C 0.96585 0.77573 0.73347 0.0
O442 O 0.03761 0.70806 0.63285 0.0
O443 O 0.07282 0.78158 0.63081 0.0
O444 O 0.07736 0.81392 0.67425 0.0
C445 C 0.99362 0.03822 0.23978 0.0
C446 C 0.96631 0.94211 0.24802 0.0
C447 C 0.86131 0.98372 0.17242 0.0
Mg448 Mg 0.94681 1.00224 0.28287 0.0
O449 O 0.91768 0.0135 0.25029 0.0
Mg450 Mg 0.92882 1.00292 0.20487 0.0
Mg451 Mg 0.87279 0.99754 0.25005 0.0
O452 O 0.82749 0.98378 0.24859 0.0
Mg453 Mg 0.80059 1.00223 0.21631 0.0
Mg454 Mg 0.81599 0.98908 0.29492 0.0
C455 C 0.88699 0.01544 0.32672 0.0
C456 C 0.86827 0.93233 0.29158 0.0
O457 O 0.9758 0.0301 0.21521 0.0
O458 O 0.9868 0.03101 0.26883 0.0
O459 O 0.95836 0.95612 0.2212 0.0
O460 O 0.95907 0.95376 0.27522 0.0
O461 O 0.91705 0.01199 0.32293 0.0
O462 O 0.86632 0.01477 0.30281 0.0
C463 C 0.87553 0.06083 0.20569 0.0
O464 O 0.86115 0.04585 0.22793 0.0
O465 O 0.90078 0.04956 0.193 0.0
O466 O 0.7674 0.96236 0.27779 0.0
O467 O 0.76497 0.96732 0.22318 0.0
O468 O 0.78878 0.03534 0.28826 0.0
C469 C 0.75422 0.95646 0.24957 0.0
O470 O 0.77453 0.0442 0.23662 0.0
O471 O 0.83227 0.99421 0.1737 0.0
C472 C 0.77311 0.05118 0.26685 0.0
O473 O 0.8788 0.97928 0.19825 0.0
O474 O 0.88484 0.94795 0.27146 0.0
O475 O 0.84233 0.9434 0.30227 0.0
C476 C 0.26199 0.98099 0.95106 0.0
C477 C 0.21398 0.96547 0.03514 0.0
C478 C 0.17533 0.85318 0.97309 0.0
Mg479 Mg 0.27666 0.94069 0.01235 0.0
O480 O 0.25579 0.90935 0.98786 0.0
Mg481 Mg 0.21327 0.91932 0.96675 0.0
Mg482 Mg 0.24769 0.86575 0.00479 0.0
O483 O 0.23958 0.8214 0.01872 0.0
Mg484 Mg 0.22334 0.79404 0.9859 0.0
Mg485 Mg 0.28204 0.81093 0.0397 0.0
C486 C 0.32221 0.88217 0.03102 0.0
C487 C 0.24309 0.86224 0.08226 0.0
O488 O 0.23747 0.96329 0.94449 0.0
O489 O 0.28083 0.97641 0.97563 0.0
O490 O 0.20044 0.95406 0.00922 0.0
O491 O 0.2424 0.95806 0.04411 0.0
O492 O 0.31712 0.9125 0.02909 0.0
O493 O 0.3007 0.86122 0.02218 0.0
C494 C 0.24626 0.86111 0.92663 0.0
O495 O 0.25751 0.84942 0.95321 0.0
O496 O 0.22879 0.88634 0.9259 0.0
O497 O 0.25804 0.761 0.05302 0.0
O498 O 0.21482 0.75668 0.01887 0.0
O499 O 0.30072 0.78525 0.99626 0.0
C500 C 0.23242 0.74644 0.04257 0.0
O501 O 0.26253 0.77325 0.95912 0.0
O502 O 0.18233 0.82353 0.9676 0.0
C503 C 0.29156 0.77177 0.96981 0.0
O504 O 0.19467 0.87201 0.98889 0.0
O505 O 0.23655 0.87963 0.05731 0.0
O506 O 0.25993 0.83671 0.08098 0.0
C507 C 0.01726 0.53069 0.25708 0.0
C508 C 0.05274 0.43903 0.26739 0.0
C509 C 0.15427 0.49807 0.33263 0.0
Mg510 Mg 0.06931 0.49197 0.22277 0.0
O511 O 0.09494 0.51413 0.25266 0.0
Mg512 Mg 0.08402 0.50876 0.29922 0.0
Mg513 Mg 0.14096 0.50277 0.2541 0.0
O514 O 0.18704 0.493 0.25577 0.0
Mg515 Mg 0.21323 0.5148 0.28617 0.0
Mg516 Mg 0.19759 0.4963 0.20898 0.0
C517 C 0.1254 0.50923 0.17602 0.0
C518 C 0.15216 0.43449 0.21683 0.0
O519 O 0.0344 0.52995 0.28358 0.0
O520 O 0.02634 0.51811 0.23064 0.0
O521 O 0.05848 0.45883 0.29074 0.0
O522 O 0.0627 0.44456 0.23926 0.0
O523 O 0.09687 0.49966 0.18078 0.0
O524 O 0.14538 0.5161 0.19957 0.0
C525 C 0.1329 0.57029 0.29348 0.0
O526 O 0.14881 0.55485 0.27248 0.0
O527 O 0.10812 0.55808 0.30611 0.0
O528 O 0.24763 0.47423 0.22592 0.0
O529 O 0.25123 0.48241 0.28012 0.0
O530 O 0.22064 0.54549 0.21343 0.0
C531 C 0.26176 0.47068 0.25392 0.0
O532 O 0.23387 0.55799 0.26466 0.0
O533 O 0.18277 0.50906 0.32882 0.0
C534 C 0.23465 0.56372 0.23429 0.0
O535 O 0.13603 0.48962 0.30825 0.0
O536 O 0.13422 0.44923 0.23668 0.0
O537 O 0.17598 0.44823 0.20455 0.0
C538 C 0.77862 0.52899 0.05543 0.0
C539 C 0.75364 0.54396 0.95622 0.0
C540 C 0.83021 0.65321 0.9746 0.0
Mg541 Mg 0.72691 0.56999 0.01928 0.0
O542 O 0.75835 0.60094 0.01739 0.0
Mg543 Mg 0.80288 0.58842 0.0067 0.0
Mg544 Mg 0.75507 0.64495 0.99821 0.0
O545 O 0.75455 0.68907 0.98174 0.0
Mg546 Mg 0.78913 0.71654 0.98911 0.0
Mg547 Mg 0.71105 0.70404 0.99171 0.0
C548 C 0.68277 0.63295 0.02947 0.0
C549 C 0.70985 0.65121 0.93313 0.0
O550 O 0.79972 0.545 0.0407 0.0
O551 O 0.7487 0.535 0.05216 0.0
O552 O 0.78155 0.55487 0.96464 0.0
O553 O 0.72884 0.54965 0.97232 0.0
O554 O 0.68846 0.60263 0.03154 0.0
O555 O 0.70357 0.65296 0.0181 0.0
C556 C 0.8054 0.64686 0.05955 0.0
O557 O 0.78099 0.65953 0.04514 0.0
O558 O 0.81824 0.62101 0.04923 0.0
O559 O 0.7252 0.7535 0.96432 0.0
O560 O 0.77661 0.74804 0.95134 0.0
O561 O 0.72717 0.73083 0.03805 0.0
C562 C 0.7504 0.76365 0.95014 0.0
O563 O 0.77704 0.74774 0.03002 0.0
O564 O 0.8296 0.68387 0.97912 0.0
C565 C 0.75043 0.75019 0.0443 0.0
O566 O 0.80504 0.6357 0.97741 0.0
O567 O 0.7297 0.633 0.94894 0.0
O568 O 0.69938 0.67744 0.94515 0.0
C569 C 0.28314 0.03599 0.56119 0.0
C570 C 0.26182 0.03507 0.46073 0.0
C571 C 0.33335 0.15448 0.48075 0.0
Mg572 Mg 0.23151 0.06838 0.52022 0.0
O573 O 0.26039 0.09918 0.50917 0.0
Mg574 Mg 0.30621 0.08819 0.50473 0.0
Mg575 Mg 0.25664 0.14322 0.49234 0.0
O576 O 0.25581 0.18825 0.47803 0.0
Mg577 Mg 0.28758 0.21438 0.49748 0.0
Mg578 Mg 0.21045 0.20033 0.48447 0.0
C579 C 0.1835 0.1288 0.52212 0.0
C580 C 0.21606 0.14897 0.42481 0.0
O581 O 0.30296 0.04604 0.54065 0.0
O582 O 0.25416 0.04534 0.56099 0.0
O583 O 0.28764 0.05205 0.46378 0.0
O584 O 0.23828 0.03798 0.47944 0.0
O585 O 0.19074 0.09921 0.52698 0.0
O586 O 0.20341 0.1488 0.50936 0.0
C587 C 0.30247 0.14651 0.55665 0.0
O588 O 0.27795 0.15744 0.54115 0.0
O589 O 0.31785 0.12196 0.54696 0.0
O590 O 0.22598 0.25091 0.46033 0.0
O591 O 0.27999 0.25154 0.46418 0.0
O592 O 0.21864 0.22622 0.53249 0.0
C593 C 0.25341 0.26392 0.45471 0.0
O594 O 0.27013 0.23852 0.54085 0.0
O595 O 0.3301 0.18355 0.4911 0.0
C596 C 0.24086 0.2408 0.54851 0.0
O597 O 0.30902 0.13587 0.47527 0.0
O598 O 0.23557 0.13121 0.4414 0.0
O599 O 0.20422 0.17468 0.43654 0.0
C600 C 0.49234 0.55578 0.72991 0.0
C601 C 0.47337 0.45749 0.74466 0.0
C602 C 0.36108 0.49 0.67416 0.0
Mg603 Mg 0.45303 0.5186 0.77897 0.0
O604 O 0.42043 0.52274 0.74829 0.0
Mg605 Mg 0.42864 0.51375 0.70191 0.0
Mg606 Mg 0.37713 0.50392 0.75203 0.0
O607 O 0.33312 0.48814 0.75428 0.0
Mg608 Mg 0.30375 0.50238 0.72266 0.0
Mg609 Mg 0.32333 0.49619 0.80066 0.0
C610 C 0.39587 0.52904 0.82718 0.0
C611 C 0.37642 0.43979 0.79534 0.0
O612 O 0.47358 0.5446 0.7075 0.0
O613 O 0.48863 0.55 0.75992 0.0
O614 O 0.46192 0.46879 0.71757 0.0
O615 O 0.46878 0.47132 0.77163 0.0
O616 O 0.42562 0.52934 0.82077 0.0
O617 O 0.37395 0.5217 0.80551 0.0
C618 C 0.37213 0.56798 0.70863 0.0
O619 O 0.36138 0.55097 0.73146 0.0
O620 O 0.39657 0.55916 0.69279 0.0
O621 O 0.27379 0.46922 0.787 0.0
O622 O 0.27239 0.46485 0.73246 0.0
O623 O 0.29463 0.54242 0.7924 0.0
C624 C 0.26085 0.45882 0.76001 0.0
O625 O 0.27518 0.5421 0.74144 0.0
O626 O 0.33172 0.49788 0.67816 0.0
C627 C 0.27465 0.55245 0.77066 0.0
O628 O 0.38072 0.48605 0.69858 0.0
O629 O 0.3914 0.45482 0.77341 0.0
O630 O 0.35122 0.45083 0.80787 0.0
C631 C 0.77489 0.48787 0.47671 0.0
C632 C 0.72367 0.4627 0.55516 0.0
C633 C 0.68754 0.35841 0.4772 0.0
Mg634 Mg 0.78631 0.43976 0.53248 0.0
O635 O 0.76786 0.41224 0.50176 0.0
Mg636 Mg 0.72566 0.42496 0.4815 0.0
Mg637 Mg 0.75909 0.36677 0.5125 0.0
O638 O 0.75008 0.32123 0.52071 0.0
Mg639 Mg 0.73465 0.2978 0.48455 0.0
Mg640 Mg 0.79088 0.30745 0.54263 0.0
C641 C 0.83223 0.37911 0.5444 0.0
C642 C 0.75194 0.35539 0.589 0.0
O643 O 0.75097 0.47077 0.46679 0.0
O644 O 0.79251 0.48062 0.50154 0.0
O645 O 0.71185 0.45529 0.52706 0.0
O646 O 0.75074 0.45229 0.5652 0.0
O647 O 0.82542 0.40904 0.54733 0.0
O648 O 0.8124 0.35908 0.5302 0.0
C649 C 0.75897 0.37197 0.43462 0.0
O650 O 0.76961 0.35662 0.45947 0.0
O651 O 0.74198 0.39734 0.43721 0.0
O652 O 0.76339 0.25774 0.55033 0.0
O653 O 0.72275 0.2579 0.51271 0.0
O654 O 0.8108 0.28441 0.49798 0.0
C655 C 0.73804 0.24517 0.53667 0.0
O656 O 0.77418 0.27761 0.45797 0.0
O657 O 0.69504 0.32979 0.46817 0.0
C658 C 0.80246 0.27365 0.47003 0.0
O659 O 0.70599 0.37518 0.49635 0.0
O660 O 0.74688 0.37528 0.56578 0.0
O661 O 0.76815 0.32972 0.5856 0.0
C662 C 0.52569 0.04053 0.7778 0.0
C663 C 0.55645 0.94484 0.7712 0.0
C664 C 0.66484 0.99146 0.83452 0.0
Mg665 Mg 0.56956 1.00414 0.73134 0.0
O666 O 0.60066 0.01809 0.76121 0.0
Mg667 Mg 0.59412 0.00895 0.80822 0.0
Mg668 Mg 0.64622 0.00574 0.75719 0.0
O669 O 0.69144 0.99489 0.75396 0.0
Mg670 Mg 0.72159 0.00662 0.78574 0.0
Mg671 Mg 0.69925 1.0047 0.70759 0.0
C672 C 0.62431 0.0211 0.68163 0.0
C673 C 0.65485 0.94115 0.712 0.0
O674 O 0.54554 0.03399 0.8012 0.0
O675 O 0.53033 0.03225 0.74844 0.0
O676 O 0.5664 0.96056 0.79639 0.0
O677 O 0.55962 0.95554 0.74271 0.0
O678 O 0.59528 0.01412 0.68786 0.0
O679 O 0.64637 0.0243 0.70417 0.0
C680 C 0.64373 0.07008 0.80324 0.0
O681 O 0.6569 0.05604 0.77945 0.0
O682 O 0.62039 0.05706 0.81764 0.0
O683 O 0.75033 0.98199 0.71667 0.0
O684 O 0.75492 0.9721 0.77031 0.0
O685 O 0.72334 0.05338 0.71931 0.0
C686 C 0.76503 0.96963 0.7415 0.0
O687 O 0.74565 0.04958 0.76912 0.0
O688 O 0.69417 0.99952 0.83037 0.0
C689 C 0.74434 0.06218 0.74088 0.0
O690 O 0.64509 0.98724 0.81025 0.0
O691 O 0.63832 0.95397 0.73447 0.0
O692 O 0.67726 0.95653 0.69873 0.0
C693 C 0.47189 0.26091 0.01494 0.0
C694 C 0.56651 0.25657 0.0473 0.0
C695 C 0.5247 0.18453 0.14501 0.0
Mg696 Mg 0.51177 0.29874 0.06664 0.0
O697 O 0.49609 0.26701 0.09314 0.0
Mg698 Mg 0.50147 0.22086 0.07952 0.0
Mg699 Mg 0.51275 0.2645 0.13853 0.0
O700 O 0.52777 0.26059 0.18384 0.0
Mg701 Mg 0.50991 0.22701 0.20782 0.0
Mg702 Mg 0.52333 0.30623 0.19883 0.0
C703 C 0.4993 0.34324 0.12807 0.0
C704 C 0.58061 0.30199 0.14856 0.0
O705 O 0.47602 0.23543 0.03196 0.0
O706 O 0.48262 0.28849 0.02398 0.0
O707 O 0.54875 0.23212 0.05261 0.0
O708 O 0.559 0.28483 0.05614 0.0
O709 O 0.50364 0.33976 0.09769 0.0
O710 O 0.49898 0.31876 0.14755 0.0
C711 C 0.44491 0.22615 0.13267 0.0
O712 O 0.46274 0.24623 0.14848 0.0
O713 O 0.45398 0.21284 0.10642 0.0
O714 O 0.54901 0.28759 0.24775 0.0
O715 O 0.54257 0.23353 0.24747 0.0
O716 O 0.47631 0.2965 0.22283 0.0
C717 C 0.55382 0.25947 0.26013 0.0
O718 O 0.46588 0.24416 0.22877 0.0
O719 O 0.51721 0.185 0.17499 0.0
C720 C 0.459 0.27379 0.23326 0.0
O721 O 0.52668 0.21092 0.12894 0.0
O722 O 0.56399 0.28309 0.12986 0.0
O723 O 0.56971 0.31332 0.17472 0.0
H724 H 0.05083 0.31123 0.61355 0.0
H725 H 0.11154 0.38141 0.6616 0.0
H726 H 0.11996 0.34606 0.70765 0.0
H727 H 0.10007 0.30128 0.73879 0.0
H728 H 0.03519 0.23346 0.69414 0.0
H729 H 0.03946 0.26 0.64194 0.0
C730 C 0.06637 0.31827 0.63389 0.0
C731 C 0.07999 0.3491 0.63478 0.0
C732 C 0.0704 0.29793 0.66087 0.0
C733 C 0.10035 0.35808 0.66089 0.0
C734 C 0.10529 0.33776 0.68716 0.0
C735 C 0.08821 0.29139 0.7172 0.0
C736 C 0.06673 0.26578 0.72024 0.0
C737 C 0.08913 0.30838 0.6881 0.0
C738 C 0.05168 0.25302 0.69225 0.0
C739 C 0.05362 0.26881 0.66257 0.0
H740 H 0.63252 0.7611 0.5989 0.0
H741 H 0.65635 0.6658 0.56646 0.0
H742 H 0.6352 0.67796 0.51226 0.0
H743 H 0.60876 0.71454 0.47467 0.0
H744 H 0.58141 0.80912 0.50647 0.0
H745 H 0.60695 0.79916 0.5596 0.0
C746 C 0.63236 0.7429 0.58006 0.0
C747 C 0.64523 0.71234 0.58675 0.0
C748 C 0.62064 0.75029 0.54857 0.0
C749 C 0.64599 0.68926 0.56193 0.0
C750 C 0.63431 0.69633 0.53086 0.0
C751 C 0.60882 0.73333 0.49295 0.0
C752 C 0.59277 0.7624 0.48652 0.0
C753 C 0.6217 0.72674 0.5239 0.0
C754 C 0.59362 0.78652 0.51052 0.0
C755 C 0.60768 0.78059 0.5412 0.0
H756 H 0.90991 0.19293 0.62679 0.0
H757 H 1.00659 0.15781 0.63315 0.0
H758 H 0.01511 0.18449 0.68479 0.0
H759 H 0.99461 0.2152 0.72925 0.0
H760 H 0.90064 0.25646 0.72332 0.0
H761 H 0.89157 0.2315 0.66934 0.0
C762 C 0.93345 0.19316 0.63855 0.0
C763 C 0.95797 0.17413 0.62595 0.0
C764 C 0.93862 0.20992 0.668 0.0
C765 C 0.98794 0.17331 0.64185 0.0
C766 C 0.99271 0.18843 0.67157 0.0
C767 C 0.97242 0.21951 0.71588 0.0
C768 C 0.94836 0.2375 0.73013 0.0
C769 C 0.96816 0.20634 0.685 0.0
C770 C 0.91946 0.24254 0.71279 0.0
C771 C 0.91443 0.22839 0.68198 0.0
H772 H 0.4155 0.74724 0.6315 0.0
H773 H 0.43462 0.84894 0.63248 0.0
H774 H 0.46443 0.84389 0.58303 0.0
H775 H 0.47731 0.81214 0.53555 0.0
H776 H 0.45528 0.71081 0.53236 0.0
H777 H 0.43389 0.71406 0.58646 0.0
C778 C 0.42731 0.76794 0.62144 0.0
C779 C 0.4233 0.79832 0.63536 0.0
C780 C 0.4428 0.76509 0.59209 0.0
C781 C 0.43795 0.82529 0.62207 0.0
C782 C 0.45449 0.82248 0.59362 0.0
C783 C 0.46785 0.79076 0.54669 0.0
C784 C 0.46713 0.76149 0.52974 0.0
C785 C 0.45566 0.7928 0.57765 0.0
C786 C 0.45565 0.73376 0.54481 0.0
C787 C 0.44355 0.73555 0.57576 0.0
H788 H 0.1142 0.67686 0.86328 0.0
H789 H 0.02633 0.70303 0.90749 0.0
H790 H 0.02154 0.75001 0.87242 0.0
H791 H 0.03491 0.77408 0.82004 0.0
H792 H 0.12165 0.74631 0.775 0.0
H793 H 0.135 0.7105 0.82001 0.0
C794 C 0.09437 0.69331 0.86566 0.0
C795 C 0.07015 0.68606 0.88716 0.0
C796 C 0.09151 0.71998 0.8451 0.0
C797 C 0.04501 0.70788 0.89073 0.0
C798 C 0.04215 0.73465 0.87051 0.0
C799 C 0.05772 0.76176 0.8212 0.0
C800 C 0.07725 0.76264 0.79427 0.0
C801 C 0.06426 0.73982 0.84635 0.0
C802 C 0.10646 0.7462 0.79566 0.0
C803 C 0.11368 0.72511 0.82104 0.0
H804 H 0.90808 0.7435 0.38003 0.0
H805 H 0.88044 0.65091 0.41628 0.0
H806 H 0.91252 0.66029 0.466 0.0
H807 H 0.94541 0.69605 0.50004 0.0
H808 H 0.97036 0.79027 0.46548 0.0
H809 H 0.94179 0.77922 0.4141 0.0
C810 C 0.90968 0.72519 0.39861 0.0
C811 C 0.89241 0.69647 0.39469 0.0
C812 C 0.92706 0.73129 0.42748 0.0
C813 C 0.89384 0.67311 0.41901 0.0
C814 C 0.91196 0.67854 0.44738 0.0
C815 C 0.94472 0.71417 0.48126 0.0
C816 C 0.95986 0.74395 0.48654 0.0
C817 C 0.92813 0.70778 0.45207 0.0
C818 C 0.95859 0.76725 0.46206 0.0
C819 C 0.94247 0.76089 0.43264 0.0
H820 H 0.91262 0.87174 0.82828 0.0
H821 H 0.9708 0.81564 0.89479 0.0
H822 H 0.97386 0.77284 0.85386 0.0
H823 H 0.97049 0.75813 0.79583 0.0
H824 H 0.91638 0.81769 0.72903 0.0
H825 H 0.9003 0.852 0.77368 0.0
C826 C 0.92552 0.84989 0.83414 0.0
C827 C 0.94215 0.84721 0.86423 0.0
C828 C 0.92796 0.8261 0.81031 0.0
C829 C 0.95818 0.81849 0.87168 0.0
C830 C 0.96011 0.79416 0.8482 0.0
C831 C 0.95375 0.7776 0.79135 0.0
C832 C 0.9444 0.78534 0.75922 0.0
C833 C 0.94647 0.79848 0.81692 0.0
C834 C 0.92348 0.81111 0.75356 0.0
C835 C 0.91482 0.83104 0.77903 0.0
H836 H 0.1657 0.80094 0.44185 0.0
H837 H 0.09252 0.75842 0.37905 0.0
H838 H 0.06625 0.73693 0.42643 0.0
H839 H 0.0621 0.73397 0.48591 0.0
H840 H 0.13373 0.77976 0.54767 0.0
H841 H 0.16352 0.79512 0.50028 0.0
C842 C 0.14401 0.78694 0.43826 0.0
C843 C 0.13092 0.7817 0.40672 0.0
C844 C 0.12924 0.77462 0.46548 0.0
C845 C 0.10294 0.76321 0.40293 0.0
C846 C 0.08806 0.75071 0.43003 0.0
C847 C 0.08495 0.74613 0.48893 0.0
C848 C 0.09634 0.7549 0.52023 0.0
C849 C 0.10087 0.7565 0.46144 0.0
C850 C 0.12512 0.77196 0.5239 0.0
C851 C 0.14177 0.78122 0.49677 0.0
H852 H 0.68292 0.0964 0.37326 0.0
H853 H 0.61435 0.04424 0.31313 0.0
H854 H 0.65319 0.03992 0.27053 0.0
H855 H 0.70925 0.04434 0.25343 0.0
H856 H 0.77726 0.09721 0.31341 0.0
H857 H 0.73604 0.10878 0.35206 0.0
C858 C 0.67637 0.08429 0.35071 0.0
C859 C 0.64581 0.07011 0.34681 0.0
C860 C 0.69877 0.08228 0.32595 0.0
C861 C 0.63766 0.05513 0.31707 0.0
C862 C 0.65995 0.05262 0.29261 0.0
C863 C 0.71465 0.05983 0.27406 0.0
C864 C 0.74643 0.07027 0.28009 0.0
C865 C 0.69088 0.06543 0.297 0.0
C866 C 0.75301 0.08941 0.3077 0.0
C867 C 0.72952 0.09546 0.33024 0.0
H868 H 0.28145 0.08225 0.84212 0.0
H869 H 0.30963 0.14139 0.92417 0.0
H870 H 0.30028 0.09617 0.96065 0.0
H871 H 0.28445 0.03964 0.96852 0.0
H872 H 0.25307 0.98254 0.88602 0.0
H873 H 0.26353 0.02738 0.84999 0.0
C874 C 0.28571 0.08521 0.868 0.0
C875 C 0.29657 0.11477 0.8806 0.0
C876 C 0.27979 0.05957 0.88851 0.0
C877 C 0.3013 0.11867 0.91412 0.0
C878 C 0.29607 0.09289 0.93484 0.0
C879 C 0.28014 0.03711 0.94261 0.0
C880 C 0.26839 0.00797 0.92968 0.0
C881 C 0.28545 0.06319 0.92222 0.0
C882 C 0.26216 1.00488 0.89629 0.0
C883 C 0.26815 0.03041 0.87577 0.0
H884 H 0.36068 0.41067 0.34256 0.0
H885 H 0.40851 0.49976 0.32277 0.0
H886 H 0.37194 0.50904 0.27618 0.0
H887 H 0.31965 0.49715 0.24956 0.0
H888 H 0.27118 0.40896 0.27096 0.0
H889 H 0.31555 0.39285 0.30717 0.0
C890 C 0.36338 0.43174 0.32753 0.0
C891 C 0.38644 0.45498 0.33627 0.0
C892 C 0.3424 0.43677 0.30088 0.0
C893 C 0.39052 0.48185 0.31649 0.0
C894 C 0.36964 0.48712 0.28993 0.0
C895 C 0.31982 0.47358 0.26067 0.0
C896 C 0.2924 0.45418 0.25772 0.0
C897 C 0.34461 0.46544 0.28284 0.0
C898 C 0.29234 0.42397 0.27261 0.0
C899 C 0.31736 0.41515 0.29391 0.0
H900 H 0.6931 0.43993 0.86467 0.0
H901 H 0.7451 0.37784 0.93115 0.0
H902 H 0.76997 0.42482 0.9575 0.0
H903 H 0.77469 0.48372 0.9634 0.0
H904 H 0.72072 0.54529 0.89856 0.0
H905 H 0.69985 0.49826 0.86879 0.0
C906 C 0.70973 0.43652 0.88505 0.0
C907 C 0.71682 0.40522 0.89616 0.0
C908 C 0.72427 0.46357 0.89974 0.0
C909 C 0.73882 0.40154 0.92233 0.0
C910 C 0.7533 0.4284 0.93721 0.0
C911 C 0.75938 0.48673 0.94192 0.0
C912 C 0.75003 0.51783 0.93237 0.0
C913 C 0.74619 0.45953 0.92613 0.0
C914 C 0.72899 0.52158 0.90555 0.0
C915 C 0.71663 0.49469 0.88899 0.0
H916 H 0.65262 0.90369 0.15829 0.0
H917 H 0.60556 0.99034 0.18777 0.0
H918 H 0.64337 0.99583 0.23405 0.0
H919 H 0.69639 0.98212 0.25824 0.0
H920 H 0.74369 0.89621 0.22744 0.0
H921 H 0.69849 0.8832 0.19082 0.0
C922 C 0.6503 0.92336 0.17535 0.0
C923 C 0.62698 0.94702 0.16939 0.0
C924 C 0.67204 0.92626 0.20186 0.0
C925 C 0.62361 0.97206 0.19181 0.0
C926 C 0.64527 0.97521 0.21821 0.0
C927 C 0.69584 0.95956 0.24498 0.0
C928 C 0.72326 0.94008 0.24553 0.0
C929 C 0.67045 0.95324 0.22262 0.0
C930 C 0.72264 0.91127 0.22775 0.0
C931 C 0.69711 0.90426 0.20619 0.0
H932 H 0.16843 0.08562 0.1119 0.0
H933 H 0.24971 0.1273 0.0663 0.0
H934 H 0.25514 0.07839 0.03361 0.0
H935 H 0.2415 0.02149 0.02437 0.0
H936 H 0.16273 0.97865 0.07279 0.0
H937 H 0.15139 0.03065 0.09849 0.0
C938 C 0.18715 0.0842 0.0945 0.0
C939 C 0.2091 0.10977 0.09189 0.0
C940 C 0.19071 0.05576 0.07686 0.0
C941 C 0.23268 0.10794 0.06879 0.0
C942 C 0.23591 0.07989 0.05039 0.0
C943 C 0.22155 0.02379 0.04026 0.0
C944 C 0.20306 0.99656 0.04721 0.0
C945 C 0.21583 0.05332 0.05522 0.0
C946 C 0.17715 0.99943 0.06737 0.0
C947 C 0.17086 0.02904 0.08202 0.0
H948 H 0.32705 0.60399 0.12933 0.0
H949 H 0.39266 0.55236 0.1927 0.0
H950 H 0.35306 0.55156 0.23464 0.0
H951 H 0.29728 0.55861 0.2502 0.0
H952 H 0.23098 0.60771 0.1858 0.0
H953 H 0.27357 0.61774 0.14818 0.0
C954 C 0.33279 0.5927 0.15238 0.0
C955 C 0.36265 0.57758 0.15745 0.0
C956 C 0.30984 0.59238 0.17653 0.0
C957 C 0.36981 0.56378 0.18783 0.0
C958 C 0.34716 0.5634 0.21194 0.0
C959 C 0.29254 0.57299 0.22876 0.0
C960 C 0.261 0.58286 0.22111 0.0
C961 C 0.3168 0.57692 0.20629 0.0
C962 C 0.25511 0.60048 0.19261 0.0
C963 C 0.27936 0.60556 0.17073 0.0
H964 H 0.84559 0.42662 0.14685 0.0
H965 H 0.77981 0.36403 0.09401 0.0
H966 H 0.75876 0.40955 0.06339 0.0
H967 H 0.75762 0.46762 0.0525 0.0
H968 H 0.82563 0.5298 0.10216 0.0
H969 H 0.84681 0.48424 0.13346 0.0
C970 C 0.8269 0.42288 0.1284 0.0
C971 C 0.81429 0.39188 0.12295 0.0
C972 C 0.81484 0.44924 0.11067 0.0
C973 C 0.79014 0.38753 0.09876 0.0
C974 C 0.77783 0.41362 0.08134 0.0
C975 C 0.77681 0.47111 0.07048 0.0
C976 C 0.78966 0.50192 0.07567 0.0
C977 C 0.78963 0.44465 0.08742 0.0
C978 C 0.81517 0.50622 0.09821 0.0
C979 C 0.82737 0.48019 0.11593 0.0
H980 H 0.39727 0.68523 0.01345 0.0
H981 H 0.31819 0.6198 0.02231 0.0
H982 H 0.28491 0.65446 0.98707 0.0
H983 H 0.2753 0.70914 0.96568 0.0
H984 H 0.35471 0.77408 0.95749 0.0
H985 H 0.39096 0.73342 0.97983 0.0
C986 C 0.37262 0.6786 0.00795 0.0
C987 C 0.35971 0.65078 0.02184 0.0
C988 C 0.35367 0.69857 0.98789 0.0
C989 C 0.32833 0.64168 0.01295 0.0
C990 C 0.30932 0.66144 0.9928 0.0
C991 C 0.30082 0.7137 0.96685 0.0
C992 C 0.31222 0.74488 0.96055 0.0
C993 C 0.32127 0.69074 0.98151 0.0
C994 C 0.34535 0.75034 0.96224 0.0
C995 C 0.36595 0.72737 0.97592 0.0
H996 H 0.31879 0.39297 0.46844 0.0
H997 H 0.37169 0.35055 0.39162 0.0
H998 H 0.32959 0.31108 0.38153 0.0
H999 H 0.28447 0.28163 0.40229 0.0
H1000 H 0.23358 0.31962 0.48226 0.0
H1001 H 0.26653 0.36838 0.48218 0.0
C1002 C 0.32059 0.37555 0.44903 0.0
C1003 C 0.34867 0.3742 0.4313 0.0
C1004 C 0.29642 0.35204 0.44384 0.0
C1005 C 0.35066 0.3516 0.4061 0.0
C1006 C 0.32651 0.32906 0.40019 0.0
C1007 C 0.27939 0.30143 0.41847 0.0
C1008 C 0.25671 0.29693 0.44227 0.0
C1009 C 0.30007 0.32807 0.4199 0.0
C1010 C 0.25064 0.32257 0.46342 0.0
C1011 C 0.27016 0.3501 0.46399 0.0
H1012 H 0.60839 0.39327 0.75459 0.0
H1013 H 0.57103 0.3615 0.84486 0.0
H1014 H 0.5187 0.38336 0.82942 0.0
H1015 H 0.48446 0.4143 0.79208 0.0
H1016 H 0.52067 0.44687 0.7017 0.0
H1017 H 0.57188 0.42056 0.71449 0.0
C1018 C 0.58882 0.39152 0.77095 0.0
C1019 C 0.59379 0.37651 0.80124 0.0
C1020 C 0.55836 0.40348 0.76149 0.0
C1021 C 0.56796 0.37342 0.82173 0.0
C1022 C 0.53796 0.38565 0.81278 0.0
C1023 C 0.50324 0.41483 0.77469 0.0
C1024 C 0.49863 0.43248 0.74591 0.0
C1025 C 0.53292 0.40085 0.78285 0.0
C1026 C 0.52327 0.43301 0.72373 0.0
C1027 C 0.55284 0.41854 0.73141 0.0
H1028 H 0.63202 0.15021 0.51999 0.0
H1029 H 0.69891 0.10877 0.45517 0.0
H1030 H 0.74181 0.14092 0.48022 0.0
H1031 H 0.75736 0.18903 0.51274 0.0
H1032 H 0.68968 0.23147 0.57579 0.0
H1033 H 0.65071 0.18971 0.56107 0.0
C1034 C 0.65622 0.14804 0.51176 0.0
C1035 C 0.66238 0.12813 0.48517 0.0
C1036 C 0.68079 0.1665 0.52649 0.0
C1037 C 0.69372 0.1245 0.47525 0.0
C1038 C 0.71828 0.14288 0.48969 0.0
C1039 C 0.73481 0.18785 0.52471 0.0
C1040 C 0.72631 0.21323 0.54522 0.0
C1041 C 0.71186 0.16497 0.51441 0.0
C1042 C 0.69686 0.21193 0.56027 0.0
C1043 C 0.67426 0.18855 0.55114 0.0
H1044 H 0.88965 0.60868 0.23516 0.0
H1045 H 0.88915 0.59877 0.33872 0.0
H1046 H 0.93603 0.56405 0.33786 0.0
H1047 H 0.98076 0.54239 0.30849 0.0
H1048 H 0.9828 0.55359 0.20492 0.0
H1049 H 0.93187 0.58195 0.20483 0.0
C1050 C 0.89928 0.59787 0.25724 0.0
C1051 C 0.88611 0.60567 0.28689 0.0
C1052 C 0.92694 0.57895 0.25666 0.0
C1053 C 0.89897 0.5925 0.31564 0.0
C1054 C 0.9259 0.57303 0.31519 0.0
C1055 C 0.97002 0.55096 0.2859 0.0
C1056 C 0.98577 0.54643 0.25689 0.0
C1057 C 0.94078 0.56714 0.286 0.0
C1058 C 0.97124 0.55704 0.22767 0.0
C1059 C 0.94209 0.57321 0.22756 0.0
H1060 H 0.14319 0.3421 0.58911 0.0
H1061 H 0.20641 0.40371 0.53777 0.0
H1062 H 0.2465 0.36073 0.53705 0.0
H1063 H 0.2592 0.30293 0.54298 0.0
H1064 H 0.19489 0.24139 0.59321 0.0
H1065 H 0.1602 0.28715 0.60353 0.0
C1066 C 0.16591 0.34616 0.57806 0.0
C1067 C 0.17169 0.37571 0.5629 0.0
C1068 C 0.18873 0.32135 0.57777 0.0
C1069 C 0.20138 0.381 0.54923 0.0
C1070 C 0.22423 0.35641 0.54881 0.0
C1071 C 0.23849 0.29985 0.55767 0.0
C1072 C 0.22982 0.26869 0.56754 0.0
C1073 C 0.21777 0.32611 0.56209 0.0
C1074 C 0.20235 0.26509 0.58575 0.0
C1075 C 0.18215 0.29118 0.59107 0.0
H1076 H 0.59877 0.63603 0.66474 0.0
H1077 H 0.65511 0.59949 0.74583 0.0
H1078 H 0.60858 0.5704 0.76468 0.0
H1079 H 0.55115 0.55756 0.75924 0.0
H1080 H 0.49571 0.5943 0.67767 0.0
H1081 H 0.54263 0.62193 0.65826 0.0
C1082 C 0.60098 0.62151 0.68643 0.0
C1083 C 0.6302 0.62007 0.70399 0.0
C1084 C 0.57418 0.60548 0.69736 0.0
C1085 C 0.63284 0.60086 0.73181 0.0
C1086 C 0.60619 0.58452 0.74278 0.0
C1087 C 0.54938 0.57195 0.73746 0.0
C1088 C 0.52011 0.57432 0.72006 0.0
C1089 C 0.5766 0.58719 0.72606 0.0
C1090 C 0.51808 0.59235 0.69147 0.0
C1091 C 0.54486 0.60799 0.6803 0.0
H1092 H 0.45651 0.83902 0.73525 0.0
H1093 H 0.39385 0.90955 0.77584 0.0
H1094 H 0.44028 0.94085 0.7953 0.0
H1095 H 0.49837 0.95106 0.79531 0.0
H1096 H 0.55986 0.88313 0.74968 0.0
H1097 H 0.51431 0.84726 0.73858 0.0
C1098 C 0.45283 0.86105 0.74868 0.0
C1099 C 0.42153 0.87197 0.75383 0.0
C1100 C 0.47958 0.87915 0.75924 0.0
C1101 C 0.41753 0.90063 0.77129 0.0
C1102 C 0.44412 0.9185 0.7825 0.0
C1103 C 0.50189 0.92775 0.78416 0.0
C1104 C 0.53251 0.91917 0.77417 0.0
C1105 C 0.47523 0.9083 0.77607 0.0
C1106 C 0.53668 0.88969 0.75838 0.0
C1107 C 0.51054 0.8695 0.7516 0.0
H1108 H 0.59271 0.8516 0.15519 0.0
H1109 H 0.50828 0.82516 0.09875 0.0
H1110 H 0.49989 0.77913 0.13408 0.0
H1111 H 0.50998 0.75491 0.18823 0.0
H1112 H 0.59447 0.78177 0.24408 0.0
H1113 H 0.61024 0.8182 0.2014 0.0
C1114 C 0.57276 0.83537 0.15046 0.0
C1115 C 0.55054 0.8421 0.12523 0.0
C1116 C 0.56819 0.809 0.1708 0.0
C1117 C 0.52532 0.82061 0.1185 0.0
C1118 C 0.52048 0.79438 0.13878 0.0
C1119 C 0.53276 0.7673 0.19004 0.0
C1120 C 0.55105 0.76582 0.21912 0.0
C1121 C 0.54088 0.7893 0.16594 0.0
C1122 C 0.58028 0.78232 0.22166 0.0
C1123 C 0.5889 0.80373 0.19759 0.0
H1124 H 0.16592 0.21971 0.05009 0.0
H1125 H 0.09657 0.25115 0.11812 0.0
H1126 H 0.0676 0.28007 0.07507 0.0
H1127 H 0.05885 0.29128 0.01724 0.0
H1128 H 0.12532 0.25549 0.94889 0.0
H1129 H 0.15963 0.23492 0.99311 0.0
C1130 C 0.14447 0.23286 0.0556 0.0
C1131 C 0.13313 0.23273 0.08725 0.0
C1132 C 0.12795 0.24942 0.03076 0.0
C1133 C 0.10557 0.25039 0.09392 0.0
C1134 C 0.08914 0.26718 0.06936 0.0
C1135 C 0.08167 0.28038 0.01224 0.0
C1136 C 0.09007 0.27556 0.98001 0.0
C1137 C 0.09986 0.26647 0.03762 0.0
C1138 C 0.11894 0.26023 0.97357 0.0
C1139 C 0.13811 0.24783 0.99883 0.0
H1140 H 0.40535 0.64958 0.1746 0.0
H1141 H 0.46315 0.71277 0.1184 0.0
H1142 H 0.45651 0.75561 0.15864 0.0
H1143 H 0.44583 0.76952 0.21514 0.0
H1144 H 0.39252 0.70386 0.27273 0.0
H1145 H 0.38493 0.668 0.22616 0.0
C1146 C 0.41648 0.67279 0.17097 0.0
C1147 C 0.43581 0.67759 0.14416 0.0
C1148 C 0.41335 0.69685 0.19449 0.0
C1149 C 0.44886 0.70817 0.13919 0.0
C1150 C 0.44516 0.7326 0.16222 0.0
C1151 C 0.43092 0.7483 0.21695 0.0
C1152 C 0.41988 0.73922 0.24741 0.0
C1153 C 0.4289 0.72662 0.19074 0.0
C1154 C 0.40103 0.71144 0.24953 0.0
C1155 C 0.39742 0.69055 0.22308 0.0
H1156 H 0.90633 0.32551 0.11466 0.0
H1157 H 0.90929 0.22515 0.13934 0.0
H1158 H 0.94027 0.21382 0.09117 0.0
H1159 H 0.95998 0.23217 0.03847 0.0
H1160 H 0.95254 0.33289 0.01392 0.0
H1161 H 0.92934 0.34427 0.06544 0.0
C1162 C 0.91445 0.30125 0.10981 0.0
C1163 C 0.90567 0.27615 0.13004 0.0
C1164 C 0.93064 0.29492 0.0817 0.0
C1165 C 0.91622 0.24482 0.12401 0.0
C1166 C 0.93342 0.23835 0.09628 0.0
C1167 C 0.95333 0.25659 0.04444 0.0
C1168 C 0.95751 0.28149 0.022 0.0
C1169 C 0.93963 0.2631 0.07427 0.0
C1170 C 0.94918 0.3131 0.03036 0.0
C1171 C 0.93607 0.31976 0.05996 0.0
H1172 H 0.61139 0.1696 0.35895 0.0
H1173 H 0.52709 0.19706 0.40876 0.0
H1174 H 0.52001 0.24341 0.37306 0.0
H1175 H 0.53029 0.2669 0.31941 0.0
H1176 H 0.61397 0.23817 0.26945 0.0
H1177 H 0.62951 0.20241 0.31385 0.0
C1178 C 0.59193 0.18628 0.36244 0.0
C1179 C 0.56931 0.17963 0.38578 0.0
C1180 C 0.58785 0.2126 0.3416 0.0
C1181 C 0.54458 0.20158 0.39066 0.0
C1182 C 0.5404 0.22796 0.37006 0.0
C1183 C 0.55293 0.25431 0.31928 0.0
C1184 C 0.57104 0.25511 0.29131 0.0
C1185 C 0.56086 0.23262 0.34431 0.0
C1186 C 0.59995 0.2382 0.29096 0.0
C1187 C 0.60844 0.21721 0.31605 0.0
H1188 H 0.39727 0.26627 0.8802 0.0
H1189 H 0.40546 0.16366 0.89062 0.0
H1190 H 0.43868 0.17073 0.93997 0.0
H1191 H 0.45984 0.2057 0.9826 0.0
H1192 H 0.44916 0.30859 0.97481 0.0
H1193 H 0.42208 0.30193 0.9218 0.0
C1194 C 0.40724 0.24566 0.89293 0.0
C1195 C 0.39963 0.21457 0.88211 0.0
C1196 C 0.42499 0.24996 0.92193 0.0
C1197 C 0.41166 0.18775 0.89874 0.0
C1198 C 0.43025 0.1918 0.92697 0.0
C1199 C 0.45158 0.22675 0.96943 0.0
C1200 C 0.45592 0.25754 0.98285 0.0
C1201 C 0.43607 0.22274 0.93931 0.0
C1202 C 0.44572 0.28457 0.9651 0.0
C1203 C 0.43037 0.2808 0.9348 0.0
H1204 H 0.41731 0.37172 0.33193 0.0
H1205 H 0.47574 0.31132 0.39423 0.0
H1206 H 0.474 0.26896 0.35267 0.0
H1207 H 0.46582 0.25467 0.295 0.0
H1208 H 0.4108 0.31735 0.23213 0.0
H1209 H 0.40024 0.35271 0.27783 0.0
C1210 C 0.42947 0.34913 0.33658 0.0
C1211 C 0.44752 0.34503 0.3657 0.0
C1212 C 0.42884 0.32525 0.31248 0.0
C1213 C 0.4622 0.3153 0.37181 0.0
C1214 C 0.46129 0.29114 0.34803 0.0
C1215 C 0.44998 0.27507 0.29171 0.0
C1216 C 0.43893 0.28332 0.26023 0.0
C1217 C 0.44591 0.29644 0.31774 0.0
C1218 C 0.41916 0.31029 0.25615 0.0
C1219 C 0.41376 0.33089 0.28218 0.0
H1220 H 0.66467 0.2974 0.94662 0.0
H1221 H 0.59301 0.25571 0.88148 0.0
H1222 H 0.56458 0.23502 0.92782 0.0
H1223 H 0.55751 0.23363 0.98688 0.0
H1224 H 0.62739 0.27913 0.05093 0.0
H1225 H 0.65991 0.29243 0.00491 0.0
C1226 C 0.64287 0.2837 0.94234 0.0
C1227 C 0.63076 0.27857 0.91046 0.0
C1228 C 0.62671 0.27205 0.96899 0.0
C1229 C 0.6027 0.26037 0.90567 0.0
C1230 C 0.58653 0.2484 0.93218 0.0
C1231 C 0.58053 0.24527 0.99077 0.0
C1232 C 0.59054 0.25473 0.02228 0.0
C1233 C 0.59808 0.25452 0.96396 0.0
C1234 C 0.61969 0.27096 0.02701 0.0
C1235 C 0.63795 0.27902 0.00064 0.0
H1236 H 0.1354 0.56745 0.82076 0.0
H1237 H 0.19007 0.59497 0.90701 0.0
H1238 H 0.23862 0.59584 0.87689 0.0
H1239 H 0.26703 0.58303 0.82812 0.0
H1240 H 0.21436 0.55288 0.74179 0.0
H1241 H 0.16414 0.55992 0.76931 0.0
C1242 C 0.15787 0.57396 0.83285 0.0
C1243 C 0.15882 0.58053 0.86646 0.0
C1244 C 0.18636 0.57418 0.81525 0.0
C1245 C 0.18835 0.58915 0.88146 0.0
C1246 C 0.21633 0.58985 0.86417 0.0
C1247 C 0.24457 0.57888 0.8149 0.0
C1248 C 0.24483 0.56738 0.7828 0.0
C1249 C 0.2158 0.58167 0.8313 0.0
C1250 C 0.21523 0.56216 0.76631 0.0
C1251 C 0.18635 0.56565 0.78229 0.0
H1252 H 0.80701 0.62193 0.41577 0.0
H1253 H 0.76718 0.57346 0.33113 0.0
H1254 H 0.7578 0.52535 0.36282 0.0
H1255 H 0.7617 0.49705 0.4138 0.0
H1256 H 0.80357 0.54337 0.49869 0.0
H1257 H 0.81197 0.5925 0.46753 0.0
C1258 C 0.79601 0.60085 0.40455 0.0
C1259 C 0.78754 0.60097 0.37146 0.0
C1260 C 0.79147 0.57301 0.42272 0.0
C1261 C 0.77385 0.57361 0.35669 0.0
C1262 C 0.76853 0.54619 0.3747 0.0
C1263 C 0.77261 0.51793 0.42552 0.0
C1264 C 0.78192 0.51686 0.45834 0.0
C1265 C 0.77744 0.54562 0.4076 0.0
C1266 C 0.79646 0.54377 0.47325 0.0
C1267 C 0.80104 0.57182 0.45556 0.0
H1268 H 0.89399 0.98569 0.80105 0.0
H1269 H 0.86222 0.8996 0.84764 0.0
H1270 H 0.82343 0.88942 0.8037 0.0
H1271 H 0.78893 0.91363 0.76228 0.0
H1272 H 0.81525 1.00311 0.71917 0.0
H1273 H 0.86633 1.00279 0.74969 0.0
C1274 C 0.87924 0.96424 0.80081 0.0
C1275 C 0.88026 0.9437 0.82765 0.0
C1276 C 0.85577 0.95937 0.77602 0.0
C1277 C 0.86122 0.91593 0.82735 0.0
C1278 C 0.83911 0.91008 0.80222 0.0
C1279 C 0.80678 0.93196 0.75815 0.0
C1280 C 0.79818 0.95885 0.73964 0.0
C1281 C 0.8347 0.93279 0.77769 0.0
C1282 C 0.82134 0.98238 0.73385 0.0
C1283 C 0.85023 0.98257 0.75193 0.0
H1284 H 0.22725 0.93257 0.35365 0.0
H1285 H 0.22606 0.87142 0.43754 0.0
H1286 H 0.24487 0.91634 0.47181 0.0
H1287 H 0.25772 0.97378 0.47814 0.0
H1288 H 0.26009 0.03477 0.39441 0.0
H1289 H 0.24533 0.9888 0.35935 0.0
C1290 C 0.23109 0.92909 0.37947 0.0
C1291 C 0.22463 0.89894 0.39328 0.0
C1292 C 0.24238 0.95481 0.39877 0.0
C1293 C 0.23056 0.89448 0.42652 0.0
C1294 C 0.24133 0.92011 0.44603 0.0
C1295 C 0.25566 0.97673 0.45209 0.0
C1296 C 0.26006 0.00734 0.43863 0.0
C1297 C 0.24687 0.95043 0.43244 0.0
C1298 C 0.25722 0.01125 0.40505 0.0
C1299 C 0.24844 0.98509 0.38519 0.0
H1300 H 0.12933 0.47858 0.70069 0.0
H1301 H 0.16567 0.40539 0.63797 0.0
H1302 H 0.20747 0.3922 0.67821 0.0
H1303 H 0.2391 0.40807 0.72605 0.0
H1304 H 0.20842 0.48651 0.78529 0.0
H1305 H 0.15818 0.4897 0.75347 0.0
C1306 C 0.14637 0.45966 0.69617 0.0
C1307 C 0.14508 0.44339 0.66629 0.0
C1308 C 0.171 0.45275 0.71925 0.0
C1309 C 0.16685 0.41866 0.66057 0.0
C1310 C 0.1905 0.41088 0.6837 0.0
C1311 C 0.22058 0.42466 0.73303 0.0
C1312 C 0.22761 0.44725 0.75762 0.0
C1313 C 0.19347 0.42848 0.7126 0.0
C1314 C 0.20356 0.46869 0.76657 0.0
C1315 C 0.17521 0.47119 0.74766 0.0
H1316 H 0.7017 0.57808 0.64795 0.0
H1317 H 0.75366 0.62813 0.57508 0.0
H1318 H 0.75168 0.57936 0.54115 0.0
H1319 H 0.73861 0.52138 0.53463 0.0
H1320 H 0.69074 0.47167 0.6102 0.0
H1321 H 0.68699 0.52211 0.64074 0.0
C1322 C 0.7128 0.57866 0.62468 0.0
C1323 C 0.7284 0.60685 0.61439 0.0
C1324 C 0.71178 0.55072 0.60574 0.0
C1325 C 0.74187 0.60685 0.58381 0.0
C1326 C 0.74062 0.57898 0.56443 0.0
C1327 C 0.72647 0.52196 0.55736 0.0
C1328 C 0.71402 0.49321 0.5699 0.0
C1329 C 0.72596 0.55069 0.57538 0.0
C1330 C 0.69954 0.49369 0.59983 0.0
C1331 C 0.69786 0.5224 0.61736 0.0
H1332 H 0.88114 0.06954 0.68629 0.0
H1333 H 0.82523 0.10176 0.60284 0.0
H1334 H 0.77849 0.10652 0.6351 0.0
H1335 H 0.75114 0.09449 0.68452 0.0
H1336 H 0.80514 0.06121 0.76848 0.0
H1337 H 0.85448 0.06556 0.7392 0.0
C1338 C 0.85884 0.07795 0.6753 0.0
C1339 C 0.85683 0.08432 0.64179 0.0
C1340 C 0.8314 0.08075 0.69419 0.0
C1341 C 0.82765 0.09576 0.62827 0.0
C1342 C 0.80071 0.09875 0.64677 0.0
C1343 C 0.77377 0.08913 0.69685 0.0
C1344 C 0.77403 0.07704 0.72858 0.0
C1345 C 0.80199 0.09034 0.67946 0.0
C1346 C 0.80386 0.07062 0.7441 0.0
C1347 C 0.83223 0.07255 0.72712 0.0
H1348 H 0.3072 0.93577 0.67262 0.0
H1349 H 0.36472 0.89287 0.59987 0.0
H1350 H 0.35516 0.93919 0.56445 0.0
H1351 H 0.32634 0.98919 0.55252 0.0
H1352 H 0.26346 0.02864 0.62271 0.0
H1353 H 0.27909 0.98639 0.66104 0.0
C1354 C 0.31816 0.93709 0.64928 0.0
C1355 C 0.33697 0.91156 0.63878 0.0
C1356 C 0.31119 0.96286 0.62858 0.0
C1357 C 0.35042 0.91267 0.60828 0.0
C1358 C 0.34482 0.93896 0.58808 0.0
C1359 C 0.31641 0.98871 0.57638 0.0
C1360 C 0.29386 0.01183 0.58494 0.0
C1361 C 0.32462 0.9638 0.5977 0.0
C1362 C 0.28074 0.01084 0.61566 0.0
C1363 C 0.28971 0.98681 0.63754 0.0
H1364 H 0.90668 0.17821 0.5006 0.0
H1365 H 0.82494 0.11595 0.50851 0.0
H1366 H 0.79202 0.15535 0.47872 0.0
H1367 H 0.78409 0.212 0.46244 0.0
H1368 H 0.86576 0.27461 0.45826 0.0
H1369 H 0.90102 0.23022 0.4737 0.0
C1370 C 0.88156 0.17307 0.49584 0.0
C1371 C 0.86799 0.14464 0.50795 0.0
C1372 C 0.86266 0.19597 0.47937 0.0
C1373 C 0.83581 0.13793 0.50027 0.0
C1374 C 0.81693 0.16051 0.48334 0.0
C1375 C 0.80978 0.21544 0.46307 0.0
C1376 C 0.8223 0.24665 0.4593 0.0
C1377 C 0.82971 0.19025 0.4742 0.0
C1378 C 0.85558 0.25083 0.4607 0.0
C1379 C 0.87566 0.22559 0.47037 0.0
H1380 H 0.81134 0.89687 0.96477 0.0
H1381 H 0.86503 0.85714 0.88712 0.0
H1382 H 0.8248 0.81584 0.87752 0.0
H1383 H 0.78149 0.78426 0.89852 0.0
H1384 H 0.72994 0.81878 0.97961 0.0
H1385 H 0.76064 0.86915 0.97957 0.0
C1386 C 0.81361 0.87968 0.94523 0.0
C1387 C 0.84127 0.88005 0.92675 0.0
C1388 C 0.79071 0.85475 0.9406 0.0
C1389 C 0.84405 0.8574 0.90169 0.0
C1390 C 0.82105 0.83365 0.8962 0.0
C1391 C 0.77592 0.80345 0.91526 0.0
C1392 C 0.75396 0.79747 0.93946 0.0
C1393 C 0.79515 0.83115 0.91646 0.0
C1394 C 0.74689 0.8226 0.96086 0.0
C1395 C 0.76499 0.85116 0.96128 0.0
H1396 H 0.06878 0.84711 0.30411 0.0
H1397 H 0.13096 0.92257 0.27221 0.0
H1398 H 0.08535 0.94969 0.24609 0.0
H1399 H 0.0273 0.95375 0.23496 0.0
H1400 H 0.96487 0.88048 0.26996 0.0
H1401 H 0.01106 0.85004 0.29097 0.0
C1402 C 0.07246 0.86958 0.2916 0.0
C1403 C 0.10349 0.88287 0.29059 0.0
C1404 C 0.04607 0.88499 0.27635 0.0
C1405 C 0.10751 0.91186 0.27383 0.0
C1406 C 0.0814 0.92728 0.25858 0.0
C1407 C 0.02397 0.9304 0.24594 0.0
C1408 C 0.99276 0.91871 0.24975 0.0
C1409 C 0.05057 0.91411 0.2597 0.0
C1410 C 0.98865 0.88932 0.26562 0.0
C1411 C 0.01507 0.8723 0.27823 0.0
H1412 H 0.18928 0.61978 0.99357 0.0
H1413 H 0.10054 0.6605 0.0237 0.0
H1414 H 0.12921 0.69815 0.05915 0.0
H1415 H 0.17834 0.72821 0.06953 0.0
H1416 H 0.26713 0.69187 0.03615 0.0
H1417 H 0.24027 0.64255 0.01669 0.0
C1418 C 0.1764 0.63638 0.00856 0.0
C1419 C 0.14298 0.63833 0.00506 0.0
C1420 C 0.19317 0.65876 0.02857 0.0
C1421 C 0.12639 0.65946 0.02507 0.0
C1422 C 0.14272 0.68086 0.04558 0.0
C1423 C 0.1921 0.70864 0.05966 0.0
C1424 C 0.2243 0.71391 0.05323 0.0
C1425 C 0.17605 0.68205 0.04594 0.0
C1426 C 0.24212 0.68843 0.04085 0.0
C1427 C 0.22661 0.66072 0.02881 0.0
H1428 H 0.41839 0.13178 0.82613 0.0
H1429 H 0.36967 0.09742 0.73913 0.0
H1430 H 0.41464 0.06154 0.72862 0.0
H1431 H 0.46962 0.04346 0.74246 0.0
H1432 H 0.51702 0.07846 0.83021 0.0
H1433 H 0.47062 0.11083 0.84211 0.0
C1434 C 0.41752 0.11619 0.805 0.0
C1435 C 0.39117 0.11734 0.78319 0.0
C1436 C 0.44329 0.09611 0.79913 0.0
C1437 C 0.38985 0.09677 0.75622 0.0
C1438 C 0.41561 0.07654 0.75012 0.0
C1439 C 0.46971 0.05816 0.76417 0.0
C1440 C 0.49684 0.05889 0.78521 0.0
C1441 C 0.44278 0.0766 0.77106 0.0
C1442 C 0.49648 0.07755 0.81357 0.0
C1443 C 0.46999 0.09609 0.82042 0.0
H1444 H 0.69398 0.88813 0.04426 0.0
H1445 H 0.62247 0.83794 0.0973 0.0
H1446 H 0.65728 0.79196 0.10385 0.0
H1447 H 0.70335 0.76196 0.08614 0.0
H1448 H 0.77568 0.80999 0.03276 0.0
H1449 H 0.74646 0.86062 0.03649 0.0
C1450 C 0.68639 0.86742 0.05782 0.0
C1451 C 0.65508 0.86627 0.06927 0.0
C1452 C 0.70677 0.84031 0.06152 0.0
C1453 C 0.64596 0.83927 0.08725 0.0
C1454 C 0.66595 0.81282 0.09122 0.0
C1455 C 0.71337 0.78372 0.07627 0.0
C1456 C 0.7414 0.78176 0.05865 0.0
C1457 C 0.69577 0.81245 0.07721 0.0
C1458 C 0.75414 0.81047 0.04646 0.0
C1459 C 0.73704 0.83947 0.04798 0.0
H1460 H 0.12858 0.10465 0.23327 0.0
H1461 H 0.09024 0.12977 0.13863 0.0
H1462 H 0.04138 0.09973 0.1486 0.0
H1463 H 0.00892 0.06883 0.18502 0.0
H1464 H 0.04557 0.04613 0.28109 0.0
H1465 H 0.09578 0.07325 0.26997 0.0
C1466 C 0.10968 0.10299 0.21471 0.0
C1467 C 0.11283 0.11894 0.18519 0.0
C1468 C 0.08132 0.0867 0.22107 0.0
C1469 C 0.08811 0.11743 0.16148 0.0
C1470 C 0.06024 0.10045 0.16722 0.0
C1471 C 0.02789 0.06971 0.20355 0.0
C1472 C 0.02353 0.05555 0.23384 0.0
C1473 C 0.05643 0.08545 0.1971 0.0
C1474 C 0.04825 0.05712 0.25766 0.0
C1475 C 0.07702 0.07242 0.25125 0.0
H1476 H 0.91434 0.38123 0.27605 0.0
H1477 H 0.93756 0.34881 0.1806 0.0
H1478 H 0.99196 0.36873 0.18862 0.0
H1479 H 0.03237 0.39637 0.22156 0.0
H1480 H 0.01015 0.43198 0.31624 0.0
H1481 H 0.95675 0.40822 0.31053 0.0
C1482 C 0.93125 0.37922 0.25691 0.0
C1483 C 0.92186 0.3643 0.22747 0.0
C1484 C 0.96296 0.39029 0.26193 0.0
C1485 C 0.94418 0.36078 0.2032 0.0
C1486 C 0.97538 0.37178 0.20791 0.0
C1487 C 0.01617 0.39853 0.24133 0.0
C1488 C 0.02541 0.41627 0.26918 0.0
C1489 C 0.98505 0.38646 0.23716 0.0
C1490 C 1.00395 0.41837 0.29454 0.0
C1491 C 0.9731 0.40528 0.29104 0.0
H1492 H 0.22052 0.2409 0.85421 0.0
H1493 H 0.20638 0.15054 0.80368 0.0
H1494 H 0.15113 0.1492 0.81927 0.0
H1495 H 0.1062 0.17464 0.84397 0.0
H1496 H 0.11711 0.26759 0.88944 0.0
H1497 H 0.17476 0.26598 0.88101 0.0
C1498 C 0.20529 0.22104 0.84641 0.0
C1499 C 0.21764 0.19601 0.82748 0.0
C1500 C 0.17323 0.22041 0.85537 0.0
C1501 C 0.19758 0.17029 0.81795 0.0
C1502 C 0.166 0.16931 0.82711 0.0
C1503 C 0.12128 0.19433 0.85265 0.0
C1504 C 0.10746 0.22122 0.86723 0.0
C1505 C 0.15359 0.19427 0.84558 0.0
C1506 C 0.12726 0.24639 0.87858 0.0
C1507 C 0.16008 0.24577 0.87309 0.0
H1508 H 0.42246 0.54721 0.38833 0.0
H1509 H 0.51542 0.52191 0.42852 0.0
H1510 H 0.53642 0.574 0.41283 0.0
H1511 H 0.52775 0.62805 0.3918 0.0
H1512 H 0.43498 0.65582 0.35389 0.0
H1513 H 0.41495 0.60111 0.36279 0.0
C1514 C 0.4472 0.5533 0.39396 0.0
C1515 C 0.46717 0.53083 0.41032 0.0
C1516 C 0.45939 0.5834 0.38434 0.0
C1517 C 0.49942 0.5388 0.41648 0.0
C1518 C 0.51154 0.56851 0.40722 0.0
C1519 C 0.50344 0.62176 0.38428 0.0
C1520 C 0.48301 0.6459 0.37182 0.0
C1521 C 0.49175 0.59102 0.39137 0.0
C1522 C 0.45144 0.63758 0.36274 0.0
C1523 C 0.4398 0.60647 0.36866 0.0
H1524 H 0.7969 0.29054 0.81254 0.0
H1525 H 0.78958 0.38494 0.85461 0.0
H1526 H 0.84659 0.38402 0.87022 0.0
H1527 H 0.89761 0.35369 0.87635 0.0
H1528 H 0.90391 0.26004 0.83166 0.0
H1529 H 0.84857 0.26342 0.81273 0.0
C1530 C 0.80802 0.31121 0.82444 0.0
C1531 C 0.78919 0.33774 0.83234 0.0
C1532 C 0.84062 0.31043 0.83339 0.0
C1533 C 0.80374 0.3644 0.84785 0.0
C1534 C 0.83625 0.36369 0.85714 0.0
C1535 C 0.88686 0.33418 0.86231 0.0
C1536 C 0.90492 0.3065 0.85588 0.0
C1537 C 0.85479 0.33642 0.85083 0.0
C1538 C 0.89071 0.28162 0.83715 0.0
C1539 C 0.85895 0.28345 0.82626 0.0
H1540 H 0.57895 0.95971 0.42808 0.0
H1541 H 0.51587 0.0056 0.35774 0.0
H1542 H 0.49475 0.95355 0.34043 0.0
H1543 H 0.49523 0.89487 0.34354 0.0
H1544 H 0.55606 0.84799 0.41507 0.0
H1545 H 0.57645 0.90026 0.43389 0.0
C1546 C 0.56059 0.95824 0.40898 0.0
C1547 C 0.54927 0.98664 0.39409 0.0
C1548 C 0.54793 0.92799 0.39942 0.0
C1549 C 0.52509 0.98428 0.36969 0.0
C1550 C 0.51296 0.95445 0.3597 0.0
C1551 C 0.51276 0.89602 0.36345 0.0
C1552 C 0.52419 0.86741 0.37767 0.0
C1553 C 0.52431 0.92614 0.3742 0.0
C1554 C 0.54669 0.86954 0.40369 0.0
C1555 C 0.55856 0.89948 0.41433 0.0
H1556 H 0.23848 0.79221 0.63867 0.0
H1557 H 0.23313 0.87152 0.70598 0.0
H1558 H 0.17522 0.87187 0.69897 0.0
H1559 H 0.12615 0.84766 0.67703 0.0
H1560 H 0.13007 0.76716 0.61121 0.0
H1561 H 0.18854 0.77008 0.61346 0.0
C1562 C 0.22467 0.80965 0.65174 0.0
C1563 C 0.24031 0.83163 0.67312 0.0
C1564 C 0.19114 0.80973 0.64764 0.0
C1565 C 0.22191 0.85422 0.68955 0.0
C1566 C 0.18872 0.8545 0.6855 0.0
C1567 C 0.13967 0.83092 0.66278 0.0
C1568 C 0.12362 0.80699 0.64422 0.0
C1569 C 0.17311 0.83211 0.66501 0.0
C1570 C 0.14169 0.78586 0.62564 0.0
C1571 C 0.17517 0.78731 0.62723 0.0
H1572 H 0.03316 0.53261 0.63053 0.0
H1573 H 0.10259 0.55669 0.56007 0.0
H1574 H 0.09374 0.61398 0.57004 0.0
H1575 H 0.06862 0.65792 0.60189 0.0
H1576 H 0.99966 0.63208 0.67236 0.0
H1577 H 1.0058 0.5756 0.65903 0.0
C1578 C 0.04626 0.55028 0.61708 0.0
C1579 C 0.06872 0.5399 0.59467 0.0
C1580 C 0.04118 0.58332 0.62306 0.0
C1581 C 0.08517 0.56359 0.57751 0.0
C1582 C 0.08016 0.59654 0.58328 0.0
C1583 C 0.0546 0.63996 0.61394 0.0
C1584 C 0.03389 0.64962 0.63843 0.0
C1585 C 0.05854 0.60683 0.6064 0.0
C1586 C 0.01608 0.6257 0.65375 0.0
C1587 C 0.01956 0.59316 0.64615 0.0
H1588 H 0.82252 0.655 0.66067 0.0
H1589 H 0.80664 0.74781 0.70343 0.0
H1590 H 0.86262 0.76244 0.69633 0.0
H1591 H 0.91436 0.75107 0.67213 0.0
H1592 H 0.92819 0.66006 0.62436 0.0
H1593 H 0.8751 0.64253 0.63911 0.0
C1594 C 0.83166 0.67802 0.66925 0.0
C1595 C 0.81078 0.70012 0.68305 0.0
C1596 C 0.86341 0.68685 0.66351 0.0
C1597 C 0.82251 0.73031 0.69314 0.0
C1598 C 0.85441 0.73876 0.68882 0.0
C1599 C 0.90589 0.72726 0.66531 0.0
C1600 C 0.92515 0.70706 0.64688 0.0
C1601 C 0.87485 0.7176 0.67311 0.0
C1602 C 0.91372 0.6763 0.63816 0.0
C1603 C 0.88336 0.66617 0.64667 0.0
H1604 H 0.99069 0.99011 0.63117 0.0
H1605 H 0.90161 0.96701 0.58055 0.0
H1606 H 0.91052 0.91014 0.59067 0.0
H1607 H 0.94549 0.86626 0.60913 0.0
H1608 H 0.03545 0.88737 0.65795 0.0
H1609 H 0.024 0.94527 0.65428 0.0
C1610 C 0.9731 0.97269 0.6225 0.0
C1611 C 0.94551 0.98331 0.60473 0.0
C1612 C 0.97837 0.93945 0.6285 0.0
C1613 C 0.92308 0.96002 0.59405 0.0
C1614 C 0.92812 0.92728 0.59992 0.0
C1615 C 0.96206 0.88351 0.62015 0.0
C1616 C 0.99091 0.87231 0.63467 0.0
C1617 C 0.95581 0.91666 0.61668 0.0
C1618 C 0.01261 0.89511 0.64771 0.0
C1619 C 1.00627 0.92831 0.64496 0.0
H1620 H 0.84801 0.20039 0.15423 0.0
H1621 H 0.79697 0.20501 0.24276 0.0
H1622 H 0.80598 0.14751 0.25152 0.0
H1623 H 0.83394 0.09821 0.23741 0.0
H1624 H 0.89 0.09521 0.15187 0.0
H1625 H 0.87351 0.14999 0.13846 0.0
C1626 C 0.8381 0.18854 0.17494 0.0
C1627 C 0.82155 0.20659 0.19769 0.0
C1628 C 0.84488 0.15605 0.18063 0.0
C1629 C 0.80955 0.19134 0.22489 0.0
C1630 C 0.81491 0.15863 0.22998 0.0
C1631 C 0.84226 0.10933 0.21558 0.0
C1632 C 0.86341 0.09275 0.1958 0.0
C1633 C 0.83345 0.14106 0.20856 0.0
C1634 C 0.87399 0.10758 0.16768 0.0
C1635 C 0.86452 0.13886 0.15996 0.0
H1636 H 0.45779 0.89755 0.09368 0.0
H1637 H 0.47816 0.91902 0.99451 0.0
H1638 H 0.42452 0.90137 0.97729 0.0
H1639 H 0.37037 0.88473 0.99093 0.0
H1640 H 0.34869 0.86601 0.08995 0.0
H1641 H 0.40462 0.8762 0.10664 0.0
C1642 C 0.45048 0.89854 0.06829 0.0
C1643 C 0.47192 0.9103 0.04549 0.0
C1644 C 0.4196 0.88799 0.05848 0.0
C1645 C 0.46214 0.91058 0.01264 0.0
C1646 C 0.43151 0.90024 0.00274 0.0
C1647 C 0.3783 0.8814 0.01596 0.0
C1648 C 0.35567 0.87363 0.03906 0.0
C1649 C 0.40995 0.88922 0.02546 0.0
C1650 C 0.36587 0.87076 0.0716 0.0
C1651 C 0.3977 0.87739 0.08118 0.0
H1652 H 0.16385 0.28504 0.2211 0.0
H1653 H 0.21205 0.30338 0.13233 0.0
H1654 H 0.19751 0.36004 0.13572 0.0
H1655 H 0.17266 0.40403 0.1643 0.0
H1656 H 0.12677 0.38698 0.2544 0.0
H1657 H 0.1371 0.3292 0.24886 0.0
C1658 C 0.17149 0.30138 0.20254 0.0
C1659 C 0.18942 0.28991 0.17659 0.0
C1660 C 0.1626 0.33377 0.20437 0.0
C1661 C 0.19868 0.31153 0.15272 0.0
C1662 C 0.19004 0.34384 0.15446 0.0
C1663 C 0.16449 0.38765 0.18261 0.0
C1664 C 0.14926 0.39976 0.20995 0.0
C1665 C 0.17202 0.3551 0.18012 0.0
C1666 C 0.13834 0.37824 0.23309 0.0
C1667 C 0.14479 0.34534 0.23018 0.0
H1668 H 0.53319 0.64199 0.03312 0.0
H1669 H 0.55205 0.58821 0.12073 0.0
H1670 H 0.60935 0.59663 0.11535 0.0
H1671 H 0.65425 0.61505 0.08357 0.0
H1672 H 0.63659 0.66762 0.99535 0.0
H1673 H 0.57879 0.66498 0.00374 0.0
C1674 C 0.54978 0.63209 0.05113 0.0
C1675 C 0.53797 0.61392 0.07716 0.0
C1676 C 0.58297 0.63731 0.048 0.0
C1677 C 0.56011 0.60194 0.10038 0.0
C1678 C 0.59299 0.60687 0.09735 0.0
C1679 C 0.63779 0.6269 0.06667 0.0
C1680 C 0.64992 0.64195 0.03904 0.0
C1681 C 0.60469 0.62412 0.07109 0.0
C1682 C 0.62818 0.65664 0.01717 0.0
C1683 C 0.59503 0.65451 0.02171 0.0
H1684 H 0.87085 0.78456 0.28201 0.0
H1685 H 0.81247 0.79528 0.36541 0.0
H1686 H 0.82568 0.85248 0.36807 0.0
H1687 H 0.8485 0.89965 0.34295 0.0
H1688 H 0.90315 0.88953 0.25703 0.0
H1689 H 0.89839 0.83106 0.26036 0.0
C1690 C 0.86088 0.79934 0.30078 0.0
C1691 C 0.83997 0.78594 0.323 0.0
C1692 C 0.86852 0.83198 0.3021 0.0
C1693 C 0.82809 0.80523 0.34769 0.0
C1694 C 0.83582 0.8378 0.34935 0.0
C1695 C 0.85992 0.8846 0.32529 0.0
C1696 C 0.87545 0.8987 0.29931 0.0
C1697 C 0.85536 0.85145 0.32621 0.0
C1698 C 0.89093 0.87913 0.27712 0.0
C1699 C 0.88773 0.8458 0.27873 0.0
H1700 H 0.04171 0.88729 0.90565 0.0
H1701 H 0.02795 0.93225 0.99815 0.0
H1702 H 0.08282 0.91843 0.01549 0.0
H1703 H 0.13434 0.89176 0.00492 0.0
H1704 H 0.1454 0.84174 0.9146 0.0
H1705 H 0.09226 0.85944 0.89571 0.0
C1706 C 0.05081 0.89432 0.92953 0.0
C1707 C 0.03082 0.91113 0.95047 0.0
C1708 C 0.08198 0.8853 0.93969 0.0
C1709 C 0.04281 0.9194 0.98156 0.0
C1710 C 0.07421 0.91151 0.99145 0.0
C1711 C 0.12518 0.88507 0.98097 0.0
C1712 C 0.14393 0.86574 0.96101 0.0
C1713 C 0.09399 0.89428 0.9708 0.0
C1714 C 0.1315 0.85666 0.93033 0.0
C1715 C 0.10109 0.86676 0.91956 0.0
H1716 H 0.16048 0.70644 0.35707 0.0
H1717 H 0.21325 0.7183 0.27053 0.0
H1718 H 0.20261 0.66219 0.25524 0.0
H1719 H 0.17384 0.61136 0.26406 0.0
H1720 H 0.11688 0.60176 0.34841 0.0
H1721 H 0.13332 0.65515 0.36682 0.0
C1722 C 0.17038 0.69634 0.33539 0.0
C1723 C 0.1882 0.71603 0.31527 0.0
C1724 C 0.16273 0.66465 0.32597 0.0
C1725 C 0.19996 0.70323 0.2866 0.0
C1726 C 0.19359 0.67131 0.27773 0.0
C1727 C 0.16517 0.62089 0.28655 0.0
C1728 C 0.14386 0.60261 0.30459 0.0
C1729 C 0.17426 0.65202 0.29679 0.0
C1730 C 0.13291 0.61539 0.33372 0.0
C1731 C 0.14244 0.64592 0.34443 0.0
H1732 H 0.96378 0.58222 0.97018 0.0
H1733 H 0.97291 0.64249 0.88656 0.0
H1734 H 0.91897 0.66338 0.89363 0.0
H1735 H 0.87041 0.6675 0.92627 0.0
H1736 H 0.86029 0.60436 0.00751 0.0
H1737 H 0.91302 0.58173 0.99882 0.0
C1738 C 0.95371 0.59947 0.95312 0.0
C1739 C 0.97247 0.6107 0.92782 0.0
C1740 C 0.92251 0.6112 0.95721 0.0
C1741 C 0.95899 0.63308 0.90597 0.0
C1742 C 0.9282 0.64531 0.91023 0.0
C1743 C 0.87971 0.64859 0.94188 0.0
C1744 C 0.86138 0.63782 0.9677 0.0
C1745 C 0.90995 0.63505 0.93617 0.0
C1746 C 0.87362 0.61306 0.98746 0.0
C1747 C 0.90394 0.60015 0.98252 0.0
H1748 H 0.2063 0.87981 0.2252 0.0
H1749 H 0.16187 0.78785 0.20564 0.0
H1750 H 0.17229 0.79373 0.1479 0.0
H1751 H 0.20124 0.82134 0.10542 0.0
H1752 H 0.24754 0.91212 0.12556 0.0
H1753 H 0.22864 0.91091 0.18113 0.0
C1754 C 0.19861 0.86119 0.2082 0.0
C1755 C 0.18409 0.83301 0.21948 0.0
C1756 C 0.20503 0.86465 0.17548 0.0
C1757 C 0.17335 0.8095 0.19735 0.0
C1758 C 0.17942 0.81286 0.16451 0.0
C1759 C 0.2064 0.84123 0.12187 0.0
C1760 C 0.22576 0.86673 0.11196 0.0
C1761 C 0.19624 0.83978 0.15363 0.0
C1762 C 0.2325 0.89247 0.13294 0.0
C1763 C 0.22197 0.89153 0.16463 0.0
H1764 H 0.23032 0.13858 0.27459 0.0
H1765 H 0.15442 0.20845 0.27774 0.0
H1766 H 0.15157 0.2013 0.33591 0.0
H1767 H 0.17198 0.17758 0.38578 0.0
H1768 H 0.2496 0.10965 0.38452 0.0
H1769 H 0.24936 0.11254 0.32536 0.0
C1770 C 0.21336 0.15241 0.28808 0.0
C1771 C 0.19285 0.17431 0.27191 0.0
C1772 C 0.21167 0.14804 0.32165 0.0
C1773 C 0.1706 0.19161 0.28962 0.0
C1774 C 0.1688 0.18741 0.32285 0.0
C1775 C 0.18865 0.16301 0.37265 0.0
C1776 C 0.21104 0.14375 0.38961 0.0
C1777 C 0.1893 0.16586 0.33906 0.0
C1778 C 0.23207 0.12467 0.37209 0.0
C1779 C 0.23224 0.12667 0.3383 0.0
H1780 H 0.39232 0.53155 0.97887 0.0
H1781 H 0.45577 0.61135 0.96238 0.0
H1782 H 0.44507 0.60678 0.90446 0.0
H1783 H 0.41992 0.57951 0.85845 0.0
H1784 H 0.36003 0.49686 0.87195 0.0
H1785 H 0.3657 0.50407 0.93112 0.0
C1786 C 0.40415 0.54761 0.96254 0.0
C1787 C 0.42518 0.57161 0.97514 0.0
C1788 C 0.39774 0.54495 0.92883 0.0
C1789 C 0.43975 0.59256 0.95355 0.0
C1790 C 0.43341 0.59017 0.92037 0.0
C1791 C 0.4074 0.5635 0.87436 0.0
C1792 C 0.38928 0.53795 0.86093 0.0
C1793 C 0.41249 0.5666 0.90782 0.0
C1794 C 0.37347 0.51717 0.8817 0.0
C1795 C 0.37735 0.52092 0.91549 0.0
H1796 H 0.77094 0.34283 0.28696 0.0
H1797 H 0.85824 0.2973 0.32077 0.0
H1798 H 0.84402 0.30759 0.37698 0.0
H1799 H 0.80877 0.33434 0.41604 0.0
H1800 H 0.7238 0.38268 0.37973 0.0
H1801 H 0.73538 0.36664 0.32483 0.0
C1802 C 0.78696 0.33494 0.30652 0.0
C1803 C 0.81587 0.31972 0.2996 0.0
C1804 C 0.77918 0.34183 0.33834 0.0
C1805 C 0.8359 0.30919 0.32539 0.0
C1806 C 0.82785 0.31526 0.3575 0.0
C1807 C 0.79274 0.3411 0.39608 0.0
C1808 C 0.7657 0.36007 0.40189 0.0
C1809 C 0.7999 0.33233 0.36422 0.0
C1810 C 0.74505 0.36859 0.37586 0.0
C1811 C 0.75155 0.35932 0.34446 0.0
H1812 H 0.13589 0.49208 0.48341 0.0
H1813 H 0.06244 0.42412 0.45421 0.0
H1814 H 0.07208 0.43533 0.39723 0.0
H1815 H 0.10458 0.46165 0.35541 0.0
H1816 H 0.17856 0.52852 0.38637 0.0
H1817 H 0.16534 0.52058 0.44251 0.0
C1818 C 0.12171 0.4798 0.46469 0.0
C1819 C 0.0986 0.45703 0.4734 0.0
C1820 C 0.12765 0.48607 0.43201 0.0
C1821 C 0.08041 0.44173 0.44849 0.0
C1822 C 0.08603 0.44806 0.41579 0.0
C1823 C 0.11751 0.4748 0.37442 0.0
C1824 C 0.14283 0.49548 0.36639 0.0
C1825 C 0.11004 0.46978 0.40718 0.0
C1826 C 0.15926 0.5122 0.39155 0.0
C1827 C 0.15171 0.50769 0.42383 0.0
H1828 H 0.35663 0.18016 0.69498 0.0
H1829 H 0.25739 0.20237 0.70794 0.0
H1830 H 0.24629 0.19579 0.64975 0.0
H1831 H 0.26356 0.17658 0.59725 0.0
H1832 H 0.36148 0.14793 0.58618 0.0
H1833 H 0.37463 0.16459 0.64181 0.0
C1834 C 0.3327 0.1842 0.68496 0.0
C1835 C 0.30776 0.19153 0.70546 0.0
C1836 C 0.32632 0.1789 0.65203 0.0
C1837 C 0.27681 0.19643 0.69241 0.0
C1838 C 0.2705 0.19263 0.65928 0.0
C1839 C 0.2879 0.17458 0.60687 0.0
C1840 C 0.31153 0.16085 0.58802 0.0
C1841 C 0.29487 0.18278 0.63913 0.0
C1842 C 0.34292 0.15815 0.60059 0.0
C1843 C 0.3504 0.16763 0.63229 0.0
H1844 H 0.38365 0.489 0.52276 0.0
H1845 H 0.44781 0.41234 0.55044 0.0
H1846 H 0.43713 0.42179 0.60749 0.0
H1847 H 0.40716 0.45006 0.64998 0.0
H1848 H 0.33987 0.52368 0.62133 0.0
H1849 H 0.35423 0.51742 0.56496 0.0
C1850 C 0.39563 0.47459 0.54126 0.0
C1851 C 0.41672 0.45004 0.532 0.0
C1852 C 0.38862 0.47955 0.5742 0.0
C1853 C 0.43149 0.43137 0.55658 0.0
C1854 C 0.42535 0.43677 0.58936 0.0
C1855 C 0.39592 0.46498 0.63144 0.0
C1856 C 0.37243 0.48742 0.64019 0.0
C1857 C 0.40364 0.46054 0.59855 0.0
C1858 C 0.35789 0.50617 0.61555 0.0
C1859 C 0.36611 0.50258 0.58315 0.0
H1860 H 0.62104 0.08533 0.54554 0.0
H1861 H 0.56985 0.99812 0.52103 0.0
H1862 H 0.58218 0.97696 0.57531 0.0
H1863 H 0.6034 0.98548 0.63089 0.0
H1864 H 0.65568 0.07195 0.65539 0.0
H1865 H 0.64829 0.09079 0.59944 0.0
C1866 C 0.61248 0.06174 0.55221 0.0
C1867 C 0.59368 0.04361 0.52976 0.0
C1868 C 0.62044 0.04946 0.58311 0.0
C1869 C 0.58376 0.01266 0.53816 0.0
C1870 C 0.59099 1.00055 0.56907 0.0
C1871 C 0.61402 0.00803 0.62368 0.0
C1872 C 0.63009 0.02734 0.64716 0.0
C1873 C 0.6089 0.01893 0.59184 0.0
C1874 C 0.64367 0.05649 0.63766 0.0
C1875 C 0.6389 0.06748 0.60582 0.0
H1876 H 0.7195 0.72906 0.35919 0.0
H1877 H 0.70362 0.65771 0.28403 0.0
H1878 H 0.64699 0.65696 0.29451 0.0
H1879 H 0.60229 0.67647 0.32378 0.0
H1880 H 0.61519 0.75087 0.39614 0.0
H1881 H 0.67315 0.74923 0.38915 0.0
C1882 C 0.70357 0.71368 0.34483 0.0
C1883 C 0.71588 0.69357 0.32068 0.0
C1884 C 0.67076 0.71325 0.35105 0.0
C1885 C 0.69491 0.6735 0.30262 0.0
C1886 C 0.66252 0.67284 0.30877 0.0
C1887 C 0.61763 0.69231 0.33833 0.0
C1888 C 0.60428 0.714 0.36026 0.0
C1889 C 0.6503 0.69246 0.33293 0.0
C1890 C 0.62478 0.73384 0.37918 0.0
C1891 C 0.65785 0.73323 0.37481 0.0
H1892 H 0.92037 0.05347 0.87349 0.0
H1893 H 1.00551 0.02602 0.92811 0.0
H1894 H 0.02886 0.07882 0.91926 0.0
H1895 H 0.02395 0.13385 0.89947 0.0
H1896 H 0.93962 0.16303 0.845 0.0
H1897 H 0.9177 0.10837 0.84893 0.0
C1898 C 0.94391 0.05924 0.88363 0.0
C1899 C 0.96091 0.03597 0.90208 0.0
C1900 C 0.95766 0.08971 0.87775 0.0
C1901 C 0.99176 0.04352 0.91423 0.0
C1902 C 1.00524 0.07367 0.90898 0.0
C1903 C 1.00122 0.12795 0.88748 0.0
C1904 C 0.98364 0.15241 0.87162 0.0
C1905 C 0.98838 0.09698 0.89099 0.0
C1906 C 0.95401 0.14453 0.85665 0.0
C1907 C 0.94119 0.11341 0.85956 0.0
H1908 H 0.3002 0.85867 0.35899 0.0
H1909 H 0.29213 0.78051 0.29067 0.0
H1910 H 0.34859 0.76736 0.30046 0.0
H1911 H 0.39844 0.77446 0.33287 0.0
H1912 H 0.4051 0.85008 0.40459 0.0
H1913 H 0.35118 0.86765 0.38934 0.0
C1914 C 0.3112 0.83946 0.34555 0.0
C1915 C 0.29241 0.82099 0.32362 0.0
C1916 C 0.34322 0.83106 0.35257 0.0
C1917 C 0.30644 0.79537 0.30717 0.0
C1918 C 0.33858 0.78765 0.31306 0.0
C1919 C 0.38825 0.79496 0.345 0.0
C1920 C 0.40585 0.81068 0.37009 0.0
C1921 C 0.35694 0.80471 0.33645 0.0
C1922 C 0.39209 0.83722 0.38547 0.0
C1923 C 0.36124 0.84742 0.37667 0.0
H1924 H 0.0746 0.46518 0.93193 0.0
H1925 H 0.03224 0.51211 0.84812 0.0
H1926 H 0.0132 0.46071 0.82683 0.0
H1927 H 0.00874 0.40219 0.83111 0.0
H1928 H 0.04884 0.35441 0.91538 0.0
H1929 H 0.06791 0.40589 0.93732 0.0
C1930 C 0.06132 0.46407 0.90897 0.0
C1931 C 0.05507 0.49267 0.89169 0.0
C1932 C 0.04966 0.43415 0.89694 0.0
C1933 C 0.03741 0.49068 0.86212 0.0
C1934 C 0.02644 0.4612 0.84982 0.0
C1935 C 0.02143 0.40296 0.85441 0.0
C1936 C 0.02719 0.37419 0.87146 0.0
C1937 C 0.03235 0.43275 0.86696 0.0
C1938 C 0.04369 0.376 0.9017 0.0
C1939 C 0.05488 0.40553 0.91422 0.0
H1940 H 0.72821 0.28677 0.14279 0.0
H1941 H 0.72508 0.36714 0.20899 0.0
H1942 H 0.6673 0.37108 0.19913 0.0
H1943 H 0.61775 0.34865 0.17561 0.0
H1944 H 0.62064 0.2668 0.11131 0.0
H1945 H 0.67901 0.26745 0.11537 0.0
C1946 C 0.71493 0.30515 0.15518 0.0
C1947 C 0.73078 0.32622 0.17721 0.0
C1948 C 0.68191 0.30731 0.14929 0.0
C1949 C 0.71335 0.3504 0.1923 0.0
C1950 C 0.68039 0.35273 0.18656 0.0
C1951 C 0.63113 0.33122 0.16202 0.0
C1952 C 0.61489 0.30739 0.14352 0.0
C1953 C 0.66444 0.33093 0.16558 0.0
C1954 C 0.63255 0.28541 0.12563 0.0
C1955 C 0.66589 0.2855 0.12834 0.0
H1956 H 0.57609 0.06156 0.06829 0.0
H1957 H 0.5258 0.01324 0.14325 0.0
H1958 H 0.51001 0.06459 0.16578 0.0
H1959 H 0.51032 0.12357 0.16531 0.0
H1960 H 0.55728 0.17342 0.08924 0.0
H1961 H 0.57384 0.12197 0.06624 0.0
C1962 C 0.5617 0.06233 0.08953 0.0
C1963 C 0.55225 0.03313 0.10389 0.0
C1964 C 0.55177 0.09252 0.10227 0.0
C1965 C 0.53333 0.03497 0.13135 0.0
C1966 C 0.52425 0.0645 0.14442 0.0
C1967 C 0.52402 0.12333 0.14357 0.0
C1968 C 0.53243 0.15277 0.12925 0.0
C1969 C 0.53323 0.09348 0.13017 0.0
C1970 C 0.55013 0.15145 0.10089 0.0
C1971 C 0.55984 0.12184 0.08775 0.0
H1972 H 0.30414 0.22943 0.18182 0.0
H1973 H 0.30328 0.13264 0.14452 0.0
H1974 H 0.35952 0.13779 0.13093 0.0
H1975 H 0.40783 0.17186 0.12549 0.0
H1976 H 0.40872 0.26747 0.16632 0.0
H1977 H 0.35389 0.26074 0.18269 0.0
C1978 C 0.31651 0.20925 0.17133 0.0
C1979 C 0.29963 0.18073 0.16417 0.0
C1980 C 0.3488 0.21236 0.16376 0.0
C1981 C 0.31588 0.15472 0.15062 0.0
C1982 C 0.34794 0.1578 0.14251 0.0
C1983 C 0.396 0.1911 0.13809 0.0
C1984 C 0.41224 0.22031 0.14418 0.0
C1985 C 0.36446 0.18682 0.14823 0.0
C1986 C 0.3968 0.2448 0.16113 0.0
C1987 C 0.36537 0.24102 0.17052 0.0
H1988 H 0.49305 0.49397 0.13072 0.0
H1989 H 0.40352 0.47234 0.08025 0.0
H1990 H 0.41061 0.41555 0.09179 0.0
H1991 H 0.44375 0.37111 0.11202 0.0
H1992 H 0.53467 0.39045 0.15959 0.0
H1993 H 0.52513 0.44857 0.15454 0.0
C1994 C 0.47508 0.47686 0.12223 0.0
C1995 C 0.44782 0.48789 0.10423 0.0
C1996 C 0.47928 0.44363 0.12905 0.0
C1997 C 0.4248 0.46502 0.09387 0.0
C1998 C 0.42875 0.43233 0.10063 0.0
C1999 C 0.46089 0.38808 0.12257 0.0
C2000 C 0.48939 0.37629 0.13726 0.0
C2001 C 0.45593 0.4213 0.11792 0.0
C2002 C 0.51199 0.39869 0.1494 0.0
C2003 C 0.50679 0.432 0.14579 0.0
H2004 H 0.31455 0.70603 0.72166 0.0
H2005 H 0.3622 0.71978 0.63216 0.0
H2006 H 0.37601 0.66276 0.63059 0.0
H2007 H 0.38038 0.61043 0.65878 0.0
H2008 H 0.33013 0.59749 0.74727 0.0
H2009 H 0.31128 0.65231 0.74475 0.0
C2010 C 0.32729 0.69632 0.70144 0.0
C2011 C 0.33776 0.71701 0.6774 0.0
C2012 C 0.33509 0.66364 0.70068 0.0
C2013 C 0.35395 0.70424 0.65107 0.0
C2014 C 0.36209 0.67168 0.65028 0.0
C2015 C 0.36498 0.61951 0.67722 0.0
C2016 C 0.35737 0.59993 0.70347 0.0
C2017 C 0.35378 0.65136 0.67562 0.0
C2018 C 0.33681 0.61195 0.72688 0.0
C2019 C 0.32594 0.64345 0.72559 0.0
H2020 H 0.98102 0.37565 0.53103 0.0
H2021 H 0.97217 0.44794 0.60552 0.0
H2022 H 0.91632 0.43447 0.61032 0.0
H2023 H 0.86896 0.40574 0.59146 0.0
H2024 H 0.87333 0.33889 0.51202 0.0
H2025 H 0.9318 0.34507 0.51242 0.0
C2026 C 0.9668 0.38856 0.54816 0.0
C2027 C 0.98115 0.41319 0.56759 0.0
C2028 C 0.93388 0.38105 0.55052 0.0
C2029 C 0.96214 0.42933 0.58982 0.0
C2030 C 0.93007 0.42139 0.5929 0.0
C2031 C 0.88273 0.39179 0.57468 0.0
C2032 C 0.86658 0.37181 0.5518 0.0
C2033 C 0.91565 0.3976 0.57326 0.0
C2034 C 0.88495 0.35401 0.5303 0.0
C2035 C 0.91839 0.3582 0.53005 0.0
H2036 H 0.66014 0.79078 0.71362 0.0
H2037 H 0.72023 0.80743 0.63259 0.0
H2038 H 0.70787 0.86496 0.63518 0.0
H2039 H 0.68253 0.91023 0.66234 0.0
H2040 H 0.62388 0.89331 0.74439 0.0
H2041 H 0.63211 0.83541 0.73841 0.0
C2042 C 0.67077 0.80682 0.69643 0.0
C2043 C 0.69168 0.79467 0.67318 0.0
C2044 C 0.66332 0.8396 0.69791 0.0
C2045 C 0.7045 0.81604 0.65093 0.0
C2046 C 0.69725 0.84888 0.65232 0.0
C2047 C 0.67111 0.89395 0.67877 0.0
C2048 C 0.65281 0.9063 0.70411 0.0
C2049 C 0.67695 0.86089 0.67592 0.0
C2050 C 0.63795 0.88465 0.72471 0.0
C2051 C 0.64303 0.85155 0.72152 0.0
H2052 H 0.0344 0.12504 0.52243 0.0
H2053 H 0.05505 0.08412 0.61654 0.0
H2054 H 0.11171 0.09729 0.61147 0.0
H2055 H 0.15586 0.11576 0.5782 0.0
H2056 H 0.13562 0.15588 0.48391 0.0
H2057 H 0.07813 0.14893 0.49165 0.0
C2058 C 0.05122 0.11888 0.54193 0.0
C2059 C 0.0403 0.10276 0.56966 0.0
C2060 C 0.08377 0.12701 0.53899 0.0
C2061 C 0.06258 0.09596 0.59483 0.0
C2062 C 0.09502 0.10367 0.59195 0.0
C2063 C 0.13878 0.1241 0.55979 0.0
C2064 C 0.15015 0.13681 0.53062 0.0
C2065 C 0.10593 0.11877 0.56397 0.0
C2066 C 0.12771 0.14689 0.50683 0.0
C2067 C 0.09482 0.14221 0.51105 0.0
H2068 H 0.35677 0.30318 0.84909 0.0
H2069 H 0.30851 0.29412 0.75563 0.0
H2070 H 0.32764 0.34708 0.74031 0.0
H2071 H 0.3572 0.39587 0.75357 0.0
H2072 H 0.40077 0.40863 0.84849 0.0
H2073 H 0.38639 0.35332 0.86271 0.0
C2074 C 0.3498 0.31331 0.82578 0.0
C2075 C 0.33085 0.29529 0.80365 0.0
C2076 C 0.36144 0.34353 0.8169 0.0
C2077 C 0.32262 0.30805 0.77314 0.0
C2078 C 0.33401 0.33796 0.76418 0.0
C2079 C 0.36468 0.38594 0.77687 0.0
C2080 C 0.38093 0.40545 0.79961 0.0
C2081 C 0.35379 0.35562 0.78565 0.0
C2082 C 0.38928 0.39329 0.83031 0.0
C2083 C 0.38029 0.36211 0.83866 0.0
H2084 H 0.55473 0.39304 0.40863 0.0
H2085 H 0.53246 0.41782 0.50657 0.0
H2086 H 0.58774 0.40685 0.52441 0.0
H2087 H 0.64209 0.38746 0.51264 0.0
H2088 H 0.66231 0.35748 0.41571 0.0
H2089 H 0.6086 0.37352 0.39695 0.0
C2090 C 0.562 0.39633 0.43385 0.0
C2091 C 0.53935 0.40643 0.45619 0.0
C2092 C 0.59365 0.38904 0.4441 0.0
C2093 C 0.54925 0.41004 0.48885 0.0
C2094 C 0.58093 0.40381 0.49906 0.0
C2095 C 0.63483 0.38498 0.48733 0.0
C2096 C 0.65631 0.37169 0.46548 0.0
C2097 C 0.60332 0.39299 0.47698 0.0
C2098 C 0.64632 0.36784 0.43291 0.0
C2099 C 0.61555 0.3769 0.42222 0.0
H2100 H 0.67103 0.20731 0.86513 0.0
H2101 H 0.71621 0.22102 0.77435 0.0
H2102 H 0.70733 0.16437 0.76033 0.0
H2103 H 0.68148 0.11246 0.77136 0.0
H2104 H 0.63199 0.10046 0.86023 0.0
H2105 H 0.64761 0.15455 0.87741 0.0
C2106 C 0.6798 0.19754 0.84277 0.0
C2107 C 0.69487 0.21805 0.82108 0.0
C2108 C 0.67313 0.16533 0.83418 0.0
C2109 C 0.70507 0.20548 0.79163 0.0
C2110 C 0.69969 0.17318 0.78349 0.0
C2111 C 0.67437 0.12154 0.79463 0.0
C2112 C 0.65529 0.10235 0.81428 0.0
C2113 C 0.68289 0.15309 0.80415 0.0
C2114 C 0.64633 0.11468 0.84437 0.0
C2115 C 0.65535 0.14567 0.85431 0.0
H2116 H 0.48157 0.12384 0.48929 0.0
H2117 H 0.46042 0.08541 0.39395 0.0
H2118 H 0.40356 0.09622 0.4002 0.0
H2119 H 0.35959 0.11947 0.43179 0.0
H2120 H 0.38215 0.16193 0.52503 0.0
H2121 H 0.43808 0.14647 0.52078 0.0
C2122 C 0.46453 0.11749 0.46996 0.0
C2123 C 0.47554 0.10364 0.44118 0.0
C2124 C 0.43182 0.1246 0.47337 0.0
C2125 C 0.45288 0.09609 0.41634 0.0
C2126 C 0.42023 0.10228 0.41991 0.0
C2127 C 0.37672 0.12487 0.45134 0.0
C2128 C 0.36654 0.14166 0.47884 0.0
C2129 C 0.40936 0.11688 0.44819 0.0
C2130 C 0.38923 0.14902 0.50365 0.0
C2131 C 0.42131 0.14023 0.50119 0.0
H2132 H 0.69711 0.38177 0.72551 0.0
H2133 H 0.67344 0.28121 0.71609 0.0
H2134 H 0.69156 0.28133 0.66033 0.0
H2135 H 0.72034 0.30844 0.61764 0.0
H2136 H 0.74372 0.4091 0.62653 0.0
H2137 H 0.71926 0.41081 0.67966 0.0
C2138 C 0.69542 0.36004 0.71096 0.0
C2139 C 0.68448 0.33134 0.72472 0.0
C2140 C 0.70622 0.36032 0.67936 0.0
C2141 C 0.68178 0.30345 0.70579 0.0
C2142 C 0.69241 0.30351 0.67415 0.0
C2143 C 0.71991 0.3308 0.63122 0.0
C2144 C 0.7345 0.35845 0.61897 0.0
C2145 C 0.70572 0.3315 0.66126 0.0
C2146 C 0.73299 0.38754 0.63595 0.0
C2147 C 0.71907 0.38843 0.66618 0.0
H2148 H 0.73201 0.64858 0.78488 0.0
H2149 H 0.65935 0.72177 0.78685 0.0
H2150 H 0.6516 0.71094 0.84414 0.0
H2151 H 0.66784 0.68323 0.89388 0.0
H2152 H 0.7415 0.61089 0.89248 0.0
H2153 H 0.74515 0.61756 0.83406 0.0
C2154 C 0.71475 0.66245 0.79795 0.0
C2155 C 0.69687 0.68662 0.78195 0.0
C2156 C 0.71 0.65562 0.83061 0.0
C2157 C 0.6738 0.70353 0.79886 0.0
C2158 C 0.66917 0.69713 0.83147 0.0
C2159 C 0.68432 0.66841 0.88079 0.0
C2160 C 0.70478 0.64698 0.89774 0.0
C2161 C 0.68733 0.67342 0.84759 0.0
C2162 C 0.7255 0.62761 0.88018 0.0
C2163 C 0.72798 0.6318 0.84682 0.0
H2164 H 0.89982 0.08958 0.45492 0.0
H2165 H 0.94757 1.00164 0.48224 0.0
H2166 H 0.92868 0.97621 0.43168 0.0
H2167 H 0.90229 0.9804 0.37839 0.0
H2168 H 0.85674 0.06864 0.34902 0.0
H2169 H 0.86891 0.09201 0.40266 0.0
C2170 C 0.90657 0.06508 0.44936 0.0
C2171 C 0.92607 0.04775 0.47152 0.0
C2172 C 0.89485 0.05037 0.42064 0.0
C2173 C 0.93345 0.01559 0.46495 0.0
C2174 C 0.92222 1.00095 0.43638 0.0
C2175 C 0.89382 1.00428 0.38431 0.0
C2176 C 0.87855 0.02278 0.36004 0.0
C2177 C 0.90306 0.01815 0.41406 0.0
C2178 C 0.86797 0.05377 0.36758 0.0
C2179 C 0.8758 0.06741 0.39791 0.0
H2180 H 0.26522 0.82291 0.78248 0.0
H2181 H 0.3578 0.79492 0.82148 0.0
H2182 H 0.3395 0.80337 0.87654 0.0
H2183 H 0.29987 0.82742 0.91259 0.0
H2184 H 0.20973 0.86033 0.87141 0.0
H2185 H 0.22444 0.84146 0.81817 0.0
C2186 C 0.28133 0.81814 0.80302 0.0
C2187 C 0.313 0.80891 0.7979 0.0
C2188 C 0.27121 0.82458 0.83421 0.0
C2189 C 0.33333 0.80217 0.82476 0.0
C2190 C 0.32296 0.80735 0.85622 0.0
C2191 C 0.28332 0.82994 0.89199 0.0
C2192 C 0.25399 0.84573 0.89571 0.0
C2193 C 0.2924 0.81994 0.86112 0.0
C2194 C 0.23267 0.84881 0.86896 0.0
C2195 C 0.24102 0.83793 0.83856 0.0
H2196 H 0.6401 0.98766 0.98552 0.0
H2197 H 0.56203 0.92717 0.95198 0.0
H2198 H 0.57579 0.93669 0.89587 0.0
H2199 H 0.61195 0.95969 0.85596 0.0
H2200 H 0.69219 0.01721 0.88984 0.0
H2201 H 0.67573 0.01141 0.94553 0.0
C2202 C 0.62579 0.97697 0.96593 0.0
C2203 C 0.59986 0.95686 0.97318 0.0
C2204 C 0.63448 0.98175 0.9335 0.0
C2205 C 0.58205 0.94277 0.94729 0.0
C2206 C 0.58997 0.94815 0.91509 0.0
C2207 C 0.62571 0.97119 0.87548 0.0
C2208 C 0.65341 0.98884 0.8684 0.0
C2209 C 0.61645 0.96719 0.90783 0.0
C2210 C 0.67094 1.00329 0.89429 0.0
C2211 C 0.66149 1.00004 0.9263 0.0
H2212 H 0.86225 0.67178 0.1992 0.0
H2213 H 0.77012 0.71607 0.20832 0.0
H2214 H 0.75993 0.71152 0.14987 0.0
H2215 H 0.77361 0.68711 0.09844 0.0
H2216 H 0.86305 0.63691 0.0907 0.0
H2217 H 0.87819 0.6519 0.14632 0.0
C2218 C 0.84037 0.68125 0.18817 0.0
C2219 C 0.8169 0.69419 0.20773 0.0
C2220 C 0.83404 0.67697 0.15496 0.0
C2221 C 0.7884 0.70594 0.19349 0.0
C2222 C 0.78254 0.7032 0.1602 0.0
C2223 C 0.7967 0.67999 0.10867 0.0
C2224 C 0.817 0.66055 0.09071 0.0
C2225 C 0.80463 0.68752 0.14098 0.0
C2226 C 0.84684 0.65153 0.10427 0.0
C2227 C 0.85549 0.66007 0.13604 0.0
H2228 H 0.92897 0.92895 0.04815 0.0
H2229 H 0.87148 1.00254 0.00183 0.0
H2230 H 0.85062 0.01816 0.05375 0.0
H2231 H 0.8469 0.01015 0.1127 0.0
H2232 H 0.90738 0.9397 0.15999 0.0
H2233 H 0.92861 0.92402 0.10801 0.0
C2234 C 0.91207 0.94855 0.04945 0.0
C2235 C 0.90192 0.96436 0.02077 0.0
C2236 C 0.90042 0.95805 0.07983 0.0
C2237 C 0.88007 0.98991 0.02325 0.0
C2238 C 0.86788 0.99885 0.05307 0.0
C2239 C 0.86478 0.99143 0.11165 0.0
C2240 C 0.8752 0.97601 0.1404 0.0
C2241 C 0.8776 0.98295 0.08156 0.0
C2242 C 0.89881 0.95209 0.13841 0.0
C2243 C 0.91097 0.94298 0.10857 0.0
H2244 H 0.1139 0.51812 0.02572 0.0
H2245 H 0.04701 0.59136 0.05304 0.0
H2246 H 0.06439 0.58596 0.10942 0.0
H2247 H 0.09705 0.56002 0.15113 0.0
H2248 H 0.15887 0.48186 0.12696 0.0
H2249 H 0.14658 0.49072 0.06898 0.0
C2250 C 0.10263 0.53234 0.04412 0.0
C2251 C 0.07891 0.55497 0.03508 0.0
C2252 C 0.11285 0.52917 0.07683 0.0
C2253 C 0.06505 0.57361 0.05925 0.0
C2254 C 0.07529 0.57087 0.09148 0.0
C2255 C 0.10875 0.54572 0.13302 0.0
C2256 C 0.1296 0.52107 0.14306 0.0
C2257 C 0.09933 0.54906 0.10044 0.0
C2258 C 0.14369 0.50177 0.11965 0.0
C2259 C 0.13595 0.50632 0.08663 0.0
loop_
_geom_bond_atom_site_label_1
_geom_bond_atom_site_label_2
_geom_bond_distance
_geom_bond_site_symmetry_2
_ccdc_geom_bond_type
Fe0 O2 1.918 . S
Fe0 O5 1.997 . S
Fe0 O6 2.002 . S
Fe0 O11 1.976 . S
Fe0 O14 1.996 . S
Fe1 O2 1.918 . S
Fe1 O9 1.997 . S
Fe1 O12 1.996 . S
Fe1 O16 1.976 . S
Fe1 O19 2.002 . S
O2 Fe0 1.918 . S
O2 Fe1 1.918 . S
O2 Fe3 1.918 . S
Fe3 O2 1.918 . S
Fe3 O4 2.002 . S
Fe3 O13 1.976 . S
Fe3 O17 1.996 . S
Fe3 O20 1.997 . S
O4 Fe3 2.002 . S
O4 C21 1.295 . S
O5 Fe0 1.997 . S
O5 C21 1.235 . S
O6 Fe0 2.002 . S
O6 C7 1.295 . S
C7 O6 1.295 . S
C7 O9 1.235 . S
C8 O13 1.287 . S
C8 O14 1.255 . S
O9 Fe1 1.997 . S
O9 C7 1.235 . S
C10 O16 1.287 . S
C10 O17 1.255 . S
O11 Fe0 1.976 . S
O11 C18 1.287 . S
O12 Fe1 1.996 . S
O12 C18 1.255 . S
O13 Fe3 1.976 . S
O13 C8 1.287 . S
O14 Fe0 1.996 . S
O14 C8 1.255 . S
C15 O19 1.295 . S
C15 O20 1.235 . S
O16 Fe1 1.976 . S
O16 C10 1.287 . S
O17 Fe3 1.996 . S
O17 C10 1.255 . S
C18 O11 1.287 . S
C18 O12 1.255 . S
O19 Fe1 2.002 . S
O19 C15 1.295 . S
O20 Fe3 1.997 . S
O20 C15 1.235 . S
C21 O4 1.295 . S
C21 O5 1.235 . S
Fe22 O24 1.918 . S
Fe22 O27 1.997 . S
Fe22 O28 2.002 . S
Fe22 O33 1.976 . S
Fe22 O36 1.996 . S
Fe23 O24 1.918 . S
Fe23 O31 1.997 . S
Fe23 O34 1.996 . S
Fe23 O38 1.976 . S
Fe23 O41 2.002 . S
O24 Fe22 1.918 . S
O24 Fe23 1.918 . S
O24 Fe25 1.918 . S
Fe25 O24 1.918 . S
Fe25 O26 2.002 . S
Fe25 O35 1.976 . S
Fe25 O39 1.996 . S
Fe25 O42 1.997 . S
O26 Fe25 2.002 . S
O26 C43 1.295 . S
O27 Fe22 1.997 . S
O27 C43 1.235 . S
O28 Fe22 2.002 . S
O28 C29 1.295 . S
C29 O28 1.295 . S
C29 O31 1.235 . S
C30 O35 1.287 . S
C30 O36 1.255 . S
O31 Fe23 1.997 . S
O31 C29 1.235 . S
C32 O38 1.287 1_556 S
C32 O39 1.255 1_556 S
O33 Fe22 1.976 . S
O33 C40 1.287 . S
O34 Fe23 1.996 . S
O34 C40 1.255 . S
O35 Fe25 1.976 . S
O35 C30 1.287 . S
O36 Fe22 1.996 . S
O36 C30 1.255 . S
C37 O41 1.295 . S
C37 O42 1.235 . S
O38 Fe23 1.976 . S
O38 C32 1.287 1_554 S
O39 Fe25 1.996 . S
O39 C32 1.255 1_554 S
C40 O33 1.287 . S
C40 O34 1.255 . S
O41 Fe23 2.002 . S
O41 C37 1.295 . S
O42 Fe25 1.997 . S
O42 C37 1.235 . S
C43 O26 1.295 . S
C43 O27 1.235 . S
Fe44 O46 1.918 . S
Fe44 O49 1.997 . S
Fe44 O50 2.002 . S
Fe44 O55 1.976 . S
Fe44 O58 1.996 . S
Fe45 O46 1.918 . S
Fe45 O53 1.997 . S
Fe45 O56 1.996 . S
Fe45 O60 1.976 . S
Fe45 O63 2.002 . S
O46 Fe44 1.918 . S
O46 Fe45 1.918 . S
O46 Fe47 1.918 . S
Fe47 O46 1.918 . S
Fe47 O48 2.002 . S
Fe47 O57 1.976 . S
Fe47 O61 1.996 . S
Fe47 O64 1.997 . S
O48 Fe47 2.002 . S
O48 C65 1.295 . S
O49 Fe44 1.997 . S
O49 C65 1.235 . S
O50 Fe44 2.002 . S
O50 C51 1.295 . S
C51 O50 1.295 . S
C51 O53 1.235 . S
C52 O57 1.287 . S
C52 O58 1.255 . S
O53 Fe45 1.997 . S
O53 C51 1.235 . S
C54 O60 1.287 . S
C54 O61 1.255 . S
O55 Fe44 1.976 . S
O55 C62 1.287 . S
O56 Fe45 1.996 . S
O56 C62 1.255 . S
O57 Fe47 1.976 . S
O57 C52 1.287 . S
O58 Fe44 1.996 . S
O58 C52 1.255 . S
C59 O63 1.295 . S
C59 O64 1.235 . S
O60 Fe45 1.976 . S
O60 C54 1.287 . S
O61 Fe47 1.996 . S
O61 C54 1.255 . S
C62 O55 1.287 . S
C62 O56 1.255 . S
O63 Fe45 2.002 . S
O63 C59 1.295 . S
O64 Fe47 1.997 . S
O64 C59 1.235 . S
C65 O48 1.295 . S
C65 O49 1.235 . S
Fe66 O68 1.918 . S
Fe66 O71 1.997 . S
Fe66 O72 2.002 . S
Fe66 O77 1.976 . S
Fe66 O80 1.996 . S
Fe67 O68 1.918 . S
Fe67 O75 1.997 . S
Fe67 O78 1.996 . S
Fe67 O82 1.976 . S
Fe67 O85 2.002 . S
O68 Fe66 1.918 . S
O68 Fe67 1.918 . S
O68 Fe69 1.918 . S
Fe69 O68 1.918 . S
Fe69 O70 2.002 . S
Fe69 O79 1.976 . S
Fe69 O83 1.996 . S
Fe69 O86 1.997 . S
O70 Fe69 2.002 . S
O70 C87 1.295 . S
O71 Fe66 1.997 . S
O71 C87 1.235 . S
O72 Fe66 2.002 . S
O72 C73 1.295 . S
C73 O72 1.295 . S
C73 O75 1.235 . S
C74 O79 1.287 . S
C74 O80 1.255 . S
O75 Fe67 1.997 . S
O75 C73 1.235 . S
C76 O82 1.287 . S
C76 O83 1.255 . S
O77 Fe66 1.976 . S
O77 C84 1.287 . S
O78 Fe67 1.996 . S
O78 C84 1.255 . S
O79 Fe69 1.976 . S
O79 C74 1.287 . S
O80 Fe66 1.996 . S
O80 C74 1.255 . S
C81 O85 1.295 . S
C81 O86 1.235 . S
O82 Fe67 1.976 . S
O82 C76 1.287 . S
O83 Fe69 1.996 . S
O83 C76 1.255 . S
C84 O77 1.287 . S
C84 O78 1.255 . S
O85 Fe67 2.002 . S
O85 C81 1.295 . S
O86 Fe69 1.997 . S
O86 C81 1.235 . S
C87 O70 1.295 . S
C87 O71 1.235 . S
Fe88 O90 1.918 . S
Fe88 O93 1.997 . S
Fe88 O94 2.002 . S
Fe88 O99 1.976 . S
Fe88 O102 1.996 . S
Fe89 O90 1.918 . S
Fe89 O97 1.997 . S
Fe89 O100 1.996 . S
Fe89 O104 1.976 . S
Fe89 O107 2.002 . S
O90 Fe88 1.918 . S
O90 Fe89 1.918 . S
O90 Fe91 1.918 . S
Fe91 O90 1.918 . S
Fe91 O92 2.002 . S
Fe91 O101 1.976 . S
Fe91 O105 1.996 . S
Fe91 O108 1.997 . S
O92 Fe91 2.002 . S
O92 C109 1.295 . S
O93 Fe88 1.997 . S
O93 C109 1.235 . S
O94 Fe88 2.002 . S
O94 C95 1.295 . S
C95 O94 1.295 . S
C95 O97 1.235 . S
C96 O101 1.287 . S
C96 O102 1.255 . S
O97 Fe89 1.997 . S
O97 C95 1.235 . S
C98 O104 1.287 . S
C98 O105 1.255 . S
O99 Fe88 1.976 . S
O99 C106 1.287 . S
O100 Fe89 1.996 . S
O100 C106 1.255 . S
O101 Fe91 1.976 . S
O101 C96 1.287 . S
O102 Fe88 1.996 . S
O102 C96 1.255 . S
C103 O107 1.295 . S
C103 O108 1.235 . S
O104 Fe89 1.976 . S
O104 C98 1.287 . S
O105 Fe91 1.996 . S
O105 C98 1.255 . S
C106 O99 1.287 . S
C106 O100 1.255 . S
O107 Fe89 2.002 . S
O107 C103 1.295 . S
O108 Fe91 1.997 . S
O108 C103 1.235 . S
C109 O92 1.295 . S
C109 O93 1.235 . S
Fe110 O112 1.918 . S
Fe110 O115 1.997 . S
Fe110 O116 2.002 . S
Fe110 O121 1.976 . S
Fe110 O124 1.996 1_556 S
Fe111 O112 1.918 . S
Fe111 O119 1.997 . S
Fe111 O122 1.996 . S
Fe111 O126 1.976 . S
Fe111 O129 2.002 . S
O112 Fe110 1.918 . S
O112 Fe111 1.918 . S
O112 Fe113 1.918 . S
Fe113 O112 1.918 . S
Fe113 O114 2.002 . S
Fe113 O123 1.976 1_556 S
Fe113 O127 1.996 . S
Fe113 O130 1.997 . S
O114 Fe113 2.002 . S
O114 C131 1.295 . S
O115 Fe110 1.997 . S
O115 C131 1.235 . S
O116 Fe110 2.002 . S
O116 C117 1.295 . S
C117 O116 1.295 . S
C117 O119 1.235 . S
C118 O123 1.287 . S
C118 O124 1.255 . S
O119 Fe111 1.997 . S
O119 C117 1.235 . S
C120 O126 1.287 . S
C120 O127 1.255 . S
O121 Fe110 1.976 . S
O121 C128 1.287 . S
O122 Fe111 1.996 . S
O122 C128 1.255 . S
O123 Fe113 1.976 1_554 S
O123 C118 1.287 . S
O124 Fe110 1.996 1_554 S
O124 C118 1.255 . S
C125 O129 1.295 . S
C125 O130 1.235 . S
O126 Fe111 1.976 . S
O126 C120 1.287 . S
O127 Fe113 1.996 . S
O127 C120 1.255 . S
C128 O121 1.287 . S
C128 O122 1.255 . S
O129 Fe111 2.002 . S
O129 C125 1.295 . S
O130 Fe113 1.997 . S
O130 C125 1.235 . S
C131 O114 1.295 . S
C131 O115 1.235 . S
Fe132 O134 1.918 . S
Fe132 O137 1.997 . S
Fe132 O138 2.002 . S
Fe132 O143 1.976 . S
Fe132 O146 1.996 . S
Fe133 O134 1.918 . S
Fe133 O141 1.997 . S
Fe133 O144 1.996 . S
Fe133 O148 1.976 . S
Fe133 O151 2.002 . S
O134 Fe132 1.918 . S
O134 Fe133 1.918 . S
O134 Fe135 1.918 . S
Fe135 O134 1.918 . S
Fe135 O136 2.002 . S
Fe135 O145 1.976 . S
Fe135 O149 1.996 . S
Fe135 O152 1.997 . S
O136 Fe135 2.002 . S
O136 C153 1.295 . S
O137 Fe132 1.997 . S
O137 C153 1.235 . S
O138 Fe132 2.002 . S
O138 C139 1.295 . S
C139 O138 1.295 . S
C139 O141 1.235 . S
C140 O145 1.287 . S
C140 O146 1.255 . S
O141 Fe133 1.997 . S
O141 C139 1.235 . S
C142 O148 1.287 . S
C142 O149 1.255 . S
O143 Fe132 1.976 . S
O143 C150 1.287 . S
O144 Fe133 1.996 . S
O144 C150 1.255 . S
O145 Fe135 1.976 . S
O145 C140 1.287 . S
O146 Fe132 1.996 . S
O146 C140 1.255 . S
C147 O151 1.295 . S
C147 O152 1.235 . S
O148 Fe133 1.976 . S
O148 C142 1.287 . S
O149 Fe135 1.996 . S
O149 C142 1.255 . S
C150 O143 1.287 . S
C150 O144 1.255 . S
O151 Fe133 2.002 . S
O151 C147 1.295 . S
O152 Fe135 1.997 . S
O152 C147 1.235 . S
C153 O136 1.295 . S
C153 O137 1.235 . S
Fe154 O156 1.918 . S
Fe154 O159 1.997 . S
Fe154 O160 2.002 . S
Fe154 O165 1.976 . S
Fe154 O168 1.996 . S
Fe155 O156 1.918 . S
Fe155 O163 1.997 . S
Fe155 O166 1.996 . S
Fe155 O170 1.976 . S
Fe155 O173 2.002 . S
O156 Fe154 1.918 . S
O156 Fe155 1.918 . S
O156 Fe157 1.918 . S
Fe157 O156 1.918 . S
Fe157 O158 2.002 . S
Fe157 O167 1.976 . S
Fe157 O171 1.996 . S
Fe157 O174 1.997 . S
O158 Fe157 2.002 . S
O158 C175 1.295 . S
O159 Fe154 1.997 . S
O159 C175 1.235 . S
O160 Fe154 2.002 . S
O160 C161 1.295 . S
C161 O160 1.295 . S
C161 O163 1.235 . S
C162 O167 1.287 . S
C162 O168 1.255 . S
O163 Fe155 1.997 . S
O163 C161 1.235 . S
C164 O170 1.287 . S
C164 O171 1.255 . S
O165 Fe154 1.976 . S
O165 C172 1.287 . S
O166 Fe155 1.996 . S
O166 C172 1.255 . S
O167 Fe157 1.976 . S
O167 C162 1.287 . S
O168 Fe154 1.996 . S
O168 C162 1.255 . S
C169 O173 1.295 . S
C169 O174 1.235 . S
O170 Fe155 1.976 . S
O170 C164 1.287 . S
O171 Fe157 1.996 . S
O171 C164 1.255 . S
C172 O165 1.287 . S
C172 O166 1.255 . S
O173 Fe155 2.002 . S
O173 C169 1.295 . S
O174 Fe157 1.997 . S
O174 C169 1.235 . S
C175 O158 1.295 . S
C175 O159 1.235 . S
Fe176 O178 1.918 . S
Fe176 O181 1.997 . S
Fe176 O182 2.002 . S
Fe176 O187 1.976 . S
Fe176 O190 1.996 . S
Fe177 O178 1.918 . S
Fe177 O185 1.997 . S
Fe177 O188 1.996 . S
Fe177 O192 1.976 . S
Fe177 O195 2.002 . S
O178 Fe176 1.918 . S
O178 Fe177 1.918 . S
O178 Fe179 1.918 . S
Fe179 O178 1.918 . S
Fe179 O180 2.002 . S
Fe179 O189 1.976 . S
Fe179 O193 1.996 . S
Fe179 O196 1.997 . S
O180 Fe179 2.002 . S
O180 C197 1.295 . S
O181 Fe176 1.997 . S
O181 C197 1.235 . S
O182 Fe176 2.002 . S
O182 C183 1.295 . S
C183 O182 1.295 . S
C183 O185 1.235 . S
C184 O189 1.287 . S
C184 O190 1.255 . S
O185 Fe177 1.997 . S
O185 C183 1.235 . S
C186 O192 1.287 . S
C186 O193 1.255 . S
O187 Fe176 1.976 . S
O187 C194 1.287 . S
O188 Fe177 1.996 . S
O188 C194 1.255 . S
O189 Fe179 1.976 . S
O189 C184 1.287 . S
O190 Fe176 1.996 . S
O190 C184 1.255 . S
C191 O195 1.295 . S
C191 O196 1.235 . S
O192 Fe177 1.976 . S
O192 C186 1.287 . S
O193 Fe179 1.996 . S
O193 C186 1.255 . S
C194 O187 1.287 . S
C194 O188 1.255 . S
O195 Fe177 2.002 . S
O195 C191 1.295 . S
O196 Fe179 1.997 . S
O196 C191 1.235 . S
C197 O180 1.295 . S
C197 O181 1.235 . S
Fe198 O200 1.918 . S
Fe198 O203 1.997 . S
Fe198 O204 2.002 . S
Fe198 O209 1.976 . S
Fe198 O212 1.996 . S
Fe199 O200 1.918 . S
Fe199 O207 1.997 . S
Fe199 O210 1.996 . S
Fe199 O214 1.976 . S
Fe199 O217 2.002 . S
O200 Fe198 1.918 . S
O200 Fe199 1.918 . S
O200 Fe201 1.918 . S
Fe201 O200 1.918 . S
Fe201 O202 2.002 . S
Fe201 O211 1.976 . S
Fe201 O215 1.996 . S
Fe201 O218 1.997 . S
O202 Fe201 2.002 . S
O202 C219 1.295 . S
O203 Fe198 1.997 . S
O203 C219 1.235 . S
O204 Fe198 2.002 . S
O204 C205 1.295 . S
C205 O204 1.295 . S
C205 O207 1.235 . S
C206 O211 1.287 . S
C206 O212 1.255 . S
O207 Fe199 1.997 . S
O207 C205 1.235 . S
C208 O214 1.287 . S
C208 O215 1.255 . S
O209 Fe198 1.976 . S
O209 C216 1.287 . S
O210 Fe199 1.996 . S
O210 C216 1.255 . S
O211 Fe201 1.976 . S
O211 C206 1.287 . S
O212 Fe198 1.996 . S
O212 C206 1.255 . S
C213 O217 1.295 . S
C213 O218 1.235 . S
O214 Fe199 1.976 . S
O214 C208 1.287 . S
O215 Fe201 1.996 . S
O215 C208 1.255 . S
C216 O209 1.287 . S
C216 O210 1.255 . S
O217 Fe199 2.002 . S
O217 C213 1.295 . S
O218 Fe201 1.997 . S
O218 C213 1.235 . S
C219 O202 1.295 . S
C219 O203 1.235 . S
Fe220 O222 1.918 . S
Fe220 O225 1.997 . S
Fe220 O226 2.002 . S
Fe220 O231 1.976 . S
Fe220 O234 1.996 . S
Fe221 O222 1.918 . S
Fe221 O229 1.997 . S
Fe221 O232 1.996 . S
Fe221 O236 1.976 . S
Fe221 O239 2.002 . S
O222 Fe220 1.918 . S
O222 Fe221 1.918 . S
O222 Fe223 1.918 . S
Fe223 O222 1.918 . S
Fe223 O224 2.002 . S
Fe223 O233 1.976 . S
Fe223 O237 1.996 . S
Fe223 O240 1.997 . S
O224 Fe223 2.002 . S
O224 C241 1.295 . S
O225 Fe220 1.997 . S
O225 C241 1.235 . S
O226 Fe220 2.002 . S
O226 C227 1.295 . S
C227 O226 1.295 . S
C227 O229 1.235 . S
C228 O233 1.287 . S
C228 O234 1.255 . S
O229 Fe221 1.997 . S
O229 C227 1.235 . S
C230 O236 1.287 . S
C230 O237 1.255 . S
O231 Fe220 1.976 . S
O231 C238 1.287 . S
O232 Fe221 1.996 . S
O232 C238 1.255 . S
O233 Fe223 1.976 . S
O233 C228 1.287 . S
O234 Fe220 1.996 . S
O234 C228 1.255 . S
C235 O239 1.295 . S
C235 O240 1.235 . S
O236 Fe221 1.976 . S
O236 C230 1.287 . S
O237 Fe223 1.996 . S
O237 C230 1.255 . S
C238 O231 1.287 . S
C238 O232 1.255 . S
O239 Fe221 2.002 . S
O239 C235 1.295 . S
O240 Fe223 1.997 . S
O240 C235 1.235 . S
C241 O224 1.295 . S
C241 O225 1.235 . S
Fe242 O244 1.918 . S
Fe242 O247 1.997 . S
Fe242 O248 2.002 . S
Fe242 O253 1.976 . S
Fe242 O256 1.996 . S
Fe243 O244 1.918 . S
Fe243 O251 1.997 . S
Fe243 O254 1.996 . S
Fe243 O258 1.976 . S
Fe243 O261 2.002 . S
O244 Fe242 1.918 . S
O244 Fe243 1.918 . S
O244 Fe245 1.918 . S
Fe245 O244 1.918 . S
Fe245 O246 2.002 . S
Fe245 O255 1.976 . S
Fe245 O259 1.996 . S
Fe245 O262 1.997 . S
O246 Fe245 2.002 . S
O246 C263 1.295 . S
O247 Fe242 1.997 . S
O247 C263 1.235 . S
O248 Fe242 2.002 . S
O248 C249 1.295 . S
C249 O248 1.295 . S
C249 O251 1.235 . S
C250 O255 1.287 . S
C250 O256 1.255 . S
O251 Fe243 1.997 . S
O251 C249 1.235 . S
C252 O258 1.287 . S
C252 O259 1.255 . S
O253 Fe242 1.976 . S
O253 C260 1.287 . S
O254 Fe243 1.996 . S
O254 C260 1.255 . S
O255 Fe245 1.976 . S
O255 C250 1.287 . S
O256 Fe242 1.996 . S
O256 C250 1.255 . S
C257 O261 1.295 . S
C257 O262 1.235 . S
O258 Fe243 1.976 . S
O258 C252 1.287 . S
O259 Fe245 1.996 . S
O259 C252 1.255 . S
C260 O253 1.287 . S
C260 O254 1.255 . S
O261 Fe243 2.002 . S
O261 C257 1.295 . S
O262 Fe245 1.997 . S
O262 C257 1.235 . S
C263 O246 1.295 . S
C263 O247 1.235 . S
Fe264 O266 1.918 . S
Fe264 O269 1.997 . S
Fe264 O270 2.002 . S
Fe264 O275 1.976 . S
Fe264 O278 1.996 . S
Fe265 O266 1.918 . S
Fe265 O273 1.997 . S
Fe265 O276 1.996 . S
Fe265 O280 1.976 . S
Fe265 O283 2.002 . S
O266 Fe264 1.918 . S
O266 Fe265 1.918 . S
O266 Fe267 1.918 . S
Fe267 O266 1.918 . S
Fe267 O268 2.002 . S
Fe267 O277 1.976 . S
Fe267 O281 1.996 . S
Fe267 O284 1.997 . S
O268 Fe267 2.002 . S
O268 C285 1.295 . S
O269 Fe264 1.997 . S
O269 C285 1.235 . S
O270 Fe264 2.002 . S
O270 C271 1.295 . S
C271 O270 1.295 . S
C271 O273 1.235 . S
C272 O277 1.287 . S
C272 O278 1.255 . S
O273 Fe265 1.997 . S
O273 C271 1.235 . S
C274 O280 1.287 . S
C274 O281 1.255 . S
O275 Fe264 1.976 . S
O275 C282 1.287 . S
O276 Fe265 1.996 . S
O276 C282 1.255 . S
O277 Fe267 1.976 . S
O277 C272 1.287 . S
O278 Fe264 1.996 . S
O278 C272 1.255 . S
C279 O283 1.295 . S
C279 O284 1.235 . S
O280 Fe265 1.976 . S
O280 C274 1.287 . S
O281 Fe267 1.996 . S
O281 C274 1.255 . S
C282 O275 1.287 . S
C282 O276 1.255 . S
O283 Fe265 2.002 . S
O283 C279 1.295 . S
O284 Fe267 1.997 . S
O284 C279 1.235 . S
C285 O268 1.295 . S
C285 O269 1.235 . S
Fe286 O288 1.918 . S
Fe286 O291 1.997 . S
Fe286 O292 2.002 . S
Fe286 O297 1.976 . S
Fe286 O300 1.996 . S
Fe287 O288 1.918 . S
Fe287 O295 1.997 . S
Fe287 O298 1.996 . S
Fe287 O302 1.976 . S
Fe287 O305 2.002 . S
O288 Fe286 1.918 . S
O288 Fe287 1.918 . S
O288 Fe289 1.918 . S
Fe289 O288 1.918 . S
Fe289 O290 2.002 . S
Fe289 O299 1.976 . S
Fe289 O303 1.996 . S
Fe289 O306 1.997 . S
O290 Fe289 2.002 . S
O290 C307 1.295 . S
O291 Fe286 1.997 . S
O291 C307 1.235 . S
O292 Fe286 2.002 . S
O292 C293 1.295 . S
C293 O292 1.295 . S
C293 O295 1.235 . S
C294 O299 1.287 . S
C294 O300 1.255 . S
O295 Fe287 1.997 . S
O295 C293 1.235 . S
C296 O302 1.287 . S
C296 O303 1.255 . S
O297 Fe286 1.976 . S
O297 C304 1.287 . S
O298 Fe287 1.996 . S
O298 C304 1.255 . S
O299 Fe289 1.976 . S
O299 C294 1.287 . S
O300 Fe286 1.996 . S
O300 C294 1.255 . S
C301 O305 1.295 . S
C301 O306 1.235 . S
O302 Fe287 1.976 . S
O302 C296 1.287 . S
O303 Fe289 1.996 . S
O303 C296 1.255 . S
C304 O297 1.287 . S
C304 O298 1.255 . S
O305 Fe287 2.002 . S
O305 C301 1.295 . S
O306 Fe289 1.997 . S
O306 C301 1.235 . S
C307 O290 1.295 . S
C307 O291 1.235 . S
Fe308 O310 1.918 . S
Fe308 O313 1.997 . S
Fe308 O314 2.002 . S
Fe308 O319 1.976 . S
Fe308 O322 1.996 . S
Fe309 O310 1.918 . S
Fe309 O317 1.997 . S
Fe309 O320 1.996 . S
Fe309 O324 1.976 . S
Fe309 O327 2.002 . S
O310 Fe308 1.918 . S
O310 Fe309 1.918 . S
O310 Fe311 1.918 . S
Fe311 O310 1.918 . S
Fe311 O312 2.002 . S
Fe311 O321 1.976 . S
Fe311 O325 1.996 . S
Fe311 O328 1.997 . S
O312 Fe311 2.002 . S
O312 C329 1.295 . S
O313 Fe308 1.997 . S
O313 C329 1.235 . S
O314 Fe308 2.002 . S
O314 C315 1.295 . S
C315 O314 1.295 . S
C315 O317 1.235 . S
C316 O321 1.287 . S
C316 O322 1.255 . S
O317 Fe309 1.997 . S
O317 C315 1.235 . S
C318 O324 1.287 . S
C318 O325 1.255 . S
O319 Fe308 1.976 . S
O319 C326 1.287 . S
O320 Fe309 1.996 . S
O320 C326 1.255 . S
O321 Fe311 1.976 . S
O321 C316 1.287 . S
O322 Fe308 1.996 . S
O322 C316 1.255 . S
C323 O327 1.295 . S
C323 O328 1.235 . S
O324 Fe309 1.976 . S
O324 C318 1.287 . S
O325 Fe311 1.996 . S
O325 C318 1.255 . S
C326 O319 1.287 . S
C326 O320 1.255 . S
O327 Fe309 2.002 . S
O327 C323 1.295 . S
O328 Fe311 1.997 . S
O328 C323 1.235 . S
C329 O312 1.295 . S
C329 O313 1.235 . S
Fe330 O332 1.918 . S
Fe330 O335 1.997 . S
Fe330 O336 2.002 . S
Fe330 O341 1.976 . S
Fe330 O344 1.996 . S
Fe331 O332 1.918 . S
Fe331 O339 1.997 . S
Fe331 O342 1.996 . S
Fe331 O346 1.976 . S
Fe331 O349 2.002 . S
O332 Fe330 1.918 . S
O332 Fe331 1.918 . S
O332 Fe333 1.918 . S
Fe333 O332 1.918 . S
Fe333 O334 2.002 . S
Fe333 O343 1.976 . S
Fe333 O347 1.996 . S
Fe333 O350 1.997 . S
O334 Fe333 2.002 . S
O334 C351 1.295 . S
O335 Fe330 1.997 . S
O335 C351 1.235 . S
O336 Fe330 2.002 . S
O336 C337 1.295 . S
C337 O336 1.295 . S
C337 O339 1.235 . S
C338 O343 1.287 . S
C338 O344 1.255 . S
O339 Fe331 1.997 . S
O339 C337 1.235 . S
C340 O346 1.287 . S
C340 O347 1.255 . S
O341 Fe330 1.976 . S
O341 C348 1.287 . S
O342 Fe331 1.996 . S
O342 C348 1.255 . S
O343 Fe333 1.976 . S
O343 C338 1.287 . S
O344 Fe330 1.996 . S
O344 C338 1.255 . S
C345 O349 1.295 . S
C345 O350 1.235 . S
O346 Fe331 1.976 . S
O346 C340 1.287 . S
O347 Fe333 1.996 . S
O347 C340 1.255 . S
C348 O341 1.287 . S
C348 O342 1.255 . S
O349 Fe331 2.002 . S
O349 C345 1.295 . S
O350 Fe333 1.997 . S
O350 C345 1.235 . S
C351 O334 1.295 . S
C351 O335 1.235 . S
C352 O364 1.241 . S
C352 O365 1.280 . S
C353 O366 1.277 . S
C353 O367 1.245 . S
C354 O378 1.247 . S
C354 O380 1.289 . S
Mg355 O356 1.926 1_455 S
Mg355 O365 1.984 1_455 S
Mg355 O367 1.988 . S
Mg355 O368 2.056 1_455 S
O356 Mg355 1.926 1_655 S
O356 Mg357 1.986 . S
O356 Mg358 1.916 1_655 S
Mg357 O356 1.986 . S
Mg357 O364 2.042 . S
Mg357 O366 2.041 1_655 S
Mg357 O372 2.038 . S
Mg357 O380 2.238 1_655 S
Mg358 O356 1.916 1_455 S
Mg358 O359 1.917 . S
Mg358 O369 2.106 1_455 S
Mg358 O371 2.077 1_455 S
Mg358 O380 2.107 . S
Mg358 O381 2.080 . S
O359 Mg358 1.917 . S
O359 Mg360 1.926 1_455 S
O359 Mg361 1.986 . S
Mg360 O359 1.926 1_655 S
Mg360 O374 1.984 1_655 S
Mg360 O377 1.988 . S
Mg360 O378 2.061 1_655 S
Mg361 O359 1.986 . S
Mg361 O369 2.238 1_455 S
Mg361 O373 2.042 . S
Mg361 O375 2.041 1_455 S
Mg361 O382 2.038 . S
C362 O368 1.257 . S
C362 O369 1.289 . S
C363 O381 1.245 . S
C363 O382 1.274 . S
O364 C352 1.241 . S
O364 Mg357 2.042 . S
O365 C352 1.280 . S
O365 Mg355 1.984 1_655 S
O366 C353 1.277 . S
O366 Mg357 2.041 1_455 S
O367 C353 1.245 . S
O367 Mg355 1.988 . S
O368 Mg355 2.056 1_655 S
O368 C362 1.257 . S
O369 Mg358 2.106 1_655 S
O369 Mg361 2.238 1_655 S
O369 C362 1.289 . S
C370 O371 1.245 . S
C370 O372 1.274 . S
O371 Mg358 2.077 1_655 S
O371 C370 1.245 . S
O372 Mg357 2.038 . S
O372 C370 1.274 . S
O373 Mg361 2.042 . S
O373 C376 1.241 . S
O374 Mg360 1.984 1_455 S
O374 C376 1.280 . S
O375 Mg361 2.041 1_655 S
O375 C379 1.277 . S
C376 O373 1.241 . S
C376 O374 1.280 . S
O377 Mg360 1.988 . S
O377 C379 1.245 . S
O378 C354 1.247 . S
O378 Mg360 2.061 1_455 S
C379 O375 1.277 . S
C379 O377 1.245 . S
O380 C354 1.289 . S
O380 Mg357 2.238 1_455 S
O380 Mg358 2.107 . S
O381 Mg358 2.080 . S
O381 C363 1.245 . S
O382 Mg361 2.038 . S
O382 C363 1.274 . S
C383 O395 1.241 . S
C383 O396 1.280 . S
C384 O397 1.277 . S
C384 O398 1.245 . S
C385 O409 1.247 . S
C385 O411 1.289 . S
Mg386 O387 1.926 . S
Mg386 O396 1.984 . S
Mg386 O398 1.988 . S
Mg386 O399 2.061 . S
O387 Mg386 1.926 . S
O387 Mg388 1.986 . S
O387 Mg389 1.917 . S
Mg388 O387 1.986 . S
Mg388 O395 2.042 . S
Mg388 O397 2.041 . S
Mg388 O403 2.038 . S
Mg388 O411 2.238 . S
Mg389 O387 1.917 . S
Mg389 O390 1.917 . S
Mg389 O400 2.106 . S
Mg389 O402 2.079 . S
Mg389 O411 2.106 . S
Mg389 O412 2.079 . S
O390 Mg389 1.917 . S
O390 Mg391 1.926 . S
O390 Mg392 1.986 . S
Mg391 O390 1.926 . S
Mg391 O405 1.984 . S
Mg391 O408 1.988 . S
Mg391 O409 2.061 . S
Mg392 O390 1.986 . S
Mg392 O400 2.238 . S
Mg392 O404 2.042 . S
Mg392 O406 2.041 . S
Mg392 O413 2.038 . S
C393 O399 1.247 . S
C393 O400 1.289 . S
C394 O412 1.245 . S
C394 O413 1.274 . S
O395 C383 1.241 . S
O395 Mg388 2.042 . S
O396 C383 1.280 . S
O396 Mg386 1.984 . S
O397 C384 1.277 . S
O397 Mg388 2.041 . S
O398 C384 1.245 . S
O398 Mg386 1.988 . S
O399 Mg386 2.061 . S
O399 C393 1.247 . S
O400 Mg389 2.106 . S
O400 Mg392 2.238 . S
O400 C393 1.289 . S
C401 O402 1.245 . S
C401 O403 1.274 . S
O402 Mg389 2.079 . S
O402 C401 1.245 . S
O403 Mg388 2.038 . S
O403 C401 1.274 . S
O404 Mg392 2.042 . S
O404 C407 1.241 . S
O405 Mg391 1.984 . S
O405 C407 1.280 . S
O406 Mg392 2.041 . S
O406 C410 1.277 . S
C407 O404 1.241 . S
C407 O405 1.280 . S
O408 Mg391 1.988 . S
O408 C410 1.245 . S
O409 C385 1.247 . S
O409 Mg391 2.061 . S
C410 O406 1.277 . S
C410 O408 1.245 . S
O411 C385 1.289 . S
O411 Mg388 2.238 . S
O411 Mg389 2.106 . S
O412 Mg389 2.079 . S
O412 C394 1.245 . S
O413 Mg392 2.038 . S
O413 C394 1.274 . S
C414 O426 1.241 . S
C414 O427 1.280 . S
C415 O428 1.277 . S
C415 O429 1.245 . S
C416 O440 1.247 . S
C416 O442 1.289 . S
Mg417 O418 1.926 1_455 S
Mg417 O427 1.984 1_455 S
Mg417 O429 1.988 . S
Mg417 O430 2.061 . S
O418 Mg417 1.926 1_655 S
O418 Mg419 1.986 . S
O418 Mg420 1.917 1_655 S
Mg419 O418 1.986 . S
Mg419 O426 2.042 . S
Mg419 O428 2.041 1_655 S
Mg419 O434 2.038 . S
Mg419 O442 2.238 1_655 S
Mg420 O418 1.917 1_455 S
Mg420 O421 1.917 . S
Mg420 O431 2.104 1_455 S
Mg420 O433 2.079 1_455 S
Mg420 O442 2.106 . S
Mg420 O443 2.079 . S
O421 Mg420 1.917 . S
O421 Mg422 1.926 1_455 S
O421 Mg423 1.986 . S
Mg422 O421 1.926 1_655 S
Mg422 O436 1.984 1_655 S
Mg422 O439 1.988 . S
Mg422 O440 2.061 1_655 S
Mg423 O421 1.986 . S
Mg423 O431 2.225 1_455 S
Mg423 O435 2.042 . S
Mg423 O437 2.041 1_455 S
Mg423 O444 2.038 . S
C424 O430 1.247 1_655 S
C424 O431 1.294 . S
C425 O443 1.245 . S
C425 O444 1.274 . S
O426 C414 1.241 . S
O426 Mg419 2.042 . S
O427 C414 1.280 . S
O427 Mg417 1.984 1_655 S
O428 C415 1.277 . S
O428 Mg419 2.041 1_455 S
O429 C415 1.245 . S
O429 Mg417 1.988 . S
O430 Mg417 2.061 . S
O430 C424 1.247 1_455 S
O431 Mg420 2.104 1_655 S
O431 Mg423 2.225 1_655 S
O431 C424 1.294 . S
C432 O433 1.245 . S
C432 O434 1.274 . S
O433 Mg420 2.079 1_655 S
O433 C432 1.245 . S
O434 Mg419 2.038 . S
O434 C432 1.274 . S
O435 Mg423 2.042 . S
O435 C438 1.241 . S
O436 Mg422 1.984 1_455 S
O436 C438 1.280 . S
O437 Mg423 2.041 1_655 S
O437 C441 1.277 . S
C438 O435 1.241 . S
C438 O436 1.280 . S
O439 Mg422 1.988 . S
O439 C441 1.245 . S
O440 C416 1.247 . S
O440 Mg422 2.061 1_455 S
C441 O437 1.277 . S
C441 O439 1.245 . S
O442 C416 1.289 . S
O442 Mg419 2.238 1_455 S
O442 Mg420 2.106 . S
O443 Mg420 2.079 . S
O443 C425 1.245 . S
O444 Mg423 2.038 . S
O444 C425 1.274 . S
C445 O457 1.241 . S
C445 O458 1.280 . S
C446 O459 1.277 . S
C446 O460 1.245 . S
C447 O471 1.247 . S
C447 O473 1.289 . S
Mg448 O449 1.926 1_565 S
Mg448 O458 1.984 1_565 S
Mg448 O460 1.988 . S
Mg448 O461 2.061 1_565 S
O449 Mg448 1.926 1_545 S
O449 Mg450 1.986 . S
O449 Mg451 1.920 . S
Mg450 O449 1.986 . S
Mg450 O457 2.042 . S
Mg450 O459 2.041 1_545 S
Mg450 O465 2.038 . S
Mg450 O473 2.238 1_545 S
Mg451 O449 1.920 . S
Mg451 O452 1.914 1_545 S
Mg451 O462 2.108 . S
Mg451 O464 2.093 . S
Mg451 O473 2.105 1_545 S
Mg451 O474 2.065 1_545 S
O452 Mg451 1.914 1_565 S
O452 Mg453 1.926 1_565 S
O452 Mg454 1.986 . S
Mg453 O452 1.926 1_545 S
Mg453 O467 1.984 1_545 S
Mg453 O470 1.988 . S
Mg453 O471 2.061 1_545 S
Mg454 O452 1.986 . S
Mg454 O462 2.238 1_565 S
Mg454 O466 2.042 . S
Mg454 O468 2.041 1_565 S
Mg454 O475 2.038 . S
C455 O461 1.247 . S
C455 O462 1.289 . S
C456 O474 1.245 . S
C456 O475 1.274 . S
O457 C445 1.241 . S
O457 Mg450 2.042 . S
O458 C445 1.280 . S
O458 Mg448 1.984 1_545 S
O459 C446 1.277 . S
O459 Mg450 2.041 1_565 S
O460 C446 1.245 . S
O460 Mg448 1.988 . S
O461 Mg448 2.061 1_545 S
O461 C455 1.247 . S
O462 Mg451 2.108 . S
O462 Mg454 2.238 1_545 S
O462 C455 1.289 . S
C463 O464 1.245 . S
C463 O465 1.274 . S
O464 Mg451 2.093 . S
O464 C463 1.245 . S
O465 Mg450 2.038 . S
O465 C463 1.274 . S
O466 Mg454 2.042 . S
O466 C469 1.241 . S
O467 Mg453 1.984 1_565 S
O467 C469 1.280 . S
O468 Mg454 2.041 1_545 S
O468 C472 1.277 . S
C469 O466 1.241 . S
C469 O467 1.280 . S
O470 Mg453 1.988 . S
O470 C472 1.245 . S
O471 C447 1.247 . S
O471 Mg453 2.061 1_565 S
C472 O468 1.277 . S
C472 O470 1.245 . S
O473 C447 1.289 . S
O473 Mg450 2.238 1_565 S
O473 Mg451 2.105 1_565 S
O474 Mg451 2.065 1_565 S
O474 C456 1.245 . S
O475 Mg454 2.038 . S
O475 C456 1.274 . S
C476 O488 1.241 . S
C476 O489 1.280 . S
C477 O490 1.277 . S
C477 O491 1.245 . S
C478 O502 1.247 . S
C478 O504 1.289 . S
Mg479 O480 1.910 1_554 S
Mg479 O489 1.984 1_554 S
Mg479 O491 1.988 . S
Mg479 O492 2.061 . S
O480 Mg479 1.910 1_556 S
O480 Mg481 2.003 . S
O480 Mg482 1.914 1_556 S
Mg481 O480 2.003 . S
Mg481 O488 2.042 . S
Mg481 O490 2.041 1_556 S
Mg481 O496 2.038 . S
Mg481 O504 2.238 . S
Mg482 O480 1.914 1_554 S
Mg482 O483 1.917 . S
Mg482 O493 2.106 . S
Mg482 O495 2.079 1_554 S
Mg482 O504 2.106 1_554 S
Mg482 O505 2.079 . S
O483 Mg482 1.917 . S
O483 Mg484 1.926 1_554 S
O483 Mg485 1.986 . S
Mg484 O483 1.926 1_556 S
Mg484 O498 1.984 1_556 S
Mg484 O501 1.988 . S
Mg484 O502 2.061 . S
Mg485 O483 1.986 . S
Mg485 O493 2.238 . S
Mg485 O497 2.042 . S
Mg485 O499 2.041 . S
Mg485 O506 2.038 . S
C486 O492 1.247 . S
C486 O493 1.289 . S
C487 O505 1.245 . S
C487 O506 1.274 . S
O488 C476 1.241 . S
O488 Mg481 2.042 . S
O489 C476 1.280 . S
O489 Mg479 1.984 1_556 S
O490 C477 1.277 . S
O490 Mg481 2.041 1_554 S
O491 C477 1.245 . S
O491 Mg479 1.988 . S
O492 Mg479 2.061 . S
O492 C486 1.247 . S
O493 Mg482 2.106 . S
O493 Mg485 2.238 . S
O493 C486 1.289 . S
C494 O495 1.245 . S
C494 O496 1.274 . S
O495 Mg482 2.079 1_556 S
O495 C494 1.245 . S
O496 Mg481 2.038 . S
O496 C494 1.274 . S
O497 Mg485 2.042 . S
O497 C500 1.241 . S
O498 Mg484 1.984 1_554 S
O498 C500 1.280 . S
O499 Mg485 2.041 . S
O499 C503 1.277 1_554 S
C500 O497 1.241 . S
C500 O498 1.280 . S
O501 Mg484 1.988 . S
O501 C503 1.245 . S
O502 C478 1.247 . S
O502 Mg484 2.061 . S
C503 O499 1.277 1_556 S
C503 O501 1.245 . S
O504 C478 1.289 . S
O504 Mg481 2.238 . S
O504 Mg482 2.106 1_556 S
O505 Mg482 2.079 . S
O505 C487 1.245 . S
O506 Mg485 2.038 . S
O506 C487 1.274 . S
C507 O519 1.241 . S
C507 O520 1.280 . S
C508 O521 1.277 . S
C508 O522 1.245 . S
C509 O533 1.247 . S
C509 O535 1.289 . S
Mg510 O511 1.926 . S
Mg510 O520 1.984 . S
Mg510 O522 1.988 . S
Mg510 O523 2.061 . S
O511 Mg510 1.926 . S
O511 Mg512 1.986 . S
O511 Mg513 1.917 . S
Mg512 O511 1.986 . S
Mg512 O519 2.042 . S
Mg512 O521 2.041 . S
Mg512 O527 2.038 . S
Mg512 O535 2.238 . S
Mg513 O511 1.917 . S
Mg513 O514 1.917 . S
Mg513 O524 2.106 . S
Mg513 O526 2.079 . S
Mg513 O535 2.106 . S
Mg513 O536 2.079 . S
O514 Mg513 1.917 . S
O514 Mg515 1.926 . S
O514 Mg516 1.986 . S
Mg515 O514 1.926 . S
Mg515 O529 1.984 . S
Mg515 O532 1.988 . S
Mg515 O533 2.061 . S
Mg516 O514 1.986 . S
Mg516 O524 2.238 . S
Mg516 O528 2.042 . S
Mg516 O530 2.041 . S
Mg516 O537 2.038 . S
C517 O523 1.247 . S
C517 O524 1.289 . S
C518 O536 1.245 . S
C518 O537 1.274 . S
O519 C507 1.241 . S
O519 Mg512 2.042 . S
O520 C507 1.280 . S
O520 Mg510 1.984 . S
O521 C508 1.277 . S
O521 Mg512 2.041 . S
O522 C508 1.245 . S
O522 Mg510 1.988 . S
O523 Mg510 2.061 . S
O523 C517 1.247 . S
O524 Mg513 2.106 . S
O524 Mg516 2.238 . S
O524 C517 1.289 . S
C525 O526 1.245 . S
C525 O527 1.274 . S
O526 Mg513 2.079 . S
O526 C525 1.245 . S
O527 Mg512 2.038 . S
O527 C525 1.274 . S
O528 Mg516 2.042 . S
O528 C531 1.241 . S
O529 Mg515 1.984 . S
O529 C531 1.280 . S
O530 Mg516 2.041 . S
O530 C534 1.277 . S
C531 O528 1.241 . S
C531 O529 1.280 . S
O532 Mg515 1.988 . S
O532 C534 1.245 . S
O533 C509 1.247 . S
O533 Mg515 2.061 . S
C534 O530 1.277 . S
C534 O532 1.245 . S
O535 C509 1.289 . S
O535 Mg512 2.238 . S
O535 Mg513 2.106 . S
O536 Mg513 2.079 . S
O536 C518 1.245 . S
O537 Mg516 2.038 . S
O537 C518 1.274 . S
C538 O550 1.241 . S
C538 O551 1.280 . S
C539 O552 1.277 . S
C539 O553 1.245 . S
C540 O564 1.244 1_556 S
C540 O566 1.289 . S
Mg541 O542 1.926 1_556 S
Mg541 O551 1.984 1_556 S
Mg541 O553 1.988 . S
Mg541 O554 2.062 . S
O542 Mg541 1.926 1_554 S
O542 Mg543 1.986 . S
O542 Mg544 1.917 . S
Mg543 O542 1.986 . S
Mg543 O550 2.042 . S
Mg543 O552 2.041 1_554 S
Mg543 O558 2.038 . S
Mg543 O566 2.238 1_554 S
Mg544 O542 1.917 . S
Mg544 O545 1.917 1_554 S
Mg544 O555 2.106 . S
Mg544 O557 2.079 . S
Mg544 O566 2.106 1_554 S
Mg544 O567 2.079 1_554 S
O545 Mg544 1.917 1_556 S
O545 Mg546 1.926 1_556 S
O545 Mg547 1.986 . S
Mg546 O545 1.926 1_554 S
Mg546 O560 1.984 1_554 S
Mg546 O563 1.988 . S
Mg546 O564 2.063 . S
Mg547 O545 1.986 . S
Mg547 O555 2.238 1_556 S
Mg547 O559 2.042 . S
Mg547 O561 2.041 1_556 S
Mg547 O568 2.038 . S
C548 O554 1.247 1_554 S
C548 O555 1.289 . S
C549 O567 1.245 . S
C549 O568 1.274 . S
O550 C538 1.241 . S
O550 Mg543 2.042 . S
O551 C538 1.280 . S
O551 Mg541 1.984 1_554 S
O552 C539 1.277 . S
O552 Mg543 2.041 1_556 S
O553 C539 1.245 . S
O553 Mg541 1.988 . S
O554 Mg541 2.062 . S
O554 C548 1.247 1_556 S
O555 Mg544 2.106 . S
O555 Mg547 2.238 1_554 S
O555 C548 1.289 . S
C556 O557 1.245 . S
C556 O558 1.274 . S
O557 Mg544 2.079 . S
O557 C556 1.245 . S
O558 Mg543 2.038 . S
O558 C556 1.274 . S
O559 Mg547 2.042 . S
O559 C562 1.241 . S
O560 Mg546 1.984 1_556 S
O560 C562 1.280 . S
O561 Mg547 2.041 1_554 S
O561 C565 1.277 . S
C562 O559 1.241 . S
C562 O560 1.280 . S
O563 Mg546 1.988 . S
O563 C565 1.245 . S
O564 C540 1.244 1_554 S
O564 Mg546 2.063 . S
C565 O561 1.277 . S
C565 O563 1.245 . S
O566 C540 1.289 . S
O566 Mg543 2.238 1_556 S
O566 Mg544 2.106 1_556 S
O567 Mg544 2.079 1_556 S
O567 C549 1.245 . S
O568 Mg547 2.038 . S
O568 C549 1.274 . S
C569 O581 1.241 . S
C569 O582 1.280 . S
C570 O583 1.277 . S
C570 O584 1.245 . S
C571 O595 1.247 . S
C571 O597 1.289 . S
Mg572 O573 1.926 . S
Mg572 O582 1.984 . S
Mg572 O584 1.988 . S
Mg572 O585 2.061 . S
O573 Mg572 1.926 . S
O573 Mg574 1.986 . S
O573 Mg575 1.917 . S
Mg574 O573 1.986 . S
Mg574 O581 2.042 . S
Mg574 O583 2.041 . S
Mg574 O589 2.038 . S
Mg574 O597 2.238 . S
Mg575 O573 1.917 . S
Mg575 O576 1.917 . S
Mg575 O586 2.106 . S
Mg575 O588 2.079 . S
Mg575 O597 2.106 . S
Mg575 O598 2.079 . S
O576 Mg575 1.917 . S
O576 Mg577 1.926 . S
O576 Mg578 1.986 . S
Mg577 O576 1.926 . S
Mg577 O591 1.984 . S
Mg577 O594 1.988 . S
Mg577 O595 2.061 . S
Mg578 O576 1.986 . S
Mg578 O586 2.238 . S
Mg578 O590 2.042 . S
Mg578 O592 2.041 . S
Mg578 O599 2.038 . S
C579 O585 1.247 . S
C579 O586 1.289 . S
C580 O598 1.245 . S
C580 O599 1.274 . S
O581 C569 1.241 . S
O581 Mg574 2.042 . S
O582 C569 1.280 . S
O582 Mg572 1.984 . S
O583 C570 1.277 . S
O583 Mg574 2.041 . S
O584 C570 1.245 . S
O584 Mg572 1.988 . S
O585 Mg572 2.061 . S
O585 C579 1.247 . S
O586 Mg575 2.106 . S
O586 Mg578 2.238 . S
O586 C579 1.289 . S
C587 O588 1.245 . S
C587 O589 1.274 . S
O588 Mg575 2.079 . S
O588 C587 1.245 . S
O589 Mg574 2.038 . S
O589 C587 1.274 . S
O590 Mg578 2.042 . S
O590 C593 1.241 . S
O591 Mg577 1.984 . S
O591 C593 1.280 . S
O592 Mg578 2.041 . S
O592 C596 1.277 . S
C593 O590 1.241 . S
C593 O591 1.280 . S
O594 Mg577 1.988 . S
O594 C596 1.245 . S
O595 C571 1.247 . S
O595 Mg577 2.061 . S
C596 O592 1.277 . S
C596 O594 1.245 . S
O597 C571 1.289 . S
O597 Mg574 2.238 . S
O597 Mg575 2.106 . S
O598 Mg575 2.079 . S
O598 C580 1.245 . S
O599 Mg578 2.038 . S
O599 C580 1.274 . S
C600 O612 1.241 . S
C600 O613 1.280 . S
C601 O614 1.277 . S
C601 O615 1.245 . S
C602 O626 1.247 . S
C602 O628 1.289 . S
Mg603 O604 1.926 . S
Mg603 O613 1.984 . S
Mg603 O615 1.988 . S
Mg603 O616 2.061 . S
O604 Mg603 1.926 . S
O604 Mg605 1.986 . S
O604 Mg606 1.917 . S
Mg605 O604 1.986 . S
Mg605 O612 2.042 . S
Mg605 O614 2.041 . S
Mg605 O620 2.038 . S
Mg605 O628 2.238 . S
Mg606 O604 1.917 . S
Mg606 O607 1.917 . S
Mg606 O617 2.106 . S
Mg606 O619 2.079 . S
Mg606 O628 2.106 . S
Mg606 O629 2.079 . S
O607 Mg606 1.917 . S
O607 Mg608 1.926 . S
O607 Mg609 1.986 . S
Mg608 O607 1.926 . S
Mg608 O622 1.984 . S
Mg608 O625 1.988 . S
Mg608 O626 2.061 . S
Mg609 O607 1.986 . S
Mg609 O617 2.238 . S
Mg609 O621 2.042 . S
Mg609 O623 2.041 . S
Mg609 O630 2.038 . S
C610 O616 1.247 . S
C610 O617 1.289 . S
C611 O629 1.245 . S
C611 O630 1.274 . S
O612 C600 1.241 . S
O612 Mg605 2.042 . S
O613 C600 1.280 . S
O613 Mg603 1.984 . S
O614 C601 1.277 . S
O614 Mg605 2.041 . S
O615 C601 1.245 . S
O615 Mg603 1.988 . S
O616 Mg603 2.061 . S
O616 C610 1.247 . S
O617 Mg606 2.106 . S
O617 Mg609 2.238 . S
O617 C610 1.289 . S
C618 O619 1.245 . S
C618 O620 1.274 . S
O619 Mg606 2.079 . S
O619 C618 1.245 . S
O620 Mg605 2.038 . S
O620 C618 1.274 . S
O621 Mg609 2.042 . S
O621 C624 1.241 . S
O622 Mg608 1.984 . S
O622 C624 1.280 . S
O623 Mg609 2.041 . S
O623 C627 1.277 . S
C624 O621 1.241 . S
C624 O622 1.280 . S
O625 Mg608 1.988 . S
O625 C627 1.245 . S
O626 C602 1.247 . S
O626 Mg608 2.061 . S
C627 O623 1.277 . S
C627 O625 1.245 . S
O628 C602 1.289 . S
O628 Mg605 2.238 . S
O628 Mg606 2.106 . S
O629 Mg606 2.079 . S
O629 C611 1.245 . S
O630 Mg609 2.038 . S
O630 C611 1.274 . S
C631 O643 1.241 . S
C631 O644 1.280 . S
C632 O645 1.277 . S
C632 O646 1.245 . S
C633 O657 1.247 . S
C633 O659 1.289 . S
Mg634 O635 1.926 . S
Mg634 O644 1.984 . S
Mg634 O646 1.988 . S
Mg634 O647 2.061 . S
O635 Mg634 1.926 . S
O635 Mg636 1.986 . S
O635 Mg637 1.917 . S
Mg636 O635 1.986 . S
Mg636 O643 2.042 . S
Mg636 O645 2.041 . S
Mg636 O651 2.038 . S
Mg636 O659 2.238 . S
Mg637 O635 1.917 . S
Mg637 O638 1.917 . S
Mg637 O648 2.106 . S
Mg637 O650 2.079 . S
Mg637 O659 2.106 . S
Mg637 O660 2.079 . S
O638 Mg637 1.917 . S
O638 Mg639 1.926 . S
O638 Mg640 1.986 . S
Mg639 O638 1.926 . S
Mg639 O653 1.984 . S
Mg639 O656 1.988 . S
Mg639 O657 2.061 . S
Mg640 O638 1.986 . S
Mg640 O648 2.238 . S
Mg640 O652 2.042 . S
Mg640 O654 2.041 . S
Mg640 O661 2.038 . S
C641 O647 1.247 . S
C641 O648 1.289 . S
C642 O660 1.245 . S
C642 O661 1.274 . S
O643 C631 1.241 . S
O643 Mg636 2.042 . S
O644 C631 1.280 . S
O644 Mg634 1.984 . S
O645 C632 1.277 . S
O645 Mg636 2.041 . S
O646 C632 1.245 . S
O646 Mg634 1.988 . S
O647 Mg634 2.061 . S
O647 C641 1.247 . S
O648 Mg637 2.106 . S
O648 Mg640 2.238 . S
O648 C641 1.289 . S
C649 O650 1.245 . S
C649 O651 1.274 . S
O650 Mg637 2.079 . S
O650 C649 1.245 . S
O651 Mg636 2.038 . S
O651 C649 1.274 . S
O652 Mg640 2.042 . S
O652 C655 1.241 . S
O653 Mg639 1.984 . S
O653 C655 1.280 . S
O654 Mg640 2.041 . S
O654 C658 1.277 . S
C655 O652 1.241 . S
C655 O653 1.280 . S
O656 Mg639 1.988 . S
O656 C658 1.245 . S
O657 C633 1.247 . S
O657 Mg639 2.061 . S
C658 O654 1.277 . S
C658 O656 1.245 . S
O659 C633 1.289 . S
O659 Mg636 2.238 . S
O659 Mg637 2.106 . S
O660 Mg637 2.079 . S
O660 C642 1.245 . S
O661 Mg640 2.038 . S
O661 C642 1.274 . S
C662 O674 1.241 . S
C662 O675 1.280 . S
C663 O676 1.277 . S
C663 O677 1.245 . S
C664 O688 1.247 . S
C664 O690 1.289 . S
Mg665 O666 1.926 1_565 S
Mg665 O675 1.984 1_565 S
Mg665 O677 1.988 . S
Mg665 O678 2.061 1_565 S
O666 Mg665 1.926 1_545 S
O666 Mg667 1.986 . S
O666 Mg668 1.922 . S
Mg667 O666 1.986 . S
Mg667 O674 2.042 . S
Mg667 O676 2.041 1_545 S
Mg667 O682 2.038 . S
Mg667 O690 2.238 1_545 S
Mg668 O666 1.922 . S
Mg668 O669 1.912 1_545 S
Mg668 O679 2.109 . S
Mg668 O681 2.101 . S
Mg668 O690 2.104 1_545 S
Mg668 O691 2.056 1_545 S
O669 Mg668 1.912 1_565 S
O669 Mg670 1.926 1_565 S
O669 Mg671 1.986 . S
Mg670 O669 1.926 1_545 S
Mg670 O684 1.984 1_545 S
Mg670 O687 1.988 . S
Mg670 O688 2.061 1_545 S
Mg671 O669 1.986 . S
Mg671 O679 2.238 1_565 S
Mg671 O683 2.042 . S
Mg671 O685 2.041 1_565 S
Mg671 O692 2.038 . S
C672 O678 1.247 . S
C672 O679 1.289 . S
C673 O691 1.245 . S
C673 O692 1.274 . S
O674 C662 1.241 . S
O674 Mg667 2.042 . S
O675 C662 1.280 . S
O675 Mg665 1.984 1_545 S
O676 C663 1.277 . S
O676 Mg667 2.041 1_565 S
O677 C663 1.245 . S
O677 Mg665 1.988 . S
O678 Mg665 2.061 1_545 S
O678 C672 1.247 . S
O679 Mg668 2.109 . S
O679 Mg671 2.238 1_545 S
O679 C672 1.289 . S
C680 O681 1.245 . S
C680 O682 1.274 . S
O681 Mg668 2.101 . S
O681 C680 1.245 . S
O682 Mg667 2.038 . S
O682 C680 1.274 . S
O683 Mg671 2.042 . S
O683 C686 1.241 . S
O684 Mg670 1.984 1_565 S
O684 C686 1.280 . S
O685 Mg671 2.041 1_545 S
O685 C689 1.277 . S
C686 O683 1.241 . S
C686 O684 1.280 . S
O687 Mg670 1.988 . S
O687 C689 1.245 . S
O688 C664 1.247 . S
O688 Mg670 2.061 1_565 S
C689 O685 1.277 . S
C689 O687 1.245 . S
O690 C664 1.289 . S
O690 Mg667 2.238 1_565 S
O690 Mg668 2.104 1_565 S
O691 Mg668 2.056 1_565 S
O691 C673 1.245 . S
O692 Mg671 2.038 . S
O692 C673 1.274 . S
C693 O705 1.241 . S
C693 O706 1.280 . S
C694 O707 1.277 . S
C694 O708 1.245 . S
C695 O719 1.247 . S
C695 O721 1.289 . S
Mg696 O697 1.926 . S
Mg696 O706 1.984 . S
Mg696 O708 1.988 . S
Mg696 O709 2.061 . S
O697 Mg696 1.926 . S
O697 Mg698 1.986 . S
O697 Mg699 1.917 . S
Mg698 O697 1.986 . S
Mg698 O705 2.042 . S
Mg698 O707 2.041 . S
Mg698 O713 2.038 . S
Mg698 O721 2.238 . S
Mg699 O697 1.917 . S
Mg699 O700 1.917 . S
Mg699 O710 2.106 . S
Mg699 O712 2.079 . S
Mg699 O721 2.106 . S
Mg699 O722 2.079 . S
O700 Mg699 1.917 . S
O700 Mg701 1.926 . S
O700 Mg702 1.986 . S
Mg701 O700 1.926 . S
Mg701 O715 1.984 . S
Mg701 O718 1.988 . S
Mg701 O719 2.061 . S
Mg702 O700 1.986 . S
Mg702 O710 2.238 . S
Mg702 O714 2.042 . S
Mg702 O716 2.041 . S
Mg702 O723 2.038 . S
C703 O709 1.247 . S
C703 O710 1.289 . S
C704 O722 1.245 . S
C704 O723 1.274 . S
O705 C693 1.241 . S
O705 Mg698 2.042 . S
O706 C693 1.280 . S
O706 Mg696 1.984 . S
O707 C694 1.277 . S
O707 Mg698 2.041 . S
O708 C694 1.245 . S
O708 Mg696 1.988 . S
O709 Mg696 2.061 . S
O709 C703 1.247 . S
O710 Mg699 2.106 . S
O710 Mg702 2.238 . S
O710 C703 1.289 . S
C711 O712 1.245 . S
C711 O713 1.274 . S
O712 Mg699 2.079 . S
O712 C711 1.245 . S
O713 Mg698 2.038 . S
O713 C711 1.274 . S
O714 Mg702 2.042 . S
O714 C717 1.241 . S
O715 Mg701 1.984 . S
O715 C717 1.280 . S
O716 Mg702 2.041 . S
O716 C720 1.277 . S
C717 O714 1.241 . S
C717 O715 1.280 . S
O718 Mg701 1.988 . S
O718 C720 1.245 . S
O719 C695 1.247 . S
O719 Mg701 2.061 . S
C720 O716 1.277 . S
C720 O718 1.245 . S
O721 C695 1.289 . S
O721 Mg698 2.238 . S
O721 Mg699 2.106 . S
O722 Mg699 2.079 . S
O722 C704 1.245 . S
O723 Mg702 2.038 . S
O723 C704 1.274 . S
H724 C730 0.930 . S
H725 C733 0.930 . S
H726 C734 0.930 . S
H727 C735 0.930 . S
H728 C738 0.930 . S
H729 C739 0.930 . S
C730 H724 0.930 . S
C730 C731 1.355 . S
C730 C732 1.415 . S
C731 C730 1.355 . S
C731 C733 1.419 . S
C732 C730 1.415 . S
C732 C737 1.425 . S
C732 C739 1.409 . S
C733 H725 0.930 . S
C733 C731 1.419 . S
C733 C734 1.362 . S
C734 H726 0.930 . S
C734 C733 1.362 . S
C734 C737 1.409 . S
C735 H727 0.930 . S
C735 C736 1.355 . S
C735 C737 1.415 . S
C736 C735 1.355 . S
C736 C738 1.419 . S
C737 C732 1.425 . S
C737 C734 1.409 . S
C737 C735 1.415 . S
C738 H728 0.930 . S
C738 C736 1.419 . S
C738 C739 1.362 . S
C739 H729 0.930 . S
C739 C732 1.409 . S
C739 C738 1.362 . S
H740 C746 0.930 . S
H741 C749 0.930 . S
H742 C750 0.930 . S
H743 C751 0.930 . S
H744 C754 0.930 . S
H745 C755 0.930 . S
C746 H740 0.930 . S
C746 C747 1.355 . S
C746 C748 1.415 . S
C747 C746 1.355 . S
C747 C749 1.419 . S
C748 C746 1.415 . S
C748 C753 1.425 . S
C748 C755 1.409 . S
C749 H741 0.930 . S
C749 C747 1.419 . S
C749 C750 1.362 . S
C750 H742 0.930 . S
C750 C749 1.362 . S
C750 C753 1.409 . S
C751 H743 0.930 . S
C751 C752 1.355 . S
C751 C753 1.415 . S
C752 C751 1.355 . S
C752 C754 1.419 . S
C753 C748 1.425 . S
C753 C750 1.409 . S
C753 C751 1.415 . S
C754 H744 0.930 . S
C754 C752 1.419 . S
C754 C755 1.362 . S
C755 H745 0.930 . S
C755 C748 1.409 . S
C755 C754 1.362 . S
H756 C762 0.930 . S
H757 C765 0.930 . S
H758 C766 0.930 . S
H759 C767 0.930 . S
H760 C770 0.930 . S
H761 C771 0.930 . S
C762 H756 0.930 . S
C762 C763 1.355 . S
C762 C764 1.415 . S
C763 C762 1.355 . S
C763 C765 1.419 . S
C764 C762 1.415 . S
C764 C769 1.425 . S
C764 C771 1.409 . S
C765 H757 0.930 . S
C765 C763 1.419 . S
C765 C766 1.362 . S
C766 H758 0.930 . S
C766 C765 1.362 . S
C766 C769 1.409 . S
C767 H759 0.930 . S
C767 C768 1.355 . S
C767 C769 1.415 . S
C768 C767 1.355 . S
C768 C770 1.419 . S
C769 C764 1.425 . S
C769 C766 1.409 . S
C769 C767 1.415 . S
C770 H760 0.930 . S
C770 C768 1.419 . S
C770 C771 1.362 . S
C771 H761 0.930 . S
C771 C764 1.409 . S
C771 C770 1.362 . S
H772 C778 0.930 . S
H773 C781 0.930 . S
H774 C782 0.930 . S
H775 C783 0.930 . S
H776 C786 0.930 . S
H777 C787 0.930 . S
C778 H772 0.930 . S
C778 C779 1.355 . S
C778 C780 1.415 . S
C779 C778 1.355 . S
C779 C781 1.419 . S
C780 C778 1.415 . S
C780 C785 1.425 . S
C780 C787 1.409 . S
C781 H773 0.930 . S
C781 C779 1.419 . S
C781 C782 1.362 . S
C782 H774 0.930 . S
C782 C781 1.362 . S
C782 C785 1.409 . S
C783 H775 0.930 . S
C783 C784 1.355 . S
C783 C785 1.415 . S
C784 C783 1.355 . S
C784 C786 1.419 . S
C785 C780 1.425 . S
C785 C782 1.409 . S
C785 C783 1.415 . S
C786 H776 0.930 . S
C786 C784 1.419 . S
C786 C787 1.362 . S
C787 H777 0.930 . S
C787 C780 1.409 . S
C787 C786 1.362 . S
H788 C794 0.930 . S
H789 C797 0.930 . S
H790 C798 0.930 . S
H791 C799 0.930 . S
H792 C802 0.930 . S
H793 C803 0.930 . S
C794 H788 0.930 . S
C794 C795 1.355 . S
C794 C796 1.415 . S
C795 C794 1.355 . S
C795 C797 1.419 . S
C796 C794 1.415 . S
C796 C801 1.425 . S
C796 C803 1.409 . S
C797 H789 0.930 . S
C797 C795 1.419 . S
C797 C798 1.362 . S
C798 H790 0.930 . S
C798 C797 1.362 . S
C798 C801 1.409 . S
C799 H791 0.930 . S
C799 C800 1.355 . S
C799 C801 1.415 . S
C800 C799 1.355 . S
C800 C802 1.419 . S
C801 C796 1.425 . S
C801 C798 1.409 . S
C801 C799 1.415 . S
C802 H792 0.930 . S
C802 C800 1.419 . S
C802 C803 1.362 . S
C803 H793 0.930 . S
C803 C796 1.409 . S
C803 C802 1.362 . S
H804 C810 0.930 . S
H805 C813 0.930 . S
H806 C814 0.930 . S
H807 C815 0.930 . S
H808 C818 0.930 . S
H809 C819 0.930 . S
C810 H804 0.930 . S
C810 C811 1.355 . S
C810 C812 1.415 . S
C811 C810 1.355 . S
C811 C813 1.419 . S
C812 C810 1.415 . S
C812 C817 1.425 . S
C812 C819 1.409 . S
C813 H805 0.930 . S
C813 C811 1.419 . S
C813 C814 1.362 . S
C814 H806 0.930 . S
C814 C813 1.362 . S
C814 C817 1.409 . S
C815 H807 0.930 . S
C815 C816 1.355 . S
C815 C817 1.415 . S
C816 C815 1.355 . S
C816 C818 1.419 . S
C817 C812 1.425 . S
C817 C814 1.409 . S
C817 C815 1.415 . S
C818 H808 0.930 . S
C818 C816 1.419 . S
C818 C819 1.362 . S
C819 H809 0.930 . S
C819 C812 1.409 . S
C819 C818 1.362 . S
H820 C826 0.930 . S
H821 C829 0.930 . S
H822 C830 0.930 . S
H823 C831 0.930 . S
H824 C834 0.930 . S
H825 C835 0.930 . S
C826 H820 0.930 . S
C826 C827 1.355 . S
C826 C828 1.415 . S
C827 C826 1.355 . S
C827 C829 1.419 . S
C828 C826 1.415 . S
C828 C833 1.425 . S
C828 C835 1.409 . S
C829 H821 0.930 . S
C829 C827 1.419 . S
C829 C830 1.362 . S
C830 H822 0.930 . S
C830 C829 1.362 . S
C830 C833 1.409 . S
C831 H823 0.930 . S
C831 C832 1.355 . S
C831 C833 1.415 . S
C832 C831 1.355 . S
C832 C834 1.419 . S
C833 C828 1.425 . S
C833 C830 1.409 . S
C833 C831 1.415 . S
C834 H824 0.930 . S
C834 C832 1.419 . S
C834 C835 1.362 . S
C835 H825 0.930 . S
C835 C828 1.409 . S
C835 C834 1.362 . S
H836 C842 0.930 . S
H837 C845 0.930 . S
H838 C846 0.930 . S
H839 C847 0.930 . S
H840 C850 0.930 . S
H841 C851 0.930 . S
C842 H836 0.930 . S
C842 C843 1.355 . S
C842 C844 1.415 . S
C843 C842 1.355 . S
C843 C845 1.419 . S
C844 C842 1.415 . S
C844 C849 1.425 . S
C844 C851 1.409 . S
C845 H837 0.930 . S
C845 C843 1.419 . S
C845 C846 1.362 . S
C846 H838 0.930 . S
C846 C845 1.362 . S
C846 C849 1.409 . S
C847 H839 0.930 . S
C847 C848 1.355 . S
C847 C849 1.415 . S
C848 C847 1.355 . S
C848 C850 1.419 . S
C849 C844 1.425 . S
C849 C846 1.409 . S
C849 C847 1.415 . S
C850 H840 0.930 . S
C850 C848 1.419 . S
C850 C851 1.362 . S
C851 H841 0.930 . S
C851 C844 1.409 . S
C851 C850 1.362 . S
H852 C858 0.930 . S
H853 C861 0.930 . S
H854 C862 0.935 . S
H855 C863 0.930 . S
H856 C866 0.930 . S
H857 C867 0.930 . S
C858 H852 0.930 . S
C858 C859 1.355 . S
C858 C860 1.415 . S
C859 C858 1.355 . S
C859 C861 1.419 . S
C860 C858 1.415 . S
C860 C865 1.425 . S
C860 C867 1.409 . S
C861 H853 0.930 . S
C861 C859 1.419 . S
C861 C862 1.362 . S
C862 H854 0.935 . S
C862 C861 1.362 . S
C862 C865 1.409 . S
C863 H855 0.930 . S
C863 C864 1.355 . S
C863 C865 1.415 . S
C864 C863 1.355 . S
C864 C866 1.419 . S
C865 C860 1.425 . S
C865 C862 1.409 . S
C865 C863 1.415 . S
C866 H856 0.930 . S
C866 C864 1.419 . S
C866 C867 1.362 . S
C867 H857 0.930 . S
C867 C860 1.409 . S
C867 C866 1.362 . S
H868 C874 0.930 . S
H869 C877 0.930 . S
H870 C878 0.930 . S
H871 C879 0.930 . S
H872 C882 0.930 . S
H873 C883 0.930 . S
C874 H868 0.930 . S
C874 C875 1.355 . S
C874 C876 1.415 . S
C875 C874 1.355 . S
C875 C877 1.419 . S
C876 C874 1.415 . S
C876 C881 1.425 . S
C876 C883 1.409 . S
C877 H869 0.930 . S
C877 C875 1.419 . S
C877 C878 1.362 . S
C878 H870 0.930 . S
C878 C877 1.362 . S
C878 C881 1.409 . S
C879 H871 0.930 . S
C879 C880 1.355 . S
C879 C881 1.415 . S
C880 C879 1.355 . S
C880 C882 1.419 . S
C881 C876 1.425 . S
C881 C878 1.409 . S
C881 C879 1.415 . S
C882 H872 0.930 . S
C882 C880 1.419 . S
C882 C883 1.362 . S
C883 H873 0.930 . S
C883 C876 1.409 . S
C883 C882 1.362 . S
H884 C890 0.930 . S
H885 C893 0.930 . S
H886 C894 0.930 . S
H887 C895 0.930 . S
H888 C898 0.930 . S
H889 C899 0.930 . S
C890 H884 0.930 . S
C890 C891 1.355 . S
C890 C892 1.415 . S
C891 C890 1.355 . S
C891 C893 1.419 . S
C892 C890 1.415 . S
C892 C897 1.425 . S
C892 C899 1.409 . S
C893 H885 0.930 . S
C893 C891 1.419 . S
C893 C894 1.362 . S
C894 H886 0.930 . S
C894 C893 1.362 . S
C894 C897 1.409 . S
C895 H887 0.930 . S
C895 C896 1.355 . S
C895 C897 1.415 . S
C896 C895 1.355 . S
C896 C898 1.419 . S
C897 C892 1.425 . S
C897 C894 1.409 . S
C897 C895 1.415 . S
C898 H888 0.930 . S
C898 C896 1.419 . S
C898 C899 1.362 . S
C899 H889 0.930 . S
C899 C892 1.409 . S
C899 C898 1.362 . S
H900 C906 0.930 . S
H901 C909 0.930 . S
H902 C910 0.930 . S
H903 C911 0.930 . S
H904 C914 0.930 . S
H905 C915 0.930 . S
C906 H900 0.930 . S
C906 C907 1.355 . S
C906 C908 1.415 . S
C907 C906 1.355 . S
C907 C909 1.419 . S
C908 C906 1.415 . S
C908 C913 1.425 . S
C908 C915 1.409 . S
C909 H901 0.930 . S
C909 C907 1.419 . S
C909 C910 1.362 . S
C910 H902 0.930 . S
C910 C909 1.362 . S
C910 C913 1.409 . S
C911 H903 0.930 . S
C911 C912 1.355 . S
C911 C913 1.415 . S
C912 C911 1.355 . S
C912 C914 1.419 . S
C913 C908 1.425 . S
C913 C910 1.409 . S
C913 C911 1.415 . S
C914 H904 0.930 . S
C914 C912 1.419 . S
C914 C915 1.362 . S
C915 H905 0.930 . S
C915 C908 1.409 . S
C915 C914 1.362 . S
H916 C922 0.930 . S
H917 C925 0.930 . S
H918 C926 0.930 . S
H919 C927 0.930 . S
H920 C930 0.930 . S
H921 C931 0.930 . S
C922 H916 0.930 . S
C922 C923 1.355 . S
C922 C924 1.415 . S
C923 C922 1.355 . S
C923 C925 1.419 . S
C924 C922 1.415 . S
C924 C929 1.425 . S
C924 C931 1.409 . S
C925 H917 0.930 . S
C925 C923 1.419 . S
C925 C926 1.362 . S
C926 H918 0.930 . S
C926 C925 1.362 . S
C926 C929 1.409 . S
C927 H919 0.930 . S
C927 C928 1.355 . S
C927 C929 1.415 . S
C928 C927 1.355 . S
C928 C930 1.419 . S
C929 C924 1.425 . S
C929 C926 1.409 . S
C929 C927 1.415 . S
C930 H920 0.930 . S
C930 C928 1.419 . S
C930 C931 1.362 . S
C931 H921 0.930 . S
C931 C924 1.409 . S
C931 C930 1.362 . S
H932 C938 0.930 . S
H933 C941 0.930 . S
H934 C942 0.930 . S
H935 C943 0.930 1_565 S
H936 C946 0.930 . S
H937 C947 0.930 . S
C938 H932 0.930 . S
C938 C939 1.355 . S
C938 C940 1.415 . S
C939 C938 1.355 . S
C939 C941 1.419 . S
C940 C938 1.415 . S
C940 C945 1.425 . S
C940 C947 1.409 . S
C941 H933 0.930 . S
C941 C939 1.419 . S
C941 C942 1.362 . S
C942 H934 0.930 . S
C942 C941 1.362 . S
C942 C945 1.409 . S
C943 H935 0.930 1_545 S
C943 C944 1.355 . S
C943 C945 1.415 . S
C944 C943 1.355 . S
C944 C946 1.419 . S
C945 C940 1.425 . S
C945 C942 1.409 . S
C945 C943 1.415 . S
C946 H936 0.930 . S
C946 C944 1.419 . S
C946 C947 1.362 . S
C947 H937 0.930 . S
C947 C940 1.409 . S
C947 C946 1.362 . S
H948 C954 0.930 . S
H949 C957 0.930 . S
H950 C958 0.930 . S
H951 C959 0.930 . S
H952 C962 0.930 . S
H953 C963 0.930 . S
C954 H948 0.930 . S
C954 C955 1.355 . S
C954 C956 1.415 . S
C955 C954 1.355 . S
C955 C957 1.419 . S
C956 C954 1.415 . S
C956 C961 1.425 . S
C956 C963 1.409 . S
C957 H949 0.930 . S
C957 C955 1.419 . S
C957 C958 1.362 . S
C958 H950 0.930 . S
C958 C957 1.362 . S
C958 C961 1.409 . S
C959 H951 0.930 . S
C959 C960 1.355 . S
C959 C961 1.415 . S
C960 C959 1.355 . S
C960 C962 1.419 . S
C961 C956 1.425 . S
C961 C958 1.409 . S
C961 C959 1.415 . S
C962 H952 0.930 . S
C962 C960 1.419 . S
C962 C963 1.362 . S
C963 H953 0.930 . S
C963 C956 1.409 . S
C963 C962 1.362 . S
H964 C970 0.930 . S
H965 C973 0.930 . S
H966 C974 0.930 . S
H967 C975 0.930 . S
H968 C978 0.930 . S
H969 C979 0.930 . S
C970 H964 0.930 . S
C970 C971 1.355 . S
C970 C972 1.415 . S
C971 C970 1.355 . S
C971 C973 1.419 . S
C972 C970 1.415 . S
C972 C977 1.425 . S
C972 C979 1.409 . S
C973 H965 0.930 . S
C973 C971 1.419 . S
C973 C974 1.362 . S
C974 H966 0.930 . S
C974 C973 1.362 . S
C974 C977 1.409 . S
C975 H967 0.930 . S
C975 C976 1.355 . S
C975 C977 1.415 . S
C976 C975 1.355 . S
C976 C978 1.419 . S
C977 C972 1.425 . S
C977 C974 1.409 . S
C977 C975 1.415 . S
C978 H968 0.930 . S
C978 C976 1.419 . S
C978 C979 1.362 . S
C979 H969 0.930 . S
C979 C972 1.409 . S
C979 C978 1.362 . S
H980 C986 0.930 . S
H981 C989 0.930 . S
H982 C990 0.930 . S
H983 C991 0.942 . S
H984 C994 0.930 . S
H985 C995 0.930 . S
C986 H980 0.930 . S
C986 C987 1.355 . S
C986 C988 1.403 1_554 S
C987 C986 1.355 . S
C987 C989 1.419 . S
C988 C986 1.403 1_556 S
C988 C993 1.410 1_556 S
C988 C995 1.437 . S
C989 H981 0.930 . S
C989 C987 1.419 . S
C989 C990 1.362 . S
C990 H982 0.930 . S
C990 C989 1.362 . S
C990 C993 1.409 . S
C991 H983 0.942 . S
C991 C992 1.332 1_554 S
C991 C993 1.425 . S
C992 C991 1.332 1_556 S
C992 C994 1.419 . S
C993 C988 1.410 1_554 S
C993 C990 1.409 . S
C993 C991 1.425 . S
C994 H984 0.930 . S
C994 C992 1.419 . S
C994 C995 1.362 . S
C995 H985 0.930 . S
C995 C988 1.437 . S
C995 C994 1.362 . S
H996 C1002 0.930 . S
H997 C1005 0.930 . S
H998 C1006 0.930 . S
H999 C1007 0.930 . S
H1000 C1010 0.930 . S
H1001 C1011 0.930 . S
C1002 H996 0.930 . S
C1002 C1003 1.355 . S
C1002 C1004 1.415 . S
C1003 C1002 1.355 . S
C1003 C1005 1.419 . S
C1004 C1002 1.415 . S
C1004 C1009 1.425 . S
C1004 C1011 1.409 . S
C1005 H997 0.930 . S
C1005 C1003 1.419 . S
C1005 C1006 1.362 . S
C1006 H998 0.930 . S
C1006 C1005 1.362 . S
C1006 C1009 1.409 . S
C1007 H999 0.930 . S
C1007 C1008 1.355 . S
C1007 C1009 1.415 . S
C1008 C1007 1.355 . S
C1008 C1010 1.419 . S
C1009 C1004 1.425 . S
C1009 C1006 1.409 . S
C1009 C1007 1.415 . S
C1010 H1000 0.930 . S
C1010 C1008 1.419 . S
C1010 C1011 1.362 . S
C1011 H1001 0.930 . S
C1011 C1004 1.409 . S
C1011 C1010 1.362 . S
H1012 C1018 0.930 . S
H1013 C1021 0.930 . S
H1014 C1022 0.930 . S
H1015 C1023 0.930 . S
H1016 C1026 0.930 . S
H1017 C1027 0.930 . S
C1018 H1012 0.930 . S
C1018 C1019 1.355 . S
C1018 C1020 1.415 . S
C1019 C1018 1.355 . S
C1019 C1021 1.419 . S
C1020 C1018 1.415 . S
C1020 C1025 1.425 . S
C1020 C1027 1.409 . S
C1021 H1013 0.930 . S
C1021 C1019 1.419 . S
C1021 C1022 1.362 . S
C1022 H1014 0.930 . S
C1022 C1021 1.362 . S
C1022 C1025 1.409 . S
C1023 H1015 0.930 . S
C1023 C1024 1.355 . S
C1023 C1025 1.415 . S
C1024 C1023 1.355 . S
C1024 C1026 1.419 . S
C1025 C1020 1.425 . S
C1025 C1022 1.409 . S
C1025 C1023 1.415 . S
C1026 H1016 0.930 . S
C1026 C1024 1.419 . S
C1026 C1027 1.362 . S
C1027 H1017 0.930 . S
C1027 C1020 1.409 . S
C1027 C1026 1.362 . S
H1028 C1034 0.930 . S
H1029 C1037 0.930 . S
H1030 C1038 0.930 . S
H1031 C1039 0.930 . S
H1032 C1042 0.930 . S
H1033 C1043 0.930 . S
C1034 H1028 0.930 . S
C1034 C1035 1.355 . S
C1034 C1036 1.415 . S
C1035 C1034 1.355 . S
C1035 C1037 1.419 . S
C1036 C1034 1.415 . S
C1036 C1041 1.425 . S
C1036 C1043 1.409 . S
C1037 H1029 0.930 . S
C1037 C1035 1.419 . S
C1037 C1038 1.362 . S
C1038 H1030 0.930 . S
C1038 C1037 1.362 . S
C1038 C1041 1.409 . S
C1039 H1031 0.930 . S
C1039 C1040 1.355 . S
C1039 C1041 1.415 . S
C1040 C1039 1.355 . S
C1040 C1042 1.419 . S
C1041 C1036 1.425 . S
C1041 C1038 1.409 . S
C1041 C1039 1.415 . S
C1042 H1032 0.930 . S
C1042 C1040 1.419 . S
C1042 C1043 1.362 . S
C1043 H1033 0.930 . S
C1043 C1036 1.409 . S
C1043 C1042 1.362 . S
H1044 C1050 0.930 . S
H1045 C1053 0.930 . S
H1046 C1054 0.930 . S
H1047 C1055 0.930 1_455 S
H1048 C1058 0.930 . S
H1049 C1059 0.930 . S
C1050 H1044 0.930 . S
C1050 C1051 1.355 . S
C1050 C1052 1.415 . S
C1051 C1050 1.355 . S
C1051 C1053 1.419 . S
C1052 C1050 1.415 . S
C1052 C1057 1.425 . S
C1052 C1059 1.409 . S
C1053 H1045 0.930 . S
C1053 C1051 1.419 . S
C1053 C1054 1.362 . S
C1054 H1046 0.930 . S
C1054 C1053 1.362 . S
C1054 C1057 1.409 . S
C1055 H1047 0.930 1_655 S
C1055 C1056 1.355 . S
C1055 C1057 1.415 . S
C1056 C1055 1.355 . S
C1056 C1058 1.419 . S
C1057 C1052 1.425 . S
C1057 C1054 1.409 . S
C1057 C1055 1.415 . S
C1058 H1048 0.930 . S
C1058 C1056 1.419 . S
C1058 C1059 1.362 . S
C1059 H1049 0.930 . S
C1059 C1052 1.409 . S
C1059 C1058 1.362 . S
H1060 C1066 0.930 . S
H1061 C1069 0.930 . S
H1062 C1070 0.930 . S
H1063 C1071 0.930 . S
H1064 C1074 0.930 . S
H1065 C1075 0.930 . S
C1066 H1060 0.930 . S
C1066 C1067 1.355 . S
C1066 C1068 1.415 . S
C1067 C1066 1.355 . S
C1067 C1069 1.419 . S
C1068 C1066 1.415 . S
C1068 C1073 1.425 . S
C1068 C1075 1.409 . S
C1069 H1061 0.930 . S
C1069 C1067 1.419 . S
C1069 C1070 1.362 . S
C1070 H1062 0.930 . S
C1070 C1069 1.362 . S
C1070 C1073 1.409 . S
C1071 H1063 0.930 . S
C1071 C1072 1.355 . S
C1071 C1073 1.415 . S
C1072 C1071 1.355 . S
C1072 C1074 1.419 . S
C1073 C1068 1.425 . S
C1073 C1070 1.409 . S
C1073 C1071 1.415 . S
C1074 H1064 0.930 . S
C1074 C1072 1.419 . S
C1074 C1075 1.362 . S
C1075 H1065 0.930 . S
C1075 C1068 1.409 . S
C1075 C1074 1.362 . S
H1076 C1082 0.930 . S
H1077 C1085 0.930 . S
H1078 C1086 0.930 . S
H1079 C1087 0.930 . S
H1080 C1090 0.930 . S
H1081 C1091 0.930 . S
C1082 H1076 0.930 . S
C1082 C1083 1.355 . S
C1082 C1084 1.415 . S
C1083 C1082 1.355 . S
C1083 C1085 1.419 . S
C1084 C1082 1.415 . S
C1084 C1089 1.425 . S
C1084 C1091 1.409 . S
C1085 H1077 0.930 . S
C1085 C1083 1.419 . S
C1085 C1086 1.362 . S
C1086 H1078 0.930 . S
C1086 C1085 1.362 . S
C1086 C1089 1.409 . S
C1087 H1079 0.930 . S
C1087 C1088 1.355 . S
C1087 C1089 1.415 . S
C1088 C1087 1.355 . S
C1088 C1090 1.419 . S
C1089 C1084 1.425 . S
C1089 C1086 1.409 . S
C1089 C1087 1.415 . S
C1090 H1080 0.930 . S
C1090 C1088 1.419 . S
C1090 C1091 1.362 . S
C1091 H1081 0.930 . S
C1091 C1084 1.409 . S
C1091 C1090 1.362 . S
H1092 C1098 0.930 . S
H1093 C1101 0.930 . S
H1094 C1102 0.930 . S
H1095 C1103 0.930 . S
H1096 C1106 0.930 . S
H1097 C1107 0.930 . S
C1098 H1092 0.930 . S
C1098 C1099 1.355 . S
C1098 C1100 1.415 . S
C1099 C1098 1.355 . S
C1099 C1101 1.419 . S
C1100 C1098 1.415 . S
C1100 C1105 1.425 . S
C1100 C1107 1.409 . S
C1101 H1093 0.930 . S
C1101 C1099 1.419 . S
C1101 C1102 1.362 . S
C1102 H1094 0.930 . S
C1102 C1101 1.362 . S
C1102 C1105 1.409 . S
C1103 H1095 0.930 . S
C1103 C1104 1.355 . S
C1103 C1105 1.415 . S
C1104 C1103 1.355 . S
C1104 C1106 1.419 . S
C1105 C1100 1.425 . S
C1105 C1102 1.409 . S
C1105 C1103 1.415 . S
C1106 H1096 0.930 . S
C1106 C1104 1.419 . S
C1106 C1107 1.362 . S
C1107 H1097 0.930 . S
C1107 C1100 1.409 . S
C1107 C1106 1.362 . S
H1108 C1114 0.930 . S
H1109 C1117 0.930 . S
H1110 C1118 0.930 . S
H1111 C1119 0.930 . S
H1112 C1122 0.930 . S
H1113 C1123 0.930 . S
C1114 H1108 0.930 . S
C1114 C1115 1.355 . S
C1114 C1116 1.415 . S
C1115 C1114 1.355 . S
C1115 C1117 1.419 . S
C1116 C1114 1.415 . S
C1116 C1121 1.425 . S
C1116 C1123 1.409 . S
C1117 H1109 0.930 . S
C1117 C1115 1.419 . S
C1117 C1118 1.362 . S
C1118 H1110 0.930 . S
C1118 C1117 1.362 . S
C1118 C1121 1.409 . S
C1119 H1111 0.930 . S
C1119 C1120 1.355 . S
C1119 C1121 1.415 . S
C1120 C1119 1.355 . S
C1120 C1122 1.419 . S
C1121 C1116 1.425 . S
C1121 C1118 1.409 . S
C1121 C1119 1.415 . S
C1122 H1112 0.930 . S
C1122 C1120 1.419 . S
C1122 C1123 1.362 . S
C1123 H1113 0.930 . S
C1123 C1116 1.409 . S
C1123 C1122 1.362 . S
H1124 C1130 0.930 . S
H1125 C1133 0.930 . S
H1126 C1134 0.930 . S
H1127 C1135 0.922 1_556 S
H1128 C1138 0.930 . S
H1129 C1139 0.930 . S
C1130 H1124 0.930 . S
C1130 C1131 1.355 . S
C1130 C1132 1.415 . S
C1131 C1130 1.355 . S
C1131 C1133 1.419 . S
C1132 C1130 1.415 . S
C1132 C1137 1.425 . S
C1132 C1139 1.409 . S
C1133 H1125 0.930 . S
C1133 C1131 1.419 . S
C1133 C1134 1.362 . S
C1134 H1126 0.930 . S
C1134 C1133 1.362 . S
C1134 C1137 1.409 . S
C1135 H1127 0.922 1_554 S
C1135 C1136 1.355 1_554 S
C1135 C1137 1.415 . S
C1136 C1135 1.355 1_556 S
C1136 C1138 1.419 1_556 S
C1137 C1132 1.425 . S
C1137 C1134 1.409 . S
C1137 C1135 1.415 . S
C1138 H1128 0.930 . S
C1138 C1136 1.419 1_554 S
C1138 C1139 1.362 . S
C1139 H1129 0.930 . S
C1139 C1132 1.409 . S
C1139 C1138 1.362 . S
H1140 C1146 0.930 . S
H1141 C1149 0.930 . S
H1142 C1150 0.930 . S
H1143 C1151 0.930 . S
H1144 C1154 0.930 . S
H1145 C1155 0.930 . S
C1146 H1140 0.930 . S
C1146 C1147 1.355 . S
C1146 C1148 1.415 . S
C1147 C1146 1.355 . S
C1147 C1149 1.419 . S
C1148 C1146 1.415 . S
C1148 C1153 1.425 . S
C1148 C1155 1.409 . S
C1149 H1141 0.930 . S
C1149 C1147 1.419 . S
C1149 C1150 1.362 . S
C1150 H1142 0.930 . S
C1150 C1149 1.362 . S
C1150 C1153 1.409 . S
C1151 H1143 0.930 . S
C1151 C1152 1.355 . S
C1151 C1153 1.415 . S
C1152 C1151 1.355 . S
C1152 C1154 1.419 . S
C1153 C1148 1.425 . S
C1153 C1150 1.409 . S
C1153 C1151 1.415 . S
C1154 H1144 0.930 . S
C1154 C1152 1.419 . S
C1154 C1155 1.362 . S
C1155 H1145 0.930 . S
C1155 C1148 1.409 . S
C1155 C1154 1.362 . S
H1156 C1162 0.930 . S
H1157 C1165 0.930 . S
H1158 C1166 0.930 . S
H1159 C1167 0.930 . S
H1160 C1170 0.930 1_556 S
H1161 C1171 0.930 . S
C1162 H1156 0.930 . S
C1162 C1163 1.355 . S
C1162 C1164 1.415 . S
C1163 C1162 1.355 . S
C1163 C1165 1.419 . S
C1164 C1162 1.415 . S
C1164 C1169 1.425 . S
C1164 C1171 1.409 . S
C1165 H1157 0.930 . S
C1165 C1163 1.419 . S
C1165 C1166 1.362 . S
C1166 H1158 0.930 . S
C1166 C1165 1.362 . S
C1166 C1169 1.409 . S
C1167 H1159 0.930 . S
C1167 C1168 1.355 . S
C1167 C1169 1.415 . S
C1168 C1167 1.355 . S
C1168 C1170 1.419 . S
C1169 C1164 1.425 . S
C1169 C1166 1.409 . S
C1169 C1167 1.415 . S
C1170 H1160 0.930 1_554 S
C1170 C1168 1.419 . S
C1170 C1171 1.362 . S
C1171 H1161 0.930 . S
C1171 C1164 1.409 . S
C1171 C1170 1.362 . S
H1172 C1178 0.930 . S
H1173 C1181 0.930 . S
H1174 C1182 0.930 . S
H1175 C1183 0.930 . S
H1176 C1186 0.930 . S
H1177 C1187 0.930 . S
C1178 H1172 0.930 . S
C1178 C1179 1.355 . S
C1178 C1180 1.415 . S
C1179 C1178 1.355 . S
C1179 C1181 1.419 . S
C1180 C1178 1.415 . S
C1180 C1185 1.425 . S
C1180 C1187 1.409 . S
C1181 H1173 0.930 . S
C1181 C1179 1.419 . S
C1181 C1182 1.362 . S
C1182 H1174 0.930 . S
C1182 C1181 1.362 . S
C1182 C1185 1.409 . S
C1183 H1175 0.930 . S
C1183 C1184 1.355 . S
C1183 C1185 1.415 . S
C1184 C1183 1.355 . S
C1184 C1186 1.419 . S
C1185 C1180 1.425 . S
C1185 C1182 1.409 . S
C1185 C1183 1.415 . S
C1186 H1176 0.930 . S
C1186 C1184 1.419 . S
C1186 C1187 1.362 . S
C1187 H1177 0.930 . S
C1187 C1180 1.409 . S
C1187 C1186 1.362 . S
H1188 C1194 0.930 . S
H1189 C1197 0.930 . S
H1190 C1198 0.930 . S
H1191 C1199 0.930 . S
H1192 C1202 0.930 1_554 S
H1193 C1203 0.930 . S
C1194 H1188 0.930 . S
C1194 C1195 1.355 . S
C1194 C1196 1.415 . S
C1195 C1194 1.355 . S
C1195 C1197 1.419 . S
C1196 C1194 1.415 . S
C1196 C1201 1.425 . S
C1196 C1203 1.409 . S
C1197 H1189 0.930 . S
C1197 C1195 1.419 . S
C1197 C1198 1.362 . S
C1198 H1190 0.930 . S
C1198 C1197 1.362 . S
C1198 C1201 1.409 . S
C1199 H1191 0.930 . S
C1199 C1200 1.355 . S
C1199 C1201 1.415 . S
C1200 C1199 1.355 . S
C1200 C1202 1.419 . S
C1201 C1196 1.425 . S
C1201 C1198 1.409 . S
C1201 C1199 1.415 . S
C1202 H1192 0.930 1_556 S
C1202 C1200 1.419 . S
C1202 C1203 1.362 . S
C1203 H1193 0.930 . S
C1203 C1196 1.409 . S
C1203 C1202 1.362 . S
H1204 C1210 0.930 . S
H1205 C1213 0.930 . S
H1206 C1214 0.930 . S
H1207 C1215 0.930 . S
H1208 C1218 0.930 . S
H1209 C1219 0.930 . S
C1210 H1204 0.930 . S
C1210 C1211 1.355 . S
C1210 C1212 1.415 . S
C1211 C1210 1.355 . S
C1211 C1213 1.419 . S
C1212 C1210 1.415 . S
C1212 C1217 1.425 . S
C1212 C1219 1.409 . S
C1213 H1205 0.930 . S
C1213 C1211 1.419 . S
C1213 C1214 1.362 . S
C1214 H1206 0.930 . S
C1214 C1213 1.362 . S
C1214 C1217 1.409 . S
C1215 H1207 0.930 . S
C1215 C1216 1.355 . S
C1215 C1217 1.415 . S
C1216 C1215 1.355 . S
C1216 C1218 1.419 . S
C1217 C1212 1.425 . S
C1217 C1214 1.409 . S
C1217 C1215 1.415 . S
C1218 H1208 0.930 . S
C1218 C1216 1.419 . S
C1218 C1219 1.362 . S
C1219 H1209 0.930 . S
C1219 C1212 1.409 . S
C1219 C1218 1.362 . S
H1220 C1226 0.930 . S
H1221 C1229 0.930 . S
H1222 C1230 0.930 . S
H1223 C1231 0.930 1_554 S
H1224 C1234 0.930 . S
H1225 C1235 0.930 . S
C1226 H1220 0.930 . S
C1226 C1227 1.355 . S
C1226 C1228 1.415 . S
C1227 C1226 1.355 . S
C1227 C1229 1.419 . S
C1228 C1226 1.415 . S
C1228 C1233 1.425 . S
C1228 C1235 1.409 . S
C1229 H1221 0.930 . S
C1229 C1227 1.419 . S
C1229 C1230 1.362 . S
C1230 H1222 0.930 . S
C1230 C1229 1.362 . S
C1230 C1233 1.409 . S
C1231 H1223 0.930 1_556 S
C1231 C1232 1.355 1_556 S
C1231 C1233 1.415 . S
C1232 C1231 1.355 1_554 S
C1232 C1234 1.419 1_554 S
C1233 C1228 1.425 . S
C1233 C1230 1.409 . S
C1233 C1231 1.415 . S
C1234 H1224 0.930 . S
C1234 C1232 1.419 1_556 S
C1234 C1235 1.362 . S
C1235 H1225 0.930 . S
C1235 C1228 1.409 . S
C1235 C1234 1.362 . S
H1236 C1242 0.930 . S
H1237 C1245 0.930 . S
H1238 C1246 0.930 . S
H1239 C1247 0.930 . S
H1240 C1250 0.930 . S
H1241 C1251 0.930 . S
C1242 H1236 0.930 . S
C1242 C1243 1.355 . S
C1242 C1244 1.415 . S
C1243 C1242 1.355 . S
C1243 C1245 1.419 . S
C1244 C1242 1.415 . S
C1244 C1249 1.425 . S
C1244 C1251 1.409 . S
C1245 H1237 0.930 . S
C1245 C1243 1.419 . S
C1245 C1246 1.362 . S
C1246 H1238 0.930 . S
C1246 C1245 1.362 . S
C1246 C1249 1.409 . S
C1247 H1239 0.930 . S
C1247 C1248 1.355 . S
C1247 C1249 1.415 . S
C1248 C1247 1.355 . S
C1248 C1250 1.419 . S
C1249 C1244 1.425 . S
C1249 C1246 1.409 . S
C1249 C1247 1.415 . S
C1250 H1240 0.930 . S
C1250 C1248 1.419 . S
C1250 C1251 1.362 . S
C1251 H1241 0.930 . S
C1251 C1244 1.409 . S
C1251 C1250 1.362 . S
H1252 C1258 0.930 . S
H1253 C1261 0.930 . S
H1254 C1262 0.930 . S
H1255 C1263 0.930 . S
H1256 C1266 0.930 . S
H1257 C1267 0.930 . S
C1258 H1252 0.930 . S
C1258 C1259 1.355 . S
C1258 C1260 1.415 . S
C1259 C1258 1.355 . S
C1259 C1261 1.419 . S
C1260 C1258 1.415 . S
C1260 C1265 1.425 . S
C1260 C1267 1.409 . S
C1261 H1253 0.930 . S
C1261 C1259 1.419 . S
C1261 C1262 1.362 . S
C1262 H1254 0.930 . S
C1262 C1261 1.362 . S
C1262 C1265 1.409 . S
C1263 H1255 0.930 . S
C1263 C1264 1.355 . S
C1263 C1265 1.415 . S
C1264 C1263 1.355 . S
C1264 C1266 1.419 . S
C1265 C1260 1.425 . S
C1265 C1262 1.409 . S
C1265 C1263 1.415 . S
C1266 H1256 0.930 . S
C1266 C1264 1.419 . S
C1266 C1267 1.362 . S
C1267 H1257 0.930 . S
C1267 C1260 1.409 . S
C1267 C1266 1.362 . S
H1268 C1274 0.930 . S
H1269 C1277 0.930 . S
H1270 C1278 0.930 . S
H1271 C1279 0.930 . S
H1272 C1282 0.930 . S
H1273 C1283 0.930 . S
C1274 H1268 0.930 . S
C1274 C1275 1.355 . S
C1274 C1276 1.415 . S
C1275 C1274 1.355 . S
C1275 C1277 1.419 . S
C1276 C1274 1.415 . S
C1276 C1281 1.425 . S
C1276 C1283 1.409 . S
C1277 H1269 0.930 . S
C1277 C1275 1.419 . S
C1277 C1278 1.362 . S
C1278 H1270 0.930 . S
C1278 C1277 1.362 . S
C1278 C1281 1.409 . S
C1279 H1271 0.930 . S
C1279 C1280 1.355 . S
C1279 C1281 1.415 . S
C1280 C1279 1.355 . S
C1280 C1282 1.419 . S
C1281 C1276 1.425 . S
C1281 C1278 1.409 . S
C1281 C1279 1.415 . S
C1282 H1272 0.930 . S
C1282 C1280 1.419 . S
C1282 C1283 1.362 . S
C1283 H1273 0.930 . S
C1283 C1276 1.409 . S
C1283 C1282 1.362 . S
H1284 C1290 0.930 . S
H1285 C1293 0.930 . S
H1286 C1294 0.930 . S
H1287 C1295 0.930 . S
H1288 C1298 0.930 . S
H1289 C1299 0.930 . S
C1290 H1284 0.930 . S
C1290 C1291 1.355 . S
C1290 C1292 1.415 . S
C1291 C1290 1.355 . S
C1291 C1293 1.419 . S
C1292 C1290 1.415 . S
C1292 C1297 1.425 . S
C1292 C1299 1.409 . S
C1293 H1285 0.930 . S
C1293 C1291 1.419 . S
C1293 C1294 1.362 . S
C1294 H1286 0.930 . S
C1294 C1293 1.362 . S
C1294 C1297 1.409 . S
C1295 H1287 0.930 . S
C1295 C1296 1.355 . S
C1295 C1297 1.415 . S
C1296 C1295 1.355 . S
C1296 C1298 1.419 . S
C1297 C1292 1.425 . S
C1297 C1294 1.409 . S
C1297 C1295 1.415 . S
C1298 H1288 0.930 . S
C1298 C1296 1.419 . S
C1298 C1299 1.362 . S
C1299 H1289 0.930 . S
C1299 C1292 1.409 . S
C1299 C1298 1.362 . S
H1300 C1306 0.930 . S
H1301 C1309 0.930 . S
H1302 C1310 0.930 . S
H1303 C1311 0.930 . S
H1304 C1314 0.930 . S
H1305 C1315 0.930 . S
C1306 H1300 0.930 . S
C1306 C1307 1.355 . S
C1306 C1308 1.415 . S
C1307 C1306 1.355 . S
C1307 C1309 1.419 . S
C1308 C1306 1.415 . S
C1308 C1313 1.425 . S
C1308 C1315 1.409 . S
C1309 H1301 0.930 . S
C1309 C1307 1.419 . S
C1309 C1310 1.362 . S
C1310 H1302 0.930 . S
C1310 C1309 1.362 . S
C1310 C1313 1.409 . S
C1311 H1303 0.930 . S
C1311 C1312 1.355 . S
C1311 C1313 1.415 . S
C1312 C1311 1.355 . S
C1312 C1314 1.419 . S
C1313 C1308 1.425 . S
C1313 C1310 1.409 . S
C1313 C1311 1.415 . S
C1314 H1304 0.930 . S
C1314 C1312 1.419 . S
C1314 C1315 1.362 . S
C1315 H1305 0.930 . S
C1315 C1308 1.409 . S
C1315 C1314 1.362 . S
H1316 C1322 0.930 . S
H1317 C1325 0.930 . S
H1318 C1326 0.930 . S
H1319 C1327 0.930 . S
H1320 C1330 0.930 . S
H1321 C1331 0.930 . S
C1322 H1316 0.930 . S
C1322 C1323 1.355 . S
C1322 C1324 1.415 . S
C1323 C1322 1.355 . S
C1323 C1325 1.419 . S
C1324 C1322 1.415 . S
C1324 C1329 1.425 . S
C1324 C1331 1.409 . S
C1325 H1317 0.930 . S
C1325 C1323 1.419 . S
C1325 C1326 1.362 . S
C1326 H1318 0.930 . S
C1326 C1325 1.362 . S
C1326 C1329 1.409 . S
C1327 H1319 0.930 . S
C1327 C1328 1.355 . S
C1327 C1329 1.415 . S
C1328 C1327 1.355 . S
C1328 C1330 1.419 . S
C1329 C1324 1.425 . S
C1329 C1326 1.409 . S
C1329 C1327 1.415 . S
C1330 H1320 0.930 . S
C1330 C1328 1.419 . S
C1330 C1331 1.362 . S
C1331 H1321 0.930 . S
C1331 C1324 1.409 . S
C1331 C1330 1.362 . S
H1332 C1338 0.930 . S
H1333 C1341 0.930 . S
H1334 C1342 0.930 . S
H1335 C1343 0.930 . S
H1336 C1346 0.930 . S
H1337 C1347 0.930 . S
C1338 H1332 0.930 . S
C1338 C1339 1.355 . S
C1338 C1340 1.415 . S
C1339 C1338 1.355 . S
C1339 C1341 1.419 . S
C1340 C1338 1.415 . S
C1340 C1345 1.425 . S
C1340 C1347 1.409 . S
C1341 H1333 0.930 . S
C1341 C1339 1.419 . S
C1341 C1342 1.362 . S
C1342 H1334 0.930 . S
C1342 C1341 1.362 . S
C1342 C1345 1.409 . S
C1343 H1335 0.930 . S
C1343 C1344 1.355 . S
C1343 C1345 1.415 . S
C1344 C1343 1.355 . S
C1344 C1346 1.419 . S
C1345 C1340 1.425 . S
C1345 C1342 1.409 . S
C1345 C1343 1.415 . S
C1346 H1336 0.930 . S
C1346 C1344 1.419 . S
C1346 C1347 1.362 . S
C1347 H1337 0.930 . S
C1347 C1340 1.409 . S
C1347 C1346 1.362 . S
H1348 C1354 0.930 . S
H1349 C1357 0.930 . S
H1350 C1358 0.930 . S
H1351 C1359 0.930 . S
H1352 C1362 0.930 1_545 S
H1353 C1363 0.930 . S
C1354 H1348 0.930 . S
C1354 C1355 1.355 . S
C1354 C1356 1.415 . S
C1355 C1354 1.355 . S
C1355 C1357 1.419 . S
C1356 C1354 1.415 . S
C1356 C1361 1.425 . S
C1356 C1363 1.409 . S
C1357 H1349 0.930 . S
C1357 C1355 1.419 . S
C1357 C1358 1.362 . S
C1358 H1350 0.930 . S
C1358 C1357 1.362 . S
C1358 C1361 1.409 . S
C1359 H1351 0.930 . S
C1359 C1360 1.355 . S
C1359 C1361 1.415 . S
C1360 C1359 1.355 . S
C1360 C1362 1.419 . S
C1361 C1356 1.425 . S
C1361 C1358 1.409 . S
C1361 C1359 1.415 . S
C1362 H1352 0.930 1_565 S
C1362 C1360 1.419 . S
C1362 C1363 1.362 . S
C1363 H1353 0.930 . S
C1363 C1356 1.409 . S
C1363 C1362 1.362 . S
H1364 C1370 0.930 . S
H1365 C1373 0.930 . S
H1366 C1374 0.930 . S
H1367 C1375 0.930 . S
H1368 C1378 0.930 . S
H1369 C1379 0.930 . S
C1370 H1364 0.930 . S
C1370 C1371 1.355 . S
C1370 C1372 1.415 . S
C1371 C1370 1.355 . S
C1371 C1373 1.419 . S
C1372 C1370 1.415 . S
C1372 C1377 1.425 . S
C1372 C1379 1.409 . S
C1373 H1365 0.930 . S
C1373 C1371 1.419 . S
C1373 C1374 1.362 . S
C1374 H1366 0.930 . S
C1374 C1373 1.362 . S
C1374 C1377 1.409 . S
C1375 H1367 0.930 . S
C1375 C1376 1.355 . S
C1375 C1377 1.415 . S
C1376 C1375 1.355 . S
C1376 C1378 1.419 . S
C1377 C1372 1.425 . S
C1377 C1374 1.409 . S
C1377 C1375 1.415 . S
C1378 H1368 0.930 . S
C1378 C1376 1.419 . S
C1378 C1379 1.362 . S
C1379 H1369 0.930 . S
C1379 C1372 1.409 . S
C1379 C1378 1.362 . S
H1380 C1386 0.930 . S
H1381 C1389 0.930 . S
H1382 C1390 0.930 . S
H1383 C1391 0.930 . S
H1384 C1394 0.930 . S
H1385 C1395 0.930 . S
C1386 H1380 0.930 . S
C1386 C1387 1.355 . S
C1386 C1388 1.415 . S
C1387 C1386 1.355 . S
C1387 C1389 1.419 . S
C1388 C1386 1.415 . S
C1388 C1393 1.425 . S
C1388 C1395 1.409 . S
C1389 H1381 0.930 . S
C1389 C1387 1.419 . S
C1389 C1390 1.362 . S
C1390 H1382 0.930 . S
C1390 C1389 1.362 . S
C1390 C1393 1.409 . S
C1391 H1383 0.930 . S
C1391 C1392 1.355 . S
C1391 C1393 1.415 . S
C1392 C1391 1.355 . S
C1392 C1394 1.419 . S
C1393 C1388 1.425 . S
C1393 C1390 1.409 . S
C1393 C1391 1.415 . S
C1394 H1384 0.930 . S
C1394 C1392 1.419 . S
C1394 C1395 1.362 . S
C1395 H1385 0.930 . S
C1395 C1388 1.409 . S
C1395 C1394 1.362 . S
H1396 C1402 0.930 . S
H1397 C1405 0.930 . S
H1398 C1406 0.930 . S
H1399 C1407 0.930 . S
H1400 C1410 0.930 . S
H1401 C1411 0.930 . S
C1402 H1396 0.930 . S
C1402 C1403 1.355 . S
C1402 C1404 1.415 . S
C1403 C1402 1.355 . S
C1403 C1405 1.419 . S
C1404 C1402 1.415 . S
C1404 C1409 1.425 . S
C1404 C1411 1.409 . S
C1405 H1397 0.930 . S
C1405 C1403 1.419 . S
C1405 C1406 1.362 . S
C1406 H1398 0.930 . S
C1406 C1405 1.362 . S
C1406 C1409 1.409 . S
C1407 H1399 0.930 . S
C1407 C1408 1.355 1_455 S
C1407 C1409 1.415 . S
C1408 C1407 1.355 1_655 S
C1408 C1410 1.419 . S
C1409 C1404 1.425 . S
C1409 C1406 1.409 . S
C1409 C1407 1.415 . S
C1410 H1400 0.930 . S
C1410 C1408 1.419 . S
C1410 C1411 1.362 1_655 S
C1411 H1401 0.930 . S
C1411 C1404 1.409 . S
C1411 C1410 1.362 1_455 S
H1412 C1418 0.930 . S
H1413 C1421 0.930 . S
H1414 C1422 0.930 . S
H1415 C1423 0.930 . S
H1416 C1426 0.931 1_556 S
H1417 C1427 0.930 . S
C1418 H1412 0.930 . S
C1418 C1419 1.355 . S
C1418 C1420 1.415 . S
C1419 C1418 1.355 . S
C1419 C1421 1.419 1_556 S
C1420 C1418 1.415 . S
C1420 C1425 1.425 1_556 S
C1420 C1427 1.409 . S
C1421 H1413 0.930 . S
C1421 C1419 1.419 1_554 S
C1421 C1422 1.362 . S
C1422 H1414 0.930 . S
C1422 C1421 1.362 . S
C1422 C1425 1.409 . S
C1423 H1415 0.930 . S
C1423 C1424 1.355 . S
C1423 C1425 1.415 . S
C1424 C1423 1.355 . S
C1424 C1426 1.419 . S
C1425 C1420 1.425 1_554 S
C1425 C1422 1.409 . S
C1425 C1423 1.415 . S
C1426 H1416 0.931 1_554 S
C1426 C1424 1.419 . S
C1426 C1427 1.362 1_554 S
C1427 H1417 0.930 . S
C1427 C1420 1.409 . S
C1427 C1426 1.362 1_556 S
H1428 C1434 0.930 . S
H1429 C1437 0.930 . S
H1430 C1438 0.930 . S
H1431 C1439 0.930 . S
H1432 C1442 0.930 . S
H1433 C1443 0.930 . S
C1434 H1428 0.930 . S
C1434 C1435 1.355 . S
C1434 C1436 1.415 . S
C1435 C1434 1.355 . S
C1435 C1437 1.419 . S
C1436 C1434 1.415 . S
C1436 C1441 1.425 . S
C1436 C1443 1.409 . S
C1437 H1429 0.930 . S
C1437 C1435 1.419 . S
C1437 C1438 1.362 . S
C1438 H1430 0.930 . S
C1438 C1437 1.362 . S
C1438 C1441 1.409 . S
C1439 H1431 0.930 . S
C1439 C1440 1.355 . S
C1439 C1441 1.415 . S
C1440 C1439 1.355 . S
C1440 C1442 1.419 . S
C1441 C1436 1.425 . S
C1441 C1438 1.409 . S
C1441 C1439 1.415 . S
C1442 H1432 0.930 . S
C1442 C1440 1.419 . S
C1442 C1443 1.362 . S
C1443 H1433 0.930 . S
C1443 C1436 1.409 . S
C1443 C1442 1.362 . S
H1444 C1450 0.930 . S
H1445 C1453 0.930 . S
H1446 C1454 0.930 . S
H1447 C1455 0.930 . S
H1448 C1458 0.930 . S
H1449 C1459 0.930 . S
C1450 H1444 0.930 . S
C1450 C1451 1.355 . S
C1450 C1452 1.415 . S
C1451 C1450 1.355 . S
C1451 C1453 1.419 . S
C1452 C1450 1.415 . S
C1452 C1457 1.425 . S
C1452 C1459 1.409 . S
C1453 H1445 0.930 . S
C1453 C1451 1.419 . S
C1453 C1454 1.362 . S
C1454 H1446 0.930 . S
C1454 C1453 1.362 . S
C1454 C1457 1.409 . S
C1455 H1447 0.930 . S
C1455 C1456 1.355 . S
C1455 C1457 1.415 . S
C1456 C1455 1.355 . S
C1456 C1458 1.419 . S
C1457 C1452 1.425 . S
C1457 C1454 1.409 . S
C1457 C1455 1.415 . S
C1458 H1448 0.930 . S
C1458 C1456 1.419 . S
C1458 C1459 1.362 . S
C1459 H1449 0.930 . S
C1459 C1452 1.409 . S
C1459 C1458 1.362 . S
H1460 C1466 0.930 . S
H1461 C1469 0.930 . S
H1462 C1470 0.930 . S
H1463 C1471 0.930 1_655 S
H1464 C1474 0.930 . S
H1465 C1475 0.930 . S
C1466 H1460 0.930 . S
C1466 C1467 1.355 . S
C1466 C1468 1.415 . S
C1467 C1466 1.355 . S
C1467 C1469 1.419 . S
C1468 C1466 1.415 . S
C1468 C1473 1.425 . S
C1468 C1475 1.409 . S
C1469 H1461 0.930 . S
C1469 C1467 1.419 . S
C1469 C1470 1.362 . S
C1470 H1462 0.930 . S
C1470 C1469 1.362 . S
C1470 C1473 1.409 . S
C1471 H1463 0.930 1_455 S
C1471 C1472 1.355 . S
C1471 C1473 1.415 . S
C1472 C1471 1.355 . S
C1472 C1474 1.419 . S
C1473 C1468 1.425 . S
C1473 C1470 1.409 . S
C1473 C1471 1.415 . S
C1474 H1464 0.930 . S
C1474 C1472 1.419 . S
C1474 C1475 1.362 . S
C1475 H1465 0.930 . S
C1475 C1468 1.409 . S
C1475 C1474 1.362 . S
H1476 C1482 0.930 . S
H1477 C1485 0.930 . S
H1478 C1486 0.930 . S
H1479 C1487 0.930 1_455 S
H1480 C1490 0.930 . S
H1481 C1491 0.930 . S
C1482 H1476 0.930 . S
C1482 C1483 1.355 . S
C1482 C1484 1.415 . S
C1483 C1482 1.355 . S
C1483 C1485 1.419 . S
C1484 C1482 1.415 . S
C1484 C1489 1.425 . S
C1484 C1491 1.409 . S
C1485 H1477 0.930 . S
C1485 C1483 1.419 . S
C1485 C1486 1.362 . S
C1486 H1478 0.930 . S
C1486 C1485 1.362 . S
C1486 C1489 1.409 . S
C1487 H1479 0.930 1_655 S
C1487 C1488 1.355 1_655 S
C1487 C1489 1.415 . S
C1488 C1487 1.355 1_455 S
C1488 C1490 1.419 1_455 S
C1489 C1484 1.425 . S
C1489 C1486 1.409 . S
C1489 C1487 1.415 . S
C1490 H1480 0.930 . S
C1490 C1488 1.419 1_655 S
C1490 C1491 1.362 . S
C1491 H1481 0.930 . S
C1491 C1484 1.409 . S
C1491 C1490 1.362 . S
H1492 C1498 0.930 . S
H1493 C1501 0.930 . S
H1494 C1502 0.930 . S
H1495 C1503 0.930 . S
H1496 C1506 0.930 . S
H1497 C1507 0.930 . S
C1498 H1492 0.930 . S
C1498 C1499 1.355 . S
C1498 C1500 1.415 . S
C1499 C1498 1.355 . S
C1499 C1501 1.419 . S
C1500 C1498 1.415 . S
C1500 C1505 1.425 . S
C1500 C1507 1.409 . S
C1501 H1493 0.930 . S
C1501 C1499 1.419 . S
C1501 C1502 1.362 . S
C1502 H1494 0.930 . S
C1502 C1501 1.362 . S
C1502 C1505 1.409 . S
C1503 H1495 0.930 . S
C1503 C1504 1.355 . S
C1503 C1505 1.415 . S
C1504 C1503 1.355 . S
C1504 C1506 1.419 . S
C1505 C1500 1.425 . S
C1505 C1502 1.409 . S
C1505 C1503 1.415 . S
C1506 H1496 0.930 . S
C1506 C1504 1.419 . S
C1506 C1507 1.362 . S
C1507 H1497 0.930 . S
C1507 C1500 1.409 . S
C1507 C1506 1.362 . S
H1508 C1514 0.930 . S
H1509 C1517 0.930 . S
H1510 C1518 0.930 . S
H1511 C1519 0.930 . S
H1512 C1522 0.930 . S
H1513 C1523 0.930 . S
C1514 H1508 0.930 . S
C1514 C1515 1.355 . S
C1514 C1516 1.415 . S
C1515 C1514 1.355 . S
C1515 C1517 1.419 . S
C1516 C1514 1.415 . S
C1516 C1521 1.425 . S
C1516 C1523 1.409 . S
C1517 H1509 0.930 . S
C1517 C1515 1.419 . S
C1517 C1518 1.362 . S
C1518 H1510 0.930 . S
C1518 C1517 1.362 . S
C1518 C1521 1.409 . S
C1519 H1511 0.930 . S
C1519 C1520 1.355 . S
C1519 C1521 1.415 . S
C1520 C1519 1.355 . S
C1520 C1522 1.419 . S
C1521 C1516 1.425 . S
C1521 C1518 1.409 . S
C1521 C1519 1.415 . S
C1522 H1512 0.930 . S
C1522 C1520 1.419 . S
C1522 C1523 1.362 . S
C1523 H1513 0.930 . S
C1523 C1516 1.409 . S
C1523 C1522 1.362 . S
H1524 C1530 0.930 . S
H1525 C1533 0.930 . S
H1526 C1534 0.930 . S
H1527 C1535 0.930 . S
H1528 C1538 0.930 . S
H1529 C1539 0.930 . S
C1530 H1524 0.930 . S
C1530 C1531 1.355 . S
C1530 C1532 1.415 . S
C1531 C1530 1.355 . S
C1531 C1533 1.419 . S
C1532 C1530 1.415 . S
C1532 C1537 1.425 . S
C1532 C1539 1.409 . S
C1533 H1525 0.930 . S
C1533 C1531 1.419 . S
C1533 C1534 1.362 . S
C1534 H1526 0.930 . S
C1534 C1533 1.362 . S
C1534 C1537 1.409 . S
C1535 H1527 0.930 . S
C1535 C1536 1.355 . S
C1535 C1537 1.415 . S
C1536 C1535 1.355 . S
C1536 C1538 1.419 . S
C1537 C1532 1.425 . S
C1537 C1534 1.409 . S
C1537 C1535 1.415 . S
C1538 H1528 0.930 . S
C1538 C1536 1.419 . S
C1538 C1539 1.362 . S
C1539 H1529 0.930 . S
C1539 C1532 1.409 . S
C1539 C1538 1.362 . S
H1540 C1546 0.930 . S
H1541 C1549 0.930 . S
H1542 C1550 0.930 . S
H1543 C1551 0.930 . S
H1544 C1554 0.930 . S
H1545 C1555 0.930 . S
C1546 H1540 0.930 . S
C1546 C1547 1.355 . S
C1546 C1548 1.415 . S
C1547 C1546 1.355 . S
C1547 C1549 1.419 . S
C1548 C1546 1.415 . S
C1548 C1553 1.425 . S
C1548 C1555 1.409 . S
C1549 H1541 0.930 . S
C1549 C1547 1.419 . S
C1549 C1550 1.362 . S
C1550 H1542 0.930 . S
C1550 C1549 1.362 . S
C1550 C1553 1.409 . S
C1551 H1543 0.930 . S
C1551 C1552 1.355 . S
C1551 C1553 1.415 . S
C1552 C1551 1.355 . S
C1552 C1554 1.419 . S
C1553 C1548 1.425 . S
C1553 C1550 1.409 . S
C1553 C1551 1.415 . S
C1554 H1544 0.930 . S
C1554 C1552 1.419 . S
C1554 C1555 1.362 . S
C1555 H1545 0.930 . S
C1555 C1548 1.409 . S
C1555 C1554 1.362 . S
H1556 C1562 0.930 . S
H1557 C1565 0.930 . S
H1558 C1566 0.930 . S
H1559 C1567 0.930 . S
H1560 C1570 0.930 . S
H1561 C1571 0.930 . S
C1562 H1556 0.930 . S
C1562 C1563 1.355 . S
C1562 C1564 1.415 . S
C1563 C1562 1.355 . S
C1563 C1565 1.419 . S
C1564 C1562 1.415 . S
C1564 C1569 1.425 . S
C1564 C1571 1.409 . S
C1565 H1557 0.930 . S
C1565 C1563 1.419 . S
C1565 C1566 1.362 . S
C1566 H1558 0.930 . S
C1566 C1565 1.362 . S
C1566 C1569 1.409 . S
C1567 H1559 0.930 . S
C1567 C1568 1.355 . S
C1567 C1569 1.415 . S
C1568 C1567 1.355 . S
C1568 C1570 1.419 . S
C1569 C1564 1.425 . S
C1569 C1566 1.409 . S
C1569 C1567 1.415 . S
C1570 H1560 0.930 . S
C1570 C1568 1.419 . S
C1570 C1571 1.362 . S
C1571 H1561 0.930 . S
C1571 C1564 1.409 . S
C1571 C1570 1.362 . S
H1572 C1578 0.930 . S
H1573 C1581 0.930 . S
H1574 C1582 0.930 . S
H1575 C1583 0.930 . S
H1576 C1586 0.930 . S
H1577 C1587 0.930 . S
C1578 H1572 0.930 . S
C1578 C1579 1.355 . S
C1578 C1580 1.415 . S
C1579 C1578 1.355 . S
C1579 C1581 1.419 . S
C1580 C1578 1.415 . S
C1580 C1585 1.425 . S
C1580 C1587 1.409 . S
C1581 H1573 0.930 . S
C1581 C1579 1.419 . S
C1581 C1582 1.362 . S
C1582 H1574 0.930 . S
C1582 C1581 1.362 . S
C1582 C1585 1.409 . S
C1583 H1575 0.930 . S
C1583 C1584 1.355 . S
C1583 C1585 1.415 . S
C1584 C1583 1.355 . S
C1584 C1586 1.419 . S
C1585 C1580 1.425 . S
C1585 C1582 1.409 . S
C1585 C1583 1.415 . S
C1586 H1576 0.930 . S
C1586 C1584 1.419 . S
C1586 C1587 1.362 . S
C1587 H1577 0.930 . S
C1587 C1580 1.409 . S
C1587 C1586 1.362 . S
H1588 C1594 0.930 . S
H1589 C1597 0.930 . S
H1590 C1598 0.930 . S
H1591 C1599 0.930 . S
H1592 C1602 0.930 . S
H1593 C1603 0.930 . S
C1594 H1588 0.930 . S
C1594 C1595 1.355 . S
C1594 C1596 1.415 . S
C1595 C1594 1.355 . S
C1595 C1597 1.419 . S
C1596 C1594 1.415 . S
C1596 C1601 1.425 . S
C1596 C1603 1.409 . S
C1597 H1589 0.930 . S
C1597 C1595 1.419 . S
C1597 C1598 1.362 . S
C1598 H1590 0.930 . S
C1598 C1597 1.362 . S
C1598 C1601 1.409 . S
C1599 H1591 0.930 . S
C1599 C1600 1.355 . S
C1599 C1601 1.415 . S
C1600 C1599 1.355 . S
C1600 C1602 1.419 . S
C1601 C1596 1.425 . S
C1601 C1598 1.409 . S
C1601 C1599 1.415 . S
C1602 H1592 0.930 . S
C1602 C1600 1.419 . S
C1602 C1603 1.362 . S
C1603 H1593 0.930 . S
C1603 C1596 1.409 . S
C1603 C1602 1.362 . S
H1604 C1610 0.930 . S
H1605 C1613 0.930 . S
H1606 C1614 0.930 . S
H1607 C1615 0.930 . S
H1608 C1618 0.901 1_455 S
H1609 C1619 0.930 1_455 S
C1610 H1604 0.930 . S
C1610 C1611 1.355 . S
C1610 C1612 1.415 . S
C1611 C1610 1.355 . S
C1611 C1613 1.419 . S
C1612 C1610 1.415 . S
C1612 C1617 1.425 . S
C1612 C1619 1.409 . S
C1613 H1605 0.930 . S
C1613 C1611 1.419 . S
C1613 C1614 1.362 . S
C1614 H1606 0.930 . S
C1614 C1613 1.362 . S
C1614 C1617 1.409 . S
C1615 H1607 0.930 . S
C1615 C1616 1.355 . S
C1615 C1617 1.415 . S
C1616 C1615 1.355 . S
C1616 C1618 1.442 . S
C1617 C1612 1.425 . S
C1617 C1614 1.409 . S
C1617 C1615 1.415 . S
C1618 H1608 0.901 1_655 S
C1618 C1616 1.442 . S
C1618 C1619 1.369 . S
C1619 H1609 0.930 1_655 S
C1619 C1612 1.409 . S
C1619 C1618 1.369 . S
H1620 C1626 0.930 . S
H1621 C1629 0.930 . S
H1622 C1630 0.930 . S
H1623 C1631 0.930 . S
H1624 C1634 0.930 . S
H1625 C1635 0.930 . S
C1626 H1620 0.930 . S
C1626 C1627 1.355 . S
C1626 C1628 1.415 . S
C1627 C1626 1.355 . S
C1627 C1629 1.419 . S
C1628 C1626 1.415 . S
C1628 C1633 1.425 . S
C1628 C1635 1.409 . S
C1629 H1621 0.930 . S
C1629 C1627 1.419 . S
C1629 C1630 1.362 . S
C1630 H1622 0.930 . S
C1630 C1629 1.362 . S
C1630 C1633 1.409 . S
C1631 H1623 0.930 . S
C1631 C1632 1.355 . S
C1631 C1633 1.415 . S
C1632 C1631 1.355 . S
C1632 C1634 1.419 . S
C1633 C1628 1.425 . S
C1633 C1630 1.409 . S
C1633 C1631 1.415 . S
C1634 H1624 0.930 . S
C1634 C1632 1.419 . S
C1634 C1635 1.362 . S
C1635 H1625 0.930 . S
C1635 C1628 1.409 . S
C1635 C1634 1.362 . S
H1636 C1642 0.930 . S
H1637 C1645 0.930 . S
H1638 C1646 0.930 . S
H1639 C1647 0.930 . S
H1640 C1650 0.930 . S
H1641 C1651 0.930 . S
C1642 H1636 0.930 . S
C1642 C1643 1.355 . S
C1642 C1644 1.415 . S
C1643 C1642 1.355 . S
C1643 C1645 1.419 . S
C1644 C1642 1.415 . S
C1644 C1649 1.425 . S
C1644 C1651 1.409 . S
C1645 H1637 0.930 . S
C1645 C1643 1.419 . S
C1645 C1646 1.362 . S
C1646 H1638 0.930 . S
C1646 C1645 1.362 . S
C1646 C1649 1.409 . S
C1647 H1639 0.930 . S
C1647 C1648 1.355 . S
C1647 C1649 1.415 . S
C1648 C1647 1.355 . S
C1648 C1650 1.419 . S
C1649 C1644 1.425 . S
C1649 C1646 1.409 . S
C1649 C1647 1.415 . S
C1650 H1640 0.930 . S
C1650 C1648 1.419 . S
C1650 C1651 1.362 . S
C1651 H1641 0.930 . S
C1651 C1644 1.409 . S
C1651 C1650 1.362 . S
H1652 C1658 0.930 . S
H1653 C1661 0.930 . S
H1654 C1662 0.930 . S
H1655 C1663 0.930 . S
H1656 C1666 0.930 . S
H1657 C1667 0.930 . S
C1658 H1652 0.930 . S
C1658 C1659 1.355 . S
C1658 C1660 1.415 . S
C1659 C1658 1.355 . S
C1659 C1661 1.419 . S
C1660 C1658 1.415 . S
C1660 C1665 1.425 . S
C1660 C1667 1.409 . S
C1661 H1653 0.930 . S
C1661 C1659 1.419 . S
C1661 C1662 1.362 . S
C1662 H1654 0.930 . S
C1662 C1661 1.362 . S
C1662 C1665 1.409 . S
C1663 H1655 0.930 . S
C1663 C1664 1.355 . S
C1663 C1665 1.415 . S
C1664 C1663 1.355 . S
C1664 C1666 1.419 . S
C1665 C1660 1.425 . S
C1665 C1662 1.409 . S
C1665 C1663 1.415 . S
C1666 H1656 0.930 . S
C1666 C1664 1.419 . S
C1666 C1667 1.362 . S
C1667 H1657 0.930 . S
C1667 C1660 1.409 . S
C1667 C1666 1.362 . S
H1668 C1674 0.930 . S
H1669 C1677 0.930 . S
H1670 C1678 0.913 1_556 S
H1671 C1679 0.930 1_556 S
H1672 C1682 0.930 . S
H1673 C1683 0.930 . S
C1674 H1668 0.930 . S
C1674 C1675 1.355 . S
C1674 C1676 1.415 . S
C1675 C1674 1.355 . S
C1675 C1677 1.419 . S
C1676 C1674 1.415 . S
C1676 C1681 1.425 . S
C1676 C1683 1.409 . S
C1677 H1669 0.930 . S
C1677 C1675 1.419 . S
C1677 C1678 1.362 . S
C1678 H1670 0.913 1_554 S
C1678 C1677 1.362 . S
C1678 C1681 1.409 . S
C1679 H1671 0.930 1_554 S
C1679 C1680 1.355 . S
C1679 C1681 1.415 . S
C1680 C1679 1.355 . S
C1680 C1682 1.419 . S
C1681 C1676 1.425 . S
C1681 C1678 1.409 . S
C1681 C1679 1.415 . S
C1682 H1672 0.930 . S
C1682 C1680 1.419 . S
C1682 C1683 1.362 . S
C1683 H1673 0.930 . S
C1683 C1676 1.409 . S
C1683 C1682 1.362 . S
H1684 C1690 0.930 . S
H1685 C1693 0.930 . S
H1686 C1694 0.930 . S
H1687 C1695 0.930 . S
H1688 C1698 0.930 . S
H1689 C1699 0.930 . S
C1690 H1684 0.930 . S
C1690 C1691 1.355 . S
C1690 C1692 1.415 . S
C1691 C1690 1.355 . S
C1691 C1693 1.419 . S
C1692 C1690 1.415 . S
C1692 C1697 1.425 . S
C1692 C1699 1.409 . S
C1693 H1685 0.930 . S
C1693 C1691 1.419 . S
C1693 C1694 1.362 . S
C1694 H1686 0.930 . S
C1694 C1693 1.362 . S
C1694 C1697 1.409 . S
C1695 H1687 0.930 . S
C1695 C1696 1.355 . S
C1695 C1697 1.415 . S
C1696 C1695 1.355 . S
C1696 C1698 1.419 . S
C1697 C1692 1.425 . S
C1697 C1694 1.409 . S
C1697 C1695 1.415 . S
C1698 H1688 0.930 . S
C1698 C1696 1.419 . S
C1698 C1699 1.362 . S
C1699 H1689 0.930 . S
C1699 C1692 1.409 . S
C1699 C1698 1.362 . S
H1700 C1706 0.930 . S
H1701 C1709 0.930 . S
H1702 C1710 0.921 1_554 S
H1703 C1711 0.908 1_554 S
H1704 C1714 0.930 . S
H1705 C1715 0.930 . S
C1706 H1700 0.930 . S
C1706 C1707 1.355 . S
C1706 C1708 1.415 . S
C1707 C1706 1.355 . S
C1707 C1709 1.419 . S
C1708 C1706 1.415 . S
C1708 C1713 1.425 . S
C1708 C1715 1.409 . S
C1709 H1701 0.930 . S
C1709 C1707 1.419 . S
C1709 C1710 1.362 . S
C1710 H1702 0.921 1_556 S
C1710 C1709 1.362 . S
C1710 C1713 1.409 . S
C1711 H1703 0.908 1_556 S
C1711 C1712 1.355 . S
C1711 C1713 1.415 . S
C1712 C1711 1.355 . S
C1712 C1714 1.419 . S
C1713 C1708 1.425 . S
C1713 C1710 1.409 . S
C1713 C1711 1.415 . S
C1714 H1704 0.930 . S
C1714 C1712 1.419 . S
C1714 C1715 1.362 . S
C1715 H1705 0.930 . S
C1715 C1708 1.409 . S
C1715 C1714 1.362 . S
H1716 C1722 0.930 . S
H1717 C1725 0.930 . S
H1718 C1726 0.930 . S
H1719 C1727 0.930 . S
H1720 C1730 0.930 . S
H1721 C1731 0.930 . S
C1722 H1716 0.930 . S
C1722 C1723 1.355 . S
C1722 C1724 1.415 . S
C1723 C1722 1.355 . S
C1723 C1725 1.419 . S
C1724 C1722 1.415 . S
C1724 C1729 1.425 . S
C1724 C1731 1.409 . S
C1725 H1717 0.930 . S
C1725 C1723 1.419 . S
C1725 C1726 1.362 . S
C1726 H1718 0.930 . S
C1726 C1725 1.362 . S
C1726 C1729 1.409 . S
C1727 H1719 0.930 . S
C1727 C1728 1.355 . S
C1727 C1729 1.415 . S
C1728 C1727 1.355 . S
C1728 C1730 1.419 . S
C1729 C1724 1.425 . S
C1729 C1726 1.409 . S
C1729 C1727 1.415 . S
C1730 H1720 0.930 . S
C1730 C1728 1.419 . S
C1730 C1731 1.362 . S
C1731 H1721 0.930 . S
C1731 C1724 1.409 . S
C1731 C1730 1.362 . S
H1732 C1738 0.930 . S
H1733 C1741 0.930 . S
H1734 C1742 0.930 1_554 S
H1735 C1743 0.930 1_554 S
H1736 C1746 0.930 . S
H1737 C1747 0.930 . S
C1738 H1732 0.930 . S
C1738 C1739 1.355 . S
C1738 C1740 1.415 . S
C1739 C1738 1.355 . S
C1739 C1741 1.419 . S
C1740 C1738 1.415 . S
C1740 C1745 1.425 . S
C1740 C1747 1.409 . S
C1741 H1733 0.930 . S
C1741 C1739 1.419 . S
C1741 C1742 1.362 . S
C1742 H1734 0.930 1_556 S
C1742 C1741 1.362 . S
C1742 C1745 1.409 . S
C1743 H1735 0.930 1_556 S
C1743 C1744 1.355 . S
C1743 C1745 1.415 . S
C1744 C1743 1.355 . S
C1744 C1746 1.419 . S
C1745 C1740 1.425 . S
C1745 C1742 1.409 . S
C1745 C1743 1.415 . S
C1746 H1736 0.930 . S
C1746 C1744 1.419 . S
C1746 C1747 1.362 . S
C1747 H1737 0.930 . S
C1747 C1740 1.409 . S
C1747 C1746 1.362 . S
H1748 C1754 0.930 . S
H1749 C1757 0.930 . S
H1750 C1758 0.930 . S
H1751 C1759 0.930 . S
H1752 C1762 0.930 . S
H1753 C1763 0.930 . S
C1754 H1748 0.930 . S
C1754 C1755 1.355 . S
C1754 C1756 1.415 . S
C1755 C1754 1.355 . S
C1755 C1757 1.419 . S
C1756 C1754 1.415 . S
C1756 C1761 1.425 . S
C1756 C1763 1.409 . S
C1757 H1749 0.930 . S
C1757 C1755 1.419 . S
C1757 C1758 1.362 . S
C1758 H1750 0.930 . S
C1758 C1757 1.362 . S
C1758 C1761 1.409 . S
C1759 H1751 0.930 . S
C1759 C1760 1.355 . S
C1759 C1761 1.415 . S
C1760 C1759 1.355 . S
C1760 C1762 1.419 . S
C1761 C1756 1.425 . S
C1761 C1758 1.409 . S
C1761 C1759 1.415 . S
C1762 H1752 0.930 . S
C1762 C1760 1.419 . S
C1762 C1763 1.362 . S
C1763 H1753 0.930 . S
C1763 C1756 1.409 . S
C1763 C1762 1.362 . S
H1764 C1770 0.930 . S
H1765 C1773 0.930 . S
H1766 C1774 0.930 . S
H1767 C1775 0.930 . S
H1768 C1778 0.930 . S
H1769 C1779 0.930 . S
C1770 H1764 0.930 . S
C1770 C1771 1.355 . S
C1770 C1772 1.415 . S
C1771 C1770 1.355 . S
C1771 C1773 1.419 . S
C1772 C1770 1.415 . S
C1772 C1777 1.425 . S
C1772 C1779 1.409 . S
C1773 H1765 0.930 . S
C1773 C1771 1.419 . S
C1773 C1774 1.362 . S
C1774 H1766 0.930 . S
C1774 C1773 1.362 . S
C1774 C1777 1.409 . S
C1775 H1767 0.930 . S
C1775 C1776 1.355 . S
C1775 C1777 1.415 . S
C1776 C1775 1.355 . S
C1776 C1778 1.419 . S
C1777 C1772 1.425 . S
C1777 C1774 1.409 . S
C1777 C1775 1.415 . S
C1778 H1768 0.930 . S
C1778 C1776 1.419 . S
C1778 C1779 1.362 . S
C1779 H1769 0.930 . S
C1779 C1772 1.409 . S
C1779 C1778 1.362 . S
H1780 C1786 0.930 . S
H1781 C1789 0.930 . S
H1782 C1790 0.930 . S
H1783 C1791 0.930 . S
H1784 C1794 0.930 . S
H1785 C1795 0.930 . S
C1786 H1780 0.930 . S
C1786 C1787 1.355 . S
C1786 C1788 1.415 . S
C1787 C1786 1.355 . S
C1787 C1789 1.419 . S
C1788 C1786 1.415 . S
C1788 C1793 1.425 . S
C1788 C1795 1.409 . S
C1789 H1781 0.930 . S
C1789 C1787 1.419 . S
C1789 C1790 1.362 . S
C1790 H1782 0.930 . S
C1790 C1789 1.362 . S
C1790 C1793 1.409 . S
C1791 H1783 0.930 . S
C1791 C1792 1.355 . S
C1791 C1793 1.415 . S
C1792 C1791 1.355 . S
C1792 C1794 1.419 . S
C1793 C1788 1.425 . S
C1793 C1790 1.409 . S
C1793 C1791 1.415 . S
C1794 H1784 0.930 . S
C1794 C1792 1.419 . S
C1794 C1795 1.362 . S
C1795 H1785 0.930 . S
C1795 C1788 1.409 . S
C1795 C1794 1.362 . S
H1796 C1802 0.930 . S
H1797 C1805 0.930 . S
H1798 C1806 0.930 . S
H1799 C1807 0.930 . S
H1800 C1810 0.930 . S
H1801 C1811 0.930 . S
C1802 H1796 0.930 . S
C1802 C1803 1.355 . S
C1802 C1804 1.415 . S
C1803 C1802 1.355 . S
C1803 C1805 1.419 . S
C1804 C1802 1.415 . S
C1804 C1809 1.425 . S
C1804 C1811 1.409 . S
C1805 H1797 0.930 . S
C1805 C1803 1.419 . S
C1805 C1806 1.362 . S
C1806 H1798 0.930 . S
C1806 C1805 1.362 . S
C1806 C1809 1.409 . S
C1807 H1799 0.930 . S
C1807 C1808 1.355 . S
C1807 C1809 1.415 . S
C1808 C1807 1.355 . S
C1808 C1810 1.419 . S
C1809 C1804 1.425 . S
C1809 C1806 1.409 . S
C1809 C1807 1.415 . S
C1810 H1800 0.930 . S
C1810 C1808 1.419 . S
C1810 C1811 1.362 . S
C1811 H1801 0.930 . S
C1811 C1804 1.409 . S
C1811 C1810 1.362 . S
H1812 C1818 0.930 . S
H1813 C1821 0.930 . S
H1814 C1822 0.930 . S
H1815 C1823 0.930 . S
H1816 C1826 0.930 . S
H1817 C1827 0.930 . S
C1818 H1812 0.930 . S
C1818 C1819 1.355 . S
C1818 C1820 1.415 . S
C1819 C1818 1.355 . S
C1819 C1821 1.419 . S
C1820 C1818 1.415 . S
C1820 C1825 1.425 . S
C1820 C1827 1.409 . S
C1821 H1813 0.930 . S
C1821 C1819 1.419 . S
C1821 C1822 1.362 . S
C1822 H1814 0.930 . S
C1822 C1821 1.362 . S
C1822 C1825 1.409 . S
C1823 H1815 0.930 . S
C1823 C1824 1.355 . S
C1823 C1825 1.415 . S
C1824 C1823 1.355 . S
C1824 C1826 1.419 . S
C1825 C1820 1.425 . S
C1825 C1822 1.409 . S
C1825 C1823 1.415 . S
C1826 H1816 0.930 . S
C1826 C1824 1.419 . S
C1826 C1827 1.362 . S
C1827 H1817 0.930 . S
C1827 C1820 1.409 . S
C1827 C1826 1.362 . S
H1828 C1834 0.930 . S
H1829 C1837 0.930 . S
H1830 C1838 0.930 . S
H1831 C1839 0.930 . S
H1832 C1842 0.930 . S
H1833 C1843 0.930 . S
C1834 H1828 0.930 . S
C1834 C1835 1.355 . S
C1834 C1836 1.415 . S
C1835 C1834 1.355 . S
C1835 C1837 1.419 . S
C1836 C1834 1.415 . S
C1836 C1841 1.425 . S
C1836 C1843 1.409 . S
C1837 H1829 0.930 . S
C1837 C1835 1.419 . S
C1837 C1838 1.362 . S
C1838 H1830 0.930 . S
C1838 C1837 1.362 . S
C1838 C1841 1.409 . S
C1839 H1831 0.930 . S
C1839 C1840 1.355 . S
C1839 C1841 1.415 . S
C1840 C1839 1.355 . S
C1840 C1842 1.419 . S
C1841 C1836 1.425 . S
C1841 C1838 1.409 . S
C1841 C1839 1.415 . S
C1842 H1832 0.930 . S
C1842 C1840 1.419 . S
C1842 C1843 1.362 . S
C1843 H1833 0.930 . S
C1843 C1836 1.409 . S
C1843 C1842 1.362 . S
H1844 C1850 0.930 . S
H1845 C1853 0.930 . S
H1846 C1854 0.930 . S
H1847 C1855 0.930 . S
H1848 C1858 0.930 . S
H1849 C1859 0.930 . S
C1850 H1844 0.930 . S
C1850 C1851 1.355 . S
C1850 C1852 1.415 . S
C1851 C1850 1.355 . S
C1851 C1853 1.419 . S
C1852 C1850 1.415 . S
C1852 C1857 1.425 . S
C1852 C1859 1.409 . S
C1853 H1845 0.930 . S
C1853 C1851 1.419 . S
C1853 C1854 1.362 . S
C1854 H1846 0.930 . S
C1854 C1853 1.362 . S
C1854 C1857 1.409 . S
C1855 H1847 0.930 . S
C1855 C1856 1.355 . S
C1855 C1857 1.415 . S
C1856 C1855 1.355 . S
C1856 C1858 1.419 . S
C1857 C1852 1.425 . S
C1857 C1854 1.409 . S
C1857 C1855 1.415 . S
C1858 H1848 0.930 . S
C1858 C1856 1.419 . S
C1858 C1859 1.362 . S
C1859 H1849 0.930 . S
C1859 C1852 1.409 . S
C1859 C1858 1.362 . S
H1860 C1866 0.930 . S
H1861 C1869 0.930 . S
H1862 C1870 0.947 . S
H1863 C1871 0.930 1_565 S
H1864 C1874 0.930 . S
H1865 C1875 0.930 . S
C1866 H1860 0.930 . S
C1866 C1867 1.355 . S
C1866 C1868 1.415 . S
C1867 C1866 1.355 . S
C1867 C1869 1.419 . S
C1868 C1866 1.415 . S
C1868 C1873 1.425 . S
C1868 C1875 1.409 . S
C1869 H1861 0.930 . S
C1869 C1867 1.419 . S
C1869 C1870 1.362 . S
C1870 H1862 0.947 . S
C1870 C1869 1.362 . S
C1870 C1873 1.409 . S
C1871 H1863 0.930 1_545 S
C1871 C1872 1.355 . S
C1871 C1873 1.415 . S
C1872 C1871 1.355 . S
C1872 C1874 1.419 . S
C1873 C1868 1.425 . S
C1873 C1870 1.409 . S
C1873 C1871 1.415 . S
C1874 H1864 0.930 . S
C1874 C1872 1.419 . S
C1874 C1875 1.362 . S
C1875 H1865 0.930 . S
C1875 C1868 1.409 . S
C1875 C1874 1.362 . S
H1876 C1882 0.930 . S
H1877 C1885 0.930 . S
H1878 C1886 0.930 . S
H1879 C1887 0.930 . S
H1880 C1890 0.930 . S
H1881 C1891 0.930 . S
C1882 H1876 0.930 . S
C1882 C1883 1.355 . S
C1882 C1884 1.415 . S
C1883 C1882 1.355 . S
C1883 C1885 1.419 . S
C1884 C1882 1.415 . S
C1884 C1889 1.425 . S
C1884 C1891 1.409 . S
C1885 H1877 0.930 . S
C1885 C1883 1.419 . S
C1885 C1886 1.362 . S
C1886 H1878 0.930 . S
C1886 C1885 1.362 . S
C1886 C1889 1.409 . S
C1887 H1879 0.930 . S
C1887 C1888 1.355 . S
C1887 C1889 1.415 . S
C1888 C1887 1.355 . S
C1888 C1890 1.419 . S
C1889 C1884 1.425 . S
C1889 C1886 1.409 . S
C1889 C1887 1.415 . S
C1890 H1880 0.930 . S
C1890 C1888 1.419 . S
C1890 C1891 1.362 . S
C1891 H1881 0.930 . S
C1891 C1884 1.409 . S
C1891 C1890 1.362 . S
H1892 C1898 0.930 . S
H1893 C1901 0.930 . S
H1894 C1902 0.930 1_455 S
H1895 C1903 0.930 1_455 S
H1896 C1906 0.930 . S
H1897 C1907 0.930 . S
C1898 H1892 0.930 . S
C1898 C1899 1.355 . S
C1898 C1900 1.415 . S
C1899 C1898 1.355 . S
C1899 C1901 1.419 . S
C1900 C1898 1.415 . S
C1900 C1905 1.425 . S
C1900 C1907 1.409 . S
C1901 H1893 0.930 . S
C1901 C1899 1.419 . S
C1901 C1902 1.362 . S
C1902 H1894 0.930 1_655 S
C1902 C1901 1.362 . S
C1902 C1905 1.409 . S
C1903 H1895 0.930 1_655 S
C1903 C1904 1.355 . S
C1903 C1905 1.415 . S
C1904 C1903 1.355 . S
C1904 C1906 1.419 . S
C1905 C1900 1.425 . S
C1905 C1902 1.409 . S
C1905 C1903 1.415 . S
C1906 H1896 0.930 . S
C1906 C1904 1.419 . S
C1906 C1907 1.362 . S
C1907 H1897 0.930 . S
C1907 C1900 1.409 . S
C1907 C1906 1.362 . S
H1908 C1914 0.930 . S
H1909 C1917 0.930 . S
H1910 C1918 0.930 . S
H1911 C1919 0.930 . S
H1912 C1922 0.930 . S
H1913 C1923 0.930 . S
C1914 H1908 0.930 . S
C1914 C1915 1.355 . S
C1914 C1916 1.415 . S
C1915 C1914 1.355 . S
C1915 C1917 1.419 . S
C1916 C1914 1.415 . S
C1916 C1921 1.425 . S
C1916 C1923 1.409 . S
C1917 H1909 0.930 . S
C1917 C1915 1.419 . S
C1917 C1918 1.362 . S
C1918 H1910 0.930 . S
C1918 C1917 1.362 . S
C1918 C1921 1.409 . S
C1919 H1911 0.930 . S
C1919 C1920 1.355 . S
C1919 C1921 1.415 . S
C1920 C1919 1.355 . S
C1920 C1922 1.419 . S
C1921 C1916 1.425 . S
C1921 C1918 1.409 . S
C1921 C1919 1.415 . S
C1922 H1912 0.930 . S
C1922 C1920 1.419 . S
C1922 C1923 1.362 . S
C1923 H1913 0.930 . S
C1923 C1916 1.409 . S
C1923 C1922 1.362 . S
H1924 C1930 0.930 . S
H1925 C1933 0.930 . S
H1926 C1934 0.930 . S
H1927 C1935 0.930 . S
H1928 C1938 0.930 . S
H1929 C1939 0.930 . S
C1930 H1924 0.930 . S
C1930 C1931 1.355 . S
C1930 C1932 1.415 . S
C1931 C1930 1.355 . S
C1931 C1933 1.419 . S
C1932 C1930 1.415 . S
C1932 C1937 1.425 . S
C1932 C1939 1.409 . S
C1933 H1925 0.930 . S
C1933 C1931 1.419 . S
C1933 C1934 1.362 . S
C1934 H1926 0.930 . S
C1934 C1933 1.362 . S
C1934 C1937 1.409 . S
C1935 H1927 0.930 . S
C1935 C1936 1.355 . S
C1935 C1937 1.415 . S
C1936 C1935 1.355 . S
C1936 C1938 1.419 . S
C1937 C1932 1.425 . S
C1937 C1934 1.409 . S
C1937 C1935 1.415 . S
C1938 H1928 0.930 . S
C1938 C1936 1.419 . S
C1938 C1939 1.362 . S
C1939 H1929 0.930 . S
C1939 C1932 1.409 . S
C1939 C1938 1.362 . S
H1940 C1946 0.930 . S
H1941 C1949 0.930 . S
H1942 C1950 0.930 . S
H1943 C1951 0.930 . S
H1944 C1954 0.930 . S
H1945 C1955 0.930 . S
C1946 H1940 0.930 . S
C1946 C1947 1.355 . S
C1946 C1948 1.415 . S
C1947 C1946 1.355 . S
C1947 C1949 1.419 . S
C1948 C1946 1.415 . S
C1948 C1953 1.425 . S
C1948 C1955 1.409 . S
C1949 H1941 0.930 . S
C1949 C1947 1.419 . S
C1949 C1950 1.362 . S
C1950 H1942 0.930 . S
C1950 C1949 1.362 . S
C1950 C1953 1.409 . S
C1951 H1943 0.930 . S
C1951 C1952 1.355 . S
C1951 C1953 1.415 . S
C1952 C1951 1.355 . S
C1952 C1954 1.419 . S
C1953 C1948 1.425 . S
C1953 C1950 1.409 . S
C1953 C1951 1.415 . S
C1954 H1944 0.930 . S
C1954 C1952 1.419 . S
C1954 C1955 1.362 . S
C1955 H1945 0.930 . S
C1955 C1948 1.409 . S
C1955 C1954 1.362 . S
H1956 C1962 0.930 . S
H1957 C1965 0.930 . S
H1958 C1966 0.930 . S
H1959 C1967 0.930 . S
H1960 C1970 0.930 . S
H1961 C1971 0.930 . S
C1962 H1956 0.930 . S
C1962 C1963 1.355 . S
C1962 C1964 1.415 . S
C1963 C1962 1.355 . S
C1963 C1965 1.419 . S
C1964 C1962 1.415 . S
C1964 C1969 1.425 . S
C1964 C1971 1.409 . S
C1965 H1957 0.930 . S
C1965 C1963 1.419 . S
C1965 C1966 1.362 . S
C1966 H1958 0.930 . S
C1966 C1965 1.362 . S
C1966 C1969 1.409 . S
C1967 H1959 0.930 . S
C1967 C1968 1.355 . S
C1967 C1969 1.415 . S
C1968 C1967 1.355 . S
C1968 C1970 1.419 . S
C1969 C1964 1.425 . S
C1969 C1966 1.409 . S
C1969 C1967 1.415 . S
C1970 H1960 0.930 . S
C1970 C1968 1.419 . S
C1970 C1971 1.362 . S
C1971 H1961 0.930 . S
C1971 C1964 1.409 . S
C1971 C1970 1.362 . S
H1972 C1978 0.930 . S
H1973 C1981 0.930 . S
H1974 C1982 0.930 . S
H1975 C1983 0.930 . S
H1976 C1986 0.930 . S
H1977 C1987 0.930 . S
C1978 H1972 0.930 . S
C1978 C1979 1.355 . S
C1978 C1980 1.415 . S
C1979 C1978 1.355 . S
C1979 C1981 1.419 . S
C1980 C1978 1.415 . S
C1980 C1985 1.425 . S
C1980 C1987 1.409 . S
C1981 H1973 0.930 . S
C1981 C1979 1.419 . S
C1981 C1982 1.362 . S
C1982 H1974 0.930 . S
C1982 C1981 1.362 . S
C1982 C1985 1.409 . S
C1983 H1975 0.930 . S
C1983 C1984 1.355 . S
C1983 C1985 1.415 . S
C1984 C1983 1.355 . S
C1984 C1986 1.419 . S
C1985 C1980 1.425 . S
C1985 C1982 1.409 . S
C1985 C1983 1.415 . S
C1986 H1976 0.930 . S
C1986 C1984 1.419 . S
C1986 C1987 1.362 . S
C1987 H1977 0.930 . S
C1987 C1980 1.409 . S
C1987 C1986 1.362 . S
H1988 C1994 0.930 . S
H1989 C1997 0.930 . S
H1990 C1998 0.930 . S
H1991 C1999 0.930 . S
H1992 C2002 0.930 . S
H1993 C2003 0.930 . S
C1994 H1988 0.930 . S
C1994 C1995 1.355 . S
C1994 C1996 1.415 . S
C1995 C1994 1.355 . S
C1995 C1997 1.419 . S
C1996 C1994 1.415 . S
C1996 C2001 1.425 . S
C1996 C2003 1.409 . S
C1997 H1989 0.930 . S
C1997 C1995 1.419 . S
C1997 C1998 1.362 . S
C1998 H1990 0.930 . S
C1998 C1997 1.362 . S
C1998 C2001 1.409 . S
C1999 H1991 0.930 . S
C1999 C2000 1.355 . S
C1999 C2001 1.415 . S
C2000 C1999 1.355 . S
C2000 C2002 1.419 . S
C2001 C1996 1.425 . S
C2001 C1998 1.409 . S
C2001 C1999 1.415 . S
C2002 H1992 0.930 . S
C2002 C2000 1.419 . S
C2002 C2003 1.362 . S
C2003 H1993 0.930 . S
C2003 C1996 1.409 . S
C2003 C2002 1.362 . S
H2004 C2010 0.930 . S
H2005 C2013 0.930 . S
H2006 C2014 0.930 . S
H2007 C2015 0.930 . S
H2008 C2018 0.930 . S
H2009 C2019 0.930 . S
C2010 H2004 0.930 . S
C2010 C2011 1.355 . S
C2010 C2012 1.415 . S
C2011 C2010 1.355 . S
C2011 C2013 1.419 . S
C2012 C2010 1.415 . S
C2012 C2017 1.425 . S
C2012 C2019 1.409 . S
C2013 H2005 0.930 . S
C2013 C2011 1.419 . S
C2013 C2014 1.362 . S
C2014 H2006 0.930 . S
C2014 C2013 1.362 . S
C2014 C2017 1.409 . S
C2015 H2007 0.930 . S
C2015 C2016 1.355 . S
C2015 C2017 1.415 . S
C2016 C2015 1.355 . S
C2016 C2018 1.419 . S
C2017 C2012 1.425 . S
C2017 C2014 1.409 . S
C2017 C2015 1.415 . S
C2018 H2008 0.930 . S
C2018 C2016 1.419 . S
C2018 C2019 1.362 . S
C2019 H2009 0.930 . S
C2019 C2012 1.409 . S
C2019 C2018 1.362 . S
H2020 C2026 0.930 . S
H2021 C2029 0.930 . S
H2022 C2030 0.930 . S
H2023 C2031 0.930 . S
H2024 C2034 0.930 . S
H2025 C2035 0.930 . S
C2026 H2020 0.930 . S
C2026 C2027 1.355 . S
C2026 C2028 1.415 . S
C2027 C2026 1.355 . S
C2027 C2029 1.419 . S
C2028 C2026 1.415 . S
C2028 C2033 1.425 . S
C2028 C2035 1.409 . S
C2029 H2021 0.930 . S
C2029 C2027 1.419 . S
C2029 C2030 1.362 . S
C2030 H2022 0.930 . S
C2030 C2029 1.362 . S
C2030 C2033 1.409 . S
C2031 H2023 0.930 . S
C2031 C2032 1.355 . S
C2031 C2033 1.415 . S
C2032 C2031 1.355 . S
C2032 C2034 1.419 . S
C2033 C2028 1.425 . S
C2033 C2030 1.409 . S
C2033 C2031 1.415 . S
C2034 H2024 0.930 . S
C2034 C2032 1.419 . S
C2034 C2035 1.362 . S
C2035 H2025 0.930 . S
C2035 C2028 1.409 . S
C2035 C2034 1.362 . S
H2036 C2042 0.930 . S
H2037 C2045 0.930 . S
H2038 C2046 0.930 . S
H2039 C2047 0.930 . S
H2040 C2050 0.930 . S
H2041 C2051 0.930 . S
C2042 H2036 0.930 . S
C2042 C2043 1.355 . S
C2042 C2044 1.415 . S
C2043 C2042 1.355 . S
C2043 C2045 1.419 . S
C2044 C2042 1.415 . S
C2044 C2049 1.425 . S
C2044 C2051 1.409 . S
C2045 H2037 0.930 . S
C2045 C2043 1.419 . S
C2045 C2046 1.362 . S
C2046 H2038 0.930 . S
C2046 C2045 1.362 . S
C2046 C2049 1.409 . S
C2047 H2039 0.930 . S
C2047 C2048 1.355 . S
C2047 C2049 1.415 . S
C2048 C2047 1.355 . S
C2048 C2050 1.419 . S
C2049 C2044 1.425 . S
C2049 C2046 1.409 . S
C2049 C2047 1.415 . S
C2050 H2040 0.930 . S
C2050 C2048 1.419 . S
C2050 C2051 1.362 . S
C2051 H2041 0.930 . S
C2051 C2044 1.409 . S
C2051 C2050 1.362 . S
H2052 C2058 0.930 . S
H2053 C2061 0.930 . S
H2054 C2062 0.930 . S
H2055 C2063 0.930 . S
H2056 C2066 0.930 . S
H2057 C2067 0.930 . S
C2058 H2052 0.930 . S
C2058 C2059 1.355 . S
C2058 C2060 1.415 . S
C2059 C2058 1.355 . S
C2059 C2061 1.419 . S
C2060 C2058 1.415 . S
C2060 C2065 1.425 . S
C2060 C2067 1.409 . S
C2061 H2053 0.930 . S
C2061 C2059 1.419 . S
C2061 C2062 1.362 . S
C2062 H2054 0.930 . S
C2062 C2061 1.362 . S
C2062 C2065 1.409 . S
C2063 H2055 0.930 . S
C2063 C2064 1.355 . S
C2063 C2065 1.415 . S
C2064 C2063 1.355 . S
C2064 C2066 1.419 . S
C2065 C2060 1.425 . S
C2065 C2062 1.409 . S
C2065 C2063 1.415 . S
C2066 H2056 0.930 . S
C2066 C2064 1.419 . S
C2066 C2067 1.362 . S
C2067 H2057 0.930 . S
C2067 C2060 1.409 . S
C2067 C2066 1.362 . S
H2068 C2074 0.930 . S
H2069 C2077 0.930 . S
H2070 C2078 0.930 . S
H2071 C2079 0.930 . S
H2072 C2082 0.930 . S
H2073 C2083 0.930 . S
C2074 H2068 0.930 . S
C2074 C2075 1.355 . S
C2074 C2076 1.415 . S
C2075 C2074 1.355 . S
C2075 C2077 1.419 . S
C2076 C2074 1.415 . S
C2076 C2081 1.425 . S
C2076 C2083 1.409 . S
C2077 H2069 0.930 . S
C2077 C2075 1.419 . S
C2077 C2078 1.362 . S
C2078 H2070 0.930 . S
C2078 C2077 1.362 . S
C2078 C2081 1.409 . S
C2079 H2071 0.930 . S
C2079 C2080 1.355 . S
C2079 C2081 1.415 . S
C2080 C2079 1.355 . S
C2080 C2082 1.419 . S
C2081 C2076 1.425 . S
C2081 C2078 1.409 . S
C2081 C2079 1.415 . S
C2082 H2072 0.930 . S
C2082 C2080 1.419 . S
C2082 C2083 1.362 . S
C2083 H2073 0.930 . S
C2083 C2076 1.409 . S
C2083 C2082 1.362 . S
H2084 C2090 0.930 . S
H2085 C2093 0.930 . S
H2086 C2094 0.930 . S
H2087 C2095 0.930 . S
H2088 C2098 0.930 . S
H2089 C2099 0.930 . S
C2090 H2084 0.930 . S
C2090 C2091 1.355 . S
C2090 C2092 1.415 . S
C2091 C2090 1.355 . S
C2091 C2093 1.419 . S
C2092 C2090 1.415 . S
C2092 C2097 1.425 . S
C2092 C2099 1.409 . S
C2093 H2085 0.930 . S
C2093 C2091 1.419 . S
C2093 C2094 1.362 . S
C2094 H2086 0.930 . S
C2094 C2093 1.362 . S
C2094 C2097 1.409 . S
C2095 H2087 0.930 . S
C2095 C2096 1.355 . S
C2095 C2097 1.415 . S
C2096 C2095 1.355 . S
C2096 C2098 1.419 . S
C2097 C2092 1.425 . S
C2097 C2094 1.409 . S
C2097 C2095 1.415 . S
C2098 H2088 0.930 . S
C2098 C2096 1.419 . S
C2098 C2099 1.362 . S
C2099 H2089 0.930 . S
C2099 C2092 1.409 . S
C2099 C2098 1.362 . S
H2100 C2106 0.930 . S
H2101 C2109 0.930 . S
H2102 C2110 0.930 . S
H2103 C2111 0.930 . S
H2104 C2114 0.930 . S
H2105 C2115 0.930 . S
C2106 H2100 0.930 . S
C2106 C2107 1.355 . S
C2106 C2108 1.415 . S
C2107 C2106 1.355 . S
C2107 C2109 1.419 . S
C2108 C2106 1.415 . S
C2108 C2113 1.425 . S
C2108 C2115 1.409 . S
C2109 H2101 0.930 . S
C2109 C2107 1.419 . S
C2109 C2110 1.362 . S
C2110 H2102 0.930 . S
C2110 C2109 1.362 . S
C2110 C2113 1.409 . S
C2111 H2103 0.930 . S
C2111 C2112 1.355 . S
C2111 C2113 1.415 . S
C2112 C2111 1.355 . S
C2112 C2114 1.419 . S
C2113 C2108 1.425 . S
C2113 C2110 1.409 . S
C2113 C2111 1.415 . S
C2114 H2104 0.930 . S
C2114 C2112 1.419 . S
C2114 C2115 1.362 . S
C2115 H2105 0.930 . S
C2115 C2108 1.409 . S
C2115 C2114 1.362 . S
H2116 C2122 0.930 . S
H2117 C2125 0.930 . S
H2118 C2126 0.930 . S
H2119 C2127 0.930 . S
H2120 C2130 0.930 . S
H2121 C2131 0.930 . S
C2122 H2116 0.930 . S
C2122 C2123 1.355 . S
C2122 C2124 1.415 . S
C2123 C2122 1.355 . S
C2123 C2125 1.419 . S
C2124 C2122 1.415 . S
C2124 C2129 1.425 . S
C2124 C2131 1.409 . S
C2125 H2117 0.930 . S
C2125 C2123 1.419 . S
C2125 C2126 1.362 . S
C2126 H2118 0.930 . S
C2126 C2125 1.362 . S
C2126 C2129 1.409 . S
C2127 H2119 0.930 . S
C2127 C2128 1.355 . S
C2127 C2129 1.415 . S
C2128 C2127 1.355 . S
C2128 C2130 1.419 . S
C2129 C2124 1.425 . S
C2129 C2126 1.409 . S
C2129 C2127 1.415 . S
C2130 H2120 0.930 . S
C2130 C2128 1.419 . S
C2130 C2131 1.362 . S
C2131 H2121 0.930 . S
C2131 C2124 1.409 . S
C2131 C2130 1.362 . S
H2132 C2138 0.930 . S
H2133 C2141 0.930 . S
H2134 C2142 0.930 . S
H2135 C2143 0.930 . S
H2136 C2146 0.930 . S
H2137 C2147 0.930 . S
C2138 H2132 0.930 . S
C2138 C2139 1.355 . S
C2138 C2140 1.415 . S
C2139 C2138 1.355 . S
C2139 C2141 1.419 . S
C2140 C2138 1.415 . S
C2140 C2145 1.425 . S
C2140 C2147 1.409 . S
C2141 H2133 0.930 . S
C2141 C2139 1.419 . S
C2141 C2142 1.362 . S
C2142 H2134 0.930 . S
C2142 C2141 1.362 . S
C2142 C2145 1.409 . S
C2143 H2135 0.930 . S
C2143 C2144 1.355 . S
C2143 C2145 1.415 . S
C2144 C2143 1.355 . S
C2144 C2146 1.419 . S
C2145 C2140 1.425 . S
C2145 C2142 1.409 . S
C2145 C2143 1.415 . S
C2146 H2136 0.930 . S
C2146 C2144 1.419 . S
C2146 C2147 1.362 . S
C2147 H2137 0.930 . S
C2147 C2140 1.409 . S
C2147 C2146 1.362 . S
H2148 C2154 0.930 . S
H2149 C2157 0.930 . S
H2150 C2158 0.930 . S
H2151 C2159 0.930 . S
H2152 C2162 0.930 . S
H2153 C2163 0.930 . S
C2154 H2148 0.930 . S
C2154 C2155 1.355 . S
C2154 C2156 1.415 . S
C2155 C2154 1.355 . S
C2155 C2157 1.419 . S
C2156 C2154 1.415 . S
C2156 C2161 1.425 . S
C2156 C2163 1.409 . S
C2157 H2149 0.930 . S
C2157 C2155 1.419 . S
C2157 C2158 1.362 . S
C2158 H2150 0.930 . S
C2158 C2157 1.362 . S
C2158 C2161 1.409 . S
C2159 H2151 0.930 . S
C2159 C2160 1.355 . S
C2159 C2161 1.415 . S
C2160 C2159 1.355 . S
C2160 C2162 1.419 . S
C2161 C2156 1.425 . S
C2161 C2158 1.409 . S
C2161 C2159 1.415 . S
C2162 H2152 0.930 . S
C2162 C2160 1.419 . S
C2162 C2163 1.362 . S
C2163 H2153 0.930 . S
C2163 C2156 1.409 . S
C2163 C2162 1.362 . S
H2164 C2170 0.930 . S
H2165 C2173 0.930 . S
H2166 C2174 0.930 . S
H2167 C2175 0.930 1_565 S
H2168 C2178 0.930 . S
H2169 C2179 0.930 . S
C2170 H2164 0.930 . S
C2170 C2171 1.355 . S
C2170 C2172 1.415 . S
C2171 C2170 1.355 . S
C2171 C2173 1.419 . S
C2172 C2170 1.415 . S
C2172 C2177 1.425 . S
C2172 C2179 1.409 . S
C2173 H2165 0.930 . S
C2173 C2171 1.419 . S
C2173 C2174 1.362 . S
C2174 H2166 0.930 . S
C2174 C2173 1.362 . S
C2174 C2177 1.409 . S
C2175 H2167 0.930 1_545 S
C2175 C2176 1.355 . S
C2175 C2177 1.415 . S
C2176 C2175 1.355 . S
C2176 C2178 1.419 . S
C2177 C2172 1.425 . S
C2177 C2174 1.409 . S
C2177 C2175 1.415 . S
C2178 H2168 0.930 . S
C2178 C2176 1.419 . S
C2178 C2179 1.362 . S
C2179 H2169 0.930 . S
C2179 C2172 1.409 . S
C2179 C2178 1.362 . S
H2180 C2186 0.930 . S
H2181 C2189 0.930 . S
H2182 C2190 0.930 . S
H2183 C2191 0.930 . S
H2184 C2194 0.930 . S
H2185 C2195 0.930 . S
C2186 H2180 0.930 . S
C2186 C2187 1.355 . S
C2186 C2188 1.415 . S
C2187 C2186 1.355 . S
C2187 C2189 1.419 . S
C2188 C2186 1.415 . S
C2188 C2193 1.425 . S
C2188 C2195 1.409 . S
C2189 H2181 0.930 . S
C2189 C2187 1.419 . S
C2189 C2190 1.362 . S
C2190 H2182 0.930 . S
C2190 C2189 1.362 . S
C2190 C2193 1.409 . S
C2191 H2183 0.930 . S
C2191 C2192 1.355 . S
C2191 C2193 1.415 . S
C2192 C2191 1.355 . S
C2192 C2194 1.419 . S
C2193 C2188 1.425 . S
C2193 C2190 1.409 . S
C2193 C2191 1.415 . S
C2194 H2184 0.930 . S
C2194 C2192 1.419 . S
C2194 C2195 1.362 . S
C2195 H2185 0.930 . S
C2195 C2188 1.409 . S
C2195 C2194 1.362 . S
H2196 C2202 0.930 . S
H2197 C2205 0.930 . S
H2198 C2206 0.930 . S
H2199 C2207 0.930 . S
H2200 C2210 0.930 1_545 S
H2201 C2211 0.930 . S
C2202 H2196 0.930 . S
C2202 C2203 1.355 . S
C2202 C2204 1.415 . S
C2203 C2202 1.355 . S
C2203 C2205 1.419 . S
C2204 C2202 1.415 . S
C2204 C2209 1.425 . S
C2204 C2211 1.409 . S
C2205 H2197 0.930 . S
C2205 C2203 1.419 . S
C2205 C2206 1.362 . S
C2206 H2198 0.930 . S
C2206 C2205 1.362 . S
C2206 C2209 1.409 . S
C2207 H2199 0.930 . S
C2207 C2208 1.355 . S
C2207 C2209 1.415 . S
C2208 C2207 1.355 . S
C2208 C2210 1.419 . S
C2209 C2204 1.425 . S
C2209 C2206 1.409 . S
C2209 C2207 1.415 . S
C2210 H2200 0.930 1_565 S
C2210 C2208 1.419 . S
C2210 C2211 1.362 . S
C2211 H2201 0.930 . S
C2211 C2204 1.409 . S
C2211 C2210 1.362 . S
H2212 C2218 0.930 . S
H2213 C2221 0.930 . S
H2214 C2222 0.930 . S
H2215 C2223 0.930 . S
H2216 C2226 0.930 . S
H2217 C2227 0.930 . S
C2218 H2212 0.930 . S
C2218 C2219 1.355 . S
C2218 C2220 1.415 . S
C2219 C2218 1.355 . S
C2219 C2221 1.419 . S
C2220 C2218 1.415 . S
C2220 C2225 1.425 . S
C2220 C2227 1.409 . S
C2221 H2213 0.930 . S
C2221 C2219 1.419 . S
C2221 C2222 1.362 . S
C2222 H2214 0.930 . S
C2222 C2221 1.362 . S
C2222 C2225 1.409 . S
C2223 H2215 0.930 . S
C2223 C2224 1.355 . S
C2223 C2225 1.415 . S
C2224 C2223 1.355 . S
C2224 C2226 1.419 . S
C2225 C2220 1.425 . S
C2225 C2222 1.409 . S
C2225 C2223 1.415 . S
C2226 H2216 0.930 . S
C2226 C2224 1.419 . S
C2226 C2227 1.362 . S
C2227 H2217 0.930 . S
C2227 C2220 1.409 . S
C2227 C2226 1.362 . S
H2228 C2234 0.930 . S
H2229 C2237 0.930 . S
H2230 C2238 0.930 . S
H2231 C2239 0.930 . S
H2232 C2242 0.930 . S
H2233 C2243 0.930 . S
C2234 H2228 0.930 . S
C2234 C2235 1.355 . S
C2234 C2236 1.415 . S
C2235 C2234 1.355 . S
C2235 C2237 1.419 . S
C2236 C2234 1.415 . S
C2236 C2241 1.425 . S
C2236 C2243 1.409 . S
C2237 H2229 0.930 . S
C2237 C2235 1.419 . S
C2237 C2238 1.362 . S
C2238 H2230 0.930 . S
C2238 C2237 1.362 . S
C2238 C2241 1.409 . S
C2239 H2231 0.930 . S
C2239 C2240 1.355 . S
C2239 C2241 1.415 . S
C2240 C2239 1.355 . S
C2240 C2242 1.419 . S
C2241 C2236 1.425 . S
C2241 C2238 1.409 . S
C2241 C2239 1.415 . S
C2242 H2232 0.930 . S
C2242 C2240 1.419 . S
C2242 C2243 1.362 . S
C2243 H2233 0.930 . S
C2243 C2236 1.409 . S
C2243 C2242 1.362 . S
H2244 C2250 0.930 . S
H2245 C2253 0.930 . S
H2246 C2254 0.930 . S
H2247 C2255 0.930 . S
H2248 C2258 0.930 . S
H2249 C2259 0.930 . S
C2250 H2244 0.930 . S
C2250 C2251 1.355 . S
C2250 C2252 1.415 . S
C2251 C2250 1.355 . S
C2251 C2253 1.419 . S
C2252 C2250 1.415 . S
C2252 C2257 1.425 . S
C2252 C2259 1.409 . S
C2253 H2245 0.930 . S
C2253 C2251 1.419 . S
C2253 C2254 1.362 . S
C2254 H2246 0.930 . S
C2254 C2253 1.362 . S
C2254 C2257 1.409 . S
C2255 H2247 0.930 . S
C2255 C2256 1.355 . S
C2255 C2257 1.415 . S
C2256 C2255 1.355 . S
C2256 C2258 1.419 . S
C2257 C2252 1.425 . S
C2257 C2254 1.409 . S
C2257 C2255 1.415 . S
C2258 H2248 0.930 . S
C2258 C2256 1.419 . S
C2258 C2259 1.362 . S
C2259 H2249 0.930 . S
C2259 C2252 1.409 . S
C2259 C2258 1.362 . S
C736 C376 1.051 . S
C731 C241 1.271 . S
C752 C384 1.128 . S
C747 C272 1.251 . S
C768 C379 1.362 . S
C763 C249 1.444 . S
C779 C206 1.628 . S
C784 C383 1.510 . S
C800 C438 1.405 . S
C795 C125 1.563 . S
C811 C142 1.211 . S
C816 C414 1.104 . S
C832 C441 1.210 . S
C827 C169 1.283 . S
C843 C103 1.764 . S
C848 C415 1.633 . S
C859 C315 1.800 . S
C864 C472 1.669 . S
C875 C338 1.429 . S
C880 C476 1.305 1_545 S
C896 C531 0.990 . S
C891 C183 1.187 . S
C912 C539 1.596 . S
C907 C293 1.761 . S
C928 C469 1.040 . S
C923 C87 1.242 . S
C944 C477 1.525 1_545 S
C939 C21 1.656 . S
C955 C43 1.732 . S
C960 C534 1.632 . S
C971 C65 1.593 . S
C976 C538 1.462 . S
C987 C37 1.514 . S
C992 C503 1.369 . S
C1008 C593 1.172 . S
C1003 C197 1.325 . S
C1019 C307 1.639 . S
C1024 C601 1.507 . S
C1040 C655 1.260 . S
C1035 C329 1.470 . S
C1051 C150 1.429 . S
C1056 C507 1.311 1_655 S
C1072 C596 1.116 . S
C1067 C227 1.298 . S
C1088 C600 1.434 . S
C1083 C274 1.553 . S
C1104 C663 1.435 . S
C1099 C208 1.506 . S
C1115 C73 1.273 . S
C1120 C407 1.069 . S
C1131 C7 1.346 . S
C1136 C353 1.271 . S
C1152 C410 1.237 . S
C1147 C29 1.437 . S
C1163 C51 1.687 . S
C1168 C352 1.581 1_554 S
C1179 C323 1.562 . S
C1184 C717 1.414 . S
C1195 C340 1.270 . S
C1200 C693 1.202 1_556 S
C1216 C720 1.208 . S
C1211 C191 1.257 . S
C1227 C301 1.732 . S
C1232 C694 1.606 . S
C1243 C117 1.781 . S
C1248 C627 1.668 . S
C1264 C631 1.325 . S
C1259 C140 1.434 . S
C1280 C686 1.061 . S
C1275 C161 1.144 . S
C1296 C570 1.576 1_565 S
C1291 C95 1.740 . S
C1312 C624 1.132 . S
C1307 C235 1.216 . S
C1323 C282 1.609 . S
C1328 C632 1.515 . S
C1339 C263 1.732 . S
C1344 C689 1.633 . S
C1360 C569 1.490 1_565 S
C1355 C216 1.595 . S
C1371 C257 1.511 . S
C1376 C658 1.367 . S
C1392 C562 1.086 . S
C1387 C175 1.326 . S
C1403 C109 1.657 . S
C1408 C446 1.536 . S
C1419 C131 1.405 . S
C1424 C500 1.124 . S
C1435 C348 1.478 . S
C1440 C662 1.363 . S
C1451 C81 1.284 . S
C1456 C565 1.190 . S
C1467 C15 1.571 . S
C1472 C445 1.464 1_455 S
C1488 C508 1.454 . S
C1483 C59 1.532 . S
C1504 C363 1.715 . S
C1499 C351 1.753 . S
C1520 C393 1.769 . S
C1515 C194 1.822 . S
C1536 C370 1.646 . S
C1531 C304 1.595 . S
C1552 C385 1.958 . S
C1547 C326 1.895 1_565 S
C1568 C425 1.634 . S
C1563 C205 1.660 . S
C1579 C230 2.008 . S
C1584 C416 2.067 . S
C1595 C271 1.799 . S
C1600 C432 1.841 . S
C1611 C250 1.999 1_565 S
C1616 C424 1.937 . S
C1632 C463 1.415 . S
C1627 C62 1.378 . S
C1648 C486 1.677 . S
C1643 C84 1.752 . S
C1659 C18 1.256 . S
C1664 C518 1.196 . S
C1680 C548 1.802 . S
C1675 C40 1.817 . S
C1691 C147 1.341 . S
C1696 C456 1.279 . S
C1712 C478 1.789 . S
C1707 C164 1.799 1_455 S
C1728 C525 1.308 . S
C1723 C98 1.304 . S
C1739 C120 1.831 1_655 S
C1744 C540 1.880 . S
C1760 C487 1.407 . S
C1755 C96 1.482 . S
C1771 C10 1.505 . S
C1776 C580 1.436 . S
C1787 C32 1.458 . S
C1792 C610 1.464 . S
C1803 C54 1.358 . S
C1808 C649 1.409 . S
C1824 C509 1.781 . S
C1819 C238 1.740 . S
C1840 C587 1.432 . S
C1835 C337 1.348 . S
C1851 C184 1.853 . S
C1856 C602 1.867 . S
C1872 C672 1.253 . S
C1867 C316 1.234 . S
C1888 C394 1.714 . S
C1883 C153 1.749 . S
C1899 C172 1.826 1_545 S
C1904 C362 1.809 . S
C1915 C106 1.652 . S
C1920 C401 1.676 . S
C1931 C128 1.873 . S
C1936 C354 1.951 . S
C1952 C704 1.500 . S
C1947 C52 1.576 . S
C1968 C695 2.065 . S
C1963 C74 2.022 1_545 S
C1979 C8 1.729 . S
C1984 C711 1.785 . S
C1995 C30 2.004 . S
C2000 C703 1.957 . S
C2011 C219 1.352 . S
C2016 C618 1.445 . S
C2032 C641 1.732 . S
C2027 C228 1.777 1_655 S
C2048 C673 1.304 . S
C2043 C285 1.326 . S
C2059 C260 1.829 1_455 S
C2064 C579 1.758 . S
C2080 C611 1.353 . S
C2075 C345 1.387 . S
C2091 C186 1.809 . S
C2096 C633 1.823 . S
C2112 C680 1.308 . S
C2107 C296 1.300 . S
C2123 C318 1.891 . S
C2128 C571 1.867 . S
C2139 C294 1.421 . S
C2144 C642 1.412 . S
C2155 C279 1.501 . S
C2160 C549 1.436 . S
C2176 C455 1.442 . S
C2171 C252 1.425 . S
C2187 C213 1.347 . S
C2192 C494 1.455 . S
C2203 C76 1.722 1_556 S
C2208 C664 1.762 . S
C2219 C139 1.426 . S
C2224 C556 1.439 . S
C2240 C447 1.870 . S
C2235 C162 1.792 1_554 S
C2251 C118 1.260 . S
C2256 C517 1.282 . S
