# Generated by pormake.
# Topology ibd, (4,6)-cn, num edge types: 1
# Building blocks:
#     Node 0, Type 0, BuildingBlock: CEKHIL_clean_sbu_0, # of connection points: 4
#     Node 1, Type 0, BuildingBlock: CEKHIL_clean_sbu_0, # of connection points: 4
#     Node 2, Type 0, BuildingBlock: CEKHIL_clean_sbu_0, # of connection points: 4
#     Node 3, Type 0, BuildingBlock: CEKHIL_clean_sbu_0, # of connection points: 4
#     Node 4, Type 0, BuildingBlock: CEKHIL_clean_sbu_0, # of connection points: 4
#     Node 5, Type 0, BuildingBlock: CEKHIL_clean_sbu_0, # of connection points: 4
#     Node 6, Type 0, BuildingBlock: CEKHIL_clean_sbu_0, # of connection points: 4
#     Node 7, Type 0, BuildingBlock: CEKHIL_clean_sbu_0, # of connection points: 4
#     Node 8, Type 0, BuildingBlock: CEKHIL_clean_sbu_0, # of connection points: 4
#     Node 9, Type 0, BuildingBlock: CEKHIL_clean_sbu_0, # of connection points: 4
#     Node 10, Type 0, BuildingBlock: CEKHIL_clean_sbu_0, # of connection points: 4
#     Node 11, Type 0, BuildingBlock: CEKHIL_clean_sbu_0, # of connection points: 4
#     Node 12, Type 0, BuildingBlock: CEKHIL_clean_sbu_0, # of connection points: 4
#     Node 13, Type 0, BuildingBlock: CEKHIL_clean_sbu_0, # of connection points: 4
#     Node 14, Type 0, BuildingBlock: CEKHIL_clean_sbu_0, # of connection points: 4
#     Node 15, Type 0, BuildingBlock: CEKHIL_clean_sbu_0, # of connection points: 4
#     Node 16, Type 0, BuildingBlock: CEKHIL_clean_sbu_0, # of connection points: 4
#     Node 17, Type 0, BuildingBlock: CEKHIL_clean_sbu_0, # of connection points: 4
#     Node 18, Type 0, BuildingBlock: CEKHIL_clean_sbu_0, # of connection points: 4
#     Node 19, Type 0, BuildingBlock: CEKHIL_clean_sbu_0, # of connection points: 4
#     Node 20, Type 0, BuildingBlock: CEKHIL_clean_sbu_0, # of connection points: 4
#     Node 21, Type 0, BuildingBlock: CEKHIL_clean_sbu_0, # of connection points: 4
#     Node 22, Type 0, BuildingBlock: CEKHIL_clean_sbu_0, # of connection points: 4
#     Node 23, Type 0, BuildingBlock: CEKHIL_clean_sbu_0, # of connection points: 4
#     Node 24, Type 1, BuildingBlock: CIFDUS_clean_sbu_1, # of connection points: 6
#     Node 25, Type 1, BuildingBlock: CIFDUS_clean_sbu_1, # of connection points: 6
#     Node 26, Type 1, BuildingBlock: CIFDUS_clean_sbu_1, # of connection points: 6
#     Node 27, Type 1, BuildingBlock: CIFDUS_clean_sbu_1, # of connection points: 6
#     Node 28, Type 1, BuildingBlock: CIFDUS_clean_sbu_1, # of connection points: 6
#     Node 29, Type 1, BuildingBlock: CIFDUS_clean_sbu_1, # of connection points: 6
#     Node 30, Type 1, BuildingBlock: CIFDUS_clean_sbu_1, # of connection points: 6
#     Node 31, Type 1, BuildingBlock: CIFDUS_clean_sbu_1, # of connection points: 6
#     Node 32, Type 1, BuildingBlock: CIFDUS_clean_sbu_1, # of connection points: 6
#     Node 33, Type 1, BuildingBlock: CIFDUS_clean_sbu_1, # of connection points: 6
#     Node 34, Type 1, BuildingBlock: CIFDUS_clean_sbu_1, # of connection points: 6
#     Node 35, Type 1, BuildingBlock: CIFDUS_clean_sbu_1, # of connection points: 6
#     Node 36, Type 1, BuildingBlock: CIFDUS_clean_sbu_1, # of connection points: 6
#     Node 37, Type 1, BuildingBlock: CIFDUS_clean_sbu_1, # of connection points: 6
#     Node 38, Type 1, BuildingBlock: CIFDUS_clean_sbu_1, # of connection points: 6
#     Node 39, Type 1, BuildingBlock: CIFDUS_clean_sbu_1, # of connection points: 6
#     Edge 40, Type (0, 1), BuildingBlock: EZIPEK_clean_linker_0, # of connection points: 2
#     Edge 41, Type (0, 1), BuildingBlock: EZIPEK_clean_linker_0, # of connection points: 2
#     Edge 42, Type (0, 1), BuildingBlock: EZIPEK_clean_linker_0, # of connection points: 2
#     Edge 43, Type (0, 1), BuildingBlock: EZIPEK_clean_linker_0, # of connection points: 2
#     Edge 44, Type (0, 1), BuildingBlock: EZIPEK_clean_linker_0, # of connection points: 2
#     Edge 45, Type (0, 1), BuildingBlock: EZIPEK_clean_linker_0, # of connection points: 2
#     Edge 46, Type (0, 1), BuildingBlock: EZIPEK_clean_linker_0, # of connection points: 2
#     Edge 47, Type (0, 1), BuildingBlock: EZIPEK_clean_linker_0, # of connection points: 2
#     Edge 48, Type (0, 1), BuildingBlock: EZIPEK_clean_linker_0, # of connection points: 2
#     Edge 49, Type (0, 1), BuildingBlock: EZIPEK_clean_linker_0, # of connection points: 2
#     Edge 50, Type (0, 1), BuildingBlock: EZIPEK_clean_linker_0, # of connection points: 2
#     Edge 51, Type (0, 1), BuildingBlock: EZIPEK_clean_linker_0, # of connection points: 2
#     Edge 52, Type (0, 1), BuildingBlock: EZIPEK_clean_linker_0, # of connection points: 2
#     Edge 53, Type (0, 1), BuildingBlock: EZIPEK_clean_linker_0, # of connection points: 2
#     Edge 54, Type (0, 1), BuildingBlock: EZIPEK_clean_linker_0, # of connection points: 2
#     Edge 55, Type (0, 1), BuildingBlock: EZIPEK_clean_linker_0, # of connection points: 2
#     Edge 56, Type (0, 1), BuildingBlock: EZIPEK_clean_linker_0, # of connection points: 2
#     Edge 57, Type (0, 1), BuildingBlock: EZIPEK_clean_linker_0, # of connection points: 2
#     Edge 58, Type (0, 1), BuildingBlock: EZIPEK_clean_linker_0, # of connection points: 2
#     Edge 59, Type (0, 1), BuildingBlock: EZIPEK_clean_linker_0, # of connection points: 2
#     Edge 60, Type (0, 1), BuildingBlock: EZIPEK_clean_linker_0, # of connection points: 2
#     Edge 61, Type (0, 1), BuildingBlock: EZIPEK_clean_linker_0, # of connection points: 2
#     Edge 62, Type (0, 1), BuildingBlock: EZIPEK_clean_linker_0, # of connection points: 2
#     Edge 63, Type (0, 1), BuildingBlock: EZIPEK_clean_linker_0, # of connection points: 2
#     Edge 64, Type (0, 1), BuildingBlock: EZIPEK_clean_linker_0, # of connection points: 2
#     Edge 65, Type (0, 1), BuildingBlock: EZIPEK_clean_linker_0, # of connection points: 2
#     Edge 66, Type (0, 1), BuildingBlock: EZIPEK_clean_linker_0, # of connection points: 2
#     Edge 67, Type (0, 1), BuildingBlock: EZIPEK_clean_linker_0, # of connection points: 2
#     Edge 68, Type (0, 1), BuildingBlock: EZIPEK_clean_linker_0, # of connection points: 2
#     Edge 69, Type (0, 1), BuildingBlock: EZIPEK_clean_linker_0, # of connection points: 2
#     Edge 70, Type (0, 1), BuildingBlock: EZIPEK_clean_linker_0, # of connection points: 2
#     Edge 71, Type (0, 1), BuildingBlock: EZIPEK_clean_linker_0, # of connection points: 2
#     Edge 72, Type (0, 1), BuildingBlock: EZIPEK_clean_linker_0, # of connection points: 2
#     Edge 73, Type (0, 1), BuildingBlock: EZIPEK_clean_linker_0, # of connection points: 2
#     Edge 74, Type (0, 1), BuildingBlock: EZIPEK_clean_linker_0, # of connection points: 2
#     Edge 75, Type (0, 1), BuildingBlock: EZIPEK_clean_linker_0, # of connection points: 2
#     Edge 76, Type (0, 1), BuildingBlock: EZIPEK_clean_linker_0, # of connection points: 2
#     Edge 77, Type (0, 1), BuildingBlock: EZIPEK_clean_linker_0, # of connection points: 2
#     Edge 78, Type (0, 1), BuildingBlock: EZIPEK_clean_linker_0, # of connection points: 2
#     Edge 79, Type (0, 1), BuildingBlock: EZIPEK_clean_linker_0, # of connection points: 2
#     Edge 80, Type (0, 1), BuildingBlock: EZIPEK_clean_linker_0, # of connection points: 2
#     Edge 81, Type (0, 1), BuildingBlock: EZIPEK_clean_linker_0, # of connection points: 2
#     Edge 82, Type (0, 1), BuildingBlock: EZIPEK_clean_linker_0, # of connection points: 2
#     Edge 83, Type (0, 1), BuildingBlock: EZIPEK_clean_linker_0, # of connection points: 2
#     Edge 84, Type (0, 1), BuildingBlock: EZIPEK_clean_linker_0, # of connection points: 2
#     Edge 85, Type (0, 1), BuildingBlock: EZIPEK_clean_linker_0, # of connection points: 2
#     Edge 86, Type (0, 1), BuildingBlock: EZIPEK_clean_linker_0, # of connection points: 2
#     Edge 87, Type (0, 1), BuildingBlock: EZIPEK_clean_linker_0, # of connection points: 2
#     Edge 88, Type (0, 1), BuildingBlock: EZIPEK_clean_linker_0, # of connection points: 2
#     Edge 89, Type (0, 1), BuildingBlock: EZIPEK_clean_linker_0, # of connection points: 2
#     Edge 90, Type (0, 1), BuildingBlock: EZIPEK_clean_linker_0, # of connection points: 2
#     Edge 91, Type (0, 1), BuildingBlock: EZIPEK_clean_linker_0, # of connection points: 2
#     Edge 92, Type (0, 1), BuildingBlock: EZIPEK_clean_linker_0, # of connection points: 2
#     Edge 93, Type (0, 1), BuildingBlock: EZIPEK_clean_linker_0, # of connection points: 2
#     Edge 94, Type (0, 1), BuildingBlock: EZIPEK_clean_linker_0, # of connection points: 2
#     Edge 95, Type (0, 1), BuildingBlock: EZIPEK_clean_linker_0, # of connection points: 2
#     Edge 96, Type (0, 1), BuildingBlock: EZIPEK_clean_linker_0, # of connection points: 2
#     Edge 97, Type (0, 1), BuildingBlock: EZIPEK_clean_linker_0, # of connection points: 2
#     Edge 98, Type (0, 1), BuildingBlock: EZIPEK_clean_linker_0, # of connection points: 2
#     Edge 99, Type (0, 1), BuildingBlock: EZIPEK_clean_linker_0, # of connection points: 2
#     Edge 100, Type (0, 1), BuildingBlock: EZIPEK_clean_linker_0, # of connection points: 2
#     Edge 101, Type (0, 1), BuildingBlock: EZIPEK_clean_linker_0, # of connection points: 2
#     Edge 102, Type (0, 1), BuildingBlock: EZIPEK_clean_linker_0, # of connection points: 2
#     Edge 103, Type (0, 1), BuildingBlock: EZIPEK_clean_linker_0, # of connection points: 2
#     Edge 104, Type (0, 1), BuildingBlock: EZIPEK_clean_linker_0, # of connection points: 2
#     Edge 105, Type (0, 1), BuildingBlock: EZIPEK_clean_linker_0, # of connection points: 2
#     Edge 106, Type (0, 1), BuildingBlock: EZIPEK_clean_linker_0, # of connection points: 2
#     Edge 107, Type (0, 1), BuildingBlock: EZIPEK_clean_linker_0, # of connection points: 2
#     Edge 108, Type (0, 1), BuildingBlock: EZIPEK_clean_linker_0, # of connection points: 2
#     Edge 109, Type (0, 1), BuildingBlock: EZIPEK_clean_linker_0, # of connection points: 2
#     Edge 110, Type (0, 1), BuildingBlock: EZIPEK_clean_linker_0, # of connection points: 2
#     Edge 111, Type (0, 1), BuildingBlock: EZIPEK_clean_linker_0, # of connection points: 2
#     Edge 112, Type (0, 1), BuildingBlock: EZIPEK_clean_linker_0, # of connection points: 2
#     Edge 113, Type (0, 1), BuildingBlock: EZIPEK_clean_linker_0, # of connection points: 2
#     Edge 114, Type (0, 1), BuildingBlock: EZIPEK_clean_linker_0, # of connection points: 2
#     Edge 115, Type (0, 1), BuildingBlock: EZIPEK_clean_linker_0, # of connection points: 2
#     Edge 116, Type (0, 1), BuildingBlock: EZIPEK_clean_linker_0, # of connection points: 2
#     Edge 117, Type (0, 1), BuildingBlock: EZIPEK_clean_linker_0, # of connection points: 2
#     Edge 118, Type (0, 1), BuildingBlock: EZIPEK_clean_linker_0, # of connection points: 2
#     Edge 119, Type (0, 1), BuildingBlock: EZIPEK_clean_linker_0, # of connection points: 2
#     Edge 120, Type (0, 1), BuildingBlock: EZIPEK_clean_linker_0, # of connection points: 2
#     Edge 121, Type (0, 1), BuildingBlock: EZIPEK_clean_linker_0, # of connection points: 2
#     Edge 122, Type (0, 1), BuildingBlock: EZIPEK_clean_linker_0, # of connection points: 2
#     Edge 123, Type (0, 1), BuildingBlock: EZIPEK_clean_linker_0, # of connection points: 2
#     Edge 124, Type (0, 1), BuildingBlock: EZIPEK_clean_linker_0, # of connection points: 2
#     Edge 125, Type (0, 1), BuildingBlock: EZIPEK_clean_linker_0, # of connection points: 2
#     Edge 126, Type (0, 1), BuildingBlock: EZIPEK_clean_linker_0, # of connection points: 2
#     Edge 127, Type (0, 1), BuildingBlock: EZIPEK_clean_linker_0, # of connection points: 2
#     Edge 128, Type (0, 1), BuildingBlock: EZIPEK_clean_linker_0, # of connection points: 2
#     Edge 129, Type (0, 1), BuildingBlock: EZIPEK_clean_linker_0, # of connection points: 2
#     Edge 130, Type (0, 1), BuildingBlock: EZIPEK_clean_linker_0, # of connection points: 2
#     Edge 131, Type (0, 1), BuildingBlock: EZIPEK_clean_linker_0, # of connection points: 2
#     Edge 132, Type (0, 1), BuildingBlock: EZIPEK_clean_linker_0, # of connection points: 2
#     Edge 133, Type (0, 1), BuildingBlock: EZIPEK_clean_linker_0, # of connection points: 2
#     Edge 134, Type (0, 1), BuildingBlock: EZIPEK_clean_linker_0, # of connection points: 2
#     Edge 135, Type (0, 1), BuildingBlock: EZIPEK_clean_linker_0, # of connection points: 2
# Relax obj value: 0.352
# Max RMSD: 0.307
# Mean RMSD: 0.277
data_MOF--net-ibd--node1-CEKHIL_clean_sbu_0--node2-CIFDUS_clean_sbu_1--edge1-EZIPEK_clean_linker_0
_symmetry_space_group_name_H-M    P1
_symmetry_Int_Tables_number       1
_symmetry_cell_setting            triclinic
loop_
_symmetry_equiv_pos_as_xyz
'x, y, z'
_cell_length_a     34.722724
_cell_length_b     35.67442
_cell_length_c     36.158309
_cell_angle_alpha  91.045733
_cell_angle_beta   89.958565
_cell_angle_gamma 94.001343
loop_
_atom_site_label
_atom_site_type_symbol
_atom_site_fract_x
_atom_site_fract_y
_atom_site_fract_z
_atom_type_partial_charge
Co0 Co -0.00406 0.31343 0.36254 0.0
O1 O 0.01627 0.34476 0.32239 0.0
O2 O 0.95469 0.33597 0.33701 0.0
C3 C 0.03838 0.33015 0.4078 0.0
O4 O 0.96195 0.28805 0.40201 0.0
Co5 Co 0.03714 0.24796 0.3956 0.0
O6 O 0.99219 0.24214 0.42902 0.0
C7 C 0.0205 0.24893 0.3185 0.0
C8 C 0.98062 0.35051 0.31478 0.0
C9 C 0.96434 0.2632 0.42693 0.0
O10 O 0.9923 0.26894 0.32721 0.0
O11 O 0.04506 0.23956 0.34205 0.0
O12 O 0.01123 0.3521 0.39941 0.0
O13 O 0.04213 0.30192 0.38566 0.0
Co14 Co 0.97588 0.76873 0.65015 0.0
O15 O 0.94981 0.75845 0.69546 0.0
O16 O 0.97813 0.81378 0.68074 0.0
C17 C 0.93456 0.74254 0.60909 0.0
O18 O 0.00504 0.78676 0.60453 0.0
Co19 Co 0.00586 0.69789 0.61321 0.0
O20 O 0.02749 0.73519 0.57711 0.0
C21 C 0.0299 0.7221 0.68597 0.0
C22 C 0.95991 0.79283 0.70526 0.0
C23 C 0.02215 0.77023 0.57774 0.0
O24 O 0.0243 0.75463 0.67395 0.0
O25 O 0.02104 0.69241 0.66668 0.0
O26 O 0.92807 0.77493 0.62388 0.0
O27 O 0.96 0.72414 0.62615 0.0
Co28 Co 0.49604 0.81692 0.86202 0.0
O29 O 0.50074 0.85054 0.82099 0.0
O30 O 0.44805 0.8146 0.83465 0.0
C31 C 0.52267 0.85239 0.90709 0.0
O32 O 0.48249 0.78023 0.90397 0.0
Co33 Co 0.57304 0.78947 0.89136 0.0
O34 O 0.53835 0.75966 0.92505 0.0
C35 C 0.5477 0.77139 0.81741 0.0
C36 C 0.46588 0.83826 0.8123 0.0
C37 C 0.50191 0.76173 0.92721 0.0
O38 O 0.51366 0.77588 0.82924 0.0
O39 O 0.57778 0.77926 0.83701 0.0
O40 O 0.48779 0.85814 0.89651 0.0
O41 O 0.54204 0.83224 0.88466 0.0
Co42 Co 0.47888 0.27766 0.14435 0.0
O43 O 0.44098 0.27119 0.18187 0.0
O44 O 0.47936 0.32243 0.17402 0.0
C45 C 0.44482 0.25464 0.09675 0.0
O46 O 0.52029 0.29341 0.10744 0.0
Co47 Co 0.50994 0.20626 0.10928 0.0
O48 O 0.53181 0.24297 0.07253 0.0
C49 C 0.52556 0.2257 0.18636 0.0
C50 C 0.45234 0.30474 0.19335 0.0
C51 C 0.53574 0.27833 0.07899 0.0
O52 O 0.51735 0.25896 0.17879 0.0
O53 O 0.52128 0.19815 0.16326 0.0
O54 O 0.44015 0.28867 0.10837 0.0
O55 O 0.46445 0.23421 0.11805 0.0
Co56 Co -0.00287 0.79099 0.12309 0.0
O57 O 0.00562 0.82526 0.08308 0.0
O58 O 0.94914 0.79654 0.09743 0.0
C59 C 0.03204 0.82377 0.16771 0.0
O60 O 0.97765 0.75602 0.16426 0.0
Co61 Co 0.06576 0.75001 0.15004 0.0
O62 O 0.02983 0.73256 0.18987 0.0
C63 C 0.03576 0.73164 0.07721 0.0
C64 C 0.96936 0.8183 0.07507 0.0
C65 C 0.99405 0.73806 0.18986 0.0
O66 O 0.00561 0.74746 0.08792 0.0
O67 O 0.06673 0.73496 0.09637 0.0
O68 O -0.00253 0.83257 0.15909 0.0
O69 O 0.04595 0.79952 0.14508 0.0
Co70 Co 0.50521 0.78797 0.38443 0.0
O71 O 0.46368 0.78689 0.41988 0.0
O72 O 0.50847 0.83354 0.41302 0.0
C73 C 0.47169 0.7649 0.33415 0.0
O74 O 0.5499 0.80081 0.3492 0.0
Co75 Co 0.53404 0.71466 0.35261 0.0
O76 O 0.55379 0.74904 0.31376 0.0
C77 C 0.54608 0.73277 0.43055 0.0
C78 C 0.47921 0.81912 0.43171 0.0
C79 C 0.55882 0.78445 0.3187 0.0
O80 O 0.53835 0.76642 0.42331 0.0
O81 O 0.54407 0.70635 0.40613 0.0
O82 O 0.47091 0.79996 0.34462 0.0
O83 O 0.48886 0.74447 0.35749 0.0
Co84 Co 0.49333 0.28608 0.61956 0.0
O85 O 0.49628 0.32003 0.57858 0.0
O86 O 0.44431 0.28402 0.59429 0.0
C87 C 0.5227 0.32377 0.66441 0.0
O88 O 0.47658 0.25009 0.66096 0.0
Co89 Co 0.56442 0.25413 0.65297 0.0
O90 O 0.5288 0.23395 0.69186 0.0
C91 C 0.54615 0.2379 0.5766 0.0
C92 C 0.46059 0.30821 0.57189 0.0
C93 C 0.49255 0.23568 0.68899 0.0
O94 O 0.51136 0.24541 0.58481 0.0
O95 O 0.57399 0.24354 0.59944 0.0
O96 O 0.48716 0.32769 0.65458 0.0
O97 O 0.54058 0.3011 0.64304 0.0
Co98 Co 0.00444 0.28754 0.88583 0.0
O99 O 0.96248 0.27577 0.91982 0.0
O100 O 0.00174 0.32775 0.92153 0.0
C101 C 0.97443 0.27204 0.83159 0.0
O102 O 0.04836 0.31051 0.85422 0.0
Co103 Co 0.04053 0.22297 0.84522 0.0
O104 O 0.06238 0.26424 0.81458 0.0
C105 C 0.04491 0.22784 0.92429 0.0
C106 C 0.97359 0.3073 0.93639 0.0
C107 C 0.06307 0.29887 0.82381 0.0
O108 O 0.03927 0.26265 0.9206 0.0
O109 O 0.04484 0.20494 0.8968 0.0
O110 O 0.97022 0.30399 0.84852 0.0
O111 O 0.99229 0.2483 0.85109 0.0
Co112 Co 0.36247 0.01508 0.21614 0.0
O113 O 0.40115 0.02921 0.18137 0.0
O114 O 0.38748 0.97103 0.20083 0.0
C115 C 0.3141 0.0474 0.19453 0.0
O116 O 0.32559 0.99124 0.25289 0.0
Co117 Co 0.33884 0.07821 0.26909 0.0
O118 O 0.30131 0.03751 0.28672 0.0
C119 C 0.41682 0.05372 0.27071 0.0
C120 C 0.41099 -0.00522 0.1836 0.0
C121 C 0.30259 0.00287 0.27751 0.0
O122 O 0.40287 0.02343 0.25519 0.0
O123 O 0.3969 0.0822 0.27596 0.0
O124 O 0.32061 0.01494 0.1797 0.0
O125 O 0.34001 0.06113 0.21767 0.0
Co126 Co 0.25155 0.14974 0.52737 0.0
O127 O 0.23794 0.11326 0.56511 0.0
O128 O 0.29632 0.12408 0.54117 0.0
C129 C 0.22048 0.19938 0.54799 0.0
O130 O 0.27753 0.18478 0.48971 0.0
Co131 Co 0.18754 0.17661 0.47525 0.0
O132 O 0.23111 0.21074 0.45732 0.0
C133 C 0.20615 0.09853 0.47495 0.0
C134 C 0.2734 0.10393 0.56251 0.0
C135 C 0.26649 0.20795 0.46577 0.0
O136 O 0.23891 0.10993 0.48871 0.0
O137 O 0.17908 0.12038 0.46981 0.0
O138 O 0.25288 0.19161 0.56341 0.0
O139 O 0.2057 0.17361 0.52582 0.0
Co140 Co 0.1188 0.04158 0.71988 0.0
O141 O 0.15956 0.04061 0.68432 0.0
O142 O 0.14122 0.99408 0.72224 0.0
C143 C 0.0745 0.06579 0.68372 0.0
O144 O 0.07655 0.03348 0.7585 0.0
Co145 Co 0.09429 0.11932 0.74612 0.0
O146 O 0.04837 0.08836 0.76408 0.0
C147 C 0.17003 0.0955 0.76575 0.0
C148 C 0.16495 0.00769 0.69717 0.0
C149 C 0.04878 0.05314 0.76941 0.0
O150 O 0.15724 0.06191 0.75755 0.0
O151 O 0.15061 0.12412 0.76045 0.0
O152 O 0.08022 0.03017 0.68211 0.0
O153 O 0.09954 0.08554 0.70378 0.0
Co154 Co 0.2373 0.90296 0.02768 0.0
O155 O 0.23117 0.86455 0.06328 0.0
O156 O 0.28561 0.88057 0.03358 0.0
C157 C 0.20652 0.94574 0.05994 0.0
O158 O 0.25602 0.94285 0.991 0.0
Co159 Co 0.16875 0.93343 0.98746 0.0
O160 O 0.20609 0.97511 0.97328 0.0
C161 C 0.18474 0.85496 0.97991 0.0
C162 C 0.26715 0.85889 0.05711 0.0
C163 C 0.24204 0.9715 0.97632 0.0
O164 O 0.22001 0.86453 0.98866 0.0
O165 O 0.15817 0.87791 0.9815 0.0
O166 O 0.24264 0.94093 0.06675 0.0
O167 O 0.1899 0.92289 0.03583 0.0
Co168 Co 0.2717 0.41668 0.00933 0.0
O169 O 0.3128 0.38264 0.00631 0.0
O170 O 0.26831 0.38834 0.96408 0.0
C171 C 0.30467 0.47001 0.0301 0.0
O172 O 0.22645 0.44869 0.0009 0.0
Co173 Co 0.2447 0.44711 0.08493 0.0
O174 O 0.21684 0.48151 0.05351 0.0
C175 C 0.23597 0.36752 0.06725 0.0
C176 C 0.29807 0.37115 0.97468 0.0
C177 C 0.21158 0.47548 0.01897 0.0
O178 O 0.23854 0.37615 0.03313 0.0
O179 O 0.24118 0.39157 0.09369 0.0
O180 O 0.30602 0.45954 -0.00455 0.0
O181 O 0.28822 0.44463 0.05103 0.0
Co182 Co 0.76247 0.16244 0.00792 0.0
O183 O 0.79993 0.1287 0.02234 0.0
O184 O 0.78062 0.13675 0.96464 0.0
C185 C 0.78068 0.21495 0.04057 0.0
O186 O 0.72434 0.19509 0.98443 0.0
Co187 Co 0.70372 0.18266 0.06842 0.0
O188 O 0.683 0.21326 0.02854 0.0
C189 C 0.7106 0.10566 0.04407 0.0
C190 C 0.79968 0.1176 0.98786 0.0
C191 C 0.69625 0.21422 -0.00439 0.0
O192 O 0.72223 0.11996 0.0136 0.0
O193 O 0.70436 0.12629 0.07246 0.0
O194 O 0.79956 0.20619 0.01086 0.0
O195 O 0.75766 0.18776 0.05274 0.0
Co196 Co 0.13809 0.54323 0.27446 0.0
O197 O 0.17862 0.50931 0.26877 0.0
O198 O 0.15833 0.53125 0.32256 0.0
C199 C 0.09528 0.51495 0.23359 0.0
O200 O 0.0954 0.57687 0.29166 0.0
Co201 Co 0.11789 0.5944 0.21219 0.0
O202 O 0.07337 0.60776 0.24319 0.0
C203 C 0.19557 0.59524 0.24019 0.0
C204 C 0.18262 0.51174 0.30443 0.0
C205 C 0.07091 0.59772 0.27674 0.0
O206 O 0.17907 0.58572 0.27068 0.0
O207 O 0.17603 0.59783 0.2106 0.0
O208 O 0.09803 0.50264 0.26716 0.0
O209 O 0.12111 0.54134 0.22501 0.0
Co210 Co 0.77615 0.916 0.50177 0.0
O211 O 0.82124 0.88644 0.50074 0.0
O212 O 0.77811 0.88871 0.45592 0.0
C213 C 0.80316 0.97163 0.52577 0.0
O214 O 0.72757 0.94282 0.49131 0.0
Co215 Co 0.74066 0.94261 0.57532 0.0
O216 O 0.7136 0.97618 0.54231 0.0
C217 C 0.73631 0.86221 0.55532 0.0
C218 C 0.80784 0.87318 0.46912 0.0
C219 C 0.70968 0.9687 0.50786 0.0
O220 O 0.74634 0.87125 0.5225 0.0
O221 O 0.73443 0.88643 0.58176 0.0
O222 O 0.8067 0.96251 0.49099 0.0
O223 O 0.78722 0.94453 0.54501 0.0
Co224 Co 0.87131 0.00029 0.26877 0.0
O225 O 0.91143 0.96769 0.25862 0.0
O226 O 0.90262 -0.00215 0.3122 0.0
C227 C 0.8223 0.96551 0.24525 0.0
O228 O 0.83021 0.03367 0.2883 0.0
Co229 Co 0.83484 0.03617 0.20157 0.0
O230 O 0.80071 0.0574 0.23936 0.0
C231 C 0.91498 0.05435 0.21888 0.0
C232 C 0.92284 0.97582 0.29204 0.0
C233 C 0.80307 0.05167 0.27397 0.0
O234 O 0.90645 0.04387 0.25173 0.0
O235 O 0.89082 0.05083 0.19225 0.0
O236 O 0.83528 0.9577 0.27769 0.0
O237 O 0.84373 0.98906 0.22586 0.0
Co238 Co 0.26857 0.65949 0.499 0.0
O239 O 0.31529 0.63515 0.50083 0.0
O240 O 0.27452 0.63154 0.45385 0.0
C241 C 0.29226 0.71569 0.52187 0.0
O242 O 0.21773 0.68127 0.48744 0.0
Co243 Co 0.22777 0.68493 0.56918 0.0
O244 O 0.20711 0.72073 0.5338 0.0
C245 C 0.22706 0.60506 0.5514 0.0
C246 C 0.30563 0.62023 0.4688 0.0
C247 C 0.20509 0.71193 0.49961 0.0
O248 O 0.24147 0.61372 0.51996 0.0
O249 O 0.221 0.62919 0.57693 0.0
O250 O 0.29622 0.70686 0.48712 0.0
O251 O 0.2768 0.68879 0.54188 0.0
Co252 Co 0.37037 0.50415 0.76401 0.0
O253 O 0.40737 0.46711 0.75977 0.0
O254 O 0.40087 0.50562 0.8083 0.0
C255 C 0.31897 0.46911 0.74366 0.0
O256 O 0.33387 0.54497 0.77663 0.0
Co257 Co 0.33636 0.53147 0.69131 0.0
O258 O 0.29548 0.54514 0.72688 0.0
C259 C 0.41658 0.55364 0.70987 0.0
C260 C 0.41942 0.47948 0.7919 0.0
C261 C 0.30238 0.55324 0.7609 0.0
O262 O 0.40922 0.54164 0.74234 0.0
O263 O 0.39199 0.55045 0.68344 0.0
O264 O 0.33019 0.46619 0.77768 0.0
O265 O 0.34255 0.48832 0.72223 0.0
Co266 Co 0.62652 0.02674 0.76407 0.0
O267 O 0.66346 0.99078 0.75471 0.0
O268 O 0.64964 0.01316 0.81039 0.0
C269 C 0.57929 0.00055 0.7274 0.0
O270 O 0.5878 0.06319 0.78385 0.0
Co271 Co 0.60483 0.07747 0.70211 0.0
O272 O 0.56802 0.09848 0.73741 0.0
C273 C 0.683 0.07531 0.72523 0.0
C274 C 0.67079 0.99231 0.78993 0.0
C275 C 0.56592 0.08758 0.77065 0.0
O276 O 0.66924 0.06715 0.75719 0.0
O277 O 0.66152 0.07355 0.69663 0.0
O278 O 0.58421 0.98818 0.7606 0.0
O279 O 0.60568 0.02505 0.71607 0.0
Co280 Co 0.75342 0.64866 0.02663 0.0
O281 O 0.74897 0.60921 0.06249 0.0
O282 O 0.80163 0.62529 0.02991 0.0
C283 C 0.72622 0.69582 0.05506 0.0
O284 O 0.76806 0.68893 0.98893 0.0
Co285 Co 0.67833 0.66958 0.98904 0.0
O286 O 0.71349 0.70674 0.96292 0.0
C287 C 0.70303 0.5949 0.98176 0.0
C288 C 0.78403 0.60262 0.05319 0.0
C289 C 0.74979 0.71113 0.9685 0.0
O290 O 0.73675 0.61069 0.98724 0.0
O291 O 0.67283 0.61321 0.98412 0.0
O292 O 0.76055 0.6875 0.06509 0.0
O293 O 0.70705 0.66989 0.03559 0.0
Co294 Co 0.86726 0.50538 0.71785 0.0
O295 O 0.90515 0.51086 0.67891 0.0
O296 O 0.88803 0.45799 0.70829 0.0
C297 C 0.82001 0.53812 0.69373 0.0
O298 O 0.83089 0.48724 0.75795 0.0
Co299 Co 0.84459 0.57242 0.7659 0.0
O300 O 0.8065 0.53521 0.7885 0.0
C301 C 0.92239 0.54722 0.77117 0.0
C302 C 0.91116 0.47591 0.6855 0.0
C303 C 0.80791 0.50012 0.7818 0.0
O304 O 0.9098 0.51686 0.75453 0.0
O305 O 0.9019 0.57538 0.7758 0.0
O306 O 0.82387 0.50355 0.68292 0.0
O307 O 0.84714 0.55289 0.71507 0.0
Co308 Co 0.74136 0.40254 0.52077 0.0
O309 O 0.74228 0.36073 0.55331 0.0
O310 O 0.79136 0.38231 0.51835 0.0
C311 C 0.7113 0.44136 0.55942 0.0
O312 O 0.75335 0.44631 0.48579 0.0
Co313 Co 0.66693 0.43209 0.4906 0.0
O314 O 0.69989 0.47646 0.47494 0.0
C315 C 0.68547 0.35535 0.47632 0.0
C316 C 0.77717 0.35746 0.54131 0.0
C317 C 0.73627 0.47473 0.47407 0.0
O318 O 0.72121 0.36635 0.48097 0.0
O319 O 0.6581 0.37679 0.482 0.0
O320 O 0.74838 0.43816 0.56243 0.0
O321 O 0.69402 0.41902 0.53538 0.0
Co322 Co 0.63484 0.55363 0.2258 0.0
O323 O 0.67823 0.57172 0.19623 0.0
O324 O 0.65961 0.51183 0.20422 0.0
C325 C 0.59121 0.59263 0.20622 0.0
O326 O 0.59096 0.52475 0.25293 0.0
Co327 Co 0.60596 0.60598 0.28691 0.0
O328 O 0.56802 0.56354 0.29633 0.0
C329 C 0.67615 0.56777 0.30042 0.0
C330 C 0.68495 0.53672 0.19099 0.0
C331 C 0.56685 0.5325 0.27853 0.0
O332 O 0.67036 0.5505 0.26944 0.0
O333 O 0.65512 0.59384 0.31139 0.0
O334 O 0.5988 0.56308 0.18676 0.0
O335 O 0.61421 0.60097 0.23384 0.0
O336 O 0.16522 0.19881 0.1062 0.0
Mn337 Mn 0.12855 0.15811 0.13212 0.0
O338 O 0.19451 0.23316 0.15258 0.0
Mn339 Mn 0.17749 0.20464 0.19226 0.0
O340 O 0.09075 0.11992 0.16264 0.0
O341 O 0.09151 0.15995 0.08525 0.0
Mn342 Mn 0.07757 0.11098 0.09063 0.0
O343 O 0.16014 0.11642 0.1091 0.0
O344 O 0.04105 0.10665 0.12542 0.0
O345 O 0.09738 0.1987 0.15929 0.0
O346 O 0.13064 0.2135 0.21191 0.0
O347 O 0.05927 0.11672 0.04682 0.0
O348 O 0.1126 0.07541 0.09228 0.0
C349 C 0.19751 0.14958 0.19153 0.0
C350 C 0.18887 0.22579 0.11826 0.0
C351 C 0.0547 0.10981 0.15738 0.0
C352 C 0.06911 0.15152 0.05582 0.0
C353 C 0.14769 0.08356 0.09889 0.0
C354 C 0.09961 0.21065 0.19316 0.0
O355 O 0.16764 0.15929 0.17368 0.0
O356 O 0.21239 0.17521 0.21398 0.0
O357 O 0.07674 0.8598 0.34744 0.0
Mn358 Mn 0.11107 0.88879 0.3886 0.0
O359 O 0.12154 0.83943 0.30965 0.0
Mn360 Mn 0.15985 0.83776 0.3439 0.0
O361 O 0.14537 0.92308 0.42613 0.0
O362 O 0.07113 0.92706 0.3891 0.0
Mn363 Mn 0.06268 0.94409 0.4342 0.0
O364 O 0.08065 0.86157 0.43105 0.0
O365 O 0.10846 0.96908 0.44627 0.0
O366 O 0.14584 0.91592 0.34785 0.0
O367 O 0.19438 0.87747 0.33872 0.0
O368 O 0.02824 0.96637 0.40521 0.0
O369 O 0.04683 0.90345 0.46244 0.0
C370 C 0.15212 0.81345 0.3976 0.0
C371 C 0.08734 0.84713 0.31583 0.0
C372 C 0.14098 0.9557 0.44122 0.0
C373 C 0.04315 0.94657 0.37923 0.0
C374 C 0.05871 0.87078 0.4579 0.0
C375 C 0.18102 0.90979 0.33869 0.0
O376 O 0.15033 0.84895 0.39132 0.0
O377 O 0.15803 0.79368 0.36813 0.0
O378 O 0.40948 0.93834 0.65803 0.0
Mn379 Mn 0.36842 0.91213 0.62374 0.0
O380 O 0.44973 0.96805 0.61778 0.0
Mn381 Mn 0.41634 0.97084 0.578 0.0
O382 O 0.32809 0.88328 0.58798 0.0
O383 O 0.36619 0.86939 0.65866 0.0
Mn384 Mn 0.3195 0.84819 0.66359 0.0
O385 O 0.32454 0.93486 0.65272 0.0
O386 O 0.311 0.82923 0.61695 0.0
O387 O 0.41203 0.88936 0.59068 0.0
O388 O 0.41967 0.93149 0.54527 0.0
O389 O 0.34946 0.82774 0.69927 0.0
O390 O 0.28781 0.88625 0.67608 0.0
C391 C 0.36194 0.99169 0.59366 0.0
C392 C 0.44174 0.95535 0.64973 0.0
C393 C 0.31165 0.84977 0.58839 0.0
C394 C 0.37617 0.85151 0.68727 0.0
C395 C 0.29436 0.92103 0.66917 0.0
C396 C 0.42345 0.89867 0.55775 0.0
O397 O 0.36901 0.95688 0.59181 0.0
O398 O 0.38863 0.01345 0.57879 0.0
O399 O 0.40234 0.18836 0.93212 0.0
Mn400 Mn 0.37583 0.16298 0.88592 0.0
O401 O 0.43895 0.14726 0.95959 0.0
Mn402 Mn 0.42736 0.10837 0.92652 0.0
O403 O 0.34418 0.13439 0.84066 0.0
O404 O 0.33506 0.20381 0.89329 0.0
Mn405 Mn 0.33 0.20447 0.84361 0.0
O406 O 0.41139 0.19633 0.85207 0.0
O407 O 0.29305 0.16839 0.8351 0.0
O408 O 0.34257 0.12442 0.91875 0.0
O409 O 0.3827 0.08035 0.93587 0.0
O410 O 0.32373 0.2514 0.85577 0.0
O411 O 0.36869 0.20264 0.80881 0.0
C412 C 0.44911 0.11102 0.87191 0.0
C413 C 0.42431 0.17885 0.95827 0.0
C414 C 0.30871 0.13787 0.83027 0.0
C415 C 0.32899 0.23982 0.88904 0.0
C416 C 0.40319 0.2021 0.81861 0.0
C417 C 0.34918 0.0919 0.93184 0.0
O418 O 0.41907 0.12769 0.88297 0.0
O419 O 0.46455 0.09072 0.89641 0.0
O420 O 0.57003 0.3665 0.84322 0.0
Mn421 Mn 0.60725 0.39159 0.88448 0.0
O422 O 0.61358 0.35607 0.8007 0.0
Mn423 Mn 0.64985 0.34287 0.83406 0.0
O424 O 0.64431 0.42253 0.92316 0.0
O425 O 0.57056 0.43244 0.88813 0.0
Mn426 Mn 0.56451 0.44855 0.93374 0.0
O427 O 0.57474 0.36351 0.92556 0.0
O428 O 0.61147 0.47134 0.94396 0.0
O429 O 0.6443 0.41927 0.84537 0.0
O430 O 0.68956 0.37804 0.83442 0.0
O431 O 0.5291 0.47194 0.90653 0.0
O432 O 0.54962 0.40728 0.96143 0.0
C433 C 0.63985 0.31195 0.88435 0.0
C434 C 0.57924 0.36073 0.80939 0.0
C435 C 0.64263 0.45562 0.9385 0.0
C436 C 0.54225 0.45206 0.87967 0.0
C437 C 0.55503 0.37307 0.95387 0.0
C438 C 0.67952 0.41153 0.8377 0.0
O439 O 0.64318 0.34837 0.88328 0.0
O440 O 0.6391 0.29611 0.85212 0.0
O441 O 0.93036 0.44665 0.15494 0.0
Mn442 Mn 0.88243 0.42008 0.12698 0.0
O443 O 0.96697 0.48023 0.11446 0.0
Mn444 Mn 0.93726 0.46782 0.07322 0.0
O445 O 0.83471 0.38737 0.10091 0.0
O446 O 0.8772 0.38582 0.1698 0.0
Mn447 Mn 0.82811 0.3773 0.18245 0.0
O448 O 0.84581 0.45661 0.15168 0.0
O449 O 0.81705 0.3445 0.14424 0.0
O450 O 0.91723 0.38482 0.09513 0.0
O451 O 0.94642 0.42269 0.05167 0.0
O452 O 0.85677 0.37495 0.22523 0.0
O453 O 0.80008 0.41953 0.17881 0.0
C454 C 0.88023 0.48808 0.07294 0.0
C455 C 0.96043 0.46792 0.14674 0.0
C456 C 0.8166 0.3557 0.11088 0.0
C457 C 0.88525 0.38667 0.20454 0.0
C458 C 0.81251 0.45113 0.16643 0.0
C459 C 0.93526 0.39033 0.06386 0.0
O460 O 0.88909 0.45716 0.08696 0.0
O461 O 0.90799 0.50476 0.05435 0.0
O462 O 0.90072 0.69106 0.43476 0.0
Mn463 Mn 0.8767 0.66332 0.38815 0.0
O464 O 0.93072 0.64688 0.46579 0.0
Mn465 Mn 0.92321 0.60704 0.43248 0.0
O466 O 0.84637 0.62975 0.34667 0.0
O467 O 0.83619 0.70444 0.3867 0.0
Mn468 Mn 0.83162 0.69873 0.33647 0.0
O469 O 0.91337 0.69348 0.35234 0.0
O470 O 0.79508 0.66091 0.33315 0.0
O471 O 0.84134 0.62898 0.42281 0.0
O472 O 0.87644 0.57997 0.43605 0.0
O473 O 0.8278 0.74734 0.34469 0.0
O474 O 0.87292 0.69177 0.30569 0.0
C475 C 0.95 0.6114 0.37936 0.0
C476 C 0.91735 0.67925 0.46379 0.0
C477 C 0.80991 0.63023 0.33902 0.0
C478 C 0.83284 0.74022 0.37916 0.0
C479 C 0.90686 0.69531 0.31783 0.0
C480 C 0.84431 0.59477 0.43299 0.0
O481 O 0.91924 0.62748 0.38918 0.0
O482 O 0.96329 0.59042 0.40445 0.0
O483 O 0.84677 0.87278 0.92121 0.0
Mn484 Mn 0.87684 0.91411 0.89039 0.0
O485 O 0.82998 0.83326 0.87499 0.0
Mn486 Mn 0.83679 0.86958 0.83966 0.0
O487 O 0.90725 0.95533 0.85839 0.0
O488 O 0.91932 0.9136 0.9276 0.0
Mn489 Mn 0.94348 0.95793 0.93257 0.0
O490 O 0.85297 0.95629 0.92235 0.0
O491 O 0.96404 0.96811 0.88696 0.0
O492 O 0.9076 0.87295 0.862 0.0
O493 O 0.87789 0.86715 0.80913 0.0
O494 O 0.96599 0.92802 0.96622 0.0
O495 O 0.90498 0.98791 0.94817 0.0
C496 C 0.80101 0.91019 0.82935 0.0
C497 C 0.83294 0.8407 0.90915 0.0
C498 C 0.9422 0.96995 0.85902 0.0
C499 C 0.94004 0.90288 0.95441 0.0
C500 C 0.86843 0.98245 0.9439 0.0
C501 C 0.90761 0.86342 0.82784 0.0
O502 O 0.82981 0.91713 0.85324 0.0
O503 O 0.79411 0.87624 0.81638 0.0
O504 O 0.91646 0.21875 0.66864 0.0
Mn505 Mn 0.87879 0.18297 0.63385 0.0
O506 O 0.87742 0.25433 0.70194 0.0
Mn507 Mn 0.83101 0.23336 0.68576 0.0
O508 O 0.84144 0.14538 0.60122 0.0
O509 O 0.92103 0.14558 0.62827 0.0
Mn510 Mn 0.92471 0.14048 0.57941 0.0
O511 O 0.89538 0.21416 0.58708 0.0
O512 O 0.88035 0.1146 0.56338 0.0
O513 O 0.85538 0.15263 0.67903 0.0
O514 O 0.8143 0.19002 0.70799 0.0
O515 O 0.96133 0.11207 0.59531 0.0
O516 O 0.93901 0.18396 0.55569 0.0
C517 C 0.81827 0.24672 0.62979 0.0
C518 C 0.91094 0.24531 0.69276 0.0
C519 C 0.84727 0.11925 0.57691 0.0
C520 C 0.94779 0.12143 0.62742 0.0
C521 C 0.91894 0.21184 0.5601 0.0
C522 C 0.82597 0.15783 0.70005 0.0
O523 O 0.83829 0.2196 0.63963 0.0
O524 O 0.80131 0.26257 0.65722 0.0
O525 O 0.63469 0.18166 0.41833 0.0
Mn526 Mn 0.61035 0.13832 0.38468 0.0
O527 O 0.67643 0.21428 0.38114 0.0
Mn528 Mn 0.67141 0.1827 0.34051 0.0
O529 O 0.58303 0.09686 0.34889 0.0
O530 O 0.56341 0.13943 0.41655 0.0
Mn531 Mn 0.53853 0.09505 0.41875 0.0
O532 O 0.62963 0.09694 0.41829 0.0
O533 O 0.52233 0.0895 0.37088 0.0
O534 O 0.58748 0.17805 0.34991 0.0
O535 O 0.63316 0.19266 0.30836 0.0
O536 O 0.51876 0.12497 0.45581 0.0
O537 O 0.57513 0.06152 0.43185 0.0
C538 C 0.6929 0.12994 0.33894 0.0
C539 C 0.65808 0.21015 0.41141 0.0
C540 C 0.54695 0.08592 0.34518 0.0
C541 C 0.54585 0.1495 0.44613 0.0
C542 C 0.61187 0.06756 0.43221 0.0
C543 C 0.59848 0.19291 0.31924 0.0
O544 O 0.6608 0.13662 0.35576 0.0
O545 O 0.71166 0.15817 0.32345 0.0
O546 O 0.58526 0.87221 0.08141 0.0
Mn547 Mn 0.62184 0.89607 0.12176 0.0
O548 O 0.5896 0.92302 0.04853 0.0
Mn549 Mn 0.59442 0.9518 0.0912 0.0
O550 O 0.66008 0.91911 0.16099 0.0
O551 O 0.6589 0.85477 0.10593 0.0
Mn552 Mn 0.65987 0.83626 0.15088 0.0
O553 O 0.59111 0.86311 0.1632 0.0
O554 O 0.67704 0.86792 0.1889 0.0
O555 O 0.65745 0.93002 0.0839 0.0
O556 O 0.63547 0.98487 0.0939 0.0
O557 O 0.6968 0.812 0.13081 0.0
O558 O 0.61463 0.8088 0.15578 0.0
C559 C 0.55495 0.96021 0.12861 0.0
C560 C 0.58099 0.88849 0.05098 0.0
C561 C 0.67905 0.90312 0.18562 0.0
C562 C 0.68377 0.82851 0.10212 0.0
C563 C 0.59025 0.82792 0.17098 0.0
C564 C 0.66273 0.96617 0.08409 0.0
O565 O 0.58162 0.93657 0.13696 0.0
O566 O 0.55199 0.97312 0.09552 0.0
O567 O 0.43309 0.70313 0.1614 0.0
Mn568 Mn 0.39186 0.67133 0.12837 0.0
O569 O 0.39347 0.71163 0.20752 0.0
Mn570 Mn 0.3516 0.70929 0.17663 0.0
O571 O 0.35053 0.63931 0.09471 0.0
O572 O 0.43012 0.63131 0.12362 0.0
Mn573 Mn 0.42779 0.61076 0.07907 0.0
O574 O 0.41651 0.6964 0.08128 0.0
O575 O 0.37954 0.58788 0.07561 0.0
O576 O 0.3661 0.64116 0.17499 0.0
O577 O 0.3153 0.67264 0.1858 0.0
O578 O 0.46775 0.58966 0.10211 0.0
O579 O 0.43832 0.64941 0.04609 0.0
C580 C 0.33911 0.74675 0.14002 0.0
C581 C 0.42701 0.71458 0.19447 0.0
C582 C 0.34983 0.60648 0.07884 0.0
C583 C 0.46044 0.61287 0.12873 0.0
C584 C 0.43214 0.68387 0.05166 0.0
C585 C 0.33224 0.64317 0.18947 0.0
O586 O 0.3551 0.71609 0.12788 0.0
O587 O 0.33523 0.75396 0.17506 0.0
O588 O 0.12983 0.68449 0.91674 0.0
Mn589 Mn 0.11084 0.63901 0.88283 0.0
O590 O 0.18361 0.71129 0.89343 0.0
Mn591 Mn 0.17115 0.68928 0.84886 0.0
O592 O 0.08745 0.59477 0.84823 0.0
O593 O 0.06376 0.63712 0.91577 0.0
Mn594 Mn 0.04462 0.59062 0.92035 0.0
O595 O 0.13451 0.60189 0.91867 0.0
O596 O 0.0299 0.57695 0.87341 0.0
O597 O 0.08516 0.67518 0.84684 0.0
O598 O 0.13356 0.71041 0.82209 0.0
O599 O 0.01682 0.6194 0.95217 0.0
O600 O 0.08449 0.56549 0.94048 0.0
C601 C 0.19249 0.64034 0.83051 0.0
C602 C 0.15858 0.70869 0.91857 0.0
C603 C 0.05348 0.5777 0.84649 0.0
C604 C 0.04167 0.64628 0.94289 0.0
C605 C 0.12044 0.57594 0.94002 0.0
C606 C 0.09771 0.70115 0.8249 0.0
O607 O 0.16084 0.63972 0.85077 0.0
O608 O 0.21023 0.67265 0.82343 0.0
O609 O 0.08402 0.37133 0.57862 0.0
Mn610 Mn 0.11696 0.39408 0.62168 0.0
O611 O 0.07803 0.42305 0.54645 0.0
Mn612 Mn 0.07673 0.45582 0.58684 0.0
O613 O 0.15374 0.41685 0.66285 0.0
O614 O 0.15342 0.35222 0.61044 0.0
Mn615 Mn 0.15841 0.33163 0.65378 0.0
O616 O 0.08586 0.36258 0.66305 0.0
O617 O 0.17885 0.36654 0.68752 0.0
O618 O 0.1502 0.43172 0.58601 0.0
O619 O 0.12042 0.48543 0.59179 0.0
O620 O 0.19106 0.30685 0.62596 0.0
O621 O 0.11091 0.30827 0.66167 0.0
C622 C 0.04123 0.43556 0.62835 0.0
C623 C 0.07821 0.38762 0.54822 0.0
C624 C 0.17675 0.40175 0.68501 0.0
C625 C 0.17568 0.32578 0.60018 0.0
C626 C 0.08739 0.3293 0.67585 0.0
C627 C 0.15042 0.46824 0.58504 0.0
O628 O 0.07844 0.43339 0.63023 0.0
O629 O 0.02883 0.45869 0.60454 0.0
O630 O 0.67327 0.6957 0.60388 0.0
Mn631 Mn 0.63603 0.65634 0.63154 0.0
O632 O 0.70477 0.72892 0.6495 0.0
Mn633 Mn 0.68878 0.7002 0.68939 0.0
O634 O 0.59557 0.61935 0.66154 0.0
O635 O 0.59525 0.66004 0.59017 0.0
Mn636 Mn 0.58146 0.6104 0.58843 0.0
O637 O 0.66426 0.61315 0.60602 0.0
O638 O 0.54482 0.60916 0.62324 0.0
O639 O 0.60836 0.69852 0.66048 0.0
O640 O 0.64392 0.71104 0.71184 0.0
O641 O 0.58062 0.624 0.54113 0.0
O642 O 0.61418 0.57328 0.59616 0.0
C643 C 0.70745 0.64488 0.68887 0.0
C644 C 0.69813 0.72199 0.61523 0.0
C645 C 0.55886 0.61103 0.65556 0.0
C646 C 0.58906 0.65748 0.55444 0.0
C647 C 0.64987 0.57993 0.59975 0.0
C648 C 0.61243 0.71076 0.69409 0.0
O649 O 0.67779 0.65501 0.67074 0.0
O650 O 0.72343 0.67054 0.71068 0.0
O651 O 0.3469 0.36603 0.4098 0.0
Mn652 Mn 0.37826 0.41236 0.38749 0.0
O653 O 0.31027 0.3408 0.36313 0.0
Mn654 Mn 0.3282 0.37279 0.32662 0.0
O655 O 0.41481 0.45404 0.36124 0.0
O656 O 0.41642 0.40912 0.42916 0.0
Mn657 Mn 0.43716 0.45399 0.44094 0.0
O658 O 0.34988 0.45234 0.41885 0.0
O659 O 0.46392 0.46969 0.40043 0.0
O660 O 0.40883 0.37423 0.35627 0.0
O661 O 0.37336 0.36123 0.30516 0.0
O662 O 0.45643 0.42248 0.47459 0.0
O663 O 0.39669 0.48172 0.45389 0.0
C664 C 0.30729 0.42601 0.32771 0.0
C665 C 0.32432 0.33935 0.39555 0.0
C666 C 0.44969 0.46773 0.36812 0.0
C667 C 0.43335 0.39738 0.45819 0.0
C668 C 0.36171 0.47756 0.44307 0.0
C669 C 0.40418 0.35982 0.32369 0.0
O670 O 0.33614 0.41686 0.34816 0.0
O671 O 0.29477 0.40106 0.30329 0.0
C672 C 0.04658 0.26634 0.25599 0.0
C673 C 0.02817 0.23916 0.27965 0.0
C674 C 0.05154 0.19017 0.24063 0.0
C675 C 0.06497 0.21747 0.21445 0.0
N676 N 0.06444 0.28077 0.19298 0.0
N677 N 0.0049 0.17477 0.28856 0.0
C678 C 0.05698 0.25518 0.22003 0.0
C679 C 0.02676 0.2009 0.26921 0.0
N680 N 0.05967 0.30083 0.26931 0.0
N681 N 0.06646 0.15584 0.24165 0.0
H682 H 0.98713 0.18229 0.3104 0.0
H683 H 0.00199 0.1465 0.28041 0.0
H684 H 0.08807 0.14802 0.22378 0.0
H685 H 0.05997 0.13674 0.26264 0.0
H686 H 0.07481 0.32075 0.25308 0.0
H687 H 0.06132 0.30649 0.29758 0.0
H688 H 0.05775 0.30873 0.19603 0.0
H689 H 0.07372 0.27272 0.16669 0.0
C690 C 0.02746 0.78141 0.50869 0.0
C691 C 0.03583 0.7933 0.54598 0.0
C692 C 0.06279 0.85435 0.52458 0.0
C693 C 0.0511 0.84377 0.48787 0.0
N694 N 0.0207 0.799 0.44454 0.0
N695 N 0.07317 0.83497 0.58749 0.0
C696 C 0.0338 0.80748 0.47966 0.0
C697 C 0.05646 0.82829 0.55347 0.0
N698 N 0.01376 0.74531 0.50064 0.0
N699 N 0.08128 0.88891 0.53165 0.0
H700 H 0.07191 0.81513 0.60838 0.0
H701 H 0.09174 0.85824 0.59416 0.0
H702 H 0.09289 0.90639 0.51107 0.0
H703 H 0.08468 0.90082 0.55803 0.0
H704 H 0.01418 0.73333 0.47419 0.0
H705 H 0.00278 0.72626 0.51998 0.0
H706 H 0.00486 0.77428 0.43691 0.0
H707 H 0.02303 0.81796 0.42292 0.0
C708 C 0.45147 0.82166 0.74571 0.0
C709 C 0.44936 0.84733 0.77611 0.0
C710 C 0.40991 0.88666 0.73917 0.0
C711 C 0.41102 0.86002 0.70969 0.0
N712 N 0.44404 0.81157 0.67944 0.0
N713 N 0.43708 0.90975 0.7978 0.0
C714 C 0.43634 0.8311 0.71109 0.0
C715 C 0.43247 0.88198 0.77136 0.0
N716 N 0.46534 0.78723 0.75034 0.0
N717 N 0.38498 0.91449 0.73758 0.0
H718 H 0.45246 0.90657 0.8222 0.0
H719 H 0.42837 0.93679 0.79413 0.0
H720 H 0.36828 0.91833 0.71421 0.0
H721 H 0.3795 0.93229 0.75983 0.0
H722 H 0.46453 0.76636 0.72976 0.0
H723 H 0.47402 0.77807 0.77584 0.0
H724 H 0.4648 0.79186 0.67788 0.0
H725 H 0.43233 0.8184 0.65401 0.0
C726 C 0.44384 0.25885 0.02743 0.0
C727 C 0.43126 0.24032 0.0603 0.0
C728 C 0.40568 0.186 0.02396 0.0
C729 C 0.42514 0.20139 0.99252 0.0
N730 N 0.46181 0.25207 0.96288 0.0
N731 N 0.39602 0.18882 0.09026 0.0
C732 C 0.44346 0.23798 0.99365 0.0
C733 C 0.41064 0.20471 0.05858 0.0
N734 N 0.45565 0.29619 0.02818 0.0
N735 N 0.38129 0.1543 0.02027 0.0
H736 H 0.39532 0.2036 0.11541 0.0
H737 H 0.3855 0.16088 0.09203 0.0
H738 H 0.37638 0.14 -0.00484 0.0
H739 H 0.36327 0.14375 0.0412 0.0
H740 H 0.46016 0.31187 0.00439 0.0
H741 H 0.4572 0.31283 0.05205 0.0
H742 H 0.47889 0.2772 0.96275 0.0
H743 H 0.46193 0.23743 0.93765 0.0
C744 C 0.04128 0.86806 0.22399 0.0
C745 C 0.04851 0.83369 0.20538 0.0
C746 C 0.06262 0.80687 0.26473 0.0
C747 C 0.06176 0.84213 0.28296 0.0
N748 N 0.06269 0.90923 0.27485 0.0
N749 N 0.09001 0.78251 0.20941 0.0
C750 C 0.05373 0.87374 0.26147 0.0
C751 C 0.06568 0.80595 0.22588 0.0
N752 N 0.02555 0.89629 0.20554 0.0
N753 N 0.06516 0.77498 0.28447 0.0
H754 H 0.10054 0.78745 0.18282 0.0
H755 H 0.10443 0.76296 0.22431 0.0
H756 H 0.06366 0.77525 0.31334 0.0
H757 H 0.06511 0.74855 0.27156 0.0
H758 H 0.0163 0.9201 0.21912 0.0
H759 H 0.02124 0.89551 0.177 0.0
H760 H 0.06119 0.93308 0.25881 0.0
H761 H 0.0755 0.91437 0.30065 0.0
C762 C 0.45171 0.81548 0.49717 0.0
C763 C 0.46703 0.83716 0.46692 0.0
C764 C 0.47126 0.89176 0.50805 0.0
C765 C 0.44512 0.87355 0.53311 0.0
N766 N 0.41097 0.81516 0.55157 0.0
N767 N 0.48274 0.89975 0.44332 0.0
C768 C 0.43554 0.83439 0.52802 0.0
C769 C 0.47468 0.87641 0.47226 0.0
N770 N 0.45465 0.77751 0.49789 0.0
N771 N 0.49217 0.92412 0.5182 0.0
H772 H 0.48025 0.89093 0.41575 0.0
H773 H 0.4864 0.92889 0.44682 0.0
H774 H 0.49164 0.93497 0.54522 0.0
H775 H 0.51308 0.9371 0.50103 0.0
H776 H 0.44648 0.76135 0.52069 0.0
H777 H 0.47014 0.76291 0.4784 0.0
H778 H 0.40053 0.78746 0.54646 0.0
H779 H 0.39925 0.82705 0.57508 0.0
C780 C 0.46118 0.1875 0.73159 0.0
C781 C 0.46891 0.22559 0.72196 0.0
C782 C 0.44604 0.24555 0.78287 0.0
C783 C 0.4328 0.20825 0.78998 0.0
N784 N 0.42136 0.14403 0.76827 0.0
N785 N 0.45842 0.29078 0.73537 0.0
C786 C 0.43879 0.17914 0.76367 0.0
C787 C 0.45868 0.25467 0.74681 0.0
N788 N 0.47468 0.15943 0.71008 0.0
N789 N 0.44522 0.2725 0.81014 0.0
H790 H 0.46278 0.29769 0.70801 0.0
H791 H 0.44848 0.31257 0.75153 0.0
H792 H 0.43551 0.26646 0.83684 0.0
H793 H 0.45782 0.29969 0.80724 0.0
H794 H 0.47333 0.13145 0.71814 0.0
H795 H 0.48947 0.16456 0.68535 0.0
H796 H 0.42118 0.12293 0.74795 0.0
H797 H 0.4051 0.13678 0.79165 0.0
C798 C 0.01906 0.18317 0.97233 0.0
C799 C 0.04611 0.21303 0.96223 0.0
C800 C 0.07121 0.21565 0.02572 0.0
C801 C 0.05316 0.1798 0.03117 0.0
N802 N 0.99297 0.14367 0.02163 0.0
N803 N 0.09563 0.26059 0.98064 0.0
C804 C 0.02165 0.16775 0.00799 0.0
C805 C 0.07089 0.23079 0.98958 0.0
N806 N 0.99091 0.16978 0.94811 0.0
N807 N 0.08421 0.23669 0.0555 0.0
H808 H 0.09849 0.2712 0.95406 0.0
H809 H 0.11571 0.27281 -0.00094 0.0
H810 H 0.08203 0.22657 0.08236 0.0
H811 H 0.09187 0.26536 0.05378 0.0
H812 H 0.97424 0.1447 0.95166 0.0
H813 H 0.98432 0.18351 0.92396 0.0
H814 H 0.96757 0.13547 0.00755 0.0
H815 H 0.99291 0.13524 0.04915 0.0
C816 C 0.27992 0.09504 0.15875 0.0
C817 C 0.27899 0.06719 0.1861 0.0
C818 C 0.218 0.0877 0.21017 0.0
C819 C 0.21909 0.11628 0.18367 0.0
N820 N 0.24569 0.14235 0.12744 0.0
N821 N 0.23921 0.02702 0.22487 0.0
C822 C 0.2482 0.11812 0.15592 0.0
C823 C 0.24565 0.06055 0.20809 0.0
N824 N 0.31153 0.10001 0.13637 0.0
N825 N 0.19057 0.08645 0.23732 0.0
H826 H 0.25678 0.00547 0.21862 0.0
H827 H 0.2141 0.01909 0.23938 0.0
H828 H 0.16807 0.1044 0.23802 0.0
H829 H 0.19126 0.06868 0.25984 0.0
H830 H 0.31609 0.12225 0.11829 0.0
H831 H 0.3342 0.08229 0.13691 0.0
H832 H 0.26402 0.14318 0.10464 0.0
H833 H 0.22295 0.15963 0.12524 0.0
C834 C 0.19022 0.03182 0.49403 0.0
C835 C 0.19922 0.05814 0.46568 0.0
C836 C 0.1823 0.0101 0.41893 0.0
C837 C 0.1738 0.98353 0.44726 0.0
N838 N 0.18129 0.96598 0.51028 0.0
N839 N 0.2159 0.06903 0.40194 0.0
C840 C 0.18275 0.9933 0.48431 0.0
C841 C 0.19986 0.04598 0.42838 0.0
N842 N 0.18562 0.04389 0.52967 0.0
N843 N 0.1696 0.00281 0.38368 0.0
H844 H 0.22836 0.09588 0.40816 0.0
H845 H 0.22002 0.05999 0.37473 0.0
H846 H 0.15482 0.97758 0.37602 0.0
H847 H 0.17113 0.02279 0.36296 0.0
H848 H 0.17625 0.02616 0.55093 0.0
H849 H 0.18711 0.07226 0.53708 0.0
H850 H 0.19008 0.97092 0.5376 0.0
H851 H 0.17485 0.93774 0.50308 0.0
C852 C 0.19512 0.9566 0.66233 0.0
C853 C 0.19912 0.98817 0.68644 0.0
C854 C 0.26641 0.97664 0.6988 0.0
C855 C 0.26252 0.94534 0.67435 0.0
N856 N 0.2283 0.91367 0.62333 0.0
N857 N 0.24124 0.03514 0.71786 0.0
C858 C 0.22832 0.9376 0.65326 0.0
C859 C 0.23566 0.00043 0.70163 0.0
N860 N 0.15977 0.94481 0.64812 0.0
N861 N 0.29882 0.98297 0.72008 0.0
H862 H 0.21956 0.05368 0.71901 0.0
H863 H 0.26821 0.04701 0.7261 0.0
H864 H 0.3222 0.96624 0.71831 0.0
H865 H 0.30133 0.00309 0.74134 0.0
H866 H 0.15454 0.91945 0.63363 0.0
H867 H 0.13511 0.95938 0.65267 0.0
H868 H 0.20541 0.91006 0.6047 0.0
H869 H 0.25284 0.90066 0.61479 0.0
C870 C 0.28894 -0.00083 0.9303 0.0
C871 C 0.26879 0.00258 0.96394 0.0
C872 C 0.29405 0.06818 0.97125 0.0
C873 C 0.31739 0.06365 0.9397 0.0
N874 N 0.34164 0.02287 0.89182 0.0
N875 N 0.26041 0.0364 0.02138 0.0
C876 C 0.3163 0.02845 0.92009 0.0
C877 C 0.27334 0.03611 0.98574 0.0
N878 N 0.28131 0.9684 0.9077 0.0
N879 N 0.29245 0.10269 0.98797 0.0
H880 H 0.24829 0.01231 0.03376 0.0
H881 H 0.26593 0.05889 0.03984 0.0
H882 H 0.30786 0.1267 0.97843 0.0
H883 H 0.27317 0.10808 0.00918 0.0
H884 H 0.29188 0.96642 0.88081 0.0
H885 H 0.26191 0.94601 0.91474 0.0
H886 H 0.34572 -0.00351 0.88022 0.0
H887 H 0.35965 0.0444 0.88064 0.0
C888 C 0.26865 0.97692 0.33339 0.0
C889 C 0.2743 0.97557 0.29452 0.0
C890 C 0.21206 0.94082 0.2863 0.0
C891 C 0.20758 0.93955 0.32489 0.0
N892 N 0.23637 0.94733 0.3856 0.0
N893 N 0.25879 0.93996 0.23758 0.0
C894 C 0.23713 0.95522 0.34875 0.0
C895 C 0.24845 0.95257 0.27184 0.0
N896 N 0.2941 -0.00233 0.35568 0.0
N897 N 0.182 0.92943 0.26347 0.0
H898 H 0.28608 0.94506 0.22619 0.0
H899 H 0.24123 0.92073 0.222 0.0
H900 H 0.15481 0.92045 0.27361 0.0
H901 H 0.18324 0.9327 0.23487 0.0
H902 H 0.28861 0.00342 0.38348 0.0
H903 H 0.32027 0.00996 0.34605 0.0
H904 H 0.25931 0.95445 0.40351 0.0
H905 H 0.21368 0.93139 0.39782 0.0
C906 C 0.29951 0.06729 0.61479 0.0
C907 C 0.28573 0.06837 0.5779 0.0
C908 C 0.29891 0.00233 0.56967 0.0
C909 C 0.32359 0.00575 0.60024 0.0
N910 N 0.34235 0.03742 0.65683 0.0
N911 N 0.27835 0.03662 0.51805 0.0
C912 C 0.32136 0.03667 0.62498 0.0
C913 C 0.28601 0.03549 0.55489 0.0
N914 N 0.29298 0.09579 0.63919 0.0
N915 N 0.29149 0.96821 0.55269 0.0
H916 H 0.27488 0.06152 0.50476 0.0
H917 H 0.28089 0.01381 0.49999 0.0
H918 H 0.30198 0.94397 0.56339 0.0
H919 H 0.27177 0.96382 0.53103 0.0
H920 H 0.30014 0.09527 0.66713 0.0
H921 H 0.27766 0.11868 0.63184 0.0
H922 H 0.34563 0.0606 0.67475 0.0
H923 H 0.35703 0.01419 0.66451 0.0
C924 C 0.22027 0.08298 0.81284 0.0
C925 C 0.21019 0.10059 0.7796 0.0
C926 C 0.27777 0.12378 0.77085 0.0
C927 C 0.28617 0.11072 0.80638 0.0
N928 N 0.27144 0.06847 0.85505 0.0
N929 N 0.23021 0.13061 0.72259 0.0
C930 C 0.2593 0.08644 0.82483 0.0
C931 C 0.2393 0.11887 0.75713 0.0
N932 N 0.19218 0.06519 0.83404 0.0
N933 N 0.30655 0.14322 0.75196 0.0
H934 H 0.20252 0.1268 0.71141 0.0
H935 H 0.25017 0.14234 0.70394 0.0
H936 H 0.33488 0.14545 0.76191 0.0
H937 H 0.3029 0.15697 0.72725 0.0
H938 H 0.19711 0.05416 0.85991 0.0
H939 H 0.16301 0.06342 0.8269 0.0
H940 H 0.25483 0.04811 0.86934 0.0
H941 H 0.30008 0.07265 0.86351 0.0
C942 C 0.1951 0.99334 0.11046 0.0
C943 C 0.1884 0.97938 0.07392 0.0
C944 C 0.17247 0.0406 0.05458 0.0
C945 C 0.17323 0.0537 0.09146 0.0
N946 N 0.17187 0.03672 0.15586 0.0
N947 N 0.14511 0.98617 0.02274 0.0
C948 C 0.18151 0.02879 0.12018 0.0
C949 C 0.17012 0.00175 0.0485 0.0
N950 N 0.21146 0.97203 0.13628 0.0
N951 N 0.16884 0.06454 0.02605 0.0
H952 H 0.13408 0.95836 0.0249 0.0
H953 H 0.13024 0.00243 0.0046 0.0
H954 H 0.16967 0.09364 0.0303 0.0
H955 H 0.16861 0.0551 -0.00146 0.0
H956 H 0.21937 0.9826 0.16244 0.0
H957 H 0.21772 0.94424 0.1311 0.0
H958 H 0.1729 0.01713 0.17684 0.0
H959 H 0.15949 0.0615 0.16356 0.0
C960 C 0.1934 0.30876 0.06189 0.0
C961 C 0.22763 0.32771 0.07569 0.0
C962 C 0.24584 0.2696 0.10365 0.0
C963 C 0.20956 0.25225 0.09257 0.0
N964 N 0.16375 0.24943 0.04269 0.0
N965 N 0.29237 0.32347 0.09894 0.0
C966 C 0.18798 0.26969 0.06592 0.0
C967 C 0.25596 0.30727 0.09322 0.0
N968 N 0.16551 0.32795 0.04564 0.0
N969 N 0.26978 0.25007 0.12481 0.0
H970 H 0.30062 0.3509 0.09121 0.0
H971 H 0.3152 0.30898 0.10866 0.0
H972 H 0.26371 0.22159 0.13008 0.0
H973 H 0.29477 0.26192 0.13746 0.0
H974 H 0.13887 0.31488 0.03825 0.0
H975 H 0.16757 0.35707 0.04284 0.0
H976 H 0.16125 0.2201 0.0418 0.0
H977 H 0.16125 0.2201 0.0418 0.0
C978 C 0.67461 0.27817 0.97919 0.0
C979 C 0.68014 0.2401 0.96915 0.0
C980 C 0.67371 0.25591 0.905 0.0
C981 C 0.65761 0.29045 0.91471 0.0
N982 N 0.64552 0.33528 0.96414 0.0
N983 N 0.67502 0.19132 0.92167 0.0
C984 C 0.65854 0.30186 0.95278 0.0
C985 C 0.67595 0.2284 0.93188 0.0
N986 N 0.68736 0.29278 0.01258 0.0
N987 N 0.69146 0.25078 0.87173 0.0
H988 H 0.67455 0.16977 0.94084 0.0
H989 H 0.67031 0.18234 0.8943 0.0
H990 H 0.6988 0.27296 0.85408 0.0
H991 H 0.70494 0.22629 0.86508 0.0
H992 H 0.68765 0.3213 0.01943 0.0
H993 H 0.70185 0.27765 0.03186 0.0
H994 H 0.64036 0.34182 0.99184 0.0
H995 H 0.63913 0.35614 0.94619 0.0
C996 C 0.04101 0.52662 0.18952 0.0
C997 C 0.0629 0.50075 0.20831 0.0
C998 C 0.01586 0.45028 0.18658 0.0
C999 C 0.99103 0.4777 0.1746 0.0
N1000 N 0.97664 0.54266 0.17464 0.0
N1001 N 0.07037 0.43613 0.22446 0.0
C1002 C 0.00234 0.5161 0.18004 0.0
C1003 C 0.04968 0.462 0.20738 0.0
N1004 N 0.0578 0.55953 0.17699 0.0
N1005 N 0.0091 0.41361 0.17553 0.0
H1006 H 0.09798 0.44252 0.23515 0.0
H1007 H 0.05958 0.40851 0.22857 0.0
H1008 H 0.98566 0.40438 0.15897 0.0
H1009 H 0.02836 0.39307 0.18015 0.0
H1010 H 0.04257 0.57882 0.16258 0.0
H1011 H 0.08751 0.56311 0.17365 0.0
H1012 H 0.98334 0.57109 0.18052 0.0
H1013 H 0.94774 0.53546 0.16837 0.0
C1014 C 0.82044 0.83948 0.41089 0.0
C1015 C 0.82169 0.83922 0.44975 0.0
C1016 C 0.82879 0.77038 0.44585 0.0
C1017 C 0.82375 0.77128 0.40663 0.0
N1018 N 0.78866 0.80529 0.36131 0.0
N1019 N 0.81967 0.802 0.50524 0.0
C1020 C 0.81222 0.80543 0.39156 0.0
C1021 C 0.82428 0.80402 0.46776 0.0
N1022 N 0.82454 0.87245 0.39227 0.0
N1023 N 0.83546 0.73756 0.46264 0.0
H1024 H 0.81679 0.82532 0.52239 0.0
H1025 H 0.81596 0.77685 0.51937 0.0
H1026 H 0.83238 0.7115 0.44937 0.0
H1027 H 0.84333 0.73606 0.49029 0.0
H1028 H 0.82505 0.87312 0.36341 0.0
H1029 H 0.83139 0.89822 0.4057 0.0
H1030 H 0.77837 0.82986 0.35103 0.0
H1031 H 0.77407 0.78075 0.35097 0.0
C1032 C 0.96025 0.11035 0.2068 0.0
C1033 C 0.95436 0.07118 0.21168 0.0
C1034 C 0.02325 0.06455 0.20045 0.0
C1035 C 0.0267 0.10147 0.18719 0.0
N1036 N -0.00239 0.15962 0.17526 0.0
N1037 N 0.97955 0.00972 0.20866 0.0
C1038 C -0.00483 0.12476 0.19048 0.0
C1039 C 0.98584 0.04788 0.20802 0.0
N1040 N 0.93235 0.13358 0.21713 0.0
N1041 N 0.0554 0.04495 0.20373 0.0
H1042 H 0.95202 -0.00352 0.21084 0.0
H1043 H 0.00094 0.99132 0.20317 0.0
H1044 H 0.08291 0.05698 0.19767 0.0
H1045 H 0.05508 0.01869 0.21595 0.0
H1046 H 0.93674 0.16278 0.21736 0.0
H1047 H 0.90618 0.12358 0.22876 0.0
H1048 H 0.97411 0.17606 0.1729 0.0
H1049 H 0.02282 0.17118 0.16306 0.0
C1050 C 0.2713 0.76792 0.56282 0.0
C1051 C 0.29649 0.7558 0.53485 0.0
C1052 C 0.31855 0.82243 0.52617 0.0
C1053 C 0.29345 0.83178 0.55497 0.0
N1054 N 0.23102 0.81733 0.58092 0.0
N1055 N 0.34573 0.77305 0.48921 0.0
C1056 C 0.26303 0.80573 0.56375 0.0
C1057 C 0.32002 0.78367 0.51532 0.0
N1058 N 0.25991 0.74563 0.59159 0.0
N1059 N 0.34187 0.85049 0.51116 0.0
H1060 H 0.35309 0.7454 0.48579 0.0
H1061 H 0.3615 0.79169 0.47227 0.0
H1062 H 0.33943 0.87853 0.51908 0.0
H1063 H 0.36231 0.84659 0.49068 0.0
H1064 H 0.24255 0.75496 0.61297 0.0
H1065 H 0.27315 0.72109 0.59743 0.0
H1066 H 0.20821 0.79847 0.58866 0.0
H1067 H 0.22666 0.84587 0.58378 0.0
C1068 C 0.00347 0.57882 0.29825 0.0
C1069 C 0.03545 0.60607 0.2978 0.0
C1070 C 0.00239 0.64514 0.34271 0.0
C1071 C 0.9717 0.61682 0.34444 0.0
N1072 N 0.93695 0.56329 0.31665 0.0
N1073 N 0.06079 0.66937 0.31142 0.0
C1074 C 0.97024 0.58597 0.31946 0.0
C1075 C 0.03326 0.64083 0.31717 0.0
N1076 N 0.00556 0.54532 0.27981 0.0
N1077 N 0.00304 0.6749 0.36706 0.0
H1078 H 0.08401 0.6666 0.29347 0.0
H1079 H 0.05913 0.69647 0.32218 0.0
H1080 H 0.98027 0.679 0.38521 0.0
H1081 H 0.02646 0.69454 0.37033 0.0
H1082 H 0.98514 0.5227 0.28205 0.0
H1083 H 0.0293 0.53922 0.26398 0.0
H1084 H 0.93229 0.54203 0.29673 0.0
H1085 H 0.9124 0.56856 0.3321 0.0
C1086 C 0.48909 0.49247 0.80739 0.0
C1087 C 0.45551 0.46725 0.807 0.0
C1088 C 0.48846 0.42224 0.84309 0.0
C1089 C 0.52071 0.44867 0.84532 0.0
N1090 N 0.55788 0.50081 0.81975 0.0
N1091 N 0.42693 0.40403 0.81417 0.0
C1092 C 0.5231 0.48091 0.82359 0.0
C1093 C 0.45663 0.43044 0.82093 0.0
N1094 N 0.48806 0.52798 0.79417 0.0
N1095 N 0.487 0.39117 0.86472 0.0
H1096 H 0.40221 0.40969 0.79951 0.0
H1097 H 0.42813 0.37581 0.82067 0.0
H1098 H 0.51021 0.38459 0.88109 0.0
H1099 H 0.46239 0.37309 0.86783 0.0
H1100 H 0.51066 0.54857 0.79712 0.0
H1101 H 0.46357 0.53791 0.78248 0.0
H1102 H 0.56259 0.52306 0.80168 0.0
H1103 H 0.58292 0.49209 0.83202 0.0
C1104 C 0.97988 0.83215 0.76203 0.0
C1105 C 0.95281 0.80618 0.74362 0.0
C1106 C 0.91566 0.80223 0.8007 0.0
C1107 C 0.934 0.83664 0.81259 0.0
N1108 N 0.98845 0.88127 0.8096 0.0
N1109 N 0.89059 0.77006 0.74618 0.0
C1110 C 0.96818 0.85039 0.7951 0.0
C1111 C 0.91988 0.79122 0.7634 0.0
N1112 N 0.01666 0.8382 0.74901 0.0
N1113 N 0.89094 0.7829 0.82393 0.0
H1114 H 0.88878 0.76599 0.71764 0.0
H1115 H 0.86522 0.76099 0.75975 0.0
H1116 H 0.88735 0.79207 0.85124 0.0
H1117 H 0.87786 0.75645 0.8172 0.0
H1118 H 0.03789 0.85509 0.76288 0.0
H1119 H 0.02725 0.82282 0.72691 0.0
H1120 H 0.01166 0.89524 0.79617 0.0
H1121 H 0.98053 0.89343 0.83474 0.0
C1122 C 0.91159 0.22733 0.45957 0.0
C1123 C 0.93588 0.26058 0.45714 0.0
C1124 C 0.93254 0.27065 0.52418 0.0
C1125 C 0.91426 0.23442 0.52691 0.0
N1126 N 0.8723 0.1856 0.49889 0.0
N1127 N 0.95965 0.31961 0.48613 0.0
C1128 C 0.89871 0.21539 0.49493 0.0
C1129 C 0.94223 0.28446 0.48878 0.0
N1130 N 0.9033 0.20618 0.42835 0.0
N1131 N 0.94198 0.29142 0.55528 0.0
H1132 H 0.96732 0.33194 0.461 0.0
H1133 H 0.96732 0.33194 0.461 0.0
H1134 H 0.93519 0.2817 0.58171 0.0
H1135 H 0.95566 0.31838 0.55421 0.0
H1136 H 0.88953 0.17932 0.42843 0.0
H1137 H 0.9114 0.21563 0.40211 0.0
H1138 H 0.85811 0.17145 0.47687 0.0
H1139 H 0.86202 0.1776 0.52488 0.0
C1140 C 0.5764 0.24004 0.23373 0.0
C1141 C 0.54107 0.22037 0.22359 0.0
C1142 C 0.5339 0.19543 0.28629 0.0
C1143 C 0.57165 0.21135 0.29433 0.0
N1144 N 0.61734 0.26386 0.28418 0.0
N1145 N 0.47995 0.19088 0.2431 0.0
C1146 C 0.58884 0.23898 0.27079 0.0
C1147 C 0.51772 0.20157 0.25082 0.0
N1148 N 0.59895 0.25828 0.20773 0.0
N1149 N 0.51393 0.17424 0.31191 0.0
H1150 H 0.46743 0.19481 0.21736 0.0
H1151 H 0.46023 0.1804 0.26268 0.0
H1152 H 0.52212 0.17377 0.33955 0.0
H1153 H 0.48878 0.15762 0.30605 0.0
H1154 H 0.62676 0.26991 0.21321 0.0
H1155 H 0.59129 0.25903 0.17987 0.0
H1156 H 0.62898 0.28667 0.26928 0.0
H1157 H 0.6261 0.26373 0.31179 0.0
C1158 C 0.57653 0.86863 0.95116 0.0
C1159 C 0.53634 0.86028 0.94543 0.0
C1160 C 0.52583 0.8633 0.01259 0.0
C1161 C 0.56612 0.8689 0.01765 0.0
N1162 N 0.63037 0.86691 0.99343 0.0
N1163 N 0.47397 0.83992 0.97262 0.0
C1164 C 0.5916 0.86778 0.98736 0.0
C1165 C 0.51105 0.8551 0.97656 0.0
N1166 N 0.59999 0.87988 0.92246 0.0
N1167 N 0.50159 0.86668 0.04209 0.0
H1168 H 0.45678 0.83144 -0.005 0.0
H1169 H 0.46113 0.83163 0.94765 0.0
H1170 H 0.51157 0.87029 0.06923 0.0
H1171 H 0.47183 0.86795 0.03937 0.0
H1172 H 0.62884 0.88937 0.92597 0.0
H1173 H 0.58967 0.88416 0.89591 0.0
H1174 H 0.65015 0.86265 0.97234 0.0
H1175 H 0.64204 0.8667 0.02003 0.0
C1176 C 0.93558 0.29132 0.77735 0.0
C1177 C 0.96265 0.26684 0.79149 0.0
C1178 C 0.97435 0.24612 0.72692 0.0
C1179 C 0.94251 0.26488 0.71574 0.0
N1180 N 0.91443 0.32373 0.72351 0.0
N1181 N 0.00603 0.21782 0.77751 0.0
C1182 C 0.9315 0.29445 0.73874 0.0
C1183 C 0.98251 0.24402 0.76558 0.0
N1184 N 0.9104 0.30821 0.80025 0.0
N1185 N -0.00173 0.23348 0.70047 0.0
H1186 H 0.00276 0.20623 0.8035 0.0
H1187 H 0.02425 0.20359 0.76021 0.0
H1188 H 0.99178 0.23543 0.67237 0.0
H1189 H 0.02624 0.22684 0.70647 0.0
H1190 H 0.88889 0.32444 0.79046 0.0
H1191 H 0.9069 0.30136 0.82801 0.0
H1192 H 0.90779 0.34751 0.73879 0.0
H1193 H 0.91111 0.3253 0.69488 0.0
C1194 C 0.56762 0.18197 0.5412 0.0
C1195 C 0.55402 0.21853 0.54098 0.0
C1196 C 0.54955 0.21499 0.47313 0.0
C1197 C 0.56091 0.17786 0.47393 0.0
N1198 N 0.59743 0.13393 0.50562 0.0
N1199 N 0.54363 0.27369 0.50466 0.0
C1200 C 0.57552 0.16406 0.50708 0.0
C1201 C 0.54889 0.23637 0.50654 0.0
N1202 N 0.57076 0.16327 0.57361 0.0
N1203 N 0.53932 0.23003 0.44049 0.0
H1204 H 0.54411 0.29172 0.52773 0.0
H1205 H 0.54411 0.29172 0.52773 0.0
H1206 H 0.5406 0.21514 0.41543 0.0
H1207 H 0.53033 0.25728 0.43887 0.0
H1208 H 0.57671 0.13507 0.57455 0.0
H1209 H 0.56399 0.17464 0.59936 0.0
H1210 H 0.61168 0.12408 0.52846 0.0
H1211 H 0.60512 0.12235 0.48035 0.0
C1212 C 0.60141 0.7899 0.26544 0.0
C1213 C 0.57207 0.80593 0.28578 0.0
C1214 C 0.54795 0.83223 0.22822 0.0
C1215 C 0.5767 0.81436 0.20819 0.0
N1216 N 0.61299 0.75846 0.20806 0.0
N1217 N 0.52157 0.84898 0.28819 0.0
C1218 C 0.59869 0.78812 0.22671 0.0
C1219 C 0.54636 0.82908 0.26765 0.0
N1220 N 0.63067 0.77424 0.28346 0.0
N1221 N 0.51991 0.84848 0.20902 0.0
H1222 H 0.52203 0.84944 0.31697 0.0
H1223 H 0.50357 0.86802 0.27712 0.0
H1224 H 0.51984 0.84902 0.18016 0.0
H1225 H 0.49493 0.85764 0.22108 0.0
H1226 H 0.65428 0.76411 0.26957 0.0
H1227 H 0.63285 0.77521 0.31229 0.0
H1228 H 0.62736 0.73775 0.22127 0.0
H1229 H 0.60452 0.75087 0.18112 0.0
C1230 C 0.91884 0.85146 0.04004 0.0
C1231 C 0.95327 0.83181 0.03993 0.0
C1232 C 0.96015 0.84235 0.9732 0.0
C1233 C 0.9321 0.8686 0.97574 0.0
N1234 N 0.88023 0.89533 0.00809 0.0
N1235 N 0.00669 0.80788 0.00515 0.0
C1236 C 0.90914 0.87122 0.00781 0.0
C1237 C 0.97356 0.82644 0.00598 0.0
N1238 N 0.89667 0.85301 0.07122 0.0
N1239 N 0.97464 0.83383 0.93918 0.0
H1240 H 0.01703 0.79378 0.02755 0.0
H1241 H 0.02505 0.80755 0.98238 0.0
H1242 H 0.96471 0.84605 0.91525 0.0
H1243 H 0.99303 0.81243 0.93434 0.0
H1244 H 0.86932 0.8632 0.07175 0.0
H1245 H 0.90464 0.84279 0.09664 0.0
H1246 H 0.86489 0.90271 0.03153 0.0
H1247 H 0.87225 0.90887 0.98423 0.0
C1248 C 0.73393 0.99207 0.82635 0.0
C1249 C 0.70432 0.97305 0.80402 0.0
C1250 C 0.74902 0.92664 0.78691 0.0
C1251 C 0.77417 0.93857 0.81632 0.0
N1252 N 0.79569 0.98942 0.85783 0.0
N1253 N 0.68246 0.91678 0.76961 0.0
C1254 C 0.76812 0.97327 0.83466 0.0
C1255 C 0.71145 0.93852 0.78659 0.0
N1256 N 0.73089 0.02867 0.83717 0.0
N1257 N 0.76169 0.90552 0.75808 0.0
H1258 H 0.65364 0.92332 0.77068 0.0
H1259 H 0.68677 0.89026 0.7583 0.0
H1260 H 0.79071 0.90007 0.75517 0.0
H1261 H 0.74455 0.89823 0.73501 0.0
H1262 H 0.75294 0.04529 0.85006 0.0
H1263 H 0.70751 0.04397 0.8306 0.0
H1264 H 0.79162 0.01269 0.87472 0.0
H1265 H 0.82356 0.9806 0.85892 0.0
C1266 C 0.81591 0.04269 0.51622 0.0
C1267 C 0.81061 0.01168 0.54086 0.0
C1268 C 0.81326 0.0581 0.59312 0.0
C1269 C 0.81785 0.0879 0.56781 0.0
N1270 N 0.80669 0.10872 0.50683 0.0
N1271 N 0.80362 0.99178 0.60478 0.0
C1272 C 0.8124 0.07988 0.52994 0.0
C1273 C 0.8082 0.02001 0.57984 0.0
N1274 N 0.82854 0.03787 0.48077 0.0
N1275 N 0.81746 0.06614 0.63001 0.0
H1276 H 0.8123 0.96484 0.59975 0.0
H1277 H 0.79301 -0.00423 0.63142 0.0
H1278 H 0.81942 0.09365 0.64017 0.0
H1279 H 0.82003 0.04613 0.65028 0.0
H1280 H 0.83412 0.06017 0.46288 0.0
H1281 H 0.84058 0.01367 0.47124 0.0
H1282 H 0.79997 0.10463 0.47887 0.0
H1283 H 0.80432 0.136 0.51718 0.0
C1284 C 0.77788 0.08089 0.33293 0.0
C1285 C 0.77053 0.06296 0.29781 0.0
C1286 C 0.70101 0.0716 0.30522 0.0
C1287 C 0.70998 0.09357 0.33698 0.0
N1288 N 0.75034 0.10567 0.38956 0.0
N1289 N 0.72334 0.03453 0.25384 0.0
C1290 C 0.74625 0.09274 0.35395 0.0
C1291 C 0.73138 0.05569 0.28519 0.0
N1292 N 0.81484 0.09021 0.34454 0.0
N1293 N 0.66344 0.06799 0.29373 0.0
H1294 H 0.74393 0.02128 0.23858 0.0
H1295 H 0.69589 0.02836 0.24303 0.0
H1296 H 0.64164 0.0792 0.30943 0.0
H1297 H 0.65335 0.05382 0.26993 0.0
H1298 H 0.8215 0.10618 0.36836 0.0
H1299 H 0.83917 0.0854 0.32882 0.0
H1300 H 0.77521 0.10343 0.40522 0.0
H1301 H 0.72685 0.11519 0.40422 0.0
C1302 C 0.68679 0.03988 0.02245 0.0
C1303 C 0.70867 0.06409 0.04754 0.0
C1304 C 0.71916 0.01082 0.08702 0.0
C1305 C 0.69372 0.98786 0.06444 0.0
N1306 N 0.66686 0.97524 0.00437 0.0
N1307 N 0.75864 0.06913 0.0942 0.0
C1308 C 0.68321 0.00061 0.02938 0.0
C1309 C 0.72937 0.04833 0.07662 0.0
N1310 N 0.66702 0.05441 0.99401 0.0
N1311 N 0.73004 -0.00219 0.12037 0.0
H1312 H 0.76743 0.09649 0.08662 0.0
H1313 H 0.77665 0.05796 0.11355 0.0
H1314 H 0.72205 0.97043 0.12819 0.0
H1315 H 0.74459 0.01446 0.14058 0.0
H1316 H 0.64784 0.0383 0.97705 0.0
H1317 H 0.66752 0.08306 0.98884 0.0
H1318 H 0.66038 0.98185 0.97723 0.0
H1319 H 0.66332 0.94667 0.01039 0.0
C1320 C 0.75622 0.07905 0.73334 0.0
C1321 C 0.72173 0.0945 0.721 0.0
C1322 C 0.75978 0.13809 0.68337 0.0
C1323 C 0.79391 0.12876 0.70143 0.0
N1324 N 0.82507 0.09108 0.74521 0.0
N1325 N 0.693 0.1474 0.6938 0.0
C1326 C 0.79244 0.0993 0.727 0.0
C1327 C 0.72419 0.12666 0.69883 0.0
N1328 N 0.75466 0.04472 0.74926 0.0
N1329 N 0.76146 0.15926 0.65232 0.0
H1330 H 0.66679 0.14177 0.70746 0.0
H1331 H 0.69486 0.17278 0.67981 0.0
H1332 H 0.78752 0.16729 0.63966 0.0
H1333 H 0.73698 0.16485 0.63722 0.0
H1334 H 0.77914 0.03095 0.75602 0.0
H1335 H 0.72881 0.02868 0.75229 0.0
H1336 H 0.82491 0.07212 0.76681 0.0
H1337 H 0.85192 0.1048 0.73954 0.0
C1338 C 0.64574 -0.00369 0.50057 0.0
C1339 C 0.68301 0.99071 0.48635 0.0
C1340 C 0.66842 0.02758 0.43236 0.0
C1341 C 0.63495 0.0395 0.45025 0.0
N1342 N 0.59461 0.03844 0.50526 0.0
N1343 N 0.73249 0.00748 0.44104 0.0
C1344 C 0.62415 0.02464 0.48537 0.0
C1345 C 0.69513 0.00793 0.45275 0.0
N1346 N 0.63035 0.97381 0.52781 0.0
N1347 N 0.67403 0.03349 0.39548 0.0
H1348 H 0.75377 -0.00488 0.45584 0.0
H1349 H 0.74313 0.02293 0.41858 0.0
H1350 H 0.6539 0.04577 0.37901 0.0
H1351 H 0.69626 0.02203 0.3806 0.0
H1352 H 0.60178 0.97442 0.53657 0.0
H1353 H 0.6446 0.9516 0.53852 0.0
H1354 H 0.58883 0.03113 0.53259 0.0
H1355 H 0.57818 0.05977 0.49626 0.0
C1356 C 0.75085 0.95017 0.2527 0.0
C1357 C 0.78526 0.94854 0.23127 0.0
C1358 C 0.7488 0.91951 0.17946 0.0
C1359 C 0.71434 0.9225 0.20025 0.0
N1360 N 0.68058 0.94335 0.25381 0.0
N1361 N 0.81863 0.92256 0.17929 0.0
C1362 C 0.71481 0.93824 0.23627 0.0
C1363 C 0.78469 0.93095 0.19587 0.0
N1364 N 0.75244 0.96321 0.28854 0.0
N1365 N 0.74701 0.9062 0.14367 0.0
H1366 H 0.84563 0.92852 0.19145 0.0
H1367 H 0.82034 0.90622 0.1553 0.0
H1368 H 0.72126 0.89732 0.13045 0.0
H1369 H 0.77034 0.90733 0.12556 0.0
H1370 H 0.72932 0.96074 0.30684 0.0
H1371 H 0.77715 0.97577 0.30097 0.0
H1372 H 0.6781 0.95825 0.27859 0.0
H1373 H 0.65387 0.93497 0.24197 0.0
C1374 C 0.85153 0.07294 0.99215 0.0
C1375 C 0.81524 0.08108 0.97758 0.0
C1376 C 0.80614 0.01591 0.95308 0.0
C1377 C 0.84469 0.01055 0.96307 0.0
N1378 N 0.89042 0.02383 0.01242 0.0
N1379 N 0.75567 0.0588 0.9464 0.0
C1380 C 0.86329 0.03597 0.98897 0.0
C1381 C 0.79171 0.05212 0.95872 0.0
N1382 N 0.87585 0.10081 0.00738 0.0
N1383 N 0.78212 0.98554 0.94277 0.0
H1384 H 0.74147 0.08258 0.95349 0.0
H1385 H 0.73997 0.04109 0.92784 0.0
H1386 H 0.79043 0.9581 0.9441 0.0
H1387 H 0.75271 0.98664 0.93784 0.0
H1388 H 0.90401 0.09647 0.01535 0.0
H1389 H 0.86956 0.12897 0.00832 0.0
H1390 H 0.90265 0.04042 0.03398 0.0
H1391 H 0.89635 -0.00444 0.01348 0.0
C1392 C 0.75452 0.78157 0.9565 0.0
C1393 C 0.77128 0.74588 0.95458 0.0
C1394 C 0.83319 0.77821 0.93706 0.0
C1395 C 0.81499 0.81214 0.93374 0.0
N1396 N 0.75765 0.84617 0.93641 0.0
N1397 N 0.82481 0.71045 0.93479 0.0
C1398 C 0.77554 0.81389 0.94264 0.0
C1399 C 0.81032 0.74429 0.94296 0.0
N1400 N 0.71943 0.78554 0.97283 0.0
N1401 N 0.87238 0.77848 0.93369 0.0
H1402 H 0.80804 0.68506 0.93514 0.0
H1403 H 0.85204 0.70794 0.92326 0.0
H1404 H 0.88949 0.80321 0.92909 0.0
H1405 H 0.88794 0.75525 0.93913 0.0
H1406 H 0.70858 0.81156 0.97832 0.0
H1407 H 0.70254 0.76409 0.98505 0.0
H1408 H 0.72777 0.84758 0.93672 0.0
H1409 H 0.77259 0.87119 0.92866 0.0
C1410 C 0.27367 0.8199 0.11283 0.0
C1411 C 0.28581 0.82896 0.0765 0.0
C1412 C 0.33561 0.78393 0.08078 0.0
C1413 C 0.31968 0.77171 0.11493 0.0
N1414 N 0.26516 0.7689 0.1557 0.0
N1415 N 0.32069 0.80994 0.02177 0.0
C1416 C 0.28557 0.78673 0.12817 0.0
C1417 C 0.31451 0.80812 0.059 0.0
N1418 N 0.25374 0.84409 0.13401 0.0
N1419 N 0.37135 0.77452 0.06995 0.0
H1420 H 0.30368 0.82465 0.00416 0.0
H1421 H 0.33948 0.79291 0.00798 0.0
H1422 H 0.38901 0.75973 0.08677 0.0
H1423 H 0.38501 0.78531 0.04633 0.0
H1424 H 0.24743 0.83931 0.16181 0.0
H1425 H 0.24859 0.87116 0.12585 0.0
H1426 H 0.23855 0.77695 0.16532 0.0
H1427 H 0.23855 0.77695 0.16532 0.0
C1428 C 0.97723 0.52191 0.80628 0.0
C1429 C 0.96332 0.54995 0.78323 0.0
C1430 C 0.02768 0.58335 0.78368 0.0
C1431 C 0.03803 0.55959 0.8121 0.0
N1432 N 0.03331 0.49749 0.8354 0.0
N1433 N 0.97883 0.59911 0.73938 0.0
C1434 C 0.01651 0.52523 0.81721 0.0
C1435 C 0.98976 0.57823 0.76839 0.0
N1436 N 0.95256 0.49403 0.82004 0.0
N1437 N 0.05399 0.61097 0.77244 0.0
H1438 H 0.95163 0.59528 0.72711 0.0
H1439 H -0.00273 0.6183 0.72557 0.0
H1440 H 0.08207 0.61333 0.78294 0.0
H1441 H 0.04897 0.63028 0.75216 0.0
H1442 H 0.96076 0.47483 0.83937 0.0
H1443 H 0.92302 0.49174 0.81454 0.0
H1444 H 0.02045 0.47044 0.83832 0.0
H1445 H 0.06194 0.50129 0.84444 0.0
C1446 C 0.22781 0.27091 0.54611 0.0
C1447 C 0.20399 0.23698 0.55098 0.0
C1448 C 0.14864 0.27522 0.56177 0.0
C1449 C 0.17445 0.30754 0.56357 0.0
N1450 N 0.2306 0.33882 0.53862 0.0
N1451 N 0.14025 0.20708 0.56222 0.0
C1452 C 0.21102 0.30598 0.5481 0.0
C1453 C 0.16351 0.23913 0.55706 0.0
N1454 N 0.26673 0.27028 0.54252 0.0
N1455 N 0.11065 0.2794 0.56891 0.0
H1456 H 0.15044 0.18035 0.56294 0.0
H1457 H 0.11093 0.20659 0.56808 0.0
H1458 H 0.10119 0.30578 0.57528 0.0
H1459 H 0.08874 0.25808 0.56687 0.0
H1460 H 0.28535 0.29436 0.54474 0.0
H1461 H 0.28078 0.24572 0.54077 0.0
H1462 H 0.25687 0.34007 0.52459 0.0
H1463 H 0.21808 0.36447 0.54223 0.0
C1464 C 0.00441 0.04894 0.82409 0.0
C1465 C 0.01568 0.03438 0.78924 0.0
C1466 C 0.96644 0.98181 0.7944 0.0
C1467 C 0.9571 -0.00438 0.82992 0.0
N1468 N 0.95471 0.04887 0.87114 0.0
N1469 N -0.00025 0.9938 0.73637 0.0
C1470 C 0.97176 0.0317 0.84195 0.0
C1471 C -0.00574 0.00286 0.77277 0.0
N1472 N 0.02638 0.07726 0.84155 0.0
N1473 N 0.94953 0.9483 0.78191 0.0
H1474 H 0.01914 0.0092 0.71962 0.0
H1475 H 0.9828 0.9733 0.72186 0.0
H1476 H 0.92716 0.93401 0.79621 0.0
H1477 H 0.95825 0.93424 0.75819 0.0
H1478 H 0.02125 0.0862 0.86859 0.0
H1479 H 0.05205 0.08934 0.83072 0.0
H1480 H 0.96201 0.07659 0.87944 0.0
H1481 H 0.93036 0.03647 0.88429 0.0
C1482 C 0.67998 0.28547 0.48477 0.0
C1483 C 0.67492 0.31712 0.4623 0.0
C1484 C 0.64275 0.27604 0.41607 0.0
C1485 C 0.65661 0.24463 0.4339 0.0
N1486 N 0.68744 0.21828 0.48591 0.0
N1487 N 0.65341 0.34235 0.40489 0.0
C1488 C 0.67475 0.24884 0.46871 0.0
C1489 C 0.65647 0.31244 0.42757 0.0
N1490 N 0.68769 0.29037 0.52158 0.0
N1491 N 0.61618 0.27084 0.38833 0.0
H1492 H 0.66393 0.36964 0.41197 0.0
H1493 H 0.64357 0.33942 0.3777 0.0
H1494 H 0.60449 0.24419 0.38049 0.0
H1495 H 0.60263 0.29283 0.37641 0.0
H1496 H 0.68905 0.26819 0.53977 0.0
H1497 H 0.68828 0.31671 0.53451 0.0
H1498 H 0.70407 0.22023 0.50991 0.0
H1499 H 0.6826 0.19105 0.47504 0.0
C1500 C 0.9449 0.42681 0.65029 0.0
C1501 C 0.94697 0.45885 0.67419 0.0
C1502 C 0.0147 0.44925 0.68712 0.0
C1503 C 0.01436 0.42369 0.65746 0.0
N1504 N 0.97911 0.37608 0.62212 0.0
N1505 N 0.98647 0.50438 0.71062 0.0
C1506 C 0.97892 0.40782 0.64365 0.0
C1507 C 0.98241 0.47079 0.69207 0.0
N1508 N 0.91176 0.41725 0.63111 0.0
N1509 N 0.04722 0.45486 0.70811 0.0
H1510 H 0.96526 0.52346 0.71034 0.0
H1511 H 0.01263 0.51544 0.72167 0.0
H1512 H 0.07114 0.43926 0.7031 0.0
H1513 H 0.04877 0.47172 0.73198 0.0
H1514 H 0.91019 0.39765 0.60943 0.0
H1515 H 0.88683 0.43166 0.63457 0.0
H1516 H 0.95426 0.3611 0.6124 0.0
H1517 H 0.00489 0.36355 0.61664 0.0
C1518 C 0.5236 0.61125 0.2128 0.0
C1519 C 0.55962 0.61571 0.19455 0.0
C1520 C 0.52739 0.63809 0.14014 0.0
C1521 C 0.49155 0.62393 0.15504 0.0
N1522 N 0.4539 0.60094 0.20664 0.0
N1523 N 0.59735 0.63887 0.14317 0.0
C1524 C 0.48901 0.61203 0.19199 0.0
C1525 C 0.562 0.63174 0.15914 0.0
N1526 N 0.52296 0.60836 0.25016 0.0
N1527 N 0.52795 0.65676 0.10748 0.0
H1528 H 0.62297 0.63617 0.15771 0.0
H1529 H 0.60137 0.64645 0.11571 0.0
H1530 H 0.50266 0.66138 0.09323 0.0
H1531 H 0.55267 0.67021 0.09617 0.0
H1532 H 0.4979 0.60458 0.26585 0.0
H1533 H 0.54782 0.61609 0.26527 0.0
H1534 H 0.45023 0.58934 0.23271 0.0
H1535 H 0.42825 0.60257 0.19193 0.0
C1536 C 0.56066 0.77704 0.74966 0.0
C1537 C 0.55208 0.75411 0.7807 0.0
C1538 C 0.56766 0.6984 0.74597 0.0
C1539 C 0.5794 0.7217 0.71597 0.0
N1540 N 0.57492 0.77927 0.6838 0.0
N1541 N 0.53416 0.69277 0.8046 0.0
C1542 C 0.5711 0.75974 0.71584 0.0
C1543 C 0.55057 0.71459 0.77733 0.0
N1544 N 0.56095 0.81523 0.75315 0.0
N1545 N 0.57644 0.66168 0.74591 0.0
H1546 H 0.52231 0.7041 0.82849 0.0
H1547 H 0.52917 0.66371 0.802 0.0
H1548 H 0.58954 0.64916 0.72343 0.0
H1549 H 0.57298 0.64438 0.76873 0.0
H1550 H 0.57105 0.83351 0.73267 0.0
H1551 H 0.5531 0.8287 0.77753 0.0
H1552 H 0.56669 0.8066 0.68102 0.0
H1553 H 0.58298 0.76643 0.65906 0.0
C1554 C 0.54139 0.34159 0.05038 0.0
C1555 C 0.55062 0.30367 0.0488 0.0
C1556 C 0.55654 0.30779 0.98116 0.0
C1557 C 0.54444 0.34505 0.98328 0.0
N1558 N 0.50586 0.38655 0.019 0.0
N1559 N 0.58211 0.25632 0.01427 0.0
C1560 C 0.53107 0.35887 0.01763 0.0
C1561 C 0.56258 0.28823 0.0145 0.0
N1562 N 0.54391 0.36178 0.0828 0.0
N1563 N 0.55884 0.28998 0.94756 0.0
H1564 H 0.59088 0.24433 0.03872 0.0
H1565 H 0.59394 0.24478 0.99057 0.0
H1566 H 0.54898 0.30151 0.92334 0.0
H1567 H 0.56496 0.26197 0.94429 0.0
H1568 H 0.53908 0.39031 0.08428 0.0
H1569 H 0.55637 0.35146 0.10646 0.0
H1570 H 0.49375 0.39558 0.04374 0.0
H1571 H 0.49269 0.39591 -0.00474 0.0
C1572 C 0.96339 0.34408 0.24707 0.0
C1573 C 0.96879 0.36721 0.27947 0.0
C1574 C 0.93201 0.41488 0.25052 0.0
C1575 C 0.92453 0.38994 0.22007 0.0
N1576 N 0.94667 0.34007 0.18211 0.0
N1577 N 0.96761 0.42865 0.30778 0.0
C1578 C 0.94583 0.35823 0.21562 0.0
C1579 C 0.95664 0.40433 0.27954 0.0
N1580 N 0.97063 0.30718 0.24753 0.0
N1581 N 0.9135 0.44738 0.25234 0.0
H1582 H 0.98548 0.42103 0.32919 0.0
H1583 H 0.96159 0.45683 0.30852 0.0
H1584 H 0.89658 0.45558 0.23042 0.0
H1585 H 0.9142 0.46543 0.2753 0.0
H1586 H 0.96339 0.28806 0.22609 0.0
H1587 H 0.97993 0.29498 0.27114 0.0
H1588 H 0.96438 0.31822 0.1766 0.0
H1589 H 0.93333 0.35009 0.15883 0.0
C1590 C 0.90626 0.69212 0.56688 0.0
C1591 C 0.91932 0.73024 0.57208 0.0
C1592 C 0.92295 0.73836 0.50463 0.0
C1593 C 0.91346 0.69932 0.49987 0.0
N1594 N 0.87837 0.64449 0.52489 0.0
N1595 N 0.92471 0.79276 0.54569 0.0
C1596 C 0.89963 0.67783 0.53057 0.0
C1597 C 0.92242 0.75456 0.54098 0.0
N1598 N 0.90015 0.66942 0.59669 0.0
N1599 N 0.93409 0.75965 0.47492 0.0
H1600 H 0.92399 0.80657 0.57112 0.0
H1601 H 0.92274 0.81129 0.52399 0.0
H1602 H 0.93558 0.74882 0.44808 0.0
H1603 H 0.94482 0.78757 0.47702 0.0
H1604 H 0.89617 0.64024 0.59446 0.0
H1605 H 0.90025 0.67973 0.62389 0.0
H1606 H 0.8644 0.6294 0.54598 0.0
H1607 H 0.87078 0.63409 0.49862 0.0
C1608 C 0.52813 0.37203 0.71808 0.0
C1609 C 0.53707 0.33684 0.70217 0.0
C1610 C 0.55174 0.31579 0.76382 0.0
C1611 C 0.5512 0.35246 0.77881 0.0
N1612 N 0.54913 0.41819 0.76504 0.0
N1613 N 0.58206 0.28937 0.71138 0.0
C1614 C 0.54135 0.38154 0.75479 0.0
C1615 C 0.5552 0.31172 0.72519 0.0
N1616 N 0.51027 0.3975 0.69771 0.0
N1617 N 0.5552 0.28596 0.78624 0.0
H1618 H 0.59394 0.29404 0.68526 0.0
H1619 H 0.59702 0.27182 0.72818 0.0
H1620 H 0.554 0.28883 0.81503 0.0
H1621 H 0.55576 0.2586 0.77555 0.0
H1622 H 0.50024 0.42185 0.70955 0.0
H1623 H 0.50454 0.39365 0.66955 0.0
H1624 H 0.54574 0.44044 0.74728 0.0
H1625 H 0.56294 0.4257 0.78989 0.0
C1626 C 0.93069 0.35102 0.96716 0.0
C1627 C 0.95438 0.32067 0.97014 0.0
C1628 C 0.95674 0.32869 0.03784 0.0
C1629 C 0.93497 0.36056 0.03462 0.0
N1630 N 0.89273 0.39645 -0.00191 0.0
N1631 N 0.98124 0.27378 0.00747 0.0
C1632 C 0.91885 0.3695 -0.00021 0.0
C1633 C 0.96428 0.30706 0.00535 0.0
N1634 N 0.9209 0.3631 0.93292 0.0
N1635 N 0.9722 0.32069 0.07126 0.0
H1636 H 0.98645 0.25751 0.98403 0.0
H1637 H 0.98689 0.26072 0.0322 0.0
H1638 H 0.96648 0.33577 0.09539 0.0
H1639 H 0.99193 0.3004 0.07487 0.0
H1640 H 0.90836 0.38825 0.9283 0.0
H1641 H 0.92688 0.34854 0.90852 0.0
H1642 H 0.87745 0.40228 0.97438 0.0
H1643 H 0.88318 0.41062 0.02146 0.0
C1644 C 0.96339 0.68722 0.2294 0.0
C1645 C 0.97188 0.72601 0.22304 0.0
C1646 C 0.95193 0.74091 0.28639 0.0
C1647 C 0.93751 0.70326 0.29039 0.0
N1648 N 0.92611 0.64054 0.26481 0.0
N1649 N 0.96803 0.79053 0.24358 0.0
C1650 C 0.9427 0.67624 0.26178 0.0
C1651 C 0.96461 0.7531 0.25107 0.0
N1652 N 0.97471 0.66095 0.20445 0.0
N1653 N 0.95268 0.7652 0.31608 0.0
H1654 H 0.97488 0.80051 0.21747 0.0
H1655 H 0.95993 0.81138 0.26195 0.0
H1656 H 0.9432 0.75703 0.34228 0.0
H1657 H 0.96636 0.79213 0.31564 0.0
H1658 H 0.9734 0.63232 0.20987 0.0
H1659 H 0.98771 0.66799 0.17925 0.0
H1660 H 0.92489 0.62082 0.24317 0.0
H1661 H 0.91164 0.63128 0.2886 0.0
C1662 C 0.57763 0.74088 0.49437 0.0
C1663 C 0.55007 0.7222 0.46986 0.0
C1664 C 0.53347 0.6761 0.5173 0.0
C1665 C 0.56899 0.68701 0.53485 0.0
N1666 N 0.60968 0.74019 0.55471 0.0
N1667 N 0.4926 0.68022 0.46352 0.0
C1668 C 0.58639 0.72308 0.52823 0.0
C1669 C 0.5247 0.69257 0.48334 0.0
N1670 N 0.59554 0.77466 0.4851 0.0
N1671 N 0.50812 0.65081 0.53414 0.0
H1672 H 0.48277 0.69462 0.44092 0.0
H1673 H 0.47573 0.65576 0.46924 0.0
H1674 H 0.51373 0.64054 0.56031 0.0
H1675 H 0.48052 0.64291 0.52436 0.0
H1676 H 0.61301 0.79127 0.50302 0.0
H1677 H 0.59192 0.78712 0.45967 0.0
H1678 H 0.62217 0.76744 0.55314 0.0
H1679 H 0.6138 0.72764 0.58007 0.0
C1680 C 0.75298 0.55527 0.70891 0.0
C1681 C 0.78519 0.55863 0.68503 0.0
C1682 C 0.75576 0.60972 0.65327 0.0
C1683 C 0.72773 0.61052 0.68202 0.0
N1684 N 0.70008 0.58494 0.73806 0.0
N1685 N 0.81448 0.5835 0.62978 0.0
C1686 C 0.72655 0.58356 0.71014 0.0
C1687 C 0.78558 0.58408 0.65543 0.0
N1688 N 0.74587 0.52317 0.72795 0.0
N1689 N 0.7546 0.6346 0.62508 0.0
H1690 H 0.83554 0.56403 0.63057 0.0
H1691 H 0.81765 0.60142 0.60749 0.0
H1692 H 0.73299 0.65327 0.62312 0.0
H1693 H 0.77382 0.63628 0.60305 0.0
H1694 H 0.72125 0.51728 0.74388 0.0
H1695 H 0.76201 0.50044 0.72219 0.0
H1696 H 0.70103 0.56875 0.76171 0.0
H1697 H 0.67814 0.60353 0.73823 0.0
C1698 C 0.6938 0.52587 -0.00428 0.0
C1699 C 0.69942 0.55503 0.96953 0.0
C1700 C 0.68477 0.51029 0.91923 0.0
C1701 C 0.67706 0.48134 0.94538 0.0
N1702 N 0.68723 0.4584 0.00597 0.0
N1703 N 0.71459 0.57214 0.90679 0.0
C1704 C 0.687 0.48809 0.98278 0.0
C1705 C 0.70038 0.54609 0.9314 0.0
N1706 N 0.69277 0.53443 0.03263 0.0
N1707 N 0.67255 0.50512 0.88355 0.0
H1708 H 0.72526 0.5991 0.91494 0.0
H1709 H 0.7191 0.5657 0.87895 0.0
H1710 H 0.65924 0.47981 0.87413 0.0
H1711 H 0.67305 0.52655 0.86432 0.0
H1712 H 0.68565 0.51468 0.05281 0.0
H1713 H 0.69634 0.56192 0.04285 0.0
H1714 H 0.69666 0.46083 0.03331 0.0
H1715 H 0.6813 0.43084 -0.00379 0.0
C1716 C 0.75801 0.53757 0.1893 0.0
C1717 C 0.72138 0.52477 0.17403 0.0
C1718 C 0.75111 0.47307 0.14209 0.0
C1719 C 0.78454 0.48051 0.16429 0.0
N1720 N 0.8246 0.52349 0.20185 0.0
N1721 N 0.68441 0.48559 0.13029 0.0
C1722 C 0.7897 0.51429 0.18534 0.0
C1723 C 0.71863 0.49443 0.14814 0.0
N1724 N 0.76194 0.57073 0.20896 0.0
N1725 N 0.75104 0.44602 0.11478 0.0
H1726 H 0.66141 0.50291 0.13186 0.0
H1727 H 0.67842 0.46122 0.1145 0.0
H1728 H 0.77502 0.43085 0.1091 0.0
H1729 H 0.7289 0.44076 0.09564 0.0
H1730 H 0.78694 0.58106 0.22248 0.0
H1731 H 0.74057 0.58962 0.21071 0.0
H1732 H 0.83226 0.54895 0.21515 0.0
H1733 H 0.84734 0.50591 0.20092 0.0
C1734 C 0.77518 0.50823 0.42482 0.0
C1735 C 0.7601 0.50791 0.46114 0.0
C1736 C 0.78886 0.5719 0.47226 0.0
C1737 C 0.80962 0.56928 0.43888 0.0
N1738 N 0.82494 0.53385 0.38382 0.0
N1739 N 0.75756 0.53713 0.52179 0.0
C1740 C 0.80316 0.53725 0.41505 0.0
C1741 C 0.76788 0.53932 0.48545 0.0
N1742 N 0.76264 0.48103 0.39969 0.0
N1743 N 0.78977 0.60515 0.49165 0.0
H1744 H 0.74442 0.51281 0.53284 0.0
H1745 H 0.76571 0.55772 0.54162 0.0
H1746 H 0.80435 0.62961 0.48207 0.0
H1747 H 0.77275 0.6094 0.51489 0.0
H1748 H 0.76953 0.48218 0.37167 0.0
H1749 H 0.74258 0.45901 0.4063 0.0
H1750 H 0.82488 0.50921 0.36789 0.0
H1751 H 0.84448 0.55523 0.37466 0.0
C1752 C 0.75329 0.45059 0.7751 0.0
C1753 C 0.77835 0.47365 0.79846 0.0
C1754 C 0.73789 0.45412 0.85081 0.0
C1755 C 0.70868 0.44009 0.82566 0.0
N1756 N 0.68652 0.4316 0.76282 0.0
N1757 N 0.7949 0.49621 0.86023 0.0
C1758 C 0.71553 0.44124 0.78739 0.0
C1759 C 0.77051 0.47554 0.83691 0.0
N1760 N 0.7654 0.43577 0.74234 0.0
N1761 N 0.73596 0.44478 0.88724 0.0
H1762 H 0.82121 0.50897 0.85148 0.0
H1763 H 0.78818 0.50149 0.88787 0.0
H1764 H 0.71308 0.42801 0.89808 0.0
H1765 H 0.75845 0.45118 0.90588 0.0
H1766 H 0.74779 0.41694 0.72635 0.0
H1767 H 0.79377 0.43841 0.73308 0.0
H1768 H 0.6901 0.43456 0.73433 0.0
H1769 H 0.65824 0.4245 0.77131 0.0
C1770 C 0.82121 0.56738 0.0989 0.0
C1771 C 0.80142 0.56803 0.06471 0.0
C1772 C 0.8169 0.50323 0.05203 0.0
C1773 C 0.84463 0.50677 0.08015 0.0
N1774 N 0.87318 0.54088 0.1322 0.0
N1775 N 0.78556 0.53736 0.00572 0.0
C1776 C 0.84612 0.53811 0.10482 0.0
C1777 C 0.79979 0.53584 0.04071 0.0
N1778 N 0.81717 0.59506 0.12489 0.0
N1779 N 0.80931 0.46935 0.0345 0.0
H1780 H 0.77737 0.56208 -0.00542 0.0
H1781 H 0.78652 0.51543 0.98638 0.0
H1782 H 0.82271 0.44551 0.04261 0.0
H1783 H 0.78714 0.4644 0.01522 0.0
H1784 H 0.82868 0.59432 0.15145 0.0
H1785 H 0.79958 0.61718 0.12079 0.0
H1786 H 0.8791 0.56502 0.14843 0.0
H1787 H 0.89043 0.51883 0.13764 0.0
C1788 C 0.71534 0.57852 0.35736 0.0
C1789 C 0.71159 0.56128 0.32216 0.0
C1790 C 0.78147 0.5686 0.31418 0.0
C1791 C 0.78242 0.59704 0.34184 0.0
N1792 N 0.75191 0.62496 0.39487 0.0
N1793 N 0.74446 0.52157 0.27889 0.0
C1794 C 0.75023 0.59967 0.36601 0.0
C1795 C 0.74552 0.54992 0.30454 0.0
N1796 N 0.68499 0.57563 0.38132 0.0
N1797 N 0.81437 0.56021 0.29629 0.0
H1798 H 0.71949 0.50473 0.27245 0.0
H1799 H 0.71949 0.50473 0.27245 0.0
H1800 H 0.84123 0.57363 0.30283 0.0
H1801 H 0.81456 0.53859 0.27652 0.0
H1802 H 0.68655 0.58546 0.40862 0.0
H1803 H 0.65952 0.55969 0.37439 0.0
H1804 H 0.72814 0.63087 0.41098 0.0
H1805 H 0.77691 0.64152 0.4015 0.0
C1806 C 0.70315 0.49141 0.60938 0.0
C1807 C 0.69246 0.47436 0.57485 0.0
C1808 C 0.66673 0.53192 0.55544 0.0
C1809 C 0.6733 0.54835 0.59078 0.0
N1810 N 0.68084 0.53462 0.65538 0.0
N1811 N 0.63901 0.47332 0.53207 0.0
C1812 C 0.6874 0.52597 0.61924 0.0
C1813 C 0.66715 0.49283 0.55202 0.0
N1814 N 0.7254 0.47375 0.63369 0.0
N1815 N 0.65603 0.55265 0.52636 0.0
H1816 H 0.6322 0.44478 0.53637 0.0
H1817 H 0.61892 0.48673 0.51648 0.0
H1818 H 0.6552 0.58183 0.52829 0.0
H1819 H 0.65152 0.54066 0.50001 0.0
H1820 H 0.73571 0.48683 0.65809 0.0
H1821 H 0.73388 0.4466 0.62895 0.0
H1822 H 0.68559 0.51594 0.67649 0.0
H1823 H 0.66667 0.55826 0.66351 0.0
C1824 C 0.70954 0.79495 0.54227 0.0
C1825 C 0.73307 0.82151 0.56391 0.0
C1826 C 0.75147 0.77055 0.60306 0.0
C1827 C 0.71934 0.74825 0.58914 0.0
N1828 N 0.6876 0.72877 0.53256 0.0
N1829 N 0.78568 0.83189 0.60769 0.0
C1830 C 0.70452 0.75694 0.55427 0.0
C1831 C 0.75727 0.80837 0.59193 0.0
N1832 N 0.69146 0.80614 0.51124 0.0
N1833 N 0.77707 0.75448 0.6255 0.0
H1834 H 0.79425 0.85819 0.59716 0.0
H1835 H 0.80068 0.82553 0.63142 0.0
H1836 H 0.774 0.72587 0.63147 0.0
H1837 H 0.80292 0.76791 0.63481 0.0
H1838 H 0.67647 0.78787 0.49283 0.0
H1839 H 0.69088 0.83413 0.50374 0.0
H1840 H 0.67687 0.73237 0.50612 0.0
H1841 H 0.68763 0.70066 0.53997 0.0
C1842 C 0.1613 0.76246 0.48434 0.0
C1843 C 0.19201 0.74005 0.47348 0.0
C1844 C 0.20757 0.78351 0.42317 0.0
C1845 C 0.17305 0.80068 0.43023 0.0
N1846 N 0.13641 0.82368 0.47982 0.0
N1847 N 0.24146 0.72765 0.4271 0.0
C1848 C 0.15474 0.79507 0.46421 0.0
C1849 C 0.21482 0.75025 0.44167 0.0
N1850 N 0.13681 0.75154 0.51233 0.0
N1851 N 0.2332 0.79951 0.39842 0.0
H1852 H 0.24694 0.70133 0.43643 0.0
H1853 H 0.25531 0.73293 0.40197 0.0
H1854 H 0.22787 0.82443 0.38518 0.0
H1855 H 0.26098 0.79086 0.39449 0.0
H1856 H 0.11246 0.76577 0.51903 0.0
H1857 H 0.13833 0.72616 0.52594 0.0
H1858 H 0.12816 0.82348 0.50751 0.0
H1859 H 0.13697 0.84974 0.46716 0.0
C1860 C 0.51754 0.01295 0.69528 0.0
C1861 C 0.54496 0.9872 0.70503 0.0
C1862 C 0.5 0.93592 0.68238 0.0
C1863 C 0.47164 0.96222 0.67791 0.0
N1864 N 0.44983 0.02326 0.69178 0.0
N1865 N 0.56126 0.92271 0.70975 0.0
C1866 C 0.47907 -0.00028 0.68936 0.0
C1867 C 0.53564 0.94803 0.69971 0.0
N1868 N 0.52864 0.04904 0.68711 0.0
N1869 N 0.4937 0.90026 0.66825 0.0
H1870 H 0.58913 0.93074 0.71897 0.0
H1871 H 0.55427 0.89386 0.71 0.0
H1872 H 0.46758 0.89073 0.65593 0.0
H1873 H 0.51486 0.88097 0.66699 0.0
H1874 H 0.50933 0.06863 0.67943 0.0
H1875 H 0.5569 0.05606 0.67958 0.0
H1876 H 0.45397 0.0507 0.70225 0.0
H1877 H 0.42114 0.01364 0.68716 0.0
C1878 C 0.29006 0.3274 0.92001 0.0
C1879 C 0.30963 0.33667 0.95376 0.0
C1880 C 0.33344 0.27264 0.95266 0.0
C1881 C 0.31412 0.26505 0.91877 0.0
N1882 N 0.25764 0.27742 0.88394 0.0
N1883 N 0.35809 0.31945 -0.00229 0.0
C1884 C 0.28673 0.28986 0.9074 0.0
C1885 C 0.33328 0.3095 0.96936 0.0
N1886 N 0.27791 0.35478 0.89777 0.0
N1887 N 0.34871 0.24382 0.97038 0.0
H1888 H 0.36406 0.34704 0.00677 0.0
H1889 H 0.37717 0.30141 0.00871 0.0
H1890 H 0.34518 0.21637 0.95998 0.0
H1891 H 0.3588 0.24592 -0.00253 0.0
H1892 H 0.26545 0.34886 0.87189 0.0
H1893 H 0.28596 0.38321 0.90231 0.0
H1894 H 0.23537 0.29406 0.8767 0.0
H1895 H 0.25382 0.24922 0.87553 0.0
C1896 C 0.48785 0.54734 0.70188 0.0
C1897 C 0.45615 0.57064 0.70325 0.0
C1898 C 0.49941 0.62542 0.68881 0.0
C1899 C 0.53046 0.6017 0.685 0.0
N1900 N 0.55765 0.54392 0.69927 0.0
N1901 N 0.43371 0.63282 0.70928 0.0
C1902 C 0.52578 0.56394 0.69592 0.0
C1903 C 0.46263 0.61011 0.70057 0.0
N1904 N 0.48141 0.50922 0.70409 0.0
N1905 N 0.50461 0.66203 0.67834 0.0
H1906 H 0.40627 0.6223 0.71741 0.0
H1907 H 0.43776 0.66198 0.71138 0.0
H1908 H 0.5315 0.67395 0.67023 0.0
H1909 H 0.48231 0.67988 0.67599 0.0
H1910 H 0.50274 0.49054 0.69976 0.0
H1911 H 0.454 0.49593 0.70765 0.0
H1912 H 0.55697 0.51698 0.70998 0.0
H1913 H 0.58542 0.5561 0.69465 0.0
C1914 C 0.79358 0.28544 0.03157 0.0
C1915 C 0.78103 0.25489 0.05487 0.0
C1916 C 0.76771 0.30216 0.10188 0.0
C1917 C 0.79413 0.32866 0.08502 0.0
N1918 N 0.82419 0.34846 0.02812 0.0
N1919 N 0.75789 0.23688 0.11626 0.0
C1920 C 0.80478 0.32132 0.048 0.0
C1921 C 0.76772 0.26388 0.091 0.0
N1922 N 0.79172 0.28135 0.99396 0.0
N1923 N 0.74407 0.31352 0.1294 0.0
H1924 H 0.76185 0.20851 0.11228 0.0
H1925 H 0.75049 0.24353 0.14345 0.0
H1926 H 0.74347 0.34187 0.13706 0.0
H1927 H 0.72261 0.29553 0.14111 0.0
H1928 H 0.79801 0.3034 0.97596 0.0
H1929 H 0.77816 0.25778 0.98084 0.0
H1930 H 0.83658 0.343 0.00252 0.0
H1931 H 0.82685 0.37633 0.03719 0.0
C1932 C 0.499 0.07264 0.79461 0.0
C1933 C 0.53217 0.09837 0.79254 0.0
C1934 C 0.5007 0.1423 0.83351 0.0
C1935 C 0.46856 0.11573 0.83617 0.0
N1936 N 0.43103 0.06321 0.80999 0.0
N1937 N 0.56036 0.16161 0.80174 0.0
C1938 C 0.46562 0.08375 0.81294 0.0
C1939 C 0.53145 0.13478 0.80894 0.0
N1940 N 0.50003 0.0368 0.78112 0.0
N1941 N 0.50284 0.17327 0.85635 0.0
H1942 H 0.58398 0.15633 0.78506 0.0
H1943 H 0.55953 0.18961 0.81018 0.0
H1944 H 0.48026 0.17936 0.87403 0.0
H1945 H 0.52728 0.19178 0.85889 0.0
H1946 H 0.47801 0.01589 0.78494 0.0
H1947 H 0.52454 0.02691 0.76922 0.0
H1948 H 0.4258 0.04112 0.79101 0.0
H1949 H 0.40651 0.07125 0.824 0.0
C1950 C 0.96053 0.92547 0.31748 0.0
C1951 C 0.95924 0.9629 0.30538 0.0
C1952 C 0.02648 0.97621 0.32291 0.0
C1953 C 0.02382 0.94334 0.34371 0.0
N1954 N 0.99039 0.88468 0.36016 0.0
N1955 N 0.99111 0.02455 0.29593 0.0
C1956 C 0.99199 0.91661 0.33978 0.0
C1957 C 0.99255 0.98833 0.30708 0.0
N1958 N 0.93124 0.89915 0.30899 0.0
N1959 N 0.06116 -0.0035 0.32033 0.0
H1960 H 0.96634 0.03481 0.28507 0.0
H1961 H 0.0136 0.04512 0.29984 0.0
H1962 H 0.086 0.98744 0.33268 0.0
H1963 H 0.06591 0.01956 0.30323 0.0
H1964 H 0.93245 0.87069 0.31445 0.0
H1965 H 0.90705 0.90531 0.29376 0.0
H1966 H 0.96598 0.86611 0.36192 0.0
H1967 H 0.01322 0.87786 0.3769 0.0
C1968 C 0.45431 0.35619 0.24155 0.0
C1969 C 0.44089 0.31913 0.23032 0.0
C1970 C 0.42608 0.30429 0.29492 0.0
C1971 C 0.4353 0.34195 0.30456 0.0
N1972 N 0.47325 0.39802 0.29279 0.0
N1973 N 0.40101 0.26279 0.24635 0.0
C1974 C 0.45534 0.36555 0.27961 0.0
C1975 C 0.42375 0.29391 0.257 0.0
N1976 N 0.46155 0.38355 0.216 0.0
N1977 N 0.41651 0.27961 0.3223 0.0
H1978 H 0.3903 0.25875 0.2196 0.0
H1979 H 0.38696 0.24461 0.26498 0.0
H1980 H 0.41694 0.28845 0.35004 0.0
H1981 H 0.41189 0.25072 0.31777 0.0
H1982 H 0.46927 0.41152 0.223 0.0
H1983 H 0.45426 0.37962 0.18816 0.0
H1984 H 0.49129 0.416 0.27702 0.0
H1985 H 0.47237 0.4038 0.32104 0.0
C1986 C 0.49822 0.75006 -0.00356 0.0
C1987 C 0.48198 0.74437 0.96006 0.0
C1988 C 0.4269 0.70752 0.98741 0.0
C1989 C 0.4454 0.71011 0.02234 0.0
N1990 N 0.49696 0.73648 0.06139 0.0
N1991 N 0.43354 0.7118 0.92092 0.0
C1992 C 0.48029 0.73227 0.02715 0.0
C1993 C 0.44667 0.72194 0.95558 0.0
N1994 N 0.53108 0.77218 0.00348 0.0
N1995 N 0.38998 0.69176 0.985 0.0
H1996 H 0.44828 0.7195 0.89681 0.0
H1997 H 0.41017 0.69247 0.91598 0.0
H1998 H 0.37484 0.68192 0.00822 0.0
H1999 H 0.37315 0.69208 0.9612 0.0
H2000 H 0.54719 0.78772 0.9841 0.0
H2001 H 0.54719 0.78772 0.9841 0.0
H2002 H 0.52322 0.75191 0.06607 0.0
H2003 H 0.48427 0.72517 0.08522 0.0
C2004 C 0.02001 0.70247 0.75191 0.0
C2005 C 0.04407 0.71995 0.72432 0.0
C2006 C 0.08843 0.74404 0.77264 0.0
C2007 C 0.07162 0.71717 0.79718 0.0
N2008 N 0.01374 0.68081 0.81514 0.0
N2009 N 0.10193 0.75821 0.70883 0.0
C2010 C 0.0347 0.69965 0.78853 0.0
C2011 C 0.07826 0.74148 0.73486 0.0
N2012 N 0.98278 0.69023 0.74357 0.0
N2013 N 0.11348 0.77232 0.78582 0.0
H2014 H 0.09633 0.75589 0.68051 0.0
H2015 H 0.12891 0.77136 0.71525 0.0
H2016 H 0.11903 0.77593 0.8141 0.0
H2017 H 0.12452 0.79436 0.76953 0.0
H2018 H 0.96257 0.68081 0.76316 0.0
H2019 H 0.97109 0.69156 0.71713 0.0
H2020 H 0.98984 0.66232 0.80956 0.0
H2021 H 0.0199 0.68473 0.84322 0.0
C2022 C 0.05451 0.31429 0.47306 0.0
C2023 C 0.06205 0.33676 0.44163 0.0
C2024 C 0.09732 0.38154 0.48215 0.0
C2025 C 0.07645 0.36627 0.51287 0.0
N2026 N 0.0358 0.31392 0.53668 0.0
N2027 N 0.09586 0.39166 0.41625 0.0
C2028 C 0.05489 0.33148 0.50822 0.0
C2029 C 0.08515 0.37054 0.44608 0.0
N2030 N 0.0526 0.27637 0.47104 0.0
N2031 N 0.13055 0.4035 0.48756 0.0
H2032 H 0.08902 0.38283 0.38921 0.0
H2033 H 0.11027 0.41823 0.41893 0.0
H2034 H 0.14287 0.40712 0.51382 0.0
H2035 H 0.14805 0.4133 0.46583 0.0
H2036 H 0.06096 0.26192 0.44744 0.0
H2037 H 0.06096 0.26192 0.44744 0.0
H2038 H 0.02097 0.28763 0.53294 0.0
H2039 H 0.03322 0.32609 0.56287 0.0
C2040 C 0.47875 0.72081 0.27828 0.0
C2041 C 0.46249 0.75283 0.29469 0.0
C2042 C 0.44231 0.77057 0.2324 0.0
C2043 C 0.45562 0.73698 0.21773 0.0
N2044 N 0.5057 0.69563 0.22206 0.0
N2045 N 0.41916 0.80246 0.28667 0.0
C2046 C 0.48014 0.71708 0.23924 0.0
C2047 C 0.44235 0.7769 0.27142 0.0
N2048 N 0.48901 0.69175 0.29922 0.0
N2049 N 0.42738 0.79497 0.20857 0.0
H2050 H 0.41237 0.80309 0.31474 0.0
H2051 H 0.40215 0.81928 0.27123 0.0
H2052 H 0.42649 0.78921 0.18011 0.0
H2053 H 0.41964 0.82167 0.21631 0.0
H2054 H 0.50046 0.66801 0.28774 0.0
H2055 H 0.48007 0.68829 0.32648 0.0
H2056 H 0.52834 0.68471 0.23636 0.0
H2057 H 0.50702 0.69412 0.19322 0.0
C2058 C 0.0641 0.68265 0.03648 0.0
C2059 C 0.03563 0.70903 0.04141 0.0
C2060 C 0.02056 0.70278 0.97475 0.0
C2061 C 0.04962 0.67747 0.97017 0.0
N2062 N 0.10602 0.65163 -0.00542 0.0
N2063 N 0.97539 0.72933 0.0166 0.0
C2064 C 0.07374 0.67041 0.00039 0.0
C2065 C 0.0107 0.71553 0.01094 0.0
N2066 N 0.0785 0.66554 0.06654 0.0
N2067 N 0.00213 0.71427 0.94406 0.0
H2068 H 0.96324 0.73314 0.0425 0.0
H2069 H 0.95535 0.73191 -0.00444 0.0
H2070 H 0.00934 0.70489 0.91756 0.0
H2071 H 0.98326 0.73575 0.94454 0.0
H2072 H 0.09666 0.64356 0.06456 0.0
H2073 H 0.06762 0.66914 0.09317 0.0
H2074 H 0.12699 0.64863 0.01471 0.0
H2075 H 0.11384 0.64327 0.96826 0.0
C2076 C 0.04716 0.34208 0.77412 0.0
C2077 C 0.0761 0.32512 0.79438 0.0
C2078 C 0.10606 0.30529 0.7381 0.0
C2079 C 0.0785 0.32297 0.71615 0.0
N2080 N 0.02021 0.35545 0.71383 0.0
N2081 N 0.14104 0.30756 0.79592 0.0
C2082 C 0.04853 0.34136 0.73444 0.0
C2083 C 0.1091 0.31447 0.77598 0.0
N2084 N 0.0181 0.35761 0.79312 0.0
N2085 N 0.12566 0.27607 0.72459 0.0
H2086 H 0.14208 0.31233 0.82453 0.0
H2087 H 0.16681 0.30078 0.78343 0.0
H2088 H 0.11723 0.26093 0.70069 0.0
H2089 H 0.14491 0.26214 0.74063 0.0
H2090 H -0.00574 0.36849 0.78099 0.0
H2091 H 0.01892 0.36067 0.82186 0.0
H2092 H -0.00172 0.37084 0.72452 0.0
H2093 H 0.018 0.35012 0.68545 0.0
C2094 C 0.41548 0.35245 0.54553 0.0
C2095 C 0.43931 0.32222 0.54024 0.0
C2096 C 0.43886 0.33063 0.47331 0.0
C2097 C 0.42034 0.36409 0.47932 0.0
N2098 N 0.37793 0.39902 0.51661 0.0
N2099 N 0.45894 0.27294 0.49965 0.0
C2100 C 0.40355 0.37176 0.51404 0.0
C2101 C 0.44602 0.30796 0.50414 0.0
N2102 N 0.40635 0.36393 0.58052 0.0
N2103 N 0.45193 0.32231 0.43875 0.0
H2104 H 0.46354 0.25587 0.52214 0.0
H2105 H 0.46175 0.2598 0.47393 0.0
H2106 H 0.44557 0.33843 0.416 0.0
H2107 H 0.46958 0.30051 0.43301 0.0
H2108 H 0.39241 0.38823 0.58645 0.0
H2109 H 0.41397 0.34955 0.60399 0.0
H2110 H 0.36265 0.40501 0.54052 0.0
H2111 H 0.36955 0.41322 0.49326 0.0
C2112 C 0.21078 0.46109 0.3412 0.0
C2113 C 0.21586 0.49561 0.32262 0.0
C2114 C 0.286 0.49084 0.32107 0.0
C2115 C 0.28076 0.45522 0.33731 0.0
N2116 N 0.24118 0.41172 0.37337 0.0
N2117 N 0.25818 0.54963 0.30836 0.0
C2118 C 0.24398 0.44234 0.35117 0.0
C2119 C 0.25356 0.51254 0.31683 0.0
N2120 N 0.17439 0.44543 0.34753 0.0
N2121 N 0.32151 0.5029 0.308 0.0
H2122 H 0.2349 0.56652 0.30858 0.0
H2123 H 0.285 0.5644 0.30614 0.0
H2124 H 0.34572 0.48772 0.31212 0.0
H2125 H 0.32644 0.52667 0.29189 0.0
H2126 H 0.16861 0.41831 0.35721 0.0
H2127 H 0.14965 0.45917 0.34147 0.0
H2128 H 0.21588 0.40212 0.38667 0.0
H2129 H 0.26553 0.39832 0.38138 0.0
C2130 C 0.29675 0.5235 0.07716 0.0
C2131 C 0.31073 0.51088 0.04203 0.0
C2132 C 0.3208 0.57716 0.02459 0.0
C2133 C 0.31478 0.58817 0.06146 0.0
N2134 N 0.27547 0.57641 0.1139 0.0
N2135 N 0.34538 0.52874 0.98581 0.0
C2136 C 0.29443 0.56267 0.08423 0.0
C2137 C 0.32455 0.53853 0.0161 0.0
N2138 N 0.29009 0.49899 0.10526 0.0
N2139 N 0.32681 0.60437 -0.00107 0.0
H2140 H 0.35595 0.50232 0.98229 0.0
H2141 H 0.3575 0.54826 0.96731 0.0
H2142 H 0.32519 0.63265 0.00637 0.0
H2143 H 0.32922 0.59862 0.97069 0.0
H2144 H 0.27651 0.50582 0.12977 0.0
H2145 H 0.3028 0.47344 0.10619 0.0
H2146 H 0.25645 0.55987 0.13003 0.0
H2147 H 0.27617 0.60533 0.11941 0.0
C2148 C 0.25281 0.60045 0.76063 0.0
C2149 C 0.27268 0.57412 0.78116 0.0
C2150 C 0.22637 0.58091 0.83234 0.0
C2151 C 0.20793 0.60747 0.81161 0.0
N2152 N 0.19371 0.63141 0.75218 0.0
N2153 N 0.2814 0.5438 0.84017 0.0
C2154 C 0.21773 0.6129 0.77423 0.0
C2155 C 0.26023 0.56524 0.81801 0.0
N2156 N 0.26948 0.61661 0.72997 0.0
N2157 N 0.21007 0.56944 0.86485 0.0
H2158 H 0.30602 0.53114 0.83177 0.0
H2159 H 0.27615 0.54043 0.86829 0.0
H2160 H 0.18435 0.57968 0.8741 0.0
H2161 H 0.21891 0.54704 0.87998 0.0
H2162 H 0.25772 0.63833 0.71588 0.0
H2163 H 0.29756 0.61206 0.72158 0.0
H2164 H 0.19754 0.63377 0.7237 0.0
H2165 H 0.16774 0.6408 0.76217 0.0
C2166 C 0.2299 0.5435 0.58331 0.0
C2167 C 0.21332 0.56555 0.55609 0.0
C2168 C 0.17103 0.51161 0.53618 0.0
C2169 C 0.18158 0.49227 0.56813 0.0
N2170 N 0.22142 0.48862 0.62189 0.0
N2171 N 0.16615 0.57181 0.50781 0.0
C2172 C 0.21197 0.50746 0.5911 0.0
C2173 C 0.18407 0.54968 0.53212 0.0
N2174 N 0.26261 0.55698 0.6015 0.0
N2175 N 0.14577 0.49432 0.51141 0.0
H2176 H 0.17327 0.60049 0.50503 0.0
H2177 H 0.1417 0.56271 0.49262 0.0
H2178 H 0.1321 0.46812 0.51634 0.0
H2179 H 0.14034 0.50482 0.48537 0.0
H2180 H 0.27791 0.54093 0.61937 0.0
H2181 H 0.2762 0.58339 0.59637 0.0
H2182 H 0.24002 0.49983 0.64247 0.0
H2183 H 0.20882 0.46195 0.62727 0.0
C2184 C 0.26 0.62845 0.25742 0.0
C2185 C 0.23851 0.59909 0.23796 0.0
C2186 C 0.29765 0.58276 0.20553 0.0
C2187 C 0.31507 0.61736 0.21762 0.0
N2188 N 0.32335 0.66069 0.26841 0.0
N2189 N 0.23919 0.54087 0.20286 0.0
C2190 C 0.29985 0.63522 0.24901 0.0
C2191 C 0.25833 0.57335 0.21539 0.0
N2192 N 0.24199 0.65127 0.28164 0.0
N2193 N 0.31899 0.5598 0.18463 0.0
H2194 H 0.21039 0.5337 0.20929 0.0
H2195 H 0.25173 0.52061 0.1868 0.0
H2196 H 0.3475 0.5679 0.17748 0.0
H2197 H 0.3101 0.5323 0.17732 0.0
H2198 H 0.25551 0.67527 0.294 0.0
H2199 H 0.21281 0.64712 0.28825 0.0
H2200 H 0.31536 0.67376 0.29293 0.0
H2201 H 0.35229 0.6659 0.26093 0.0
C2202 C 0.14947 0.50512 0.00926 0.0
C2203 C 0.18846 0.50181 -0.00105 0.0
C2204 C 0.18656 0.55773 0.96076 0.0
C2205 C 0.1461 0.55678 0.96586 0.0
N2206 N 0.09631 0.54532 0.01165 0.0
N2207 N 0.24366 0.52322 0.96203 0.0
C2208 C 0.12937 0.53492 -0.00501 0.0
C2209 C 0.20688 0.52755 0.97383 0.0
N2210 N 0.13113 0.47885 0.03143 0.0
N2211 N 0.20637 0.58932 0.948 0.0
H2212 H 0.25998 0.50194 0.97106 0.0
H2213 H 0.2567 0.53879 0.94075 0.0
H2214 H 0.19366 0.61464 0.94477 0.0
H2215 H 0.23639 0.59249 0.94663 0.0
H2216 H 0.10153 0.47754 0.03651 0.0
H2217 H 0.1448 0.45618 0.04194 0.0
H2218 H 0.08443 0.53248 0.03507 0.0
H2219 H 0.08403 0.57034 0.00546 0.0
C2220 C 0.28187 0.42958 0.69715 0.0
C2221 C 0.28157 0.45191 0.72988 0.0
C2222 C 0.2104 0.44542 0.73122 0.0
C2223 C 0.21128 0.4239 0.69826 0.0
N2224 N 0.24605 0.40195 0.6451 0.0
N2225 N 0.2462 0.47685 0.78157 0.0
C2226 C 0.24654 0.41798 0.67982 0.0
C2227 C 0.24598 0.45885 0.74792 0.0
N2228 N 0.31581 0.41695 0.68422 0.0
N2229 N 0.1755 0.4534 0.74587 0.0
H2230 H 0.27129 0.48651 0.79508 0.0
H2231 H 0.22184 0.48039 0.79762 0.0
H2232 H 0.14932 0.44352 0.73386 0.0
H2233 H 0.17194 0.47157 0.76822 0.0
H2234 H 0.3174 0.39708 0.66293 0.0
H2235 H 0.34233 0.42296 0.69732 0.0
H2236 H 0.27044 0.40077 0.62846 0.0
H2237 H 0.22062 0.39351 0.63104 0.0
C2238 C 0.30256 0.55954 0.43111 0.0
C2239 C 0.32258 0.58484 0.45659 0.0
C2240 C 0.35322 0.53266 0.48356 0.0
C2241 C 0.33719 0.50806 0.45575 0.0
N2242 N 0.28229 0.49446 0.41664 0.0
N2243 N 0.37883 0.59593 0.4955 0.0
C2244 C 0.30763 0.52033 0.43315 0.0
C2245 C 0.35145 0.57153 0.4795 0.0
N2246 N 0.28125 0.57305 0.40327 0.0
N2247 N 0.37027 0.51857 0.51378 0.0
H2248 H 0.38125 0.62444 0.48919 0.0
H2249 H 0.40193 0.58694 0.51064 0.0
H2250 H 0.37012 0.48963 0.51787 0.0
H2251 H 0.38028 0.53548 0.53608 0.0
H2252 H 0.2673 0.55592 0.38316 0.0
H2253 H 0.28214 0.60155 0.3972 0.0
H2254 H 0.25716 0.50165 0.40366 0.0
H2255 H 0.28346 0.46577 0.42119 0.0
C2256 C 0.29312 0.23661 0.40801 0.0
C2257 C 0.2953 0.23333 0.4467 0.0
C2258 C 0.32189 0.29787 0.4529 0.0
C2259 C 0.31819 0.3023 0.41409 0.0
N2260 N 0.32287 0.26745 0.35569 0.0
N2261 N 0.33606 0.25218 0.49856 0.0
C2262 C 0.31068 0.2691 0.3916 0.0
C2263 C 0.31761 0.26109 0.46708 0.0
N2264 N 0.27485 0.20866 0.38694 0.0
N2265 N 0.3271 0.32791 0.47663 0.0
H2266 H 0.33527 0.22463 0.50787 0.0
H2267 H 0.35497 0.27145 0.51269 0.0
H2268 H 0.32486 0.35554 0.46872 0.0
H2269 H 0.32914 0.32478 0.50514 0.0
H2270 H 0.26907 0.21171 0.35889 0.0
H2271 H 0.26447 0.18311 0.3981 0.0
H2272 H 0.31983 0.24291 0.33954 0.0
H2273 H 0.34107 0.28846 0.34398 0.0
C2274 C 0.82585 0.33525 0.5845 0.0
C2275 C 0.80012 0.32741 0.55475 0.0
C2276 C 0.80235 0.25983 0.56428 0.0
C2277 C 0.82509 0.2684 0.59595 0.0
N2278 N 0.87249 0.3107 0.62548 0.0
N2279 N 0.7747 0.28335 0.50818 0.0
C2280 C 0.84211 0.30502 0.60179 0.0
C2281 C 0.79216 0.28988 0.54166 0.0
N2282 N 0.83201 0.37094 0.59846 0.0
N2283 N 0.78902 0.22354 0.55735 0.0
H2284 H 0.76757 0.30529 0.49133 0.0
H2285 H 0.77039 0.25674 0.49596 0.0
H2286 H 0.79757 0.20159 0.57347 0.0
H2287 H 0.76934 0.21548 0.53651 0.0
H2288 H 0.84423 0.37639 0.62446 0.0
H2289 H 0.82182 0.39434 0.58576 0.0
H2290 H 0.88722 0.33681 0.62991 0.0
H2291 H 0.88513 0.2881 0.63725 0.0
C2292 C 0.48551 0.0806 0.2652 0.0
C2293 C 0.4578 0.05505 0.28221 0.0
C2294 C 0.50904 0.03203 0.32002 0.0
C2295 C 0.53181 0.06504 0.31214 0.0
N2296 N 0.55107 0.11081 0.26755 0.0
N2297 N 0.44417 0.0029 0.3234 0.0
C2298 C 0.52323 0.08585 0.28095 0.0
C2299 C 0.47008 0.02876 0.30808 0.0
N2300 N 0.47558 0.09947 0.23447 0.0
N2301 N 0.52428 0.00592 0.3417 0.0
H2302 H 0.41491 0.00057 0.3167 0.0
H2303 H 0.45109 0.98536 0.34474 0.0
H2304 H 0.5527 0.00983 0.35132 0.0
H2305 H 0.51042 0.97977 0.34712 0.0
H2306 H 0.49444 0.11779 0.22006 0.0
H2307 H 0.44841 0.09535 0.22214 0.0
H2308 H 0.54775 0.1274 0.2446 0.0
H2309 H 0.57858 0.11362 0.27939 0.0
C2310 C 0.74133 0.76713 0.05323 0.0
C2311 C 0.71401 0.7352 0.05758 0.0
C2312 C 0.66223 0.77844 0.06071 0.0
C2313 C 0.68984 0.80853 0.06711 0.0
N2314 N 0.75391 0.83516 0.06077 0.0
N2315 N 0.64775 0.71218 0.06962 0.0
C2316 C 0.7288 0.80396 0.05922 0.0
C2317 C 0.67404 0.74123 0.06157 0.0
N2318 N 0.77854 0.76288 0.04237 0.0
N2319 N 0.62441 0.78564 0.05747 0.0
H2320 H 0.65529 0.68494 0.07443 0.0
H2321 H 0.61897 0.71597 0.07588 0.0
H2322 H 0.61603 0.81313 0.05821 0.0
H2323 H 0.60267 0.76511 0.05047 0.0
H2324 H 0.79801 0.78519 0.03564 0.0
H2325 H 0.78982 0.73736 0.03633 0.0
H2326 H 0.78383 0.83478 0.06005 0.0
H2327 H 0.74377 0.86193 0.06419 0.0
C2328 C 0.49872 0.50791 0.28108 0.0
C2329 C 0.53756 0.50397 0.29102 0.0
C2330 C 0.51622 0.46496 0.34242 0.0
C2331 C 0.47792 0.47683 0.33809 0.0
N2332 N 0.43345 0.51194 0.30343 0.0
N2333 N 0.58428 0.4789 0.331 0.0
C2334 C 0.46897 0.49824 0.30692 0.0
C2335 C 0.5466 0.482 0.32131 0.0
N2336 N 0.49067 0.5216 0.2472 0.0
N2337 N 0.5233 0.43634 0.36565 0.0
H2338 H 0.60732 0.48942 0.31479 0.0
H2339 H 0.59253 0.46771 0.35597 0.0
H2340 H 0.50151 0.42061 0.37949 0.0
H2341 H 0.54999 0.42481 0.36735 0.0
H2342 H 0.46271 0.52196 0.23686 0.0
H2343 H 0.5125 0.5286 0.22813 0.0
H2344 H 0.42683 0.53056 0.28289 0.0
H2345 H 0.41173 0.50764 0.32305 0.0
C2346 C 0.18215 0.78511 0.98931 0.0
C2347 C 0.1739 0.81614 0.96715 0.0
C2348 C 0.13898 0.773 0.92424 0.0
C2349 C 0.1556 0.7426 0.94129 0.0
N2350 N 0.19382 0.71891 0.98984 0.0
N2351 N 0.14814 0.83875 0.91014 0.0
C2352 C 0.17751 0.74834 0.97387 0.0
C2353 C 0.15291 0.80996 0.93378 0.0
N2354 N 0.19146 0.79049 0.02568 0.0
N2355 N 0.11037 0.76646 0.89859 0.0
H2356 H 0.1599 0.8661 0.91494 0.0
H2357 H 0.13606 0.83457 0.88387 0.0
H2358 H 0.09852 0.73947 0.89232 0.0
H2359 H 0.09539 0.78782 0.88724 0.0
H2360 H 0.19579 0.76858 0.04355 0.0
H2361 H 0.18868 0.81626 0.03885 0.0
H2362 H 0.21344 0.72236 0.01165 0.0
H2363 H 0.18892 0.69133 0.97988 0.0
C2364 C 0.47341 0.96317 0.19724 0.0
C2365 C 0.45124 0.98653 0.17445 0.0
C2366 C 0.51051 0.00825 0.14429 0.0
C2367 C 0.52805 0.97604 0.15582 0.0
N2368 N 0.53454 0.93367 0.20545 0.0
N2369 N 0.4506 0.02747 0.12143 0.0
C2370 C 0.51192 0.95605 0.18597 0.0
C2371 C 0.47041 0.00844 0.14685 0.0
N2372 N 0.45879 0.94958 0.22987 0.0
N2373 N 0.53212 0.03735 0.12896 0.0
H2374 H 0.42062 0.02464 0.11891 0.0
H2375 H 0.46439 0.042 0.09981 0.0
H2376 H 0.56219 0.03742 0.12755 0.0
H2377 H 0.5204 0.06234 0.12167 0.0
H2378 H 0.47251 0.9314 0.24676 0.0
H2379 H 0.43401 0.95864 0.24223 0.0
H2380 H 0.52588 0.91939 0.2291 0.0
H2381 H 0.56374 0.93195 0.19959 0.0
C2382 C 0.02572 0.11566 0.68492 0.0
C2383 C 0.03671 0.07981 0.67215 0.0
C2384 C 0.96975 0.06465 0.6524 0.0
C2385 C 0.96182 0.10205 0.65976 0.0
N2386 N 0.97191 0.15192 0.70308 0.0
N2387 N 0.01939 0.02443 0.63384 0.0
C2388 C 0.98643 0.12373 0.68301 0.0
C2389 C 0.00856 0.05479 0.65387 0.0
N2390 N 0.05274 0.14365 0.69452 0.0
N2391 N 0.94037 0.04007 0.64054 0.0
H2392 H 0.04806 0.02055 0.62725 0.0
H2393 H 6e-05 0.0065 0.61878 0.0
H2394 H 0.91233 0.04868 0.63794 0.0
H2395 H 0.94315 0.01134 0.63691 0.0
H2396 H 0.04552 0.16986 0.70399 0.0
H2397 H 0.08174 0.14301 0.68737 0.0
H2398 H 0.9871 0.16469 0.72513 0.0
H2399 H 0.94293 0.15774 0.70084 0.0
loop_
_geom_bond_atom_site_label_1
_geom_bond_atom_site_label_2
_geom_bond_distance
_geom_bond_site_symmetry_2
_ccdc_geom_bond_type
Co0 O1 2.216 . S
Co0 O2 2.091 1_455 S
Co0 O4 2.004 1_455 S
Co0 O10 2.021 . S
Co0 O12 2.137 . S
Co0 O13 2.244 . S
O1 Co0 2.216 . S
O1 C8 1.247 1_455 S
O2 Co0 2.091 1_655 S
O2 C8 1.261 . S
C3 O12 1.247 . S
C3 O13 1.272 . S
O4 Co0 2.004 1_655 S
O4 C9 1.259 . S
Co5 O6 2.061 . S
Co5 O11 2.052 . S
Co5 O13 2.135 . S
O6 Co5 2.061 . S
O6 C9 1.235 1_455 S
C7 O10 1.238 . S
C7 O11 1.241 . S
C8 O1 1.247 1_655 S
C8 O2 1.261 . S
C9 O4 1.259 . S
C9 O6 1.235 1_655 S
O10 Co0 2.021 . S
O10 C7 1.238 . S
O11 Co5 2.052 . S
O11 C7 1.241 . S
O12 Co0 2.137 . S
O12 C3 1.247 . S
O13 Co0 2.244 . S
O13 C3 1.272 . S
O13 Co5 2.135 . S
Co14 O15 2.216 . S
Co14 O16 2.091 . S
Co14 O18 2.004 1_655 S
Co14 O24 2.021 1_655 S
Co14 O26 2.137 . S
Co14 O27 2.244 . S
O15 Co14 2.216 . S
O15 C22 1.247 . S
O16 Co14 2.091 . S
O16 C22 1.261 . S
C17 O26 1.247 . S
C17 O27 1.272 . S
O18 Co14 2.004 1_455 S
O18 C23 1.259 . S
Co19 O20 2.061 . S
Co19 O25 2.052 . S
Co19 O27 2.135 1_455 S
O20 Co19 2.061 . S
O20 C23 1.235 . S
C21 O24 1.238 . S
C21 O25 1.241 . S
C22 O15 1.247 . S
C22 O16 1.261 . S
C23 O18 1.259 . S
C23 O20 1.235 . S
O24 Co14 2.021 1_455 S
O24 C21 1.238 . S
O25 Co19 2.052 . S
O25 C21 1.241 . S
O26 Co14 2.137 . S
O26 C17 1.247 . S
O27 Co14 2.244 . S
O27 C17 1.272 . S
O27 Co19 2.135 1_655 S
Co28 O29 2.216 . S
Co28 O30 2.091 . S
Co28 O32 2.004 . S
Co28 O38 2.021 . S
Co28 O40 2.137 . S
Co28 O41 2.244 . S
O29 Co28 2.216 . S
O29 C36 1.247 . S
O30 Co28 2.091 . S
O30 C36 1.261 . S
C31 O40 1.247 . S
C31 O41 1.272 . S
O32 Co28 2.004 . S
O32 C37 1.259 . S
Co33 O34 2.061 . S
Co33 O39 2.052 . S
Co33 O41 2.135 . S
O34 Co33 2.061 . S
O34 C37 1.235 . S
C35 O38 1.238 . S
C35 O39 1.241 . S
C36 O29 1.247 . S
C36 O30 1.261 . S
C37 O32 1.259 . S
C37 O34 1.235 . S
O38 Co28 2.021 . S
O38 C35 1.238 . S
O39 Co33 2.052 . S
O39 C35 1.241 . S
O40 Co28 2.137 . S
O40 C31 1.247 . S
O41 Co28 2.244 . S
O41 C31 1.272 . S
O41 Co33 2.135 . S
Co42 O43 2.216 . S
Co42 O44 2.091 . S
Co42 O46 2.004 . S
Co42 O52 2.021 . S
Co42 O54 2.137 . S
Co42 O55 2.244 . S
O43 Co42 2.216 . S
O43 C50 1.247 . S
O44 Co42 2.091 . S
O44 C50 1.261 . S
C45 O54 1.247 . S
C45 O55 1.272 . S
O46 Co42 2.004 . S
O46 C51 1.259 . S
Co47 O48 2.061 . S
Co47 O53 2.052 . S
Co47 O55 2.135 . S
O48 Co47 2.061 . S
O48 C51 1.235 . S
C49 O52 1.238 . S
C49 O53 1.241 . S
C50 O43 1.247 . S
C50 O44 1.261 . S
C51 O46 1.259 . S
C51 O48 1.235 . S
O52 Co42 2.021 . S
O52 C49 1.238 . S
O53 Co47 2.052 . S
O53 C49 1.241 . S
O54 Co42 2.137 . S
O54 C45 1.247 . S
O55 Co42 2.244 . S
O55 C45 1.272 . S
O55 Co47 2.135 . S
Co56 O57 2.216 1_655 S
Co56 O58 2.091 . S
Co56 O60 2.004 . S
Co56 O66 2.021 1_655 S
Co56 O68 2.137 . S
Co56 O69 2.244 1_655 S
O57 Co56 2.216 1_455 S
O57 C64 1.247 1_455 S
O58 Co56 2.091 . S
O58 C64 1.261 . S
C59 O68 1.247 1_455 S
C59 O69 1.272 . S
O60 Co56 2.004 . S
O60 C65 1.259 . S
Co61 O62 2.061 . S
Co61 O67 2.052 . S
Co61 O69 2.135 . S
O62 Co61 2.061 . S
O62 C65 1.235 1_455 S
C63 O66 1.238 . S
C63 O67 1.241 . S
C64 O57 1.247 1_655 S
C64 O58 1.261 . S
C65 O60 1.259 . S
C65 O62 1.235 1_655 S
O66 Co56 2.021 1_455 S
O66 C63 1.238 . S
O67 Co61 2.052 . S
O67 C63 1.241 . S
O68 Co56 2.137 . S
O68 C59 1.247 1_655 S
O69 Co56 2.244 1_455 S
O69 C59 1.272 . S
O69 Co61 2.135 . S
Co70 O71 2.216 . S
Co70 O72 2.091 . S
Co70 O74 2.004 . S
Co70 O80 2.021 . S
Co70 O82 2.137 . S
Co70 O83 2.244 . S
O71 Co70 2.216 . S
O71 C78 1.247 . S
O72 Co70 2.091 . S
O72 C78 1.261 . S
C73 O82 1.247 . S
C73 O83 1.272 . S
O74 Co70 2.004 . S
O74 C79 1.259 . S
Co75 O76 2.061 . S
Co75 O81 2.052 . S
Co75 O83 2.135 . S
O76 Co75 2.061 . S
O76 C79 1.235 . S
C77 O80 1.238 . S
C77 O81 1.241 . S
C78 O71 1.247 . S
C78 O72 1.261 . S
C79 O74 1.259 . S
C79 O76 1.235 . S
O80 Co70 2.021 . S
O80 C77 1.238 . S
O81 Co75 2.052 . S
O81 C77 1.241 . S
O82 Co70 2.137 . S
O82 C73 1.247 . S
O83 Co70 2.244 . S
O83 C73 1.272 . S
O83 Co75 2.135 . S
Co84 O85 2.216 . S
Co84 O86 2.091 . S
Co84 O88 2.004 . S
Co84 O94 2.021 . S
Co84 O96 2.137 . S
Co84 O97 2.244 . S
O85 Co84 2.216 . S
O85 C92 1.247 . S
O86 Co84 2.091 . S
O86 C92 1.261 . S
C87 O96 1.247 . S
C87 O97 1.272 . S
O88 Co84 2.004 . S
O88 C93 1.259 . S
Co89 O90 2.061 . S
Co89 O95 2.052 . S
Co89 O97 2.135 . S
O90 Co89 2.061 . S
O90 C93 1.235 . S
C91 O94 1.238 . S
C91 O95 1.241 . S
C92 O85 1.247 . S
C92 O86 1.261 . S
C93 O88 1.259 . S
C93 O90 1.235 . S
O94 Co84 2.021 . S
O94 C91 1.238 . S
O95 Co89 2.052 . S
O95 C91 1.241 . S
O96 Co84 2.137 . S
O96 C87 1.247 . S
O97 Co84 2.244 . S
O97 C87 1.272 . S
O97 Co89 2.135 . S
Co98 O99 2.216 1_455 S
Co98 O100 2.091 . S
Co98 O102 2.004 . S
Co98 O108 2.021 . S
Co98 O110 2.137 1_455 S
Co98 O111 2.244 . S
O99 Co98 2.216 1_655 S
O99 C106 1.247 . S
O100 Co98 2.091 . S
O100 C106 1.261 1_455 S
C101 O110 1.247 . S
C101 O111 1.272 1_655 S
O102 Co98 2.004 . S
O102 C107 1.259 . S
Co103 O104 2.061 . S
Co103 O109 2.052 . S
Co103 O111 2.135 . S
O104 Co103 2.061 . S
O104 C107 1.235 . S
C105 O108 1.238 . S
C105 O109 1.241 . S
C106 O99 1.247 . S
C106 O100 1.261 1_655 S
C107 O102 1.259 . S
C107 O104 1.235 . S
O108 Co98 2.021 . S
O108 C105 1.238 . S
O109 Co103 2.052 . S
O109 C105 1.241 . S
O110 Co98 2.137 1_655 S
O110 C101 1.247 . S
O111 Co98 2.244 . S
O111 C101 1.272 1_455 S
O111 Co103 2.135 . S
Co112 O113 2.216 1_565 S
Co112 O114 2.091 . S
Co112 O116 2.004 . S
Co112 O122 2.021 1_565 S
Co112 O124 2.137 . S
Co112 O125 2.244 1_565 S
O113 Co112 2.216 1_545 S
O113 C120 1.247 1_545 S
O114 Co112 2.091 . S
O114 C120 1.261 . S
C115 O124 1.247 1_545 S
C115 O125 1.272 . S
O116 Co112 2.004 . S
O116 C121 1.259 . S
Co117 O118 2.061 . S
Co117 O123 2.052 . S
Co117 O125 2.135 . S
O118 Co117 2.061 . S
O118 C121 1.235 1_545 S
C119 O122 1.238 . S
C119 O123 1.241 . S
C120 O113 1.247 1_565 S
C120 O114 1.261 . S
C121 O116 1.259 . S
C121 O118 1.235 1_565 S
O122 Co112 2.021 1_545 S
O122 C119 1.238 . S
O123 Co117 2.052 . S
O123 C119 1.241 . S
O124 Co112 2.137 . S
O124 C115 1.247 1_565 S
O125 Co112 2.244 1_545 S
O125 C115 1.272 . S
O125 Co117 2.135 . S
Co126 O127 2.216 . S
Co126 O128 2.091 . S
Co126 O130 2.004 . S
Co126 O136 2.021 . S
Co126 O138 2.137 . S
Co126 O139 2.244 . S
O127 Co126 2.216 . S
O127 C134 1.247 . S
O128 Co126 2.091 . S
O128 C134 1.261 . S
C129 O138 1.247 . S
C129 O139 1.272 . S
O130 Co126 2.004 . S
O130 C135 1.259 . S
Co131 O132 2.061 . S
Co131 O137 2.052 . S
Co131 O139 2.135 . S
O132 Co131 2.061 . S
O132 C135 1.235 . S
C133 O136 1.238 . S
C133 O137 1.241 . S
C134 O127 1.247 . S
C134 O128 1.261 . S
C135 O130 1.259 . S
C135 O132 1.235 . S
O136 Co126 2.021 . S
O136 C133 1.238 . S
O137 Co131 2.052 . S
O137 C133 1.241 . S
O138 Co126 2.137 . S
O138 C129 1.247 . S
O139 Co126 2.244 . S
O139 C129 1.272 . S
O139 Co131 2.135 . S
Co140 O141 2.216 . S
Co140 O142 2.091 . S
Co140 O144 2.004 . S
Co140 O150 2.021 . S
Co140 O152 2.137 . S
Co140 O153 2.244 . S
O141 Co140 2.216 . S
O141 C148 1.247 . S
O142 Co140 2.091 . S
O142 C148 1.261 . S
C143 O152 1.247 . S
C143 O153 1.272 . S
O144 Co140 2.004 . S
O144 C149 1.259 . S
Co145 O146 2.061 . S
Co145 O151 2.052 . S
Co145 O153 2.135 . S
O146 Co145 2.061 . S
O146 C149 1.235 . S
C147 O150 1.238 . S
C147 O151 1.241 . S
C148 O141 1.247 . S
C148 O142 1.261 . S
C149 O144 1.259 . S
C149 O146 1.235 . S
O150 Co140 2.021 . S
O150 C147 1.238 . S
O151 Co145 2.052 . S
O151 C147 1.241 . S
O152 Co140 2.137 . S
O152 C143 1.247 . S
O153 Co140 2.244 . S
O153 C143 1.272 . S
O153 Co145 2.135 . S
Co154 O155 2.216 . S
Co154 O156 2.091 . S
Co154 O158 2.020 . S
Co154 O164 2.021 1_554 S
Co154 O166 2.137 . S
Co154 O167 2.244 . S
O155 Co154 2.216 . S
O155 C162 1.247 . S
O156 Co154 2.091 . S
O156 C162 1.261 . S
C157 O166 1.247 . S
C157 O167 1.272 . S
O158 Co154 2.020 . S
O158 C163 1.241 1_554 S
Co159 O160 2.061 . S
Co159 O165 2.052 . S
Co159 O167 2.135 1_556 S
O160 Co159 2.061 . S
O160 C163 1.235 . S
C161 O164 1.238 . S
C161 O165 1.241 . S
C162 O155 1.247 . S
C162 O156 1.261 . S
C163 O158 1.241 1_556 S
C163 O160 1.235 . S
O164 Co154 2.021 1_556 S
O164 C161 1.238 . S
O165 Co159 2.052 . S
O165 C161 1.241 . S
O166 Co154 2.137 . S
O166 C157 1.247 . S
O167 Co154 2.244 . S
O167 C157 1.272 . S
O167 Co159 2.135 1_554 S
Co168 O169 2.216 1_556 S
Co168 O170 2.091 . S
Co168 O172 2.004 . S
Co168 O178 2.021 1_556 S
Co168 O180 2.136 1_556 S
Co168 O181 2.244 1_556 S
O169 Co168 2.216 1_554 S
O169 C176 1.247 1_554 S
O170 Co168 2.091 . S
O170 C176 1.261 . S
C171 O180 1.264 . S
C171 O181 1.272 . S
O172 Co168 2.004 . S
O172 C177 1.259 . S
Co173 O174 2.061 . S
Co173 O179 2.052 . S
Co173 O181 2.135 . S
O174 Co173 2.061 . S
O174 C177 1.235 1_554 S
C175 O178 1.238 . S
C175 O179 1.241 . S
C176 O169 1.247 1_556 S
C176 O170 1.261 . S
C177 O172 1.259 . S
C177 O174 1.235 1_556 S
O178 Co168 2.021 1_554 S
O178 C175 1.238 . S
O179 Co173 2.052 . S
O179 C175 1.241 . S
O180 Co168 2.136 1_554 S
O180 C171 1.264 . S
O181 Co168 2.244 1_554 S
O181 C171 1.272 . S
O181 Co173 2.135 . S
Co182 O183 2.216 1_556 S
Co182 O184 2.091 . S
Co182 O186 2.004 . S
Co182 O192 2.021 1_556 S
Co182 O194 2.137 . S
Co182 O195 2.244 1_556 S
O183 Co182 2.216 1_554 S
O183 C190 1.247 1_554 S
O184 Co182 2.091 . S
O184 C190 1.261 . S
C185 O194 1.247 1_554 S
C185 O195 1.272 . S
O186 Co182 2.004 . S
O186 C191 1.259 . S
Co187 O188 2.061 . S
Co187 O193 2.052 . S
Co187 O195 2.135 . S
O188 Co187 2.061 . S
O188 C191 1.235 1_554 S
C189 O192 1.238 . S
C189 O193 1.241 . S
C190 O183 1.247 1_556 S
C190 O184 1.261 . S
C191 O186 1.259 . S
C191 O188 1.235 1_556 S
O192 Co182 2.021 1_554 S
O192 C189 1.238 . S
O193 Co187 2.052 . S
O193 C189 1.241 . S
O194 Co182 2.137 . S
O194 C185 1.247 1_556 S
O195 Co182 2.244 1_554 S
O195 C185 1.272 . S
O195 Co187 2.135 . S
Co196 O197 2.216 . S
Co196 O198 2.091 . S
Co196 O200 2.004 . S
Co196 O206 2.021 . S
Co196 O208 2.137 . S
Co196 O209 2.244 . S
O197 Co196 2.216 . S
O197 C204 1.247 . S
O198 Co196 2.091 . S
O198 C204 1.261 . S
C199 O208 1.247 . S
C199 O209 1.272 . S
O200 Co196 2.004 . S
O200 C205 1.259 . S
Co201 O202 2.061 . S
Co201 O207 2.052 . S
Co201 O209 2.135 . S
O202 Co201 2.061 . S
O202 C205 1.235 . S
C203 O206 1.238 . S
C203 O207 1.241 . S
C204 O197 1.247 . S
C204 O198 1.261 . S
C205 O200 1.259 . S
C205 O202 1.235 . S
O206 Co196 2.021 . S
O206 C203 1.238 . S
O207 Co201 2.052 . S
O207 C203 1.241 . S
O208 Co196 2.137 . S
O208 C199 1.247 . S
O209 Co196 2.244 . S
O209 C199 1.272 . S
O209 Co201 2.135 . S
Co210 O211 2.216 . S
Co210 O212 2.091 . S
Co210 O214 2.004 . S
Co210 O220 2.021 . S
Co210 O222 2.137 . S
Co210 O223 2.244 . S
O211 Co210 2.216 . S
O211 C218 1.247 . S
O212 Co210 2.091 . S
O212 C218 1.261 . S
C213 O222 1.247 . S
C213 O223 1.272 . S
O214 Co210 2.004 . S
O214 C219 1.259 . S
Co215 O216 2.061 . S
Co215 O221 2.052 . S
Co215 O223 2.135 . S
O216 Co215 2.061 . S
O216 C219 1.235 . S
C217 O220 1.238 . S
C217 O221 1.241 . S
C218 O211 1.247 . S
C218 O212 1.261 . S
C219 O214 1.259 . S
C219 O216 1.235 . S
O220 Co210 2.021 . S
O220 C217 1.238 . S
O221 Co215 2.052 . S
O221 C217 1.241 . S
O222 Co210 2.137 . S
O222 C213 1.247 . S
O223 Co210 2.244 . S
O223 C213 1.272 . S
O223 Co215 2.135 . S
Co224 O225 2.216 . S
Co224 O226 2.091 . S
Co224 O228 2.004 1_565 S
Co224 O234 2.021 1_565 S
Co224 O236 2.137 . S
Co224 O237 2.244 . S
O225 Co224 2.216 . S
O225 C232 1.247 . S
O226 Co224 2.091 . S
O226 C232 1.261 . S
C227 O236 1.247 . S
C227 O237 1.272 . S
O228 Co224 2.004 1_545 S
O228 C233 1.259 . S
Co229 O230 2.061 . S
Co229 O235 2.052 . S
Co229 O237 2.135 1_545 S
O230 Co229 2.061 . S
O230 C233 1.235 . S
C231 O234 1.238 . S
C231 O235 1.241 . S
C232 O225 1.247 . S
C232 O226 1.261 . S
C233 O228 1.259 . S
C233 O230 1.235 . S
O234 Co224 2.021 1_545 S
O234 C231 1.238 . S
O235 Co229 2.052 . S
O235 C231 1.241 . S
O236 Co224 2.137 . S
O236 C227 1.247 . S
O237 Co224 2.244 . S
O237 C227 1.272 . S
O237 Co229 2.135 1_565 S
Co238 O239 2.216 . S
Co238 O240 2.091 . S
Co238 O242 2.004 . S
Co238 O248 2.021 . S
Co238 O250 2.137 . S
Co238 O251 2.244 . S
O239 Co238 2.216 . S
O239 C246 1.247 . S
O240 Co238 2.091 . S
O240 C246 1.261 . S
C241 O250 1.247 . S
C241 O251 1.272 . S
O242 Co238 2.004 . S
O242 C247 1.259 . S
Co243 O244 2.061 . S
Co243 O249 2.052 . S
Co243 O251 2.135 . S
O244 Co243 2.061 . S
O244 C247 1.235 . S
C245 O248 1.238 . S
C245 O249 1.241 . S
C246 O239 1.247 . S
C246 O240 1.261 . S
C247 O242 1.259 . S
C247 O244 1.235 . S
O248 Co238 2.021 . S
O248 C245 1.238 . S
O249 Co243 2.052 . S
O249 C245 1.241 . S
O250 Co238 2.137 . S
O250 C241 1.247 . S
O251 Co238 2.244 . S
O251 C241 1.272 . S
O251 Co243 2.135 . S
Co252 O253 2.216 . S
Co252 O254 2.091 . S
Co252 O256 2.004 . S
Co252 O262 2.021 . S
Co252 O264 2.137 . S
Co252 O265 2.244 . S
O253 Co252 2.216 . S
O253 C260 1.247 . S
O254 Co252 2.091 . S
O254 C260 1.261 . S
C255 O264 1.247 . S
C255 O265 1.272 . S
O256 Co252 2.004 . S
O256 C261 1.259 . S
Co257 O258 2.061 . S
Co257 O263 2.052 . S
Co257 O265 2.135 . S
O258 Co257 2.061 . S
O258 C261 1.235 . S
C259 O262 1.238 . S
C259 O263 1.241 . S
C260 O253 1.247 . S
C260 O254 1.261 . S
C261 O256 1.259 . S
C261 O258 1.235 . S
O262 Co252 2.021 . S
O262 C259 1.238 . S
O263 Co257 2.052 . S
O263 C259 1.241 . S
O264 Co252 2.137 . S
O264 C255 1.247 . S
O265 Co252 2.244 . S
O265 C255 1.272 . S
O265 Co257 2.135 . S
Co266 O267 2.216 . S
Co266 O268 2.091 . S
Co266 O270 2.004 . S
Co266 O276 2.021 . S
Co266 O278 2.137 1_545 S
Co266 O279 2.244 . S
O267 Co266 2.216 . S
O267 C274 1.248 . S
O268 Co266 2.091 . S
O268 C274 1.277 . S
C269 O278 1.247 1_545 S
C269 O279 1.272 . S
O270 Co266 2.004 . S
O270 C275 1.259 . S
Co271 O272 2.061 . S
Co271 O277 2.052 . S
Co271 O279 2.135 . S
O272 Co271 2.061 . S
O272 C275 1.235 . S
C273 O276 1.238 . S
C273 O277 1.241 . S
C274 O267 1.248 . S
C274 O268 1.277 . S
C275 O270 1.259 . S
C275 O272 1.235 . S
O276 Co266 2.021 . S
O276 C273 1.238 . S
O277 Co271 2.052 . S
O277 C273 1.241 . S
O278 Co266 2.137 1_565 S
O278 C269 1.247 1_565 S
O279 Co266 2.244 . S
O279 C269 1.272 . S
O279 Co271 2.135 . S
Co280 O281 2.216 . S
Co280 O282 2.091 . S
Co280 O284 2.004 1_554 S
Co280 O290 2.021 1_554 S
Co280 O292 2.137 . S
Co280 O293 2.244 . S
O281 Co280 2.216 . S
O281 C288 1.247 . S
O282 Co280 2.091 . S
O282 C288 1.261 . S
C283 O292 1.247 . S
C283 O293 1.272 . S
O284 Co280 2.004 1_556 S
O284 C289 1.259 . S
Co285 O286 2.061 . S
Co285 O291 2.052 . S
Co285 O293 2.135 1_556 S
O286 Co285 2.061 . S
O286 C289 1.235 . S
C287 O290 1.238 . S
C287 O291 1.241 . S
C288 O281 1.247 . S
C288 O282 1.261 . S
C289 O284 1.259 . S
C289 O286 1.235 . S
O290 Co280 2.021 1_556 S
O290 C287 1.238 . S
O291 Co285 2.052 . S
O291 C287 1.241 . S
O292 Co280 2.137 . S
O292 C283 1.247 . S
O293 Co280 2.244 . S
O293 C283 1.272 . S
O293 Co285 2.135 1_554 S
Co294 O295 2.216 . S
Co294 O296 2.091 . S
Co294 O298 2.004 . S
Co294 O304 2.021 . S
Co294 O306 2.137 . S
Co294 O307 2.244 . S
O295 Co294 2.216 . S
O295 C302 1.247 . S
O296 Co294 2.091 . S
O296 C302 1.261 . S
C297 O306 1.247 . S
C297 O307 1.272 . S
O298 Co294 2.004 . S
O298 C303 1.259 . S
Co299 O300 2.061 . S
Co299 O305 2.052 . S
Co299 O307 2.135 . S
O300 Co299 2.061 . S
O300 C303 1.235 . S
C301 O304 1.238 . S
C301 O305 1.241 . S
C302 O295 1.247 . S
C302 O296 1.261 . S
C303 O298 1.259 . S
C303 O300 1.235 . S
O304 Co294 2.021 . S
O304 C301 1.238 . S
O305 Co299 2.052 . S
O305 C301 1.241 . S
O306 Co294 2.137 . S
O306 C297 1.247 . S
O307 Co294 2.244 . S
O307 C297 1.272 . S
O307 Co299 2.135 . S
Co308 O309 2.216 . S
Co308 O310 2.091 . S
Co308 O312 2.004 . S
Co308 O318 2.021 . S
Co308 O320 2.137 . S
Co308 O321 2.244 . S
O309 Co308 2.216 . S
O309 C316 1.247 . S
O310 Co308 2.091 . S
O310 C316 1.261 . S
C311 O320 1.247 . S
C311 O321 1.272 . S
O312 Co308 2.004 . S
O312 C317 1.259 . S
Co313 O314 2.061 . S
Co313 O319 2.052 . S
Co313 O321 2.135 . S
O314 Co313 2.061 . S
O314 C317 1.235 . S
C315 O318 1.238 . S
C315 O319 1.241 . S
C316 O309 1.247 . S
C316 O310 1.261 . S
C317 O312 1.259 . S
C317 O314 1.235 . S
O318 Co308 2.021 . S
O318 C315 1.238 . S
O319 Co313 2.052 . S
O319 C315 1.241 . S
O320 Co308 2.137 . S
O320 C311 1.247 . S
O321 Co308 2.244 . S
O321 C311 1.272 . S
O321 Co313 2.135 . S
Co322 O323 2.216 . S
Co322 O324 2.091 . S
Co322 O326 2.004 . S
Co322 O332 2.021 . S
Co322 O334 2.137 . S
Co322 O335 2.244 . S
O323 Co322 2.216 . S
O323 C330 1.247 . S
O324 Co322 2.091 . S
O324 C330 1.261 . S
C325 O334 1.247 . S
C325 O335 1.272 . S
O326 Co322 2.004 . S
O326 C331 1.259 . S
Co327 O328 2.061 . S
Co327 O333 2.052 . S
Co327 O335 2.135 . S
O328 Co327 2.061 . S
O328 C331 1.235 . S
C329 O332 1.238 . S
C329 O333 1.241 . S
C330 O323 1.247 . S
C330 O324 1.261 . S
C331 O326 1.259 . S
C331 O328 1.235 . S
O332 Co322 2.021 . S
O332 C329 1.238 . S
O333 Co327 2.052 . S
O333 C329 1.241 . S
O334 Co322 2.137 . S
O334 C325 1.247 . S
O335 Co322 2.244 . S
O335 C325 1.272 . S
O335 Co327 2.135 . S
O336 Mn337 2.163 . S
O336 C350 1.244 . S
Mn337 O336 2.163 . S
Mn337 O340 2.160 . S
Mn337 O341 2.221 . S
Mn337 O343 2.163 . S
Mn337 O345 2.160 . S
Mn337 O355 2.221 . S
O338 Mn339 2.087 . S
O338 C350 1.256 . S
Mn339 O338 2.087 . S
Mn339 O346 2.089 . S
Mn339 O355 2.290 . S
Mn339 O356 2.251 . S
O340 Mn337 2.160 . S
O340 C351 1.239 . S
O341 Mn337 2.221 . S
O341 Mn342 2.290 . S
O341 C352 1.278 . S
Mn342 O341 2.290 . S
Mn342 O344 2.089 . S
Mn342 O347 2.251 . S
Mn342 O348 2.087 . S
O343 Mn337 2.163 . S
O343 C353 1.244 . S
O344 Mn342 2.089 . S
O344 C351 1.256 . S
O345 Mn337 2.160 . S
O345 C354 1.239 . S
O346 Mn339 2.089 . S
O346 C354 1.256 . S
O347 Mn342 2.251 . S
O347 C352 1.241 . S
O348 Mn342 2.087 . S
O348 C353 1.256 . S
C349 O355 1.278 . S
C349 O356 1.241 . S
C350 O336 1.244 . S
C350 O338 1.256 . S
C351 O340 1.239 . S
C351 O344 1.256 . S
C352 O341 1.278 . S
C352 O347 1.241 . S
C353 O343 1.244 . S
C353 O348 1.256 . S
C354 O345 1.239 . S
C354 O346 1.256 . S
O355 Mn337 2.221 . S
O355 Mn339 2.290 . S
O355 C349 1.278 . S
O356 Mn339 2.251 . S
O356 C349 1.241 . S
O357 Mn358 2.163 . S
O357 C371 1.244 . S
Mn358 O357 2.163 . S
Mn358 O361 2.160 . S
Mn358 O362 2.221 . S
Mn358 O364 2.163 . S
Mn358 O366 2.160 . S
Mn358 O376 2.221 . S
O359 Mn360 2.087 . S
O359 C371 1.256 . S
Mn360 O359 2.087 . S
Mn360 O367 2.089 . S
Mn360 O376 2.290 . S
Mn360 O377 2.251 . S
O361 Mn358 2.160 . S
O361 C372 1.239 . S
O362 Mn358 2.221 . S
O362 Mn363 2.290 . S
O362 C373 1.278 . S
Mn363 O362 2.290 . S
Mn363 O365 2.089 . S
Mn363 O368 2.251 . S
Mn363 O369 2.087 . S
O364 Mn358 2.163 . S
O364 C374 1.244 . S
O365 Mn363 2.089 . S
O365 C372 1.256 . S
O366 Mn358 2.160 . S
O366 C375 1.239 . S
O367 Mn360 2.089 . S
O367 C375 1.256 . S
O368 Mn363 2.251 . S
O368 C373 1.241 . S
O369 Mn363 2.087 . S
O369 C374 1.256 . S
C370 O376 1.278 . S
C370 O377 1.241 . S
C371 O357 1.244 . S
C371 O359 1.256 . S
C372 O361 1.239 . S
C372 O365 1.256 . S
C373 O362 1.278 . S
C373 O368 1.241 . S
C374 O364 1.244 . S
C374 O369 1.256 . S
C375 O366 1.239 . S
C375 O367 1.256 . S
O376 Mn358 2.221 . S
O376 Mn360 2.290 . S
O376 C370 1.278 . S
O377 Mn360 2.251 . S
O377 C370 1.241 . S
O378 Mn379 2.163 . S
O378 C392 1.244 . S
Mn379 O378 2.163 . S
Mn379 O382 2.160 . S
Mn379 O383 2.221 . S
Mn379 O385 2.163 . S
Mn379 O387 2.160 . S
Mn379 O397 2.221 . S
O380 Mn381 2.083 1_545 S
O380 C392 1.241 1_545 S
Mn381 O380 2.083 1_565 S
Mn381 O388 2.089 . S
Mn381 O397 2.290 . S
Mn381 O398 2.251 1_565 S
O382 Mn379 2.160 . S
O382 C393 1.239 . S
O383 Mn379 2.221 . S
O383 Mn384 2.290 . S
O383 C394 1.278 . S
Mn384 O383 2.290 . S
Mn384 O386 2.089 . S
Mn384 O389 2.251 . S
Mn384 O390 2.087 . S
O385 Mn379 2.163 . S
O385 C395 1.244 . S
O386 Mn384 2.089 . S
O386 C393 1.256 . S
O387 Mn379 2.160 . S
O387 C396 1.239 . S
O388 Mn381 2.089 . S
O388 C396 1.256 . S
O389 Mn384 2.251 . S
O389 C394 1.241 . S
O390 Mn384 2.087 . S
O390 C395 1.256 . S
C391 O397 1.278 . S
C391 O398 1.241 1_565 S
C392 O378 1.244 . S
C392 O380 1.241 1_565 S
C393 O382 1.239 . S
C393 O386 1.256 . S
C394 O383 1.278 . S
C394 O389 1.241 . S
C395 O385 1.244 . S
C395 O390 1.256 . S
C396 O387 1.239 . S
C396 O388 1.256 . S
O397 Mn379 2.221 . S
O397 Mn381 2.290 . S
O397 C391 1.278 . S
O398 Mn381 2.251 1_545 S
O398 C391 1.241 1_545 S
O399 Mn400 2.163 . S
O399 C413 1.244 . S
Mn400 O399 2.163 . S
Mn400 O403 2.160 . S
Mn400 O404 2.221 . S
Mn400 O406 2.163 . S
Mn400 O408 2.160 . S
Mn400 O418 2.221 . S
O401 Mn402 2.087 . S
O401 C413 1.256 . S
Mn402 O401 2.087 . S
Mn402 O409 2.089 . S
Mn402 O418 2.290 . S
Mn402 O419 2.251 . S
O403 Mn400 2.160 . S
O403 C414 1.239 . S
O404 Mn400 2.221 . S
O404 Mn405 2.290 . S
O404 C415 1.278 . S
Mn405 O404 2.290 . S
Mn405 O407 2.089 . S
Mn405 O410 2.251 . S
Mn405 O411 2.087 . S
O406 Mn400 2.163 . S
O406 C416 1.244 . S
O407 Mn405 2.089 . S
O407 C414 1.256 . S
O408 Mn400 2.160 . S
O408 C417 1.239 . S
O409 Mn402 2.089 . S
O409 C417 1.256 . S
O410 Mn405 2.251 . S
O410 C415 1.241 . S
O411 Mn405 2.087 . S
O411 C416 1.256 . S
C412 O418 1.278 . S
C412 O419 1.241 . S
C413 O399 1.244 . S
C413 O401 1.256 . S
C414 O403 1.239 . S
C414 O407 1.256 . S
C415 O404 1.278 . S
C415 O410 1.241 . S
C416 O406 1.244 . S
C416 O411 1.256 . S
C417 O408 1.239 . S
C417 O409 1.256 . S
O418 Mn400 2.221 . S
O418 Mn402 2.290 . S
O418 C412 1.278 . S
O419 Mn402 2.251 . S
O419 C412 1.241 . S
O420 Mn421 2.163 . S
O420 C434 1.244 . S
Mn421 O420 2.163 . S
Mn421 O424 2.160 . S
Mn421 O425 2.221 . S
Mn421 O427 2.163 . S
Mn421 O429 2.160 . S
Mn421 O439 2.221 . S
O422 Mn423 2.087 . S
O422 C434 1.256 . S
Mn423 O422 2.087 . S
Mn423 O430 2.089 . S
Mn423 O439 2.290 . S
Mn423 O440 2.251 . S
O424 Mn421 2.160 . S
O424 C435 1.239 . S
O425 Mn421 2.221 . S
O425 Mn426 2.290 . S
O425 C436 1.278 . S
Mn426 O425 2.290 . S
Mn426 O428 2.089 . S
Mn426 O431 2.251 . S
Mn426 O432 2.087 . S
O427 Mn421 2.163 . S
O427 C437 1.244 . S
O428 Mn426 2.089 . S
O428 C435 1.256 . S
O429 Mn421 2.160 . S
O429 C438 1.239 . S
O430 Mn423 2.089 . S
O430 C438 1.256 . S
O431 Mn426 2.251 . S
O431 C436 1.241 . S
O432 Mn426 2.087 . S
O432 C437 1.256 . S
C433 O439 1.278 . S
C433 O440 1.241 . S
C434 O420 1.244 . S
C434 O422 1.256 . S
C435 O424 1.239 . S
C435 O428 1.256 . S
C436 O425 1.278 . S
C436 O431 1.241 . S
C437 O427 1.244 . S
C437 O432 1.256 . S
C438 O429 1.239 . S
C438 O430 1.256 . S
O439 Mn421 2.221 . S
O439 Mn423 2.290 . S
O439 C433 1.278 . S
O440 Mn423 2.251 . S
O440 C433 1.241 . S
O441 Mn442 2.163 . S
O441 C455 1.244 . S
Mn442 O441 2.163 . S
Mn442 O445 2.160 . S
Mn442 O446 2.221 . S
Mn442 O448 2.163 . S
Mn442 O450 2.160 . S
Mn442 O460 2.221 . S
O443 Mn444 2.087 . S
O443 C455 1.256 . S
Mn444 O443 2.087 . S
Mn444 O451 2.089 . S
Mn444 O460 2.290 . S
Mn444 O461 2.251 . S
O445 Mn442 2.160 . S
O445 C456 1.239 . S
O446 Mn442 2.221 . S
O446 Mn447 2.290 . S
O446 C457 1.278 . S
Mn447 O446 2.290 . S
Mn447 O449 2.089 . S
Mn447 O452 2.251 . S
Mn447 O453 2.087 . S
O448 Mn442 2.163 . S
O448 C458 1.244 . S
O449 Mn447 2.089 . S
O449 C456 1.256 . S
O450 Mn442 2.160 . S
O450 C459 1.239 . S
O451 Mn444 2.089 . S
O451 C459 1.256 . S
O452 Mn447 2.251 . S
O452 C457 1.241 . S
O453 Mn447 2.087 . S
O453 C458 1.256 . S
C454 O460 1.278 . S
C454 O461 1.241 . S
C455 O441 1.244 . S
C455 O443 1.256 . S
C456 O445 1.239 . S
C456 O449 1.256 . S
C457 O446 1.278 . S
C457 O452 1.241 . S
C458 O448 1.244 . S
C458 O453 1.256 . S
C459 O450 1.239 . S
C459 O451 1.256 . S
O460 Mn442 2.221 . S
O460 Mn444 2.290 . S
O460 C454 1.278 . S
O461 Mn444 2.251 . S
O461 C454 1.241 . S
O462 Mn463 2.163 . S
O462 C476 1.244 . S
Mn463 O462 2.163 . S
Mn463 O466 2.160 . S
Mn463 O467 2.221 . S
Mn463 O469 2.163 . S
Mn463 O471 2.160 . S
Mn463 O481 2.221 . S
O464 Mn465 2.087 . S
O464 C476 1.256 . S
Mn465 O464 2.087 . S
Mn465 O472 2.089 . S
Mn465 O481 2.290 . S
Mn465 O482 2.251 . S
O466 Mn463 2.160 . S
O466 C477 1.239 . S
O467 Mn463 2.221 . S
O467 Mn468 2.290 . S
O467 C478 1.278 . S
Mn468 O467 2.290 . S
Mn468 O470 2.089 . S
Mn468 O473 2.251 . S
Mn468 O474 2.087 . S
O469 Mn463 2.163 . S
O469 C479 1.244 . S
O470 Mn468 2.089 . S
O470 C477 1.256 . S
O471 Mn463 2.160 . S
O471 C480 1.239 . S
O472 Mn465 2.089 . S
O472 C480 1.256 . S
O473 Mn468 2.251 . S
O473 C478 1.241 . S
O474 Mn468 2.087 . S
O474 C479 1.256 . S
C475 O481 1.278 . S
C475 O482 1.241 . S
C476 O462 1.244 . S
C476 O464 1.256 . S
C477 O466 1.239 . S
C477 O470 1.256 . S
C478 O467 1.278 . S
C478 O473 1.241 . S
C479 O469 1.244 . S
C479 O474 1.256 . S
C480 O471 1.239 . S
C480 O472 1.256 . S
O481 Mn463 2.221 . S
O481 Mn465 2.290 . S
O481 C475 1.278 . S
O482 Mn465 2.251 . S
O482 C475 1.241 . S
O483 Mn484 2.163 . S
O483 C497 1.244 . S
Mn484 O483 2.163 . S
Mn484 O487 2.160 . S
Mn484 O488 2.221 . S
Mn484 O490 2.163 . S
Mn484 O492 2.160 . S
Mn484 O502 2.221 . S
O485 Mn486 2.087 . S
O485 C497 1.256 . S
Mn486 O485 2.087 . S
Mn486 O493 2.089 . S
Mn486 O502 2.290 . S
Mn486 O503 2.251 . S
O487 Mn484 2.160 . S
O487 C498 1.239 . S
O488 Mn484 2.221 . S
O488 Mn489 2.290 . S
O488 C499 1.278 . S
Mn489 O488 2.290 . S
Mn489 O491 2.089 1_565 S
Mn489 O494 2.251 . S
Mn489 O495 2.087 . S
O490 Mn484 2.163 . S
O490 C500 1.244 . S
O491 Mn489 2.089 1_545 S
O491 C498 1.256 1_545 S
O492 Mn484 2.160 . S
O492 C501 1.239 . S
O493 Mn486 2.089 . S
O493 C501 1.256 . S
O494 Mn489 2.251 . S
O494 C499 1.241 . S
O495 Mn489 2.087 . S
O495 C500 1.256 . S
C496 O502 1.278 . S
C496 O503 1.241 . S
C497 O483 1.244 . S
C497 O485 1.256 . S
C498 O487 1.239 . S
C498 O491 1.256 1_565 S
C499 O488 1.278 . S
C499 O494 1.241 . S
C500 O490 1.244 . S
C500 O495 1.256 . S
C501 O492 1.239 . S
C501 O493 1.256 . S
O502 Mn484 2.221 . S
O502 Mn486 2.290 . S
O502 C496 1.278 . S
O503 Mn486 2.251 . S
O503 C496 1.241 . S
O504 Mn505 2.163 . S
O504 C518 1.244 . S
Mn505 O504 2.163 . S
Mn505 O508 2.160 . S
Mn505 O509 2.221 . S
Mn505 O511 2.163 . S
Mn505 O513 2.160 . S
Mn505 O523 2.221 . S
O506 Mn507 2.087 . S
O506 C518 1.256 . S
Mn507 O506 2.087 . S
Mn507 O514 2.089 . S
Mn507 O523 2.290 . S
Mn507 O524 2.251 . S
O508 Mn505 2.160 . S
O508 C519 1.239 . S
O509 Mn505 2.221 . S
O509 Mn510 2.290 . S
O509 C520 1.278 . S
Mn510 O509 2.290 . S
Mn510 O512 2.089 . S
Mn510 O515 2.251 . S
Mn510 O516 2.087 . S
O511 Mn505 2.163 . S
O511 C521 1.244 . S
O512 Mn510 2.089 . S
O512 C519 1.256 . S
O513 Mn505 2.160 . S
O513 C522 1.239 . S
O514 Mn507 2.089 . S
O514 C522 1.256 . S
O515 Mn510 2.251 . S
O515 C520 1.241 . S
O516 Mn510 2.087 . S
O516 C521 1.256 . S
C517 O523 1.278 . S
C517 O524 1.241 . S
C518 O504 1.244 . S
C518 O506 1.256 . S
C519 O508 1.239 . S
C519 O512 1.256 . S
C520 O509 1.278 . S
C520 O515 1.241 . S
C521 O511 1.244 . S
C521 O516 1.256 . S
C522 O513 1.239 . S
C522 O514 1.256 . S
O523 Mn505 2.221 . S
O523 Mn507 2.290 . S
O523 C517 1.278 . S
O524 Mn507 2.251 . S
O524 C517 1.241 . S
O525 Mn526 2.163 . S
O525 C539 1.244 . S
Mn526 O525 2.163 . S
Mn526 O529 2.160 . S
Mn526 O530 2.221 . S
Mn526 O532 2.163 . S
Mn526 O534 2.160 . S
Mn526 O544 2.221 . S
O527 Mn528 2.087 . S
O527 C539 1.256 . S
Mn528 O527 2.087 . S
Mn528 O535 2.089 . S
Mn528 O544 2.290 . S
Mn528 O545 2.251 . S
O529 Mn526 2.160 . S
O529 C540 1.239 . S
O530 Mn526 2.221 . S
O530 Mn531 2.290 . S
O530 C541 1.278 . S
Mn531 O530 2.290 . S
Mn531 O533 2.089 . S
Mn531 O536 2.251 . S
Mn531 O537 2.087 . S
O532 Mn526 2.163 . S
O532 C542 1.244 . S
O533 Mn531 2.089 . S
O533 C540 1.256 . S
O534 Mn526 2.160 . S
O534 C543 1.239 . S
O535 Mn528 2.089 . S
O535 C543 1.256 . S
O536 Mn531 2.251 . S
O536 C541 1.241 . S
O537 Mn531 2.087 . S
O537 C542 1.256 . S
C538 O544 1.278 . S
C538 O545 1.241 . S
C539 O525 1.244 . S
C539 O527 1.256 . S
C540 O529 1.239 . S
C540 O533 1.256 . S
C541 O530 1.278 . S
C541 O536 1.241 . S
C542 O532 1.244 . S
C542 O537 1.256 . S
C543 O534 1.239 . S
C543 O535 1.256 . S
O544 Mn526 2.221 . S
O544 Mn528 2.290 . S
O544 C538 1.278 . S
O545 Mn528 2.251 . S
O545 C538 1.241 . S
O546 Mn547 2.163 . S
O546 C560 1.244 . S
Mn547 O546 2.163 . S
Mn547 O550 2.160 . S
Mn547 O551 2.221 . S
Mn547 O553 2.163 . S
Mn547 O555 2.160 . S
Mn547 O565 2.221 . S
O548 Mn549 2.087 . S
O548 C560 1.256 . S
Mn549 O548 2.087 . S
Mn549 O556 2.089 . S
Mn549 O565 2.290 . S
Mn549 O566 2.251 . S
O550 Mn547 2.160 . S
O550 C561 1.239 . S
O551 Mn547 2.221 . S
O551 Mn552 2.290 . S
O551 C562 1.278 . S
Mn552 O551 2.290 . S
Mn552 O554 2.089 . S
Mn552 O557 2.251 . S
Mn552 O558 2.087 . S
O553 Mn547 2.163 . S
O553 C563 1.244 . S
O554 Mn552 2.089 . S
O554 C561 1.256 . S
O555 Mn547 2.160 . S
O555 C564 1.239 . S
O556 Mn549 2.089 . S
O556 C564 1.256 . S
O557 Mn552 2.251 . S
O557 C562 1.241 . S
O558 Mn552 2.087 . S
O558 C563 1.256 . S
C559 O565 1.278 . S
C559 O566 1.241 . S
C560 O546 1.244 . S
C560 O548 1.256 . S
C561 O550 1.239 . S
C561 O554 1.256 . S
C562 O551 1.278 . S
C562 O557 1.241 . S
C563 O553 1.244 . S
C563 O558 1.256 . S
C564 O555 1.239 . S
C564 O556 1.256 . S
O565 Mn547 2.221 . S
O565 Mn549 2.290 . S
O565 C559 1.278 . S
O566 Mn549 2.251 . S
O566 C559 1.241 . S
O567 Mn568 2.163 . S
O567 C581 1.244 . S
Mn568 O567 2.163 . S
Mn568 O571 2.160 . S
Mn568 O572 2.221 . S
Mn568 O574 2.163 . S
Mn568 O576 2.160 . S
Mn568 O586 2.221 . S
O569 Mn570 2.087 . S
O569 C581 1.256 . S
Mn570 O569 2.087 . S
Mn570 O577 2.089 . S
Mn570 O586 2.290 . S
Mn570 O587 2.251 . S
O571 Mn568 2.160 . S
O571 C582 1.239 . S
O572 Mn568 2.221 . S
O572 Mn573 2.290 . S
O572 C583 1.278 . S
Mn573 O572 2.290 . S
Mn573 O575 2.089 . S
Mn573 O578 2.251 . S
Mn573 O579 2.087 . S
O574 Mn568 2.163 . S
O574 C584 1.244 . S
O575 Mn573 2.089 . S
O575 C582 1.256 . S
O576 Mn568 2.160 . S
O576 C585 1.239 . S
O577 Mn570 2.089 . S
O577 C585 1.256 . S
O578 Mn573 2.251 . S
O578 C583 1.241 . S
O579 Mn573 2.087 . S
O579 C584 1.256 . S
C580 O586 1.278 . S
C580 O587 1.241 . S
C581 O567 1.244 . S
C581 O569 1.256 . S
C582 O571 1.239 . S
C582 O575 1.256 . S
C583 O572 1.278 . S
C583 O578 1.241 . S
C584 O574 1.244 . S
C584 O579 1.256 . S
C585 O576 1.239 . S
C585 O577 1.256 . S
O586 Mn568 2.221 . S
O586 Mn570 2.290 . S
O586 C580 1.278 . S
O587 Mn570 2.251 . S
O587 C580 1.241 . S
O588 Mn589 2.163 . S
O588 C602 1.244 . S
Mn589 O588 2.163 . S
Mn589 O592 2.160 . S
Mn589 O593 2.221 . S
Mn589 O595 2.163 . S
Mn589 O597 2.160 . S
Mn589 O607 2.221 . S
O590 Mn591 2.087 . S
O590 C602 1.256 . S
Mn591 O590 2.087 . S
Mn591 O598 2.089 . S
Mn591 O607 2.290 . S
Mn591 O608 2.251 . S
O592 Mn589 2.160 . S
O592 C603 1.239 . S
O593 Mn589 2.221 . S
O593 Mn594 2.290 . S
O593 C604 1.278 . S
Mn594 O593 2.290 . S
Mn594 O596 2.089 . S
Mn594 O599 2.251 . S
Mn594 O600 2.087 . S
O595 Mn589 2.163 . S
O595 C605 1.244 . S
O596 Mn594 2.089 . S
O596 C603 1.256 . S
O597 Mn589 2.160 . S
O597 C606 1.239 . S
O598 Mn591 2.089 . S
O598 C606 1.256 . S
O599 Mn594 2.251 . S
O599 C604 1.241 . S
O600 Mn594 2.087 . S
O600 C605 1.256 . S
C601 O607 1.278 . S
C601 O608 1.241 . S
C602 O588 1.244 . S
C602 O590 1.256 . S
C603 O592 1.239 . S
C603 O596 1.256 . S
C604 O593 1.278 . S
C604 O599 1.241 . S
C605 O595 1.244 . S
C605 O600 1.256 . S
C606 O597 1.239 . S
C606 O598 1.256 . S
O607 Mn589 2.221 . S
O607 Mn591 2.290 . S
O607 C601 1.278 . S
O608 Mn591 2.251 . S
O608 C601 1.241 . S
O609 Mn610 2.163 . S
O609 C623 1.244 . S
Mn610 O609 2.163 . S
Mn610 O613 2.160 . S
Mn610 O614 2.221 . S
Mn610 O616 2.163 . S
Mn610 O618 2.160 . S
Mn610 O628 2.221 . S
O611 Mn612 2.087 . S
O611 C623 1.256 . S
Mn612 O611 2.087 . S
Mn612 O619 2.089 . S
Mn612 O628 2.290 . S
Mn612 O629 2.251 . S
O613 Mn610 2.160 . S
O613 C624 1.239 . S
O614 Mn610 2.221 . S
O614 Mn615 2.290 . S
O614 C625 1.278 . S
Mn615 O614 2.290 . S
Mn615 O617 2.089 . S
Mn615 O620 2.251 . S
Mn615 O621 2.087 . S
O616 Mn610 2.163 . S
O616 C626 1.244 . S
O617 Mn615 2.089 . S
O617 C624 1.256 . S
O618 Mn610 2.160 . S
O618 C627 1.239 . S
O619 Mn612 2.089 . S
O619 C627 1.256 . S
O620 Mn615 2.251 . S
O620 C625 1.241 . S
O621 Mn615 2.087 . S
O621 C626 1.256 . S
C622 O628 1.278 . S
C622 O629 1.241 . S
C623 O609 1.244 . S
C623 O611 1.256 . S
C624 O613 1.239 . S
C624 O617 1.256 . S
C625 O614 1.278 . S
C625 O620 1.241 . S
C626 O616 1.244 . S
C626 O621 1.256 . S
C627 O618 1.239 . S
C627 O619 1.256 . S
O628 Mn610 2.221 . S
O628 Mn612 2.290 . S
O628 C622 1.278 . S
O629 Mn612 2.251 . S
O629 C622 1.241 . S
O630 Mn631 2.163 . S
O630 C644 1.244 . S
Mn631 O630 2.163 . S
Mn631 O634 2.160 . S
Mn631 O635 2.221 . S
Mn631 O637 2.163 . S
Mn631 O639 2.160 . S
Mn631 O649 2.221 . S
O632 Mn633 2.087 . S
O632 C644 1.256 . S
Mn633 O632 2.087 . S
Mn633 O640 2.089 . S
Mn633 O649 2.290 . S
Mn633 O650 2.251 . S
O634 Mn631 2.160 . S
O634 C645 1.239 . S
O635 Mn631 2.221 . S
O635 Mn636 2.290 . S
O635 C646 1.278 . S
Mn636 O635 2.290 . S
Mn636 O638 2.089 . S
Mn636 O641 2.251 . S
Mn636 O642 2.087 . S
O637 Mn631 2.163 . S
O637 C647 1.244 . S
O638 Mn636 2.089 . S
O638 C645 1.256 . S
O639 Mn631 2.160 . S
O639 C648 1.239 . S
O640 Mn633 2.089 . S
O640 C648 1.256 . S
O641 Mn636 2.251 . S
O641 C646 1.241 . S
O642 Mn636 2.087 . S
O642 C647 1.256 . S
C643 O649 1.278 . S
C643 O650 1.241 . S
C644 O630 1.244 . S
C644 O632 1.256 . S
C645 O634 1.239 . S
C645 O638 1.256 . S
C646 O635 1.278 . S
C646 O641 1.241 . S
C647 O637 1.244 . S
C647 O642 1.256 . S
C648 O639 1.239 . S
C648 O640 1.256 . S
O649 Mn631 2.221 . S
O649 Mn633 2.290 . S
O649 C643 1.278 . S
O650 Mn633 2.251 . S
O650 C643 1.241 . S
O651 Mn652 2.163 . S
O651 C665 1.244 . S
Mn652 O651 2.163 . S
Mn652 O655 2.160 . S
Mn652 O656 2.221 . S
Mn652 O658 2.163 . S
Mn652 O660 2.160 . S
Mn652 O670 2.221 . S
O653 Mn654 2.087 . S
O653 C665 1.256 . S
Mn654 O653 2.087 . S
Mn654 O661 2.089 . S
Mn654 O670 2.290 . S
Mn654 O671 2.251 . S
O655 Mn652 2.160 . S
O655 C666 1.239 . S
O656 Mn652 2.221 . S
O656 Mn657 2.290 . S
O656 C667 1.278 . S
Mn657 O656 2.290 . S
Mn657 O659 2.089 . S
Mn657 O662 2.251 . S
Mn657 O663 2.087 . S
O658 Mn652 2.163 . S
O658 C668 1.244 . S
O659 Mn657 2.089 . S
O659 C666 1.256 . S
O660 Mn652 2.160 . S
O660 C669 1.239 . S
O661 Mn654 2.089 . S
O661 C669 1.256 . S
O662 Mn657 2.251 . S
O662 C667 1.241 . S
O663 Mn657 2.087 . S
O663 C668 1.256 . S
C664 O670 1.278 . S
C664 O671 1.241 . S
C665 O651 1.244 . S
C665 O653 1.256 . S
C666 O655 1.239 . S
C666 O659 1.256 . S
C667 O656 1.278 . S
C667 O662 1.241 . S
C668 O658 1.244 . S
C668 O663 1.256 . S
C669 O660 1.239 . S
C669 O661 1.256 . S
O670 Mn652 2.221 . S
O670 Mn654 2.290 . S
O670 C664 1.278 . S
O671 Mn654 2.251 . S
O671 C664 1.241 . S
C672 C673 1.363 . S
C672 C678 1.379 . S
C672 N680 1.356 . S
C673 C672 1.363 . S
C673 C679 1.363 . S
C674 C675 1.363 . S
C674 C679 1.379 . S
C674 N681 1.356 . S
C675 C674 1.363 . S
C675 C678 1.363 . S
N676 C678 1.356 . S
N676 H688 0.984 . S
N676 H689 0.985 . S
N677 C679 1.356 . S
N677 H682 0.984 . S
N677 H683 0.985 . S
C678 C672 1.379 . S
C678 C675 1.363 . S
C678 N676 1.356 . S
C679 C673 1.363 . S
C679 C674 1.379 . S
C679 N677 1.356 . S
N680 C672 1.356 . S
N680 H686 0.984 . S
N680 H687 0.984 . S
N681 C674 1.356 . S
N681 H684 0.984 . S
N681 H685 0.985 . S
H682 N677 0.984 . S
H683 N677 0.985 . S
H684 N681 0.984 . S
H685 N681 0.985 . S
H686 N680 0.984 . S
H687 N680 0.984 . S
H688 N676 0.984 . S
H689 N676 0.985 . S
C690 C691 1.363 . S
C690 C696 1.379 . S
C690 N698 1.356 . S
C691 C690 1.363 . S
C691 C697 1.363 . S
C692 C693 1.363 . S
C692 C697 1.379 . S
C692 N699 1.356 . S
C693 C692 1.363 . S
C693 C696 1.363 . S
N694 C696 1.356 . S
N694 H706 0.984 . S
N694 H707 0.985 . S
N695 C697 1.356 . S
N695 H700 0.984 . S
N695 H701 0.985 . S
C696 C690 1.379 . S
C696 C693 1.363 . S
C696 N694 1.356 . S
C697 C691 1.363 . S
C697 C692 1.379 . S
C697 N695 1.356 . S
N698 C690 1.356 . S
N698 H704 0.984 . S
N698 H705 0.984 . S
N699 C692 1.356 . S
N699 H702 0.984 . S
N699 H703 0.985 . S
H700 N695 0.984 . S
H701 N695 0.985 . S
H702 N699 0.984 . S
H703 N699 0.985 . S
H704 N698 0.984 . S
H705 N698 0.984 . S
H706 N694 0.984 . S
H707 N694 0.985 . S
C708 C709 1.363 . S
C708 C714 1.379 . S
C708 N716 1.356 . S
C709 C708 1.363 . S
C709 C715 1.363 . S
C710 C711 1.363 . S
C710 C715 1.379 . S
C710 N717 1.356 . S
C711 C710 1.363 . S
C711 C714 1.363 . S
N712 C714 1.356 . S
N712 H724 0.984 . S
N712 H725 0.985 . S
N713 C715 1.356 . S
N713 H718 0.984 . S
N713 H719 0.985 . S
C714 C708 1.379 . S
C714 C711 1.363 . S
C714 N712 1.356 . S
C715 C709 1.363 . S
C715 C710 1.379 . S
C715 N713 1.356 . S
N716 C708 1.356 . S
N716 H722 0.984 . S
N716 H723 0.984 . S
N717 C710 1.356 . S
N717 H720 0.984 . S
N717 H721 0.985 . S
H718 N713 0.984 . S
H719 N713 0.985 . S
H720 N717 0.984 . S
H721 N717 0.985 . S
H722 N716 0.984 . S
H723 N716 0.984 . S
H724 N712 0.984 . S
H725 N712 0.985 . S
C726 C727 1.363 . S
C726 C732 1.379 . S
C726 N734 1.356 . S
C727 C726 1.363 . S
C727 C733 1.363 . S
C728 C729 1.363 1_554 S
C728 C733 1.379 . S
C728 N735 1.356 . S
C729 C728 1.363 1_556 S
C729 C732 1.363 1_556 S
N730 C732 1.356 1_556 S
N730 H742 0.984 . S
N730 H743 0.985 . S
N731 C733 1.356 . S
N731 H736 0.984 . S
N731 H737 0.985 . S
C732 C726 1.379 . S
C732 C729 1.363 1_554 S
C732 N730 1.356 1_554 S
C733 C727 1.363 . S
C733 C728 1.379 . S
C733 N731 1.356 . S
N734 C726 1.356 . S
N734 H740 0.984 . S
N734 H741 0.984 . S
N735 C728 1.356 . S
N735 H738 0.984 1_554 S
N735 H739 0.985 . S
H736 N731 0.984 . S
H737 N731 0.985 . S
H738 N735 0.984 1_556 S
H739 N735 0.985 . S
H740 N734 0.984 . S
H741 N734 0.984 . S
H742 N730 0.984 . S
H743 N730 0.985 . S
C744 C745 1.363 . S
C744 C750 1.379 . S
C744 N752 1.356 . S
C745 C744 1.363 . S
C745 C751 1.363 . S
C746 C747 1.363 . S
C746 C751 1.379 . S
C746 N753 1.356 . S
C747 C746 1.363 . S
C747 C750 1.363 . S
N748 C750 1.356 . S
N748 H760 0.984 . S
N748 H761 0.985 . S
N749 C751 1.356 . S
N749 H754 0.984 . S
N749 H755 0.995 . S
C750 C744 1.379 . S
C750 C747 1.363 . S
C750 N748 1.356 . S
C751 C745 1.363 . S
C751 C746 1.379 . S
C751 N749 1.356 . S
N752 C744 1.356 . S
N752 H758 0.984 . S
N752 H759 0.984 . S
N753 C746 1.356 . S
N753 H756 0.984 . S
N753 H757 0.985 . S
H754 N749 0.984 . S
H755 N749 0.995 . S
H756 N753 0.984 . S
H757 N753 0.985 . S
H758 N752 0.984 . S
H759 N752 0.984 . S
H760 N748 0.984 . S
H761 N748 0.985 . S
C762 C763 1.363 . S
C762 C768 1.379 . S
C762 N770 1.356 . S
C763 C762 1.363 . S
C763 C769 1.363 . S
C764 C765 1.363 . S
C764 C769 1.379 . S
C764 N771 1.356 . S
C765 C764 1.363 . S
C765 C768 1.363 . S
N766 C768 1.356 . S
N766 H778 0.984 . S
N766 H779 0.985 . S
N767 C769 1.356 . S
N767 H772 0.984 . S
N767 H773 0.985 . S
C768 C762 1.379 . S
C768 C765 1.363 . S
C768 N766 1.356 . S
C769 C763 1.363 . S
C769 C764 1.379 . S
C769 N767 1.356 . S
N770 C762 1.356 . S
N770 H776 0.984 . S
N770 H777 0.984 . S
N771 C764 1.356 . S
N771 H774 0.984 . S
N771 H775 0.985 . S
H772 N767 0.984 . S
H773 N767 0.985 . S
H774 N771 0.984 . S
H775 N771 0.985 . S
H776 N770 0.984 . S
H777 N770 0.984 . S
H778 N766 0.984 . S
H779 N766 0.985 . S
C780 C781 1.363 . S
C780 C786 1.379 . S
C780 N788 1.356 . S
C781 C780 1.363 . S
C781 C787 1.363 . S
C782 C783 1.363 . S
C782 C787 1.379 . S
C782 N789 1.356 . S
C783 C782 1.363 . S
C783 C786 1.363 . S
N784 C786 1.356 . S
N784 H796 0.984 . S
N784 H797 0.985 . S
N785 C787 1.356 . S
N785 H790 0.984 . S
N785 H791 0.985 . S
C786 C780 1.379 . S
C786 C783 1.363 . S
C786 N784 1.356 . S
C787 C781 1.363 . S
C787 C782 1.379 . S
C787 N785 1.356 . S
N788 C780 1.356 . S
N788 H794 0.984 . S
N788 H795 0.984 . S
N789 C782 1.356 . S
N789 H792 0.984 . S
N789 H793 0.985 . S
H790 N785 0.984 . S
H791 N785 0.985 . S
H792 N789 0.984 . S
H793 N789 0.985 . S
H794 N788 0.984 . S
H795 N788 0.984 . S
H796 N784 0.984 . S
H797 N784 0.985 . S
C798 C799 1.363 . S
C798 C804 1.379 1_556 S
C798 N806 1.356 . S
C799 C798 1.363 . S
C799 C805 1.363 1_556 S
C800 C801 1.363 . S
C800 C805 1.379 . S
C800 N807 1.356 . S
C801 C800 1.363 . S
C801 C804 1.363 . S
N802 C804 1.356 . S
N802 H814 0.984 . S
N802 H815 0.985 . S
N803 C805 1.356 1_556 S
N803 H808 0.984 . S
N803 H809 0.985 1_556 S
C804 C798 1.379 1_554 S
C804 C801 1.363 . S
C804 N802 1.356 . S
C805 C799 1.363 1_554 S
C805 C800 1.379 . S
C805 N803 1.356 1_554 S
N806 C798 1.356 . S
N806 H812 0.984 . S
N806 H813 0.984 . S
N807 C800 1.356 . S
N807 H810 0.984 . S
N807 H811 0.985 . S
H808 N803 0.984 . S
H809 N803 0.985 1_554 S
H810 N807 0.984 . S
H811 N807 0.985 . S
H812 N806 0.984 . S
H813 N806 0.984 . S
H814 N802 0.984 . S
H815 N802 0.985 . S
C816 C817 1.363 . S
C816 C822 1.379 . S
C816 N824 1.356 . S
C817 C816 1.363 . S
C817 C823 1.363 . S
C818 C819 1.363 . S
C818 C823 1.379 . S
C818 N825 1.356 . S
C819 C818 1.363 . S
C819 C822 1.363 . S
N820 C822 1.356 . S
N820 H832 0.984 . S
N820 H833 0.985 . S
N821 C823 1.356 . S
N821 H826 0.984 . S
N821 H827 0.985 . S
C822 C816 1.379 . S
C822 C819 1.363 . S
C822 N820 1.356 . S
C823 C817 1.363 . S
C823 C818 1.379 . S
C823 N821 1.356 . S
N824 C816 1.356 . S
N824 H830 0.984 . S
N824 H831 0.984 . S
N825 C818 1.356 . S
N825 H828 0.984 . S
N825 H829 0.985 . S
H826 N821 0.984 . S
H827 N821 0.985 . S
H828 N825 0.984 . S
H829 N825 0.985 . S
H830 N824 0.984 . S
H831 N824 0.984 . S
H832 N820 0.984 . S
H833 N820 0.985 . S
C834 C835 1.363 . S
C834 C840 1.379 . S
C834 N842 1.356 . S
C835 C834 1.363 . S
C835 C841 1.363 . S
C836 C837 1.363 1_545 S
C836 C841 1.379 . S
C836 N843 1.356 1_545 S
C837 C836 1.363 1_565 S
C837 C840 1.363 1_565 S
N838 C840 1.356 1_565 S
N838 H850 0.984 . S
N838 H851 0.985 . S
N839 C841 1.356 . S
N839 H844 0.984 . S
N839 H845 0.985 . S
C840 C834 1.379 . S
C840 C837 1.363 1_545 S
C840 N838 1.356 1_545 S
C841 C835 1.363 . S
C841 C836 1.379 . S
C841 N839 1.356 . S
N842 C834 1.356 . S
N842 H848 0.984 . S
N842 H849 0.984 . S
N843 C836 1.356 1_565 S
N843 H846 0.984 . S
N843 H847 0.985 . S
H844 N839 0.984 . S
H845 N839 0.985 . S
H846 N843 0.984 . S
H847 N843 0.985 . S
H848 N842 0.984 . S
H849 N842 0.984 . S
H850 N838 0.984 . S
H851 N838 0.985 . S
C852 C853 1.363 1_565 S
C852 C858 1.379 . S
C852 N860 1.356 . S
C853 C852 1.363 1_545 S
C853 C859 1.363 . S
C854 C855 1.340 1_545 S
C854 C859 1.395 . S
C854 N861 1.357 . S
C855 C854 1.340 1_565 S
C855 C858 1.363 . S
N856 C858 1.356 . S
N856 H868 0.984 . S
N856 H869 0.985 . S
N857 C859 1.356 . S
N857 H862 0.984 . S
N857 H863 0.985 . S
C858 C852 1.379 . S
C858 C855 1.363 . S
C858 N856 1.356 . S
C859 C853 1.363 . S
C859 C854 1.395 . S
C859 N857 1.356 . S
N860 C852 1.356 . S
N860 H866 0.984 . S
N860 H867 0.984 . S
N861 C854 1.357 . S
N861 H864 0.984 1_545 S
N861 H865 0.985 . S
H862 N857 0.984 . S
H863 N857 0.985 . S
H864 N861 0.984 1_565 S
H865 N861 0.985 . S
H866 N860 0.984 . S
H867 N860 0.984 . S
H868 N856 0.984 . S
H869 N856 0.985 . S
C870 C871 1.363 . S
C870 C876 1.379 . S
C870 N878 1.356 1_545 S
C871 C870 1.363 . S
C871 C877 1.363 . S
C872 C873 1.363 . S
C872 C877 1.379 . S
C872 N879 1.356 1_556 S
C873 C872 1.363 . S
C873 C876 1.363 . S
N874 C876 1.356 . S
N874 H886 0.984 . S
N874 H887 0.985 . S
N875 C877 1.356 1_554 S
N875 H880 0.984 1_545 S
N875 H881 0.985 . S
C876 C870 1.379 . S
C876 C873 1.363 . S
C876 N874 1.356 . S
C877 C871 1.363 . S
C877 C872 1.379 . S
C877 N875 1.356 1_556 S
N878 C870 1.356 1_565 S
N878 H884 0.984 . S
N878 H885 0.984 . S
N879 C872 1.356 1_554 S
N879 H882 0.984 . S
N879 H883 0.985 . S
H880 N875 0.984 1_565 S
H881 N875 0.985 . S
H882 N879 0.984 . S
H883 N879 0.985 . S
H884 N878 0.984 . S
H885 N878 0.984 . S
H886 N874 0.984 . S
H887 N874 0.985 . S
C888 C889 1.363 . S
C888 C894 1.379 . S
C888 N896 1.356 . S
C889 C888 1.363 . S
C889 C895 1.363 . S
C890 C891 1.363 . S
C890 C895 1.379 . S
C890 N897 1.356 . S
C891 C890 1.363 . S
C891 C894 1.363 . S
N892 C894 1.356 . S
N892 H904 0.984 . S
N892 H905 0.985 . S
N893 C895 1.356 . S
N893 H898 0.984 . S
N893 H899 0.985 1_565 S
C894 C888 1.379 . S
C894 C891 1.363 . S
C894 N892 1.356 . S
C895 C889 1.363 . S
C895 C890 1.379 . S
C895 N893 1.356 . S
N896 C888 1.356 . S
N896 H902 0.984 . S
N896 H903 0.984 . S
N897 C890 1.356 . S
N897 H900 0.984 . S
N897 H901 0.985 . S
H898 N893 0.984 . S
H899 N893 0.985 1_545 S
H900 N897 0.984 . S
H901 N897 0.985 . S
H902 N896 0.984 . S
H903 N896 0.984 . S
H904 N892 0.984 . S
H905 N892 0.985 . S
C906 C907 1.363 . S
C906 C912 1.379 . S
C906 N914 1.356 . S
C907 C906 1.363 . S
C907 C913 1.363 . S
C908 C909 1.363 . S
C908 C913 1.379 . S
C908 N915 1.356 1_545 S
C909 C908 1.363 . S
C909 C912 1.363 . S
N910 C912 1.356 . S
N910 H922 0.984 . S
N910 H923 0.985 1_545 S
N911 C913 1.356 . S
N911 H916 0.984 . S
N911 H917 0.985 . S
C912 C906 1.379 . S
C912 C909 1.363 . S
C912 N910 1.356 . S
C913 C907 1.363 . S
C913 C908 1.379 . S
C913 N911 1.356 . S
N914 C906 1.356 . S
N914 H920 0.984 . S
N914 H921 0.984 . S
N915 C908 1.356 1_565 S
N915 H918 0.984 . S
N915 H919 0.985 . S
H916 N911 0.984 . S
H917 N911 0.985 . S
H918 N915 0.984 . S
H919 N915 0.985 . S
H920 N914 0.984 . S
H921 N914 0.984 . S
H922 N910 0.984 . S
H923 N910 0.985 1_565 S
C924 C925 1.363 . S
C924 C930 1.379 . S
C924 N932 1.356 . S
C925 C924 1.363 . S
C925 C931 1.363 . S
C926 C927 1.363 . S
C926 C931 1.379 . S
C926 N933 1.356 . S
C927 C926 1.363 . S
C927 C930 1.363 . S
N928 C930 1.356 . S
N928 H940 0.984 . S
N928 H941 0.985 . S
N929 C931 1.356 . S
N929 H934 0.984 . S
N929 H935 0.985 . S
C930 C924 1.379 . S
C930 C927 1.363 . S
C930 N928 1.356 . S
C931 C925 1.363 . S
C931 C926 1.379 . S
C931 N929 1.356 . S
N932 C924 1.356 . S
N932 H938 0.984 . S
N932 H939 0.984 . S
N933 C926 1.356 . S
N933 H936 0.984 . S
N933 H937 0.985 . S
H934 N929 0.984 . S
H935 N929 0.985 . S
H936 N933 0.984 . S
H937 N933 0.985 . S
H938 N932 0.984 . S
H939 N932 0.984 . S
H940 N928 0.984 . S
H941 N928 0.985 . S
C942 C943 1.364 . S
C942 C948 1.375 1_565 S
C942 N950 1.359 . S
C943 C942 1.364 . S
C943 C949 1.363 1_565 S
C944 C945 1.363 . S
C944 C949 1.379 . S
C944 N951 1.356 . S
C945 C944 1.363 . S
C945 C948 1.363 . S
N946 C948 1.356 . S
N946 H958 0.984 . S
N946 H959 0.985 . S
N947 C949 1.356 1_565 S
N947 H952 0.984 . S
N947 H953 0.981 1_565 S
C948 C942 1.375 1_545 S
C948 C945 1.363 . S
C948 N946 1.356 . S
C949 C943 1.363 1_545 S
C949 C944 1.379 . S
C949 N947 1.356 1_545 S
N950 C942 1.359 . S
N950 H956 0.984 . S
N950 H957 0.984 . S
N951 C944 1.356 . S
N951 H954 0.984 . S
N951 H955 0.985 . S
H952 N947 0.984 . S
H953 N947 0.981 1_545 S
H954 N951 0.984 . S
H955 N951 0.985 . S
H956 N950 0.984 . S
H957 N950 0.984 . S
H958 N946 0.984 . S
H959 N946 0.985 . S
C960 C961 1.363 . S
C960 C966 1.379 . S
C960 N968 1.356 . S
C961 C960 1.363 . S
C961 C967 1.363 . S
C962 C963 1.363 . S
C962 C967 1.379 . S
C962 N969 1.356 . S
C963 C962 1.363 . S
C963 C966 1.363 . S
N964 C966 1.356 . S
N964 H976 0.984 . S
N964 H977 0.985 . S
N965 C967 1.356 . S
N965 H970 0.984 . S
N965 H971 0.985 . S
C966 C960 1.379 . S
C966 C963 1.363 . S
C966 N964 1.356 . S
C967 C961 1.363 . S
C967 C962 1.379 . S
C967 N965 1.356 . S
N968 C960 1.356 . S
N968 H974 0.984 . S
N968 H975 0.984 . S
N969 C962 1.356 . S
N969 H972 0.984 . S
N969 H973 0.985 . S
H970 N965 0.984 . S
H971 N965 0.985 . S
H972 N969 0.984 . S
H973 N969 0.985 . S
H974 N968 0.984 . S
H975 N968 0.984 . S
H976 N964 0.984 . S
H977 N964 0.985 . S
C978 C979 1.363 . S
C978 C984 1.379 . S
C978 N986 1.356 1_556 S
C979 C978 1.363 . S
C979 C985 1.363 . S
C980 C981 1.363 . S
C980 C985 1.379 . S
C980 N987 1.356 . S
C981 C980 1.363 . S
C981 C984 1.363 . S
N982 C984 1.356 . S
N982 H994 0.984 1_556 S
N982 H995 0.985 . S
N983 C985 1.356 . S
N983 H988 0.984 . S
N983 H989 0.985 . S
C984 C978 1.379 . S
C984 C981 1.363 . S
C984 N982 1.356 . S
C985 C979 1.363 . S
C985 C980 1.379 . S
C985 N983 1.356 . S
N986 C978 1.356 1_554 S
N986 H992 0.984 . S
N986 H993 0.984 . S
N987 C980 1.356 . S
N987 H990 0.984 . S
N987 H991 0.985 . S
H988 N983 0.984 . S
H989 N983 0.985 . S
H990 N987 0.984 . S
H991 N987 0.985 . S
H992 N986 0.984 . S
H993 N986 0.984 . S
H994 N982 0.984 1_554 S
H995 N982 0.985 . S
C996 C997 1.363 . S
C996 C1002 1.379 1_455 S
C996 N1004 1.356 . S
C997 C996 1.363 . S
C997 C1003 1.363 . S
C998 C999 1.363 1_455 S
C998 C1003 1.379 . S
C998 N1005 1.356 1_455 S
C999 C998 1.363 1_655 S
C999 C1002 1.363 . S
N1000 C1002 1.356 . S
N1000 H1012 0.984 . S
N1000 H1013 0.985 . S
N1001 C1003 1.356 . S
N1001 H1006 0.984 . S
N1001 H1007 0.985 . S
C1002 C996 1.379 1_655 S
C1002 C999 1.363 . S
C1002 N1000 1.356 . S
C1003 C997 1.363 . S
C1003 C998 1.379 . S
C1003 N1001 1.356 . S
N1004 C996 1.356 . S
N1004 H1010 0.984 . S
N1004 H1011 0.984 . S
N1005 C998 1.356 1_655 S
N1005 H1008 0.984 . S
N1005 H1009 0.985 1_655 S
H1006 N1001 0.984 . S
H1007 N1001 0.985 . S
H1008 N1005 0.984 . S
H1009 N1005 0.985 1_455 S
H1010 N1004 0.984 . S
H1011 N1004 0.984 . S
H1012 N1000 0.984 . S
H1013 N1000 0.985 . S
C1014 C1015 1.363 . S
C1014 C1020 1.379 . S
C1014 N1022 1.356 . S
C1015 C1014 1.363 . S
C1015 C1021 1.363 . S
C1016 C1017 1.363 . S
C1016 C1021 1.379 . S
C1016 N1023 1.356 . S
C1017 C1016 1.363 . S
C1017 C1020 1.363 . S
N1018 C1020 1.356 . S
N1018 H1030 0.984 . S
N1018 H1031 0.985 . S
N1019 C1021 1.356 . S
N1019 H1024 0.984 . S
N1019 H1025 0.985 . S
C1020 C1014 1.379 . S
C1020 C1017 1.363 . S
C1020 N1018 1.356 . S
C1021 C1015 1.363 . S
C1021 C1016 1.379 . S
C1021 N1019 1.356 . S
N1022 C1014 1.356 . S
N1022 H1028 0.984 . S
N1022 H1029 0.984 . S
N1023 C1016 1.356 . S
N1023 H1026 0.984 . S
N1023 H1027 0.985 . S
H1024 N1019 0.984 . S
H1025 N1019 0.985 . S
H1026 N1023 0.984 . S
H1027 N1023 0.985 . S
H1028 N1022 0.984 . S
H1029 N1022 0.984 . S
H1030 N1018 0.984 . S
H1031 N1018 0.985 . S
C1032 C1033 1.363 . S
C1032 C1038 1.379 1_655 S
C1032 N1040 1.356 . S
C1033 C1032 1.363 . S
C1033 C1039 1.363 . S
C1034 C1035 1.363 . S
C1034 C1039 1.379 1_455 S
C1034 N1041 1.356 . S
C1035 C1034 1.363 . S
C1035 C1038 1.363 . S
N1036 C1038 1.356 . S
N1036 H1048 0.984 . S
N1036 H1049 0.985 . S
N1037 C1039 1.356 . S
N1037 H1042 0.984 . S
N1037 H1043 0.985 1_545 S
C1038 C1032 1.379 1_455 S
C1038 C1035 1.363 . S
C1038 N1036 1.356 . S
C1039 C1033 1.363 . S
C1039 C1034 1.379 1_655 S
C1039 N1037 1.356 . S
N1040 C1032 1.356 . S
N1040 H1046 0.984 . S
N1040 H1047 0.984 . S
N1041 C1034 1.356 . S
N1041 H1044 0.984 . S
N1041 H1045 0.985 . S
H1042 N1037 0.984 . S
H1043 N1037 0.985 1_565 S
H1044 N1041 0.984 . S
H1045 N1041 0.985 . S
H1046 N1040 0.984 . S
H1047 N1040 0.984 . S
H1048 N1036 0.984 . S
H1049 N1036 0.985 . S
C1050 C1051 1.363 . S
C1050 C1056 1.379 . S
C1050 N1058 1.356 . S
C1051 C1050 1.363 . S
C1051 C1057 1.363 . S
C1052 C1053 1.363 . S
C1052 C1057 1.379 . S
C1052 N1059 1.356 . S
C1053 C1052 1.363 . S
C1053 C1056 1.363 . S
N1054 C1056 1.356 . S
N1054 H1066 0.984 . S
N1054 H1067 0.985 . S
N1055 C1057 1.356 . S
N1055 H1060 0.984 . S
N1055 H1061 0.985 . S
C1056 C1050 1.379 . S
C1056 C1053 1.363 . S
C1056 N1054 1.356 . S
C1057 C1051 1.363 . S
C1057 C1052 1.379 . S
C1057 N1055 1.356 . S
N1058 C1050 1.356 . S
N1058 H1064 0.984 . S
N1058 H1065 0.984 . S
N1059 C1052 1.356 . S
N1059 H1062 0.984 . S
N1059 H1063 0.985 . S
H1060 N1055 0.984 . S
H1061 N1055 0.985 . S
H1062 N1059 0.984 . S
H1063 N1059 0.985 . S
H1064 N1058 0.984 . S
H1065 N1058 0.984 . S
H1066 N1054 0.984 . S
H1067 N1054 0.985 . S
C1068 C1069 1.363 . S
C1068 C1074 1.379 1_455 S
C1068 N1076 1.356 . S
C1069 C1068 1.363 . S
C1069 C1075 1.363 . S
C1070 C1071 1.363 1_455 S
C1070 C1075 1.379 . S
C1070 N1077 1.356 1_455 S
C1071 C1070 1.363 1_655 S
C1071 C1074 1.363 . S
N1072 C1074 1.356 . S
N1072 H1084 0.984 . S
N1072 H1085 0.985 . S
N1073 C1075 1.356 . S
N1073 H1078 0.984 . S
N1073 H1079 0.985 . S
C1074 C1068 1.379 1_655 S
C1074 C1071 1.363 . S
C1074 N1072 1.356 . S
C1075 C1069 1.363 . S
C1075 C1070 1.379 . S
C1075 N1073 1.356 . S
N1076 C1068 1.356 . S
N1076 H1082 0.984 . S
N1076 H1083 0.984 . S
N1077 C1070 1.356 1_655 S
N1077 H1080 0.984 . S
N1077 H1081 0.985 . S
H1078 N1073 0.984 . S
H1079 N1073 0.985 . S
H1080 N1077 0.984 . S
H1081 N1077 0.985 . S
H1082 N1076 0.984 . S
H1083 N1076 0.984 . S
H1084 N1072 0.984 . S
H1085 N1072 0.985 . S
C1086 C1087 1.363 . S
C1086 C1092 1.379 . S
C1086 N1094 1.356 . S
C1087 C1086 1.363 . S
C1087 C1093 1.363 . S
C1088 C1089 1.363 . S
C1088 C1093 1.379 . S
C1088 N1095 1.356 . S
C1089 C1088 1.363 . S
C1089 C1092 1.363 . S
N1090 C1092 1.356 . S
N1090 H1102 0.984 . S
N1090 H1103 0.985 . S
N1091 C1093 1.356 . S
N1091 H1096 0.984 . S
N1091 H1097 0.985 . S
C1092 C1086 1.379 . S
C1092 C1089 1.363 . S
C1092 N1090 1.356 . S
C1093 C1087 1.363 . S
C1093 C1088 1.379 . S
C1093 N1091 1.356 . S
N1094 C1086 1.356 . S
N1094 H1100 0.984 . S
N1094 H1101 0.984 . S
N1095 C1088 1.356 . S
N1095 H1098 0.984 . S
N1095 H1099 0.985 . S
H1096 N1091 0.984 . S
H1097 N1091 0.985 . S
H1098 N1095 0.984 . S
H1099 N1095 0.985 . S
H1100 N1094 0.984 . S
H1101 N1094 0.984 . S
H1102 N1090 0.984 . S
H1103 N1090 0.985 . S
C1104 C1105 1.363 . S
C1104 C1110 1.379 . S
C1104 N1112 1.356 . S
C1105 C1104 1.363 . S
C1105 C1111 1.363 . S
C1106 C1107 1.363 . S
C1106 C1111 1.379 . S
C1106 N1113 1.356 . S
C1107 C1106 1.363 . S
C1107 C1110 1.363 . S
N1108 C1110 1.356 . S
N1108 H1120 0.984 . S
N1108 H1121 0.985 . S
N1109 C1111 1.356 . S
N1109 H1114 0.984 . S
N1109 H1115 0.985 . S
C1110 C1104 1.379 . S
C1110 C1107 1.363 . S
C1110 N1108 1.356 . S
C1111 C1105 1.363 . S
C1111 C1106 1.379 . S
C1111 N1109 1.356 . S
N1112 C1104 1.356 . S
N1112 H1118 0.984 . S
N1112 H1119 0.984 . S
N1113 C1106 1.356 . S
N1113 H1116 0.984 . S
N1113 H1117 0.985 . S
H1114 N1109 0.984 . S
H1115 N1109 0.985 . S
H1116 N1113 0.984 . S
H1117 N1113 0.985 . S
H1118 N1112 0.984 . S
H1119 N1112 0.984 . S
H1120 N1108 0.984 . S
H1121 N1108 0.985 . S
C1122 C1123 1.363 . S
C1122 C1128 1.379 . S
C1122 N1130 1.356 . S
C1123 C1122 1.363 . S
C1123 C1129 1.363 . S
C1124 C1125 1.363 . S
C1124 C1129 1.379 . S
C1124 N1131 1.356 . S
C1125 C1124 1.363 . S
C1125 C1128 1.363 . S
N1126 C1128 1.356 . S
N1126 H1138 0.984 . S
N1126 H1139 0.985 . S
N1127 C1129 1.356 1_455 S
N1127 H1132 0.984 . S
N1127 H1133 0.985 . S
C1128 C1122 1.379 . S
C1128 C1125 1.363 . S
C1128 N1126 1.356 . S
C1129 C1123 1.363 . S
C1129 C1124 1.379 . S
C1129 N1127 1.356 1_655 S
N1130 C1122 1.356 . S
N1130 H1136 0.984 . S
N1130 H1137 0.984 . S
N1131 C1124 1.356 . S
N1131 H1134 0.984 . S
N1131 H1135 0.985 1_655 S
H1132 N1127 0.984 . S
H1133 N1127 0.985 . S
H1134 N1131 0.984 . S
H1135 N1131 0.985 1_455 S
H1136 N1130 0.984 . S
H1137 N1130 0.984 . S
H1138 N1126 0.984 . S
H1139 N1126 0.985 . S
C1140 C1141 1.363 . S
C1140 C1146 1.379 . S
C1140 N1148 1.356 . S
C1141 C1140 1.363 . S
C1141 C1147 1.363 . S
C1142 C1143 1.363 . S
C1142 C1147 1.379 . S
C1142 N1149 1.356 . S
C1143 C1142 1.363 . S
C1143 C1146 1.363 . S
N1144 C1146 1.356 . S
N1144 H1156 0.984 . S
N1144 H1157 0.985 . S
N1145 C1147 1.356 . S
N1145 H1150 0.984 . S
N1145 H1151 0.985 . S
C1146 C1140 1.379 . S
C1146 C1143 1.363 . S
C1146 N1144 1.356 . S
C1147 C1141 1.363 . S
C1147 C1142 1.379 . S
C1147 N1145 1.356 . S
N1148 C1140 1.356 . S
N1148 H1154 0.984 . S
N1148 H1155 0.984 . S
N1149 C1142 1.356 . S
N1149 H1152 0.984 . S
N1149 H1153 0.985 . S
H1150 N1145 0.984 . S
H1151 N1145 0.985 . S
H1152 N1149 0.984 . S
H1153 N1149 0.985 . S
H1154 N1148 0.984 . S
H1155 N1148 0.984 . S
H1156 N1144 0.984 . S
H1157 N1144 0.985 . S
C1158 C1159 1.363 . S
C1158 C1164 1.379 1_556 S
C1158 N1166 1.356 . S
C1159 C1158 1.363 . S
C1159 C1165 1.363 . S
C1160 C1161 1.363 . S
C1160 C1165 1.379 1_554 S
C1160 N1167 1.356 . S
C1161 C1160 1.363 . S
C1161 C1164 1.363 . S
N1162 C1164 1.356 . S
N1162 H1174 0.984 . S
N1162 H1175 0.985 . S
N1163 C1165 1.356 . S
N1163 H1168 0.984 . S
N1163 H1169 0.985 . S
C1164 C1158 1.379 1_554 S
C1164 C1161 1.363 . S
C1164 N1162 1.356 . S
C1165 C1159 1.363 . S
C1165 C1160 1.379 1_556 S
C1165 N1163 1.356 . S
N1166 C1158 1.356 . S
N1166 H1172 0.984 . S
N1166 H1173 0.984 . S
N1167 C1160 1.356 . S
N1167 H1170 0.984 . S
N1167 H1171 0.985 . S
H1168 N1163 0.984 . S
H1169 N1163 0.985 . S
H1170 N1167 0.984 . S
H1171 N1167 0.985 . S
H1172 N1166 0.984 . S
H1173 N1166 0.984 . S
H1174 N1162 0.984 . S
H1175 N1162 0.985 . S
C1176 C1177 1.363 . S
C1176 C1182 1.379 . S
C1176 N1184 1.356 . S
C1177 C1176 1.363 . S
C1177 C1183 1.363 . S
C1178 C1179 1.363 . S
C1178 C1183 1.379 . S
C1178 N1185 1.356 . S
C1179 C1178 1.363 . S
C1179 C1182 1.363 . S
N1180 C1182 1.356 . S
N1180 H1192 0.984 . S
N1180 H1193 0.985 . S
N1181 C1183 1.356 1_455 S
N1181 H1186 0.984 . S
N1181 H1187 0.985 . S
C1182 C1176 1.379 . S
C1182 C1179 1.363 . S
C1182 N1180 1.356 . S
C1183 C1177 1.363 . S
C1183 C1178 1.379 . S
C1183 N1181 1.356 1_655 S
N1184 C1176 1.356 . S
N1184 H1190 0.984 . S
N1184 H1191 0.984 . S
N1185 C1178 1.356 . S
N1185 H1188 0.984 . S
N1185 H1189 0.985 . S
H1186 N1181 0.984 . S
H1187 N1181 0.985 . S
H1188 N1185 0.984 . S
H1189 N1185 0.985 . S
H1190 N1184 0.984 . S
H1191 N1184 0.984 . S
H1192 N1180 0.984 . S
H1193 N1180 0.985 . S
C1194 C1195 1.363 . S
C1194 C1200 1.379 . S
C1194 N1202 1.356 . S
C1195 C1194 1.363 . S
C1195 C1201 1.363 . S
C1196 C1197 1.363 . S
C1196 C1201 1.379 . S
C1196 N1203 1.356 . S
C1197 C1196 1.363 . S
C1197 C1200 1.363 . S
N1198 C1200 1.356 . S
N1198 H1210 0.984 . S
N1198 H1211 0.985 . S
N1199 C1201 1.356 . S
N1199 H1204 0.984 . S
N1199 H1205 0.985 . S
C1200 C1194 1.379 . S
C1200 C1197 1.363 . S
C1200 N1198 1.356 . S
C1201 C1195 1.363 . S
C1201 C1196 1.379 . S
C1201 N1199 1.356 . S
N1202 C1194 1.356 . S
N1202 H1208 0.984 . S
N1202 H1209 0.984 . S
N1203 C1196 1.356 . S
N1203 H1206 0.984 . S
N1203 H1207 0.985 . S
H1204 N1199 0.984 . S
H1205 N1199 0.985 . S
H1206 N1203 0.984 . S
H1207 N1203 0.985 . S
H1208 N1202 0.984 . S
H1209 N1202 0.984 . S
H1210 N1198 0.984 . S
H1211 N1198 0.985 . S
C1212 C1213 1.363 . S
C1212 C1218 1.379 . S
C1212 N1220 1.356 . S
C1213 C1212 1.363 . S
C1213 C1219 1.363 . S
C1214 C1215 1.363 . S
C1214 C1219 1.379 . S
C1214 N1221 1.356 . S
C1215 C1214 1.363 . S
C1215 C1218 1.363 . S
N1216 C1218 1.356 . S
N1216 H1228 0.984 . S
N1216 H1229 0.985 . S
N1217 C1219 1.356 . S
N1217 H1222 0.984 . S
N1217 H1223 0.985 . S
C1218 C1212 1.379 . S
C1218 C1215 1.363 . S
C1218 N1216 1.356 . S
C1219 C1213 1.363 . S
C1219 C1214 1.379 . S
C1219 N1217 1.356 . S
N1220 C1212 1.356 . S
N1220 H1226 0.984 . S
N1220 H1227 0.984 . S
N1221 C1214 1.356 . S
N1221 H1224 0.984 . S
N1221 H1225 0.985 . S
H1222 N1217 0.984 . S
H1223 N1217 0.985 . S
H1224 N1221 0.984 . S
H1225 N1221 0.985 . S
H1226 N1220 0.984 . S
H1227 N1220 0.984 . S
H1228 N1216 0.984 . S
H1229 N1216 0.985 . S
C1230 C1231 1.363 . S
C1230 C1236 1.379 . S
C1230 N1238 1.356 . S
C1231 C1230 1.363 . S
C1231 C1237 1.363 . S
C1232 C1233 1.363 . S
C1232 C1237 1.379 1_556 S
C1232 N1239 1.356 . S
C1233 C1232 1.363 . S
C1233 C1236 1.363 1_556 S
N1234 C1236 1.356 1_556 S
N1234 H1246 0.984 1_556 S
N1234 H1247 0.985 . S
N1235 C1237 1.356 . S
N1235 H1240 0.984 . S
N1235 H1241 0.985 . S
C1236 C1230 1.379 . S
C1236 C1233 1.363 1_554 S
C1236 N1234 1.356 1_554 S
C1237 C1231 1.363 . S
C1237 C1232 1.379 1_554 S
C1237 N1235 1.356 . S
N1238 C1230 1.356 . S
N1238 H1244 0.984 . S
N1238 H1245 0.984 . S
N1239 C1232 1.356 . S
N1239 H1242 0.984 . S
N1239 H1243 0.985 . S
H1240 N1235 0.984 . S
H1241 N1235 0.985 . S
H1242 N1239 0.984 . S
H1243 N1239 0.985 . S
H1244 N1238 0.984 . S
H1245 N1238 0.984 . S
H1246 N1234 0.984 1_554 S
H1247 N1234 0.985 . S
C1248 C1249 1.363 1_545 S
C1248 C1254 1.379 1_545 S
C1248 N1256 1.356 . S
C1249 C1248 1.363 1_565 S
C1249 C1255 1.363 . S
C1250 C1251 1.363 . S
C1250 C1255 1.379 . S
C1250 N1257 1.356 . S
C1251 C1250 1.363 . S
C1251 C1254 1.363 . S
N1252 C1254 1.356 1_545 S
N1252 H1264 0.986 . S
N1252 H1265 0.983 1_545 S
N1253 C1255 1.356 . S
N1253 H1258 0.984 . S
N1253 H1259 0.985 . S
C1254 C1248 1.379 1_565 S
C1254 C1251 1.363 . S
C1254 N1252 1.356 1_565 S
C1255 C1249 1.363 . S
C1255 C1250 1.379 . S
C1255 N1253 1.356 . S
N1256 C1248 1.356 . S
N1256 H1262 0.984 . S
N1256 H1263 0.984 . S
N1257 C1250 1.356 . S
N1257 H1260 0.984 . S
N1257 H1261 0.985 . S
H1258 N1253 0.984 . S
H1259 N1253 0.985 . S
H1260 N1257 0.984 . S
H1261 N1257 0.985 . S
H1262 N1256 0.984 . S
H1263 N1256 0.984 . S
H1264 N1252 0.986 . S
H1265 N1252 0.983 1_565 S
C1266 C1267 1.363 . S
C1266 C1272 1.379 . S
C1266 N1274 1.356 1_545 S
C1267 C1266 1.363 . S
C1267 C1273 1.363 . S
C1268 C1269 1.363 . S
C1268 C1273 1.379 . S
C1268 N1275 1.356 . S
C1269 C1268 1.363 . S
C1269 C1272 1.363 . S
N1270 C1272 1.356 . S
N1270 H1282 0.984 . S
N1270 H1283 0.985 . S
N1271 C1273 1.356 1_565 S
N1271 H1276 0.984 . S
N1271 H1277 0.985 1_565 S
C1272 C1266 1.379 . S
C1272 C1269 1.363 . S
C1272 N1270 1.356 . S
C1273 C1267 1.363 . S
C1273 C1268 1.379 . S
C1273 N1271 1.356 1_545 S
N1274 C1266 1.356 1_565 S
N1274 H1280 0.980 1_565 S
N1274 H1281 0.984 . S
N1275 C1268 1.356 . S
N1275 H1278 0.984 . S
N1275 H1279 0.985 . S
H1276 N1271 0.984 . S
H1277 N1271 0.985 1_545 S
H1278 N1275 0.984 . S
H1279 N1275 0.985 . S
H1280 N1274 0.980 1_545 S
H1281 N1274 0.984 . S
H1282 N1270 0.984 . S
H1283 N1270 0.985 . S
C1284 C1285 1.363 . S
C1284 C1290 1.379 . S
C1284 N1292 1.356 . S
C1285 C1284 1.363 . S
C1285 C1291 1.363 . S
C1286 C1287 1.363 . S
C1286 C1291 1.379 . S
C1286 N1293 1.356 . S
C1287 C1286 1.363 . S
C1287 C1290 1.363 . S
N1288 C1290 1.356 . S
N1288 H1300 0.984 . S
N1288 H1301 0.985 . S
N1289 C1291 1.356 . S
N1289 H1294 0.984 . S
N1289 H1295 0.985 . S
C1290 C1284 1.379 . S
C1290 C1287 1.363 . S
C1290 N1288 1.356 . S
C1291 C1285 1.363 . S
C1291 C1286 1.379 . S
C1291 N1289 1.356 . S
N1292 C1284 1.356 . S
N1292 H1298 0.984 . S
N1292 H1299 0.984 . S
N1293 C1286 1.356 . S
N1293 H1296 0.984 . S
N1293 H1297 0.985 . S
H1294 N1289 0.984 . S
H1295 N1289 0.985 . S
H1296 N1293 0.984 . S
H1297 N1293 0.985 . S
H1298 N1292 0.984 . S
H1299 N1292 0.984 . S
H1300 N1288 0.984 . S
H1301 N1288 0.985 . S
C1302 C1303 1.363 . S
C1302 C1308 1.379 . S
C1302 N1310 1.356 1_554 S
C1303 C1302 1.363 . S
C1303 C1309 1.363 . S
C1304 C1305 1.363 1_545 S
C1304 C1309 1.379 . S
C1304 N1311 1.356 1_545 S
C1305 C1304 1.363 1_565 S
C1305 C1308 1.363 1_565 S
N1306 C1308 1.356 1_565 S
N1306 H1318 0.984 1_554 S
N1306 H1319 0.985 . S
N1307 C1309 1.356 . S
N1307 H1312 0.984 . S
N1307 H1313 0.985 . S
C1308 C1302 1.379 . S
C1308 C1305 1.363 1_545 S
C1308 N1306 1.356 1_545 S
C1309 C1303 1.363 . S
C1309 C1304 1.379 . S
C1309 N1307 1.356 . S
N1310 C1302 1.356 1_556 S
N1310 H1316 0.984 . S
N1310 H1317 0.986 . S
N1311 C1304 1.356 1_565 S
N1311 H1314 0.984 . S
N1311 H1315 0.985 1_565 S
H1312 N1307 0.984 . S
H1313 N1307 0.985 . S
H1314 N1311 0.984 . S
H1315 N1311 0.985 1_545 S
H1316 N1310 0.984 . S
H1317 N1310 0.986 . S
H1318 N1306 0.984 1_556 S
H1319 N1306 0.985 . S
C1320 C1321 1.363 . S
C1320 C1326 1.379 . S
C1320 N1328 1.356 . S
C1321 C1320 1.363 . S
C1321 C1327 1.363 . S
C1322 C1323 1.363 . S
C1322 C1327 1.379 . S
C1322 N1329 1.356 . S
C1323 C1322 1.363 . S
C1323 C1326 1.363 . S
N1324 C1326 1.356 . S
N1324 H1336 0.984 . S
N1324 H1337 0.985 . S
N1325 C1327 1.356 . S
N1325 H1330 0.984 . S
N1325 H1331 0.985 . S
C1326 C1320 1.379 . S
C1326 C1323 1.363 . S
C1326 N1324 1.356 . S
C1327 C1321 1.363 . S
C1327 C1322 1.379 . S
C1327 N1325 1.356 . S
N1328 C1320 1.356 . S
N1328 H1334 0.984 . S
N1328 H1335 0.984 . S
N1329 C1322 1.356 . S
N1329 H1332 0.984 . S
N1329 H1333 0.985 . S
H1330 N1325 0.984 . S
H1331 N1325 0.985 . S
H1332 N1329 0.984 . S
H1333 N1329 0.985 . S
H1334 N1328 0.984 . S
H1335 N1328 0.984 . S
H1336 N1324 0.984 . S
H1337 N1324 0.985 . S
C1338 C1339 1.363 1_545 S
C1338 C1344 1.379 . S
C1338 N1346 1.356 1_545 S
C1339 C1338 1.363 1_565 S
C1339 C1345 1.363 1_565 S
C1340 C1341 1.363 . S
C1340 C1345 1.379 . S
C1340 N1347 1.356 . S
C1341 C1340 1.363 . S
C1341 C1344 1.363 . S
N1342 C1344 1.356 . S
N1342 H1354 0.984 . S
N1342 H1355 0.985 . S
N1343 C1345 1.356 1_565 S
N1343 H1348 0.984 . S
N1343 H1349 0.985 . S
C1344 C1338 1.379 . S
C1344 C1341 1.363 . S
C1344 N1342 1.356 . S
C1345 C1339 1.363 1_545 S
C1345 C1340 1.379 . S
C1345 N1343 1.356 1_545 S
N1346 C1338 1.356 1_565 S
N1346 H1352 0.984 . S
N1346 H1353 0.984 . S
N1347 C1340 1.356 . S
N1347 H1350 0.984 . S
N1347 H1351 0.985 . S
H1348 N1343 0.984 . S
H1349 N1343 0.985 . S
H1350 N1347 0.984 . S
H1351 N1347 0.985 . S
H1352 N1346 0.984 . S
H1353 N1346 0.984 . S
H1354 N1342 0.984 . S
H1355 N1342 0.985 . S
C1356 C1357 1.363 . S
C1356 C1362 1.379 . S
C1356 N1364 1.356 . S
C1357 C1356 1.363 . S
C1357 C1363 1.363 . S
C1358 C1359 1.363 . S
C1358 C1363 1.379 . S
C1358 N1365 1.356 . S
C1359 C1358 1.363 . S
C1359 C1362 1.363 . S
N1360 C1362 1.356 . S
N1360 H1372 0.984 . S
N1360 H1373 0.985 . S
N1361 C1363 1.356 . S
N1361 H1366 0.984 . S
N1361 H1367 0.985 . S
C1362 C1356 1.379 . S
C1362 C1359 1.363 . S
C1362 N1360 1.356 . S
C1363 C1357 1.363 . S
C1363 C1358 1.379 . S
C1363 N1361 1.356 . S
N1364 C1356 1.356 . S
N1364 H1370 0.984 1_565 S
N1364 H1371 0.984 . S
N1365 C1358 1.356 . S
N1365 H1368 0.984 . S
N1365 H1369 0.985 . S
H1366 N1361 0.984 . S
H1367 N1361 0.985 . S
H1368 N1365 0.984 . S
H1369 N1365 0.985 . S
H1370 N1364 0.984 1_545 S
H1371 N1364 0.984 . S
H1372 N1360 0.984 . S
H1373 N1360 0.985 . S
C1374 C1375 1.363 . S
C1374 C1380 1.379 . S
C1374 N1382 1.356 1_556 S
C1375 C1374 1.363 . S
C1375 C1381 1.363 . S
C1376 C1377 1.363 . S
C1376 C1381 1.379 . S
C1376 N1383 1.335 1_545 S
C1377 C1376 1.363 . S
C1377 C1380 1.363 . S
N1378 C1380 1.356 . S
N1378 H1390 0.984 1_556 S
N1378 H1391 0.985 1_545 S
N1379 C1381 1.356 . S
N1379 H1384 0.984 . S
N1379 H1385 0.985 . S
C1380 C1374 1.379 . S
C1380 C1377 1.363 . S
C1380 N1378 1.356 . S
C1381 C1375 1.363 . S
C1381 C1376 1.379 . S
C1381 N1379 1.356 . S
N1382 C1374 1.356 1_554 S
N1382 H1388 0.984 . S
N1382 H1389 0.984 . S
N1383 C1376 1.335 1_565 S
N1383 H1386 1.009 . S
N1383 H1387 0.980 1_565 S
H1384 N1379 0.984 . S
H1385 N1379 0.985 . S
H1386 N1383 1.009 . S
H1387 N1383 0.980 1_545 S
H1388 N1382 0.984 . S
H1389 N1382 0.984 . S
H1390 N1378 0.984 1_554 S
H1391 N1378 0.985 1_565 S
C1392 C1393 1.363 . S
C1392 C1398 1.379 . S
C1392 N1400 1.356 . S
C1393 C1392 1.363 . S
C1393 C1399 1.363 . S
C1394 C1395 1.363 . S
C1394 C1399 1.379 . S
C1394 N1401 1.356 . S
C1395 C1394 1.363 . S
C1395 C1398 1.363 . S
N1396 C1398 1.356 . S
N1396 H1408 0.984 . S
N1396 H1409 0.985 . S
N1397 C1399 1.356 . S
N1397 H1402 0.984 . S
N1397 H1403 0.985 . S
C1398 C1392 1.379 . S
C1398 C1395 1.363 . S
C1398 N1396 1.356 . S
C1399 C1393 1.363 . S
C1399 C1394 1.379 . S
C1399 N1397 1.356 . S
N1400 C1392 1.356 . S
N1400 H1406 0.984 . S
N1400 H1407 0.984 . S
N1401 C1394 1.356 . S
N1401 H1404 0.984 . S
N1401 H1405 0.985 . S
H1402 N1397 0.984 . S
H1403 N1397 0.985 . S
H1404 N1401 0.984 . S
H1405 N1401 0.985 . S
H1406 N1400 0.984 . S
H1407 N1400 0.984 . S
H1408 N1396 0.984 . S
H1409 N1396 0.985 . S
C1410 C1411 1.363 . S
C1410 C1416 1.379 . S
C1410 N1418 1.356 . S
C1411 C1410 1.363 . S
C1411 C1417 1.363 . S
C1412 C1413 1.363 . S
C1412 C1417 1.379 . S
C1412 N1419 1.356 . S
C1413 C1412 1.363 . S
C1413 C1416 1.363 . S
N1414 C1416 1.356 . S
N1414 H1426 0.984 . S
N1414 H1427 0.985 . S
N1415 C1417 1.356 . S
N1415 H1420 0.984 . S
N1415 H1421 0.985 . S
C1416 C1410 1.379 . S
C1416 C1413 1.363 . S
C1416 N1414 1.356 . S
C1417 C1411 1.363 . S
C1417 C1412 1.379 . S
C1417 N1415 1.356 . S
N1418 C1410 1.356 . S
N1418 H1424 0.984 . S
N1418 H1425 0.984 . S
N1419 C1412 1.356 . S
N1419 H1422 0.984 . S
N1419 H1423 0.985 . S
H1420 N1415 0.984 . S
H1421 N1415 0.985 . S
H1422 N1419 0.984 . S
H1423 N1419 0.985 . S
H1424 N1418 0.984 . S
H1425 N1418 0.984 . S
H1426 N1414 0.984 . S
H1427 N1414 0.985 . S
C1428 C1429 1.363 . S
C1428 C1434 1.379 1_655 S
C1428 N1436 1.356 . S
C1429 C1428 1.363 . S
C1429 C1435 1.363 . S
C1430 C1431 1.363 . S
C1430 C1435 1.379 1_455 S
C1430 N1437 1.356 . S
C1431 C1430 1.363 . S
C1431 C1434 1.363 . S
N1432 C1434 1.356 . S
N1432 H1444 0.984 . S
N1432 H1445 0.985 . S
N1433 C1435 1.356 . S
N1433 H1438 0.984 . S
N1433 H1439 0.985 . S
C1434 C1428 1.379 1_455 S
C1434 C1431 1.363 . S
C1434 N1432 1.356 . S
C1435 C1429 1.363 . S
C1435 C1430 1.379 1_655 S
C1435 N1433 1.356 . S
N1436 C1428 1.356 . S
N1436 H1442 0.984 . S
N1436 H1443 0.984 . S
N1437 C1430 1.356 . S
N1437 H1440 0.984 . S
N1437 H1441 0.985 . S
H1438 N1433 0.984 . S
H1439 N1433 0.985 . S
H1440 N1437 0.984 . S
H1441 N1437 0.985 . S
H1442 N1436 0.984 . S
H1443 N1436 0.984 . S
H1444 N1432 0.984 . S
H1445 N1432 0.985 . S
C1446 C1447 1.363 . S
C1446 C1452 1.379 . S
C1446 N1454 1.356 . S
C1447 C1446 1.363 . S
C1447 C1453 1.363 . S
C1448 C1449 1.363 . S
C1448 C1453 1.379 . S
C1448 N1455 1.356 . S
C1449 C1448 1.363 . S
C1449 C1452 1.363 . S
N1450 C1452 1.356 . S
N1450 H1462 0.984 . S
N1450 H1463 0.985 . S
N1451 C1453 1.356 . S
N1451 H1456 0.984 . S
N1451 H1457 0.985 . S
C1452 C1446 1.379 . S
C1452 C1449 1.363 . S
C1452 N1450 1.356 . S
C1453 C1447 1.363 . S
C1453 C1448 1.379 . S
C1453 N1451 1.356 . S
N1454 C1446 1.356 . S
N1454 H1460 0.984 . S
N1454 H1461 0.984 . S
N1455 C1448 1.356 . S
N1455 H1458 0.984 . S
N1455 H1459 0.985 . S
H1456 N1451 0.984 . S
H1457 N1451 0.985 . S
H1458 N1455 0.984 . S
H1459 N1455 0.985 . S
H1460 N1454 0.984 . S
H1461 N1454 0.984 . S
H1462 N1450 0.984 . S
H1463 N1450 0.985 . S
C1464 C1465 1.363 . S
C1464 C1470 1.379 1_455 S
C1464 N1472 1.356 . S
C1465 C1464 1.363 . S
C1465 C1471 1.363 1_545 S
C1466 C1467 1.363 1_565 S
C1466 C1471 1.379 1_655 S
C1466 N1473 1.356 . S
C1467 C1466 1.363 1_545 S
C1467 C1470 1.363 . S
N1468 C1470 1.356 . S
N1468 H1480 0.984 . S
N1468 H1481 0.985 . S
N1469 C1471 1.356 . S
N1469 H1474 0.984 . S
N1469 H1475 0.985 . S
C1470 C1464 1.379 1_655 S
C1470 C1467 1.363 . S
C1470 N1468 1.356 . S
C1471 C1465 1.363 1_565 S
C1471 C1466 1.379 1_455 S
C1471 N1469 1.356 . S
N1472 C1464 1.356 . S
N1472 H1478 0.984 . S
N1472 H1479 0.984 . S
N1473 C1466 1.356 . S
N1473 H1476 0.984 . S
N1473 H1477 0.985 . S
H1474 N1469 0.984 . S
H1475 N1469 0.985 . S
H1476 N1473 0.984 . S
H1477 N1473 0.985 . S
H1478 N1472 0.984 . S
H1479 N1472 0.984 . S
H1480 N1468 0.984 . S
H1481 N1468 0.985 . S
C1482 C1483 1.363 . S
C1482 C1488 1.379 . S
C1482 N1490 1.356 . S
C1483 C1482 1.363 . S
C1483 C1489 1.363 . S
C1484 C1485 1.363 . S
C1484 C1489 1.379 . S
C1484 N1491 1.356 . S
C1485 C1484 1.363 . S
C1485 C1488 1.363 . S
N1486 C1488 1.356 . S
N1486 H1498 0.984 . S
N1486 H1499 0.985 . S
N1487 C1489 1.356 . S
N1487 H1492 0.984 . S
N1487 H1493 0.985 . S
C1488 C1482 1.379 . S
C1488 C1485 1.363 . S
C1488 N1486 1.356 . S
C1489 C1483 1.363 . S
C1489 C1484 1.379 . S
C1489 N1487 1.356 . S
N1490 C1482 1.356 . S
N1490 H1496 0.984 . S
N1490 H1497 0.984 . S
N1491 C1484 1.356 . S
N1491 H1494 0.984 . S
N1491 H1495 0.985 . S
H1492 N1487 0.984 . S
H1493 N1487 0.985 . S
H1494 N1491 0.984 . S
H1495 N1491 0.985 . S
H1496 N1490 0.984 . S
H1497 N1490 0.984 . S
H1498 N1486 0.984 . S
H1499 N1486 0.985 . S
C1500 C1501 1.363 . S
C1500 C1506 1.379 1_655 S
C1500 N1508 1.356 . S
C1501 C1500 1.363 . S
C1501 C1507 1.363 . S
C1502 C1503 1.363 . S
C1502 C1507 1.379 1_455 S
C1502 N1509 1.356 . S
C1503 C1502 1.363 . S
C1503 C1506 1.363 . S
N1504 C1506 1.356 . S
N1504 H1516 0.984 . S
N1504 H1517 0.985 . S
N1505 C1507 1.356 . S
N1505 H1510 0.984 . S
N1505 H1511 0.985 . S
C1506 C1500 1.379 1_455 S
C1506 C1503 1.363 . S
C1506 N1504 1.356 . S
C1507 C1501 1.363 . S
C1507 C1502 1.379 1_655 S
C1507 N1505 1.356 . S
N1508 C1500 1.356 . S
N1508 H1514 0.984 . S
N1508 H1515 0.984 . S
N1509 C1502 1.356 . S
N1509 H1512 0.984 . S
N1509 H1513 0.985 . S
H1510 N1505 0.984 . S
H1511 N1505 0.985 . S
H1512 N1509 0.984 . S
H1513 N1509 0.985 . S
H1514 N1508 0.984 . S
H1515 N1508 0.984 . S
H1516 N1504 0.984 . S
H1517 N1504 0.985 . S
C1518 C1519 1.363 . S
C1518 C1524 1.379 . S
C1518 N1526 1.356 . S
C1519 C1518 1.363 . S
C1519 C1525 1.363 . S
C1520 C1521 1.363 . S
C1520 C1525 1.379 . S
C1520 N1527 1.356 . S
C1521 C1520 1.363 . S
C1521 C1524 1.363 . S
N1522 C1524 1.356 . S
N1522 H1534 0.984 . S
N1522 H1535 0.985 . S
N1523 C1525 1.356 . S
N1523 H1528 0.984 . S
N1523 H1529 0.985 . S
C1524 C1518 1.379 . S
C1524 C1521 1.363 . S
C1524 N1522 1.356 . S
C1525 C1519 1.363 . S
C1525 C1520 1.379 . S
C1525 N1523 1.356 . S
N1526 C1518 1.356 . S
N1526 H1532 0.984 . S
N1526 H1533 0.984 . S
N1527 C1520 1.356 . S
N1527 H1530 0.984 . S
N1527 H1531 0.985 . S
H1528 N1523 0.984 . S
H1529 N1523 0.985 . S
H1530 N1527 0.984 . S
H1531 N1527 0.985 . S
H1532 N1526 0.984 . S
H1533 N1526 0.984 . S
H1534 N1522 0.984 . S
H1535 N1522 0.985 . S
C1536 C1537 1.363 . S
C1536 C1542 1.379 . S
C1536 N1544 1.356 . S
C1537 C1536 1.363 . S
C1537 C1543 1.363 . S
C1538 C1539 1.363 . S
C1538 C1543 1.379 . S
C1538 N1545 1.356 . S
C1539 C1538 1.363 . S
C1539 C1542 1.363 . S
N1540 C1542 1.356 . S
N1540 H1552 0.984 . S
N1540 H1553 0.985 . S
N1541 C1543 1.356 . S
N1541 H1546 0.984 . S
N1541 H1547 0.985 . S
C1542 C1536 1.379 . S
C1542 C1539 1.363 . S
C1542 N1540 1.356 . S
C1543 C1537 1.363 . S
C1543 C1538 1.379 . S
C1543 N1541 1.356 . S
N1544 C1536 1.356 . S
N1544 H1550 0.984 . S
N1544 H1551 0.984 . S
N1545 C1538 1.356 . S
N1545 H1548 0.984 . S
N1545 H1549 0.985 . S
H1546 N1541 0.984 . S
H1547 N1541 0.985 . S
H1548 N1545 0.984 . S
H1549 N1545 0.985 . S
H1550 N1544 0.984 . S
H1551 N1544 0.984 . S
H1552 N1540 0.984 . S
H1553 N1540 0.985 . S
C1554 C1555 1.363 . S
C1554 C1560 1.379 . S
C1554 N1562 1.356 . S
C1555 C1554 1.363 . S
C1555 C1561 1.363 . S
C1556 C1557 1.363 1_554 S
C1556 C1561 1.379 . S
C1556 N1563 1.356 1_554 S
C1557 C1556 1.363 1_556 S
C1557 C1560 1.363 1_556 S
N1558 C1560 1.356 . S
N1558 H1570 0.984 . S
N1558 H1571 0.985 1_554 S
N1559 C1561 1.356 . S
N1559 H1564 0.984 . S
N1559 H1565 0.985 . S
C1560 C1554 1.379 . S
C1560 C1557 1.363 1_554 S
C1560 N1558 1.356 . S
C1561 C1555 1.363 . S
C1561 C1556 1.379 . S
C1561 N1559 1.356 . S
N1562 C1554 1.356 . S
N1562 H1568 0.984 . S
N1562 H1569 0.984 . S
N1563 C1556 1.356 1_556 S
N1563 H1566 0.984 . S
N1563 H1567 0.985 . S
H1564 N1559 0.984 . S
H1565 N1559 0.985 . S
H1566 N1563 0.984 . S
H1567 N1563 0.985 . S
H1568 N1562 0.984 . S
H1569 N1562 0.984 . S
H1570 N1558 0.984 . S
H1571 N1558 0.985 1_556 S
C1572 C1573 1.363 . S
C1572 C1578 1.379 . S
C1572 N1580 1.356 1_655 S
C1573 C1572 1.363 . S
C1573 C1579 1.363 . S
C1574 C1575 1.363 . S
C1574 C1579 1.379 . S
C1574 N1581 1.356 . S
C1575 C1574 1.363 . S
C1575 C1578 1.363 . S
N1576 C1578 1.356 . S
N1576 H1588 0.984 . S
N1576 H1589 0.985 . S
N1577 C1579 1.356 . S
N1577 H1582 0.984 . S
N1577 H1583 0.985 . S
C1578 C1572 1.379 . S
C1578 C1575 1.363 . S
C1578 N1576 1.356 . S
C1579 C1573 1.363 . S
C1579 C1574 1.379 . S
C1579 N1577 1.356 . S
N1580 C1572 1.356 1_455 S
N1580 H1586 0.984 . S
N1580 H1587 0.984 . S
N1581 C1574 1.356 . S
N1581 H1584 0.984 . S
N1581 H1585 0.985 . S
H1582 N1577 0.984 . S
H1583 N1577 0.985 . S
H1584 N1581 0.984 . S
H1585 N1581 0.985 . S
H1586 N1580 0.984 . S
H1587 N1580 0.984 . S
H1588 N1576 0.984 . S
H1589 N1576 0.985 . S
C1590 C1591 1.363 . S
C1590 C1596 1.379 . S
C1590 N1598 1.356 . S
C1591 C1590 1.363 . S
C1591 C1597 1.363 . S
C1592 C1593 1.363 . S
C1592 C1597 1.379 . S
C1592 N1599 1.356 . S
C1593 C1592 1.363 . S
C1593 C1596 1.363 . S
N1594 C1596 1.356 . S
N1594 H1606 0.984 . S
N1594 H1607 0.985 . S
N1595 C1597 1.356 . S
N1595 H1600 0.984 . S
N1595 H1601 0.985 . S
C1596 C1590 1.379 . S
C1596 C1593 1.363 . S
C1596 N1594 1.356 . S
C1597 C1591 1.363 . S
C1597 C1592 1.379 . S
C1597 N1595 1.356 . S
N1598 C1590 1.356 . S
N1598 H1604 0.984 . S
N1598 H1605 0.984 . S
N1599 C1592 1.356 . S
N1599 H1602 0.984 . S
N1599 H1603 0.985 . S
H1600 N1595 0.984 . S
H1601 N1595 0.985 . S
H1602 N1599 0.984 . S
H1603 N1599 0.985 . S
H1604 N1598 0.984 . S
H1605 N1598 0.984 . S
H1606 N1594 0.984 . S
H1607 N1594 0.985 . S
C1608 C1609 1.363 . S
C1608 C1614 1.379 . S
C1608 N1616 1.356 . S
C1609 C1608 1.363 . S
C1609 C1615 1.363 . S
C1610 C1611 1.363 . S
C1610 C1615 1.379 . S
C1610 N1617 1.356 . S
C1611 C1610 1.363 . S
C1611 C1614 1.363 . S
N1612 C1614 1.356 . S
N1612 H1624 0.984 . S
N1612 H1625 0.985 . S
N1613 C1615 1.356 . S
N1613 H1618 0.984 . S
N1613 H1619 0.985 . S
C1614 C1608 1.379 . S
C1614 C1611 1.363 . S
C1614 N1612 1.356 . S
C1615 C1609 1.363 . S
C1615 C1610 1.379 . S
C1615 N1613 1.356 . S
N1616 C1608 1.356 . S
N1616 H1622 0.984 . S
N1616 H1623 0.984 . S
N1617 C1610 1.356 . S
N1617 H1620 0.984 . S
N1617 H1621 0.985 . S
H1618 N1613 0.984 . S
H1619 N1613 0.985 . S
H1620 N1617 0.984 . S
H1621 N1617 0.985 . S
H1622 N1616 0.984 . S
H1623 N1616 0.984 . S
H1624 N1612 0.984 . S
H1625 N1612 0.985 . S
C1626 C1627 1.363 . S
C1626 C1632 1.379 1_556 S
C1626 N1634 1.356 . S
C1627 C1626 1.363 . S
C1627 C1633 1.363 1_556 S
C1628 C1629 1.363 . S
C1628 C1633 1.379 . S
C1628 N1635 1.356 . S
C1629 C1628 1.363 . S
C1629 C1632 1.363 . S
N1630 C1632 1.356 . S
N1630 H1642 0.984 . S
N1630 H1643 0.985 . S
N1631 C1633 1.356 1_556 S
N1631 H1636 0.984 . S
N1631 H1637 0.985 1_556 S
C1632 C1626 1.379 1_554 S
C1632 C1629 1.363 . S
C1632 N1630 1.356 . S
C1633 C1627 1.363 1_554 S
C1633 C1628 1.379 . S
C1633 N1631 1.356 1_554 S
N1634 C1626 1.356 . S
N1634 H1640 0.984 . S
N1634 H1641 0.984 . S
N1635 C1628 1.356 . S
N1635 H1638 0.984 . S
N1635 H1639 0.985 . S
H1636 N1631 0.984 . S
H1637 N1631 0.985 1_554 S
H1638 N1635 0.984 . S
H1639 N1635 0.985 . S
H1640 N1634 0.984 . S
H1641 N1634 0.984 . S
H1642 N1630 0.984 . S
H1643 N1630 0.985 . S
C1644 C1645 1.363 . S
C1644 C1650 1.379 . S
C1644 N1652 1.356 . S
C1645 C1644 1.363 . S
C1645 C1651 1.363 . S
C1646 C1647 1.363 . S
C1646 C1651 1.379 . S
C1646 N1653 1.356 . S
C1647 C1646 1.363 . S
C1647 C1650 1.363 . S
N1648 C1650 1.356 . S
N1648 H1660 0.984 . S
N1648 H1661 0.985 . S
N1649 C1651 1.356 . S
N1649 H1654 0.984 . S
N1649 H1655 0.985 1_655 S
C1650 C1644 1.379 . S
C1650 C1647 1.363 . S
C1650 N1648 1.356 . S
C1651 C1645 1.363 . S
C1651 C1646 1.379 . S
C1651 N1649 1.356 . S
N1652 C1644 1.356 . S
N1652 H1658 0.984 . S
N1652 H1659 0.984 . S
N1653 C1646 1.356 . S
N1653 H1656 0.984 . S
N1653 H1657 0.985 . S
H1654 N1649 0.984 . S
H1655 N1649 0.985 1_455 S
H1656 N1653 0.984 . S
H1657 N1653 0.985 . S
H1658 N1652 0.984 . S
H1659 N1652 0.984 . S
H1660 N1648 0.984 . S
H1661 N1648 0.985 . S
C1662 C1663 1.363 . S
C1662 C1668 1.379 . S
C1662 N1670 1.356 . S
C1663 C1662 1.363 . S
C1663 C1669 1.363 . S
C1664 C1665 1.363 . S
C1664 C1669 1.379 . S
C1664 N1671 1.356 . S
C1665 C1664 1.363 . S
C1665 C1668 1.363 . S
N1666 C1668 1.356 . S
N1666 H1678 0.984 . S
N1666 H1679 0.985 . S
N1667 C1669 1.356 . S
N1667 H1672 0.984 . S
N1667 H1673 0.985 . S
C1668 C1662 1.379 . S
C1668 C1665 1.363 . S
C1668 N1666 1.356 . S
C1669 C1663 1.363 . S
C1669 C1664 1.379 . S
C1669 N1667 1.356 . S
N1670 C1662 1.356 . S
N1670 H1676 0.984 . S
N1670 H1677 0.984 . S
N1671 C1664 1.356 . S
N1671 H1674 0.984 . S
N1671 H1675 0.985 . S
H1672 N1667 0.984 . S
H1673 N1667 0.985 . S
H1674 N1671 0.984 . S
H1675 N1671 0.985 . S
H1676 N1670 0.984 . S
H1677 N1670 0.984 . S
H1678 N1666 0.984 . S
H1679 N1666 0.985 . S
C1680 C1681 1.363 . S
C1680 C1686 1.379 . S
C1680 N1688 1.356 . S
C1681 C1680 1.363 . S
C1681 C1687 1.363 . S
C1682 C1683 1.363 . S
C1682 C1687 1.379 . S
C1682 N1689 1.356 . S
C1683 C1682 1.363 . S
C1683 C1686 1.363 . S
N1684 C1686 1.356 . S
N1684 H1696 0.984 . S
N1684 H1697 0.985 . S
N1685 C1687 1.356 . S
N1685 H1690 0.984 . S
N1685 H1691 0.985 . S
C1686 C1680 1.379 . S
C1686 C1683 1.363 . S
C1686 N1684 1.356 . S
C1687 C1681 1.363 . S
C1687 C1682 1.379 . S
C1687 N1685 1.356 . S
N1688 C1680 1.356 . S
N1688 H1694 0.984 . S
N1688 H1695 0.984 . S
N1689 C1682 1.356 . S
N1689 H1692 0.984 . S
N1689 H1693 0.985 . S
H1690 N1685 0.984 . S
H1691 N1685 0.985 . S
H1692 N1689 0.984 . S
H1693 N1689 0.985 . S
H1694 N1688 0.984 . S
H1695 N1688 0.984 . S
H1696 N1684 0.984 . S
H1697 N1684 0.985 . S
C1698 C1699 1.363 . S
C1698 C1704 1.379 . S
C1698 N1706 1.356 1_556 S
C1699 C1698 1.363 . S
C1699 C1705 1.363 . S
C1700 C1701 1.363 . S
C1700 C1705 1.379 . S
C1700 N1707 1.356 . S
C1701 C1700 1.363 . S
C1701 C1704 1.363 . S
N1702 C1704 1.356 1_554 S
N1702 H1714 0.984 . S
N1702 H1715 0.985 . S
N1703 C1705 1.356 . S
N1703 H1708 0.984 . S
N1703 H1709 0.985 . S
C1704 C1698 1.379 . S
C1704 C1701 1.363 . S
C1704 N1702 1.356 1_556 S
C1705 C1699 1.363 . S
C1705 C1700 1.379 . S
C1705 N1703 1.356 . S
N1706 C1698 1.356 1_554 S
N1706 H1712 0.984 . S
N1706 H1713 0.984 1_554 S
N1707 C1700 1.356 . S
N1707 H1710 0.984 . S
N1707 H1711 0.985 . S
H1708 N1703 0.984 . S
H1709 N1703 0.985 . S
H1710 N1707 0.984 . S
H1711 N1707 0.985 . S
H1712 N1706 0.984 . S
H1713 N1706 0.984 1_556 S
H1714 N1702 0.984 . S
H1715 N1702 0.985 . S
C1716 C1717 1.363 . S
C1716 C1722 1.379 . S
C1716 N1724 1.356 . S
C1717 C1716 1.363 . S
C1717 C1723 1.363 . S
C1718 C1719 1.363 . S
C1718 C1723 1.379 . S
C1718 N1725 1.356 . S
C1719 C1718 1.363 . S
C1719 C1722 1.363 . S
N1720 C1722 1.356 . S
N1720 H1732 0.984 . S
N1720 H1733 0.985 . S
N1721 C1723 1.356 . S
N1721 H1726 0.984 . S
N1721 H1727 0.985 . S
C1722 C1716 1.379 . S
C1722 C1719 1.363 . S
C1722 N1720 1.356 . S
C1723 C1717 1.363 . S
C1723 C1718 1.379 . S
C1723 N1721 1.356 . S
N1724 C1716 1.356 . S
N1724 H1730 0.984 . S
N1724 H1731 0.984 . S
N1725 C1718 1.356 . S
N1725 H1728 0.984 . S
N1725 H1729 0.985 . S
H1726 N1721 0.984 . S
H1727 N1721 0.985 . S
H1728 N1725 0.984 . S
H1729 N1725 0.985 . S
H1730 N1724 0.984 . S
H1731 N1724 0.984 . S
H1732 N1720 0.984 . S
H1733 N1720 0.985 . S
C1734 C1735 1.363 . S
C1734 C1740 1.379 . S
C1734 N1742 1.356 . S
C1735 C1734 1.363 . S
C1735 C1741 1.363 . S
C1736 C1737 1.363 . S
C1736 C1741 1.379 . S
C1736 N1743 1.356 . S
C1737 C1736 1.363 . S
C1737 C1740 1.363 . S
N1738 C1740 1.356 . S
N1738 H1750 0.984 . S
N1738 H1751 0.985 . S
N1739 C1741 1.356 . S
N1739 H1744 0.984 . S
N1739 H1745 0.985 . S
C1740 C1734 1.379 . S
C1740 C1737 1.363 . S
C1740 N1738 1.356 . S
C1741 C1735 1.363 . S
C1741 C1736 1.379 . S
C1741 N1739 1.356 . S
N1742 C1734 1.356 . S
N1742 H1748 0.984 . S
N1742 H1749 0.984 . S
N1743 C1736 1.356 . S
N1743 H1746 0.984 . S
N1743 H1747 0.985 . S
H1744 N1739 0.984 . S
H1745 N1739 0.985 . S
H1746 N1743 0.984 . S
H1747 N1743 0.985 . S
H1748 N1742 0.984 . S
H1749 N1742 0.984 . S
H1750 N1738 0.984 . S
H1751 N1738 0.985 . S
C1752 C1753 1.363 . S
C1752 C1758 1.379 . S
C1752 N1760 1.356 . S
C1753 C1752 1.363 . S
C1753 C1759 1.363 . S
C1754 C1755 1.363 . S
C1754 C1759 1.379 . S
C1754 N1761 1.356 . S
C1755 C1754 1.363 . S
C1755 C1758 1.363 . S
N1756 C1758 1.356 . S
N1756 H1768 0.984 . S
N1756 H1769 0.985 . S
N1757 C1759 1.356 . S
N1757 H1762 0.984 . S
N1757 H1763 0.985 . S
C1758 C1752 1.379 . S
C1758 C1755 1.363 . S
C1758 N1756 1.356 . S
C1759 C1753 1.363 . S
C1759 C1754 1.379 . S
C1759 N1757 1.356 . S
N1760 C1752 1.356 . S
N1760 H1766 0.984 . S
N1760 H1767 0.984 . S
N1761 C1754 1.356 . S
N1761 H1764 0.984 . S
N1761 H1765 0.985 . S
H1762 N1757 0.984 . S
H1763 N1757 0.985 . S
H1764 N1761 0.984 . S
H1765 N1761 0.985 . S
H1766 N1760 0.984 . S
H1767 N1760 0.984 . S
H1768 N1756 0.984 . S
H1769 N1756 0.985 . S
C1770 C1771 1.363 . S
C1770 C1776 1.379 . S
C1770 N1778 1.356 . S
C1771 C1770 1.363 . S
C1771 C1777 1.363 . S
C1772 C1773 1.363 . S
C1772 C1777 1.379 . S
C1772 N1779 1.356 . S
C1773 C1772 1.363 . S
C1773 C1776 1.363 . S
N1774 C1776 1.356 . S
N1774 H1786 0.984 . S
N1774 H1787 0.985 . S
N1775 C1777 1.356 . S
N1775 H1780 0.984 . S
N1775 H1781 0.985 . S
C1776 C1770 1.379 . S
C1776 C1773 1.363 . S
C1776 N1774 1.356 . S
C1777 C1771 1.363 . S
C1777 C1772 1.379 . S
C1777 N1775 1.356 . S
N1778 C1770 1.356 . S
N1778 H1784 0.984 . S
N1778 H1785 0.984 . S
N1779 C1772 1.356 . S
N1779 H1782 0.984 . S
N1779 H1783 0.985 . S
H1780 N1775 0.984 . S
H1781 N1775 0.985 . S
H1782 N1779 0.984 . S
H1783 N1779 0.985 . S
H1784 N1778 0.984 . S
H1785 N1778 0.984 . S
H1786 N1774 0.984 . S
H1787 N1774 0.985 . S
C1788 C1789 1.363 . S
C1788 C1794 1.379 . S
C1788 N1796 1.356 . S
C1789 C1788 1.363 . S
C1789 C1795 1.363 . S
C1790 C1791 1.363 . S
C1790 C1795 1.379 . S
C1790 N1797 1.356 . S
C1791 C1790 1.363 . S
C1791 C1794 1.363 . S
N1792 C1794 1.356 . S
N1792 H1804 0.984 . S
N1792 H1805 0.985 . S
N1793 C1795 1.356 . S
N1793 H1798 0.984 . S
N1793 H1799 0.985 . S
C1794 C1788 1.379 . S
C1794 C1791 1.363 . S
C1794 N1792 1.356 . S
C1795 C1789 1.363 . S
C1795 C1790 1.379 . S
C1795 N1793 1.356 . S
N1796 C1788 1.356 . S
N1796 H1802 0.984 . S
N1796 H1803 0.984 . S
N1797 C1790 1.356 . S
N1797 H1800 0.984 . S
N1797 H1801 0.985 . S
H1798 N1793 0.984 . S
H1799 N1793 0.985 . S
H1800 N1797 0.984 . S
H1801 N1797 0.985 . S
H1802 N1796 0.984 . S
H1803 N1796 0.984 . S
H1804 N1792 0.984 . S
H1805 N1792 0.985 . S
C1806 C1807 1.363 . S
C1806 C1812 1.379 . S
C1806 N1814 1.356 . S
C1807 C1806 1.363 . S
C1807 C1813 1.363 . S
C1808 C1809 1.363 . S
C1808 C1813 1.379 . S
C1808 N1815 1.356 . S
C1809 C1808 1.363 . S
C1809 C1812 1.363 . S
N1810 C1812 1.356 . S
N1810 H1822 0.984 . S
N1810 H1823 0.985 . S
N1811 C1813 1.356 . S
N1811 H1816 0.984 . S
N1811 H1817 0.985 . S
C1812 C1806 1.379 . S
C1812 C1809 1.363 . S
C1812 N1810 1.356 . S
C1813 C1807 1.363 . S
C1813 C1808 1.379 . S
C1813 N1811 1.356 . S
N1814 C1806 1.356 . S
N1814 H1820 0.984 . S
N1814 H1821 0.984 . S
N1815 C1808 1.356 . S
N1815 H1818 0.984 . S
N1815 H1819 0.985 . S
H1816 N1811 0.984 . S
H1817 N1811 0.985 . S
H1818 N1815 0.984 . S
H1819 N1815 0.985 . S
H1820 N1814 0.984 . S
H1821 N1814 0.984 . S
H1822 N1810 0.984 . S
H1823 N1810 0.985 . S
C1824 C1825 1.363 . S
C1824 C1830 1.379 . S
C1824 N1832 1.356 . S
C1825 C1824 1.363 . S
C1825 C1831 1.363 . S
C1826 C1827 1.363 . S
C1826 C1831 1.379 . S
C1826 N1833 1.356 . S
C1827 C1826 1.363 . S
C1827 C1830 1.363 . S
N1828 C1830 1.356 . S
N1828 H1840 0.984 . S
N1828 H1841 0.985 . S
N1829 C1831 1.356 . S
N1829 H1834 0.984 . S
N1829 H1835 0.985 . S
C1830 C1824 1.379 . S
C1830 C1827 1.363 . S
C1830 N1828 1.356 . S
C1831 C1825 1.363 . S
C1831 C1826 1.379 . S
C1831 N1829 1.356 . S
N1832 C1824 1.356 . S
N1832 H1838 0.984 . S
N1832 H1839 0.984 . S
N1833 C1826 1.356 . S
N1833 H1836 0.984 . S
N1833 H1837 0.985 . S
H1834 N1829 0.984 . S
H1835 N1829 0.985 . S
H1836 N1833 0.984 . S
H1837 N1833 0.985 . S
H1838 N1832 0.984 . S
H1839 N1832 0.984 . S
H1840 N1828 0.984 . S
H1841 N1828 0.985 . S
C1842 C1843 1.363 . S
C1842 C1848 1.379 . S
C1842 N1850 1.356 . S
C1843 C1842 1.363 . S
C1843 C1849 1.363 . S
C1844 C1845 1.363 . S
C1844 C1849 1.379 . S
C1844 N1851 1.356 . S
C1845 C1844 1.363 . S
C1845 C1848 1.363 . S
N1846 C1848 1.356 . S
N1846 H1858 0.984 . S
N1846 H1859 0.985 . S
N1847 C1849 1.356 . S
N1847 H1852 0.984 . S
N1847 H1853 0.985 . S
C1848 C1842 1.379 . S
C1848 C1845 1.363 . S
C1848 N1846 1.356 . S
C1849 C1843 1.363 . S
C1849 C1844 1.379 . S
C1849 N1847 1.356 . S
N1850 C1842 1.356 . S
N1850 H1856 0.984 . S
N1850 H1857 0.984 . S
N1851 C1844 1.356 . S
N1851 H1854 0.984 . S
N1851 H1855 0.985 . S
H1852 N1847 0.984 . S
H1853 N1847 0.985 . S
H1854 N1851 0.984 . S
H1855 N1851 0.985 . S
H1856 N1850 0.984 . S
H1857 N1850 0.984 . S
H1858 N1846 0.984 . S
H1859 N1846 0.985 . S
C1860 C1861 1.363 1_545 S
C1860 C1866 1.379 . S
C1860 N1868 1.356 . S
C1861 C1860 1.363 1_565 S
C1861 C1867 1.363 . S
C1862 C1863 1.363 . S
C1862 C1867 1.379 . S
C1862 N1869 1.356 . S
C1863 C1862 1.363 . S
C1863 C1866 1.363 1_565 S
N1864 C1866 1.356 . S
N1864 H1876 0.984 . S
N1864 H1877 0.985 . S
N1865 C1867 1.356 . S
N1865 H1870 0.984 . S
N1865 H1871 0.985 . S
C1866 C1860 1.379 . S
C1866 C1863 1.363 1_545 S
C1866 N1864 1.356 . S
C1867 C1861 1.363 . S
C1867 C1862 1.379 . S
C1867 N1865 1.356 . S
N1868 C1860 1.356 . S
N1868 H1874 0.984 . S
N1868 H1875 0.984 . S
N1869 C1862 1.356 . S
N1869 H1872 0.984 . S
N1869 H1873 0.985 . S
H1870 N1865 0.984 . S
H1871 N1865 0.985 . S
H1872 N1869 0.984 . S
H1873 N1869 0.985 . S
H1874 N1868 0.984 . S
H1875 N1868 0.984 . S
H1876 N1864 0.984 . S
H1877 N1864 0.985 . S
C1878 C1879 1.363 . S
C1878 C1884 1.379 . S
C1878 N1886 1.356 . S
C1879 C1878 1.363 . S
C1879 C1885 1.363 . S
C1880 C1881 1.363 . S
C1880 C1885 1.379 . S
C1880 N1887 1.356 . S
C1881 C1880 1.363 . S
C1881 C1884 1.363 . S
N1882 C1884 1.356 . S
N1882 H1894 0.984 . S
N1882 H1895 0.985 . S
N1883 C1885 1.356 1_554 S
N1883 H1888 0.984 . S
N1883 H1889 0.985 . S
C1884 C1878 1.379 . S
C1884 C1881 1.363 . S
C1884 N1882 1.356 . S
C1885 C1879 1.363 . S
C1885 C1880 1.379 . S
C1885 N1883 1.356 1_556 S
N1886 C1878 1.356 . S
N1886 H1892 0.984 . S
N1886 H1893 0.984 . S
N1887 C1880 1.356 . S
N1887 H1890 0.984 . S
N1887 H1891 0.985 1_556 S
H1888 N1883 0.984 . S
H1889 N1883 0.985 . S
H1890 N1887 0.984 . S
H1891 N1887 0.985 1_554 S
H1892 N1886 0.984 . S
H1893 N1886 0.984 . S
H1894 N1882 0.984 . S
H1895 N1882 0.985 . S
C1896 C1897 1.363 . S
C1896 C1902 1.379 . S
C1896 N1904 1.356 . S
C1897 C1896 1.363 . S
C1897 C1903 1.363 . S
C1898 C1899 1.363 . S
C1898 C1903 1.379 . S
C1898 N1905 1.356 . S
C1899 C1898 1.363 . S
C1899 C1902 1.363 . S
N1900 C1902 1.356 . S
N1900 H1912 0.984 . S
N1900 H1913 0.985 . S
N1901 C1903 1.356 . S
N1901 H1906 0.984 . S
N1901 H1907 0.985 . S
C1902 C1896 1.379 . S
C1902 C1899 1.363 . S
C1902 N1900 1.356 . S
C1903 C1897 1.363 . S
C1903 C1898 1.379 . S
C1903 N1901 1.356 . S
N1904 C1896 1.356 . S
N1904 H1910 0.984 . S
N1904 H1911 0.984 . S
N1905 C1898 1.356 . S
N1905 H1908 0.984 . S
N1905 H1909 0.985 . S
H1906 N1901 0.984 . S
H1907 N1901 0.985 . S
H1908 N1905 0.984 . S
H1909 N1905 0.985 . S
H1910 N1904 0.984 . S
H1911 N1904 0.984 . S
H1912 N1900 0.984 . S
H1913 N1900 0.985 . S
C1914 C1915 1.363 . S
C1914 C1920 1.379 . S
C1914 N1922 1.380 . S
C1915 C1914 1.363 . S
C1915 C1921 1.363 . S
C1916 C1917 1.363 . S
C1916 C1921 1.379 . S
C1916 N1923 1.356 . S
C1917 C1916 1.363 . S
C1917 C1920 1.363 . S
N1918 C1920 1.356 . S
N1918 H1930 0.984 . S
N1918 H1931 0.985 . S
N1919 C1921 1.356 . S
N1919 H1924 0.984 . S
N1919 H1925 0.985 . S
C1920 C1914 1.379 . S
C1920 C1917 1.363 . S
C1920 N1918 1.356 . S
C1921 C1915 1.363 . S
C1921 C1916 1.379 . S
C1921 N1919 1.356 . S
N1922 C1914 1.380 . S
N1922 H1928 0.965 1_554 S
N1922 H1929 0.981 1_554 S
N1923 C1916 1.356 . S
N1923 H1926 0.984 . S
N1923 H1927 0.985 . S
H1924 N1919 0.984 . S
H1925 N1919 0.985 . S
H1926 N1923 0.984 . S
H1927 N1923 0.985 . S
H1928 N1922 0.965 1_556 S
H1929 N1922 0.981 1_556 S
H1930 N1918 0.984 . S
H1931 N1918 0.985 . S
C1932 C1933 1.363 . S
C1932 C1938 1.379 . S
C1932 N1940 1.356 . S
C1933 C1932 1.363 . S
C1933 C1939 1.363 . S
C1934 C1935 1.363 . S
C1934 C1939 1.379 . S
C1934 N1941 1.356 . S
C1935 C1934 1.363 . S
C1935 C1938 1.363 . S
N1936 C1938 1.356 . S
N1936 H1948 0.984 . S
N1936 H1949 0.985 . S
N1937 C1939 1.356 . S
N1937 H1942 0.984 . S
N1937 H1943 0.985 . S
C1938 C1932 1.379 . S
C1938 C1935 1.363 . S
C1938 N1936 1.356 . S
C1939 C1933 1.363 . S
C1939 C1934 1.379 . S
C1939 N1937 1.356 . S
N1940 C1932 1.356 . S
N1940 H1946 0.984 . S
N1940 H1947 0.984 . S
N1941 C1934 1.356 . S
N1941 H1944 0.984 . S
N1941 H1945 0.985 . S
H1942 N1937 0.984 . S
H1943 N1937 0.985 . S
H1944 N1941 0.984 . S
H1945 N1941 0.985 . S
H1946 N1940 0.984 . S
H1947 N1940 0.984 . S
H1948 N1936 0.984 . S
H1949 N1936 0.985 . S
C1950 C1951 1.363 . S
C1950 C1956 1.379 1_655 S
C1950 N1958 1.356 . S
C1951 C1950 1.363 . S
C1951 C1957 1.363 . S
C1952 C1953 1.363 . S
C1952 C1957 1.379 1_455 S
C1952 N1959 1.356 1_565 S
C1953 C1952 1.363 . S
C1953 C1956 1.363 . S
N1954 C1956 1.356 . S
N1954 H1966 0.984 . S
N1954 H1967 0.985 . S
N1955 C1957 1.356 1_545 S
N1955 H1960 0.984 1_545 S
N1955 H1961 0.985 . S
C1956 C1950 1.379 1_455 S
C1956 C1953 1.363 . S
C1956 N1954 1.356 . S
C1957 C1951 1.363 . S
C1957 C1952 1.379 1_655 S
C1957 N1955 1.356 1_565 S
N1958 C1950 1.356 . S
N1958 H1964 0.984 . S
N1958 H1965 0.984 . S
N1959 C1952 1.356 1_545 S
N1959 H1962 0.984 . S
N1959 H1963 0.985 . S
H1960 N1955 0.984 1_565 S
H1961 N1955 0.985 . S
H1962 N1959 0.984 . S
H1963 N1959 0.985 . S
H1964 N1958 0.984 . S
H1965 N1958 0.984 . S
H1966 N1954 0.984 . S
H1967 N1954 0.985 . S
C1968 C1969 1.363 . S
C1968 C1974 1.379 . S
C1968 N1976 1.356 . S
C1969 C1968 1.363 . S
C1969 C1975 1.363 . S
C1970 C1971 1.363 . S
C1970 C1975 1.379 . S
C1970 N1977 1.356 . S
C1971 C1970 1.363 . S
C1971 C1974 1.363 . S
N1972 C1974 1.356 . S
N1972 H1984 0.984 . S
N1972 H1985 0.985 . S
N1973 C1975 1.356 . S
N1973 H1978 0.984 . S
N1973 H1979 0.985 . S
C1974 C1968 1.379 . S
C1974 C1971 1.363 . S
C1974 N1972 1.356 . S
C1975 C1969 1.363 . S
C1975 C1970 1.379 . S
C1975 N1973 1.356 . S
N1976 C1968 1.356 . S
N1976 H1982 0.984 . S
N1976 H1983 0.984 . S
N1977 C1970 1.356 . S
N1977 H1980 0.984 . S
N1977 H1981 0.985 . S
H1978 N1973 0.984 . S
H1979 N1973 0.985 . S
H1980 N1977 0.984 . S
H1981 N1977 0.985 . S
H1982 N1976 0.984 . S
H1983 N1976 0.984 . S
H1984 N1972 0.984 . S
H1985 N1972 0.985 . S
C1986 C1987 1.363 . S
C1986 C1992 1.379 1_556 S
C1986 N1994 1.356 . S
C1987 C1986 1.363 . S
C1987 C1993 1.363 . S
C1988 C1989 1.363 . S
C1988 C1993 1.379 1_554 S
C1988 N1995 1.356 . S
C1989 C1988 1.363 . S
C1989 C1992 1.363 . S
N1990 C1992 1.356 . S
N1990 H2002 0.984 . S
N1990 H2003 0.985 . S
N1991 C1993 1.356 . S
N1991 H1996 0.984 . S
N1991 H1997 0.985 . S
C1992 C1986 1.379 1_554 S
C1992 C1989 1.363 . S
C1992 N1990 1.356 . S
C1993 C1987 1.363 . S
C1993 C1988 1.379 1_556 S
C1993 N1991 1.356 . S
N1994 C1986 1.356 . S
N1994 H2000 0.984 . S
N1994 H2001 0.984 . S
N1995 C1988 1.356 . S
N1995 H1998 0.984 . S
N1995 H1999 0.985 . S
H1996 N1991 0.984 . S
H1997 N1991 0.985 . S
H1998 N1995 0.984 . S
H1999 N1995 0.985 . S
H2000 N1994 0.984 . S
H2001 N1994 0.984 . S
H2002 N1990 0.984 . S
H2003 N1990 0.985 . S
C2004 C2005 1.363 . S
C2004 C2010 1.379 . S
C2004 N2012 1.356 . S
C2005 C2004 1.363 . S
C2005 C2011 1.363 . S
C2006 C2007 1.363 . S
C2006 C2011 1.379 . S
C2006 N2013 1.356 . S
C2007 C2006 1.363 . S
C2007 C2010 1.363 . S
N2008 C2010 1.356 . S
N2008 H2020 0.984 . S
N2008 H2021 0.985 . S
N2009 C2011 1.356 . S
N2009 H2014 0.984 . S
N2009 H2015 0.985 . S
C2010 C2004 1.379 . S
C2010 C2007 1.363 . S
C2010 N2008 1.356 . S
C2011 C2005 1.363 . S
C2011 C2006 1.379 . S
C2011 N2009 1.356 . S
N2012 C2004 1.356 . S
N2012 H2018 0.984 1_455 S
N2012 H2019 0.984 . S
N2013 C2006 1.356 . S
N2013 H2016 0.984 . S
N2013 H2017 0.985 . S
H2014 N2009 0.984 . S
H2015 N2009 0.985 . S
H2016 N2013 0.984 . S
H2017 N2013 0.985 . S
H2018 N2012 0.984 1_655 S
H2019 N2012 0.984 . S
H2020 N2008 0.984 . S
H2021 N2008 0.985 . S
C2022 C2023 1.363 . S
C2022 C2028 1.379 . S
C2022 N2030 1.356 . S
C2023 C2022 1.363 . S
C2023 C2029 1.363 . S
C2024 C2025 1.363 . S
C2024 C2029 1.379 . S
C2024 N2031 1.356 . S
C2025 C2024 1.363 . S
C2025 C2028 1.363 . S
N2026 C2028 1.356 . S
N2026 H2038 0.984 . S
N2026 H2039 0.985 . S
N2027 C2029 1.356 . S
N2027 H2032 0.984 . S
N2027 H2033 0.985 . S
C2028 C2022 1.379 . S
C2028 C2025 1.363 . S
C2028 N2026 1.356 . S
C2029 C2023 1.363 . S
C2029 C2024 1.379 . S
C2029 N2027 1.356 . S
N2030 C2022 1.356 . S
N2030 H2036 0.984 . S
N2030 H2037 0.984 . S
N2031 C2024 1.356 . S
N2031 H2034 0.984 . S
N2031 H2035 0.985 . S
H2032 N2027 0.984 . S
H2033 N2027 0.985 . S
H2034 N2031 0.984 . S
H2035 N2031 0.985 . S
H2036 N2030 0.984 . S
H2037 N2030 0.984 . S
H2038 N2026 0.984 . S
H2039 N2026 0.985 . S
C2040 C2041 1.363 . S
C2040 C2046 1.379 . S
C2040 N2048 1.356 . S
C2041 C2040 1.363 . S
C2041 C2047 1.363 . S
C2042 C2043 1.363 . S
C2042 C2047 1.379 . S
C2042 N2049 1.356 . S
C2043 C2042 1.363 . S
C2043 C2046 1.363 . S
N2044 C2046 1.356 . S
N2044 H2056 0.984 . S
N2044 H2057 0.985 . S
N2045 C2047 1.356 . S
N2045 H2050 0.984 . S
N2045 H2051 0.985 . S
C2046 C2040 1.379 . S
C2046 C2043 1.363 . S
C2046 N2044 1.356 . S
C2047 C2041 1.363 . S
C2047 C2042 1.379 . S
C2047 N2045 1.356 . S
N2048 C2040 1.356 . S
N2048 H2054 0.984 . S
N2048 H2055 0.984 . S
N2049 C2042 1.356 . S
N2049 H2052 0.984 . S
N2049 H2053 0.985 . S
H2050 N2045 0.984 . S
H2051 N2045 0.985 . S
H2052 N2049 0.984 . S
H2053 N2049 0.985 . S
H2054 N2048 0.984 . S
H2055 N2048 0.984 . S
H2056 N2044 0.984 . S
H2057 N2044 0.985 . S
C2058 C2059 1.363 . S
C2058 C2064 1.379 . S
C2058 N2066 1.356 . S
C2059 C2058 1.363 . S
C2059 C2065 1.363 . S
C2060 C2061 1.363 . S
C2060 C2065 1.379 1_556 S
C2060 N2067 1.356 . S
C2061 C2060 1.363 . S
C2061 C2064 1.363 1_556 S
N2062 C2064 1.356 1_556 S
N2062 H2074 0.984 1_556 S
N2062 H2075 0.985 . S
N2063 C2065 1.356 . S
N2063 H2068 0.984 . S
N2063 H2069 0.985 1_455 S
C2064 C2058 1.379 . S
C2064 C2061 1.363 1_554 S
C2064 N2062 1.356 1_554 S
C2065 C2059 1.363 . S
C2065 C2060 1.379 1_554 S
C2065 N2063 1.356 . S
N2066 C2058 1.356 . S
N2066 H2072 0.984 . S
N2066 H2073 0.984 . S
N2067 C2060 1.356 . S
N2067 H2070 0.984 . S
N2067 H2071 0.985 . S
H2068 N2063 0.984 . S
H2069 N2063 0.985 1_655 S
H2070 N2067 0.984 . S
H2071 N2067 0.985 . S
H2072 N2066 0.984 . S
H2073 N2066 0.984 . S
H2074 N2062 0.984 1_554 S
H2075 N2062 0.985 . S
C2076 C2077 1.363 . S
C2076 C2082 1.379 . S
C2076 N2084 1.356 . S
C2077 C2076 1.363 . S
C2077 C2083 1.363 . S
C2078 C2079 1.363 . S
C2078 C2083 1.379 . S
C2078 N2085 1.356 . S
C2079 C2078 1.363 . S
C2079 C2082 1.363 . S
N2080 C2082 1.356 . S
N2080 H2092 0.984 . S
N2080 H2093 0.985 . S
N2081 C2083 1.356 . S
N2081 H2086 0.984 . S
N2081 H2087 0.985 . S
C2082 C2076 1.379 . S
C2082 C2079 1.363 . S
C2082 N2080 1.356 . S
C2083 C2077 1.363 . S
C2083 C2078 1.379 . S
C2083 N2081 1.356 . S
N2084 C2076 1.356 . S
N2084 H2090 0.984 . S
N2084 H2091 0.984 . S
N2085 C2078 1.356 . S
N2085 H2088 0.984 . S
N2085 H2089 0.985 . S
H2086 N2081 0.984 . S
H2087 N2081 0.985 . S
H2088 N2085 0.984 . S
H2089 N2085 0.985 . S
H2090 N2084 0.984 . S
H2091 N2084 0.984 . S
H2092 N2080 0.984 . S
H2093 N2080 0.985 . S
C2094 C2095 1.363 . S
C2094 C2100 1.379 . S
C2094 N2102 1.356 . S
C2095 C2094 1.363 . S
C2095 C2101 1.363 . S
C2096 C2097 1.363 . S
C2096 C2101 1.379 . S
C2096 N2103 1.356 . S
C2097 C2096 1.363 . S
C2097 C2100 1.363 . S
N2098 C2100 1.356 . S
N2098 H2110 0.984 . S
N2098 H2111 0.985 . S
N2099 C2101 1.356 . S
N2099 H2104 0.984 . S
N2099 H2105 0.985 . S
C2100 C2094 1.379 . S
C2100 C2097 1.363 . S
C2100 N2098 1.356 . S
C2101 C2095 1.363 . S
C2101 C2096 1.379 . S
C2101 N2099 1.356 . S
N2102 C2094 1.356 . S
N2102 H2108 0.984 . S
N2102 H2109 0.984 . S
N2103 C2096 1.356 . S
N2103 H2106 0.984 . S
N2103 H2107 0.985 . S
H2104 N2099 0.984 . S
H2105 N2099 0.985 . S
H2106 N2103 0.984 . S
H2107 N2103 0.985 . S
H2108 N2102 0.984 . S
H2109 N2102 0.984 . S
H2110 N2098 0.984 . S
H2111 N2098 0.985 . S
C2112 C2113 1.363 . S
C2112 C2118 1.379 . S
C2112 N2120 1.356 . S
C2113 C2112 1.363 . S
C2113 C2119 1.363 . S
C2114 C2115 1.363 . S
C2114 C2119 1.379 . S
C2114 N2121 1.356 . S
C2115 C2114 1.363 . S
C2115 C2118 1.363 . S
N2116 C2118 1.356 . S
N2116 H2128 0.984 . S
N2116 H2129 0.985 . S
N2117 C2119 1.356 . S
N2117 H2122 0.984 . S
N2117 H2123 0.985 . S
C2118 C2112 1.379 . S
C2118 C2115 1.363 . S
C2118 N2116 1.356 . S
C2119 C2113 1.363 . S
C2119 C2114 1.379 . S
C2119 N2117 1.356 . S
N2120 C2112 1.356 . S
N2120 H2126 0.984 . S
N2120 H2127 0.984 . S
N2121 C2114 1.356 . S
N2121 H2124 0.984 . S
N2121 H2125 0.985 . S
H2122 N2117 0.984 . S
H2123 N2117 0.985 . S
H2124 N2121 0.984 . S
H2125 N2121 0.985 . S
H2126 N2120 0.984 . S
H2127 N2120 0.984 . S
H2128 N2116 0.984 . S
H2129 N2116 0.985 . S
C2130 C2131 1.363 . S
C2130 C2136 1.379 . S
C2130 N2138 1.356 . S
C2131 C2130 1.363 . S
C2131 C2137 1.363 . S
C2132 C2133 1.363 . S
C2132 C2137 1.379 . S
C2132 N2139 1.356 . S
C2133 C2132 1.363 . S
C2133 C2136 1.363 . S
N2134 C2136 1.356 . S
N2134 H2146 0.984 . S
N2134 H2147 0.985 . S
N2135 C2137 1.356 1_556 S
N2135 H2140 0.984 1_556 S
N2135 H2141 0.985 . S
C2136 C2130 1.379 . S
C2136 C2133 1.363 . S
C2136 N2134 1.356 . S
C2137 C2131 1.363 . S
C2137 C2132 1.379 . S
C2137 N2135 1.356 1_554 S
N2138 C2130 1.356 . S
N2138 H2144 0.984 . S
N2138 H2145 0.984 . S
N2139 C2132 1.356 . S
N2139 H2142 0.984 . S
N2139 H2143 0.985 1_554 S
H2140 N2135 0.984 1_554 S
H2141 N2135 0.985 . S
H2142 N2139 0.984 . S
H2143 N2139 0.985 1_556 S
H2144 N2138 0.984 . S
H2145 N2138 0.984 . S
H2146 N2134 0.984 . S
H2147 N2134 0.985 . S
C2148 C2149 1.363 . S
C2148 C2154 1.379 . S
C2148 N2156 1.356 . S
C2149 C2148 1.363 . S
C2149 C2155 1.363 . S
C2150 C2151 1.363 . S
C2150 C2155 1.379 . S
C2150 N2157 1.356 . S
C2151 C2150 1.363 . S
C2151 C2154 1.363 . S
N2152 C2154 1.356 . S
N2152 H2164 0.984 . S
N2152 H2165 0.985 . S
N2153 C2155 1.356 . S
N2153 H2158 0.984 . S
N2153 H2159 0.985 . S
C2154 C2148 1.379 . S
C2154 C2151 1.363 . S
C2154 N2152 1.356 . S
C2155 C2149 1.363 . S
C2155 C2150 1.379 . S
C2155 N2153 1.356 . S
N2156 C2148 1.356 . S
N2156 H2162 0.984 . S
N2156 H2163 0.984 . S
N2157 C2150 1.356 . S
N2157 H2160 0.984 . S
N2157 H2161 0.985 . S
H2158 N2153 0.984 . S
H2159 N2153 0.985 . S
H2160 N2157 0.984 . S
H2161 N2157 0.985 . S
H2162 N2156 0.984 . S
H2163 N2156 0.984 . S
H2164 N2152 0.984 . S
H2165 N2152 0.985 . S
C2166 C2167 1.363 . S
C2166 C2172 1.379 . S
C2166 N2174 1.356 . S
C2167 C2166 1.363 . S
C2167 C2173 1.363 . S
C2168 C2169 1.363 . S
C2168 C2173 1.379 . S
C2168 N2175 1.356 . S
C2169 C2168 1.363 . S
C2169 C2172 1.363 . S
N2170 C2172 1.356 . S
N2170 H2182 0.984 . S
N2170 H2183 0.985 . S
N2171 C2173 1.356 . S
N2171 H2176 0.984 . S
N2171 H2177 0.985 . S
C2172 C2166 1.379 . S
C2172 C2169 1.363 . S
C2172 N2170 1.356 . S
C2173 C2167 1.363 . S
C2173 C2168 1.379 . S
C2173 N2171 1.356 . S
N2174 C2166 1.356 . S
N2174 H2180 0.984 . S
N2174 H2181 0.984 . S
N2175 C2168 1.356 . S
N2175 H2178 0.984 . S
N2175 H2179 0.985 . S
H2176 N2171 0.984 . S
H2177 N2171 0.985 . S
H2178 N2175 0.984 . S
H2179 N2175 0.985 . S
H2180 N2174 0.984 . S
H2181 N2174 0.984 . S
H2182 N2170 0.984 . S
H2183 N2170 0.985 . S
C2184 C2185 1.363 . S
C2184 C2190 1.379 . S
C2184 N2192 1.356 . S
C2185 C2184 1.363 . S
C2185 C2191 1.363 . S
C2186 C2187 1.363 . S
C2186 C2191 1.379 . S
C2186 N2193 1.356 . S
C2187 C2186 1.363 . S
C2187 C2190 1.363 . S
N2188 C2190 1.356 . S
N2188 H2200 0.984 . S
N2188 H2201 0.985 . S
N2189 C2191 1.356 . S
N2189 H2194 0.984 . S
N2189 H2195 0.985 . S
C2190 C2184 1.379 . S
C2190 C2187 1.363 . S
C2190 N2188 1.356 . S
C2191 C2185 1.363 . S
C2191 C2186 1.379 . S
C2191 N2189 1.356 . S
N2192 C2184 1.356 . S
N2192 H2198 0.984 . S
N2192 H2199 0.984 . S
N2193 C2186 1.356 . S
N2193 H2196 0.984 . S
N2193 H2197 0.985 . S
H2194 N2189 0.984 . S
H2195 N2189 0.985 . S
H2196 N2193 0.984 . S
H2197 N2193 0.985 . S
H2198 N2192 0.984 . S
H2199 N2192 0.984 . S
H2200 N2188 0.984 . S
H2201 N2188 0.985 . S
C2202 C2203 1.363 . S
C2202 C2208 1.379 . S
C2202 N2210 1.356 1_556 S
C2203 C2202 1.363 . S
C2203 C2209 1.363 . S
C2204 C2205 1.363 . S
C2204 C2209 1.379 . S
C2204 N2211 1.356 . S
C2205 C2204 1.363 . S
C2205 C2208 1.363 . S
N2206 C2208 1.356 . S
N2206 H2218 0.984 1_556 S
N2206 H2219 0.985 . S
N2207 C2209 1.356 . S
N2207 H2212 0.984 . S
N2207 H2213 0.985 . S
C2208 C2202 1.379 . S
C2208 C2205 1.363 . S
C2208 N2206 1.356 . S
C2209 C2203 1.363 . S
C2209 C2204 1.379 . S
C2209 N2207 1.356 . S
N2210 C2202 1.356 1_554 S
N2210 H2216 0.984 . S
N2210 H2217 0.984 . S
N2211 C2204 1.356 . S
N2211 H2214 0.984 . S
N2211 H2215 0.985 . S
H2212 N2207 0.984 . S
H2213 N2207 0.985 . S
H2214 N2211 0.984 . S
H2215 N2211 0.985 . S
H2216 N2210 0.984 . S
H2217 N2210 0.984 . S
H2218 N2206 0.984 1_554 S
H2219 N2206 0.985 . S
C2220 C2221 1.363 . S
C2220 C2226 1.379 . S
C2220 N2228 1.356 . S
C2221 C2220 1.363 . S
C2221 C2227 1.363 . S
C2222 C2223 1.363 . S
C2222 C2227 1.379 . S
C2222 N2229 1.356 . S
C2223 C2222 1.363 . S
C2223 C2226 1.363 . S
N2224 C2226 1.356 . S
N2224 H2236 0.984 . S
N2224 H2237 0.985 . S
N2225 C2227 1.356 . S
N2225 H2230 0.984 . S
N2225 H2231 0.985 . S
C2226 C2220 1.379 . S
C2226 C2223 1.363 . S
C2226 N2224 1.356 . S
C2227 C2221 1.363 . S
C2227 C2222 1.379 . S
C2227 N2225 1.356 . S
N2228 C2220 1.356 . S
N2228 H2234 0.984 . S
N2228 H2235 0.984 . S
N2229 C2222 1.356 . S
N2229 H2232 0.984 . S
N2229 H2233 0.985 . S
H2230 N2225 0.984 . S
H2231 N2225 0.985 . S
H2232 N2229 0.984 . S
H2233 N2229 0.985 . S
H2234 N2228 0.984 . S
H2235 N2228 0.984 . S
H2236 N2224 0.984 . S
H2237 N2224 0.985 . S
C2238 C2239 1.363 . S
C2238 C2244 1.379 . S
C2238 N2246 1.356 . S
C2239 C2238 1.363 . S
C2239 C2245 1.363 . S
C2240 C2241 1.363 . S
C2240 C2245 1.379 . S
C2240 N2247 1.356 . S
C2241 C2240 1.363 . S
C2241 C2244 1.363 . S
N2242 C2244 1.356 . S
N2242 H2254 0.984 . S
N2242 H2255 0.985 . S
N2243 C2245 1.356 . S
N2243 H2248 0.984 . S
N2243 H2249 0.985 . S
C2244 C2238 1.379 . S
C2244 C2241 1.363 . S
C2244 N2242 1.356 . S
C2245 C2239 1.363 . S
C2245 C2240 1.379 . S
C2245 N2243 1.356 . S
N2246 C2238 1.356 . S
N2246 H2252 0.984 . S
N2246 H2253 0.984 . S
N2247 C2240 1.356 . S
N2247 H2250 0.984 . S
N2247 H2251 0.985 . S
H2248 N2243 0.984 . S
H2249 N2243 0.985 . S
H2250 N2247 0.984 . S
H2251 N2247 0.985 . S
H2252 N2246 0.984 . S
H2253 N2246 0.984 . S
H2254 N2242 0.984 . S
H2255 N2242 0.985 . S
C2256 C2257 1.363 . S
C2256 C2262 1.379 . S
C2256 N2264 1.356 . S
C2257 C2256 1.363 . S
C2257 C2263 1.363 . S
C2258 C2259 1.363 . S
C2258 C2263 1.379 . S
C2258 N2265 1.356 . S
C2259 C2258 1.363 . S
C2259 C2262 1.363 . S
N2260 C2262 1.356 . S
N2260 H2272 0.984 . S
N2260 H2273 0.985 . S
N2261 C2263 1.356 . S
N2261 H2266 0.984 . S
N2261 H2267 0.985 . S
C2262 C2256 1.379 . S
C2262 C2259 1.363 . S
C2262 N2260 1.356 . S
C2263 C2257 1.363 . S
C2263 C2258 1.379 . S
C2263 N2261 1.356 . S
N2264 C2256 1.356 . S
N2264 H2270 0.984 . S
N2264 H2271 0.984 . S
N2265 C2258 1.356 . S
N2265 H2268 0.984 . S
N2265 H2269 0.985 . S
H2266 N2261 0.984 . S
H2267 N2261 0.985 . S
H2268 N2265 0.984 . S
H2269 N2265 0.985 . S
H2270 N2264 0.984 . S
H2271 N2264 0.984 . S
H2272 N2260 0.984 . S
H2273 N2260 0.985 . S
C2274 C2275 1.363 . S
C2274 C2280 1.379 . S
C2274 N2282 1.356 . S
C2275 C2274 1.363 . S
C2275 C2281 1.363 . S
C2276 C2277 1.363 . S
C2276 C2281 1.379 . S
C2276 N2283 1.356 . S
C2277 C2276 1.363 . S
C2277 C2280 1.363 . S
N2278 C2280 1.356 . S
N2278 H2290 0.984 . S
N2278 H2291 0.985 . S
N2279 C2281 1.356 . S
N2279 H2284 0.984 . S
N2279 H2285 0.985 . S
C2280 C2274 1.379 . S
C2280 C2277 1.363 . S
C2280 N2278 1.356 . S
C2281 C2275 1.363 . S
C2281 C2276 1.379 . S
C2281 N2279 1.356 . S
N2282 C2274 1.356 . S
N2282 H2288 0.984 . S
N2282 H2289 0.984 . S
N2283 C2276 1.356 . S
N2283 H2286 0.984 . S
N2283 H2287 0.985 . S
H2284 N2279 0.984 . S
H2285 N2279 0.985 . S
H2286 N2283 0.984 . S
H2287 N2283 0.985 . S
H2288 N2282 0.984 . S
H2289 N2282 0.984 . S
H2290 N2278 0.984 . S
H2291 N2278 0.985 . S
C2292 C2293 1.363 . S
C2292 C2298 1.379 . S
C2292 N2300 1.356 . S
C2293 C2292 1.363 . S
C2293 C2299 1.363 . S
C2294 C2295 1.363 . S
C2294 C2299 1.379 . S
C2294 N2301 1.356 . S
C2295 C2294 1.363 . S
C2295 C2298 1.363 . S
N2296 C2298 1.356 . S
N2296 H2308 0.984 . S
N2296 H2309 0.985 . S
N2297 C2299 1.342 1_565 S
N2297 H2302 0.983 . S
N2297 H2303 1.001 . S
C2298 C2292 1.379 . S
C2298 C2295 1.363 . S
C2298 N2296 1.356 . S
C2299 C2293 1.363 . S
C2299 C2294 1.379 . S
C2299 N2297 1.342 1_545 S
N2300 C2292 1.356 . S
N2300 H2306 0.984 . S
N2300 H2307 0.984 . S
N2301 C2294 1.356 . S
N2301 H2304 0.984 . S
N2301 H2305 0.985 1_545 S
H2302 N2297 0.983 . S
H2303 N2297 1.001 . S
H2304 N2301 0.984 . S
H2305 N2301 0.985 1_565 S
H2306 N2300 0.984 . S
H2307 N2300 0.984 . S
H2308 N2296 0.984 . S
H2309 N2296 0.985 . S
C2310 C2311 1.363 . S
C2310 C2316 1.379 . S
C2310 N2318 1.356 . S
C2311 C2310 1.363 . S
C2311 C2317 1.363 . S
C2312 C2313 1.363 . S
C2312 C2317 1.379 . S
C2312 N2319 1.356 . S
C2313 C2312 1.363 . S
C2313 C2316 1.363 . S
N2314 C2316 1.356 . S
N2314 H2326 0.984 . S
N2314 H2327 0.985 . S
N2315 C2317 1.356 . S
N2315 H2320 0.984 . S
N2315 H2321 0.985 . S
C2316 C2310 1.379 . S
C2316 C2313 1.363 . S
C2316 N2314 1.356 . S
C2317 C2311 1.363 . S
C2317 C2312 1.379 . S
C2317 N2315 1.356 . S
N2318 C2310 1.356 . S
N2318 H2324 0.984 . S
N2318 H2325 0.984 . S
N2319 C2312 1.356 . S
N2319 H2322 0.984 . S
N2319 H2323 0.985 . S
H2320 N2315 0.984 . S
H2321 N2315 0.985 . S
H2322 N2319 0.984 . S
H2323 N2319 0.985 . S
H2324 N2318 0.984 . S
H2325 N2318 0.984 . S
H2326 N2314 0.984 . S
H2327 N2314 0.985 . S
C2328 C2329 1.363 . S
C2328 C2334 1.379 . S
C2328 N2336 1.356 . S
C2329 C2328 1.363 . S
C2329 C2335 1.363 . S
C2330 C2331 1.363 . S
C2330 C2335 1.379 . S
C2330 N2337 1.356 . S
C2331 C2330 1.363 . S
C2331 C2334 1.363 . S
N2332 C2334 1.356 . S
N2332 H2344 0.984 . S
N2332 H2345 0.985 . S
N2333 C2335 1.356 . S
N2333 H2338 0.984 . S
N2333 H2339 0.985 . S
C2334 C2328 1.379 . S
C2334 C2331 1.363 . S
C2334 N2332 1.356 . S
C2335 C2329 1.363 . S
C2335 C2330 1.379 . S
C2335 N2333 1.356 . S
N2336 C2328 1.356 . S
N2336 H2342 0.984 . S
N2336 H2343 0.984 . S
N2337 C2330 1.356 . S
N2337 H2340 0.984 . S
N2337 H2341 0.985 . S
H2338 N2333 0.984 . S
H2339 N2333 0.985 . S
H2340 N2337 0.984 . S
H2341 N2337 0.985 . S
H2342 N2336 0.984 . S
H2343 N2336 0.984 . S
H2344 N2332 0.984 . S
H2345 N2332 0.985 . S
C2346 C2347 1.363 . S
C2346 C2352 1.379 . S
C2346 N2354 1.356 1_556 S
C2347 C2346 1.363 . S
C2347 C2353 1.363 . S
C2348 C2349 1.363 . S
C2348 C2353 1.379 . S
C2348 N2355 1.356 . S
C2349 C2348 1.363 . S
C2349 C2352 1.363 . S
N2350 C2352 1.356 . S
N2350 H2362 0.984 1_556 S
N2350 H2363 0.985 . S
N2351 C2353 1.356 . S
N2351 H2356 0.984 . S
N2351 H2357 0.985 . S
C2352 C2346 1.379 . S
C2352 C2349 1.363 . S
C2352 N2350 1.356 . S
C2353 C2347 1.363 . S
C2353 C2348 1.379 . S
C2353 N2351 1.356 . S
N2354 C2346 1.356 1_554 S
N2354 H2360 0.984 . S
N2354 H2361 0.984 . S
N2355 C2348 1.356 . S
N2355 H2358 0.984 . S
N2355 H2359 0.985 . S
H2356 N2351 0.984 . S
H2357 N2351 0.985 . S
H2358 N2355 0.984 . S
H2359 N2355 0.985 . S
H2360 N2354 0.984 . S
H2361 N2354 0.984 . S
H2362 N2350 0.984 1_554 S
H2363 N2350 0.985 . S
C2364 C2365 1.363 . S
C2364 C2370 1.379 . S
C2364 N2372 1.356 . S
C2365 C2364 1.363 . S
C2365 C2371 1.363 . S
C2366 C2367 1.363 . S
C2366 C2371 1.379 . S
C2366 N2373 1.356 . S
C2367 C2366 1.363 . S
C2367 C2370 1.363 . S
N2368 C2370 1.356 . S
N2368 H2380 0.984 . S
N2368 H2381 0.985 . S
N2369 C2371 1.356 . S
N2369 H2374 0.984 . S
N2369 H2375 0.985 . S
C2370 C2364 1.379 . S
C2370 C2367 1.363 . S
C2370 N2368 1.356 . S
C2371 C2365 1.363 . S
C2371 C2366 1.379 . S
C2371 N2369 1.356 . S
N2372 C2364 1.356 . S
N2372 H2378 0.984 . S
N2372 H2379 0.984 . S
N2373 C2366 1.356 . S
N2373 H2376 0.984 . S
N2373 H2377 0.985 . S
H2374 N2369 0.984 . S
H2375 N2369 0.985 . S
H2376 N2373 0.984 . S
H2377 N2373 0.985 . S
H2378 N2372 0.984 . S
H2379 N2372 0.984 . S
H2380 N2368 0.984 . S
H2381 N2368 0.985 . S
C2382 C2383 1.363 . S
C2382 C2388 1.359 1_455 S
C2382 N2390 1.356 . S
C2383 C2382 1.363 . S
C2383 C2389 1.363 . S
C2384 C2385 1.363 . S
C2384 C2389 1.379 1_655 S
C2384 N2391 1.356 . S
C2385 C2384 1.363 . S
C2385 C2388 1.374 . S
N2386 C2388 1.370 . S
N2386 H2398 0.984 . S
N2386 H2399 0.985 . S
N2387 C2389 1.356 . S
N2387 H2392 0.984 . S
N2387 H2393 0.985 . S
C2388 C2382 1.359 1_655 S
C2388 C2385 1.374 . S
C2388 N2386 1.370 . S
C2389 C2383 1.363 . S
C2389 C2384 1.379 1_455 S
C2389 N2387 1.356 . S
N2390 C2382 1.356 . S
N2390 H2396 0.984 . S
N2390 H2397 0.984 . S
N2391 C2384 1.356 . S
N2391 H2394 0.984 . S
N2391 H2395 0.985 . S
H2392 N2387 0.984 . S
H2393 N2387 0.985 . S
H2394 N2391 0.984 . S
H2395 N2391 0.985 . S
H2396 N2390 0.984 . S
H2397 N2390 0.984 . S
H2398 N2386 0.984 . S
H2399 N2386 0.985 . S
C675 C354 1.323 . S
C673 C7 1.435 . S
C691 C23 1.548 . S
C693 C374 1.653 . S
C711 C394 1.225 . S
C709 C36 1.308 . S
C729 C413 1.589 . S
C727 C45 1.534 . S
C747 C371 1.560 . S
C745 C59 1.512 . S
C763 C78 1.364 . S
C765 C396 1.280 . S
C783 C416 1.544 . S
C781 C93 1.459 . S
C799 C105 1.533 . S
C801 C352 1.400 . S
C817 C115 1.644 . S
C819 C349 1.546 . S
C837 C372 1.425 . S
C835 C133 1.584 . S
C855 C395 1.581 . S
C853 C148 1.488 . S
C873 C417 1.482 . S
C871 C163 1.538 1_545 S
C891 C375 1.168 . S
C889 C121 1.241 . S
C909 C391 1.195 1_545 S
C907 C134 1.291 . S
C925 C147 1.441 . S
C927 C414 1.273 . S
C945 C353 1.328 . S
C943 C157 1.274 . S
C961 C175 1.605 . S
C963 C350 1.632 . S
C979 C191 1.139 . S
C981 C433 1.040 . S
C999 C455 1.491 . S
C997 C199 1.451 . S
C1017 C478 1.159 . S
C1015 C218 1.348 . S
C1033 C231 1.618 . S
C1035 C351 1.530 . S
C1051 C241 1.596 . S
C1053 C393 1.507 . S
C1071 C475 1.308 . S
C1069 C205 1.440 . S
C1089 C436 1.090 . S
C1087 C260 1.210 . S
C1107 C501 1.110 . S
C1105 C22 1.211 . S
C1125 C521 1.603 . S
C1123 C9 1.559 . S
C1141 C49 1.420 . S
C1143 C543 1.271 . S
C1159 C31 1.318 . S
C1161 C560 1.343 . S
C1177 C101 1.612 . S
C1179 C518 1.628 . S
C1195 C91 1.419 . S
C1197 C541 1.176 . S
C1215 C563 1.506 . S
C1213 C79 1.437 . S
C1231 C64 1.309 . S
C1233 C499 1.120 . S
C1249 C274 1.140 1_565 S
C1251 C496 1.008 . S
C1269 C519 1.468 . S
C1267 C213 1.586 1_545 S
C1287 C538 1.304 . S
C1285 C233 1.445 . S
C1305 C564 1.425 . S
C1303 C189 1.642 . S
C1323 C522 1.236 . S
C1321 C273 1.412 . S
C1341 C542 1.235 . S
C1339 C219 1.196 . S
C1359 C561 1.067 . S
C1357 C227 1.165 . S
C1375 C190 1.348 . S
C1377 C500 1.353 1_545 S
C1395 C497 1.414 . S
C1393 C289 1.373 . S
C1411 C162 1.356 . S
C1413 C580 1.107 . S
C1431 C603 1.401 . S
C1429 C301 1.536 . S
C1447 C129 1.445 . S
C1449 C625 1.172 . S
C1467 C498 1.363 1_545 S
C1465 C149 1.411 . S
C1485 C539 1.473 . S
C1483 C315 1.500 . S
C1503 C622 1.049 . S
C1501 C302 1.308 . S
C1519 C325 1.153 . S
C1521 C583 0.973 . S
C1537 C35 1.435 . S
C1539 C648 1.324 . S
C1555 C51 1.548 . S
C1557 C437 1.653 . S
C1575 C457 1.225 . S
C1573 C8 1.308 . S
C1591 C17 1.534 . S
C1593 C476 1.589 . S
C1609 C87 1.514 . S
C1611 C434 1.560 . S
C1627 C106 1.364 . S
C1629 C459 1.280 . S
C1647 C479 1.544 . S
C1645 C65 1.461 . S
C1665 C646 1.400 . S
C1663 C77 1.533 . S
C1683 C643 1.549 . S
C1681 C297 1.644 . S
C1701 C435 1.425 . S
C1699 C287 1.584 . S
C1719 C458 1.581 . S
C1717 C330 1.488 . S
C1735 C317 1.538 . S
C1737 C480 1.482 . S
C1755 C438 1.168 . S
C1753 C303 1.239 . S
C1771 C288 1.291 . S
C1773 C454 1.195 . S
C1791 C477 1.273 . S
C1789 C329 1.441 . S
C1807 C311 1.274 . S
C1809 C647 1.328 . S
C1827 C644 1.632 . S
C1825 C217 1.605 . S
C1843 C247 1.139 . S
C1845 C370 1.040 . S
C1863 C392 1.491 . S
C1861 C269 1.451 1_565 S
C1879 C176 1.348 . S
C1881 C415 1.159 . S
C1899 C645 1.530 . S
C1897 C259 1.618 . S
C1917 C456 1.507 . S
C1915 C185 1.596 . S
C1935 C412 1.308 . S
C1933 C275 1.440 . S
C1953 C373 1.090 . S
C1951 C232 1.211 . S
C1969 C50 1.209 . S
C1971 C669 1.110 . S
C1987 C37 1.559 . S
C1989 C584 1.603 . S
C2005 C21 1.420 . S
C2007 C606 1.269 . S
C2025 C623 1.343 . S
C2023 C3 1.318 . S
C2043 C581 1.628 . S
C2041 C73 1.612 . S
C2059 C63 1.418 . S
C2061 C604 1.175 . S
C2079 C626 1.506 . S
C2077 C107 1.437 . S
C2095 C92 1.309 . S
C2097 C667 1.119 . S
C2115 C664 1.008 . S
C2113 C204 1.155 . S
C2131 C171 1.586 . S
C2133 C582 1.468 . S
C2149 C261 1.445 . S
C2151 C601 1.304 . S
C2169 C627 1.425 . S
C2167 C245 1.642 . S
C2187 C585 1.236 . S
C2185 C203 1.412 . S
C2203 C177 1.196 . S
C2205 C605 1.235 . S
C2223 C624 1.067 . S
C2221 C255 1.166 . S
C2241 C668 1.353 . S
C2239 C246 1.348 . S
C2259 C665 1.414 . S
C2257 C135 1.373 . S
C2277 C517 1.107 . S
C2275 C316 1.356 . S
C2293 C119 1.536 . S
C2295 C540 1.399 . S
C2311 C283 1.445 . S
C2313 C562 1.172 . S
C2331 C666 1.363 . S
C2329 C331 1.411 . S
C2349 C602 1.473 . S
C2347 C161 1.500 . S
C2367 C559 1.049 . S
C2365 C120 1.309 . S
C2385 C520 0.973 . S
C2383 C143 1.153 . S
