# Generated by pormake.
# Topology eea, (3,6)-cn, num edge types: 1
# Building blocks:
#     Node 0, Type 0, BuildingBlock: OLANEW_clean_sbu_2, # of connection points: 3
#     Node 1, Type 0, BuildingBlock: OLANEW_clean_sbu_2, # of connection points: 3
#     Node 2, Type 0, BuildingBlock: OLANEW_clean_sbu_2, # of connection points: 3
#     Node 3, Type 0, BuildingBlock: OLANEW_clean_sbu_2, # of connection points: 3
#     Node 4, Type 0, BuildingBlock: OLANEW_clean_sbu_2, # of connection points: 3
#     Node 5, Type 0, BuildingBlock: OLANEW_clean_sbu_2, # of connection points: 3
#     Node 6, Type 0, BuildingBlock: OLANEW_clean_sbu_2, # of connection points: 3
#     Node 7, Type 0, BuildingBlock: OLANEW_clean_sbu_2, # of connection points: 3
#     Node 8, Type 0, BuildingBlock: OLANEW_clean_sbu_2, # of connection points: 3
#     Node 9, Type 0, BuildingBlock: OLANEW_clean_sbu_2, # of connection points: 3
#     Node 10, Type 0, BuildingBlock: OLANEW_clean_sbu_2, # of connection points: 3
#     Node 11, Type 0, BuildingBlock: OLANEW_clean_sbu_2, # of connection points: 3
#     Node 12, Type 0, BuildingBlock: OLANEW_clean_sbu_2, # of connection points: 3
#     Node 13, Type 0, BuildingBlock: OLANEW_clean_sbu_2, # of connection points: 3
#     Node 14, Type 0, BuildingBlock: OLANEW_clean_sbu_2, # of connection points: 3
#     Node 15, Type 0, BuildingBlock: OLANEW_clean_sbu_2, # of connection points: 3
#     Node 16, Type 0, BuildingBlock: OLANEW_clean_sbu_2, # of connection points: 3
#     Node 17, Type 0, BuildingBlock: OLANEW_clean_sbu_2, # of connection points: 3
#     Node 18, Type 1, BuildingBlock: CUWYAW_clean_sbu_0, # of connection points: 6
#     Node 19, Type 1, BuildingBlock: CUWYAW_clean_sbu_0, # of connection points: 6
#     Node 20, Type 1, BuildingBlock: CUWYAW_clean_sbu_0, # of connection points: 6
#     Node 21, Type 1, BuildingBlock: CUWYAW_clean_sbu_0, # of connection points: 6
#     Node 22, Type 1, BuildingBlock: CUWYAW_clean_sbu_0, # of connection points: 6
#     Node 23, Type 1, BuildingBlock: CUWYAW_clean_sbu_0, # of connection points: 6
#     Node 24, Type 1, BuildingBlock: CUWYAW_clean_sbu_0, # of connection points: 6
#     Node 25, Type 1, BuildingBlock: CUWYAW_clean_sbu_0, # of connection points: 6
#     Node 26, Type 1, BuildingBlock: CUWYAW_clean_sbu_0, # of connection points: 6
#     Edge 27, Type (0, 1), None
#     Edge 28, Type (0, 1), None
#     Edge 29, Type (0, 1), None
#     Edge 30, Type (0, 1), None
#     Edge 31, Type (0, 1), None
#     Edge 32, Type (0, 1), None
#     Edge 33, Type (0, 1), None
#     Edge 34, Type (0, 1), None
#     Edge 35, Type (0, 1), None
#     Edge 36, Type (0, 1), None
#     Edge 37, Type (0, 1), None
#     Edge 38, Type (0, 1), None
#     Edge 39, Type (0, 1), None
#     Edge 40, Type (0, 1), None
#     Edge 41, Type (0, 1), None
#     Edge 42, Type (0, 1), None
#     Edge 43, Type (0, 1), None
#     Edge 44, Type (0, 1), None
#     Edge 45, Type (0, 1), None
#     Edge 46, Type (0, 1), None
#     Edge 47, Type (0, 1), None
#     Edge 48, Type (0, 1), None
#     Edge 49, Type (0, 1), None
#     Edge 50, Type (0, 1), None
#     Edge 51, Type (0, 1), None
#     Edge 52, Type (0, 1), None
#     Edge 53, Type (0, 1), None
#     Edge 54, Type (0, 1), None
#     Edge 55, Type (0, 1), None
#     Edge 56, Type (0, 1), None
#     Edge 57, Type (0, 1), None
#     Edge 58, Type (0, 1), None
#     Edge 59, Type (0, 1), None
#     Edge 60, Type (0, 1), None
#     Edge 61, Type (0, 1), None
#     Edge 62, Type (0, 1), None
#     Edge 63, Type (0, 1), None
#     Edge 64, Type (0, 1), None
#     Edge 65, Type (0, 1), None
#     Edge 66, Type (0, 1), None
#     Edge 67, Type (0, 1), None
#     Edge 68, Type (0, 1), None
#     Edge 69, Type (0, 1), None
#     Edge 70, Type (0, 1), None
#     Edge 71, Type (0, 1), None
#     Edge 72, Type (0, 1), None
#     Edge 73, Type (0, 1), None
#     Edge 74, Type (0, 1), None
#     Edge 75, Type (0, 1), None
#     Edge 76, Type (0, 1), None
#     Edge 77, Type (0, 1), None
#     Edge 78, Type (0, 1), None
#     Edge 79, Type (0, 1), None
#     Edge 80, Type (0, 1), None
# Relax obj value: 0.029
# Max RMSD: 0.248
# Mean RMSD: 0.172
data_MOF--net-eea--node1-OLANEW_clean_sbu_2--node2-CUWYAW_clean_sbu_0--edge1-none
_symmetry_space_group_name_H-M    P1
_symmetry_Int_Tables_number       1
_symmetry_cell_setting            triclinic
loop_
_symmetry_equiv_pos_as_xyz
'x, y, z'
_cell_length_a     28.961589
_cell_length_b     27.81836
_cell_length_c     41.271701
_cell_angle_alpha  97.960622
_cell_angle_beta   92.732999
_cell_angle_gamma 119.8561
loop_
_atom_site_label
_atom_site_type_symbol
_atom_site_fract_x
_atom_site_fract_y
_atom_site_fract_z
_atom_type_partial_charge
O0 O 0.26817 0.18415 0.44398 0.0
Cd1 Cd 0.28504 0.20227 0.3883 0.0
O2 O 0.3145 0.14064 0.44068 0.0
Cd3 Cd 0.30639 0.12181 0.38721 0.0
O4 O 0.26366 0.04281 0.35142 0.0
C5 C 0.24118 -0.00098 0.36436 0.0
O6 O 0.24694 0.00453 0.39665 0.0
C7 C 0.29073 0.16135 0.45739 0.0
C8 C 0.21902 0.23398 0.35833 0.0
O9 O 0.25792 0.26825 0.38107 0.0
O10 O 0.21041 0.1839 0.34968 0.0
O11 O 0.8971 0.19433 0.44341 0.0
Cd12 Cd 0.89751 0.17069 0.38368 0.0
O13 O 0.89115 0.11299 0.43908 0.0
Cd14 Cd 0.87382 0.02755 0.4402 0.0
O15 O 0.83102 0.95795 0.39806 0.0
C16 C 0.78629 0.95213 0.38756 0.0
O17 O 0.77017 0.98407 0.40359 0.0
C18 C 0.88997 0.15334 0.45701 0.0
C19 C 0.99867 0.21779 0.36351 0.0
O20 O 0.97044 0.24134 0.36191 0.0
O21 O 0.97957 0.17199 0.37489 0.0
O22 O 0.90622 0.69514 0.4429 0.0
Cd23 Cd 0.91313 0.72325 0.38821 0.0
O24 O 0.82589 0.68579 0.43898 0.0
Cd25 Cd 0.81819 0.69544 0.38761 0.0
O26 O 0.78101 0.72815 0.35679 0.0
C27 C 0.75523 0.74368 0.37523 0.0
O28 O 0.75389 0.73513 0.40577 0.0
C29 C 0.8641 0.68607 0.45563 0.0
C30 C 0.01495 0.77339 0.36804 0.0
O31 O 0.00401 0.79861 0.39209 0.0
O32 O 0.97824 0.72386 0.35353 0.0
O33 O 0.15082 0.27126 0.58756 0.0
Cd34 Cd 0.14987 0.24503 0.64268 0.0
O35 O 0.12238 0.33153 0.59694 0.0
Cd36 Cd 0.1117 0.32053 0.64811 0.0
O37 O 0.04736 0.28356 0.67856 0.0
C38 C 0.00404 0.25386 0.65875 0.0
O39 O 0.0062 0.25215 0.62692 0.0
C40 C 0.13733 0.30425 0.57719 0.0
C41 C 0.224 0.21246 0.66187 0.0
O42 O 0.19182 0.18867 0.63484 0.0
O43 O 0.22296 0.25306 0.67997 0.0
O44 O 0.70002 0.77942 0.58717 0.0
Cd45 Cd 0.71347 0.79474 0.64695 0.0
O46 O 0.76941 0.86379 0.59806 0.0
Cd47 Cd 0.83342 0.95226 0.60542 0.0
O48 O 0.86599 0.02624 0.64551 0.0
C49 C 0.83103 0.03926 0.65276 0.0
O50 O 0.78298 0.01036 0.63547 0.0
C51 C 0.73244 0.82336 0.57675 0.0
C52 C 0.77722 0.75712 0.67153 0.0
O53 O 0.72819 0.72329 0.65887 0.0
O54 O 0.79775 0.81007 0.67212 0.0
O55 O 0.08397 0.81096 0.58024 0.0
Cd56 Cd 0.08617 0.82977 0.64069 0.0
O57 O 0.17064 0.8528 0.59479 0.0
Cd58 Cd 0.23853 0.8897 0.63311 0.0
O59 O 0.26247 0.96216 0.67154 0.0
C60 C 0.25574 -0.00025 0.66166 0.0
O61 O 0.23958 0.99341 0.63027 0.0
C62 C 0.13096 0.83122 0.57228 0.0
C63 C 0.98766 0.77281 0.66429 0.0
O64 O 0.99495 0.80354 0.64255 0.0
O65 O 0.02678 0.76752 0.67502 0.0
O66 O 0.93378 0.51635 0.77717 0.0
Cd67 Cd 0.95091 0.53471 0.72156 0.0
O68 O 0.98204 0.47498 0.77412 0.0
Cd69 Cd 0.97327 0.45534 0.72064 0.0
O70 O 0.93039 0.37629 0.68487 0.0
C71 C 0.90795 0.33247 0.69778 0.0
O72 O 0.91379 0.33793 0.73007 0.0
C73 C 0.95745 0.49476 0.79074 0.0
C74 C 0.88532 0.56697 0.69166 0.0
O75 O 0.9243 0.60111 0.71439 0.0
O76 O 0.87643 0.51678 0.68301 0.0
O77 O 0.56375 0.52763 0.77677 0.0
Cd78 Cd 0.56422 0.50417 0.71703 0.0
O79 O 0.55782 0.4463 0.77244 0.0
Cd80 Cd 0.5405 0.36087 0.77359 0.0
O81 O 0.49769 0.29125 0.73145 0.0
C82 C 0.45297 0.28546 0.72095 0.0
O83 O 0.43687 0.31743 0.73698 0.0
C84 C 0.55662 0.48664 0.79037 0.0
C85 C 0.66539 0.55123 0.69687 0.0
O86 O 0.63727 0.57491 0.69539 0.0
O87 O 0.64618 0.50531 0.70814 0.0
O88 O 0.57291 0.02854 0.77622 0.0
Cd89 Cd 0.57984 0.05671 0.72155 0.0
O90 O 0.49255 0.01913 0.77229 0.0
Cd91 Cd 0.48486 0.02883 0.72093 0.0
O92 O 0.44769 0.06156 0.69011 0.0
C93 C 0.42179 0.07695 0.70853 0.0
O94 O 0.42034 0.06826 0.73905 0.0
C95 C 0.53077 0.01942 0.78894 0.0
C96 C 0.68167 0.10683 0.7014 0.0
O97 O 0.67073 0.13203 0.72547 0.0
O98 O 0.64494 0.05732 0.68686 0.0
O99 O 0.81749 0.60449 0.92082 0.0
Cd100 Cd 0.81654 0.57827 0.97595 0.0
O101 O 0.78905 0.66475 0.93022 0.0
Cd102 Cd 0.77837 0.6537 0.98139 0.0
O103 O 0.71405 0.61676 1.01185 0.0
C104 C 0.67071 0.58708 0.99205 0.0
O105 O 0.67285 0.58538 0.96022 0.0
C106 C 0.80401 0.63748 0.91046 0.0
C107 C 0.89065 0.5457 0.99512 0.0
O108 O 0.858 0.52142 0.96829 0.0
O109 O 0.89009 0.58678 0.013 0.0
O110 O 0.36661 0.11269 0.92051 0.0
Cd111 Cd 0.38008 0.12802 0.98028 0.0
O112 O 0.43601 0.19706 0.93141 0.0
Cd113 Cd 0.50002 0.28553 0.93877 0.0
O114 O 0.5326 0.3595 0.97886 0.0
C115 C 0.49766 0.37254 0.98612 0.0
O116 O 0.4496 0.34366 0.96882 0.0
C117 C 0.39904 0.15663 0.91009 0.0
C118 C 0.44386 0.09043 1.00485 0.0
O119 O 0.39483 0.05659 0.99219 0.0
O120 O 0.46437 0.14338 1.00544 0.0
O121 O 0.75049 0.14416 0.91349 0.0
Cd122 Cd 0.75278 0.16295 0.974 0.0
O123 O 0.83701 0.18595 0.92834 0.0
Cd124 Cd 0.90526 0.22302 0.96643 0.0
O125 O 0.92912 0.2954 1.00493 0.0
C126 C 0.9225 0.33303 0.99501 0.0
O127 O 0.90649 0.32673 0.96361 0.0
C128 C 0.79756 0.16446 0.90567 0.0
C129 C 0.65429 0.10607 0.99763 0.0
O130 O 0.6616 0.13683 0.9759 0.0
O131 O 0.69338 0.10071 1.00835 0.0
O132 O 0.60124 0.85064 0.11067 0.0
Cd133 Cd 0.6182 0.86883 0.05501 0.0
O134 O 0.64807 0.80769 0.10742 0.0
Cd135 Cd 0.63974 0.78861 0.05395 0.0
O136 O 0.597 0.70959 0.01816 0.0
C137 C 0.57466 0.66578 0.03109 0.0
O138 O 0.58056 0.67127 0.06338 0.0
C139 C 0.6241 0.82816 0.12412 0.0
C140 C 0.55225 0.9006 0.02502 0.0
O141 O 0.59115 0.93486 0.04777 0.0
O142 O 0.54362 0.8505 0.01638 0.0
O143 O 0.23039 0.86094 0.11006 0.0
Cd144 Cd 0.2308 0.83751 0.05031 0.0
O145 O 0.22445 0.77961 0.10571 0.0
Cd146 Cd 0.20713 0.69417 0.10684 0.0
O147 O 0.16432 0.62458 0.06468 0.0
C148 C 0.11961 0.61879 0.05418 0.0
O149 O 0.1035 0.65075 0.07021 0.0
C150 C 0.22327 0.81995 0.12365 0.0
C151 C 0.33196 0.88455 0.03014 0.0
O152 O 0.30389 0.90829 0.02873 0.0
O153 O 0.3127 0.83856 0.04134 0.0
O154 O 0.23962 0.3619 0.1096 0.0
Cd155 Cd 0.24657 0.39013 0.05495 0.0
O156 O 0.15925 0.35248 0.10564 0.0
Cd157 Cd 0.15157 0.36218 0.05429 0.0
O158 O 0.11436 0.39487 0.02346 0.0
C159 C 0.08857 0.41039 0.04189 0.0
O160 O 0.08723 0.40186 0.07244 0.0
C161 C 0.19746 0.35277 0.12231 0.0
C162 C 0.34841 0.44021 0.03479 0.0
O163 O 0.33749 0.46542 0.05888 0.0
O164 O 0.31165 0.39072 0.02025 0.0
O165 O 0.48418 0.93795 0.25423 0.0
Cd166 Cd 0.48325 0.91168 0.30935 0.0
O167 O 0.45572 -0.0018 0.26361 0.0
Cd168 Cd 0.445 0.98717 0.31478 0.0
O169 O 0.38064 0.95017 0.3452 0.0
C170 C 0.33732 0.92045 0.32539 0.0
O171 O 0.33949 0.91873 0.29356 0.0
C172 C 0.47069 0.97093 0.24387 0.0
C173 C 0.55739 0.8791 0.32851 0.0
O174 O 0.52512 0.85524 0.30151 0.0
O175 O 0.55643 0.91978 0.34658 0.0
O176 O 0.0333 0.44608 0.25381 0.0
Cd177 Cd 0.04678 0.46136 0.31359 0.0
O178 O 0.10272 0.53044 0.2647 0.0
Cd179 Cd 0.16676 0.61889 0.27206 0.0
O180 O 0.19934 0.69287 0.31216 0.0
C181 C 0.16436 0.70584 0.31942 0.0
O182 O 0.1163 0.67691 0.30213 0.0
C183 C 0.06573 0.49002 0.24339 0.0
C184 C 0.11054 0.42374 0.33818 0.0
O185 O 0.06151 0.38991 0.3255 0.0
O186 O 0.13106 0.4767 0.33877 0.0
O187 O 0.41698 0.4773 0.24673 0.0
Cd188 Cd 0.41935 0.49618 0.30724 0.0
O189 O 0.50351 0.51916 0.2616 0.0
Cd190 Cd 0.57177 0.5563 0.29969 0.0
O191 O 0.5957 0.62867 0.33821 0.0
C192 C 0.58913 0.66635 0.32832 0.0
O193 O 0.57312 0.66008 0.29692 0.0
C194 C 0.46406 0.49763 0.23892 0.0
C195 C 0.32093 0.4394 0.33094 0.0
O196 O 0.32828 0.47035 0.30932 0.0
O197 O 0.35994 0.4338 0.34151 0.0
C198 C 0.5265 0.02082 0.11627 0.0
Eu199 Eu 0.51101 0.01481 0.05279 0.0
C200 C 0.49885 0.00165 0.14537 0.0
C201 C 0.48943 0.03792 0.16769 0.0
C202 C 0.47669 0.02621 0.19912 0.0
C203 C 0.47404 0.97853 0.20895 0.0
C204 C 0.47795 0.93951 0.18544 0.0
C205 C 0.49007 0.95085 0.154 0.0
C206 C 0.47387 0.06778 0.01944 0.0
C207 C 0.3871 0.91327 0.02258 0.0
C208 C 0.46186 0.97186 0.91403 0.0
Eu209 Eu 0.47733 0.97009 0.97639 0.0
C210 C 0.49063 0.98892 0.88511 0.0
C211 C 0.50312 0.95298 0.86489 0.0
C212 C 0.52103 0.96519 0.8344 0.0
C213 C 0.52609 0.0131 0.82368 0.0
C214 C 0.51701 0.05073 0.84477 0.0
C215 C 0.49973 0.03897 0.87521 0.0
C216 C 0.52061 0.92026 1.00863 0.0
C217 C 0.60037 0.07204 1.00616 0.0
O218 O 0.52778 0.98294 0.09417 0.0
O219 O 0.52192 0.05897 0.10329 0.0
O220 O 0.51157 0.09438 0.04461 0.0
O221 O 0.45622 0.01576 0.01487 0.0
O222 O 0.42619 0.93808 0.04789 0.0
O223 O 0.39538 0.92376 0.99245 0.0
O224 O 0.47005 0.01263 0.93793 0.0
O225 O 0.45673 0.92734 0.9247 0.0
O226 O 0.48682 0.89415 0.98156 0.0
O227 O 0.53311 0.9708 0.01432 0.0
O228 O 0.56043 0.04822 0.98149 0.0
O229 O 0.59329 0.06 0.03617 0.0
H230 H 0.49522 0.07709 0.1617 0.0
H231 H 0.47245 0.0564 0.21639 0.0
H232 H 0.47418 0.90135 0.19182 0.0
H233 H 0.49603 0.92138 0.13729 0.0
H234 H 0.49643 0.91405 0.87176 0.0
H235 H 0.52726 0.93529 0.81831 0.0
H236 H 0.52054 0.08788 0.83689 0.0
H237 H 0.49047 0.06755 0.8901 0.0
C238 C 0.00092 0.52306 0.11823 0.0
Eu239 Eu 0.98755 0.48975 0.05506 0.0
C240 C 0.02075 0.51086 0.14798 0.0
C241 C 0.98953 0.46028 0.15922 0.0
C242 C 0.00622 0.45246 0.18934 0.0
C243 C 0.05429 0.49517 0.20906 0.0
C244 C 0.0875 0.54391 0.19665 0.0
C245 C 0.07088 0.55163 0.16635 0.0
C246 C 0.93564 0.38467 0.01773 0.0
C247 C 0.06228 0.43974 0.03108 0.0
C248 C 0.00535 0.46789 0.91835 0.0
Eu249 Eu 0.00998 0.48226 0.98215 0.0
C250 C 0.98455 0.48029 0.88923 0.0
C251 C 0.01663 0.53154 0.87864 0.0
C252 C 0.00428 0.53849 0.84724 0.0
C253 C 0.9596 0.49454 0.82608 0.0
C254 C 0.92479 0.44518 0.83743 0.0
C255 C 0.93708 0.43811 0.86895 0.0
C256 C 0.08355 0.57425 0.02648 0.0
C257 C 0.92799 0.52692 1.00445 0.0
O258 O 0.03727 0.54901 0.09931 0.0
O259 O 0.95385 0.48424 0.10149 0.0
O260 O 0.95075 0.39447 0.04921 0.0
O261 O 0.94448 0.42933 1.00856 0.0
O262 O 0.0556 0.47219 0.0546 0.0
O263 O 0.04219 0.43006 0.99989 0.0
O264 O 0.97098 0.42934 0.93354 0.0
O265 O 0.04502 0.51091 0.93855 0.0
O266 O 0.09707 0.5485 1.00362 0.0
O267 O 0.03353 0.55093 0.02432 0.0
O268 O 0.95167 0.51445 0.9807 0.0
O269 O 0.9353 0.5216 0.03546 0.0
H270 H 0.95131 0.4275 0.1454 0.0
H271 H 0.97993 0.41384 0.19787 0.0
H272 H 0.12517 0.57701 0.21087 0.0
H273 H 0.09637 0.5906 0.1579 0.0
H274 H 0.05352 0.56485 0.89357 0.0
H275 H 0.03199 0.57641 0.83855 0.0
H276 H 0.89048 0.41055 0.82106 0.0
H277 H 0.91161 0.39818 0.87642 0.0
C278 C 0.46773 0.46193 0.91377 0.0
Eu279 Eu 0.49241 0.50186 0.97665 0.0
C280 C 0.49568 0.47186 0.88403 0.0
C281 C 0.50932 0.51977 0.87011 0.0
C282 C 0.53154 0.52564 0.8405 0.0
C283 C 0.54047 0.48371 0.82404 0.0
C284 C 0.52978 0.4375 0.83902 0.0
C285 C 0.50751 0.43159 0.86862 0.0
C286 C 0.54209 0.60946 1.01055 0.0
C287 C 0.61807 0.5571 1.00316 0.0
C288 C 0.54702 0.53852 0.11636 0.0
Eu289 Eu 0.53188 0.51783 0.05201 0.0
C290 C 0.51658 0.52323 0.14478 0.0
C291 C 0.50519 0.47359 0.15628 0.0
C292 C 0.48453 0.46337 0.18608 0.0
C293 C 0.47442 0.50222 0.20475 0.0
C294 C 0.48314 0.55049 0.19274 0.0
C295 C 0.50412 0.56098 0.16294 0.0
C296 C 0.51048 0.42153 1.01136 0.0
C297 C 0.40329 0.46523 0.02658 0.0
O298 O 0.48351 0.44016 0.93487 0.0
O299 O 0.45741 0.5003 0.92812 0.0
O300 O 0.54147 0.59722 0.97897 0.0
O301 O 0.51214 0.56552 0.02138 0.0
O302 O 0.5778 0.52024 0.9802 0.0
O303 O 0.61079 0.57048 0.03371 0.0
O304 O 0.5406 0.57116 0.09889 0.0
O305 O 0.55134 0.49888 0.09821 0.0
O306 O 0.55071 0.44785 0.03497 0.0
O307 O 0.4845 0.44629 1.01132 0.0
O308 O 0.44217 0.48243 0.05134 0.0
O309 O 0.41157 0.46707 0.99529 0.0
H310 H 0.5016 0.55205 0.88156 0.0
H311 H 0.53992 0.56223 0.82992 0.0
H312 H 0.53706 0.405 0.82752 0.0
H313 H 0.49816 0.39455 0.879 0.0
H314 H 0.51461 0.44378 0.1431 0.0
H315 H 0.47884 0.42643 0.19531 0.0
H316 H 0.47642 0.58148 0.20723 0.0
H317 H 0.5129 0.59983 0.15495 0.0
C318 C 0.19321 0.35421 0.44961 0.0
Eu319 Eu 0.17769 0.34813 0.38613 0.0
C320 C 0.16554 0.33502 0.4787 0.0
C321 C 0.15611 0.37127 0.50103 0.0
C322 C 0.14334 0.35954 0.53245 0.0
C323 C 0.1407 0.31185 0.54228 0.0
C324 C 0.14462 0.27285 0.51876 0.0
C325 C 0.15676 0.28421 0.48733 0.0
C326 C 0.14052 0.40109 0.35278 0.0
C327 C 0.0538 0.24656 0.35593 0.0
C328 C 0.12848 0.3052 0.24737 0.0
Eu329 Eu 0.14399 0.30342 0.30973 0.0
C330 C 0.15726 0.32225 0.21846 0.0
C331 C 0.16976 0.28631 0.19824 0.0
C332 C 0.18769 0.29852 0.16777 0.0
C333 C 0.19276 0.34644 0.15704 0.0
C334 C 0.18366 0.38407 0.17812 0.0
C335 C 0.16636 0.3723 0.20855 0.0
C336 C 0.18733 0.25361 0.34195 0.0
C337 C 0.26702 0.40539 0.33948 0.0
O338 O 0.19456 0.31636 0.42753 0.0
O339 O 0.18855 0.3923 0.43662 0.0
O340 O 0.17824 0.42769 0.37795 0.0
O341 O 0.12288 0.34907 0.34822 0.0
O342 O 0.09292 0.27133 0.38123 0.0
O343 O 0.06206 0.25711 0.32582 0.0
O344 O 0.13671 0.34597 0.27129 0.0
O345 O 0.12332 0.26066 0.25804 0.0
O346 O 0.15354 0.22751 0.31488 0.0
O347 O 0.1998 0.30414 0.34764 0.0
O348 O 0.22707 0.38158 0.31482 0.0
O349 O 0.25996 0.39331 0.36949 0.0
H350 H 0.16189 0.41044 0.49504 0.0
H351 H 0.13909 0.38972 0.54972 0.0
H352 H 0.14086 0.23469 0.52515 0.0
H353 H 0.16274 0.25475 0.47062 0.0
H354 H 0.16307 0.24738 0.20512 0.0
H355 H 0.19393 0.26863 0.15168 0.0
H356 H 0.1872 0.42122 0.17024 0.0
H357 H 0.15709 0.40088 0.22344 0.0
C358 C 0.66758 0.85633 0.45159 0.0
Eu359 Eu 0.65422 0.82305 0.38841 0.0
C360 C 0.68744 0.84415 0.48134 0.0
C361 C 0.65625 0.79356 0.49256 0.0
C362 C 0.67296 0.78575 0.52269 0.0
C363 C 0.721 0.82849 0.54241 0.0
C364 C 0.75418 0.87725 0.53001 0.0
C365 C 0.73755 0.88495 0.49971 0.0
C366 C 0.60231 0.71798 0.35106 0.0
C367 C 0.72895 0.77306 0.36443 0.0
C368 C 0.67204 0.80126 0.25171 0.0
Eu369 Eu 0.67668 0.81562 0.31552 0.0
C370 C 0.6512 0.81363 0.22259 0.0
C371 C 0.68315 0.86496 0.21205 0.0
C372 C 0.67077 0.87192 0.18066 0.0
C373 C 0.62621 0.82788 0.15946 0.0
C374 C 0.59153 0.77843 0.17075 0.0
C375 C 0.60382 0.77137 0.20228 0.0
C376 C 0.75024 0.90757 0.35986 0.0
C377 C 0.5947 0.86029 0.33783 0.0
O378 O 0.70392 0.88231 0.43267 0.0
O379 O 0.62052 0.81749 0.43485 0.0
O380 O 0.61741 0.72776 0.38254 0.0
O381 O 0.61116 0.76266 0.3419 0.0
O382 O 0.72227 0.80548 0.38795 0.0
O383 O 0.70887 0.7634 0.33323 0.0
O384 O 0.63768 0.7627 0.26691 0.0
O385 O 0.7117 0.84429 0.27191 0.0
O386 O 0.76377 0.88185 0.33699 0.0
O387 O 0.70022 0.88425 0.3577 0.0
O388 O 0.61841 0.84786 0.31408 0.0
O389 O 0.60197 0.8549 0.36883 0.0
H390 H 0.61805 0.76075 0.47873 0.0
H391 H 0.6467 0.74712 0.53121 0.0
H392 H 0.79183 0.91038 0.54423 0.0
H393 H 0.76301 0.92394 0.49126 0.0
H394 H 0.71997 0.89833 0.22701 0.0
H395 H 0.6984 0.90991 0.172 0.0
H396 H 0.5573 0.74373 0.15435 0.0
H397 H 0.57844 0.73138 0.20972 0.0
C398 C 0.13438 0.79519 0.24705 0.0
Eu399 Eu 0.15902 0.8351 0.30993 0.0
C400 C 0.16235 0.80515 0.21731 0.0
C401 C 0.17599 0.85306 0.2034 0.0
C402 C 0.19822 0.85895 0.1738 0.0
C403 C 0.20715 0.81702 0.15733 0.0
C404 C 0.19646 0.77081 0.17231 0.0
C405 C 0.17419 0.76489 0.2019 0.0
C406 C 0.20863 0.9427 0.34382 0.0
C407 C 0.28467 0.89042 0.33648 0.0
C408 C 0.21357 0.8718 0.44965 0.0
Eu409 Eu 0.19843 0.8511 0.3853 0.0
C410 C 0.18318 0.85657 0.47809 0.0
C411 C 0.17178 0.80694 0.48961 0.0
C412 C 0.15116 0.79678 0.51942 0.0
C413 C 0.14106 0.83565 0.53807 0.0
C414 C 0.14987 0.88395 0.52607 0.0
C415 C 0.17081 0.89439 0.49626 0.0
C416 C 0.17714 0.75483 0.34466 0.0
C417 C 0.06984 0.79843 0.35983 0.0
O418 O 0.15015 0.77342 0.26815 0.0
O419 O 0.12404 0.83355 0.2614 0.0
O420 O 0.20807 0.93045 0.31225 0.0
O421 O 0.17867 0.89875 0.35465 0.0
O422 O 0.24442 0.85353 0.31352 0.0
O423 O 0.27736 0.90379 0.36702 0.0
O424 O 0.20716 0.90444 0.43217 0.0
O425 O 0.21784 0.83212 0.4315 0.0
O426 O 0.21736 0.78119 0.36827 0.0
O427 O 0.15112 0.77953 0.3446 0.0
O428 O 0.10872 0.81566 0.3846 0.0
O429 O 0.07815 0.80027 0.32855 0.0
H430 H 0.16826 0.88534 0.21486 0.0
H431 H 0.20659 0.89554 0.16322 0.0
H432 H 0.20374 0.73831 0.1608 0.0
H433 H 0.16484 0.72784 0.21228 0.0
H434 H 0.18116 0.7771 0.47643 0.0
H435 H 0.14551 0.75987 0.52868 0.0
H436 H 0.14326 0.91501 0.54059 0.0
H437 H 0.17963 0.93324 0.48827 0.0
C438 C 0.85992 0.68758 0.78292 0.0
Eu439 Eu 0.84441 0.68148 0.71943 0.0
C440 C 0.83224 0.66835 0.812 0.0
C441 C 0.8228 0.70458 0.83433 0.0
C442 C 0.81002 0.69282 0.86575 0.0
C443 C 0.80737 0.64512 0.87556 0.0
C444 C 0.81131 0.60614 0.85203 0.0
C445 C 0.82345 0.61752 0.8206 0.0
C446 C 0.80722 0.73446 0.68612 0.0
C447 C 0.72051 0.57994 0.68927 0.0
C448 C 0.79519 0.63849 0.58072 0.0
Eu449 Eu 0.81069 0.63679 0.64309 0.0
C450 C 0.82398 0.65556 0.5518 0.0
C451 C 0.83648 0.61964 0.53158 0.0
C452 C 0.85439 0.63185 0.5011 0.0
C453 C 0.85942 0.67975 0.49037 0.0
C454 C 0.85032 0.71737 0.51146 0.0
C455 C 0.83305 0.7056 0.5419 0.0
C456 C 0.85383 0.58682 0.6753 0.0
C457 C 0.93374 0.73875 0.67281 0.0
O458 O 0.86133 0.64976 0.76084 0.0
O459 O 0.85521 0.72563 0.76992 0.0
O460 O 0.84498 0.76106 0.71125 0.0
O461 O 0.78956 0.68244 0.68156 0.0
O462 O 0.75966 0.60463 0.71455 0.0
O463 O 0.72875 0.59058 0.65917 0.0
O464 O 0.80332 0.67924 0.60461 0.0
O465 O 0.79015 0.59401 0.59141 0.0
O466 O 0.81988 0.56072 0.6483 0.0
O467 O 0.86651 0.63742 0.68097 0.0
O468 O 0.8938 0.71491 0.64815 0.0
O469 O 0.92668 0.72672 0.70282 0.0
H470 H 0.82858 0.74376 0.82836 0.0
H471 H 0.80576 0.72298 0.88303 0.0
H472 H 0.80754 0.56796 0.8584 0.0
H473 H 0.82944 0.58808 0.80389 0.0
H474 H 0.82981 0.58071 0.53845 0.0
H475 H 0.86063 0.60196 0.485 0.0
H476 H 0.85383 0.75451 0.50357 0.0
H477 H 0.82377 0.73417 0.55678 0.0
C478 C 0.33423 0.18967 0.78494 0.0
Eu479 Eu 0.32085 0.15642 0.72176 0.0
C480 C 0.35409 0.17746 0.81468 0.0
C481 C 0.3229 0.12686 0.8259 0.0
C482 C 0.33959 0.11905 0.85602 0.0
C483 C 0.38762 0.16178 0.87575 0.0
C484 C 0.42081 0.21054 0.86336 0.0
C485 C 0.4042 0.21826 0.83306 0.0
C486 C 0.26891 0.05138 0.68439 0.0
C487 C 0.39553 0.10636 0.69775 0.0
C488 C 0.33884 0.13485 0.58507 0.0
Eu489 Eu 0.34334 0.14904 0.64887 0.0
C490 C 0.31792 0.14708 0.55592 0.0
C491 C 0.3498 0.19839 0.54534 0.0
C492 C 0.33738 0.20524 0.51393 0.0
C493 C 0.29287 0.16111 0.49274 0.0
C494 C 0.25827 0.11166 0.50406 0.0
C495 C 0.27059 0.10471 0.53562 0.0
C496 C 0.41692 0.24092 0.69325 0.0
C497 C 0.26132 0.19365 0.67119 0.0
O498 O 0.37057 0.21565 0.76602 0.0
O499 O 0.28716 0.15085 0.7682 0.0
O500 O 0.28401 0.06114 0.71587 0.0
O501 O 0.27778 0.09607 0.67523 0.0
O502 O 0.38884 0.13876 0.72129 0.0
O503 O 0.3755 0.09677 0.66655 0.0
O504 O 0.30459 0.09613 0.60023 0.0
O505 O 0.37833 0.17799 0.60531 0.0
O506 O 0.43044 0.21517 0.67038 0.0
O507 O 0.3669 0.21765 0.69107 0.0
O508 O 0.28499 0.18117 0.64743 0.0
O509 O 0.26863 0.18831 0.7022 0.0
H510 H 0.28469 0.09406 0.81206 0.0
H511 H 0.31332 0.0804 0.86454 0.0
H512 H 0.45846 0.24366 0.87759 0.0
H513 H 0.42966 0.25725 0.82462 0.0
H514 H 0.38658 0.23183 0.5603 0.0
H515 H 0.36494 0.24324 0.50526 0.0
H516 H 0.22409 0.07689 0.48768 0.0
H517 H 0.24527 0.06473 0.54308 0.0
C518 C 0.80112 0.12867 0.58042 0.0
Eu519 Eu 0.82575 0.16857 0.64331 0.0
C520 C 0.82908 0.1386 0.55068 0.0
C521 C 0.84273 0.18651 0.53676 0.0
C522 C 0.86494 0.19237 0.50715 0.0
C523 C 0.87385 0.15043 0.49069 0.0
C524 C 0.86317 0.10423 0.50567 0.0
C525 C 0.8409 0.09832 0.53527 0.0
C526 C 0.87537 0.27616 0.67723 0.0
C527 C 0.95139 0.22384 0.66985 0.0
C528 C 0.88027 0.20517 0.78302 0.0
Eu529 Eu 0.86515 0.18451 0.71867 0.0
C530 C 0.84987 0.18992 0.81146 0.0
C531 C 0.8385 0.14029 0.82297 0.0
C532 C 0.81792 0.13013 0.8528 0.0
C533 C 0.80789 0.16903 0.87149 0.0
C534 C 0.81658 0.21727 0.85946 0.0
C535 C 0.83748 0.22771 0.82964 0.0
C536 C 0.84383 0.08824 0.67801 0.0
C537 C 0.73657 0.13187 0.6932 0.0
O538 O 0.81689 0.1069 0.60153 0.0
O539 O 0.79079 0.16703 0.59477 0.0
O540 O 0.8748 0.26394 0.64566 0.0
O541 O 0.84542 0.2322 0.68804 0.0
O542 O 0.91114 0.18697 0.64688 0.0
O543 O 0.94408 0.23719 0.70039 0.0
O544 O 0.87385 0.23782 0.76555 0.0
O545 O 0.88457 0.16552 0.76487 0.0
O546 O 0.88404 0.11457 0.70163 0.0
O547 O 0.81783 0.11298 0.67796 0.0
O548 O 0.77543 0.14907 0.71797 0.0
O549 O 0.74488 0.13373 0.66191 0.0
H550 H 0.83501 0.2188 0.54822 0.0
H551 H 0.87332 0.22896 0.49657 0.0
H552 H 0.87043 0.07171 0.49417 0.0
H553 H 0.83155 0.06128 0.54566 0.0
H554 H 0.84788 0.11046 0.80978 0.0
H555 H 0.81223 0.09319 0.86203 0.0
H556 H 0.8099 0.24829 0.87397 0.0
H557 H 0.84625 0.26655 0.82164 0.0
loop_
_geom_bond_atom_site_label_1
_geom_bond_atom_site_label_2
_geom_bond_distance
_geom_bond_site_symmetry_2
_ccdc_geom_bond_type
O0 Cd1 2.300 . S
O0 C7 1.275 . S
Cd1 O0 2.300 . S
Cd1 O9 2.381 . S
Cd1 O10 2.378 . S
O2 Cd3 2.385 . S
O2 C7 1.255 . S
Cd3 O2 2.385 . S
Cd3 O4 2.317 . S
O4 Cd3 2.317 . S
O4 C5 1.232 . S
C5 O4 1.232 . S
C5 O6 1.218 . S
O6 C5 1.218 . S
C7 O0 1.275 . S
C7 O2 1.255 . S
C8 O9 1.258 . S
C8 O10 1.256 . S
O9 Cd1 2.381 . S
O9 C8 1.258 . S
O10 Cd1 2.378 . S
O10 C8 1.256 . S
O11 Cd12 2.300 . S
O11 C18 1.275 . S
Cd12 O11 2.300 . S
Cd12 O20 2.381 . S
Cd12 O21 2.385 . S
O13 Cd14 2.385 . S
O13 C18 1.255 . S
Cd14 O13 2.385 . S
Cd14 O15 2.317 . S
O15 Cd14 2.317 . S
O15 C16 1.232 1_545 S
C16 O15 1.232 1_565 S
C16 O17 1.218 . S
O17 C16 1.218 . S
C18 O11 1.275 . S
C18 O13 1.255 . S
C19 O20 1.258 1_455 S
C19 O21 1.260 1_455 S
O20 Cd12 2.381 . S
O20 C19 1.258 1_655 S
O21 Cd12 2.385 . S
O21 C19 1.260 1_655 S
O22 Cd23 2.300 . S
O22 C29 1.275 . S
Cd23 O22 2.300 . S
Cd23 O31 2.381 1_655 S
Cd23 O32 2.378 . S
O24 Cd25 2.385 . S
O24 C29 1.255 . S
Cd25 O24 2.385 . S
Cd25 O26 2.317 . S
O26 Cd25 2.317 . S
O26 C27 1.232 . S
C27 O26 1.232 . S
C27 O28 1.218 . S
O28 C27 1.218 . S
C29 O22 1.275 . S
C29 O24 1.255 . S
C30 O31 1.258 . S
C30 O32 1.256 1_455 S
O31 Cd23 2.381 1_455 S
O31 C30 1.258 . S
O32 Cd23 2.378 . S
O32 C30 1.256 1_655 S
O33 Cd34 2.300 . S
O33 C40 1.275 . S
Cd34 O33 2.300 . S
Cd34 O42 2.381 . S
Cd34 O43 2.378 . S
O35 Cd36 2.385 . S
O35 C40 1.255 . S
Cd36 O35 2.385 . S
Cd36 O37 2.317 . S
O37 Cd36 2.317 . S
O37 C38 1.232 . S
C38 O37 1.232 . S
C38 O39 1.218 . S
O39 C38 1.218 . S
C40 O33 1.275 . S
C40 O35 1.255 . S
C41 O42 1.258 . S
C41 O43 1.256 . S
O42 Cd34 2.381 . S
O42 C41 1.258 . S
O43 Cd34 2.378 . S
O43 C41 1.256 . S
O44 Cd45 2.300 . S
O44 C51 1.275 . S
Cd45 O44 2.300 . S
Cd45 O53 2.381 . S
Cd45 O54 2.378 . S
O46 Cd47 2.385 . S
O46 C51 1.255 . S
Cd47 O46 2.385 . S
Cd47 O48 2.317 . S
O48 Cd47 2.317 . S
O48 C49 1.232 1_565 S
C49 O48 1.232 1_545 S
C49 O50 1.218 . S
O50 C49 1.218 . S
C51 O44 1.275 . S
C51 O46 1.255 . S
C52 O53 1.258 . S
C52 O54 1.256 . S
O53 Cd45 2.381 . S
O53 C52 1.258 . S
O54 Cd45 2.378 . S
O54 C52 1.256 . S
O55 Cd56 2.300 . S
O55 C62 1.275 . S
Cd56 O55 2.300 . S
Cd56 O64 2.381 1_455 S
Cd56 O65 2.378 . S
O57 Cd58 2.385 . S
O57 C62 1.255 . S
Cd58 O57 2.385 . S
Cd58 O59 2.317 . S
O59 Cd58 2.317 . S
O59 C60 1.232 . S
C60 O59 1.232 . S
C60 O61 1.218 . S
O61 C60 1.218 . S
C62 O55 1.275 . S
C62 O57 1.255 . S
C63 O64 1.258 . S
C63 O65 1.256 1_655 S
O64 Cd56 2.381 1_655 S
O64 C63 1.258 . S
O65 Cd56 2.378 . S
O65 C63 1.256 1_455 S
O66 Cd67 2.300 . S
O66 C73 1.275 . S
Cd67 O66 2.300 . S
Cd67 O75 2.381 . S
Cd67 O76 2.378 . S
O68 Cd69 2.385 1_655 S
O68 C73 1.255 . S
Cd69 O68 2.385 1_455 S
Cd69 O70 2.317 1_455 S
O70 Cd69 2.317 1_655 S
O70 C71 1.232 . S
C71 O70 1.232 . S
C71 O72 1.218 . S
O72 C71 1.218 . S
C73 O66 1.275 . S
C73 O68 1.255 . S
C74 O75 1.258 . S
C74 O76 1.256 . S
O75 Cd67 2.381 . S
O75 C74 1.258 . S
O76 Cd67 2.378 . S
O76 C74 1.256 . S
O77 Cd78 2.300 . S
O77 C84 1.275 . S
Cd78 O77 2.300 . S
Cd78 O86 2.381 . S
Cd78 O87 2.378 . S
O79 Cd80 2.385 . S
O79 C84 1.255 . S
Cd80 O79 2.385 . S
Cd80 O81 2.317 . S
O81 Cd80 2.317 . S
O81 C82 1.232 . S
C82 O81 1.232 . S
C82 O83 1.218 . S
O83 C82 1.218 . S
C84 O77 1.275 . S
C84 O79 1.255 . S
C85 O86 1.258 . S
C85 O87 1.256 . S
O86 Cd78 2.381 . S
O86 C85 1.258 . S
O87 Cd78 2.378 . S
O87 C85 1.256 . S
O88 Cd89 2.300 . S
O88 C95 1.275 . S
Cd89 O88 2.300 . S
Cd89 O97 2.381 . S
Cd89 O98 2.378 . S
O90 Cd91 2.385 1_545 S
O90 C95 1.255 . S
Cd91 O90 2.385 1_565 S
Cd91 O92 2.317 1_565 S
O92 Cd91 2.317 1_545 S
O92 C93 1.232 . S
C93 O92 1.232 . S
C93 O94 1.218 . S
O94 C93 1.218 . S
C95 O88 1.275 . S
C95 O90 1.255 . S
C96 O97 1.258 . S
C96 O98 1.256 . S
O97 Cd89 2.381 . S
O97 C96 1.258 . S
O98 Cd89 2.378 . S
O98 C96 1.256 . S
O99 Cd100 2.300 . S
O99 C106 1.275 . S
Cd100 O99 2.300 . S
Cd100 O108 2.381 . S
Cd100 O109 2.361 1_556 S
O101 Cd102 2.385 . S
O101 C106 1.255 . S
Cd102 O101 2.385 . S
Cd102 O103 2.317 . S
O103 Cd102 2.317 . S
O103 C104 1.232 . S
C104 O103 1.232 . S
C104 O105 1.218 . S
O105 C104 1.218 . S
C106 O99 1.275 . S
C106 O101 1.255 . S
C107 O108 1.258 . S
C107 O109 1.242 1_556 S
O108 Cd100 2.381 . S
O108 C107 1.258 . S
O109 Cd100 2.361 1_554 S
O109 C107 1.242 1_554 S
O110 Cd111 2.300 . S
O110 C117 1.275 . S
Cd111 O110 2.300 . S
Cd111 O119 2.381 . S
Cd111 O120 2.378 1_556 S
O112 Cd113 2.385 . S
O112 C117 1.255 . S
Cd113 O112 2.385 . S
Cd113 O114 2.317 . S
O114 Cd113 2.317 . S
O114 C115 1.232 . S
C115 O114 1.232 . S
C115 O116 1.218 . S
O116 C115 1.218 . S
C117 O110 1.275 . S
C117 O112 1.255 . S
C118 O119 1.258 . S
C118 O120 1.256 1_556 S
O119 Cd111 2.381 . S
O119 C118 1.258 . S
O120 Cd111 2.378 1_554 S
O120 C118 1.256 1_554 S
O121 Cd122 2.300 . S
O121 C128 1.275 . S
Cd122 O121 2.300 . S
Cd122 O130 2.381 . S
Cd122 O131 2.378 . S
O123 Cd124 2.385 . S
O123 C128 1.255 . S
Cd124 O123 2.385 . S
Cd124 O125 2.317 . S
O125 Cd124 2.317 . S
O125 C126 1.232 . S
C126 O125 1.232 . S
C126 O127 1.218 . S
O127 C126 1.218 . S
C128 O121 1.275 . S
C128 O123 1.255 . S
C129 O130 1.258 . S
C129 O131 1.256 . S
O130 Cd122 2.381 . S
O130 C129 1.258 . S
O131 Cd122 2.378 . S
O131 C129 1.256 . S
O132 Cd133 2.300 . S
O132 C139 1.275 . S
Cd133 O132 2.300 . S
Cd133 O141 2.381 . S
Cd133 O142 2.371 1_554 S
O134 Cd135 2.385 . S
O134 C139 1.255 . S
Cd135 O134 2.385 . S
Cd135 O136 2.317 . S
O136 Cd135 2.317 . S
O136 C137 1.232 . S
C137 O136 1.232 . S
C137 O138 1.218 . S
O138 C137 1.218 . S
C139 O132 1.275 . S
C139 O134 1.255 . S
C140 O141 1.258 . S
C140 O142 1.251 1_554 S
O141 Cd133 2.381 . S
O141 C140 1.258 . S
O142 Cd133 2.371 1_556 S
O142 C140 1.251 1_556 S
O143 Cd144 2.300 . S
O143 C150 1.275 . S
Cd144 O143 2.300 . S
Cd144 O152 2.381 . S
Cd144 O153 2.378 . S
O145 Cd146 2.385 . S
O145 C150 1.255 . S
Cd146 O145 2.385 . S
Cd146 O147 2.317 . S
O147 Cd146 2.317 . S
O147 C148 1.232 . S
C148 O147 1.232 . S
C148 O149 1.218 . S
O149 C148 1.218 . S
C150 O143 1.275 . S
C150 O145 1.255 . S
C151 O152 1.258 . S
C151 O153 1.256 . S
O152 Cd144 2.381 . S
O152 C151 1.258 . S
O153 Cd144 2.378 . S
O153 C151 1.256 . S
O154 Cd155 2.300 . S
O154 C161 1.275 . S
Cd155 O154 2.300 . S
Cd155 O163 2.381 . S
Cd155 O164 2.378 . S
O156 Cd157 2.385 . S
O156 C161 1.255 . S
Cd157 O156 2.385 . S
Cd157 O158 2.317 . S
O158 Cd157 2.317 . S
O158 C159 1.232 . S
C159 O158 1.232 . S
C159 O160 1.218 . S
O160 C159 1.218 . S
C161 O154 1.275 . S
C161 O156 1.255 . S
C162 O163 1.258 . S
C162 O164 1.256 . S
O163 Cd155 2.381 . S
O163 C162 1.258 . S
O164 Cd155 2.378 . S
O164 C162 1.256 . S
O165 Cd166 2.300 . S
O165 C172 1.275 . S
Cd166 O165 2.300 . S
Cd166 O174 2.381 . S
Cd166 O175 2.378 . S
O167 Cd168 2.385 1_565 S
O167 C172 1.255 . S
Cd168 O167 2.385 1_545 S
Cd168 O169 2.317 1_545 S
O169 Cd168 2.317 1_565 S
O169 C170 1.232 . S
C170 O169 1.232 . S
C170 O171 1.218 . S
O171 C170 1.218 . S
C172 O165 1.275 . S
C172 O167 1.255 . S
C173 O174 1.258 . S
C173 O175 1.256 . S
O174 Cd166 2.381 . S
O174 C173 1.258 . S
O175 Cd166 2.378 . S
O175 C173 1.256 . S
O176 Cd177 2.300 . S
O176 C183 1.275 . S
Cd177 O176 2.300 . S
Cd177 O185 2.381 . S
Cd177 O186 2.378 . S
O178 Cd179 2.385 . S
O178 C183 1.255 . S
Cd179 O178 2.385 . S
Cd179 O180 2.317 . S
O180 Cd179 2.317 . S
O180 C181 1.232 . S
C181 O180 1.232 . S
C181 O182 1.218 . S
O182 C181 1.218 . S
C183 O176 1.275 . S
C183 O178 1.255 . S
C184 O185 1.258 . S
C184 O186 1.256 . S
O185 Cd177 2.381 . S
O185 C184 1.258 . S
O186 Cd177 2.378 . S
O186 C184 1.256 . S
O187 Cd188 2.300 . S
O187 C194 1.275 . S
Cd188 O187 2.300 . S
Cd188 O196 2.381 . S
Cd188 O197 2.378 . S
O189 Cd190 2.385 . S
O189 C194 1.255 . S
Cd190 O189 2.385 . S
Cd190 O191 2.317 . S
O191 Cd190 2.317 . S
O191 C192 1.232 . S
C192 O191 1.232 . S
C192 O193 1.218 . S
O193 C192 1.218 . S
C194 O187 1.275 . S
C194 O189 1.255 . S
C195 O196 1.258 . S
C195 O197 1.256 . S
O196 Cd188 2.381 . S
O196 C195 1.258 . S
O197 Cd188 2.378 . S
O197 C195 1.256 . S
C198 Eu199 2.835 . S
C198 C200 1.500 1_545 S
C198 O218 1.257 1_545 S
C198 O219 1.260 . S
Eu199 C198 2.835 . S
Eu199 O218 2.473 1_545 S
Eu199 O219 2.480 . S
Eu199 O220 2.430 . S
Eu199 O221 2.670 1_554 S
Eu199 O222 2.394 1_545 S
Eu199 O227 2.355 1_545 S
Eu199 O229 2.374 . S
C200 C198 1.500 1_565 S
C200 C201 1.377 1_565 S
C200 C205 1.377 . S
C201 C200 1.377 1_545 S
C201 C202 1.395 . S
C201 H230 0.931 . S
C202 C201 1.395 . S
C202 C203 1.383 1_545 S
C202 H231 0.931 . S
C203 C202 1.383 1_565 S
C203 C204 1.394 . S
C204 C203 1.394 . S
C204 C205 1.378 . S
C204 H232 0.931 . S
C205 C200 1.377 . S
C205 C204 1.378 . S
C205 H233 0.931 . S
C206 O220 1.259 . S
C206 O221 1.270 1_554 S
C207 O222 1.251 . S
C207 O223 1.251 1_554 S
C208 Eu209 2.835 . S
C208 C210 1.500 1_565 S
C208 O224 1.257 1_565 S
C208 O225 1.260 . S
Eu209 C208 2.835 . S
Eu209 O221 2.355 1_565 S
Eu209 O223 2.374 . S
Eu209 O224 2.473 1_565 S
Eu209 O225 2.480 . S
Eu209 O226 2.430 . S
Eu209 O227 2.670 1_556 S
Eu209 O228 2.394 1_565 S
C210 C208 1.500 1_545 S
C210 C211 1.377 1_545 S
C210 C215 1.377 . S
C211 C210 1.377 1_565 S
C211 C212 1.395 . S
C211 H234 0.931 . S
C212 C211 1.395 . S
C212 C213 1.383 1_565 S
C212 H235 0.931 . S
C213 C212 1.383 1_545 S
C213 C214 1.394 . S
C214 C213 1.394 . S
C214 C215 1.378 . S
C214 H236 0.931 . S
C215 C210 1.377 . S
C215 C214 1.378 . S
C215 H237 0.931 . S
C216 O226 1.259 1_554 S
C216 O227 1.270 . S
C217 O228 1.251 . S
C217 O229 1.251 1_556 S
O218 C198 1.257 1_565 S
O218 Eu199 2.473 1_565 S
O219 C198 1.260 . S
O219 Eu199 2.480 . S
O220 Eu199 2.430 . S
O220 C206 1.259 . S
O221 Eu199 2.670 1_556 S
O221 C206 1.270 1_556 S
O221 Eu209 2.355 1_545 S
O222 Eu199 2.394 1_565 S
O222 C207 1.251 . S
O223 C207 1.251 1_556 S
O223 Eu209 2.374 . S
O224 C208 1.257 1_545 S
O224 Eu209 2.473 1_545 S
O225 C208 1.260 . S
O225 Eu209 2.480 . S
O226 Eu209 2.430 . S
O226 C216 1.259 1_556 S
O227 Eu199 2.355 1_565 S
O227 Eu209 2.670 1_554 S
O227 C216 1.270 . S
O228 Eu209 2.394 1_545 S
O228 C217 1.251 . S
O229 Eu199 2.374 . S
O229 C217 1.251 1_554 S
H230 C201 0.931 . S
H231 C202 0.931 . S
H232 C204 0.931 . S
H233 C205 0.931 . S
H234 C211 0.931 . S
H235 C212 0.931 . S
H236 C214 0.931 . S
H237 C215 0.931 . S
C238 Eu239 2.835 1_455 S
C238 C240 1.500 . S
C238 O258 1.257 . S
C238 O259 1.260 1_455 S
Eu239 C238 2.835 1_655 S
Eu239 O258 2.473 1_655 S
Eu239 O259 2.480 . S
Eu239 O260 2.430 . S
Eu239 O261 2.670 1_554 S
Eu239 O262 2.394 1_655 S
Eu239 O267 2.355 1_655 S
Eu239 O269 2.374 . S
C240 C238 1.500 . S
C240 C241 1.377 . S
C240 C245 1.377 . S
C241 C240 1.377 . S
C241 C242 1.395 . S
C241 H270 0.931 1_455 S
C242 C241 1.395 . S
C242 C243 1.383 . S
C242 H271 0.936 . S
C243 C242 1.383 . S
C243 C244 1.394 . S
C244 C243 1.394 . S
C244 C245 1.378 . S
C244 H272 0.931 . S
C245 C240 1.377 . S
C245 C244 1.378 . S
C245 H273 0.931 . S
C246 O260 1.259 1_556 S
C246 O261 1.270 . S
C247 O262 1.251 . S
C247 O263 1.273 . S
C248 Eu249 2.835 1_655 S
C248 C250 1.500 . S
C248 O264 1.257 . S
C248 O265 1.260 1_655 S
Eu249 C248 2.835 1_455 S
Eu249 O261 2.355 1_455 S
Eu249 O263 2.359 1_556 S
Eu249 O264 2.473 1_455 S
Eu249 O265 2.480 . S
Eu249 O266 2.430 . S
Eu249 O267 2.670 1_556 S
Eu249 O268 2.394 1_455 S
C250 C248 1.500 . S
C250 C251 1.377 . S
C250 C255 1.377 . S
C251 C250 1.377 . S
C251 C252 1.395 . S
C251 H274 0.931 1_655 S
C252 C251 1.395 . S
C252 C253 1.383 . S
C252 H275 0.931 1_655 S
C253 C252 1.383 . S
C253 C254 1.394 . S
C254 C253 1.394 . S
C254 C255 1.378 . S
C254 H276 0.931 . S
C255 C250 1.377 . S
C255 C254 1.378 . S
C255 H277 0.931 . S
C256 O266 1.259 1_554 S
C256 O267 1.270 . S
C257 O268 1.251 . S
C257 O269 1.251 1_556 S
O258 C238 1.257 . S
O258 Eu239 2.473 1_455 S
O259 C238 1.260 1_655 S
O259 Eu239 2.480 . S
O260 Eu239 2.430 . S
O260 C246 1.259 1_554 S
O261 Eu239 2.670 1_556 S
O261 C246 1.270 . S
O261 Eu249 2.355 1_655 S
O262 Eu239 2.394 1_455 S
O262 C247 1.251 . S
O263 C247 1.273 . S
O263 Eu249 2.359 1_554 S
O264 C248 1.257 . S
O264 Eu249 2.473 1_655 S
O265 C248 1.260 1_455 S
O265 Eu249 2.480 . S
O266 Eu249 2.430 . S
O266 C256 1.259 1_556 S
O267 Eu239 2.355 1_455 S
O267 Eu249 2.670 1_554 S
O267 C256 1.270 . S
O268 Eu249 2.394 1_655 S
O268 C257 1.251 . S
O269 Eu239 2.374 . S
O269 C257 1.251 1_554 S
H270 C241 0.931 1_655 S
H271 C242 0.936 . S
H272 C244 0.931 . S
H273 C245 0.931 . S
H274 C251 0.931 1_455 S
H275 C252 0.931 1_455 S
H276 C254 0.931 . S
H277 C255 0.931 . S
C278 Eu279 2.835 . S
C278 C280 1.500 . S
C278 O298 1.257 . S
C278 O299 1.260 . S
Eu279 C278 2.835 . S
Eu279 O298 2.473 . S
Eu279 O299 2.480 . S
Eu279 O300 2.430 . S
Eu279 O301 2.670 1_556 S
Eu279 O302 2.394 . S
Eu279 O307 2.355 . S
Eu279 O309 2.374 . S
C280 C278 1.500 . S
C280 C281 1.377 . S
C280 C285 1.377 . S
C281 C280 1.377 . S
C281 C282 1.395 . S
C281 H310 0.931 . S
C282 C281 1.395 . S
C282 C283 1.383 . S
C282 H311 0.931 . S
C283 C282 1.383 . S
C283 C284 1.394 . S
C284 C283 1.394 . S
C284 C285 1.378 . S
C284 H312 0.931 . S
C285 C280 1.377 . S
C285 C284 1.378 . S
C285 H313 0.931 . S
C286 O300 1.259 1_554 S
C286 O301 1.270 . S
C287 O302 1.251 . S
C287 O303 1.251 1_556 S
C288 Eu289 2.835 . S
C288 C290 1.500 . S
C288 O304 1.257 . S
C288 O305 1.260 . S
Eu289 C288 2.835 . S
Eu289 O301 2.355 . S
Eu289 O303 2.374 . S
Eu289 O304 2.473 . S
Eu289 O305 2.480 . S
Eu289 O306 2.430 . S
Eu289 O307 2.670 1_554 S
Eu289 O308 2.394 . S
C290 C288 1.500 . S
C290 C291 1.377 . S
C290 C295 1.377 . S
C291 C290 1.377 . S
C291 C292 1.395 . S
C291 H314 0.931 . S
C292 C291 1.395 . S
C292 C293 1.383 . S
C292 H315 0.931 . S
C293 C292 1.383 . S
C293 C294 1.394 . S
C294 C293 1.394 . S
C294 C295 1.378 . S
C294 H316 0.931 . S
C295 C290 1.377 . S
C295 C294 1.378 . S
C295 H317 0.931 . S
C296 O306 1.259 1_556 S
C296 O307 1.270 . S
C297 O308 1.251 . S
C297 O309 1.251 1_554 S
O298 C278 1.257 . S
O298 Eu279 2.473 . S
O299 C278 1.260 . S
O299 Eu279 2.480 . S
O300 Eu279 2.430 . S
O300 C286 1.259 1_556 S
O301 Eu279 2.670 1_554 S
O301 C286 1.270 . S
O301 Eu289 2.355 . S
O302 Eu279 2.394 . S
O302 C287 1.251 . S
O303 C287 1.251 1_554 S
O303 Eu289 2.374 . S
O304 C288 1.257 . S
O304 Eu289 2.473 . S
O305 C288 1.260 . S
O305 Eu289 2.480 . S
O306 Eu289 2.430 . S
O306 C296 1.259 1_554 S
O307 Eu279 2.355 . S
O307 Eu289 2.670 1_556 S
O307 C296 1.270 . S
O308 Eu289 2.394 . S
O308 C297 1.251 . S
O309 Eu279 2.374 . S
O309 C297 1.251 1_556 S
H310 C281 0.931 . S
H311 C282 0.931 . S
H312 C284 0.931 . S
H313 C285 0.931 . S
H314 C291 0.931 . S
H315 C292 0.931 . S
H316 C294 0.931 . S
H317 C295 0.931 . S
C318 Eu319 2.835 . S
C318 C320 1.500 . S
C318 O338 1.257 . S
C318 O339 1.260 . S
Eu319 C318 2.835 . S
Eu319 O338 2.473 . S
Eu319 O339 2.480 . S
Eu319 O340 2.430 . S
Eu319 O341 2.670 . S
Eu319 O342 2.394 . S
Eu319 O347 2.355 . S
Eu319 O349 2.374 . S
C320 C318 1.500 . S
C320 C321 1.377 . S
C320 C325 1.377 . S
C321 C320 1.377 . S
C321 C322 1.395 . S
C321 H350 0.931 . S
C322 C321 1.395 . S
C322 C323 1.383 . S
C322 H351 0.931 . S
C323 C322 1.383 . S
C323 C324 1.394 . S
C324 C323 1.394 . S
C324 C325 1.378 . S
C324 H352 0.931 . S
C325 C320 1.377 . S
C325 C324 1.378 . S
C325 H353 0.931 . S
C326 O340 1.259 . S
C326 O341 1.270 . S
C327 O342 1.251 . S
C327 O343 1.251 . S
C328 Eu329 2.835 . S
C328 C330 1.500 . S
C328 O344 1.257 . S
C328 O345 1.260 . S
Eu329 C328 2.835 . S
Eu329 O341 2.355 . S
Eu329 O343 2.374 . S
Eu329 O344 2.473 . S
Eu329 O345 2.480 . S
Eu329 O346 2.430 . S
Eu329 O347 2.670 . S
Eu329 O348 2.394 . S
C330 C328 1.500 . S
C330 C331 1.377 . S
C330 C335 1.377 . S
C331 C330 1.377 . S
C331 C332 1.395 . S
C331 H354 0.931 . S
C332 C331 1.395 . S
C332 C333 1.383 . S
C332 H355 0.931 . S
C333 C332 1.383 . S
C333 C334 1.394 . S
C334 C333 1.394 . S
C334 C335 1.378 . S
C334 H356 0.931 . S
C335 C330 1.377 . S
C335 C334 1.378 . S
C335 H357 0.931 . S
C336 O346 1.259 . S
C336 O347 1.270 . S
C337 O348 1.251 . S
C337 O349 1.251 . S
O338 C318 1.257 . S
O338 Eu319 2.473 . S
O339 C318 1.260 . S
O339 Eu319 2.480 . S
O340 Eu319 2.430 . S
O340 C326 1.259 . S
O341 Eu319 2.670 . S
O341 C326 1.270 . S
O341 Eu329 2.355 . S
O342 Eu319 2.394 . S
O342 C327 1.251 . S
O343 C327 1.251 . S
O343 Eu329 2.374 . S
O344 C328 1.257 . S
O344 Eu329 2.473 . S
O345 C328 1.260 . S
O345 Eu329 2.480 . S
O346 Eu329 2.430 . S
O346 C336 1.259 . S
O347 Eu319 2.355 . S
O347 Eu329 2.670 . S
O347 C336 1.270 . S
O348 Eu329 2.394 . S
O348 C337 1.251 . S
O349 Eu319 2.374 . S
O349 C337 1.251 . S
H350 C321 0.931 . S
H351 C322 0.931 . S
H352 C324 0.931 . S
H353 C325 0.931 . S
H354 C331 0.931 . S
H355 C332 0.931 . S
H356 C334 0.931 . S
H357 C335 0.931 . S
C358 Eu359 2.835 . S
C358 C360 1.500 . S
C358 O378 1.257 . S
C358 O379 1.260 . S
Eu359 C358 2.835 . S
Eu359 O378 2.473 . S
Eu359 O379 2.480 . S
Eu359 O380 2.430 . S
Eu359 O381 2.670 . S
Eu359 O382 2.394 . S
Eu359 O387 2.355 . S
Eu359 O389 2.374 . S
C360 C358 1.500 . S
C360 C361 1.377 . S
C360 C365 1.377 . S
C361 C360 1.377 . S
C361 C362 1.395 . S
C361 H390 0.931 . S
C362 C361 1.395 . S
C362 C363 1.383 . S
C362 H391 0.931 . S
C363 C362 1.383 . S
C363 C364 1.394 . S
C364 C363 1.394 . S
C364 C365 1.378 . S
C364 H392 0.931 . S
C365 C360 1.377 . S
C365 C364 1.378 . S
C365 H393 0.931 . S
C366 O380 1.259 . S
C366 O381 1.270 . S
C367 O382 1.251 . S
C367 O383 1.251 . S
C368 Eu369 2.835 . S
C368 C370 1.500 . S
C368 O384 1.257 . S
C368 O385 1.260 . S
Eu369 C368 2.835 . S
Eu369 O381 2.355 . S
Eu369 O383 2.374 . S
Eu369 O384 2.473 . S
Eu369 O385 2.480 . S
Eu369 O386 2.430 . S
Eu369 O387 2.670 . S
Eu369 O388 2.394 . S
C370 C368 1.500 . S
C370 C371 1.377 . S
C370 C375 1.377 . S
C371 C370 1.377 . S
C371 C372 1.395 . S
C371 H394 0.931 . S
C372 C371 1.395 . S
C372 C373 1.383 . S
C372 H395 0.931 . S
C373 C372 1.383 . S
C373 C374 1.394 . S
C374 C373 1.394 . S
C374 C375 1.378 . S
C374 H396 0.931 . S
C375 C370 1.377 . S
C375 C374 1.378 . S
C375 H397 0.931 . S
C376 O386 1.259 . S
C376 O387 1.270 . S
C377 O388 1.251 . S
C377 O389 1.251 . S
O378 C358 1.257 . S
O378 Eu359 2.473 . S
O379 C358 1.260 . S
O379 Eu359 2.480 . S
O380 Eu359 2.430 . S
O380 C366 1.259 . S
O381 Eu359 2.670 . S
O381 C366 1.270 . S
O381 Eu369 2.355 . S
O382 Eu359 2.394 . S
O382 C367 1.251 . S
O383 C367 1.251 . S
O383 Eu369 2.374 . S
O384 C368 1.257 . S
O384 Eu369 2.473 . S
O385 C368 1.260 . S
O385 Eu369 2.480 . S
O386 Eu369 2.430 . S
O386 C376 1.259 . S
O387 Eu359 2.355 . S
O387 Eu369 2.670 . S
O387 C376 1.270 . S
O388 Eu369 2.394 . S
O388 C377 1.251 . S
O389 Eu359 2.374 . S
O389 C377 1.251 . S
H390 C361 0.931 . S
H391 C362 0.931 . S
H392 C364 0.931 . S
H393 C365 0.931 . S
H394 C371 0.931 . S
H395 C372 0.931 . S
H396 C374 0.931 . S
H397 C375 0.931 . S
C398 Eu399 2.835 . S
C398 C400 1.500 . S
C398 O418 1.257 . S
C398 O419 1.260 . S
Eu399 C398 2.835 . S
Eu399 O418 2.473 . S
Eu399 O419 2.480 . S
Eu399 O420 2.430 . S
Eu399 O421 2.670 . S
Eu399 O422 2.394 . S
Eu399 O427 2.355 . S
Eu399 O429 2.374 . S
C400 C398 1.500 . S
C400 C401 1.377 . S
C400 C405 1.377 . S
C401 C400 1.377 . S
C401 C402 1.395 . S
C401 H430 0.931 . S
C402 C401 1.395 . S
C402 C403 1.383 . S
C402 H431 0.931 . S
C403 C402 1.383 . S
C403 C404 1.394 . S
C404 C403 1.394 . S
C404 C405 1.378 . S
C404 H432 0.931 . S
C405 C400 1.377 . S
C405 C404 1.378 . S
C405 H433 0.931 . S
C406 O420 1.259 . S
C406 O421 1.270 . S
C407 O422 1.251 . S
C407 O423 1.251 . S
C408 Eu409 2.835 . S
C408 C410 1.500 . S
C408 O424 1.257 . S
C408 O425 1.260 . S
Eu409 C408 2.835 . S
Eu409 O421 2.355 . S
Eu409 O423 2.374 . S
Eu409 O424 2.473 . S
Eu409 O425 2.480 . S
Eu409 O426 2.430 . S
Eu409 O427 2.670 . S
Eu409 O428 2.394 . S
C410 C408 1.500 . S
C410 C411 1.377 . S
C410 C415 1.377 . S
C411 C410 1.377 . S
C411 C412 1.395 . S
C411 H434 0.931 . S
C412 C411 1.395 . S
C412 C413 1.383 . S
C412 H435 0.931 . S
C413 C412 1.383 . S
C413 C414 1.394 . S
C414 C413 1.394 . S
C414 C415 1.378 . S
C414 H436 0.931 . S
C415 C410 1.377 . S
C415 C414 1.378 . S
C415 H437 0.931 . S
C416 O426 1.259 . S
C416 O427 1.270 . S
C417 O428 1.251 . S
C417 O429 1.251 . S
O418 C398 1.257 . S
O418 Eu399 2.473 . S
O419 C398 1.260 . S
O419 Eu399 2.480 . S
O420 Eu399 2.430 . S
O420 C406 1.259 . S
O421 Eu399 2.670 . S
O421 C406 1.270 . S
O421 Eu409 2.355 . S
O422 Eu399 2.394 . S
O422 C407 1.251 . S
O423 C407 1.251 . S
O423 Eu409 2.374 . S
O424 C408 1.257 . S
O424 Eu409 2.473 . S
O425 C408 1.260 . S
O425 Eu409 2.480 . S
O426 Eu409 2.430 . S
O426 C416 1.259 . S
O427 Eu399 2.355 . S
O427 Eu409 2.670 . S
O427 C416 1.270 . S
O428 Eu409 2.394 . S
O428 C417 1.251 . S
O429 Eu399 2.374 . S
O429 C417 1.251 . S
H430 C401 0.931 . S
H431 C402 0.931 . S
H432 C404 0.931 . S
H433 C405 0.931 . S
H434 C411 0.931 . S
H435 C412 0.931 . S
H436 C414 0.931 . S
H437 C415 0.931 . S
C438 Eu439 2.835 . S
C438 C440 1.500 . S
C438 O458 1.257 . S
C438 O459 1.260 . S
Eu439 C438 2.835 . S
Eu439 O458 2.473 . S
Eu439 O459 2.480 . S
Eu439 O460 2.430 . S
Eu439 O461 2.670 . S
Eu439 O462 2.394 . S
Eu439 O467 2.355 . S
Eu439 O469 2.374 . S
C440 C438 1.500 . S
C440 C441 1.377 . S
C440 C445 1.377 . S
C441 C440 1.377 . S
C441 C442 1.395 . S
C441 H470 0.931 . S
C442 C441 1.395 . S
C442 C443 1.383 . S
C442 H471 0.931 . S
C443 C442 1.383 . S
C443 C444 1.394 . S
C444 C443 1.394 . S
C444 C445 1.378 . S
C444 H472 0.931 . S
C445 C440 1.377 . S
C445 C444 1.378 . S
C445 H473 0.931 . S
C446 O460 1.259 . S
C446 O461 1.270 . S
C447 O462 1.251 . S
C447 O463 1.251 . S
C448 Eu449 2.835 . S
C448 C450 1.500 . S
C448 O464 1.257 . S
C448 O465 1.260 . S
Eu449 C448 2.835 . S
Eu449 O461 2.355 . S
Eu449 O463 2.374 . S
Eu449 O464 2.473 . S
Eu449 O465 2.480 . S
Eu449 O466 2.430 . S
Eu449 O467 2.670 . S
Eu449 O468 2.394 . S
C450 C448 1.500 . S
C450 C451 1.377 . S
C450 C455 1.377 . S
C451 C450 1.377 . S
C451 C452 1.395 . S
C451 H474 0.931 . S
C452 C451 1.395 . S
C452 C453 1.383 . S
C452 H475 0.931 . S
C453 C452 1.383 . S
C453 C454 1.394 . S
C454 C453 1.394 . S
C454 C455 1.378 . S
C454 H476 0.931 . S
C455 C450 1.377 . S
C455 C454 1.378 . S
C455 H477 0.931 . S
C456 O466 1.259 . S
C456 O467 1.270 . S
C457 O468 1.251 . S
C457 O469 1.251 . S
O458 C438 1.257 . S
O458 Eu439 2.473 . S
O459 C438 1.260 . S
O459 Eu439 2.480 . S
O460 Eu439 2.430 . S
O460 C446 1.259 . S
O461 Eu439 2.670 . S
O461 C446 1.270 . S
O461 Eu449 2.355 . S
O462 Eu439 2.394 . S
O462 C447 1.251 . S
O463 C447 1.251 . S
O463 Eu449 2.374 . S
O464 C448 1.257 . S
O464 Eu449 2.473 . S
O465 C448 1.260 . S
O465 Eu449 2.480 . S
O466 Eu449 2.430 . S
O466 C456 1.259 . S
O467 Eu439 2.355 . S
O467 Eu449 2.670 . S
O467 C456 1.270 . S
O468 Eu449 2.394 . S
O468 C457 1.251 . S
O469 Eu439 2.374 . S
O469 C457 1.251 . S
H470 C441 0.931 . S
H471 C442 0.931 . S
H472 C444 0.931 . S
H473 C445 0.931 . S
H474 C451 0.931 . S
H475 C452 0.931 . S
H476 C454 0.931 . S
H477 C455 0.931 . S
C478 Eu479 2.835 . S
C478 C480 1.500 . S
C478 O498 1.257 . S
C478 O499 1.260 . S
Eu479 C478 2.835 . S
Eu479 O498 2.473 . S
Eu479 O499 2.480 . S
Eu479 O500 2.430 . S
Eu479 O501 2.670 . S
Eu479 O502 2.394 . S
Eu479 O507 2.355 . S
Eu479 O509 2.374 . S
C480 C478 1.500 . S
C480 C481 1.377 . S
C480 C485 1.377 . S
C481 C480 1.377 . S
C481 C482 1.395 . S
C481 H510 0.931 . S
C482 C481 1.395 . S
C482 C483 1.383 . S
C482 H511 0.931 . S
C483 C482 1.383 . S
C483 C484 1.394 . S
C484 C483 1.394 . S
C484 C485 1.378 . S
C484 H512 0.931 . S
C485 C480 1.377 . S
C485 C484 1.378 . S
C485 H513 0.931 . S
C486 O500 1.259 . S
C486 O501 1.270 . S
C487 O502 1.251 . S
C487 O503 1.251 . S
C488 Eu489 2.835 . S
C488 C490 1.500 . S
C488 O504 1.257 . S
C488 O505 1.260 . S
Eu489 C488 2.835 . S
Eu489 O501 2.355 . S
Eu489 O503 2.374 . S
Eu489 O504 2.473 . S
Eu489 O505 2.480 . S
Eu489 O506 2.430 . S
Eu489 O507 2.670 . S
Eu489 O508 2.394 . S
C490 C488 1.500 . S
C490 C491 1.377 . S
C490 C495 1.377 . S
C491 C490 1.377 . S
C491 C492 1.395 . S
C491 H514 0.931 . S
C492 C491 1.395 . S
C492 C493 1.383 . S
C492 H515 0.931 . S
C493 C492 1.383 . S
C493 C494 1.394 . S
C494 C493 1.394 . S
C494 C495 1.378 . S
C494 H516 0.931 . S
C495 C490 1.377 . S
C495 C494 1.378 . S
C495 H517 0.931 . S
C496 O506 1.259 . S
C496 O507 1.270 . S
C497 O508 1.251 . S
C497 O509 1.251 . S
O498 C478 1.257 . S
O498 Eu479 2.473 . S
O499 C478 1.260 . S
O499 Eu479 2.480 . S
O500 Eu479 2.430 . S
O500 C486 1.259 . S
O501 Eu479 2.670 . S
O501 C486 1.270 . S
O501 Eu489 2.355 . S
O502 Eu479 2.394 . S
O502 C487 1.251 . S
O503 C487 1.251 . S
O503 Eu489 2.374 . S
O504 C488 1.257 . S
O504 Eu489 2.473 . S
O505 C488 1.260 . S
O505 Eu489 2.480 . S
O506 Eu489 2.430 . S
O506 C496 1.259 . S
O507 Eu479 2.355 . S
O507 Eu489 2.670 . S
O507 C496 1.270 . S
O508 Eu489 2.394 . S
O508 C497 1.251 . S
O509 Eu479 2.374 . S
O509 C497 1.251 . S
H510 C481 0.931 . S
H511 C482 0.931 . S
H512 C484 0.931 . S
H513 C485 0.931 . S
H514 C491 0.931 . S
H515 C492 0.931 . S
H516 C494 0.931 . S
H517 C495 0.931 . S
C518 Eu519 2.835 . S
C518 C520 1.500 . S
C518 O538 1.257 . S
C518 O539 1.260 . S
Eu519 C518 2.835 . S
Eu519 O538 2.473 . S
Eu519 O539 2.480 . S
Eu519 O540 2.430 . S
Eu519 O541 2.670 . S
Eu519 O542 2.394 . S
Eu519 O547 2.355 . S
Eu519 O549 2.374 . S
C520 C518 1.500 . S
C520 C521 1.377 . S
C520 C525 1.377 . S
C521 C520 1.377 . S
C521 C522 1.395 . S
C521 H550 0.931 . S
C522 C521 1.395 . S
C522 C523 1.383 . S
C522 H551 0.931 . S
C523 C522 1.383 . S
C523 C524 1.394 . S
C524 C523 1.394 . S
C524 C525 1.378 . S
C524 H552 0.931 . S
C525 C520 1.377 . S
C525 C524 1.378 . S
C525 H553 0.931 . S
C526 O540 1.259 . S
C526 O541 1.270 . S
C527 O542 1.251 . S
C527 O543 1.251 . S
C528 Eu529 2.835 . S
C528 C530 1.500 . S
C528 O544 1.257 . S
C528 O545 1.260 . S
Eu529 C528 2.835 . S
Eu529 O541 2.355 . S
Eu529 O543 2.374 . S
Eu529 O544 2.473 . S
Eu529 O545 2.480 . S
Eu529 O546 2.430 . S
Eu529 O547 2.670 . S
Eu529 O548 2.394 . S
C530 C528 1.500 . S
C530 C531 1.377 . S
C530 C535 1.377 . S
C531 C530 1.377 . S
C531 C532 1.395 . S
C531 H554 0.931 . S
C532 C531 1.395 . S
C532 C533 1.383 . S
C532 H555 0.931 . S
C533 C532 1.383 . S
C533 C534 1.394 . S
C534 C533 1.394 . S
C534 C535 1.378 . S
C534 H556 0.931 . S
C535 C530 1.377 . S
C535 C534 1.378 . S
C535 H557 0.931 . S
C536 O546 1.259 . S
C536 O547 1.270 . S
C537 O548 1.251 . S
C537 O549 1.251 . S
O538 C518 1.257 . S
O538 Eu519 2.473 . S
O539 C518 1.260 . S
O539 Eu519 2.480 . S
O540 Eu519 2.430 . S
O540 C526 1.259 . S
O541 Eu519 2.670 . S
O541 C526 1.270 . S
O541 Eu529 2.355 . S
O542 Eu519 2.394 . S
O542 C527 1.251 . S
O543 C527 1.251 . S
O543 Eu529 2.374 . S
O544 C528 1.257 . S
O544 Eu529 2.473 . S
O545 C528 1.260 . S
O545 Eu529 2.480 . S
O546 Eu529 2.430 . S
O546 C536 1.259 . S
O547 Eu519 2.355 . S
O547 Eu529 2.670 . S
O547 C536 1.270 . S
O548 Eu529 2.394 . S
O548 C537 1.251 . S
O549 Eu519 2.374 . S
O549 C537 1.251 . S
H550 C521 0.931 . S
H551 C522 0.931 . S
H552 C524 0.931 . S
H553 C525 0.931 . S
H554 C531 0.931 . S
H555 C532 0.931 . S
H556 C534 0.931 . S
H557 C535 0.931 . S
C151 C207 1.297 . S
C159 C247 2.185 . S
C137 C286 2.129 . S
C126 C246 1.858 . S
C287 C104 2.113 . S
C118 C206 1.198 1_556 S
C217 C129 1.885 . S
C257 C107 1.893 . S
C115 C296 1.215 . S
C148 C256 1.023 . S
C162 C297 1.715 . S
C216 C140 1.936 . S
C327 C19 1.298 . S
C27 C367 2.185 . S
C5 C406 2.128 1_545 S
C192 C366 1.858 . S
C170 C407 2.113 . S
C184 C326 1.198 . S
C195 C337 1.885 . S
C173 C377 1.893 . S
C416 C181 1.215 . S
C16 C376 1.023 . S
C417 C30 1.715 . S
C8 C336 1.935 . S
C447 C85 1.298 . S
C93 C487 2.185 . S
C526 C71 2.128 . S
C486 C60 1.858 1_545 S
C527 C38 2.114 1_655 S
C52 C446 1.198 . S
C63 C457 1.885 . S
C41 C497 1.893 . S
C536 C49 1.214 . S
C82 C496 1.024 . S
C96 C537 1.715 . S
C74 C456 1.936 . S
C172 C203 1.828 . S
C243 C183 1.733 . S
C194 C293 1.626 . S
C73 C253 2.064 . S
C84 C283 1.247 . S
C213 C95 1.513 . S
C40 C323 1.828 . S
C51 C363 1.733 . S
C62 C413 1.626 . S
C139 C373 2.064 . S
C403 C150 1.247 . S
C161 C333 1.513 . S
C106 C443 1.829 . S
C117 C483 1.733 . S
C533 C128 1.625 . S
C7 C493 2.064 . S
C18 C523 1.248 . S
C29 C453 1.513 . S
