# Generated by pormake.
# Topology tsx, (6,3)-cn, num edge types: 1
# Building blocks:
#     Node 0, Type 0, BuildingBlock: VOLQOD_clean_sbu_1, # of connection points: 6
#     Node 1, Type 0, BuildingBlock: VOLQOD_clean_sbu_1, # of connection points: 6
#     Node 2, Type 1, BuildingBlock: OLANEW_clean_sbu_2, # of connection points: 3
#     Node 3, Type 1, BuildingBlock: OLANEW_clean_sbu_2, # of connection points: 3
#     Node 4, Type 1, BuildingBlock: OLANEW_clean_sbu_2, # of connection points: 3
#     Node 5, Type 1, BuildingBlock: OLANEW_clean_sbu_2, # of connection points: 3
#     Edge 6, Type (0, 1), BuildingBlock: MIFKUJ_clean_linker_0, # of connection points: 2
#     Edge 7, Type (0, 1), BuildingBlock: MIFKUJ_clean_linker_0, # of connection points: 2
#     Edge 8, Type (0, 1), BuildingBlock: MIFKUJ_clean_linker_0, # of connection points: 2
#     Edge 9, Type (0, 1), BuildingBlock: MIFKUJ_clean_linker_0, # of connection points: 2
#     Edge 10, Type (0, 1), BuildingBlock: MIFKUJ_clean_linker_0, # of connection points: 2
#     Edge 11, Type (0, 1), BuildingBlock: MIFKUJ_clean_linker_0, # of connection points: 2
#     Edge 12, Type (0, 1), BuildingBlock: MIFKUJ_clean_linker_0, # of connection points: 2
#     Edge 13, Type (0, 1), BuildingBlock: MIFKUJ_clean_linker_0, # of connection points: 2
#     Edge 14, Type (0, 1), BuildingBlock: MIFKUJ_clean_linker_0, # of connection points: 2
#     Edge 15, Type (0, 1), BuildingBlock: MIFKUJ_clean_linker_0, # of connection points: 2
#     Edge 16, Type (0, 1), BuildingBlock: MIFKUJ_clean_linker_0, # of connection points: 2
#     Edge 17, Type (0, 1), BuildingBlock: MIFKUJ_clean_linker_0, # of connection points: 2
# Relax obj value: 0.029
# Max RMSD: 0.078
# Mean RMSD: 0.072
data_MOF--net-tsx--node1-VOLQOD_clean_sbu_1--node2-OLANEW_clean_sbu_2--edge1-MIFKUJ_clean_linker_0
_symmetry_space_group_name_H-M    P1
_symmetry_Int_Tables_number       1
_symmetry_cell_setting            triclinic
loop_
_symmetry_equiv_pos_as_xyz
'x, y, z'
_cell_length_a     28.705083
_cell_length_b     29.678957
_cell_length_c     49.872274
_cell_angle_alpha  95.659053
_cell_angle_beta   89.966954
_cell_angle_gamma 90.022273
loop_
_atom_site_label
_atom_site_type_symbol
_atom_site_fract_x
_atom_site_fract_y
_atom_site_fract_z
_atom_type_partial_charge
O0 O 0.05295 0.02266 0.06701 0.0
Zn1 Zn 0.06635 0.01958 0.02736 0.0
O2 O 0.0091 0.02409 0.00679 0.0
Zn3 Zn 0.00239 0.96916 0.98183 0.0
Zn4 Zn 0.956 0.02937 0.0315 0.0
Zn5 Zn 0.01188 0.07787 0.98682 0.0
O6 O 0.00279 0.98426 0.94335 0.0
O7 O 0.01235 0.05893 0.94678 0.0
O8 O 0.10059 0.96131 0.01708 0.0
O9 O 0.05579 0.92605 0.98547 0.0
O10 O 0.94424 0.93437 0.9896 0.0
O11 O 0.91669 0.97289 0.02665 0.0
O12 O 0.91474 0.08193 0.02408 0.0
O13 O 0.1097 0.07062 0.02136 0.0
O14 O 0.95502 0.1176 0.99449 0.0
O15 O 0.07093 0.11437 0.99544 0.0
C16 C 0.01655 0.03068 0.08129 0.0
C17 C 0.00801 0.02108 0.93253 0.0
C18 C 0.915 0.93897 0.00891 0.0
C19 C 0.09207 0.92734 1.00019 0.0
C20 C 0.91904 0.11422 0.00918 0.0
C21 C 0.10716 0.10595 0.00887 0.0
O22 O 0.97701 0.03637 0.07049 0.0
O23 O 0.52591 0.51923 0.5721 0.0
Zn24 Zn 0.54387 0.51692 0.53304 0.0
O25 O 0.48889 0.51851 0.51005 0.0
Zn26 Zn 0.48778 0.46347 0.48468 0.0
Zn27 Zn 0.43244 0.52134 0.53229 0.0
Zn28 Zn 0.49208 0.57246 0.49038 0.0
O29 O 0.49134 0.47949 0.44633 0.0
O30 O 0.49336 0.5547 0.45027 0.0
O31 O 0.58099 0.46005 0.52423 0.0
O32 O 0.54277 0.42305 0.49026 0.0
O33 O 0.42978 0.42634 0.48949 0.0
O34 O 0.39186 0.46703 0.52231 0.0
O35 O 0.39415 0.57724 0.52717 0.0
O36 O 0.58728 0.56846 0.52802 0.0
O37 O 0.43675 0.61316 0.49874 0.0
O38 O 0.55056 0.60878 0.49936 0.0
C39 C 0.48708 0.5198 0.58448 0.0
C40 C 0.49343 0.51686 0.43578 0.0
C41 C 0.39496 0.43219 0.50531 0.0
C42 C 0.57672 0.42604 0.50677 0.0
C43 C 0.40062 0.61064 0.51336 0.0
C44 C 0.58546 0.6023 0.51425 0.0
O45 O 0.44853 0.52052 0.57183 0.0
O46 O 0.02464 0.00731 0.38137 0.0
Cd47 Cd 0.01432 0.00889 0.43027 0.0
O48 O 0.05797 0.07437 0.38407 0.0
Cd49 Cd 0.04144 0.08879 0.42668 0.0
O50 O 0.98862 0.121 0.4535 0.0
C51 C 0.94686 0.11239 0.44625 0.0
O52 O 0.93947 0.08323 0.42509 0.0
C53 C 0.0444 0.03875 0.36996 0.0
C54 C 0.07053 0.94525 0.45227 0.0
O55 O 0.02864 0.93552 0.44493 0.0
O56 O 0.0857 0.98508 0.44928 0.0
O57 O 0.03604 0.01622 0.63071 0.0
Cd58 Cd 0.03018 0.00949 0.58157 0.0
O59 O 0.06502 0.948 0.63241 0.0
Cd60 Cd 0.05287 0.92835 0.58965 0.0
O61 O 0.00942 0.88779 0.56063 0.0
C62 C 0.97163 0.90406 0.55246 0.0
O63 O 0.96176 0.94676 0.55966 0.0
C64 C 0.05244 0.98588 0.64435 0.0
C65 C 0.08364 0.07616 0.56071 0.0
O66 O 0.04173 0.08408 0.56869 0.0
O67 O 0.10018 0.03637 0.56223 0.0
O68 O 0.46844 0.44993 0.88011 0.0
Cd69 Cd 0.46379 0.44949 0.92927 0.0
O70 O 0.52168 0.50351 0.88286 0.0
Cd71 Cd 0.50548 0.52276 0.92516 0.0
O72 O 0.45747 0.56564 0.95022 0.0
C73 C 0.41494 0.56301 0.94313 0.0
O74 O 0.40305 0.53314 0.92308 0.0
C75 C 0.49735 0.47435 0.86866 0.0
C76 C 0.53509 0.39773 0.94908 0.0
O77 O 0.49485 0.38049 0.94363 0.0
O78 O 0.5415 0.43937 0.94531 0.0
O79 O 0.55806 0.51151 0.13482 0.0
Cd80 Cd 0.56694 0.4999 0.08577 0.0
O81 O 0.58471 0.44329 0.13956 0.0
Cd82 Cd 0.57853 0.41988 0.09682 0.0
O83 O 0.53647 0.37711 0.06812 0.0
C84 C 0.50423 0.39357 0.0546 0.0
O85 O 0.49943 0.43775 0.05589 0.0
C86 C 0.57085 0.48178 0.15001 0.0
C87 C 0.62222 0.5674 0.06695 0.0
O88 O 0.57767 0.56989 0.0662 0.0
O89 O 0.64052 0.53291 0.0764 0.0
H90 H 0.19334 0.09202 0.02943 0.0
H91 H 0.25983 0.14301 0.03225 0.0
H92 H 0.18021 0.24192 0.99395 0.0
H93 H 0.11318 0.19029 0.99047 0.0
H94 H 0.26908 0.23762 0.97515 0.0
H95 H 0.19634 0.25565 0.06111 0.0
H96 H 0.16066 0.23271 0.10265 0.0
H97 H 0.28907 0.17051 0.12324 0.0
H98 H 0.3254 0.19254 0.08161 0.0
H99 H 0.42734 0.4171 0.02651 0.0
H100 H 0.36007 0.36917 0.01336 0.0
H101 H 0.4299 0.25447 0.04186 0.0
H102 H 0.49724 0.30182 0.05492 0.0
H103 H 0.342 0.27276 0.06498 0.0
H104 H 0.41355 0.25692 0.97689 0.0
H105 H 0.44769 0.28684 0.93688 0.0
H106 H 0.31843 0.35255 0.92176 0.0
H107 H 0.28371 0.32358 0.96196 0.0
C108 C 0.18973 0.12457 0.02155 0.0
C109 C 0.14763 0.13721 0.00997 0.0
C110 C 0.22789 0.15376 0.02322 0.0
C111 C 0.2248 0.19662 0.01372 0.0
C112 C 0.18331 0.20905 0.00148 0.0
C113 C 0.14499 0.17959 0.99963 0.0
C114 C 0.26476 0.22845 0.01744 0.0
C115 C 0.28464 0.24585 0.99484 0.0
C116 C 0.28522 0.2391 0.04311 0.0
C117 C 0.26349 0.22547 0.06812 0.0
C118 C 0.21687 0.23675 0.07438 0.0
C119 C 0.19655 0.22397 0.09795 0.0
C120 C 0.22258 0.20015 0.11555 0.0
C121 C 0.26897 0.18898 0.10958 0.0
C122 C 0.28946 0.20165 0.08601 0.0
C123 C 0.42879 0.38146 0.02947 0.0
C124 C 0.46744 0.36343 0.04209 0.0
C125 C 0.39032 0.35414 0.02191 0.0
C126 C 0.38994 0.3084 0.02685 0.0
C127 C 0.42946 0.28978 0.03805 0.0
C128 C 0.46799 0.31692 0.04542 0.0
C129 C 0.34705 0.28081 0.02265 0.0
C130 C 0.32641 0.26452 0.04528 0.0
C131 C 0.32567 0.27193 0.99714 0.0
C132 C 0.34615 0.28843 0.97259 0.0
C133 C 0.39248 0.278 0.96514 0.0
C134 C 0.41194 0.29475 0.94241 0.0
C135 C 0.38529 0.32169 0.92683 0.0
C136 C 0.33905 0.33173 0.93387 0.0
C137 C 0.31945 0.31511 0.95661 0.0
H138 H 0.40045 0.33472 0.90927 0.0
H139 H 0.20685 0.19054 0.13385 0.0
H140 H 0.08146 0.8456 0.97019 0.0
H141 H 0.13614 0.78227 0.96562 0.0
H142 H 0.2316 0.85768 0.01969 0.0
H143 H 0.17726 0.92139 0.0243 0.0
H144 H 0.27489 0.81886 0.97452 0.0
H145 H 0.17029 0.77215 0.04127 0.0
H146 H 0.09361 0.75601 0.06047 0.0
H147 H 0.06821 0.654 0.99493 0.0
H148 H 0.1445 0.66998 0.97509 0.0
H149 H 0.42925 0.63478 0.98128 0.0
H150 H 0.37386 0.69475 0.9962 0.0
H151 H 0.26766 0.62767 0.94573 0.0
H152 H 0.32243 0.56734 0.93106 0.0
H153 H 0.23125 0.66304 0.99292 0.0
H154 H 0.3305 0.71375 0.92406 0.0
H155 H 0.40543 0.73062 0.90299 0.0
H156 H 0.43898 0.82559 0.97083 0.0
H157 H 0.36444 0.80881 0.99248 0.0
C158 C 0.11402 0.84877 0.98118 0.0
C159 C 0.12494 0.88864 0.99762 0.0
C160 C 0.14513 0.8124 0.97865 0.0
C161 C 0.18771 0.81511 0.99254 0.0
C162 C 0.19884 0.85486 0.00887 0.0
C163 C 0.16767 0.8912 0.01151 0.0
C164 C 0.22125 0.77697 0.98929 0.0
C165 C 0.26567 0.78495 0.97903 0.0
C166 C 0.20874 0.73257 0.99458 0.0
C167 C 0.163 0.72253 0.00658 0.0
C168 C 0.14823 0.74649 0.03084 0.0
C169 C 0.10485 0.73734 0.04186 0.0
C170 C 0.07604 0.70404 0.02891 0.0
C171 C 0.09058 0.67978 0.00494 0.0
C172 C 0.13391 0.68884 0.99381 0.0
C173 C 0.39392 0.63245 0.97365 0.0
C174 C 0.3804 0.59651 0.95476 0.0
C175 C 0.36236 0.66685 0.98212 0.0
C176 C 0.31685 0.66605 0.97173 0.0
C177 C 0.30263 0.62904 0.95395 0.0
C178 C 0.33409 0.59464 0.94551 0.0
C179 C 0.28483 0.70492 0.97804 0.0
C180 C 0.24065 0.69707 0.98875 0.0
C181 C 0.29738 0.74946 0.973 0.0
C182 C 0.34218 0.75962 0.96003 0.0
C183 C 0.35404 0.73795 0.93459 0.0
C184 C 0.3964 0.74754 0.92252 0.0
C185 C 0.42702 0.77905 0.93561 0.0
C186 C 0.41527 0.80112 0.96075 0.0
C187 C 0.37297 0.7916 0.97292 0.0
H188 H 0.45979 0.78645 0.92623 0.0
H189 H 0.04248 0.69699 0.03748 0.0
H190 H 0.85904 0.9288 0.05224 0.0
H191 H 0.80794 0.86537 0.05913 0.0
H192 H 0.8405 0.80379 0.97932 0.0
H193 H 0.89302 0.86658 0.97257 0.0
H194 H 0.73275 0.83122 0.03743 0.0
H195 H 0.84097 0.68928 0.97884 0.0
H196 H 0.92266 0.67325 0.9657 0.0
H197 H 0.9701 0.76127 0.0337 0.0
H198 H 0.88873 0.77737 0.04744 0.0
H199 H 0.59798 0.63142 0.03371 0.0
H200 H 0.64616 0.69325 0.02012 0.0
H201 H 0.76032 0.64874 0.06728 0.0
H202 H 0.71308 0.58555 0.07969 0.0
H203 H 0.79428 0.67441 0.0244 0.0
H204 H 0.68469 0.74089 0.0896 0.0
H205 H 0.60685 0.75836 0.10889 0.0
H206 H 0.56926 0.82345 0.03883 0.0
H207 H 0.64673 0.8059 0.019 0.0
C208 C 0.85515 0.90197 0.03604 0.0
C209 C 0.88048 0.90264 0.01192 0.0
C210 C 0.82579 0.86569 0.04001 0.0
C211 C 0.82086 0.8294 0.01992 0.0
C212 C 0.84449 0.83091 0.99535 0.0
C213 C 0.87434 0.86697 0.99147 0.0
C214 C 0.79196 0.7896 0.02516 0.0
C215 C 0.74617 0.79692 0.03447 0.0
C216 C 0.80965 0.74484 0.0218 0.0
C217 C 0.85874 0.73492 0.01395 0.0
C218 C 0.86884 0.70509 0.99103 0.0
C219 C 0.91508 0.69601 0.98348 0.0
C220 C 0.95152 0.71639 0.99879 0.0
C221 C 0.94182 0.74568 0.02179 0.0
C222 C 0.89565 0.75483 0.02945 0.0
C223 C 0.63345 0.63474 0.04103 0.0
C224 C 0.65168 0.60387 0.05791 0.0
C225 C 0.66092 0.67023 0.03337 0.0
C226 C 0.70667 0.67636 0.0431 0.0
C227 C 0.72518 0.64487 0.05949 0.0
C228 C 0.69808 0.60882 0.06666 0.0
C229 C 0.73504 0.716 0.0368 0.0
C230 C 0.78071 0.70866 0.02719 0.0
C231 C 0.71781 0.76092 0.04079 0.0
C232 C 0.6713 0.77169 0.05272 0.0
C233 C 0.6597 0.75868 0.07825 0.0
C234 C 0.61568 0.76864 0.08928 0.0
C235 C 0.58309 0.79189 0.07506 0.0
C236 C 0.59451 0.80538 0.04981 0.0
C237 C 0.63848 0.79547 0.03867 0.0
H238 H 0.54902 0.79956 0.08363 0.0
H239 H 0.98726 0.70942 0.99284 0.0
H240 H 0.82854 0.10433 0.02473 0.0
H241 H 0.76278 0.15445 0.01812 0.0
H242 H 0.85497 0.24757 0.98337 0.0
H243 H 0.92102 0.19725 0.98948 0.0
H244 H 0.78571 0.28886 0.02175 0.0
H245 H 0.79826 0.18363 0.9417 0.0
H246 H 0.80369 0.10764 0.91698 0.0
H247 H 0.67202 0.07146 0.94973 0.0
H248 H 0.66614 0.1471 0.97495 0.0
H249 H 0.62752 0.41913 0.95264 0.0
H250 H 0.69129 0.37247 0.96668 0.0
H251 H 0.59333 0.26784 0.98232 0.0
H252 H 0.52938 0.31393 0.96744 0.0
H253 H 0.66446 0.23137 0.95618 0.0
H254 H 0.64766 0.33809 0.03356 0.0
H255 H 0.64155 0.41362 0.05874 0.0
H256 H 0.77921 0.44657 0.03323 0.0
H257 H 0.78584 0.3716 0.0074 0.0
C258 C 0.83503 0.13571 0.01597 0.0
C259 C 0.88007 0.14668 0.00752 0.0
C260 C 0.79735 0.16424 0.01216 0.0
C261 C 0.80403 0.20456 1.00016 0.0
C262 C 0.84915 0.2166 0.9927 0.0
C263 C 0.88679 0.18772 0.99611 0.0
C264 C 0.76355 0.23285 0.99404 0.0
C265 C 0.75934 0.27662 0.00724 0.0
C266 C 0.72863 0.21623 0.97566 0.0
C267 C 0.73203 0.17082 0.96045 0.0
C268 C 0.77068 0.15932 0.94383 0.0
C269 C 0.7738 0.11635 0.92969 0.0
C270 C 0.7383 0.08469 0.93186 0.0
C271 C 0.69954 0.09599 0.94811 0.0
C272 C 0.69628 0.13891 0.96232 0.0
C273 C 0.61947 0.38631 0.95923 0.0
C274 C 0.57339 0.37021 0.95888 0.0
C275 C 0.656 0.35971 0.96741 0.0
C276 C 0.64719 0.31678 0.97593 0.0
C277 C 0.60107 0.30082 0.97585 0.0
C278 C 0.56453 0.32722 0.96737 0.0
C279 C 0.68631 0.28788 0.98381 0.0
C280 C 0.69041 0.24381 0.97089 0.0
C281 C 0.72088 0.3042 0.00265 0.0
C282 C 0.7171 0.34927 0.01834 0.0
C283 C 0.67651 0.36154 0.03314 0.0
C284 C 0.67296 0.40426 0.04756 0.0
C285 C 0.70996 0.43486 0.04757 0.0
C286 C 0.75058 0.42282 0.03318 0.0
C287 C 0.75426 0.38021 0.01865 0.0
H288 H 0.70721 0.46788 0.05878 0.0
H289 H 0.74076 0.05145 0.92088 0.0
H290 H 0.58684 0.69009 0.50167 0.0
H291 H 0.65366 0.74152 0.50326 0.0
H292 H 0.74188 0.63564 0.52837 0.0
H293 H 0.67495 0.58501 0.52805 0.0
H294 H 0.76087 0.70825 0.55726 0.0
H295 H 0.74237 0.67198 0.46204 0.0
H296 H 0.70039 0.66448 0.4187 0.0
H297 H 0.67414 0.80761 0.42635 0.0
H298 H 0.71544 0.81587 0.46993 0.0
H299 H 0.97633 0.8121 0.5411 0.0
H300 H 0.91184 0.76067 0.52843 0.0
H301 H 0.82061 0.87463 0.52254 0.0
H302 H 0.88493 0.92652 0.53523 0.0
H303 H 0.80401 0.79905 0.4826 0.0
H304 H 0.82168 0.83223 0.57925 0.0
H305 H 0.86634 0.83764 0.62168 0.0
H306 H 0.89714 0.69552 0.60941 0.0
H307 H 0.8532 0.68943 0.56668 0.0
C308 C 0.62053 0.67786 0.50751 0.0
C309 C 0.62562 0.6336 0.51485 0.0
C310 C 0.6588 0.70716 0.5082 0.0
C311 C 0.7031 0.69233 0.51555 0.0
C312 C 0.70813 0.64798 0.52269 0.0
C313 C 0.6698 0.61905 0.52251 0.0
C314 C 0.74395 0.72332 0.51696 0.0
C315 C 0.77057 0.72744 0.54069 0.0
C316 C 0.75629 0.7493 0.49564 0.0
C317 C 0.73162 0.74446 0.46938 0.0
C318 C 0.72736 0.7018 0.45457 0.0
C319 C 0.70373 0.69743 0.42995 0.0
C320 C 0.68451 0.73553 0.41981 0.0
C321 C 0.689 0.77811 0.43424 0.0
C322 C 0.71255 0.78267 0.45889 0.0
C323 C 0.94285 0.82634 0.53656 0.0
C324 C 0.93556 0.87343 0.53964 0.0
C325 C 0.90605 0.79686 0.52932 0.0
C326 C 0.86139 0.81393 0.52499 0.0
C327 C 0.85483 0.86087 0.52589 0.0
C328 C 0.89161 0.89044 0.53325 0.0
C329 C 0.82076 0.78308 0.52263 0.0
C330 C 0.79419 0.77937 0.49893 0.0
C331 C 0.80866 0.75694 0.5438 0.0
C332 C 0.83456 0.76047 0.56966 0.0
C333 C 0.83826 0.80221 0.58551 0.0
C334 C 0.8634 0.80539 0.60962 0.0
C335 C 0.88466 0.76697 0.6182 0.0
C336 C 0.88071 0.72526 0.60272 0.0
C337 C 0.85567 0.72192 0.57857 0.0
H338 H 0.90412 0.7695 0.63687 0.0
H339 H 0.66622 0.73207 0.40075 0.0
H340 H 0.6571 0.42413 0.53613 0.0
H341 H 0.71874 0.36722 0.53152 0.0
H342 H 0.64035 0.29 0.46913 0.0
H343 H 0.57824 0.34663 0.47365 0.0
H344 H 0.68126 0.23585 0.50489 0.0
H345 H 0.72589 0.35626 0.45183 0.0
H346 H 0.74225 0.43555 0.44413 0.0
H347 H 0.8498 0.44191 0.5042 0.0
H348 H 0.83364 0.36279 0.5125 0.0
H349 H 0.85486 0.10534 0.4329 0.0
H350 H 0.7915 0.15494 0.44966 0.0
H351 H 0.88588 0.22893 0.50512 0.0
H352 H 0.94998 0.17982 0.48799 0.0
H353 H 0.8381 0.28499 0.47763 0.0
H354 H 0.7987 0.16129 0.52744 0.0
H355 H 0.78233 0.08183 0.53466 0.0
H356 H 0.66541 0.08083 0.48095 0.0
H357 H 0.68146 0.16011 0.47309 0.0
C358 C 0.6527 0.39492 0.52154 0.0
C359 C 0.61282 0.39017 0.5051 0.0
C360 C 0.68804 0.36246 0.51892 0.0
C361 C 0.68428 0.32467 0.49981 0.0
C362 C 0.64389 0.31896 0.484 0.0
C363 C 0.60854 0.35149 0.48654 0.0
C364 C 0.72336 0.29218 0.49541 0.0
C365 C 0.71551 0.2464 0.49873 0.0
C366 C 0.76827 0.30631 0.48807 0.0
C367 C 0.7782 0.3538 0.483 0.0
C368 C 0.75277 0.37469 0.46355 0.0
C369 C 0.76205 0.41958 0.45904 0.0
C370 C 0.79694 0.4438 0.47373 0.0
C371 C 0.82272 0.42313 0.49288 0.0
C372 C 0.81354 0.37826 0.49748 0.0
C373 C 0.86212 0.13171 0.44895 0.0
C374 C 0.90757 0.13877 0.459 0.0
C375 C 0.8257 0.15993 0.45863 0.0
C376 C 0.8338 0.19549 0.4788 0.0
C377 C 0.87883 0.20168 0.48955 0.0
C378 C 0.91539 0.1735 0.4798 0.0
C379 C 0.79613 0.22831 0.48691 0.0
C380 C 0.80414 0.27429 0.48417 0.0
C381 C 0.75141 0.21427 0.49478 0.0
C382 C 0.74152 0.16659 0.49952 0.0
C383 C 0.7697 0.14404 0.517 0.0
C384 C 0.76044 0.09904 0.52124 0.0
C385 C 0.72291 0.07627 0.50823 0.0
C386 C 0.69449 0.0985 0.491 0.0
C387 C 0.70361 0.14349 0.48668 0.0
H388 H 0.7158 0.04143 0.51154 0.0
H389 H 0.80407 0.47855 0.47022 0.0
H390 H 0.30893 0.43921 0.52872 0.0
H391 H 0.25301 0.3786 0.53345 0.0
H392 H 0.34335 0.28358 0.48772 0.0
H393 H 0.39915 0.34445 0.48228 0.0
H394 H 0.25326 0.26507 0.47579 0.0
H395 H 0.34464 0.29213 0.55598 0.0
H396 H 0.38017 0.33813 0.59452 0.0
H397 H 0.24431 0.37673 0.62466 0.0
H398 H 0.20796 0.33147 0.58606 0.0
H399 H 0.16624 0.06736 0.53326 0.0
H400 H 0.21582 0.12824 0.51936 0.0
H401 H 0.11673 0.22747 0.55289 0.0
H402 H 0.06662 0.16697 0.56644 0.0
H403 H 0.21161 0.24221 0.57012 0.0
H404 H 0.12102 0.21219 0.4892 0.0
H405 H 0.08765 0.1633 0.45119 0.0
H406 H 0.22518 0.12619 0.42322 0.0
H407 H 0.2594 0.17443 0.46133 0.0
C408 C 0.31674 0.40555 0.51938 0.0
C409 C 0.35881 0.39656 0.50541 0.0
C410 C 0.28475 0.3709 0.52215 0.0
C411 C 0.29447 0.32636 0.51145 0.0
C412 C 0.33524 0.31767 0.49626 0.0
C413 C 0.36713 0.35249 0.49321 0.0
C414 C 0.26353 0.28864 0.51766 0.0
C415 C 0.24456 0.25976 0.49642 0.0
C416 C 0.25187 0.28187 0.54458 0.0
C417 C 0.27359 0.30876 0.56799 0.0
C418 C 0.32234 0.31068 0.57073 0.0
C419 C 0.34263 0.33659 0.5926 0.0
C420 C 0.31452 0.36044 0.61199 0.0
C421 C 0.26604 0.35829 0.6096 0.0
C422 C 0.24557 0.33249 0.58774 0.0
C423 C 0.15484 0.10214 0.53746 0.0
C424 C 0.11258 0.11242 0.55097 0.0
C425 C 0.18311 0.13679 0.52944 0.0
C426 C 0.1698 0.18223 0.53509 0.0
C427 C 0.1275 0.19256 0.54836 0.0
C428 C 0.0989 0.15796 0.556 0.0
C429 C 0.20098 0.21916 0.5283 0.0
C430 C 0.22022 0.24768 0.5495 0.0
C431 C 0.21322 0.22515 0.50142 0.0
C432 C 0.19277 0.19656 0.47829 0.0
C433 C 0.14416 0.19331 0.47508 0.0
C434 C 0.12508 0.16576 0.45349 0.0
C435 C 0.15426 0.14152 0.43485 0.0
C436 C 0.20261 0.14493 0.4377 0.0
C437 C 0.22187 0.17242 0.45928 0.0
H438 H 0.13942 0.12018 0.41815 0.0
H439 H 0.33029 0.3805 0.62889 0.0
H440 H 0.30824 0.60503 0.52633 0.0
H441 H 0.24767 0.66207 0.5219 0.0
H442 H 0.35097 0.75392 0.49595 0.0
H443 H 0.41156 0.69693 0.49982 0.0
H444 H 0.28106 0.79405 0.53486 0.0
H445 H 0.29505 0.69929 0.44959 0.0
H446 H 0.29539 0.62581 0.42179 0.0
H447 H 0.15627 0.59927 0.44778 0.0
H448 H 0.15541 0.67238 0.47607 0.0
H449 H 0.16351 0.95218 0.46342 0.0
H450 H 0.21437 0.89493 0.47965 0.0
H451 H 0.09726 0.80442 0.48297 0.0
H452 H 0.04626 0.86128 0.46601 0.0
H453 H 0.16788 0.76024 0.46038 0.0
H454 H 0.14728 0.85662 0.54086 0.0
H455 H 0.14381 0.92891 0.56972 0.0
H456 H 0.28945 0.95078 0.55619 0.0
H457 H 0.29368 0.87893 0.52686 0.0
C458 C 0.31815 0.63758 0.52002 0.0
C459 C 0.36464 0.64638 0.51325 0.0
C460 C 0.28352 0.67007 0.51749 0.0
C461 C 0.29493 0.71209 0.50856 0.0
C462 C 0.34155 0.72172 0.50295 0.0
C463 C 0.37604 0.68902 0.50503 0.0
C464 C 0.25802 0.74481 0.50308 0.0
C465 C 0.25639 0.78692 0.51852 0.0
C466 C 0.22498 0.73472 0.48234 0.0
C467 C 0.22538 0.69099 0.46518 0.0
C468 C 0.2647 0.67759 0.44956 0.0
C469 C 0.26496 0.63606 0.43368 0.0
C470 C 0.22593 0.60782 0.43308 0.0
C471 C 0.18651 0.62113 0.4483 0.0
C472 C 0.18611 0.66261 0.46426 0.0
C473 C 0.14846 0.92023 0.46777 0.0
C474 C 0.10085 0.91127 0.46338 0.0
C475 C 0.17757 0.88757 0.47721 0.0
C476 C 0.1596 0.8455 0.48289 0.0
C477 C 0.11194 0.83662 0.47877 0.0
C478 C 0.08282 0.86918 0.46911 0.0
C479 C 0.19114 0.8102 0.49186 0.0
C480 C 0.1919 0.76745 0.47704 0.0
C481 C 0.22281 0.81952 0.5135 0.0
C482 C 0.22072 0.86247 0.53148 0.0
C483 C 0.17853 0.87695 0.54389 0.0
C484 C 0.17642 0.91785 0.56035 0.0
C485 C 0.21636 0.94446 0.56474 0.0
C486 C 0.25853 0.93013 0.55275 0.0
C487 C 0.26082 0.88928 0.53623 0.0
H488 H 0.21465 0.97615 0.57746 0.0
H489 H 0.22619 0.57568 0.42077 0.0
H490 H 0.95516 0.06742 0.11949 0.0
H491 H 0.96247 0.06967 0.16851 0.0
H492 H 0.09251 0.99689 0.15896 0.0
H493 H 0.08639 0.99624 0.11018 0.0
H494 H 0.96379 0.00879 0.20174 0.0
H495 H 0.16477 0.02459 0.21066 0.0
H496 H 0.23033 0.05666 0.18676 0.0
H497 H 0.13809 0.15311 0.15596 0.0
H498 H 0.07218 0.12207 0.17998 0.0
H499 H 0.0268 0.96537 0.33352 0.0
H500 H 0.0253 0.9633 0.28438 0.0
H501 H 0.06632 0.1038 0.29001 0.0
H502 H 0.06941 0.10572 0.33896 0.0
H503 H 0.10855 0.0611 0.24946 0.0
H504 H 0.95059 0.06954 0.28049 0.0
H505 H 0.88125 0.04617 0.30486 0.0
H506 H 0.88074 0.91783 0.25686 0.0
H507 H 0.95049 0.94024 0.23244 0.0
C508 C 0.98542 0.05214 0.12788 0.0
C509 C 0.02041 0.03207 0.11096 0.0
C510 C 0.9895 0.0533 0.15589 0.0
C511 C 0.0284 0.03405 0.16752 0.0
C512 C 0.06278 0.01304 0.15058 0.0
C513 C 0.05913 0.01255 0.12264 0.0
C514 C 0.03286 0.03556 0.1973 0.0
C515 C 0.99547 0.02026 0.21214 0.0
C516 C 0.07388 0.05117 0.21105 0.0
C517 C 0.11348 0.07069 0.19692 0.0
C518 C 0.15855 0.05279 0.1989 0.0
C519 C 0.19576 0.07077 0.18531 0.0
C520 C 0.18838 0.1068 0.16978 0.0
C521 C 0.14378 0.1251 0.16792 0.0
C522 C 0.10647 0.1073 0.1815 0.0
C523 C 0.03603 0.99567 0.32428 0.0
C524 C 0.04793 0.03579 0.3402 0.0
C525 C 0.03487 0.99453 0.29618 0.0
C526 C 0.04477 0.03366 0.28348 0.0
C527 C 0.05841 0.0732 0.2993 0.0
C528 C 0.0601 0.07424 0.32734 0.0
C529 C 0.03964 0.03401 0.25384 0.0
C530 C 0.07693 0.04956 0.23903 0.0
C531 C 0.99801 0.01994 0.24023 0.0
C532 C 0.95603 0.00639 0.25483 0.0
C533 C 0.93589 0.03621 0.27527 0.0
C534 C 0.89649 0.02316 0.28907 0.0
C535 C 0.87668 0.98049 0.28246 0.0
C536 C 0.89617 0.95084 0.26199 0.0
C537 C 0.93561 0.96371 0.24815 0.0
H538 H 0.84617 0.97045 0.29317 0.0
H539 H 0.21724 0.12056 0.15925 0.0
H540 H 0.00401 0.09208 0.9014 0.0
H541 H 0.01322 0.08942 0.85246 0.0
H542 H 0.02964 0.94443 0.84755 0.0
H543 H 0.02021 0.94661 0.89637 0.0
H544 H 0.09812 0.98863 0.81912 0.0
H545 H 0.93081 0.98486 0.82855 0.0
H546 H 0.85506 0.01304 0.8465 0.0
H547 H 0.87655 0.13846 0.81209 0.0
H548 H 0.9528 0.11125 0.79426 0.0
H549 H 0.07269 0.92417 0.67986 0.0
H550 H 0.06783 0.93456 0.72888 0.0
H551 H 0.03063 0.07476 0.72559 0.0
H552 H 0.03418 0.0643 0.67637 0.0
H553 H 0.97483 0.03811 0.75882 0.0
H554 H 0.13952 0.04289 0.74765 0.0
H555 H 0.21668 0.01759 0.73044 0.0
H556 H 0.20281 0.89478 0.76862 0.0
H557 H 0.12524 0.91905 0.78577 0.0
C558 C 0.00935 0.05959 0.8899 0.0
C559 C 0.01131 0.01954 0.9028 0.0
C560 C 0.01453 0.05815 0.86195 0.0
C561 C 0.02205 0.01673 0.84645 0.0
C562 C 0.02394 0.97674 0.85921 0.0
C563 C 0.01827 0.97805 0.88709 0.0
C564 C 0.02856 0.01501 0.8169 0.0
C565 C 0.07105 0.99896 0.80584 0.0
C566 C 0.99374 0.02996 0.79981 0.0
C567 C 0.94774 0.04621 0.81033 0.0
C568 C 0.91956 0.0186 0.825 0.0
C569 C 0.8765 0.03436 0.83512 0.0
C570 C 0.86106 0.07757 0.83051 0.0
C571 C 0.88859 0.10503 0.81569 0.0
C572 C 0.93171 0.08944 0.80556 0.0
C573 C 0.06399 0.95739 0.68953 0.0
C574 C 0.05384 0.99341 0.67416 0.0
C575 C 0.06139 0.96333 0.71762 0.0
C576 C 0.04932 0.00559 0.731 0.0
C577 C 0.03999 0.04185 0.71573 0.0
C578 C 0.04222 0.03584 0.68759 0.0
C579 C 0.04439 0.01121 0.76081 0.0
C580 C 0.00216 0.02803 0.772 0.0
C581 C 0.0797 0.99739 0.77806 0.0
C582 C 0.12636 0.98264 0.7678 0.0
C583 C 0.15275 0.01032 0.7522 0.0
C584 C 0.1966 0.9962 0.74249 0.0
C585 C 0.21459 0.95456 0.74838 0.0
C586 C 0.18881 0.92701 0.76405 0.0
C587 C 0.14492 0.94096 0.7738 0.0
H588 H 0.24855 0.94369 0.74084 0.0
H589 H 0.82772 0.08972 0.83837 0.0
H590 H 0.55959 0.5363 0.61954 0.0
H591 H 0.56129 0.5265 0.66753 0.0
H592 H 0.41711 0.48513 0.66408 0.0
H593 H 0.41471 0.49635 0.61616 0.0
H594 H 0.43156 0.53726 0.70843 0.0
H595 H 0.50867 0.40741 0.66474 0.0
H596 H 0.56578 0.36602 0.63467 0.0
H597 H 0.67804 0.42858 0.68152 0.0
H598 H 0.62157 0.47084 0.71167 0.0
H599 H 0.43374 0.43694 0.83223 0.0
H600 H 0.43276 0.44202 0.78353 0.0
H601 H 0.56458 0.51196 0.78902 0.0
H602 H 0.56558 0.50768 0.83781 0.0
H603 H 0.5555 0.44273 0.74385 0.0
H604 H 0.47553 0.57389 0.78669 0.0
H605 H 0.41674 0.61275 0.81673 0.0
H606 H 0.30734 0.54302 0.77089 0.0
H607 H 0.36559 0.5032 0.7408 0.0
C608 C 0.52813 0.52536 0.629 0.0
C609 C 0.48707 0.51688 0.61398 0.0
C610 C 0.52924 0.51948 0.65644 0.0
C611 C 0.48964 0.50407 0.66934 0.0
C612 C 0.44819 0.49683 0.65457 0.0
C613 C 0.44686 0.5033 0.62716 0.0
C614 C 0.49156 0.49537 0.69819 0.0
C615 C 0.45828 0.51601 0.71603 0.0
C616 C 0.5268 0.46817 0.70831 0.0
C617 C 0.56088 0.44261 0.69032 0.0
C618 C 0.54554 0.41258 0.66852 0.0
C619 C 0.57779 0.38893 0.65148 0.0
C620 C 0.62551 0.39475 0.65614 0.0
C621 C 0.64106 0.42414 0.67791 0.0
C622 C 0.60895 0.44792 0.695 0.0
C623 C 0.46288 0.4528 0.82304 0.0
C624 C 0.49965 0.4721 0.8389 0.0
C625 C 0.46214 0.45582 0.79524 0.0
C626 C 0.4984 0.4777 0.78279 0.0
C627 C 0.53626 0.49501 0.79831 0.0
C628 C 0.53671 0.4926 0.82617 0.0
C629 C 0.49565 0.48465 0.75383 0.0
C630 C 0.52875 0.46373 0.73607 0.0
C631 C 0.45998 0.51114 0.74371 0.0
C632 C 0.42493 0.53519 0.76169 0.0
C633 C 0.43896 0.56652 0.78317 0.0
C634 C 0.40574 0.58879 0.80017 0.0
C635 C 0.35834 0.58026 0.79577 0.0
C636 C 0.34407 0.54953 0.77431 0.0
C637 C 0.37717 0.52713 0.75726 0.0
H638 H 0.33267 0.59754 0.80895 0.0
H639 H 0.65043 0.37642 0.64292 0.0
H640 H 0.51632 0.44487 0.39973 0.0
H641 H 0.53063 0.44509 0.35144 0.0
H642 H 0.49719 0.58727 0.35638 0.0
H643 H 0.48312 0.58759 0.40486 0.0
H644 H 0.45623 0.53398 0.31152 0.0
H645 H 0.60533 0.56218 0.35302 0.0
H646 H 0.67026 0.54793 0.3834 0.0
H647 H 0.69212 0.41706 0.34038 0.0
H648 H 0.62682 0.43027 0.30997 0.0
H649 H 0.54107 0.55927 0.17969 0.0
H650 H 0.52961 0.57106 0.22852 0.0
H651 H 0.57928 0.43577 0.23621 0.0
H652 H 0.59168 0.42403 0.18767 0.0
H653 H 0.6134 0.49272 0.27553 0.0
H654 H 0.46215 0.46101 0.23636 0.0
H655 H 0.3955 0.47241 0.20659 0.0
H656 H 0.37619 0.60677 0.24543 0.0
H657 H 0.44317 0.59636 0.27521 0.0
C658 C 0.51161 0.47615 0.39057 0.0
C659 C 0.49874 0.51627 0.4062 0.0
C660 C 0.52001 0.47623 0.36299 0.0
C661 C 0.51539 0.51629 0.35046 0.0
C662 C 0.50106 0.55606 0.36574 0.0
C663 C 0.49317 0.55617 0.39343 0.0
C664 C 0.52647 0.51658 0.32147 0.0
C665 C 0.49076 0.52573 0.30363 0.0
C666 C 0.57133 0.50499 0.31126 0.0
C667 C 0.6109 0.49706 0.32936 0.0
C668 C 0.62374 0.53021 0.35016 0.0
C669 C 0.66065 0.52235 0.36737 0.0
C670 C 0.68522 0.48156 0.36387 0.0
C671 C 0.67301 0.44862 0.34309 0.0
C672 C 0.63608 0.4563 0.32584 0.0
C673 C 0.54994 0.53217 0.1918 0.0
C674 C 0.56704 0.4906 0.17971 0.0
C675 C 0.54315 0.53889 0.2197 0.0
C676 C 0.55294 0.50405 0.23599 0.0
C677 C 0.57141 0.46312 0.22406 0.0
C678 C 0.57837 0.45643 0.19625 0.0
C679 C 0.54296 0.50949 0.26536 0.0
C680 C 0.57893 0.50141 0.28334 0.0
C681 C 0.49823 0.52176 0.27567 0.0
C682 C 0.458 0.5281 0.25778 0.0
C683 C 0.44393 0.49312 0.23839 0.0
C684 C 0.40605 0.49938 0.22155 0.0
C685 C 0.38172 0.54034 0.22406 0.0
C686 C 0.39514 0.5751 0.24347 0.0
C687 C 0.43304 0.56903 0.26035 0.0
H688 H 0.35238 0.54511 0.21101 0.0
H689 H 0.71378 0.47552 0.37722 0.0
loop_
_geom_bond_atom_site_label_1
_geom_bond_atom_site_label_2
_geom_bond_distance
_geom_bond_site_symmetry_2
_ccdc_geom_bond_type
O0 Zn1 1.956 . S
O0 C16 1.233 . S
Zn1 O0 1.956 . S
Zn1 O2 1.949 . S
Zn1 O8 1.919 1_545 S
Zn1 O13 1.924 . S
O2 Zn1 1.949 . S
O2 Zn3 1.923 1_444 S
O2 Zn4 1.950 1_455 S
O2 Zn5 1.945 1_554 S
Zn3 O2 1.923 1_666 S
Zn3 O6 1.933 . S
Zn3 O9 1.941 1_655 S
Zn3 O10 1.965 . S
Zn4 O2 1.950 1_655 S
Zn4 O11 1.938 1_545 S
Zn4 O12 1.906 . S
Zn4 O22 1.953 . S
Zn5 O2 1.945 1_556 S
Zn5 O7 1.932 . S
Zn5 O14 1.977 1_455 S
Zn5 O15 1.919 . S
O6 Zn3 1.933 . S
O6 C17 1.226 1_665 S
O7 Zn5 1.932 . S
O7 C17 1.307 . S
O8 Zn1 1.919 1_565 S
O8 C19 1.253 1_554 S
O9 Zn3 1.941 1_455 S
O9 C19 1.283 . S
O10 Zn3 1.965 . S
O10 C18 1.303 1_556 S
O11 Zn4 1.938 1_565 S
O11 C18 1.247 . S
O12 Zn4 1.906 . S
O12 C20 1.320 . S
O13 Zn1 1.924 . S
O13 C21 1.311 . S
O14 Zn5 1.977 1_655 S
O14 C20 1.264 1_556 S
O15 Zn5 1.919 . S
O15 C21 1.209 1_556 S
C16 O0 1.233 . S
C16 O22 1.298 1_455 S
C17 O6 1.226 1_445 S
C17 O7 1.307 . S
C18 O10 1.303 1_554 S
C18 O11 1.247 . S
C19 O8 1.253 1_556 S
C19 O9 1.283 . S
C20 O12 1.320 . S
C20 O14 1.264 1_554 S
C21 O13 1.311 . S
C21 O15 1.209 1_554 S
O22 Zn4 1.953 . S
O22 C16 1.298 1_655 S
O23 Zn24 1.953 . S
O23 C39 1.225 . S
Zn24 O23 1.953 . S
Zn24 O25 1.949 . S
Zn24 O31 1.919 . S
Zn24 O36 1.924 . S
O25 Zn24 1.949 . S
O25 Zn26 1.923 . S
O25 Zn27 1.950 . S
O25 Zn28 1.945 . S
Zn26 O25 1.923 . S
Zn26 O29 1.933 . S
Zn26 O32 1.941 . S
Zn26 O33 1.965 . S
Zn27 O25 1.950 . S
Zn27 O34 1.938 . S
Zn27 O35 1.906 . S
Zn27 O45 1.953 . S
Zn28 O25 1.945 . S
Zn28 O30 1.932 . S
Zn28 O37 1.977 . S
Zn28 O38 1.910 . S
O29 Zn26 1.933 . S
O29 C40 1.226 . S
O30 Zn28 1.932 . S
O30 C40 1.307 . S
O31 Zn24 1.919 . S
O31 C42 1.253 . S
O32 Zn26 1.941 . S
O32 C42 1.283 . S
O33 Zn26 1.965 . S
O33 C41 1.303 . S
O34 Zn27 1.938 . S
O34 C41 1.247 . S
O35 Zn27 1.906 . S
O35 C43 1.304 . S
O36 Zn24 1.924 . S
O36 C44 1.311 . S
O37 Zn28 1.977 . S
O37 C43 1.272 . S
O38 Zn28 1.910 . S
O38 C44 1.231 . S
C39 O23 1.225 . S
C39 O45 1.298 . S
C40 O29 1.226 . S
C40 O30 1.307 . S
C41 O33 1.303 . S
C41 O34 1.247 . S
C42 O31 1.253 . S
C42 O32 1.283 . S
C43 O35 1.304 . S
C43 O37 1.272 . S
C44 O36 1.311 . S
C44 O38 1.231 . S
O45 Zn27 1.953 . S
O45 C39 1.298 . S
O46 Cd47 2.300 . S
O46 C53 1.275 1_565 S
Cd47 O46 2.300 . S
Cd47 O55 2.381 . S
Cd47 O56 2.378 . S
O48 Cd49 2.385 . S
O48 C53 1.255 . S
Cd49 O48 2.385 . S
Cd49 O50 2.317 1_455 S
O50 Cd49 2.317 1_655 S
O50 C51 1.232 . S
C51 O50 1.232 . S
C51 O52 1.218 . S
O52 C51 1.218 . S
C53 O46 1.275 1_545 S
C53 O48 1.255 . S
C54 O55 1.258 . S
C54 O56 1.256 . S
O55 Cd47 2.381 . S
O55 C54 1.258 . S
O56 Cd47 2.378 . S
O56 C54 1.256 . S
O57 Cd58 2.300 . S
O57 C64 1.285 . S
Cd58 O57 2.300 . S
Cd58 O66 2.381 . S
Cd58 O67 2.378 . S
O59 Cd60 2.385 . S
O59 C64 1.248 1_565 S
Cd60 O59 2.385 . S
Cd60 O61 2.317 1_455 S
O61 Cd60 2.317 1_655 S
O61 C62 1.232 . S
C62 O61 1.232 . S
C62 O63 1.218 . S
O63 C62 1.218 . S
C64 O57 1.285 . S
C64 O59 1.248 1_545 S
C65 O66 1.258 . S
C65 O67 1.256 . S
O66 Cd58 2.381 . S
O66 C65 1.258 . S
O67 Cd58 2.378 . S
O67 C65 1.256 . S
O68 Cd69 2.300 . S
O68 C75 1.275 . S
Cd69 O68 2.300 . S
Cd69 O77 2.381 . S
Cd69 O78 2.378 . S
O70 Cd71 2.385 . S
O70 C75 1.255 . S
Cd71 O70 2.385 . S
Cd71 O72 2.317 . S
O72 Cd71 2.317 . S
O72 C73 1.232 . S
C73 O72 1.232 . S
C73 O74 1.218 . S
O74 C73 1.218 . S
C75 O68 1.275 . S
C75 O70 1.255 . S
C76 O77 1.258 . S
C76 O78 1.256 . S
O77 Cd69 2.381 . S
O77 C76 1.258 . S
O78 Cd69 2.378 . S
O78 C76 1.256 . S
O79 Cd80 2.300 . S
O79 C86 1.275 . S
Cd80 O79 2.300 . S
Cd80 O88 2.381 . S
Cd80 O89 2.378 . S
O81 Cd82 2.385 . S
O81 C86 1.255 . S
Cd82 O81 2.385 . S
Cd82 O83 2.317 . S
O83 Cd82 2.317 . S
O83 C84 1.232 . S
C84 O83 1.232 . S
C84 O85 1.218 . S
O85 C84 1.218 . S
C86 O79 1.275 . S
C86 O81 1.255 . S
C87 O88 1.258 . S
C87 O89 1.256 . S
O88 Cd80 2.381 . S
O88 C87 1.258 . S
O89 Cd80 2.378 . S
O89 C87 1.256 . S
H90 C108 0.951 . S
H91 C110 0.951 . S
H92 C112 0.950 . S
H93 C113 0.950 . S
H94 C115 0.950 . S
H95 C118 0.950 . S
H96 C119 0.950 . S
H97 C121 0.950 . S
H98 C122 0.950 . S
H99 C123 0.951 . S
H100 C125 0.951 . S
H101 C127 0.950 . S
H102 C128 0.950 . S
H103 C130 0.950 . S
H104 C133 0.950 . S
H105 C134 0.950 . S
H106 C136 0.950 . S
H107 C137 0.949 1_554 S
C108 H90 0.951 . S
C108 C109 1.366 . S
C108 C110 1.388 . S
C109 C108 1.366 . S
C109 C113 1.385 . S
C110 H91 0.951 . S
C110 C108 1.388 . S
C110 C111 1.366 . S
C111 C110 1.366 . S
C111 C112 1.414 . S
C111 C114 1.499 . S
C112 H92 0.950 . S
C112 C111 1.414 . S
C112 C113 1.374 . S
C113 H93 0.950 . S
C113 C109 1.385 . S
C113 C112 1.374 . S
C114 C111 1.499 . S
C114 C115 1.373 . S
C114 C116 1.389 . S
C115 H94 0.950 . S
C115 C114 1.373 . S
C115 C131 1.377 . S
C116 C114 1.389 . S
C116 C117 1.524 . S
C116 C130 1.377 . S
C117 C116 1.524 . S
C117 C118 1.397 . S
C117 C122 1.363 . S
C118 H95 0.950 . S
C118 C117 1.397 . S
C118 C119 1.334 . S
C119 H96 0.950 . S
C119 C118 1.334 . S
C119 C120 1.287 . S
C120 C119 1.287 . S
C120 C121 1.524 . S
C120 H139 0.913 . S
C121 H97 0.950 . S
C121 C120 1.524 . S
C121 C122 1.415 . S
C122 H98 0.950 . S
C122 C117 1.363 . S
C122 C121 1.415 . S
C123 H99 0.951 . S
C123 C124 1.366 . S
C123 C125 1.388 . S
C124 C123 1.366 . S
C124 C128 1.385 . S
C125 H100 0.951 . S
C125 C123 1.388 . S
C125 C126 1.366 . S
C126 C125 1.366 . S
C126 C127 1.414 . S
C126 C129 1.499 . S
C127 H101 0.950 . S
C127 C126 1.414 . S
C127 C128 1.374 . S
C128 H102 0.950 . S
C128 C124 1.385 . S
C128 C127 1.374 . S
C129 C126 1.499 . S
C129 C130 1.373 . S
C129 C131 1.389 . S
C130 H103 0.950 . S
C130 C116 1.377 . S
C130 C129 1.373 . S
C131 C115 1.377 . S
C131 C129 1.389 . S
C131 C132 1.524 . S
C132 C131 1.524 . S
C132 C133 1.397 . S
C132 C137 1.363 1_554 S
C133 H104 0.950 . S
C133 C132 1.397 . S
C133 C134 1.334 1_554 S
C134 H105 0.950 . S
C134 C133 1.334 1_556 S
C134 C135 1.287 . S
C135 C134 1.287 . S
C135 C136 1.524 . S
C135 H138 0.999 . S
C136 H106 0.950 . S
C136 C135 1.524 . S
C136 C137 1.415 . S
C137 H107 0.949 1_556 S
C137 C132 1.363 1_556 S
C137 C136 1.415 . S
H138 C135 0.999 . S
H139 C120 0.913 . S
H140 C158 0.951 . S
H141 C160 0.951 . S
H142 C162 0.950 . S
H143 C163 0.950 . S
H144 C165 0.950 . S
H145 C168 0.950 . S
H146 C169 0.950 . S
H147 C171 0.950 . S
H148 C172 0.950 . S
H149 C173 0.951 . S
H150 C175 0.951 . S
H151 C177 0.950 . S
H152 C178 0.950 . S
H153 C180 0.950 . S
H154 C183 0.950 . S
H155 C184 0.950 . S
H156 C186 0.950 . S
H157 C187 0.950 . S
C158 H140 0.951 . S
C158 C159 1.366 . S
C158 C160 1.388 . S
C159 C158 1.366 . S
C159 C163 1.385 . S
C160 H141 0.951 . S
C160 C158 1.388 . S
C160 C161 1.366 . S
C161 C160 1.366 . S
C161 C162 1.414 . S
C161 C164 1.499 . S
C162 H142 0.950 . S
C162 C161 1.414 . S
C162 C163 1.374 . S
C163 H143 0.950 . S
C163 C159 1.385 . S
C163 C162 1.374 . S
C164 C161 1.499 . S
C164 C165 1.373 . S
C164 C166 1.389 . S
C165 H144 0.950 . S
C165 C164 1.373 . S
C165 C181 1.377 . S
C166 C164 1.389 . S
C166 C167 1.524 1_556 S
C166 C180 1.377 . S
C167 C166 1.524 1_554 S
C167 C168 1.397 . S
C167 C172 1.363 . S
C168 H145 0.950 . S
C168 C167 1.397 . S
C168 C169 1.334 . S
C169 H146 0.950 . S
C169 C168 1.334 . S
C169 C170 1.287 . S
C170 C169 1.287 . S
C170 C171 1.524 . S
C170 H189 0.913 . S
C171 H147 0.950 . S
C171 C170 1.524 . S
C171 C172 1.415 . S
C172 H148 0.950 . S
C172 C167 1.363 . S
C172 C171 1.415 . S
C173 H149 0.951 . S
C173 C174 1.366 . S
C173 C175 1.388 . S
C174 C173 1.366 . S
C174 C178 1.385 . S
C175 H150 0.951 . S
C175 C173 1.388 . S
C175 C176 1.366 . S
C176 C175 1.366 . S
C176 C177 1.414 . S
C176 C179 1.499 . S
C177 H151 0.950 . S
C177 C176 1.414 . S
C177 C178 1.374 . S
C178 H152 0.950 . S
C178 C174 1.385 . S
C178 C177 1.374 . S
C179 C176 1.499 . S
C179 C180 1.373 . S
C179 C181 1.389 . S
C180 H153 0.950 . S
C180 C166 1.377 . S
C180 C179 1.373 . S
C181 C165 1.377 . S
C181 C179 1.389 . S
C181 C182 1.524 . S
C182 C181 1.524 . S
C182 C183 1.397 . S
C182 C187 1.363 . S
C183 H154 0.950 . S
C183 C182 1.397 . S
C183 C184 1.334 . S
C184 H155 0.950 . S
C184 C183 1.334 . S
C184 C185 1.287 . S
C185 C184 1.287 . S
C185 C186 1.524 . S
C185 H188 0.999 . S
C186 H156 0.950 . S
C186 C185 1.524 . S
C186 C187 1.415 . S
C187 H157 0.950 . S
C187 C182 1.363 . S
C187 C186 1.415 . S
H188 C185 0.999 . S
H189 C170 0.913 . S
H190 C208 0.951 . S
H191 C210 0.951 . S
H192 C212 0.950 1_556 S
H193 C213 0.950 1_556 S
H194 C215 0.950 . S
H195 C218 0.950 . S
H196 C219 0.950 1_556 S
H197 C221 0.950 . S
H198 C222 0.950 . S
H199 C223 0.951 . S
H200 C225 0.951 . S
H201 C227 0.950 . S
H202 C228 0.950 . S
H203 C230 0.950 . S
H204 C233 0.950 . S
H205 C234 0.950 . S
H206 C236 0.950 . S
H207 C237 0.950 . S
C208 H190 0.951 . S
C208 C209 1.366 . S
C208 C210 1.388 . S
C209 C208 1.366 . S
C209 C213 1.385 . S
C210 H191 0.951 . S
C210 C208 1.388 . S
C210 C211 1.366 . S
C211 C210 1.366 . S
C211 C212 1.414 . S
C211 C214 1.499 . S
C212 H192 0.950 1_554 S
C212 C211 1.414 . S
C212 C213 1.374 . S
C213 H193 0.950 1_554 S
C213 C209 1.385 . S
C213 C212 1.374 . S
C214 C211 1.499 . S
C214 C215 1.373 . S
C214 C216 1.389 . S
C215 H194 0.950 . S
C215 C214 1.373 . S
C215 C231 1.377 . S
C216 C214 1.389 . S
C216 C217 1.524 . S
C216 C230 1.377 . S
C217 C216 1.524 . S
C217 C218 1.397 . S
C217 C222 1.363 . S
C218 H195 0.950 . S
C218 C217 1.397 . S
C218 C219 1.334 . S
C219 H196 0.950 1_554 S
C219 C218 1.334 . S
C219 C220 1.287 . S
C220 C219 1.287 . S
C220 C221 1.524 . S
C220 H239 0.913 . S
C221 H197 0.950 . S
C221 C220 1.524 . S
C221 C222 1.415 . S
C222 H198 0.950 . S
C222 C217 1.363 . S
C222 C221 1.415 . S
C223 H199 0.951 . S
C223 C224 1.366 . S
C223 C225 1.388 . S
C224 C223 1.366 . S
C224 C228 1.385 . S
C225 H200 0.951 . S
C225 C223 1.388 . S
C225 C226 1.366 . S
C226 C225 1.366 . S
C226 C227 1.414 . S
C226 C229 1.499 . S
C227 H201 0.950 . S
C227 C226 1.414 . S
C227 C228 1.374 . S
C228 H202 0.950 . S
C228 C224 1.385 . S
C228 C227 1.374 . S
C229 C226 1.499 . S
C229 C230 1.373 . S
C229 C231 1.389 . S
C230 H203 0.950 . S
C230 C216 1.377 . S
C230 C229 1.373 . S
C231 C215 1.377 . S
C231 C229 1.389 . S
C231 C232 1.524 . S
C232 C231 1.524 . S
C232 C233 1.397 . S
C232 C237 1.363 . S
C233 H204 0.950 . S
C233 C232 1.397 . S
C233 C234 1.334 . S
C234 H205 0.950 . S
C234 C233 1.334 . S
C234 C235 1.287 . S
C235 C234 1.287 . S
C235 C236 1.524 . S
C235 H238 0.999 . S
C236 H206 0.950 . S
C236 C235 1.524 . S
C236 C237 1.415 . S
C237 H207 0.950 . S
C237 C232 1.363 . S
C237 C236 1.415 . S
H238 C235 0.999 . S
H239 C220 0.913 . S
H240 C258 0.951 . S
H241 C260 0.951 . S
H242 C262 0.950 . S
H243 C263 0.950 . S
H244 C265 0.950 1_554 S
H245 C268 0.950 . S
H246 C269 0.950 . S
H247 C271 0.950 . S
H248 C272 0.950 . S
H249 C273 0.951 . S
H250 C275 0.951 . S
H251 C277 0.950 . S
H252 C278 0.950 . S
H253 C280 0.950 . S
H254 C283 0.950 . S
H255 C284 0.950 . S
H256 C286 0.950 . S
H257 C287 0.950 . S
C258 H240 0.951 . S
C258 C259 1.366 . S
C258 C260 1.388 . S
C259 C258 1.366 . S
C259 C263 1.385 . S
C260 H241 0.951 . S
C260 C258 1.388 . S
C260 C261 1.366 . S
C261 C260 1.366 . S
C261 C262 1.414 . S
C261 C264 1.499 . S
C262 H242 0.950 . S
C262 C261 1.414 . S
C262 C263 1.374 . S
C263 H243 0.950 . S
C263 C259 1.385 . S
C263 C262 1.374 . S
C264 C261 1.499 . S
C264 C265 1.373 . S
C264 C266 1.389 . S
C265 H244 0.950 1_556 S
C265 C264 1.373 . S
C265 C281 1.377 . S
C266 C264 1.389 . S
C266 C267 1.524 . S
C266 C280 1.377 . S
C267 C266 1.524 . S
C267 C268 1.397 . S
C267 C272 1.363 . S
C268 H245 0.950 . S
C268 C267 1.397 . S
C268 C269 1.334 . S
C269 H246 0.950 . S
C269 C268 1.334 . S
C269 C270 1.287 . S
C270 C269 1.287 . S
C270 C271 1.524 . S
C270 H289 0.913 . S
C271 H247 0.950 . S
C271 C270 1.524 . S
C271 C272 1.415 . S
C272 H248 0.950 . S
C272 C267 1.363 . S
C272 C271 1.415 . S
C273 H249 0.951 . S
C273 C274 1.366 . S
C273 C275 1.388 . S
C274 C273 1.366 . S
C274 C278 1.385 . S
C275 H250 0.951 . S
C275 C273 1.388 . S
C275 C276 1.366 . S
C276 C275 1.366 . S
C276 C277 1.414 . S
C276 C279 1.499 . S
C277 H251 0.950 . S
C277 C276 1.414 . S
C277 C278 1.374 . S
C278 H252 0.950 . S
C278 C274 1.385 . S
C278 C277 1.374 . S
C279 C276 1.499 . S
C279 C280 1.373 . S
C279 C281 1.389 . S
C280 H253 0.950 . S
C280 C266 1.377 . S
C280 C279 1.373 . S
C281 C265 1.377 . S
C281 C279 1.389 . S
C281 C282 1.524 1_556 S
C282 C281 1.524 1_554 S
C282 C283 1.397 . S
C282 C287 1.363 . S
C283 H254 0.950 . S
C283 C282 1.397 . S
C283 C284 1.334 . S
C284 H255 0.950 . S
C284 C283 1.334 . S
C284 C285 1.287 . S
C285 C284 1.287 . S
C285 C286 1.524 . S
C285 H288 0.999 . S
C286 H256 0.950 . S
C286 C285 1.524 . S
C286 C287 1.415 . S
C287 H257 0.950 . S
C287 C282 1.363 . S
C287 C286 1.415 . S
H288 C285 0.999 . S
H289 C270 0.913 . S
H290 C308 0.951 . S
H291 C310 0.951 . S
H292 C312 0.950 . S
H293 C313 0.950 . S
H294 C315 0.950 . S
H295 C318 0.950 . S
H296 C319 0.950 . S
H297 C321 0.950 . S
H298 C322 0.950 . S
H299 C323 0.951 . S
H300 C325 0.951 . S
H301 C327 0.950 . S
H302 C328 0.950 . S
H303 C330 0.950 . S
H304 C333 0.950 . S
H305 C334 0.950 . S
H306 C336 0.950 . S
H307 C337 0.950 . S
C308 H290 0.951 . S
C308 C309 1.366 . S
C308 C310 1.388 . S
C309 C308 1.366 . S
C309 C313 1.385 . S
C310 H291 0.951 . S
C310 C308 1.388 . S
C310 C311 1.366 . S
C311 C310 1.366 . S
C311 C312 1.414 . S
C311 C314 1.499 . S
C312 H292 0.950 . S
C312 C311 1.414 . S
C312 C313 1.374 . S
C313 H293 0.950 . S
C313 C309 1.385 . S
C313 C312 1.374 . S
C314 C311 1.499 . S
C314 C315 1.373 . S
C314 C316 1.389 . S
C315 H294 0.950 . S
C315 C314 1.373 . S
C315 C331 1.377 . S
C316 C314 1.389 . S
C316 C317 1.524 . S
C316 C330 1.377 . S
C317 C316 1.524 . S
C317 C318 1.397 . S
C317 C322 1.363 . S
C318 H295 0.950 . S
C318 C317 1.397 . S
C318 C319 1.334 . S
C319 H296 0.950 . S
C319 C318 1.334 . S
C319 C320 1.287 . S
C320 C319 1.287 . S
C320 C321 1.524 . S
C320 H339 0.913 . S
C321 H297 0.950 . S
C321 C320 1.524 . S
C321 C322 1.415 . S
C322 H298 0.950 . S
C322 C317 1.363 . S
C322 C321 1.415 . S
C323 H299 0.951 . S
C323 C324 1.366 . S
C323 C325 1.388 . S
C324 C323 1.366 . S
C324 C328 1.385 . S
C325 H300 0.951 . S
C325 C323 1.388 . S
C325 C326 1.366 . S
C326 C325 1.366 . S
C326 C327 1.414 . S
C326 C329 1.499 . S
C327 H301 0.950 . S
C327 C326 1.414 . S
C327 C328 1.374 . S
C328 H302 0.950 . S
C328 C324 1.385 . S
C328 C327 1.374 . S
C329 C326 1.499 . S
C329 C330 1.373 . S
C329 C331 1.389 . S
C330 H303 0.950 . S
C330 C316 1.377 . S
C330 C329 1.373 . S
C331 C315 1.377 . S
C331 C329 1.389 . S
C331 C332 1.524 . S
C332 C331 1.524 . S
C332 C333 1.397 . S
C332 C337 1.363 . S
C333 H304 0.950 . S
C333 C332 1.397 . S
C333 C334 1.334 . S
C334 H305 0.950 . S
C334 C333 1.334 . S
C334 C335 1.287 . S
C335 C334 1.287 . S
C335 C336 1.524 . S
C335 H338 0.999 . S
C336 H306 0.950 . S
C336 C335 1.524 . S
C336 C337 1.415 . S
C337 H307 0.950 . S
C337 C332 1.363 . S
C337 C336 1.415 . S
H338 C335 0.999 . S
H339 C320 0.913 . S
H340 C358 0.951 . S
H341 C360 0.951 . S
H342 C362 0.950 . S
H343 C363 0.950 . S
H344 C365 0.950 . S
H345 C368 0.950 . S
H346 C369 0.950 . S
H347 C371 0.950 . S
H348 C372 0.950 . S
H349 C373 0.951 . S
H350 C375 0.951 . S
H351 C377 0.950 . S
H352 C378 0.950 . S
H353 C380 0.950 . S
H354 C383 0.950 . S
H355 C384 0.950 . S
H356 C386 0.950 . S
H357 C387 0.950 . S
C358 H340 0.951 . S
C358 C359 1.366 . S
C358 C360 1.388 . S
C359 C358 1.366 . S
C359 C363 1.385 . S
C360 H341 0.951 . S
C360 C358 1.388 . S
C360 C361 1.366 . S
C361 C360 1.366 . S
C361 C362 1.414 . S
C361 C364 1.499 . S
C362 H342 0.950 . S
C362 C361 1.414 . S
C362 C363 1.374 . S
C363 H343 0.950 . S
C363 C359 1.385 . S
C363 C362 1.374 . S
C364 C361 1.499 . S
C364 C365 1.373 . S
C364 C366 1.389 . S
C365 H344 0.950 . S
C365 C364 1.373 . S
C365 C381 1.377 . S
C366 C364 1.389 . S
C366 C367 1.524 . S
C366 C380 1.377 . S
C367 C366 1.524 . S
C367 C368 1.397 . S
C367 C372 1.363 . S
C368 H345 0.950 . S
C368 C367 1.397 . S
C368 C369 1.334 . S
C369 H346 0.950 . S
C369 C368 1.334 . S
C369 C370 1.287 . S
C370 C369 1.287 . S
C370 C371 1.524 . S
C370 H389 0.913 . S
C371 H347 0.950 . S
C371 C370 1.524 . S
C371 C372 1.415 . S
C372 H348 0.950 . S
C372 C367 1.363 . S
C372 C371 1.415 . S
C373 H349 0.951 . S
C373 C374 1.366 . S
C373 C375 1.388 . S
C374 C373 1.366 . S
C374 C378 1.385 . S
C375 H350 0.951 . S
C375 C373 1.388 . S
C375 C376 1.366 . S
C376 C375 1.366 . S
C376 C377 1.414 . S
C376 C379 1.499 . S
C377 H351 0.950 . S
C377 C376 1.414 . S
C377 C378 1.374 . S
C378 H352 0.950 . S
C378 C374 1.385 . S
C378 C377 1.374 . S
C379 C376 1.499 . S
C379 C380 1.373 . S
C379 C381 1.389 . S
C380 H353 0.950 . S
C380 C366 1.377 . S
C380 C379 1.373 . S
C381 C365 1.377 . S
C381 C379 1.389 . S
C381 C382 1.524 . S
C382 C381 1.524 . S
C382 C383 1.397 . S
C382 C387 1.363 . S
C383 H354 0.950 . S
C383 C382 1.397 . S
C383 C384 1.334 . S
C384 H355 0.950 . S
C384 C383 1.334 . S
C384 C385 1.287 . S
C385 C384 1.287 . S
C385 C386 1.524 . S
C385 H388 0.999 . S
C386 H356 0.950 . S
C386 C385 1.524 . S
C386 C387 1.415 . S
C387 H357 0.950 . S
C387 C382 1.363 . S
C387 C386 1.415 . S
H388 C385 0.999 . S
H389 C370 0.913 . S
H390 C408 0.951 . S
H391 C410 0.951 . S
H392 C412 0.950 . S
H393 C413 0.950 . S
H394 C415 0.950 . S
H395 C418 0.950 . S
H396 C419 0.950 . S
H397 C421 0.950 . S
H398 C422 0.950 . S
H399 C423 0.951 . S
H400 C425 0.951 . S
H401 C427 0.950 . S
H402 C428 0.950 . S
H403 C430 0.950 . S
H404 C433 0.950 . S
H405 C434 0.950 . S
H406 C436 0.950 . S
H407 C437 0.950 . S
C408 H390 0.951 . S
C408 C409 1.366 . S
C408 C410 1.388 . S
C409 C408 1.366 . S
C409 C413 1.385 . S
C410 H391 0.951 . S
C410 C408 1.388 . S
C410 C411 1.366 . S
C411 C410 1.366 . S
C411 C412 1.414 . S
C411 C414 1.499 . S
C412 H392 0.950 . S
C412 C411 1.414 . S
C412 C413 1.374 . S
C413 H393 0.950 . S
C413 C409 1.385 . S
C413 C412 1.374 . S
C414 C411 1.499 . S
C414 C415 1.373 . S
C414 C416 1.389 . S
C415 H394 0.950 . S
C415 C414 1.373 . S
C415 C431 1.377 . S
C416 C414 1.389 . S
C416 C417 1.524 . S
C416 C430 1.377 . S
C417 C416 1.524 . S
C417 C418 1.397 . S
C417 C422 1.363 . S
C418 H395 0.950 . S
C418 C417 1.397 . S
C418 C419 1.334 . S
C419 H396 0.950 . S
C419 C418 1.334 . S
C419 C420 1.287 . S
C420 C419 1.287 . S
C420 C421 1.524 . S
C420 H439 0.913 . S
C421 H397 0.950 . S
C421 C420 1.524 . S
C421 C422 1.415 . S
C422 H398 0.950 . S
C422 C417 1.363 . S
C422 C421 1.415 . S
C423 H399 0.951 . S
C423 C424 1.366 . S
C423 C425 1.388 . S
C424 C423 1.366 . S
C424 C428 1.385 . S
C425 H400 0.951 . S
C425 C423 1.388 . S
C425 C426 1.366 . S
C426 C425 1.366 . S
C426 C427 1.414 . S
C426 C429 1.499 . S
C427 H401 0.950 . S
C427 C426 1.414 . S
C427 C428 1.374 . S
C428 H402 0.950 . S
C428 C424 1.385 . S
C428 C427 1.374 . S
C429 C426 1.499 . S
C429 C430 1.373 . S
C429 C431 1.389 . S
C430 H403 0.950 . S
C430 C416 1.377 . S
C430 C429 1.373 . S
C431 C415 1.377 . S
C431 C429 1.389 . S
C431 C432 1.524 . S
C432 C431 1.524 . S
C432 C433 1.397 . S
C432 C437 1.363 . S
C433 H404 0.950 . S
C433 C432 1.397 . S
C433 C434 1.334 . S
C434 H405 0.950 . S
C434 C433 1.334 . S
C434 C435 1.287 . S
C435 C434 1.287 . S
C435 C436 1.524 . S
C435 H438 0.999 . S
C436 H406 0.950 . S
C436 C435 1.524 . S
C436 C437 1.415 . S
C437 H407 0.950 . S
C437 C432 1.363 . S
C437 C436 1.415 . S
H438 C435 0.999 . S
H439 C420 0.913 . S
H440 C458 0.951 . S
H441 C460 0.951 . S
H442 C462 0.950 . S
H443 C463 0.950 . S
H444 C465 0.950 . S
H445 C468 0.950 . S
H446 C469 0.950 . S
H447 C471 0.950 . S
H448 C472 0.950 . S
H449 C473 0.951 . S
H450 C475 0.951 . S
H451 C477 0.950 . S
H452 C478 0.950 . S
H453 C480 0.950 . S
H454 C483 0.950 . S
H455 C484 0.950 . S
H456 C486 0.950 . S
H457 C487 0.950 . S
C458 H440 0.951 . S
C458 C459 1.366 . S
C458 C460 1.388 . S
C459 C458 1.366 . S
C459 C463 1.385 . S
C460 H441 0.951 . S
C460 C458 1.388 . S
C460 C461 1.366 . S
C461 C460 1.366 . S
C461 C462 1.414 . S
C461 C464 1.499 . S
C462 H442 0.950 . S
C462 C461 1.414 . S
C462 C463 1.374 . S
C463 H443 0.950 . S
C463 C459 1.385 . S
C463 C462 1.374 . S
C464 C461 1.499 . S
C464 C465 1.373 . S
C464 C466 1.389 . S
C465 H444 0.950 . S
C465 C464 1.373 . S
C465 C481 1.377 . S
C466 C464 1.389 . S
C466 C467 1.524 . S
C466 C480 1.377 . S
C467 C466 1.524 . S
C467 C468 1.397 . S
C467 C472 1.363 . S
C468 H445 0.950 . S
C468 C467 1.397 . S
C468 C469 1.334 . S
C469 H446 0.950 . S
C469 C468 1.334 . S
C469 C470 1.287 . S
C470 C469 1.287 . S
C470 C471 1.524 . S
C470 H489 0.913 . S
C471 H447 0.950 . S
C471 C470 1.524 . S
C471 C472 1.415 . S
C472 H448 0.950 . S
C472 C467 1.363 . S
C472 C471 1.415 . S
C473 H449 0.951 . S
C473 C474 1.366 . S
C473 C475 1.388 . S
C474 C473 1.366 . S
C474 C478 1.385 . S
C475 H450 0.951 . S
C475 C473 1.388 . S
C475 C476 1.366 . S
C476 C475 1.366 . S
C476 C477 1.414 . S
C476 C479 1.499 . S
C477 H451 0.950 . S
C477 C476 1.414 . S
C477 C478 1.374 . S
C478 H452 0.950 . S
C478 C474 1.385 . S
C478 C477 1.374 . S
C479 C476 1.499 . S
C479 C480 1.373 . S
C479 C481 1.389 . S
C480 H453 0.950 . S
C480 C466 1.377 . S
C480 C479 1.373 . S
C481 C465 1.377 . S
C481 C479 1.389 . S
C481 C482 1.524 . S
C482 C481 1.524 . S
C482 C483 1.397 . S
C482 C487 1.363 . S
C483 H454 0.950 . S
C483 C482 1.397 . S
C483 C484 1.334 . S
C484 H455 0.950 . S
C484 C483 1.334 . S
C484 C485 1.287 . S
C485 C484 1.287 . S
C485 C486 1.524 . S
C485 H488 0.999 . S
C486 H456 0.950 . S
C486 C485 1.524 . S
C486 C487 1.415 . S
C487 H457 0.950 . S
C487 C482 1.363 . S
C487 C486 1.415 . S
H488 C485 0.999 . S
H489 C470 0.913 . S
H490 C508 0.951 . S
H491 C510 0.951 . S
H492 C512 0.950 1_655 S
H493 C513 0.950 1_655 S
H494 C515 0.950 . S
H495 C518 0.960 . S
H496 C519 0.950 . S
H497 C521 0.950 . S
H498 C522 0.950 . S
H499 C523 0.951 . S
H500 C525 0.951 . S
H501 C527 0.950 . S
H502 C528 0.950 . S
H503 C530 0.950 . S
H504 C533 0.950 1_545 S
H505 C534 0.942 1_545 S
H506 C536 0.950 . S
H507 C537 0.950 . S
C508 H490 0.951 . S
C508 C509 1.366 . S
C508 C510 1.388 . S
C509 C508 1.366 . S
C509 C513 1.385 1_545 S
C510 H491 0.951 . S
C510 C508 1.388 . S
C510 C511 1.366 . S
C511 C510 1.366 . S
C511 C512 1.414 1_545 S
C511 C514 1.499 . S
C512 H492 0.950 1_455 S
C512 C511 1.414 1_565 S
C512 C513 1.374 . S
C513 H493 0.950 1_455 S
C513 C509 1.385 1_565 S
C513 C512 1.374 . S
C514 C511 1.499 . S
C514 C515 1.373 1_445 S
C514 C516 1.389 . S
C515 H494 0.950 . S
C515 C514 1.373 1_665 S
C515 C531 1.377 . S
C516 C514 1.389 . S
C516 C517 1.524 . S
C516 C530 1.377 . S
C517 C516 1.524 . S
C517 C518 1.397 . S
C517 C522 1.363 . S
C518 H495 0.960 . S
C518 C517 1.397 . S
C518 C519 1.334 . S
C519 H496 0.950 . S
C519 C518 1.334 . S
C519 C520 1.287 . S
C520 C519 1.287 . S
C520 C521 1.524 . S
C520 H539 0.913 . S
C521 H497 0.950 . S
C521 C520 1.524 . S
C521 C522 1.415 . S
C522 H498 0.950 . S
C522 C517 1.363 . S
C522 C521 1.415 . S
C523 H499 0.951 . S
C523 C524 1.366 1_665 S
C523 C525 1.388 . S
C524 C523 1.366 1_445 S
C524 C528 1.385 . S
C525 H500 0.951 . S
C525 C523 1.388 . S
C525 C526 1.364 1_665 S
C526 C525 1.364 1_445 S
C526 C527 1.416 . S
C526 C529 1.499 . S
C527 H501 0.950 . S
C527 C526 1.416 . S
C527 C528 1.374 . S
C528 H502 0.950 . S
C528 C524 1.385 . S
C528 C527 1.374 . S
C529 C526 1.499 . S
C529 C530 1.373 . S
C529 C531 1.389 1_445 S
C530 H503 0.950 . S
C530 C516 1.377 . S
C530 C529 1.373 . S
C531 C515 1.377 . S
C531 C529 1.389 1_665 S
C531 C532 1.524 . S
C532 C531 1.524 . S
C532 C533 1.397 . S
C532 C537 1.363 . S
C533 H504 0.950 1_565 S
C533 C532 1.397 . S
C533 C534 1.334 . S
C534 H505 0.942 1_565 S
C534 C533 1.334 . S
C534 C535 1.287 . S
C535 C534 1.287 . S
C535 C536 1.524 . S
C535 H538 0.999 . S
C536 H506 0.950 . S
C536 C535 1.524 . S
C536 C537 1.415 . S
C537 H507 0.950 . S
C537 C532 1.363 . S
C537 C536 1.415 . S
H538 C535 0.999 . S
H539 C520 0.913 . S
H540 C558 0.951 . S
H541 C560 0.951 . S
H542 C562 0.950 . S
H543 C563 0.950 . S
H544 C565 0.950 . S
H545 C568 0.950 . S
H546 C569 0.950 . S
H547 C571 0.950 . S
H548 C572 0.950 . S
H549 C573 0.951 . S
H550 C575 0.951 . S
H551 C577 0.950 . S
H552 C578 0.950 . S
H553 C580 0.950 . S
H554 C583 0.950 . S
H555 C584 0.950 . S
H556 C586 0.950 . S
H557 C587 0.950 . S
C558 H540 0.951 . S
C558 C559 1.366 1_655 S
C558 C560 1.388 . S
C559 C558 1.366 1_455 S
C559 C563 1.385 1_545 S
C560 H541 0.951 . S
C560 C558 1.388 . S
C560 C561 1.383 1_655 S
C561 C560 1.383 1_455 S
C561 C562 1.394 1_545 S
C561 C564 1.503 1_545 S
C562 H542 0.950 . S
C562 C561 1.394 1_565 S
C562 C563 1.374 . S
C563 H543 0.950 . S
C563 C559 1.385 1_565 S
C563 C562 1.374 . S
C564 C561 1.503 1_565 S
C564 C565 1.376 . S
C564 C566 1.384 1_465 S
C565 H544 0.950 . S
C565 C564 1.376 . S
C565 C581 1.377 . S
C566 C564 1.384 1_645 S
C566 C567 1.524 . S
C566 C580 1.377 . S
C567 C566 1.524 . S
C567 C568 1.397 1_545 S
C567 C572 1.363 . S
C568 H545 0.950 . S
C568 C567 1.397 1_565 S
C568 C569 1.334 . S
C569 H546 0.950 . S
C569 C568 1.334 . S
C569 C570 1.287 1_565 S
C570 C569 1.287 1_545 S
C570 C571 1.524 . S
C570 H589 0.913 . S
C571 H547 0.950 . S
C571 C570 1.524 . S
C571 C572 1.415 . S
C572 H548 0.950 . S
C572 C567 1.363 . S
C572 C571 1.415 . S
C573 H549 0.951 . S
C573 C574 1.383 . S
C573 C575 1.388 . S
C574 C573 1.383 . S
C574 C578 1.369 1_465 S
C575 H550 0.951 . S
C575 C573 1.388 . S
C575 C576 1.366 1_565 S
C576 C575 1.366 1_545 S
C576 C577 1.414 1_455 S
C576 C579 1.499 . S
C577 H551 0.950 . S
C577 C576 1.414 1_655 S
C577 C578 1.374 . S
C578 H552 0.950 . S
C578 C574 1.369 1_645 S
C578 C577 1.374 . S
C579 C576 1.499 . S
C579 C580 1.373 1_455 S
C579 C581 1.389 1_545 S
C580 H553 0.950 . S
C580 C566 1.377 . S
C580 C579 1.373 1_655 S
C581 C565 1.377 . S
C581 C579 1.389 1_565 S
C581 C582 1.524 . S
C582 C581 1.524 . S
C582 C583 1.397 1_565 S
C582 C587 1.363 . S
C583 H554 0.950 . S
C583 C582 1.397 1_545 S
C583 C584 1.334 . S
C584 H555 0.950 . S
C584 C583 1.334 . S
C584 C585 1.287 1_545 S
C585 C584 1.287 1_565 S
C585 C586 1.524 . S
C585 H588 0.999 . S
C586 H556 0.950 . S
C586 C585 1.524 . S
C586 C587 1.415 . S
C587 H557 0.950 . S
C587 C582 1.363 . S
C587 C586 1.415 . S
H588 C585 0.999 . S
H589 C570 0.913 . S
H590 C608 0.951 . S
H591 C610 0.951 . S
H592 C612 0.950 . S
H593 C613 0.950 . S
H594 C615 0.950 . S
H595 C618 0.950 . S
H596 C619 0.950 . S
H597 C621 0.950 . S
H598 C622 0.950 . S
H599 C623 0.951 . S
H600 C625 0.951 . S
H601 C627 0.950 . S
H602 C628 0.950 . S
H603 C630 0.950 . S
H604 C633 0.950 . S
H605 C634 0.950 . S
H606 C636 0.950 . S
H607 C637 0.950 . S
C608 H590 0.951 . S
C608 C609 1.366 . S
C608 C610 1.388 . S
C609 C608 1.366 . S
C609 C613 1.385 . S
C610 H591 0.951 . S
C610 C608 1.388 . S
C610 C611 1.366 . S
C611 C610 1.366 . S
C611 C612 1.414 . S
C611 C614 1.499 . S
C612 H592 0.950 . S
C612 C611 1.414 . S
C612 C613 1.374 . S
C613 H593 0.950 . S
C613 C609 1.385 . S
C613 C612 1.374 . S
C614 C611 1.499 . S
C614 C615 1.373 . S
C614 C616 1.389 . S
C615 H594 0.950 . S
C615 C614 1.373 . S
C615 C631 1.377 . S
C616 C614 1.389 . S
C616 C617 1.524 . S
C616 C630 1.377 . S
C617 C616 1.524 . S
C617 C618 1.397 . S
C617 C622 1.363 . S
C618 H595 0.950 . S
C618 C617 1.397 . S
C618 C619 1.334 . S
C619 H596 0.950 . S
C619 C618 1.334 . S
C619 C620 1.287 . S
C620 C619 1.287 . S
C620 C621 1.524 . S
C620 H639 0.913 . S
C621 H597 0.950 . S
C621 C620 1.524 . S
C621 C622 1.415 . S
C622 H598 0.950 . S
C622 C617 1.363 . S
C622 C621 1.415 . S
C623 H599 0.951 . S
C623 C624 1.366 . S
C623 C625 1.388 . S
C624 C623 1.366 . S
C624 C628 1.385 . S
C625 H600 0.951 . S
C625 C623 1.388 . S
C625 C626 1.366 . S
C626 C625 1.366 . S
C626 C627 1.414 . S
C626 C629 1.499 . S
C627 H601 0.950 . S
C627 C626 1.414 . S
C627 C628 1.374 . S
C628 H602 0.950 . S
C628 C624 1.385 . S
C628 C627 1.374 . S
C629 C626 1.499 . S
C629 C630 1.373 . S
C629 C631 1.389 . S
C630 H603 0.950 . S
C630 C616 1.377 . S
C630 C629 1.373 . S
C631 C615 1.377 . S
C631 C629 1.389 . S
C631 C632 1.524 . S
C632 C631 1.524 . S
C632 C633 1.397 . S
C632 C637 1.363 . S
C633 H604 0.950 . S
C633 C632 1.397 . S
C633 C634 1.334 . S
C634 H605 0.950 . S
C634 C633 1.334 . S
C634 C635 1.287 . S
C635 C634 1.287 . S
C635 C636 1.524 . S
C635 H638 0.999 . S
C636 H606 0.950 . S
C636 C635 1.524 . S
C636 C637 1.415 . S
C637 H607 0.950 . S
C637 C632 1.363 . S
C637 C636 1.415 . S
H638 C635 0.999 . S
H639 C620 0.913 . S
H640 C658 0.951 . S
H641 C660 0.951 . S
H642 C662 0.950 . S
H643 C663 0.950 . S
H644 C665 0.950 . S
H645 C668 0.950 . S
H646 C669 0.950 . S
H647 C671 0.950 . S
H648 C672 0.950 . S
H649 C673 0.951 . S
H650 C675 0.951 . S
H651 C677 0.950 . S
H652 C678 0.950 . S
H653 C680 0.950 . S
H654 C683 0.950 . S
H655 C684 0.950 . S
H656 C686 0.950 . S
H657 C687 0.950 . S
C658 H640 0.951 . S
C658 C659 1.366 . S
C658 C660 1.388 . S
C659 C658 1.366 . S
C659 C663 1.385 . S
C660 H641 0.951 . S
C660 C658 1.388 . S
C660 C661 1.366 . S
C661 C660 1.366 . S
C661 C662 1.414 . S
C661 C664 1.499 . S
C662 H642 0.950 . S
C662 C661 1.414 . S
C662 C663 1.374 . S
C663 H643 0.950 . S
C663 C659 1.385 . S
C663 C662 1.374 . S
C664 C661 1.499 . S
C664 C665 1.373 . S
C664 C666 1.389 . S
C665 H644 0.950 . S
C665 C664 1.373 . S
C665 C681 1.377 . S
C666 C664 1.389 . S
C666 C667 1.524 . S
C666 C680 1.377 . S
C667 C666 1.524 . S
C667 C668 1.397 . S
C667 C672 1.363 . S
C668 H645 0.950 . S
C668 C667 1.397 . S
C668 C669 1.334 . S
C669 H646 0.950 . S
C669 C668 1.334 . S
C669 C670 1.287 . S
C670 C669 1.287 . S
C670 C671 1.524 . S
C670 H689 0.913 . S
C671 H647 0.950 . S
C671 C670 1.524 . S
C671 C672 1.415 . S
C672 H648 0.950 . S
C672 C667 1.363 . S
C672 C671 1.415 . S
C673 H649 0.951 . S
C673 C674 1.366 . S
C673 C675 1.388 . S
C674 C673 1.366 . S
C674 C678 1.385 . S
C675 H650 0.951 . S
C675 C673 1.388 . S
C675 C676 1.366 . S
C676 C675 1.366 . S
C676 C677 1.414 . S
C676 C679 1.499 . S
C677 H651 0.950 . S
C677 C676 1.414 . S
C677 C678 1.374 . S
C678 H652 0.950 . S
C678 C674 1.385 . S
C678 C677 1.374 . S
C679 C676 1.499 . S
C679 C680 1.373 . S
C679 C681 1.389 . S
C680 H653 0.950 . S
C680 C666 1.377 . S
C680 C679 1.373 . S
C681 C665 1.377 . S
C681 C679 1.389 . S
C681 C682 1.524 . S
C682 C681 1.524 . S
C682 C683 1.397 . S
C682 C687 1.363 . S
C683 H654 0.950 . S
C683 C682 1.397 . S
C683 C684 1.334 . S
C684 H655 0.950 . S
C684 C683 1.334 . S
C684 C685 1.287 . S
C685 C684 1.287 . S
C685 C686 1.524 . S
C685 H688 0.999 . S
C686 H656 0.950 . S
C686 C685 1.524 . S
C686 C687 1.415 . S
C687 H657 0.950 . S
C687 C682 1.363 . S
C687 C686 1.415 . S
H688 C685 0.999 . S
H689 C670 0.913 . S
C124 C84 1.319 . S
C109 C21 1.507 . S
C159 C19 1.500 . S
C174 C73 1.304 . S
C209 C18 1.379 . S
C224 C87 1.378 . S
C259 C20 1.387 1_556 S
C274 C76 1.385 . S
C309 C44 1.507 . S
C324 C62 1.320 . S
C359 C42 1.499 . S
C374 C51 1.302 . S
C424 C65 1.378 . S
C409 C41 1.379 . S
C474 C54 1.385 . S
C459 C43 1.394 . S
C509 C16 1.519 . S
C524 C53 1.462 . S
C559 C17 1.483 . S
C574 C64 1.429 1_565 S
C624 C75 1.463 . S
C609 C39 1.519 . S
C659 C40 1.483 . S
C674 C86 1.431 . S
