# Generated by pormake.
# Topology nia, (6,6)-cn, num edge types: 1
# Building blocks:
#     Node 0, Type 0, BuildingBlock: KUMJIN_clean_sbu_0, # of connection points: 6
#     Node 1, Type 0, BuildingBlock: KUMJIN_clean_sbu_0, # of connection points: 6
#     Node 2, Type 1, BuildingBlock: MIDCAF_clean_sbu_0, # of connection points: 6
#     Node 3, Type 1, BuildingBlock: MIDCAF_clean_sbu_0, # of connection points: 6
#     Edge 4, Type (0, 1), BuildingBlock: XIVTED_clean_linker_0, # of connection points: 2
#     Edge 5, Type (0, 1), BuildingBlock: XIVTED_clean_linker_0, # of connection points: 2
#     Edge 6, Type (0, 1), BuildingBlock: XIVTED_clean_linker_0, # of connection points: 2
#     Edge 7, Type (0, 1), BuildingBlock: XIVTED_clean_linker_0, # of connection points: 2
#     Edge 8, Type (0, 1), BuildingBlock: XIVTED_clean_linker_0, # of connection points: 2
#     Edge 9, Type (0, 1), BuildingBlock: XIVTED_clean_linker_0, # of connection points: 2
#     Edge 10, Type (0, 1), BuildingBlock: XIVTED_clean_linker_0, # of connection points: 2
#     Edge 11, Type (0, 1), BuildingBlock: XIVTED_clean_linker_0, # of connection points: 2
#     Edge 12, Type (0, 1), BuildingBlock: XIVTED_clean_linker_0, # of connection points: 2
#     Edge 13, Type (0, 1), BuildingBlock: XIVTED_clean_linker_0, # of connection points: 2
#     Edge 14, Type (0, 1), BuildingBlock: XIVTED_clean_linker_0, # of connection points: 2
#     Edge 15, Type (0, 1), BuildingBlock: XIVTED_clean_linker_0, # of connection points: 2
# Relax obj value: 0.169
# Max RMSD: 0.286
# Mean RMSD: 0.204
data_MOF--net-nia--node1-KUMJIN_clean_sbu_0--node2-MIDCAF_clean_sbu_0--edge1-XIVTED_clean_linker_0
_symmetry_space_group_name_H-M    P1
_symmetry_Int_Tables_number       1
_symmetry_cell_setting            triclinic
loop_
_symmetry_equiv_pos_as_xyz
'x, y, z'
_cell_length_a     28.451402
_cell_length_b     28.72328
_cell_length_c     33.307772
_cell_angle_alpha  89.89842
_cell_angle_beta   90.069537
_cell_angle_gamma 139.3442
loop_
_atom_site_label
_atom_site_type_symbol
_atom_site_fract_x
_atom_site_fract_y
_atom_site_fract_z
_atom_type_partial_charge
Eu0 Eu -0.00087 0.96301 0.05038 0.0
C1 C 0.0197 0.0124 0.86602 0.0
C2 C 0.14664 0.12005 0.85285 0.0
C3 C 0.07177 0.02592 0.80279 0.0
C4 C 0.08673 0.07744 0.87893 0.0
C5 C 0.01092 0.98721 0.82716 0.0
C6 C 0.13952 0.09263 0.81547 0.0
C7 C 0.88191 0.89461 0.83677 0.0
N8 N 0.96195 0.97754 0.88988 0.0
C9 C 0.89349 0.92237 0.87485 0.0
C10 C 0.94094 0.92613 0.81317 0.0
Eu11 Eu 0.98568 0.02413 0.9554 0.0
N12 N 0.09169 0.10232 0.91527 0.0
C13 C 0.15335 0.1717 0.92575 0.0
C14 C 0.21099 0.18997 0.86439 0.0
C15 C 0.21386 0.21632 0.90065 0.0
H16 H 0.84783 0.89779 0.89323 0.0
H17 H 0.26293 0.27081 0.9095 0.0
H18 H 0.18543 0.12373 0.79554 0.0
H19 H 0.82755 0.84901 0.82566 0.0
H20 H 0.15675 0.19293 0.95369 0.0
H21 H 0.72053 0.70115 0.0795 0.0
H22 H 0.2581 0.22452 0.84514 0.0
H23 H 0.12119 0.09208 0.11753 0.0
H24 H 0.833 0.79143 0.04074 0.0
H25 H 0.12363 0.12946 0.18525 0.0
H26 H 0.06654 0.00636 0.77337 0.0
H27 H 0.71007 0.73244 0.14524 0.0
H28 H 0.76723 0.82407 0.19901 0.0
H29 H 0.93188 0.905 0.78353 0.0
H30 H 0.8761 0.94258 0.22676 0.0
N31 N 0.88636 0.87426 0.08369 0.0
C32 C 0.82953 0.80638 0.06922 0.0
C33 C 0.75968 0.7727 0.12824 0.0
C34 C 0.8185 0.84187 0.14333 0.0
C35 C 0.76548 0.75474 0.09121 0.0
C36 C 0.88231 0.89201 0.12027 0.0
H37 H 0.00953 0.05675 0.22201 0.0
N38 N 0.0067 0.0018 0.11545 0.0
C39 C 0.07272 0.08157 0.1717 0.0
C40 C 0.94401 0.95844 0.13625 0.0
C41 C 0.07121 0.06026 0.13355 0.0
C42 C 0.00814 0.04054 0.19226 0.0
C43 C 0.94301 0.97676 0.17526 0.0
O44 O 0.08139 0.98099 0.07859 0.0
O45 O 0.04293 0.01036 0.98919 0.0
O46 O 0.94954 0.92469 0.93958 0.0
O47 O 0.94036 0.87743 0.00097 0.0
O48 O 0.11802 0.05429 0.03415 0.0
O49 O 0.97715 0.8733 0.06386 0.0
O50 O 0.90758 0.01689 0.93385 0.0
O51 O 0.94307 0.97612 0.01601 0.0
O52 O 0.02437 0.0572 0.06433 0.0
O53 O 0.06032 0.11386 0.00207 0.0
O54 O 0.86718 0.93907 0.97493 0.0
O55 O 0.01729 0.12044 0.9458 0.0
C56 C 0.1093 0.05581 0.99635 0.0
C57 C 0.03605 0.88858 0.12199 0.0
C58 C 0.07353 0.85466 0.16802 0.0
C59 C 0.07485 0.8766 0.12955 0.0
C60 C 0.0338 0.84631 0.19885 0.0
C61 C -0.0047 0.87769 0.15305 0.0
C62 C -0.00523 0.85749 0.19126 0.0
C63 C 0.93057 0.87407 0.96148 0.0
C64 C 0.03885 0.91301 0.08195 0.0
C65 C 0.8781 0.92906 0.19697 0.0
C66 C 0.81614 0.8615 0.18119 0.0
C67 C 0.87702 0.93448 0.01183 0.0
C68 C 0.95745 0.11124 0.89101 0.0
C69 C 0.91745 0.12208 0.8843 0.0
C70 C 0.91836 0.14465 0.84626 0.0
C71 C 0.95841 0.15435 0.81499 0.0
C72 C -0.00173 0.12319 0.85949 0.0
C73 C -0.00177 0.14392 0.8217 0.0
C74 C 0.05712 0.11341 0.04189 0.0
C75 C 0.95526 0.08581 0.93036 0.0
H76 H 0.10488 0.88321 0.10529 0.0
H77 H 0.03302 0.83138 0.22894 0.0
H78 H 0.96364 0.88445 0.14788 0.0
H79 H 0.96382 0.85032 0.21507 0.0
H80 H 0.88687 0.11415 0.90879 0.0
H81 H 0.95891 0.16988 0.78519 0.0
H82 H 0.0303 0.11661 0.86396 0.0
H83 H 0.02934 0.15208 0.79754 0.0
Eu84 Eu 0.0032 0.04439 0.54003 0.0
C85 C 0.0049 0.97168 0.36066 0.0
C86 C 0.87997 0.86684 0.34129 0.0
C87 C 0.97111 0.94842 0.29011 0.0
C88 C 0.93349 0.91064 0.37129 0.0
C89 C 0.02461 0.99053 0.31988 0.0
C90 C 0.89891 0.88696 0.30078 0.0
C91 C 0.14954 0.08682 0.34062 0.0
N92 N 0.05573 0.01025 0.39002 0.0
C93 C 0.12749 0.06562 0.38059 0.0
C94 C 0.09783 0.04955 0.31015 0.0
Eu95 Eu 0.01483 0.96658 0.45631 0.0
N96 N 0.91725 0.89091 0.41057 0.0
C97 C 0.84988 0.82565 0.42141 0.0
C98 C 0.80966 0.80218 0.35269 0.0
C99 C 0.79485 0.78101 0.39285 0.0
H100 H 0.16756 0.09404 0.40411 0.0
H101 H 0.7411 0.7302 0.40183 0.0
H102 H 0.85853 0.85396 0.27738 0.0
H103 H 0.20634 0.13158 0.33334 0.0
H104 H 0.83794 0.80818 0.45226 0.0
H105 H 0.29071 0.30158 0.55225 0.0
H106 H 0.76705 0.76717 0.33058 0.0
H107 H 0.8846 0.93527 0.61404 0.0
H108 H 0.17417 0.20594 0.5181 0.0
H109 H 0.88477 0.91882 0.68695 0.0
H110 H 0.98531 0.96157 0.25867 0.0
H111 H 0.30302 0.2883 0.62356 0.0
H112 H 0.24497 0.21588 0.68682 0.0
H113 H 0.11506 0.06567 0.27917 0.0
H114 H 0.13488 0.11128 0.72326 0.0
N115 N 0.11966 0.13741 0.56927 0.0
C116 C 0.178 0.19875 0.54917 0.0
C117 C 0.25136 0.24573 0.6087 0.0
C118 C 0.19105 0.18385 0.62953 0.0
C119 C 0.24457 0.2535 0.56848 0.0
C120 C 0.12487 0.13001 0.60884 0.0
H121 H 0.00016 0.0012 0.72378 0.0
N122 N -0.00097 0.02319 0.60946 0.0
C123 C 0.93524 0.96143 0.67111 0.0
C124 C 0.06275 0.07106 0.62947 0.0
C125 C 0.93536 0.97086 0.62993 0.0
C126 C 0.00057 0.00787 0.69175 0.0
C127 C 0.06532 0.06433 0.67118 0.0
O128 O 0.92888 0.0395 0.56637 0.0
O129 O 0.9594 0.98751 0.48159 0.0
O130 O 0.04401 0.05788 0.42893 0.0
O131 O 0.06132 0.11912 0.48492 0.0
O132 O 0.88447 0.95586 0.52238 0.0
O133 O 0.02872 0.1377 0.53919 0.0
O134 O 0.0864 0.96113 0.44537 0.0
O135 O 0.05483 0.01934 0.51597 0.0
O136 O 0.96238 0.94403 0.56305 0.0
O137 O 0.93276 0.88229 0.50383 0.0
O138 O 0.13179 0.05065 0.47833 0.0
O139 O 0.97187 0.86354 0.45429 0.0
C140 C 0.89345 0.94657 0.48656 0.0
C141 C 0.98816 0.14811 0.59665 0.0
C142 C 0.95689 0.18888 0.64167 0.0
C143 C 0.9415 0.14958 0.60768 0.0
C144 C 0.01751 0.22355 0.66532 0.0
C145 C 0.05013 0.18645 0.61978 0.0
C146 C 0.06388 0.22257 0.65425 0.0
C147 C 0.06535 0.11336 0.44568 0.0
C148 C 0.97298 0.10753 0.56101 0.0
C149 C 0.13177 0.1158 0.69134 0.0
C150 C 0.19447 0.17547 0.67058 0.0
C151 C 0.12036 0.05812 0.51383 0.0
C152 C 0.03181 0.86197 0.40556 0.0
C153 C 0.08833 0.87309 0.39771 0.0
C154 C 0.08925 0.84731 0.36204 0.0
C155 C 0.03377 0.81211 0.33376 0.0
C156 C 0.97593 0.82459 0.37731 0.0
C157 C 0.97761 0.80092 0.34146 0.0
C158 C 0.9305 0.88559 0.54349 0.0
C159 C 0.03309 0.89158 0.44248 0.0
H160 H 0.89487 0.12218 0.58918 0.0
H161 H 0.02972 0.25236 0.69221 0.0
H162 H 0.08869 0.18952 0.61104 0.0
H163 H 0.11132 0.25084 0.67212 0.0
H164 H 0.13143 0.90168 0.41947 0.0
H165 H 0.0322 0.7908 0.30631 0.0
H166 H 0.93066 0.81324 0.38281 0.0
H167 H 0.9345 0.77267 0.31982 0.0
Zn168 Zn 0.38865 0.70796 0.18059 0.0
Zn169 Zn 0.35404 0.65888 0.32139 0.0
Zn170 Zn 0.37092 0.67488 0.25122 0.0
C171 C 0.48618 0.71748 0.30901 0.0
C172 C 0.24976 0.5239 0.296 0.0
O173 O 0.32758 0.71396 0.23608 0.0
O174 O 0.33296 0.72224 0.1699 0.0
C175 C 0.52286 0.78945 0.20313 0.0
O176 O 0.47729 0.73192 0.27524 0.0
O177 O 0.43486 0.67738 0.33382 0.0
O178 O 0.25764 0.55827 0.32443 0.0
O179 O 0.29096 0.55824 0.26489 0.0
O180 O 0.4941 0.79361 0.17704 0.0
O181 O 0.48458 0.74506 0.23257 0.0
O182 O 0.30263 0.57083 0.22177 0.0
O183 O 0.34657 0.61683 0.16127 0.0
C184 C 0.30763 0.56344 0.18446 0.0
O185 O 0.34282 0.72432 0.27686 0.0
O186 O 0.36191 0.7286 0.3416 0.0
C187 C 0.3138 0.72528 0.20284 0.0
C188 C 0.34752 0.74465 0.31279 0.0
Zn189 Zn 0.64709 0.33211 0.82388 0.0
Zn190 Zn 0.60666 0.29241 0.6797 0.0
Zn191 Zn 0.62854 0.32617 0.75261 0.0
C192 C 0.68954 0.43986 0.6884 0.0
C193 C 0.47306 0.21274 0.70667 0.0
O194 O 0.67002 0.28733 0.77275 0.0
O195 O 0.64564 0.26407 0.83756 0.0
C196 C 0.74639 0.47146 0.80045 0.0
O197 O 0.69113 0.43062 0.72596 0.0
O198 O 0.65594 0.38856 0.66417 0.0
O199 O 0.50116 0.21328 0.67723 0.0
O200 O 0.5121 0.25286 0.7374 0.0
O201 O 0.74123 0.43541 0.82615 0.0
O202 O 0.70415 0.43971 0.76968 0.0
O203 O 0.52196 0.26292 0.78014 0.0
O204 O 0.5639 0.30664 0.84114 0.0
C205 C 0.5127 0.27053 0.81634 0.0
O206 O 0.67359 0.29089 0.73086 0.0
O207 O 0.65339 0.26881 0.66562 0.0
C208 C 0.66793 0.26204 0.80578 0.0
C209 C 0.6798 0.27266 0.69757 0.0
H210 H 0.20571 0.92624 0.1394 0.0
H211 H 0.20126 0.67373 0.24866 0.0
H212 H 0.03061 0.74885 0.21539 0.0
H213 H 0.34982 0.82444 0.15485 0.0
H214 H 0.14493 0.70892 0.24355 0.0
H215 H 0.2664 0.89777 0.15114 0.0
C216 C 0.17977 0.8811 0.1584 0.0
C217 C 0.11247 0.83954 0.17604 0.0
C218 C 0.18992 0.73423 0.22416 0.0
C219 C 0.1824 0.80715 0.19015 0.0
C220 C 0.22202 0.71433 0.22718 0.0
C221 C 0.28015 0.74645 0.20219 0.0
C222 C 0.21638 0.78642 0.19594 0.0
C223 C 0.30498 0.79838 0.17462 0.0
C224 C 0.21472 0.86512 0.16532 0.0
C225 C 0.08261 0.7828 0.20132 0.0
N226 N 0.27309 0.81679 0.17228 0.0
N227 N 0.11762 0.76813 0.20749 0.0
H228 H 0.0749 0.9795 0.58212 0.0
H229 H 0.44433 0.28241 0.6977 0.0
H230 H 0.26599 0.17487 0.52342 0.0
H231 H 0.34532 0.07251 0.69303 0.0
H232 H 0.34943 0.24112 0.65326 0.0
H233 H 0.14874 0.01171 0.64008 0.0
C234 C 0.13215 0.02962 0.58168 0.0
C235 C 0.16425 0.07601 0.54858 0.0
C236 C 0.34703 0.2035 0.66339 0.0
C237 C 0.2481 0.11278 0.61454 0.0
C238 C 0.40015 0.22649 0.68935 0.0
C239 C 0.40207 0.18049 0.69929 0.0
C240 C 0.29463 0.1336 0.64834 0.0
C241 C 0.34498 0.10918 0.68642 0.0
C242 C 0.17403 0.04762 0.61462 0.0
C243 C 0.23915 0.13862 0.54877 0.0
N244 N 0.2937 0.08789 0.6612 0.0
N245 N 0.27854 0.15591 0.5816 0.0
H246 H 0.16657 0.25131 0.01469 0.0
H247 H 0.18558 0.42554 0.21166 0.0
H248 H 0.02678 0.12498 0.1167 0.0
H249 H 0.34375 0.54459 0.11658 0.0
H250 H 0.12299 0.31388 0.1778 0.0
H251 H 0.22693 0.35924 0.051 0.0
C252 C 0.14847 0.24624 0.0447 0.0
C253 C 0.09224 0.17911 0.06285 0.0
C254 C 0.17169 0.36463 0.16461 0.0
C255 C 0.16119 0.30261 0.10484 0.0
C256 C 0.20768 0.4282 0.18413 0.0
C257 C 0.27013 0.49444 0.1671 0.0
C258 C 0.19825 0.36779 0.12775 0.0
C259 C 0.2955 0.49485 0.13077 0.0
C260 C 0.18319 0.30794 0.06558 0.0
C261 C 0.07098 0.17584 0.10188 0.0
N262 N 0.25945 0.43279 0.11236 0.0
N263 N 0.10547 0.23671 0.12161 0.0
H264 H 0.80878 0.08785 0.63967 0.0
H265 H 0.82347 0.36694 0.70664 0.0
H266 H 0.00478 0.30986 0.66682 0.0
H267 H 0.625 0.14576 0.6814 0.0
H268 H 0.89 0.34431 0.69605 0.0
H269 H 0.73919 0.1053 0.6573 0.0
C270 C 0.83717 0.14019 0.64922 0.0
C271 C 0.91277 0.19735 0.65189 0.0
C272 C 0.83182 0.30035 0.69321 0.0
C273 C 0.83364 0.21758 0.67239 0.0
C274 C 0.79402 0.3133 0.69955 0.0
C275 C 0.71894 0.25771 0.69578 0.0
C276 C 0.79421 0.23153 0.68215 0.0
C277 C 0.68301 0.18958 0.68525 0.0
C278 C 0.79744 0.15002 0.65955 0.0
C279 C 0.94661 0.26386 0.6649 0.0
N280 N 0.72098 0.1783 0.67873 0.0
N281 N 0.90692 0.27208 0.67456 0.0
H282 H 0.9124 0.02329 0.07031 0.0
H283 H 0.55052 0.71872 0.19372 0.0
H284 H 0.73429 0.80899 0.02484 0.0
H285 H 0.64776 0.92747 0.18292 0.0
H286 H 0.64227 0.7565 0.14799 0.0
H287 H 0.83635 -0.00691 0.12574 0.0
C288 C 0.85772 0.96949 0.07245 0.0
C289 C 0.83042 0.91733 0.04421 0.0
C290 C 0.64481 0.79464 0.15678 0.0
C291 C 0.74328 0.8831 0.10692 0.0
C292 C 0.59352 0.77368 0.18345 0.0
C293 C 0.59218 0.82037 0.1922 0.0
C294 C 0.69601 0.86326 0.13985 0.0
C295 C 0.64768 0.89033 0.1771 0.0
C296 C 0.81429 0.95265 0.10379 0.0
C297 C 0.75772 0.84988 0.04679 0.0
N298 N 0.69738 0.90972 0.15139 0.0
N299 N 0.71677 0.83412 0.07814 0.0
H300 H 0.82854 0.74805 0.51682 0.0
H301 H 0.79471 0.5768 0.72152 0.0
H302 H 0.94482 0.87476 0.62379 0.0
H303 H 0.66177 0.45841 0.61633 0.0
H304 H 0.85175 0.68744 0.68854 0.0
H305 H 0.7689 0.6419 0.55456 0.0
C306 C 0.84134 0.75356 0.54836 0.0
C307 C 0.89153 0.82048 0.56712 0.0
C308 C 0.80976 0.63692 0.67297 0.0
C309 C 0.82336 0.69835 0.61092 0.0
C310 C 0.77709 0.57388 0.69184 0.0
C311 C 0.72372 0.50816 0.67165 0.0
C312 C 0.78869 0.63372 0.63378 0.0
C313 C 0.70331 0.50764 0.63305 0.0
C314 C 0.80708 0.69272 0.57005 0.0
C315 C 0.90574 0.82405 0.60822 0.0
N316 N 0.73586 0.56906 0.61551 0.0
N317 N 0.87213 0.76385 0.62874 0.0
H318 H 0.15844 0.87467 0.29173 0.0
H319 H 0.28543 0.72883 0.3812 0.0
H320 H 0.14428 0.82807 0.41744 0.0
H321 H 0.36382 0.83652 0.26679 0.0
H322 H 0.23719 0.76949 0.39483 0.0
H323 H 0.23546 0.86431 0.28092 0.0
C324 C 0.17214 0.8631 0.31715 0.0
C325 C 0.14425 0.85167 0.35558 0.0
C326 C 0.26513 0.78469 0.36672 0.0
C327 C 0.23241 0.84003 0.34332 0.0
C328 C 0.29287 0.76152 0.35892 0.0
C329 C 0.3263 0.7771 0.32207 0.0
C330 C 0.27023 0.82348 0.33739 0.0
C331 C 0.33525 0.8205 0.29468 0.0
C332 C 0.21648 0.85768 0.31095 0.0
C333 C 0.16473 0.83787 0.3874 0.0
N334 N 0.30614 0.84125 0.30253 0.0
N335 N 0.20673 0.8316 0.38045 0.0
H336 H 0.25071 0.18367 0.99978 0.0
H337 H 0.37352 0.13311 0.80606 0.0
H338 H 0.09542 -0.00722 0.92804 0.0
H339 H 0.49777 0.33508 0.86241 0.0
H340 H 0.26944 0.07657 0.84857 0.0
H341 H 0.34423 0.23473 0.95092 0.0
C342 C 0.23652 0.15276 0.97353 0.0
C343 C 0.16517 0.08554 0.96685 0.0
C344 C 0.31925 0.13348 0.85099 0.0
C345 C 0.27172 0.1426 0.91103 0.0
C346 C 0.37809 0.16576 0.82643 0.0
C347 C 0.44419 0.23858 0.83114 0.0
C348 C 0.32767 0.17463 0.88034 0.0
C349 C 0.44787 0.27857 0.85821 0.0
C350 C 0.28968 0.1818 0.94555 0.0
C351 C 0.14964 0.04618 0.93322 0.0
N352 N 0.39097 0.246 0.88208 0.0
N353 N 0.20256 0.07546 0.90628 0.0
H354 H 0.08188 0.12306 0.36356 0.0
H355 H 0.26567 0.4465 0.26756 0.0
H356 H 0.09925 0.22939 0.4646 0.0
H357 H 0.13447 0.43228 0.34587 0.0
H358 H 0.2148 0.3382 0.29909 0.0
H359 H 0.11734 0.21299 0.31886 0.0
C360 C 0.09429 0.16579 0.3766 0.0
C361 C 0.08921 0.16924 0.4183 0.0
C362 C 0.19563 0.35768 0.30845 0.0
C363 C 0.1275 0.27122 0.36676 0.0
C364 C 0.22406 0.41903 0.29016 0.0
C365 C 0.20422 0.44842 0.30407 0.0
C366 C 0.14827 0.32679 0.34122 0.0
C367 C 0.15154 0.41165 0.33433 0.0
C368 C 0.11419 0.21696 0.35086 0.0
C369 C 0.10334 0.22478 0.43288 0.0
N370 N 0.12681 0.35392 0.35254 0.0
N371 N 0.12127 0.27317 0.40711 0.0
H372 H 0.96378 0.25378 0.80223 0.0
H373 H 0.60826 0.13923 0.83913 0.0
H374 H 0.7839 0.07018 0.87332 0.0
H375 H 0.79993 0.33421 0.78093 0.0
H376 H 0.66653 0.10671 0.84752 0.0
H377 H 0.89901 0.27714 0.7889 0.0
C378 C 0.91041 0.21804 0.81492 0.0
C379 C 0.87927 0.15973 0.83891 0.0
C380 C 0.69545 0.15608 0.83232 0.0
C381 C 0.80505 0.18722 0.8243 0.0
C382 C 0.66217 0.17441 0.82745 0.0
C383 C 0.69876 0.23815 0.80795 0.0
C384 C 0.76609 0.20252 0.81806 0.0
C385 C 0.76897 0.283 0.79428 0.0
C386 C 0.8736 0.23176 0.80748 0.0
C387 C 0.81043 0.11621 0.85508 0.0
N388 N 0.80041 0.26437 0.79954 0.0
N389 N 0.7756 0.13085 0.84749 0.0
H390 H 0.91497 -0.0014 0.41085 0.0
H391 H 0.50339 0.65107 0.35091 0.0
H392 H 0.75007 0.82309 0.4906 0.0
H393 H 0.625 0.85466 0.29769 0.0
H394 H 0.6094 0.70789 0.38937 0.0
H395 H 0.8223 0.94244 0.35906 0.0
C396 C 0.85944 0.94793 0.41724 0.0
C397 C 0.83999 0.91415 0.45456 0.0
C398 C 0.61338 0.74008 0.36885 0.0
C399 C 0.73478 0.85047 0.39596 0.0
C400 C 0.55318 0.70765 0.34661 0.0
C401 C 0.5553 0.74854 0.3216 0.0
C402 C 0.67637 0.81419 0.36636 0.0
C403 C 0.62131 0.82146 0.31681 0.0
C404 C 0.80679 0.91632 0.38785 0.0
C405 C 0.76719 0.85002 0.46196 0.0
N406 N 0.67936 0.85253 0.33966 0.0
N407 N 0.71738 0.81983 0.43276 0.0
H408 H 0.81998 0.7924 0.9082 0.0
H409 H 0.8723 0.56654 0.84207 0.0
H410 H 0.97568 0.8173 0.96208 0.0
H411 H 0.71566 0.54061 0.78827 0.0
H412 H 0.92018 0.66779 0.88061 0.0
H413 H 0.78603 0.70543 0.86118 0.0
C414 C 0.84683 0.77922 0.91011 0.0
C415 C 0.90091 0.8122 0.93877 0.0
C416 C 0.87623 0.64097 0.85986 0.0
C417 C 0.86251 0.71265 0.88513 0.0
C418 C 0.84949 0.58373 0.83743 0.0
C419 C 0.78987 0.54509 0.81196 0.0
C420 C 0.84267 0.65942 0.85718 0.0
C421 C 0.76203 0.56926 0.80731 0.0
C422 C 0.82751 0.72963 0.88327 0.0
C423 C 0.93306 0.79229 0.94068 0.0
N424 N 0.78791 0.6242 0.83024 0.0
N425 N 0.91355 0.74393 0.91407 0.0
loop_
_geom_bond_atom_site_label_1
_geom_bond_atom_site_label_2
_geom_bond_distance
_geom_bond_site_symmetry_2
_ccdc_geom_bond_type
Eu0 N31 2.657 1_455 S
Eu0 N38 2.609 . S
Eu0 O44 2.558 1_565 S
Eu0 O45 2.612 1_564 S
Eu0 O47 2.339 1_454 S
Eu0 O48 2.563 1_565 S
Eu0 O49 2.419 . S
Eu0 O51 2.380 1_455 S
Eu0 O52 2.432 1_565 S
Eu0 C64 2.848 . S
C1 C4 1.429 . S
C1 C5 1.411 . S
C1 N8 1.377 1_455 S
C2 C4 1.420 . S
C2 C6 1.423 . S
C2 C14 1.392 . S
C3 C5 1.420 . S
C3 C6 1.351 . S
C3 H26 0.931 . S
C4 C1 1.429 . S
C4 C2 1.420 . S
C4 N12 1.362 . S
C5 C1 1.411 . S
C5 C3 1.420 . S
C5 C10 1.395 1_455 S
C6 C2 1.423 . S
C6 C3 1.351 . S
C6 H18 0.930 . S
C7 C9 1.400 . S
C7 C10 1.386 1_565 S
C7 H19 0.930 . S
N8 C1 1.377 1_655 S
N8 C9 1.321 1_545 S
N8 Eu11 2.609 . S
C9 C7 1.400 . S
C9 N8 1.321 1_565 S
C9 H16 0.930 . S
C10 C5 1.395 1_655 S
C10 C7 1.386 1_545 S
C10 H29 0.930 . S
Eu11 N8 2.609 . S
Eu11 N12 2.657 1_655 S
Eu11 O45 2.380 1_655 S
Eu11 O46 2.432 1_545 S
Eu11 O50 2.558 1_545 S
Eu11 O51 2.612 1_546 S
Eu11 O53 2.339 1_656 S
Eu11 O54 2.563 1_545 S
Eu11 O55 2.419 . S
Eu11 C75 2.848 . S
N12 C4 1.362 . S
N12 Eu11 2.657 1_455 S
N12 C13 1.334 . S
C13 N12 1.334 . S
C13 C15 1.413 . S
C13 H20 0.929 . S
C14 C2 1.392 . S
C14 C15 1.367 . S
C14 H22 0.930 . S
C15 C13 1.413 . S
C15 C14 1.367 . S
C15 H17 0.930 . S
H16 C9 0.930 . S
H17 C15 0.930 . S
H18 C6 0.930 . S
H19 C7 0.930 . S
H20 C13 0.929 . S
H21 C35 0.930 . S
H22 C14 0.930 . S
H23 C41 0.930 . S
H24 C32 0.929 . S
H25 C39 0.930 . S
H26 C3 0.931 . S
H27 C33 0.930 . S
H28 C66 0.930 . S
H29 C10 0.930 . S
H30 C65 0.931 . S
N31 Eu0 2.657 1_655 S
N31 C32 1.334 . S
N31 C36 1.362 . S
C32 H24 0.929 . S
C32 N31 1.334 . S
C32 C35 1.413 . S
C33 H27 0.930 . S
C33 C34 1.392 . S
C33 C35 1.367 . S
C34 C33 1.392 . S
C34 C36 1.420 . S
C34 C66 1.423 . S
C35 H21 0.930 . S
C35 C32 1.413 . S
C35 C33 1.367 . S
C36 N31 1.362 . S
C36 C34 1.420 . S
C36 C40 1.429 . S
H37 C42 0.931 . S
N38 Eu0 2.609 . S
N38 C40 1.377 1_455 S
N38 C41 1.321 1_565 S
C39 H25 0.930 . S
C39 C41 1.400 . S
C39 C42 1.386 1_545 S
C40 C36 1.429 . S
C40 N38 1.377 1_655 S
C40 C43 1.411 . S
C41 H23 0.930 . S
C41 N38 1.321 1_545 S
C41 C39 1.400 . S
C42 H37 0.931 . S
C42 C39 1.386 1_565 S
C42 C43 1.395 1_455 S
C43 C40 1.411 . S
C43 C42 1.395 1_655 S
C43 C65 1.420 . S
O44 Eu0 2.558 1_545 S
O44 C64 1.257 1_545 S
O45 Eu0 2.612 1_546 S
O45 Eu11 2.380 1_455 S
O45 C56 1.276 . S
O46 Eu11 2.432 1_565 S
O46 C63 1.264 . S
O47 Eu0 2.339 1_656 S
O47 C63 1.254 . S
O48 Eu0 2.563 1_545 S
O48 C56 1.235 1_554 S
O49 Eu0 2.419 . S
O49 C64 1.249 . S
O50 Eu11 2.558 1_565 S
O50 C75 1.257 1_565 S
O51 Eu0 2.380 1_655 S
O51 Eu11 2.612 1_564 S
O51 C67 1.276 . S
O52 Eu0 2.432 1_545 S
O52 C74 1.264 . S
O53 Eu11 2.339 1_454 S
O53 C74 1.254 . S
O54 Eu11 2.563 1_565 S
O54 C67 1.235 1_556 S
O55 Eu11 2.419 . S
O55 C75 1.249 . S
C56 O45 1.276 . S
C56 O48 1.235 1_556 S
C57 C59 1.393 . S
C57 C61 1.395 . S
C57 C64 1.492 . S
C58 C59 1.392 . S
C58 C60 1.386 . S
C59 C57 1.393 . S
C59 C58 1.392 . S
C59 H76 0.930 . S
C60 C58 1.386 . S
C60 C62 1.395 . S
C60 H77 0.930 . S
C61 C57 1.395 . S
C61 C62 1.379 . S
C61 H78 0.930 . S
C62 C60 1.395 . S
C62 C61 1.379 . S
C62 H79 0.930 . S
C63 O46 1.264 . S
C63 O47 1.254 . S
C64 Eu0 2.848 . S
C64 O44 1.257 1_565 S
C64 O49 1.249 . S
C64 C57 1.492 . S
C65 H30 0.931 . S
C65 C43 1.420 . S
C65 C66 1.351 . S
C66 H28 0.930 . S
C66 C34 1.423 . S
C66 C65 1.351 . S
C67 O51 1.276 . S
C67 O54 1.235 1_554 S
C68 C69 1.393 . S
C68 C72 1.395 . S
C68 C75 1.492 . S
C69 C68 1.393 . S
C69 C70 1.392 . S
C69 H80 0.930 . S
C70 C69 1.392 . S
C70 C71 1.386 . S
C71 C70 1.386 . S
C71 C73 1.395 . S
C71 H81 0.930 . S
C72 C68 1.395 . S
C72 C73 1.379 . S
C72 H82 0.930 . S
C73 C71 1.395 . S
C73 C72 1.379 . S
C73 H83 0.930 . S
C74 O52 1.264 . S
C74 O53 1.254 . S
C75 Eu11 2.848 . S
C75 O50 1.257 1_545 S
C75 O55 1.249 . S
C75 C68 1.492 . S
H76 C59 0.930 . S
H77 C60 0.930 . S
H78 C61 0.930 . S
H79 C62 0.930 . S
H80 C69 0.930 . S
H81 C71 0.930 . S
H82 C72 0.930 . S
H83 C73 0.930 . S
Eu84 N115 2.657 1_655 S
Eu84 N122 2.609 1_655 S
Eu84 O128 2.558 . S
Eu84 O129 2.612 1_545 S
Eu84 O131 2.339 1_655 S
Eu84 O132 2.563 1_545 S
Eu84 O133 2.419 . S
Eu84 O135 2.380 1_655 S
Eu84 O136 2.432 1_545 S
Eu84 C148 2.848 . S
C85 C88 1.429 . S
C85 C89 1.411 . S
C85 N92 1.377 1_665 S
C86 C88 1.420 . S
C86 C90 1.423 . S
C86 C98 1.392 . S
C87 C89 1.420 . S
C87 C90 1.351 . S
C87 H110 0.931 . S
C88 C85 1.429 . S
C88 C86 1.420 . S
C88 N96 1.362 . S
C89 C85 1.411 . S
C89 C87 1.420 . S
C89 C94 1.395 1_665 S
C90 C86 1.423 . S
C90 C87 1.351 . S
C90 H102 0.930 . S
C91 C93 1.400 . S
C91 C94 1.386 . S
C91 H103 0.930 . S
N92 C85 1.377 1_445 S
N92 C93 1.321 . S
N92 Eu95 2.609 1_545 S
C93 C91 1.400 . S
C93 N92 1.321 . S
C93 H100 0.930 . S
C94 C89 1.395 1_445 S
C94 C91 1.386 . S
C94 H113 0.930 . S
Eu95 N92 2.609 1_565 S
Eu95 N96 2.657 1_455 S
Eu95 O129 2.380 1_455 S
Eu95 O130 2.432 1_565 S
Eu95 O134 2.558 1_565 S
Eu95 O135 2.612 1_565 S
Eu95 O137 2.339 1_455 S
Eu95 O138 2.563 1_565 S
Eu95 O139 2.419 . S
Eu95 C159 2.848 . S
N96 C88 1.362 . S
N96 Eu95 2.657 1_655 S
N96 C97 1.334 . S
C97 N96 1.334 . S
C97 C99 1.413 . S
C97 H104 0.929 . S
C98 C86 1.392 . S
C98 C99 1.367 . S
C98 H106 0.930 . S
C99 C97 1.413 . S
C99 C98 1.367 . S
C99 H101 0.930 . S
H100 C93 0.930 . S
H101 C99 0.930 . S
H102 C90 0.930 . S
H103 C91 0.930 . S
H104 C97 0.929 . S
H105 C119 0.930 . S
H106 C98 0.930 . S
H107 C125 0.930 . S
H108 C116 0.929 . S
H109 C123 0.930 . S
H110 C87 0.931 . S
H111 C117 0.930 . S
H112 C150 0.930 . S
H113 C94 0.930 . S
H114 C149 0.931 . S
N115 Eu84 2.657 1_455 S
N115 C116 1.334 . S
N115 C120 1.362 . S
C116 H108 0.929 . S
C116 N115 1.334 . S
C116 C119 1.413 . S
C117 H111 0.930 . S
C117 C118 1.392 . S
C117 C119 1.367 . S
C118 C117 1.392 . S
C118 C120 1.420 . S
C118 C150 1.423 . S
C119 H105 0.930 . S
C119 C116 1.413 . S
C119 C117 1.367 . S
C120 N115 1.362 . S
C120 C118 1.420 . S
C120 C124 1.429 . S
H121 C126 0.930 . S
N122 Eu84 2.609 1_455 S
N122 C124 1.377 . S
N122 C125 1.321 1_445 S
C123 H109 0.930 . S
C123 C125 1.400 . S
C123 C126 1.386 1_665 S
C124 C120 1.429 . S
C124 N122 1.377 . S
C124 C127 1.411 . S
C125 H107 0.930 . S
C125 N122 1.321 1_665 S
C125 C123 1.400 . S
C126 H121 0.930 . S
C126 C123 1.386 1_445 S
C126 C127 1.395 . S
C127 C124 1.411 . S
C127 C126 1.395 . S
C127 C149 1.420 . S
O128 Eu84 2.558 . S
O128 C148 1.257 . S
O129 Eu84 2.612 1_565 S
O129 Eu95 2.380 1_655 S
O129 C140 1.276 . S
O130 Eu95 2.432 1_545 S
O130 C147 1.264 . S
O131 Eu84 2.339 1_455 S
O131 C147 1.254 . S
O132 Eu84 2.563 1_565 S
O132 C140 1.235 . S
O133 Eu84 2.419 . S
O133 C148 1.249 . S
O134 Eu95 2.558 1_545 S
O134 C159 1.257 1_545 S
O135 Eu84 2.380 1_455 S
O135 Eu95 2.612 1_545 S
O135 C151 1.276 . S
O136 Eu84 2.432 1_565 S
O136 C158 1.264 . S
O137 Eu95 2.339 1_655 S
O137 C158 1.254 . S
O138 Eu95 2.563 1_545 S
O138 C151 1.235 . S
O139 Eu95 2.419 . S
O139 C159 1.249 . S
C140 O129 1.276 . S
C140 O132 1.235 . S
C141 C143 1.393 . S
C141 C145 1.395 . S
C141 C148 1.492 . S
C142 C143 1.392 . S
C142 C144 1.386 . S
C143 C141 1.393 . S
C143 C142 1.392 . S
C143 H160 0.930 . S
C144 C142 1.386 . S
C144 C146 1.395 . S
C144 H161 0.930 . S
C145 C141 1.395 . S
C145 C146 1.379 . S
C145 H162 0.930 . S
C146 C144 1.395 . S
C146 C145 1.379 . S
C146 H163 0.930 . S
C147 O130 1.264 . S
C147 O131 1.254 . S
C148 Eu84 2.848 . S
C148 O128 1.257 . S
C148 O133 1.249 . S
C148 C141 1.492 . S
C149 H114 0.931 . S
C149 C127 1.420 . S
C149 C150 1.351 . S
C150 H112 0.930 . S
C150 C118 1.423 . S
C150 C149 1.351 . S
C151 O135 1.276 . S
C151 O138 1.235 . S
C152 C153 1.393 . S
C152 C156 1.395 . S
C152 C159 1.492 . S
C153 C152 1.393 . S
C153 C154 1.392 . S
C153 H164 0.930 . S
C154 C153 1.392 . S
C154 C155 1.386 . S
C155 C154 1.386 . S
C155 C157 1.395 . S
C155 H165 0.930 . S
C156 C152 1.395 . S
C156 C157 1.379 . S
C156 H166 0.930 1_565 S
C157 C155 1.395 . S
C157 C156 1.379 . S
C157 H167 0.930 . S
C158 O136 1.264 . S
C158 O137 1.254 . S
C159 Eu95 2.848 . S
C159 O134 1.257 1_565 S
C159 O139 1.249 . S
C159 C152 1.492 . S
H160 C143 0.930 . S
H161 C144 0.930 . S
H162 C145 0.930 . S
H163 C146 0.930 . S
H164 C153 0.930 . S
H165 C155 0.930 . S
H166 C156 0.930 1_545 S
H167 C157 0.930 . S
Zn168 O174 1.920 . S
Zn168 O180 1.898 . S
Zn168 O183 1.905 . S
Zn169 O177 1.905 . S
Zn169 O178 1.898 . S
Zn169 O186 1.920 . S
Zn170 O173 2.080 . S
Zn170 O176 2.114 . S
Zn170 O179 2.120 . S
Zn170 O181 2.120 . S
Zn170 O182 2.114 . S
Zn170 O185 2.080 . S
C171 O176 1.166 . S
C171 O177 1.182 . S
C172 O178 1.167 . S
C172 O179 1.299 . S
O173 Zn170 2.080 . S
O173 C187 1.305 . S
O174 Zn168 1.920 . S
O174 C187 1.234 . S
C175 O180 1.167 . S
C175 O181 1.299 . S
O176 Zn170 2.114 . S
O176 C171 1.166 . S
O177 Zn169 1.905 . S
O177 C171 1.182 . S
O178 Zn169 1.898 . S
O178 C172 1.167 . S
O179 Zn170 2.120 . S
O179 C172 1.299 . S
O180 Zn168 1.898 . S
O180 C175 1.167 . S
O181 Zn170 2.120 . S
O181 C175 1.299 . S
O182 Zn170 2.114 . S
O182 C184 1.166 . S
O183 Zn168 1.905 . S
O183 C184 1.182 . S
C184 O182 1.166 . S
C184 O183 1.182 . S
O185 Zn170 2.080 . S
O185 C188 1.305 . S
O186 Zn169 1.920 . S
O186 C188 1.234 . S
C187 O173 1.305 . S
C187 O174 1.234 . S
C188 O185 1.305 . S
C188 O186 1.234 . S
Zn189 O195 1.920 . S
Zn189 O201 1.898 . S
Zn189 O204 1.905 . S
Zn190 O198 1.905 . S
Zn190 O199 1.898 . S
Zn190 O207 1.920 . S
Zn191 O194 2.080 . S
Zn191 O197 2.114 . S
Zn191 O200 2.120 . S
Zn191 O202 2.120 . S
Zn191 O203 2.114 . S
Zn191 O206 2.080 . S
C192 O197 1.166 . S
C192 O198 1.182 . S
C193 O199 1.167 . S
C193 O200 1.299 . S
O194 Zn191 2.080 . S
O194 C208 1.305 . S
O195 Zn189 1.920 . S
O195 C208 1.234 . S
C196 O201 1.167 . S
C196 O202 1.299 . S
O197 Zn191 2.114 . S
O197 C192 1.166 . S
O198 Zn190 1.905 . S
O198 C192 1.182 . S
O199 Zn190 1.898 . S
O199 C193 1.167 . S
O200 Zn191 2.120 . S
O200 C193 1.299 . S
O201 Zn189 1.898 . S
O201 C196 1.167 . S
O202 Zn191 2.120 . S
O202 C196 1.299 . S
O203 Zn191 2.114 . S
O203 C205 1.166 . S
O204 Zn189 1.905 . S
O204 C205 1.182 . S
C205 O203 1.166 . S
C205 O204 1.182 . S
O206 Zn191 2.080 . S
O206 C209 1.305 . S
O207 Zn190 1.920 . S
O207 C209 1.234 . S
C208 O194 1.305 . S
C208 O195 1.234 . S
C209 O206 1.305 . S
C209 O207 1.234 . S
H210 C216 0.930 . S
H211 C220 0.930 . S
H212 C225 0.929 . S
H213 C223 0.929 . S
H214 C218 0.929 . S
H215 C224 0.929 . S
C216 H210 0.930 . S
C216 C217 1.367 . S
C216 C224 1.378 . S
C217 C216 1.367 . S
C217 C225 1.433 . S
C218 H214 0.929 . S
C218 C220 1.378 . S
C218 C222 1.350 . S
C219 C222 1.463 . S
C219 C224 1.350 . S
C219 N227 1.427 . S
C220 H211 0.930 . S
C220 C218 1.378 . S
C220 C221 1.367 . S
C221 C220 1.367 . S
C221 C223 1.433 . S
C222 C218 1.350 . S
C222 C219 1.463 . S
C222 N226 1.427 . S
C223 H213 0.929 . S
C223 C221 1.433 . S
C223 N226 1.384 . S
C224 H215 0.929 . S
C224 C216 1.378 . S
C224 C219 1.350 . S
C225 H212 0.929 . S
C225 C217 1.433 . S
C225 N227 1.384 . S
N226 C222 1.427 . S
N226 C223 1.384 . S
N227 C219 1.427 . S
N227 C225 1.384 . S
H228 C234 0.930 . S
H229 C238 0.930 . S
H230 C243 0.929 . S
H231 C241 0.929 . S
H232 C236 0.929 . S
H233 C242 0.929 . S
C234 H228 0.930 . S
C234 C235 1.367 . S
C234 C242 1.378 . S
C235 C234 1.367 . S
C235 C243 1.433 . S
C236 H232 0.929 . S
C236 C238 1.378 . S
C236 C240 1.350 . S
C237 C240 1.463 . S
C237 C242 1.350 . S
C237 N245 1.427 . S
C238 H229 0.930 . S
C238 C236 1.378 . S
C238 C239 1.367 . S
C239 C238 1.367 . S
C239 C241 1.433 . S
C240 C236 1.350 . S
C240 C237 1.463 . S
C240 N244 1.427 . S
C241 H231 0.929 . S
C241 C239 1.433 . S
C241 N244 1.384 . S
C242 H233 0.929 . S
C242 C234 1.378 . S
C242 C237 1.350 . S
C243 H230 0.929 . S
C243 C235 1.433 . S
C243 N245 1.384 . S
N244 C240 1.427 . S
N244 C241 1.384 . S
N245 C237 1.427 . S
N245 C243 1.384 . S
H246 C252 0.930 . S
H247 C256 0.930 . S
H248 C261 0.929 . S
H249 C259 0.929 . S
H250 C254 0.929 . S
H251 C260 0.929 . S
C252 H246 0.930 . S
C252 C253 1.367 . S
C252 C260 1.378 . S
C253 C252 1.367 . S
C253 C261 1.433 . S
C254 H250 0.929 . S
C254 C256 1.378 . S
C254 C258 1.350 . S
C255 C258 1.463 . S
C255 C260 1.350 . S
C255 N263 1.427 . S
C256 H247 0.930 . S
C256 C254 1.378 . S
C256 C257 1.367 . S
C257 C256 1.367 . S
C257 C259 1.433 . S
C258 C254 1.350 . S
C258 C255 1.463 . S
C258 N262 1.427 . S
C259 H249 0.929 . S
C259 C257 1.433 . S
C259 N262 1.384 . S
C260 H251 0.929 . S
C260 C252 1.378 . S
C260 C255 1.350 . S
C261 H248 0.929 . S
C261 C253 1.433 . S
C261 N263 1.384 . S
N262 C258 1.427 . S
N262 C259 1.384 . S
N263 C255 1.427 . S
N263 C261 1.384 . S
H264 C270 0.930 . S
H265 C274 0.930 . S
H266 C279 0.929 . S
H267 C277 0.929 . S
H268 C272 0.929 . S
H269 C278 0.929 . S
C270 H264 0.930 . S
C270 C271 1.367 . S
C270 C278 1.378 . S
C271 C270 1.367 . S
C271 C279 1.433 . S
C272 H268 0.929 . S
C272 C274 1.378 . S
C272 C276 1.350 . S
C273 C276 1.463 . S
C273 C278 1.350 . S
C273 N281 1.427 . S
C274 H265 0.930 . S
C274 C272 1.378 . S
C274 C275 1.367 . S
C275 C274 1.367 . S
C275 C277 1.433 . S
C276 C272 1.350 . S
C276 C273 1.463 . S
C276 N280 1.427 . S
C277 H267 0.929 . S
C277 C275 1.433 . S
C277 N280 1.384 . S
C278 H269 0.929 . S
C278 C270 1.378 . S
C278 C273 1.350 . S
C279 H266 0.929 . S
C279 C271 1.433 . S
C279 N281 1.384 . S
N280 C276 1.427 . S
N280 C277 1.384 . S
N281 C273 1.427 . S
N281 C279 1.384 . S
H282 C288 0.930 1_545 S
H283 C292 0.930 . S
H284 C297 0.929 . S
H285 C295 0.929 . S
H286 C290 0.929 . S
H287 C296 0.929 . S
C288 H282 0.930 1_565 S
C288 C289 1.367 . S
C288 C296 1.378 . S
C289 C288 1.367 . S
C289 C297 1.433 . S
C290 H286 0.929 . S
C290 C292 1.378 . S
C290 C294 1.350 . S
C291 C294 1.463 . S
C291 C296 1.350 . S
C291 N299 1.427 . S
C292 H283 0.930 . S
C292 C290 1.378 . S
C292 C293 1.367 . S
C293 C292 1.367 . S
C293 C295 1.433 . S
C294 C290 1.350 . S
C294 C291 1.463 . S
C294 N298 1.427 . S
C295 H285 0.929 . S
C295 C293 1.433 . S
C295 N298 1.384 . S
C296 H287 0.929 . S
C296 C288 1.378 . S
C296 C291 1.350 . S
C297 H284 0.929 . S
C297 C289 1.433 . S
C297 N299 1.384 . S
N298 C294 1.427 . S
N298 C295 1.384 . S
N299 C291 1.427 . S
N299 C297 1.384 . S
H300 C306 0.930 . S
H301 C310 0.930 . S
H302 C315 0.929 . S
H303 C313 0.929 . S
H304 C308 0.929 . S
H305 C314 0.929 . S
C306 H300 0.930 . S
C306 C307 1.367 . S
C306 C314 1.378 . S
C307 C306 1.367 . S
C307 C315 1.433 . S
C308 H304 0.929 . S
C308 C310 1.378 . S
C308 C312 1.350 . S
C309 C312 1.463 . S
C309 C314 1.350 . S
C309 N317 1.427 . S
C310 H301 0.930 . S
C310 C308 1.378 . S
C310 C311 1.367 . S
C311 C310 1.367 . S
C311 C313 1.433 . S
C312 C308 1.350 . S
C312 C309 1.463 . S
C312 N316 1.427 . S
C313 H303 0.929 . S
C313 C311 1.433 . S
C313 N316 1.384 . S
C314 H305 0.929 . S
C314 C306 1.378 . S
C314 C309 1.350 . S
C315 H302 0.929 . S
C315 C307 1.433 . S
C315 N317 1.384 . S
N316 C312 1.427 . S
N316 C313 1.384 . S
N317 C309 1.427 . S
N317 C315 1.384 . S
H318 C324 0.930 . S
H319 C328 0.930 . S
H320 C333 0.929 . S
H321 C331 0.929 . S
H322 C326 0.929 . S
H323 C332 0.929 . S
C324 H318 0.930 . S
C324 C325 1.367 . S
C324 C332 1.378 . S
C325 C324 1.367 . S
C325 C333 1.433 . S
C326 H322 0.929 . S
C326 C328 1.378 . S
C326 C330 1.350 . S
C327 C330 1.463 . S
C327 C332 1.350 . S
C327 N335 1.427 . S
C328 H319 0.930 . S
C328 C326 1.378 . S
C328 C329 1.367 . S
C329 C328 1.367 . S
C329 C331 1.433 . S
C330 C326 1.350 . S
C330 C327 1.463 . S
C330 N334 1.427 . S
C331 H321 0.929 . S
C331 C329 1.433 . S
C331 N334 1.384 . S
C332 H323 0.929 . S
C332 C324 1.378 . S
C332 C327 1.350 . S
C333 H320 0.929 . S
C333 C325 1.433 . S
C333 N335 1.384 . S
N334 C330 1.427 . S
N334 C331 1.384 . S
N335 C327 1.427 . S
N335 C333 1.384 . S
H336 C342 0.930 . S
H337 C346 0.930 . S
H338 C351 0.929 . S
H339 C349 0.929 . S
H340 C344 0.929 . S
H341 C350 0.929 . S
C342 H336 0.930 . S
C342 C343 1.367 . S
C342 C350 1.378 . S
C343 C342 1.367 . S
C343 C351 1.433 . S
C344 H340 0.929 . S
C344 C346 1.378 . S
C344 C348 1.350 . S
C345 C348 1.463 . S
C345 C350 1.350 . S
C345 N353 1.427 . S
C346 H337 0.930 . S
C346 C344 1.378 . S
C346 C347 1.367 . S
C347 C346 1.367 . S
C347 C349 1.433 . S
C348 C344 1.350 . S
C348 C345 1.463 . S
C348 N352 1.427 . S
C349 H339 0.929 . S
C349 C347 1.433 . S
C349 N352 1.384 . S
C350 H341 0.929 . S
C350 C342 1.378 . S
C350 C345 1.350 . S
C351 H338 0.929 . S
C351 C343 1.433 . S
C351 N353 1.384 . S
N352 C348 1.427 . S
N352 C349 1.384 . S
N353 C345 1.427 . S
N353 C351 1.384 . S
H354 C360 0.930 . S
H355 C364 0.930 . S
H356 C369 0.929 . S
H357 C367 0.929 . S
H358 C362 0.929 . S
H359 C368 0.929 . S
C360 H354 0.930 . S
C360 C361 1.367 . S
C360 C368 1.378 . S
C361 C360 1.367 . S
C361 C369 1.433 . S
C362 H358 0.929 . S
C362 C364 1.378 . S
C362 C366 1.350 . S
C363 C366 1.463 . S
C363 C368 1.350 . S
C363 N371 1.427 . S
C364 H355 0.930 . S
C364 C362 1.378 . S
C364 C365 1.367 . S
C365 C364 1.367 . S
C365 C367 1.433 . S
C366 C362 1.350 . S
C366 C363 1.463 . S
C366 N370 1.427 . S
C367 H357 0.929 . S
C367 C365 1.433 . S
C367 N370 1.384 . S
C368 H359 0.929 . S
C368 C360 1.378 . S
C368 C363 1.350 . S
C369 H356 0.929 . S
C369 C361 1.433 . S
C369 N371 1.384 . S
N370 C366 1.427 . S
N370 C367 1.384 . S
N371 C363 1.427 . S
N371 C369 1.384 . S
H372 C378 0.930 . S
H373 C382 0.930 . S
H374 C387 0.929 . S
H375 C385 0.929 . S
H376 C380 0.929 . S
H377 C386 0.929 . S
C378 H372 0.930 . S
C378 C379 1.367 . S
C378 C386 1.378 . S
C379 C378 1.367 . S
C379 C387 1.433 . S
C380 H376 0.929 . S
C380 C382 1.378 . S
C380 C384 1.350 . S
C381 C384 1.463 . S
C381 C386 1.350 . S
C381 N389 1.427 . S
C382 H373 0.930 . S
C382 C380 1.378 . S
C382 C383 1.367 . S
C383 C382 1.367 . S
C383 C385 1.433 . S
C384 C380 1.350 . S
C384 C381 1.463 . S
C384 N388 1.427 . S
C385 H375 0.929 . S
C385 C383 1.433 . S
C385 N388 1.384 . S
C386 H377 0.929 . S
C386 C378 1.378 . S
C386 C381 1.350 . S
C387 H374 0.929 . S
C387 C379 1.433 . S
C387 N389 1.384 . S
N388 C384 1.427 . S
N388 C385 1.384 . S
N389 C381 1.427 . S
N389 C387 1.384 . S
H390 C396 0.930 . S
H391 C400 0.930 . S
H392 C405 0.929 . S
H393 C403 0.929 . S
H394 C398 0.929 . S
H395 C404 0.929 . S
C396 H390 0.930 . S
C396 C397 1.367 . S
C396 C404 1.378 . S
C397 C396 1.367 . S
C397 C405 1.433 . S
C398 H394 0.929 . S
C398 C400 1.378 . S
C398 C402 1.350 . S
C399 C402 1.463 . S
C399 C404 1.350 . S
C399 N407 1.427 . S
C400 H391 0.930 . S
C400 C398 1.378 . S
C400 C401 1.367 . S
C401 C400 1.367 . S
C401 C403 1.433 . S
C402 C398 1.350 . S
C402 C399 1.463 . S
C402 N406 1.427 . S
C403 H393 0.929 . S
C403 C401 1.433 . S
C403 N406 1.384 . S
C404 H395 0.929 . S
C404 C396 1.378 . S
C404 C399 1.350 . S
C405 H392 0.929 . S
C405 C397 1.433 . S
C405 N407 1.384 . S
N406 C402 1.427 . S
N406 C403 1.384 . S
N407 C399 1.427 . S
N407 C405 1.384 . S
H408 C414 0.930 . S
H409 C418 0.930 . S
H410 C423 0.929 1_455 S
H411 C421 0.929 . S
H412 C416 0.929 . S
H413 C422 0.929 . S
C414 H408 0.930 . S
C414 C415 1.367 . S
C414 C422 1.378 . S
C415 C414 1.367 . S
C415 C423 1.433 . S
C416 H412 0.929 . S
C416 C418 1.378 . S
C416 C420 1.350 . S
C417 C420 1.463 . S
C417 C422 1.350 . S
C417 N425 1.427 . S
C418 H409 0.930 . S
C418 C416 1.378 . S
C418 C419 1.367 . S
C419 C418 1.367 . S
C419 C421 1.433 . S
C420 C416 1.350 . S
C420 C417 1.463 . S
C420 N424 1.427 . S
C421 H411 0.929 . S
C421 C419 1.433 . S
C421 N424 1.384 . S
C422 H413 0.929 . S
C422 C414 1.378 . S
C422 C417 1.350 . S
C423 H410 0.929 1_655 S
C423 C415 1.433 . S
C423 N425 1.384 . S
N424 C420 1.427 . S
N424 C421 1.384 . S
N425 C417 1.427 . S
N425 C423 1.384 . S
C217 C58 1.174 . S
C221 C187 1.276 . S
C235 C151 1.575 . S
C239 C193 1.444 . S
C253 C74 1.556 . S
C257 C184 1.483 . S
C271 C142 1.167 . S
C275 C209 1.277 . S
C289 C67 1.580 . S
C293 C175 1.437 . S
C311 C192 1.484 . S
C307 C158 1.555 . S
C325 C154 1.129 . S
C329 C188 1.262 . S
C347 C205 1.498 . S
C343 C56 1.585 . S
C365 C172 1.404 . S
C361 C147 1.571 . S
C383 C208 1.280 . S
C379 C70 1.153 . S
C401 C171 1.479 . S
C397 C140 1.595 . S
C419 C196 1.420 . S
C415 C63 1.563 . S
