# Generated by pormake.
# Topology pth, (4,4)-cn, num edge types: 1
# Building blocks:
#     Node 0, Type 0, BuildingBlock: CEKHIL_clean_sbu_0, # of connection points: 4
#     Node 1, Type 0, BuildingBlock: CEKHIL_clean_sbu_0, # of connection points: 4
#     Node 2, Type 0, BuildingBlock: CEKHIL_clean_sbu_0, # of connection points: 4
#     Node 3, Type 1, BuildingBlock: KOZSID_clean_sbu_0, # of connection points: 4
#     Node 4, Type 1, BuildingBlock: KOZSID_clean_sbu_0, # of connection points: 4
#     Node 5, Type 1, BuildingBlock: KOZSID_clean_sbu_0, # of connection points: 4
#     Edge 6, Type (0, 1), BuildingBlock: OJICUG_clean_linker_0, # of connection points: 2
#     Edge 7, Type (0, 1), BuildingBlock: OJICUG_clean_linker_0, # of connection points: 2
#     Edge 8, Type (0, 1), BuildingBlock: OJICUG_clean_linker_0, # of connection points: 2
#     Edge 9, Type (0, 1), BuildingBlock: OJICUG_clean_linker_0, # of connection points: 2
#     Edge 10, Type (0, 1), BuildingBlock: OJICUG_clean_linker_0, # of connection points: 2
#     Edge 11, Type (0, 1), BuildingBlock: OJICUG_clean_linker_0, # of connection points: 2
#     Edge 12, Type (0, 1), BuildingBlock: OJICUG_clean_linker_0, # of connection points: 2
#     Edge 13, Type (0, 1), BuildingBlock: OJICUG_clean_linker_0, # of connection points: 2
#     Edge 14, Type (0, 1), BuildingBlock: OJICUG_clean_linker_0, # of connection points: 2
#     Edge 15, Type (0, 1), BuildingBlock: OJICUG_clean_linker_0, # of connection points: 2
#     Edge 16, Type (0, 1), BuildingBlock: OJICUG_clean_linker_0, # of connection points: 2
#     Edge 17, Type (0, 1), BuildingBlock: OJICUG_clean_linker_0, # of connection points: 2
# Relax obj value: 0.006
# Max RMSD: 0.062
# Mean RMSD: 0.042
data_MOF--net-pth--node1-CEKHIL_clean_sbu_0--node2-KOZSID_clean_sbu_0--edge1-OJICUG_clean_linker_0
_symmetry_space_group_name_H-M    P1
_symmetry_Int_Tables_number       1
_symmetry_cell_setting            triclinic
loop_
_symmetry_equiv_pos_as_xyz
'x, y, z'
_cell_length_a     19.792116
_cell_length_b     19.87839
_cell_length_c     45.866364
_cell_angle_alpha  87.645782
_cell_angle_beta   86.404359
_cell_angle_gamma 120.46166
loop_
_atom_site_label
_atom_site_type_symbol
_atom_site_fract_x
_atom_site_fract_y
_atom_site_fract_z
_atom_type_partial_charge
Co0 Co 0.08467 0.06272 0.06605 0.0
O1 O 0.02865 0.97874 0.09676 0.0
O2 O 0.1323 0.99817 0.06826 0.0
C3 C 0.09018 0.15766 0.09339 0.0
O4 O 0.16156 0.1451 0.03347 0.0
Co5 Co 0.01625 0.1606 0.04127 0.0
O6 O 0.12833 0.23723 0.0281 0.0
C7 C 0.96125 1.00154 0.02199 0.0
C8 C 0.07962 0.95771 0.09013 0.0
C9 C 0.17694 0.21378 0.02385 0.0
O10 O 0.01193 0.99542 0.03654 0.0
O11 O 0.95173 0.06065 0.02246 0.0
O12 O 0.14102 0.13508 0.09542 0.0
O13 O 0.03539 0.11909 0.07662 0.0
Co14 Co 0.06398 0.10687 0.37458 0.0
O15 O 0.02009 0.13934 0.34453 0.0
O16 O 0.11701 0.22057 0.36949 0.0
C17 C 0.07375 0.01681 0.34875 0.0
O18 O 0.12813 0.09517 0.40594 0.0
Co19 Co 0.97367 0.93628 0.4032 0.0
O20 O 0.07399 0.96698 0.41988 0.0
C21 C 0.92644 0.04754 0.42243 0.0
C22 C 0.07089 0.211 0.34904 0.0
C23 C 0.12852 0.03814 0.42032 0.0
O24 O 0.98379 0.10322 0.4055 0.0
O25 O 0.91055 0.9765 0.42373 0.0
O26 O 0.12768 0.09051 0.34455 0.0
O27 O 0.01316 1.00097 0.36644 0.0
Co28 Co 0.08236 0.07022 0.70821 0.0
O29 O 0.16418 0.12318 0.67632 0.0
O30 O 0.14467 0.02025 0.70419 0.0
C31 C 0.98448 0.06539 0.68346 0.0
O32 O 1.00124 0.99674 0.7417 0.0
Co33 Co 0.99784 0.1507 0.73563 0.0
O34 O 0.93058 0.04898 0.75913 0.0
C35 C 0.16141 0.20477 0.74687 0.0
C36 C 0.18476 0.07204 0.68219 0.0
C37 C 0.94514 0.99348 0.75876 0.0
O38 O 0.15526 0.14278 0.73654 0.0
O39 O 0.10813 0.22291 0.7455 0.0
O40 O 0.00561 0.01373 0.6804 0.0
O41 O 0.02717 0.12145 0.69926 0.0
C42 C 0.16408 0.72881 0.17175 0.0
C43 C 0.23693 0.79103 0.16022 0.0
C44 C 0.29242 0.78478 0.17428 0.0
C45 C 0.25075 0.72 0.19377 0.0
N46 N 0.17185 0.68358 0.1928 0.0
Co47 Co 0.08965 0.59263 0.21992 0.0
N48 N 0.17153 0.58653 0.24182 0.0
C49 C 0.25055 0.63195 0.23593 0.0
C50 C 0.29213 0.61042 0.25286 0.0
C51 C 0.23646 0.54659 0.27041 0.0
C52 C 0.16363 0.53322 0.26335 0.0
N53 N 0.00731 0.50365 0.24756 0.0
C54 C 0.01484 0.46118 0.26969 0.0
C55 C 0.94215 0.40638 0.28416 0.0
C56 C 0.88666 0.41278 0.27013 0.0
C57 C 0.92838 0.47144 0.2482 0.0
N58 N 0.00773 0.5967 0.19747 0.0
C59 C 0.92887 0.54744 0.20191 0.0
C60 C 0.8875 0.56299 0.18259 0.0
C61 C 0.9431 0.62661 0.16493 0.0
C62 C 0.01549 0.64691 0.17477 0.0
N63 N 0.09161 0.51699 0.19321 0.0
C64 C 0.09492 0.40459 0.15823 0.0
C65 C 0.02396 0.39321 0.17152 0.0
C66 C 0.02364 0.44952 0.18871 0.0
C67 C 0.16411 0.47402 0.16236 0.0
C68 C 0.16111 0.52908 0.17965 0.0
N69 N 0.08776 0.66819 0.2467 0.0
C70 C 0.01637 0.71973 0.27311 0.0
C71 C 0.08572 0.77944 0.28274 0.0
C72 C 0.15598 0.7816 0.27432 0.0
C73 C 0.15566 0.72598 0.2565 0.0
C74 C 0.01867 0.66527 0.25535 0.0
H75 H 0.21125 0.73133 0.25081 0.0
H76 H 0.96379 0.62191 0.24863 0.0
H77 H 0.96766 0.43654 0.19848 0.0
H78 H 0.2159 0.58069 0.1819 0.0
C79 C 0.28385 0.69321 0.21381 0.0
C80 C 0.08916 0.71683 0.16286 0.0
C81 C 0.0887 0.46739 0.27678 0.0
C82 C 0.89512 0.49217 0.22614 0.0
H83 H 0.24919 0.8374 0.14381 0.0
H84 H 0.35561 0.82399 0.17118 0.0
H85 H 0.35542 0.63683 0.25206 0.0
H86 H 0.24858 0.51298 0.28612 0.0
H87 H 0.93036 0.36459 0.30247 0.0
H88 H 0.82334 0.37712 0.27475 0.0
H89 H 0.82426 0.5332 0.18202 0.0
H90 H 0.93148 0.65606 0.14729 0.0
H91 H 0.96871 0.34011 0.16927 0.0
H92 H 0.22049 0.48625 0.15217 0.0
H93 H 0.96041 0.71581 0.27865 0.0
H94 H 0.21124 0.82586 0.28152 0.0
C95 C 0.42388 0.99792 0.59879 0.0
C96 C 0.36092 0.92465 0.60924 0.0
C97 C 0.36968 0.8709 0.59458 0.0
C98 C 0.43663 0.91397 0.57586 0.0
N99 N 0.47199 0.99218 0.57783 0.0
Co100 Co 0.5663 0.07608 0.55232 0.0
N101 N 0.57724 0.99654 0.53014 0.0
C102 C 0.53133 0.91768 0.53462 0.0
C103 C 0.55309 0.87804 0.51619 0.0
C104 C 0.61788 0.93485 0.49927 0.0
C105 C 0.63242 0.00626 0.50859 0.0
N106 N 0.65905 0.15991 0.5262 0.0
C107 C 0.70708 0.15436 0.50514 0.0
C108 C 0.76652 0.22781 0.49317 0.0
C109 C 0.75557 0.28145 0.507 0.0
C110 C 0.69069 0.23815 0.5267 0.0
N111 N 0.55698 0.15543 0.57516 0.0
C112 C 0.60522 0.23406 0.57155 0.0
C113 C 0.58585 0.27362 0.59094 0.0
C114 C 0.52075 0.21692 0.60781 0.0
C115 C 0.50356 0.14577 0.59745 0.0
N116 N 0.6383 0.07364 0.58025 0.0
C117 C 0.74544 0.06882 0.61713 0.0
C118 C 0.75796 0.14001 0.60452 0.0
C119 C 0.70414 0.14108 0.58638 0.0
C120 C 0.67718 1.00031 0.61146 0.0
C121 C 0.62493 0.00402 0.5932 0.0
N122 N 0.49399 0.07834 0.52437 0.0
C123 C 0.43868 0.14629 0.49901 0.0
C124 C 0.38096 0.07641 0.48894 0.0
C125 C 0.38366 0.00869 0.49575 0.0
C126 C 0.43959 0.01086 0.51331 0.0
C127 C 0.49442 0.14599 0.51647 0.0
H128 H 0.43649 0.95656 0.51796 0.0
H129 H 0.53633 0.2009 0.52376 0.0
H130 H 0.7177 0.19715 0.57721 0.0
H131 H 0.57446 0.94959 0.58968 0.0
C132 C 0.46686 0.88267 0.55581 0.0
C133 C 0.4338 0.07125 0.60864 0.0
C134 C 0.70101 0.08125 0.49698 0.0
C135 C 0.66458 0.26916 0.5484 0.0
H136 H 0.31254 0.911 0.62535 0.0
H137 H 0.33091 0.80793 0.59687 0.0
H138 H 0.52526 0.81531 0.51521 0.0
H139 H 0.65117 0.92472 0.48219 0.0
H140 H 0.8145 0.24171 0.47682 0.0
H141 H 0.79273 0.34458 0.50403 0.0
H142 H 0.6145 0.33631 0.5922 0.0
H143 H 0.48856 0.22696 0.62535 0.0
H144 H 0.81017 0.19483 0.60795 0.0
H145 H 0.66379 0.94372 0.62109 0.0
H146 H 0.43955 0.20055 0.49423 0.0
H147 H 0.34203 0.95337 0.48779 0.0
C148 C 0.72199 0.65181 0.8427 0.0
C149 C 0.78424 0.64254 0.83268 0.0
C150 C 0.77229 0.57523 0.84688 0.0
C151 C 0.70415 0.54752 0.8649 0.0
N152 N 0.6712 0.59259 0.86293 0.0
Co153 Co 0.57501 0.57644 0.88715 0.0
N154 N 0.56252 0.48214 0.91027 0.0
C155 C 0.60977 0.45164 0.90719 0.0
C156 C 0.58755 0.3875 0.92626 0.0
C157 C 0.52165 0.37573 0.94241 0.0
C158 C 0.50697 0.43326 0.93203 0.0
N159 N 0.47866 0.56042 0.91125 0.0
C160 C 0.4295 0.5029 0.93226 0.0
C161 C 0.36615 0.51121 0.94171 0.0
C162 C 0.37629 0.57665 0.92667 0.0
C163 C 0.44428 0.60417 0.90864 0.0
N164 N 0.58753 0.67093 0.86418 0.0
C165 C 0.53976 0.70101 0.8669 0.0
C166 C 0.56234 0.76533 0.8479 0.0
C167 C 0.62941 0.77816 0.8324 0.0
C168 C 0.64451 0.72117 0.84313 0.0
N169 N 0.50658 0.50737 0.85808 0.0
C170 C 0.40576 0.40866 0.81773 0.0
C171 C 0.39584 0.46736 0.82933 0.0
C172 C 0.44648 0.51565 0.8489 0.0
C173 C 0.46736 0.40005 0.82693 0.0
C174 C 0.51657 0.44954 0.84698 0.0
N175 N 0.64344 0.64571 0.91605 0.0
C176 C 0.68124 0.75602 0.94514 0.0
C177 C 0.74854 0.75554 0.95247 0.0
C178 C 0.76005 0.69624 0.94237 0.0
C179 C 0.70695 0.6421 0.92446 0.0
C180 C 0.63037 0.70154 0.92707 0.0
H181 H 0.71933 0.59884 0.9172 0.0
H182 H 0.5815 0.70675 0.92192 0.0
H183 H 0.43498 0.55886 0.85643 0.0
H184 H 0.56213 0.43982 0.85322 0.0
C185 C 0.67372 0.48364 0.8858 0.0
C186 C 0.71542 0.71942 0.8334 0.0
C187 C 0.43913 0.43839 0.94341 0.0
C188 C 0.47492 0.66852 0.88791 0.0
H189 H 0.83447 0.68129 0.81734 0.0
H190 H 0.81044 0.55102 0.84513 0.0
H191 H 0.61565 0.35306 0.92809 0.0
H192 H 0.48802 0.32967 0.95976 0.0
H193 H 0.31652 0.47326 0.95742 0.0
H194 H 0.33755 0.60021 0.92813 0.0
H195 H 0.53395 0.79942 0.84582 0.0
H196 H 0.66396 0.82503 0.8154 0.0
H197 H 0.34809 0.47576 0.82378 0.0
H198 H 0.4782 0.35588 0.81857 0.0
H199 H 0.66782 0.7989 0.95309 0.0
H200 H 0.81098 0.69284 0.94746 0.0
C201 C 0.15399 0.26469 0.12727 0.0
C202 C 0.09425 0.22338 0.10895 0.0
H203 H 0.2009 0.35391 0.15732 0.0
C204 C 0.03658 0.24401 0.10616 0.0
H205 H 0.19926 0.25017 0.12989 0.0
C206 C 0.03758 0.30342 0.12176 0.0
C207 C 0.09639 0.34393 0.14054 0.0
H208 H 0.98994 0.21365 0.09211 0.0
H209 H 0.99216 0.31769 0.11907 0.0
C210 C 0.15513 0.32441 0.14286 0.0
C211 C 0.85794 0.03539 0.47145 0.0
C212 C 0.8762 0.06522 0.44193 0.0
H213 H 0.79043 0.02008 0.51219 0.0
C214 C 0.84098 0.10584 0.43095 0.0
H215 H 0.88448 0.00394 0.48041 0.0
C216 C 0.78516 0.11282 0.44892 0.0
C217 C 0.76588 0.08161 0.47835 0.0
H218 H 0.85365 0.12865 0.40817 0.0
H219 H 0.75548 0.14063 0.43965 0.0
C220 C 0.80428 0.04456 0.48959 0.0
C221 C 0.87116 0.92917 0.80749 0.0
C222 C 0.89373 0.92223 0.77864 0.0
H223 H 0.79935 0.86986 0.84768 0.0
C224 C 0.86145 0.84737 0.7684 0.0
H225 H 0.8952 0.98624 0.8159 0.0
C226 C 0.8046 0.78102 0.78629 0.0
C227 C 0.78118 0.78822 0.81502 0.0
H228 H 0.87722 0.84063 0.74612 0.0
H229 H 0.77742 0.72436 0.77744 0.0
C230 C 0.8164 0.86277 0.82563 0.0
C231 C 0.11998 0.85702 0.09713 0.0
C232 C 0.08034 0.89416 0.10801 0.0
H233 H 0.15192 0.77004 0.10569 0.0
C234 C 0.04319 0.87194 0.13678 0.0
H235 H 0.14888 0.87266 0.07503 0.0
C236 C 0.04694 0.81515 0.15449 0.0
C237 C 0.08662 0.77812 0.14369 0.0
H238 H 0.01256 0.89972 0.14588 0.0
H239 H 0.01892 0.80016 0.17674 0.0
C240 C 0.12209 0.79871 0.11468 0.0
C241 C 0.26825 0.12131 0.43398 0.0
C242 C 0.193 0.05361 0.43895 0.0
H243 H 0.3875 0.18159 0.44557 0.0
C244 C 0.17955 0.99719 0.46162 0.0
H245 H 0.28048 0.16594 0.41671 0.0
C246 C 0.23989 0.0064 0.47817 0.0
C247 C 0.31622 0.0719 0.47245 0.0
H248 H 0.12204 0.94502 0.46656 0.0
H249 H 0.2266 0.96141 0.49544 0.0
C250 C 0.32943 0.1303 0.45055 0.0
C251 C 0.26682 0.22722 0.77993 0.0
C252 C 0.23128 0.25705 0.76203 0.0
H253 H 0.34859 0.25101 0.81214 0.0
C254 C 0.25904 0.33769 0.76041 0.0
H255 H 0.24642 0.16518 0.78164 0.0
C256 C 0.31854 0.38703 0.77721 0.0
C257 C 0.35071 0.35694 0.79679 0.0
H258 H 0.23375 0.36263 0.74642 0.0
H259 H 0.33805 0.44883 0.77525 0.0
C260 C 0.32558 0.27658 0.79734 0.0
C261 C 0.87936 0.00512 0.64907 0.0
C262 C 0.92012 0.06368 0.66795 0.0
H263 H 0.79349 0.96135 0.61802 0.0
C264 C 0.90117 0.12249 0.67083 0.0
H265 H 0.89272 0.95912 0.64627 0.0
C266 C 0.84384 0.1236 0.65473 0.0
C267 C 0.80402 0.06589 0.63535 0.0
H268 H 0.93131 0.16833 0.68528 0.0
H269 H 0.83071 0.16976 0.65749 0.0
C270 C 0.82209 0.00622 0.63296 0.0
C271 C 0.87296 0.95416 0.98161 0.0
C272 C 0.91094 0.93833 1.00346 0.0
H273 H 0.79495 0.91064 0.94811 0.0
C274 C 0.89811 0.86203 0.00763 0.0
H275 H 0.88231 0.01243 0.97733 0.0
C276 C 0.84632 0.80253 0.99094 0.0
C277 C 0.8067 0.81828 0.96963 0.0
H278 H 0.92643 0.8478 0.02427 0.0
H279 H 0.83581 0.74387 0.99527 0.0
C280 C 0.82216 0.89535 0.96488 0.0
C281 C 0.01963 0.87656 0.33844 0.0
C282 C 0.07924 0.95565 0.33316 0.0
H283 H 0.97551 0.75893 0.32715 0.0
C284 C 0.14251 0.97605 0.31201 0.0
H285 H 0.97026 0.85885 0.3547 0.0
C286 C 0.14524 0.91885 0.29601 0.0
C287 C 0.0848 0.83979 0.30082 0.0
H288 H 0.18928 0.03653 0.30737 0.0
H289 H 0.19372 0.93705 0.27929 0.0
C290 C 0.0224 0.81932 0.32248 0.0
C291 C 0.2718 0.10941 0.63532 0.0
C292 C 0.24906 0.07191 0.66386 0.0
H293 H 0.34665 0.13671 0.59541 0.0
C294 C 0.28782 0.03431 0.67434 0.0
H295 H 0.24284 0.13861 0.62656 0.0
C296 C 0.34857 0.03486 0.65665 0.0
C297 C 0.37005 0.07112 0.62793 0.0
H298 H 0.27185 0.00533 0.69629 0.0
H299 H 0.37852 0.0066 0.6653 0.0
C300 C 0.33109 0.10836 0.61747 0.0
C301 C 0.29896 0.34408 0.01261 0.0
C302 C 0.25112 0.26674 1.00549 0.0
H303 H 0.39827 0.45815 0.999 0.0
C304 C 0.26972 0.24397 0.97903 0.0
H305 H 0.28554 0.3629 0.0329 0.0
C306 C 0.33246 0.29914 0.95919 0.0
C307 C 0.37858 0.37734 0.96586 0.0
H308 H 0.23306 0.18481 0.97297 0.0
H309 H 0.34326 0.28149 0.9382 0.0
C310 C 0.36306 0.39845 0.99324 0.0
C311 C 0.0442 0.26473 0.30383 0.0
C312 C 0.07674 0.27758 0.33088 0.0
H313 H 0.02442 0.31513 0.2654 0.0
C314 C 0.11433 0.35386 0.34004 0.0
H315 H 0.01517 0.20676 0.29605 0.0
C316 C 0.1182 0.41571 0.32263 0.0
C317 C 0.08636 0.40269 0.29545 0.0
H318 H 0.13958 0.36547 0.36083 0.0
H319 H 0.14587 0.47369 0.33039 0.0
C320 C 0.04954 0.32666 0.28623 0.0
loop_
_geom_bond_atom_site_label_1
_geom_bond_atom_site_label_2
_geom_bond_distance
_geom_bond_site_symmetry_2
_ccdc_geom_bond_type
Co0 O1 2.216 1_545 S
Co0 O2 2.091 . S
Co0 O4 2.004 . S
Co0 O10 2.021 1_545 S
Co0 O12 2.137 . S
Co0 O13 2.244 . S
O1 Co0 2.216 1_565 S
O1 C8 1.247 . S
O2 Co0 2.091 . S
O2 C8 1.261 1_545 S
C3 O12 1.247 . S
C3 O13 1.272 . S
O4 Co0 2.004 . S
O4 C9 1.259 . S
Co5 O6 2.058 1_554 S
Co5 O11 2.052 1_455 S
Co5 O13 2.135 . S
O6 Co5 2.058 1_556 S
O6 C9 1.232 1_556 S
C7 O10 1.238 1_655 S
C7 O11 1.241 1_565 S
C8 O1 1.247 . S
C8 O2 1.261 1_565 S
C9 O4 1.259 . S
C9 O6 1.232 1_554 S
O10 Co0 2.021 1_565 S
O10 C7 1.238 1_455 S
O11 Co5 2.052 1_655 S
O11 C7 1.241 1_545 S
O12 Co0 2.137 . S
O12 C3 1.247 . S
O13 Co0 2.244 . S
O13 C3 1.272 . S
O13 Co5 2.135 . S
Co14 O15 2.216 . S
Co14 O16 2.091 . S
Co14 O18 2.004 . S
Co14 O24 2.021 . S
Co14 O26 2.137 . S
Co14 O27 2.245 . S
O15 Co14 2.216 . S
O15 C22 1.247 . S
O16 Co14 2.091 . S
O16 C22 1.261 . S
C17 O26 1.247 . S
C17 O27 1.271 . S
O18 Co14 2.004 . S
O18 C23 1.259 . S
Co19 O20 2.061 1_665 S
Co19 O25 2.052 1_565 S
Co19 O27 2.134 1_665 S
O20 Co19 2.061 1_445 S
O20 C23 1.235 . S
C21 O24 1.238 1_655 S
C21 O25 1.241 . S
C22 O15 1.247 . S
C22 O16 1.261 . S
C23 O18 1.259 . S
C23 O20 1.235 . S
O24 Co14 2.021 . S
O24 C21 1.238 1_455 S
O25 Co19 2.052 1_545 S
O25 C21 1.241 . S
O26 Co14 2.137 . S
O26 C17 1.247 . S
O27 Co14 2.245 . S
O27 C17 1.271 . S
O27 Co19 2.134 1_445 S
Co28 O29 2.216 . S
Co28 O30 2.091 1_545 S
Co28 O32 2.004 1_545 S
Co28 O38 2.021 . S
Co28 O40 2.137 . S
Co28 O41 2.244 . S
O29 Co28 2.216 . S
O29 C36 1.247 . S
O30 Co28 2.091 1_565 S
O30 C36 1.261 1_565 S
C31 O40 1.247 1_655 S
C31 O41 1.272 1_655 S
O32 Co28 2.004 1_565 S
O32 C37 1.259 1_455 S
Co33 O34 2.061 . S
Co33 O39 2.052 1_655 S
Co33 O41 2.135 1_655 S
O34 Co33 2.061 . S
O34 C37 1.235 1_545 S
C35 O38 1.238 . S
C35 O39 1.241 . S
C36 O29 1.247 . S
C36 O30 1.261 1_545 S
C37 O32 1.259 1_655 S
C37 O34 1.235 1_565 S
O38 Co28 2.021 . S
O38 C35 1.238 . S
O39 Co33 2.052 1_455 S
O39 C35 1.241 . S
O40 Co28 2.137 . S
O40 C31 1.247 1_455 S
O41 Co28 2.244 . S
O41 C31 1.272 1_455 S
O41 Co33 2.135 1_455 S
C42 C43 1.443 . S
C42 N46 1.376 . S
C42 C80 1.389 . S
C43 C42 1.443 . S
C43 C44 1.340 . S
C43 H83 0.951 . S
C44 C43 1.340 . S
C44 C45 1.439 . S
C44 H84 0.950 . S
C45 C44 1.439 . S
C45 N46 1.374 . S
C45 C79 1.395 . S
N46 C42 1.376 . S
N46 C45 1.374 . S
N46 Co47 2.008 . S
Co47 N46 2.008 . S
Co47 N48 1.995 . S
Co47 N53 2.008 1_455 S
Co47 N58 1.995 1_455 S
Co47 N63 2.282 . S
Co47 N69 2.282 . S
N48 Co47 1.995 . S
N48 C49 1.376 . S
N48 C52 1.383 . S
C49 N48 1.376 . S
C49 C50 1.446 . S
C49 C79 1.391 . S
C50 C49 1.446 . S
C50 C51 1.339 . S
C50 H85 0.949 . S
C51 C50 1.339 . S
C51 C52 1.439 . S
C51 H86 0.950 . S
C52 N48 1.383 . S
C52 C51 1.439 . S
C52 C81 1.392 . S
N53 Co47 2.008 1_655 S
N53 C54 1.376 . S
N53 C57 1.374 . S
C54 N53 1.376 . S
C54 C55 1.443 . S
C54 C81 1.389 1_655 S
C55 C54 1.443 . S
C55 C56 1.340 . S
C55 H87 0.951 . S
C56 C55 1.340 . S
C56 C57 1.439 . S
C56 H88 0.950 . S
C57 N53 1.374 . S
C57 C56 1.439 . S
C57 C82 1.395 . S
N58 Co47 1.995 1_655 S
N58 C59 1.376 . S
N58 C62 1.383 . S
C59 N58 1.376 . S
C59 C60 1.446 . S
C59 C82 1.391 . S
C60 C59 1.446 . S
C60 C61 1.339 . S
C60 H89 0.949 . S
C61 C60 1.339 . S
C61 C62 1.439 . S
C61 H90 0.950 . S
C62 N58 1.383 . S
C62 C61 1.439 . S
C62 C80 1.392 1_655 S
N63 Co47 2.282 . S
N63 C66 1.332 1_455 S
N63 C68 1.332 . S
C64 C65 1.386 1_455 S
C64 C67 1.388 . S
C65 C64 1.386 1_655 S
C65 C66 1.382 . S
C65 H91 0.950 . S
C66 N63 1.332 1_655 S
C66 C65 1.382 . S
C66 H77 0.952 . S
C67 C64 1.388 . S
C67 C68 1.382 . S
C67 H92 0.950 . S
C68 N63 1.332 . S
C68 C67 1.382 . S
C68 H78 0.948 . S
N69 Co47 2.282 . S
N69 C73 1.332 . S
N69 C74 1.332 1_455 S
C70 C71 1.388 1_655 S
C70 C74 1.382 . S
C70 H93 0.950 . S
C71 C70 1.388 1_455 S
C71 C72 1.386 . S
C72 C71 1.386 . S
C72 C73 1.382 . S
C72 H94 0.950 . S
C73 N69 1.332 . S
C73 C72 1.382 . S
C73 H75 0.952 . S
C74 N69 1.332 1_655 S
C74 C70 1.382 . S
C74 H76 0.948 . S
H75 C73 0.952 . S
H76 C74 0.948 . S
H77 C66 0.952 . S
H78 C68 0.948 . S
C79 C45 1.395 . S
C79 C49 1.391 . S
C80 C42 1.389 . S
C80 C62 1.392 1_455 S
C81 C52 1.392 . S
C81 C54 1.389 1_455 S
C82 C57 1.395 . S
C82 C59 1.391 . S
H83 C43 0.951 . S
H84 C44 0.950 . S
H85 C50 0.949 . S
H86 C51 0.950 . S
H87 C55 0.951 . S
H88 C56 0.950 . S
H89 C60 0.949 . S
H90 C61 0.950 . S
H91 C65 0.950 . S
H92 C67 0.950 . S
H93 C70 0.950 . S
H94 C72 0.950 . S
C95 C96 1.443 1_545 S
C95 N99 1.376 . S
C95 C133 1.389 . S
C96 C95 1.443 1_565 S
C96 C97 1.340 . S
C96 H136 0.951 . S
C97 C96 1.340 . S
C97 C98 1.439 . S
C97 H137 0.950 . S
C98 C97 1.439 . S
C98 N99 1.374 1_565 S
C98 C132 1.395 . S
N99 C95 1.376 . S
N99 C98 1.374 1_545 S
N99 Co100 2.008 . S
Co100 N99 2.008 . S
Co100 N101 1.995 . S
Co100 N106 2.008 . S
Co100 N111 1.995 . S
Co100 N116 2.282 . S
Co100 N122 2.282 . S
N101 Co100 1.995 . S
N101 C102 1.376 1_545 S
N101 C105 1.383 . S
C102 N101 1.376 1_565 S
C102 C103 1.446 . S
C102 C132 1.391 . S
C103 C102 1.446 . S
C103 C104 1.339 . S
C103 H138 0.949 . S
C104 C103 1.339 . S
C104 C105 1.439 1_565 S
C104 H139 0.950 . S
C105 N101 1.383 . S
C105 C104 1.439 1_545 S
C105 C134 1.392 . S
N106 Co100 2.008 . S
N106 C107 1.376 . S
N106 C110 1.374 . S
C107 N106 1.376 . S
C107 C108 1.443 . S
C107 C134 1.389 . S
C108 C107 1.443 . S
C108 C109 1.340 . S
C108 H140 0.951 . S
C109 C108 1.340 . S
C109 C110 1.439 . S
C109 H141 0.950 . S
C110 N106 1.374 . S
C110 C109 1.439 . S
C110 C135 1.395 . S
N111 Co100 1.995 . S
N111 C112 1.376 . S
N111 C115 1.383 . S
C112 N111 1.376 . S
C112 C113 1.446 . S
C112 C135 1.391 . S
C113 C112 1.446 . S
C113 C114 1.339 . S
C113 H142 0.949 . S
C114 C113 1.339 . S
C114 C115 1.439 . S
C114 H143 0.950 . S
C115 N111 1.383 . S
C115 C114 1.439 . S
C115 C133 1.392 . S
N116 Co100 2.282 . S
N116 C119 1.332 . S
N116 C121 1.332 . S
C117 C118 1.386 . S
C117 C120 1.388 . S
C118 C117 1.386 . S
C118 C119 1.382 . S
C118 H144 0.950 . S
C119 N116 1.332 . S
C119 C118 1.382 . S
C119 H130 0.952 . S
C120 C117 1.388 . S
C120 C121 1.382 . S
C120 H145 0.950 1_545 S
C121 N116 1.332 . S
C121 C120 1.382 . S
C121 H131 0.948 1_545 S
N122 Co100 2.282 . S
N122 C126 1.332 . S
N122 C127 1.332 . S
C123 C124 1.388 . S
C123 C127 1.382 . S
C123 H146 0.950 . S
C124 C123 1.388 . S
C124 C125 1.386 . S
C125 C124 1.386 . S
C125 C126 1.382 . S
C125 H147 0.950 1_545 S
C126 N122 1.332 . S
C126 C125 1.382 . S
C126 H128 0.952 1_545 S
C127 N122 1.332 . S
C127 C123 1.382 . S
C127 H129 0.948 . S
H128 C126 0.952 1_565 S
H129 C127 0.948 . S
H130 C119 0.952 . S
H131 C121 0.948 1_565 S
C132 C98 1.395 . S
C132 C102 1.391 . S
C133 C95 1.389 . S
C133 C115 1.392 . S
C134 C105 1.392 . S
C134 C107 1.389 . S
C135 C110 1.395 . S
C135 C112 1.391 . S
H136 C96 0.951 . S
H137 C97 0.950 . S
H138 C103 0.949 . S
H139 C104 0.950 . S
H140 C108 0.951 . S
H141 C109 0.950 . S
H142 C113 0.949 . S
H143 C114 0.950 . S
H144 C118 0.950 . S
H145 C120 0.950 1_565 S
H146 C123 0.950 . S
H147 C125 0.950 1_565 S
C148 C149 1.443 . S
C148 N152 1.376 . S
C148 C186 1.389 . S
C149 C148 1.443 . S
C149 C150 1.340 . S
C149 H189 0.951 . S
C150 C149 1.340 . S
C150 C151 1.439 . S
C150 H190 0.950 . S
C151 C150 1.439 . S
C151 N152 1.374 . S
C151 C185 1.395 . S
N152 C148 1.376 . S
N152 C151 1.374 . S
N152 Co153 2.008 . S
Co153 N152 2.008 . S
Co153 N154 1.995 . S
Co153 N159 2.008 . S
Co153 N164 1.995 . S
Co153 N169 2.282 . S
Co153 N175 2.282 . S
N154 Co153 1.995 . S
N154 C155 1.376 . S
N154 C158 1.383 . S
C155 N154 1.376 . S
C155 C156 1.446 . S
C155 C185 1.391 . S
C156 C155 1.446 . S
C156 C157 1.339 . S
C156 H191 0.949 . S
C157 C156 1.339 . S
C157 C158 1.439 . S
C157 H192 0.950 . S
C158 N154 1.383 . S
C158 C157 1.439 . S
C158 C187 1.392 . S
N159 Co153 2.008 . S
N159 C160 1.376 . S
N159 C163 1.374 . S
C160 N159 1.376 . S
C160 C161 1.443 . S
C160 C187 1.389 . S
C161 C160 1.443 . S
C161 C162 1.340 . S
C161 H193 0.951 . S
C162 C161 1.340 . S
C162 C163 1.439 . S
C162 H194 0.950 . S
C163 N159 1.374 . S
C163 C162 1.439 . S
C163 C188 1.395 . S
N164 Co153 1.995 . S
N164 C165 1.376 . S
N164 C168 1.383 . S
C165 N164 1.376 . S
C165 C166 1.446 . S
C165 C188 1.391 . S
C166 C165 1.446 . S
C166 C167 1.339 . S
C166 H195 0.949 . S
C167 C166 1.339 . S
C167 C168 1.439 . S
C167 H196 0.950 . S
C168 N164 1.383 . S
C168 C167 1.439 . S
C168 C186 1.392 . S
N169 Co153 2.282 . S
N169 C172 1.332 . S
N169 C174 1.332 . S
C170 C171 1.386 . S
C170 C173 1.388 . S
C171 C170 1.386 . S
C171 C172 1.382 . S
C171 H197 0.950 . S
C172 N169 1.332 . S
C172 C171 1.382 . S
C172 H183 0.952 . S
C173 C170 1.388 . S
C173 C174 1.382 . S
C173 H198 0.950 . S
C174 N169 1.332 . S
C174 C173 1.382 . S
C174 H184 0.948 . S
N175 Co153 2.282 . S
N175 C179 1.332 . S
N175 C180 1.332 . S
C176 C177 1.388 . S
C176 C180 1.382 . S
C176 H199 0.950 . S
C177 C176 1.388 . S
C177 C178 1.386 . S
C178 C177 1.386 . S
C178 C179 1.382 . S
C178 H200 0.950 . S
C179 N175 1.332 . S
C179 C178 1.382 . S
C179 H181 0.952 . S
C180 N175 1.332 . S
C180 C176 1.382 . S
C180 H182 0.948 . S
H181 C179 0.952 . S
H182 C180 0.948 . S
H183 C172 0.952 . S
H184 C174 0.948 . S
C185 C151 1.395 . S
C185 C155 1.391 . S
C186 C148 1.389 . S
C186 C168 1.392 . S
C187 C158 1.392 . S
C187 C160 1.389 . S
C188 C163 1.395 . S
C188 C165 1.391 . S
H189 C149 0.951 . S
H190 C150 0.950 . S
H191 C156 0.949 . S
H192 C157 0.950 . S
H193 C161 0.951 . S
H194 C162 0.950 . S
H195 C166 0.949 . S
H196 C167 0.950 . S
H197 C171 0.950 . S
H198 C173 0.950 . S
H199 C176 0.950 . S
H200 C178 0.950 . S
C201 C202 1.387 . S
C201 H205 0.950 . S
C201 C210 1.390 . S
C202 C201 1.387 . S
C202 C204 1.387 . S
H203 C210 0.950 . S
C204 C202 1.387 . S
C204 C206 1.390 . S
C204 H208 0.950 . S
H205 C201 0.950 . S
C206 C204 1.390 . S
C206 C207 1.387 . S
C206 H209 0.950 . S
C207 C206 1.387 . S
C207 C210 1.387 . S
H208 C204 0.950 . S
H209 C206 0.950 . S
C210 C201 1.390 . S
C210 H203 0.950 . S
C210 C207 1.387 . S
C211 C212 1.387 . S
C211 H215 0.950 1_545 S
C211 C220 1.390 . S
C212 C211 1.387 . S
C212 C214 1.387 . S
H213 C220 0.950 1_565 S
C214 C212 1.387 . S
C214 C216 1.390 . S
C214 H218 0.950 . S
H215 C211 0.950 1_565 S
C216 C214 1.390 . S
C216 C217 1.387 . S
C216 H219 0.950 . S
C217 C216 1.387 . S
C217 C220 1.387 . S
H218 C214 0.950 . S
H219 C216 0.950 . S
C220 C211 1.390 . S
C220 H213 0.950 1_545 S
C220 C217 1.387 . S
C221 C222 1.387 . S
C221 H225 0.950 . S
C221 C230 1.390 . S
C222 C221 1.387 . S
C222 C224 1.387 . S
H223 C230 0.950 . S
C224 C222 1.387 . S
C224 C226 1.390 . S
C224 H228 0.950 . S
H225 C221 0.950 . S
C226 C224 1.390 . S
C226 C227 1.387 . S
C226 H229 0.950 . S
C227 C226 1.387 . S
C227 C230 1.387 . S
H228 C224 0.950 . S
H229 C226 0.950 . S
C230 C221 1.390 . S
C230 H223 0.950 . S
C230 C227 1.387 . S
C231 C232 1.387 . S
C231 H235 0.950 . S
C231 C240 1.390 . S
C232 C231 1.387 . S
C232 C234 1.387 . S
H233 C240 0.950 . S
C234 C232 1.387 . S
C234 C236 1.390 . S
C234 H238 0.950 . S
H235 C231 0.950 . S
C236 C234 1.390 . S
C236 C237 1.387 . S
C236 H239 0.950 . S
C237 C236 1.387 . S
C237 C240 1.387 . S
H238 C234 0.950 . S
H239 C236 0.950 . S
C240 C231 1.390 . S
C240 H233 0.950 . S
C240 C237 1.387 . S
C241 C242 1.387 . S
C241 H245 0.950 . S
C241 C250 1.390 . S
C242 C241 1.387 . S
C242 C244 1.387 . S
H243 C250 0.950 . S
C244 C242 1.387 . S
C244 C246 1.390 . S
C244 H248 0.950 1_545 S
H245 C241 0.950 . S
C246 C244 1.390 . S
C246 C247 1.387 . S
C246 H249 0.950 1_545 S
C247 C246 1.387 . S
C247 C250 1.387 . S
H248 C244 0.950 1_565 S
H249 C246 0.950 1_565 S
C250 C241 1.390 . S
C250 H243 0.950 . S
C250 C247 1.387 . S
C251 C252 1.387 . S
C251 H255 0.950 . S
C251 C260 1.390 . S
C252 C251 1.387 . S
C252 C254 1.387 . S
H253 C260 0.950 . S
C254 C252 1.387 . S
C254 C256 1.390 . S
C254 H258 0.950 . S
H255 C251 0.950 . S
C256 C254 1.390 . S
C256 C257 1.387 . S
C256 H259 0.950 . S
C257 C256 1.387 . S
C257 C260 1.387 . S
H258 C254 0.950 . S
H259 C256 0.950 . S
C260 C251 1.390 . S
C260 H253 0.950 . S
C260 C257 1.387 . S
C261 C262 1.387 . S
C261 H265 0.950 1_545 S
C261 C270 1.390 . S
C262 C261 1.387 . S
C262 C264 1.387 . S
H263 C270 0.950 1_565 S
C264 C262 1.387 . S
C264 C266 1.390 . S
C264 H268 0.950 . S
H265 C261 0.950 1_565 S
C266 C264 1.390 . S
C266 C267 1.387 . S
C266 H269 0.950 . S
C267 C266 1.387 . S
C267 C270 1.387 . S
H268 C264 0.950 . S
H269 C266 0.950 . S
C270 C261 1.390 . S
C270 H263 0.950 1_545 S
C270 C267 1.387 . S
C271 C272 1.387 . S
C271 H275 0.950 1_565 S
C271 C280 1.390 . S
C272 C271 1.387 . S
C272 C274 1.387 1_556 S
H273 C280 0.950 . S
C274 C272 1.387 1_554 S
C274 C276 1.390 1_554 S
C274 H278 0.950 . S
H275 C271 0.950 1_545 S
C276 C274 1.390 1_556 S
C276 C277 1.387 . S
C276 H279 0.950 . S
C277 C276 1.387 . S
C277 C280 1.387 . S
H278 C274 0.950 . S
H279 C276 0.950 . S
C280 C271 1.390 . S
C280 H273 0.950 . S
C280 C277 1.387 . S
C281 C282 1.387 . S
C281 H285 0.950 1_455 S
C281 C290 1.390 . S
C282 C281 1.387 . S
C282 C284 1.387 . S
H283 C290 0.950 1_655 S
C284 C282 1.387 . S
C284 C286 1.390 . S
C284 H288 0.950 1_565 S
H285 C281 0.950 1_655 S
C286 C284 1.390 . S
C286 C287 1.387 . S
C286 H289 0.950 . S
C287 C286 1.387 . S
C287 C290 1.387 . S
H288 C284 0.950 1_545 S
H289 C286 0.950 . S
C290 C281 1.390 . S
C290 H283 0.950 1_455 S
C290 C287 1.387 . S
C291 C292 1.387 . S
C291 H295 0.950 . S
C291 C300 1.390 . S
C292 C291 1.387 . S
C292 C294 1.387 . S
H293 C300 0.950 . S
C294 C292 1.387 . S
C294 C296 1.390 . S
C294 H298 0.950 1_545 S
H295 C291 0.950 . S
C296 C294 1.390 . S
C296 C297 1.387 . S
C296 H299 0.950 1_545 S
C297 C296 1.387 . S
C297 C300 1.387 . S
H298 C294 0.950 1_565 S
H299 C296 0.950 1_565 S
C300 C291 1.390 . S
C300 H293 0.950 . S
C300 C297 1.387 . S
C301 C302 1.387 . S
C301 H305 0.950 1_556 S
C301 C310 1.390 . S
C302 C301 1.387 . S
C302 C304 1.387 . S
H303 C310 0.950 . S
C304 C302 1.387 . S
C304 C306 1.390 . S
C304 H308 0.950 . S
H305 C301 0.950 1_554 S
C306 C304 1.390 . S
C306 C307 1.387 . S
C306 H309 0.950 . S
C307 C306 1.387 . S
C307 C310 1.387 . S
H308 C304 0.950 . S
H309 C306 0.950 . S
C310 C301 1.390 . S
C310 H303 0.950 . S
C310 C307 1.387 . S
C311 C312 1.387 . S
C311 H315 0.950 . S
C311 C320 1.390 . S
C312 C311 1.387 . S
C312 C314 1.387 . S
H313 C320 0.950 . S
C314 C312 1.387 . S
C314 C316 1.390 . S
C314 H318 0.950 . S
H315 C311 0.950 . S
C316 C314 1.390 . S
C316 C317 1.387 . S
C316 H319 0.950 . S
C317 C316 1.387 . S
C317 C320 1.387 . S
H318 C314 0.950 . S
H319 C316 0.950 . S
C320 C311 1.390 . S
C320 H313 0.950 . S
C320 C317 1.387 . S
C207 C64 1.498 . S
C202 C3 1.498 . S
C212 C21 1.512 . S
C217 C134 1.526 . S
C222 C37 1.485 . S
C227 C186 1.506 . S
C232 C8 1.507 . S
C237 C80 1.503 . S
C247 C124 1.504 . S
C242 C23 1.486 . S
C252 C35 1.478 . S
C257 C170 1.500 . S
C267 C117 1.492 . S
C262 C31 1.490 . S
C272 C7 1.479 1_556 S
C277 C177 1.501 . S
C287 C71 1.499 . S
C282 C17 1.497 1_565 S
C297 C133 1.477 . S
C292 C36 1.480 . S
C307 C187 1.507 . S
C302 C9 1.483 1_556 S
C312 C22 1.508 . S
C317 C81 1.506 . S
