# Generated by pormake.
# Topology ocu, (6,8)-cn, num edge types: 1
# Building blocks:
#     Node 0, Type 0, BuildingBlock: KUMBUR_clean_sbu_1, # of connection points: 6
#     Node 1, Type 0, BuildingBlock: KUMBUR_clean_sbu_1, # of connection points: 6
#     Node 2, Type 0, BuildingBlock: KUMBUR_clean_sbu_1, # of connection points: 6
#     Node 3, Type 0, BuildingBlock: KUMBUR_clean_sbu_1, # of connection points: 6
#     Node 4, Type 0, BuildingBlock: KUMBUR_clean_sbu_1, # of connection points: 6
#     Node 5, Type 0, BuildingBlock: KUMBUR_clean_sbu_1, # of connection points: 6
#     Node 6, Type 0, BuildingBlock: KUMBUR_clean_sbu_1, # of connection points: 6
#     Node 7, Type 0, BuildingBlock: KUMBUR_clean_sbu_1, # of connection points: 6
#     Node 8, Type 1, BuildingBlock: VETTIZ_charged_sbu_0, # of connection points: 8
#     Node 9, Type 1, BuildingBlock: VETTIZ_charged_sbu_0, # of connection points: 8
#     Node 10, Type 1, BuildingBlock: VETTIZ_charged_sbu_0, # of connection points: 8
#     Node 11, Type 1, BuildingBlock: VETTIZ_charged_sbu_0, # of connection points: 8
#     Node 12, Type 1, BuildingBlock: VETTIZ_charged_sbu_0, # of connection points: 8
#     Node 13, Type 1, BuildingBlock: VETTIZ_charged_sbu_0, # of connection points: 8
#     Edge 14, Type (0, 1), BuildingBlock: TEMPAE_clean_linker_10, # of connection points: 2
#     Edge 15, Type (0, 1), BuildingBlock: TEMPAE_clean_linker_10, # of connection points: 2
#     Edge 16, Type (0, 1), BuildingBlock: TEMPAE_clean_linker_10, # of connection points: 2
#     Edge 17, Type (0, 1), BuildingBlock: TEMPAE_clean_linker_10, # of connection points: 2
#     Edge 18, Type (0, 1), BuildingBlock: TEMPAE_clean_linker_10, # of connection points: 2
#     Edge 19, Type (0, 1), BuildingBlock: TEMPAE_clean_linker_10, # of connection points: 2
#     Edge 20, Type (0, 1), BuildingBlock: TEMPAE_clean_linker_10, # of connection points: 2
#     Edge 21, Type (0, 1), BuildingBlock: TEMPAE_clean_linker_10, # of connection points: 2
#     Edge 22, Type (0, 1), BuildingBlock: TEMPAE_clean_linker_10, # of connection points: 2
#     Edge 23, Type (0, 1), BuildingBlock: TEMPAE_clean_linker_10, # of connection points: 2
#     Edge 24, Type (0, 1), BuildingBlock: TEMPAE_clean_linker_10, # of connection points: 2
#     Edge 25, Type (0, 1), BuildingBlock: TEMPAE_clean_linker_10, # of connection points: 2
#     Edge 26, Type (0, 1), BuildingBlock: TEMPAE_clean_linker_10, # of connection points: 2
#     Edge 27, Type (0, 1), BuildingBlock: TEMPAE_clean_linker_10, # of connection points: 2
#     Edge 28, Type (0, 1), BuildingBlock: TEMPAE_clean_linker_10, # of connection points: 2
#     Edge 29, Type (0, 1), BuildingBlock: TEMPAE_clean_linker_10, # of connection points: 2
#     Edge 30, Type (0, 1), BuildingBlock: TEMPAE_clean_linker_10, # of connection points: 2
#     Edge 31, Type (0, 1), BuildingBlock: TEMPAE_clean_linker_10, # of connection points: 2
#     Edge 32, Type (0, 1), BuildingBlock: TEMPAE_clean_linker_10, # of connection points: 2
#     Edge 33, Type (0, 1), BuildingBlock: TEMPAE_clean_linker_10, # of connection points: 2
#     Edge 34, Type (0, 1), BuildingBlock: TEMPAE_clean_linker_10, # of connection points: 2
#     Edge 35, Type (0, 1), BuildingBlock: TEMPAE_clean_linker_10, # of connection points: 2
#     Edge 36, Type (0, 1), BuildingBlock: TEMPAE_clean_linker_10, # of connection points: 2
#     Edge 37, Type (0, 1), BuildingBlock: TEMPAE_clean_linker_10, # of connection points: 2
#     Edge 38, Type (0, 1), BuildingBlock: TEMPAE_clean_linker_10, # of connection points: 2
#     Edge 39, Type (0, 1), BuildingBlock: TEMPAE_clean_linker_10, # of connection points: 2
#     Edge 40, Type (0, 1), BuildingBlock: TEMPAE_clean_linker_10, # of connection points: 2
#     Edge 41, Type (0, 1), BuildingBlock: TEMPAE_clean_linker_10, # of connection points: 2
#     Edge 42, Type (0, 1), BuildingBlock: TEMPAE_clean_linker_10, # of connection points: 2
#     Edge 43, Type (0, 1), BuildingBlock: TEMPAE_clean_linker_10, # of connection points: 2
#     Edge 44, Type (0, 1), BuildingBlock: TEMPAE_clean_linker_10, # of connection points: 2
#     Edge 45, Type (0, 1), BuildingBlock: TEMPAE_clean_linker_10, # of connection points: 2
#     Edge 46, Type (0, 1), BuildingBlock: TEMPAE_clean_linker_10, # of connection points: 2
#     Edge 47, Type (0, 1), BuildingBlock: TEMPAE_clean_linker_10, # of connection points: 2
#     Edge 48, Type (0, 1), BuildingBlock: TEMPAE_clean_linker_10, # of connection points: 2
#     Edge 49, Type (0, 1), BuildingBlock: TEMPAE_clean_linker_10, # of connection points: 2
#     Edge 50, Type (0, 1), BuildingBlock: TEMPAE_clean_linker_10, # of connection points: 2
#     Edge 51, Type (0, 1), BuildingBlock: TEMPAE_clean_linker_10, # of connection points: 2
#     Edge 52, Type (0, 1), BuildingBlock: TEMPAE_clean_linker_10, # of connection points: 2
#     Edge 53, Type (0, 1), BuildingBlock: TEMPAE_clean_linker_10, # of connection points: 2
#     Edge 54, Type (0, 1), BuildingBlock: TEMPAE_clean_linker_10, # of connection points: 2
#     Edge 55, Type (0, 1), BuildingBlock: TEMPAE_clean_linker_10, # of connection points: 2
#     Edge 56, Type (0, 1), BuildingBlock: TEMPAE_clean_linker_10, # of connection points: 2
#     Edge 57, Type (0, 1), BuildingBlock: TEMPAE_clean_linker_10, # of connection points: 2
#     Edge 58, Type (0, 1), BuildingBlock: TEMPAE_clean_linker_10, # of connection points: 2
#     Edge 59, Type (0, 1), BuildingBlock: TEMPAE_clean_linker_10, # of connection points: 2
#     Edge 60, Type (0, 1), BuildingBlock: TEMPAE_clean_linker_10, # of connection points: 2
#     Edge 61, Type (0, 1), BuildingBlock: TEMPAE_clean_linker_10, # of connection points: 2
# Relax obj value: 0.071
# Max RMSD: 0.135
# Mean RMSD: 0.101
data_MOF--net-ocu--node1-KUMBUR_clean_sbu_1--node2-VETTIZ_charged_sbu_0--edge1-TEMPAE_clean_linker_10
_symmetry_space_group_name_H-M    P1
_symmetry_Int_Tables_number       1
_symmetry_cell_setting            triclinic
loop_
_symmetry_equiv_pos_as_xyz
'x, y, z'
_cell_length_a     39.652024
_cell_length_b     40.310428
_cell_length_c     41.628385
_cell_angle_alpha  100.33242
_cell_angle_beta   80.331711
_cell_angle_gamma 103.83906
loop_
_atom_site_label
_atom_site_type_symbol
_atom_site_fract_x
_atom_site_fract_y
_atom_site_fract_z
_atom_type_partial_charge
Tb0 Tb 0.24456 0.25953 0.24327 0.0
C1 C 0.32747 0.34925 0.35718 0.0
N2 N 0.34028 0.33459 0.32691 0.0
C3 C 0.38541 0.38572 0.32158 0.0
C4 C 0.34285 0.38314 0.37048 0.0
C5 C 0.36956 0.35193 0.30951 0.0
C6 C 0.37187 0.4015 0.35207 0.0
C7 C 0.28526 0.34434 0.4067 0.0
C8 C 0.29897 0.33005 0.37518 0.0
C9 C 0.30044 0.37815 0.41987 0.0
C10 C 0.32908 0.39751 0.4018 0.0
Tb11 Tb 0.3118 0.2791 0.31127 0.0
N12 N 0.284 0.29777 0.36128 0.0
C13 C 0.25647 0.32428 0.4239 0.0
C14 C 0.25709 0.27755 0.37857 0.0
C15 C 0.24253 0.29064 0.40987 0.0
H16 H 0.38156 0.33953 0.2868 0.0
H17 H 0.22077 0.27465 0.42326 0.0
H18 H 0.19442 0.18324 0.26263 0.0
H19 H 0.31427 0.29714 0.1284 0.0
H20 H 0.2471 0.25135 0.36849 0.0
H21 H 0.24507 0.33438 0.44811 0.0
H22 H 0.29083 0.30651 0.18731 0.0
H23 H 0.40841 0.39939 0.30758 0.0
H24 H 0.29016 0.38962 0.44398 0.0
H25 H 0.34054 0.42354 0.41236 0.0
H26 H 0.18083 0.12358 0.23529 0.0
H27 H 0.38441 0.4276 0.36144 0.0
H28 H 0.30299 0.23832 0.09677 0.0
N29 N 0.22876 0.20237 0.22144 0.0
C30 C 0.24063 0.19475 0.18888 0.0
C31 C 0.1981 0.14328 0.22208 0.0
C32 C 0.2325 0.16084 0.17196 0.0
C33 C 0.20663 0.17733 0.23779 0.0
C34 C 0.21134 0.13491 0.18914 0.0
N35 N 0.26899 0.25344 0.18963 0.0
C36 C 0.28701 0.28068 0.17412 0.0
C37 C 0.27328 0.21464 0.13854 0.0
C38 C 0.26088 0.22124 0.17231 0.0
C39 C 0.29305 0.24228 0.12273 0.0
C40 C 0.29969 0.27549 0.14056 0.0
H41 H 0.20447 0.10853 0.17704 0.0
H42 H 0.23948 0.12804 0.12508 0.0
H43 H 0.27515 0.17516 0.09583 0.0
O44 O 0.22549 0.2981 0.22653 0.0
O45 O 0.29128 0.23609 0.22799 0.0
O46 O 0.33295 0.25071 0.26484 0.0
O47 O 0.19443 0.24594 0.2293 0.0
O48 O 0.28232 0.30957 0.25064 0.0
O49 O 0.3323 0.29978 0.26553 0.0
O50 O 0.31755 0.24419 0.34104 0.0
O51 O 0.27096 0.31052 0.31782 0.0
O52 O 0.22326 0.27699 0.29388 0.0
O53 O 0.36066 0.28511 0.32705 0.0
O54 O 0.2776 0.22825 0.3003 0.0
O55 O 0.226 0.23528 0.28809 0.0
C56 C 0.3213 0.23442 0.23691 0.0
C57 C 0.16572 0.28382 0.21017 0.0
C58 C 0.13966 0.31661 0.18055 0.0
C59 C 0.10724 0.29361 0.18609 0.0
C60 C 0.13279 0.26141 0.21544 0.0
C61 C 0.10384 0.26639 0.20359 0.0
C62 C 0.16899 0.31195 0.19303 0.0
C63 C 0.31675 0.31507 0.2488 0.0
C64 C 0.19607 0.27622 0.22177 0.0
C65 C 0.24535 0.15398 0.13842 0.0
C66 C 0.26563 0.18081 0.12174 0.0
C67 C 0.23711 0.3029 0.3151 0.0
C68 C 0.37415 0.2325 0.33156 0.0
C69 C 0.39662 0.18603 0.34481 0.0
C70 C 0.41767 0.18486 0.31405 0.0
C71 C 0.39578 0.23128 0.30113 0.0
C72 C 0.37486 0.20999 0.35345 0.0
C73 C 0.4174 0.20757 0.29251 0.0
C74 C 0.24341 0.22114 0.3042 0.0
C75 C 0.351 0.25723 0.34083 0.0
H76 H 0.08439 0.29684 0.1769 0.0
H77 H 0.12936 0.23976 0.22867 0.0
H78 H 0.07868 0.2489 0.20777 0.0
H79 H 0.19418 0.32937 0.18857 0.0
H80 H 0.43508 0.16702 0.30706 0.0
H81 H 0.39595 0.24855 0.28392 0.0
H82 H 0.35855 0.21113 0.37713 0.0
H83 H 0.43411 0.20689 0.26911 0.0
Tb84 Tb 0.74224 0.298 0.27238 0.0
C85 C 0.84157 0.21378 0.19376 0.0
N86 N 0.80916 0.20231 0.20977 0.0
C87 C 0.7936 0.16387 0.16074 0.0
C88 C 0.85066 0.20212 0.16012 0.0
C89 C 0.78624 0.17573 0.19432 0.0
C90 C 0.82569 0.17769 0.14336 0.0
C91 C 0.90137 0.24552 0.19726 0.0
C92 C 0.86657 0.23516 0.2119 0.0
C93 C 0.91014 0.2356 0.16335 0.0
C94 C 0.88477 0.21402 0.14477 0.0
Tb95 Tb 0.79943 0.22623 0.2641 0.0
N96 N 0.85688 0.24482 0.24441 0.0
C97 C 0.92633 0.26488 0.21733 0.0
C98 C 0.88132 0.26235 0.26445 0.0
C99 C 0.91634 0.27291 0.25117 0.0
H100 H 0.76245 0.16299 0.20781 0.0
H101 H 0.93556 0.28727 0.267 0.0
H102 H 0.75516 0.3465 0.34378 0.0
H103 H 0.62074 0.2289 0.22598 0.0
H104 H 0.87372 0.26826 0.2906 0.0
H105 H 0.95342 0.27323 0.20708 0.0
H106 H 0.68165 0.26238 0.22129 0.0
H107 H 0.77481 0.14356 0.14848 0.0
H108 H 0.93661 0.24376 0.15145 0.0
H109 H 0.89213 0.20569 0.11884 0.0
H110 H 0.72255 0.3541 0.39987 0.0
H111 H 0.83156 0.16807 0.11748 0.0
H112 H 0.58661 0.22343 0.28105 0.0
N113 N 0.71365 0.30844 0.32429 0.0
C114 C 0.67972 0.29144 0.32962 0.0
C115 C 0.71029 0.33618 0.38037 0.0
C116 C 0.66018 0.29465 0.36111 0.0
C117 C 0.72872 0.33181 0.34867 0.0
C118 C 0.67606 0.31711 0.38676 0.0
N119 N 0.68414 0.27084 0.27289 0.0
C120 C 0.66793 0.25815 0.24535 0.0
C121 C 0.62923 0.25392 0.30713 0.0
C122 C 0.6647 0.27124 0.30307 0.0
C123 C 0.61379 0.23709 0.27906 0.0
C124 C 0.63299 0.24002 0.24796 0.0
H125 H 0.66195 0.32032 0.41137 0.0
H126 H 0.61014 0.27733 0.3899 0.0
H127 H 0.5829 0.24173 0.34253 0.0
O128 O 0.71207 0.32964 0.26101 0.0
O129 O 0.74112 0.26982 0.3133 0.0
O130 O 0.74499 0.21603 0.28707 0.0
O131 O 0.76533 0.35032 0.26956 0.0
O132 O 0.73936 0.25781 0.22865 0.0
O133 O 0.74736 0.20982 0.24691 0.0
O134 O 0.81082 0.21117 0.30632 0.0
O135 O 0.82203 0.27595 0.24606 0.0
O136 O 0.7766 0.28771 0.22627 0.0
O137 O 0.81033 0.17708 0.26045 0.0
O138 O 0.80787 0.26811 0.30608 0.0
O139 O 0.79156 0.31642 0.29436 0.0
C140 C 0.73257 0.23624 0.31218 0.0
C141 C 0.74512 0.37002 0.22728 0.0
C142 C 0.72223 0.38533 0.18223 0.0
C143 C 0.75654 0.39345 0.16596 0.0
C144 C 0.77928 0.3787 0.2107 0.0
C145 C 0.78482 0.39047 0.18031 0.0
C146 C 0.71674 0.37392 0.21306 0.0
C147 C 0.73369 0.22404 0.22745 0.0
C148 C 0.7385 0.35559 0.25857 0.0
C149 C 0.62548 0.27572 0.36576 0.0
C150 C 0.61003 0.25534 0.33881 0.0
C151 C 0.81021 0.28881 0.2245 0.0
C152 C 0.85001 0.17373 0.29549 0.0
C153 C 0.88245 0.15295 0.32974 0.0
C154 C 0.91237 0.15879 0.30623 0.0
C155 C 0.87995 0.17863 0.27198 0.0
C156 C 0.85131 0.16063 0.32422 0.0
C157 C 0.91101 0.17147 0.27753 0.0
C158 C 0.80901 0.3018 0.3104 0.0
C159 C 0.81726 0.18203 0.29054 0.0
H160 H 0.76158 0.40291 0.14246 0.0
H161 H 0.80173 0.37618 0.22099 0.0
H162 H 0.81112 0.39737 0.16779 0.0
H163 H 0.69031 0.36751 0.22571 0.0
H164 H 0.93661 0.1528 0.30971 0.0
H165 H 0.87937 0.18777 0.24927 0.0
H166 H 0.82817 0.15659 0.34232 0.0
H167 H 0.93403 0.17545 0.25937 0.0
Tb168 Tb 0.77765 0.7409 0.30799 0.0
C169 C 0.85576 0.81673 0.19619 0.0
N170 N 0.84205 0.83027 0.22652 0.0
C171 C 0.89638 0.87158 0.23197 0.0
C172 C 0.89083 0.82912 0.18318 0.0
C173 C 0.86125 0.85883 0.2435 0.0
C174 C 0.91144 0.85627 0.20195 0.0
C175 C 0.84607 0.77869 0.14479 0.0
C176 C 0.83386 0.79185 0.1772 0.0
C177 C 0.8814 0.78978 0.13227 0.0
C178 C 0.90376 0.81488 0.15146 0.0
Tb179 Tb 0.78473 0.80521 0.24303 0.0
N180 N 0.80018 0.78088 0.19052 0.0
C181 C 0.82222 0.75526 0.12586 0.0
C182 C 0.77629 0.75956 0.1717 0.0
C183 C 0.78705 0.74606 0.13923 0.0
H184 H 0.84965 0.87241 0.26577 0.0
H185 H 0.76827 0.72853 0.12459 0.0
H186 H 0.69725 0.69533 0.30206 0.0
H187 H 0.83881 0.81342 0.41369 0.0
H188 H 0.74911 0.75261 0.18203 0.0
H189 H 0.83054 0.7446 0.10079 0.0
H190 H 0.83829 0.78146 0.35741 0.0
H191 H 0.91164 0.89364 0.24598 0.0
H192 H 0.89149 0.77963 0.10756 0.0
H193 H 0.93074 0.82381 0.1412 0.0
H194 H 0.63982 0.68757 0.33706 0.0
H195 H 0.93853 0.86651 0.19289 0.0
H196 H 0.78335 0.81542 0.45037 0.0
N197 N 0.72359 0.73169 0.33833 0.0
C198 C 0.72159 0.74739 0.37011 0.0
C199 C 0.66257 0.70474 0.34654 0.0
C200 C 0.68945 0.74388 0.39094 0.0
C201 C 0.69504 0.70937 0.32669 0.0
C202 C 0.65964 0.72241 0.37868 0.0
N203 N 0.78261 0.76878 0.36064 0.0
C204 C 0.81372 0.78348 0.37249 0.0
C205 C 0.75117 0.78423 0.41411 0.0
C206 C 0.75202 0.76732 0.38136 0.0
C207 C 0.7828 0.802 0.4254 0.0
C208 C 0.81421 0.80099 0.4047 0.0
H209 H 0.63441 0.71898 0.3939 0.0
H210 H 0.66366 0.75988 0.43948 0.0
H211 H 0.71778 0.79519 0.45985 0.0
O212 O 0.79563 0.71215 0.3373 0.0
O213 O 0.73761 0.77303 0.31308 0.0
O214 O 0.76604 0.82413 0.29457 0.0
O215 O 0.76977 0.68713 0.29434 0.0
O216 O 0.82622 0.78053 0.30178 0.0
O217 O 0.80903 0.82672 0.28835 0.0
O218 O 0.73994 0.8135 0.2273 0.0
O219 O 0.8029 0.75558 0.227 0.0
O220 O 0.82523 0.74661 0.27117 0.0
O221 O 0.78826 0.85094 0.22363 0.0
O222 O 0.73612 0.76637 0.25024 0.0
O223 O 0.75231 0.71964 0.26358 0.0
C224 C 0.74222 0.8069 0.31525 0.0
C225 C 0.78768 0.64904 0.32432 0.0
C226 C 0.81238 0.61246 0.35114 0.0
C227 C 0.79321 0.58315 0.33308 0.0
C228 C 0.76881 0.61922 0.30686 0.0
C229 C 0.77158 0.58658 0.31128 0.0
C230 C 0.80945 0.64555 0.34657 0.0
C231 C 0.82944 0.81391 0.3025 0.0
C232 C 0.78446 0.68336 0.31875 0.0
C233 C 0.68819 0.76181 0.42318 0.0
C234 C 0.719 0.78202 0.43473 0.0
C235 C 0.82578 0.74374 0.23902 0.0
C236 C 0.73601 0.87142 0.22936 0.0
C237 C 0.69966 0.90721 0.2155 0.0
C238 C 0.70111 0.92617 0.24743 0.0
C239 C 0.73633 0.89034 0.26103 0.0
C240 C 0.71728 0.87953 0.2069 0.0
C241 C 0.71889 0.9175 0.26996 0.0
C242 C 0.73207 0.73296 0.24978 0.0
C243 C 0.75552 0.84352 0.21905 0.0
H244 H 0.79539 0.55741 0.33531 0.0
H245 H 0.75185 0.62107 0.28969 0.0
H246 H 0.75706 0.56379 0.29754 0.0
H247 H 0.82397 0.66843 0.36025 0.0
H248 H 0.68907 0.94823 0.25507 0.0
H249 H 0.75035 0.88434 0.27868 0.0
H250 H 0.71646 0.86401 0.18284 0.0
H251 H 0.71953 0.93226 0.29438 0.0
Tb252 Tb 0.25047 0.80391 0.28608 0.0
C253 C 0.29406 0.66045 0.29561 0.0
N254 N 0.30158 0.6935 0.31067 0.0
C255 C 0.2957 0.67369 0.36279 0.0
C256 C 0.2861 0.63247 0.31358 0.0
C257 C 0.30385 0.7005 0.34369 0.0
C258 C 0.28636 0.6395 0.34773 0.0
C259 C 0.29025 0.62099 0.24461 0.0
C260 C 0.29617 0.65486 0.26186 0.0
C261 C 0.28104 0.59283 0.26231 0.0
C262 C 0.27896 0.59857 0.29678 0.0
Tb263 Tb 0.31001 0.73574 0.27835 0.0
N264 N 0.30544 0.68279 0.24589 0.0
C265 C 0.29428 0.61654 0.21016 0.0
C266 C 0.31088 0.67854 0.21217 0.0
C267 C 0.3048 0.64549 0.19389 0.0
H268 H 0.31117 0.72688 0.35546 0.0
H269 H 0.30795 0.6424 0.16726 0.0
H270 H 0.16789 0.76213 0.28765 0.0
H271 H 0.31765 0.92117 0.23774 0.0
H272 H 0.31805 0.70066 0.19924 0.0
H273 H 0.28973 0.59097 0.19594 0.0
H274 H 0.30719 0.87706 0.27472 0.0
H275 H 0.29665 0.67941 0.38908 0.0
H276 H 0.2761 0.56658 0.24956 0.0
H277 H 0.27251 0.57666 0.31012 0.0
H278 H 0.11844 0.75772 0.25677 0.0
H279 H 0.28021 0.61877 0.36252 0.0
H280 H 0.27482 0.91835 0.19978 0.0
N281 N 0.20181 0.80137 0.26237 0.0
C282 C 0.20508 0.82313 0.24027 0.0
C283 C 0.14275 0.7762 0.25181 0.0
C284 C 0.17771 0.82184 0.22219 0.0
C285 C 0.17075 0.7788 0.26929 0.0
C286 C 0.14639 0.79752 0.22781 0.0
N287 N 0.25972 0.84892 0.25688 0.0
C288 C 0.28845 0.87553 0.25812 0.0
C289 C 0.23985 0.87264 0.21614 0.0
C290 C 0.2354 0.84792 0.23733 0.0
C291 C 0.27024 0.89887 0.2158 0.0
C292 C 0.29443 0.90059 0.23726 0.0
H293 H 0.12468 0.79553 0.21436 0.0
H294 H 0.16179 0.84466 0.18536 0.0
H295 H 0.21639 0.8893 0.18004 0.0
O296 O 0.23055 0.84436 0.3168 0.0
O297 O 0.30309 0.81166 0.25825 0.0
O298 O 0.3128 0.7589 0.23374 0.0
O299 O 0.23868 0.8018 0.33677 0.0
O300 O 0.30389 0.8201 0.29881 0.0
O301 O 0.30448 0.77413 0.3226 0.0
O302 O 0.35895 0.72406 0.279 0.0
O303 O 0.27001 0.74172 0.32024 0.0
O304 O 0.22487 0.75237 0.29963 0.0
O305 O 0.35519 0.77515 0.27455 0.0
O306 O 0.26779 0.71819 0.24607 0.0
O307 O 0.23485 0.76001 0.24806 0.0
C308 C 0.31335 0.79127 0.23207 0.0
C309 C 0.25426 0.85621 0.36772 0.0
C310 C 0.28158 0.91487 0.39059 0.0
C311 C 0.29567 0.90114 0.41279 0.0
C312 C 0.26743 0.8432 0.39107 0.0
C313 C 0.28848 0.86554 0.41304 0.0
C314 C 0.26175 0.89182 0.36748 0.0
C315 C 0.31403 0.80751 0.32161 0.0
C316 C 0.23302 0.83273 0.34347 0.0
C317 C 0.18233 0.84537 0.19981 0.0
C318 C 0.21342 0.87077 0.19677 0.0
C319 C 0.23654 0.7352 0.31785 0.0
C320 C 0.40503 0.75763 0.24772 0.0
C321 C 0.42373 0.74623 0.18905 0.0
C322 C 0.45798 0.76396 0.19411 0.0
C323 C 0.43908 0.7754 0.25283 0.0
C324 C 0.39748 0.74414 0.21595 0.0
C325 C 0.46549 0.77873 0.22594 0.0
C326 C 0.24283 0.72964 0.23647 0.0
C327 C 0.37629 0.75513 0.27466 0.0
H328 H 0.31096 0.91799 0.43085 0.0
H329 H 0.26189 0.81574 0.39209 0.0
H330 H 0.2986 0.8552 0.43077 0.0
H331 H 0.24996 0.90145 0.35043 0.0
H332 H 0.47905 0.76535 0.1738 0.0
H333 H 0.4451 0.7868 0.27738 0.0
H334 H 0.37091 0.73155 0.21225 0.0
H335 H 0.49188 0.79228 0.22981 0.0
Tb336 Tb 0.24596 0.79974 0.764 0.0
C337 C 0.34933 0.71998 0.69372 0.0
N338 N 0.31771 0.70643 0.71007 0.0
C339 C 0.30497 0.66496 0.66208 0.0
C340 C 0.35903 0.708 0.66028 0.0
C341 C 0.29674 0.67758 0.69534 0.0
C342 C 0.33589 0.68073 0.64425 0.0
C343 C 0.40625 0.75904 0.6956 0.0
C344 C 0.37278 0.74491 0.71106 0.0
C345 C 0.41542 0.74839 0.6619 0.0
C346 C 0.39185 0.72292 0.64426 0.0
Tb347 Tb 0.30633 0.73197 0.76366 0.0
N348 N 0.36234 0.75578 0.7432 0.0
C349 C 0.42941 0.78332 0.71459 0.0
C350 C 0.38546 0.77782 0.76239 0.0
C351 C 0.41916 0.79232 0.74825 0.0
H352 H 0.2739 0.66366 0.70913 0.0
H353 H 0.43712 0.81053 0.76326 0.0
H354 H 0.26271 0.85052 0.8341 0.0
H355 H 0.12339 0.73829 0.71687 0.0
H356 H 0.37747 0.78483 0.78835 0.0
H357 H 0.45539 0.79485 0.70364 0.0
H358 H 0.1871 0.76071 0.71291 0.0
H359 H 0.28771 0.64272 0.65037 0.0
H360 H 0.44084 0.75929 0.64938 0.0
H361 H 0.39956 0.71438 0.61845 0.0
H362 H 0.22981 0.86806 0.88759 0.0
H363 H 0.34232 0.67073 0.61856 0.0
H364 H 0.08595 0.7487 0.76992 0.0
N365 N 0.21789 0.81836 0.81419 0.0
C366 C 0.18246 0.80805 0.81857 0.0
C367 C 0.21619 0.85086 0.86849 0.0
C368 C 0.16249 0.81766 0.84865 0.0
C369 C 0.23485 0.84054 0.83819 0.0
C370 C 0.17988 0.83906 0.8739 0.0
N371 N 0.18673 0.77984 0.76395 0.0
C372 C 0.1715 0.76349 0.7366 0.0
C373 C 0.12958 0.77667 0.79587 0.0
C374 C 0.16636 0.78776 0.79264 0.0
C375 C 0.11412 0.7577 0.7685 0.0
C376 C 0.13517 0.75157 0.73858 0.0
H377 H 0.1655 0.84709 0.8974 0.0
H378 H 0.11009 0.81281 0.87537 0.0
H379 H 0.08122 0.77698 0.82906 0.0
O380 O 0.22305 0.82803 0.73928 0.0
O381 O 0.23492 0.77115 0.80676 0.0
O382 O 0.25285 0.71909 0.78915 0.0
O383 O 0.27147 0.85123 0.75886 0.0
O384 O 0.24208 0.75379 0.72566 0.0
O385 O 0.25459 0.70903 0.74643 0.0
O386 O 0.32791 0.72481 0.80415 0.0
O387 O 0.32453 0.78026 0.74245 0.0
O388 O 0.27818 0.78277 0.71897 0.0
O389 O 0.32126 0.68504 0.76266 0.0
O390 O 0.30479 0.77277 0.80614 0.0
O391 O 0.29474 0.81978 0.78711 0.0
C392 C 0.23401 0.7388 0.80964 0.0
C393 C 0.23612 0.88871 0.75065 0.0
C394 C 0.21542 0.93282 0.73056 0.0
C395 C 0.21263 0.95075 0.76282 0.0
C396 C 0.23327 0.90698 0.78262 0.0
C397 C 0.22165 0.93794 0.78858 0.0
C398 C 0.22736 0.90182 0.72478 0.0
C399 C 0.23762 0.72058 0.72744 0.0
C400 C 0.24753 0.85567 0.74307 0.0
C401 C 0.12592 0.80591 0.85237 0.0
C402 C 0.10949 0.78547 0.82601 0.0
C403 C 0.31194 0.78674 0.71779 0.0
C404 C 0.31908 0.66766 0.81436 0.0
C405 C 0.33284 0.63714 0.85463 0.0
C406 C 0.29803 0.61788 0.85698 0.0
C407 C 0.28459 0.64822 0.81711 0.0
C408 C 0.343 0.66221 0.83322 0.0
C409 C 0.27418 0.62348 0.8384 0.0
C410 C 0.30911 0.80634 0.80685 0.0
C411 C 0.33091 0.69358 0.79185 0.0
H412 H 0.20364 0.97475 0.76809 0.0
H413 H 0.23991 0.89737 0.80287 0.0
H414 H 0.21946 0.95199 0.8133 0.0
H415 H 0.22908 0.88733 0.70016 0.0
H416 H 0.28934 0.59794 0.87268 0.0
H417 H 0.26579 0.65217 0.80283 0.0
H418 H 0.36951 0.67764 0.8312 0.0
H419 H 0.24755 0.60843 0.84038 0.0
Tb420 Tb 0.26643 0.23086 0.8034 0.0
C421 C 0.35024 0.30552 0.69375 0.0
N422 N 0.3369 0.31923 0.72415 0.0
C423 C 0.39294 0.35712 0.7308 0.0
C424 C 0.38588 0.31587 0.68135 0.0
C425 C 0.35722 0.34649 0.74161 0.0
C426 C 0.40752 0.34124 0.70083 0.0
C427 C 0.3392 0.27033 0.64127 0.0
C428 C 0.32743 0.28302 0.67396 0.0
C429 C 0.37501 0.27907 0.62937 0.0
C430 C 0.39834 0.30171 0.64943 0.0
Tb431 Tb 0.27829 0.29795 0.73976 0.0
N432 N 0.29314 0.27453 0.68664 0.0
C433 C 0.31447 0.24985 0.62147 0.0
C434 C 0.26862 0.25612 0.66703 0.0
C435 C 0.27896 0.2431 0.6343 0.0
H436 H 0.34601 0.36068 0.76368 0.0
H437 H 0.25956 0.22792 0.619 0.0
H438 H 0.18708 0.18485 0.79324 0.0
H439 H 0.32053 0.30672 0.91154 0.0
H440 H 0.24117 0.25144 0.67677 0.0
H441 H 0.32242 0.23966 0.59616 0.0
H442 H 0.32358 0.27457 0.85552 0.0
H443 H 0.40904 0.37805 0.74528 0.0
H444 H 0.38476 0.26912 0.60449 0.0
H445 H 0.42573 0.30903 0.63963 0.0
H446 H 0.1281 0.17644 0.82547 0.0
H447 H 0.43507 0.34991 0.69226 0.0
H448 H 0.26327 0.30703 0.94572 0.0
N449 N 0.21119 0.22063 0.8312 0.0
C450 C 0.20732 0.23632 0.86293 0.0
C451 C 0.15013 0.19356 0.8362 0.0
C452 C 0.1742 0.23252 0.88215 0.0
C453 C 0.18351 0.19849 0.81795 0.0
C454 C 0.14537 0.21093 0.86832 0.0
N455 N 0.26819 0.25973 0.85607 0.0
C456 C 0.29824 0.27596 0.86923 0.0
C457 C 0.23378 0.27444 0.90812 0.0
C458 C 0.23669 0.25718 0.87551 0.0
C459 C 0.26431 0.29346 0.92074 0.0
C460 C 0.2967 0.29359 0.90142 0.0
H461 H 0.11944 0.20731 0.88226 0.0
H462 H 0.14567 0.24837 0.92935 0.0
H463 H 0.19789 0.28493 0.95221 0.0
O464 O 0.28519 0.20374 0.83345 0.0
O465 O 0.22734 0.26406 0.80758 0.0
O466 O 0.2583 0.31542 0.79148 0.0
O467 O 0.25798 0.1766 0.79185 0.0
O468 O 0.31641 0.26843 0.79811 0.0
O469 O 0.30141 0.31616 0.78581 0.0
O470 O 0.23654 0.31172 0.72342 0.0
O471 O 0.29411 0.24764 0.72243 0.0
O472 O 0.31395 0.23511 0.76647 0.0
O473 O 0.28627 0.34693 0.72543 0.0
O474 O 0.22884 0.2591 0.74437 0.0
O475 O 0.24294 0.21105 0.75777 0.0
C476 C 0.23288 0.29811 0.8108 0.0
C477 C 0.27834 0.14088 0.82292 0.0
C478 C 0.31074 0.10643 0.84416 0.0
C479 C 0.28725 0.07636 0.83225 0.0
C480 C 0.25561 0.11034 0.81115 0.0
C481 C 0.25996 0.07837 0.81599 0.0
C482 C 0.30577 0.13887 0.8398 0.0
C483 C 0.32196 0.3019 0.79812 0.0
C484 C 0.27415 0.17429 0.81583 0.0
C485 C 0.17096 0.25059 0.91427 0.0
C486 C 0.20069 0.27152 0.92723 0.0
C487 C 0.31525 0.23365 0.7344 0.0
C488 C 0.25517 0.34799 0.68221 0.0
C489 C 0.22602 0.36625 0.6434 0.0
C490 C 0.25296 0.35972 0.61818 0.0
C491 C 0.28264 0.34316 0.65693 0.0
C492 C 0.22707 0.36005 0.6754 0.0
C493 C 0.28123 0.34844 0.62503 0.0
C494 C 0.22488 0.2254 0.74242 0.0
C495 C 0.25569 0.34089 0.71568 0.0
H496 H 0.28975 0.05113 0.83581 0.0
H497 H 0.23441 0.11114 0.79813 0.0
H498 H 0.24216 0.05498 0.80696 0.0
H499 H 0.32376 0.16229 0.84853 0.0
H500 H 0.25268 0.36443 0.59342 0.0
H501 H 0.30542 0.33571 0.66177 0.0
H502 H 0.20614 0.36468 0.6949 0.0
H503 H 0.30237 0.34428 0.60569 0.0
Tb504 Tb 0.73611 0.31403 0.77854 0.0
C505 C 0.78368 0.20124 0.83199 0.0
N506 N 0.79821 0.23491 0.82966 0.0
C507 C 0.81164 0.2441 0.88507 0.0
C508 C 0.78091 0.18794 0.86162 0.0
C509 C 0.81375 0.25603 0.85507 0.0
C510 C 0.79463 0.21005 0.88855 0.0
C511 C 0.75981 0.14425 0.80469 0.0
C512 C 0.77351 0.17981 0.80393 0.0
C513 C 0.75503 0.13109 0.83458 0.0
C514 C 0.76565 0.1529 0.863 0.0
Tb515 Tb 0.79945 0.25224 0.78016 0.0
N516 N 0.77975 0.19337 0.77537 0.0
C517 C 0.75267 0.12283 0.77515 0.0
C518 C 0.77575 0.17198 0.74618 0.0
C519 C 0.76122 0.1367 0.74568 0.0
H520 H 0.82724 0.2822 0.85233 0.0
H521 H 0.75699 0.12017 0.72255 0.0
H522 H 0.69851 0.27188 0.71123 0.0
H523 H 0.80757 0.4454 0.80568 0.0
H524 H 0.78373 0.18195 0.72313 0.0
H525 H 0.74193 0.0954 0.77466 0.0
H526 H 0.77452 0.38854 0.81911 0.0
H527 H 0.82318 0.26114 0.90545 0.0
H528 H 0.74415 0.10392 0.83575 0.0
H529 H 0.76276 0.14224 0.88567 0.0
H530 H 0.70264 0.27997 0.65376 0.0
H531 H 0.79306 0.20084 0.91177 0.0
H532 H 0.81502 0.4582 0.74863 0.0
N533 N 0.73479 0.31877 0.72462 0.0
C534 C 0.75221 0.34969 0.71523 0.0
C535 C 0.71729 0.29955 0.67063 0.0
C536 C 0.75401 0.35611 0.68271 0.0
C537 C 0.71589 0.29454 0.70324 0.0
C538 C 0.73688 0.33025 0.66015 0.0
N539 N 0.7652 0.36833 0.76973 0.0
C540 C 0.77831 0.39333 0.79395 0.0
C541 C 0.78574 0.4078 0.72994 0.0
C542 C 0.76758 0.37539 0.73859 0.0
C543 C 0.80075 0.43301 0.75431 0.0
C544 C 0.79671 0.42583 0.78651 0.0
H545 H 0.73767 0.33417 0.63493 0.0
H546 H 0.77356 0.39375 0.64913 0.0
H547 H 0.80214 0.43872 0.69025 0.0
O548 O 0.70592 0.33743 0.81869 0.0
O549 O 0.79107 0.32358 0.75593 0.0
O550 O 0.79769 0.26969 0.73387 0.0
O551 O 0.69036 0.32696 0.77015 0.0
O552 O 0.76446 0.32722 0.82226 0.0
O553 O 0.8147 0.30615 0.80253 0.0
O554 O 0.84116 0.22661 0.76775 0.0
O555 O 0.75995 0.26001 0.82322 0.0
O556 O 0.71416 0.26651 0.80011 0.0
O557 O 0.85082 0.28207 0.77421 0.0
O558 O 0.76514 0.23503 0.74042 0.0
O559 O 0.71681 0.2596 0.75845 0.0
C560 C 0.80401 0.30264 0.73181 0.0
C561 C 0.64731 0.30855 0.81332 0.0
C562 C 0.61036 0.28151 0.85874 0.0
C563 C 0.58866 0.25992 0.83665 0.0
C564 C 0.62564 0.28626 0.79129 0.0
C565 C 0.59666 0.26197 0.80296 0.0
C566 C 0.63967 0.30543 0.84678 0.0
C567 C 0.79762 0.32707 0.82314 0.0
C568 C 0.67994 0.33228 0.80154 0.0
C569 C 0.77217 0.38832 0.67394 0.0
C570 C 0.78822 0.41401 0.69741 0.0
C571 C 0.72616 0.25581 0.82295 0.0
C572 C 0.88241 0.25533 0.72912 0.0
C573 C 0.88307 0.23045 0.67136 0.0
C574 C 0.91788 0.24938 0.66523 0.0
C575 C 0.91696 0.27364 0.72296 0.0
C576 C 0.86488 0.23672 0.70287 0.0
C577 C 0.93423 0.27153 0.69076 0.0
C578 C 0.73183 0.23533 0.74033 0.0
C579 C 0.86381 0.25506 0.76256 0.0
H580 H 0.56532 0.24207 0.84554 0.0
H581 H 0.63121 0.28726 0.76507 0.0
H582 H 0.58008 0.24506 0.78588 0.0
H583 H 0.65617 0.32255 0.86383 0.0
H584 H 0.93347 0.24576 0.64147 0.0
H585 H 0.9305 0.28921 0.74291 0.0
H586 H 0.8374 0.22496 0.70777 0.0
H587 H 0.96103 0.28555 0.68587 0.0
Tb588 Tb 0.74565 0.76114 0.73374 0.0
C589 C 0.82612 0.83921 0.85492 0.0
N590 N 0.83918 0.82587 0.82424 0.0
C591 C 0.88745 0.87495 0.82336 0.0
C592 C 0.84291 0.87141 0.87072 0.0
C593 C 0.8701 0.84276 0.8088 0.0
C594 C 0.87365 0.8895 0.85432 0.0
C595 C 0.78238 0.83247 0.90308 0.0
C596 C 0.79626 0.82004 0.87097 0.0
C597 C 0.79871 0.86479 0.91869 0.0
C598 C 0.82885 0.88423 0.90253 0.0
Tb599 Tb 0.80816 0.77286 0.80396 0.0
N600 N 0.78041 0.78939 0.85472 0.0
C601 C 0.75248 0.81202 0.91846 0.0
C602 C 0.7525 0.76845 0.87027 0.0
C603 C 0.7377 0.77972 0.9021 0.0
H604 H 0.88214 0.83126 0.78559 0.0
H605 H 0.71507 0.76338 0.91407 0.0
H606 H 0.66425 0.71805 0.75397 0.0
H607 H 0.83719 0.74855 0.62275 0.0
H608 H 0.74157 0.74323 0.85806 0.0
H609 H 0.74092 0.82071 0.94309 0.0
H610 H 0.81458 0.7772 0.67694 0.0
H611 H 0.91174 0.88831 0.8109 0.0
H612 H 0.78832 0.87491 0.94329 0.0
H613 H 0.84132 0.90898 0.915 0.0
H614 H 0.62562 0.66351 0.73287 0.0
H615 H 0.88734 0.91431 0.86562 0.0
H616 H 0.80371 0.69206 0.59867 0.0
N617 N 0.70654 0.71255 0.7159 0.0
C618 C 0.71748 0.69416 0.687 0.0
C619 C 0.65151 0.6717 0.71986 0.0
C620 C 0.69602 0.6633 0.67362 0.0
C621 C 0.67361 0.70238 0.73194 0.0
C622 C 0.66287 0.6519 0.69072 0.0
N623 N 0.76966 0.73689 0.6839 0.0
C624 C 0.79991 0.75265 0.66661 0.0
C625 C 0.76158 0.68972 0.6393 0.0
C626 C 0.74985 0.70704 0.67014 0.0
C627 C 0.79369 0.70462 0.62238 0.0
C628 C 0.8127 0.73647 0.63591 0.0
H629 H 0.64559 0.62827 0.6813 0.0
H630 H 0.69205 0.62135 0.63281 0.0
H631 H 0.74944 0.64455 0.60273 0.0
O632 O 0.75466 0.80019 0.70451 0.0
O633 O 0.78393 0.72701 0.72596 0.0
O634 O 0.83144 0.75445 0.754 0.0
O635 O 0.70208 0.77322 0.71917 0.0
O636 O 0.78246 0.80803 0.7513 0.0
O637 O 0.83298 0.798 0.7606 0.0
O638 O 0.80961 0.72948 0.825 0.0
O639 O 0.76543 0.80302 0.81531 0.0
O640 O 0.72034 0.77934 0.78283 0.0
O641 O 0.85369 0.77225 0.82337 0.0
O642 O 0.77025 0.72441 0.7911 0.0
O643 O 0.72121 0.73495 0.77593 0.0
C644 C 0.81716 0.73162 0.73036 0.0
C645 C 0.71185 0.83268 0.7163 0.0
C646 C 0.69318 0.88126 0.70316 0.0
C647 C 0.69804 0.89891 0.73495 0.0
C648 C 0.71681 0.85067 0.74789 0.0
C649 C 0.70971 0.88355 0.75723 0.0
C650 C 0.70005 0.84802 0.69403 0.0
C651 C 0.81642 0.81283 0.74447 0.0
C652 C 0.72153 0.79921 0.70552 0.0
C653 C 0.70806 0.64524 0.6434 0.0
C654 C 0.74074 0.65846 0.62625 0.0
C655 C 0.7329 0.79964 0.80881 0.0
C656 C 0.86549 0.71714 0.82093 0.0
C657 C 0.89459 0.67527 0.83458 0.0
C658 C 0.91075 0.67113 0.80176 0.0
C659 C 0.88219 0.71277 0.7885 0.0
C660 C 0.87181 0.69843 0.84396 0.0
C661 C 0.90464 0.68988 0.77899 0.0
C662 C 0.73604 0.71905 0.79272 0.0
C663 C 0.84178 0.74134 0.83105 0.0
H664 H 0.69238 0.92436 0.74267 0.0
H665 H 0.72683 0.83968 0.76508 0.0
H666 H 0.71347 0.89721 0.78168 0.0
H667 H 0.69688 0.83438 0.66941 0.0
H668 H 0.9288 0.654 0.79385 0.0
H669 H 0.87813 0.72736 0.77069 0.0
H670 H 0.85892 0.70181 0.86907 0.0
H671 H 0.91771 0.68701 0.75398 0.0
Fe672 Fe 0.02881 0.09065 0.51929 0.0
O673 O 0.02782 0.0409 0.50819 0.0
Fe674 Fe 0.06947 0.02368 0.51898 0.0
Fe675 Fe 0.98885 1.00368 0.52483 0.0
O676 O 0.03097 0.04211 0.50873 0.0
O677 O 0.03089 0.98675 0.53669 0.0
O678 O 0.02735 0.98542 0.53613 0.0
Fe679 Fe 0.03127 0.93693 0.5225 0.0
C680 C 0.97793 0.06154 0.57708 0.0
O681 O 0.98881 0.07658 0.49037 0.0
O682 O 0.95357 0.02751 0.50966 0.0
O683 O 0.07277 0.94527 0.48475 0.0
O684 O 0.06907 0.99529 0.47343 0.0
O685 O 0.10536 0.0641 0.49648 0.0
O686 O 0.07005 0.09578 0.48223 0.0
O687 O 0.99092 0.97595 0.47835 0.0
O688 O 0.99523 0.92538 0.48922 0.0
C689 C 0.09945 0.08624 0.47973 0.0
O690 O 0.0699 0.95001 0.55257 0.0
O691 O 0.1051 0.99911 0.53361 0.0
O692 O 0.98995 0.08413 0.55793 0.0
O693 O 0.98424 0.03149 0.57089 0.0
C694 C 0.95997 0.05316 0.49282 0.0
C695 C 0.98622 0.94339 0.47131 0.0
C696 C 0.95872 0.93925 0.56126 0.0
O697 O 0.95299 0.96238 0.54563 0.0
O698 O 0.98812 0.92934 0.55814 0.0
C699 C 0.08184 0.96876 0.4663 0.0
O700 O 0.07017 0.05318 0.56472 0.0
O701 O 0.06641 0.10303 0.55122 0.0
C702 C 0.0988 0.97344 0.55067 0.0
C703 C 0.07588 0.08597 0.56982 0.0
Fe704 Fe 0.51852 0.97293 1.01586 0.0
O705 O 0.54825 1.01415 0.99643 0.0
Fe706 Fe 0.44127 1.0019 0.04666 0.0
Fe707 Fe 0.59978 0.02542 0.99231 0.0
O708 O 0.49256 1.00869 0.04146 0.0
O709 O 0.49272 1.013 0.04217 0.0
O710 O 0.5484 0.0185 0.99711 0.0
Fe711 Fe 0.52218 0.05416 0.0226 0.0
C712 C 0.58212 0.98337 0.05038 0.0
O713 O 0.55213 0.94158 0.9846 0.0
O714 O 0.59405 0.98133 0.95764 0.0
O715 O 0.49117 0.04629 0.9853 0.0
O716 O 0.43825 0.03355 1.01408 0.0
O717 O 0.43529 0.96062 1.00923 0.0
O718 O 0.48708 0.96258 0.97833 0.0
O719 O 0.59622 0.06042 0.96328 0.0
O720 O 0.55797 0.09171 0.99604 0.0
C721 C 0.45365 0.95418 0.98161 0.0
O722 O 0.48876 0.08558 0.05389 0.0
O723 O 0.44728 0.04584 0.08115 0.0
O724 O 0.54914 0.98051 0.05309 0.0
O725 O 0.60278 0.99402 0.02563 0.0
C726 C 0.57839 0.94979 0.96142 0.0
C727 C 0.58227 0.08739 0.97097 0.0
C728 C 0.58688 0.07353 0.05691 0.0
O729 O 0.60552 0.06668 0.0296 0.0
O730 O 0.55349 0.06494 0.0601 0.0
C731 C 0.45812 0.04372 0.98879 0.0
O732 O 0.44498 0.96735 0.07564 0.0
O733 O 0.48257 0.9354 0.04272 0.0
C734 C 0.46222 0.07737 0.07678 0.0
C735 C 0.45894 0.94049 0.06826 0.0
Fe736 Fe 0.033 0.56083 0.02974 0.0
O737 O 1.00113 0.52021 0.04832 0.0
Fe738 Fe 0.10772 0.52744 0.99691 0.0
Fe739 Fe 0.94963 0.51279 0.05228 0.0
O740 O 0.0568 0.52378 1.00293 0.0
O741 O 0.05614 0.51933 1.00144 0.0
O742 O 1.00046 0.51584 0.04682 0.0
Fe743 Fe 1.02446 0.4788 1.02049 0.0
C744 C 0.97444 0.58628 0.08543 0.0
O745 O 1.00278 0.55513 0.99276 0.0
O746 O 0.94971 0.54786 1.02144 0.0
O747 O 0.05637 0.44572 0.98907 0.0
O748 O 0.09958 0.48369 0.96129 0.0
O749 O 0.10617 0.56446 0.969 0.0
O750 O 0.07027 0.59749 1.00336 0.0
O751 O 0.94123 0.47394 1.01318 0.0
O752 O 0.99282 0.46987 0.98319 0.0
C753 C 0.09321 0.59203 0.97739 0.0
O754 O 0.05509 0.48484 0.05737 0.0
O755 O 0.10827 0.49338 0.02862 0.0
O756 O 1.00107 0.59396 0.06228 0.0
O757 O 0.95814 0.5548 0.0886 0.0
C758 C 0.97077 0.55679 0.99628 0.0
C759 C 0.95943 0.46495 0.98626 0.0
C760 C 0.96288 0.44736 0.07167 0.0
O761 O 0.94998 0.47494 0.07929 0.0
O762 O 0.98707 0.44215 0.04676 0.0
C763 C 0.08284 0.45255 0.96573 0.0
O764 O 0.116 0.56795 0.03521 0.0
O765 O 0.06481 0.56916 0.06671 0.0
C766 C 0.08715 0.48295 0.05324 0.0
C767 C 0.09831 0.57693 0.06259 0.0
Fe768 Fe 0.53593 0.50907 0.98201 0.0
O769 O 0.56012 0.54022 1.01826 0.0
Fe770 Fe 0.45161 0.48258 1.01894 0.0
Fe771 Fe 0.61089 0.54681 1.02009 0.0
O772 O 0.5019 0.4903 1.01869 0.0
O773 O 0.5022 0.48919 0.02205 0.0
O774 O 0.56037 0.5392 1.02162 0.0
Fe775 Fe 0.52644 0.52025 0.05845 0.0
C776 C 0.59505 0.47475 0.9842 0.0
O777 O 0.57568 0.53355 0.94786 0.0
O778 O 0.61336 0.57201 0.98072 0.0
O779 O 0.49975 0.55643 0.0564 0.0
O780 O 0.4453 0.52686 0.05073 0.0
O781 O 0.45547 0.50954 0.9806 0.0
O782 O 0.50775 0.54535 0.97874 0.0
O783 O 0.60241 0.58592 0.05751 0.0
O784 O 0.55676 0.55717 0.09148 0.0
C785 C 0.47614 0.53699 0.97263 0.0
O786 O 0.48632 0.49573 0.09252 0.0
O787 O 0.44793 0.45864 0.05938 0.0
O788 O 0.56263 0.47257 0.9846 0.0
O789 O 0.61706 0.50348 0.98646 0.0
C790 C 0.60044 0.5611 0.95313 0.0
C791 C 0.58352 0.58268 0.08598 0.0
C792 C 0.58648 0.49182 0.06657 0.0
O793 O 0.60771 0.5184 0.05718 0.0
O794 O 0.55449 0.48424 0.06167 0.0
C795 C 0.46769 0.55513 0.05567 0.0
O796 O 0.46083 0.44275 0.98268 0.0
O797 O 0.50618 0.47214 0.94893 0.0
C798 C 0.46046 0.46916 0.08719 0.0
C799 C 0.48005 0.44613 0.95438 0.0
Fe800 Fe 1.01914 0.47311 0.51555 0.0
O801 O 0.99562 0.50839 0.54547 0.0
Fe802 Fe 0.05107 0.51358 0.44621 0.0
Fe803 Fe 0.99007 0.51202 0.59393 0.0
O804 O 0.04491 0.51388 0.49381 0.0
O805 O 0.04542 0.51771 0.49458 0.0
O806 O 0.9961 0.51255 0.54625 0.0
Fe807 Fe 1.0235 0.55356 0.52534 0.0
C808 C 0.96117 0.43754 0.56716 0.0
O809 O 0.05793 0.48231 0.5451 0.0
O810 O 1.02484 0.48118 0.59383 0.0
O811 O 0.05661 0.59149 0.49775 0.0
O812 O 0.08634 0.5592 0.45584 0.0
O813 O 0.08328 0.48045 0.44658 0.0
O814 O 0.04964 0.44197 0.48039 0.0
O815 O 0.02939 0.55537 0.6032 0.0
O816 O 0.06282 0.5619 0.55517 0.0
C817 C 0.07554 0.45078 0.45718 0.0
O818 O 0.98474 0.54777 0.49619 0.0
O819 O 1.015 0.54297 0.44583 0.0
O820 O 0.98758 0.43515 0.54392 0.0
O821 O 0.95444 0.46625 0.58381 0.0
C822 C 0.05277 0.47715 0.57493 0.0
C823 C 0.05852 0.56701 0.58659 0.0
C824 C 0.96828 0.57662 0.58423 0.0
O825 O 0.95906 0.5465 0.59406 0.0
O826 O 0.99463 0.58521 0.56138 0.0
C827 C 0.08203 0.58815 0.47364 0.0
O828 O 1.01266 0.46976 0.43746 0.0
O829 O 0.97985 0.46173 0.48549 0.0
C830 C 0.9882 0.54926 0.46548 0.0
C831 C 0.98412 0.45671 0.45407 0.0
Fe832 Fe 0.52761 0.98008 0.52082 0.0
O833 O 0.50373 1.01563 0.54993 0.0
Fe834 Fe 0.56349 0.02062 0.45222 0.0
Fe835 Fe 0.49626 0.01935 0.59838 0.0
O836 O 0.55505 0.0209 0.49993 0.0
O837 O 0.55526 0.025 0.50073 0.0
O838 O 0.50398 0.0196 0.55072 0.0
Fe839 Fe 0.53061 0.06046 0.52942 0.0
C840 C 0.46667 0.9451 0.57065 0.0
O841 O 0.5649 0.98849 0.55161 0.0
O842 O 0.53036 0.98861 0.59958 0.0
O843 O 0.5632 0.09798 0.50147 0.0
O844 O 0.59812 0.06688 0.4634 0.0
O845 O 0.59469 0.98643 0.45369 0.0
O846 O 0.55841 0.94837 0.48655 0.0
O847 O 0.53607 0.06196 0.60857 0.0
O848 O 0.56859 0.07223 0.56071 0.0
C849 C 0.58527 0.95656 0.46402 0.0
O850 O 0.49337 0.0515 0.49792 0.0
O851 O 0.52895 0.05074 0.45036 0.0
O852 O 0.49375 0.94219 0.54821 0.0
O853 O 0.46074 0.9741 0.58733 0.0
C854 C 0.55921 0.98546 0.58197 0.0
C855 C 0.56459 0.07534 0.59204 0.0
C856 C 0.47274 0.08304 0.58657 0.0
O857 O 0.46518 0.05354 0.59744 0.0
O858 O 0.49921 0.09186 0.56378 0.0
C859 C 0.59035 0.09561 0.4791 0.0
O860 O 0.52492 0.97692 0.44204 0.0
O861 O 0.49016 0.96974 0.48929 0.0
C862 C 0.50074 0.05628 0.4679 0.0
C863 C 0.49581 0.96397 0.45796 0.0
C864 C 0.23987 0.17459 0.33835 0.0
C865 C 0.22379 0.19754 0.32791 0.0
C866 C 0.22236 0.15429 0.36288 0.0
C867 C 0.18828 0.15763 0.37791 0.0
C868 C 0.17198 0.1808 0.36741 0.0
C869 C 0.1897 0.20004 0.34227 0.0
C870 C 0.24023 0.12916 0.3726 0.0
C871 C 0.13604 0.18583 0.38322 0.0
C872 C 0.12367 0.08829 0.42115 0.0
C873 C 0.12688 0.1008 0.45437 0.0
C874 C 0.14512 0.10533 0.39599 0.0
C875 C 0.16921 0.13668 0.40427 0.0
C876 C 0.17282 0.14926 0.4379 0.0
C877 C 0.15173 0.13097 0.4626 0.0
C878 C 0.14104 0.09038 0.36056 0.0
C879 C 0.19738 0.1831 0.44786 0.0
H880 H 0.26622 0.17251 0.32736 0.0
H881 H 0.17731 0.21812 0.33474 0.0
H882 H 0.24145 0.13426 0.3995 0.0
H883 H 0.22477 0.10246 0.36696 0.0
H884 H 0.26724 0.13055 0.35948 0.0
H885 H 0.12761 0.20585 0.37317 0.0
H886 H 0.11648 0.1612 0.37931 0.0
H887 H 0.13586 0.19352 0.41021 0.0
H888 H 0.10368 0.0655 0.41485 0.0
H889 H 0.15332 0.14124 0.48836 0.0
H890 H 0.16706 0.0898 0.34592 0.0
H891 H 0.12867 0.10691 0.34965 0.0
H892 H 0.1246 0.06377 0.35821 0.0
H893 H 0.22415 0.1832 0.43469 0.0
H894 H 0.19871 0.18831 0.4748 0.0
H895 H 0.18844 0.20452 0.44076 0.0
C896 C 0.91229 0.15078 0.3773 0.0
C897 C 0.88387 0.13792 0.35937 0.0
C898 C 0.91667 0.13418 0.40265 0.0
C899 C 0.89211 0.10381 0.41012 0.0
C900 C 0.86212 0.09199 0.39357 0.0
C901 C 0.85832 0.10924 0.36832 0.0
C902 C 0.94876 0.14805 0.4201 0.0
C903 C 0.83512 0.06008 0.40124 0.0
C904 C 0.939 0.04617 0.4393 0.0
C905 C 0.93357 0.05595 0.47337 0.0
C906 C 0.92265 0.05904 0.41837 0.0
C907 C 0.90071 0.0825 0.43203 0.0
C908 C 0.89245 0.0896 0.4667 0.0
C909 C 0.9092 0.07622 0.48704 0.0
C910 C 0.93191 0.05048 0.38158 0.0
C911 C 0.86891 0.11405 0.48242 0.0
H912 H 0.93169 0.17336 0.37084 0.0
H913 H 0.83626 0.09925 0.35451 0.0
H914 H 0.94116 0.15097 0.44718 0.0
H915 H 0.96636 0.12952 0.41368 0.0
H916 H 0.96367 0.17344 0.41333 0.0
H917 H 0.81085 0.05745 0.39012 0.0
H918 H 0.84613 0.03687 0.39143 0.0
H919 H 0.82823 0.06056 0.42825 0.0
H920 H 0.95827 0.03077 0.4289 0.0
H921 H 0.90538 0.08375 0.51346 0.0
H922 H 0.94843 0.07371 0.37165 0.0
H923 H 0.90787 0.0427 0.36932 0.0
H924 H 0.94653 0.0294 0.375 0.0
H925 H 0.88459 0.14094 0.4842 0.0
H926 H 0.85719 0.10898 0.50773 0.0
H927 H 0.84756 0.11211 0.46759 0.0
C928 C 0.89012 0.83527 0.31694 0.0
C929 C 0.85494 0.83769 0.32257 0.0
C930 C 0.91381 0.85461 0.33848 0.0
C931 C 0.90155 0.87543 0.3672 0.0
C932 C 0.86599 0.87825 0.37262 0.0
C933 C 0.84333 0.86005 0.34969 0.0
C934 C 0.9516 0.85158 0.33132 0.0
C935 C 0.85132 0.89861 0.40365 0.0
C936 C 0.95122 0.8904 0.4412 0.0
C937 C 0.96689 0.92565 0.44316 0.0
C938 C 0.93046 0.8736 0.41639 0.0
C939 C 0.9253 0.89243 0.39255 0.0
C940 C 0.94238 0.92773 0.39352 0.0
C941 C 0.96248 0.94402 0.41908 0.0
C942 C 0.91353 0.83593 0.41716 0.0
C943 C 0.93926 0.94864 0.36792 0.0
H944 H 0.89896 0.8179 0.29587 0.0
H945 H 0.8159 0.86134 0.35422 0.0
H946 H 0.96918 0.8776 0.33412 0.0
H947 H 0.95711 0.83693 0.3493 0.0
H948 H 0.95795 0.83808 0.30609 0.0
H949 H 0.82296 0.89766 0.40442 0.0
H950 H 0.85502 0.88816 0.42544 0.0
H951 H 0.86561 0.92598 0.40573 0.0
H952 H 0.95424 0.8759 0.45971 0.0
H953 H 0.97472 0.97122 0.42017 0.0
H954 H 0.90205 0.82281 0.39452 0.0
H955 H 0.8926 0.83379 0.43851 0.0
H956 H 0.93305 0.82185 0.42111 0.0
H957 H 0.93808 0.93278 0.34325 0.0
H958 H 0.96168 0.97113 0.3661 0.0
H959 H 0.91489 0.95862 0.37492 0.0
C960 C 0.27064 0.96547 0.37074 0.0
C961 C 0.27933 0.95185 0.39632 0.0
C962 C 0.24113 0.98019 0.37663 0.0
C963 C 0.22382 0.98444 0.40909 0.0
C964 C 0.24114 0.98267 0.43555 0.0
C965 C 0.26933 0.96617 0.42883 0.0
C966 C 0.22522 0.98522 0.34794 0.0
C967 C 0.22581 0.99164 0.47086 0.0
C968 C 0.13402 1.0034 0.43582 0.0
C969 C 0.11484 0.97099 0.44345 0.0
C970 C 0.16939 1.00834 0.42256 0.0
C971 C 0.18526 0.97967 0.41502 0.0
C972 C 0.16466 0.94605 0.41835 0.0
C973 C 0.12982 0.94221 0.43324 0.0
C974 C 0.18961 0.04452 0.4185 0.0
C975 C 0.18001 0.91428 0.40828 0.0
H976 H 0.2813 0.95768 0.34551 0.0
H977 H 0.27828 0.95897 0.44925 0.0
H978 H 0.2038 0.96253 0.34218 0.0
H979 H 0.21376 1.0085 0.35411 0.0
H980 H 0.24489 0.98775 0.32562 0.0
H981 H 0.24601 0.9969 0.48774 0.0
H982 H 0.21406 1.01457 0.4738 0.0
H983 H 0.20483 0.9696 0.47819 0.0
H984 H 0.1223 0.02559 0.4426 0.0
H985 H 0.11486 0.91697 0.43823 0.0
H986 H 0.18249 0.05186 0.39651 0.0
H987 H 0.21843 0.04733 0.41517 0.0
H988 H 0.18236 0.0631 0.44018 0.0
H989 H 0.19437 0.91433 0.38302 0.0
H990 H 0.15957 0.89005 0.40876 0.0
H991 H 0.19882 0.91428 0.42523 0.0
C992 C 0.17268 0.95608 0.70749 0.0
C993 C 0.20452 0.9454 0.70314 0.0
C994 C 0.16023 0.96458 0.681 0.0
C995 C 0.1802 0.96262 0.64937 0.0
C996 C 0.21329 0.95376 0.64526 0.0
C997 C 0.22494 0.94501 0.67211 0.0
C998 C 0.12478 0.97384 0.6865 0.0
C999 C 0.23578 0.95222 0.61219 0.0
C1000 C 0.12474 0.93849 0.57949 0.0
C1001 C 0.12513 0.97079 0.57106 0.0
C1002 C 0.14386 0.93546 0.60382 0.0
C1003 C 0.16431 0.96547 0.62013 0.0
C1004 C 0.16686 0.99793 0.61012 0.0
C1005 C 0.14711 1.00026 0.58573 0.0
C1006 C 0.14038 0.90026 0.61344 0.0
C1007 C 0.18873 0.03053 0.62642 0.0
H1008 H 0.15667 0.95629 0.73132 0.0
H1009 H 0.24986 0.93736 0.66871 0.0
H1010 H 0.12672 0.99844 0.67719 0.0
H1011 H 0.10631 0.9535 0.67252 0.0
H1012 H 0.11361 0.97654 0.71292 0.0
H1013 H 0.26246 0.94904 0.6139 0.0
H1014 H 0.22327 0.93015 0.59497 0.0
H1015 H 0.23811 0.97605 0.6014 0.0
H1016 H 0.10817 0.91549 0.56797 0.0
H1017 H 0.14742 0.02534 0.57952 0.0
H1018 H 0.12692 0.89971 0.63903 0.0
H1019 H 0.16662 0.89482 0.61287 0.0
H1020 H 0.12524 0.87927 0.59696 0.0
H1021 H 0.17385 0.03965 0.65007 0.0
H1022 H 0.1951 0.05134 0.61073 0.0
H1023 H 0.2135 0.02592 0.63196 0.0
C1024 C 0.21514 0.17787 0.6956 0.0
C1025 C 0.20211 0.20279 0.7191 0.0
C1026 C 0.195 0.15793 0.67137 0.0
C1027 C 0.16034 0.16185 0.67171 0.0
C1028 C 0.14673 0.18628 0.69624 0.0
C1029 C 0.16809 0.20703 0.71922 0.0
C1030 C 0.21112 0.13312 0.64519 0.0
C1031 C 0.10972 0.19077 0.69799 0.0
C1032 C 0.11761 0.13826 0.59305 0.0
C1033 C 0.09705 0.10514 0.59623 0.0
C1034 C 0.13891 0.15651 0.61702 0.0
C1035 C 0.13894 0.14182 0.64547 0.0
C1036 C 0.11827 0.10836 0.64885 0.0
C1037 C 0.09792 0.09024 0.62399 0.0
C1038 C 0.16181 0.19137 0.61165 0.0
C1039 C 0.11712 0.09199 0.67901 0.0
H1040 H 0.24169 0.17498 0.69536 0.0
H1041 H 0.1581 0.22633 0.73752 0.0
H1042 H 0.19852 0.10632 0.64931 0.0
H1043 H 0.20662 0.13609 0.62036 0.0
H1044 H 0.23975 0.13687 0.64554 0.0
H1045 H 0.10217 0.20872 0.72012 0.0
H1046 H 0.10698 0.20101 0.67577 0.0
H1047 H 0.09107 0.16541 0.69839 0.0
H1048 H 0.11768 0.14966 0.57135 0.0
H1049 H 0.08221 0.06461 0.62652 0.0
H1050 H 0.18952 0.19149 0.61317 0.0
H1051 H 0.15392 0.21164 0.63127 0.0
H1052 H 0.16024 0.19834 0.58738 0.0
H1053 H 0.14393 0.09106 0.68262 0.0
H1054 H 0.10075 0.06534 0.67738 0.0
H1055 H 0.10636 0.10794 0.70116 0.0
C1056 C 0.84757 0.16976 0.66211 0.0
C1057 C 0.86923 0.19865 0.6487 0.0
C1058 C 0.84966 0.13627 0.64734 0.0
C1059 C 0.87422 0.1321 0.61925 0.0
C1060 C 0.88811 0.15995 0.60107 0.0
C1061 C 0.88503 0.19331 0.616 0.0
C1062 C 0.83148 0.10651 0.66568 0.0
C1063 C 0.91155 0.15559 0.56886 0.0
C1064 C 0.95108 0.09538 0.62438 0.0
C1065 C 0.94695 0.06723 0.5995 0.0
C1066 C 0.92522 0.11468 0.63376 0.0
C1067 C 0.89521 0.10581 0.61689 0.0
C1068 C 0.88895 0.07463 0.59489 0.0
C1069 C 0.91477 0.05501 0.58715 0.0
C1070 C 0.93227 0.14683 0.65885 0.0
C1071 C 0.85661 0.06326 0.57762 0.0
H1072 H 0.83316 0.17235 0.68645 0.0
H1073 H 0.89899 0.21517 0.60379 0.0
H1074 H 0.82675 0.08182 0.64869 0.0
H1075 H 0.84819 0.10415 0.68369 0.0
H1076 H 0.80608 0.11094 0.6795 0.0
H1077 H 0.91403 0.17712 0.55469 0.0
H1078 H 0.93808 0.155 0.57374 0.0
H1079 H 0.90118 0.13088 0.55372 0.0
H1080 H 0.97616 0.10462 0.63369 0.0
H1081 H 0.91174 0.0328 0.56801 0.0
H1082 H 0.90906 0.14798 0.67768 0.0
H1083 H 0.93794 0.17011 0.64644 0.0
H1084 H 0.955 0.14788 0.67167 0.0
H1085 H 0.83452 0.0506 0.5945 0.0
H1086 H 0.8604 0.04434 0.55509 0.0
H1087 H 0.84892 0.08546 0.57066 0.0
C1088 C 0.87045 0.83286 0.70579 0.0
C1089 C 0.83599 0.83489 0.71924 0.0
C1090 C 0.88838 0.85151 0.68018 0.0
C1091 C 0.87138 0.87249 0.66729 0.0
C1092 C 0.83679 0.8751 0.6812 0.0
C1093 C 0.81983 0.85683 0.70734 0.0
C1094 C 0.92546 0.84842 0.66665 0.0
C1095 C 0.8174 0.89674 0.66813 0.0
C1096 C 0.93059 0.94182 0.61938 0.0
C1097 C 0.93123 0.9249 0.58687 0.0
C1098 C 0.91033 0.92557 0.64568 0.0
C1099 C 0.88996 0.89158 0.63931 0.0
C1100 C 0.88927 0.87507 0.60622 0.0
C1101 C 0.9103 0.89176 0.58043 0.0
C1102 C 0.91237 0.94403 0.68044 0.0
C1103 C 0.86745 0.83918 0.5982 0.0
H1104 H 0.88326 0.81611 0.71484 0.0
H1105 H 0.79369 0.85957 0.71826 0.0
H1106 H 0.92673 0.83687 0.64032 0.0
H1107 H 0.94309 0.87441 0.668 0.0
H1108 H 0.93547 0.8322 0.6802 0.0
H1109 H 0.79021 0.89516 0.6809 0.0
H1110 H 0.83159 0.92415 0.67107 0.0
H1111 H 0.81628 0.88811 0.6414 0.0
H1112 H 0.9474 0.96717 0.62439 0.0
H1113 H 0.91132 0.87843 0.55535 0.0
H1114 H 0.92537 0.93024 0.69386 0.0
H1115 H 0.88572 0.94394 0.69386 0.0
H1116 H 0.92729 0.97119 0.68114 0.0
H1117 H 0.8782 0.82035 0.60764 0.0
H1118 H 0.86696 0.83132 0.57127 0.0
H1119 H 0.84015 0.8377 0.6105 0.0
C1120 C 0.36318 0.19377 0.22365 0.0
C1121 C 0.34481 0.21457 0.21287 0.0
C1122 C 0.38462 0.17417 0.20125 0.0
C1123 C 0.38824 0.17533 0.16687 0.0
C1124 C 0.37013 0.1968 0.15595 0.0
C1125 C 0.34887 0.21604 0.17895 0.0
C1126 C 0.40298 0.1517 0.2144 0.0
C1127 C 0.37212 0.1986 0.11977 0.0
C1128 C 0.46198 0.1383 0.10863 0.0
C1129 C 0.44442 0.10438 0.09819 0.0
C1130 C 0.44422 0.16181 0.13075 0.0
C1131 C 0.4079 0.15154 0.14238 0.0
C1132 C 0.39004 0.11772 0.13099 0.0
C1133 C 0.40833 0.09485 0.10945 0.0
C1134 C 0.46443 0.19752 0.14215 0.0
C1135 C 0.35145 0.10529 0.14206 0.0
H1136 H 0.35987 0.19192 0.24966 0.0
H1137 H 0.33565 0.2326 0.17033 0.0
H1138 H 0.398 0.12504 0.20085 0.0
H1139 H 0.43167 0.16217 0.21068 0.0
H1140 H 0.39443 0.15038 0.24103 0.0
H1141 H 0.36207 0.22073 0.11559 0.0
H1142 H 0.39945 0.20085 0.10741 0.0
H1143 H 0.35612 0.17445 0.10789 0.0
H1144 H 0.48971 0.14617 0.10031 0.0
H1145 H 0.394 0.06904 0.10136 0.0
H1146 H 0.464 0.20123 0.16927 0.0
H1147 H 0.45178 0.2172 0.13652 0.0
H1148 H 0.49211 0.20214 0.13039 0.0
H1149 H 0.34689 0.10573 0.16916 0.0
H1150 H 0.34101 0.07865 0.1302 0.0
H1151 H 0.3363 0.12281 0.13626 0.0
C1152 C 0.87096 0.31901 0.20394 0.0
C1153 C 0.83555 0.30721 0.19945 0.0
C1154 C 0.89528 0.33702 0.18099 0.0
C1155 C 0.88382 0.34464 0.15327 0.0
C1156 C 0.84817 0.33229 0.14823 0.0
C1157 C 0.82457 0.3135 0.17122 0.0
C1158 C 0.93307 0.34903 0.18704 0.0
C1159 C 0.83464 0.33995 0.11916 0.0
C1160 C 0.92966 0.43028 0.12463 0.0
C1161 C 0.94707 0.42032 0.09334 0.0
C1162 C 0.90956 0.40602 0.14429 0.0
C1163 C 0.90737 0.37037 0.13307 0.0
C1164 C 0.92686 0.35998 0.10256 0.0
C1165 C 0.94627 0.38508 0.08284 0.0
C1166 C 0.89092 0.41929 0.17716 0.0
C1167 C 0.92665 0.32237 0.09041 0.0
H1168 H 0.87961 0.31502 0.22597 0.0
H1169 H 0.79732 0.30432 0.16739 0.0
H1170 H 0.95054 0.34122 0.16462 0.0
H1171 H 0.9398 0.37762 0.19245 0.0
H1172 H 0.93849 0.33843 0.20803 0.0
H1173 H 0.80567 0.33168 0.12061 0.0
H1174 H 0.84227 0.36799 0.1175 0.0
H1175 H 0.8465 0.32628 0.0961 0.0
H1176 H 0.93092 0.45744 0.13372 0.0
H1177 H 0.95982 0.37704 0.0589 0.0
H1178 H 0.90911 0.42487 0.19594 0.0
H1179 H 0.86716 0.4006 0.18573 0.0
H1180 H 0.88323 0.44379 0.17609 0.0
H1181 H 0.92887 0.30895 0.11078 0.0
H1182 H 0.94833 0.31902 0.07026 0.0
H1183 H 0.90151 0.30964 0.08089 0.0
C1184 C 0.65143 0.9323 0.20241 0.0
C1185 C 0.68047 0.91688 0.19137 0.0
C1186 C 0.63456 0.94346 0.18042 0.0
C1187 C 0.64589 0.93796 0.14616 0.0
C1188 C 0.67426 0.92135 0.13461 0.0
C1189 C 0.6915 0.9116 0.15724 0.0
C1190 C 0.60498 0.96176 0.19399 0.0
C1191 C 0.68667 0.91411 0.09824 0.0
C1192 C 0.58249 0.94071 0.08727 0.0
C1193 C 0.59716 0.97252 0.0761 0.0
C1194 C 0.59821 0.92897 0.10978 0.0
C1195 C 0.62854 0.95016 0.12246 0.0
C1196 C 0.6426 0.98293 0.11208 0.0
C1197 C 0.62724 0.99331 0.08848 0.0
C1198 C 0.58294 0.89345 0.11924 0.0
C1199 C 0.6739 1.00709 0.12589 0.0
H1200 H 0.64166 0.93582 0.22841 0.0
H1201 H 0.71411 0.90039 0.148 0.0
H1202 H 0.6113 0.98771 0.18616 0.0
H1203 H 0.5806 0.94719 0.18397 0.0
H1204 H 0.59984 0.96489 0.22131 0.0
H1205 H 0.7071 0.89852 0.09301 0.0
H1206 H 0.6643 0.90011 0.0848 0.0
H1207 H 0.69762 0.93879 0.0883 0.0
H1208 H 0.55944 0.92444 0.07744 0.0
H1209 H 0.63853 0.01794 0.07994 0.0
H1210 H 0.57559 0.89522 0.1463 0.0
H1211 H 0.60292 0.87738 0.11227 0.0
H1212 H 0.55942 0.88011 0.10712 0.0
H1213 H 0.66904 1.01119 0.15321 0.0
H1214 H 0.68 0.0326 0.11714 0.0
H1215 H 0.69723 0.99546 0.11863 0.0
C1216 C 0.202 0.72027 0.19384 0.0
C1217 C 0.22109 0.70649 0.21176 0.0
C1218 C 0.18084 0.699 0.17086 0.0
C1219 C 0.17831 0.66279 0.1655 0.0
C1220 C 0.19724 0.64865 0.18375 0.0
C1221 C 0.21835 0.67059 0.20654 0.0
C1222 C 0.16164 0.71548 0.15185 0.0
C1223 C 0.19528 0.61027 0.17916 0.0
C1224 C 0.10193 0.60536 0.122 0.0
C1225 C 0.11817 0.59856 0.08953 0.0
C1226 C 0.12115 0.62572 0.14707 0.0
C1227 C 0.15744 0.64009 0.13958 0.0
C1228 C 0.17385 0.63338 0.10687 0.0
C1229 C 0.15421 0.61271 0.08249 0.0
C1230 C 0.10262 0.63186 0.18164 0.0
C1231 C 0.21225 0.64839 0.09743 0.0
H1232 H 0.20391 0.74792 0.19746 0.0
H1233 H 0.23232 0.65949 0.22063 0.0
H1234 H 0.17101 0.71051 0.12514 0.0
H1235 H 0.13318 0.70384 0.1553 0.0
H1236 H 0.16541 0.74384 0.15958 0.0
H1237 H 0.21046 0.60315 0.19603 0.0
H1238 H 0.16758 0.59626 0.18349 0.0
H1239 H 0.20561 0.6013 0.15342 0.0
H1240 H 0.07424 0.59459 0.12791 0.0
H1241 H 0.16727 0.60798 0.0576 0.0
H1242 H 0.10421 0.65992 0.18953 0.0
H1243 H 0.11574 0.62288 0.19895 0.0
H1244 H 0.0746 0.61835 0.18375 0.0
H1245 H 0.21731 0.677 0.10265 0.0
H1246 H 0.22121 0.64071 0.07098 0.0
H1247 H 0.22831 0.63983 0.11243 0.0
C1248 C 0.34253 0.86539 0.82949 0.0
C1249 C 0.33191 0.82971 0.83059 0.0
C1250 C 0.36435 0.88724 0.85175 0.0
C1251 C 0.37581 0.87322 0.87587 0.0
C1252 C 0.36545 0.83721 0.87684 0.0
C1253 C 0.34379 0.81603 0.85431 0.0
C1254 C 0.3748 0.92544 0.84972 0.0
C1255 C 0.37664 0.82105 0.90223 0.0
C1256 C 0.4523 0.92232 0.92318 0.0
C1257 C 0.43463 0.93497 0.95335 0.0
C1258 C 0.43366 0.90305 0.89733 0.0
C1259 C 0.39647 0.89621 0.90166 0.0
C1260 C 0.37865 0.90973 0.9317 0.0
C1261 C 0.39781 0.92886 0.95695 0.0
C1262 C 0.45373 0.88938 0.86561 0.0
C1263 C 0.33912 0.9032 0.93759 0.0
H1264 H 0.33382 0.87631 0.8112 0.0
H1265 H 0.33592 0.78858 0.85556 0.0
H1266 H 0.36387 0.94009 0.87268 0.0
H1267 H 0.40373 0.93415 0.84749 0.0
H1268 H 0.36543 0.9321 0.8285 0.0
H1269 H 0.36769 0.79249 0.89885 0.0
H1270 H 0.4056 0.82758 0.90097 0.0
H1271 H 0.3658 0.8316 0.92729 0.0
H1272 H 0.48065 0.92698 0.91992 0.0
H1273 H 0.38366 0.93876 0.97985 0.0
H1274 H 0.44563 0.89725 0.84436 0.0
H1275 H 0.44759 0.86074 0.86222 0.0
H1276 H 0.48251 0.89872 0.8652 0.0
H1277 H 0.32913 0.91182 0.91785 0.0
H1278 H 0.32925 0.91673 0.96173 0.0
H1279 H 0.32804 0.8751 0.93682 0.0
C1280 C 0.17353 0.30279 0.84459 0.0
C1281 C 0.20894 0.31775 0.83521 0.0
C1282 C 0.15072 0.32174 0.8663 0.0
C1283 C 0.16336 0.3567 0.87995 0.0
C1284 C 0.1994 0.37154 0.8712 0.0
C1285 C 0.22135 0.35226 0.84887 0.0
C1286 C 0.11282 0.30431 0.87425 0.0
C1287 C 0.21494 0.40809 0.8854 0.0
C1288 C 0.10383 0.42274 0.90944 0.0
C1289 C 0.09785 0.42374 0.94387 0.0
C1290 C 0.12334 0.40003 0.88857 0.0
C1291 C 0.13901 0.37831 0.90209 0.0
C1292 C 0.13273 0.37893 0.9369 0.0
C1293 C 0.11203 0.40112 0.95715 0.0
C1294 C 0.12788 0.39995 0.85184 0.0
C1295 C 0.14932 0.35729 0.95301 0.0
H1296 H 0.16329 0.27637 0.83417 0.0
H1297 H 0.2486 0.36426 0.84227 0.0
H1298 H 0.10747 0.30035 0.90045 0.0
H1299 H 0.09544 0.32086 0.87068 0.0
H1300 H 0.10595 0.27878 0.85878 0.0
H1301 H 0.24379 0.41504 0.8786 0.0
H1302 H 0.20302 0.42635 0.8764 0.0
H1303 H 0.20897 0.4116 0.91266 0.0
H1304 H 0.09363 0.44033 0.89874 0.0
H1305 H 0.1086 0.40218 0.98368 0.0
H1306 H 0.12112 0.3731 0.83897 0.0
H1307 H 0.15567 0.41073 0.84304 0.0
H1308 H 0.11132 0.41543 0.84477 0.0
H1309 H 0.14099 0.32959 0.94313 0.0
H1310 H 0.14234 0.36063 0.98021 0.0
H1311 H 0.17826 0.36439 0.94716 0.0
C1312 C 0.71153 0.23258 0.87689 0.0
C1313 C 0.70092 0.23685 0.84771 0.0
C1314 C 0.68896 0.21199 0.899 0.0
C1315 C 0.65463 0.19542 0.89202 0.0
C1316 C 0.64307 0.20134 0.86354 0.0
C1317 C 0.66628 0.22202 0.84181 0.0
C1318 C 0.7027 0.20628 0.92879 0.0
C1319 C 0.60657 0.18476 0.85538 0.0
C1320 C 0.61925 0.1078 0.92041 0.0
C1321 C 0.5973 0.1152 0.94985 0.0
C1322 C 0.63731 0.13353 0.90142 0.0
C1323 C 0.63324 0.16791 0.91149 0.0
C1324 C 0.61001 0.17558 0.94034 0.0
C1325 C 0.59231 0.14914 0.95924 0.0
C1326 C 0.66154 0.12393 0.87081 0.0
C1327 C 0.60422 0.21174 0.95138 0.0
H1328 H 0.7378 0.24485 0.88222 0.0
H1329 H 0.65758 0.22557 0.81957 0.0
H1330 H 0.68316 0.20858 0.95106 0.0
H1331 H 0.70756 0.17975 0.92481 0.0
H1332 H 0.7276 0.2249 0.93351 0.0
H1333 H 0.60234 0.19 0.83122 0.0
H1334 H 0.60138 0.15638 0.85482 0.0
H1335 H 0.58714 0.1947 0.87482 0.0
H1336 H 0.62305 0.08171 0.91229 0.0
H1337 H 0.57533 0.15525 0.98171 0.0
H1338 H 0.68838 0.13966 0.87268 0.0
H1339 H 0.6528 0.12969 0.84885 0.0
H1340 H 0.66268 0.0962 0.86681 0.0
H1341 H 0.62965 0.23031 0.95363 0.0
H1342 H 0.58713 0.2141 0.97536 0.0
H1343 H 0.59183 0.21927 0.9326 0.0
C1344 C 0.91022 0.67334 0.89017 0.0
C1345 C 0.90255 0.65621 0.85896 0.0
C1346 C 0.9202 0.6563 0.91253 0.0
C1347 C 0.92241 0.62119 0.90357 0.0
C1348 C 0.91384 0.6035 0.87243 0.0
C1349 C 0.90413 0.62123 0.85049 0.0
C1350 C 0.92919 0.67612 0.94546 0.0
C1351 C 0.91548 0.56599 0.86206 0.0
C1352 C 0.98207 0.58824 0.94735 0.0
C1353 C 0.95817 0.57166 0.97148 0.0
C1354 C 0.97076 0.60415 0.92494 0.0
C1355 C 0.9346 0.6033 0.92646 0.0
C1356 C 0.91025 0.58593 0.95024 0.0
C1357 C 0.92232 0.57043 0.97249 0.0
C1358 C 0.99763 0.62237 0.89998 0.0
C1359 C 0.87147 0.58411 0.95247 0.0
H1360 H 0.90944 0.70043 0.89677 0.0
H1361 H 0.89782 0.6077 0.82657 0.0
H1362 H 0.91294 0.66269 0.96567 0.0
H1363 H 0.957 0.67722 0.94749 0.0
H1364 H 0.9251 0.70293 0.94911 0.0
H1365 H 0.90657 0.55555 0.83761 0.0
H1366 H 0.94277 0.56299 0.86093 0.0
H1367 H 0.899 0.55018 0.88051 0.0
H1368 H 1.00983 0.58943 0.94632 0.0
H1369 H 0.90358 0.55749 0.99085 0.0
H1370 H 0.9968 0.65013 0.90371 0.0
H1371 H 0.99144 0.61139 0.87471 0.0
H1372 H 1.02468 0.62023 0.90168 0.0
H1373 H 0.86632 0.61055 0.95817 0.0
H1374 H 0.85587 0.56878 0.97171 0.0
H1375 H 0.86219 0.57237 0.92844 0.0
C1376 C 0.13232 0.33617 0.12921 0.0
C1377 C 0.14175 0.34468 0.16112 0.0
C1378 C 0.12723 0.36146 0.11241 0.0
C1379 C 0.1312 0.39615 0.12807 0.0
C1380 C 0.14244 0.40518 0.15971 0.0
C1381 C 0.14771 0.37929 0.17586 0.0
C1382 C 0.11582 0.35066 0.07854 0.0
C1383 C 0.14704 0.44182 0.17723 0.0
C1384 C 0.13465 0.46201 0.07173 0.0
C1385 C 0.09938 0.46446 0.07552 0.0
C1386 C 0.14577 0.44116 0.08977 0.0
C1387 C 0.12107 0.42209 0.11211 0.0
C1388 C 0.08575 0.42559 0.11709 0.0
C1389 C 0.07538 0.44675 0.09886 0.0
C1390 C 0.18365 0.43829 0.08376 0.0
C1391 C 0.05847 0.40571 0.14061 0.0
H1392 H 0.12761 0.30935 0.11788 0.0
H1393 H 0.15458 0.38578 0.2007 0.0
H1394 H 0.08865 0.35394 0.07953 0.0
H1395 H 0.13283 0.3673 0.06101 0.0
H1396 H 0.11664 0.32331 0.06876 0.0
H1397 H 0.15945 0.44535 0.19999 0.0
H1398 H 0.16327 0.46004 0.16075 0.0
H1399 H 0.12107 0.4488 0.18404 0.0
H1400 H 0.15352 0.47563 0.05392 0.0
H1401 H 0.04808 0.44834 0.10207 0.0
H1402 H 0.18565 0.41216 0.07072 0.0
H1403 H 0.1942 0.44164 0.10746 0.0
H1404 H 0.20031 0.4577 0.06864 0.0
H1405 H 0.0547 0.37764 0.13144 0.0
H1406 H 0.03277 0.41313 0.14349 0.0
H1407 H 0.06742 0.41003 0.16518 0.0
C1408 C 0.17613 0.72516 0.84555 0.0
C1409 C 0.21154 0.72349 0.83797 0.0
C1410 C 0.15405 0.70777 0.8704 0.0
C1411 C 0.16779 0.68841 0.88833 0.0
C1412 C 0.20399 0.68799 0.88166 0.0
C1413 C 0.22526 0.70526 0.85646 0.0
C1414 C 0.11569 0.70881 0.87641 0.0
C1415 C 0.22005 0.66813 0.90027 0.0
C1416 C 0.11835 0.65358 0.96704 0.0
C1417 C 0.10659 0.6186 0.95503 0.0
C1418 C 0.13719 0.67714 0.94554 0.0
C1419 C 0.14399 0.66546 0.91128 0.0
C1420 C 0.13015 0.63059 0.899 0.0
C1421 C 0.11192 0.60769 0.92096 0.0
C1422 C 0.15153 0.714 0.95972 0.0
C1423 C 0.1361 0.61692 0.86274 0.0
H1424 H 0.16521 0.73858 0.83099 0.0
H1425 H 0.25275 0.70434 0.851 0.0
H1426 H 0.09972 0.68254 0.86979 0.0
H1427 H 0.10772 0.71713 0.90291 0.0
H1428 H 0.10945 0.72656 0.86182 0.0
H1429 H 0.24912 0.67403 0.89528 0.0
H1430 H 0.21221 0.67411 0.92717 0.0
H1431 H 0.21032 0.64002 0.89302 0.0
H1432 H 0.11462 0.6621 0.99336 0.0
H1433 H 0.10266 0.58072 0.91149 0.0
H1434 H 0.1457 0.73215 0.94535 0.0
H1435 H 0.18045 0.7185 0.95809 0.0
H1436 H 0.14062 0.72012 0.98593 0.0
H1437 H 0.12853 0.63362 0.84794 0.0
H1438 H 0.12102 0.59007 0.85678 0.0
H1439 H 0.16436 0.61727 0.85505 0.0
C1440 C 0.34702 0.1238 0.89124 0.0
C1441 C 0.33983 0.10311 0.86125 0.0
C1442 C 0.3706 0.11708 0.90987 0.0
C1443 C 0.38746 0.08906 0.89821 0.0
C1444 C 0.38207 0.06962 0.86692 0.0
C1445 C 0.35844 0.0769 0.84886 0.0
C1446 C 0.37568 0.13858 0.94302 0.0
C1447 C 0.39952 0.03965 0.85336 0.0
C1448 C 0.46028 0.07739 0.94245 0.0
C1449 C 0.44142 0.05403 0.96374 0.0
C1450 C 0.44325 0.08916 0.9209 0.0
C1451 C 0.40662 0.07704 0.92047 0.0
C1452 C 0.38779 0.05277 0.94131 0.0
C1453 C 0.40533 0.04168 0.9626 0.0
C1454 C 0.46431 0.11495 0.89903 0.0
C1455 C 0.34887 0.03867 0.94144 0.0
H1456 H 0.3328 0.14406 0.90104 0.0
H1457 H 0.35366 0.06124 0.82536 0.0
H1458 H 0.36251 0.12291 0.96276 0.0
H1459 H 0.40392 0.14654 0.94591 0.0
H1460 H 0.36465 0.16206 0.94661 0.0
H1461 H 0.3963 0.03006 0.82708 0.0
H1462 H 0.42789 0.04715 0.8557 0.0
H1463 H 0.38789 0.01807 0.86778 0.0
H1464 H 0.48813 0.08719 0.94326 0.0
H1465 H 0.39054 0.02331 0.97863 0.0
H1466 H 0.45457 0.13924 0.90532 0.0
H1467 H 0.46096 0.10485 0.8729 0.0
H1468 H 0.49268 0.12104 0.90151 0.0
H1469 H 0.33477 0.06014 0.94814 0.0
H1470 H 0.33811 0.01983 0.95902 0.0
H1471 H 0.3433 0.02572 0.91644 0.0
C1472 C 0.8507 0.37265 0.8343 0.0
C1473 C 0.81858 0.35266 0.84652 0.0
C1474 C 0.87442 0.39281 0.85553 0.0
C1475 C 0.86642 0.39228 0.88994 0.0
C1476 C 0.83361 0.37253 0.90245 0.0
C1477 C 0.80993 0.35323 0.88061 0.0
C1478 C 0.90847 0.414 0.84098 0.0
C1479 C 0.82414 0.37068 0.93882 0.0
C1480 C 0.94225 0.41494 0.94204 0.0
C1481 C 0.93966 0.44804 0.95818 0.0
C1482 C 0.91874 0.39655 0.91967 0.0
C1483 C 0.89254 0.41194 0.9127 0.0
C1484 C 0.89109 0.44608 0.92786 0.0
C1485 C 0.9142 0.46338 0.95072 0.0
C1486 C 0.92107 0.36013 0.90444 0.0
C1487 C 0.86458 0.46412 0.92054 0.0
H1488 H 0.85757 0.37194 0.80788 0.0
H1489 H 0.78552 0.33712 0.89003 0.0
H1490 H 0.91202 0.4412 0.85323 0.0
H1491 H 0.93075 0.40391 0.84532 0.0
H1492 H 0.90966 0.41359 0.81406 0.0
H1493 H 0.79753 0.35466 0.94474 0.0
H1494 H 0.84344 0.35955 0.94747 0.0
H1495 H 0.82528 0.397 0.95279 0.0
H1496 H 0.96147 0.40277 0.94817 0.0
H1497 H 0.91203 0.48894 0.96329 0.0
H1498 H 0.92453 0.35784 0.8772 0.0
H1499 H 0.89626 0.34202 0.91187 0.0
H1500 H 0.94311 0.35199 0.91194 0.0
H1501 H 0.86588 0.4631 0.89355 0.0
H1502 H 0.86878 0.49159 0.93219 0.0
H1503 H 0.83778 0.45069 0.92969 0.0
C1504 C 0.72065 0.84665 0.85638 0.0
C1505 C 0.70832 0.81917 0.83231 0.0
C1506 C 0.69771 0.86506 0.87828 0.0
C1507 C 0.6612 0.85668 0.8759 0.0
C1508 C 0.64859 0.82909 0.85151 0.0
C1509 C 0.67204 0.81075 0.83032 0.0
C1510 C 0.71276 0.89397 0.90376 0.0
C1511 C 0.61025 0.81931 0.84729 0.0
C1512 C 0.59774 0.89203 0.94826 0.0
C1513 C 0.59438 0.92249 0.93824 0.0
C1514 C 0.61876 0.87009 0.9282 0.0
C1515 C 0.63682 0.8784 0.89709 0.0
C1516 C 0.63221 0.90831 0.8864 0.0
C1517 C 0.61142 0.92978 0.90692 0.0
C1518 C 0.62271 0.83863 0.94084 0.0
C1519 C 0.65024 0.91841 0.85352 0.0
H1520 H 0.74848 0.85441 0.85774 0.0
H1521 H 0.66179 0.78979 0.81192 0.0
H1522 H 0.70791 0.91874 0.89955 0.0
H1523 H 0.69954 0.88919 0.92871 0.0
H1524 H 0.7414 0.89676 0.90324 0.0
H1525 H 0.60412 0.79631 0.82836 0.0
H1526 H 0.5941 0.81388 0.871 0.0
H1527 H 0.60241 0.84123 0.83993 0.0
H1528 H 0.58535 0.88619 0.97245 0.0
H1529 H 0.60922 0.95309 0.89864 0.0
H1530 H 0.6504 0.84146 0.94449 0.0
H1531 H 0.61608 0.81529 0.92247 0.0
H1532 H 0.60578 0.83452 0.96454 0.0
H1533 H 0.67907 0.92434 0.85338 0.0
H1534 H 0.64265 0.94133 0.84788 0.0
H1535 H 0.64386 0.89662 0.83351 0.0
C1536 C 0.8439 0.70908 0.1839 0.0
C1537 C 0.85085 0.72424 0.21596 0.0
C1538 C 0.86666 0.69023 0.16218 0.0
C1539 C 0.89757 0.68575 0.17238 0.0
C1540 C 0.90497 0.70138 0.20465 0.0
C1541 C 0.88169 0.72013 0.22587 0.0
C1542 C 0.85695 0.67417 0.12845 0.0
C1543 C 0.93726 0.69766 0.21712 0.0
C1544 C 0.93066 0.60314 0.13389 0.0
C1545 C 0.95825 0.61376 0.10903 0.0
C1546 C 0.91139 0.62607 0.15426 0.0
C1547 C 0.91964 0.66157 0.15094 0.0
C1548 C 0.94816 0.67308 0.12679 0.0
C1549 C 0.96687 0.64921 0.10609 0.0
C1550 C 0.88126 0.61183 0.17895 0.0
C1551 C 0.95858 0.71066 0.1225 0.0
H1552 H 0.81994 0.71105 0.17598 0.0
H1553 H 0.8877 0.73157 0.25043 0.0
H1554 H 0.8785 0.68337 0.10927 0.0
H1555 H 0.85326 0.64569 0.12576 0.0
H1556 H 0.83254 0.68039 0.12379 0.0
H1557 H 0.94127 0.7138 0.24134 0.0
H1558 H 0.93497 0.67028 0.21977 0.0
H1559 H 0.96079 0.705 0.19914 0.0
H1560 H 0.92321 0.57619 0.1372 0.0
H1561 H 0.98775 0.65825 0.08726 0.0
H1562 H 0.85648 0.61648 0.17346 0.0
H1563 H 0.88528 0.6253 0.20414 0.0
H1564 H 0.87809 0.58367 0.17882 0.0
H1565 H 0.93674 0.71843 0.11433 0.0
H1566 H 0.98229 0.71618 0.1042 0.0
H1567 H 0.96373 0.72687 0.14643 0.0
C1568 C 0.37287 0.81499 0.20431 0.0
C1569 C 0.33648 0.80743 0.20477 0.0
C1570 C 0.39539 0.83227 0.17979 0.0
C1571 C 0.3811 0.84326 0.15556 0.0
C1572 C 0.34415 0.83564 0.15598 0.0
C1573 C 0.32229 0.81774 0.18058 0.0
C1574 C 0.43445 0.83979 0.18049 0.0
C1575 C 0.32763 0.84797 0.13152 0.0
C1576 C 0.43173 0.92592 0.12363 0.0
C1577 C 0.4447 0.91431 0.09101 0.0
C1578 C 0.41138 0.90307 0.14461 0.0
C1579 C 0.40428 0.86719 0.13328 0.0
C1580 C 0.41908 0.85489 0.10111 0.0
C1581 C 0.439 0.87864 0.08018 0.0
C1582 C 0.39644 0.91758 0.17866 0.0
C1583 C 0.41265 0.8168 0.08831 0.0
H1584 H 0.38374 0.80863 0.22393 0.0
H1585 H 0.29405 0.81258 0.18142 0.0
H1586 H 0.44686 0.82526 0.15828 0.0
H1587 H 0.44607 0.86762 0.17992 0.0
H1588 H 0.44116 0.83252 0.20273 0.0
H1589 H 0.29888 0.83759 0.13337 0.0
H1590 H 0.33252 0.8766 0.13595 0.0
H1591 H 0.33967 0.84027 0.10606 0.0
H1592 H 0.4364 0.9534 0.1325 0.0
H1593 H 0.44864 0.8694 0.05503 0.0
H1594 H 0.40539 0.9068 0.19764 0.0
H1595 H 0.3674 0.91 0.18157 0.0
H1596 H 0.40422 0.94619 0.18361 0.0
H1597 H 0.41606 0.80206 0.10717 0.0
H1598 H 0.43049 0.811 0.06545 0.0
H1599 H 0.38523 0.80762 0.08285 0.0
C1600 C 0.70618 0.21262 0.17535 0.0
C1601 C 0.71035 0.20131 0.20411 0.0
C1602 C 0.68391 0.19164 0.15325 0.0
C1603 C 0.66563 0.15822 0.15973 0.0
C1604 C 0.66972 0.14666 0.18877 0.0
C1605 C 0.69189 0.16837 0.21064 0.0
C1606 C 0.68041 0.20505 0.12263 0.0
C1607 C 0.65114 0.11111 0.19645 0.0
C1608 C 0.58908 0.11326 0.11137 0.0
C1609 C 0.60556 0.09342 0.08494 0.0
C1610 C 0.60808 0.1341 0.13626 0.0
C1611 C 0.64422 0.13467 0.13497 0.0
C1612 C 0.66053 0.11365 0.10903 0.0
C1613 C 0.64117 0.09364 0.08432 0.0
C1614 C 0.58978 0.15628 0.16343 0.0
C1615 C 0.69877 0.11287 0.1069 0.0
H1616 H 0.72051 0.23795 0.17003 0.0
H1617 H 0.69479 0.15952 0.23292 0.0
H1618 H 0.69089 0.18893 0.10047 0.0
H1619 H 0.65238 0.20323 0.12092 0.0
H1620 H 0.69467 0.23232 0.12216 0.0
H1621 H 0.65597 0.10648 0.22064 0.0
H1622 H 0.62251 0.10758 0.19658 0.0
H1623 H 0.66009 0.0912 0.17701 0.0
H1624 H 0.56165 0.11335 0.11206 0.0
H1625 H 0.65417 0.0782 0.06422 0.0
H1626 H 0.60176 0.18395 0.16215 0.0
H1627 H 0.59319 0.15104 0.18782 0.0
H1628 H 0.56132 0.15184 0.16184 0.0
H1629 H 0.71526 0.13873 0.10347 0.0
H1630 H 0.70701 0.09367 0.08623 0.0
H1631 H 0.70405 0.10655 0.13019 0.0
C1632 C 0.72787 0.66811 0.82225 0.0
C1633 C 0.71338 0.69182 0.81117 0.0
C1634 C 0.70709 0.64409 0.84204 0.0
C1635 C 0.67095 0.64382 0.8511 0.0
C1636 C 0.65591 0.66677 0.8389 0.0
C1637 C 0.67731 0.69053 0.81915 0.0
C1638 C 0.7242 0.62012 0.85459 0.0
C1639 C 0.6176 0.66759 0.84816 0.0
C1640 C 0.61436 0.56861 0.89299 0.0
C1641 C 0.6157 0.5823 0.92632 0.0
C1642 C 0.63157 0.58852 0.86802 0.0
C1643 C 0.65022 0.62284 0.87668 0.0
C1644 C 0.65039 0.63712 0.91026 0.0
C1645 C 0.63323 0.61675 0.93453 0.0
C1646 C 0.63066 0.57257 0.83242 0.0
C1647 C 0.66952 0.67375 0.92067 0.0
H1648 H 0.75565 0.66874 0.81604 0.0
H1649 H 0.66591 0.70899 0.81105 0.0
H1650 H 0.72441 0.62738 0.88157 0.0
H1651 H 0.70903 0.59314 0.85023 0.0
H1652 H 0.75161 0.62109 0.84268 0.0
H1653 H 0.60897 0.68338 0.83311 0.0
H1654 H 0.60112 0.64108 0.84518 0.0
H1655 H 0.61288 0.67874 0.87447 0.0
H1656 H 0.60082 0.54211 0.88642 0.0
H1657 H 0.6339 0.6279 0.96019 0.0
H1658 H 0.65746 0.57022 0.82079 0.0
H1659 H 0.62184 0.58944 0.81871 0.0
H1660 H 0.61303 0.54656 0.8297 0.0
H1661 H 0.69797 0.6765 0.91213 0.0
H1662 H 0.66588 0.6814 0.94781 0.0
H1663 H 0.6602 0.69207 0.90912 0.0
C1664 C 0.39321 0.62983 0.85909 0.0
C1665 C 0.35859 0.63013 0.87358 0.0
C1666 C 0.41667 0.61999 0.87553 0.0
C1667 C 0.40523 0.60981 0.90709 0.0
C1668 C 0.37093 0.61174 0.92251 0.0
C1669 C 0.34815 0.62201 0.90569 0.0
C1670 C 0.45306 0.61853 0.85828 0.0
C1671 C 0.35753 0.60103 0.95605 0.0
C1672 C 0.4405 0.53896 0.92994 0.0
C1673 C 0.4627 0.55706 0.95313 0.0
C1674 C 0.42267 0.55604 0.91415 0.0
C1675 C 0.42691 0.59233 0.9218 0.0
C1676 C 0.45025 0.61104 0.94444 0.0
C1677 C 0.4681 0.59312 0.9598 0.0
C1678 C 0.39815 0.53492 0.89024 0.0
C1679 C 0.45529 0.64969 0.95337 0.0
H1680 H 0.40161 0.63579 0.83424 0.0
H1681 H 0.32179 0.62294 0.91749 0.0
H1682 H 0.47285 0.6305 0.87524 0.0
H1683 H 0.455 0.59117 0.85048 0.0
H1684 H 0.45962 0.63181 0.83613 0.0
H1685 H 0.33252 0.6089 0.96677 0.0
H1686 H 0.35314 0.57254 0.95406 0.0
H1687 H 0.3772 0.61246 0.97316 0.0
H1688 H 0.4364 0.51103 0.92467 0.0
H1689 H 0.48487 0.60706 0.97809 0.0
H1690 H 0.40491 0.54478 0.86623 0.0
H1691 H 0.37086 0.53732 0.8999 0.0
H1692 H 0.39902 0.50711 0.88596 0.0
H1693 H 0.46251 0.66217 0.93076 0.0
H1694 H 0.47585 0.66064 0.9698 0.0
H1695 H 0.43033 0.65636 0.96605 0.0
C1696 C 0.38246 0.31357 0.81285 0.0
C1697 C 0.35098 0.32428 0.81484 0.0
C1698 C 0.40916 0.33314 0.83099 0.0
C1699 C 0.40373 0.36356 0.85219 0.0
C1700 C 0.37238 0.37505 0.85333 0.0
C1701 C 0.34651 0.35542 0.83429 0.0
C1702 C 0.44236 0.32033 0.82883 0.0
C1703 C 0.36526 0.407 0.87607 0.0
C1704 C 0.44341 0.39044 0.93177 0.0
C1705 C 0.46722 0.42129 0.92599 0.0
C1706 C 0.42393 0.37041 0.90734 0.0
C1707 C 0.4287 0.38118 0.87603 0.0
C1708 C 0.45506 0.41052 0.86899 0.0
C1709 C 0.47397 0.43042 0.89418 0.0
C1710 C 0.39582 0.33981 0.91651 0.0
C1711 C 0.46167 0.42219 0.83559 0.0
H1712 H 0.38595 0.28958 0.79748 0.0
H1713 H 0.32203 0.36355 0.83586 0.0
H1714 H 0.46565 0.34169 0.82558 0.0
H1715 H 0.44289 0.31089 0.85216 0.0
H1716 H 0.44448 0.29894 0.80817 0.0
H1717 H 0.34066 0.41362 0.87244 0.0
H1718 H 0.36312 0.4028 0.90204 0.0
H1719 H 0.38726 0.42937 0.87216 0.0
H1720 H 0.43832 0.38291 0.95617 0.0
H1721 H 0.49238 0.45419 0.88943 0.0
H1722 H 0.39218 0.3186 0.89556 0.0
H1723 H 0.37075 0.34843 0.92426 0.0
H1724 H 0.40173 0.32948 0.93746 0.0
H1725 H 0.46224 0.39986 0.81571 0.0
H1726 H 0.48673 0.44149 0.83229 0.0
H1727 H 0.44006 0.43412 0.83275 0.0
C1728 C 0.62492 0.29 0.91561 0.0
C1729 C 0.59949 0.28556 0.89456 0.0
C1730 C 0.62524 0.31499 0.94376 0.0
C1731 C 0.60008 0.3357 0.94983 0.0
C1732 C 0.56997 0.32511 0.93324 0.0
C1733 C 0.56978 0.29934 0.90584 0.0
C1734 C 0.65534 0.32275 0.96366 0.0
C1735 C 0.54104 0.34495 0.94044 0.0
C1736 C 0.59096 0.41902 1.00279 0.0
C1737 C 0.60647 0.44224 0.98045 0.0
C1738 C 0.59355 0.38442 0.99553 0.0
C1739 C 0.60984 0.37254 0.96418 0.0
C1740 C 0.62858 0.39678 0.94296 0.0
C1741 C 0.62707 0.43166 0.95173 0.0
C1742 C 0.57596 0.36049 1.02031 0.0
C1743 C 0.64665 0.38556 0.90924 0.0
H1744 H 0.64727 0.27805 0.90749 0.0
H1745 H 0.54946 0.29486 0.8901 0.0
H1746 H 0.67758 0.34127 0.9523 0.0
H1747 H 0.64775 0.33441 0.98934 0.0
H1748 H 0.66456 0.29889 0.96404 0.0
H1749 H 0.51836 0.33168 0.92709 0.0
H1750 H 0.53166 0.34841 0.96718 0.0
H1751 H 0.55116 0.37099 0.93296 0.0
H1752 H 0.57482 0.42727 0.02502 0.0
H1753 H 0.63891 0.44984 0.9346 0.0
H1754 H 0.58344 0.33504 1.01421 0.0
H1755 H 0.5471 0.3565 0.0218 0.0
H1756 H 0.58296 0.37256 0.04513 0.0
H1757 H 0.66504 0.36938 0.91107 0.0
H1758 H 0.66162 0.40782 0.8968 0.0
H1759 H 0.62681 0.36993 0.89353 0.0
C1760 C 0.68967 0.37867 0.1341 0.0
C1761 C 0.69265 0.39051 0.16751 0.0
C1762 C 0.66572 0.38857 0.11843 0.0
C1763 C 0.64477 0.41132 0.13654 0.0
C1764 C 0.64553 0.42083 0.17091 0.0
C1765 C 0.66942 0.41018 0.18603 0.0
C1766 C 0.66526 0.37729 0.08187 0.0
C1767 C 0.62378 0.44517 0.19111 0.0
C1768 C 0.63517 0.48084 0.091 0.0
C1769 C 0.60027 0.47031 0.08452 0.0
C1770 C 0.64957 0.46184 0.10793 0.0
C1771 C 0.62875 0.4311 0.11862 0.0
C1772 C 0.5935 0.42 0.11217 0.0
C1773 C 0.57955 0.43989 0.0953 0.0
C1774 C 0.68725 0.47486 0.11441 0.0
C1775 C 0.57072 0.38714 0.12291 0.0
H1776 H 0.70717 0.36287 0.11988 0.0
H1777 H 0.67163 0.41933 0.21189 0.0
H1778 H 0.63807 0.37056 0.0757 0.0
H1779 H 0.67999 0.39889 0.06847 0.0
H1780 H 0.67756 0.35473 0.07284 0.0
H1781 H 0.62241 0.44495 0.21795 0.0
H1782 H 0.63566 0.47184 0.18591 0.0
H1783 H 0.59678 0.43842 0.18448 0.0
H1784 H 0.65156 0.50429 0.08296 0.0
H1785 H 0.55259 0.43151 0.09036 0.0
H1786 H 0.70288 0.45544 0.10259 0.0
H1787 H 0.68867 0.47882 0.14126 0.0
H1788 H 0.69962 0.4996 0.10491 0.0
H1789 H 0.58278 0.36493 0.11157 0.0
H1790 H 0.54389 0.38204 0.11597 0.0
H1791 H 0.56873 0.38858 0.15 0.0
C1792 C 0.70808 0.67634 0.21721 0.0
C1793 C 0.70425 0.70954 0.23195 0.0
C1794 C 0.68387 0.65536 0.19701 0.0
C1795 C 0.65475 0.66763 0.19204 0.0
C1796 C 0.64958 0.70024 0.20867 0.0
C1797 C 0.67465 0.721 0.22809 0.0
C1798 C 0.69072 0.62102 0.1793 0.0
C1799 C 0.61848 0.71392 0.2047 0.0
C1800 C 0.62461 0.63594 0.10819 0.0
C1801 C 0.59699 0.60765 0.11429 0.0
C1802 C 0.64283 0.65613 0.13347 0.0
C1803 C 0.63278 0.64856 0.16604 0.0
C1804 C 0.60336 0.62171 0.17294 0.0
C1805 C 0.5859 0.60137 0.14692 0.0
C1806 C 0.67416 0.6844 0.12491 0.0
C1807 C 0.59133 0.61349 0.20753 0.0
H1808 H 0.73097 0.66742 0.2201 0.0
H1809 H 0.67134 0.74649 0.23986 0.0
H1810 H 0.66692 0.60028 0.1827 0.0
H1811 H 0.69734 0.62221 0.15248 0.0
H1812 H 0.71266 0.61388 0.18802 0.0
H1813 H 0.61531 0.73698 0.22309 0.0
H1814 H 0.6219 0.72124 0.17972 0.0
H1815 H 0.59405 0.69371 0.20715 0.0
H1816 H 0.63321 0.64151 0.08323 0.0
H1817 H 0.5646 0.57971 0.15202 0.0
H1818 H 0.69825 0.67839 0.13054 0.0
H1819 H 0.67115 0.70938 0.14002 0.0
H1820 H 0.67796 0.6876 0.0985 0.0
H1821 H 0.61068 0.60163 0.21517 0.0
H1822 H 0.5654 0.5953 0.20955 0.0
H1823 H 0.58967 0.63746 0.22506 0.0
C1824 C 0.39705 0.69072 0.15795 0.0
C1825 C 0.41611 0.72478 0.1574 0.0
C1826 C 0.39729 0.66646 0.12966 0.0
C1827 C 0.41728 0.67675 0.10021 0.0
C1828 C 0.4304 0.71223 0.09804 0.0
C1829 C 0.43075 0.73603 0.12713 0.0
C1830 C 0.38158 0.6289 0.13296 0.0
C1831 C 0.44806 0.72428 0.06593 0.0
C1832 C 0.47712 0.61628 0.08017 0.0
C1833 C 0.45676 0.58819 0.06221 0.0
C1834 C 0.46691 0.64767 0.08895 0.0
C1835 C 0.43542 0.65109 0.07923 0.0
C1836 C 0.41707 0.62423 0.05766 0.0
C1837 C 0.42775 0.59262 0.04964 0.0
C1838 C 0.48787 0.67548 0.11187 0.0
C1839 C 0.3856 0.62857 0.04423 0.0
H1840 H 0.38533 0.68184 0.18119 0.0
H1841 H 0.44434 0.76267 0.12645 0.0
H1842 H 0.36365 0.61733 0.11421 0.0
H1843 H 0.40258 0.61411 0.12893 0.0
H1844 H 0.36675 0.62549 0.15766 0.0
H1845 H 0.44394 0.75033 0.06483 0.0
H1846 H 0.47668 0.7262 0.06384 0.0
H1847 H 0.43798 0.70602 0.0446 0.0
H1848 H 0.50021 0.61318 0.08908 0.0
H1849 H 0.41326 0.57139 0.03404 0.0
H1850 H 0.47193 0.67968 0.13624 0.0
H1851 H 0.49532 0.7002 0.10175 0.0
H1852 H 0.51229 0.66875 0.11585 0.0
H1853 H 0.37168 0.60388 0.0312 0.0
H1854 H 0.39445 0.64767 0.02674 0.0
H1855 H 0.36683 0.63894 0.06406 0.0
C1856 C 0.37477 0.33983 0.21872 0.0
C1857 C 0.33955 0.34134 0.22926 0.0
C1858 C 0.39677 0.36339 0.19917 0.0
C1859 C 0.38321 0.38898 0.18951 0.0
C1860 C 0.34795 0.39133 0.20086 0.0
C1861 C 0.32655 0.36751 0.22065 0.0
C1862 C 0.43405 0.35972 0.18749 0.0
C1863 C 0.3324 0.41806 0.1909 0.0
C1864 C 0.4456 0.46157 0.1475 0.0
C1865 C 0.44288 0.44871 0.11418 0.0
C1866 C 0.42647 0.44246 0.1725 0.0
C1867 C 0.40428 0.40984 0.16391 0.0
C1868 C 0.40219 0.39649 0.13035 0.0
C1869 C 0.42148 0.41591 0.10608 0.0
C1870 C 0.42957 0.4573 0.20809 0.0
C1871 C 0.37913 0.36174 0.11995 0.0
H1872 H 0.38502 0.31952 0.225 0.0
H1873 H 0.29945 0.36898 0.22887 0.0
H1874 H 0.43688 0.34997 0.16072 0.0
H1875 H 0.45246 0.38515 0.19116 0.0
H1876 H 0.44186 0.34153 0.20051 0.0
H1877 H 0.30591 0.41889 0.20447 0.0
H1878 H 0.34968 0.44404 0.19534 0.0
H1879 H 0.33031 0.41211 0.16413 0.0
H1880 H 0.46202 0.48677 0.15406 0.0
H1881 H 0.41945 0.40525 0.08048 0.0
H1882 H 0.43762 0.43889 0.22059 0.0
H1883 H 0.40367 0.46123 0.22102 0.0
H1884 H 0.44881 0.48235 0.21073 0.0
H1885 H 0.38673 0.34121 0.12989 0.0
H1886 H 0.38072 0.3549 0.09275 0.0
H1887 H 0.35144 0.36181 0.13018 0.0
C1888 C 0.82546 0.68077 0.68666 0.0
C1889 C 0.84009 0.71129 0.70629 0.0
C1890 C 0.84665 0.66145 0.66386 0.0
C1891 C 0.88371 0.67205 0.6611 0.0
C1892 C 0.89864 0.70306 0.68059 0.0
C1893 C 0.87676 0.72244 0.70247 0.0
C1894 C 0.82928 0.62911 0.64327 0.0
C1895 C 0.93785 0.71524 0.67916 0.0
C1896 C 0.93482 0.60021 0.6363 0.0
C1897 C 0.94841 0.60291 0.60316 0.0
C1898 C 0.91436 0.62266 0.65516 0.0
C1899 C 0.9066 0.64879 0.6408 0.0
C1900 C 0.92043 0.65205 0.60739 0.0
C1901 C 0.94147 0.62934 0.58906 0.0
C1902 C 0.90086 0.61817 0.69062 0.0
C1903 C 0.91242 0.67913 0.59086 0.0
H1904 H 0.79728 0.67163 0.68938 0.0
H1905 H 0.88853 0.74628 0.71688 0.0
H1906 H 0.83996 0.62945 0.6169 0.0
H1907 H 0.83499 0.60616 0.65074 0.0
H1908 H 0.80041 0.62614 0.64588 0.0
H1909 H 0.94545 0.74082 0.69433 0.0
H1910 H 0.94876 0.69623 0.68819 0.0
H1911 H 0.95008 0.71699 0.65336 0.0
H1912 H 0.94029 0.58029 0.64777 0.0
H1913 H 0.95159 0.63162 0.56351 0.0
H1914 H 0.8718 0.61246 0.69433 0.0
H1915 H 0.90994 0.64247 0.70697 0.0
H1916 H 0.90972 0.59702 0.69836 0.0
H1917 H 0.88364 0.6757 0.59201 0.0
H1918 H 0.92435 0.67799 0.56467 0.0
H1919 H 0.92228 0.70521 0.6041 0.0
C1920 C 0.36622 0.82797 0.6989 0.0
C1921 C 0.33579 0.80377 0.69142 0.0
C1922 C 0.3883 0.84586 0.67463 0.0
C1923 C 0.38011 0.83887 0.64187 0.0
C1924 C 0.35047 0.81285 0.63384 0.0
C1925 C 0.32829 0.796 0.65887 0.0
C1926 C 0.41928 0.87363 0.68454 0.0
C1927 C 0.34158 0.80359 0.59905 0.0
C1928 C 0.40854 0.9171 0.59753 0.0
C1929 C 0.44197 0.91384 0.58146 0.0
C1930 C 0.38753 0.89204 0.61589 0.0
C1931 C 0.39962 0.8622 0.61761 0.0
C1932 C 0.43181 0.85701 0.59887 0.0
C1933 C 0.45284 0.8831 0.58115 0.0
C1934 C 0.35362 0.89899 0.63561 0.0
C1935 C 0.44503 0.82496 0.59913 0.0
H1936 H 0.37206 0.83389 0.72409 0.0
H1937 H 0.30507 0.77672 0.653 0.0
H1938 H 0.44353 0.8695 0.66827 0.0
H1939 H 0.41523 0.89921 0.68168 0.0
H1940 H 0.42327 0.87436 0.71046 0.0
H1941 H 0.3214 0.77924 0.59584 0.0
H1942 H 0.33145 0.82461 0.59265 0.0
H1943 H 0.36537 0.80075 0.5814 0.0
H1944 H 0.39958 0.94048 0.59744 0.0
H1945 H 0.47855 0.88027 0.56883 0.0
H1946 H 0.35565 0.90219 0.66232 0.0
H1947 H 0.33159 0.87684 0.63035 0.0
H1948 H 0.34713 0.92263 0.63031 0.0
H1949 H 0.45591 0.82712 0.62248 0.0
H1950 H 0.466 0.82128 0.57833 0.0
H1951 H 0.42338 0.80169 0.59781 0.0
C1952 C 0.19249 0.41293 0.65387 0.0
C1953 C 0.19797 0.3812 0.63634 0.0
C1954 C 0.16863 0.42936 0.64512 0.0
C1955 C 0.14939 0.41324 0.61866 0.0
C1956 C 0.154 0.38058 0.60163 0.0
C1957 C 0.17859 0.36511 0.61046 0.0
C1958 C 0.16484 0.46445 0.66344 0.0
C1959 C 0.13339 0.36224 0.57377 0.0
C1960 C 0.0667 0.44212 0.61255 0.0
C1961 C 0.07805 0.46237 0.58708 0.0
C1962 C 0.08965 0.42599 0.62311 0.0
C1963 C 0.12496 0.43082 0.60829 0.0
C1964 C 0.13678 0.4519 0.58307 0.0
C1965 C 0.11305 0.46716 0.57251 0.0
C1966 C 0.07589 0.40313 0.64958 0.0
C1967 C 0.1744 0.45808 0.56706 0.0
H1968 H 0.20787 0.42549 0.67362 0.0
H1969 H 0.18288 0.34051 0.59701 0.0
H1970 H 0.17252 0.48377 0.64615 0.0
H1971 H 0.1371 0.46393 0.67384 0.0
H1972 H 0.18125 0.47316 0.68381 0.0
H1973 H 0.13852 0.33607 0.56444 0.0
H1974 H 0.10491 0.35978 0.58202 0.0
H1975 H 0.14025 0.37759 0.55307 0.0
H1976 H 0.03954 0.43801 0.62364 0.0
H1977 H 0.1219 0.48292 0.55291 0.0
H1978 H 0.09096 0.41264 0.67079 0.0
H1979 H 0.07942 0.37651 0.6399 0.0
H1980 H 0.04768 0.40205 0.65855 0.0
H1981 H 0.19226 0.46824 0.5861 0.0
H1982 H 0.1798 0.47662 0.54908 0.0
H1983 H 0.1807 0.43334 0.55404 0.0
C1984 C 0.67329 0.20405 0.72358 0.0
C1985 C 0.70997 0.20861 0.71799 0.0
C1986 C 0.65182 0.18146 0.70169 0.0
C1987 C 0.66705 0.16176 0.67377 0.0
C1988 C 0.70398 0.16529 0.66849 0.0
C1989 C 0.725 0.1891 0.69027 0.0
C1990 C 0.61276 0.17925 0.70818 0.0
C1991 C 0.72138 0.14424 0.63963 0.0
C1992 C 0.60168 0.08396 0.63722 0.0
C1993 C 0.59355 0.09603 0.61049 0.0
C1994 C 0.62716 0.10417 0.65669 0.0
C1995 C 0.64402 0.13797 0.65019 0.0
C1996 C 0.63639 0.14997 0.62272 0.0
C1997 C 0.61172 0.12863 0.60288 0.0
C1998 C 0.63529 0.08965 0.6848 0.0
C1999 C 0.65298 0.18603 0.61525 0.0
H2000 H 0.6612 0.21884 0.74488 0.0
H2001 H 0.75323 0.19293 0.68507 0.0
H2002 H 0.60367 0.18557 0.68666 0.0
H2003 H 0.59882 0.15254 0.71161 0.0
H2004 H 0.60514 0.19709 0.73039 0.0
H2005 H 0.74968 0.14701 0.64103 0.0
H2006 H 0.70832 0.11651 0.63846 0.0
H2007 H 0.71874 0.15258 0.61636 0.0
H2008 H 0.58797 0.0586 0.64298 0.0
H2009 H 0.60538 0.13812 0.58235 0.0
H2010 H 0.62478 0.10326 0.70857 0.0
H2011 H 0.66405 0.09384 0.68442 0.0
H2012 H 0.62369 0.06157 0.68383 0.0
H2013 H 0.64478 0.20516 0.63598 0.0
H2014 H 0.64552 0.191 0.59228 0.0
H2015 H 0.68192 0.1904 0.61281 0.0
C2016 C 0.84987 0.31043 0.35288 0.0
C2017 C 0.8314 0.32456 0.33469 0.0
C2018 C 0.87252 0.33162 0.37457 0.0
C2019 C 0.87662 0.36796 0.37865 0.0
C2020 C 0.85711 0.38237 0.36133 0.0
C2021 C 0.83496 0.36059 0.33948 0.0
C2022 C 0.89304 0.31512 0.39223 0.0
C2023 C 0.86046 0.42095 0.3651 0.0
C2024 C 0.92181 0.42286 0.45089 0.0
C2025 C 0.95602 0.43395 0.43548 0.0
C2026 C 0.89552 0.40162 0.43277 0.0
C2027 C 0.90369 0.39092 0.39853 0.0
C2028 C 0.93818 0.40192 0.38297 0.0
C2029 C 0.96371 0.42331 0.4015 0.0
C2030 C 0.85897 0.39074 0.45021 0.0
C2031 C 0.94827 0.39095 0.34664 0.0
H2032 H 0.84721 0.28269 0.34979 0.0
H2033 H 0.82083 0.37197 0.32578 0.0
H2034 H 0.92141 0.32286 0.38345 0.0
H2035 H 0.88931 0.32426 0.41908 0.0
H2036 H 0.88524 0.28647 0.38812 0.0
H2037 H 0.84114 0.42791 0.35245 0.0
H2038 H 0.8568 0.43191 0.39154 0.0
H2039 H 0.88718 0.43332 0.35462 0.0
H2040 H 0.91548 0.43098 0.47704 0.0
H2041 H 0.99 0.43146 0.38919 0.0
H2042 H 0.85122 0.36216 0.44762 0.0
H2043 H 0.84006 0.3996 0.43866 0.0
H2044 H 0.85673 0.40133 0.47684 0.0
H2045 H 0.94311 0.36236 0.34107 0.0
H2046 H 0.97632 0.40142 0.33832 0.0
H2047 H 0.93207 0.39986 0.33204 0.0
C2048 C 0.6843 0.81014 0.3516 0.0
C2049 C 0.71857 0.82629 0.33987 0.0
C2050 C 0.66163 0.8286 0.37386 0.0
C2051 C 0.67321 0.86439 0.38506 0.0
C2052 C 0.70809 0.88061 0.37372 0.0
C2053 C 0.73003 0.86159 0.35128 0.0
C2054 C 0.62482 0.80993 0.38463 0.0
C2055 C 0.72217 0.91843 0.38483 0.0
C2056 C 0.6084 0.9248 0.4105 0.0
C2057 C 0.60461 0.92963 0.44514 0.0
C2058 C 0.62939 0.90288 0.39104 0.0
C2059 C 0.64826 0.88555 0.40621 0.0
C2060 C 0.64417 0.88986 0.4413 0.0
C2061 C 0.62219 0.91149 0.4603 0.0
C2062 C 0.63191 0.89891 0.35399 0.0
C2063 C 0.6641 0.87265 0.4588 0.0
H2064 H 0.67474 0.78316 0.34256 0.0
H2065 H 0.7564 0.87452 0.3426 0.0
H2066 H 0.6197 0.81274 0.4119 0.0
H2067 H 0.60577 0.82163 0.37627 0.0
H2068 H 0.61999 0.78198 0.37466 0.0
H2069 H 0.75069 0.92645 0.3767 0.0
H2070 H 0.70826 0.9342 0.37465 0.0
H2071 H 0.71738 0.9243 0.41208 0.0
H2072 H 0.59501 0.93863 0.39845 0.0
H2073 H 0.61998 0.91534 0.48695 0.0
H2074 H 0.62586 0.87114 0.34354 0.0
H2075 H 0.65905 0.90996 0.34345 0.0
H2076 H 0.61377 0.91199 0.34594 0.0
H2077 H 0.65879 0.84441 0.45034 0.0
H2078 H 0.65723 0.87725 0.48599 0.0
H2079 H 0.69266 0.88264 0.45263 0.0
C2080 C 0.21952 0.72988 0.37733 0.0
C2081 C 0.21189 0.72027 0.34483 0.0
C2082 C 0.19737 0.71485 0.40329 0.0
C2083 C 0.16769 0.6885 0.39636 0.0
C2084 C 0.15939 0.67943 0.36358 0.0
C2085 C 0.18133 0.69594 0.33825 0.0
C2086 C 0.20658 0.72622 0.4379 0.0
C2087 C 0.12856 0.65084 0.35492 0.0
C2088 C 0.14022 0.61484 0.44655 0.0
C2089 C 0.1069 0.61885 0.46226 0.0
C2090 C 0.1608 0.63812 0.42612 0.0
C2091 C 0.14838 0.66701 0.4221 0.0
C2092 C 0.11648 0.67331 0.44066 0.0
C2093 C 0.09582 0.64888 0.46037 0.0
C2094 C 0.19449 0.63012 0.40675 0.0
C2095 C 0.10316 0.70466 0.43812 0.0
H2096 H 0.24299 0.74914 0.38246 0.0
H2097 H 0.17553 0.68865 0.31307 0.0
H2098 H 0.18279 0.72875 0.45566 0.0
H2099 H 0.21809 0.70655 0.44506 0.0
H2100 H 0.2259 0.75127 0.44007 0.0
H2101 H 0.12451 0.64827 0.32874 0.0
H2102 H 0.13286 0.62594 0.35944 0.0
H2103 H 0.10428 0.65554 0.37081 0.0
H2104 H 0.14917 0.59189 0.4483 0.0
H2105 H 0.07011 0.65213 0.47235 0.0
H2106 H 0.21669 0.65241 0.41086 0.0
H2107 H 0.19223 0.62529 0.38001 0.0
H2108 H 0.20093 0.6071 0.41348 0.0
H2109 H 0.12475 0.728 0.4386 0.0
H2110 H 0.08197 0.7093 0.4584 0.0
H2111 H 0.09262 0.7009 0.41436 0.0
C2112 C 0.39838 0.12858 0.35823 0.0
C2113 C 0.39959 0.16385 0.36847 0.0
C2114 C 0.40775 0.10861 0.37822 0.0
C2115 C 0.4192 0.12454 0.40885 0.0
C2116 C 0.41763 0.15946 0.42045 0.0
C2117 C 0.40765 0.1787 0.40011 0.0
C2118 C 0.40841 0.07129 0.36522 0.0
C2119 C 0.42978 0.17749 0.45284 0.0
C2120 C 0.44301 0.07035 0.46446 0.0
C2121 C 0.47892 0.07344 0.45368 0.0
C2122 C 0.42287 0.08677 0.45014 0.0
C2123 C 0.43935 0.10714 0.42509 0.0
C2124 C 0.47576 0.11085 0.41478 0.0
C2125 C 0.49493 0.09378 0.42898 0.0
C2126 C 0.38404 0.08202 0.46144 0.0
C2127 C 0.49464 0.13286 0.38862 0.0
H2128 H 0.39162 0.11699 0.33392 0.0
H2129 H 0.40864 0.20602 0.40803 0.0
H2130 H 0.43588 0.0689 0.35651 0.0
H2131 H 0.39806 0.05488 0.38492 0.0
H2132 H 0.39289 0.06122 0.34432 0.0
H2133 H 0.42114 0.20229 0.46095 0.0
H2134 H 0.41987 0.16082 0.47238 0.0
H2135 H 0.45884 0.18306 0.45013 0.0
H2136 H 0.43061 0.05468 0.48358 0.0
H2137 H 0.52283 0.09682 0.42095 0.0
H2138 H 0.36932 0.06889 0.4406 0.0
H2139 H 0.37691 0.10749 0.46953 0.0
H2140 H 0.37547 0.06648 0.48202 0.0
H2141 H 0.48377 0.12252 0.36507 0.0
H2142 H 0.52327 0.13384 0.38422 0.0
H2143 H 0.49065 0.15964 0.39597 0.0
C2144 C 0.69421 0.93146 0.67529 0.0
C2145 C 0.67991 0.89708 0.67991 0.0
C2146 C 0.67965 0.94758 0.65553 0.0
C2147 C 0.64993 0.92885 0.64054 0.0
C2148 C 0.63652 0.8936 0.6438 0.0
C2149 C 0.65179 0.87809 0.66342 0.0
C2150 C 0.69487 0.98507 0.65213 0.0
C2151 C 0.60462 0.8729 0.62841 0.0
C2152 C 0.58108 0.97524 0.63103 0.0
C2153 C 0.58524 0.97455 0.59683 0.0
C2154 C 0.60293 0.96156 0.6456 0.0
C2155 C 0.62979 0.94707 0.62548 0.0
C2156 C 0.63539 0.94785 0.59112 0.0
C2157 C 0.61294 0.96162 0.57712 0.0
C2158 C 0.59613 0.96117 0.68239 0.0
C2159 C 0.66407 0.93289 0.56906 0.0
H2160 H 0.71638 0.94591 0.68763 0.0
H2161 H 0.64066 0.85152 0.66713 0.0
H2162 H 0.69806 0.98899 0.62599 0.0
H2163 H 0.67666 1.00113 0.66626 0.0
H2164 H 0.72066 0.99447 0.66144 0.0
H2165 H 0.59981 0.84499 0.63041 0.0
H2166 H 0.58119 0.88277 0.64089 0.0
H2167 H 0.60753 0.87577 0.60203 0.0
H2168 H 0.56007 0.9857 0.64646 0.0
H2169 H 0.61638 0.96116 0.55066 0.0
H2170 H 0.62037 0.97338 0.69369 0.0
H2171 H 0.58822 0.93409 0.68748 0.0
H2172 H 0.57518 0.97493 0.69462 0.0
H2173 H 0.68936 0.94297 0.5791 0.0
H2174 H 0.6673 0.93884 0.54352 0.0
H2175 H 0.65785 0.90442 0.5681 0.0
C2176 C 0.69007 0.18706 0.33507 0.0
C2177 C 0.7099 0.22086 0.34013 0.0
C2178 C 0.66919 0.17161 0.36141 0.0
C2179 C 0.66821 0.1904 0.39367 0.0
C2180 C 0.6875 0.2249 0.39877 0.0
C2181 C 0.70831 0.23964 0.37194 0.0
C2182 C 0.64892 0.13479 0.3548 0.0
C2183 C 0.68694 0.24588 0.43266 0.0
C2184 C 0.5945 0.14843 0.45425 0.0
C2185 C 0.61124 0.12692 0.46594 0.0
C2186 C 0.61319 0.17118 0.43218 0.0
C2187 C 0.64943 0.1726 0.42209 0.0
C2188 C 0.66691 0.15319 0.43632 0.0
C2189 C 0.64753 0.13037 0.45784 0.0
C2190 C 0.59356 0.19133 0.41751 0.0
C2191 C 0.70555 0.15418 0.4266 0.0
H2192 H 0.69099 0.17256 0.31045 0.0
H2193 H 0.72399 0.26563 0.37601 0.0
H2194 H 0.65916 0.11801 0.36747 0.0
H2195 H 0.6209 0.13301 0.36481 0.0
H2196 H 0.65075 0.12455 0.32809 0.0
H2197 H 0.70179 0.27296 0.43217 0.0
H2198 H 0.65954 0.24618 0.44378 0.0
H2199 H 0.69847 0.23384 0.44892 0.0
H2200 H 0.56631 0.14532 0.46002 0.0
H2201 H 0.66039 0.11354 0.46673 0.0
H2202 H 0.59091 0.17979 0.39153 0.0
H2203 H 0.60821 0.21846 0.41741 0.0
H2204 H 0.5669 0.19118 0.4311 0.0
H2205 H 0.71005 0.14118 0.40088 0.0
H2206 H 0.71596 0.14102 0.44282 0.0
H2207 H 0.72067 0.18123 0.4275 0.0
C2208 C 0.82581 0.58061 0.39249 0.0
C2209 C 0.83609 0.60782 0.37359 0.0
C2210 C 0.84931 0.57265 0.41018 0.0
C2211 C 0.88396 0.59265 0.40946 0.0
C2212 C 0.89394 0.62141 0.39207 0.0
C2213 C 0.86995 0.62859 0.37425 0.0
C2214 C 0.83754 0.54171 0.42828 0.0
C2215 C 0.9305 0.64363 0.39095 0.0
C2216 C 0.94023 0.58175 0.47125 0.0
C2217 C 0.9607 0.55969 0.45185 0.0
C2218 C 0.91543 0.59312 0.45778 0.0
C2219 C 0.91048 0.58154 0.42433 0.0
C2220 C 0.93062 0.55869 0.4049 0.0
C2221 C 0.95566 0.54835 0.41878 0.0
C2222 C 0.89485 0.61781 0.47922 0.0
C2223 C 0.92565 0.54501 0.36938 0.0
H2224 H 0.79948 0.56487 0.39277 0.0
H2225 H 0.87829 0.64953 0.35966 0.0
H2226 H 0.85207 0.52146 0.41619 0.0
H2227 H 0.84352 0.54889 0.45402 0.0
H2228 H 0.80903 0.5305 0.42866 0.0
H2229 H 0.93299 0.66716 0.37958 0.0
H2230 H 0.93804 0.65155 0.41615 0.0
H2231 H 0.94941 0.62855 0.37643 0.0
H2232 H 0.94419 0.59081 0.49677 0.0
H2233 H 0.97116 0.53103 0.40375 0.0
H2234 H 0.8664 0.60622 0.48063 0.0
H2235 H 0.89945 0.64185 0.46816 0.0
H2236 H 0.90205 0.62469 0.50462 0.0
H2237 H 0.89809 0.53109 0.36778 0.0
H2238 H 0.94311 0.52712 0.35776 0.0
H2239 H 0.93098 0.56675 0.35497 0.0
C2240 C 0.35794 0.8151 0.36096 0.0
C2241 C 0.34019 0.82971 0.34255 0.0
C2242 C 0.38289 0.83594 0.38063 0.0
C2243 C 0.38971 0.87237 0.38269 0.0
C2244 C 0.37141 0.88726 0.3646 0.0
C2245 C 0.34742 0.86578 0.34432 0.0
C2246 C 0.40212 0.81897 0.39912 0.0
C2247 C 0.37686 0.92595 0.36696 0.0
C2248 C 0.43449 0.92859 0.45453 0.0
C2249 C 0.46852 0.94021 0.43911 0.0
C2250 C 0.40872 0.90603 0.43682 0.0
C2251 C 0.41699 0.89489 0.40265 0.0
C2252 C 0.45156 0.90588 0.38716 0.0
C2253 C 0.47673 0.92851 0.40544 0.0
C2254 C 0.37267 0.89516 0.45515 0.0
C2255 C 0.46215 0.89347 0.35125 0.0
H2256 H 0.35273 0.78729 0.35964 0.0
H2257 H 0.33368 0.87736 0.33041 0.0
H2258 H 0.43081 0.82723 0.39214 0.0
H2259 H 0.39642 0.82731 0.42598 0.0
H2260 H 0.39466 0.79034 0.39416 0.0
H2261 H 0.37341 0.93779 0.39319 0.0
H2262 H 0.404 0.93687 0.35639 0.0
H2263 H 0.35838 0.93349 0.35375 0.0
H2264 H 0.42777 0.9373 0.48051 0.0
H2265 H 0.50305 0.93682 0.39325 0.0
H2266 H 0.35743 0.87085 0.44295 0.0
H2267 H 0.35825 0.91598 0.45699 0.0
H2268 H 0.37437 0.89173 0.48068 0.0
H2269 H 0.45562 0.86481 0.34651 0.0
H2270 H 0.49059 0.90256 0.34342 0.0
H2271 H 0.44731 0.90279 0.33567 0.0
C2272 C 0.17632 0.31036 0.34092 0.0
C2273 C 0.21289 0.32248 0.33858 0.0
C2274 C 0.15306 0.32859 0.36233 0.0
C2275 C 0.16635 0.35965 0.38263 0.0
C2276 C 0.20324 0.37159 0.38094 0.0
C2277 C 0.22587 0.35331 0.35867 0.0
C2278 C 0.11411 0.31516 0.36234 0.0
C2279 C 0.21889 0.40417 0.4023 0.0
C2280 C 0.11163 0.42872 0.40599 0.0
C2281 C 0.09696 0.4254 0.43883 0.0
C2282 C 0.13361 0.4074 0.38773 0.0
C2283 C 0.14191 0.38175 0.40235 0.0
C2284 C 0.12694 0.37775 0.43539 0.0
C2285 C 0.10442 0.39937 0.45314 0.0
C2286 C 0.14828 0.41267 0.35263 0.0
C2287 C 0.13523 0.351 0.45214 0.0
H2288 H 0.16565 0.28668 0.32564 0.0
H2289 H 0.25382 0.36366 0.35661 0.0
H2290 H 0.10099 0.31289 0.38781 0.0
H2291 H 0.10296 0.33369 0.35286 0.0
H2292 H 0.1078 0.28958 0.34684 0.0
H2293 H 0.24798 0.40991 0.39846 0.0
H2294 H 0.20995 0.42646 0.39701 0.0
H2295 H 0.20975 0.40167 0.42863 0.0
H2296 H 0.10586 0.44828 0.39425 0.0
H2297 H 0.09349 0.39652 0.47842 0.0
H2298 H 0.14122 0.38821 0.33573 0.0
H2299 H 0.17729 0.42013 0.35021 0.0
H2300 H 0.1385 0.43301 0.34446 0.0
H2301 H 0.12693 0.3249 0.43822 0.0
H2302 H 0.12207 0.35126 0.47792 0.0
H2303 H 0.16395 0.35562 0.45227 0.0
C2304 C 0.36934 0.20758 0.72102 0.0
C2305 C 0.33959 0.21393 0.71103 0.0
C2306 C 0.39218 0.18897 0.69917 0.0
C2307 C 0.38556 0.17629 0.66615 0.0
C2308 C 0.3557 0.18294 0.65593 0.0
C2309 C 0.3331 0.20114 0.67842 0.0
C2310 C 0.42302 0.1821 0.71174 0.0
C2311 C 0.34731 0.17052 0.62117 0.0
C2312 C 0.45898 0.1437 0.60317 0.0
C2313 C 0.44959 0.1078 0.60365 0.0
C2314 C 0.43828 0.1663 0.62273 0.0
C2315 C 0.40749 0.153 0.64362 0.0
C2316 C 0.39752 0.11681 0.64339 0.0
C2317 C 0.41825 0.095 0.62353 0.0
C2318 C 0.4497 0.20456 0.62155 0.0
C2319 C 0.36506 0.10092 0.66477 0.0
H2320 H 0.3748 0.2171 0.74608 0.0
H2321 H 0.30978 0.20476 0.67052 0.0
H2322 H 0.41985 0.1539 0.71115 0.0
H2323 H 0.44756 0.19106 0.69555 0.0
H2324 H 0.42583 0.1951 0.73734 0.0
H2325 H 0.32215 0.17592 0.61747 0.0
H2326 H 0.36859 0.18347 0.60373 0.0
H2327 H 0.34585 0.14233 0.6148 0.0
H2328 H 0.48293 0.15428 0.58822 0.0
H2329 H 0.40994 0.06747 0.62421 0.0
H2330 H 0.45639 0.21827 0.646 0.0
H2331 H 0.4279 0.21456 0.61595 0.0
H2332 H 0.47282 0.21089 0.60279 0.0
H2333 H 0.36727 0.11139 0.69105 0.0
H2334 H 0.36069 0.07234 0.66185 0.0
H2335 H 0.34167 0.10776 0.6586 0.0
C2336 C 0.83476 0.29616 0.67378 0.0
C2337 C 0.82877 0.31687 0.70416 0.0
C2338 C 0.85732 0.31002 0.64719 0.0
C2339 C 0.87418 0.34546 0.65107 0.0
C2340 C 0.86852 0.36626 0.68194 0.0
C2341 C 0.84607 0.3517 0.70803 0.0
C2342 C 0.86225 0.28704 0.6147 0.0
C2343 C 0.88565 0.40419 0.68733 0.0
C2344 C 0.95422 0.38678 0.59594 0.0
C2345 C 0.93935 0.4061 0.57955 0.0
C2346 C 0.93306 0.36474 0.61768 0.0
C2347 C 0.89622 0.36172 0.62272 0.0
C2348 C 0.88107 0.37872 0.60368 0.0
C2349 C 0.90284 0.40107 0.58275 0.0
C2350 C 0.9504 0.34726 0.63746 0.0
C2351 C 0.84213 0.37652 0.60781 0.0
H2352 H 0.82123 0.26927 0.67055 0.0
H2353 H 0.84199 0.36776 0.73156 0.0
H2354 H 0.85279 0.29696 0.59543 0.0
H2355 H 0.89048 0.28739 0.60695 0.0
H2356 H 0.84797 0.25988 0.61589 0.0
H2357 H 0.88023 0.41624 0.7133 0.0
H2358 H 0.91443 0.40785 0.68043 0.0
H2359 H 0.87586 0.41806 0.67133 0.0
H2360 H 0.98252 0.39125 0.59407 0.0
H2361 H 0.89135 0.41642 0.57049 0.0
H2362 H 0.93712 0.31968 0.63698 0.0
H2363 H 0.94804 0.35965 0.66356 0.0
H2364 H 0.97863 0.34898 0.62817 0.0
H2365 H 0.82686 0.3512 0.61434 0.0
H2366 H 0.8338 0.38098 0.58504 0.0
H2367 H 0.83569 0.39702 0.62789 0.0
C2368 C 0.20878 0.70554 0.6758 0.0
C2369 C 0.21535 0.6954 0.70434 0.0
C2370 C 0.18513 0.68382 0.65534 0.0
C2371 C 0.16844 0.65032 0.66264 0.0
C2372 C 0.17665 0.63904 0.69024 0.0
C2373 C 0.19969 0.66178 0.71092 0.0
C2374 C 0.1769 0.69739 0.62667 0.0
C2375 C 0.16028 0.60325 0.6985 0.0
C2376 C 0.07886 0.61007 0.63444 0.0
C2377 C 0.08719 0.58867 0.60506 0.0
C2378 C 0.10498 0.6302 0.65315 0.0
C2379 C 0.1405 0.62834 0.64289 0.0
C2380 C 0.14909 0.60639 0.61341 0.0
C2381 C 0.12242 0.58723 0.59459 0.0
C2382 C 0.09453 0.65396 0.68368 0.0
C2383 C 0.1864 0.60286 0.60198 0.0
H2384 H 0.22154 0.73102 0.6698 0.0
H2385 H 0.20483 0.65348 0.73265 0.0
H2386 H 0.18123 0.67957 0.60352 0.0
H2387 H 0.14887 0.69881 0.63056 0.0
H2388 H 0.1931 0.72348 0.6235 0.0
H2389 H 0.17222 0.597 0.71836 0.0
H2390 H 0.13184 0.60111 0.70666 0.0
H2391 H 0.16311 0.5837 0.67633 0.0
H2392 H 0.05173 0.61149 0.64261 0.0
H2393 H 0.12899 0.57041 0.57216 0.0
H2394 H 0.10765 0.68105 0.68087 0.0
H2395 H 0.10327 0.64782 0.70546 0.0
H2396 H 0.06578 0.65213 0.6886 0.0
H2397 H 0.20308 0.62816 0.59688 0.0
H2398 H 0.18864 0.58369 0.57938 0.0
H2399 H 0.197 0.59486 0.62173 0.0
loop_
_geom_bond_atom_site_label_1
_geom_bond_atom_site_label_2
_geom_bond_distance
_geom_bond_site_symmetry_2
_ccdc_geom_bond_type
Tb0 N29 2.617 . S
Tb0 N35 2.572 . S
Tb0 O44 2.465 . S
Tb0 O45 2.387 . S
Tb0 O47 2.428 . S
Tb0 O48 2.308 . S
Tb0 O52 2.349 . S
Tb0 O55 2.393 . S
Tb0 C64 2.802 . S
C1 N2 1.379 . S
C1 C4 1.416 . S
C1 C8 1.424 . S
N2 C1 1.379 . S
N2 C5 1.334 . S
N2 Tb11 2.617 . S
C3 C5 1.390 . S
C3 C6 1.339 . S
C3 H23 0.930 . S
C4 C1 1.416 . S
C4 C6 1.416 . S
C4 C10 1.448 . S
C5 N2 1.334 . S
C5 C3 1.390 . S
C5 H16 0.930 . S
C6 C3 1.339 . S
C6 C4 1.416 . S
C6 H27 0.930 . S
C7 C8 1.413 . S
C7 C9 1.427 . S
C7 C13 1.416 . S
C8 C1 1.424 . S
C8 C7 1.413 . S
C8 N12 1.361 . S
C9 C7 1.427 . S
C9 C10 1.328 . S
C9 H24 0.929 . S
C10 C4 1.448 . S
C10 C9 1.328 . S
C10 H25 0.930 . S
Tb11 N2 2.617 . S
Tb11 N12 2.572 . S
Tb11 O46 2.349 . S
Tb11 O49 2.393 . S
Tb11 O50 2.465 . S
Tb11 O51 2.387 . S
Tb11 O53 2.428 . S
Tb11 O54 2.308 . S
Tb11 C75 2.802 . S
N12 C8 1.361 . S
N12 Tb11 2.572 . S
N12 C14 1.340 . S
C13 C7 1.416 . S
C13 C15 1.332 . S
C13 H21 0.931 . S
C14 N12 1.340 . S
C14 C15 1.407 . S
C14 H20 0.930 . S
C15 C13 1.332 . S
C15 C14 1.407 . S
C15 H17 0.929 . S
H16 C5 0.930 . S
H17 C15 0.929 . S
H18 C33 0.930 . S
H19 C40 0.929 . S
H20 C14 0.930 . S
H21 C13 0.931 . S
H22 C36 0.930 . S
H23 C3 0.930 . S
H24 C9 0.929 . S
H25 C10 0.930 . S
H26 C31 0.930 . S
H27 C6 0.930 . S
H28 C39 0.931 . S
N29 Tb0 2.617 . S
N29 C30 1.379 . S
N29 C33 1.334 . S
C30 N29 1.379 . S
C30 C32 1.416 . S
C30 C38 1.424 . S
C31 H26 0.930 . S
C31 C33 1.390 . S
C31 C34 1.339 . S
C32 C30 1.416 . S
C32 C34 1.416 . S
C32 C65 1.448 . S
C33 H18 0.930 . S
C33 N29 1.334 . S
C33 C31 1.390 . S
C34 C31 1.339 . S
C34 C32 1.416 . S
C34 H41 0.930 . S
N35 Tb0 2.572 . S
N35 C36 1.340 . S
N35 C38 1.361 . S
C36 H22 0.930 . S
C36 N35 1.340 . S
C36 C40 1.407 . S
C37 C38 1.413 . S
C37 C39 1.416 . S
C37 C66 1.427 . S
C38 C30 1.424 . S
C38 N35 1.361 . S
C38 C37 1.413 . S
C39 H28 0.931 . S
C39 C37 1.416 . S
C39 C40 1.332 . S
C40 H19 0.929 . S
C40 C36 1.407 . S
C40 C39 1.332 . S
H41 C34 0.930 . S
H42 C65 0.930 . S
H43 C66 0.929 . S
O44 Tb0 2.465 . S
O44 C64 1.264 . S
O45 Tb0 2.387 . S
O45 C56 1.264 . S
O46 Tb11 2.349 . S
O46 C56 1.243 . S
O47 Tb0 2.428 . S
O47 C64 1.256 . S
O48 Tb0 2.308 . S
O48 C63 1.266 . S
O49 Tb11 2.393 . S
O49 C63 1.248 . S
O50 Tb11 2.465 . S
O50 C75 1.264 . S
O51 Tb11 2.387 . S
O51 C67 1.264 . S
O52 Tb0 2.349 . S
O52 C67 1.243 . S
O53 Tb11 2.428 . S
O53 C75 1.256 . S
O54 Tb11 2.308 . S
O54 C74 1.266 . S
O55 Tb0 2.393 . S
O55 C74 1.248 . S
C56 O45 1.264 . S
C56 O46 1.243 . S
C57 C60 1.399 . S
C57 C62 1.383 . S
C57 C64 1.496 . S
C58 C59 1.399 . S
C58 C62 1.389 . S
C59 C58 1.399 . S
C59 C61 1.380 . S
C59 H76 0.929 . S
C60 C57 1.399 . S
C60 C61 1.392 . S
C60 H77 0.929 . S
C61 C59 1.380 . S
C61 C60 1.392 . S
C61 H78 0.929 . S
C62 C57 1.383 . S
C62 C58 1.389 . S
C62 H79 0.931 . S
C63 O48 1.266 . S
C63 O49 1.248 . S
C64 Tb0 2.802 . S
C64 O44 1.264 . S
C64 O47 1.256 . S
C64 C57 1.496 . S
C65 C32 1.448 . S
C65 H42 0.930 . S
C65 C66 1.328 . S
C66 C37 1.427 . S
C66 H43 0.929 . S
C66 C65 1.328 . S
C67 O51 1.264 . S
C67 O52 1.243 . S
C68 C71 1.399 . S
C68 C72 1.383 . S
C68 C75 1.496 . S
C69 C70 1.399 . S
C69 C72 1.389 . S
C70 C69 1.399 . S
C70 C73 1.380 . S
C70 H80 0.929 . S
C71 C68 1.399 . S
C71 C73 1.392 . S
C71 H81 0.929 . S
C72 C68 1.383 . S
C72 C69 1.389 . S
C72 H82 0.931 . S
C73 C70 1.380 . S
C73 C71 1.392 . S
C73 H83 0.929 . S
C74 O54 1.266 . S
C74 O55 1.248 . S
C75 Tb11 2.802 . S
C75 O50 1.264 . S
C75 O53 1.256 . S
C75 C68 1.496 . S
H76 C59 0.929 . S
H77 C60 0.929 . S
H78 C61 0.929 . S
H79 C62 0.931 . S
H80 C70 0.929 . S
H81 C71 0.929 . S
H82 C72 0.931 . S
H83 C73 0.929 . S
Tb84 N113 2.617 . S
Tb84 N119 2.572 . S
Tb84 O128 2.465 . S
Tb84 O129 2.387 . S
Tb84 O131 2.428 . S
Tb84 O132 2.308 . S
Tb84 O136 2.349 . S
Tb84 O139 2.393 . S
Tb84 C148 2.802 . S
C85 N86 1.379 . S
C85 C88 1.416 . S
C85 C92 1.424 . S
N86 C85 1.379 . S
N86 C89 1.334 . S
N86 Tb95 2.617 . S
C87 C89 1.390 . S
C87 C90 1.339 . S
C87 H107 0.930 . S
C88 C85 1.416 . S
C88 C90 1.416 . S
C88 C94 1.448 . S
C89 N86 1.334 . S
C89 C87 1.390 . S
C89 H100 0.930 . S
C90 C87 1.339 . S
C90 C88 1.416 . S
C90 H111 0.930 . S
C91 C92 1.413 . S
C91 C93 1.427 . S
C91 C97 1.416 . S
C92 C85 1.424 . S
C92 C91 1.413 . S
C92 N96 1.361 . S
C93 C91 1.427 . S
C93 C94 1.328 . S
C93 H108 0.929 . S
C94 C88 1.448 . S
C94 C93 1.328 . S
C94 H109 0.930 . S
Tb95 N86 2.617 . S
Tb95 N96 2.572 . S
Tb95 O130 2.349 . S
Tb95 O133 2.393 . S
Tb95 O134 2.465 . S
Tb95 O135 2.387 . S
Tb95 O137 2.428 . S
Tb95 O138 2.308 . S
Tb95 C159 2.802 . S
N96 C92 1.361 . S
N96 Tb95 2.572 . S
N96 C98 1.340 . S
C97 C91 1.416 . S
C97 C99 1.332 . S
C97 H105 0.931 . S
C98 N96 1.340 . S
C98 C99 1.407 . S
C98 H104 0.930 . S
C99 C97 1.332 . S
C99 C98 1.407 . S
C99 H101 0.929 . S
H100 C89 0.930 . S
H101 C99 0.929 . S
H102 C117 0.930 . S
H103 C124 0.929 . S
H104 C98 0.930 . S
H105 C97 0.931 . S
H106 C120 0.930 . S
H107 C87 0.930 . S
H108 C93 0.929 . S
H109 C94 0.930 . S
H110 C115 0.930 . S
H111 C90 0.930 . S
H112 C123 0.931 . S
N113 Tb84 2.617 . S
N113 C114 1.379 . S
N113 C117 1.334 . S
C114 N113 1.379 . S
C114 C116 1.416 . S
C114 C122 1.424 . S
C115 H110 0.930 . S
C115 C117 1.390 . S
C115 C118 1.339 . S
C116 C114 1.416 . S
C116 C118 1.416 . S
C116 C149 1.448 . S
C117 H102 0.930 . S
C117 N113 1.334 . S
C117 C115 1.390 . S
C118 C115 1.339 . S
C118 C116 1.416 . S
C118 H125 0.930 . S
N119 Tb84 2.572 . S
N119 C120 1.340 . S
N119 C122 1.361 . S
C120 H106 0.930 . S
C120 N119 1.340 . S
C120 C124 1.407 . S
C121 C122 1.413 . S
C121 C123 1.416 . S
C121 C150 1.427 . S
C122 C114 1.424 . S
C122 N119 1.361 . S
C122 C121 1.413 . S
C123 H112 0.931 . S
C123 C121 1.416 . S
C123 C124 1.332 . S
C124 H103 0.929 . S
C124 C120 1.407 . S
C124 C123 1.332 . S
H125 C118 0.930 . S
H126 C149 0.930 . S
H127 C150 0.929 . S
O128 Tb84 2.465 . S
O128 C148 1.264 . S
O129 Tb84 2.387 . S
O129 C140 1.264 . S
O130 Tb95 2.349 . S
O130 C140 1.243 . S
O131 Tb84 2.428 . S
O131 C148 1.256 . S
O132 Tb84 2.308 . S
O132 C147 1.266 . S
O133 Tb95 2.393 . S
O133 C147 1.248 . S
O134 Tb95 2.465 . S
O134 C159 1.264 . S
O135 Tb95 2.387 . S
O135 C151 1.264 . S
O136 Tb84 2.349 . S
O136 C151 1.243 . S
O137 Tb95 2.428 . S
O137 C159 1.256 . S
O138 Tb95 2.308 . S
O138 C158 1.266 . S
O139 Tb84 2.393 . S
O139 C158 1.248 . S
C140 O129 1.264 . S
C140 O130 1.243 . S
C141 C144 1.399 . S
C141 C146 1.383 . S
C141 C148 1.496 . S
C142 C143 1.399 . S
C142 C146 1.389 . S
C143 C142 1.399 . S
C143 C145 1.380 . S
C143 H160 0.929 . S
C144 C141 1.399 . S
C144 C145 1.392 . S
C144 H161 0.929 . S
C145 C143 1.380 . S
C145 C144 1.392 . S
C145 H162 0.929 . S
C146 C141 1.383 . S
C146 C142 1.389 . S
C146 H163 0.931 . S
C147 O132 1.266 . S
C147 O133 1.248 . S
C148 Tb84 2.802 . S
C148 O128 1.264 . S
C148 O131 1.256 . S
C148 C141 1.496 . S
C149 C116 1.448 . S
C149 H126 0.930 . S
C149 C150 1.328 . S
C150 C121 1.427 . S
C150 H127 0.929 . S
C150 C149 1.328 . S
C151 O135 1.264 . S
C151 O136 1.243 . S
C152 C155 1.399 . S
C152 C156 1.383 . S
C152 C159 1.496 . S
C153 C154 1.399 . S
C153 C156 1.389 . S
C154 C153 1.399 . S
C154 C157 1.380 . S
C154 H164 0.929 . S
C155 C152 1.399 . S
C155 C157 1.392 . S
C155 H165 0.929 . S
C156 C152 1.383 . S
C156 C153 1.389 . S
C156 H166 0.931 . S
C157 C154 1.380 . S
C157 C155 1.392 . S
C157 H167 0.929 . S
C158 O138 1.266 . S
C158 O139 1.248 . S
C159 Tb95 2.802 . S
C159 O134 1.264 . S
C159 O137 1.256 . S
C159 C152 1.496 . S
H160 C143 0.929 . S
H161 C144 0.929 . S
H162 C145 0.929 . S
H163 C146 0.931 . S
H164 C154 0.929 . S
H165 C155 0.929 . S
H166 C156 0.931 . S
H167 C157 0.929 . S
Tb168 N197 2.617 . S
Tb168 N203 2.572 . S
Tb168 O212 2.465 . S
Tb168 O213 2.387 . S
Tb168 O215 2.428 . S
Tb168 O216 2.308 . S
Tb168 O220 2.349 . S
Tb168 O223 2.393 . S
Tb168 C232 2.802 . S
C169 N170 1.379 . S
C169 C172 1.416 . S
C169 C176 1.424 . S
N170 C169 1.379 . S
N170 C173 1.334 . S
N170 Tb179 2.617 . S
C171 C173 1.390 . S
C171 C174 1.339 . S
C171 H191 0.930 . S
C172 C169 1.416 . S
C172 C174 1.416 . S
C172 C178 1.448 . S
C173 N170 1.334 . S
C173 C171 1.390 . S
C173 H184 0.930 . S
C174 C171 1.339 . S
C174 C172 1.416 . S
C174 H195 0.930 . S
C175 C176 1.413 . S
C175 C177 1.427 . S
C175 C181 1.416 . S
C176 C169 1.424 . S
C176 C175 1.413 . S
C176 N180 1.361 . S
C177 C175 1.427 . S
C177 C178 1.328 . S
C177 H192 0.929 . S
C178 C172 1.448 . S
C178 C177 1.328 . S
C178 H193 0.930 . S
Tb179 N170 2.617 . S
Tb179 N180 2.572 . S
Tb179 O214 2.349 . S
Tb179 O217 2.393 . S
Tb179 O218 2.465 . S
Tb179 O219 2.387 . S
Tb179 O221 2.428 . S
Tb179 O222 2.308 . S
Tb179 C243 2.802 . S
N180 C176 1.361 . S
N180 Tb179 2.572 . S
N180 C182 1.340 . S
C181 C175 1.416 . S
C181 C183 1.332 . S
C181 H189 0.931 . S
C182 N180 1.340 . S
C182 C183 1.407 . S
C182 H188 0.930 . S
C183 C181 1.332 . S
C183 C182 1.407 . S
C183 H185 0.929 . S
H184 C173 0.930 . S
H185 C183 0.929 . S
H186 C201 0.930 . S
H187 C208 0.929 . S
H188 C182 0.930 . S
H189 C181 0.931 . S
H190 C204 0.930 . S
H191 C171 0.930 . S
H192 C177 0.929 . S
H193 C178 0.930 . S
H194 C199 0.930 . S
H195 C174 0.930 . S
H196 C207 0.931 . S
N197 Tb168 2.617 . S
N197 C198 1.379 . S
N197 C201 1.334 . S
C198 N197 1.379 . S
C198 C200 1.416 . S
C198 C206 1.424 . S
C199 H194 0.930 . S
C199 C201 1.390 . S
C199 C202 1.339 . S
C200 C198 1.416 . S
C200 C202 1.416 . S
C200 C233 1.448 . S
C201 H186 0.930 . S
C201 N197 1.334 . S
C201 C199 1.390 . S
C202 C199 1.339 . S
C202 C200 1.416 . S
C202 H209 0.930 . S
N203 Tb168 2.572 . S
N203 C204 1.340 . S
N203 C206 1.361 . S
C204 H190 0.930 . S
C204 N203 1.340 . S
C204 C208 1.407 . S
C205 C206 1.413 . S
C205 C207 1.416 . S
C205 C234 1.427 . S
C206 C198 1.424 . S
C206 N203 1.361 . S
C206 C205 1.413 . S
C207 H196 0.931 . S
C207 C205 1.416 . S
C207 C208 1.332 . S
C208 H187 0.929 . S
C208 C204 1.407 . S
C208 C207 1.332 . S
H209 C202 0.930 . S
H210 C233 0.930 . S
H211 C234 0.929 . S
O212 Tb168 2.465 . S
O212 C232 1.264 . S
O213 Tb168 2.387 . S
O213 C224 1.264 . S
O214 Tb179 2.349 . S
O214 C224 1.243 . S
O215 Tb168 2.428 . S
O215 C232 1.256 . S
O216 Tb168 2.308 . S
O216 C231 1.266 . S
O217 Tb179 2.393 . S
O217 C231 1.248 . S
O218 Tb179 2.465 . S
O218 C243 1.264 . S
O219 Tb179 2.387 . S
O219 C235 1.264 . S
O220 Tb168 2.349 . S
O220 C235 1.243 . S
O221 Tb179 2.428 . S
O221 C243 1.256 . S
O222 Tb179 2.308 . S
O222 C242 1.266 . S
O223 Tb168 2.393 . S
O223 C242 1.248 . S
C224 O213 1.264 . S
C224 O214 1.243 . S
C225 C228 1.399 . S
C225 C230 1.383 . S
C225 C232 1.496 . S
C226 C227 1.399 . S
C226 C230 1.389 . S
C227 C226 1.399 . S
C227 C229 1.380 . S
C227 H244 0.929 . S
C228 C225 1.399 . S
C228 C229 1.392 . S
C228 H245 0.929 . S
C229 C227 1.380 . S
C229 C228 1.392 . S
C229 H246 0.929 . S
C230 C225 1.383 . S
C230 C226 1.389 . S
C230 H247 0.931 . S
C231 O216 1.266 . S
C231 O217 1.248 . S
C232 Tb168 2.802 . S
C232 O212 1.264 . S
C232 O215 1.256 . S
C232 C225 1.496 . S
C233 C200 1.448 . S
C233 H210 0.930 . S
C233 C234 1.328 . S
C234 C205 1.427 . S
C234 H211 0.929 . S
C234 C233 1.328 . S
C235 O219 1.264 . S
C235 O220 1.243 . S
C236 C239 1.399 . S
C236 C240 1.383 . S
C236 C243 1.496 . S
C237 C238 1.399 . S
C237 C240 1.389 . S
C238 C237 1.399 . S
C238 C241 1.380 . S
C238 H248 0.929 . S
C239 C236 1.399 . S
C239 C241 1.392 . S
C239 H249 0.929 . S
C240 C236 1.383 . S
C240 C237 1.389 . S
C240 H250 0.931 . S
C241 C238 1.380 . S
C241 C239 1.392 . S
C241 H251 0.929 . S
C242 O222 1.266 . S
C242 O223 1.248 . S
C243 Tb179 2.802 . S
C243 O218 1.264 . S
C243 O221 1.256 . S
C243 C236 1.496 . S
H244 C227 0.929 . S
H245 C228 0.929 . S
H246 C229 0.929 . S
H247 C230 0.931 . S
H248 C238 0.929 . S
H249 C239 0.929 . S
H250 C240 0.931 . S
H251 C241 0.929 . S
Tb252 N281 2.617 . S
Tb252 N287 2.572 . S
Tb252 O296 2.465 . S
Tb252 O297 2.387 . S
Tb252 O299 2.428 . S
Tb252 O300 2.308 . S
Tb252 O304 2.349 . S
Tb252 O307 2.393 . S
Tb252 C316 2.802 . S
C253 N254 1.379 . S
C253 C256 1.416 . S
C253 C260 1.424 . S
N254 C253 1.379 . S
N254 C257 1.334 . S
N254 Tb263 2.617 . S
C255 C257 1.390 . S
C255 C258 1.339 . S
C255 H275 0.930 . S
C256 C253 1.416 . S
C256 C258 1.416 . S
C256 C262 1.448 . S
C257 N254 1.334 . S
C257 C255 1.390 . S
C257 H268 0.930 . S
C258 C255 1.339 . S
C258 C256 1.416 . S
C258 H279 0.930 . S
C259 C260 1.413 . S
C259 C261 1.427 . S
C259 C265 1.416 . S
C260 C253 1.424 . S
C260 C259 1.413 . S
C260 N264 1.361 . S
C261 C259 1.427 . S
C261 C262 1.328 . S
C261 H276 0.929 . S
C262 C256 1.448 . S
C262 C261 1.328 . S
C262 H277 0.930 . S
Tb263 N254 2.617 . S
Tb263 N264 2.572 . S
Tb263 O298 2.349 . S
Tb263 O301 2.393 . S
Tb263 O302 2.465 . S
Tb263 O303 2.387 . S
Tb263 O305 2.428 . S
Tb263 O306 2.308 . S
Tb263 C327 2.802 . S
N264 C260 1.361 . S
N264 Tb263 2.572 . S
N264 C266 1.340 . S
C265 C259 1.416 . S
C265 C267 1.332 . S
C265 H273 0.931 . S
C266 N264 1.340 . S
C266 C267 1.407 . S
C266 H272 0.930 . S
C267 C265 1.332 . S
C267 C266 1.407 . S
C267 H269 0.929 . S
H268 C257 0.930 . S
H269 C267 0.929 . S
H270 C285 0.930 . S
H271 C292 0.929 . S
H272 C266 0.930 . S
H273 C265 0.931 . S
H274 C288 0.930 . S
H275 C255 0.930 . S
H276 C261 0.929 . S
H277 C262 0.930 . S
H278 C283 0.930 . S
H279 C258 0.930 . S
H280 C291 0.931 . S
N281 Tb252 2.617 . S
N281 C282 1.379 . S
N281 C285 1.334 . S
C282 N281 1.379 . S
C282 C284 1.416 . S
C282 C290 1.424 . S
C283 H278 0.930 . S
C283 C285 1.390 . S
C283 C286 1.339 . S
C284 C282 1.416 . S
C284 C286 1.416 . S
C284 C317 1.448 . S
C285 H270 0.930 . S
C285 N281 1.334 . S
C285 C283 1.390 . S
C286 C283 1.339 . S
C286 C284 1.416 . S
C286 H293 0.930 . S
N287 Tb252 2.572 . S
N287 C288 1.340 . S
N287 C290 1.361 . S
C288 H274 0.930 . S
C288 N287 1.340 . S
C288 C292 1.407 . S
C289 C290 1.413 . S
C289 C291 1.416 . S
C289 C318 1.427 . S
C290 C282 1.424 . S
C290 N287 1.361 . S
C290 C289 1.413 . S
C291 H280 0.931 . S
C291 C289 1.416 . S
C291 C292 1.332 . S
C292 H271 0.929 . S
C292 C288 1.407 . S
C292 C291 1.332 . S
H293 C286 0.930 . S
H294 C317 0.930 . S
H295 C318 0.929 . S
O296 Tb252 2.465 . S
O296 C316 1.264 . S
O297 Tb252 2.387 . S
O297 C308 1.264 . S
O298 Tb263 2.349 . S
O298 C308 1.243 . S
O299 Tb252 2.428 . S
O299 C316 1.256 . S
O300 Tb252 2.308 . S
O300 C315 1.266 . S
O301 Tb263 2.393 . S
O301 C315 1.248 . S
O302 Tb263 2.465 . S
O302 C327 1.264 . S
O303 Tb263 2.387 . S
O303 C319 1.264 . S
O304 Tb252 2.349 . S
O304 C319 1.243 . S
O305 Tb263 2.428 . S
O305 C327 1.256 . S
O306 Tb263 2.308 . S
O306 C326 1.266 . S
O307 Tb252 2.393 . S
O307 C326 1.248 . S
C308 O297 1.264 . S
C308 O298 1.243 . S
C309 C312 1.399 . S
C309 C314 1.383 . S
C309 C316 1.496 . S
C310 C311 1.399 . S
C310 C314 1.389 . S
C311 C310 1.399 . S
C311 C313 1.380 . S
C311 H328 0.929 . S
C312 C309 1.399 . S
C312 C313 1.392 . S
C312 H329 0.929 . S
C313 C311 1.380 . S
C313 C312 1.392 . S
C313 H330 0.929 . S
C314 C309 1.383 . S
C314 C310 1.389 . S
C314 H331 0.931 . S
C315 O300 1.266 . S
C315 O301 1.248 . S
C316 Tb252 2.802 . S
C316 O296 1.264 . S
C316 O299 1.256 . S
C316 C309 1.496 . S
C317 C284 1.448 . S
C317 H294 0.930 . S
C317 C318 1.328 . S
C318 C289 1.427 . S
C318 H295 0.929 . S
C318 C317 1.328 . S
C319 O303 1.264 . S
C319 O304 1.243 . S
C320 C323 1.399 . S
C320 C324 1.383 . S
C320 C327 1.496 . S
C321 C322 1.399 . S
C321 C324 1.389 . S
C322 C321 1.399 . S
C322 C325 1.380 . S
C322 H332 0.929 . S
C323 C320 1.399 . S
C323 C325 1.392 . S
C323 H333 0.929 . S
C324 C320 1.383 . S
C324 C321 1.389 . S
C324 H334 0.931 . S
C325 C322 1.380 . S
C325 C323 1.392 . S
C325 H335 0.929 . S
C326 O306 1.266 . S
C326 O307 1.248 . S
C327 Tb263 2.802 . S
C327 O302 1.264 . S
C327 O305 1.256 . S
C327 C320 1.496 . S
H328 C311 0.929 . S
H329 C312 0.929 . S
H330 C313 0.929 . S
H331 C314 0.931 . S
H332 C322 0.929 . S
H333 C323 0.929 . S
H334 C324 0.931 . S
H335 C325 0.929 . S
Tb336 N365 2.617 . S
Tb336 N371 2.572 . S
Tb336 O380 2.465 . S
Tb336 O381 2.387 . S
Tb336 O383 2.428 . S
Tb336 O384 2.308 . S
Tb336 O388 2.349 . S
Tb336 O391 2.393 . S
Tb336 C400 2.802 . S
C337 N338 1.379 . S
C337 C340 1.416 . S
C337 C344 1.424 . S
N338 C337 1.379 . S
N338 C341 1.334 . S
N338 Tb347 2.617 . S
C339 C341 1.390 . S
C339 C342 1.339 . S
C339 H359 0.930 . S
C340 C337 1.416 . S
C340 C342 1.416 . S
C340 C346 1.448 . S
C341 N338 1.334 . S
C341 C339 1.390 . S
C341 H352 0.930 . S
C342 C339 1.339 . S
C342 C340 1.416 . S
C342 H363 0.930 . S
C343 C344 1.413 . S
C343 C345 1.427 . S
C343 C349 1.416 . S
C344 C337 1.424 . S
C344 C343 1.413 . S
C344 N348 1.361 . S
C345 C343 1.427 . S
C345 C346 1.328 . S
C345 H360 0.929 . S
C346 C340 1.448 . S
C346 C345 1.328 . S
C346 H361 0.930 . S
Tb347 N338 2.617 . S
Tb347 N348 2.572 . S
Tb347 O382 2.349 . S
Tb347 O385 2.393 . S
Tb347 O386 2.465 . S
Tb347 O387 2.387 . S
Tb347 O389 2.428 . S
Tb347 O390 2.308 . S
Tb347 C411 2.802 . S
N348 C344 1.361 . S
N348 Tb347 2.572 . S
N348 C350 1.340 . S
C349 C343 1.416 . S
C349 C351 1.332 . S
C349 H357 0.931 . S
C350 N348 1.340 . S
C350 C351 1.407 . S
C350 H356 0.930 . S
C351 C349 1.332 . S
C351 C350 1.407 . S
C351 H353 0.929 . S
H352 C341 0.930 . S
H353 C351 0.929 . S
H354 C369 0.930 . S
H355 C376 0.929 . S
H356 C350 0.930 . S
H357 C349 0.931 . S
H358 C372 0.930 . S
H359 C339 0.930 . S
H360 C345 0.929 . S
H361 C346 0.930 . S
H362 C367 0.930 . S
H363 C342 0.930 . S
H364 C375 0.931 . S
N365 Tb336 2.617 . S
N365 C366 1.379 . S
N365 C369 1.334 . S
C366 N365 1.379 . S
C366 C368 1.416 . S
C366 C374 1.424 . S
C367 H362 0.930 . S
C367 C369 1.390 . S
C367 C370 1.339 . S
C368 C366 1.416 . S
C368 C370 1.416 . S
C368 C401 1.448 . S
C369 H354 0.930 . S
C369 N365 1.334 . S
C369 C367 1.390 . S
C370 C367 1.339 . S
C370 C368 1.416 . S
C370 H377 0.930 . S
N371 Tb336 2.572 . S
N371 C372 1.340 . S
N371 C374 1.361 . S
C372 H358 0.930 . S
C372 N371 1.340 . S
C372 C376 1.407 . S
C373 C374 1.413 . S
C373 C375 1.416 . S
C373 C402 1.427 . S
C374 C366 1.424 . S
C374 N371 1.361 . S
C374 C373 1.413 . S
C375 H364 0.931 . S
C375 C373 1.416 . S
C375 C376 1.332 . S
C376 H355 0.929 . S
C376 C372 1.407 . S
C376 C375 1.332 . S
H377 C370 0.930 . S
H378 C401 0.930 . S
H379 C402 0.929 . S
O380 Tb336 2.465 . S
O380 C400 1.264 . S
O381 Tb336 2.387 . S
O381 C392 1.264 . S
O382 Tb347 2.349 . S
O382 C392 1.243 . S
O383 Tb336 2.428 . S
O383 C400 1.256 . S
O384 Tb336 2.308 . S
O384 C399 1.266 . S
O385 Tb347 2.393 . S
O385 C399 1.248 . S
O386 Tb347 2.465 . S
O386 C411 1.264 . S
O387 Tb347 2.387 . S
O387 C403 1.264 . S
O388 Tb336 2.349 . S
O388 C403 1.243 . S
O389 Tb347 2.428 . S
O389 C411 1.256 . S
O390 Tb347 2.308 . S
O390 C410 1.266 . S
O391 Tb336 2.393 . S
O391 C410 1.248 . S
C392 O381 1.264 . S
C392 O382 1.243 . S
C393 C396 1.399 . S
C393 C398 1.383 . S
C393 C400 1.496 . S
C394 C395 1.399 . S
C394 C398 1.389 . S
C395 C394 1.399 . S
C395 C397 1.380 . S
C395 H412 0.929 . S
C396 C393 1.399 . S
C396 C397 1.392 . S
C396 H413 0.929 . S
C397 C395 1.380 . S
C397 C396 1.392 . S
C397 H414 0.929 . S
C398 C393 1.383 . S
C398 C394 1.389 . S
C398 H415 0.931 . S
C399 O384 1.266 . S
C399 O385 1.248 . S
C400 Tb336 2.802 . S
C400 O380 1.264 . S
C400 O383 1.256 . S
C400 C393 1.496 . S
C401 C368 1.448 . S
C401 H378 0.930 . S
C401 C402 1.328 . S
C402 C373 1.427 . S
C402 H379 0.929 . S
C402 C401 1.328 . S
C403 O387 1.264 . S
C403 O388 1.243 . S
C404 C407 1.399 . S
C404 C408 1.383 . S
C404 C411 1.496 . S
C405 C406 1.399 . S
C405 C408 1.389 . S
C406 C405 1.399 . S
C406 C409 1.380 . S
C406 H416 0.929 . S
C407 C404 1.399 . S
C407 C409 1.392 . S
C407 H417 0.929 . S
C408 C404 1.383 . S
C408 C405 1.389 . S
C408 H418 0.931 . S
C409 C406 1.380 . S
C409 C407 1.392 . S
C409 H419 0.929 . S
C410 O390 1.266 . S
C410 O391 1.248 . S
C411 Tb347 2.802 . S
C411 O386 1.264 . S
C411 O389 1.256 . S
C411 C404 1.496 . S
H412 C395 0.929 . S
H413 C396 0.929 . S
H414 C397 0.929 . S
H415 C398 0.931 . S
H416 C406 0.929 . S
H417 C407 0.929 . S
H418 C408 0.931 . S
H419 C409 0.929 . S
Tb420 N449 2.617 . S
Tb420 N455 2.572 . S
Tb420 O464 2.465 . S
Tb420 O465 2.387 . S
Tb420 O467 2.428 . S
Tb420 O468 2.308 . S
Tb420 O472 2.349 . S
Tb420 O475 2.393 . S
Tb420 C484 2.802 . S
C421 N422 1.379 . S
C421 C424 1.416 . S
C421 C428 1.424 . S
N422 C421 1.379 . S
N422 C425 1.334 . S
N422 Tb431 2.617 . S
C423 C425 1.390 . S
C423 C426 1.339 . S
C423 H443 0.930 . S
C424 C421 1.416 . S
C424 C426 1.416 . S
C424 C430 1.448 . S
C425 N422 1.334 . S
C425 C423 1.390 . S
C425 H436 0.930 . S
C426 C423 1.339 . S
C426 C424 1.416 . S
C426 H447 0.930 . S
C427 C428 1.413 . S
C427 C429 1.427 . S
C427 C433 1.416 . S
C428 C421 1.424 . S
C428 C427 1.413 . S
C428 N432 1.361 . S
C429 C427 1.427 . S
C429 C430 1.328 . S
C429 H444 0.929 . S
C430 C424 1.448 . S
C430 C429 1.328 . S
C430 H445 0.930 . S
Tb431 N422 2.617 . S
Tb431 N432 2.572 . S
Tb431 O466 2.349 . S
Tb431 O469 2.393 . S
Tb431 O470 2.465 . S
Tb431 O471 2.387 . S
Tb431 O473 2.428 . S
Tb431 O474 2.308 . S
Tb431 C495 2.802 . S
N432 C428 1.361 . S
N432 Tb431 2.572 . S
N432 C434 1.340 . S
C433 C427 1.416 . S
C433 C435 1.332 . S
C433 H441 0.931 . S
C434 N432 1.340 . S
C434 C435 1.407 . S
C434 H440 0.930 . S
C435 C433 1.332 . S
C435 C434 1.407 . S
C435 H437 0.929 . S
H436 C425 0.930 . S
H437 C435 0.929 . S
H438 C453 0.930 . S
H439 C460 0.929 . S
H440 C434 0.930 . S
H441 C433 0.931 . S
H442 C456 0.930 . S
H443 C423 0.930 . S
H444 C429 0.929 . S
H445 C430 0.930 . S
H446 C451 0.930 . S
H447 C426 0.930 . S
H448 C459 0.931 . S
N449 Tb420 2.617 . S
N449 C450 1.379 . S
N449 C453 1.334 . S
C450 N449 1.379 . S
C450 C452 1.416 . S
C450 C458 1.424 . S
C451 H446 0.930 . S
C451 C453 1.390 . S
C451 C454 1.339 . S
C452 C450 1.416 . S
C452 C454 1.416 . S
C452 C485 1.448 . S
C453 H438 0.930 . S
C453 N449 1.334 . S
C453 C451 1.390 . S
C454 C451 1.339 . S
C454 C452 1.416 . S
C454 H461 0.930 . S
N455 Tb420 2.572 . S
N455 C456 1.340 . S
N455 C458 1.361 . S
C456 H442 0.930 . S
C456 N455 1.340 . S
C456 C460 1.407 . S
C457 C458 1.413 . S
C457 C459 1.416 . S
C457 C486 1.427 . S
C458 C450 1.424 . S
C458 N455 1.361 . S
C458 C457 1.413 . S
C459 H448 0.931 . S
C459 C457 1.416 . S
C459 C460 1.332 . S
C460 H439 0.929 . S
C460 C456 1.407 . S
C460 C459 1.332 . S
H461 C454 0.930 . S
H462 C485 0.930 . S
H463 C486 0.929 . S
O464 Tb420 2.465 . S
O464 C484 1.264 . S
O465 Tb420 2.387 . S
O465 C476 1.264 . S
O466 Tb431 2.349 . S
O466 C476 1.243 . S
O467 Tb420 2.428 . S
O467 C484 1.256 . S
O468 Tb420 2.308 . S
O468 C483 1.266 . S
O469 Tb431 2.393 . S
O469 C483 1.248 . S
O470 Tb431 2.465 . S
O470 C495 1.264 . S
O471 Tb431 2.387 . S
O471 C487 1.264 . S
O472 Tb420 2.349 . S
O472 C487 1.243 . S
O473 Tb431 2.428 . S
O473 C495 1.256 . S
O474 Tb431 2.308 . S
O474 C494 1.266 . S
O475 Tb420 2.393 . S
O475 C494 1.248 . S
C476 O465 1.264 . S
C476 O466 1.243 . S
C477 C480 1.399 . S
C477 C482 1.383 . S
C477 C484 1.496 . S
C478 C479 1.399 . S
C478 C482 1.389 . S
C479 C478 1.399 . S
C479 C481 1.380 . S
C479 H496 0.929 . S
C480 C477 1.399 . S
C480 C481 1.392 . S
C480 H497 0.929 . S
C481 C479 1.380 . S
C481 C480 1.392 . S
C481 H498 0.929 . S
C482 C477 1.383 . S
C482 C478 1.389 . S
C482 H499 0.931 . S
C483 O468 1.266 . S
C483 O469 1.248 . S
C484 Tb420 2.802 . S
C484 O464 1.264 . S
C484 O467 1.256 . S
C484 C477 1.496 . S
C485 C452 1.448 . S
C485 H462 0.930 . S
C485 C486 1.328 . S
C486 C457 1.427 . S
C486 H463 0.929 . S
C486 C485 1.328 . S
C487 O471 1.264 . S
C487 O472 1.243 . S
C488 C491 1.399 . S
C488 C492 1.383 . S
C488 C495 1.496 . S
C489 C490 1.399 . S
C489 C492 1.389 . S
C490 C489 1.399 . S
C490 C493 1.380 . S
C490 H500 0.929 . S
C491 C488 1.399 . S
C491 C493 1.392 . S
C491 H501 0.929 . S
C492 C488 1.383 . S
C492 C489 1.389 . S
C492 H502 0.931 . S
C493 C490 1.380 . S
C493 C491 1.392 . S
C493 H503 0.929 . S
C494 O474 1.266 . S
C494 O475 1.248 . S
C495 Tb431 2.802 . S
C495 O470 1.264 . S
C495 O473 1.256 . S
C495 C488 1.496 . S
H496 C479 0.929 . S
H497 C480 0.929 . S
H498 C481 0.929 . S
H499 C482 0.931 . S
H500 C490 0.929 . S
H501 C491 0.929 . S
H502 C492 0.931 . S
H503 C493 0.929 . S
Tb504 N533 2.617 . S
Tb504 N539 2.572 . S
Tb504 O548 2.465 . S
Tb504 O549 2.387 . S
Tb504 O551 2.428 . S
Tb504 O552 2.308 . S
Tb504 O556 2.349 . S
Tb504 O559 2.393 . S
Tb504 C568 2.802 . S
C505 N506 1.379 . S
C505 C508 1.416 . S
C505 C512 1.424 . S
N506 C505 1.379 . S
N506 C509 1.334 . S
N506 Tb515 2.617 . S
C507 C509 1.390 . S
C507 C510 1.339 . S
C507 H527 0.930 . S
C508 C505 1.416 . S
C508 C510 1.416 . S
C508 C514 1.448 . S
C509 N506 1.334 . S
C509 C507 1.390 . S
C509 H520 0.930 . S
C510 C507 1.339 . S
C510 C508 1.416 . S
C510 H531 0.930 . S
C511 C512 1.413 . S
C511 C513 1.427 . S
C511 C517 1.416 . S
C512 C505 1.424 . S
C512 C511 1.413 . S
C512 N516 1.361 . S
C513 C511 1.427 . S
C513 C514 1.328 . S
C513 H528 0.929 . S
C514 C508 1.448 . S
C514 C513 1.328 . S
C514 H529 0.930 . S
Tb515 N506 2.617 . S
Tb515 N516 2.572 . S
Tb515 O550 2.349 . S
Tb515 O553 2.393 . S
Tb515 O554 2.465 . S
Tb515 O555 2.387 . S
Tb515 O557 2.428 . S
Tb515 O558 2.308 . S
Tb515 C579 2.802 . S
N516 C512 1.361 . S
N516 Tb515 2.572 . S
N516 C518 1.340 . S
C517 C511 1.416 . S
C517 C519 1.332 . S
C517 H525 0.931 . S
C518 N516 1.340 . S
C518 C519 1.407 . S
C518 H524 0.930 . S
C519 C517 1.332 . S
C519 C518 1.407 . S
C519 H521 0.929 . S
H520 C509 0.930 . S
H521 C519 0.929 . S
H522 C537 0.930 . S
H523 C544 0.929 . S
H524 C518 0.930 . S
H525 C517 0.931 . S
H526 C540 0.930 . S
H527 C507 0.930 . S
H528 C513 0.929 . S
H529 C514 0.930 . S
H530 C535 0.930 . S
H531 C510 0.930 . S
H532 C543 0.931 . S
N533 Tb504 2.617 . S
N533 C534 1.379 . S
N533 C537 1.334 . S
C534 N533 1.379 . S
C534 C536 1.416 . S
C534 C542 1.424 . S
C535 H530 0.930 . S
C535 C537 1.390 . S
C535 C538 1.339 . S
C536 C534 1.416 . S
C536 C538 1.416 . S
C536 C569 1.448 . S
C537 H522 0.930 . S
C537 N533 1.334 . S
C537 C535 1.390 . S
C538 C535 1.339 . S
C538 C536 1.416 . S
C538 H545 0.930 . S
N539 Tb504 2.572 . S
N539 C540 1.340 . S
N539 C542 1.361 . S
C540 H526 0.930 . S
C540 N539 1.340 . S
C540 C544 1.407 . S
C541 C542 1.413 . S
C541 C543 1.416 . S
C541 C570 1.427 . S
C542 C534 1.424 . S
C542 N539 1.361 . S
C542 C541 1.413 . S
C543 H532 0.931 . S
C543 C541 1.416 . S
C543 C544 1.332 . S
C544 H523 0.929 . S
C544 C540 1.407 . S
C544 C543 1.332 . S
H545 C538 0.930 . S
H546 C569 0.930 . S
H547 C570 0.929 . S
O548 Tb504 2.465 . S
O548 C568 1.264 . S
O549 Tb504 2.387 . S
O549 C560 1.264 . S
O550 Tb515 2.349 . S
O550 C560 1.243 . S
O551 Tb504 2.428 . S
O551 C568 1.256 . S
O552 Tb504 2.308 . S
O552 C567 1.266 . S
O553 Tb515 2.393 . S
O553 C567 1.248 . S
O554 Tb515 2.465 . S
O554 C579 1.264 . S
O555 Tb515 2.387 . S
O555 C571 1.264 . S
O556 Tb504 2.349 . S
O556 C571 1.243 . S
O557 Tb515 2.428 . S
O557 C579 1.256 . S
O558 Tb515 2.308 . S
O558 C578 1.266 . S
O559 Tb504 2.393 . S
O559 C578 1.248 . S
C560 O549 1.264 . S
C560 O550 1.243 . S
C561 C564 1.399 . S
C561 C566 1.383 . S
C561 C568 1.496 . S
C562 C563 1.399 . S
C562 C566 1.389 . S
C563 C562 1.399 . S
C563 C565 1.380 . S
C563 H580 0.929 . S
C564 C561 1.399 . S
C564 C565 1.392 . S
C564 H581 0.929 . S
C565 C563 1.380 . S
C565 C564 1.392 . S
C565 H582 0.929 . S
C566 C561 1.383 . S
C566 C562 1.389 . S
C566 H583 0.931 . S
C567 O552 1.266 . S
C567 O553 1.248 . S
C568 Tb504 2.802 . S
C568 O548 1.264 . S
C568 O551 1.256 . S
C568 C561 1.496 . S
C569 C536 1.448 . S
C569 H546 0.930 . S
C569 C570 1.328 . S
C570 C541 1.427 . S
C570 H547 0.929 . S
C570 C569 1.328 . S
C571 O555 1.264 . S
C571 O556 1.243 . S
C572 C575 1.399 . S
C572 C576 1.383 . S
C572 C579 1.496 . S
C573 C574 1.399 . S
C573 C576 1.389 . S
C574 C573 1.399 . S
C574 C577 1.380 . S
C574 H584 0.929 . S
C575 C572 1.399 . S
C575 C577 1.392 . S
C575 H585 0.929 . S
C576 C572 1.383 . S
C576 C573 1.389 . S
C576 H586 0.931 . S
C577 C574 1.380 . S
C577 C575 1.392 . S
C577 H587 0.929 . S
C578 O558 1.266 . S
C578 O559 1.248 . S
C579 Tb515 2.802 . S
C579 O554 1.264 . S
C579 O557 1.256 . S
C579 C572 1.496 . S
H580 C563 0.929 . S
H581 C564 0.929 . S
H582 C565 0.929 . S
H583 C566 0.931 . S
H584 C574 0.929 . S
H585 C575 0.929 . S
H586 C576 0.931 . S
H587 C577 0.929 . S
Tb588 N617 2.617 . S
Tb588 N623 2.572 . S
Tb588 O632 2.465 . S
Tb588 O633 2.387 . S
Tb588 O635 2.428 . S
Tb588 O636 2.308 . S
Tb588 O640 2.349 . S
Tb588 O643 2.393 . S
Tb588 C652 2.802 . S
C589 N590 1.379 . S
C589 C592 1.416 . S
C589 C596 1.424 . S
N590 C589 1.379 . S
N590 C593 1.334 . S
N590 Tb599 2.617 . S
C591 C593 1.390 . S
C591 C594 1.339 . S
C591 H611 0.930 . S
C592 C589 1.416 . S
C592 C594 1.416 . S
C592 C598 1.448 . S
C593 N590 1.334 . S
C593 C591 1.390 . S
C593 H604 0.930 . S
C594 C591 1.339 . S
C594 C592 1.416 . S
C594 H615 0.930 . S
C595 C596 1.413 . S
C595 C597 1.427 . S
C595 C601 1.416 . S
C596 C589 1.424 . S
C596 C595 1.413 . S
C596 N600 1.361 . S
C597 C595 1.427 . S
C597 C598 1.328 . S
C597 H612 0.929 . S
C598 C592 1.448 . S
C598 C597 1.328 . S
C598 H613 0.930 . S
Tb599 N590 2.617 . S
Tb599 N600 2.572 . S
Tb599 O634 2.349 . S
Tb599 O637 2.393 . S
Tb599 O638 2.465 . S
Tb599 O639 2.387 . S
Tb599 O641 2.428 . S
Tb599 O642 2.308 . S
Tb599 C663 2.802 . S
N600 C596 1.361 . S
N600 Tb599 2.572 . S
N600 C602 1.340 . S
C601 C595 1.416 . S
C601 C603 1.332 . S
C601 H609 0.931 . S
C602 N600 1.340 . S
C602 C603 1.407 . S
C602 H608 0.930 . S
C603 C601 1.332 . S
C603 C602 1.407 . S
C603 H605 0.929 . S
H604 C593 0.930 . S
H605 C603 0.929 . S
H606 C621 0.930 . S
H607 C628 0.929 . S
H608 C602 0.930 . S
H609 C601 0.931 . S
H610 C624 0.930 . S
H611 C591 0.930 . S
H612 C597 0.929 . S
H613 C598 0.930 . S
H614 C619 0.930 . S
H615 C594 0.930 . S
H616 C627 0.931 . S
N617 Tb588 2.617 . S
N617 C618 1.379 . S
N617 C621 1.334 . S
C618 N617 1.379 . S
C618 C620 1.416 . S
C618 C626 1.424 . S
C619 H614 0.930 . S
C619 C621 1.390 . S
C619 C622 1.339 . S
C620 C618 1.416 . S
C620 C622 1.416 . S
C620 C653 1.448 . S
C621 H606 0.930 . S
C621 N617 1.334 . S
C621 C619 1.390 . S
C622 C619 1.339 . S
C622 C620 1.416 . S
C622 H629 0.930 . S
N623 Tb588 2.572 . S
N623 C624 1.340 . S
N623 C626 1.361 . S
C624 H610 0.930 . S
C624 N623 1.340 . S
C624 C628 1.407 . S
C625 C626 1.413 . S
C625 C627 1.416 . S
C625 C654 1.427 . S
C626 C618 1.424 . S
C626 N623 1.361 . S
C626 C625 1.413 . S
C627 H616 0.931 . S
C627 C625 1.416 . S
C627 C628 1.332 . S
C628 H607 0.929 . S
C628 C624 1.407 . S
C628 C627 1.332 . S
H629 C622 0.930 . S
H630 C653 0.930 . S
H631 C654 0.929 . S
O632 Tb588 2.465 . S
O632 C652 1.264 . S
O633 Tb588 2.387 . S
O633 C644 1.264 . S
O634 Tb599 2.349 . S
O634 C644 1.243 . S
O635 Tb588 2.428 . S
O635 C652 1.256 . S
O636 Tb588 2.308 . S
O636 C651 1.266 . S
O637 Tb599 2.393 . S
O637 C651 1.248 . S
O638 Tb599 2.465 . S
O638 C663 1.264 . S
O639 Tb599 2.387 . S
O639 C655 1.264 . S
O640 Tb588 2.349 . S
O640 C655 1.243 . S
O641 Tb599 2.428 . S
O641 C663 1.256 . S
O642 Tb599 2.308 . S
O642 C662 1.266 . S
O643 Tb588 2.393 . S
O643 C662 1.248 . S
C644 O633 1.264 . S
C644 O634 1.243 . S
C645 C648 1.399 . S
C645 C650 1.383 . S
C645 C652 1.496 . S
C646 C647 1.399 . S
C646 C650 1.389 . S
C647 C646 1.399 . S
C647 C649 1.380 . S
C647 H664 0.929 . S
C648 C645 1.399 . S
C648 C649 1.392 . S
C648 H665 0.929 . S
C649 C647 1.380 . S
C649 C648 1.392 . S
C649 H666 0.929 . S
C650 C645 1.383 . S
C650 C646 1.389 . S
C650 H667 0.931 . S
C651 O636 1.266 . S
C651 O637 1.248 . S
C652 Tb588 2.802 . S
C652 O632 1.264 . S
C652 O635 1.256 . S
C652 C645 1.496 . S
C653 C620 1.448 . S
C653 H630 0.930 . S
C653 C654 1.328 . S
C654 C625 1.427 . S
C654 H631 0.929 . S
C654 C653 1.328 . S
C655 O639 1.264 . S
C655 O640 1.243 . S
C656 C659 1.399 . S
C656 C660 1.383 . S
C656 C663 1.496 . S
C657 C658 1.399 . S
C657 C660 1.389 . S
C658 C657 1.399 . S
C658 C661 1.380 . S
C658 H668 0.929 . S
C659 C656 1.399 . S
C659 C661 1.392 . S
C659 H669 0.929 . S
C660 C656 1.383 . S
C660 C657 1.389 . S
C660 H670 0.931 . S
C661 C658 1.380 . S
C661 C659 1.392 . S
C661 H671 0.929 . S
C662 O642 1.266 . S
C662 O643 1.248 . S
C663 Tb599 2.802 . S
C663 O638 1.264 . S
C663 O641 1.256 . S
C663 C656 1.496 . S
H664 C647 0.929 . S
H665 C648 0.929 . S
H666 C649 0.929 . S
H667 C650 0.931 . S
H668 C658 0.929 . S
H669 C659 0.929 . S
H670 C660 0.931 . S
H671 C661 0.929 . S
Fe672 O673 1.886 1_455 S
Fe672 O676 1.715 . S
Fe672 O681 2.077 1_455 S
Fe672 O686 1.935 . S
Fe672 O692 2.077 1_455 S
Fe672 O701 1.935 . S
O673 Fe672 1.886 1_655 S
O673 Fe675 1.715 1_545 S
Fe674 O676 1.886 . S
Fe674 O677 1.715 1_545 S
Fe674 O684 1.935 1_545 S
Fe674 O685 2.077 . S
Fe674 O691 1.935 1_545 S
Fe674 O700 2.077 . S
Fe675 O673 1.715 1_565 S
Fe675 O678 1.886 . S
Fe675 O682 1.935 1_565 S
Fe675 O687 2.077 . S
Fe675 O693 1.935 1_565 S
Fe675 O697 2.077 . S
O676 Fe672 1.715 . S
O676 Fe674 1.886 . S
O677 Fe674 1.715 1_565 S
O677 Fe679 1.886 1_455 S
O678 Fe675 1.886 . S
O678 Fe679 1.715 . S
Fe679 O677 1.886 1_655 S
Fe679 O678 1.715 . S
Fe679 O683 2.077 1_655 S
Fe679 O688 1.935 . S
Fe679 O690 2.077 1_655 S
Fe679 O698 1.935 . S
C680 O692 1.381 . S
C680 O693 1.421 . S
O681 Fe672 2.077 1_655 S
O681 C694 1.381 . S
O682 Fe675 1.935 1_545 S
O682 C694 1.421 . S
O683 Fe679 2.077 1_455 S
O683 C699 1.381 . S
O684 Fe674 1.935 1_565 S
O684 C699 1.421 . S
O685 Fe674 2.077 . S
O685 C689 1.381 . S
O686 Fe672 1.935 . S
O686 C689 1.421 . S
O687 Fe675 2.077 . S
O687 C695 1.381 . S
O688 Fe679 1.935 . S
O688 C695 1.421 . S
C689 O685 1.381 . S
C689 O686 1.421 . S
O690 Fe679 2.077 1_455 S
O690 C702 1.381 . S
O691 Fe674 1.935 1_565 S
O691 C702 1.421 . S
O692 Fe672 2.077 1_655 S
O692 C680 1.381 . S
O693 Fe675 1.935 1_545 S
O693 C680 1.421 . S
C694 O681 1.381 . S
C694 O682 1.421 . S
C695 O687 1.381 . S
C695 O688 1.421 . S
C696 O697 1.381 . S
C696 O698 1.421 . S
O697 Fe675 2.077 . S
O697 C696 1.381 . S
O698 Fe679 1.935 . S
O698 C696 1.421 . S
C699 O683 1.381 . S
C699 O684 1.421 . S
O700 Fe674 2.077 . S
O700 C703 1.381 . S
O701 Fe672 1.935 . S
O701 C703 1.421 . S
C702 O690 1.381 . S
C702 O691 1.421 . S
C703 O700 1.381 . S
C703 O701 1.421 . S
Fe704 O705 1.886 . S
Fe704 O708 1.715 . S
Fe704 O713 2.077 . S
Fe704 O718 1.935 . S
Fe704 O724 2.077 1_556 S
Fe704 O733 1.935 1_556 S
O705 Fe704 1.886 . S
O705 Fe707 1.715 1_565 S
Fe706 O708 1.886 1_554 S
Fe706 O709 1.715 1_565 S
Fe706 O716 1.935 1_564 S
Fe706 O717 2.077 1_554 S
Fe706 O723 1.935 1_565 S
Fe706 O732 2.077 . S
Fe707 O705 1.715 1_545 S
Fe707 O710 1.887 1_556 S
Fe707 O714 1.935 1_545 S
Fe707 O719 2.077 . S
Fe707 O725 1.935 1_546 S
Fe707 O729 2.077 1_556 S
O708 Fe704 1.715 . S
O708 Fe706 1.886 1_556 S
O709 Fe706 1.715 1_545 S
O709 Fe711 1.886 . S
O710 Fe707 1.887 1_554 S
O710 Fe711 1.714 . S
Fe711 O709 1.886 . S
Fe711 O710 1.714 . S
Fe711 O715 2.077 1_554 S
Fe711 O720 1.935 1_554 S
Fe711 O722 2.077 . S
Fe711 O730 1.935 . S
C712 O724 1.381 . S
C712 O725 1.421 . S
O713 Fe704 2.077 . S
O713 C726 1.381 . S
O714 Fe707 1.935 1_565 S
O714 C726 1.421 . S
O715 Fe711 2.077 1_556 S
O715 C731 1.381 . S
O716 Fe706 1.935 1_546 S
O716 C731 1.421 . S
O717 Fe706 2.077 1_556 S
O717 C721 1.381 . S
O718 Fe704 1.935 . S
O718 C721 1.421 . S
O719 Fe707 2.077 . S
O719 C727 1.381 . S
O720 Fe711 1.935 1_556 S
O720 C727 1.421 . S
C721 O717 1.381 . S
C721 O718 1.421 . S
O722 Fe711 2.077 . S
O722 C734 1.381 . S
O723 Fe706 1.935 1_545 S
O723 C734 1.421 . S
O724 Fe704 2.077 1_554 S
O724 C712 1.381 . S
O725 Fe707 1.935 1_564 S
O725 C712 1.421 . S
C726 O713 1.381 . S
C726 O714 1.421 . S
C727 O719 1.381 . S
C727 O720 1.421 . S
C728 O729 1.381 . S
C728 O730 1.421 . S
O729 Fe707 2.077 1_554 S
O729 C728 1.381 . S
O730 Fe711 1.935 . S
O730 C728 1.421 . S
C731 O715 1.381 . S
C731 O716 1.421 . S
O732 Fe706 2.077 . S
O732 C735 1.381 . S
O733 Fe704 1.935 1_554 S
O733 C735 1.421 . S
C734 O722 1.381 . S
C734 O723 1.421 . S
C735 O732 1.381 . S
C735 O733 1.421 . S
Fe736 O737 1.886 1_455 S
Fe736 O740 1.714 . S
Fe736 O745 2.077 1_454 S
Fe736 O750 1.935 1_554 S
Fe736 O756 2.077 1_455 S
Fe736 O765 1.935 . S
O737 Fe736 1.886 1_655 S
O737 Fe739 1.715 . S
Fe738 O740 1.887 1_556 S
Fe738 O741 1.715 . S
Fe738 O748 1.935 . S
Fe738 O749 2.077 . S
Fe738 O755 1.935 1_556 S
Fe738 O764 2.077 1_556 S
Fe739 O737 1.715 . S
Fe739 O742 1.886 1_554 S
Fe739 O746 1.935 1_554 S
Fe739 O751 2.077 1_554 S
Fe739 O757 1.935 . S
Fe739 O761 2.077 . S
O740 Fe736 1.714 . S
O740 Fe738 1.887 1_554 S
O741 Fe738 1.715 . S
O741 Fe743 1.886 1_455 S
O742 Fe739 1.886 1_556 S
O742 Fe743 1.715 . S
Fe743 O741 1.886 1_655 S
Fe743 O742 1.715 . S
Fe743 O747 2.077 1_655 S
Fe743 O752 1.935 . S
Fe743 O754 2.077 1_656 S
Fe743 O762 1.935 1_556 S
C744 O756 1.381 . S
C744 O757 1.421 . S
O745 Fe736 2.077 1_656 S
O745 C758 1.381 . S
O746 Fe739 1.935 1_556 S
O746 C758 1.421 . S
O747 Fe743 2.077 1_455 S
O747 C763 1.381 . S
O748 Fe738 1.935 . S
O748 C763 1.421 . S
O749 Fe738 2.077 . S
O749 C753 1.381 . S
O750 Fe736 1.935 1_556 S
O750 C753 1.421 . S
O751 Fe739 2.077 1_556 S
O751 C759 1.381 . S
O752 Fe743 1.935 . S
O752 C759 1.421 . S
C753 O749 1.381 . S
C753 O750 1.421 . S
O754 Fe743 2.077 1_454 S
O754 C766 1.381 . S
O755 Fe738 1.935 1_554 S
O755 C766 1.421 . S
O756 Fe736 2.077 1_655 S
O756 C744 1.381 . S
O757 Fe739 1.935 . S
O757 C744 1.421 . S
C758 O745 1.381 . S
C758 O746 1.421 . S
C759 O751 1.381 . S
C759 O752 1.421 . S
C760 O761 1.381 . S
C760 O762 1.421 . S
O761 Fe739 2.077 . S
O761 C760 1.381 . S
O762 Fe743 1.935 1_554 S
O762 C760 1.421 . S
C763 O747 1.381 . S
C763 O748 1.421 . S
O764 Fe738 2.077 1_554 S
O764 C767 1.381 . S
O765 Fe736 1.935 . S
O765 C767 1.421 . S
C766 O754 1.381 . S
C766 O755 1.421 . S
C767 O764 1.381 . S
C767 O765 1.421 . S
Fe768 O769 1.886 . S
Fe768 O772 1.715 . S
Fe768 O777 2.077 . S
Fe768 O782 1.935 . S
Fe768 O788 2.077 . S
Fe768 O797 1.935 . S
O769 Fe768 1.886 . S
O769 Fe771 1.715 . S
Fe770 O772 1.886 1_554 S
Fe770 O773 1.715 . S
Fe770 O780 1.935 . S
Fe770 O781 2.077 1_554 S
Fe770 O787 1.935 . S
Fe770 O796 2.077 1_554 S
Fe771 O769 1.715 . S
Fe771 O774 1.886 1_556 S
Fe771 O778 1.935 . S
Fe771 O783 2.077 1_556 S
Fe771 O789 1.935 . S
Fe771 O793 2.077 1_556 S
O772 Fe768 1.715 . S
O772 Fe770 1.886 1_556 S
O773 Fe770 1.715 . S
O773 Fe775 1.886 . S
O774 Fe771 1.886 1_554 S
O774 Fe775 1.715 . S
Fe775 O773 1.886 . S
Fe775 O774 1.715 . S
Fe775 O779 2.077 . S
Fe775 O784 1.935 . S
Fe775 O786 2.077 . S
Fe775 O794 1.935 . S
C776 O788 1.381 . S
C776 O789 1.421 . S
O777 Fe768 2.077 . S
O777 C790 1.381 . S
O778 Fe771 1.935 . S
O778 C790 1.421 . S
O779 Fe775 2.077 . S
O779 C795 1.381 . S
O780 Fe770 1.935 . S
O780 C795 1.421 . S
O781 Fe770 2.077 1_556 S
O781 C785 1.381 . S
O782 Fe768 1.935 . S
O782 C785 1.421 . S
O783 Fe771 2.077 1_554 S
O783 C791 1.381 . S
O784 Fe775 1.935 . S
O784 C791 1.421 . S
C785 O781 1.381 . S
C785 O782 1.421 . S
O786 Fe775 2.077 . S
O786 C798 1.381 . S
O787 Fe770 1.935 . S
O787 C798 1.421 . S
O788 Fe768 2.077 . S
O788 C776 1.381 . S
O789 Fe771 1.935 . S
O789 C776 1.421 . S
C790 O777 1.381 . S
C790 O778 1.421 . S
C791 O783 1.381 . S
C791 O784 1.421 . S
C792 O793 1.381 . S
C792 O794 1.421 . S
O793 Fe771 2.077 1_554 S
O793 C792 1.381 . S
O794 Fe775 1.935 . S
O794 C792 1.421 . S
C795 O779 1.381 . S
C795 O780 1.421 . S
O796 Fe770 2.077 1_556 S
O796 C799 1.381 . S
O797 Fe768 1.935 . S
O797 C799 1.421 . S
C798 O786 1.381 . S
C798 O787 1.421 . S
C799 O796 1.381 . S
C799 O797 1.421 . S
Fe800 O801 1.886 . S
Fe800 O804 1.715 . S
Fe800 O809 2.077 1_655 S
Fe800 O814 1.935 1_655 S
Fe800 O820 2.077 . S
Fe800 O829 1.935 . S
O801 Fe800 1.886 . S
O801 Fe803 1.715 . S
Fe802 O804 1.886 1_455 S
Fe802 O805 1.715 . S
Fe802 O812 1.935 . S
Fe802 O813 2.077 . S
Fe802 O819 1.935 1_455 S
Fe802 O828 2.077 1_455 S
Fe803 O801 1.715 . S
Fe803 O806 1.886 1_655 S
Fe803 O810 1.935 1_655 S
Fe803 O815 2.077 1_655 S
Fe803 O821 1.935 . S
Fe803 O825 2.077 . S
O804 Fe800 1.715 . S
O804 Fe802 1.886 1_655 S
O805 Fe802 1.715 . S
O805 Fe807 1.886 . S
O806 Fe803 1.886 1_455 S
O806 Fe807 1.715 . S
Fe807 O805 1.886 . S
Fe807 O806 1.715 . S
Fe807 O811 2.077 . S
Fe807 O816 1.935 . S
Fe807 O818 2.077 1_455 S
Fe807 O826 1.935 1_455 S
C808 O820 1.381 . S
C808 O821 1.421 . S
O809 Fe800 2.077 1_455 S
O809 C822 1.381 . S
O810 Fe803 1.935 1_455 S
O810 C822 1.421 . S
O811 Fe807 2.077 . S
O811 C827 1.381 . S
O812 Fe802 1.935 . S
O812 C827 1.421 . S
O813 Fe802 2.077 . S
O813 C817 1.381 . S
O814 Fe800 1.935 1_455 S
O814 C817 1.421 . S
O815 Fe803 2.077 1_455 S
O815 C823 1.381 . S
O816 Fe807 1.935 . S
O816 C823 1.421 . S
C817 O813 1.381 . S
C817 O814 1.421 . S
O818 Fe807 2.077 1_655 S
O818 C830 1.381 . S
O819 Fe802 1.935 1_655 S
O819 C830 1.421 . S
O820 Fe800 2.077 . S
O820 C808 1.381 . S
O821 Fe803 1.935 . S
O821 C808 1.421 . S
C822 O809 1.381 . S
C822 O810 1.421 . S
C823 O815 1.381 . S
C823 O816 1.421 . S
C824 O825 1.381 . S
C824 O826 1.421 . S
O825 Fe803 2.077 . S
O825 C824 1.381 . S
O826 Fe807 1.935 1_655 S
O826 C824 1.421 . S
C827 O811 1.381 . S
C827 O812 1.421 . S
O828 Fe802 2.077 1_655 S
O828 C831 1.381 . S
O829 Fe800 1.935 . S
O829 C831 1.421 . S
C830 O818 1.381 . S
C830 O819 1.421 . S
C831 O828 1.381 . S
C831 O829 1.421 . S
Fe832 O833 1.886 . S
Fe832 O836 1.715 . S
Fe832 O841 2.077 . S
Fe832 O846 1.935 . S
Fe832 O852 2.077 . S
Fe832 O861 1.935 . S
O833 Fe832 1.886 . S
O833 Fe835 1.715 1_565 S
Fe834 O836 1.886 . S
Fe834 O837 1.715 1_565 S
Fe834 O844 1.935 1_565 S
Fe834 O845 2.077 . S
Fe834 O851 1.935 1_565 S
Fe834 O860 2.077 . S
Fe835 O833 1.715 1_545 S
Fe835 O838 1.886 . S
Fe835 O842 1.935 1_545 S
Fe835 O847 2.077 . S
Fe835 O853 1.935 1_545 S
Fe835 O857 2.077 . S
O836 Fe832 1.715 . S
O836 Fe834 1.886 . S
O837 Fe834 1.715 1_545 S
O837 Fe839 1.886 . S
O838 Fe835 1.886 . S
O838 Fe839 1.715 . S
Fe839 O837 1.886 . S
Fe839 O838 1.715 . S
Fe839 O843 2.077 . S
Fe839 O848 1.935 . S
Fe839 O850 2.077 . S
Fe839 O858 1.935 . S
C840 O852 1.381 . S
C840 O853 1.421 . S
O841 Fe832 2.077 . S
O841 C854 1.381 . S
O842 Fe835 1.935 1_565 S
O842 C854 1.421 . S
O843 Fe839 2.077 . S
O843 C859 1.381 . S
O844 Fe834 1.935 1_545 S
O844 C859 1.421 . S
O845 Fe834 2.077 . S
O845 C849 1.381 . S
O846 Fe832 1.935 . S
O846 C849 1.421 . S
O847 Fe835 2.077 . S
O847 C855 1.381 . S
O848 Fe839 1.935 . S
O848 C855 1.421 . S
C849 O845 1.381 . S
C849 O846 1.421 . S
O850 Fe839 2.077 . S
O850 C862 1.381 . S
O851 Fe834 1.935 1_545 S
O851 C862 1.421 . S
O852 Fe832 2.077 . S
O852 C840 1.381 . S
O853 Fe835 1.935 1_565 S
O853 C840 1.421 . S
C854 O841 1.381 . S
C854 O842 1.421 . S
C855 O847 1.381 . S
C855 O848 1.421 . S
C856 O857 1.381 . S
C856 O858 1.421 . S
O857 Fe835 2.077 . S
O857 C856 1.381 . S
O858 Fe839 1.935 . S
O858 C856 1.421 . S
C859 O843 1.381 . S
C859 O844 1.421 . S
O860 Fe834 2.077 . S
O860 C863 1.381 . S
O861 Fe832 1.935 . S
O861 C863 1.421 . S
C862 O850 1.381 . S
C862 O851 1.421 . S
C863 O860 1.381 . S
C863 O861 1.421 . S
C864 C865 1.391 . S
C864 C866 1.394 . S
C864 H880 0.931 . S
C865 C864 1.391 . S
C865 C869 1.376 . S
C866 C864 1.394 . S
C866 C867 1.369 . S
C866 C870 1.531 . S
C867 C866 1.369 . S
C867 C868 1.410 . S
C867 C875 1.503 . S
C868 C867 1.410 . S
C868 C869 1.392 . S
C868 C871 1.511 . S
C869 C865 1.376 . S
C869 C868 1.392 . S
C869 H881 0.929 . S
C870 C866 1.531 . S
C870 H882 0.960 . S
C870 H883 0.962 . S
C870 H884 0.960 . S
C871 C868 1.511 . S
C871 H885 0.961 . S
C871 H886 0.961 . S
C871 H887 0.961 . S
C872 C873 1.370 . S
C872 C874 1.363 . S
C872 H888 0.931 . S
C873 C872 1.370 . S
C873 C877 1.408 . S
C874 C872 1.363 . S
C874 C875 1.370 . S
C874 C878 1.524 . S
C875 C867 1.503 . S
C875 C874 1.370 . S
C875 C876 1.403 . S
C876 C875 1.403 . S
C876 C877 1.404 . S
C876 C879 1.539 . S
C877 C873 1.408 . S
C877 C876 1.404 . S
C877 H889 0.930 . S
C878 C874 1.524 . S
C878 H890 0.956 . S
C878 H891 0.961 . S
C878 H892 0.961 . S
C879 C876 1.539 . S
C879 H893 0.958 . S
C879 H894 0.961 . S
C879 H895 0.960 . S
H880 C864 0.931 . S
H881 C869 0.929 . S
H882 C870 0.960 . S
H883 C870 0.962 . S
H884 C870 0.960 . S
H885 C871 0.961 . S
H886 C871 0.961 . S
H887 C871 0.961 . S
H888 C872 0.931 . S
H889 C877 0.930 . S
H890 C878 0.956 . S
H891 C878 0.961 . S
H892 C878 0.961 . S
H893 C879 0.958 . S
H894 C879 0.961 . S
H895 C879 0.960 . S
C896 C897 1.391 . S
C896 C898 1.394 . S
C896 H912 0.931 . S
C897 C896 1.391 . S
C897 C901 1.376 . S
C898 C896 1.394 . S
C898 C899 1.369 . S
C898 C902 1.531 . S
C899 C898 1.369 . S
C899 C900 1.410 . S
C899 C907 1.503 . S
C900 C899 1.410 . S
C900 C901 1.392 . S
C900 C903 1.511 . S
C901 C897 1.376 . S
C901 C900 1.392 . S
C901 H913 0.929 . S
C902 C898 1.531 . S
C902 H914 0.960 . S
C902 H915 0.962 . S
C902 H916 0.960 . S
C903 C900 1.511 . S
C903 H917 0.961 . S
C903 H918 0.961 . S
C903 H919 0.961 . S
C904 C905 1.370 . S
C904 C906 1.363 . S
C904 H920 0.931 . S
C905 C904 1.370 . S
C905 C909 1.408 . S
C906 C904 1.363 . S
C906 C907 1.370 . S
C906 C910 1.524 . S
C907 C899 1.503 . S
C907 C906 1.370 . S
C907 C908 1.403 . S
C908 C907 1.403 . S
C908 C909 1.404 . S
C908 C911 1.539 . S
C909 C905 1.408 . S
C909 C908 1.404 . S
C909 H921 0.930 . S
C910 C906 1.524 . S
C910 H922 0.956 . S
C910 H923 0.961 . S
C910 H924 0.961 . S
C911 C908 1.539 . S
C911 H925 0.958 . S
C911 H926 0.961 . S
C911 H927 0.960 . S
H912 C896 0.931 . S
H913 C901 0.929 . S
H914 C902 0.960 . S
H915 C902 0.962 . S
H916 C902 0.960 . S
H917 C903 0.961 . S
H918 C903 0.961 . S
H919 C903 0.961 . S
H920 C904 0.931 . S
H921 C909 0.930 . S
H922 C910 0.956 . S
H923 C910 0.961 . S
H924 C910 0.961 . S
H925 C911 0.958 . S
H926 C911 0.961 . S
H927 C911 0.960 . S
C928 C929 1.391 . S
C928 C930 1.394 . S
C928 H944 0.931 . S
C929 C928 1.391 . S
C929 C933 1.376 . S
C930 C928 1.394 . S
C930 C931 1.369 . S
C930 C934 1.531 . S
C931 C930 1.369 . S
C931 C932 1.410 . S
C931 C939 1.503 . S
C932 C931 1.410 . S
C932 C933 1.392 . S
C932 C935 1.511 . S
C933 C929 1.376 . S
C933 C932 1.392 . S
C933 H945 0.929 . S
C934 C930 1.531 . S
C934 H946 0.960 . S
C934 H947 0.962 . S
C934 H948 0.960 . S
C935 C932 1.511 . S
C935 H949 0.961 . S
C935 H950 0.961 . S
C935 H951 0.961 . S
C936 C937 1.370 . S
C936 C938 1.363 . S
C936 H952 0.931 . S
C937 C936 1.370 . S
C937 C941 1.408 . S
C938 C936 1.363 . S
C938 C939 1.370 . S
C938 C942 1.524 . S
C939 C931 1.503 . S
C939 C938 1.370 . S
C939 C940 1.403 . S
C940 C939 1.403 . S
C940 C941 1.404 . S
C940 C943 1.539 . S
C941 C937 1.408 . S
C941 C940 1.404 . S
C941 H953 0.930 . S
C942 C938 1.524 . S
C942 H954 0.956 . S
C942 H955 0.961 . S
C942 H956 0.961 . S
C943 C940 1.539 . S
C943 H957 0.958 . S
C943 H958 0.961 . S
C943 H959 0.960 . S
H944 C928 0.931 . S
H945 C933 0.929 . S
H946 C934 0.960 . S
H947 C934 0.962 . S
H948 C934 0.960 . S
H949 C935 0.961 . S
H950 C935 0.961 . S
H951 C935 0.961 . S
H952 C936 0.931 . S
H953 C941 0.930 . S
H954 C942 0.956 . S
H955 C942 0.961 . S
H956 C942 0.961 . S
H957 C943 0.958 . S
H958 C943 0.961 . S
H959 C943 0.960 . S
C960 C961 1.391 . S
C960 C962 1.394 . S
C960 H976 0.931 . S
C961 C960 1.391 . S
C961 C965 1.376 . S
C962 C960 1.394 . S
C962 C963 1.369 . S
C962 C966 1.531 . S
C963 C962 1.369 . S
C963 C964 1.410 . S
C963 C971 1.503 . S
C964 C963 1.410 . S
C964 C965 1.392 . S
C964 C967 1.511 . S
C965 C961 1.376 . S
C965 C964 1.392 . S
C965 H977 0.929 . S
C966 C962 1.531 . S
C966 H978 0.960 . S
C966 H979 0.962 . S
C966 H980 0.960 . S
C967 C964 1.511 . S
C967 H981 0.961 . S
C967 H982 0.961 . S
C967 H983 0.961 . S
C968 C969 1.370 . S
C968 C970 1.363 . S
C968 H984 0.931 . S
C969 C968 1.370 . S
C969 C973 1.408 . S
C970 C968 1.363 . S
C970 C971 1.370 . S
C970 C974 1.524 . S
C971 C963 1.503 . S
C971 C970 1.370 . S
C971 C972 1.403 . S
C972 C971 1.403 . S
C972 C973 1.404 . S
C972 C975 1.539 . S
C973 C969 1.408 . S
C973 C972 1.404 . S
C973 H985 0.930 . S
C974 C970 1.524 . S
C974 H986 0.956 . S
C974 H987 0.961 . S
C974 H988 0.961 . S
C975 C972 1.539 . S
C975 H989 0.958 . S
C975 H990 0.961 . S
C975 H991 0.960 . S
H976 C960 0.931 . S
H977 C965 0.929 . S
H978 C966 0.960 . S
H979 C966 0.962 . S
H980 C966 0.960 . S
H981 C967 0.961 . S
H982 C967 0.961 . S
H983 C967 0.961 . S
H984 C968 0.931 . S
H985 C973 0.930 . S
H986 C974 0.956 . S
H987 C974 0.961 . S
H988 C974 0.961 . S
H989 C975 0.958 . S
H990 C975 0.961 . S
H991 C975 0.960 . S
C992 C993 1.391 . S
C992 C994 1.394 . S
C992 H1008 0.931 . S
C993 C992 1.391 . S
C993 C997 1.376 . S
C994 C992 1.394 . S
C994 C995 1.369 . S
C994 C998 1.531 . S
C995 C994 1.369 . S
C995 C996 1.410 . S
C995 C1003 1.503 . S
C996 C995 1.410 . S
C996 C997 1.392 . S
C996 C999 1.511 . S
C997 C993 1.376 . S
C997 C996 1.392 . S
C997 H1009 0.929 . S
C998 C994 1.531 . S
C998 H1010 0.960 . S
C998 H1011 0.962 . S
C998 H1012 0.960 . S
C999 C996 1.511 . S
C999 H1013 0.961 . S
C999 H1014 0.961 . S
C999 H1015 0.961 . S
C1000 C1001 1.370 . S
C1000 C1002 1.363 . S
C1000 H1016 0.931 . S
C1001 C1000 1.370 . S
C1001 C1005 1.408 . S
C1002 C1000 1.363 . S
C1002 C1003 1.370 . S
C1002 C1006 1.524 . S
C1003 C995 1.503 . S
C1003 C1002 1.370 . S
C1003 C1004 1.403 . S
C1004 C1003 1.403 . S
C1004 C1005 1.404 . S
C1004 C1007 1.539 . S
C1005 C1001 1.408 . S
C1005 C1004 1.404 . S
C1005 H1017 0.930 . S
C1006 C1002 1.524 . S
C1006 H1018 0.956 . S
C1006 H1019 0.961 . S
C1006 H1020 0.961 . S
C1007 C1004 1.539 . S
C1007 H1021 0.958 . S
C1007 H1022 0.961 . S
C1007 H1023 0.960 . S
H1008 C992 0.931 . S
H1009 C997 0.929 . S
H1010 C998 0.960 . S
H1011 C998 0.962 . S
H1012 C998 0.960 . S
H1013 C999 0.961 . S
H1014 C999 0.961 . S
H1015 C999 0.961 . S
H1016 C1000 0.931 . S
H1017 C1005 0.930 . S
H1018 C1006 0.956 . S
H1019 C1006 0.961 . S
H1020 C1006 0.961 . S
H1021 C1007 0.958 . S
H1022 C1007 0.961 . S
H1023 C1007 0.960 . S
C1024 C1025 1.391 . S
C1024 C1026 1.394 . S
C1024 H1040 0.931 . S
C1025 C1024 1.391 . S
C1025 C1029 1.376 . S
C1026 C1024 1.394 . S
C1026 C1027 1.369 . S
C1026 C1030 1.531 . S
C1027 C1026 1.369 . S
C1027 C1028 1.410 . S
C1027 C1035 1.503 . S
C1028 C1027 1.410 . S
C1028 C1029 1.392 . S
C1028 C1031 1.511 . S
C1029 C1025 1.376 . S
C1029 C1028 1.392 . S
C1029 H1041 0.929 . S
C1030 C1026 1.531 . S
C1030 H1042 0.960 . S
C1030 H1043 0.962 . S
C1030 H1044 0.960 . S
C1031 C1028 1.511 . S
C1031 H1045 0.961 . S
C1031 H1046 0.961 . S
C1031 H1047 0.961 . S
C1032 C1033 1.370 . S
C1032 C1034 1.363 . S
C1032 H1048 0.931 . S
C1033 C1032 1.370 . S
C1033 C1037 1.408 . S
C1034 C1032 1.363 . S
C1034 C1035 1.370 . S
C1034 C1038 1.524 . S
C1035 C1027 1.503 . S
C1035 C1034 1.370 . S
C1035 C1036 1.403 . S
C1036 C1035 1.403 . S
C1036 C1037 1.404 . S
C1036 C1039 1.539 . S
C1037 C1033 1.408 . S
C1037 C1036 1.404 . S
C1037 H1049 0.930 . S
C1038 C1034 1.524 . S
C1038 H1050 0.956 . S
C1038 H1051 0.961 . S
C1038 H1052 0.961 . S
C1039 C1036 1.539 . S
C1039 H1053 0.958 . S
C1039 H1054 0.961 . S
C1039 H1055 0.960 . S
H1040 C1024 0.931 . S
H1041 C1029 0.929 . S
H1042 C1030 0.960 . S
H1043 C1030 0.962 . S
H1044 C1030 0.960 . S
H1045 C1031 0.961 . S
H1046 C1031 0.961 . S
H1047 C1031 0.961 . S
H1048 C1032 0.931 . S
H1049 C1037 0.930 . S
H1050 C1038 0.956 . S
H1051 C1038 0.961 . S
H1052 C1038 0.961 . S
H1053 C1039 0.958 . S
H1054 C1039 0.961 . S
H1055 C1039 0.960 . S
C1056 C1057 1.391 . S
C1056 C1058 1.394 . S
C1056 H1072 0.931 . S
C1057 C1056 1.391 . S
C1057 C1061 1.376 . S
C1058 C1056 1.394 . S
C1058 C1059 1.369 . S
C1058 C1062 1.531 . S
C1059 C1058 1.369 . S
C1059 C1060 1.410 . S
C1059 C1067 1.503 . S
C1060 C1059 1.410 . S
C1060 C1061 1.392 . S
C1060 C1063 1.511 . S
C1061 C1057 1.376 . S
C1061 C1060 1.392 . S
C1061 H1073 0.929 . S
C1062 C1058 1.531 . S
C1062 H1074 0.960 . S
C1062 H1075 0.962 . S
C1062 H1076 0.960 . S
C1063 C1060 1.511 . S
C1063 H1077 0.961 . S
C1063 H1078 0.961 . S
C1063 H1079 0.961 . S
C1064 C1065 1.370 . S
C1064 C1066 1.363 . S
C1064 H1080 0.931 . S
C1065 C1064 1.370 . S
C1065 C1069 1.408 . S
C1066 C1064 1.363 . S
C1066 C1067 1.370 . S
C1066 C1070 1.524 . S
C1067 C1059 1.503 . S
C1067 C1066 1.370 . S
C1067 C1068 1.403 . S
C1068 C1067 1.403 . S
C1068 C1069 1.404 . S
C1068 C1071 1.539 . S
C1069 C1065 1.408 . S
C1069 C1068 1.404 . S
C1069 H1081 0.930 . S
C1070 C1066 1.524 . S
C1070 H1082 0.956 . S
C1070 H1083 0.961 . S
C1070 H1084 0.961 . S
C1071 C1068 1.539 . S
C1071 H1085 0.958 . S
C1071 H1086 0.961 . S
C1071 H1087 0.960 . S
H1072 C1056 0.931 . S
H1073 C1061 0.929 . S
H1074 C1062 0.960 . S
H1075 C1062 0.962 . S
H1076 C1062 0.960 . S
H1077 C1063 0.961 . S
H1078 C1063 0.961 . S
H1079 C1063 0.961 . S
H1080 C1064 0.931 . S
H1081 C1069 0.930 . S
H1082 C1070 0.956 . S
H1083 C1070 0.961 . S
H1084 C1070 0.961 . S
H1085 C1071 0.958 . S
H1086 C1071 0.961 . S
H1087 C1071 0.960 . S
C1088 C1089 1.391 . S
C1088 C1090 1.394 . S
C1088 H1104 0.931 . S
C1089 C1088 1.391 . S
C1089 C1093 1.376 . S
C1090 C1088 1.394 . S
C1090 C1091 1.369 . S
C1090 C1094 1.531 . S
C1091 C1090 1.369 . S
C1091 C1092 1.410 . S
C1091 C1099 1.503 . S
C1092 C1091 1.410 . S
C1092 C1093 1.392 . S
C1092 C1095 1.511 . S
C1093 C1089 1.376 . S
C1093 C1092 1.392 . S
C1093 H1105 0.929 . S
C1094 C1090 1.531 . S
C1094 H1106 0.960 . S
C1094 H1107 0.962 . S
C1094 H1108 0.960 . S
C1095 C1092 1.511 . S
C1095 H1109 0.961 . S
C1095 H1110 0.961 . S
C1095 H1111 0.961 . S
C1096 C1097 1.370 . S
C1096 C1098 1.363 . S
C1096 H1112 0.931 . S
C1097 C1096 1.370 . S
C1097 C1101 1.408 . S
C1098 C1096 1.363 . S
C1098 C1099 1.370 . S
C1098 C1102 1.524 . S
C1099 C1091 1.503 . S
C1099 C1098 1.370 . S
C1099 C1100 1.403 . S
C1100 C1099 1.403 . S
C1100 C1101 1.404 . S
C1100 C1103 1.539 . S
C1101 C1097 1.408 . S
C1101 C1100 1.404 . S
C1101 H1113 0.930 . S
C1102 C1098 1.524 . S
C1102 H1114 0.956 . S
C1102 H1115 0.961 . S
C1102 H1116 0.961 . S
C1103 C1100 1.539 . S
C1103 H1117 0.958 . S
C1103 H1118 0.961 . S
C1103 H1119 0.960 . S
H1104 C1088 0.931 . S
H1105 C1093 0.929 . S
H1106 C1094 0.960 . S
H1107 C1094 0.962 . S
H1108 C1094 0.960 . S
H1109 C1095 0.961 . S
H1110 C1095 0.961 . S
H1111 C1095 0.961 . S
H1112 C1096 0.931 . S
H1113 C1101 0.930 . S
H1114 C1102 0.956 . S
H1115 C1102 0.961 . S
H1116 C1102 0.961 . S
H1117 C1103 0.958 . S
H1118 C1103 0.961 . S
H1119 C1103 0.960 . S
C1120 C1121 1.391 . S
C1120 C1122 1.394 . S
C1120 H1136 0.931 . S
C1121 C1120 1.391 . S
C1121 C1125 1.376 . S
C1122 C1120 1.394 . S
C1122 C1123 1.369 . S
C1122 C1126 1.531 . S
C1123 C1122 1.369 . S
C1123 C1124 1.410 . S
C1123 C1131 1.503 . S
C1124 C1123 1.410 . S
C1124 C1125 1.392 . S
C1124 C1127 1.511 . S
C1125 C1121 1.376 . S
C1125 C1124 1.392 . S
C1125 H1137 0.929 . S
C1126 C1122 1.531 . S
C1126 H1138 0.960 . S
C1126 H1139 0.962 . S
C1126 H1140 0.960 . S
C1127 C1124 1.511 . S
C1127 H1141 0.961 . S
C1127 H1142 0.961 . S
C1127 H1143 0.961 . S
C1128 C1129 1.370 . S
C1128 C1130 1.363 . S
C1128 H1144 0.931 . S
C1129 C1128 1.370 . S
C1129 C1133 1.408 . S
C1130 C1128 1.363 . S
C1130 C1131 1.370 . S
C1130 C1134 1.524 . S
C1131 C1123 1.503 . S
C1131 C1130 1.370 . S
C1131 C1132 1.403 . S
C1132 C1131 1.403 . S
C1132 C1133 1.404 . S
C1132 C1135 1.539 . S
C1133 C1129 1.408 . S
C1133 C1132 1.404 . S
C1133 H1145 0.930 . S
C1134 C1130 1.524 . S
C1134 H1146 0.956 . S
C1134 H1147 0.961 . S
C1134 H1148 0.961 . S
C1135 C1132 1.539 . S
C1135 H1149 0.958 . S
C1135 H1150 0.961 . S
C1135 H1151 0.960 . S
H1136 C1120 0.931 . S
H1137 C1125 0.929 . S
H1138 C1126 0.960 . S
H1139 C1126 0.962 . S
H1140 C1126 0.960 . S
H1141 C1127 0.961 . S
H1142 C1127 0.961 . S
H1143 C1127 0.961 . S
H1144 C1128 0.931 . S
H1145 C1133 0.930 . S
H1146 C1134 0.956 . S
H1147 C1134 0.961 . S
H1148 C1134 0.961 . S
H1149 C1135 0.958 . S
H1150 C1135 0.961 . S
H1151 C1135 0.960 . S
C1152 C1153 1.391 . S
C1152 C1154 1.394 . S
C1152 H1168 0.931 . S
C1153 C1152 1.391 . S
C1153 C1157 1.376 . S
C1154 C1152 1.394 . S
C1154 C1155 1.369 . S
C1154 C1158 1.531 . S
C1155 C1154 1.369 . S
C1155 C1156 1.410 . S
C1155 C1163 1.503 . S
C1156 C1155 1.410 . S
C1156 C1157 1.392 . S
C1156 C1159 1.511 . S
C1157 C1153 1.376 . S
C1157 C1156 1.392 . S
C1157 H1169 0.929 . S
C1158 C1154 1.531 . S
C1158 H1170 0.960 . S
C1158 H1171 0.962 . S
C1158 H1172 0.960 . S
C1159 C1156 1.511 . S
C1159 H1173 0.961 . S
C1159 H1174 0.961 . S
C1159 H1175 0.961 . S
C1160 C1161 1.370 . S
C1160 C1162 1.363 . S
C1160 H1176 0.931 . S
C1161 C1160 1.370 . S
C1161 C1165 1.408 . S
C1162 C1160 1.363 . S
C1162 C1163 1.370 . S
C1162 C1166 1.524 . S
C1163 C1155 1.503 . S
C1163 C1162 1.370 . S
C1163 C1164 1.403 . S
C1164 C1163 1.403 . S
C1164 C1165 1.404 . S
C1164 C1167 1.539 . S
C1165 C1161 1.408 . S
C1165 C1164 1.404 . S
C1165 H1177 0.930 . S
C1166 C1162 1.524 . S
C1166 H1178 0.956 . S
C1166 H1179 0.961 . S
C1166 H1180 0.961 . S
C1167 C1164 1.539 . S
C1167 H1181 0.958 . S
C1167 H1182 0.961 . S
C1167 H1183 0.960 . S
H1168 C1152 0.931 . S
H1169 C1157 0.929 . S
H1170 C1158 0.960 . S
H1171 C1158 0.962 . S
H1172 C1158 0.960 . S
H1173 C1159 0.961 . S
H1174 C1159 0.961 . S
H1175 C1159 0.961 . S
H1176 C1160 0.931 . S
H1177 C1165 0.930 . S
H1178 C1166 0.956 . S
H1179 C1166 0.961 . S
H1180 C1166 0.961 . S
H1181 C1167 0.958 . S
H1182 C1167 0.961 . S
H1183 C1167 0.960 . S
C1184 C1185 1.391 . S
C1184 C1186 1.394 . S
C1184 H1200 0.931 . S
C1185 C1184 1.391 . S
C1185 C1189 1.376 . S
C1186 C1184 1.394 . S
C1186 C1187 1.369 . S
C1186 C1190 1.531 . S
C1187 C1186 1.369 . S
C1187 C1188 1.410 . S
C1187 C1195 1.503 . S
C1188 C1187 1.410 . S
C1188 C1189 1.392 . S
C1188 C1191 1.511 . S
C1189 C1185 1.376 . S
C1189 C1188 1.392 . S
C1189 H1201 0.929 . S
C1190 C1186 1.531 . S
C1190 H1202 0.960 . S
C1190 H1203 0.962 . S
C1190 H1204 0.960 . S
C1191 C1188 1.511 . S
C1191 H1205 0.961 . S
C1191 H1206 0.961 . S
C1191 H1207 0.961 . S
C1192 C1193 1.370 . S
C1192 C1194 1.363 . S
C1192 H1208 0.931 . S
C1193 C1192 1.370 . S
C1193 C1197 1.408 . S
C1194 C1192 1.363 . S
C1194 C1195 1.370 . S
C1194 C1198 1.524 . S
C1195 C1187 1.503 . S
C1195 C1194 1.370 . S
C1195 C1196 1.403 . S
C1196 C1195 1.403 . S
C1196 C1197 1.404 . S
C1196 C1199 1.539 . S
C1197 C1193 1.408 . S
C1197 C1196 1.404 . S
C1197 H1209 0.930 . S
C1198 C1194 1.524 . S
C1198 H1210 0.956 . S
C1198 H1211 0.961 . S
C1198 H1212 0.961 . S
C1199 C1196 1.539 . S
C1199 H1213 0.958 . S
C1199 H1214 0.961 . S
C1199 H1215 0.960 . S
H1200 C1184 0.931 . S
H1201 C1189 0.929 . S
H1202 C1190 0.960 . S
H1203 C1190 0.962 . S
H1204 C1190 0.960 . S
H1205 C1191 0.961 . S
H1206 C1191 0.961 . S
H1207 C1191 0.961 . S
H1208 C1192 0.931 . S
H1209 C1197 0.930 . S
H1210 C1198 0.956 . S
H1211 C1198 0.961 . S
H1212 C1198 0.961 . S
H1213 C1199 0.958 . S
H1214 C1199 0.961 . S
H1215 C1199 0.960 . S
C1216 C1217 1.391 . S
C1216 C1218 1.394 . S
C1216 H1232 0.931 . S
C1217 C1216 1.391 . S
C1217 C1221 1.376 . S
C1218 C1216 1.394 . S
C1218 C1219 1.369 . S
C1218 C1222 1.531 . S
C1219 C1218 1.369 . S
C1219 C1220 1.410 . S
C1219 C1227 1.503 . S
C1220 C1219 1.410 . S
C1220 C1221 1.392 . S
C1220 C1223 1.511 . S
C1221 C1217 1.376 . S
C1221 C1220 1.392 . S
C1221 H1233 0.929 . S
C1222 C1218 1.531 . S
C1222 H1234 0.960 . S
C1222 H1235 0.962 . S
C1222 H1236 0.960 . S
C1223 C1220 1.511 . S
C1223 H1237 0.961 . S
C1223 H1238 0.961 . S
C1223 H1239 0.961 . S
C1224 C1225 1.370 . S
C1224 C1226 1.363 . S
C1224 H1240 0.931 . S
C1225 C1224 1.370 . S
C1225 C1229 1.408 . S
C1226 C1224 1.363 . S
C1226 C1227 1.370 . S
C1226 C1230 1.524 . S
C1227 C1219 1.503 . S
C1227 C1226 1.370 . S
C1227 C1228 1.403 . S
C1228 C1227 1.403 . S
C1228 C1229 1.404 . S
C1228 C1231 1.539 . S
C1229 C1225 1.408 . S
C1229 C1228 1.404 . S
C1229 H1241 0.930 . S
C1230 C1226 1.524 . S
C1230 H1242 0.956 . S
C1230 H1243 0.961 . S
C1230 H1244 0.961 . S
C1231 C1228 1.539 . S
C1231 H1245 0.958 . S
C1231 H1246 0.961 . S
C1231 H1247 0.960 . S
H1232 C1216 0.931 . S
H1233 C1221 0.929 . S
H1234 C1222 0.960 . S
H1235 C1222 0.962 . S
H1236 C1222 0.960 . S
H1237 C1223 0.961 . S
H1238 C1223 0.961 . S
H1239 C1223 0.961 . S
H1240 C1224 0.931 . S
H1241 C1229 0.930 . S
H1242 C1230 0.956 . S
H1243 C1230 0.961 . S
H1244 C1230 0.961 . S
H1245 C1231 0.958 . S
H1246 C1231 0.961 . S
H1247 C1231 0.960 . S
C1248 C1249 1.391 . S
C1248 C1250 1.394 . S
C1248 H1264 0.931 . S
C1249 C1248 1.391 . S
C1249 C1253 1.376 . S
C1250 C1248 1.394 . S
C1250 C1251 1.369 . S
C1250 C1254 1.531 . S
C1251 C1250 1.369 . S
C1251 C1252 1.410 . S
C1251 C1259 1.503 . S
C1252 C1251 1.410 . S
C1252 C1253 1.392 . S
C1252 C1255 1.511 . S
C1253 C1249 1.376 . S
C1253 C1252 1.392 . S
C1253 H1265 0.929 . S
C1254 C1250 1.531 . S
C1254 H1266 0.960 . S
C1254 H1267 0.962 . S
C1254 H1268 0.960 . S
C1255 C1252 1.511 . S
C1255 H1269 0.961 . S
C1255 H1270 0.961 . S
C1255 H1271 0.961 . S
C1256 C1257 1.370 . S
C1256 C1258 1.363 . S
C1256 H1272 0.931 . S
C1257 C1256 1.370 . S
C1257 C1261 1.408 . S
C1258 C1256 1.363 . S
C1258 C1259 1.370 . S
C1258 C1262 1.524 . S
C1259 C1251 1.503 . S
C1259 C1258 1.370 . S
C1259 C1260 1.403 . S
C1260 C1259 1.403 . S
C1260 C1261 1.404 . S
C1260 C1263 1.539 . S
C1261 C1257 1.408 . S
C1261 C1260 1.404 . S
C1261 H1273 0.930 . S
C1262 C1258 1.524 . S
C1262 H1274 0.956 . S
C1262 H1275 0.961 . S
C1262 H1276 0.961 . S
C1263 C1260 1.539 . S
C1263 H1277 0.958 . S
C1263 H1278 0.961 . S
C1263 H1279 0.960 . S
H1264 C1248 0.931 . S
H1265 C1253 0.929 . S
H1266 C1254 0.960 . S
H1267 C1254 0.962 . S
H1268 C1254 0.960 . S
H1269 C1255 0.961 . S
H1270 C1255 0.961 . S
H1271 C1255 0.961 . S
H1272 C1256 0.931 . S
H1273 C1261 0.930 . S
H1274 C1262 0.956 . S
H1275 C1262 0.961 . S
H1276 C1262 0.961 . S
H1277 C1263 0.958 . S
H1278 C1263 0.961 . S
H1279 C1263 0.960 . S
C1280 C1281 1.391 . S
C1280 C1282 1.394 . S
C1280 H1296 0.931 . S
C1281 C1280 1.391 . S
C1281 C1285 1.376 . S
C1282 C1280 1.394 . S
C1282 C1283 1.369 . S
C1282 C1286 1.531 . S
C1283 C1282 1.369 . S
C1283 C1284 1.410 . S
C1283 C1291 1.503 . S
C1284 C1283 1.410 . S
C1284 C1285 1.392 . S
C1284 C1287 1.511 . S
C1285 C1281 1.376 . S
C1285 C1284 1.392 . S
C1285 H1297 0.929 . S
C1286 C1282 1.531 . S
C1286 H1298 0.960 . S
C1286 H1299 0.962 . S
C1286 H1300 0.960 . S
C1287 C1284 1.511 . S
C1287 H1301 0.961 . S
C1287 H1302 0.961 . S
C1287 H1303 0.961 . S
C1288 C1289 1.370 . S
C1288 C1290 1.363 . S
C1288 H1304 0.931 . S
C1289 C1288 1.370 . S
C1289 C1293 1.408 . S
C1290 C1288 1.363 . S
C1290 C1291 1.370 . S
C1290 C1294 1.524 . S
C1291 C1283 1.503 . S
C1291 C1290 1.370 . S
C1291 C1292 1.403 . S
C1292 C1291 1.403 . S
C1292 C1293 1.404 . S
C1292 C1295 1.539 . S
C1293 C1289 1.408 . S
C1293 C1292 1.404 . S
C1293 H1305 0.930 . S
C1294 C1290 1.524 . S
C1294 H1306 0.956 . S
C1294 H1307 0.961 . S
C1294 H1308 0.961 . S
C1295 C1292 1.539 . S
C1295 H1309 0.958 . S
C1295 H1310 0.961 . S
C1295 H1311 0.960 . S
H1296 C1280 0.931 . S
H1297 C1285 0.929 . S
H1298 C1286 0.960 . S
H1299 C1286 0.962 . S
H1300 C1286 0.960 . S
H1301 C1287 0.961 . S
H1302 C1287 0.961 . S
H1303 C1287 0.961 . S
H1304 C1288 0.931 . S
H1305 C1293 0.930 . S
H1306 C1294 0.956 . S
H1307 C1294 0.961 . S
H1308 C1294 0.961 . S
H1309 C1295 0.958 . S
H1310 C1295 0.961 . S
H1311 C1295 0.960 . S
C1312 C1313 1.391 . S
C1312 C1314 1.394 . S
C1312 H1328 0.931 . S
C1313 C1312 1.391 . S
C1313 C1317 1.376 . S
C1314 C1312 1.394 . S
C1314 C1315 1.369 . S
C1314 C1318 1.531 . S
C1315 C1314 1.369 . S
C1315 C1316 1.410 . S
C1315 C1323 1.503 . S
C1316 C1315 1.410 . S
C1316 C1317 1.392 . S
C1316 C1319 1.511 . S
C1317 C1313 1.376 . S
C1317 C1316 1.392 . S
C1317 H1329 0.929 . S
C1318 C1314 1.531 . S
C1318 H1330 0.960 . S
C1318 H1331 0.962 . S
C1318 H1332 0.960 . S
C1319 C1316 1.511 . S
C1319 H1333 0.961 . S
C1319 H1334 0.961 . S
C1319 H1335 0.961 . S
C1320 C1321 1.370 . S
C1320 C1322 1.363 . S
C1320 H1336 0.931 . S
C1321 C1320 1.370 . S
C1321 C1325 1.408 . S
C1322 C1320 1.363 . S
C1322 C1323 1.370 . S
C1322 C1326 1.524 . S
C1323 C1315 1.503 . S
C1323 C1322 1.370 . S
C1323 C1324 1.403 . S
C1324 C1323 1.403 . S
C1324 C1325 1.404 . S
C1324 C1327 1.539 . S
C1325 C1321 1.408 . S
C1325 C1324 1.404 . S
C1325 H1337 0.930 . S
C1326 C1322 1.524 . S
C1326 H1338 0.956 . S
C1326 H1339 0.961 . S
C1326 H1340 0.961 . S
C1327 C1324 1.539 . S
C1327 H1341 0.958 . S
C1327 H1342 0.961 . S
C1327 H1343 0.960 . S
H1328 C1312 0.931 . S
H1329 C1317 0.929 . S
H1330 C1318 0.960 . S
H1331 C1318 0.962 . S
H1332 C1318 0.960 . S
H1333 C1319 0.961 . S
H1334 C1319 0.961 . S
H1335 C1319 0.961 . S
H1336 C1320 0.931 . S
H1337 C1325 0.930 . S
H1338 C1326 0.956 . S
H1339 C1326 0.961 . S
H1340 C1326 0.961 . S
H1341 C1327 0.958 . S
H1342 C1327 0.961 . S
H1343 C1327 0.960 . S
C1344 C1345 1.391 . S
C1344 C1346 1.394 . S
C1344 H1360 0.931 . S
C1345 C1344 1.391 . S
C1345 C1349 1.376 . S
C1346 C1344 1.394 . S
C1346 C1347 1.369 . S
C1346 C1350 1.531 . S
C1347 C1346 1.369 . S
C1347 C1348 1.410 . S
C1347 C1355 1.503 . S
C1348 C1347 1.410 . S
C1348 C1349 1.392 . S
C1348 C1351 1.511 . S
C1349 C1345 1.376 . S
C1349 C1348 1.392 . S
C1349 H1361 0.929 . S
C1350 C1346 1.531 . S
C1350 H1362 0.960 . S
C1350 H1363 0.962 . S
C1350 H1364 0.960 . S
C1351 C1348 1.511 . S
C1351 H1365 0.961 . S
C1351 H1366 0.961 . S
C1351 H1367 0.961 . S
C1352 C1353 1.370 . S
C1352 C1354 1.363 . S
C1352 H1368 0.931 . S
C1353 C1352 1.370 . S
C1353 C1357 1.408 . S
C1354 C1352 1.363 . S
C1354 C1355 1.370 . S
C1354 C1358 1.524 . S
C1355 C1347 1.503 . S
C1355 C1354 1.370 . S
C1355 C1356 1.403 . S
C1356 C1355 1.403 . S
C1356 C1357 1.404 . S
C1356 C1359 1.539 . S
C1357 C1353 1.408 . S
C1357 C1356 1.404 . S
C1357 H1369 0.930 . S
C1358 C1354 1.524 . S
C1358 H1370 0.956 . S
C1358 H1371 0.961 . S
C1358 H1372 0.961 . S
C1359 C1356 1.539 . S
C1359 H1373 0.958 . S
C1359 H1374 0.961 . S
C1359 H1375 0.960 . S
H1360 C1344 0.931 . S
H1361 C1349 0.929 . S
H1362 C1350 0.960 . S
H1363 C1350 0.962 . S
H1364 C1350 0.960 . S
H1365 C1351 0.961 . S
H1366 C1351 0.961 . S
H1367 C1351 0.961 . S
H1368 C1352 0.931 . S
H1369 C1357 0.930 . S
H1370 C1358 0.956 . S
H1371 C1358 0.961 . S
H1372 C1358 0.961 . S
H1373 C1359 0.958 . S
H1374 C1359 0.961 . S
H1375 C1359 0.960 . S
C1376 C1377 1.391 . S
C1376 C1378 1.394 . S
C1376 H1392 0.931 . S
C1377 C1376 1.391 . S
C1377 C1381 1.376 . S
C1378 C1376 1.394 . S
C1378 C1379 1.369 . S
C1378 C1382 1.531 . S
C1379 C1378 1.369 . S
C1379 C1380 1.410 . S
C1379 C1387 1.503 . S
C1380 C1379 1.410 . S
C1380 C1381 1.392 . S
C1380 C1383 1.511 . S
C1381 C1377 1.376 . S
C1381 C1380 1.392 . S
C1381 H1393 0.929 . S
C1382 C1378 1.531 . S
C1382 H1394 0.960 . S
C1382 H1395 0.962 . S
C1382 H1396 0.960 . S
C1383 C1380 1.511 . S
C1383 H1397 0.961 . S
C1383 H1398 0.961 . S
C1383 H1399 0.961 . S
C1384 C1385 1.370 . S
C1384 C1386 1.363 . S
C1384 H1400 0.931 . S
C1385 C1384 1.370 . S
C1385 C1389 1.408 . S
C1386 C1384 1.363 . S
C1386 C1387 1.370 . S
C1386 C1390 1.524 . S
C1387 C1379 1.503 . S
C1387 C1386 1.370 . S
C1387 C1388 1.403 . S
C1388 C1387 1.403 . S
C1388 C1389 1.404 . S
C1388 C1391 1.539 . S
C1389 C1385 1.408 . S
C1389 C1388 1.404 . S
C1389 H1401 0.930 . S
C1390 C1386 1.524 . S
C1390 H1402 0.956 . S
C1390 H1403 0.961 . S
C1390 H1404 0.961 . S
C1391 C1388 1.539 . S
C1391 H1405 0.958 . S
C1391 H1406 0.961 . S
C1391 H1407 0.960 . S
H1392 C1376 0.931 . S
H1393 C1381 0.929 . S
H1394 C1382 0.960 . S
H1395 C1382 0.962 . S
H1396 C1382 0.960 . S
H1397 C1383 0.961 . S
H1398 C1383 0.961 . S
H1399 C1383 0.961 . S
H1400 C1384 0.931 . S
H1401 C1389 0.930 . S
H1402 C1390 0.956 . S
H1403 C1390 0.961 . S
H1404 C1390 0.961 . S
H1405 C1391 0.958 . S
H1406 C1391 0.961 . S
H1407 C1391 0.960 . S
C1408 C1409 1.391 . S
C1408 C1410 1.394 . S
C1408 H1424 0.931 . S
C1409 C1408 1.391 . S
C1409 C1413 1.376 . S
C1410 C1408 1.394 . S
C1410 C1411 1.369 . S
C1410 C1414 1.531 . S
C1411 C1410 1.369 . S
C1411 C1412 1.410 . S
C1411 C1419 1.503 . S
C1412 C1411 1.410 . S
C1412 C1413 1.392 . S
C1412 C1415 1.511 . S
C1413 C1409 1.376 . S
C1413 C1412 1.392 . S
C1413 H1425 0.929 . S
C1414 C1410 1.531 . S
C1414 H1426 0.960 . S
C1414 H1427 0.962 . S
C1414 H1428 0.960 . S
C1415 C1412 1.511 . S
C1415 H1429 0.961 . S
C1415 H1430 0.961 . S
C1415 H1431 0.961 . S
C1416 C1417 1.370 . S
C1416 C1418 1.363 . S
C1416 H1432 0.931 . S
C1417 C1416 1.370 . S
C1417 C1421 1.408 . S
C1418 C1416 1.363 . S
C1418 C1419 1.370 . S
C1418 C1422 1.524 . S
C1419 C1411 1.503 . S
C1419 C1418 1.370 . S
C1419 C1420 1.403 . S
C1420 C1419 1.403 . S
C1420 C1421 1.404 . S
C1420 C1423 1.539 . S
C1421 C1417 1.408 . S
C1421 C1420 1.404 . S
C1421 H1433 0.930 . S
C1422 C1418 1.524 . S
C1422 H1434 0.956 . S
C1422 H1435 0.961 . S
C1422 H1436 0.961 . S
C1423 C1420 1.539 . S
C1423 H1437 0.958 . S
C1423 H1438 0.961 . S
C1423 H1439 0.960 . S
H1424 C1408 0.931 . S
H1425 C1413 0.929 . S
H1426 C1414 0.960 . S
H1427 C1414 0.962 . S
H1428 C1414 0.960 . S
H1429 C1415 0.961 . S
H1430 C1415 0.961 . S
H1431 C1415 0.961 . S
H1432 C1416 0.931 . S
H1433 C1421 0.930 . S
H1434 C1422 0.956 . S
H1435 C1422 0.961 . S
H1436 C1422 0.961 . S
H1437 C1423 0.958 . S
H1438 C1423 0.961 . S
H1439 C1423 0.960 . S
C1440 C1441 1.391 . S
C1440 C1442 1.394 . S
C1440 H1456 0.931 . S
C1441 C1440 1.391 . S
C1441 C1445 1.376 . S
C1442 C1440 1.394 . S
C1442 C1443 1.369 . S
C1442 C1446 1.531 . S
C1443 C1442 1.369 . S
C1443 C1444 1.410 . S
C1443 C1451 1.503 . S
C1444 C1443 1.410 . S
C1444 C1445 1.392 . S
C1444 C1447 1.511 . S
C1445 C1441 1.376 . S
C1445 C1444 1.392 . S
C1445 H1457 0.929 . S
C1446 C1442 1.531 . S
C1446 H1458 0.960 . S
C1446 H1459 0.962 . S
C1446 H1460 0.960 . S
C1447 C1444 1.511 . S
C1447 H1461 0.961 . S
C1447 H1462 0.961 . S
C1447 H1463 0.961 . S
C1448 C1449 1.370 . S
C1448 C1450 1.363 . S
C1448 H1464 0.931 . S
C1449 C1448 1.370 . S
C1449 C1453 1.408 . S
C1450 C1448 1.363 . S
C1450 C1451 1.370 . S
C1450 C1454 1.524 . S
C1451 C1443 1.503 . S
C1451 C1450 1.370 . S
C1451 C1452 1.403 . S
C1452 C1451 1.403 . S
C1452 C1453 1.404 . S
C1452 C1455 1.539 . S
C1453 C1449 1.408 . S
C1453 C1452 1.404 . S
C1453 H1465 0.930 . S
C1454 C1450 1.524 . S
C1454 H1466 0.956 . S
C1454 H1467 0.961 . S
C1454 H1468 0.961 . S
C1455 C1452 1.539 . S
C1455 H1469 0.958 . S
C1455 H1470 0.961 . S
C1455 H1471 0.960 . S
H1456 C1440 0.931 . S
H1457 C1445 0.929 . S
H1458 C1446 0.960 . S
H1459 C1446 0.962 . S
H1460 C1446 0.960 . S
H1461 C1447 0.961 . S
H1462 C1447 0.961 . S
H1463 C1447 0.961 . S
H1464 C1448 0.931 . S
H1465 C1453 0.930 . S
H1466 C1454 0.956 . S
H1467 C1454 0.961 . S
H1468 C1454 0.961 . S
H1469 C1455 0.958 . S
H1470 C1455 0.961 . S
H1471 C1455 0.960 . S
C1472 C1473 1.391 . S
C1472 C1474 1.394 . S
C1472 H1488 0.931 . S
C1473 C1472 1.391 . S
C1473 C1477 1.376 . S
C1474 C1472 1.394 . S
C1474 C1475 1.369 . S
C1474 C1478 1.531 . S
C1475 C1474 1.369 . S
C1475 C1476 1.410 . S
C1475 C1483 1.503 . S
C1476 C1475 1.410 . S
C1476 C1477 1.392 . S
C1476 C1479 1.511 . S
C1477 C1473 1.376 . S
C1477 C1476 1.392 . S
C1477 H1489 0.929 . S
C1478 C1474 1.531 . S
C1478 H1490 0.960 . S
C1478 H1491 0.962 . S
C1478 H1492 0.960 . S
C1479 C1476 1.511 . S
C1479 H1493 0.961 . S
C1479 H1494 0.961 . S
C1479 H1495 0.961 . S
C1480 C1481 1.370 . S
C1480 C1482 1.363 . S
C1480 H1496 0.931 . S
C1481 C1480 1.370 . S
C1481 C1485 1.408 . S
C1482 C1480 1.363 . S
C1482 C1483 1.370 . S
C1482 C1486 1.524 . S
C1483 C1475 1.503 . S
C1483 C1482 1.370 . S
C1483 C1484 1.403 . S
C1484 C1483 1.403 . S
C1484 C1485 1.404 . S
C1484 C1487 1.539 . S
C1485 C1481 1.408 . S
C1485 C1484 1.404 . S
C1485 H1497 0.930 . S
C1486 C1482 1.524 . S
C1486 H1498 0.956 . S
C1486 H1499 0.961 . S
C1486 H1500 0.961 . S
C1487 C1484 1.539 . S
C1487 H1501 0.958 . S
C1487 H1502 0.961 . S
C1487 H1503 0.960 . S
H1488 C1472 0.931 . S
H1489 C1477 0.929 . S
H1490 C1478 0.960 . S
H1491 C1478 0.962 . S
H1492 C1478 0.960 . S
H1493 C1479 0.961 . S
H1494 C1479 0.961 . S
H1495 C1479 0.961 . S
H1496 C1480 0.931 . S
H1497 C1485 0.930 . S
H1498 C1486 0.956 . S
H1499 C1486 0.961 . S
H1500 C1486 0.961 . S
H1501 C1487 0.958 . S
H1502 C1487 0.961 . S
H1503 C1487 0.960 . S
C1504 C1505 1.391 . S
C1504 C1506 1.394 . S
C1504 H1520 0.931 . S
C1505 C1504 1.391 . S
C1505 C1509 1.376 . S
C1506 C1504 1.394 . S
C1506 C1507 1.369 . S
C1506 C1510 1.531 . S
C1507 C1506 1.369 . S
C1507 C1508 1.410 . S
C1507 C1515 1.503 . S
C1508 C1507 1.410 . S
C1508 C1509 1.392 . S
C1508 C1511 1.511 . S
C1509 C1505 1.376 . S
C1509 C1508 1.392 . S
C1509 H1521 0.929 . S
C1510 C1506 1.531 . S
C1510 H1522 0.960 . S
C1510 H1523 0.962 . S
C1510 H1524 0.960 . S
C1511 C1508 1.511 . S
C1511 H1525 0.961 . S
C1511 H1526 0.961 . S
C1511 H1527 0.961 . S
C1512 C1513 1.370 . S
C1512 C1514 1.363 . S
C1512 H1528 0.931 . S
C1513 C1512 1.370 . S
C1513 C1517 1.408 . S
C1514 C1512 1.363 . S
C1514 C1515 1.370 . S
C1514 C1518 1.524 . S
C1515 C1507 1.503 . S
C1515 C1514 1.370 . S
C1515 C1516 1.403 . S
C1516 C1515 1.403 . S
C1516 C1517 1.404 . S
C1516 C1519 1.539 . S
C1517 C1513 1.408 . S
C1517 C1516 1.404 . S
C1517 H1529 0.930 . S
C1518 C1514 1.524 . S
C1518 H1530 0.956 . S
C1518 H1531 0.961 . S
C1518 H1532 0.961 . S
C1519 C1516 1.539 . S
C1519 H1533 0.958 . S
C1519 H1534 0.961 . S
C1519 H1535 0.960 . S
H1520 C1504 0.931 . S
H1521 C1509 0.929 . S
H1522 C1510 0.960 . S
H1523 C1510 0.962 . S
H1524 C1510 0.960 . S
H1525 C1511 0.961 . S
H1526 C1511 0.961 . S
H1527 C1511 0.961 . S
H1528 C1512 0.931 . S
H1529 C1517 0.930 . S
H1530 C1518 0.956 . S
H1531 C1518 0.961 . S
H1532 C1518 0.961 . S
H1533 C1519 0.958 . S
H1534 C1519 0.961 . S
H1535 C1519 0.960 . S
C1536 C1537 1.391 . S
C1536 C1538 1.394 . S
C1536 H1552 0.931 . S
C1537 C1536 1.391 . S
C1537 C1541 1.376 . S
C1538 C1536 1.394 . S
C1538 C1539 1.369 . S
C1538 C1542 1.531 . S
C1539 C1538 1.369 . S
C1539 C1540 1.410 . S
C1539 C1547 1.503 . S
C1540 C1539 1.410 . S
C1540 C1541 1.392 . S
C1540 C1543 1.511 . S
C1541 C1537 1.376 . S
C1541 C1540 1.392 . S
C1541 H1553 0.929 . S
C1542 C1538 1.531 . S
C1542 H1554 0.960 . S
C1542 H1555 0.962 . S
C1542 H1556 0.960 . S
C1543 C1540 1.511 . S
C1543 H1557 0.961 . S
C1543 H1558 0.961 . S
C1543 H1559 0.961 . S
C1544 C1545 1.370 . S
C1544 C1546 1.363 . S
C1544 H1560 0.931 . S
C1545 C1544 1.370 . S
C1545 C1549 1.408 . S
C1546 C1544 1.363 . S
C1546 C1547 1.370 . S
C1546 C1550 1.524 . S
C1547 C1539 1.503 . S
C1547 C1546 1.370 . S
C1547 C1548 1.403 . S
C1548 C1547 1.403 . S
C1548 C1549 1.404 . S
C1548 C1551 1.539 . S
C1549 C1545 1.408 . S
C1549 C1548 1.404 . S
C1549 H1561 0.930 . S
C1550 C1546 1.524 . S
C1550 H1562 0.956 . S
C1550 H1563 0.961 . S
C1550 H1564 0.961 . S
C1551 C1548 1.539 . S
C1551 H1565 0.958 . S
C1551 H1566 0.961 . S
C1551 H1567 0.960 . S
H1552 C1536 0.931 . S
H1553 C1541 0.929 . S
H1554 C1542 0.960 . S
H1555 C1542 0.962 . S
H1556 C1542 0.960 . S
H1557 C1543 0.961 . S
H1558 C1543 0.961 . S
H1559 C1543 0.961 . S
H1560 C1544 0.931 . S
H1561 C1549 0.930 . S
H1562 C1550 0.956 . S
H1563 C1550 0.961 . S
H1564 C1550 0.961 . S
H1565 C1551 0.958 . S
H1566 C1551 0.961 . S
H1567 C1551 0.960 . S
C1568 C1569 1.391 . S
C1568 C1570 1.394 . S
C1568 H1584 0.931 . S
C1569 C1568 1.391 . S
C1569 C1573 1.376 . S
C1570 C1568 1.394 . S
C1570 C1571 1.369 . S
C1570 C1574 1.531 . S
C1571 C1570 1.369 . S
C1571 C1572 1.410 . S
C1571 C1579 1.503 . S
C1572 C1571 1.410 . S
C1572 C1573 1.392 . S
C1572 C1575 1.511 . S
C1573 C1569 1.376 . S
C1573 C1572 1.392 . S
C1573 H1585 0.929 . S
C1574 C1570 1.531 . S
C1574 H1586 0.960 . S
C1574 H1587 0.962 . S
C1574 H1588 0.960 . S
C1575 C1572 1.511 . S
C1575 H1589 0.961 . S
C1575 H1590 0.961 . S
C1575 H1591 0.961 . S
C1576 C1577 1.370 . S
C1576 C1578 1.363 . S
C1576 H1592 0.931 . S
C1577 C1576 1.370 . S
C1577 C1581 1.408 . S
C1578 C1576 1.363 . S
C1578 C1579 1.370 . S
C1578 C1582 1.524 . S
C1579 C1571 1.503 . S
C1579 C1578 1.370 . S
C1579 C1580 1.403 . S
C1580 C1579 1.403 . S
C1580 C1581 1.404 . S
C1580 C1583 1.539 . S
C1581 C1577 1.408 . S
C1581 C1580 1.404 . S
C1581 H1593 0.930 . S
C1582 C1578 1.524 . S
C1582 H1594 0.956 . S
C1582 H1595 0.961 . S
C1582 H1596 0.961 . S
C1583 C1580 1.539 . S
C1583 H1597 0.958 . S
C1583 H1598 0.961 . S
C1583 H1599 0.960 . S
H1584 C1568 0.931 . S
H1585 C1573 0.929 . S
H1586 C1574 0.960 . S
H1587 C1574 0.962 . S
H1588 C1574 0.960 . S
H1589 C1575 0.961 . S
H1590 C1575 0.961 . S
H1591 C1575 0.961 . S
H1592 C1576 0.931 . S
H1593 C1581 0.930 . S
H1594 C1582 0.956 . S
H1595 C1582 0.961 . S
H1596 C1582 0.961 . S
H1597 C1583 0.958 . S
H1598 C1583 0.961 . S
H1599 C1583 0.960 . S
C1600 C1601 1.391 . S
C1600 C1602 1.394 . S
C1600 H1616 0.931 . S
C1601 C1600 1.391 . S
C1601 C1605 1.376 . S
C1602 C1600 1.394 . S
C1602 C1603 1.369 . S
C1602 C1606 1.531 . S
C1603 C1602 1.369 . S
C1603 C1604 1.410 . S
C1603 C1611 1.503 . S
C1604 C1603 1.410 . S
C1604 C1605 1.392 . S
C1604 C1607 1.511 . S
C1605 C1601 1.376 . S
C1605 C1604 1.392 . S
C1605 H1617 0.929 . S
C1606 C1602 1.531 . S
C1606 H1618 0.960 . S
C1606 H1619 0.962 . S
C1606 H1620 0.960 . S
C1607 C1604 1.511 . S
C1607 H1621 0.961 . S
C1607 H1622 0.961 . S
C1607 H1623 0.961 . S
C1608 C1609 1.370 . S
C1608 C1610 1.363 . S
C1608 H1624 0.931 . S
C1609 C1608 1.370 . S
C1609 C1613 1.408 . S
C1610 C1608 1.363 . S
C1610 C1611 1.370 . S
C1610 C1614 1.524 . S
C1611 C1603 1.503 . S
C1611 C1610 1.370 . S
C1611 C1612 1.403 . S
C1612 C1611 1.403 . S
C1612 C1613 1.404 . S
C1612 C1615 1.539 . S
C1613 C1609 1.408 . S
C1613 C1612 1.404 . S
C1613 H1625 0.930 . S
C1614 C1610 1.524 . S
C1614 H1626 0.956 . S
C1614 H1627 0.961 . S
C1614 H1628 0.961 . S
C1615 C1612 1.539 . S
C1615 H1629 0.958 . S
C1615 H1630 0.961 . S
C1615 H1631 0.960 . S
H1616 C1600 0.931 . S
H1617 C1605 0.929 . S
H1618 C1606 0.960 . S
H1619 C1606 0.962 . S
H1620 C1606 0.960 . S
H1621 C1607 0.961 . S
H1622 C1607 0.961 . S
H1623 C1607 0.961 . S
H1624 C1608 0.931 . S
H1625 C1613 0.930 . S
H1626 C1614 0.956 . S
H1627 C1614 0.961 . S
H1628 C1614 0.961 . S
H1629 C1615 0.958 . S
H1630 C1615 0.961 . S
H1631 C1615 0.960 . S
C1632 C1633 1.391 . S
C1632 C1634 1.394 . S
C1632 H1648 0.931 . S
C1633 C1632 1.391 . S
C1633 C1637 1.376 . S
C1634 C1632 1.394 . S
C1634 C1635 1.369 . S
C1634 C1638 1.531 . S
C1635 C1634 1.369 . S
C1635 C1636 1.410 . S
C1635 C1643 1.503 . S
C1636 C1635 1.410 . S
C1636 C1637 1.392 . S
C1636 C1639 1.511 . S
C1637 C1633 1.376 . S
C1637 C1636 1.392 . S
C1637 H1649 0.929 . S
C1638 C1634 1.531 . S
C1638 H1650 0.960 . S
C1638 H1651 0.962 . S
C1638 H1652 0.960 . S
C1639 C1636 1.511 . S
C1639 H1653 0.961 . S
C1639 H1654 0.961 . S
C1639 H1655 0.961 . S
C1640 C1641 1.370 . S
C1640 C1642 1.363 . S
C1640 H1656 0.931 . S
C1641 C1640 1.370 . S
C1641 C1645 1.408 . S
C1642 C1640 1.363 . S
C1642 C1643 1.370 . S
C1642 C1646 1.524 . S
C1643 C1635 1.503 . S
C1643 C1642 1.370 . S
C1643 C1644 1.403 . S
C1644 C1643 1.403 . S
C1644 C1645 1.404 . S
C1644 C1647 1.539 . S
C1645 C1641 1.408 . S
C1645 C1644 1.404 . S
C1645 H1657 0.930 . S
C1646 C1642 1.524 . S
C1646 H1658 0.956 . S
C1646 H1659 0.961 . S
C1646 H1660 0.961 . S
C1647 C1644 1.539 . S
C1647 H1661 0.958 . S
C1647 H1662 0.961 . S
C1647 H1663 0.960 . S
H1648 C1632 0.931 . S
H1649 C1637 0.929 . S
H1650 C1638 0.960 . S
H1651 C1638 0.962 . S
H1652 C1638 0.960 . S
H1653 C1639 0.961 . S
H1654 C1639 0.961 . S
H1655 C1639 0.961 . S
H1656 C1640 0.931 . S
H1657 C1645 0.930 . S
H1658 C1646 0.956 . S
H1659 C1646 0.961 . S
H1660 C1646 0.961 . S
H1661 C1647 0.958 . S
H1662 C1647 0.961 . S
H1663 C1647 0.960 . S
C1664 C1665 1.391 . S
C1664 C1666 1.394 . S
C1664 H1680 0.931 . S
C1665 C1664 1.391 . S
C1665 C1669 1.376 . S
C1666 C1664 1.394 . S
C1666 C1667 1.369 . S
C1666 C1670 1.531 . S
C1667 C1666 1.369 . S
C1667 C1668 1.410 . S
C1667 C1675 1.503 . S
C1668 C1667 1.410 . S
C1668 C1669 1.392 . S
C1668 C1671 1.511 . S
C1669 C1665 1.376 . S
C1669 C1668 1.392 . S
C1669 H1681 0.929 . S
C1670 C1666 1.531 . S
C1670 H1682 0.960 . S
C1670 H1683 0.962 . S
C1670 H1684 0.960 . S
C1671 C1668 1.511 . S
C1671 H1685 0.961 . S
C1671 H1686 0.961 . S
C1671 H1687 0.961 . S
C1672 C1673 1.370 . S
C1672 C1674 1.363 . S
C1672 H1688 0.931 . S
C1673 C1672 1.370 . S
C1673 C1677 1.408 . S
C1674 C1672 1.363 . S
C1674 C1675 1.370 . S
C1674 C1678 1.524 . S
C1675 C1667 1.503 . S
C1675 C1674 1.370 . S
C1675 C1676 1.403 . S
C1676 C1675 1.403 . S
C1676 C1677 1.404 . S
C1676 C1679 1.539 . S
C1677 C1673 1.408 . S
C1677 C1676 1.404 . S
C1677 H1689 0.930 . S
C1678 C1674 1.524 . S
C1678 H1690 0.956 . S
C1678 H1691 0.961 . S
C1678 H1692 0.961 . S
C1679 C1676 1.539 . S
C1679 H1693 0.958 . S
C1679 H1694 0.961 . S
C1679 H1695 0.960 . S
H1680 C1664 0.931 . S
H1681 C1669 0.929 . S
H1682 C1670 0.960 . S
H1683 C1670 0.962 . S
H1684 C1670 0.960 . S
H1685 C1671 0.961 . S
H1686 C1671 0.961 . S
H1687 C1671 0.961 . S
H1688 C1672 0.931 . S
H1689 C1677 0.930 . S
H1690 C1678 0.956 . S
H1691 C1678 0.961 . S
H1692 C1678 0.961 . S
H1693 C1679 0.958 . S
H1694 C1679 0.961 . S
H1695 C1679 0.960 . S
C1696 C1697 1.391 . S
C1696 C1698 1.394 . S
C1696 H1712 0.931 . S
C1697 C1696 1.391 . S
C1697 C1701 1.376 . S
C1698 C1696 1.394 . S
C1698 C1699 1.369 . S
C1698 C1702 1.531 . S
C1699 C1698 1.369 . S
C1699 C1700 1.410 . S
C1699 C1707 1.503 . S
C1700 C1699 1.410 . S
C1700 C1701 1.392 . S
C1700 C1703 1.511 . S
C1701 C1697 1.376 . S
C1701 C1700 1.392 . S
C1701 H1713 0.929 . S
C1702 C1698 1.531 . S
C1702 H1714 0.960 . S
C1702 H1715 0.962 . S
C1702 H1716 0.960 . S
C1703 C1700 1.511 . S
C1703 H1717 0.961 . S
C1703 H1718 0.961 . S
C1703 H1719 0.961 . S
C1704 C1705 1.370 . S
C1704 C1706 1.363 . S
C1704 H1720 0.931 . S
C1705 C1704 1.370 . S
C1705 C1709 1.408 . S
C1706 C1704 1.363 . S
C1706 C1707 1.370 . S
C1706 C1710 1.524 . S
C1707 C1699 1.503 . S
C1707 C1706 1.370 . S
C1707 C1708 1.403 . S
C1708 C1707 1.403 . S
C1708 C1709 1.404 . S
C1708 C1711 1.539 . S
C1709 C1705 1.408 . S
C1709 C1708 1.404 . S
C1709 H1721 0.930 . S
C1710 C1706 1.524 . S
C1710 H1722 0.956 . S
C1710 H1723 0.961 . S
C1710 H1724 0.961 . S
C1711 C1708 1.539 . S
C1711 H1725 0.958 . S
C1711 H1726 0.961 . S
C1711 H1727 0.960 . S
H1712 C1696 0.931 . S
H1713 C1701 0.929 . S
H1714 C1702 0.960 . S
H1715 C1702 0.962 . S
H1716 C1702 0.960 . S
H1717 C1703 0.961 . S
H1718 C1703 0.961 . S
H1719 C1703 0.961 . S
H1720 C1704 0.931 . S
H1721 C1709 0.930 . S
H1722 C1710 0.956 . S
H1723 C1710 0.961 . S
H1724 C1710 0.961 . S
H1725 C1711 0.958 . S
H1726 C1711 0.961 . S
H1727 C1711 0.960 . S
C1728 C1729 1.391 . S
C1728 C1730 1.394 . S
C1728 H1744 0.931 . S
C1729 C1728 1.391 . S
C1729 C1733 1.376 . S
C1730 C1728 1.394 . S
C1730 C1731 1.369 . S
C1730 C1734 1.531 . S
C1731 C1730 1.369 . S
C1731 C1732 1.410 . S
C1731 C1739 1.503 . S
C1732 C1731 1.410 . S
C1732 C1733 1.392 . S
C1732 C1735 1.511 . S
C1733 C1729 1.376 . S
C1733 C1732 1.392 . S
C1733 H1745 0.929 . S
C1734 C1730 1.531 . S
C1734 H1746 0.960 . S
C1734 H1747 0.962 . S
C1734 H1748 0.960 . S
C1735 C1732 1.511 . S
C1735 H1749 0.961 . S
C1735 H1750 0.961 . S
C1735 H1751 0.961 . S
C1736 C1737 1.370 . S
C1736 C1738 1.363 . S
C1736 H1752 0.931 . S
C1737 C1736 1.370 . S
C1737 C1741 1.408 . S
C1738 C1736 1.363 . S
C1738 C1739 1.370 . S
C1738 C1742 1.524 . S
C1739 C1731 1.503 . S
C1739 C1738 1.370 . S
C1739 C1740 1.403 . S
C1740 C1739 1.403 . S
C1740 C1741 1.404 . S
C1740 C1743 1.539 . S
C1741 C1737 1.408 . S
C1741 C1740 1.404 . S
C1741 H1753 0.930 . S
C1742 C1738 1.524 . S
C1742 H1754 0.956 . S
C1742 H1755 0.961 . S
C1742 H1756 0.961 . S
C1743 C1740 1.539 . S
C1743 H1757 0.958 . S
C1743 H1758 0.961 . S
C1743 H1759 0.960 . S
H1744 C1728 0.931 . S
H1745 C1733 0.929 . S
H1746 C1734 0.960 . S
H1747 C1734 0.962 . S
H1748 C1734 0.960 . S
H1749 C1735 0.961 . S
H1750 C1735 0.961 . S
H1751 C1735 0.961 . S
H1752 C1736 0.931 . S
H1753 C1741 0.930 . S
H1754 C1742 0.956 . S
H1755 C1742 0.961 . S
H1756 C1742 0.961 . S
H1757 C1743 0.958 . S
H1758 C1743 0.961 . S
H1759 C1743 0.960 . S
C1760 C1761 1.391 . S
C1760 C1762 1.394 . S
C1760 H1776 0.931 . S
C1761 C1760 1.391 . S
C1761 C1765 1.376 . S
C1762 C1760 1.394 . S
C1762 C1763 1.369 . S
C1762 C1766 1.531 . S
C1763 C1762 1.369 . S
C1763 C1764 1.410 . S
C1763 C1771 1.503 . S
C1764 C1763 1.410 . S
C1764 C1765 1.392 . S
C1764 C1767 1.511 . S
C1765 C1761 1.376 . S
C1765 C1764 1.392 . S
C1765 H1777 0.929 . S
C1766 C1762 1.531 . S
C1766 H1778 0.960 . S
C1766 H1779 0.962 . S
C1766 H1780 0.960 . S
C1767 C1764 1.511 . S
C1767 H1781 0.961 . S
C1767 H1782 0.961 . S
C1767 H1783 0.961 . S
C1768 C1769 1.370 . S
C1768 C1770 1.363 . S
C1768 H1784 0.931 . S
C1769 C1768 1.370 . S
C1769 C1773 1.408 . S
C1770 C1768 1.363 . S
C1770 C1771 1.370 . S
C1770 C1774 1.524 . S
C1771 C1763 1.503 . S
C1771 C1770 1.370 . S
C1771 C1772 1.403 . S
C1772 C1771 1.403 . S
C1772 C1773 1.404 . S
C1772 C1775 1.539 . S
C1773 C1769 1.408 . S
C1773 C1772 1.404 . S
C1773 H1785 0.930 . S
C1774 C1770 1.524 . S
C1774 H1786 0.956 . S
C1774 H1787 0.961 . S
C1774 H1788 0.961 . S
C1775 C1772 1.539 . S
C1775 H1789 0.958 . S
C1775 H1790 0.961 . S
C1775 H1791 0.960 . S
H1776 C1760 0.931 . S
H1777 C1765 0.929 . S
H1778 C1766 0.960 . S
H1779 C1766 0.962 . S
H1780 C1766 0.960 . S
H1781 C1767 0.961 . S
H1782 C1767 0.961 . S
H1783 C1767 0.961 . S
H1784 C1768 0.931 . S
H1785 C1773 0.930 . S
H1786 C1774 0.956 . S
H1787 C1774 0.961 . S
H1788 C1774 0.961 . S
H1789 C1775 0.958 . S
H1790 C1775 0.961 . S
H1791 C1775 0.960 . S
C1792 C1793 1.391 . S
C1792 C1794 1.394 . S
C1792 H1808 0.931 . S
C1793 C1792 1.391 . S
C1793 C1797 1.376 . S
C1794 C1792 1.394 . S
C1794 C1795 1.369 . S
C1794 C1798 1.531 . S
C1795 C1794 1.369 . S
C1795 C1796 1.410 . S
C1795 C1803 1.503 . S
C1796 C1795 1.410 . S
C1796 C1797 1.392 . S
C1796 C1799 1.511 . S
C1797 C1793 1.376 . S
C1797 C1796 1.392 . S
C1797 H1809 0.929 . S
C1798 C1794 1.531 . S
C1798 H1810 0.960 . S
C1798 H1811 0.962 . S
C1798 H1812 0.960 . S
C1799 C1796 1.511 . S
C1799 H1813 0.961 . S
C1799 H1814 0.961 . S
C1799 H1815 0.961 . S
C1800 C1801 1.370 . S
C1800 C1802 1.363 . S
C1800 H1816 0.931 . S
C1801 C1800 1.370 . S
C1801 C1805 1.408 . S
C1802 C1800 1.363 . S
C1802 C1803 1.370 . S
C1802 C1806 1.524 . S
C1803 C1795 1.503 . S
C1803 C1802 1.370 . S
C1803 C1804 1.403 . S
C1804 C1803 1.403 . S
C1804 C1805 1.404 . S
C1804 C1807 1.539 . S
C1805 C1801 1.408 . S
C1805 C1804 1.404 . S
C1805 H1817 0.930 . S
C1806 C1802 1.524 . S
C1806 H1818 0.956 . S
C1806 H1819 0.961 . S
C1806 H1820 0.961 . S
C1807 C1804 1.539 . S
C1807 H1821 0.958 . S
C1807 H1822 0.961 . S
C1807 H1823 0.960 . S
H1808 C1792 0.931 . S
H1809 C1797 0.929 . S
H1810 C1798 0.960 . S
H1811 C1798 0.962 . S
H1812 C1798 0.960 . S
H1813 C1799 0.961 . S
H1814 C1799 0.961 . S
H1815 C1799 0.961 . S
H1816 C1800 0.931 . S
H1817 C1805 0.930 . S
H1818 C1806 0.956 . S
H1819 C1806 0.961 . S
H1820 C1806 0.961 . S
H1821 C1807 0.958 . S
H1822 C1807 0.961 . S
H1823 C1807 0.960 . S
C1824 C1825 1.391 . S
C1824 C1826 1.394 . S
C1824 H1840 0.931 . S
C1825 C1824 1.391 . S
C1825 C1829 1.376 . S
C1826 C1824 1.394 . S
C1826 C1827 1.369 . S
C1826 C1830 1.531 . S
C1827 C1826 1.369 . S
C1827 C1828 1.410 . S
C1827 C1835 1.503 . S
C1828 C1827 1.410 . S
C1828 C1829 1.392 . S
C1828 C1831 1.511 . S
C1829 C1825 1.376 . S
C1829 C1828 1.392 . S
C1829 H1841 0.929 . S
C1830 C1826 1.531 . S
C1830 H1842 0.960 . S
C1830 H1843 0.962 . S
C1830 H1844 0.960 . S
C1831 C1828 1.511 . S
C1831 H1845 0.961 . S
C1831 H1846 0.961 . S
C1831 H1847 0.961 . S
C1832 C1833 1.370 . S
C1832 C1834 1.363 . S
C1832 H1848 0.931 . S
C1833 C1832 1.370 . S
C1833 C1837 1.408 . S
C1834 C1832 1.363 . S
C1834 C1835 1.370 . S
C1834 C1838 1.524 . S
C1835 C1827 1.503 . S
C1835 C1834 1.370 . S
C1835 C1836 1.403 . S
C1836 C1835 1.403 . S
C1836 C1837 1.404 . S
C1836 C1839 1.539 . S
C1837 C1833 1.408 . S
C1837 C1836 1.404 . S
C1837 H1849 0.930 . S
C1838 C1834 1.524 . S
C1838 H1850 0.956 . S
C1838 H1851 0.961 . S
C1838 H1852 0.961 . S
C1839 C1836 1.539 . S
C1839 H1853 0.958 . S
C1839 H1854 0.961 . S
C1839 H1855 0.960 . S
H1840 C1824 0.931 . S
H1841 C1829 0.929 . S
H1842 C1830 0.960 . S
H1843 C1830 0.962 . S
H1844 C1830 0.960 . S
H1845 C1831 0.961 . S
H1846 C1831 0.961 . S
H1847 C1831 0.961 . S
H1848 C1832 0.931 . S
H1849 C1837 0.930 . S
H1850 C1838 0.956 . S
H1851 C1838 0.961 . S
H1852 C1838 0.961 . S
H1853 C1839 0.958 . S
H1854 C1839 0.961 . S
H1855 C1839 0.960 . S
C1856 C1857 1.391 . S
C1856 C1858 1.394 . S
C1856 H1872 0.931 . S
C1857 C1856 1.391 . S
C1857 C1861 1.376 . S
C1858 C1856 1.394 . S
C1858 C1859 1.369 . S
C1858 C1862 1.531 . S
C1859 C1858 1.369 . S
C1859 C1860 1.410 . S
C1859 C1867 1.503 . S
C1860 C1859 1.410 . S
C1860 C1861 1.392 . S
C1860 C1863 1.511 . S
C1861 C1857 1.376 . S
C1861 C1860 1.392 . S
C1861 H1873 0.929 . S
C1862 C1858 1.531 . S
C1862 H1874 0.960 . S
C1862 H1875 0.962 . S
C1862 H1876 0.960 . S
C1863 C1860 1.511 . S
C1863 H1877 0.961 . S
C1863 H1878 0.961 . S
C1863 H1879 0.961 . S
C1864 C1865 1.370 . S
C1864 C1866 1.363 . S
C1864 H1880 0.931 . S
C1865 C1864 1.370 . S
C1865 C1869 1.408 . S
C1866 C1864 1.363 . S
C1866 C1867 1.370 . S
C1866 C1870 1.524 . S
C1867 C1859 1.503 . S
C1867 C1866 1.370 . S
C1867 C1868 1.403 . S
C1868 C1867 1.403 . S
C1868 C1869 1.404 . S
C1868 C1871 1.539 . S
C1869 C1865 1.408 . S
C1869 C1868 1.404 . S
C1869 H1881 0.930 . S
C1870 C1866 1.524 . S
C1870 H1882 0.956 . S
C1870 H1883 0.961 . S
C1870 H1884 0.961 . S
C1871 C1868 1.539 . S
C1871 H1885 0.958 . S
C1871 H1886 0.961 . S
C1871 H1887 0.960 . S
H1872 C1856 0.931 . S
H1873 C1861 0.929 . S
H1874 C1862 0.960 . S
H1875 C1862 0.962 . S
H1876 C1862 0.960 . S
H1877 C1863 0.961 . S
H1878 C1863 0.961 . S
H1879 C1863 0.961 . S
H1880 C1864 0.931 . S
H1881 C1869 0.930 . S
H1882 C1870 0.956 . S
H1883 C1870 0.961 . S
H1884 C1870 0.961 . S
H1885 C1871 0.958 . S
H1886 C1871 0.961 . S
H1887 C1871 0.960 . S
C1888 C1889 1.391 . S
C1888 C1890 1.394 . S
C1888 H1904 0.931 . S
C1889 C1888 1.391 . S
C1889 C1893 1.376 . S
C1890 C1888 1.394 . S
C1890 C1891 1.369 . S
C1890 C1894 1.531 . S
C1891 C1890 1.369 . S
C1891 C1892 1.410 . S
C1891 C1899 1.503 . S
C1892 C1891 1.410 . S
C1892 C1893 1.392 . S
C1892 C1895 1.511 . S
C1893 C1889 1.376 . S
C1893 C1892 1.392 . S
C1893 H1905 0.929 . S
C1894 C1890 1.531 . S
C1894 H1906 0.960 . S
C1894 H1907 0.962 . S
C1894 H1908 0.960 . S
C1895 C1892 1.511 . S
C1895 H1909 0.961 . S
C1895 H1910 0.961 . S
C1895 H1911 0.961 . S
C1896 C1897 1.370 . S
C1896 C1898 1.363 . S
C1896 H1912 0.931 . S
C1897 C1896 1.370 . S
C1897 C1901 1.408 . S
C1898 C1896 1.363 . S
C1898 C1899 1.370 . S
C1898 C1902 1.524 . S
C1899 C1891 1.503 . S
C1899 C1898 1.370 . S
C1899 C1900 1.403 . S
C1900 C1899 1.403 . S
C1900 C1901 1.404 . S
C1900 C1903 1.539 . S
C1901 C1897 1.408 . S
C1901 C1900 1.404 . S
C1901 H1913 0.930 . S
C1902 C1898 1.524 . S
C1902 H1914 0.956 . S
C1902 H1915 0.961 . S
C1902 H1916 0.961 . S
C1903 C1900 1.539 . S
C1903 H1917 0.958 . S
C1903 H1918 0.961 . S
C1903 H1919 0.960 . S
H1904 C1888 0.931 . S
H1905 C1893 0.929 . S
H1906 C1894 0.960 . S
H1907 C1894 0.962 . S
H1908 C1894 0.960 . S
H1909 C1895 0.961 . S
H1910 C1895 0.961 . S
H1911 C1895 0.961 . S
H1912 C1896 0.931 . S
H1913 C1901 0.930 . S
H1914 C1902 0.956 . S
H1915 C1902 0.961 . S
H1916 C1902 0.961 . S
H1917 C1903 0.958 . S
H1918 C1903 0.961 . S
H1919 C1903 0.960 . S
C1920 C1921 1.391 . S
C1920 C1922 1.394 . S
C1920 H1936 0.931 . S
C1921 C1920 1.391 . S
C1921 C1925 1.376 . S
C1922 C1920 1.394 . S
C1922 C1923 1.369 . S
C1922 C1926 1.531 . S
C1923 C1922 1.369 . S
C1923 C1924 1.410 . S
C1923 C1931 1.503 . S
C1924 C1923 1.410 . S
C1924 C1925 1.392 . S
C1924 C1927 1.511 . S
C1925 C1921 1.376 . S
C1925 C1924 1.392 . S
C1925 H1937 0.929 . S
C1926 C1922 1.531 . S
C1926 H1938 0.960 . S
C1926 H1939 0.962 . S
C1926 H1940 0.960 . S
C1927 C1924 1.511 . S
C1927 H1941 0.961 . S
C1927 H1942 0.961 . S
C1927 H1943 0.961 . S
C1928 C1929 1.370 . S
C1928 C1930 1.363 . S
C1928 H1944 0.931 . S
C1929 C1928 1.370 . S
C1929 C1933 1.408 . S
C1930 C1928 1.363 . S
C1930 C1931 1.370 . S
C1930 C1934 1.524 . S
C1931 C1923 1.503 . S
C1931 C1930 1.370 . S
C1931 C1932 1.403 . S
C1932 C1931 1.403 . S
C1932 C1933 1.404 . S
C1932 C1935 1.539 . S
C1933 C1929 1.408 . S
C1933 C1932 1.404 . S
C1933 H1945 0.930 . S
C1934 C1930 1.524 . S
C1934 H1946 0.956 . S
C1934 H1947 0.961 . S
C1934 H1948 0.961 . S
C1935 C1932 1.539 . S
C1935 H1949 0.958 . S
C1935 H1950 0.961 . S
C1935 H1951 0.960 . S
H1936 C1920 0.931 . S
H1937 C1925 0.929 . S
H1938 C1926 0.960 . S
H1939 C1926 0.962 . S
H1940 C1926 0.960 . S
H1941 C1927 0.961 . S
H1942 C1927 0.961 . S
H1943 C1927 0.961 . S
H1944 C1928 0.931 . S
H1945 C1933 0.930 . S
H1946 C1934 0.956 . S
H1947 C1934 0.961 . S
H1948 C1934 0.961 . S
H1949 C1935 0.958 . S
H1950 C1935 0.961 . S
H1951 C1935 0.960 . S
C1952 C1953 1.391 . S
C1952 C1954 1.394 . S
C1952 H1968 0.931 . S
C1953 C1952 1.391 . S
C1953 C1957 1.376 . S
C1954 C1952 1.394 . S
C1954 C1955 1.369 . S
C1954 C1958 1.531 . S
C1955 C1954 1.369 . S
C1955 C1956 1.410 . S
C1955 C1963 1.503 . S
C1956 C1955 1.410 . S
C1956 C1957 1.392 . S
C1956 C1959 1.511 . S
C1957 C1953 1.376 . S
C1957 C1956 1.392 . S
C1957 H1969 0.929 . S
C1958 C1954 1.531 . S
C1958 H1970 0.960 . S
C1958 H1971 0.962 . S
C1958 H1972 0.960 . S
C1959 C1956 1.511 . S
C1959 H1973 0.961 . S
C1959 H1974 0.961 . S
C1959 H1975 0.961 . S
C1960 C1961 1.370 . S
C1960 C1962 1.363 . S
C1960 H1976 0.931 . S
C1961 C1960 1.370 . S
C1961 C1965 1.408 . S
C1962 C1960 1.363 . S
C1962 C1963 1.370 . S
C1962 C1966 1.524 . S
C1963 C1955 1.503 . S
C1963 C1962 1.370 . S
C1963 C1964 1.403 . S
C1964 C1963 1.403 . S
C1964 C1965 1.404 . S
C1964 C1967 1.539 . S
C1965 C1961 1.408 . S
C1965 C1964 1.404 . S
C1965 H1977 0.930 . S
C1966 C1962 1.524 . S
C1966 H1978 0.956 . S
C1966 H1979 0.961 . S
C1966 H1980 0.961 . S
C1967 C1964 1.539 . S
C1967 H1981 0.958 . S
C1967 H1982 0.961 . S
C1967 H1983 0.960 . S
H1968 C1952 0.931 . S
H1969 C1957 0.929 . S
H1970 C1958 0.960 . S
H1971 C1958 0.962 . S
H1972 C1958 0.960 . S
H1973 C1959 0.961 . S
H1974 C1959 0.961 . S
H1975 C1959 0.961 . S
H1976 C1960 0.931 . S
H1977 C1965 0.930 . S
H1978 C1966 0.956 . S
H1979 C1966 0.961 . S
H1980 C1966 0.961 . S
H1981 C1967 0.958 . S
H1982 C1967 0.961 . S
H1983 C1967 0.960 . S
C1984 C1985 1.391 . S
C1984 C1986 1.394 . S
C1984 H2000 0.931 . S
C1985 C1984 1.391 . S
C1985 C1989 1.376 . S
C1986 C1984 1.394 . S
C1986 C1987 1.369 . S
C1986 C1990 1.531 . S
C1987 C1986 1.369 . S
C1987 C1988 1.410 . S
C1987 C1995 1.503 . S
C1988 C1987 1.410 . S
C1988 C1989 1.392 . S
C1988 C1991 1.511 . S
C1989 C1985 1.376 . S
C1989 C1988 1.392 . S
C1989 H2001 0.929 . S
C1990 C1986 1.531 . S
C1990 H2002 0.960 . S
C1990 H2003 0.962 . S
C1990 H2004 0.960 . S
C1991 C1988 1.511 . S
C1991 H2005 0.961 . S
C1991 H2006 0.961 . S
C1991 H2007 0.961 . S
C1992 C1993 1.370 . S
C1992 C1994 1.363 . S
C1992 H2008 0.931 . S
C1993 C1992 1.370 . S
C1993 C1997 1.408 . S
C1994 C1992 1.363 . S
C1994 C1995 1.370 . S
C1994 C1998 1.524 . S
C1995 C1987 1.503 . S
C1995 C1994 1.370 . S
C1995 C1996 1.403 . S
C1996 C1995 1.403 . S
C1996 C1997 1.404 . S
C1996 C1999 1.539 . S
C1997 C1993 1.408 . S
C1997 C1996 1.404 . S
C1997 H2009 0.930 . S
C1998 C1994 1.524 . S
C1998 H2010 0.956 . S
C1998 H2011 0.961 . S
C1998 H2012 0.961 . S
C1999 C1996 1.539 . S
C1999 H2013 0.958 . S
C1999 H2014 0.961 . S
C1999 H2015 0.960 . S
H2000 C1984 0.931 . S
H2001 C1989 0.929 . S
H2002 C1990 0.960 . S
H2003 C1990 0.962 . S
H2004 C1990 0.960 . S
H2005 C1991 0.961 . S
H2006 C1991 0.961 . S
H2007 C1991 0.961 . S
H2008 C1992 0.931 . S
H2009 C1997 0.930 . S
H2010 C1998 0.956 . S
H2011 C1998 0.961 . S
H2012 C1998 0.961 . S
H2013 C1999 0.958 . S
H2014 C1999 0.961 . S
H2015 C1999 0.960 . S
C2016 C2017 1.391 . S
C2016 C2018 1.394 . S
C2016 H2032 0.931 . S
C2017 C2016 1.391 . S
C2017 C2021 1.376 . S
C2018 C2016 1.394 . S
C2018 C2019 1.369 . S
C2018 C2022 1.531 . S
C2019 C2018 1.369 . S
C2019 C2020 1.410 . S
C2019 C2027 1.503 . S
C2020 C2019 1.410 . S
C2020 C2021 1.392 . S
C2020 C2023 1.511 . S
C2021 C2017 1.376 . S
C2021 C2020 1.392 . S
C2021 H2033 0.929 . S
C2022 C2018 1.531 . S
C2022 H2034 0.960 . S
C2022 H2035 0.962 . S
C2022 H2036 0.960 . S
C2023 C2020 1.511 . S
C2023 H2037 0.961 . S
C2023 H2038 0.961 . S
C2023 H2039 0.961 . S
C2024 C2025 1.370 . S
C2024 C2026 1.363 . S
C2024 H2040 0.931 . S
C2025 C2024 1.370 . S
C2025 C2029 1.408 . S
C2026 C2024 1.363 . S
C2026 C2027 1.370 . S
C2026 C2030 1.524 . S
C2027 C2019 1.503 . S
C2027 C2026 1.370 . S
C2027 C2028 1.403 . S
C2028 C2027 1.403 . S
C2028 C2029 1.404 . S
C2028 C2031 1.539 . S
C2029 C2025 1.408 . S
C2029 C2028 1.404 . S
C2029 H2041 0.930 . S
C2030 C2026 1.524 . S
C2030 H2042 0.956 . S
C2030 H2043 0.961 . S
C2030 H2044 0.961 . S
C2031 C2028 1.539 . S
C2031 H2045 0.958 . S
C2031 H2046 0.961 . S
C2031 H2047 0.960 . S
H2032 C2016 0.931 . S
H2033 C2021 0.929 . S
H2034 C2022 0.960 . S
H2035 C2022 0.962 . S
H2036 C2022 0.960 . S
H2037 C2023 0.961 . S
H2038 C2023 0.961 . S
H2039 C2023 0.961 . S
H2040 C2024 0.931 . S
H2041 C2029 0.930 . S
H2042 C2030 0.956 . S
H2043 C2030 0.961 . S
H2044 C2030 0.961 . S
H2045 C2031 0.958 . S
H2046 C2031 0.961 . S
H2047 C2031 0.960 . S
C2048 C2049 1.391 . S
C2048 C2050 1.394 . S
C2048 H2064 0.931 . S
C2049 C2048 1.391 . S
C2049 C2053 1.376 . S
C2050 C2048 1.394 . S
C2050 C2051 1.369 . S
C2050 C2054 1.531 . S
C2051 C2050 1.369 . S
C2051 C2052 1.410 . S
C2051 C2059 1.503 . S
C2052 C2051 1.410 . S
C2052 C2053 1.392 . S
C2052 C2055 1.511 . S
C2053 C2049 1.376 . S
C2053 C2052 1.392 . S
C2053 H2065 0.929 . S
C2054 C2050 1.531 . S
C2054 H2066 0.960 . S
C2054 H2067 0.962 . S
C2054 H2068 0.960 . S
C2055 C2052 1.511 . S
C2055 H2069 0.961 . S
C2055 H2070 0.961 . S
C2055 H2071 0.961 . S
C2056 C2057 1.370 . S
C2056 C2058 1.363 . S
C2056 H2072 0.931 . S
C2057 C2056 1.370 . S
C2057 C2061 1.408 . S
C2058 C2056 1.363 . S
C2058 C2059 1.370 . S
C2058 C2062 1.524 . S
C2059 C2051 1.503 . S
C2059 C2058 1.370 . S
C2059 C2060 1.403 . S
C2060 C2059 1.403 . S
C2060 C2061 1.404 . S
C2060 C2063 1.539 . S
C2061 C2057 1.408 . S
C2061 C2060 1.404 . S
C2061 H2073 0.930 . S
C2062 C2058 1.524 . S
C2062 H2074 0.956 . S
C2062 H2075 0.961 . S
C2062 H2076 0.961 . S
C2063 C2060 1.539 . S
C2063 H2077 0.958 . S
C2063 H2078 0.961 . S
C2063 H2079 0.960 . S
H2064 C2048 0.931 . S
H2065 C2053 0.929 . S
H2066 C2054 0.960 . S
H2067 C2054 0.962 . S
H2068 C2054 0.960 . S
H2069 C2055 0.961 . S
H2070 C2055 0.961 . S
H2071 C2055 0.961 . S
H2072 C2056 0.931 . S
H2073 C2061 0.930 . S
H2074 C2062 0.956 . S
H2075 C2062 0.961 . S
H2076 C2062 0.961 . S
H2077 C2063 0.958 . S
H2078 C2063 0.961 . S
H2079 C2063 0.960 . S
C2080 C2081 1.391 . S
C2080 C2082 1.394 . S
C2080 H2096 0.931 . S
C2081 C2080 1.391 . S
C2081 C2085 1.376 . S
C2082 C2080 1.394 . S
C2082 C2083 1.369 . S
C2082 C2086 1.531 . S
C2083 C2082 1.369 . S
C2083 C2084 1.410 . S
C2083 C2091 1.503 . S
C2084 C2083 1.410 . S
C2084 C2085 1.392 . S
C2084 C2087 1.511 . S
C2085 C2081 1.376 . S
C2085 C2084 1.392 . S
C2085 H2097 0.929 . S
C2086 C2082 1.531 . S
C2086 H2098 0.960 . S
C2086 H2099 0.962 . S
C2086 H2100 0.960 . S
C2087 C2084 1.511 . S
C2087 H2101 0.961 . S
C2087 H2102 0.961 . S
C2087 H2103 0.961 . S
C2088 C2089 1.370 . S
C2088 C2090 1.363 . S
C2088 H2104 0.931 . S
C2089 C2088 1.370 . S
C2089 C2093 1.408 . S
C2090 C2088 1.363 . S
C2090 C2091 1.370 . S
C2090 C2094 1.524 . S
C2091 C2083 1.503 . S
C2091 C2090 1.370 . S
C2091 C2092 1.403 . S
C2092 C2091 1.403 . S
C2092 C2093 1.404 . S
C2092 C2095 1.539 . S
C2093 C2089 1.408 . S
C2093 C2092 1.404 . S
C2093 H2105 0.930 . S
C2094 C2090 1.524 . S
C2094 H2106 0.956 . S
C2094 H2107 0.961 . S
C2094 H2108 0.961 . S
C2095 C2092 1.539 . S
C2095 H2109 0.958 . S
C2095 H2110 0.961 . S
C2095 H2111 0.960 . S
H2096 C2080 0.931 . S
H2097 C2085 0.929 . S
H2098 C2086 0.960 . S
H2099 C2086 0.962 . S
H2100 C2086 0.960 . S
H2101 C2087 0.961 . S
H2102 C2087 0.961 . S
H2103 C2087 0.961 . S
H2104 C2088 0.931 . S
H2105 C2093 0.930 . S
H2106 C2094 0.956 . S
H2107 C2094 0.961 . S
H2108 C2094 0.961 . S
H2109 C2095 0.958 . S
H2110 C2095 0.961 . S
H2111 C2095 0.960 . S
C2112 C2113 1.391 . S
C2112 C2114 1.394 . S
C2112 H2128 0.931 . S
C2113 C2112 1.391 . S
C2113 C2117 1.376 . S
C2114 C2112 1.394 . S
C2114 C2115 1.369 . S
C2114 C2118 1.531 . S
C2115 C2114 1.369 . S
C2115 C2116 1.410 . S
C2115 C2123 1.503 . S
C2116 C2115 1.410 . S
C2116 C2117 1.392 . S
C2116 C2119 1.511 . S
C2117 C2113 1.376 . S
C2117 C2116 1.392 . S
C2117 H2129 0.929 . S
C2118 C2114 1.531 . S
C2118 H2130 0.960 . S
C2118 H2131 0.962 . S
C2118 H2132 0.960 . S
C2119 C2116 1.511 . S
C2119 H2133 0.961 . S
C2119 H2134 0.961 . S
C2119 H2135 0.961 . S
C2120 C2121 1.370 . S
C2120 C2122 1.363 . S
C2120 H2136 0.931 . S
C2121 C2120 1.370 . S
C2121 C2125 1.408 . S
C2122 C2120 1.363 . S
C2122 C2123 1.370 . S
C2122 C2126 1.524 . S
C2123 C2115 1.503 . S
C2123 C2122 1.370 . S
C2123 C2124 1.403 . S
C2124 C2123 1.403 . S
C2124 C2125 1.404 . S
C2124 C2127 1.539 . S
C2125 C2121 1.408 . S
C2125 C2124 1.404 . S
C2125 H2137 0.930 . S
C2126 C2122 1.524 . S
C2126 H2138 0.956 . S
C2126 H2139 0.961 . S
C2126 H2140 0.961 . S
C2127 C2124 1.539 . S
C2127 H2141 0.958 . S
C2127 H2142 0.961 . S
C2127 H2143 0.960 . S
H2128 C2112 0.931 . S
H2129 C2117 0.929 . S
H2130 C2118 0.960 . S
H2131 C2118 0.962 . S
H2132 C2118 0.960 . S
H2133 C2119 0.961 . S
H2134 C2119 0.961 . S
H2135 C2119 0.961 . S
H2136 C2120 0.931 . S
H2137 C2125 0.930 . S
H2138 C2126 0.956 . S
H2139 C2126 0.961 . S
H2140 C2126 0.961 . S
H2141 C2127 0.958 . S
H2142 C2127 0.961 . S
H2143 C2127 0.960 . S
C2144 C2145 1.391 . S
C2144 C2146 1.394 . S
C2144 H2160 0.931 . S
C2145 C2144 1.391 . S
C2145 C2149 1.376 . S
C2146 C2144 1.394 . S
C2146 C2147 1.369 . S
C2146 C2150 1.531 . S
C2147 C2146 1.369 . S
C2147 C2148 1.410 . S
C2147 C2155 1.503 . S
C2148 C2147 1.410 . S
C2148 C2149 1.392 . S
C2148 C2151 1.511 . S
C2149 C2145 1.376 . S
C2149 C2148 1.392 . S
C2149 H2161 0.929 . S
C2150 C2146 1.531 . S
C2150 H2162 0.960 . S
C2150 H2163 0.962 . S
C2150 H2164 0.960 . S
C2151 C2148 1.511 . S
C2151 H2165 0.961 . S
C2151 H2166 0.961 . S
C2151 H2167 0.961 . S
C2152 C2153 1.370 . S
C2152 C2154 1.363 . S
C2152 H2168 0.931 . S
C2153 C2152 1.370 . S
C2153 C2157 1.408 . S
C2154 C2152 1.363 . S
C2154 C2155 1.370 . S
C2154 C2158 1.524 . S
C2155 C2147 1.503 . S
C2155 C2154 1.370 . S
C2155 C2156 1.403 . S
C2156 C2155 1.403 . S
C2156 C2157 1.404 . S
C2156 C2159 1.539 . S
C2157 C2153 1.408 . S
C2157 C2156 1.404 . S
C2157 H2169 0.930 . S
C2158 C2154 1.524 . S
C2158 H2170 0.956 . S
C2158 H2171 0.961 . S
C2158 H2172 0.961 . S
C2159 C2156 1.539 . S
C2159 H2173 0.958 . S
C2159 H2174 0.961 . S
C2159 H2175 0.960 . S
H2160 C2144 0.931 . S
H2161 C2149 0.929 . S
H2162 C2150 0.960 . S
H2163 C2150 0.962 . S
H2164 C2150 0.960 . S
H2165 C2151 0.961 . S
H2166 C2151 0.961 . S
H2167 C2151 0.961 . S
H2168 C2152 0.931 . S
H2169 C2157 0.930 . S
H2170 C2158 0.956 . S
H2171 C2158 0.961 . S
H2172 C2158 0.961 . S
H2173 C2159 0.958 . S
H2174 C2159 0.961 . S
H2175 C2159 0.960 . S
C2176 C2177 1.391 . S
C2176 C2178 1.394 . S
C2176 H2192 0.931 . S
C2177 C2176 1.391 . S
C2177 C2181 1.376 . S
C2178 C2176 1.394 . S
C2178 C2179 1.369 . S
C2178 C2182 1.531 . S
C2179 C2178 1.369 . S
C2179 C2180 1.410 . S
C2179 C2187 1.503 . S
C2180 C2179 1.410 . S
C2180 C2181 1.392 . S
C2180 C2183 1.511 . S
C2181 C2177 1.376 . S
C2181 C2180 1.392 . S
C2181 H2193 0.929 . S
C2182 C2178 1.531 . S
C2182 H2194 0.960 . S
C2182 H2195 0.962 . S
C2182 H2196 0.960 . S
C2183 C2180 1.511 . S
C2183 H2197 0.961 . S
C2183 H2198 0.961 . S
C2183 H2199 0.961 . S
C2184 C2185 1.370 . S
C2184 C2186 1.363 . S
C2184 H2200 0.931 . S
C2185 C2184 1.370 . S
C2185 C2189 1.408 . S
C2186 C2184 1.363 . S
C2186 C2187 1.370 . S
C2186 C2190 1.524 . S
C2187 C2179 1.503 . S
C2187 C2186 1.370 . S
C2187 C2188 1.403 . S
C2188 C2187 1.403 . S
C2188 C2189 1.404 . S
C2188 C2191 1.539 . S
C2189 C2185 1.408 . S
C2189 C2188 1.404 . S
C2189 H2201 0.930 . S
C2190 C2186 1.524 . S
C2190 H2202 0.956 . S
C2190 H2203 0.961 . S
C2190 H2204 0.961 . S
C2191 C2188 1.539 . S
C2191 H2205 0.958 . S
C2191 H2206 0.961 . S
C2191 H2207 0.960 . S
H2192 C2176 0.931 . S
H2193 C2181 0.929 . S
H2194 C2182 0.960 . S
H2195 C2182 0.962 . S
H2196 C2182 0.960 . S
H2197 C2183 0.961 . S
H2198 C2183 0.961 . S
H2199 C2183 0.961 . S
H2200 C2184 0.931 . S
H2201 C2189 0.930 . S
H2202 C2190 0.956 . S
H2203 C2190 0.961 . S
H2204 C2190 0.961 . S
H2205 C2191 0.958 . S
H2206 C2191 0.961 . S
H2207 C2191 0.960 . S
C2208 C2209 1.391 . S
C2208 C2210 1.394 . S
C2208 H2224 0.931 . S
C2209 C2208 1.391 . S
C2209 C2213 1.376 . S
C2210 C2208 1.394 . S
C2210 C2211 1.369 . S
C2210 C2214 1.531 . S
C2211 C2210 1.369 . S
C2211 C2212 1.410 . S
C2211 C2219 1.503 . S
C2212 C2211 1.410 . S
C2212 C2213 1.392 . S
C2212 C2215 1.511 . S
C2213 C2209 1.376 . S
C2213 C2212 1.392 . S
C2213 H2225 0.929 . S
C2214 C2210 1.531 . S
C2214 H2226 0.960 . S
C2214 H2227 0.962 . S
C2214 H2228 0.960 . S
C2215 C2212 1.511 . S
C2215 H2229 0.961 . S
C2215 H2230 0.961 . S
C2215 H2231 0.961 . S
C2216 C2217 1.370 . S
C2216 C2218 1.363 . S
C2216 H2232 0.931 . S
C2217 C2216 1.370 . S
C2217 C2221 1.408 . S
C2218 C2216 1.363 . S
C2218 C2219 1.370 . S
C2218 C2222 1.524 . S
C2219 C2211 1.503 . S
C2219 C2218 1.370 . S
C2219 C2220 1.403 . S
C2220 C2219 1.403 . S
C2220 C2221 1.404 . S
C2220 C2223 1.539 . S
C2221 C2217 1.408 . S
C2221 C2220 1.404 . S
C2221 H2233 0.930 . S
C2222 C2218 1.524 . S
C2222 H2234 0.956 . S
C2222 H2235 0.961 . S
C2222 H2236 0.961 . S
C2223 C2220 1.539 . S
C2223 H2237 0.958 . S
C2223 H2238 0.961 . S
C2223 H2239 0.960 . S
H2224 C2208 0.931 . S
H2225 C2213 0.929 . S
H2226 C2214 0.960 . S
H2227 C2214 0.962 . S
H2228 C2214 0.960 . S
H2229 C2215 0.961 . S
H2230 C2215 0.961 . S
H2231 C2215 0.961 . S
H2232 C2216 0.931 . S
H2233 C2221 0.930 . S
H2234 C2222 0.956 . S
H2235 C2222 0.961 . S
H2236 C2222 0.961 . S
H2237 C2223 0.958 . S
H2238 C2223 0.961 . S
H2239 C2223 0.960 . S
C2240 C2241 1.391 . S
C2240 C2242 1.394 . S
C2240 H2256 0.931 . S
C2241 C2240 1.391 . S
C2241 C2245 1.376 . S
C2242 C2240 1.394 . S
C2242 C2243 1.369 . S
C2242 C2246 1.531 . S
C2243 C2242 1.369 . S
C2243 C2244 1.410 . S
C2243 C2251 1.503 . S
C2244 C2243 1.410 . S
C2244 C2245 1.392 . S
C2244 C2247 1.511 . S
C2245 C2241 1.376 . S
C2245 C2244 1.392 . S
C2245 H2257 0.929 . S
C2246 C2242 1.531 . S
C2246 H2258 0.960 . S
C2246 H2259 0.962 . S
C2246 H2260 0.960 . S
C2247 C2244 1.511 . S
C2247 H2261 0.961 . S
C2247 H2262 0.961 . S
C2247 H2263 0.961 . S
C2248 C2249 1.370 . S
C2248 C2250 1.363 . S
C2248 H2264 0.931 . S
C2249 C2248 1.370 . S
C2249 C2253 1.408 . S
C2250 C2248 1.363 . S
C2250 C2251 1.370 . S
C2250 C2254 1.524 . S
C2251 C2243 1.503 . S
C2251 C2250 1.370 . S
C2251 C2252 1.403 . S
C2252 C2251 1.403 . S
C2252 C2253 1.404 . S
C2252 C2255 1.539 . S
C2253 C2249 1.408 . S
C2253 C2252 1.404 . S
C2253 H2265 0.930 . S
C2254 C2250 1.524 . S
C2254 H2266 0.956 . S
C2254 H2267 0.961 . S
C2254 H2268 0.961 . S
C2255 C2252 1.539 . S
C2255 H2269 0.958 . S
C2255 H2270 0.961 . S
C2255 H2271 0.960 . S
H2256 C2240 0.931 . S
H2257 C2245 0.929 . S
H2258 C2246 0.960 . S
H2259 C2246 0.962 . S
H2260 C2246 0.960 . S
H2261 C2247 0.961 . S
H2262 C2247 0.961 . S
H2263 C2247 0.961 . S
H2264 C2248 0.931 . S
H2265 C2253 0.930 . S
H2266 C2254 0.956 . S
H2267 C2254 0.961 . S
H2268 C2254 0.961 . S
H2269 C2255 0.958 . S
H2270 C2255 0.961 . S
H2271 C2255 0.960 . S
C2272 C2273 1.391 . S
C2272 C2274 1.394 . S
C2272 H2288 0.931 . S
C2273 C2272 1.391 . S
C2273 C2277 1.376 . S
C2274 C2272 1.394 . S
C2274 C2275 1.369 . S
C2274 C2278 1.531 . S
C2275 C2274 1.369 . S
C2275 C2276 1.410 . S
C2275 C2283 1.503 . S
C2276 C2275 1.410 . S
C2276 C2277 1.392 . S
C2276 C2279 1.511 . S
C2277 C2273 1.376 . S
C2277 C2276 1.392 . S
C2277 H2289 0.929 . S
C2278 C2274 1.531 . S
C2278 H2290 0.960 . S
C2278 H2291 0.962 . S
C2278 H2292 0.960 . S
C2279 C2276 1.511 . S
C2279 H2293 0.961 . S
C2279 H2294 0.961 . S
C2279 H2295 0.961 . S
C2280 C2281 1.370 . S
C2280 C2282 1.363 . S
C2280 H2296 0.931 . S
C2281 C2280 1.370 . S
C2281 C2285 1.408 . S
C2282 C2280 1.363 . S
C2282 C2283 1.370 . S
C2282 C2286 1.524 . S
C2283 C2275 1.503 . S
C2283 C2282 1.370 . S
C2283 C2284 1.403 . S
C2284 C2283 1.403 . S
C2284 C2285 1.404 . S
C2284 C2287 1.539 . S
C2285 C2281 1.408 . S
C2285 C2284 1.404 . S
C2285 H2297 0.930 . S
C2286 C2282 1.524 . S
C2286 H2298 0.956 . S
C2286 H2299 0.961 . S
C2286 H2300 0.961 . S
C2287 C2284 1.539 . S
C2287 H2301 0.958 . S
C2287 H2302 0.961 . S
C2287 H2303 0.960 . S
H2288 C2272 0.931 . S
H2289 C2277 0.929 . S
H2290 C2278 0.960 . S
H2291 C2278 0.962 . S
H2292 C2278 0.960 . S
H2293 C2279 0.961 . S
H2294 C2279 0.961 . S
H2295 C2279 0.961 . S
H2296 C2280 0.931 . S
H2297 C2285 0.930 . S
H2298 C2286 0.956 . S
H2299 C2286 0.961 . S
H2300 C2286 0.961 . S
H2301 C2287 0.958 . S
H2302 C2287 0.961 . S
H2303 C2287 0.960 . S
C2304 C2305 1.391 . S
C2304 C2306 1.394 . S
C2304 H2320 0.931 . S
C2305 C2304 1.391 . S
C2305 C2309 1.376 . S
C2306 C2304 1.394 . S
C2306 C2307 1.369 . S
C2306 C2310 1.531 . S
C2307 C2306 1.369 . S
C2307 C2308 1.410 . S
C2307 C2315 1.503 . S
C2308 C2307 1.410 . S
C2308 C2309 1.392 . S
C2308 C2311 1.511 . S
C2309 C2305 1.376 . S
C2309 C2308 1.392 . S
C2309 H2321 0.929 . S
C2310 C2306 1.531 . S
C2310 H2322 0.960 . S
C2310 H2323 0.962 . S
C2310 H2324 0.960 . S
C2311 C2308 1.511 . S
C2311 H2325 0.961 . S
C2311 H2326 0.961 . S
C2311 H2327 0.961 . S
C2312 C2313 1.370 . S
C2312 C2314 1.363 . S
C2312 H2328 0.931 . S
C2313 C2312 1.370 . S
C2313 C2317 1.408 . S
C2314 C2312 1.363 . S
C2314 C2315 1.370 . S
C2314 C2318 1.524 . S
C2315 C2307 1.503 . S
C2315 C2314 1.370 . S
C2315 C2316 1.403 . S
C2316 C2315 1.403 . S
C2316 C2317 1.404 . S
C2316 C2319 1.539 . S
C2317 C2313 1.408 . S
C2317 C2316 1.404 . S
C2317 H2329 0.930 . S
C2318 C2314 1.524 . S
C2318 H2330 0.956 . S
C2318 H2331 0.961 . S
C2318 H2332 0.961 . S
C2319 C2316 1.539 . S
C2319 H2333 0.958 . S
C2319 H2334 0.961 . S
C2319 H2335 0.960 . S
H2320 C2304 0.931 . S
H2321 C2309 0.929 . S
H2322 C2310 0.960 . S
H2323 C2310 0.962 . S
H2324 C2310 0.960 . S
H2325 C2311 0.961 . S
H2326 C2311 0.961 . S
H2327 C2311 0.961 . S
H2328 C2312 0.931 . S
H2329 C2317 0.930 . S
H2330 C2318 0.956 . S
H2331 C2318 0.961 . S
H2332 C2318 0.961 . S
H2333 C2319 0.958 . S
H2334 C2319 0.961 . S
H2335 C2319 0.960 . S
C2336 C2337 1.391 . S
C2336 C2338 1.394 . S
C2336 H2352 0.931 . S
C2337 C2336 1.391 . S
C2337 C2341 1.376 . S
C2338 C2336 1.394 . S
C2338 C2339 1.369 . S
C2338 C2342 1.531 . S
C2339 C2338 1.369 . S
C2339 C2340 1.410 . S
C2339 C2347 1.503 . S
C2340 C2339 1.410 . S
C2340 C2341 1.392 . S
C2340 C2343 1.511 . S
C2341 C2337 1.376 . S
C2341 C2340 1.392 . S
C2341 H2353 0.929 . S
C2342 C2338 1.531 . S
C2342 H2354 0.960 . S
C2342 H2355 0.962 . S
C2342 H2356 0.960 . S
C2343 C2340 1.511 . S
C2343 H2357 0.961 . S
C2343 H2358 0.961 . S
C2343 H2359 0.961 . S
C2344 C2345 1.370 . S
C2344 C2346 1.363 . S
C2344 H2360 0.931 . S
C2345 C2344 1.370 . S
C2345 C2349 1.408 . S
C2346 C2344 1.363 . S
C2346 C2347 1.370 . S
C2346 C2350 1.524 . S
C2347 C2339 1.503 . S
C2347 C2346 1.370 . S
C2347 C2348 1.403 . S
C2348 C2347 1.403 . S
C2348 C2349 1.404 . S
C2348 C2351 1.539 . S
C2349 C2345 1.408 . S
C2349 C2348 1.404 . S
C2349 H2361 0.930 . S
C2350 C2346 1.524 . S
C2350 H2362 0.956 . S
C2350 H2363 0.961 . S
C2350 H2364 0.961 . S
C2351 C2348 1.539 . S
C2351 H2365 0.958 . S
C2351 H2366 0.961 . S
C2351 H2367 0.960 . S
H2352 C2336 0.931 . S
H2353 C2341 0.929 . S
H2354 C2342 0.960 . S
H2355 C2342 0.962 . S
H2356 C2342 0.960 . S
H2357 C2343 0.961 . S
H2358 C2343 0.961 . S
H2359 C2343 0.961 . S
H2360 C2344 0.931 . S
H2361 C2349 0.930 . S
H2362 C2350 0.956 . S
H2363 C2350 0.961 . S
H2364 C2350 0.961 . S
H2365 C2351 0.958 . S
H2366 C2351 0.961 . S
H2367 C2351 0.960 . S
C2368 C2369 1.391 . S
C2368 C2370 1.394 . S
C2368 H2384 0.931 . S
C2369 C2368 1.391 . S
C2369 C2373 1.376 . S
C2370 C2368 1.394 . S
C2370 C2371 1.369 . S
C2370 C2374 1.531 . S
C2371 C2370 1.369 . S
C2371 C2372 1.410 . S
C2371 C2379 1.503 . S
C2372 C2371 1.410 . S
C2372 C2373 1.392 . S
C2372 C2375 1.511 . S
C2373 C2369 1.376 . S
C2373 C2372 1.392 . S
C2373 H2385 0.929 . S
C2374 C2370 1.531 . S
C2374 H2386 0.960 . S
C2374 H2387 0.962 . S
C2374 H2388 0.960 . S
C2375 C2372 1.511 . S
C2375 H2389 0.961 . S
C2375 H2390 0.961 . S
C2375 H2391 0.961 . S
C2376 C2377 1.370 . S
C2376 C2378 1.363 . S
C2376 H2392 0.931 . S
C2377 C2376 1.370 . S
C2377 C2381 1.408 . S
C2378 C2376 1.363 . S
C2378 C2379 1.370 . S
C2378 C2382 1.524 . S
C2379 C2371 1.503 . S
C2379 C2378 1.370 . S
C2379 C2380 1.403 . S
C2380 C2379 1.403 . S
C2380 C2381 1.404 . S
C2380 C2383 1.539 . S
C2381 C2377 1.408 . S
C2381 C2380 1.404 . S
C2381 H2393 0.930 . S
C2382 C2378 1.524 . S
C2382 H2394 0.956 . S
C2382 H2395 0.961 . S
C2382 H2396 0.961 . S
C2383 C2380 1.539 . S
C2383 H2397 0.958 . S
C2383 H2398 0.961 . S
C2383 H2399 0.960 . S
H2384 C2368 0.931 . S
H2385 C2373 0.929 . S
H2386 C2374 0.960 . S
H2387 C2374 0.962 . S
H2388 C2374 0.960 . S
H2389 C2375 0.961 . S
H2390 C2375 0.961 . S
H2391 C2375 0.961 . S
H2392 C2376 0.931 . S
H2393 C2381 0.930 . S
H2394 C2382 0.956 . S
H2395 C2382 0.961 . S
H2396 C2382 0.961 . S
H2397 C2383 0.958 . S
H2398 C2383 0.961 . S
H2399 C2383 0.960 . S
C873 C689 1.646 . S
C865 C74 1.630 . S
C905 C694 1.241 . S
C897 C153 1.194 . S
C937 C695 1.606 . S
C929 C231 1.559 . S
C961 C310 0.748 . S
C969 C699 0.652 . S
C993 C394 1.126 . S
C1001 C702 1.256 . S
C1033 C703 1.610 . S
C1025 C494 1.578 . S
C1057 C573 0.930 . S
C1065 C680 0.569 . S
C1089 C651 1.611 . S
C1097 C696 1.647 . S
C1129 C734 2.351 . S
C1121 C56 2.443 . S
C1153 C151 1.574 . S
C1161 C760 1.535 . S
C1193 C712 1.248 . S
C1185 C237 1.146 . S
C1225 C767 1.546 . S
C1217 C326 1.560 . S
C1249 C410 1.545 . S
C1257 C721 1.572 . S
C1289 C763 2.339 . S
C1281 C476 2.431 . S
C1313 C571 1.598 . S
C1321 C727 1.557 . S
C1345 C657 1.236 . S
C1353 C758 1.234 . S
C1377 C58 1.146 . S
C1385 C766 1.230 . S
C1409 C392 1.579 . S
C1417 C753 1.557 . S
C1449 C731 1.237 . S
C1441 C478 1.140 . S
C1481 C759 1.547 . S
C1473 C567 1.566 . S
C1505 C655 2.441 . S
C1513 C726 2.368 . S
C1537 C235 2.432 . S
C1545 C744 2.344 . S
C1577 C735 1.556 . S
C1569 C308 1.592 . S
C1601 C147 1.579 . S
C1609 C728 1.552 . S
C1633 C662 1.583 . S
C1641 C790 1.599 . S
C1665 C405 1.212 . S
C1673 C785 1.241 . S
C1705 C799 1.507 . S
C1697 C483 1.536 . S
C1737 C776 0.429 . S
C1729 C562 0.789 . S
C1761 C142 1.164 . S
C1769 C792 1.227 . S
C1801 C791 1.510 . S
C1793 C242 1.562 . S
C1825 C321 0.928 . S
C1833 C795 0.388 . S
C1857 C63 1.602 . S
C1865 C798 1.588 . S
C1889 C644 2.451 . S
C1897 C824 2.410 . S
C1929 C840 1.520 . S
C1921 C403 1.582 . S
C1953 C489 1.177 . S
C1961 C822 1.274 . S
C1985 C578 1.566 . S
C1993 C855 1.565 . S
C2025 C831 1.531 . S
C2017 C158 1.533 . S
C2049 C224 2.463 . S
C2057 C849 2.396 . S
C2089 C827 1.491 . S
C2081 C319 1.584 . S
C2121 C862 1.246 . S
C2113 C69 1.152 . S
C2153 C854 1.273 . S
C2145 C646 1.251 . S
C2177 C140 1.582 . S
C2185 C859 1.521 . S
C2209 C226 1.142 . S
C2217 C830 1.272 . S
C2249 C863 1.566 . S
C2241 C315 1.563 . S
C2273 C67 2.450 . S
C2281 C817 2.408 . S
C2305 C487 2.459 . S
C2313 C856 2.401 . S
C2345 C808 1.515 . S
C2337 C560 1.575 . S
C2377 C823 1.540 . S
C2369 C399 1.567 . S
