# Generated by pormake.
# Topology tph, (6,8)-cn, num edge types: 1
# Building blocks:
#     Node 0, Type 0, BuildingBlock: MIDCAF_clean_sbu_0, # of connection points: 6
#     Node 1, Type 0, BuildingBlock: MIDCAF_clean_sbu_0, # of connection points: 6
#     Node 2, Type 0, BuildingBlock: MIDCAF_clean_sbu_0, # of connection points: 6
#     Node 3, Type 0, BuildingBlock: MIDCAF_clean_sbu_0, # of connection points: 6
#     Node 4, Type 0, BuildingBlock: MIDCAF_clean_sbu_0, # of connection points: 6
#     Node 5, Type 0, BuildingBlock: MIDCAF_clean_sbu_0, # of connection points: 6
#     Node 6, Type 0, BuildingBlock: MIDCAF_clean_sbu_0, # of connection points: 6
#     Node 7, Type 0, BuildingBlock: MIDCAF_clean_sbu_0, # of connection points: 6
#     Node 8, Type 0, BuildingBlock: MIDCAF_clean_sbu_0, # of connection points: 6
#     Node 9, Type 0, BuildingBlock: MIDCAF_clean_sbu_0, # of connection points: 6
#     Node 10, Type 0, BuildingBlock: MIDCAF_clean_sbu_0, # of connection points: 6
#     Node 11, Type 0, BuildingBlock: MIDCAF_clean_sbu_0, # of connection points: 6
#     Node 12, Type 0, BuildingBlock: MIDCAF_clean_sbu_0, # of connection points: 6
#     Node 13, Type 0, BuildingBlock: MIDCAF_clean_sbu_0, # of connection points: 6
#     Node 14, Type 0, BuildingBlock: MIDCAF_clean_sbu_0, # of connection points: 6
#     Node 15, Type 0, BuildingBlock: MIDCAF_clean_sbu_0, # of connection points: 6
#     Node 16, Type 1, BuildingBlock: TAGTUT_clean_sbu_1, # of connection points: 8
#     Node 17, Type 1, BuildingBlock: TAGTUT_clean_sbu_1, # of connection points: 8
#     Node 18, Type 1, BuildingBlock: TAGTUT_clean_sbu_1, # of connection points: 8
#     Node 19, Type 1, BuildingBlock: TAGTUT_clean_sbu_1, # of connection points: 8
#     Node 20, Type 1, BuildingBlock: TAGTUT_clean_sbu_1, # of connection points: 8
#     Node 21, Type 1, BuildingBlock: TAGTUT_clean_sbu_1, # of connection points: 8
#     Node 22, Type 1, BuildingBlock: TAGTUT_clean_sbu_1, # of connection points: 8
#     Node 23, Type 1, BuildingBlock: TAGTUT_clean_sbu_1, # of connection points: 8
#     Node 24, Type 1, BuildingBlock: TAGTUT_clean_sbu_1, # of connection points: 8
#     Node 25, Type 1, BuildingBlock: TAGTUT_clean_sbu_1, # of connection points: 8
#     Node 26, Type 1, BuildingBlock: TAGTUT_clean_sbu_1, # of connection points: 8
#     Node 27, Type 1, BuildingBlock: TAGTUT_clean_sbu_1, # of connection points: 8
#     Edge 28, Type (0, 1), BuildingBlock: KIFKEQ_clean_linker_1, # of connection points: 2
#     Edge 29, Type (0, 1), BuildingBlock: KIFKEQ_clean_linker_1, # of connection points: 2
#     Edge 30, Type (0, 1), BuildingBlock: KIFKEQ_clean_linker_1, # of connection points: 2
#     Edge 31, Type (0, 1), BuildingBlock: KIFKEQ_clean_linker_1, # of connection points: 2
#     Edge 32, Type (0, 1), BuildingBlock: KIFKEQ_clean_linker_1, # of connection points: 2
#     Edge 33, Type (0, 1), BuildingBlock: KIFKEQ_clean_linker_1, # of connection points: 2
#     Edge 34, Type (0, 1), BuildingBlock: KIFKEQ_clean_linker_1, # of connection points: 2
#     Edge 35, Type (0, 1), BuildingBlock: KIFKEQ_clean_linker_1, # of connection points: 2
#     Edge 36, Type (0, 1), BuildingBlock: KIFKEQ_clean_linker_1, # of connection points: 2
#     Edge 37, Type (0, 1), BuildingBlock: KIFKEQ_clean_linker_1, # of connection points: 2
#     Edge 38, Type (0, 1), BuildingBlock: KIFKEQ_clean_linker_1, # of connection points: 2
#     Edge 39, Type (0, 1), BuildingBlock: KIFKEQ_clean_linker_1, # of connection points: 2
#     Edge 40, Type (0, 1), BuildingBlock: KIFKEQ_clean_linker_1, # of connection points: 2
#     Edge 41, Type (0, 1), BuildingBlock: KIFKEQ_clean_linker_1, # of connection points: 2
#     Edge 42, Type (0, 1), BuildingBlock: KIFKEQ_clean_linker_1, # of connection points: 2
#     Edge 43, Type (0, 1), BuildingBlock: KIFKEQ_clean_linker_1, # of connection points: 2
#     Edge 44, Type (0, 1), BuildingBlock: KIFKEQ_clean_linker_1, # of connection points: 2
#     Edge 45, Type (0, 1), BuildingBlock: KIFKEQ_clean_linker_1, # of connection points: 2
#     Edge 46, Type (0, 1), BuildingBlock: KIFKEQ_clean_linker_1, # of connection points: 2
#     Edge 47, Type (0, 1), BuildingBlock: KIFKEQ_clean_linker_1, # of connection points: 2
#     Edge 48, Type (0, 1), BuildingBlock: KIFKEQ_clean_linker_1, # of connection points: 2
#     Edge 49, Type (0, 1), BuildingBlock: KIFKEQ_clean_linker_1, # of connection points: 2
#     Edge 50, Type (0, 1), BuildingBlock: KIFKEQ_clean_linker_1, # of connection points: 2
#     Edge 51, Type (0, 1), BuildingBlock: KIFKEQ_clean_linker_1, # of connection points: 2
#     Edge 52, Type (0, 1), BuildingBlock: KIFKEQ_clean_linker_1, # of connection points: 2
#     Edge 53, Type (0, 1), BuildingBlock: KIFKEQ_clean_linker_1, # of connection points: 2
#     Edge 54, Type (0, 1), BuildingBlock: KIFKEQ_clean_linker_1, # of connection points: 2
#     Edge 55, Type (0, 1), BuildingBlock: KIFKEQ_clean_linker_1, # of connection points: 2
#     Edge 56, Type (0, 1), BuildingBlock: KIFKEQ_clean_linker_1, # of connection points: 2
#     Edge 57, Type (0, 1), BuildingBlock: KIFKEQ_clean_linker_1, # of connection points: 2
#     Edge 58, Type (0, 1), BuildingBlock: KIFKEQ_clean_linker_1, # of connection points: 2
#     Edge 59, Type (0, 1), BuildingBlock: KIFKEQ_clean_linker_1, # of connection points: 2
#     Edge 60, Type (0, 1), BuildingBlock: KIFKEQ_clean_linker_1, # of connection points: 2
#     Edge 61, Type (0, 1), BuildingBlock: KIFKEQ_clean_linker_1, # of connection points: 2
#     Edge 62, Type (0, 1), BuildingBlock: KIFKEQ_clean_linker_1, # of connection points: 2
#     Edge 63, Type (0, 1), BuildingBlock: KIFKEQ_clean_linker_1, # of connection points: 2
#     Edge 64, Type (0, 1), BuildingBlock: KIFKEQ_clean_linker_1, # of connection points: 2
#     Edge 65, Type (0, 1), BuildingBlock: KIFKEQ_clean_linker_1, # of connection points: 2
#     Edge 66, Type (0, 1), BuildingBlock: KIFKEQ_clean_linker_1, # of connection points: 2
#     Edge 67, Type (0, 1), BuildingBlock: KIFKEQ_clean_linker_1, # of connection points: 2
#     Edge 68, Type (0, 1), BuildingBlock: KIFKEQ_clean_linker_1, # of connection points: 2
#     Edge 69, Type (0, 1), BuildingBlock: KIFKEQ_clean_linker_1, # of connection points: 2
#     Edge 70, Type (0, 1), BuildingBlock: KIFKEQ_clean_linker_1, # of connection points: 2
#     Edge 71, Type (0, 1), BuildingBlock: KIFKEQ_clean_linker_1, # of connection points: 2
#     Edge 72, Type (0, 1), BuildingBlock: KIFKEQ_clean_linker_1, # of connection points: 2
#     Edge 73, Type (0, 1), BuildingBlock: KIFKEQ_clean_linker_1, # of connection points: 2
#     Edge 74, Type (0, 1), BuildingBlock: KIFKEQ_clean_linker_1, # of connection points: 2
#     Edge 75, Type (0, 1), BuildingBlock: KIFKEQ_clean_linker_1, # of connection points: 2
#     Edge 76, Type (0, 1), BuildingBlock: KIFKEQ_clean_linker_1, # of connection points: 2
#     Edge 77, Type (0, 1), BuildingBlock: KIFKEQ_clean_linker_1, # of connection points: 2
#     Edge 78, Type (0, 1), BuildingBlock: KIFKEQ_clean_linker_1, # of connection points: 2
#     Edge 79, Type (0, 1), BuildingBlock: KIFKEQ_clean_linker_1, # of connection points: 2
#     Edge 80, Type (0, 1), BuildingBlock: KIFKEQ_clean_linker_1, # of connection points: 2
#     Edge 81, Type (0, 1), BuildingBlock: KIFKEQ_clean_linker_1, # of connection points: 2
#     Edge 82, Type (0, 1), BuildingBlock: KIFKEQ_clean_linker_1, # of connection points: 2
#     Edge 83, Type (0, 1), BuildingBlock: KIFKEQ_clean_linker_1, # of connection points: 2
#     Edge 84, Type (0, 1), BuildingBlock: KIFKEQ_clean_linker_1, # of connection points: 2
#     Edge 85, Type (0, 1), BuildingBlock: KIFKEQ_clean_linker_1, # of connection points: 2
#     Edge 86, Type (0, 1), BuildingBlock: KIFKEQ_clean_linker_1, # of connection points: 2
#     Edge 87, Type (0, 1), BuildingBlock: KIFKEQ_clean_linker_1, # of connection points: 2
#     Edge 88, Type (0, 1), BuildingBlock: KIFKEQ_clean_linker_1, # of connection points: 2
#     Edge 89, Type (0, 1), BuildingBlock: KIFKEQ_clean_linker_1, # of connection points: 2
#     Edge 90, Type (0, 1), BuildingBlock: KIFKEQ_clean_linker_1, # of connection points: 2
#     Edge 91, Type (0, 1), BuildingBlock: KIFKEQ_clean_linker_1, # of connection points: 2
#     Edge 92, Type (0, 1), BuildingBlock: KIFKEQ_clean_linker_1, # of connection points: 2
#     Edge 93, Type (0, 1), BuildingBlock: KIFKEQ_clean_linker_1, # of connection points: 2
#     Edge 94, Type (0, 1), BuildingBlock: KIFKEQ_clean_linker_1, # of connection points: 2
#     Edge 95, Type (0, 1), BuildingBlock: KIFKEQ_clean_linker_1, # of connection points: 2
#     Edge 96, Type (0, 1), BuildingBlock: KIFKEQ_clean_linker_1, # of connection points: 2
#     Edge 97, Type (0, 1), BuildingBlock: KIFKEQ_clean_linker_1, # of connection points: 2
#     Edge 98, Type (0, 1), BuildingBlock: KIFKEQ_clean_linker_1, # of connection points: 2
#     Edge 99, Type (0, 1), BuildingBlock: KIFKEQ_clean_linker_1, # of connection points: 2
#     Edge 100, Type (0, 1), BuildingBlock: KIFKEQ_clean_linker_1, # of connection points: 2
#     Edge 101, Type (0, 1), BuildingBlock: KIFKEQ_clean_linker_1, # of connection points: 2
#     Edge 102, Type (0, 1), BuildingBlock: KIFKEQ_clean_linker_1, # of connection points: 2
#     Edge 103, Type (0, 1), BuildingBlock: KIFKEQ_clean_linker_1, # of connection points: 2
#     Edge 104, Type (0, 1), BuildingBlock: KIFKEQ_clean_linker_1, # of connection points: 2
#     Edge 105, Type (0, 1), BuildingBlock: KIFKEQ_clean_linker_1, # of connection points: 2
#     Edge 106, Type (0, 1), BuildingBlock: KIFKEQ_clean_linker_1, # of connection points: 2
#     Edge 107, Type (0, 1), BuildingBlock: KIFKEQ_clean_linker_1, # of connection points: 2
#     Edge 108, Type (0, 1), BuildingBlock: KIFKEQ_clean_linker_1, # of connection points: 2
#     Edge 109, Type (0, 1), BuildingBlock: KIFKEQ_clean_linker_1, # of connection points: 2
#     Edge 110, Type (0, 1), BuildingBlock: KIFKEQ_clean_linker_1, # of connection points: 2
#     Edge 111, Type (0, 1), BuildingBlock: KIFKEQ_clean_linker_1, # of connection points: 2
#     Edge 112, Type (0, 1), BuildingBlock: KIFKEQ_clean_linker_1, # of connection points: 2
#     Edge 113, Type (0, 1), BuildingBlock: KIFKEQ_clean_linker_1, # of connection points: 2
#     Edge 114, Type (0, 1), BuildingBlock: KIFKEQ_clean_linker_1, # of connection points: 2
#     Edge 115, Type (0, 1), BuildingBlock: KIFKEQ_clean_linker_1, # of connection points: 2
#     Edge 116, Type (0, 1), BuildingBlock: KIFKEQ_clean_linker_1, # of connection points: 2
#     Edge 117, Type (0, 1), BuildingBlock: KIFKEQ_clean_linker_1, # of connection points: 2
#     Edge 118, Type (0, 1), BuildingBlock: KIFKEQ_clean_linker_1, # of connection points: 2
#     Edge 119, Type (0, 1), BuildingBlock: KIFKEQ_clean_linker_1, # of connection points: 2
#     Edge 120, Type (0, 1), BuildingBlock: KIFKEQ_clean_linker_1, # of connection points: 2
#     Edge 121, Type (0, 1), BuildingBlock: KIFKEQ_clean_linker_1, # of connection points: 2
#     Edge 122, Type (0, 1), BuildingBlock: KIFKEQ_clean_linker_1, # of connection points: 2
#     Edge 123, Type (0, 1), BuildingBlock: KIFKEQ_clean_linker_1, # of connection points: 2
# Relax obj value: 0.175
# Max RMSD: 0.314
# Mean RMSD: 0.182
data_MOF--net-tph--node1-MIDCAF_clean_sbu_0--node2-TAGTUT_clean_sbu_1--edge1-KIFKEQ_clean_linker_1
_symmetry_space_group_name_H-M    P1
_symmetry_Int_Tables_number       1
_symmetry_cell_setting            triclinic
loop_
_symmetry_equiv_pos_as_xyz
'x, y, z'
_cell_length_a     47.304154
_cell_length_b     46.789872
_cell_length_c     46.675325
_cell_angle_alpha  89.792869
_cell_angle_beta   92.279411
_cell_angle_gamma 90.743048
loop_
_atom_site_label
_atom_site_type_symbol
_atom_site_fract_x
_atom_site_fract_y
_atom_site_fract_z
_atom_type_partial_charge
Zn0 Zn 0.22074 0.20348 0.19643 0.0
Zn1 Zn 0.13735 0.18189 0.14295 0.0
Zn2 Zn 0.18425 0.18623 0.16496 0.0
C3 C 0.12652 0.16384 0.19424 0.0
C4 C 0.15207 0.23055 0.11945 0.0
O5 O 0.22355 0.17033 0.14654 0.0
O6 O 0.24812 0.20628 0.16583 0.0
C7 C 0.19923 0.16195 0.22692 0.0
O8 O 0.15371 0.16345 0.19276 0.0
O9 O 0.11192 0.1769 0.17531 0.0
O10 O 0.13142 0.21351 0.11597 0.0
O11 O 0.17156 0.22543 0.13899 0.0
O12 O 0.22425 0.17048 0.2235 0.0
O13 O 0.17957 0.16917 0.20861 0.0
O14 O 0.17912 0.23266 0.16763 0.0
O15 O 0.20101 0.23841 0.20961 0.0
C16 C 0.18426 0.24787 0.19019 0.0
O17 O 0.19635 0.15524 0.13338 0.0
O18 O 0.15095 0.14623 0.12467 0.0
C19 C 0.24637 0.18564 0.1485 0.0
C20 C 0.17655 0.1399 0.12133 0.0
Zn21 Zn 0.39686 0.6179 0.08856 0.0
Zn22 Zn 0.46006 0.55963 0.05121 0.0
Zn23 Zn 0.42989 0.59067 0.07213 0.0
C24 C 0.4502 0.5337 0.10151 0.0
C25 C 0.49038 0.60956 0.05386 0.0
O26 O 0.4045 0.61019 0.03484 0.0
O27 O 0.39385 0.64815 0.05954 0.0
C28 C 0.37805 0.57162 0.10846 0.0
O29 O 0.42853 0.54987 0.09752 0.0
O30 O 0.47136 0.53756 0.08626 0.0
O31 O 0.4871 0.58887 0.0367 0.0
O32 O 0.47244 0.61287 0.07365 0.0
O33 O 0.36561 0.58982 0.09261 0.0
O34 O 0.4051 0.56903 0.10683 0.0
O35 O 0.45341 0.62609 0.09302 0.0
O36 O 0.41927 0.62865 0.12355 0.0
C37 C 0.444 0.63535 0.11667 0.0
O38 O 0.41147 0.58316 0.02848 0.0
O39 O 0.4314 0.54128 0.02406 0.0
C40 C 0.3959 0.63626 0.0356 0.0
C41 C 0.41302 0.55901 0.01554 0.0
Zn42 Zn 0.80204 0.28914 0.20846 0.0
Zn43 Zn 0.86241 0.36158 0.16728 0.0
Zn44 Zn 0.83441 0.32152 0.18622 0.0
C45 C 0.87561 0.36874 0.22164 0.0
C46 C 0.88628 0.30937 0.14994 0.0
O47 O 0.7891 0.33124 0.17306 0.0
O48 O 0.76513 0.30815 0.20565 0.0
C49 C 0.83472 0.30851 0.25307 0.0
O50 O 0.8624 0.34438 0.22002 0.0
O51 O 0.87467 0.38537 0.20034 0.0
O52 O 0.89162 0.33573 0.15299 0.0
O53 O 0.86348 0.29852 0.15969 0.0
O54 O 0.82022 0.28639 0.24708 0.0
O55 O 0.84103 0.32604 0.23292 0.0
O56 O 0.84529 0.27752 0.17268 0.0
O57 O 0.80564 0.25568 0.18367 0.0
C58 C 0.82951 0.25485 0.17266 0.0
O59 O 0.80665 0.34913 0.15807 0.0
O60 O 0.83701 0.37837 0.13779 0.0
C61 C 0.76537 0.32482 0.18441 0.0
C62 C 0.81209 0.36905 0.13988 0.0
Zn63 Zn 0.54751 0.95251 0.03957 0.0
Zn64 Zn 0.58765 0.89584 0.15621 0.0
Zn65 Zn 0.56924 0.92907 0.08016 0.0
C66 C 0.53869 0.88857 0.12062 0.0
C67 C 0.58345 0.95172 0.13905 0.0
O68 O 0.59915 0.91762 0.04707 0.0
O69 O 0.56997 0.93188 0.01203 0.0
C70 C 0.50361 0.92166 0.05808 0.0
O71 O 0.54008 0.8954 0.09413 0.0
O72 O 0.54877 0.90657 0.13864 0.0
O73 O 0.56604 0.93195 0.14478 0.0
O74 O 0.58332 0.96004 0.11291 0.0
O75 O 0.50702 0.94255 0.04141 0.0
O76 O 0.52494 0.91205 0.0729 0.0
O77 O 0.56941 0.97624 0.08994 0.0
O78 O 0.55727 0.99296 0.04714 0.0
C79 C 0.56468 0.99763 0.07297 0.0
O80 O 0.60701 0.90235 0.07938 0.0
O81 O 0.61562 0.88577 0.12459 0.0
C82 C 0.59276 0.92006 0.02015 0.0
C83 C 0.62195 0.88805 0.09824 0.0
Zn84 Zn 0.16764 0.86111 0.35255 0.0
Zn85 Zn 0.20685 0.80069 0.28252 0.0
Zn86 Zn 0.189 0.83165 0.32044 0.0
C87 C 0.25402 0.83056 0.30691 0.0
C88 C 0.18839 0.76242 0.32188 0.0
O89 O 0.15068 0.8496 0.29779 0.0
O90 O 0.12813 0.85845 0.33689 0.0
C91 C 0.21425 0.89116 0.34124 0.0
O92 O 0.23482 0.84256 0.32138 0.0
O93 O 0.24696 0.81175 0.28859 0.0
O94 O 0.19744 0.76286 0.29688 0.0
O95 O 0.18384 0.78601 0.33508 0.0
O96 O 0.18885 0.89694 0.34563 0.0
O97 O 0.22085 0.86524 0.33523 0.0
O98 O 0.17378 0.80464 0.35697 0.0
O99 O 0.17642 0.83954 0.38846 0.0
C100 C 0.1733 0.81323 0.38322 0.0
O101 O 0.17053 0.84416 0.27672 0.0
O102 O 0.18876 0.81374 0.24661 0.0
C103 C 0.12755 0.85567 0.31001 0.0
C104 C 0.17412 0.83549 0.25082 0.0
Zn105 Zn 0.06094 0.55358 0.94932 0.0
Zn106 Zn 0.11826 0.63477 0.92398 0.0
Zn107 Zn 0.08756 0.59345 0.93511 0.0
C108 C 0.13577 0.62405 0.9777 0.0
C109 C 0.06415 0.65481 0.91581 0.0
O110 O 0.09749 0.55578 0.9075 0.0
O111 O 0.05804 0.53153 0.91389 0.0
C112 C 0.09895 0.55756 0.99277 0.0
O113 O 0.11378 0.60769 0.97384 0.0
O114 O 0.14532 0.63791 0.95697 0.0
O115 O 0.08893 0.66424 0.92087 0.0
O116 O 0.05874 0.62788 0.91905 0.0
O117 O 0.08508 0.53733 0.98097 0.0
O118 O 0.09993 0.5821 0.98017 0.0
O119 O 0.04108 0.60596 0.9326 0.0
O120 O 0.02558 0.57088 0.95963 0.0
C121 C 0.02084 0.59386 0.94624 0.0
O122 O 0.1148 0.57993 0.89897 0.0
O123 O 0.13326 0.62176 0.88741 0.0
C124 C 0.08084 0.53446 0.90116 0.0
C125 C 0.13018 0.5954 0.88251 0.0
Zn126 Zn 0.79993 0.72841 0.29566 0.0
Zn127 Zn 0.82684 0.65935 0.37004 0.0
Zn128 Zn 0.82217 0.68921 0.32878 0.0
C129 C 0.8196 0.7065 0.39681 0.0
C130 C 0.79386 0.6285 0.33577 0.0
O131 O 0.8025 0.66488 0.29314 0.0
O132 O 0.78897 0.70083 0.26515 0.0
C133 C 0.8602 0.73687 0.3034 0.0
O134 O 0.81301 0.71099 0.37009 0.0
O135 O 0.82787 0.68217 0.40474 0.0
O136 O 0.79296 0.63552 0.36172 0.0
O137 O 0.80729 0.64474 0.31842 0.0
O138 O 0.83731 0.74824 0.29467 0.0
O139 O 0.86008 0.71237 0.3159 0.0
O140 O 0.78926 0.71329 0.35024 0.0
O141 O 0.76907 0.74301 0.31902 0.0
C142 C 0.76971 0.73131 0.34343 0.0
O143 O 0.86746 0.68648 0.33043 0.0
O144 O 0.86497 0.64751 0.35696 0.0
C145 C 0.79153 0.67431 0.2694 0.0
C146 C 0.87923 0.66437 0.34171 0.0
Zn147 Zn 0.97469 0.95816 0.93711 0.0
Zn148 Zn 0.85838 0.92271 0.87514 0.0
Zn149 Zn 0.93273 0.93994 0.91252 0.0
C150 C 0.87348 0.93107 0.93343 0.0
C151 C 0.91391 0.88396 0.87426 0.0
O152 O 0.94502 0.98191 0.89207 0.0
O153 O 0.98706 0.99 0.91263 0.0
C154 C 0.93597 0.9582 0.97929 0.0
O155 O 0.89919 0.93073 0.94313 0.0
O156 O 0.86887 0.94575 0.91092 0.0
O157 O 0.88827 0.89159 0.86942 0.0
O158 O 0.93247 0.89927 0.88878 0.0
O159 O 0.9605 0.96769 0.97492 0.0
O160 O 0.92182 0.94557 0.9587 0.0
O161 O 0.96289 0.90522 0.90464 0.0
O162 O 0.99592 0.92284 0.9346 0.0
C163 C 0.98722 0.90332 0.9178 0.0
O164 O 0.92142 0.96886 0.87718 0.0
O165 O 0.87747 0.96122 0.8861 0.0
C166 C 0.9679 0.99711 0.89456 0.0
C167 C 0.89545 0.97073 0.86894 0.0
Zn168 Zn 0.42475 0.39 0.42152 0.0
Zn169 Zn 0.46802 0.4738 0.43671 0.0
Zn170 Zn 0.43638 0.43812 0.4163 0.0
C171 C 0.50331 0.43163 0.42005 0.0
C172 C 0.43564 0.45613 0.48166 0.0
O173 O 0.41334 0.44918 0.37967 0.0
O174 O 0.3984 0.40471 0.38642 0.0
C175 C 0.45884 0.3763 0.38699 0.0
O176 O 0.47899 0.41944 0.41641 0.0
O177 O 0.50474 0.45769 0.42682 0.0
O178 O 0.45767 0.47065 0.47709 0.0
O179 O 0.42291 0.44287 0.46075 0.0
O180 O 0.45082 0.36089 0.40747 0.0
O181 O 0.45674 0.40376 0.38895 0.0
O182 O 0.39723 0.42422 0.44264 0.0
O183 O 0.40304 0.37899 0.45477 0.0
C184 C 0.38787 0.40095 0.45449 0.0
O185 O 0.43003 0.47695 0.38828 0.0
O186 O 0.45525 0.50747 0.41497 0.0
C187 C 0.39734 0.42806 0.37215 0.0
C188 C 0.43942 0.50253 0.39316 0.0
Zn189 Zn 0.35756 0.85136 0.66006 0.0
Zn190 Zn 0.30016 0.79337 0.71823 0.0
Zn191 Zn 0.33228 0.82253 0.68857 0.0
C192 C 0.32462 0.75396 0.68452 0.0
C193 C 0.33814 0.81965 0.75661 0.0
O194 O 0.30507 0.85499 0.66548 0.0
O195 O 0.33801 0.88831 0.66268 0.0
C196 C 0.35429 0.80268 0.6311 0.0
O197 O 0.33866 0.77666 0.67785 0.0
O198 O 0.30426 0.75566 0.70099 0.0
O199 O 0.31983 0.79981 0.75559 0.0
O200 O 0.34557 0.83211 0.73339 0.0
O201 O 0.35094 0.82861 0.62448 0.0
O202 O 0.35216 0.79489 0.65738 0.0
O203 O 0.36736 0.84355 0.71587 0.0
O204 O 0.39508 0.84852 0.67956 0.0
C205 C 0.39216 0.84879 0.70629 0.0
O206 O 0.28736 0.83449 0.67803 0.0
O207 O 0.26326 0.81166 0.71082 0.0
C208 C 0.31228 0.88111 0.66025 0.0
C209 C 0.26366 0.82816 0.68944 0.0
Zn210 Zn 0.04663 0.44785 0.55197 0.0
Zn211 Zn 0.10686 0.40545 0.61721 0.0
Zn212 Zn 0.07826 0.42727 0.58636 0.0
C213 C 0.0712 0.36377 0.60441 0.0
C214 C 0.09291 0.44714 0.64836 0.0
O215 O 0.09872 0.42441 0.54495 0.0
O216 O 0.06068 0.42993 0.51686 0.0
C217 C 0.01173 0.41339 0.58125 0.0
O218 O 0.05703 0.38706 0.60128 0.0
O219 O 0.09778 0.36548 0.60629 0.0
O220 O 0.09 0.42067 0.65255 0.0
O221 O 0.09146 0.45624 0.62225 0.0
O222 O 0.00944 0.4354 0.56573 0.0
O223 O 0.03647 0.40468 0.5895 0.0
O224 O 0.07595 0.47324 0.59983 0.0
O225 O 0.05731 0.48844 0.55868 0.0
C226 C 0.06813 0.49402 0.58321 0.0
O227 O 0.11723 0.41023 0.56728 0.0
O228 O 0.14503 0.4186 0.6051 0.0
C229 C 0.0867 0.42448 0.51977 0.0
C230 C 0.14212 0.40949 0.57967 0.0
Zn231 Zn 0.96244 0.05911 0.55502 0.0
Zn232 Zn 0.88785 0.11963 0.58627 0.0
Zn233 Zn 0.92853 0.09054 0.5741 0.0
C234 C 0.9367 0.15179 0.60137 0.0
C235 C 0.88644 0.07615 0.62539 0.0
O236 O 0.91457 0.07966 0.52937 0.0
O237 O 0.93808 0.03979 0.52473 0.0
C238 C 0.99052 0.11067 0.55892 0.0
O239 O 0.94909 0.12897 0.5933 0.0
O240 O 0.91022 0.15385 0.59788 0.0
O241 O 0.87317 0.0984 0.61839 0.0
O242 O 0.90781 0.06837 0.61105 0.0
O243 O 0.99022 0.08864 0.5434 0.0
O244 O 0.9702 0.11466 0.57607 0.0
O245 O 0.92902 0.04951 0.60015 0.0
O246 O 0.97191 0.03617 0.58969 0.0
C247 C 0.95031 0.03273 0.60437 0.0
O248 O 0.90011 0.10482 0.53565 0.0
O249 O 0.86226 0.12445 0.55309 0.0
C250 C 0.91902 0.05646 0.51558 0.0
C251 C 0.87604 0.11751 0.53175 0.0
Zn252 Zn 0.72418 0.70509 0.69504 0.0
Zn253 Zn 0.64192 0.67647 0.64472 0.0
Zn254 Zn 0.68738 0.68583 0.66646 0.0
C255 C 0.63098 0.66439 0.69758 0.0
C256 C 0.65361 0.72508 0.61878 0.0
O257 O 0.72682 0.67007 0.64824 0.0
O258 O 0.7502 0.70862 0.66313 0.0
C259 C 0.70541 0.66381 0.72791 0.0
O260 O 0.65817 0.66409 0.69633 0.0
O261 O 0.6164 0.67539 0.67731 0.0
O262 O 0.63577 0.70518 0.61479 0.0
O263 O 0.67246 0.72338 0.63953 0.0
O264 O 0.72993 0.67258 0.72246 0.0
O265 O 0.68446 0.67037 0.71085 0.0
O266 O 0.68124 0.73239 0.66676 0.0
O267 O 0.70344 0.73924 0.70841 0.0
C268 C 0.68635 0.7481 0.689 0.0
O269 O 0.70098 0.65361 0.63676 0.0
O270 O 0.65659 0.63923 0.63106 0.0
C271 C 0.74891 0.68644 0.64783 0.0
C272 C 0.68258 0.6351 0.62736 0.0
Zn273 Zn 0.7116 0.30742 0.79335 0.0
Zn274 Zn 0.67353 0.36178 0.86176 0.0
Zn275 Zn 0.69308 0.33316 0.82805 0.0
C276 C 0.67686 0.31062 0.88828 0.0
C277 C 0.72198 0.38991 0.85097 0.0
O278 O 0.67642 0.35031 0.78581 0.0
O279 O 0.71383 0.33686 0.7631 0.0
C280 C 0.67819 0.26895 0.81593 0.0
O281 O 0.67649 0.30391 0.86152 0.0
O282 O 0.68129 0.33636 0.89535 0.0
O283 O 0.6972 0.39647 0.85711 0.0
O284 O 0.72714 0.3641 0.84323 0.0
O285 O 0.68255 0.27666 0.79051 0.0
O286 O 0.68403 0.28675 0.83643 0.0
O287 O 0.73969 0.33983 0.83273 0.0
O288 O 0.74742 0.29783 0.81392 0.0
C289 C 0.75667 0.3192 0.82794 0.0
O290 O 0.65625 0.35362 0.80538 0.0
O291 O 0.63424 0.36227 0.84493 0.0
C292 C 0.69216 0.35211 0.76392 0.0
C293 C 0.63352 0.36049 0.81793 0.0
Zn294 Zn 0.61791 0.12798 0.42114 0.0
Zn295 Zn 0.55475 0.06068 0.46464 0.0
Zn296 Zn 0.58476 0.09209 0.43732 0.0
C297 C 0.51613 0.09401 0.43645 0.0
C298 C 0.58565 0.07956 0.50748 0.0
O299 O 0.60835 0.07146 0.40175 0.0
O300 O 0.62511 0.11139 0.38334 0.0
C301 C 0.56725 0.15434 0.41508 0.0
O302 O 0.53937 0.10773 0.43152 0.0
O303 O 0.51738 0.06975 0.44818 0.0
O304 O 0.5612 0.06858 0.50597 0.0
O305 O 0.59736 0.08807 0.48435 0.0
O306 O 0.59268 0.16144 0.42071 0.0
O307 O 0.55942 0.12802 0.41845 0.0
O308 O 0.61574 0.10698 0.47172 0.0
O309 O 0.65044 0.12827 0.44936 0.0
C310 C 0.64052 0.11887 0.47222 0.0
O311 O 0.59048 0.05019 0.41613 0.0
O312 O 0.57176 0.02541 0.45109 0.0
C313 C 0.62167 0.08466 0.38187 0.0
C314 C 0.58461 0.02599 0.42792 0.0
Zn315 Zn 0.34999 0.15297 0.85922 0.0
Zn316 Zn 0.30089 0.22329 0.78877 0.0
Zn317 Zn 0.3281 0.18556 0.82045 0.0
C318 C 0.27914 0.22976 0.84082 0.0
C319 C 0.35948 0.23448 0.78603 0.0
O320 O 0.37437 0.18797 0.81539 0.0
O321 O 0.38985 0.15962 0.85044 0.0
C322 C 0.31605 0.1183 0.82316 0.0
O323 O 0.29811 0.21054 0.84537 0.0
O324 O 0.27577 0.2408 0.81626 0.0
O325 O 0.33552 0.24381 0.778 0.0
O326 O 0.36147 0.21182 0.80162 0.0
O327 O 0.33225 0.11751 0.84525 0.0
O328 O 0.31164 0.14207 0.80982 0.0
O329 O 0.31964 0.20031 0.86449 0.0
O330 O 0.33768 0.16901 0.89532 0.0
C331 C 0.32548 0.19244 0.89055 0.0
O332 O 0.30503 0.16102 0.7863 0.0
O333 O 0.28431 0.19566 0.76118 0.0
C334 C 0.39483 0.1756 0.82937 0.0
C335 C 0.28985 0.16952 0.76444 0.0
C336 C 0.99479 0.27566 0.97761 0.0
C337 C 0.07939 0.28223 0.94794 0.0
C338 C 0.03547 0.33578 0.85508 0.0
Mg339 Mg 0.02913 0.24175 0.93454 0.0
O340 O 0.01197 0.26837 0.9097 0.0
Mg341 Mg 0.01888 0.30988 0.91866 0.0
Mg342 Mg 0.02402 0.26783 0.8696 0.0
O343 O 0.0366 0.26661 0.82959 0.0
Mg344 Mg 0.02183 0.29264 0.80314 0.0
Mg345 Mg 0.03212 0.22468 0.8214 0.0
C346 C 0.01477 0.19914 0.88303 0.0
C347 C 0.08385 0.23483 0.86885 0.0
O348 O 0.99859 0.29862 0.96273 0.0
O349 O 1.00422 0.25132 0.97027 0.0
O350 O 0.06311 0.30291 0.94077 0.0
O351 O 0.07153 0.25623 0.94455 0.0
O352 O 0.02176 0.2029 0.90964 0.0
O353 O 0.01153 0.22022 0.86552 0.0
C354 C 0.96528 0.30295 0.87282 0.0
O355 O 0.97907 0.28449 0.8587 0.0
O356 O 0.9759 0.31486 0.89559 0.0
O357 O 0.05154 0.23385 0.77691 0.0
O358 O 0.04861 0.28146 0.76932 0.0
O359 O 0.99005 0.23041 0.79626 0.0
C360 C 0.05572 0.25637 0.76165 0.0
O361 O 0.98147 0.27644 0.7869 0.0
O362 O 0.02891 0.33179 0.82835 0.0
C363 C 0.97533 0.2499 0.78375 0.0
O364 O 0.03747 0.31491 0.87312 0.0
O365 O 0.06845 0.25284 0.88138 0.0
O366 O 0.07497 0.22144 0.84621 0.0
C367 C 0.47794 0.76553 0.47368 0.0
C368 C 0.56473 0.77146 0.44883 0.0
C369 C 0.52844 0.83237 0.35911 0.0
Mg370 Mg 0.51407 0.73299 0.4309 0.0
O371 O 0.49865 0.76174 0.40694 0.0
Mg372 Mg 0.50626 0.80243 0.41882 0.0
Mg373 Mg 0.51319 0.76381 0.36779 0.0
O374 O 0.5286 0.76516 0.32908 0.0
Mg375 Mg 0.51729 0.79382 0.30367 0.0
Mg376 Mg 0.52331 0.72419 0.31762 0.0
C377 C 0.49999 0.69448 0.3758 0.0
C378 C 0.57222 0.72935 0.36842 0.0
O379 O 0.48297 0.78895 0.46003 0.0
O380 O 0.48765 0.74137 0.46611 0.0
O381 O 0.54907 0.79279 0.44235 0.0
O382 O 0.55654 0.74582 0.44367 0.0
O383 O 0.50585 0.69599 0.4029 0.0
O384 O 0.49927 0.71692 0.35973 0.0
C385 C 0.45539 0.80062 0.36967 0.0
O386 O 0.46961 0.78308 0.35488 0.0
O387 O 0.46467 0.81016 0.39403 0.0
O388 O 0.54657 0.73593 0.2754 0.0
O389 O 0.54658 0.78404 0.27171 0.0
O390 O 0.48282 0.73404 0.2916 0.0
C391 C 0.55341 0.75935 0.26267 0.0
O392 O 0.47714 0.78093 0.28425 0.0
O393 O 0.52405 0.83076 0.33179 0.0
C394 C 0.46919 0.75497 0.28035 0.0
O395 O 0.52783 0.81007 0.37537 0.0
O396 O 0.55634 0.74671 0.38121 0.0
O397 O 0.56447 0.71766 0.34449 0.0
C398 C 0.9692 0.76693 0.5218 0.0
C399 C 0.05904 0.76639 0.5467 0.0
C400 C 0.0183 0.6957 0.63505 0.0
Mg401 Mg 0.00691 0.79997 0.56607 0.0
O402 O 0.99676 0.76854 0.58838 0.0
Mg403 Mg 1.00374 0.72906 0.57413 0.0
Mg404 Mg 0.00682 0.7647 0.62968 0.0
O405 O 0.01646 0.76087 0.67121 0.0
Mg406 Mg 0.99883 0.73081 0.69012 0.0
Mg407 Mg 0.00905 0.80051 0.68505 0.0
C408 C 0.99318 0.83396 0.62367 0.0
C409 C 0.06379 0.80312 0.64478 0.0
O410 O 0.97904 0.74356 0.53263 0.0
O411 O 0.9764 0.79156 0.53175 0.0
O412 O 0.0464 0.74305 0.55363 0.0
O413 O 0.04845 0.79084 0.55147 0.0
O414 O 0.99928 0.83386 0.59704 0.0
O415 O 0.99132 0.81071 0.6385 0.0
C416 C 0.94959 0.72581 0.6151 0.0
O417 O 0.96162 0.74359 0.63286 0.0
O418 O 0.96196 0.71745 0.59286 0.0
O419 O 0.02654 0.78386 0.73076 0.0
O420 O 0.02374 0.73562 0.72835 0.0
O421 O 0.96594 0.78984 0.70171 0.0
C422 C 0.03044 0.75871 0.74172 0.0
O423 O 0.95772 0.74299 0.705 0.0
O424 O 0.00836 0.6965 0.66034 0.0
C425 C 0.95062 0.76882 0.70947 0.0
O426 O 0.02301 0.71876 0.62049 0.0
O427 O 0.05163 0.7857 0.62677 0.0
O428 O 0.05203 0.81072 0.66776 0.0
C429 C 0.98333 0.02726 0.25076 0.0
C430 C 0.95364 0.94112 0.24138 0.0
C431 C 0.86519 0.98971 0.17865 0.0
Mg432 Mg 0.9386 0.99062 0.28082 0.0
O433 O 0.91515 0.00691 0.25226 0.0
Mg434 Mg 0.92659 1.0017 0.21161 0.0
Mg435 Mg 0.87529 0.99304 0.24792 0.0
O436 O 0.8355 0.979 0.24392 0.0
Mg437 Mg 0.81078 0.99691 0.21769 0.0
Mg438 Mg 0.82432 0.97514 0.28469 0.0
C439 C 0.88415 0.9976 0.31857 0.0
C440 C 0.8739 0.92881 0.27523 0.0
O441 O 0.96963 0.02248 0.22683 0.0
O442 O 0.97469 0.01826 0.27491 0.0
O443 O 0.94759 0.95722 0.21979 0.0
O444 O 0.94915 0.94878 0.26696 0.0
O445 O 0.91091 0.99414 0.31667 0.0
O446 O 0.8674 1.00012 0.29626 0.0
C447 C 0.8825 0.05448 0.21564 0.0
O448 O 0.86649 0.03989 0.2323 0.0
O449 O 0.90531 0.04424 0.2061 0.0
O450 O 0.78199 0.95246 0.26553 0.0
O451 O 0.77999 0.96393 0.21839 0.0
O452 O 0.7983 0.01552 0.28374 0.0
C453 C 0.77032 0.95072 0.24001 0.0
O454 O 0.78832 0.03125 0.23936 0.0
O455 O 0.83904 0.99667 0.18095 0.0
C456 C 0.78546 0.03265 0.26655 0.0
O457 O 0.88128 0.98377 0.20079 0.0
O458 O 0.887 0.94734 0.26046 0.0
O459 O 0.85 0.93391 0.28587 0.0
C460 C 0.25295 0.9663 0.93779 0.0
C461 C 0.21048 0.95701 0.01841 0.0
C462 C 0.17879 0.85037 0.96792 0.0
Mg463 Mg 0.26779 0.93702 0.99599 0.0
O464 O 0.24652 0.90689 0.98089 0.0
Mg465 Mg 0.2096 0.91335 0.96016 0.0
Mg466 Mg 0.24016 0.86881 0.99833 0.0
O467 O 0.23425 0.83018 0.01491 0.0
Mg468 Mg 0.22081 0.80108 0.99077 0.0
Mg469 Mg 0.27168 0.82468 0.03606 0.0
C470 C 0.30484 0.88654 0.02355 0.0
C471 C 0.23486 0.87365 0.06749 0.0
O472 O 0.22922 0.95268 0.93747 0.0
O473 O 0.27224 0.96227 0.95744 0.0
O474 O 0.19646 0.9438 0.99803 0.0
O475 O 0.23736 0.95591 0.0216 0.0
O476 O 0.30185 0.91321 0.01764 0.0
O477 O 0.2861 0.86763 0.01597 0.0
C478 C 0.24661 0.86461 0.92975 0.0
O479 O 0.25298 0.85345 0.95426 0.0
O480 O 0.2293 0.88538 0.92671 0.0
O481 O 0.25229 0.78179 0.05389 0.0
O482 O 0.21468 0.77088 0.02439 0.0
O483 O 0.28999 0.79775 0.99961 0.0
C484 C 0.23051 0.76618 0.04678 0.0
O485 O 0.25572 0.78468 0.96775 0.0
O486 O 0.18576 0.82387 0.96926 0.0
C487 C 0.28161 0.78473 0.97665 0.0
O488 O 0.19403 0.87015 0.98047 0.0
O489 O 0.22756 0.88437 0.04294 0.0
O490 O 0.25131 0.85209 0.07002 0.0
C491 C 0.04208 0.54971 0.28485 0.0
C492 C 0.05322 0.45873 0.27502 0.0
C493 C 0.15764 0.48092 0.32947 0.0
Mg494 Mg 0.07258 0.51217 0.24155 0.0
O495 O 0.10225 0.51802 0.26843 0.0
Mg496 Mg 0.09597 0.50832 0.30953 0.0
Mg497 Mg 0.14056 0.50209 0.26395 0.0
O498 O 0.17877 0.48646 0.25942 0.0
Mg499 Mg 0.20798 0.493 0.28629 0.0
Mg500 Mg 0.18504 0.49427 0.21807 0.0
C501 C 0.1232 0.5204 0.19801 0.0
C502 C 0.13566 0.44583 0.22278 0.0
O503 O 0.05704 0.53784 0.30508 0.0
O504 O 0.04493 0.54385 0.2583 0.0
O505 O 0.06599 0.46906 0.29756 0.0
O506 O 0.05496 0.47071 0.25052 0.0
O507 O 0.09667 0.51807 0.20287 0.0
O508 O 0.14257 0.51959 0.21811 0.0
C509 C 0.14548 0.55741 0.3068 0.0
O510 O 0.15621 0.54484 0.28534 0.0
O511 O 0.12395 0.54697 0.31908 0.0
O512 O 0.22701 0.46727 0.22379 0.0
O513 O 0.23388 0.46011 0.2714 0.0
O514 O 0.21343 0.53319 0.22768 0.0
C515 C 0.24038 0.45579 0.24545 0.0
O516 O 0.23148 0.53082 0.27269 0.0
O517 O 0.1842 0.48478 0.32524 0.0
C518 C 0.23089 0.54188 0.2475 0.0
O519 O 0.13865 0.48344 0.30908 0.0
O520 O 0.12494 0.45931 0.24359 0.0
O521 O 0.15749 0.45523 0.21025 0.0
C522 C 0.753 0.53178 0.02653 0.0
C523 C 0.76412 0.56438 0.94311 0.0
C524 C 0.82419 0.65161 0.99823 0.0
Mg525 Mg 0.72271 0.57886 0.99063 0.0
O526 O 0.75067 0.60181 0.00847 0.0
Mg527 Mg 0.79118 0.59003 0.0067 0.0
Mg528 Mg 0.75483 0.64309 0.99891 0.0
O529 O 0.75941 0.68432 0.98969 0.0
Mg530 Mg 0.78529 0.70471 0.01375 0.0
Mg531 Mg 0.71908 0.69691 0.98791 0.0
C532 C 0.6851 0.63473 0.00138 0.0
C533 C 0.72661 0.65295 0.93509 0.0
O534 O 0.77617 0.54599 0.02367 0.0
O535 O 0.72895 0.54102 0.01707 0.0
O536 O 0.78479 0.57095 0.96061 0.0
O537 O 0.73839 0.56853 0.94928 0.0
O538 O 0.68703 0.608 0.9953 0.0
O539 O 0.70722 0.65087 0.00571 0.0
C540 C 0.78246 0.63037 0.06255 0.0
O541 O 0.76733 0.64752 0.04697 0.0
O542 O 0.79398 0.60835 0.05192 0.0
O543 O 0.73809 0.74192 0.97169 0.0
O544 O 0.78341 0.74285 0.98923 0.0
O545 O 0.72202 0.71634 0.03216 0.0
C546 C 0.7627 0.75423 0.97515 0.0
O547 O 0.7653 0.71871 0.05266 0.0
O548 O 0.82217 0.67698 0.00862 0.0
C549 C 0.73872 0.72346 0.05306 0.0
O550 O 0.80202 0.63636 0.99131 0.0
O551 O 0.74227 0.63711 0.95135 0.0
O552 O 0.7162 0.67634 0.94378 0.0
C553 C 0.25524 0.03724 0.52992 0.0
C554 C 0.25816 0.06374 0.44173 0.0
C555 C 0.32106 0.15515 0.48575 0.0
Mg556 Mg 0.22096 0.08038 0.49227 0.0
O557 O 0.24992 0.10499 0.50561 0.0
Mg558 Mg 0.29026 0.09362 0.50118 0.0
Mg559 Mg 0.25219 0.14594 0.49433 0.0
O560 O 0.25474 0.1868 0.48303 0.0
Mg561 Mg 0.2834 0.20957 0.50004 0.0
Mg562 Mg 0.21453 0.19894 0.4857 0.0
C563 C 0.18346 0.13649 0.50358 0.0
C564 C 0.21785 0.15341 0.43318 0.0
O565 O 0.2777 0.05117 0.52334 0.0
O566 O 0.23041 0.04507 0.52131 0.0
O567 O 0.28017 0.07166 0.4568 0.0
O568 O 0.23312 0.06751 0.45027 0.0
O569 O 0.18544 0.10955 0.49842 0.0
O570 O 0.20545 0.15316 0.50564 0.0
C571 C 0.28527 0.13607 0.556 0.0
O572 O 0.26853 0.15237 0.5412 0.0
O573 O 0.29665 0.11426 0.54492 0.0
O574 O 0.22988 0.24409 0.46656 0.0
O575 O 0.27757 0.24524 0.47227 0.0
O576 O 0.22256 0.22072 0.52892 0.0
C577 C 0.25425 0.25643 0.4635 0.0
O578 O 0.26863 0.22715 0.53975 0.0
O579 O 0.31961 0.18142 0.49372 0.0
C580 C 0.2426 0.23116 0.54497 0.0
O581 O 0.29866 0.13925 0.48218 0.0
O582 O 0.23534 0.13841 0.44833 0.0
O583 O 0.20762 0.17676 0.44235 0.0
C584 C 0.48466 0.5312 0.75251 0.0
C585 C 0.45819 0.44401 0.74636 0.0
C586 C 0.36759 0.48752 0.68148 0.0
Mg587 Mg 0.44112 0.49424 0.7838 0.0
O588 O 0.41719 0.50786 0.75432 0.0
Mg589 Mg 0.42888 0.50243 0.71392 0.0
Mg590 Mg 0.37753 0.49346 0.7505 0.0
O591 O 0.33756 0.47955 0.74706 0.0
Mg592 Mg 0.31371 0.49836 0.7206 0.0
Mg593 Mg 0.32702 0.47928 0.78833 0.0
C594 C 0.38669 0.50111 0.82076 0.0
C595 C 0.37452 0.43028 0.7796 0.0
O596 O 0.4713 0.52517 0.72866 0.0
O597 O 0.47612 0.52276 0.77687 0.0
O598 O 0.45156 0.45887 0.72397 0.0
O599 O 0.45321 0.45255 0.77154 0.0
O600 O 0.41359 0.49825 0.81966 0.0
O601 O 0.37047 0.50238 0.79807 0.0
C602 C 0.38312 0.55395 0.71653 0.0
O603 O 0.36818 0.53925 0.73397 0.0
O604 O 0.40614 0.54442 0.70674 0.0
O605 O 0.28309 0.45914 0.77192 0.0
O606 O 0.27987 0.46862 0.72435 0.0
O607 O 0.30359 0.52106 0.78546 0.0
C608 C 0.26999 0.45767 0.74713 0.0
O609 O 0.29519 0.536 0.74056 0.0
O610 O 0.34152 0.49489 0.6836 0.0
C611 C 0.29238 0.53866 0.76764 0.0
O612 O 0.38385 0.4827 0.70377 0.0
O613 O 0.38829 0.44812 0.7645 0.0
O614 O 0.35098 0.43676 0.7905 0.0
C615 C 0.77267 0.45897 0.44337 0.0
C616 C 0.73431 0.45465 0.52627 0.0
C617 C 0.69161 0.35091 0.47847 0.0
Mg618 Mg 0.789 0.42985 0.50137 0.0
O619 O 0.76408 0.4011 0.48915 0.0
Mg620 Mg 0.72719 0.40976 0.46927 0.0
Mg621 Mg 0.75544 0.36334 0.50657 0.0
O622 O 0.74688 0.32466 0.52184 0.0
Mg623 Mg 0.73088 0.29789 0.4963 0.0
Mg624 Mg 0.7844 0.31571 0.54097 0.0
C625 C 0.8221 0.37587 0.5285 0.0
C626 C 0.75058 0.36457 0.57567 0.0
O627 O 0.74847 0.44663 0.44518 0.0
O628 O 0.79306 0.45427 0.46169 0.0
O629 O 0.71849 0.44147 0.50723 0.0
O630 O 0.76121 0.45213 0.52792 0.0
O631 O 0.82164 0.4026 0.52185 0.0
O632 O 0.80113 0.35883 0.52281 0.0
C633 C 0.75807 0.35783 0.43745 0.0
O634 O 0.7656 0.34752 0.46202 0.0
O635 O 0.74193 0.37957 0.43493 0.0
O636 O 0.76324 0.2729 0.55663 0.0
O637 O 0.72401 0.26601 0.52818 0.0
O638 O 0.79998 0.2899 0.50277 0.0
C639 C 0.74039 0.25898 0.5495 0.0
O640 O 0.76435 0.28096 0.47107 0.0
O641 O 0.69608 0.32383 0.47799 0.0
C642 C 0.79034 0.27861 0.47935 0.0
O643 O 0.70949 0.36852 0.4906 0.0
O644 O 0.74511 0.37846 0.5523 0.0
O645 O 0.76535 0.34173 0.57621 0.0
C646 C 0.54842 0.05101 0.78382 0.0
C647 C 0.55911 0.9589 0.775 0.0
C648 C 0.66128 0.97913 0.83341 0.0
Mg649 Mg 0.58001 0.0122 0.74235 0.0
O650 O 0.60831 0.01753 0.77078 0.0
Mg651 Mg 0.60033 0.00835 0.81158 0.0
Mg652 Mg 0.64646 1.00143 0.76746 0.0
O653 O 0.68476 0.98564 0.76389 0.0
Mg654 Mg 0.71336 0.99068 0.79183 0.0
Mg655 Mg 0.69227 0.99539 0.72311 0.0
C656 C 0.63177 0.02388 0.70165 0.0
C657 C 0.64273 0.94665 0.72438 0.0
O658 O 0.56162 0.03902 0.80527 0.0
O659 O 0.55275 0.04437 0.75777 0.0
O660 O 0.57061 0.96932 0.79815 0.0
O661 O 0.56179 0.97083 0.75059 0.0
O662 O 0.60501 0.02129 0.70489 0.0
O663 O 0.65006 0.02055 0.72245 0.0
C664 C 0.6505 0.05704 0.81006 0.0
O665 O 0.66159 0.04371 0.78933 0.0
O666 O 0.62856 0.04717 0.82213 0.0
O667 O 0.73412 0.96898 0.72891 0.0
O668 O 0.74002 0.95837 0.7759 0.0
O669 O 0.72027 0.03389 0.7353 0.0
C670 C 0.74756 0.95649 0.7499 0.0
O671 O 0.73752 0.02873 0.78037 0.0
O672 O 0.68806 0.98251 0.83005 0.0
C673 C 0.73777 0.04095 0.75576 0.0
O674 O 0.64278 0.98201 0.81255 0.0
O675 O 0.63135 0.95927 0.74536 0.0
O676 O 0.66496 0.9566 0.71294 0.0
C677 C 0.46488 0.26368 0.02135 0.0
C678 C 0.55563 0.26481 0.04498 0.0
C679 C 0.51548 0.19657 0.13478 0.0
Mg680 Mg 0.5032 0.29917 0.06323 0.0
O681 O 0.49476 0.26853 0.08721 0.0
Mg682 Mg 0.50107 0.22852 0.07407 0.0
Mg683 Mg 0.50561 0.26542 0.12846 0.0
O684 O 0.51586 0.26182 0.16989 0.0
Mg685 Mg 0.49632 0.23286 0.18899 0.0
Mg686 Mg 0.51024 0.30201 0.18299 0.0
C687 C 0.49258 0.33467 0.12095 0.0
C688 C 0.56425 0.30222 0.14197 0.0
O689 O 0.47619 0.24117 0.03244 0.0
O690 O 0.47113 0.28887 0.03051 0.0
O691 O 0.54352 0.24164 0.05317 0.0
O692 O 0.54448 0.28931 0.04816 0.0
O693 O 0.49693 0.33381 0.09391 0.0
O694 O 0.49172 0.31187 0.13655 0.0
C695 C 0.44723 0.22746 0.11531 0.0
O696 O 0.45971 0.24547 0.13259 0.0
O697 O 0.4594 0.21814 0.09335 0.0
O698 O 0.52791 0.28518 0.22884 0.0
O699 O 0.52109 0.23723 0.2274 0.0
O700 O 0.46739 0.29319 0.19979 0.0
C701 C 0.52998 0.25995 0.24019 0.0
O702 O 0.45537 0.24727 0.20292 0.0
O703 O 0.50524 0.19753 0.15994 0.0
C704 C 0.45017 0.27365 0.20707 0.0
O705 O 0.5205 0.21946 0.12019 0.0
O706 O 0.55114 0.28506 0.12434 0.0
O707 O 0.55319 0.31046 0.16508 0.0
H708 H 0.02326 0.35372 0.63407 0.0
H709 H 0.09139 0.31141 0.59316 0.0
H710 H 0.01721 0.31196 0.66503 0.0
H711 H 0.08589 0.27027 0.62466 0.0
H712 H 0.10064 0.27624 0.73285 0.0
H713 H 0.09788 0.29058 0.68246 0.0
H714 H 0.01613 0.24914 0.67201 0.0
H715 H 0.0198 0.2332 0.72212 0.0
C716 C 0.03576 0.33492 0.63049 0.0
C717 C 0.05828 0.33603 0.61185 0.0
C718 C 0.03237 0.31102 0.64825 0.0
C719 C 0.05151 0.28828 0.64744 0.0
C720 C 0.07099 0.2876 0.62567 0.0
C721 C 0.0741 0.3112 0.60772 0.0
C722 C 0.0831 0.26851 0.71925 0.0
C723 C 0.06067 0.25335 0.73107 0.0
C724 C 0.08133 0.27688 0.69052 0.0
C725 C 0.05669 0.27103 0.67358 0.0
C726 C 0.03536 0.25366 0.68465 0.0
C727 C 0.03764 0.24438 0.71316 0.0
H728 H 0.61283 0.76423 0.60982 0.0
H729 H 0.69239 0.73583 0.57907 0.0
H730 H 0.60212 0.78739 0.56399 0.0
H731 H 0.68139 0.75834 0.53252 0.0
H732 H 0.60803 0.73432 0.45986 0.0
H733 H 0.64117 0.736 0.50103 0.0
H734 H 0.61252 0.8204 0.52169 0.0
H735 H 0.57949 0.81896 0.48022 0.0
C736 C 0.62872 0.7644 0.59371 0.0
C737 C 0.65344 0.7485 0.59786 0.0
C738 C 0.62262 0.7776 0.56739 0.0
C739 C 0.64079 0.77434 0.54453 0.0
C740 C 0.66703 0.76113 0.54977 0.0
C741 C 0.67342 0.74847 0.57643 0.0
C742 C 0.60954 0.7537 0.4725 0.0
C743 C 0.59057 0.77614 0.46726 0.0
C744 C 0.62875 0.75478 0.496 0.0
C745 C 0.62906 0.77818 0.51485 0.0
C746 C 0.61252 0.80204 0.50762 0.0
C747 C 0.59359 0.80114 0.48385 0.0
H748 H 0.97757 0.14159 0.64278 0.0
H749 H 0.92508 0.20821 0.60621 0.0
H750 H 0.98356 0.16901 0.68712 0.0
H751 H 0.93067 0.2354 0.65056 0.0
H752 H 0.96518 0.28113 0.73477 0.0
H753 H 0.96057 0.26076 0.68685 0.0
H754 H 0.94757 0.17705 0.72359 0.0
H755 H 0.95237 0.19729 0.77154 0.0
C756 C 0.9684 0.16265 0.64371 0.0
C757 C 0.95064 0.17262 0.62116 0.0
C758 C 0.97124 0.17807 0.66934 0.0
C759 C 0.9566 0.20381 0.6727 0.0
C760 C 0.94188 0.21548 0.64883 0.0
C761 C 0.93893 0.20001 0.62329 0.0
C762 C 0.96007 0.25858 0.73273 0.0
C763 C 0.95961 0.24078 0.75715 0.0
C764 C 0.95789 0.24683 0.70516 0.0
C765 C 0.95501 0.21713 0.70149 0.0
C766 C 0.95103 0.19989 0.72577 0.0
C767 C 0.9531 0.2116 0.75326 0.0
H768 H 0.39755 0.76502 0.63687 0.0
H769 H 0.33603 0.79941 0.57579 0.0
H770 H 0.42651 0.74996 0.59741 0.0
H771 H 0.36448 0.78393 0.53647 0.0
H772 H 0.46744 0.72275 0.51236 0.0
H773 H 0.43306 0.72286 0.5502 0.0
H774 H 0.41046 0.80927 0.52704 0.0
H775 H 0.44445 0.80929 0.48941 0.0
C776 C 0.38953 0.76794 0.61501 0.0
C777 C 0.36489 0.78367 0.60919 0.0
C778 C 0.40615 0.75951 0.59244 0.0
C779 C 0.39807 0.76664 0.56402 0.0
C780 C 0.3715 0.77887 0.55826 0.0
C781 C 0.3551 0.78745 0.5807 0.0
C782 C 0.45514 0.74179 0.5154 0.0
C783 C 0.45864 0.76603 0.49781 0.0
C784 C 0.43549 0.74177 0.53701 0.0
C785 C 0.41876 0.76582 0.54112 0.0
C786 C 0.4226 0.79014 0.52386 0.0
C787 C 0.44234 0.79029 0.50252 0.0
H788 H 0.05861 0.71228 0.92191 0.0
H789 H 0.02884 0.64066 0.87057 0.0
H790 H 0.04782 0.74471 0.88184 0.0
H791 H 0.0184 0.6731 0.8305 0.0
H792 H 0.07011 0.72354 0.76408 0.0
H793 H 0.06898 0.70123 0.81131 0.0
H794 H 1.0045 0.75977 0.83555 0.0
H795 H 1.00531 0.78207 0.78766 0.0
C796 C 0.04827 0.70367 0.90262 0.0
C797 C 0.04494 0.67387 0.89919 0.0
C798 C 0.0423 0.72226 0.87966 0.0
C799 C 0.03295 0.71122 0.85304 0.0
C800 C 0.02587 0.68199 0.85087 0.0
C801 C 0.03151 0.66345 0.87394 0.0
C802 C 0.0566 0.7325 0.77988 0.0
C803 C 0.03809 0.75474 0.77235 0.0
C804 C 0.05555 0.71939 0.80667 0.0
C805 C 0.03609 0.72833 0.8266 0.0
C806 C 0.01946 0.75239 0.82032 0.0
C807 C 0.02036 0.76548 0.7932 0.0
H808 H 0.8429 0.7579 0.38377 0.0
H809 H 0.81223 0.70788 0.45416 0.0
H810 H 0.8778 0.78099 0.41622 0.0
H811 H 0.84657 0.73147 0.48669 0.0
H812 H 0.94272 0.71851 0.50195 0.0
H813 H 0.89818 0.71484 0.47473 0.0
H814 H 0.89528 0.80664 0.46656 0.0
H815 H 0.94026 0.81068 0.49448 0.0
C816 C 0.84224 0.75331 0.40651 0.0
C817 C 0.82562 0.73048 0.41642 0.0
C818 C 0.86241 0.76642 0.42505 0.0
C819 C 0.86545 0.75708 0.4536 0.0
C820 C 0.84497 0.73845 0.46453 0.0
C821 C 0.8251 0.72519 0.44599 0.0
C822 C 0.93294 0.73802 0.49422 0.0
C823 C 0.94507 0.76491 0.50066 0.0
C824 C 0.90716 0.73591 0.47896 0.0
C825 C 0.89292 0.76054 0.46947 0.0
C826 C 0.90566 0.78742 0.47421 0.0
C827 C 0.93148 0.78962 0.48993 0.0
H828 H 0.88565 0.8333 0.87005 0.0
H829 H 0.95915 0.87841 0.8405 0.0
H830 H 0.88907 0.79861 0.83113 0.0
H831 H 0.96216 0.84396 0.80122 0.0
H832 H 0.94522 0.7392 0.75938 0.0
H833 H 0.93733 0.76243 0.80527 0.0
H834 H 0.91003 0.83848 0.76042 0.0
H835 H 0.91745 0.81534 0.71456 0.0
C836 C 0.90323 0.83506 0.85593 0.0
C837 C 0.92227 0.85842 0.85834 0.0
C838 C 0.905 0.81536 0.8336 0.0
C839 C 0.92559 0.81898 0.81313 0.0
C840 C 0.94603 0.84092 0.81683 0.0
C841 C 0.94456 0.86036 0.83947 0.0
C842 C 0.93583 0.7602 0.75918 0.0
C843 C 0.93207 0.77549 0.73325 0.0
C844 C 0.93189 0.77366 0.78552 0.0
C845 C 0.92393 0.80242 0.78616 0.0
C846 C 0.91669 0.81641 0.76033 0.0
C847 C 0.92039 0.80296 0.7341 0.0
H848 H 0.19614 0.81421 0.43721 0.0
H849 H 0.13211 0.77141 0.38422 0.0
H850 H 0.17452 0.79581 0.48013 0.0
H851 H 0.10969 0.75357 0.42735 0.0
H852 H 0.07461 0.72311 0.51118 0.0
H853 H 0.10823 0.72648 0.47269 0.0
H854 H 0.13187 0.8117 0.50065 0.0
H855 H 0.09874 0.8082 0.53894 0.0
C856 C 0.17788 0.80007 0.43476 0.0
C857 C 0.16572 0.79438 0.40738 0.0
C858 C 0.16528 0.78978 0.45939 0.0
C859 C 0.13987 0.77386 0.45734 0.0
C860 C 0.12924 0.76576 0.42983 0.0
C861 C 0.14213 0.77587 0.40503 0.0
C862 C 0.08766 0.7422 0.50963 0.0
C863 C 0.08389 0.76544 0.52814 0.0
C864 C 0.1067 0.74425 0.48733 0.0
C865 C 0.1227 0.76942 0.48331 0.0
C866 C 0.12024 0.79182 0.50312 0.0
C867 C 0.10109 0.78989 0.52513 0.0
H868 H 0.65755 0.03962 0.38906 0.0
H869 H 0.6246 0.09906 0.32578 0.0
H870 H 0.69683 0.02912 0.35817 0.0
H871 H 0.66359 0.08854 0.29486 0.0
H872 H 0.73348 0.0442 0.24084 0.0
H873 H 0.68979 0.05269 0.26592 0.0
H874 H 0.73818 0.06054 0.34588 0.0
H875 H 0.7816 0.0524 0.32096 0.0
C876 C 0.65795 0.04942 0.36801 0.0
C877 C 0.63786 0.07 0.35978 0.0
C878 C 0.68077 0.04389 0.35052 0.0
C879 C 0.68376 0.05854 0.32429 0.0
C880 C 0.66208 0.07697 0.31488 0.0
C881 C 0.63956 0.08278 0.33252 0.0
C882 C 0.73492 0.04895 0.26355 0.0
C883 C 0.76118 0.04776 0.2788 0.0
C884 C 0.70979 0.05331 0.27804 0.0
C885 C 0.71036 0.05635 0.30809 0.0
C886 C 0.73682 0.05735 0.32289 0.0
C887 C 0.76182 0.05326 0.30847 0.0
H888 H 0.25973 0.11245 0.8288 0.0
H889 H 0.33453 0.06597 0.80925 0.0
H890 H 0.2402 0.06986 0.85134 0.0
H891 H 0.31488 0.02311 0.83109 0.0
H892 H 0.21541 0.98659 0.89637 0.0
H893 H 0.22544 0.01834 0.85613 0.0
H894 H 0.31351 0.02174 0.8842 0.0
H895 H 0.30366 0.99019 0.92411 0.0
C896 C 0.27105 0.09254 0.82737 0.0
C897 C 0.29876 0.09252 0.81769 0.0
C898 C 0.26003 0.06817 0.84069 0.0
C899 C 0.27656 0.0435 0.844 0.0
C900 C 0.30204 0.04211 0.8296 0.0
C901 C 0.31306 0.06648 0.81651 0.0
C902 C 0.23695 0.99405 0.89387 0.0
C903 C 0.25872 0.98598 0.91363 0.0
C904 C 0.24265 0.01214 0.87075 0.0
C905 C 0.27031 0.02218 0.86667 0.0
C906 C 0.29206 0.01384 0.88627 0.0
C907 C 0.28634 0.99606 0.90947 0.0
H908 H 0.34747 0.40003 0.36387 0.0
H909 H 0.40419 0.45849 0.32247 0.0
H910 H 0.31533 0.40118 0.32252 0.0
H911 H 0.37288 0.45821 0.27949 0.0
H912 H 0.28762 0.48503 0.23421 0.0
H913 H 0.33152 0.47541 0.26056 0.0
H914 H 0.30187 0.38923 0.27722 0.0
H915 H 0.25658 0.40063 0.25365 0.0
C916 C 0.35321 0.41288 0.34559 0.0
C917 C 0.37807 0.42952 0.34655 0.0
C918 C 0.33497 0.41316 0.32142 0.0
C919 C 0.34137 0.4295 0.29702 0.0
C920 C 0.36682 0.44563 0.2978 0.0
C921 C 0.3848 0.4459 0.32245 0.0
C922 C 0.29111 0.4636 0.24233 0.0
C923 C 0.26858 0.44382 0.24254 0.0
C924 C 0.31637 0.45803 0.2578 0.0
C925 C 0.31985 0.43199 0.27271 0.0
C926 C 0.29937 0.41019 0.26763 0.0
C927 C 0.27364 0.41629 0.25326 0.0
H928 H 0.72836 0.43491 0.81559 0.0
H929 H 0.76168 0.39738 0.89403 0.0
H930 H 0.74835 0.48132 0.82992 0.0
H931 H 0.78118 0.44382 0.90895 0.0
H932 H 0.80957 0.5298 0.93577 0.0
H933 H 0.81003 0.48738 0.9055 0.0
H934 H 0.72968 0.51162 0.86607 0.0
H935 H 0.7294 0.55395 0.89599 0.0
C936 C 0.74124 0.43635 0.83527 0.0
C937 C 0.74378 0.41259 0.85359 0.0
C938 C 0.75232 0.46303 0.84372 0.0
C939 C 0.76584 0.46655 0.87089 0.0
C940 C 0.77106 0.44199 0.88781 0.0
C941 C 0.76004 0.41524 0.87924 0.0
C942 C 0.79256 0.52671 0.91982 0.0
C943 C 0.7692 0.54511 0.91863 0.0
C944 C 0.79269 0.50215 0.90267 0.0
C945 C 0.76966 0.49568 0.88369 0.0
C946 C 0.74787 0.51581 0.88032 0.0
C947 C 0.74763 0.54017 0.89759 0.0
H948 H 0.58906 0.94529 0.19668 0.0
H949 H 0.63791 0.95953 0.12165 0.0
H950 H 0.63264 0.93868 0.22575 0.0
H951 H 0.68149 0.95311 0.15071 0.0
H952 H 0.75295 0.9135 0.1986 0.0
H953 H 0.70571 0.91307 0.17567 0.0
H954 H 0.67562 0.96454 0.24448 0.0
H955 H 0.72295 0.96453 0.26755 0.0
C956 C 0.60918 0.94756 0.18654 0.0
C957 C 0.61006 0.95307 0.15691 0.0
C958 C 0.63411 0.94363 0.20317 0.0
C959 C 0.66052 0.94484 0.19049 0.0
C960 C 0.66143 0.95142 0.16103 0.0
C961 C 0.6365 0.95561 0.14444 0.0
C962 C 0.73586 0.92338 0.20959 0.0
C963 C 0.74157 0.93882 0.23498 0.0
C964 C 0.70896 0.92374 0.19612 0.0
C965 C 0.68716 0.93959 0.20775 0.0
C966 C 0.692 0.95225 0.23487 0.0
C967 C 0.71902 0.95183 0.2484 0.0
H968 H 0.13924 0.11278 0.08504 0.0
H969 H 0.22513 0.10754 0.11965 0.0
H970 H 0.14347 0.06678 0.06252 0.0
H971 H 0.22982 0.06125 0.09576 0.0
H972 H 0.22122 0.96747 0.07486 0.0
H973 H 0.21306 0.01239 0.09938 0.0
H974 H 0.16448 0.04223 0.02504 0.0
H975 H 0.1721 0.99694 0.00099 0.0
C976 C 0.1593 0.10195 0.08754 0.0
C977 C 0.18184 0.11384 0.10441 0.0
C978 C 0.16172 0.07549 0.07439 0.0
C979 C 0.18685 0.06005 0.07744 0.0
C980 C 0.2099 0.07232 0.09344 0.0
C981 C 0.20743 0.09901 0.1068 0.0
C982 C 0.20789 0.98328 0.06425 0.0
C983 C 0.19708 0.97866 0.03611 0.0
C984 C 0.20374 0.00926 0.07804 0.0
C985 C 0.18878 0.0313 0.06395 0.0
C986 C 0.1761 0.02577 0.03662 0.0
C987 C 0.18011 0.99964 0.0229 0.0
H988 H 0.32475 0.55041 0.1051 0.0
H989 H 0.39376 0.569 0.16556 0.0
H990 H 0.29212 0.54803 0.14404 0.0
H991 H 0.36078 0.56704 0.20499 0.0
H992 H 0.28601 0.53316 0.26475 0.0
H993 H 0.32568 0.53772 0.23302 0.0
H994 H 0.27346 0.58664 0.17345 0.0
H995 H 0.23373 0.58147 0.20474 0.0
C996 C 0.33309 0.55301 0.12691 0.0
C997 C 0.36181 0.55973 0.13227 0.0
C998 C 0.3143 0.55227 0.14921 0.0
C999 C 0.32363 0.55846 0.17753 0.0
C1000 C 0.35286 0.56253 0.18337 0.0
C1001 C 0.37182 0.56321 0.16086 0.0
C1002 C 0.28338 0.54615 0.24559 0.0
C1003 C 0.2565 0.55663 0.2371 0.0
C1004 C 0.3061 0.5484 0.22717 0.0
C1005 C 0.30238 0.56149 0.20015 0.0
C1006 C 0.27671 0.57545 0.19365 0.0
C1007 C 0.25406 0.57304 0.21188 0.0
H1008 H 0.8067 0.36566 0.08252 0.0
H1009 H 0.76974 0.40355 0.15603 0.0
H1010 H 0.78393 0.40121 0.05135 0.0
H1011 H 0.74739 0.43987 0.1249 0.0
H1012 H 0.71156 0.5024 0.0548 0.0
H1013 H 0.71637 0.4563 0.08003 0.0
H1014 H 0.80301 0.45173 0.05472 0.0
H1015 H 0.7984 0.4972 0.03011 0.0
C1016 C 0.79258 0.38085 0.09176 0.0
C1017 C 0.78994 0.38211 0.12151 0.0
C1018 C 0.77975 0.40133 0.07401 0.0
C1019 C 0.76452 0.42369 0.08583 0.0
C1020 C 0.75902 0.42286 0.11523 0.0
C1021 C 0.77172 0.40209 0.13303 0.0
C1022 C 0.73149 0.49129 0.05448 0.0
C1023 C 0.75467 0.50347 0.04065 0.0
C1024 C 0.73421 0.46501 0.06888 0.0
C1025 C 0.75992 0.45028 0.06899 0.0
C1026 C 0.78274 0.46226 0.05455 0.0
C1027 C 0.7802 0.48853 0.04071 0.0
H1028 H 0.4145 0.68901 0.02445 0.0
H1029 H 0.35875 0.62287 0.99042 0.0
H1030 H 0.39013 0.72422 0.99579 0.0
H1031 H 0.33493 0.65803 0.95926 0.0
H1032 H 0.26857 0.72955 0.96548 0.0
H1033 H 0.30152 0.69064 0.96616 0.0
H1034 H 0.37103 0.75151 0.96168 0.0
H1035 H 0.33759 0.79049 0.9644 0.0
C1036 C 0.39774 0.68185 0.00954 0.0
C1037 C 0.38824 0.65337 0.00994 0.0
C1038 C 0.38361 0.70219 0.99273 0.0
C1039 C 0.35956 0.69459 0.9755 0.0
C1040 C 0.35254 0.66516 0.97303 0.0
C1041 C 0.36656 0.64474 0.9904 0.0
C1042 C 0.29087 0.73457 0.9637 0.0
C1043 C 0.30059 0.76301 0.96542 0.0
C1044 C 0.31004 0.71206 0.96404 0.0
C1045 C 0.33946 0.7175 0.9653 0.0
C1046 C 0.34875 0.74617 0.96241 0.0
C1047 C 0.32959 0.7687 0.96337 0.0
H1048 H 0.34282 0.41139 0.41868 0.0
H1049 H 0.36576 0.37687 0.50197 0.0
H1050 H 0.29876 0.38328 0.41787 0.0
H1051 H 0.3213 0.34972 0.50177 0.0
H1052 H 0.27715 0.27984 0.4162 0.0
H1053 H 0.30084 0.32655 0.41537 0.0
H1054 H 0.26528 0.34744 0.49624 0.0
H1055 H 0.24066 0.30107 0.49636 0.0
C1056 C 0.3376 0.39928 0.43763 0.0
C1057 C 0.35767 0.39646 0.46049 0.0
C1058 C 0.31252 0.38287 0.43698 0.0
C1059 C 0.30665 0.36407 0.45963 0.0
C1060 C 0.32506 0.36413 0.48407 0.0
C1061 C 0.35048 0.37988 0.48433 0.0
C1062 C 0.27284 0.29518 0.43275 0.0
C1063 C 0.25657 0.28703 0.456 0.0
C1064 C 0.28664 0.32188 0.43247 0.0
C1065 C 0.28512 0.34064 0.45587 0.0
C1066 C 0.26681 0.33352 0.47788 0.0
C1067 C 0.25239 0.30711 0.47775 0.0
H1068 H 0.58349 0.37372 0.84044 0.0
H1069 H 0.62211 0.36112 0.75923 0.0
H1070 H 0.53943 0.38526 0.816 0.0
H1071 H 0.57688 0.3722 0.73416 0.0
H1072 H 0.50369 0.44034 0.71268 0.0
H1073 H 0.54621 0.41329 0.7252 0.0
H1074 H 0.50044 0.36657 0.78897 0.0
H1075 H 0.45917 0.39544 0.77834 0.0
C1076 C 0.58254 0.37306 0.81723 0.0
C1077 C 0.60654 0.36656 0.80182 0.0
C1078 C 0.55694 0.37933 0.8031 0.0
C1079 C 0.55425 0.37914 0.773 0.0
C1080 C 0.57816 0.37244 0.75737 0.0
C1081 C 0.60406 0.3661 0.77169 0.0
C1082 C 0.50239 0.4234 0.72847 0.0
C1083 C 0.47806 0.42005 0.74457 0.0
C1084 C 0.52686 0.40791 0.73574 0.0
C1085 C 0.52706 0.38846 0.75883 0.0
C1086 C 0.50134 0.38211 0.77176 0.0
C1087 C 0.47734 0.39821 0.7652 0.0
H1088 H 0.62097 0.15 0.51534 0.0
H1089 H 0.69368 0.10335 0.49012 0.0
H1090 H 0.64947 0.1751 0.55116 0.0
H1091 H 0.72231 0.12574 0.52843 0.0
H1092 H 0.76846 0.2117 0.53725 0.0
H1093 H 0.74583 0.16579 0.53221 0.0
H1094 H 0.67752 0.19465 0.58383 0.0
H1095 H 0.69937 0.24197 0.58561 0.0
C1096 C 0.643 0.14423 0.51855 0.0
C1097 C 0.65548 0.12566 0.49953 0.0
C1098 C 0.65966 0.15856 0.53941 0.0
C1099 C 0.68917 0.15406 0.54209 0.0
C1100 C 0.70031 0.13159 0.52601 0.0
C1101 C 0.68385 0.11825 0.50426 0.0
C1102 C 0.74921 0.20775 0.54858 0.0
C1103 C 0.7353 0.23038 0.56122 0.0
C1104 C 0.7358 0.18112 0.5456 0.0
C1105 C 0.70836 0.17651 0.55578 0.0
C1106 C 0.69748 0.19769 0.57367 0.0
C1107 C 0.71037 0.22475 0.57553 0.0
H1108 H 0.91443 0.63184 0.37453 0.0
H1109 H 0.90915 0.67799 0.29423 0.0
H1110 H 0.9573 0.60912 0.36025 0.0
H1111 H 0.9529 0.65538 0.27988 0.0
H1112 H 0.99825 0.57149 0.25173 0.0
H1113 H 0.96333 0.60611 0.2659 0.0
H1114 H 1.00606 0.61367 0.34914 0.0
H1115 H 0.04033 0.57851 0.33537 0.0
C1116 C 0.92292 0.63768 0.35406 0.0
C1117 C 0.90833 0.65639 0.33534 0.0
C1118 C 0.94765 0.62477 0.34592 0.0
C1119 C 0.9584 0.63022 0.31879 0.0
C1120 C 0.94487 0.65048 0.30077 0.0
C1121 C 0.92005 0.66363 0.30907 0.0
C1122 C 1.00025 0.58068 0.27299 0.0
C1123 C 0.02168 0.57179 0.29263 0.0
C1124 C 0.98044 0.60077 0.281 0.0
C1125 C 0.98183 0.61253 0.30872 0.0
C1126 C 1.00411 0.60464 0.32781 0.0
C1127 C 0.0237 0.5844 0.31993 0.0
H1128 H 0.19725 0.40398 0.59902 0.0
H1129 H 0.13445 0.36702 0.53994 0.0
H1130 H 0.22561 0.36081 0.59598 0.0
H1131 H 0.16268 0.32398 0.53721 0.0
H1132 H 0.19298 0.23989 0.57105 0.0
H1133 H 0.17212 0.28666 0.57758 0.0
H1134 H 0.25226 0.32735 0.56132 0.0
H1135 H 0.27323 0.28048 0.55454 0.0
C1136 C 0.18993 0.38709 0.58464 0.0
C1137 C 0.16338 0.38891 0.56996 0.0
C1138 C 0.2061 0.36226 0.58313 0.0
C1139 C 0.19589 0.3387 0.56713 0.0
C1140 C 0.17069 0.34156 0.55036 0.0
C1141 C 0.15473 0.36647 0.55155 0.0
C1142 C 0.20652 0.2587 0.5701 0.0
C1143 C 0.23472 0.25634 0.56201 0.0
C1144 C 0.19441 0.28553 0.57328 0.0
C1145 C 0.21032 0.31063 0.5689 0.0
C1146 C 0.23942 0.30834 0.56447 0.0
C1147 C 0.25155 0.28139 0.56107 0.0
H1148 H 0.58155 0.67715 0.72186 0.0
H1149 H 0.64649 0.61325 0.72047 0.0
H1150 H 0.54979 0.64277 0.7441 0.0
H1151 H 0.61421 0.5785 0.74176 0.0
H1152 H 0.5234 0.53299 0.71101 0.0
H1153 H 0.56452 0.56499 0.70835 0.0
H1154 H 0.54471 0.60257 0.78928 0.0
H1155 H 0.50398 0.56983 0.79254 0.0
C1156 C 0.58936 0.65608 0.72738 0.0
C1157 C 0.61627 0.64768 0.71929 0.0
C1158 C 0.57123 0.63646 0.74008 0.0
C1159 C 0.57959 0.60805 0.74425 0.0
C1160 C 0.60743 0.60036 0.73869 0.0
C1161 C 0.62587 0.62025 0.72668 0.0
C1162 C 0.52809 0.54777 0.72844 0.0
C1163 C 0.51049 0.54911 0.75187 0.0
C1164 C 0.55172 0.5658 0.72707 0.0
C1165 C 0.55778 0.58591 0.74879 0.0
C1166 C 0.54055 0.58695 0.77251 0.0
C1167 C 0.5173 0.56834 0.77427 0.0
H1168 H 0.44667 0.8459 0.69194 0.0
H1169 H 0.39519 0.87026 0.76192 0.0
H1170 H 0.48764 0.86716 0.71549 0.0
H1171 H 0.43739 0.89062 0.78703 0.0
H1172 H 0.50661 0.96313 0.79487 0.0
H1173 H 0.46668 0.9308 0.78492 0.0
H1174 H 0.52344 0.86998 0.74884 0.0
H1175 H 0.56271 0.90375 0.75674 0.0
C1176 C 0.44422 0.85527 0.71288 0.0
C1177 C 0.41741 0.85677 0.72475 0.0
C1178 C 0.46809 0.86727 0.72675 0.0
C1179 C 0.46628 0.88097 0.75337 0.0
C1180 C 0.43972 0.88079 0.76632 0.0
C1181 C 0.41549 0.86882 0.75213 0.0
C1182 C 0.51052 0.94245 0.78552 0.0
C1183 C 0.53766 0.93583 0.7766 0.0
C1184 C 0.48758 0.92377 0.77982 0.0
C1185 C 0.49135 0.89778 0.76537 0.0
C1186 C 0.51925 0.89015 0.75903 0.0
C1187 C 0.54199 0.90924 0.76396 0.0
H1188 H 0.5035 0.8619 0.15621 0.0
H1189 H 0.57565 0.84782 0.1047 0.0
H1190 H 0.51151 0.81613 0.18036 0.0
H1191 H 0.58502 0.80278 0.13046 0.0
H1192 H 0.52483 0.7342 0.21843 0.0
H1193 H 0.52125 0.75648 0.17105 0.0
H1194 H 0.59565 0.8076 0.19198 0.0
H1195 H 0.59847 0.78629 0.23976 0.0
C1196 C 0.52049 0.84849 0.14945 0.0
C1197 C 0.53901 0.85824 0.1288 0.0
C1198 C 0.52507 0.82232 0.16316 0.0
C1199 C 0.54884 0.80598 0.15713 0.0
C1200 C 0.5664 0.81487 0.13517 0.0
C1201 C 0.56113 0.84063 0.12064 0.0
C1202 C 0.54157 0.7487 0.2122 0.0
C1203 C 0.56183 0.75875 0.23274 0.0
C1204 C 0.53933 0.76162 0.18515 0.0
C1205 C 0.55795 0.78395 0.17815 0.0
C1206 C 0.58115 0.79029 0.19686 0.0
C1207 C 0.58291 0.77797 0.22417 0.0
H1208 H 0.1955 0.24319 0.08528 0.0
H1209 H 0.11236 0.27026 0.10721 0.0
H1210 H 0.19033 0.26856 0.03936 0.0
H1211 H 0.10742 0.2962 0.06214 0.0
H1212 H 0.1242 0.24703 0.95891 0.0
H1213 H 0.15448 0.24818 0.00214 0.0
H1214 H 0.12209 0.331 0.02324 0.0
H1215 H 0.0919 0.33005 0.97968 0.0
C1216 C 0.17688 0.25602 0.08101 0.0
C1217 C 0.15422 0.25475 0.09951 0.0
C1218 C 0.17386 0.27038 0.0547 0.0
C1219 C 0.14835 0.28407 0.04699 0.0
C1220 C 0.12742 0.28605 0.06745 0.0
C1221 C 0.13017 0.27116 0.09331 0.0
C1222 C 0.12451 0.26611 0.97201 0.0
C1223 C 0.10501 0.28802 0.96635 0.0
C1224 C 0.14205 0.26688 0.99678 0.0
C1225 C 0.14012 0.2894 0.01645 0.0
C1226 C 0.12372 0.31322 0.00861 0.0
C1227 C 0.10644 0.31264 0.98359 0.0
H1228 H 0.44478 0.69198 0.10658 0.0
H1229 H 0.47132 0.62744 0.16761 0.0
H1230 H 0.444 0.7273 0.14508 0.0
H1231 H 0.4714 0.66263 0.206 0.0
H1232 H 0.43241 0.71031 0.27235 0.0
H1233 H 0.42969 0.68365 0.22761 0.0
H1234 H 0.46875 0.75465 0.18418 0.0
H1235 H 0.47077 0.78155 0.22873 0.0
C1236 C 0.45218 0.68586 0.12798 0.0
C1237 C 0.45843 0.65719 0.13425 0.0
C1238 C 0.45117 0.7059 0.15009 0.0
C1239 C 0.45643 0.69737 0.17866 0.0
C1240 C 0.46616 0.66953 0.18427 0.0
C1241 C 0.46698 0.64956 0.16224 0.0
C1242 C 0.43883 0.72085 0.25289 0.0
C1243 C 0.45235 0.7477 0.25418 0.0
C1244 C 0.43803 0.70532 0.22743 0.0
C1245 C 0.45056 0.71653 0.20289 0.0
C1246 C 0.45959 0.74522 0.20295 0.0
C1247 C 0.4602 0.76085 0.22845 0.0
H1248 H 0.94271 0.31618 0.14669 0.0
H1249 H 0.8716 0.26776 0.11078 0.0
H1250 H 0.97038 0.30403 0.1057 0.0
H1251 H 0.89951 0.25553 0.06941 0.0
H1252 H 0.97009 0.23126 0.00587 0.0
H1253 H 0.94569 0.23277 0.05099 0.0
H1254 H 0.9598 0.32402 0.05506 0.0
H1255 H 0.98407 0.32269 0.00989 0.0
C1256 C 0.93336 0.30207 0.13046 0.0
C1257 C 0.90493 0.29326 0.13158 0.0
C1258 C 0.9491 0.29538 0.1069 0.0
C1259 C 0.93674 0.27964 0.08408 0.0
C1260 C 0.9094 0.26793 0.0867 0.0
C1261 C 0.89352 0.2747 0.11043 0.0
C1262 C 0.968 0.25168 0.01639 0.0
C1263 C 0.97914 0.2769 0.00437 0.0
C1264 C 0.95396 0.25246 0.04214 0.0
C1265 C 0.95121 0.27839 0.05661 0.0
C1266 C 0.96208 0.30363 0.04451 0.0
C1267 C 0.97576 0.30293 0.01856 0.0
H1268 H 0.52985 0.14269 0.37065 0.0
H1269 H 0.56819 0.21243 0.41911 0.0
H1270 H 0.51973 0.17538 0.33063 0.0
H1271 H 0.5576 0.24513 0.37916 0.0
H1272 H 0.50895 0.28432 0.288 0.0
H1273 H 0.51082 0.26224 0.33612 0.0
H1274 H 0.57063 0.20093 0.3073 0.0
H1275 H 0.56926 0.22307 0.2599 0.0
C1276 C 0.53468 0.16524 0.37342 0.0
C1277 C 0.55009 0.17491 0.39789 0.0
C1278 C 0.52916 0.18389 0.35039 0.0
C1279 C 0.53837 0.2126 0.35177 0.0
C1280 C 0.55035 0.22311 0.37761 0.0
C1281 C 0.55625 0.20438 0.40049 0.0
C1282 C 0.52363 0.26713 0.2925 0.0
C1283 C 0.53934 0.25564 0.27039 0.0
C1284 C 0.52423 0.25418 0.31978 0.0
C1285 C 0.54027 0.22948 0.32497 0.0
C1286 C 0.55771 0.21964 0.3036 0.0
C1287 C 0.55733 0.23263 0.27667 0.0
H1288 H 0.33728 0.24917 0.88577 0.0
H1289 H 0.31935 0.18327 0.94762 0.0
H1290 H 0.36762 0.27375 0.92139 0.0
H1291 H 0.34897 0.20836 0.9835 0.0
H1292 H 0.44581 0.2136 0.99785 0.0
H1293 H 0.40154 0.20466 0.97161 0.0
H1294 H 0.383 0.29473 0.97223 0.0
H1295 H 0.42781 0.30401 0.99925 0.0
C1296 C 0.33819 0.24094 0.90752 0.0
C1297 C 0.32694 0.21373 0.91372 0.0
C1298 C 0.35579 0.25501 0.9279 0.0
C1299 C 0.36156 0.24219 0.95468 0.0
C1300 C 0.34547 0.21817 0.96261 0.0
C1301 C 0.32823 0.20396 0.94219 0.0
C1302 C 0.43255 0.23168 0.99238 0.0
C1303 C 0.4404 0.25953 0.00091 0.0
C1304 C 0.4069 0.22646 0.97768 0.0
C1305 C 0.38838 0.2489 0.97083 0.0
C1306 C 0.39669 0.27702 0.97781 0.0
C1307 C 0.42245 0.28229 0.99295 0.0
H1308 H 0.43527 0.39664 0.33756 0.0
H1309 H 0.48064 0.32448 0.37269 0.0
H1310 H 0.4206 0.36924 0.29611 0.0
H1311 H 0.46935 0.2976 0.32919 0.0
H1312 H 0.44038 0.24543 0.25717 0.0
H1313 H 0.44004 0.2712 0.3021 0.0
H1314 H 0.42401 0.3496 0.25475 0.0
H1315 H 0.4213 0.32308 0.21093 0.0
C1316 C 0.44329 0.37519 0.33574 0.0
C1317 C 0.4593 0.36284 0.3584 0.0
C1318 C 0.43474 0.35913 0.31167 0.0
C1319 C 0.44314 0.33048 0.30871 0.0
C1320 C 0.46116 0.31897 0.33064 0.0
C1321 C 0.46855 0.33469 0.3554 0.0
C1322 C 0.43485 0.26783 0.25664 0.0
C1323 C 0.43191 0.28242 0.23037 0.0
C1324 C 0.43589 0.28306 0.2825 0.0
C1325 C 0.43427 0.31321 0.28254 0.0
C1326 C 0.42617 0.32671 0.25644 0.0
C1327 C 0.42409 0.31128 0.23086 0.0
H1328 H 0.69899 0.30744 0.9424 0.0
H1329 H 0.63398 0.27056 0.8861 0.0
H1330 H 0.67516 0.28868 0.98391 0.0
H1331 H 0.60955 0.25217 0.92784 0.0
H1332 H 0.57124 0.22105 0.01028 0.0
H1333 H 0.60651 0.22327 0.97322 0.0
H1334 H 0.63141 0.30795 0.00177 0.0
H1335 H 0.59638 0.30573 0.03846 0.0
C1336 C 0.68008 0.29439 0.93889 0.0
C1337 C 0.66817 0.29069 0.91106 0.0
C1338 C 0.66627 0.28388 0.9627 0.0
C1339 C 0.64004 0.26962 0.95928 0.0
C1340 C 0.62971 0.26312 0.93126 0.0
C1341 C 0.64374 0.27352 0.90729 0.0
C1342 C 0.58487 0.23977 0.00915 0.0
C1343 C 0.58097 0.26328 0.02728 0.0
C1344 C 0.60486 0.24114 0.98773 0.0
C1345 C 0.62173 0.26581 0.98438 0.0
C1346 C 0.61905 0.28846 0.00384 0.0
C1347 C 0.59885 0.28727 0.02488 0.0
H1348 H 0.13821 0.61751 0.82962 0.0
H1349 H 0.16289 0.54759 0.88522 0.0
H1350 H 0.17686 0.60676 0.79817 0.0
H1351 H 0.2021 0.53723 0.85405 0.0
H1352 H 0.28985 0.56015 0.82143 0.0
H1353 H 0.24678 0.57101 0.84594 0.0
H1354 H 0.19863 0.56572 0.7657 0.0
H1355 H 0.24186 0.55399 0.741 0.0
C1356 C 0.15138 0.59923 0.83458 0.0
C1357 C 0.14745 0.58327 0.8598 0.0
C1358 C 0.17359 0.59321 0.81665 0.0
C1359 C 0.1928 0.57153 0.82392 0.0
C1360 C 0.18778 0.55433 0.84813 0.0
C1361 C 0.16513 0.55996 0.86575 0.0
C1362 C 0.27028 0.56219 0.80875 0.0
C1363 C 0.26943 0.55617 0.77918 0.0
C1364 C 0.2455 0.5679 0.82293 0.0
C1365 C 0.21922 0.56832 0.80789 0.0
C1366 C 0.21859 0.56518 0.77788 0.0
C1367 C 0.24346 0.559 0.76365 0.0
H1368 H 0.7429 0.60258 0.33975 0.0
H1369 H 0.83008 0.58705 0.32227 0.0
H1370 H 0.73829 0.55463 0.35922 0.0
H1371 H 0.82574 0.53879 0.34196 0.0
H1372 H 0.73602 0.46823 0.39768 0.0
H1373 H 0.74032 0.50267 0.35898 0.0
H1374 H 0.82234 0.52902 0.39409 0.0
H1375 H 0.8183 0.49412 0.4328 0.0
C1376 C 0.76052 0.58815 0.33825 0.0
C1377 C 0.78681 0.59849 0.32959 0.0
C1378 C 0.75806 0.56071 0.34982 0.0
C1379 C 0.78195 0.54319 0.35299 0.0
C1380 C 0.80714 0.55204 0.34038 0.0
C1381 C 0.80945 0.57945 0.32845 0.0
C1382 C 0.75515 0.48115 0.39713 0.0
C1383 C 0.77664 0.4787 0.41877 0.0
C1384 C 0.7576 0.50084 0.37478 0.0
C1385 C 0.7816 0.51866 0.3734 0.0
C1386 C 0.80372 0.51533 0.39424 0.0
C1387 C 0.80128 0.49554 0.41667 0.0
H1388 H 0.90735 0.92923 0.83065 0.0
H1389 H 0.86452 0.00931 0.83902 0.0
H1390 H 0.87974 0.91945 0.78602 0.0
H1391 H 0.83825 1.00053 0.79385 0.0
H1392 H 0.774 0.91048 0.77395 0.0
H1393 H 0.82336 0.91235 0.79067 0.0
H1394 H 0.83716 0.9866 0.73777 0.0
H1395 H 0.7878 0.98443 0.72058 0.0
C1396 C 0.89306 0.94533 0.82215 0.0
C1397 C 0.88773 0.9699 0.83818 0.0
C1398 C 0.87741 0.93979 0.79662 0.0
C1399 C 0.85695 0.95925 0.78645 0.0
C1400 C 0.8542 0.98535 0.80089 0.0
C1401 C 0.86914 0.99041 0.8268 0.0
C1402 C 0.78804 0.92595 0.76435 0.0
C1403 C 0.77699 0.9476 0.74644 0.0
C1404 C 0.81637 0.9271 0.77398 0.0
C1405 C 0.83377 0.95016 0.7661 0.0
C1406 C 0.82399 0.96886 0.7444 0.0
C1407 C 0.79575 0.96739 0.73435 0.0
H1408 H 0.21739 0.93925 0.30956 0.0
H1409 H 0.25529 0.8971 0.38345 0.0
H1410 H 0.23661 0.98507 0.32654 0.0
H1411 H 0.27406 0.94298 0.40104 0.0
H1412 H 0.30278 0.02908 0.43097 0.0
H1413 H 0.3018 0.9877 0.39908 0.0
H1414 H 0.21902 0.01203 0.36582 0.0
H1415 H 0.22013 0.05325 0.39736 0.0
C1416 C 0.23102 0.93965 0.32878 0.0
C1417 C 0.23513 0.91464 0.34505 0.0
C1418 C 0.24168 0.96596 0.33876 0.0
C1419 C 0.25634 0.96792 0.36551 0.0
C1420 C 0.263 0.94236 0.38028 0.0
C1421 C 0.25244 0.91594 0.37014 0.0
C1422 C 0.28483 0.02618 0.41607 0.0
C1423 C 0.26138 0.04436 0.41693 0.0
C1424 C 0.28415 1.00223 0.39801 0.0
C1425 C 0.2602 0.99619 0.38011 0.0
C1426 C 0.23795 0.01596 0.3791 0.0
C1427 C 0.2385 0.03965 0.39732 0.0
H1428 H 0.13514 0.48631 0.64176 0.0
H1429 H 0.08896 0.44111 0.70614 0.0
H1430 H 0.17647 0.48877 0.67464 0.0
H1431 H 0.13043 0.44381 0.73907 0.0
H1432 H 0.24411 0.42419 0.70682 0.0
H1433 H 0.19542 0.43034 0.6889 0.0
H1434 H 0.17876 0.48333 0.76155 0.0
H1435 H 0.22791 0.47734 0.77957 0.0
C1436 C 0.13313 0.47856 0.6635 0.0
C1437 C 0.10905 0.4629 0.67113 0.0
C1438 C 0.15695 0.47963 0.6822 0.0
C1439 C 0.15667 0.46576 0.70896 0.0
C1440 C 0.13113 0.45445 0.71845 0.0
C1441 C 0.10735 0.45318 0.69966 0.0
C1442 C 0.2297 0.43593 0.71974 0.0
C1443 C 0.23971 0.45006 0.74467 0.0
C1444 C 0.20204 0.43992 0.70922 0.0
C1445 C 0.18381 0.45795 0.72351 0.0
C1446 C 0.19265 0.46956 0.75011 0.0
C1447 C 0.22055 0.46562 0.76067 0.0
H1448 H 0.64643 0.59496 0.60479 0.0
H1449 H 0.73576 0.61417 0.61712 0.0
H1450 H 0.65711 0.54993 0.58295 0.0
H1451 H 0.74653 0.56866 0.59417 0.0
H1452 H 0.7557 0.47353 0.57783 0.0
H1453 H 0.74337 0.5171 0.60259 0.0
H1454 H 0.67512 0.53087 0.53996 0.0
H1455 H 0.68722 0.48696 0.51546 0.0
C1456 C 0.66849 0.58972 0.60266 0.0
C1457 C 0.6903 0.60833 0.61279 0.0
C1458 C 0.67454 0.5638 0.58991 0.0
C1459 C 0.70261 0.55561 0.58672 0.0
C1460 C 0.7246 0.5742 0.59663 0.0
C1461 C 0.7185 0.60036 0.60956 0.0
C1462 C 0.73769 0.48558 0.56968 0.0
C1463 C 0.72245 0.47685 0.54463 0.0
C1464 C 0.73089 0.51076 0.58366 0.0
C1465 C 0.70867 0.52782 0.57296 0.0
C1466 C 0.69236 0.5182 0.54886 0.0
C1467 C 0.69912 0.49291 0.53489 0.0
H1468 H 0.90117 0.0853 0.68125 0.0
H1469 H 0.8453 0.03583 0.62506 0.0
H1470 H 0.86783 0.07982 0.71995 0.0
H1471 H 0.81193 0.03059 0.66345 0.0
H1472 H 0.74414 0.07681 0.71031 0.0
H1473 H 0.7866 0.08007 0.68258 0.0
H1474 H 0.83465 0.03873 0.75089 0.0
H1475 H 0.79182 0.03438 0.77855 0.0
C1476 C 0.88263 0.07172 0.67776 0.0
C1477 C 0.87603 0.06052 0.65031 0.0
C1478 C 0.86335 0.06902 0.69975 0.0
C1479 C 0.83709 0.05539 0.69438 0.0
C1480 C 0.83193 0.04153 0.66797 0.0
C1481 C 0.85128 0.04399 0.64617 0.0
C1482 C 0.76391 0.06936 0.72001 0.0
C1483 C 0.76431 0.05493 0.74651 0.0
C1484 C 0.78814 0.07085 0.70391 0.0
C1485 C 0.81353 0.05861 0.7142 0.0
C1486 C 0.81512 0.04776 0.74228 0.0
C1487 C 0.79063 0.0458 0.75832 0.0
H1488 H 0.30945 0.93671 0.67441 0.0
H1489 H 0.27172 0.87321 0.61753 0.0
H1490 H 0.28925 0.97455 0.64436 0.0
H1491 H 0.25166 0.91133 0.58696 0.0
H1492 H 0.30301 0.02138 0.55981 0.0
H1493 H 0.30866 0.98338 0.59476 0.0
H1494 H 0.2209 0.95884 0.58119 0.0
H1495 H 0.21491 0.99754 0.54572 0.0
C1496 C 0.2959 0.93089 0.65602 0.0
C1497 C 0.29225 0.90215 0.64811 0.0
C1498 C 0.2845 0.95251 0.63873 0.0
C1499 C 0.26953 0.94583 0.613 0.0
C1500 C 0.26317 0.91703 0.60669 0.0
C1501 C 0.27449 0.89523 0.62424 0.0
C1502 C 0.2848 0.00797 0.56403 0.0
C1503 C 0.25846 0.01266 0.54993 0.0
C1504 C 0.28801 0.9863 0.58433 0.0
C1505 C 0.26507 0.96851 0.59108 0.0
C1506 C 0.23884 0.97244 0.57651 0.0
C1507 C 0.23548 0.99454 0.55625 0.0
H1508 H 0.90835 0.14511 0.49308 0.0
H1509 H 0.82251 0.11968 0.50907 0.0
H1510 H 0.89091 0.18395 0.46228 0.0
H1511 H 0.80499 0.1583 0.47891 0.0
H1512 H 0.77301 0.235 0.44329 0.0
H1513 H 0.7974 0.18978 0.4387 0.0
H1514 H 0.87151 0.22645 0.48223 0.0
H1515 H 0.84747 0.27154 0.48619 0.0
C1516 C 0.88577 0.14678 0.48869 0.0
C1517 C 0.86675 0.1297 0.50378 0.0
C1518 C 0.87573 0.16931 0.47134 0.0
C1519 C 0.84654 0.17493 0.46879 0.0
C1520 C 0.8276 0.15488 0.48029 0.0
C1521 C 0.83763 0.13256 0.49767 0.0
C1522 C 0.79497 0.23385 0.45066 0.0
C1523 C 0.80797 0.25664 0.46599 0.0
C1524 C 0.8089 0.20776 0.44823 0.0
C1525 C 0.8361 0.20405 0.46096 0.0
C1526 C 0.85054 0.22825 0.47228 0.0
C1527 C 0.83663 0.25426 0.47472 0.0
H1528 H 0.82109 0.91999 0.9086 0.0
H1529 H 0.87958 0.8892 0.97482 0.0
H1530 H 0.7895 0.87947 0.91704 0.0
H1531 H 0.84716 0.8492 0.98396 0.0
H1532 H 0.77033 0.79814 0.01118 0.0
H1533 H 0.79509 0.84307 0.00155 0.0
H1534 H 0.79405 0.82253 0.91148 0.0
H1535 H 0.76969 0.77691 0.92137 0.0
C1536 C 0.82729 0.90461 0.92498 0.0
C1537 C 0.85329 0.90763 0.94065 0.0
C1538 C 0.80907 0.88142 0.92979 0.0
C1539 C 0.8159 0.86111 0.951 0.0
C1540 C 0.84132 0.86461 0.96746 0.0
C1541 C 0.85991 0.88749 0.96222 0.0
C1542 C 0.77441 0.80374 0.98915 0.0
C1543 C 0.76765 0.78431 0.96693 0.0
C1544 C 0.78896 0.82924 0.98373 0.0
C1545 C 0.79687 0.83609 0.95587 0.0
C1546 C 0.78815 0.81777 0.93319 0.0
C1547 C 0.77389 0.79187 0.93872 0.0
H1548 H 0.07589 0.86128 0.33221 0.0
H1549 H 0.11688 0.85998 0.25124 0.0
H1550 H 0.03167 0.87275 0.30796 0.0
H1551 H 0.07172 0.87067 0.22633 0.0
H1552 H 1.00004 0.93954 0.20924 0.0
H1553 H 0.04156 0.9109 0.22052 0.0
H1554 H 0.9929 0.85932 0.27829 0.0
H1555 H 0.95197 0.88937 0.26823 0.0
C1556 C 0.07544 0.863 0.30904 0.0
C1557 C 0.10024 0.86002 0.29375 0.0
C1558 C 0.04974 0.86919 0.29497 0.0
C1559 C 0.04779 0.87248 0.265 0.0
C1560 C 0.07238 0.86846 0.24944 0.0
C1561 C 0.09832 0.86224 0.2637 0.0
C1562 C 0.99788 0.92127 0.22336 0.0
C1563 C 0.97294 0.91691 0.23824 0.0
C1564 C 0.02181 0.90482 0.22995 0.0
C1565 C 0.02098 0.88341 0.25118 0.0
C1566 C 0.99467 0.87637 0.26268 0.0
C1567 C 0.97101 0.89326 0.25663 0.0
H1568 H 0.11374 0.65941 0.01555 0.0
H1569 H 0.18488 0.60503 0.00321 0.0
H1570 H 0.14074 0.68632 0.05125 0.0
H1571 H 0.21191 0.6303 0.04112 0.0
H1572 H 0.19005 0.75244 0.08462 0.0
H1573 H 0.16792 0.7052 0.08666 0.0
H1574 H 0.23567 0.67162 0.03736 0.0
H1575 H 0.25848 0.71787 0.03813 0.0
C1576 C 0.1348 0.65225 0.02185 0.0
C1577 C 0.14752 0.63067 0.00645 0.0
C1578 C 0.15054 0.66767 0.04258 0.0
C1579 C 0.17938 0.66162 0.04845 0.0
C1580 C 0.19036 0.63672 0.03626 0.0
C1581 C 0.17479 0.62184 0.01483 0.0
C1582 C 0.20097 0.73437 0.07599 0.0
C1583 C 0.22572 0.73866 0.06094 0.0
C1584 C 0.188 0.70732 0.07649 0.0
C1585 C 0.19876 0.68466 0.06045 0.0
C1586 C 0.22604 0.6882 0.0496 0.0
C1587 C 0.23944 0.71496 0.05006 0.0
H1588 H 0.40791 0.16488 0.77462 0.0
H1589 H 0.44506 0.17987 0.85915 0.0
H1590 H 0.4497 0.13887 0.76179 0.0
H1591 H 0.48771 0.15523 0.84603 0.0
H1592 H 0.52849 0.09055 0.74512 0.0
H1593 H 0.49765 0.13058 0.75347 0.0
H1594 H 0.4932 0.10532 0.84241 0.0
H1595 H 0.525 0.06602 0.83427 0.0
C1596 C 0.4258 0.16415 0.78984 0.0
C1597 C 0.42323 0.17398 0.81795 0.0
C1598 C 0.44977 0.14898 0.78262 0.0
C1599 C 0.47169 0.14396 0.80329 0.0
C1600 C 0.47076 0.15771 0.82997 0.0
C1601 C 0.4466 0.17237 0.83733 0.0
C1602 C 0.52095 0.09355 0.7665 0.0
C1603 C 0.529 0.07487 0.78901 0.0
C1604 C 0.50328 0.1166 0.77127 0.0
C1605 C 0.49296 0.12141 0.79862 0.0
C1606 C 0.50124 0.10281 0.82118 0.0
C1607 C 0.51919 0.07996 0.81648 0.0
H1608 H 0.62262 0.85231 0.0523 0.0
H1609 H 0.67268 0.88072 0.12633 0.0
H1610 H 0.6543 0.8117 0.0473 0.0
H1611 H 0.70464 0.84045 0.12101 0.0
H1612 H 0.76462 0.77252 0.07286 0.0
H1613 H 0.73925 0.81633 0.08367 0.0
H1614 H 0.66081 0.76833 0.08396 0.0
H1615 H 0.68605 0.72464 0.07377 0.0
C1616 C 0.64102 0.85051 0.06676 0.0
C1617 C 0.64528 0.86968 0.08959 0.0
C1618 C 0.65887 0.82706 0.06423 0.0
C1619 C 0.68157 0.82267 0.08416 0.0
C1620 C 0.68725 0.84322 0.10548 0.0
C1621 C 0.66909 0.86634 0.10836 0.0
C1622 C 0.74224 0.77103 0.07685 0.0
C1623 C 0.72733 0.74509 0.07241 0.0
C1624 C 0.72764 0.79624 0.08247 0.0
C1625 C 0.69797 0.7958 0.08358 0.0
C1626 C 0.6836 0.76937 0.0824 0.0
C1627 C 0.69815 0.74426 0.07716 0.0
H1628 H 0.14321 0.11249 0.216 0.0
H1629 H 0.07637 0.17432 0.21837 0.0
H1630 H 0.11237 0.07678 0.23788 0.0
H1631 H 0.04603 0.13896 0.24111 0.0
H1632 H 1.00262 0.06609 0.29063 0.0
H1633 H 0.04273 0.09954 0.28657 0.0
H1634 H 0.06294 0.06084 0.20628 0.0
H1635 H 0.02244 0.02819 0.20974 0.0
C1636 C 0.12243 0.1188 0.22238 0.0
C1637 C 0.11193 0.14596 0.2152 0.0
C1638 C 0.10483 0.09838 0.23479 0.0
C1639 C 0.0769 0.10522 0.24092 0.0
C1640 C 0.06756 0.13331 0.23668 0.0
C1641 C 0.08486 0.15347 0.22362 0.0
C1642 C 0.01598 0.06445 0.27241 0.0
C1643 C 0.0094 0.0448 0.25035 0.0
C1644 C 0.03886 0.08348 0.27016 0.0
C1645 C 0.05593 0.08244 0.2463 0.0
C1646 C 0.05027 0.06171 0.22509 0.0
C1647 C 0.02701 0.04327 0.22693 0.0
H1648 H 0.88542 0.41887 0.24992 0.0
H1649 H 0.91694 0.33338 0.24172 0.0
H1650 H 0.93083 0.43424 0.27199 0.0
H1651 H 0.96288 0.34904 0.26276 0.0
H1652 H 0.03977 0.41548 0.23762 0.0
H1653 H 0.99564 0.38754 0.23509 0.0
H1654 H 0.97084 0.42534 0.31424 0.0
H1655 H 0.01551 0.45256 0.31733 0.0
C1656 C 0.90164 0.40307 0.25408 0.0
C1657 C 0.89754 0.37488 0.24437 0.0
C1658 C 0.92772 0.4119 0.26656 0.0
C1659 C 0.9505 0.39289 0.26885 0.0
C1660 C 0.9457 0.36412 0.26126 0.0
C1661 C 0.91929 0.35509 0.24954 0.0
C1662 C 0.02545 0.41689 0.25509 0.0
C1663 C 0.0312 0.43609 0.27774 0.0
C1664 C 1.00016 0.40091 0.25366 0.0
C1665 C 0.97974 0.40434 0.27443 0.0
C1666 C 0.98623 0.42221 0.298 0.0
C1667 C 0.01191 0.43761 0.29986 0.0
H1668 H 0.24735 0.27722 0.84692 0.0
H1669 H 0.26091 0.19244 0.88125 0.0
H1670 H 0.20092 0.27785 0.86748 0.0
H1671 H 0.2142 0.19298 0.90161 0.0
H1672 H 0.11936 0.19062 0.85933 0.0
H1673 H 0.17058 0.19064 0.86731 0.0
H1674 H 0.16718 0.27301 0.90838 0.0
H1675 H 0.11595 0.27313 0.9002 0.0
C1676 C 0.24091 0.25926 0.85997 0.0
C1677 C 0.25745 0.2346 0.86202 0.0
C1678 C 0.21433 0.25962 0.87184 0.0
C1679 C 0.20377 0.23519 0.88562 0.0
C1680 C 0.22178 0.21195 0.8908 0.0
C1681 C 0.2486 0.21176 0.8793 0.0
C1682 C 0.12945 0.20836 0.87074 0.0
C1683 C 0.11369 0.23198 0.87884 0.0
C1684 C 0.15876 0.20825 0.87563 0.0
C1685 C 0.17284 0.23191 0.8884 0.0
C1686 C 0.15683 0.25454 0.89848 0.0
C1687 C 0.12749 0.25452 0.89384 0.0
H1688 H 0.47211 0.51243 0.34823 0.0
H1689 H 0.40428 0.54787 0.39503 0.0
H1690 H 0.48645 0.5605 0.33344 0.0
H1691 H 0.41797 0.59592 0.3795 0.0
H1692 H 0.52659 0.64383 0.38372 0.0
H1693 H 0.50663 0.59604 0.37505 0.0
H1694 H 0.43134 0.63313 0.33622 0.0
H1695 H 0.45199 0.6812 0.34386 0.0
C1696 C 0.45899 0.53029 0.35363 0.0
C1697 C 0.43676 0.5263 0.37242 0.0
C1698 C 0.46751 0.55789 0.34553 0.0
C1699 C 0.45353 0.58201 0.35556 0.0
C1700 C 0.42903 0.57776 0.37124 0.0
C1701 C 0.42092 0.55017 0.37985 0.0
C1702 C 0.50627 0.64175 0.37232 0.0
C1703 C 0.49099 0.66619 0.36421 0.0
C1704 C 0.49481 0.61439 0.36734 0.0
C1705 C 0.46741 0.61081 0.35492 0.0
C1706 C 0.45255 0.63524 0.34567 0.0
C1707 C 0.46444 0.66269 0.34987 0.0
H1708 H 0.79094 0.27376 0.83318 0.0
H1709 H 0.79099 0.36559 0.84287 0.0
H1710 H 0.84158 0.27326 0.8422 0.0
H1711 H 0.84262 0.36507 0.85182 0.0
H1712 H 0.92997 0.34052 0.89787 0.0
H1713 H 0.87974 0.34738 0.88703 0.0
H1714 H 0.88329 0.28823 0.81648 0.0
H1715 H 0.93342 0.28081 0.82762 0.0
C1716 C 0.80182 0.29395 0.83727 0.0
C1717 C 0.78698 0.31979 0.83698 0.0
C1718 C 0.83096 0.29364 0.8422 0.0
C1719 C 0.84623 0.31916 0.84697 0.0
C1720 C 0.83137 0.34505 0.84799 0.0
C1721 C 0.80188 0.34537 0.84301 0.0
C1722 C 0.92016 0.32915 0.87984 0.0
C1723 C 0.93569 0.3097 0.86388 0.0
C1724 C 0.89137 0.33329 0.87355 0.0
C1725 C 0.87747 0.31807 0.8512 0.0
C1726 C 0.89332 0.29985 0.83425 0.0
C1727 C 0.9221 0.29568 0.84053 0.0
H1728 H 0.57879 0.0116 0.37083 0.0
H1729 H 0.5982 0.97698 0.45495 0.0
H1730 H 0.5688 0.96322 0.35291 0.0
H1731 H 0.58658 0.92949 0.43811 0.0
H1732 H 0.56897 0.84255 0.40104 0.0
H1733 H 0.59109 0.88832 0.41357 0.0
H1734 H 0.53143 0.93112 0.35581 0.0
H1735 H 0.51092 0.88503 0.34197 0.0
C1736 C 0.58185 0.99358 0.38521 0.0
C1737 C 0.58896 0.99803 0.41431 0.0
C1738 C 0.57546 0.96586 0.37521 0.0
C1739 C 0.57582 0.94224 0.39422 0.0
C1740 C 0.58592 0.94672 0.4226 0.0
C1741 C 0.59264 0.97416 0.43237 0.0
C1742 C 0.56038 0.86185 0.39143 0.0
C1743 C 0.53802 0.8603 0.37082 0.0
C1744 C 0.57315 0.88821 0.39846 0.0
C1745 C 0.56337 0.91379 0.38559 0.0
C1746 C 0.54029 0.91207 0.36562 0.0
C1747 C 0.52805 0.88566 0.35808 0.0
H1748 H 0.24718 0.82623 0.63284 0.0
H1749 H 0.21823 0.84707 0.71658 0.0
H1750 H 0.19811 0.82661 0.61348 0.0
H1751 H 0.16967 0.84769 0.69758 0.0
H1752 H 0.08486 0.85472 0.66132 0.0
H1753 H 0.13432 0.86966 0.66478 0.0
H1754 H 0.1577 0.79195 0.62259 0.0
H1755 H 0.10775 0.77723 0.61853 0.0
C1756 C 0.23044 0.83211 0.64677 0.0
C1757 C 0.23635 0.83682 0.67613 0.0
C1758 C 0.20238 0.83195 0.63581 0.0
C1759 C 0.17998 0.83701 0.654 0.0
C1760 C 0.18637 0.84402 0.68285 0.0
C1761 C 0.2142 0.84369 0.69381 0.0
C1762 C 0.10048 0.84112 0.65215 0.0
C1763 C 0.09259 0.81448 0.6403 0.0
C1764 C 0.12881 0.8497 0.65413 0.0
C1765 C 0.14998 0.83172 0.64456 0.0
C1766 C 0.14187 0.80631 0.63014 0.0
C1767 C 0.1133 0.79779 0.62791 0.0
H1768 H 0.06636 0.51672 0.63772 0.0
H1769 H 0.07026 0.54048 0.54852 0.0
H1770 H 0.05681 0.56662 0.64972 0.0
H1771 H 0.06017 0.58969 0.5602 0.0
H1772 H 0.05599 0.68194 0.59352 0.0
H1773 H 0.07358 0.63424 0.58262 0.0
H1774 H 0.01625 0.59694 0.6425 0.0
H1775 H 0.99913 0.64406 0.6535 0.0
C1776 C 0.06583 0.53264 0.62081 0.0
C1777 C 0.06879 0.52453 0.59217 0.0
C1778 C 0.05997 0.5612 0.62755 0.0
C1779 C 0.05714 0.58224 0.60583 0.0
C1780 C 0.0622 0.57432 0.57754 0.0
C1781 C 0.0679 0.54593 0.57083 0.0
C1782 C 0.0469 0.66348 0.60399 0.0
C1783 C 0.02619 0.66697 0.62444 0.0
C1784 C 0.05711 0.63611 0.59793 0.0
C1785 C 0.04681 0.61162 0.61215 0.0
C1786 C 0.0254 0.6152 0.63178 0.0
C1787 C 0.01528 0.64236 0.6378 0.0
H1788 H 0.76884 0.70508 0.59741 0.0
H1789 H 0.78967 0.65376 0.6719 0.0
H1790 H 0.81919 0.71089 0.58836 0.0
H1791 H 0.84011 0.66008 0.66339 0.0
H1792 H 0.91812 0.72543 0.66379 0.0
H1793 H 0.86929 0.70794 0.66806 0.0
H1794 H 0.86569 0.68534 0.57844 0.0
H1795 H 0.91412 0.70232 0.57414 0.0
C1796 C 0.78416 0.69369 0.61086 0.0
C1797 C 0.7754 0.67836 0.63488 0.0
C1798 C 0.813 0.6974 0.60601 0.0
C1799 C 0.83356 0.68639 0.62553 0.0
C1800 C 0.82473 0.66908 0.64822 0.0
C1801 C 0.79588 0.66492 0.6527 0.0
C1802 C 0.90697 0.71658 0.6451 0.0
C1803 C 0.92015 0.71525 0.61872 0.0
C1804 C 0.87911 0.70635 0.64756 0.0
C1805 C 0.86377 0.6951 0.62357 0.0
C1806 C 0.87696 0.69384 0.59726 0.0
C1807 C 0.9048 0.70356 0.59492 0.0
H1808 H 0.91065 0.98962 0.60454 0.0
H1809 H 0.9902 0.01699 0.64416 0.0
H1810 H 0.92006 0.94042 0.61999 0.0
H1811 H 0.99931 0.9683 0.66042 0.0
H1812 H 0.02712 0.88068 0.62371 0.0
H1813 H 0.0131 0.92998 0.62983 0.0
H1814 H 0.9305 0.90126 0.65498 0.0
H1815 H 0.94499 0.8514 0.64885 0.0
C1816 C 0.92938 0.9854 0.61792 0.0
C1817 C 0.94971 0.00712 0.62311 0.0
C1818 C 0.93492 0.95713 0.62667 0.0
C1819 C 0.96083 0.95017 0.64088 0.0
C1820 C 0.97947 0.97267 0.64895 0.0
C1821 C 0.97409 1.0007 0.63996 0.0
C1822 C 1.00636 0.88486 0.63167 0.0
C1823 C 0.98729 0.86222 0.63612 0.0
C1824 C 0.99821 0.9132 0.63518 0.0
C1825 C 0.97053 0.91981 0.64281 0.0
C1826 C 0.9519 0.89702 0.64894 0.0
C1827 C 0.9603 0.86846 0.64583 0.0
H1828 H 0.79912 0.20861 0.15404 0.0
H1829 H 0.88389 0.23626 0.17919 0.0
H1830 H 0.81245 0.15897 0.16165 0.0
H1831 H 0.89724 0.18651 0.18717 0.0
H1832 H 0.91503 0.09137 0.18554 0.0
H1833 H 0.90358 0.13876 0.1681 0.0
H1834 H 0.82223 0.13246 0.20667 0.0
H1835 H 0.83346 0.08425 0.22387 0.0
C1836 C 0.8209 0.20397 0.16026 0.0
C1837 C 0.84042 0.22628 0.16634 0.0
C1838 C 0.82838 0.17557 0.16507 0.0
C1839 C 0.85558 0.16888 0.17592 0.0
C1840 C 0.87601 0.19099 0.17898 0.0
C1841 C 0.86849 0.2195 0.17412 0.0
C1842 C 0.89459 0.0999 0.19037 0.0
C1843 C 0.87511 0.08386 0.2062 0.0
C1844 C 0.88814 0.12723 0.18037 0.0
C1845 C 0.86201 0.13937 0.18584 0.0
C1846 C 0.84243 0.12347 0.20169 0.0
C1847 C 0.84893 0.09598 0.21182 0.0
H1848 H 0.45596 0.95213 0.05748 0.0
H1849 H 0.48605 0.86567 0.06566 0.0
H1850 H 0.40747 0.93487 0.05779 0.0
H1851 H 0.43657 0.84796 0.06529 0.0
H1852 H 0.34494 0.84909 0.00734 0.0
H1853 H 0.39486 0.85095 0.02393 0.0
H1854 H 0.37378 0.90905 0.09121 0.0
H1855 H 0.32436 0.90773 0.0742 0.0
C1856 C 0.45212 0.92935 0.05964 0.0
C1857 C 0.47469 0.91022 0.06137 0.0
C1858 C 0.42432 0.91946 0.06007 0.0
C1859 C 0.41821 0.89007 0.06179 0.0
C1860 C 0.44075 0.87073 0.06409 0.0
C1861 C 0.46892 0.88082 0.06436 0.0
C1862 C 0.35087 0.8611 0.02651 0.0
C1863 C 0.33106 0.87851 0.03939 0.0
C1864 C 0.3794 0.86217 0.03601 0.0
C1865 C 0.3882 0.88058 0.05851 0.0
C1866 C 0.3676 0.89497 0.0736 0.0
C1867 C 0.33933 0.89415 0.06396 0.0
H1868 H 0.19338 0.28535 0.23427 0.0
H1869 H 0.14216 0.27284 0.15657 0.0
H1870 H 0.17039 0.3307 0.2418 0.0
H1871 H 0.11957 0.31861 0.1638 0.0
H1872 H 0.13411 0.42045 0.17065 0.0
H1873 H 0.13834 0.36935 0.1625 0.0
H1874 H 0.12332 0.35308 0.25179 0.0
H1875 H 0.11897 0.40444 0.2599 0.0
C1876 C 0.17721 0.29219 0.21872 0.0
C1877 C 0.17015 0.27561 0.19435 0.0
C1878 C 0.16376 0.31805 0.22328 0.0
C1879 C 0.143 0.3281 0.20351 0.0
C1880 C 0.13554 0.3114 0.17938 0.0
C1881 C 0.14879 0.28531 0.175 0.0
C1882 C 0.13043 0.40585 0.18823 0.0
C1883 C 0.12665 0.41632 0.21597 0.0
C1884 C 0.13288 0.37657 0.18358 0.0
C1885 C 0.13186 0.35734 0.20668 0.0
C1886 C 0.12467 0.36756 0.23372 0.0
C1887 C 0.12184 0.39691 0.23829 0.0
H1888 H 0.50262 0.64047 0.00707 0.0
H1889 H 0.53561 0.61847 0.0915 0.0
H1890 H 0.54933 0.65744 0.99398 0.0
H1891 H 0.58291 0.63465 0.07825 0.0
H1892 H 0.63746 0.62411 0.96913 0.0
H1893 H 0.589 0.62804 0.9838 0.0
H1894 H 0.61839 0.67046 0.06167 0.0
H1895 H 0.66743 0.66648 0.04658 0.0
C1896 C 0.51974 0.64029 0.0232 0.0
C1897 C 0.51545 0.62836 0.05036 0.0
C1898 C 0.54664 0.64968 0.0156 0.0
C1899 C 0.57016 0.64686 0.03478 0.0
C1900 C 0.56535 0.6373 0.06292 0.0
C1901 C 0.5382 0.62812 0.07063 0.0
C1902 C 0.63353 0.63524 0.98888 0.0
C1903 C 0.65625 0.64516 0.00656 0.0
C1904 C 0.60565 0.63751 0.99739 0.0
C1905 C 0.59959 0.64945 0.02408 0.0
C1906 C 0.62225 0.66097 0.04109 0.0
C1907 C 0.65031 0.65907 0.03227 0.0
H1908 H 0.88149 0.76802 0.34739 0.0
H1909 H 0.89281 0.7495 0.25837 0.0
H1910 H 0.8975 0.81664 0.34012 0.0
H1911 H 0.91141 0.79768 0.25115 0.0
H1912 H 0.86951 0.88574 0.2373 0.0
H1913 H 0.8826 0.8363 0.24502 0.0
H1914 H 0.91992 0.8585 0.3284 0.0
H1915 H 0.9049 0.90796 0.32079 0.0
C1916 C 0.88955 0.7738 0.32671 0.0
C1917 C 0.88543 0.75531 0.30332 0.0
C1918 C 0.8986 0.80198 0.32235 0.0
C1919 C 0.90436 0.81178 0.29456 0.0
C1920 C 0.90573 0.79137 0.27252 0.0
C1921 C 0.8958 0.76344 0.27675 0.0
C1922 C 0.88087 0.87995 0.25705 0.0
C1923 C 0.88582 0.90019 0.27866 0.0
C1924 C 0.88884 0.85161 0.26146 0.0
C1925 C 0.90228 0.84294 0.28756 0.0
C1926 C 0.90907 0.86403 0.30833 0.0
C1927 C 0.9006 0.89236 0.30403 0.0
H1928 H 1.00168 0.8605 0.95382 0.0
H1929 H 0.02198 0.89954 0.87335 0.0
H1930 H 0.05094 0.84621 0.96137 0.0
H1931 H 0.0714 0.88503 0.88086 0.0
H1932 H 0.15109 0.81891 0.92618 0.0
H1933 H 0.10255 0.82468 0.90707 0.0
H1934 H 0.0953 0.90161 0.95654 0.0
H1935 H 0.14409 0.89618 0.97569 0.0
C1936 C 0.0162 0.86423 0.93677 0.0
C1937 C 0.00786 0.88085 0.91283 0.0
C1938 C 0.04453 0.85662 0.94143 0.0
C1939 C 0.06488 0.86509 0.92196 0.0
C1940 C 0.05601 0.87839 0.89621 0.0
C1941 C 0.02759 0.8861 0.89161 0.0
C1942 C 0.13938 0.8374 0.93264 0.0
C1943 C 0.15147 0.85706 0.95263 0.0
C1944 C 0.11163 0.84061 0.92164 0.0
C1945 C 0.09531 0.86342 0.93052 0.0
C1946 C 0.10763 0.88381 0.94944 0.0
C1947 C 0.13555 0.8808 0.96025 0.0
H1948 H 0.13896 0.73688 0.33719 0.0
H1949 H 0.22859 0.72347 0.33225 0.0
H1950 H 0.13105 0.68505 0.33931 0.0
H1951 H 0.22096 0.67188 0.33464 0.0
H1952 H 0.18777 0.59084 0.28455 0.0
H1953 H 0.19994 0.64027 0.29704 0.0
H1954 H 0.13889 0.63829 0.36339 0.0
H1955 H 0.12663 0.58916 0.35102 0.0
C1956 C 0.15704 0.72288 0.3381 0.0
C1957 C 0.18436 0.73404 0.33482 0.0
C1958 C 0.15257 0.69318 0.339 0.0
C1959 C 0.17538 0.67433 0.33648 0.0
C1960 C 0.20292 0.68577 0.33601 0.0
C1961 C 0.20734 0.7153 0.33514 0.0
C1962 C 0.17728 0.60076 0.3021 0.0
C1963 C 0.15606 0.58598 0.31653 0.0
C1964 C 0.18432 0.62909 0.30938 0.0
C1965 C 0.17023 0.64329 0.33116 0.0
C1966 C 0.14987 0.62812 0.34632 0.0
C1967 C 0.14297 0.59984 0.33921 0.0
H1968 H 0.9734 0.56179 0.94585 0.0
H1969 H 1.00172 0.64978 0.94879 0.0
H1970 H 0.92629 0.57577 0.9574 0.0
H1971 H 0.95343 0.66434 0.95956 0.0
H1972 H 0.87581 0.67398 0.0159 0.0
H1973 H 0.92225 0.66222 0.99889 0.0
H1974 H 0.88381 0.59725 0.94392 0.0
H1975 H 0.83755 0.60835 0.96173 0.0
C1976 C 0.96931 0.58438 0.94829 0.0
C1977 C 0.99142 0.60466 0.94657 0.0
C1978 C 0.94205 0.59245 0.95481 0.0
C1979 C 0.93576 0.62121 0.95974 0.0
C1980 C 0.95753 0.64188 0.95643 0.0
C1981 C 0.98513 0.63368 0.94981 0.0
C1982 C 0.87729 0.6569 0.00044 0.0
C1983 C 0.85282 0.64191 0.99047 0.0
C1984 C 0.90398 0.65046 0.99031 0.0
C1985 C 0.90705 0.62892 0.96975 0.0
C1986 C 0.88255 0.61375 0.96 0.0
C1987 C 0.85589 0.62002 0.97032 0.0
H1988 H 0.18844 0.89114 0.24386 0.0
H1989 H 0.14777 0.81954 0.20057 0.0
H1990 H 0.19823 0.91292 0.19744 0.0
H1991 H 0.15651 0.84174 0.15429 0.0
H1992 H 0.17923 0.88596 0.07317 0.0
H1993 H 0.15451 0.88754 0.1184 0.0
H1994 H 0.23471 0.88394 0.16558 0.0
H1995 H 0.25919 0.88123 0.12062 0.0
C1996 C 0.17995 0.88099 0.22448 0.0
C1997 C 0.16742 0.85365 0.22569 0.0
C1998 C 0.18578 0.89334 0.19793 0.0
C1999 C 0.17838 0.87886 0.17233 0.0
C2000 C 0.1623 0.85346 0.17367 0.0
C2001 C 0.15717 0.84077 0.20016 0.0
C2002 C 0.19158 0.88662 0.09322 0.0
C2003 C 0.22109 0.88334 0.09351 0.0
C2004 C 0.17742 0.88744 0.11904 0.0
C2005 C 0.1927 0.88591 0.14544 0.0
C2006 C 0.22241 0.88552 0.14556 0.0
C2007 C 0.23645 0.88386 0.11985 0.0
H2008 H 0.15906 0.17792 0.26281 0.0
H2009 H 0.22529 0.11684 0.25285 0.0
H2010 H 0.15881 0.16758 0.31361 0.0
H2011 H 0.22328 0.10382 0.30329 0.0
H2012 H 0.16597 0.15558 0.40617 0.0
H2013 H 0.15415 0.1458 0.3559 0.0
H2014 H 0.2415 0.12337 0.34371 0.0
H2015 H 0.25207 0.13049 0.39435 0.0
C2016 C 0.17259 0.16117 0.27141 0.0
C2017 C 0.19254 0.14853 0.2543 0.0
C2018 C 0.17246 0.15502 0.3007 0.0
C2019 C 0.1918 0.13543 0.31323 0.0
C2020 C 0.20906 0.12004 0.29496 0.0
C2021 C 0.20993 0.12706 0.2659 0.0
C2022 C 0.18235 0.14798 0.39263 0.0
C2023 C 0.21001 0.14427 0.4038 0.0
C2024 C 0.17571 0.14256 0.36371 0.0
C2025 C 0.19691 0.13449 0.34507 0.0
C2026 C 0.22427 0.1292 0.35697 0.0
C2027 C 0.23059 0.13361 0.3861 0.0
H2028 H 0.38675 0.50862 0.00392 0.0
H2029 H 0.39981 0.59316 0.96943 0.0
H2030 H 0.36671 0.49264 0.95771 0.0
H2031 H 0.38082 0.57701 0.92262 0.0
H2032 H 0.39923 0.46944 0.86762 0.0
H2033 H 0.39411 0.48365 0.91695 0.0
H2034 H 0.34502 0.55649 0.88845 0.0
H2035 H 0.35041 0.54188 0.83846 0.0
C2036 C 0.38468 0.52394 0.98652 0.0
C2037 C 0.39506 0.55198 0.98998 0.0
C2038 C 0.37328 0.5148 0.96005 0.0
C2039 C 0.37275 0.53333 0.93626 0.0
C2040 C 0.38075 0.56219 0.94049 0.0
C2041 C 0.39172 0.57148 0.96725 0.0
C2042 C 0.38639 0.48784 0.87195 0.0
C2043 C 0.37533 0.50464 0.84939 0.0
C2044 C 0.38334 0.49604 0.90029 0.0
C2045 C 0.36938 0.52146 0.90674 0.0
C2046 C 0.35614 0.53697 0.88415 0.0
C2047 C 0.35892 0.52847 0.85561 0.0
H2048 H 0.83754 0.27263 0.29887 0.0
H2049 H 0.83832 0.36212 0.27584 0.0
H2050 H 0.82328 0.28469 0.34678 0.0
H2051 H 0.82445 0.37426 0.32406 0.0
H2052 H 0.74776 0.37442 0.38198 0.0
H2053 H 0.77589 0.36419 0.34094 0.0
H2054 H 0.82963 0.30952 0.39352 0.0
H2055 H 0.80148 0.31977 0.43485 0.0
C2056 C 0.83588 0.29498 0.30448 0.0
C2057 C 0.83833 0.31641 0.28349 0.0
C2058 C 0.82768 0.30188 0.33193 0.0
C2059 C 0.82185 0.33031 0.33876 0.0
C2060 C 0.8281 0.35206 0.319 0.0
C2061 C 0.83644 0.34516 0.29153 0.0
C2062 C 0.76538 0.35999 0.38484 0.0
C2063 C 0.77222 0.3478 0.41174 0.0
C2064 C 0.7818 0.35452 0.3614 0.0
C2065 C 0.8054 0.33666 0.36424 0.0
C2066 C 0.8117 0.32358 0.39081 0.0
C2067 C 0.79533 0.32918 0.41437 0.0
H2068 H 0.07016 0.40123 0.46869 0.0
H2069 H 0.13925 0.44686 0.51175 0.0
H2070 H 0.08995 0.41208 0.4225 0.0
H2071 H 0.15848 0.45912 0.46546 0.0
H2072 H 0.19232 0.46701 0.37561 0.0
H2073 H 0.17894 0.44743 0.42152 0.0
H2074 H 0.09069 0.45441 0.39498 0.0
H2075 H 0.10406 0.47263 0.34868 0.0
C2076 C 0.09 0.41302 0.46822 0.0
C2077 C 0.1031 0.42339 0.49367 0.0
C2078 C 0.10111 0.41967 0.44176 0.0
C2079 C 0.12527 0.43735 0.44014 0.0
C2080 C 0.1398 0.44553 0.46582 0.0
C2081 C 0.12889 0.4384 0.49241 0.0
C2082 C 0.17002 0.46449 0.37958 0.0
C2083 C 0.14925 0.47155 0.35835 0.0
C2084 C 0.16237 0.45325 0.40599 0.0
C2085 C 0.13375 0.44897 0.41195 0.0
C2086 C 0.11299 0.45666 0.39094 0.0
C2087 C 0.12064 0.46759 0.36444 0.0
H2088 H 0.32671 0.13414 0.73995 0.0
H2089 H 0.24192 0.16654 0.73079 0.0
H2090 H 0.32613 0.12391 0.68879 0.0
H2091 H 0.24063 0.1552 0.67984 0.0
H2092 H 0.26393 0.17837 0.58928 0.0
H2093 H 0.26263 0.17926 0.64139 0.0
H2094 H 0.3095 0.1006 0.64635 0.0
H2095 H 0.31182 0.10029 0.59453 0.0
C2096 C 0.30733 0.13748 0.72728 0.0
C2097 C 0.28442 0.15126 0.73921 0.0
C2098 C 0.30708 0.13197 0.69781 0.0
C2099 C 0.28369 0.13975 0.67995 0.0
C2100 C 0.2594 0.14999 0.69275 0.0
C2101 C 0.25984 0.15585 0.72206 0.0
C2102 C 0.27435 0.16152 0.6015 0.0
C2103 C 0.28798 0.13933 0.5876 0.0
C2104 C 0.2732 0.16173 0.63141 0.0
C2105 C 0.28543 0.13962 0.64814 0.0
C2106 C 0.29989 0.11798 0.63426 0.0
C2107 C 0.30125 0.1179 0.60442 0.0
H2108 H 0.46618 0.46837 0.53035 0.0
H2109 H 0.38176 0.44424 0.5001 0.0
H2110 H 0.44969 0.47478 0.57822 0.0
H2111 H 0.36519 0.44977 0.5489 0.0
H2112 H 0.34122 0.49977 0.62966 0.0
H2113 H 0.35689 0.48859 0.58197 0.0
H2114 H 0.4329 0.45145 0.61957 0.0
H2115 H 0.41759 0.46327 0.66724 0.0
C2116 C 0.44406 0.46397 0.53401 0.0
C2117 C 0.42525 0.4559 0.51126 0.0
C2118 C 0.43465 0.46746 0.56166 0.0
C2119 C 0.40608 0.4629 0.56755 0.0
C2120 C 0.3873 0.45382 0.54504 0.0
C2121 C 0.39682 0.45028 0.51714 0.0
C2122 C 0.36139 0.48939 0.6278 0.0
C2123 C 0.37824 0.48265 0.65239 0.0
C2124 C 0.3702 0.48265 0.60039 0.0
C2125 C 0.39607 0.46892 0.59682 0.0
C2126 C 0.41298 0.46229 0.62143 0.0
C2127 C 0.40422 0.46914 0.64883 0.0
H2128 H 0.63973 0.06242 0.51847 0.0
H2129 H 0.56653 0.09521 0.55903 0.0
H2130 H 0.6618 0.05185 0.56585 0.0
H2131 H 0.58893 0.08573 0.60618 0.0
H2132 H 0.6385 0.99319 0.65316 0.0
H2133 H 0.63633 0.01274 0.60427 0.0
H2134 H 0.6383 0.09828 0.63852 0.0
H2135 H 0.64136 0.07869 0.68729 0.0
C2136 C 0.62889 0.06835 0.53753 0.0
C2137 C 0.60149 0.07963 0.53528 0.0
C2138 C 0.64144 0.06221 0.56452 0.0
C2139 C 0.62704 0.06807 0.58952 0.0
C2140 C 0.60056 0.08131 0.58719 0.0
C2141 C 0.58773 0.08668 0.56029 0.0
C2142 C 0.64005 0.01612 0.65009 0.0
C2143 C 0.64053 0.03451 0.67374 0.0
C2144 C 0.63873 0.02731 0.62222 0.0
C2145 C 0.63712 0.05699 0.61777 0.0
C2146 C 0.63973 0.07536 0.64146 0.0
C2147 C 0.64164 0.06417 0.66927 0.0
H2148 H 0.75155 0.69394 0.38372 0.0
H2149 H 0.73308 0.77577 0.34458 0.0
H2150 H 0.70417 0.69211 0.40268 0.0
H2151 H 0.68608 0.77419 0.36416 0.0
H2152 H 0.60855 0.6859 0.35841 0.0
H2153 H 0.6599 0.68741 0.36607 0.0
H2154 H 0.65424 0.76854 0.40905 0.0
H2155 H 0.60296 0.76707 0.40156 0.0
C2156 C 0.73787 0.71212 0.38024 0.0
C2157 C 0.74573 0.7348 0.36224 0.0
C2158 C 0.71076 0.71097 0.39105 0.0
C2159 C 0.69151 0.73284 0.38461 0.0
C2160 C 0.70061 0.75711 0.36954 0.0
C2161 C 0.72746 0.75797 0.35822 0.0
C2162 C 0.61819 0.70356 0.37034 0.0
C2163 C 0.60179 0.72645 0.37914 0.0
C2164 C 0.64753 0.70432 0.37495 0.0
C2165 C 0.66091 0.7282 0.38802 0.0
C2166 C 0.64435 0.74992 0.39896 0.0
C2167 C 0.61499 0.74897 0.39472 0.0
H2168 H 0.92967 0.0396 0.8828 0.0
H2169 H 0.01607 0.01537 0.87097 0.0
H2170 H 0.94176 0.08913 0.87014 0.0
H2171 H 0.02796 0.06426 0.8575 0.0
H2172 H 0.04427 0.15283 0.90046 0.0
H2173 H 0.03175 0.10295 0.89274 0.0
H2174 H 0.96117 0.12765 0.83688 0.0
H2175 H 0.97412 0.17828 0.84461 0.0
C2176 C 0.95089 0.04462 0.87625 0.0
C2177 C 0.97207 0.02387 0.87829 0.0
C2178 C 0.95785 0.07296 0.869 0.0
C2179 C 0.98601 0.08073 0.86348 0.0
C2180 C 1.00625 0.05911 0.86228 0.0
C2181 C 0.99942 0.03107 0.86985 0.0
C2182 C 0.02649 0.14765 0.88596 0.0
C2183 C 0.01014 0.16939 0.8732 0.0
C2184 C 0.01935 0.11901 0.88138 0.0
C2185 C 0.99541 0.11125 0.86417 0.0
C2186 C 0.97967 0.13297 0.8503 0.0
C2187 C 0.9872 0.16187 0.85452 0.0
H2188 H 0.28074 0.8596 0.35207 0.0
H2189 H 0.29697 0.81217 0.27535 0.0
H2190 H 0.33121 0.85869 0.36554 0.0
H2191 H 0.34618 0.80931 0.2895 0.0
H2192 H 0.41018 0.81233 0.40137 0.0
H2193 H 0.36309 0.82621 0.3846 0.0
H2194 H 0.3907 0.82665 0.29725 0.0
H2195 H 0.43725 0.81062 0.31425 0.0
C2196 C 0.29506 0.8494 0.33789 0.0
C2197 C 0.28469 0.83563 0.31288 0.0
C2198 C 0.324 0.84845 0.34577 0.0
C2199 C 0.34301 0.83336 0.32899 0.0
C2200 C 0.33266 0.82139 0.30302 0.0
C2201 C 0.30408 0.82278 0.29498 0.0
C2202 C 0.40608 0.81539 0.37857 0.0
C2203 C 0.42718 0.80994 0.35903 0.0
C2204 C 0.37911 0.82375 0.36891 0.0
C2205 C 0.3727 0.82758 0.33945 0.0
C2206 C 0.39438 0.82324 0.32003 0.0
C2207 C 0.42116 0.81408 0.32969 0.0
H2208 H 0.11313 0.49263 0.92291 0.0
H2209 H 0.0651 0.51793 0.847 0.0
H2210 H 0.10406 0.44282 0.91173 0.0
H2211 H 0.05804 0.46794 0.83383 0.0
H2212 H 0.00908 0.38541 0.84172 0.0
H2213 H 0.02756 0.43369 0.84833 0.0
H2214 H 0.10331 0.3997 0.89025 0.0
H2215 H 0.08326 0.3516 0.88559 0.0
C2216 C 0.10235 0.48741 0.90263 0.0
C2217 C 0.08987 0.5091 0.88579 0.0
C2218 C 0.09673 0.45864 0.8963 0.0
C2219 C 0.07913 0.45094 0.87242 0.0
C2220 C 0.07043 0.47282 0.85323 0.0
C2221 C 0.07529 0.50161 0.86015 0.0
C2222 C 0.02936 0.38848 0.85297 0.0
C2223 C 0.04451 0.36492 0.86361 0.0
C2224 C 0.04042 0.41617 0.85619 0.0
C2225 C 0.06747 0.42105 0.86925 0.0
C2226 C 0.08237 0.39723 0.88033 0.0
C2227 C 0.07084 0.36954 0.87784 0.0
H2228 H 0.74837 0.32313 0.12777 0.0
H2229 H 0.72012 0.34346 0.21191 0.0
H2230 H 0.69902 0.32319 0.10894 0.0
H2231 H 0.67139 0.34409 0.19335 0.0
H2232 H 0.60745 0.27459 0.11589 0.0
H2233 H 0.6578 0.28822 0.11931 0.0
H2234 H 0.6365 0.36736 0.16002 0.0
H2235 H 0.5867 0.35363 0.15708 0.0
C2236 C 0.73172 0.32876 0.14192 0.0
C2237 C 0.73792 0.33339 0.17126 0.0
C2238 C 0.70353 0.32846 0.13125 0.0
C2239 C 0.6813 0.33348 0.14967 0.0
C2240 C 0.68796 0.34041 0.17848 0.0
C2241 C 0.71589 0.34011 0.18917 0.0
C2242 C 0.61354 0.29523 0.12475 0.0
C2243 C 0.59329 0.31272 0.13687 0.0
C2244 C 0.64233 0.30311 0.12664 0.0
C2245 C 0.65113 0.32864 0.14047 0.0
C2246 C 0.63045 0.34733 0.14978 0.0
C2247 C 0.60192 0.33942 0.1481 0.0
H2248 H 0.56434 0.0458 0.04028 0.0
H2249 H 0.56357 0.01763 0.12848 0.0
H2250 H 0.55393 0.09404 0.05477 0.0
H2251 H 0.5541 0.06662 0.14329 0.0
H2252 H 0.49813 0.14438 0.154 0.0
H2253 H 0.51436 0.09758 0.14027 0.0
H2254 H 0.56803 0.13696 0.07814 0.0
H2255 H 0.55105 0.18403 0.09142 0.0
C2256 C 0.56258 0.05003 0.06294 0.0
C2257 C 0.56447 0.02768 0.0832 0.0
C2258 C 0.55673 0.07789 0.07128 0.0
C2259 C 0.55271 0.08433 0.10017 0.0
C2260 C 0.55641 0.06234 0.12073 0.0
C2261 C 0.56223 0.03429 0.11233 0.0
C2262 C 0.51325 0.14313 0.13723 0.0
C2263 C 0.52324 0.16806 0.12379 0.0
C2264 C 0.52288 0.1162 0.12962 0.0
C2265 C 0.54292 0.11333 0.10842 0.0
C2266 C 0.55249 0.13824 0.09448 0.0
C2267 C 0.54269 0.16528 0.10201 0.0
H2268 H 0.26539 0.20561 0.09811 0.0
H2269 H 0.28809 0.15353 0.17152 0.0
H2270 H 0.31554 0.21327 0.08903 0.0
H2271 H 0.33827 0.16158 0.16296 0.0
H2272 H 0.41604 0.22626 0.16434 0.0
H2273 H 0.36708 0.209 0.16853 0.0
H2274 H 0.36229 0.1899 0.07808 0.0
H2275 H 0.41075 0.20673 0.07387 0.0
C2276 C 0.28109 0.19443 0.11127 0.0
C2277 C 0.27286 0.17834 0.13502 0.0
C2278 C 0.30984 0.19925 0.10645 0.0
C2279 C 0.33084 0.18853 0.12569 0.0
C2280 C 0.32257 0.17047 0.14804 0.0
C2281 C 0.29386 0.16527 0.15251 0.0
C2282 C 0.40454 0.21835 0.14544 0.0
C2283 C 0.41746 0.2178 0.11888 0.0
C2284 C 0.37661 0.20822 0.14783 0.0
C2285 C 0.36092 0.19788 0.12361 0.0
C2286 C 0.37377 0.19768 0.0971 0.0
C2287 C 0.40166 0.20729 0.0948 0.0
H2288 H 0.49189 0.51796 0.13924 0.0
H2289 H 0.41045 0.49073 0.10392 0.0
H2290 H 0.50148 0.46938 0.15554 0.0
H2291 H 0.42029 0.44162 0.11949 0.0
H2292 H 0.44634 0.35287 0.14898 0.0
H2293 H 0.43251 0.40295 0.15515 0.0
H2294 H 0.51311 0.43071 0.12383 0.0
H2295 H 0.52645 0.38121 0.11757 0.0
C2296 C 0.47553 0.50173 0.13601 0.0
C2297 C 0.45044 0.50812 0.12029 0.0
C2298 C 0.48116 0.47378 0.14504 0.0
C2299 C 0.46202 0.45136 0.13818 0.0
C2300 C 0.43553 0.45831 0.1252 0.0
C2301 C 0.42977 0.48651 0.11638 0.0
C2302 C 0.46141 0.36979 0.14456 0.0
C2303 C 0.48759 0.36324 0.13308 0.0
C2304 C 0.45338 0.39845 0.14772 0.0
C2305 C 0.47161 0.42099 0.13992 0.0
C2306 C 0.4986 0.41411 0.13047 0.0
C2307 C 0.50635 0.38567 0.12688 0.0
H2308 H 0.37846 0.73466 0.67988 0.0
H2309 H 0.29074 0.70816 0.67309 0.0
H2310 H 0.39249 0.6846 0.68322 0.0
H2311 H 0.30461 0.65826 0.67578 0.0
H2312 H 0.33669 0.58369 0.73258 0.0
H2313 H 0.32268 0.63148 0.71723 0.0
H2314 H 0.39435 0.63673 0.66279 0.0
H2315 H 0.40867 0.5893 0.67842 0.0
C2316 C 0.3623 0.7181 0.67782 0.0
C2317 C 0.33356 0.72516 0.67656 0.0
C2318 C 0.37026 0.68942 0.67993 0.0
C2319 C 0.34955 0.66753 0.68059 0.0
C2320 C 0.32099 0.67467 0.67621 0.0
C2321 C 0.31307 0.7032 0.67431 0.0
C2322 C 0.34939 0.59497 0.71726 0.0
C2323 C 0.37387 0.58267 0.70691 0.0
C2324 C 0.34125 0.62228 0.70825 0.0
C2325 C 0.35737 0.63785 0.68864 0.0
C2326 C 0.38163 0.6254 0.67805 0.0
C2327 C 0.38976 0.59814 0.68704 0.0
H2328 H 0.99986 0.35687 0.57136 0.0
H2329 H 0.96462 0.43467 0.60281 0.0
H2330 H 0.95208 0.33574 0.56632 0.0
H2331 H 0.91741 0.41397 0.59816 0.0
H2332 H 0.86773 0.35059 0.50687 0.0
H2333 H 0.91502 0.34957 0.52983 0.0
H2334 H 0.8809 0.37899 0.60886 0.0
H2335 H 0.83376 0.3806 0.5854 0.0
C2336 C 0.98202 0.3689 0.57842 0.0
C2337 C 0.9857 0.39736 0.58737 0.0
C2338 C 0.95469 0.35696 0.57531 0.0
C2339 C 0.93085 0.37323 0.58155 0.0
C2340 C 0.93515 0.40062 0.5934 0.0
C2341 C 0.96224 0.41261 0.59603 0.0
C2342 C 0.87027 0.35556 0.52949 0.0
C2343 C 0.84736 0.36566 0.54447 0.0
C2344 C 0.89733 0.35494 0.54273 0.0
C2345 C 0.90184 0.36463 0.5711 0.0
C2346 C 0.8782 0.37176 0.58689 0.0
C2347 C 0.85121 0.37251 0.57358 0.0
H2348 H 0.6879 0.78127 0.73681 0.0
H2349 H 0.6519 0.77742 0.65045 0.0
H2350 H 0.6659 0.82712 0.74352 0.0
H2351 H 0.62935 0.82339 0.65729 0.0
H2352 H 0.64615 0.92288 0.67179 0.0
H2353 H 0.64833 0.87205 0.66195 0.0
H2354 H 0.62168 0.85343 0.74758 0.0
H2355 H 0.62 0.90465 0.75758 0.0
C2356 C 0.67507 0.79007 0.71923 0.0
C2357 C 0.672 0.77574 0.69284 0.0
C2358 C 0.66205 0.81622 0.72329 0.0
C2359 C 0.64563 0.82886 0.70104 0.0
C2360 C 0.64189 0.81423 0.67486 0.0
C2361 C 0.65488 0.78789 0.67086 0.0
C2362 C 0.63972 0.90793 0.68816 0.0
C2363 C 0.63349 0.91764 0.71563 0.0
C2364 C 0.64088 0.87874 0.68249 0.0
C2365 C 0.63592 0.85871 0.70424 0.0
C2366 C 0.62623 0.86844 0.7306 0.0
C2367 C 0.62494 0.89775 0.73624 0.0
H2368 H 1.00111 0.14462 0.51375 0.0
H2369 H 0.03605 0.11833 0.59611 0.0
H2370 H 0.04774 0.16146 0.50003 0.0
H2371 H 0.08308 0.13473 0.58236 0.0
H2372 H 0.16698 0.16755 0.54969 0.0
H2373 H 0.11835 0.1717 0.56598 0.0
H2374 H 0.08687 0.13069 0.48813 0.0
H2375 H 0.13502 0.12636 0.47236 0.0
C2376 C 0.01858 0.14372 0.52945 0.0
C2377 C 0.01484 0.13059 0.55617 0.0
C2378 C 0.04544 0.15297 0.52145 0.0
C2379 C 0.06938 0.149 0.53983 0.0
C2380 C 0.06517 0.13833 0.56767 0.0
C2381 C 0.03815 0.1291 0.57571 0.0
C2382 C 0.1495 0.16046 0.53567 0.0
C2383 C 0.15476 0.14687 0.50961 0.0
C2384 C 0.12168 0.16248 0.54515 0.0
C2385 C 0.09856 0.15146 0.52846 0.0
C2386 C 0.10392 0.13978 0.50147 0.0
C2387 C 0.1316 0.13729 0.49234 0.0
H2388 H 0.37512 0.26093 0.73751 0.0
H2389 H 0.39559 0.25428 0.82806 0.0
H2390 H 0.39189 0.3101 0.73762 0.0
H2391 H 0.41257 0.30381 0.8284 0.0
H2392 H 0.36401 0.39197 0.82223 0.0
H2393 H 0.37683 0.34175 0.82421 0.0
H2394 H 0.42216 0.35188 0.74617 0.0
H2395 H 0.40884 0.40208 0.74396 0.0
C2396 C 0.38503 0.26946 0.75706 0.0
C2397 C 0.38356 0.25416 0.78286 0.0
C2398 C 0.3945 0.29781 0.75723 0.0
C2399 C 0.40253 0.31118 0.78329 0.0
C2400 C 0.40578 0.29423 0.80814 0.0
C2401 C 0.39652 0.2657 0.80787 0.0
C2402 C 0.3771 0.38357 0.80578 0.0
C2403 C 0.38523 0.40088 0.78285 0.0
C2404 C 0.38485 0.35487 0.80711 0.0
C2405 C 0.40067 0.34278 0.78538 0.0
C2406 C 0.40994 0.36051 0.76319 0.0
C2407 C 0.40231 0.38927 0.76196 0.0
H2408 H 0.51352 0.37559 0.43463 0.0
H2409 H 0.55403 0.45265 0.40471 0.0
H2410 H 0.56011 0.35469 0.445 0.0
H2411 H 0.60025 0.43175 0.41425 0.0
H2412 H 0.67184 0.4058 0.47782 0.0
H2413 H 0.62661 0.42267 0.45836 0.0
H2414 H 0.60524 0.33753 0.42849 0.0
H2415 H 0.65042 0.32047 0.44835 0.0
C2416 C 0.53233 0.38765 0.42937 0.0
C2417 C 0.53018 0.41585 0.41921 0.0
C2418 C 0.55905 0.37576 0.43538 0.0
C2419 C 0.58398 0.39185 0.43113 0.0
C2420 C 0.58157 0.41909 0.41861 0.0
C2421 C 0.55505 0.43096 0.41287 0.0
C2422 C 0.65773 0.3907 0.46682 0.0
C2423 C 0.66493 0.36177 0.4647 0.0
C2424 C 0.63174 0.4004 0.45551 0.0
C2425 C 0.61222 0.38147 0.44172 0.0
C2426 C 0.6196 0.35263 0.43918 0.0
C2427 C 0.64563 0.34292 0.45047 0.0
H2428 H 0.65488 0.23226 0.77684 0.0
H2429 H 0.68485 0.23638 0.86542 0.0
H2430 H 0.65202 0.18059 0.77985 0.0
H2431 H 0.68138 0.18382 0.8685 0.0
H2432 H 0.63615 0.08951 0.85601 0.0
H2433 H 0.64291 0.14112 0.86179 0.0
H2434 H 0.69237 0.14352 0.78613 0.0
H2435 H 0.68585 0.09203 0.78028 0.0
C2436 C 0.66046 0.22216 0.79718 0.0
C2437 C 0.67047 0.2385 0.8208 0.0
C2438 C 0.65904 0.19246 0.79878 0.0
C2439 C 0.66727 0.17814 0.82412 0.0
C2440 C 0.67525 0.19438 0.84856 0.0
C2441 C 0.67699 0.22441 0.84688 0.0
C2442 C 0.64908 0.1009 0.84098 0.0
C2443 C 0.66014 0.0866 0.81741 0.0
C2444 C 0.65295 0.13047 0.84439 0.0
C2445 C 0.66771 0.14636 0.82415 0.0
C2446 C 0.68052 0.1318 0.80184 0.0
C2447 C 0.67694 0.10224 0.7986 0.0
H2448 H 0.46736 0.06531 0.42428 0.0
H2449 H 0.49966 0.15012 0.44277 0.0
H2450 H 0.42019 0.07993 0.43487 0.0
H2451 H 0.45154 0.16569 0.45193 0.0
H2452 H 0.3732 0.17374 0.5055 0.0
H2453 H 0.41922 0.16157 0.48796 0.0
H2454 H 0.3786 0.10308 0.4272 0.0
H2455 H 0.33275 0.11422 0.4461 0.0
C2456 C 0.46414 0.08754 0.42956 0.0
C2457 C 0.48741 0.10646 0.43291 0.0
C2458 C 0.43683 0.09603 0.43568 0.0
C2459 C 0.43167 0.12396 0.445 0.0
C2460 C 0.45462 0.14372 0.44572 0.0
C2461 C 0.48222 0.13504 0.43982 0.0
C2462 C 0.37416 0.15792 0.48869 0.0
C2463 C 0.34923 0.14471 0.47748 0.0
C2464 C 0.40064 0.15127 0.47819 0.0
C2465 C 0.40307 0.13152 0.45573 0.0
C2466 C 0.37801 0.11809 0.44474 0.0
C2467 C 0.35154 0.12438 0.45565 0.0
H2468 H 0.71996 0.39949 0.74714 0.0
H2469 H 0.65182 0.34163 0.72238 0.0
H2470 H 0.72637 0.4116 0.69689 0.0
H2471 H 0.65773 0.35412 0.67216 0.0
H2472 H 0.72997 0.32605 0.61218 0.0
H2473 H 0.70475 0.33382 0.65533 0.0
H2474 H 0.71026 0.42512 0.64234 0.0
H2475 H 0.73542 0.41716 0.59761 0.0
C2476 C 0.70502 0.39094 0.73107 0.0
C2477 C 0.68532 0.36973 0.73856 0.0
C2478 C 0.70874 0.39784 0.70225 0.0
C2479 C 0.69294 0.38336 0.68063 0.0
C2480 C 0.67032 0.36547 0.68846 0.0
C2481 C 0.66667 0.35854 0.71727 0.0
C2482 C 0.72581 0.34788 0.61829 0.0
C2483 C 0.73516 0.37103 0.60178 0.0
C2484 C 0.71085 0.3523 0.64284 0.0
C2485 C 0.70506 0.38006 0.65199 0.0
C2486 C 0.71416 0.40348 0.6355 0.0
C2487 C 0.72867 0.39897 0.61015 0.0
H2488 H 0.73643 0.6218 0.75348 0.0
H2489 H 0.66512 0.67634 0.7652 0.0
H2490 H 0.73674 0.6084 0.80395 0.0
H2491 H 0.66685 0.66557 0.816 0.0
H2492 H 0.675 0.65062 0.90811 0.0
H2493 H 0.66419 0.64155 0.85751 0.0
H2494 H 0.75347 0.62913 0.84471 0.0
H2495 H 0.76332 0.63543 0.89574 0.0
C2496 C 0.72053 0.63053 0.76694 0.0
C2497 C 0.70095 0.65028 0.75578 0.0
C2498 C 0.72093 0.62326 0.79599 0.0
C2499 C 0.70257 0.63664 0.81467 0.0
C2500 C 0.68137 0.65455 0.80268 0.0
C2501 C 0.68034 0.66094 0.77342 0.0
C2502 C 0.69208 0.64533 0.89434 0.0
C2503 C 0.72001 0.64416 0.90542 0.0
C2504 C 0.686 0.64037 0.86527 0.0
C2505 C 0.70793 0.63533 0.84643 0.0
C2506 C 0.73576 0.63258 0.85818 0.0
C2507 C 0.74163 0.63652 0.88748 0.0
H2508 H 0.89594 1.00481 0.50268 0.0
H2509 H 0.90504 0.09021 0.46913 0.0
H2510 H 0.87521 0.98881 0.45683 0.0
H2511 H 0.88569 0.07406 0.42245 0.0
H2512 H 0.85125 0.04023 0.3389 0.0
H2513 H 0.85016 0.0549 0.38931 0.0
H2514 H 0.89659 0.97909 0.41405 0.0
H2515 H 0.89694 0.9646 0.3644 0.0
C2516 C 0.89315 0.02024 0.48546 0.0
C2517 C 0.90229 0.04866 0.48929 0.0
C2518 C 0.88141 0.01107 0.4591 0.0
C2519 C 0.87931 0.0299 0.43554 0.0
C2520 C 0.88672 0.05891 0.44002 0.0
C2521 C 0.89793 0.06823 0.46675 0.0
C2522 C 0.85996 0.02616 0.3554 0.0
C2523 C 0.87413 1.00126 0.34786 0.0
C2524 C 0.85981 0.03478 0.38423 0.0
C2525 C 0.87368 0.01848 0.40591 0.0
C2526 C 0.8854 0.9922 0.39829 0.0
C2527 C 0.88563 0.98376 0.36969 0.0
H2528 H 0.32975 0.87421 0.77115 0.0
H2529 H 0.35656 0.793 0.80556 0.0
H2530 H 0.31194 0.88708 0.81695 0.0
H2531 H 0.34115 0.80662 0.8527 0.0
H2532 H 0.26445 0.8132 0.90936 0.0
H2533 H 0.2974 0.80603 0.87118 0.0
H2534 H 0.30789 0.89784 0.86311 0.0
H2535 H 0.27296 0.90446 0.8989 0.0
C2536 C 0.33367 0.85995 0.78918 0.0
C2537 C 0.344 0.83248 0.78482 0.0
C2538 C 0.32315 0.86716 0.81568 0.0
C2539 C 0.32377 0.84732 0.83855 0.0
C2540 C 0.33886 0.82187 0.83529 0.0
C2541 C 0.34852 0.81433 0.80849 0.0
C2542 C 0.27352 0.83165 0.89885 0.0
C2543 C 0.26541 0.85926 0.9061 0.0
C2544 C 0.29294 0.82771 0.87738 0.0
C2545 C 0.30551 0.85139 0.86361 0.0
C2546 C 0.29819 0.879 0.87222 0.0
C2547 C 0.27805 0.88285 0.89277 0.0
H2548 H 0.64762 0.93841 0.01517 0.0
H2549 H 0.58013 0.89105 0.97183 0.0
H2550 H 0.66825 0.94898 0.96911 0.0
H2551 H 0.59859 0.90331 0.92614 0.0
H2552 H 0.63284 0.92977 0.84273 0.0
H2553 H 0.62467 0.90659 0.8883 0.0
H2554 H 0.66144 0.98018 0.93271 0.0
H2555 H 0.67213 1.00157 0.88664 0.0
C2556 C 0.63791 0.92917 0.99587 0.0
C2557 C 0.61224 0.91396 0.99708 0.0
C2558 C 0.64914 0.93604 0.96922 0.0
C2559 C 0.63459 0.92829 0.94326 0.0
C2560 C 0.6108 0.91001 0.94505 0.0
C2561 C 0.60012 0.90263 0.97156 0.0
C2562 C 0.63885 0.94099 0.86236 0.0
C2563 C 0.6525 0.9677 0.86126 0.0
C2564 C 0.63419 0.92772 0.88872 0.0
C2565 C 0.6421 0.94128 0.91489 0.0
C2566 C 0.65551 0.96839 0.91347 0.0
C2567 C 0.66114 0.98112 0.887 0.0
H2568 H 0.82716 0.63725 0.24535 0.0
H2569 H 0.74336 0.67209 0.23654 0.0
H2570 H 0.82458 0.62355 0.19486 0.0
H2571 H 0.74 0.65735 0.1865 0.0
H2572 H 0.80641 0.5943 0.10262 0.0
H2573 H 0.80516 0.59756 0.15454 0.0
H2574 H 0.76173 0.67804 0.14608 0.0
H2575 H 0.76204 0.67427 0.09416 0.0
C2576 C 0.80759 0.64049 0.23297 0.0
C2577 C 0.78545 0.65566 0.24466 0.0
C2578 C 0.80616 0.63293 0.20394 0.0
C2579 C 0.7824 0.64019 0.18636 0.0
C2580 C 0.75899 0.65233 0.19915 0.0
C2581 C 0.76063 0.66024 0.22795 0.0
C2582 C 0.79672 0.61281 0.1118 0.0
C2583 C 0.78433 0.63408 0.09412 0.0
C2584 C 0.796 0.61462 0.14164 0.0
C2585 C 0.78299 0.63781 0.15458 0.0
C2586 C 0.77124 0.65943 0.13689 0.0
C2587 C 0.77178 0.65753 0.10705 0.0
H2588 H 0.88269 0.94464 0.99856 0.0
H2589 H 0.96383 0.9808 0.02604 0.0
H2590 H 0.8655 0.95227 0.04683 0.0
H2591 H 0.94667 0.98869 0.0734 0.0
H2592 H 0.91737 0.97112 0.16355 0.0
H2593 H 0.9334 0.96216 0.11548 0.0
H2594 H 0.85364 0.99186 0.07918 0.0
H2595 H 0.83742 1.00058 0.12721 0.0
C2596 C 0.89684 0.95415 0.01475 0.0
C2597 C 0.92465 0.96204 0.00829 0.0
C2598 C 0.88697 0.95868 0.04237 0.0
C2599 C 0.90478 0.97101 0.06404 0.0
C2600 C 0.93251 0.97875 0.05746 0.0
C2601 C 0.94228 0.97435 0.03007 0.0
C2602 C 0.90333 0.97607 0.14537 0.0
C2603 C 0.87614 0.98674 0.14939 0.0
C2604 C 0.91251 0.97086 0.11775 0.0
C2605 C 0.89474 0.97616 0.09343 0.0
C2606 C 0.86769 0.98711 0.09742 0.0
C2607 C 0.85853 0.9924 0.12502 0.0
H2608 H 0.10811 0.59597 0.0363 0.0
H2609 H 0.12084 0.50796 0.0133 0.0
H2610 H 0.12434 0.5855 0.08556 0.0
H2611 H 0.13703 0.49743 0.0624 0.0
H2612 H 0.15899 0.55884 0.1733 0.0
H2613 H 0.16215 0.56804 0.12154 0.0
H2614 H 0.10655 0.49565 0.10389 0.0
H2615 H 0.10335 0.48688 0.15498 0.0
C2616 C 0.11537 0.57467 0.04154 0.0
C2617 C 0.1131 0.55276 0.02109 0.0
C2618 C 0.12467 0.56864 0.06974 0.0
C2619 C 0.13169 0.54055 0.07789 0.0
C2620 C 0.13139 0.51918 0.05683 0.0
C2621 C 0.12206 0.52519 0.02877 0.0
C2622 C 0.14823 0.54451 0.15815 0.0
C2623 C 0.13082 0.52228 0.16786 0.0
C2624 C 0.14984 0.54986 0.12866 0.0
C2625 C 0.13452 0.53263 0.10867 0.0
C2626 C 0.11887 0.50914 0.11864 0.0
C2627 C 0.1169 0.50416 0.1479 0.0
loop_
_geom_bond_atom_site_label_1
_geom_bond_atom_site_label_2
_geom_bond_distance
_geom_bond_site_symmetry_2
_ccdc_geom_bond_type
Zn0 O6 1.920 . S
Zn0 O12 1.898 . S
Zn0 O15 1.905 . S
Zn1 O9 1.905 . S
Zn1 O10 1.898 . S
Zn1 O18 1.920 . S
Zn2 O5 2.080 . S
Zn2 O8 2.114 . S
Zn2 O11 2.120 . S
Zn2 O13 2.120 . S
Zn2 O14 2.114 . S
Zn2 O17 2.080 . S
C3 O8 1.166 . S
C3 O9 1.182 . S
C4 O10 1.167 . S
C4 O11 1.299 . S
O5 Zn2 2.080 . S
O5 C19 1.305 . S
O6 Zn0 1.920 . S
O6 C19 1.234 . S
C7 O12 1.167 . S
C7 O13 1.299 . S
O8 Zn2 2.114 . S
O8 C3 1.166 . S
O9 Zn1 1.905 . S
O9 C3 1.182 . S
O10 Zn1 1.898 . S
O10 C4 1.167 . S
O11 Zn2 2.120 . S
O11 C4 1.299 . S
O12 Zn0 1.898 . S
O12 C7 1.167 . S
O13 Zn2 2.120 . S
O13 C7 1.299 . S
O14 Zn2 2.114 . S
O14 C16 1.166 . S
O15 Zn0 1.905 . S
O15 C16 1.182 . S
C16 O14 1.166 . S
C16 O15 1.182 . S
O17 Zn2 2.080 . S
O17 C20 1.305 . S
O18 Zn1 1.920 . S
O18 C20 1.234 . S
C19 O5 1.305 . S
C19 O6 1.234 . S
C20 O17 1.305 . S
C20 O18 1.234 . S
Zn21 O27 1.920 . S
Zn21 O33 1.898 . S
Zn21 O36 1.905 . S
Zn22 O30 1.905 . S
Zn22 O31 1.898 . S
Zn22 O39 1.944 . S
Zn23 O26 2.080 . S
Zn23 O29 2.114 . S
Zn23 O32 2.120 . S
Zn23 O34 2.120 . S
Zn23 O35 2.114 . S
Zn23 O38 2.080 . S
C24 O29 1.166 . S
C24 O30 1.182 . S
C25 O31 1.167 . S
C25 O32 1.299 . S
O26 Zn23 2.080 . S
O26 C40 1.305 . S
O27 Zn21 1.920 . S
O27 C40 1.234 . S
C28 O33 1.167 . S
C28 O34 1.299 . S
O29 Zn23 2.114 . S
O29 C24 1.166 . S
O30 Zn22 1.905 . S
O30 C24 1.182 . S
O31 Zn22 1.898 . S
O31 C25 1.167 . S
O32 Zn23 2.120 . S
O32 C25 1.299 . S
O33 Zn21 1.898 . S
O33 C28 1.167 . S
O34 Zn23 2.120 . S
O34 C28 1.299 . S
O35 Zn23 2.114 . S
O35 C37 1.166 . S
O36 Zn21 1.905 . S
O36 C37 1.182 . S
C37 O35 1.166 . S
C37 O36 1.182 . S
O38 Zn23 2.080 . S
O38 C41 1.305 . S
O39 Zn22 1.944 . S
O39 C41 1.245 . S
C40 O26 1.305 . S
C40 O27 1.234 . S
C41 O38 1.305 . S
C41 O39 1.245 . S
Zn42 O48 1.920 . S
Zn42 O54 1.898 . S
Zn42 O57 1.905 . S
Zn43 O51 1.905 . S
Zn43 O52 1.898 . S
Zn43 O60 1.920 . S
Zn44 O47 2.080 . S
Zn44 O50 2.114 . S
Zn44 O53 2.120 . S
Zn44 O55 2.120 . S
Zn44 O56 2.114 . S
Zn44 O59 2.080 . S
C45 O50 1.166 . S
C45 O51 1.182 . S
C46 O52 1.167 . S
C46 O53 1.299 . S
O47 Zn44 2.080 . S
O47 C61 1.305 . S
O48 Zn42 1.920 . S
O48 C61 1.234 . S
C49 O54 1.167 . S
C49 O55 1.299 . S
O50 Zn44 2.114 . S
O50 C45 1.166 . S
O51 Zn43 1.905 . S
O51 C45 1.182 . S
O52 Zn43 1.898 . S
O52 C46 1.167 . S
O53 Zn44 2.120 . S
O53 C46 1.299 . S
O54 Zn42 1.898 . S
O54 C49 1.167 . S
O55 Zn44 2.120 . S
O55 C49 1.299 . S
O56 Zn44 2.114 . S
O56 C58 1.166 . S
O57 Zn42 1.905 . S
O57 C58 1.182 . S
C58 O56 1.166 . S
C58 O57 1.182 . S
O59 Zn44 2.080 . S
O59 C62 1.305 . S
O60 Zn43 1.920 . S
O60 C62 1.234 . S
C61 O47 1.305 . S
C61 O48 1.234 . S
C62 O59 1.305 . S
C62 O60 1.234 . S
Zn63 O69 1.920 . S
Zn63 O75 1.898 . S
Zn63 O78 1.905 . S
Zn64 O72 1.905 . S
Zn64 O73 1.898 . S
Zn64 O81 1.920 . S
Zn65 O68 2.080 . S
Zn65 O71 2.114 . S
Zn65 O74 2.120 . S
Zn65 O76 2.120 . S
Zn65 O77 2.114 . S
Zn65 O80 2.080 . S
C66 O71 1.166 . S
C66 O72 1.182 . S
C67 O73 1.167 . S
C67 O74 1.299 . S
O68 Zn65 2.080 . S
O68 C82 1.305 . S
O69 Zn63 1.920 . S
O69 C82 1.234 . S
C70 O75 1.167 . S
C70 O76 1.299 . S
O71 Zn65 2.114 . S
O71 C66 1.166 . S
O72 Zn64 1.905 . S
O72 C66 1.182 . S
O73 Zn64 1.898 . S
O73 C67 1.167 . S
O74 Zn65 2.120 . S
O74 C67 1.299 . S
O75 Zn63 1.898 . S
O75 C70 1.167 . S
O76 Zn65 2.120 . S
O76 C70 1.299 . S
O77 Zn65 2.114 . S
O77 C79 1.166 . S
O78 Zn63 1.905 . S
O78 C79 1.182 . S
C79 O77 1.166 . S
C79 O78 1.182 . S
O80 Zn65 2.080 . S
O80 C83 1.305 . S
O81 Zn64 1.920 . S
O81 C83 1.234 . S
C82 O68 1.305 . S
C82 O69 1.234 . S
C83 O80 1.305 . S
C83 O81 1.234 . S
Zn84 O90 1.920 . S
Zn84 O96 1.898 . S
Zn84 O99 1.905 . S
Zn85 O93 1.905 . S
Zn85 O94 1.898 . S
Zn85 O102 1.920 . S
Zn86 O89 2.080 . S
Zn86 O92 2.114 . S
Zn86 O95 2.120 . S
Zn86 O97 2.120 . S
Zn86 O98 2.114 . S
Zn86 O101 2.080 . S
C87 O92 1.166 . S
C87 O93 1.182 . S
C88 O94 1.167 . S
C88 O95 1.299 . S
O89 Zn86 2.080 . S
O89 C103 1.305 . S
O90 Zn84 1.920 . S
O90 C103 1.234 . S
C91 O96 1.167 . S
C91 O97 1.299 . S
O92 Zn86 2.114 . S
O92 C87 1.166 . S
O93 Zn85 1.905 . S
O93 C87 1.182 . S
O94 Zn85 1.898 . S
O94 C88 1.167 . S
O95 Zn86 2.120 . S
O95 C88 1.299 . S
O96 Zn84 1.898 . S
O96 C91 1.167 . S
O97 Zn86 2.120 . S
O97 C91 1.299 . S
O98 Zn86 2.114 . S
O98 C100 1.166 . S
O99 Zn84 1.905 . S
O99 C100 1.182 . S
C100 O98 1.166 . S
C100 O99 1.182 . S
O101 Zn86 2.080 . S
O101 C104 1.305 . S
O102 Zn85 1.920 . S
O102 C104 1.234 . S
C103 O89 1.305 . S
C103 O90 1.234 . S
C104 O101 1.305 . S
C104 O102 1.234 . S
Zn105 O111 1.920 . S
Zn105 O117 1.898 1_556 S
Zn105 O120 1.905 . S
Zn106 O114 1.905 . S
Zn106 O115 1.898 . S
Zn106 O123 1.920 . S
Zn107 O110 2.080 . S
Zn107 O113 2.114 . S
Zn107 O116 2.120 . S
Zn107 O118 2.120 . S
Zn107 O119 2.114 . S
Zn107 O122 2.080 . S
C108 O113 1.166 . S
C108 O114 1.182 . S
C109 O115 1.167 . S
C109 O116 1.299 . S
O110 Zn107 2.080 . S
O110 C124 1.305 . S
O111 Zn105 1.920 . S
O111 C124 1.234 . S
C112 O117 1.167 . S
C112 O118 1.299 1_554 S
O113 Zn107 2.114 . S
O113 C108 1.166 . S
O114 Zn106 1.905 . S
O114 C108 1.182 . S
O115 Zn106 1.898 . S
O115 C109 1.167 . S
O116 Zn107 2.120 . S
O116 C109 1.299 . S
O117 Zn105 1.898 1_554 S
O117 C112 1.167 . S
O118 Zn107 2.120 . S
O118 C112 1.299 1_556 S
O119 Zn107 2.114 . S
O119 C121 1.166 . S
O120 Zn105 1.905 . S
O120 C121 1.182 . S
C121 O119 1.166 . S
C121 O120 1.182 . S
O122 Zn107 2.080 . S
O122 C125 1.305 . S
O123 Zn106 1.920 . S
O123 C125 1.234 . S
C124 O110 1.305 . S
C124 O111 1.234 . S
C125 O122 1.305 . S
C125 O123 1.234 . S
Zn126 O132 1.920 . S
Zn126 O138 1.898 . S
Zn126 O141 1.905 . S
Zn127 O135 1.905 . S
Zn127 O136 1.898 . S
Zn127 O144 1.920 . S
Zn128 O131 2.080 . S
Zn128 O134 2.114 . S
Zn128 O137 2.120 . S
Zn128 O139 2.120 . S
Zn128 O140 2.114 . S
Zn128 O143 2.080 . S
C129 O134 1.166 . S
C129 O135 1.182 . S
C130 O136 1.167 . S
C130 O137 1.299 . S
O131 Zn128 2.080 . S
O131 C145 1.305 . S
O132 Zn126 1.920 . S
O132 C145 1.234 . S
C133 O138 1.167 . S
C133 O139 1.299 . S
O134 Zn128 2.114 . S
O134 C129 1.166 . S
O135 Zn127 1.905 . S
O135 C129 1.182 . S
O136 Zn127 1.898 . S
O136 C130 1.167 . S
O137 Zn128 2.120 . S
O137 C130 1.299 . S
O138 Zn126 1.898 . S
O138 C133 1.167 . S
O139 Zn128 2.120 . S
O139 C133 1.299 . S
O140 Zn128 2.114 . S
O140 C142 1.166 . S
O141 Zn126 1.905 . S
O141 C142 1.182 . S
C142 O140 1.166 . S
C142 O141 1.182 . S
O143 Zn128 2.080 . S
O143 C146 1.305 . S
O144 Zn127 1.920 . S
O144 C146 1.234 . S
C145 O131 1.305 . S
C145 O132 1.234 . S
C146 O143 1.305 . S
C146 O144 1.234 . S
Zn147 O153 1.920 . S
Zn147 O159 1.898 . S
Zn147 O162 1.905 . S
Zn148 O156 1.905 . S
Zn148 O157 1.898 . S
Zn148 O165 1.920 . S
Zn149 O152 2.080 . S
Zn149 O155 2.114 . S
Zn149 O158 2.120 . S
Zn149 O160 2.120 . S
Zn149 O161 2.114 . S
Zn149 O164 2.080 . S
C150 O155 1.166 . S
C150 O156 1.182 . S
C151 O157 1.167 . S
C151 O158 1.299 . S
O152 Zn149 2.080 . S
O152 C166 1.305 . S
O153 Zn147 1.920 . S
O153 C166 1.234 . S
C154 O159 1.167 . S
C154 O160 1.299 . S
O155 Zn149 2.114 . S
O155 C150 1.166 . S
O156 Zn148 1.905 . S
O156 C150 1.182 . S
O157 Zn148 1.898 . S
O157 C151 1.167 . S
O158 Zn149 2.120 . S
O158 C151 1.299 . S
O159 Zn147 1.898 . S
O159 C154 1.167 . S
O160 Zn149 2.120 . S
O160 C154 1.299 . S
O161 Zn149 2.114 . S
O161 C163 1.166 . S
O162 Zn147 1.905 . S
O162 C163 1.182 . S
C163 O161 1.166 . S
C163 O162 1.182 . S
O164 Zn149 2.080 . S
O164 C167 1.305 . S
O165 Zn148 1.920 . S
O165 C167 1.234 . S
C166 O152 1.305 . S
C166 O153 1.234 . S
C167 O164 1.305 . S
C167 O165 1.234 . S
Zn168 O174 1.920 . S
Zn168 O180 1.898 . S
Zn168 O183 1.905 . S
Zn169 O177 1.905 . S
Zn169 O178 1.898 . S
Zn169 O186 1.920 . S
Zn170 O173 2.080 . S
Zn170 O176 2.114 . S
Zn170 O179 2.120 . S
Zn170 O181 2.120 . S
Zn170 O182 2.114 . S
Zn170 O185 2.080 . S
C171 O176 1.166 . S
C171 O177 1.182 . S
C172 O178 1.167 . S
C172 O179 1.299 . S
O173 Zn170 2.080 . S
O173 C187 1.305 . S
O174 Zn168 1.920 . S
O174 C187 1.234 . S
C175 O180 1.167 . S
C175 O181 1.299 . S
O176 Zn170 2.114 . S
O176 C171 1.166 . S
O177 Zn169 1.905 . S
O177 C171 1.182 . S
O178 Zn169 1.898 . S
O178 C172 1.167 . S
O179 Zn170 2.120 . S
O179 C172 1.299 . S
O180 Zn168 1.898 . S
O180 C175 1.167 . S
O181 Zn170 2.120 . S
O181 C175 1.299 . S
O182 Zn170 2.114 . S
O182 C184 1.166 . S
O183 Zn168 1.905 . S
O183 C184 1.182 . S
C184 O182 1.166 . S
C184 O183 1.182 . S
O185 Zn170 2.080 . S
O185 C188 1.305 . S
O186 Zn169 1.920 . S
O186 C188 1.234 . S
C187 O173 1.305 . S
C187 O174 1.234 . S
C188 O185 1.305 . S
C188 O186 1.234 . S
Zn189 O195 1.920 . S
Zn189 O201 1.898 . S
Zn189 O204 1.905 . S
Zn190 O198 1.905 . S
Zn190 O199 1.898 . S
Zn190 O207 1.920 . S
Zn191 O194 2.080 . S
Zn191 O197 2.114 . S
Zn191 O200 2.120 . S
Zn191 O202 2.120 . S
Zn191 O203 2.114 . S
Zn191 O206 2.080 . S
C192 O197 1.166 . S
C192 O198 1.182 . S
C193 O199 1.167 . S
C193 O200 1.299 . S
O194 Zn191 2.080 . S
O194 C208 1.305 . S
O195 Zn189 1.920 . S
O195 C208 1.234 . S
C196 O201 1.167 . S
C196 O202 1.299 . S
O197 Zn191 2.114 . S
O197 C192 1.166 . S
O198 Zn190 1.905 . S
O198 C192 1.182 . S
O199 Zn190 1.898 . S
O199 C193 1.167 . S
O200 Zn191 2.120 . S
O200 C193 1.299 . S
O201 Zn189 1.898 . S
O201 C196 1.167 . S
O202 Zn191 2.120 . S
O202 C196 1.299 . S
O203 Zn191 2.114 . S
O203 C205 1.166 . S
O204 Zn189 1.905 . S
O204 C205 1.182 . S
C205 O203 1.166 . S
C205 O204 1.182 . S
O206 Zn191 2.080 . S
O206 C209 1.305 . S
O207 Zn190 1.920 . S
O207 C209 1.234 . S
C208 O194 1.305 . S
C208 O195 1.234 . S
C209 O206 1.305 . S
C209 O207 1.234 . S
Zn210 O216 1.920 . S
Zn210 O222 1.898 . S
Zn210 O225 1.905 . S
Zn211 O219 1.905 . S
Zn211 O220 1.898 . S
Zn211 O228 1.920 . S
Zn212 O215 2.080 . S
Zn212 O218 2.114 . S
Zn212 O221 2.120 . S
Zn212 O223 2.120 . S
Zn212 O224 2.114 . S
Zn212 O227 2.080 . S
C213 O218 1.166 . S
C213 O219 1.182 . S
C214 O220 1.167 . S
C214 O221 1.299 . S
O215 Zn212 2.080 . S
O215 C229 1.305 . S
O216 Zn210 1.920 . S
O216 C229 1.234 . S
C217 O222 1.167 . S
C217 O223 1.299 . S
O218 Zn212 2.114 . S
O218 C213 1.166 . S
O219 Zn211 1.905 . S
O219 C213 1.182 . S
O220 Zn211 1.898 . S
O220 C214 1.167 . S
O221 Zn212 2.120 . S
O221 C214 1.299 . S
O222 Zn210 1.898 . S
O222 C217 1.167 . S
O223 Zn212 2.120 . S
O223 C217 1.299 . S
O224 Zn212 2.114 . S
O224 C226 1.166 . S
O225 Zn210 1.905 . S
O225 C226 1.182 . S
C226 O224 1.166 . S
C226 O225 1.182 . S
O227 Zn212 2.080 . S
O227 C230 1.305 . S
O228 Zn211 1.920 . S
O228 C230 1.234 . S
C229 O215 1.305 . S
C229 O216 1.234 . S
C230 O227 1.305 . S
C230 O228 1.234 . S
Zn231 O237 1.920 . S
Zn231 O243 1.898 . S
Zn231 O246 1.905 . S
Zn232 O240 1.905 . S
Zn232 O241 1.898 . S
Zn232 O249 1.920 . S
Zn233 O236 2.080 . S
Zn233 O239 2.114 . S
Zn233 O242 2.120 . S
Zn233 O244 2.120 . S
Zn233 O245 2.114 . S
Zn233 O248 2.080 . S
C234 O239 1.166 . S
C234 O240 1.182 . S
C235 O241 1.167 . S
C235 O242 1.299 . S
O236 Zn233 2.080 . S
O236 C250 1.305 . S
O237 Zn231 1.920 . S
O237 C250 1.234 . S
C238 O243 1.167 . S
C238 O244 1.299 . S
O239 Zn233 2.114 . S
O239 C234 1.166 . S
O240 Zn232 1.905 . S
O240 C234 1.182 . S
O241 Zn232 1.898 . S
O241 C235 1.167 . S
O242 Zn233 2.120 . S
O242 C235 1.299 . S
O243 Zn231 1.898 . S
O243 C238 1.167 . S
O244 Zn233 2.120 . S
O244 C238 1.299 . S
O245 Zn233 2.114 . S
O245 C247 1.166 . S
O246 Zn231 1.905 . S
O246 C247 1.182 . S
C247 O245 1.166 . S
C247 O246 1.182 . S
O248 Zn233 2.080 . S
O248 C251 1.305 . S
O249 Zn232 1.920 . S
O249 C251 1.234 . S
C250 O236 1.305 . S
C250 O237 1.234 . S
C251 O248 1.305 . S
C251 O249 1.234 . S
Zn252 O258 1.920 . S
Zn252 O264 1.898 . S
Zn252 O267 1.905 . S
Zn253 O261 1.905 . S
Zn253 O262 1.898 . S
Zn253 O270 1.920 . S
Zn254 O257 2.080 . S
Zn254 O260 2.114 . S
Zn254 O263 2.120 . S
Zn254 O265 2.120 . S
Zn254 O266 2.114 . S
Zn254 O269 2.080 . S
C255 O260 1.166 . S
C255 O261 1.182 . S
C256 O262 1.167 . S
C256 O263 1.299 . S
O257 Zn254 2.080 . S
O257 C271 1.305 . S
O258 Zn252 1.920 . S
O258 C271 1.234 . S
C259 O264 1.167 . S
C259 O265 1.299 . S
O260 Zn254 2.114 . S
O260 C255 1.166 . S
O261 Zn253 1.905 . S
O261 C255 1.182 . S
O262 Zn253 1.898 . S
O262 C256 1.167 . S
O263 Zn254 2.120 . S
O263 C256 1.299 . S
O264 Zn252 1.898 . S
O264 C259 1.167 . S
O265 Zn254 2.120 . S
O265 C259 1.299 . S
O266 Zn254 2.114 . S
O266 C268 1.166 . S
O267 Zn252 1.905 . S
O267 C268 1.182 . S
C268 O266 1.166 . S
C268 O267 1.182 . S
O269 Zn254 2.080 . S
O269 C272 1.305 . S
O270 Zn253 1.920 . S
O270 C272 1.234 . S
C271 O257 1.305 . S
C271 O258 1.234 . S
C272 O269 1.305 . S
C272 O270 1.234 . S
Zn273 O279 1.920 . S
Zn273 O285 1.898 . S
Zn273 O288 1.905 . S
Zn274 O282 1.905 . S
Zn274 O283 1.898 . S
Zn274 O291 1.920 . S
Zn275 O278 2.080 . S
Zn275 O281 2.114 . S
Zn275 O284 2.120 . S
Zn275 O286 2.120 . S
Zn275 O287 2.114 . S
Zn275 O290 2.080 . S
C276 O281 1.166 . S
C276 O282 1.182 . S
C277 O283 1.167 . S
C277 O284 1.299 . S
O278 Zn275 2.080 . S
O278 C292 1.305 . S
O279 Zn273 1.920 . S
O279 C292 1.234 . S
C280 O285 1.167 . S
C280 O286 1.299 . S
O281 Zn275 2.114 . S
O281 C276 1.166 . S
O282 Zn274 1.905 . S
O282 C276 1.182 . S
O283 Zn274 1.898 . S
O283 C277 1.167 . S
O284 Zn275 2.120 . S
O284 C277 1.299 . S
O285 Zn273 1.898 . S
O285 C280 1.167 . S
O286 Zn275 2.120 . S
O286 C280 1.299 . S
O287 Zn275 2.114 . S
O287 C289 1.166 . S
O288 Zn273 1.905 . S
O288 C289 1.182 . S
C289 O287 1.166 . S
C289 O288 1.182 . S
O290 Zn275 2.080 . S
O290 C293 1.305 . S
O291 Zn274 1.920 . S
O291 C293 1.234 . S
C292 O278 1.305 . S
C292 O279 1.234 . S
C293 O290 1.305 . S
C293 O291 1.234 . S
Zn294 O300 1.920 . S
Zn294 O306 1.898 . S
Zn294 O309 1.905 . S
Zn295 O303 1.905 . S
Zn295 O304 1.898 . S
Zn295 O312 1.920 . S
Zn296 O299 2.080 . S
Zn296 O302 2.114 . S
Zn296 O305 2.120 . S
Zn296 O307 2.120 . S
Zn296 O308 2.114 . S
Zn296 O311 2.080 . S
C297 O302 1.166 . S
C297 O303 1.182 . S
C298 O304 1.167 . S
C298 O305 1.299 . S
O299 Zn296 2.080 . S
O299 C313 1.305 . S
O300 Zn294 1.920 . S
O300 C313 1.234 . S
C301 O306 1.167 . S
C301 O307 1.299 . S
O302 Zn296 2.114 . S
O302 C297 1.166 . S
O303 Zn295 1.905 . S
O303 C297 1.182 . S
O304 Zn295 1.898 . S
O304 C298 1.167 . S
O305 Zn296 2.120 . S
O305 C298 1.299 . S
O306 Zn294 1.898 . S
O306 C301 1.167 . S
O307 Zn296 2.120 . S
O307 C301 1.299 . S
O308 Zn296 2.114 . S
O308 C310 1.166 . S
O309 Zn294 1.905 . S
O309 C310 1.182 . S
C310 O308 1.166 . S
C310 O309 1.182 . S
O311 Zn296 2.080 . S
O311 C314 1.305 . S
O312 Zn295 1.920 . S
O312 C314 1.234 . S
C313 O299 1.305 . S
C313 O300 1.234 . S
C314 O311 1.305 . S
C314 O312 1.234 . S
Zn315 O321 1.920 . S
Zn315 O327 1.898 . S
Zn315 O330 1.905 . S
Zn316 O324 1.905 . S
Zn316 O325 1.898 . S
Zn316 O333 1.920 . S
Zn317 O320 2.080 . S
Zn317 O323 2.114 . S
Zn317 O326 2.120 . S
Zn317 O328 2.120 . S
Zn317 O329 2.114 . S
Zn317 O332 2.080 . S
C318 O323 1.166 . S
C318 O324 1.182 . S
C319 O325 1.167 . S
C319 O326 1.299 . S
O320 Zn317 2.080 . S
O320 C334 1.305 . S
O321 Zn315 1.920 . S
O321 C334 1.234 . S
C322 O327 1.167 . S
C322 O328 1.299 . S
O323 Zn317 2.114 . S
O323 C318 1.166 . S
O324 Zn316 1.905 . S
O324 C318 1.182 . S
O325 Zn316 1.898 . S
O325 C319 1.167 . S
O326 Zn317 2.120 . S
O326 C319 1.299 . S
O327 Zn315 1.898 . S
O327 C322 1.167 . S
O328 Zn317 2.120 . S
O328 C322 1.299 . S
O329 Zn317 2.114 . S
O329 C331 1.166 . S
O330 Zn315 1.905 . S
O330 C331 1.182 . S
C331 O329 1.166 . S
C331 O330 1.182 . S
O332 Zn317 2.080 . S
O332 C335 1.305 . S
O333 Zn316 1.920 . S
O333 C335 1.234 . S
C334 O320 1.305 . S
C334 O321 1.234 . S
C335 O332 1.305 . S
C335 O333 1.234 . S
C336 O348 1.241 . S
C336 O349 1.280 . S
C337 O350 1.277 . S
C337 O351 1.245 . S
C338 O362 1.247 . S
C338 O364 1.289 . S
Mg339 O340 1.926 1_455 S
Mg339 O349 1.984 1_455 S
Mg339 O351 1.988 . S
Mg339 O352 2.061 1_455 S
O340 Mg339 1.926 1_655 S
O340 Mg341 1.986 . S
O340 Mg342 1.917 1_655 S
Mg341 O340 1.986 . S
Mg341 O348 2.042 . S
Mg341 O350 2.041 1_655 S
Mg341 O356 2.038 . S
Mg341 O364 2.238 1_655 S
Mg342 O340 1.917 1_455 S
Mg342 O343 1.917 . S
Mg342 O353 2.106 1_455 S
Mg342 O355 2.079 1_455 S
Mg342 O364 2.106 . S
Mg342 O365 2.079 . S
O343 Mg342 1.917 . S
O343 Mg344 1.926 1_455 S
O343 Mg345 1.986 . S
Mg344 O343 1.926 1_655 S
Mg344 O358 1.984 1_655 S
Mg344 O361 1.988 . S
Mg344 O362 2.061 1_655 S
Mg345 O343 1.986 . S
Mg345 O353 2.238 1_455 S
Mg345 O357 2.042 . S
Mg345 O359 2.041 1_455 S
Mg345 O366 2.038 . S
C346 O352 1.247 . S
C346 O353 1.289 . S
C347 O365 1.245 . S
C347 O366 1.274 . S
O348 C336 1.241 . S
O348 Mg341 2.042 . S
O349 C336 1.280 . S
O349 Mg339 1.984 1_655 S
O350 C337 1.277 . S
O350 Mg341 2.041 1_455 S
O351 C337 1.245 . S
O351 Mg339 1.988 . S
O352 Mg339 2.061 1_655 S
O352 C346 1.247 . S
O353 Mg342 2.106 1_655 S
O353 Mg345 2.238 1_655 S
O353 C346 1.289 . S
C354 O355 1.245 . S
C354 O356 1.274 . S
O355 Mg342 2.079 1_655 S
O355 C354 1.245 . S
O356 Mg341 2.038 . S
O356 C354 1.274 . S
O357 Mg345 2.042 . S
O357 C360 1.241 . S
O358 Mg344 1.984 1_455 S
O358 C360 1.280 . S
O359 Mg345 2.041 1_655 S
O359 C363 1.277 . S
C360 O357 1.241 . S
C360 O358 1.280 . S
O361 Mg344 1.988 . S
O361 C363 1.245 . S
O362 C338 1.247 . S
O362 Mg344 2.061 1_455 S
C363 O359 1.277 . S
C363 O361 1.245 . S
O364 C338 1.289 . S
O364 Mg341 2.238 1_455 S
O364 Mg342 2.106 . S
O365 Mg342 2.079 . S
O365 C347 1.245 . S
O366 Mg345 2.038 . S
O366 C347 1.274 . S
C367 O379 1.241 . S
C367 O380 1.280 . S
C368 O381 1.277 . S
C368 O382 1.245 . S
C369 O393 1.247 . S
C369 O395 1.289 . S
Mg370 O371 1.926 . S
Mg370 O380 1.984 . S
Mg370 O382 1.988 . S
Mg370 O383 2.061 . S
O371 Mg370 1.926 . S
O371 Mg372 1.986 . S
O371 Mg373 1.917 . S
Mg372 O371 1.986 . S
Mg372 O379 2.042 . S
Mg372 O381 2.041 . S
Mg372 O387 2.038 . S
Mg372 O395 2.238 . S
Mg373 O371 1.917 . S
Mg373 O374 1.917 . S
Mg373 O384 2.106 . S
Mg373 O386 2.079 . S
Mg373 O395 2.106 . S
Mg373 O396 2.079 . S
O374 Mg373 1.917 . S
O374 Mg375 1.926 . S
O374 Mg376 1.986 . S
Mg375 O374 1.926 . S
Mg375 O389 1.984 . S
Mg375 O392 1.988 . S
Mg375 O393 2.061 . S
Mg376 O374 1.986 . S
Mg376 O384 2.238 . S
Mg376 O388 2.042 . S
Mg376 O390 2.041 . S
Mg376 O397 2.038 . S
C377 O383 1.247 . S
C377 O384 1.289 . S
C378 O396 1.245 . S
C378 O397 1.274 . S
O379 C367 1.241 . S
O379 Mg372 2.042 . S
O380 C367 1.280 . S
O380 Mg370 1.984 . S
O381 C368 1.277 . S
O381 Mg372 2.041 . S
O382 C368 1.245 . S
O382 Mg370 1.988 . S
O383 Mg370 2.061 . S
O383 C377 1.247 . S
O384 Mg373 2.106 . S
O384 Mg376 2.238 . S
O384 C377 1.289 . S
C385 O386 1.245 . S
C385 O387 1.274 . S
O386 Mg373 2.079 . S
O386 C385 1.245 . S
O387 Mg372 2.038 . S
O387 C385 1.274 . S
O388 Mg376 2.042 . S
O388 C391 1.241 . S
O389 Mg375 1.984 . S
O389 C391 1.280 . S
O390 Mg376 2.041 . S
O390 C394 1.277 . S
C391 O388 1.241 . S
C391 O389 1.280 . S
O392 Mg375 1.988 . S
O392 C394 1.245 . S
O393 C369 1.247 . S
O393 Mg375 2.061 . S
C394 O390 1.277 . S
C394 O392 1.245 . S
O395 C369 1.289 . S
O395 Mg372 2.238 . S
O395 Mg373 2.106 . S
O396 Mg373 2.079 . S
O396 C378 1.245 . S
O397 Mg376 2.038 . S
O397 C378 1.274 . S
C398 O410 1.241 . S
C398 O411 1.280 . S
C399 O412 1.277 . S
C399 O413 1.245 . S
C400 O424 1.247 . S
C400 O426 1.289 . S
Mg401 O402 1.926 1_455 S
Mg401 O411 1.984 1_455 S
Mg401 O413 1.988 . S
Mg401 O414 2.061 . S
O402 Mg401 1.926 1_655 S
O402 Mg403 1.986 . S
O402 Mg404 1.917 1_655 S
Mg403 O402 1.986 . S
Mg403 O410 2.042 . S
Mg403 O412 2.041 1_655 S
Mg403 O418 2.038 . S
Mg403 O426 2.238 1_655 S
Mg404 O402 1.917 1_455 S
Mg404 O405 1.917 . S
Mg404 O415 2.104 1_455 S
Mg404 O417 2.079 1_455 S
Mg404 O426 2.106 . S
Mg404 O427 2.079 . S
O405 Mg404 1.917 . S
O405 Mg406 1.926 1_455 S
O405 Mg407 1.986 . S
Mg406 O405 1.926 1_655 S
Mg406 O420 1.984 1_655 S
Mg406 O423 1.988 . S
Mg406 O424 2.061 1_655 S
Mg407 O405 1.986 . S
Mg407 O415 2.226 1_455 S
Mg407 O419 2.042 . S
Mg407 O421 2.041 1_455 S
Mg407 O428 2.038 . S
C408 O414 1.247 1_655 S
C408 O415 1.293 . S
C409 O427 1.245 . S
C409 O428 1.274 . S
O410 C398 1.241 . S
O410 Mg403 2.042 . S
O411 C398 1.280 . S
O411 Mg401 1.984 1_655 S
O412 C399 1.277 . S
O412 Mg403 2.041 1_455 S
O413 C399 1.245 . S
O413 Mg401 1.988 . S
O414 Mg401 2.061 . S
O414 C408 1.247 1_455 S
O415 Mg404 2.104 1_655 S
O415 Mg407 2.226 1_655 S
O415 C408 1.293 . S
C416 O417 1.245 . S
C416 O418 1.274 . S
O417 Mg404 2.079 1_655 S
O417 C416 1.245 . S
O418 Mg403 2.038 . S
O418 C416 1.274 . S
O419 Mg407 2.042 . S
O419 C422 1.241 . S
O420 Mg406 1.984 1_455 S
O420 C422 1.280 . S
O421 Mg407 2.041 1_655 S
O421 C425 1.277 . S
C422 O419 1.241 . S
C422 O420 1.280 . S
O423 Mg406 1.988 . S
O423 C425 1.245 . S
O424 C400 1.247 . S
O424 Mg406 2.061 1_455 S
C425 O421 1.277 . S
C425 O423 1.245 . S
O426 C400 1.289 . S
O426 Mg403 2.238 1_455 S
O426 Mg404 2.106 . S
O427 Mg404 2.079 . S
O427 C409 1.245 . S
O428 Mg407 2.038 . S
O428 C409 1.274 . S
C429 O441 1.241 . S
C429 O442 1.280 . S
C430 O443 1.277 . S
C430 O444 1.245 . S
C431 O455 1.260 . S
C431 O457 1.289 . S
Mg432 O433 1.926 1_565 S
Mg432 O442 1.984 1_565 S
Mg432 O444 1.988 . S
Mg432 O445 2.061 1_565 S
O433 Mg432 1.926 1_545 S
O433 Mg434 1.986 . S
O433 Mg435 1.917 . S
Mg434 O433 1.986 . S
Mg434 O441 2.042 . S
Mg434 O443 2.041 1_545 S
Mg434 O449 2.038 . S
Mg434 O457 2.238 1_545 S
Mg435 O433 1.917 . S
Mg435 O436 1.917 1_545 S
Mg435 O446 2.106 . S
Mg435 O448 2.079 . S
Mg435 O457 2.106 1_545 S
Mg435 O458 2.079 1_545 S
O436 Mg435 1.917 1_565 S
O436 Mg437 1.926 1_565 S
O436 Mg438 1.986 . S
Mg437 O436 1.926 1_545 S
Mg437 O451 1.984 1_545 S
Mg437 O454 1.988 . S
Mg437 O455 2.054 1_545 S
Mg438 O436 1.986 . S
Mg438 O446 2.238 1_565 S
Mg438 O450 2.042 . S
Mg438 O452 2.041 1_565 S
Mg438 O459 2.038 . S
C439 O445 1.247 . S
C439 O446 1.289 . S
C440 O458 1.245 . S
C440 O459 1.274 . S
O441 C429 1.241 . S
O441 Mg434 2.042 . S
O442 C429 1.280 . S
O442 Mg432 1.984 1_545 S
O443 C430 1.277 . S
O443 Mg434 2.041 1_565 S
O444 C430 1.245 . S
O444 Mg432 1.988 . S
O445 Mg432 2.061 1_545 S
O445 C439 1.247 . S
O446 Mg435 2.106 . S
O446 Mg438 2.238 1_545 S
O446 C439 1.289 . S
C447 O448 1.245 . S
C447 O449 1.274 . S
O448 Mg435 2.079 . S
O448 C447 1.245 . S
O449 Mg434 2.038 . S
O449 C447 1.274 . S
O450 Mg438 2.042 . S
O450 C453 1.241 . S
O451 Mg437 1.984 1_565 S
O451 C453 1.280 . S
O452 Mg438 2.041 1_545 S
O452 C456 1.277 . S
C453 O450 1.241 . S
C453 O451 1.280 . S
O454 Mg437 1.988 . S
O454 C456 1.245 . S
O455 C431 1.260 . S
O455 Mg437 2.054 1_565 S
C456 O452 1.277 . S
C456 O454 1.245 . S
O457 C431 1.289 . S
O457 Mg434 2.238 1_565 S
O457 Mg435 2.106 1_565 S
O458 Mg435 2.079 1_565 S
O458 C440 1.245 . S
O459 Mg438 2.038 . S
O459 C440 1.274 . S
C460 O472 1.241 . S
C460 O473 1.280 . S
C461 O474 1.277 . S
C461 O475 1.245 . S
C462 O486 1.247 . S
C462 O488 1.289 . S
Mg463 O464 1.912 1_554 S
Mg463 O473 1.984 1_554 S
Mg463 O475 1.988 . S
Mg463 O476 2.061 . S
O464 Mg463 1.912 1_556 S
O464 Mg465 2.001 . S
O464 Mg466 1.914 1_556 S
Mg465 O464 2.001 . S
Mg465 O472 2.042 . S
Mg465 O474 2.041 1_556 S
Mg465 O480 2.038 . S
Mg465 O488 2.238 . S
Mg466 O464 1.914 1_554 S
Mg466 O467 1.917 . S
Mg466 O477 2.106 . S
Mg466 O479 2.079 1_554 S
Mg466 O488 2.106 1_554 S
Mg466 O489 2.079 . S
O467 Mg466 1.917 . S
O467 Mg468 1.926 1_554 S
O467 Mg469 1.986 . S
Mg468 O467 1.926 1_556 S
Mg468 O482 1.984 1_556 S
Mg468 O485 1.988 . S
Mg468 O486 2.061 . S
Mg469 O467 1.986 . S
Mg469 O477 2.238 . S
Mg469 O481 2.042 . S
Mg469 O483 2.041 . S
Mg469 O490 2.038 . S
C470 O476 1.247 . S
C470 O477 1.289 . S
C471 O489 1.245 . S
C471 O490 1.274 . S
O472 C460 1.241 . S
O472 Mg465 2.042 . S
O473 C460 1.280 . S
O473 Mg463 1.984 1_556 S
O474 C461 1.277 . S
O474 Mg465 2.041 1_554 S
O475 C461 1.245 . S
O475 Mg463 1.988 . S
O476 Mg463 2.061 . S
O476 C470 1.247 . S
O477 Mg466 2.106 . S
O477 Mg469 2.238 . S
O477 C470 1.289 . S
C478 O479 1.245 . S
C478 O480 1.274 . S
O479 Mg466 2.079 1_556 S
O479 C478 1.245 . S
O480 Mg465 2.038 . S
O480 C478 1.274 . S
O481 Mg469 2.042 . S
O481 C484 1.241 . S
O482 Mg468 1.984 1_554 S
O482 C484 1.280 . S
O483 Mg469 2.041 . S
O483 C487 1.277 1_554 S
C484 O481 1.241 . S
C484 O482 1.280 . S
O485 Mg468 1.988 . S
O485 C487 1.245 . S
O486 C462 1.247 . S
O486 Mg468 2.061 . S
C487 O483 1.277 1_556 S
C487 O485 1.245 . S
O488 C462 1.289 . S
O488 Mg465 2.238 . S
O488 Mg466 2.106 1_556 S
O489 Mg466 2.079 . S
O489 C471 1.245 . S
O490 Mg469 2.038 . S
O490 C471 1.274 . S
C491 O503 1.241 . S
C491 O504 1.280 . S
C492 O505 1.277 . S
C492 O506 1.245 . S
C493 O517 1.247 . S
C493 O519 1.289 . S
Mg494 O495 1.926 . S
Mg494 O504 1.984 . S
Mg494 O506 1.988 . S
Mg494 O507 2.061 . S
O495 Mg494 1.926 . S
O495 Mg496 1.986 . S
O495 Mg497 1.917 . S
Mg496 O495 1.986 . S
Mg496 O503 2.042 . S
Mg496 O505 2.041 . S
Mg496 O511 2.038 . S
Mg496 O519 2.238 . S
Mg497 O495 1.917 . S
Mg497 O498 1.917 . S
Mg497 O508 2.106 . S
Mg497 O510 2.079 . S
Mg497 O519 2.106 . S
Mg497 O520 2.079 . S
O498 Mg497 1.917 . S
O498 Mg499 1.926 . S
O498 Mg500 1.986 . S
Mg499 O498 1.926 . S
Mg499 O513 1.984 . S
Mg499 O516 1.988 . S
Mg499 O517 2.061 . S
Mg500 O498 1.986 . S
Mg500 O508 2.238 . S
Mg500 O512 2.042 . S
Mg500 O514 2.041 . S
Mg500 O521 2.038 . S
C501 O507 1.247 . S
C501 O508 1.289 . S
C502 O520 1.245 . S
C502 O521 1.274 . S
O503 C491 1.241 . S
O503 Mg496 2.042 . S
O504 C491 1.280 . S
O504 Mg494 1.984 . S
O505 C492 1.277 . S
O505 Mg496 2.041 . S
O506 C492 1.245 . S
O506 Mg494 1.988 . S
O507 Mg494 2.061 . S
O507 C501 1.247 . S
O508 Mg497 2.106 . S
O508 Mg500 2.238 . S
O508 C501 1.289 . S
C509 O510 1.245 . S
C509 O511 1.274 . S
O510 Mg497 2.079 . S
O510 C509 1.245 . S
O511 Mg496 2.038 . S
O511 C509 1.274 . S
O512 Mg500 2.042 . S
O512 C515 1.241 . S
O513 Mg499 1.984 . S
O513 C515 1.280 . S
O514 Mg500 2.041 . S
O514 C518 1.277 . S
C515 O512 1.241 . S
C515 O513 1.280 . S
O516 Mg499 1.988 . S
O516 C518 1.245 . S
O517 C493 1.247 . S
O517 Mg499 2.061 . S
C518 O514 1.277 . S
C518 O516 1.245 . S
O519 C493 1.289 . S
O519 Mg496 2.238 . S
O519 Mg497 2.106 . S
O520 Mg497 2.079 . S
O520 C502 1.245 . S
O521 Mg500 2.038 . S
O521 C502 1.274 . S
C522 O534 1.241 . S
C522 O535 1.280 . S
C523 O536 1.277 . S
C523 O537 1.245 . S
C524 O548 1.248 1_556 S
C524 O550 1.289 . S
Mg525 O526 1.926 1_556 S
Mg525 O535 1.984 1_556 S
Mg525 O537 1.988 . S
Mg525 O538 2.061 1_556 S
O526 Mg525 1.926 1_554 S
O526 Mg527 1.986 . S
O526 Mg528 1.917 . S
Mg527 O526 1.986 . S
Mg527 O534 2.042 . S
Mg527 O536 2.041 1_554 S
Mg527 O542 2.038 . S
Mg527 O550 2.238 1_554 S
Mg528 O526 1.917 . S
Mg528 O529 1.917 1_554 S
Mg528 O539 2.106 . S
Mg528 O541 2.079 . S
Mg528 O550 2.106 1_554 S
Mg528 O551 2.079 1_554 S
O529 Mg528 1.917 1_556 S
O529 Mg530 1.926 1_556 S
O529 Mg531 1.986 . S
Mg530 O529 1.926 1_554 S
Mg530 O544 1.984 1_554 S
Mg530 O547 1.988 . S
Mg530 O548 2.061 . S
Mg531 O529 1.986 . S
Mg531 O539 2.238 1_556 S
Mg531 O543 2.042 . S
Mg531 O545 2.041 1_556 S
Mg531 O552 2.038 . S
C532 O538 1.248 . S
C532 O539 1.289 . S
C533 O551 1.245 . S
C533 O552 1.274 . S
O534 C522 1.241 . S
O534 Mg527 2.042 . S
O535 C522 1.280 . S
O535 Mg525 1.984 1_554 S
O536 C523 1.277 . S
O536 Mg527 2.041 1_556 S
O537 C523 1.245 . S
O537 Mg525 1.988 . S
O538 Mg525 2.061 1_554 S
O538 C532 1.248 . S
O539 Mg528 2.106 . S
O539 Mg531 2.238 1_554 S
O539 C532 1.289 . S
C540 O541 1.245 . S
C540 O542 1.274 . S
O541 Mg528 2.079 . S
O541 C540 1.245 . S
O542 Mg527 2.038 . S
O542 C540 1.274 . S
O543 Mg531 2.042 . S
O543 C546 1.241 . S
O544 Mg530 1.984 1_556 S
O544 C546 1.280 . S
O545 Mg531 2.041 1_554 S
O545 C549 1.277 . S
C546 O543 1.241 . S
C546 O544 1.280 . S
O547 Mg530 1.988 . S
O547 C549 1.245 . S
O548 C524 1.248 1_554 S
O548 Mg530 2.061 . S
C549 O545 1.277 . S
C549 O547 1.245 . S
O550 C524 1.289 . S
O550 Mg527 2.238 1_556 S
O550 Mg528 2.106 1_556 S
O551 Mg528 2.079 1_556 S
O551 C533 1.245 . S
O552 Mg531 2.038 . S
O552 C533 1.274 . S
C553 O565 1.241 . S
C553 O566 1.280 . S
C554 O567 1.277 . S
C554 O568 1.245 . S
C555 O579 1.247 . S
C555 O581 1.289 . S
Mg556 O557 1.926 . S
Mg556 O566 1.984 . S
Mg556 O568 1.988 . S
Mg556 O569 2.061 . S
O557 Mg556 1.926 . S
O557 Mg558 1.986 . S
O557 Mg559 1.917 . S
Mg558 O557 1.986 . S
Mg558 O565 2.042 . S
Mg558 O567 2.041 . S
Mg558 O573 2.038 . S
Mg558 O581 2.238 . S
Mg559 O557 1.917 . S
Mg559 O560 1.917 . S
Mg559 O570 2.106 . S
Mg559 O572 2.079 . S
Mg559 O581 2.106 . S
Mg559 O582 2.079 . S
O560 Mg559 1.917 . S
O560 Mg561 1.926 . S
O560 Mg562 1.986 . S
Mg561 O560 1.926 . S
Mg561 O575 1.984 . S
Mg561 O578 1.988 . S
Mg561 O579 2.061 . S
Mg562 O560 1.986 . S
Mg562 O570 2.238 . S
Mg562 O574 2.042 . S
Mg562 O576 2.041 . S
Mg562 O583 2.038 . S
C563 O569 1.247 . S
C563 O570 1.289 . S
C564 O582 1.245 . S
C564 O583 1.274 . S
O565 C553 1.241 . S
O565 Mg558 2.042 . S
O566 C553 1.280 . S
O566 Mg556 1.984 . S
O567 C554 1.277 . S
O567 Mg558 2.041 . S
O568 C554 1.245 . S
O568 Mg556 1.988 . S
O569 Mg556 2.061 . S
O569 C563 1.247 . S
O570 Mg559 2.106 . S
O570 Mg562 2.238 . S
O570 C563 1.289 . S
C571 O572 1.245 . S
C571 O573 1.274 . S
O572 Mg559 2.079 . S
O572 C571 1.245 . S
O573 Mg558 2.038 . S
O573 C571 1.274 . S
O574 Mg562 2.042 . S
O574 C577 1.241 . S
O575 Mg561 1.984 . S
O575 C577 1.280 . S
O576 Mg562 2.041 . S
O576 C580 1.277 . S
C577 O574 1.241 . S
C577 O575 1.280 . S
O578 Mg561 1.988 . S
O578 C580 1.245 . S
O579 C555 1.247 . S
O579 Mg561 2.061 . S
C580 O576 1.277 . S
C580 O578 1.245 . S
O581 C555 1.289 . S
O581 Mg558 2.238 . S
O581 Mg559 2.106 . S
O582 Mg559 2.079 . S
O582 C564 1.245 . S
O583 Mg562 2.038 . S
O583 C564 1.274 . S
C584 O596 1.241 . S
C584 O597 1.280 . S
C585 O598 1.277 . S
C585 O599 1.245 . S
C586 O610 1.247 . S
C586 O612 1.289 . S
Mg587 O588 1.926 . S
Mg587 O597 1.984 . S
Mg587 O599 1.988 . S
Mg587 O600 2.061 . S
O588 Mg587 1.926 . S
O588 Mg589 1.986 . S
O588 Mg590 1.917 . S
Mg589 O588 1.986 . S
Mg589 O596 2.042 . S
Mg589 O598 2.041 . S
Mg589 O604 2.038 . S
Mg589 O612 2.238 . S
Mg590 O588 1.917 . S
Mg590 O591 1.917 . S
Mg590 O601 2.106 . S
Mg590 O603 2.079 . S
Mg590 O612 2.106 . S
Mg590 O613 2.079 . S
O591 Mg590 1.917 . S
O591 Mg592 1.926 . S
O591 Mg593 1.986 . S
Mg592 O591 1.926 . S
Mg592 O606 1.984 . S
Mg592 O609 1.988 . S
Mg592 O610 2.061 . S
Mg593 O591 1.986 . S
Mg593 O601 2.238 . S
Mg593 O605 2.042 . S
Mg593 O607 2.041 . S
Mg593 O614 2.038 . S
C594 O600 1.247 . S
C594 O601 1.289 . S
C595 O613 1.245 . S
C595 O614 1.274 . S
O596 C584 1.241 . S
O596 Mg589 2.042 . S
O597 C584 1.280 . S
O597 Mg587 1.984 . S
O598 C585 1.277 . S
O598 Mg589 2.041 . S
O599 C585 1.245 . S
O599 Mg587 1.988 . S
O600 Mg587 2.061 . S
O600 C594 1.247 . S
O601 Mg590 2.106 . S
O601 Mg593 2.238 . S
O601 C594 1.289 . S
C602 O603 1.245 . S
C602 O604 1.274 . S
O603 Mg590 2.079 . S
O603 C602 1.245 . S
O604 Mg589 2.038 . S
O604 C602 1.274 . S
O605 Mg593 2.042 . S
O605 C608 1.241 . S
O606 Mg592 1.984 . S
O606 C608 1.280 . S
O607 Mg593 2.041 . S
O607 C611 1.277 . S
C608 O605 1.241 . S
C608 O606 1.280 . S
O609 Mg592 1.988 . S
O609 C611 1.245 . S
O610 C586 1.247 . S
O610 Mg592 2.061 . S
C611 O607 1.277 . S
C611 O609 1.245 . S
O612 C586 1.289 . S
O612 Mg589 2.238 . S
O612 Mg590 2.106 . S
O613 Mg590 2.079 . S
O613 C595 1.245 . S
O614 Mg593 2.038 . S
O614 C595 1.274 . S
C615 O627 1.241 . S
C615 O628 1.280 . S
C616 O629 1.277 . S
C616 O630 1.245 . S
C617 O641 1.247 . S
C617 O643 1.289 . S
Mg618 O619 1.926 . S
Mg618 O628 1.984 . S
Mg618 O630 1.988 . S
Mg618 O631 2.061 . S
O619 Mg618 1.926 . S
O619 Mg620 1.986 . S
O619 Mg621 1.917 . S
Mg620 O619 1.986 . S
Mg620 O627 2.042 . S
Mg620 O629 2.041 . S
Mg620 O635 2.038 . S
Mg620 O643 2.238 . S
Mg621 O619 1.917 . S
Mg621 O622 1.917 . S
Mg621 O632 2.106 . S
Mg621 O634 2.079 . S
Mg621 O643 2.106 . S
Mg621 O644 2.079 . S
O622 Mg621 1.917 . S
O622 Mg623 1.926 . S
O622 Mg624 1.986 . S
Mg623 O622 1.926 . S
Mg623 O637 1.984 . S
Mg623 O640 1.988 . S
Mg623 O641 2.061 . S
Mg624 O622 1.986 . S
Mg624 O632 2.238 . S
Mg624 O636 2.042 . S
Mg624 O638 2.041 . S
Mg624 O645 2.038 . S
C625 O631 1.247 . S
C625 O632 1.289 . S
C626 O644 1.245 . S
C626 O645 1.274 . S
O627 C615 1.241 . S
O627 Mg620 2.042 . S
O628 C615 1.280 . S
O628 Mg618 1.984 . S
O629 C616 1.277 . S
O629 Mg620 2.041 . S
O630 C616 1.245 . S
O630 Mg618 1.988 . S
O631 Mg618 2.061 . S
O631 C625 1.247 . S
O632 Mg621 2.106 . S
O632 Mg624 2.238 . S
O632 C625 1.289 . S
C633 O634 1.245 . S
C633 O635 1.274 . S
O634 Mg621 2.079 . S
O634 C633 1.245 . S
O635 Mg620 2.038 . S
O635 C633 1.274 . S
O636 Mg624 2.042 . S
O636 C639 1.241 . S
O637 Mg623 1.984 . S
O637 C639 1.280 . S
O638 Mg624 2.041 . S
O638 C642 1.277 . S
C639 O636 1.241 . S
C639 O637 1.280 . S
O640 Mg623 1.988 . S
O640 C642 1.245 . S
O641 C617 1.247 . S
O641 Mg623 2.061 . S
C642 O638 1.277 . S
C642 O640 1.245 . S
O643 C617 1.289 . S
O643 Mg620 2.238 . S
O643 Mg621 2.106 . S
O644 Mg621 2.079 . S
O644 C626 1.245 . S
O645 Mg624 2.038 . S
O645 C626 1.274 . S
C646 O658 1.241 . S
C646 O659 1.280 . S
C647 O660 1.277 . S
C647 O661 1.245 . S
C648 O672 1.247 . S
C648 O674 1.289 . S
Mg649 O650 1.926 1_565 S
Mg649 O659 1.984 1_565 S
Mg649 O661 1.988 . S
Mg649 O662 2.061 1_565 S
O650 Mg649 1.926 1_545 S
O650 Mg651 1.986 . S
O650 Mg652 1.922 . S
Mg651 O650 1.986 . S
Mg651 O658 2.042 . S
Mg651 O660 2.041 1_545 S
Mg651 O666 2.038 . S
Mg651 O674 2.238 1_545 S
Mg652 O650 1.922 . S
Mg652 O653 1.912 1_545 S
Mg652 O663 2.109 . S
Mg652 O665 2.100 . S
Mg652 O674 2.104 1_545 S
Mg652 O675 2.058 1_545 S
O653 Mg652 1.912 1_565 S
O653 Mg654 1.926 1_565 S
O653 Mg655 1.986 . S
Mg654 O653 1.926 1_545 S
Mg654 O668 1.984 1_545 S
Mg654 O671 1.988 . S
Mg654 O672 2.061 1_545 S
Mg655 O653 1.986 . S
Mg655 O663 2.238 1_565 S
Mg655 O667 2.042 . S
Mg655 O669 2.041 1_565 S
Mg655 O676 2.038 . S
C656 O662 1.247 . S
C656 O663 1.289 . S
C657 O675 1.245 . S
C657 O676 1.274 . S
O658 C646 1.241 . S
O658 Mg651 2.042 . S
O659 C646 1.280 . S
O659 Mg649 1.984 1_545 S
O660 C647 1.277 . S
O660 Mg651 2.041 1_565 S
O661 C647 1.245 . S
O661 Mg649 1.988 . S
O662 Mg649 2.061 1_545 S
O662 C656 1.247 . S
O663 Mg652 2.109 . S
O663 Mg655 2.238 1_545 S
O663 C656 1.289 . S
C664 O665 1.245 . S
C664 O666 1.274 . S
O665 Mg652 2.100 . S
O665 C664 1.245 . S
O666 Mg651 2.038 . S
O666 C664 1.274 . S
O667 Mg655 2.042 . S
O667 C670 1.241 . S
O668 Mg654 1.984 1_565 S
O668 C670 1.280 . S
O669 Mg655 2.041 1_545 S
O669 C673 1.277 . S
C670 O667 1.241 . S
C670 O668 1.280 . S
O671 Mg654 1.988 . S
O671 C673 1.245 . S
O672 C648 1.247 . S
O672 Mg654 2.061 1_565 S
C673 O669 1.277 . S
C673 O671 1.245 . S
O674 C648 1.289 . S
O674 Mg651 2.238 1_565 S
O674 Mg652 2.104 1_565 S
O675 Mg652 2.058 1_565 S
O675 C657 1.245 . S
O676 Mg655 2.038 . S
O676 C657 1.274 . S
C677 O689 1.241 . S
C677 O690 1.280 . S
C678 O691 1.277 . S
C678 O692 1.245 . S
C679 O703 1.247 . S
C679 O705 1.289 . S
Mg680 O681 1.926 . S
Mg680 O690 1.984 . S
Mg680 O692 1.988 . S
Mg680 O693 2.061 . S
O681 Mg680 1.926 . S
O681 Mg682 1.986 . S
O681 Mg683 1.917 . S
Mg682 O681 1.986 . S
Mg682 O689 2.042 . S
Mg682 O691 2.041 . S
Mg682 O697 2.038 . S
Mg682 O705 2.238 . S
Mg683 O681 1.917 . S
Mg683 O684 1.917 . S
Mg683 O694 2.106 . S
Mg683 O696 2.079 . S
Mg683 O705 2.106 . S
Mg683 O706 2.079 . S
O684 Mg683 1.917 . S
O684 Mg685 1.926 . S
O684 Mg686 1.986 . S
Mg685 O684 1.926 . S
Mg685 O699 1.984 . S
Mg685 O702 1.988 . S
Mg685 O703 2.061 . S
Mg686 O684 1.986 . S
Mg686 O694 2.238 . S
Mg686 O698 2.042 . S
Mg686 O700 2.041 . S
Mg686 O707 2.038 . S
C687 O693 1.247 . S
C687 O694 1.289 . S
C688 O706 1.245 . S
C688 O707 1.274 . S
O689 C677 1.241 . S
O689 Mg682 2.042 . S
O690 C677 1.280 . S
O690 Mg680 1.984 . S
O691 C678 1.277 . S
O691 Mg682 2.041 . S
O692 C678 1.245 . S
O692 Mg680 1.988 . S
O693 Mg680 2.061 . S
O693 C687 1.247 . S
O694 Mg683 2.106 . S
O694 Mg686 2.238 . S
O694 C687 1.289 . S
C695 O696 1.245 . S
C695 O697 1.274 . S
O696 Mg683 2.079 . S
O696 C695 1.245 . S
O697 Mg682 2.038 . S
O697 C695 1.274 . S
O698 Mg686 2.042 . S
O698 C701 1.241 . S
O699 Mg685 1.984 . S
O699 C701 1.280 . S
O700 Mg686 2.041 . S
O700 C704 1.277 . S
C701 O698 1.241 . S
C701 O699 1.280 . S
O702 Mg685 1.988 . S
O702 C704 1.245 . S
O703 C679 1.247 . S
O703 Mg685 2.061 . S
C704 O700 1.277 . S
C704 O702 1.245 . S
O705 C679 1.289 . S
O705 Mg682 2.238 . S
O705 Mg683 2.106 . S
O706 Mg683 2.079 . S
O706 C688 1.245 . S
O707 Mg686 2.038 . S
O707 C688 1.274 . S
H708 C716 0.950 . S
H709 C721 0.950 . S
H710 C718 0.950 . S
H711 C720 0.950 . S
H712 C722 0.950 . S
H713 C724 0.950 . S
H714 C726 0.950 . S
H715 C727 0.950 . S
C716 H708 0.950 . S
C716 C717 1.386 . S
C716 C718 1.391 . S
C717 C716 1.386 . S
C717 C721 1.393 . S
C718 H710 0.950 . S
C718 C716 1.391 . S
C718 C719 1.400 . S
C719 C718 1.400 . S
C719 C720 1.398 . S
C719 C725 1.491 . S
C720 H711 0.950 . S
C720 C719 1.398 . S
C720 C721 1.391 . S
C721 H709 0.950 . S
C721 C717 1.393 . S
C721 C720 1.391 . S
C722 H712 0.950 . S
C722 C723 1.386 . S
C722 C724 1.391 . S
C723 C722 1.386 . S
C723 C727 1.393 . S
C724 H713 0.950 . S
C724 C722 1.391 . S
C724 C725 1.400 . S
C725 C719 1.491 . S
C725 C724 1.400 . S
C725 C726 1.398 . S
C726 H714 0.950 . S
C726 C725 1.398 . S
C726 C727 1.391 . S
C727 H715 0.950 . S
C727 C723 1.393 . S
C727 C726 1.391 . S
H728 C736 0.950 . S
H729 C741 0.950 . S
H730 C738 0.950 . S
H731 C740 0.950 . S
H732 C742 0.950 . S
H733 C744 0.950 . S
H734 C746 0.950 . S
H735 C747 0.950 . S
C736 H728 0.950 . S
C736 C737 1.386 . S
C736 C738 1.391 . S
C737 C736 1.386 . S
C737 C741 1.393 . S
C738 H730 0.950 . S
C738 C736 1.391 . S
C738 C739 1.400 . S
C739 C738 1.400 . S
C739 C740 1.398 . S
C739 C745 1.491 . S
C740 H731 0.950 . S
C740 C739 1.398 . S
C740 C741 1.391 . S
C741 H729 0.950 . S
C741 C737 1.393 . S
C741 C740 1.391 . S
C742 H732 0.950 . S
C742 C743 1.386 . S
C742 C744 1.391 . S
C743 C742 1.386 . S
C743 C747 1.393 . S
C744 H733 0.950 . S
C744 C742 1.391 . S
C744 C745 1.400 . S
C745 C739 1.491 . S
C745 C744 1.400 . S
C745 C746 1.398 . S
C746 H734 0.950 . S
C746 C745 1.398 . S
C746 C747 1.391 . S
C747 H735 0.950 . S
C747 C743 1.393 . S
C747 C746 1.391 . S
H748 C756 0.950 . S
H749 C761 0.950 . S
H750 C758 0.950 . S
H751 C760 0.950 . S
H752 C762 0.950 . S
H753 C764 0.950 . S
H754 C766 0.950 . S
H755 C767 0.950 . S
C756 H748 0.950 . S
C756 C757 1.386 . S
C756 C758 1.391 . S
C757 C756 1.386 . S
C757 C761 1.393 . S
C758 H750 0.950 . S
C758 C756 1.391 . S
C758 C759 1.400 . S
C759 C758 1.400 . S
C759 C760 1.398 . S
C759 C765 1.491 . S
C760 H751 0.950 . S
C760 C759 1.398 . S
C760 C761 1.391 . S
C761 H749 0.950 . S
C761 C757 1.393 . S
C761 C760 1.391 . S
C762 H752 0.950 . S
C762 C763 1.386 . S
C762 C764 1.391 . S
C763 C762 1.386 . S
C763 C767 1.393 . S
C764 H753 0.950 . S
C764 C762 1.391 . S
C764 C765 1.400 . S
C765 C759 1.491 . S
C765 C764 1.400 . S
C765 C766 1.398 . S
C766 H754 0.950 . S
C766 C765 1.398 . S
C766 C767 1.391 . S
C767 H755 0.950 . S
C767 C763 1.393 . S
C767 C766 1.391 . S
H768 C776 0.950 . S
H769 C781 0.950 . S
H770 C778 0.950 . S
H771 C780 0.950 . S
H772 C782 0.950 . S
H773 C784 0.950 . S
H774 C786 0.950 . S
H775 C787 0.950 . S
C776 H768 0.950 . S
C776 C777 1.386 . S
C776 C778 1.391 . S
C777 C776 1.386 . S
C777 C781 1.393 . S
C778 H770 0.950 . S
C778 C776 1.391 . S
C778 C779 1.400 . S
C779 C778 1.400 . S
C779 C780 1.398 . S
C779 C785 1.491 . S
C780 H771 0.950 . S
C780 C779 1.398 . S
C780 C781 1.391 . S
C781 H769 0.950 . S
C781 C777 1.393 . S
C781 C780 1.391 . S
C782 H772 0.950 . S
C782 C783 1.386 . S
C782 C784 1.391 . S
C783 C782 1.386 . S
C783 C787 1.393 . S
C784 H773 0.950 . S
C784 C782 1.391 . S
C784 C785 1.400 . S
C785 C779 1.491 . S
C785 C784 1.400 . S
C785 C786 1.398 . S
C786 H774 0.950 . S
C786 C785 1.398 . S
C786 C787 1.391 . S
C787 H775 0.950 . S
C787 C783 1.393 . S
C787 C786 1.391 . S
H788 C796 0.950 . S
H789 C801 0.950 . S
H790 C798 0.950 . S
H791 C800 0.950 . S
H792 C802 0.950 . S
H793 C804 0.950 . S
H794 C806 0.950 . S
H795 C807 0.950 . S
C796 H788 0.950 . S
C796 C797 1.386 . S
C796 C798 1.391 . S
C797 C796 1.386 . S
C797 C801 1.393 . S
C798 H790 0.950 . S
C798 C796 1.391 . S
C798 C799 1.400 . S
C799 C798 1.400 . S
C799 C800 1.398 . S
C799 C805 1.491 . S
C800 H791 0.950 . S
C800 C799 1.398 . S
C800 C801 1.391 . S
C801 H789 0.950 . S
C801 C797 1.393 . S
C801 C800 1.391 . S
C802 H792 0.950 . S
C802 C803 1.386 . S
C802 C804 1.391 . S
C803 C802 1.386 . S
C803 C807 1.393 . S
C804 H793 0.950 . S
C804 C802 1.391 . S
C804 C805 1.400 . S
C805 C799 1.491 . S
C805 C804 1.400 . S
C805 C806 1.398 . S
C806 H794 0.950 . S
C806 C805 1.398 . S
C806 C807 1.391 . S
C807 H795 0.950 . S
C807 C803 1.393 . S
C807 C806 1.391 . S
H808 C816 0.950 . S
H809 C821 0.950 . S
H810 C818 0.950 . S
H811 C820 0.950 . S
H812 C822 0.950 . S
H813 C824 0.950 . S
H814 C826 0.950 . S
H815 C827 0.950 . S
C816 H808 0.950 . S
C816 C817 1.386 . S
C816 C818 1.391 . S
C817 C816 1.386 . S
C817 C821 1.393 . S
C818 H810 0.950 . S
C818 C816 1.391 . S
C818 C819 1.400 . S
C819 C818 1.400 . S
C819 C820 1.398 . S
C819 C825 1.491 . S
C820 H811 0.950 . S
C820 C819 1.398 . S
C820 C821 1.391 . S
C821 H809 0.950 . S
C821 C817 1.393 . S
C821 C820 1.391 . S
C822 H812 0.950 . S
C822 C823 1.386 . S
C822 C824 1.391 . S
C823 C822 1.386 . S
C823 C827 1.393 . S
C824 H813 0.950 . S
C824 C822 1.391 . S
C824 C825 1.400 . S
C825 C819 1.491 . S
C825 C824 1.400 . S
C825 C826 1.398 . S
C826 H814 0.950 . S
C826 C825 1.398 . S
C826 C827 1.391 . S
C827 H815 0.950 . S
C827 C823 1.393 . S
C827 C826 1.391 . S
H828 C836 0.950 . S
H829 C841 0.950 . S
H830 C838 0.950 . S
H831 C840 0.950 . S
H832 C842 0.950 . S
H833 C844 0.950 . S
H834 C846 0.950 . S
H835 C847 0.950 . S
C836 H828 0.950 . S
C836 C837 1.386 . S
C836 C838 1.391 . S
C837 C836 1.386 . S
C837 C841 1.393 . S
C838 H830 0.950 . S
C838 C836 1.391 . S
C838 C839 1.400 . S
C839 C838 1.400 . S
C839 C840 1.398 . S
C839 C845 1.491 . S
C840 H831 0.950 . S
C840 C839 1.398 . S
C840 C841 1.391 . S
C841 H829 0.950 . S
C841 C837 1.393 . S
C841 C840 1.391 . S
C842 H832 0.950 . S
C842 C843 1.386 . S
C842 C844 1.391 . S
C843 C842 1.386 . S
C843 C847 1.393 . S
C844 H833 0.950 . S
C844 C842 1.391 . S
C844 C845 1.400 . S
C845 C839 1.491 . S
C845 C844 1.400 . S
C845 C846 1.398 . S
C846 H834 0.950 . S
C846 C845 1.398 . S
C846 C847 1.391 . S
C847 H835 0.950 . S
C847 C843 1.393 . S
C847 C846 1.391 . S
H848 C856 0.950 . S
H849 C861 0.950 . S
H850 C858 0.950 . S
H851 C860 0.950 . S
H852 C862 0.950 . S
H853 C864 0.950 . S
H854 C866 0.950 . S
H855 C867 0.950 . S
C856 H848 0.950 . S
C856 C857 1.386 . S
C856 C858 1.391 . S
C857 C856 1.386 . S
C857 C861 1.393 . S
C858 H850 0.950 . S
C858 C856 1.391 . S
C858 C859 1.400 . S
C859 C858 1.400 . S
C859 C860 1.398 . S
C859 C865 1.491 . S
C860 H851 0.950 . S
C860 C859 1.398 . S
C860 C861 1.391 . S
C861 H849 0.950 . S
C861 C857 1.393 . S
C861 C860 1.391 . S
C862 H852 0.950 . S
C862 C863 1.386 . S
C862 C864 1.391 . S
C863 C862 1.386 . S
C863 C867 1.393 . S
C864 H853 0.950 . S
C864 C862 1.391 . S
C864 C865 1.400 . S
C865 C859 1.491 . S
C865 C864 1.400 . S
C865 C866 1.398 . S
C866 H854 0.950 . S
C866 C865 1.398 . S
C866 C867 1.391 . S
C867 H855 0.950 . S
C867 C863 1.393 . S
C867 C866 1.391 . S
H868 C876 0.950 . S
H869 C881 0.950 . S
H870 C878 0.950 . S
H871 C880 0.950 . S
H872 C882 0.950 . S
H873 C884 0.950 . S
H874 C886 0.950 . S
H875 C887 0.950 . S
C876 H868 0.950 . S
C876 C877 1.386 . S
C876 C878 1.391 . S
C877 C876 1.386 . S
C877 C881 1.393 . S
C878 H870 0.950 . S
C878 C876 1.391 . S
C878 C879 1.400 . S
C879 C878 1.400 . S
C879 C880 1.398 . S
C879 C885 1.491 . S
C880 H871 0.950 . S
C880 C879 1.398 . S
C880 C881 1.391 . S
C881 H869 0.950 . S
C881 C877 1.393 . S
C881 C880 1.391 . S
C882 H872 0.950 . S
C882 C883 1.386 . S
C882 C884 1.391 . S
C883 C882 1.386 . S
C883 C887 1.393 . S
C884 H873 0.950 . S
C884 C882 1.391 . S
C884 C885 1.400 . S
C885 C879 1.491 . S
C885 C884 1.400 . S
C885 C886 1.398 . S
C886 H874 0.950 . S
C886 C885 1.398 . S
C886 C887 1.391 . S
C887 H875 0.950 . S
C887 C883 1.393 . S
C887 C886 1.391 . S
H888 C896 0.950 . S
H889 C901 0.950 . S
H890 C898 0.950 . S
H891 C900 0.950 . S
H892 C902 0.950 1_565 S
H893 C904 0.950 . S
H894 C906 0.950 . S
H895 C907 0.946 1_565 S
C896 H888 0.950 . S
C896 C897 1.386 . S
C896 C898 1.391 . S
C897 C896 1.386 . S
C897 C901 1.393 . S
C898 H890 0.950 . S
C898 C896 1.391 . S
C898 C899 1.400 . S
C899 C898 1.400 . S
C899 C900 1.398 . S
C899 C905 1.491 . S
C900 H891 0.950 . S
C900 C899 1.398 . S
C900 C901 1.391 . S
C901 H889 0.950 . S
C901 C897 1.393 . S
C901 C900 1.391 . S
C902 H892 0.950 1_545 S
C902 C903 1.386 1_545 S
C902 C904 1.391 . S
C903 C902 1.386 1_565 S
C903 C907 1.393 1_565 S
C904 H893 0.950 . S
C904 C902 1.391 . S
C904 C905 1.400 . S
C905 C899 1.491 . S
C905 C904 1.400 . S
C905 C906 1.398 . S
C906 H894 0.950 . S
C906 C905 1.398 . S
C906 C907 1.391 . S
C907 H895 0.946 1_545 S
C907 C903 1.393 1_545 S
C907 C906 1.391 . S
H908 C916 0.950 . S
H909 C921 0.950 . S
H910 C918 0.950 . S
H911 C920 0.950 . S
H912 C922 0.950 . S
H913 C924 0.950 . S
H914 C926 0.950 . S
H915 C927 0.950 . S
C916 H908 0.950 . S
C916 C917 1.386 . S
C916 C918 1.391 . S
C917 C916 1.386 . S
C917 C921 1.393 . S
C918 H910 0.950 . S
C918 C916 1.391 . S
C918 C919 1.400 . S
C919 C918 1.400 . S
C919 C920 1.398 . S
C919 C925 1.491 . S
C920 H911 0.950 . S
C920 C919 1.398 . S
C920 C921 1.391 . S
C921 H909 0.950 . S
C921 C917 1.393 . S
C921 C920 1.391 . S
C922 H912 0.950 . S
C922 C923 1.386 . S
C922 C924 1.391 . S
C923 C922 1.386 . S
C923 C927 1.393 . S
C924 H913 0.950 . S
C924 C922 1.391 . S
C924 C925 1.400 . S
C925 C919 1.491 . S
C925 C924 1.400 . S
C925 C926 1.398 . S
C926 H914 0.950 . S
C926 C925 1.398 . S
C926 C927 1.391 . S
C927 H915 0.950 . S
C927 C923 1.393 . S
C927 C926 1.391 . S
H928 C936 0.950 . S
H929 C941 0.950 . S
H930 C938 0.950 . S
H931 C940 0.950 . S
H932 C942 0.950 . S
H933 C944 0.950 . S
H934 C946 0.950 . S
H935 C947 0.950 . S
C936 H928 0.950 . S
C936 C937 1.386 . S
C936 C938 1.391 . S
C937 C936 1.386 . S
C937 C941 1.393 . S
C938 H930 0.950 . S
C938 C936 1.391 . S
C938 C939 1.400 . S
C939 C938 1.400 . S
C939 C940 1.398 . S
C939 C945 1.491 . S
C940 H931 0.950 . S
C940 C939 1.398 . S
C940 C941 1.391 . S
C941 H929 0.950 . S
C941 C937 1.393 . S
C941 C940 1.391 . S
C942 H932 0.950 . S
C942 C943 1.386 . S
C942 C944 1.391 . S
C943 C942 1.386 . S
C943 C947 1.393 . S
C944 H933 0.950 . S
C944 C942 1.391 . S
C944 C945 1.400 . S
C945 C939 1.491 . S
C945 C944 1.400 . S
C945 C946 1.398 . S
C946 H934 0.950 . S
C946 C945 1.398 . S
C946 C947 1.391 . S
C947 H935 0.950 . S
C947 C943 1.393 . S
C947 C946 1.391 . S
H948 C956 0.950 . S
H949 C961 0.950 . S
H950 C958 0.950 . S
H951 C960 0.950 . S
H952 C962 0.950 . S
H953 C964 0.950 . S
H954 C966 0.950 . S
H955 C967 0.950 . S
C956 H948 0.950 . S
C956 C957 1.386 . S
C956 C958 1.391 . S
C957 C956 1.386 . S
C957 C961 1.393 . S
C958 H950 0.950 . S
C958 C956 1.391 . S
C958 C959 1.400 . S
C959 C958 1.400 . S
C959 C960 1.398 . S
C959 C965 1.491 . S
C960 H951 0.950 . S
C960 C959 1.398 . S
C960 C961 1.391 . S
C961 H949 0.950 . S
C961 C957 1.393 . S
C961 C960 1.391 . S
C962 H952 0.950 . S
C962 C963 1.386 . S
C962 C964 1.391 . S
C963 C962 1.386 . S
C963 C967 1.393 . S
C964 H953 0.950 . S
C964 C962 1.391 . S
C964 C965 1.400 . S
C965 C959 1.491 . S
C965 C964 1.400 . S
C965 C966 1.398 . S
C966 H954 0.950 . S
C966 C965 1.398 . S
C966 C967 1.391 . S
C967 H955 0.950 . S
C967 C963 1.393 . S
C967 C966 1.391 . S
H968 C976 0.950 . S
H969 C981 0.950 . S
H970 C978 0.950 . S
H971 C980 0.950 . S
H972 C982 0.950 . S
H973 C984 0.950 . S
H974 C986 0.950 . S
H975 C987 0.940 1_565 S
C976 H968 0.950 . S
C976 C977 1.386 . S
C976 C978 1.391 . S
C977 C976 1.386 . S
C977 C981 1.393 . S
C978 H970 0.950 . S
C978 C976 1.391 . S
C978 C979 1.400 . S
C979 C978 1.400 . S
C979 C980 1.398 . S
C979 C985 1.491 . S
C980 H971 0.950 . S
C980 C979 1.398 . S
C980 C981 1.391 . S
C981 H969 0.950 . S
C981 C977 1.393 . S
C981 C980 1.391 . S
C982 H972 0.950 . S
C982 C983 1.386 . S
C982 C984 1.391 1_565 S
C983 C982 1.386 . S
C983 C987 1.379 1_565 S
C984 H973 0.950 . S
C984 C982 1.391 1_545 S
C984 C985 1.400 . S
C985 C979 1.491 . S
C985 C984 1.400 . S
C985 C986 1.398 . S
C986 H974 0.950 . S
C986 C985 1.398 . S
C986 C987 1.414 . S
C987 H975 0.940 1_545 S
C987 C983 1.379 1_545 S
C987 C986 1.414 . S
H988 C996 0.950 . S
H989 C1001 0.950 . S
H990 C998 0.950 . S
H991 C1000 0.950 . S
H992 C1002 0.950 . S
H993 C1004 0.950 . S
H994 C1006 0.950 . S
H995 C1007 0.950 . S
C996 H988 0.950 . S
C996 C997 1.386 . S
C996 C998 1.391 . S
C997 C996 1.386 . S
C997 C1001 1.393 . S
C998 H990 0.950 . S
C998 C996 1.391 . S
C998 C999 1.400 . S
C999 C998 1.400 . S
C999 C1000 1.398 . S
C999 C1005 1.491 . S
C1000 H991 0.950 . S
C1000 C999 1.398 . S
C1000 C1001 1.391 . S
C1001 H989 0.950 . S
C1001 C997 1.393 . S
C1001 C1000 1.391 . S
C1002 H992 0.950 . S
C1002 C1003 1.386 . S
C1002 C1004 1.391 . S
C1003 C1002 1.386 . S
C1003 C1007 1.393 . S
C1004 H993 0.950 . S
C1004 C1002 1.391 . S
C1004 C1005 1.400 . S
C1005 C999 1.491 . S
C1005 C1004 1.400 . S
C1005 C1006 1.398 . S
C1006 H994 0.950 . S
C1006 C1005 1.398 . S
C1006 C1007 1.391 . S
C1007 H995 0.950 . S
C1007 C1003 1.393 . S
C1007 C1006 1.391 . S
H1008 C1016 0.950 . S
H1009 C1021 0.950 . S
H1010 C1018 0.950 . S
H1011 C1020 0.950 . S
H1012 C1022 0.950 . S
H1013 C1024 0.950 . S
H1014 C1026 0.950 . S
H1015 C1027 0.950 . S
C1016 H1008 0.950 . S
C1016 C1017 1.386 . S
C1016 C1018 1.391 . S
C1017 C1016 1.386 . S
C1017 C1021 1.393 . S
C1018 H1010 0.950 . S
C1018 C1016 1.391 . S
C1018 C1019 1.400 . S
C1019 C1018 1.400 . S
C1019 C1020 1.398 . S
C1019 C1025 1.491 . S
C1020 H1011 0.950 . S
C1020 C1019 1.398 . S
C1020 C1021 1.391 . S
C1021 H1009 0.950 . S
C1021 C1017 1.393 . S
C1021 C1020 1.391 . S
C1022 H1012 0.950 . S
C1022 C1023 1.386 . S
C1022 C1024 1.391 . S
C1023 C1022 1.386 . S
C1023 C1027 1.393 . S
C1024 H1013 0.950 . S
C1024 C1022 1.391 . S
C1024 C1025 1.400 . S
C1025 C1019 1.491 . S
C1025 C1024 1.400 . S
C1025 C1026 1.398 . S
C1026 H1014 0.950 . S
C1026 C1025 1.398 . S
C1026 C1027 1.391 . S
C1027 H1015 0.950 . S
C1027 C1023 1.393 . S
C1027 C1026 1.391 . S
H1028 C1036 0.950 . S
H1029 C1041 0.950 . S
H1030 C1038 0.950 . S
H1031 C1040 0.950 . S
H1032 C1042 0.950 . S
H1033 C1044 0.950 . S
H1034 C1046 0.950 . S
H1035 C1047 0.950 . S
C1036 H1028 0.950 . S
C1036 C1037 1.386 . S
C1036 C1038 1.391 . S
C1037 C1036 1.386 . S
C1037 C1041 1.393 . S
C1038 H1030 0.950 . S
C1038 C1036 1.391 . S
C1038 C1039 1.400 . S
C1039 C1038 1.400 . S
C1039 C1040 1.398 . S
C1039 C1045 1.491 . S
C1040 H1031 0.950 . S
C1040 C1039 1.398 . S
C1040 C1041 1.391 . S
C1041 H1029 0.950 . S
C1041 C1037 1.393 . S
C1041 C1040 1.391 . S
C1042 H1032 0.950 . S
C1042 C1043 1.386 . S
C1042 C1044 1.391 . S
C1043 C1042 1.386 . S
C1043 C1047 1.393 . S
C1044 H1033 0.950 . S
C1044 C1042 1.391 . S
C1044 C1045 1.400 1_556 S
C1045 C1039 1.491 . S
C1045 C1044 1.400 1_554 S
C1045 C1046 1.398 . S
C1046 H1034 0.950 . S
C1046 C1045 1.398 . S
C1046 C1047 1.391 1_554 S
C1047 H1035 0.950 . S
C1047 C1043 1.393 . S
C1047 C1046 1.391 1_556 S
H1048 C1056 0.950 . S
H1049 C1061 0.950 . S
H1050 C1058 0.950 . S
H1051 C1060 0.950 . S
H1052 C1062 0.950 . S
H1053 C1064 0.950 . S
H1054 C1066 0.950 . S
H1055 C1067 0.950 . S
C1056 H1048 0.950 . S
C1056 C1057 1.386 . S
C1056 C1058 1.391 . S
C1057 C1056 1.386 . S
C1057 C1061 1.393 . S
C1058 H1050 0.950 . S
C1058 C1056 1.391 . S
C1058 C1059 1.400 . S
C1059 C1058 1.400 . S
C1059 C1060 1.398 . S
C1059 C1065 1.491 . S
C1060 H1051 0.950 . S
C1060 C1059 1.398 . S
C1060 C1061 1.391 . S
C1061 H1049 0.950 . S
C1061 C1057 1.393 . S
C1061 C1060 1.391 . S
C1062 H1052 0.950 . S
C1062 C1063 1.386 . S
C1062 C1064 1.391 . S
C1063 C1062 1.386 . S
C1063 C1067 1.393 . S
C1064 H1053 0.950 . S
C1064 C1062 1.391 . S
C1064 C1065 1.400 . S
C1065 C1059 1.491 . S
C1065 C1064 1.400 . S
C1065 C1066 1.398 . S
C1066 H1054 0.950 . S
C1066 C1065 1.398 . S
C1066 C1067 1.391 . S
C1067 H1055 0.950 . S
C1067 C1063 1.393 . S
C1067 C1066 1.391 . S
H1068 C1076 0.950 . S
H1069 C1081 0.950 . S
H1070 C1078 0.950 . S
H1071 C1080 0.950 . S
H1072 C1082 0.950 . S
H1073 C1084 0.950 . S
H1074 C1086 0.950 . S
H1075 C1087 0.950 . S
C1076 H1068 0.950 . S
C1076 C1077 1.386 . S
C1076 C1078 1.391 . S
C1077 C1076 1.386 . S
C1077 C1081 1.393 . S
C1078 H1070 0.950 . S
C1078 C1076 1.391 . S
C1078 C1079 1.400 . S
C1079 C1078 1.400 . S
C1079 C1080 1.398 . S
C1079 C1085 1.491 . S
C1080 H1071 0.950 . S
C1080 C1079 1.398 . S
C1080 C1081 1.391 . S
C1081 H1069 0.950 . S
C1081 C1077 1.393 . S
C1081 C1080 1.391 . S
C1082 H1072 0.950 . S
C1082 C1083 1.386 . S
C1082 C1084 1.391 . S
C1083 C1082 1.386 . S
C1083 C1087 1.393 . S
C1084 H1073 0.950 . S
C1084 C1082 1.391 . S
C1084 C1085 1.400 . S
C1085 C1079 1.491 . S
C1085 C1084 1.400 . S
C1085 C1086 1.398 . S
C1086 H1074 0.950 . S
C1086 C1085 1.398 . S
C1086 C1087 1.391 . S
C1087 H1075 0.950 . S
C1087 C1083 1.393 . S
C1087 C1086 1.391 . S
H1088 C1096 0.950 . S
H1089 C1101 0.950 . S
H1090 C1098 0.950 . S
H1091 C1100 0.950 . S
H1092 C1102 0.950 . S
H1093 C1104 0.950 . S
H1094 C1106 0.950 . S
H1095 C1107 0.950 . S
C1096 H1088 0.950 . S
C1096 C1097 1.386 . S
C1096 C1098 1.391 . S
C1097 C1096 1.386 . S
C1097 C1101 1.393 . S
C1098 H1090 0.950 . S
C1098 C1096 1.391 . S
C1098 C1099 1.400 . S
C1099 C1098 1.400 . S
C1099 C1100 1.398 . S
C1099 C1105 1.491 . S
C1100 H1091 0.950 . S
C1100 C1099 1.398 . S
C1100 C1101 1.391 . S
C1101 H1089 0.950 . S
C1101 C1097 1.393 . S
C1101 C1100 1.391 . S
C1102 H1092 0.950 . S
C1102 C1103 1.386 . S
C1102 C1104 1.391 . S
C1103 C1102 1.386 . S
C1103 C1107 1.393 . S
C1104 H1093 0.950 . S
C1104 C1102 1.391 . S
C1104 C1105 1.400 . S
C1105 C1099 1.491 . S
C1105 C1104 1.400 . S
C1105 C1106 1.398 . S
C1106 H1094 0.950 . S
C1106 C1105 1.398 . S
C1106 C1107 1.391 . S
C1107 H1095 0.950 . S
C1107 C1103 1.393 . S
C1107 C1106 1.391 . S
H1108 C1116 0.950 . S
H1109 C1121 0.950 . S
H1110 C1118 0.950 . S
H1111 C1120 0.950 . S
H1112 C1122 0.950 . S
H1113 C1124 0.950 . S
H1114 C1126 0.950 . S
H1115 C1127 0.950 . S
C1116 H1108 0.950 . S
C1116 C1117 1.386 . S
C1116 C1118 1.391 . S
C1117 C1116 1.386 . S
C1117 C1121 1.393 . S
C1118 H1110 0.950 . S
C1118 C1116 1.391 . S
C1118 C1119 1.400 . S
C1119 C1118 1.400 . S
C1119 C1120 1.398 . S
C1119 C1125 1.491 . S
C1120 H1111 0.950 . S
C1120 C1119 1.398 . S
C1120 C1121 1.391 . S
C1121 H1109 0.950 . S
C1121 C1117 1.393 . S
C1121 C1120 1.391 . S
C1122 H1112 0.950 . S
C1122 C1123 1.386 1_655 S
C1122 C1124 1.391 . S
C1123 C1122 1.386 1_455 S
C1123 C1127 1.393 . S
C1124 H1113 0.950 . S
C1124 C1122 1.391 . S
C1124 C1125 1.400 . S
C1125 C1119 1.491 . S
C1125 C1124 1.400 . S
C1125 C1126 1.398 . S
C1126 H1114 0.950 . S
C1126 C1125 1.398 . S
C1126 C1127 1.391 1_655 S
C1127 H1115 0.950 . S
C1127 C1123 1.393 . S
C1127 C1126 1.391 1_455 S
H1128 C1136 0.950 . S
H1129 C1141 0.950 . S
H1130 C1138 0.950 . S
H1131 C1140 0.950 . S
H1132 C1142 0.950 . S
H1133 C1144 0.950 . S
H1134 C1146 0.950 . S
H1135 C1147 0.950 . S
C1136 H1128 0.950 . S
C1136 C1137 1.386 . S
C1136 C1138 1.391 . S
C1137 C1136 1.386 . S
C1137 C1141 1.393 . S
C1138 H1130 0.950 . S
C1138 C1136 1.391 . S
C1138 C1139 1.400 . S
C1139 C1138 1.400 . S
C1139 C1140 1.398 . S
C1139 C1145 1.491 . S
C1140 H1131 0.950 . S
C1140 C1139 1.398 . S
C1140 C1141 1.391 . S
C1141 H1129 0.950 . S
C1141 C1137 1.393 . S
C1141 C1140 1.391 . S
C1142 H1132 0.950 . S
C1142 C1143 1.386 . S
C1142 C1144 1.391 . S
C1143 C1142 1.386 . S
C1143 C1147 1.393 . S
C1144 H1133 0.950 . S
C1144 C1142 1.391 . S
C1144 C1145 1.400 . S
C1145 C1139 1.491 . S
C1145 C1144 1.400 . S
C1145 C1146 1.398 . S
C1146 H1134 0.950 . S
C1146 C1145 1.398 . S
C1146 C1147 1.391 . S
C1147 H1135 0.950 . S
C1147 C1143 1.393 . S
C1147 C1146 1.391 . S
H1148 C1156 0.950 . S
H1149 C1161 0.950 . S
H1150 C1158 0.950 . S
H1151 C1160 0.950 . S
H1152 C1162 0.950 . S
H1153 C1164 0.950 . S
H1154 C1166 0.950 . S
H1155 C1167 0.950 . S
C1156 H1148 0.950 . S
C1156 C1157 1.386 . S
C1156 C1158 1.391 . S
C1157 C1156 1.386 . S
C1157 C1161 1.393 . S
C1158 H1150 0.950 . S
C1158 C1156 1.391 . S
C1158 C1159 1.400 . S
C1159 C1158 1.400 . S
C1159 C1160 1.398 . S
C1159 C1165 1.491 . S
C1160 H1151 0.950 . S
C1160 C1159 1.398 . S
C1160 C1161 1.391 . S
C1161 H1149 0.950 . S
C1161 C1157 1.393 . S
C1161 C1160 1.391 . S
C1162 H1152 0.950 . S
C1162 C1163 1.386 . S
C1162 C1164 1.391 . S
C1163 C1162 1.386 . S
C1163 C1167 1.393 . S
C1164 H1153 0.950 . S
C1164 C1162 1.391 . S
C1164 C1165 1.400 . S
C1165 C1159 1.491 . S
C1165 C1164 1.400 . S
C1165 C1166 1.398 . S
C1166 H1154 0.950 . S
C1166 C1165 1.398 . S
C1166 C1167 1.391 . S
C1167 H1155 0.950 . S
C1167 C1163 1.393 . S
C1167 C1166 1.391 . S
H1168 C1176 0.950 . S
H1169 C1181 0.950 . S
H1170 C1178 0.950 . S
H1171 C1180 0.950 . S
H1172 C1182 0.950 . S
H1173 C1184 0.950 . S
H1174 C1186 0.950 . S
H1175 C1187 0.950 . S
C1176 H1168 0.950 . S
C1176 C1177 1.386 . S
C1176 C1178 1.391 . S
C1177 C1176 1.386 . S
C1177 C1181 1.393 . S
C1178 H1170 0.950 . S
C1178 C1176 1.391 . S
C1178 C1179 1.400 . S
C1179 C1178 1.400 . S
C1179 C1180 1.398 . S
C1179 C1185 1.491 . S
C1180 H1171 0.950 . S
C1180 C1179 1.398 . S
C1180 C1181 1.391 . S
C1181 H1169 0.950 . S
C1181 C1177 1.393 . S
C1181 C1180 1.391 . S
C1182 H1172 0.950 . S
C1182 C1183 1.386 . S
C1182 C1184 1.391 . S
C1183 C1182 1.386 . S
C1183 C1187 1.393 . S
C1184 H1173 0.950 . S
C1184 C1182 1.391 . S
C1184 C1185 1.400 . S
C1185 C1179 1.491 . S
C1185 C1184 1.400 . S
C1185 C1186 1.398 . S
C1186 H1174 0.950 . S
C1186 C1185 1.398 . S
C1186 C1187 1.391 . S
C1187 H1175 0.950 . S
C1187 C1183 1.393 . S
C1187 C1186 1.391 . S
H1188 C1196 0.950 . S
H1189 C1201 0.950 . S
H1190 C1198 0.950 . S
H1191 C1200 0.950 . S
H1192 C1202 0.950 . S
H1193 C1204 0.950 . S
H1194 C1206 0.950 . S
H1195 C1207 0.950 . S
C1196 H1188 0.950 . S
C1196 C1197 1.386 . S
C1196 C1198 1.391 . S
C1197 C1196 1.386 . S
C1197 C1201 1.393 . S
C1198 H1190 0.950 . S
C1198 C1196 1.391 . S
C1198 C1199 1.400 . S
C1199 C1198 1.400 . S
C1199 C1200 1.398 . S
C1199 C1205 1.491 . S
C1200 H1191 0.950 . S
C1200 C1199 1.398 . S
C1200 C1201 1.391 . S
C1201 H1189 0.950 . S
C1201 C1197 1.393 . S
C1201 C1200 1.391 . S
C1202 H1192 0.950 . S
C1202 C1203 1.386 . S
C1202 C1204 1.391 . S
C1203 C1202 1.386 . S
C1203 C1207 1.393 . S
C1204 H1193 0.950 . S
C1204 C1202 1.391 . S
C1204 C1205 1.400 . S
C1205 C1199 1.491 . S
C1205 C1204 1.400 . S
C1205 C1206 1.398 . S
C1206 H1194 0.950 . S
C1206 C1205 1.398 . S
C1206 C1207 1.391 . S
C1207 H1195 0.950 . S
C1207 C1203 1.393 . S
C1207 C1206 1.391 . S
H1208 C1216 0.950 . S
H1209 C1221 0.950 . S
H1210 C1218 0.950 . S
H1211 C1220 0.950 . S
H1212 C1222 0.950 . S
H1213 C1224 0.950 . S
H1214 C1226 0.950 . S
H1215 C1227 0.950 . S
C1216 H1208 0.950 . S
C1216 C1217 1.386 . S
C1216 C1218 1.391 . S
C1217 C1216 1.386 . S
C1217 C1221 1.393 . S
C1218 H1210 0.950 . S
C1218 C1216 1.391 . S
C1218 C1219 1.400 . S
C1219 C1218 1.400 . S
C1219 C1220 1.398 . S
C1219 C1225 1.491 . S
C1220 H1211 0.950 . S
C1220 C1219 1.398 . S
C1220 C1221 1.391 . S
C1221 H1209 0.950 . S
C1221 C1217 1.393 . S
C1221 C1220 1.391 . S
C1222 H1212 0.950 . S
C1222 C1223 1.386 . S
C1222 C1224 1.391 1_556 S
C1223 C1222 1.386 . S
C1223 C1227 1.393 1_556 S
C1224 H1213 0.950 . S
C1224 C1222 1.391 1_554 S
C1224 C1225 1.400 . S
C1225 C1219 1.491 . S
C1225 C1224 1.400 . S
C1225 C1226 1.398 . S
C1226 H1214 0.950 . S
C1226 C1225 1.398 . S
C1226 C1227 1.391 . S
C1227 H1215 0.950 . S
C1227 C1223 1.393 1_554 S
C1227 C1226 1.391 . S
H1228 C1236 0.950 . S
H1229 C1241 0.950 . S
H1230 C1238 0.950 . S
H1231 C1240 0.950 . S
H1232 C1242 0.950 . S
H1233 C1244 0.950 . S
H1234 C1246 0.950 . S
H1235 C1247 0.950 . S
C1236 H1228 0.950 . S
C1236 C1237 1.386 . S
C1236 C1238 1.391 . S
C1237 C1236 1.386 . S
C1237 C1241 1.393 . S
C1238 H1230 0.950 . S
C1238 C1236 1.391 . S
C1238 C1239 1.400 . S
C1239 C1238 1.400 . S
C1239 C1240 1.398 . S
C1239 C1245 1.491 . S
C1240 H1231 0.950 . S
C1240 C1239 1.398 . S
C1240 C1241 1.391 . S
C1241 H1229 0.950 . S
C1241 C1237 1.393 . S
C1241 C1240 1.391 . S
C1242 H1232 0.950 . S
C1242 C1243 1.386 . S
C1242 C1244 1.391 . S
C1243 C1242 1.386 . S
C1243 C1247 1.393 . S
C1244 H1233 0.950 . S
C1244 C1242 1.391 . S
C1244 C1245 1.400 . S
C1245 C1239 1.491 . S
C1245 C1244 1.400 . S
C1245 C1246 1.398 . S
C1246 H1234 0.950 . S
C1246 C1245 1.398 . S
C1246 C1247 1.391 . S
C1247 H1235 0.950 . S
C1247 C1243 1.393 . S
C1247 C1246 1.391 . S
H1248 C1256 0.950 . S
H1249 C1261 0.950 . S
H1250 C1258 0.950 . S
H1251 C1260 0.950 . S
H1252 C1262 0.950 . S
H1253 C1264 0.950 . S
H1254 C1266 0.950 . S
H1255 C1267 0.950 . S
C1256 H1248 0.950 . S
C1256 C1257 1.386 . S
C1256 C1258 1.391 . S
C1257 C1256 1.386 . S
C1257 C1261 1.393 . S
C1258 H1250 0.950 . S
C1258 C1256 1.391 . S
C1258 C1259 1.400 . S
C1259 C1258 1.400 . S
C1259 C1260 1.398 . S
C1259 C1265 1.491 . S
C1260 H1251 0.950 . S
C1260 C1259 1.398 . S
C1260 C1261 1.391 . S
C1261 H1249 0.950 . S
C1261 C1257 1.393 . S
C1261 C1260 1.391 . S
C1262 H1252 0.950 . S
C1262 C1263 1.386 1_554 S
C1262 C1264 1.391 . S
C1263 C1262 1.386 1_556 S
C1263 C1267 1.393 . S
C1264 H1253 0.950 . S
C1264 C1262 1.391 . S
C1264 C1265 1.400 . S
C1265 C1259 1.491 . S
C1265 C1264 1.400 . S
C1265 C1266 1.398 . S
C1266 H1254 0.950 . S
C1266 C1265 1.398 . S
C1266 C1267 1.391 1_554 S
C1267 H1255 0.950 . S
C1267 C1263 1.393 . S
C1267 C1266 1.391 1_556 S
H1268 C1276 0.950 . S
H1269 C1281 0.950 . S
H1270 C1278 0.950 . S
H1271 C1280 0.950 . S
H1272 C1282 0.950 . S
H1273 C1284 0.950 . S
H1274 C1286 0.950 . S
H1275 C1287 0.950 . S
C1276 H1268 0.950 . S
C1276 C1277 1.386 . S
C1276 C1278 1.391 . S
C1277 C1276 1.386 . S
C1277 C1281 1.393 . S
C1278 H1270 0.950 . S
C1278 C1276 1.391 . S
C1278 C1279 1.400 . S
C1279 C1278 1.400 . S
C1279 C1280 1.398 . S
C1279 C1285 1.491 . S
C1280 H1271 0.950 . S
C1280 C1279 1.398 . S
C1280 C1281 1.391 . S
C1281 H1269 0.950 . S
C1281 C1277 1.393 . S
C1281 C1280 1.391 . S
C1282 H1272 0.950 . S
C1282 C1283 1.386 . S
C1282 C1284 1.391 . S
C1283 C1282 1.386 . S
C1283 C1287 1.393 . S
C1284 H1273 0.950 . S
C1284 C1282 1.391 . S
C1284 C1285 1.400 . S
C1285 C1279 1.491 . S
C1285 C1284 1.400 . S
C1285 C1286 1.398 . S
C1286 H1274 0.950 . S
C1286 C1285 1.398 . S
C1286 C1287 1.391 . S
C1287 H1275 0.950 . S
C1287 C1283 1.393 . S
C1287 C1286 1.391 . S
H1288 C1296 0.950 . S
H1289 C1301 0.950 . S
H1290 C1298 0.950 . S
H1291 C1300 0.950 . S
H1292 C1302 0.950 . S
H1293 C1304 0.950 . S
H1294 C1306 0.950 . S
H1295 C1307 0.950 . S
C1296 H1288 0.950 . S
C1296 C1297 1.386 . S
C1296 C1298 1.391 . S
C1297 C1296 1.386 . S
C1297 C1301 1.393 . S
C1298 H1290 0.950 . S
C1298 C1296 1.391 . S
C1298 C1299 1.400 . S
C1299 C1298 1.400 . S
C1299 C1300 1.398 . S
C1299 C1305 1.491 . S
C1300 H1291 0.950 . S
C1300 C1299 1.398 . S
C1300 C1301 1.391 . S
C1301 H1289 0.950 . S
C1301 C1297 1.393 . S
C1301 C1300 1.391 . S
C1302 H1292 0.950 . S
C1302 C1303 1.386 . S
C1302 C1304 1.391 1_554 S
C1303 C1302 1.386 . S
C1303 C1307 1.393 1_554 S
C1304 H1293 0.950 . S
C1304 C1302 1.391 1_556 S
C1304 C1305 1.400 . S
C1305 C1299 1.491 . S
C1305 C1304 1.400 . S
C1305 C1306 1.398 . S
C1306 H1294 0.950 . S
C1306 C1305 1.398 . S
C1306 C1307 1.391 . S
C1307 H1295 0.950 . S
C1307 C1303 1.393 1_556 S
C1307 C1306 1.391 . S
H1308 C1316 0.950 . S
H1309 C1321 0.950 . S
H1310 C1318 0.950 . S
H1311 C1320 0.950 . S
H1312 C1322 0.950 . S
H1313 C1324 0.950 . S
H1314 C1326 0.950 . S
H1315 C1327 0.950 . S
C1316 H1308 0.950 . S
C1316 C1317 1.386 . S
C1316 C1318 1.391 . S
C1317 C1316 1.386 . S
C1317 C1321 1.393 . S
C1318 H1310 0.950 . S
C1318 C1316 1.391 . S
C1318 C1319 1.400 . S
C1319 C1318 1.400 . S
C1319 C1320 1.398 . S
C1319 C1325 1.491 . S
C1320 H1311 0.950 . S
C1320 C1319 1.398 . S
C1320 C1321 1.391 . S
C1321 H1309 0.950 . S
C1321 C1317 1.393 . S
C1321 C1320 1.391 . S
C1322 H1312 0.950 . S
C1322 C1323 1.386 . S
C1322 C1324 1.391 . S
C1323 C1322 1.386 . S
C1323 C1327 1.393 . S
C1324 H1313 0.950 . S
C1324 C1322 1.391 . S
C1324 C1325 1.400 . S
C1325 C1319 1.491 . S
C1325 C1324 1.400 . S
C1325 C1326 1.398 . S
C1326 H1314 0.950 . S
C1326 C1325 1.398 . S
C1326 C1327 1.391 . S
C1327 H1315 0.950 . S
C1327 C1323 1.393 . S
C1327 C1326 1.391 . S
H1328 C1336 0.950 . S
H1329 C1341 0.950 . S
H1330 C1338 0.950 . S
H1331 C1340 0.950 . S
H1332 C1342 0.950 . S
H1333 C1344 0.950 . S
H1334 C1346 0.950 . S
H1335 C1347 0.950 . S
C1336 H1328 0.950 . S
C1336 C1337 1.386 . S
C1336 C1338 1.391 . S
C1337 C1336 1.386 . S
C1337 C1341 1.393 . S
C1338 H1330 0.950 . S
C1338 C1336 1.391 . S
C1338 C1339 1.400 . S
C1339 C1338 1.400 . S
C1339 C1340 1.398 . S
C1339 C1345 1.491 . S
C1340 H1331 0.950 . S
C1340 C1339 1.398 . S
C1340 C1341 1.391 . S
C1341 H1329 0.950 . S
C1341 C1337 1.393 . S
C1341 C1340 1.391 . S
C1342 H1332 0.950 . S
C1342 C1343 1.386 . S
C1342 C1344 1.391 1_554 S
C1343 C1342 1.386 . S
C1343 C1347 1.393 . S
C1344 H1333 0.950 . S
C1344 C1342 1.391 1_556 S
C1344 C1345 1.400 . S
C1345 C1339 1.491 . S
C1345 C1344 1.400 . S
C1345 C1346 1.398 . S
C1346 H1334 0.950 . S
C1346 C1345 1.398 . S
C1346 C1347 1.391 1_556 S
C1347 H1335 0.950 . S
C1347 C1343 1.393 . S
C1347 C1346 1.391 1_554 S
H1348 C1356 0.950 . S
H1349 C1361 0.950 . S
H1350 C1358 0.950 . S
H1351 C1360 0.950 . S
H1352 C1362 0.950 . S
H1353 C1364 0.950 . S
H1354 C1366 0.950 . S
H1355 C1367 0.950 . S
C1356 H1348 0.950 . S
C1356 C1357 1.386 . S
C1356 C1358 1.391 . S
C1357 C1356 1.386 . S
C1357 C1361 1.393 . S
C1358 H1350 0.950 . S
C1358 C1356 1.391 . S
C1358 C1359 1.400 . S
C1359 C1358 1.400 . S
C1359 C1360 1.398 . S
C1359 C1365 1.491 . S
C1360 H1351 0.950 . S
C1360 C1359 1.398 . S
C1360 C1361 1.391 . S
C1361 H1349 0.950 . S
C1361 C1357 1.393 . S
C1361 C1360 1.391 . S
C1362 H1352 0.950 . S
C1362 C1363 1.386 . S
C1362 C1364 1.391 . S
C1363 C1362 1.386 . S
C1363 C1367 1.393 . S
C1364 H1353 0.950 . S
C1364 C1362 1.391 . S
C1364 C1365 1.400 . S
C1365 C1359 1.491 . S
C1365 C1364 1.400 . S
C1365 C1366 1.398 . S
C1366 H1354 0.950 . S
C1366 C1365 1.398 . S
C1366 C1367 1.391 . S
C1367 H1355 0.950 . S
C1367 C1363 1.393 . S
C1367 C1366 1.391 . S
H1368 C1376 0.950 . S
H1369 C1381 0.950 . S
H1370 C1378 0.950 . S
H1371 C1380 0.950 . S
H1372 C1382 0.950 . S
H1373 C1384 0.950 . S
H1374 C1386 0.950 . S
H1375 C1387 0.950 . S
C1376 H1368 0.950 . S
C1376 C1377 1.386 . S
C1376 C1378 1.391 . S
C1377 C1376 1.386 . S
C1377 C1381 1.393 . S
C1378 H1370 0.950 . S
C1378 C1376 1.391 . S
C1378 C1379 1.400 . S
C1379 C1378 1.400 . S
C1379 C1380 1.398 . S
C1379 C1385 1.491 . S
C1380 H1371 0.950 . S
C1380 C1379 1.398 . S
C1380 C1381 1.391 . S
C1381 H1369 0.950 . S
C1381 C1377 1.393 . S
C1381 C1380 1.391 . S
C1382 H1372 0.950 . S
C1382 C1383 1.386 . S
C1382 C1384 1.391 . S
C1383 C1382 1.386 . S
C1383 C1387 1.393 . S
C1384 H1373 0.950 . S
C1384 C1382 1.391 . S
C1384 C1385 1.400 . S
C1385 C1379 1.491 . S
C1385 C1384 1.400 . S
C1385 C1386 1.398 . S
C1386 H1374 0.950 . S
C1386 C1385 1.398 . S
C1386 C1387 1.391 . S
C1387 H1375 0.950 . S
C1387 C1383 1.393 . S
C1387 C1386 1.391 . S
H1388 C1396 0.950 . S
H1389 C1401 0.950 . S
H1390 C1398 0.950 . S
H1391 C1400 0.950 . S
H1392 C1402 0.950 . S
H1393 C1404 0.950 . S
H1394 C1406 0.950 . S
H1395 C1407 0.950 . S
C1396 H1388 0.950 . S
C1396 C1397 1.386 . S
C1396 C1398 1.391 . S
C1397 C1396 1.386 . S
C1397 C1401 1.393 . S
C1398 H1390 0.950 . S
C1398 C1396 1.391 . S
C1398 C1399 1.400 . S
C1399 C1398 1.400 . S
C1399 C1400 1.398 . S
C1399 C1405 1.491 . S
C1400 H1391 0.950 . S
C1400 C1399 1.398 . S
C1400 C1401 1.391 . S
C1401 H1389 0.950 . S
C1401 C1397 1.393 . S
C1401 C1400 1.391 . S
C1402 H1392 0.950 . S
C1402 C1403 1.386 . S
C1402 C1404 1.391 . S
C1403 C1402 1.386 . S
C1403 C1407 1.393 . S
C1404 H1393 0.950 . S
C1404 C1402 1.391 . S
C1404 C1405 1.400 . S
C1405 C1399 1.491 . S
C1405 C1404 1.400 . S
C1405 C1406 1.398 . S
C1406 H1394 0.950 . S
C1406 C1405 1.398 . S
C1406 C1407 1.391 . S
C1407 H1395 0.950 . S
C1407 C1403 1.393 . S
C1407 C1406 1.391 . S
H1408 C1416 0.950 . S
H1409 C1421 0.950 . S
H1410 C1418 0.950 . S
H1411 C1420 0.950 . S
H1412 C1422 0.950 . S
H1413 C1424 0.950 . S
H1414 C1426 0.950 . S
H1415 C1427 0.950 . S
C1416 H1408 0.950 . S
C1416 C1417 1.386 . S
C1416 C1418 1.391 . S
C1417 C1416 1.386 . S
C1417 C1421 1.393 . S
C1418 H1410 0.950 . S
C1418 C1416 1.391 . S
C1418 C1419 1.400 . S
C1419 C1418 1.400 . S
C1419 C1420 1.398 . S
C1419 C1425 1.491 . S
C1420 H1411 0.950 . S
C1420 C1419 1.398 . S
C1420 C1421 1.391 . S
C1421 H1409 0.950 . S
C1421 C1417 1.393 . S
C1421 C1420 1.391 . S
C1422 H1412 0.950 . S
C1422 C1423 1.386 1_565 S
C1422 C1424 1.391 . S
C1423 C1422 1.386 1_545 S
C1423 C1427 1.393 . S
C1424 H1413 0.950 . S
C1424 C1422 1.391 . S
C1424 C1425 1.400 . S
C1425 C1419 1.491 . S
C1425 C1424 1.400 . S
C1425 C1426 1.398 . S
C1426 H1414 0.950 . S
C1426 C1425 1.398 . S
C1426 C1427 1.391 1_565 S
C1427 H1415 0.950 . S
C1427 C1423 1.393 . S
C1427 C1426 1.391 1_545 S
H1428 C1436 0.950 . S
H1429 C1441 0.950 . S
H1430 C1438 0.950 . S
H1431 C1440 0.950 . S
H1432 C1442 0.950 . S
H1433 C1444 0.950 . S
H1434 C1446 0.950 . S
H1435 C1447 0.950 . S
C1436 H1428 0.950 . S
C1436 C1437 1.386 . S
C1436 C1438 1.391 . S
C1437 C1436 1.386 . S
C1437 C1441 1.393 . S
C1438 H1430 0.950 . S
C1438 C1436 1.391 . S
C1438 C1439 1.400 . S
C1439 C1438 1.400 . S
C1439 C1440 1.398 . S
C1439 C1445 1.491 . S
C1440 H1431 0.950 . S
C1440 C1439 1.398 . S
C1440 C1441 1.391 . S
C1441 H1429 0.950 . S
C1441 C1437 1.393 . S
C1441 C1440 1.391 . S
C1442 H1432 0.950 . S
C1442 C1443 1.386 . S
C1442 C1444 1.391 . S
C1443 C1442 1.386 . S
C1443 C1447 1.393 . S
C1444 H1433 0.950 . S
C1444 C1442 1.391 . S
C1444 C1445 1.400 . S
C1445 C1439 1.491 . S
C1445 C1444 1.400 . S
C1445 C1446 1.398 . S
C1446 H1434 0.950 . S
C1446 C1445 1.398 . S
C1446 C1447 1.391 . S
C1447 H1435 0.950 . S
C1447 C1443 1.393 . S
C1447 C1446 1.391 . S
H1448 C1456 0.950 . S
H1449 C1461 0.950 . S
H1450 C1458 0.950 . S
H1451 C1460 0.950 . S
H1452 C1462 0.950 . S
H1453 C1464 0.950 . S
H1454 C1466 0.950 . S
H1455 C1467 0.950 . S
C1456 H1448 0.950 . S
C1456 C1457 1.386 . S
C1456 C1458 1.391 . S
C1457 C1456 1.386 . S
C1457 C1461 1.393 . S
C1458 H1450 0.950 . S
C1458 C1456 1.391 . S
C1458 C1459 1.400 . S
C1459 C1458 1.400 . S
C1459 C1460 1.398 . S
C1459 C1465 1.491 . S
C1460 H1451 0.950 . S
C1460 C1459 1.398 . S
C1460 C1461 1.391 . S
C1461 H1449 0.950 . S
C1461 C1457 1.393 . S
C1461 C1460 1.391 . S
C1462 H1452 0.950 . S
C1462 C1463 1.386 . S
C1462 C1464 1.391 . S
C1463 C1462 1.386 . S
C1463 C1467 1.393 . S
C1464 H1453 0.950 . S
C1464 C1462 1.391 . S
C1464 C1465 1.400 . S
C1465 C1459 1.491 . S
C1465 C1464 1.400 . S
C1465 C1466 1.398 . S
C1466 H1454 0.950 . S
C1466 C1465 1.398 . S
C1466 C1467 1.391 . S
C1467 H1455 0.950 . S
C1467 C1463 1.393 . S
C1467 C1466 1.391 . S
H1468 C1476 0.950 . S
H1469 C1481 0.950 . S
H1470 C1478 0.950 . S
H1471 C1480 0.950 . S
H1472 C1482 0.950 . S
H1473 C1484 0.950 . S
H1474 C1486 0.950 . S
H1475 C1487 0.950 . S
C1476 H1468 0.950 . S
C1476 C1477 1.386 . S
C1476 C1478 1.391 . S
C1477 C1476 1.386 . S
C1477 C1481 1.393 . S
C1478 H1470 0.950 . S
C1478 C1476 1.391 . S
C1478 C1479 1.400 . S
C1479 C1478 1.400 . S
C1479 C1480 1.398 . S
C1479 C1485 1.491 . S
C1480 H1471 0.950 . S
C1480 C1479 1.398 . S
C1480 C1481 1.391 . S
C1481 H1469 0.950 . S
C1481 C1477 1.393 . S
C1481 C1480 1.391 . S
C1482 H1472 0.950 . S
C1482 C1483 1.386 . S
C1482 C1484 1.391 . S
C1483 C1482 1.386 . S
C1483 C1487 1.393 . S
C1484 H1473 0.950 . S
C1484 C1482 1.391 . S
C1484 C1485 1.400 . S
C1485 C1479 1.491 . S
C1485 C1484 1.400 . S
C1485 C1486 1.398 . S
C1486 H1474 0.950 . S
C1486 C1485 1.398 . S
C1486 C1487 1.391 . S
C1487 H1475 0.950 . S
C1487 C1483 1.393 . S
C1487 C1486 1.391 . S
H1488 C1496 0.950 . S
H1489 C1501 0.950 . S
H1490 C1498 0.950 . S
H1491 C1500 0.950 . S
H1492 C1502 0.950 . S
H1493 C1504 0.950 . S
H1494 C1506 0.950 . S
H1495 C1507 0.950 . S
C1496 H1488 0.950 . S
C1496 C1497 1.386 . S
C1496 C1498 1.391 . S
C1497 C1496 1.386 . S
C1497 C1501 1.393 . S
C1498 H1490 0.950 . S
C1498 C1496 1.391 . S
C1498 C1499 1.400 . S
C1499 C1498 1.400 . S
C1499 C1500 1.398 . S
C1499 C1505 1.491 . S
C1500 H1491 0.950 . S
C1500 C1499 1.398 . S
C1500 C1501 1.391 . S
C1501 H1489 0.950 . S
C1501 C1497 1.393 . S
C1501 C1500 1.391 . S
C1502 H1492 0.950 . S
C1502 C1503 1.386 1_565 S
C1502 C1504 1.391 . S
C1503 C1502 1.386 1_545 S
C1503 C1507 1.393 . S
C1504 H1493 0.950 . S
C1504 C1502 1.391 . S
C1504 C1505 1.400 . S
C1505 C1499 1.491 . S
C1505 C1504 1.400 . S
C1505 C1506 1.398 . S
C1506 H1494 0.950 . S
C1506 C1505 1.398 . S
C1506 C1507 1.391 1_565 S
C1507 H1495 0.950 . S
C1507 C1503 1.393 . S
C1507 C1506 1.391 1_545 S
H1508 C1516 0.950 . S
H1509 C1521 0.950 . S
H1510 C1518 0.950 . S
H1511 C1520 0.950 . S
H1512 C1522 0.950 . S
H1513 C1524 0.950 . S
H1514 C1526 0.950 . S
H1515 C1527 0.950 . S
C1516 H1508 0.950 . S
C1516 C1517 1.386 . S
C1516 C1518 1.391 . S
C1517 C1516 1.386 . S
C1517 C1521 1.393 . S
C1518 H1510 0.950 . S
C1518 C1516 1.391 . S
C1518 C1519 1.400 . S
C1519 C1518 1.400 . S
C1519 C1520 1.398 . S
C1519 C1525 1.491 . S
C1520 H1511 0.950 . S
C1520 C1519 1.398 . S
C1520 C1521 1.391 . S
C1521 H1509 0.950 . S
C1521 C1517 1.393 . S
C1521 C1520 1.391 . S
C1522 H1512 0.950 . S
C1522 C1523 1.386 . S
C1522 C1524 1.391 . S
C1523 C1522 1.386 . S
C1523 C1527 1.393 . S
C1524 H1513 0.950 . S
C1524 C1522 1.391 . S
C1524 C1525 1.400 . S
C1525 C1519 1.491 . S
C1525 C1524 1.400 . S
C1525 C1526 1.398 . S
C1526 H1514 0.950 . S
C1526 C1525 1.398 . S
C1526 C1527 1.391 . S
C1527 H1515 0.950 . S
C1527 C1523 1.393 . S
C1527 C1526 1.391 . S
H1528 C1536 0.950 . S
H1529 C1541 0.950 . S
H1530 C1538 0.950 . S
H1531 C1540 0.950 . S
H1532 C1542 0.950 . S
H1533 C1544 0.950 . S
H1534 C1546 0.950 . S
H1535 C1547 0.950 . S
C1536 H1528 0.950 . S
C1536 C1537 1.386 . S
C1536 C1538 1.391 . S
C1537 C1536 1.386 . S
C1537 C1541 1.393 . S
C1538 H1530 0.950 . S
C1538 C1536 1.391 . S
C1538 C1539 1.400 . S
C1539 C1538 1.400 . S
C1539 C1540 1.398 . S
C1539 C1545 1.491 . S
C1540 H1531 0.950 . S
C1540 C1539 1.398 . S
C1540 C1541 1.391 . S
C1541 H1529 0.950 . S
C1541 C1537 1.393 . S
C1541 C1540 1.391 . S
C1542 H1532 0.950 . S
C1542 C1543 1.386 . S
C1542 C1544 1.391 . S
C1543 C1542 1.386 . S
C1543 C1547 1.393 . S
C1544 H1533 0.950 . S
C1544 C1542 1.391 . S
C1544 C1545 1.400 . S
C1545 C1539 1.491 . S
C1545 C1544 1.400 . S
C1545 C1546 1.398 . S
C1546 H1534 0.950 . S
C1546 C1545 1.398 . S
C1546 C1547 1.391 . S
C1547 H1535 0.950 . S
C1547 C1543 1.393 . S
C1547 C1546 1.391 . S
H1548 C1556 0.950 . S
H1549 C1561 0.950 . S
H1550 C1558 0.950 . S
H1551 C1560 0.950 . S
H1552 C1562 0.950 . S
H1553 C1564 0.950 . S
H1554 C1566 0.950 . S
H1555 C1567 0.950 . S
C1556 H1548 0.950 . S
C1556 C1557 1.386 . S
C1556 C1558 1.391 . S
C1557 C1556 1.386 . S
C1557 C1561 1.393 . S
C1558 H1550 0.950 . S
C1558 C1556 1.391 . S
C1558 C1559 1.400 . S
C1559 C1558 1.400 . S
C1559 C1560 1.398 . S
C1559 C1565 1.491 . S
C1560 H1551 0.950 . S
C1560 C1559 1.398 . S
C1560 C1561 1.391 . S
C1561 H1549 0.950 . S
C1561 C1557 1.393 . S
C1561 C1560 1.391 . S
C1562 H1552 0.950 . S
C1562 C1563 1.386 . S
C1562 C1564 1.391 1_655 S
C1563 C1562 1.386 . S
C1563 C1567 1.393 . S
C1564 H1553 0.950 . S
C1564 C1562 1.391 1_455 S
C1564 C1565 1.400 . S
C1565 C1559 1.491 . S
C1565 C1564 1.400 . S
C1565 C1566 1.398 . S
C1566 H1554 0.950 . S
C1566 C1565 1.398 . S
C1566 C1567 1.391 1_455 S
C1567 H1555 0.950 . S
C1567 C1563 1.393 . S
C1567 C1566 1.391 1_655 S
H1568 C1576 0.950 . S
H1569 C1581 0.929 1_554 S
H1570 C1578 0.950 . S
H1571 C1580 0.950 . S
H1572 C1582 0.950 . S
H1573 C1584 0.950 . S
H1574 C1586 0.950 . S
H1575 C1587 0.929 1_556 S
C1576 H1568 0.950 . S
C1576 C1577 1.386 . S
C1576 C1578 1.391 . S
C1577 C1576 1.386 . S
C1577 C1581 1.430 . S
C1578 H1570 0.950 . S
C1578 C1576 1.391 . S
C1578 C1579 1.400 . S
C1579 C1578 1.400 . S
C1579 C1580 1.398 1_556 S
C1579 C1585 1.491 1_556 S
C1580 H1571 0.950 . S
C1580 C1579 1.398 1_554 S
C1580 C1581 1.375 1_554 S
C1581 H1569 0.929 1_556 S
C1581 C1577 1.430 . S
C1581 C1580 1.375 1_556 S
C1582 H1572 0.950 . S
C1582 C1583 1.386 . S
C1582 C1584 1.391 . S
C1583 C1582 1.386 . S
C1583 C1587 1.393 . S
C1584 H1573 0.950 . S
C1584 C1582 1.391 . S
C1584 C1585 1.400 . S
C1585 C1579 1.491 1_554 S
C1585 C1584 1.400 . S
C1585 C1586 1.398 1_554 S
C1586 H1574 0.950 . S
C1586 C1585 1.398 1_556 S
C1586 C1587 1.391 1_556 S
C1587 H1575 0.929 1_554 S
C1587 C1583 1.393 . S
C1587 C1586 1.391 1_554 S
H1588 C1596 0.950 . S
H1589 C1601 0.950 . S
H1590 C1598 0.950 . S
H1591 C1600 0.950 . S
H1592 C1602 0.950 . S
H1593 C1604 0.950 . S
H1594 C1606 0.950 . S
H1595 C1607 0.950 . S
C1596 H1588 0.950 . S
C1596 C1597 1.386 . S
C1596 C1598 1.391 . S
C1597 C1596 1.386 . S
C1597 C1601 1.393 . S
C1598 H1590 0.950 . S
C1598 C1596 1.391 . S
C1598 C1599 1.400 . S
C1599 C1598 1.400 . S
C1599 C1600 1.398 . S
C1599 C1605 1.491 . S
C1600 H1591 0.950 . S
C1600 C1599 1.398 . S
C1600 C1601 1.391 . S
C1601 H1589 0.950 . S
C1601 C1597 1.393 . S
C1601 C1600 1.391 . S
C1602 H1592 0.950 . S
C1602 C1603 1.386 . S
C1602 C1604 1.391 . S
C1603 C1602 1.386 . S
C1603 C1607 1.393 . S
C1604 H1593 0.950 . S
C1604 C1602 1.391 . S
C1604 C1605 1.400 . S
C1605 C1599 1.491 . S
C1605 C1604 1.400 . S
C1605 C1606 1.398 . S
C1606 H1594 0.950 . S
C1606 C1605 1.398 . S
C1606 C1607 1.391 . S
C1607 H1595 0.950 . S
C1607 C1603 1.393 . S
C1607 C1606 1.391 . S
H1608 C1616 0.950 . S
H1609 C1621 0.950 . S
H1610 C1618 0.950 . S
H1611 C1620 0.950 . S
H1612 C1622 0.950 . S
H1613 C1624 0.950 . S
H1614 C1626 0.950 . S
H1615 C1627 0.950 . S
C1616 H1608 0.950 . S
C1616 C1617 1.386 . S
C1616 C1618 1.391 . S
C1617 C1616 1.386 . S
C1617 C1621 1.393 . S
C1618 H1610 0.950 . S
C1618 C1616 1.391 . S
C1618 C1619 1.400 . S
C1619 C1618 1.400 . S
C1619 C1620 1.398 . S
C1619 C1625 1.491 . S
C1620 H1611 0.950 . S
C1620 C1619 1.398 . S
C1620 C1621 1.391 . S
C1621 H1609 0.950 . S
C1621 C1617 1.393 . S
C1621 C1620 1.391 . S
C1622 H1612 0.950 . S
C1622 C1623 1.386 . S
C1622 C1624 1.391 . S
C1623 C1622 1.386 . S
C1623 C1627 1.393 . S
C1624 H1613 0.950 . S
C1624 C1622 1.391 . S
C1624 C1625 1.400 . S
C1625 C1619 1.491 . S
C1625 C1624 1.400 . S
C1625 C1626 1.398 . S
C1626 H1614 0.950 . S
C1626 C1625 1.398 . S
C1626 C1627 1.391 . S
C1627 H1615 0.950 . S
C1627 C1623 1.393 . S
C1627 C1626 1.391 . S
H1628 C1636 0.950 . S
H1629 C1641 0.950 . S
H1630 C1638 0.950 . S
H1631 C1640 0.950 . S
H1632 C1642 0.961 . S
H1633 C1644 0.950 . S
H1634 C1646 0.950 . S
H1635 C1647 0.950 . S
C1636 H1628 0.950 . S
C1636 C1637 1.386 . S
C1636 C1638 1.391 . S
C1637 C1636 1.386 . S
C1637 C1641 1.393 . S
C1638 H1630 0.950 . S
C1638 C1636 1.391 . S
C1638 C1639 1.400 . S
C1639 C1638 1.400 . S
C1639 C1640 1.398 . S
C1639 C1645 1.491 . S
C1640 H1631 0.950 . S
C1640 C1639 1.398 . S
C1640 C1641 1.391 . S
C1641 H1629 0.950 . S
C1641 C1637 1.393 . S
C1641 C1640 1.391 . S
C1642 H1632 0.961 . S
C1642 C1643 1.386 1_455 S
C1642 C1644 1.391 . S
C1643 C1642 1.386 1_655 S
C1643 C1647 1.393 . S
C1644 H1633 0.950 . S
C1644 C1642 1.391 . S
C1644 C1645 1.400 . S
C1645 C1639 1.491 . S
C1645 C1644 1.400 . S
C1645 C1646 1.398 . S
C1646 H1634 0.950 . S
C1646 C1645 1.398 . S
C1646 C1647 1.391 1_455 S
C1647 H1635 0.950 . S
C1647 C1643 1.393 . S
C1647 C1646 1.391 1_655 S
H1648 C1656 0.950 . S
H1649 C1661 0.950 . S
H1650 C1658 0.950 . S
H1651 C1660 0.950 . S
H1652 C1662 0.950 . S
H1653 C1664 0.953 . S
H1654 C1666 0.950 . S
H1655 C1667 0.950 . S
C1656 H1648 0.950 . S
C1656 C1657 1.386 . S
C1656 C1658 1.391 . S
C1657 C1656 1.386 . S
C1657 C1661 1.393 . S
C1658 H1650 0.950 . S
C1658 C1656 1.391 . S
C1658 C1659 1.400 . S
C1659 C1658 1.400 . S
C1659 C1660 1.398 . S
C1659 C1665 1.491 . S
C1660 H1651 0.950 . S
C1660 C1659 1.398 . S
C1660 C1661 1.391 . S
C1661 H1649 0.950 . S
C1661 C1657 1.393 . S
C1661 C1660 1.391 . S
C1662 H1652 0.950 . S
C1662 C1663 1.386 . S
C1662 C1664 1.410 . S
C1663 C1662 1.386 . S
C1663 C1667 1.393 1_455 S
C1664 H1653 0.953 . S
C1664 C1662 1.410 . S
C1664 C1665 1.379 1_455 S
C1665 C1659 1.491 . S
C1665 C1664 1.379 1_655 S
C1665 C1666 1.398 . S
C1666 H1654 0.950 . S
C1666 C1665 1.398 . S
C1666 C1667 1.391 . S
C1667 H1655 0.950 . S
C1667 C1663 1.393 1_655 S
C1667 C1666 1.391 . S
H1668 C1676 0.950 . S
H1669 C1681 0.950 . S
H1670 C1678 0.950 . S
H1671 C1680 0.950 . S
H1672 C1682 0.950 . S
H1673 C1684 0.950 . S
H1674 C1686 0.950 . S
H1675 C1687 0.950 . S
C1676 H1668 0.950 . S
C1676 C1677 1.386 . S
C1676 C1678 1.391 . S
C1677 C1676 1.386 . S
C1677 C1681 1.393 . S
C1678 H1670 0.950 . S
C1678 C1676 1.391 . S
C1678 C1679 1.400 . S
C1679 C1678 1.400 . S
C1679 C1680 1.398 . S
C1679 C1685 1.491 . S
C1680 H1671 0.950 . S
C1680 C1679 1.398 . S
C1680 C1681 1.391 . S
C1681 H1669 0.950 . S
C1681 C1677 1.393 . S
C1681 C1680 1.391 . S
C1682 H1672 0.950 . S
C1682 C1683 1.386 . S
C1682 C1684 1.391 . S
C1683 C1682 1.386 . S
C1683 C1687 1.393 . S
C1684 H1673 0.950 . S
C1684 C1682 1.391 . S
C1684 C1685 1.400 . S
C1685 C1679 1.491 . S
C1685 C1684 1.400 . S
C1685 C1686 1.398 . S
C1686 H1674 0.950 . S
C1686 C1685 1.398 . S
C1686 C1687 1.391 . S
C1687 H1675 0.950 . S
C1687 C1683 1.393 . S
C1687 C1686 1.391 . S
H1688 C1696 0.950 . S
H1689 C1701 0.950 . S
H1690 C1698 0.950 . S
H1691 C1700 0.950 . S
H1692 C1702 0.950 . S
H1693 C1704 0.950 . S
H1694 C1706 0.950 . S
H1695 C1707 0.950 . S
C1696 H1688 0.950 . S
C1696 C1697 1.386 . S
C1696 C1698 1.391 . S
C1697 C1696 1.386 . S
C1697 C1701 1.393 . S
C1698 H1690 0.950 . S
C1698 C1696 1.391 . S
C1698 C1699 1.400 . S
C1699 C1698 1.400 . S
C1699 C1700 1.398 . S
C1699 C1705 1.491 . S
C1700 H1691 0.950 . S
C1700 C1699 1.398 . S
C1700 C1701 1.391 . S
C1701 H1689 0.950 . S
C1701 C1697 1.393 . S
C1701 C1700 1.391 . S
C1702 H1692 0.950 . S
C1702 C1703 1.386 . S
C1702 C1704 1.391 . S
C1703 C1702 1.386 . S
C1703 C1707 1.393 . S
C1704 H1693 0.950 . S
C1704 C1702 1.391 . S
C1704 C1705 1.400 . S
C1705 C1699 1.491 . S
C1705 C1704 1.400 . S
C1705 C1706 1.398 . S
C1706 H1694 0.950 . S
C1706 C1705 1.398 . S
C1706 C1707 1.391 . S
C1707 H1695 0.950 . S
C1707 C1703 1.393 . S
C1707 C1706 1.391 . S
H1708 C1716 0.950 . S
H1709 C1721 0.950 . S
H1710 C1718 0.950 . S
H1711 C1720 0.950 . S
H1712 C1722 0.950 . S
H1713 C1724 0.950 . S
H1714 C1726 0.950 . S
H1715 C1727 0.950 . S
C1716 H1708 0.950 . S
C1716 C1717 1.386 . S
C1716 C1718 1.391 . S
C1717 C1716 1.386 . S
C1717 C1721 1.393 . S
C1718 H1710 0.950 . S
C1718 C1716 1.391 . S
C1718 C1719 1.400 . S
C1719 C1718 1.400 . S
C1719 C1720 1.398 . S
C1719 C1725 1.491 . S
C1720 H1711 0.950 . S
C1720 C1719 1.398 . S
C1720 C1721 1.391 . S
C1721 H1709 0.950 . S
C1721 C1717 1.393 . S
C1721 C1720 1.391 . S
C1722 H1712 0.950 . S
C1722 C1723 1.386 . S
C1722 C1724 1.391 . S
C1723 C1722 1.386 . S
C1723 C1727 1.393 . S
C1724 H1713 0.950 . S
C1724 C1722 1.391 . S
C1724 C1725 1.400 . S
C1725 C1719 1.491 . S
C1725 C1724 1.400 . S
C1725 C1726 1.398 . S
C1726 H1714 0.950 . S
C1726 C1725 1.398 . S
C1726 C1727 1.391 . S
C1727 H1715 0.950 . S
C1727 C1723 1.393 . S
C1727 C1726 1.391 . S
H1728 C1736 0.950 . S
H1729 C1741 0.950 . S
H1730 C1738 0.950 . S
H1731 C1740 0.950 . S
H1732 C1742 0.950 . S
H1733 C1744 0.950 . S
H1734 C1746 0.950 . S
H1735 C1747 0.950 . S
C1736 H1728 0.950 . S
C1736 C1737 1.386 . S
C1736 C1738 1.391 . S
C1737 C1736 1.386 . S
C1737 C1741 1.393 . S
C1738 H1730 0.950 . S
C1738 C1736 1.391 . S
C1738 C1739 1.400 . S
C1739 C1738 1.400 . S
C1739 C1740 1.398 . S
C1739 C1745 1.491 . S
C1740 H1731 0.950 . S
C1740 C1739 1.398 . S
C1740 C1741 1.391 . S
C1741 H1729 0.950 . S
C1741 C1737 1.393 . S
C1741 C1740 1.391 . S
C1742 H1732 0.950 . S
C1742 C1743 1.386 . S
C1742 C1744 1.391 . S
C1743 C1742 1.386 . S
C1743 C1747 1.393 . S
C1744 H1733 0.950 . S
C1744 C1742 1.391 . S
C1744 C1745 1.400 . S
C1745 C1739 1.491 . S
C1745 C1744 1.400 . S
C1745 C1746 1.398 . S
C1746 H1734 0.950 . S
C1746 C1745 1.398 . S
C1746 C1747 1.391 . S
C1747 H1735 0.950 . S
C1747 C1743 1.393 . S
C1747 C1746 1.391 . S
H1748 C1756 0.950 . S
H1749 C1761 0.950 . S
H1750 C1758 0.950 . S
H1751 C1760 0.950 . S
H1752 C1762 0.950 . S
H1753 C1764 0.950 . S
H1754 C1766 0.950 . S
H1755 C1767 0.950 . S
C1756 H1748 0.950 . S
C1756 C1757 1.386 . S
C1756 C1758 1.391 . S
C1757 C1756 1.386 . S
C1757 C1761 1.393 . S
C1758 H1750 0.950 . S
C1758 C1756 1.391 . S
C1758 C1759 1.400 . S
C1759 C1758 1.400 . S
C1759 C1760 1.398 . S
C1759 C1765 1.491 . S
C1760 H1751 0.950 . S
C1760 C1759 1.398 . S
C1760 C1761 1.391 . S
C1761 H1749 0.950 . S
C1761 C1757 1.393 . S
C1761 C1760 1.391 . S
C1762 H1752 0.950 . S
C1762 C1763 1.386 . S
C1762 C1764 1.391 . S
C1763 C1762 1.386 . S
C1763 C1767 1.393 . S
C1764 H1753 0.950 . S
C1764 C1762 1.391 . S
C1764 C1765 1.400 . S
C1765 C1759 1.491 . S
C1765 C1764 1.400 . S
C1765 C1766 1.398 . S
C1766 H1754 0.950 . S
C1766 C1765 1.398 . S
C1766 C1767 1.391 . S
C1767 H1755 0.950 . S
C1767 C1763 1.393 . S
C1767 C1766 1.391 . S
H1768 C1776 0.950 . S
H1769 C1781 0.950 . S
H1770 C1778 0.950 . S
H1771 C1780 0.950 . S
H1772 C1782 0.950 . S
H1773 C1784 0.950 . S
H1774 C1786 0.950 . S
H1775 C1787 0.950 . S
C1776 H1768 0.950 . S
C1776 C1777 1.386 . S
C1776 C1778 1.391 . S
C1777 C1776 1.386 . S
C1777 C1781 1.393 . S
C1778 H1770 0.950 . S
C1778 C1776 1.391 . S
C1778 C1779 1.400 . S
C1779 C1778 1.400 . S
C1779 C1780 1.398 . S
C1779 C1785 1.491 . S
C1780 H1771 0.950 . S
C1780 C1779 1.398 . S
C1780 C1781 1.391 . S
C1781 H1769 0.950 . S
C1781 C1777 1.393 . S
C1781 C1780 1.391 . S
C1782 H1772 0.950 . S
C1782 C1783 1.386 . S
C1782 C1784 1.391 . S
C1783 C1782 1.386 . S
C1783 C1787 1.393 . S
C1784 H1773 0.950 . S
C1784 C1782 1.391 . S
C1784 C1785 1.400 . S
C1785 C1779 1.491 . S
C1785 C1784 1.400 . S
C1785 C1786 1.398 . S
C1786 H1774 0.950 . S
C1786 C1785 1.398 . S
C1786 C1787 1.391 . S
C1787 H1775 0.950 . S
C1787 C1783 1.393 . S
C1787 C1786 1.391 . S
H1788 C1796 0.950 . S
H1789 C1801 0.950 . S
H1790 C1798 0.950 . S
H1791 C1800 0.950 . S
H1792 C1802 0.950 . S
H1793 C1804 0.950 . S
H1794 C1806 0.950 . S
H1795 C1807 0.950 . S
C1796 H1788 0.950 . S
C1796 C1797 1.386 . S
C1796 C1798 1.391 . S
C1797 C1796 1.386 . S
C1797 C1801 1.393 . S
C1798 H1790 0.950 . S
C1798 C1796 1.391 . S
C1798 C1799 1.400 . S
C1799 C1798 1.400 . S
C1799 C1800 1.398 . S
C1799 C1805 1.491 . S
C1800 H1791 0.950 . S
C1800 C1799 1.398 . S
C1800 C1801 1.391 . S
C1801 H1789 0.950 . S
C1801 C1797 1.393 . S
C1801 C1800 1.391 . S
C1802 H1792 0.950 . S
C1802 C1803 1.386 . S
C1802 C1804 1.391 . S
C1803 C1802 1.386 . S
C1803 C1807 1.393 . S
C1804 H1793 0.950 . S
C1804 C1802 1.391 . S
C1804 C1805 1.400 . S
C1805 C1799 1.491 . S
C1805 C1804 1.400 . S
C1805 C1806 1.398 . S
C1806 H1794 0.950 . S
C1806 C1805 1.398 . S
C1806 C1807 1.391 . S
C1807 H1795 0.950 . S
C1807 C1803 1.393 . S
C1807 C1806 1.391 . S
H1808 C1816 0.950 . S
H1809 C1821 0.950 . S
H1810 C1818 0.950 . S
H1811 C1820 0.950 . S
H1812 C1822 0.950 . S
H1813 C1824 0.950 . S
H1814 C1826 0.950 . S
H1815 C1827 0.950 . S
C1816 H1808 0.950 . S
C1816 C1817 1.386 . S
C1816 C1818 1.391 . S
C1817 C1816 1.386 . S
C1817 C1821 1.393 . S
C1818 H1810 0.950 . S
C1818 C1816 1.391 . S
C1818 C1819 1.400 . S
C1819 C1818 1.400 . S
C1819 C1820 1.398 . S
C1819 C1825 1.491 . S
C1820 H1811 0.950 . S
C1820 C1819 1.398 . S
C1820 C1821 1.391 . S
C1821 H1809 0.950 . S
C1821 C1817 1.393 . S
C1821 C1820 1.391 . S
C1822 H1812 0.950 . S
C1822 C1823 1.386 . S
C1822 C1824 1.391 . S
C1823 C1822 1.386 . S
C1823 C1827 1.393 . S
C1824 H1813 0.950 . S
C1824 C1822 1.391 . S
C1824 C1825 1.400 . S
C1825 C1819 1.491 . S
C1825 C1824 1.400 . S
C1825 C1826 1.398 . S
C1826 H1814 0.950 . S
C1826 C1825 1.398 . S
C1826 C1827 1.391 . S
C1827 H1815 0.950 . S
C1827 C1823 1.393 . S
C1827 C1826 1.391 . S
H1828 C1836 0.950 . S
H1829 C1841 0.950 . S
H1830 C1838 0.950 . S
H1831 C1840 0.950 . S
H1832 C1842 0.950 . S
H1833 C1844 0.950 . S
H1834 C1846 0.950 . S
H1835 C1847 0.950 . S
C1836 H1828 0.950 . S
C1836 C1837 1.386 . S
C1836 C1838 1.391 . S
C1837 C1836 1.386 . S
C1837 C1841 1.393 . S
C1838 H1830 0.950 . S
C1838 C1836 1.391 . S
C1838 C1839 1.400 . S
C1839 C1838 1.400 . S
C1839 C1840 1.398 . S
C1839 C1845 1.491 . S
C1840 H1831 0.950 . S
C1840 C1839 1.398 . S
C1840 C1841 1.391 . S
C1841 H1829 0.950 . S
C1841 C1837 1.393 . S
C1841 C1840 1.391 . S
C1842 H1832 0.950 . S
C1842 C1843 1.386 . S
C1842 C1844 1.391 . S
C1843 C1842 1.386 . S
C1843 C1847 1.393 . S
C1844 H1833 0.950 . S
C1844 C1842 1.391 . S
C1844 C1845 1.400 . S
C1845 C1839 1.491 . S
C1845 C1844 1.400 . S
C1845 C1846 1.398 . S
C1846 H1834 0.950 . S
C1846 C1845 1.398 . S
C1846 C1847 1.391 . S
C1847 H1835 0.950 . S
C1847 C1843 1.393 . S
C1847 C1846 1.391 . S
H1848 C1856 0.950 . S
H1849 C1861 0.950 . S
H1850 C1858 0.950 . S
H1851 C1860 0.950 . S
H1852 C1862 0.950 . S
H1853 C1864 0.950 . S
H1854 C1866 0.950 . S
H1855 C1867 0.950 . S
C1856 H1848 0.950 . S
C1856 C1857 1.386 . S
C1856 C1858 1.391 . S
C1857 C1856 1.386 . S
C1857 C1861 1.393 . S
C1858 H1850 0.950 . S
C1858 C1856 1.391 . S
C1858 C1859 1.400 . S
C1859 C1858 1.400 . S
C1859 C1860 1.398 . S
C1859 C1865 1.491 . S
C1860 H1851 0.950 . S
C1860 C1859 1.398 . S
C1860 C1861 1.391 . S
C1861 H1849 0.950 . S
C1861 C1857 1.393 . S
C1861 C1860 1.391 . S
C1862 H1852 0.950 . S
C1862 C1863 1.386 . S
C1862 C1864 1.391 . S
C1863 C1862 1.386 . S
C1863 C1867 1.393 . S
C1864 H1853 0.950 . S
C1864 C1862 1.391 . S
C1864 C1865 1.400 . S
C1865 C1859 1.491 . S
C1865 C1864 1.400 . S
C1865 C1866 1.398 . S
C1866 H1854 0.950 . S
C1866 C1865 1.398 . S
C1866 C1867 1.391 . S
C1867 H1855 0.950 . S
C1867 C1863 1.393 . S
C1867 C1866 1.391 . S
H1868 C1876 0.950 . S
H1869 C1881 0.950 . S
H1870 C1878 0.950 . S
H1871 C1880 0.950 . S
H1872 C1882 0.950 . S
H1873 C1884 0.950 . S
H1874 C1886 0.950 . S
H1875 C1887 0.950 . S
C1876 H1868 0.950 . S
C1876 C1877 1.386 . S
C1876 C1878 1.391 . S
C1877 C1876 1.386 . S
C1877 C1881 1.393 . S
C1878 H1870 0.950 . S
C1878 C1876 1.391 . S
C1878 C1879 1.400 . S
C1879 C1878 1.400 . S
C1879 C1880 1.398 . S
C1879 C1885 1.491 . S
C1880 H1871 0.950 . S
C1880 C1879 1.398 . S
C1880 C1881 1.391 . S
C1881 H1869 0.950 . S
C1881 C1877 1.393 . S
C1881 C1880 1.391 . S
C1882 H1872 0.950 . S
C1882 C1883 1.386 . S
C1882 C1884 1.391 . S
C1883 C1882 1.386 . S
C1883 C1887 1.393 . S
C1884 H1873 0.950 . S
C1884 C1882 1.391 . S
C1884 C1885 1.400 . S
C1885 C1879 1.491 . S
C1885 C1884 1.400 . S
C1885 C1886 1.398 . S
C1886 H1874 0.950 . S
C1886 C1885 1.398 . S
C1886 C1887 1.391 . S
C1887 H1875 0.950 . S
C1887 C1883 1.393 . S
C1887 C1886 1.391 . S
H1888 C1896 0.950 . S
H1889 C1901 0.950 . S
H1890 C1898 0.950 . S
H1891 C1900 0.950 . S
H1892 C1902 0.950 1_556 S
H1893 C1904 0.950 . S
H1894 C1906 0.950 . S
H1895 C1907 0.950 . S
C1896 H1888 0.950 . S
C1896 C1897 1.386 . S
C1896 C1898 1.391 . S
C1897 C1896 1.386 . S
C1897 C1901 1.393 . S
C1898 H1890 0.950 . S
C1898 C1896 1.391 . S
C1898 C1899 1.400 . S
C1899 C1898 1.400 . S
C1899 C1900 1.398 . S
C1899 C1905 1.491 . S
C1900 H1891 0.950 . S
C1900 C1899 1.398 . S
C1900 C1901 1.391 . S
C1901 H1889 0.950 . S
C1901 C1897 1.393 . S
C1901 C1900 1.391 . S
C1902 H1892 0.950 1_554 S
C1902 C1903 1.386 . S
C1902 C1904 1.391 . S
C1903 C1902 1.386 . S
C1903 C1907 1.393 . S
C1904 H1893 0.950 . S
C1904 C1902 1.391 . S
C1904 C1905 1.400 . S
C1905 C1899 1.491 . S
C1905 C1904 1.400 . S
C1905 C1906 1.398 . S
C1906 H1894 0.950 . S
C1906 C1905 1.398 . S
C1906 C1907 1.391 . S
C1907 H1895 0.950 . S
C1907 C1903 1.393 . S
C1907 C1906 1.391 . S
H1908 C1916 0.950 . S
H1909 C1921 0.950 . S
H1910 C1918 0.950 . S
H1911 C1920 0.950 . S
H1912 C1922 0.950 . S
H1913 C1924 0.950 . S
H1914 C1926 0.950 . S
H1915 C1927 0.950 . S
C1916 H1908 0.950 . S
C1916 C1917 1.386 . S
C1916 C1918 1.391 . S
C1917 C1916 1.386 . S
C1917 C1921 1.393 . S
C1918 H1910 0.950 . S
C1918 C1916 1.391 . S
C1918 C1919 1.400 . S
C1919 C1918 1.400 . S
C1919 C1920 1.398 . S
C1919 C1925 1.491 . S
C1920 H1911 0.950 . S
C1920 C1919 1.398 . S
C1920 C1921 1.391 . S
C1921 H1909 0.950 . S
C1921 C1917 1.393 . S
C1921 C1920 1.391 . S
C1922 H1912 0.950 . S
C1922 C1923 1.386 . S
C1922 C1924 1.391 . S
C1923 C1922 1.386 . S
C1923 C1927 1.393 . S
C1924 H1913 0.950 . S
C1924 C1922 1.391 . S
C1924 C1925 1.400 . S
C1925 C1919 1.491 . S
C1925 C1924 1.400 . S
C1925 C1926 1.398 . S
C1926 H1914 0.950 . S
C1926 C1925 1.398 . S
C1926 C1927 1.391 . S
C1927 H1915 0.950 . S
C1927 C1923 1.393 . S
C1927 C1926 1.391 . S
H1928 C1936 0.950 . S
H1929 C1941 0.950 . S
H1930 C1938 0.950 . S
H1931 C1940 0.950 . S
H1932 C1942 0.950 . S
H1933 C1944 0.950 . S
H1934 C1946 0.950 . S
H1935 C1947 0.950 1_554 S
C1936 H1928 0.950 . S
C1936 C1937 1.386 . S
C1936 C1938 1.391 . S
C1937 C1936 1.386 . S
C1937 C1941 1.393 . S
C1938 H1930 0.950 . S
C1938 C1936 1.391 . S
C1938 C1939 1.400 . S
C1939 C1938 1.400 . S
C1939 C1940 1.398 . S
C1939 C1945 1.491 . S
C1940 H1931 0.950 . S
C1940 C1939 1.398 . S
C1940 C1941 1.391 . S
C1941 H1929 0.950 . S
C1941 C1937 1.393 . S
C1941 C1940 1.391 . S
C1942 H1932 0.950 . S
C1942 C1943 1.386 . S
C1942 C1944 1.391 . S
C1943 C1942 1.386 . S
C1943 C1947 1.393 . S
C1944 H1933 0.950 . S
C1944 C1942 1.391 . S
C1944 C1945 1.400 . S
C1945 C1939 1.491 . S
C1945 C1944 1.400 . S
C1945 C1946 1.398 . S
C1946 H1934 0.950 . S
C1946 C1945 1.398 . S
C1946 C1947 1.391 . S
C1947 H1935 0.950 1_556 S
C1947 C1943 1.393 . S
C1947 C1946 1.391 . S
H1948 C1956 0.950 . S
H1949 C1961 0.950 . S
H1950 C1958 0.950 . S
H1951 C1960 0.950 . S
H1952 C1962 0.950 . S
H1953 C1964 0.950 . S
H1954 C1966 0.950 . S
H1955 C1967 0.950 . S
C1956 H1948 0.950 . S
C1956 C1957 1.386 . S
C1956 C1958 1.391 . S
C1957 C1956 1.386 . S
C1957 C1961 1.393 . S
C1958 H1950 0.950 . S
C1958 C1956 1.391 . S
C1958 C1959 1.400 . S
C1959 C1958 1.400 . S
C1959 C1960 1.398 . S
C1959 C1965 1.491 . S
C1960 H1951 0.950 . S
C1960 C1959 1.398 . S
C1960 C1961 1.391 . S
C1961 H1949 0.950 . S
C1961 C1957 1.393 . S
C1961 C1960 1.391 . S
C1962 H1952 0.950 . S
C1962 C1963 1.386 . S
C1962 C1964 1.391 . S
C1963 C1962 1.386 . S
C1963 C1967 1.393 . S
C1964 H1953 0.950 . S
C1964 C1962 1.391 . S
C1964 C1965 1.400 . S
C1965 C1959 1.491 . S
C1965 C1964 1.400 . S
C1965 C1966 1.398 . S
C1966 H1954 0.950 . S
C1966 C1965 1.398 . S
C1966 C1967 1.391 . S
C1967 H1955 0.950 . S
C1967 C1963 1.393 . S
C1967 C1966 1.391 . S
H1968 C1976 0.950 . S
H1969 C1981 0.950 . S
H1970 C1978 0.950 . S
H1971 C1980 0.950 . S
H1972 C1982 0.950 . S
H1973 C1984 0.950 . S
H1974 C1986 0.950 1_554 S
H1975 C1987 0.950 1_554 S
C1976 H1968 0.950 . S
C1976 C1977 1.386 . S
C1976 C1978 1.391 . S
C1977 C1976 1.386 . S
C1977 C1981 1.393 . S
C1978 H1970 0.950 . S
C1978 C1976 1.391 . S
C1978 C1979 1.400 . S
C1979 C1978 1.400 . S
C1979 C1980 1.398 . S
C1979 C1985 1.491 . S
C1980 H1971 0.950 . S
C1980 C1979 1.398 . S
C1980 C1981 1.391 . S
C1981 H1969 0.950 . S
C1981 C1977 1.393 . S
C1981 C1980 1.391 . S
C1982 H1972 0.950 . S
C1982 C1983 1.386 . S
C1982 C1984 1.391 . S
C1983 C1982 1.386 . S
C1983 C1987 1.393 . S
C1984 H1973 0.950 . S
C1984 C1982 1.391 . S
C1984 C1985 1.400 . S
C1985 C1979 1.491 . S
C1985 C1984 1.400 . S
C1985 C1986 1.398 . S
C1986 H1974 0.950 1_556 S
C1986 C1985 1.398 . S
C1986 C1987 1.391 . S
C1987 H1975 0.950 1_556 S
C1987 C1983 1.393 . S
C1987 C1986 1.391 . S
H1988 C1996 0.950 . S
H1989 C2001 0.950 . S
H1990 C1998 0.950 . S
H1991 C2000 0.950 . S
H1992 C2002 0.950 . S
H1993 C2004 0.950 . S
H1994 C2006 0.950 . S
H1995 C2007 0.950 . S
C1996 H1988 0.950 . S
C1996 C1997 1.386 . S
C1996 C1998 1.391 . S
C1997 C1996 1.386 . S
C1997 C2001 1.393 . S
C1998 H1990 0.950 . S
C1998 C1996 1.391 . S
C1998 C1999 1.400 . S
C1999 C1998 1.400 . S
C1999 C2000 1.398 . S
C1999 C2005 1.491 . S
C2000 H1991 0.950 . S
C2000 C1999 1.398 . S
C2000 C2001 1.391 . S
C2001 H1989 0.950 . S
C2001 C1997 1.393 . S
C2001 C2000 1.391 . S
C2002 H1992 0.950 . S
C2002 C2003 1.386 . S
C2002 C2004 1.391 . S
C2003 C2002 1.386 . S
C2003 C2007 1.393 . S
C2004 H1993 0.950 . S
C2004 C2002 1.391 . S
C2004 C2005 1.400 . S
C2005 C1999 1.491 . S
C2005 C2004 1.400 . S
C2005 C2006 1.398 . S
C2006 H1994 0.950 . S
C2006 C2005 1.398 . S
C2006 C2007 1.391 . S
C2007 H1995 0.950 . S
C2007 C2003 1.393 . S
C2007 C2006 1.391 . S
H2008 C2016 0.950 . S
H2009 C2021 0.950 . S
H2010 C2018 0.950 . S
H2011 C2020 0.950 . S
H2012 C2022 0.950 . S
H2013 C2024 0.950 . S
H2014 C2026 0.950 . S
H2015 C2027 0.950 . S
C2016 H2008 0.950 . S
C2016 C2017 1.386 . S
C2016 C2018 1.391 . S
C2017 C2016 1.386 . S
C2017 C2021 1.393 . S
C2018 H2010 0.950 . S
C2018 C2016 1.391 . S
C2018 C2019 1.400 . S
C2019 C2018 1.400 . S
C2019 C2020 1.398 . S
C2019 C2025 1.491 . S
C2020 H2011 0.950 . S
C2020 C2019 1.398 . S
C2020 C2021 1.391 . S
C2021 H2009 0.950 . S
C2021 C2017 1.393 . S
C2021 C2020 1.391 . S
C2022 H2012 0.950 . S
C2022 C2023 1.386 . S
C2022 C2024 1.391 . S
C2023 C2022 1.386 . S
C2023 C2027 1.393 . S
C2024 H2013 0.950 . S
C2024 C2022 1.391 . S
C2024 C2025 1.400 . S
C2025 C2019 1.491 . S
C2025 C2024 1.400 . S
C2025 C2026 1.398 . S
C2026 H2014 0.950 . S
C2026 C2025 1.398 . S
C2026 C2027 1.391 . S
C2027 H2015 0.950 . S
C2027 C2023 1.393 . S
C2027 C2026 1.391 . S
H2028 C2036 0.950 . S
H2029 C2041 0.950 . S
H2030 C2038 0.950 . S
H2031 C2040 0.950 . S
H2032 C2042 0.950 . S
H2033 C2044 0.950 . S
H2034 C2046 0.950 . S
H2035 C2047 0.950 . S
C2036 H2028 0.950 . S
C2036 C2037 1.386 . S
C2036 C2038 1.391 . S
C2037 C2036 1.386 . S
C2037 C2041 1.393 . S
C2038 H2030 0.950 . S
C2038 C2036 1.391 . S
C2038 C2039 1.400 . S
C2039 C2038 1.400 . S
C2039 C2040 1.398 . S
C2039 C2045 1.491 . S
C2040 H2031 0.950 . S
C2040 C2039 1.398 . S
C2040 C2041 1.391 . S
C2041 H2029 0.950 . S
C2041 C2037 1.393 . S
C2041 C2040 1.391 . S
C2042 H2032 0.950 . S
C2042 C2043 1.386 . S
C2042 C2044 1.391 . S
C2043 C2042 1.386 . S
C2043 C2047 1.393 . S
C2044 H2033 0.950 . S
C2044 C2042 1.391 . S
C2044 C2045 1.400 . S
C2045 C2039 1.491 . S
C2045 C2044 1.400 . S
C2045 C2046 1.398 . S
C2046 H2034 0.950 . S
C2046 C2045 1.398 . S
C2046 C2047 1.391 . S
C2047 H2035 0.950 . S
C2047 C2043 1.393 . S
C2047 C2046 1.391 . S
H2048 C2056 0.950 . S
H2049 C2061 0.950 . S
H2050 C2058 0.950 . S
H2051 C2060 0.950 . S
H2052 C2062 0.950 . S
H2053 C2064 0.950 . S
H2054 C2066 0.950 . S
H2055 C2067 0.950 . S
C2056 H2048 0.950 . S
C2056 C2057 1.386 . S
C2056 C2058 1.391 . S
C2057 C2056 1.386 . S
C2057 C2061 1.393 . S
C2058 H2050 0.950 . S
C2058 C2056 1.391 . S
C2058 C2059 1.400 . S
C2059 C2058 1.400 . S
C2059 C2060 1.398 . S
C2059 C2065 1.491 . S
C2060 H2051 0.950 . S
C2060 C2059 1.398 . S
C2060 C2061 1.391 . S
C2061 H2049 0.950 . S
C2061 C2057 1.393 . S
C2061 C2060 1.391 . S
C2062 H2052 0.950 . S
C2062 C2063 1.386 . S
C2062 C2064 1.391 . S
C2063 C2062 1.386 . S
C2063 C2067 1.393 . S
C2064 H2053 0.950 . S
C2064 C2062 1.391 . S
C2064 C2065 1.400 . S
C2065 C2059 1.491 . S
C2065 C2064 1.400 . S
C2065 C2066 1.398 . S
C2066 H2054 0.950 . S
C2066 C2065 1.398 . S
C2066 C2067 1.391 . S
C2067 H2055 0.950 . S
C2067 C2063 1.393 . S
C2067 C2066 1.391 . S
H2068 C2076 0.950 . S
H2069 C2081 0.950 . S
H2070 C2078 0.950 . S
H2071 C2080 0.950 . S
H2072 C2082 0.950 . S
H2073 C2084 0.950 . S
H2074 C2086 0.950 . S
H2075 C2087 0.950 . S
C2076 H2068 0.950 . S
C2076 C2077 1.386 . S
C2076 C2078 1.391 . S
C2077 C2076 1.386 . S
C2077 C2081 1.393 . S
C2078 H2070 0.950 . S
C2078 C2076 1.391 . S
C2078 C2079 1.400 . S
C2079 C2078 1.400 . S
C2079 C2080 1.398 . S
C2079 C2085 1.491 . S
C2080 H2071 0.950 . S
C2080 C2079 1.398 . S
C2080 C2081 1.391 . S
C2081 H2069 0.950 . S
C2081 C2077 1.393 . S
C2081 C2080 1.391 . S
C2082 H2072 0.950 . S
C2082 C2083 1.386 . S
C2082 C2084 1.391 . S
C2083 C2082 1.386 . S
C2083 C2087 1.393 . S
C2084 H2073 0.950 . S
C2084 C2082 1.391 . S
C2084 C2085 1.400 . S
C2085 C2079 1.491 . S
C2085 C2084 1.400 . S
C2085 C2086 1.398 . S
C2086 H2074 0.950 . S
C2086 C2085 1.398 . S
C2086 C2087 1.391 . S
C2087 H2075 0.950 . S
C2087 C2083 1.393 . S
C2087 C2086 1.391 . S
H2088 C2096 0.950 . S
H2089 C2101 0.950 . S
H2090 C2098 0.950 . S
H2091 C2100 0.950 . S
H2092 C2102 0.950 . S
H2093 C2104 0.950 . S
H2094 C2106 0.950 . S
H2095 C2107 0.950 . S
C2096 H2088 0.950 . S
C2096 C2097 1.386 . S
C2096 C2098 1.391 . S
C2097 C2096 1.386 . S
C2097 C2101 1.393 . S
C2098 H2090 0.950 . S
C2098 C2096 1.391 . S
C2098 C2099 1.400 . S
C2099 C2098 1.400 . S
C2099 C2100 1.398 . S
C2099 C2105 1.491 . S
C2100 H2091 0.950 . S
C2100 C2099 1.398 . S
C2100 C2101 1.391 . S
C2101 H2089 0.950 . S
C2101 C2097 1.393 . S
C2101 C2100 1.391 . S
C2102 H2092 0.950 . S
C2102 C2103 1.386 . S
C2102 C2104 1.391 . S
C2103 C2102 1.386 . S
C2103 C2107 1.393 . S
C2104 H2093 0.950 . S
C2104 C2102 1.391 . S
C2104 C2105 1.400 . S
C2105 C2099 1.491 . S
C2105 C2104 1.400 . S
C2105 C2106 1.398 . S
C2106 H2094 0.950 . S
C2106 C2105 1.398 . S
C2106 C2107 1.391 . S
C2107 H2095 0.950 . S
C2107 C2103 1.393 . S
C2107 C2106 1.391 . S
H2108 C2116 0.950 . S
H2109 C2121 0.950 . S
H2110 C2118 0.950 . S
H2111 C2120 0.950 . S
H2112 C2122 0.950 . S
H2113 C2124 0.950 . S
H2114 C2126 0.950 . S
H2115 C2127 0.950 . S
C2116 H2108 0.950 . S
C2116 C2117 1.386 . S
C2116 C2118 1.391 . S
C2117 C2116 1.386 . S
C2117 C2121 1.393 . S
C2118 H2110 0.950 . S
C2118 C2116 1.391 . S
C2118 C2119 1.400 . S
C2119 C2118 1.400 . S
C2119 C2120 1.398 . S
C2119 C2125 1.491 . S
C2120 H2111 0.950 . S
C2120 C2119 1.398 . S
C2120 C2121 1.391 . S
C2121 H2109 0.950 . S
C2121 C2117 1.393 . S
C2121 C2120 1.391 . S
C2122 H2112 0.950 . S
C2122 C2123 1.386 . S
C2122 C2124 1.391 . S
C2123 C2122 1.386 . S
C2123 C2127 1.393 . S
C2124 H2113 0.950 . S
C2124 C2122 1.391 . S
C2124 C2125 1.400 . S
C2125 C2119 1.491 . S
C2125 C2124 1.400 . S
C2125 C2126 1.398 . S
C2126 H2114 0.950 . S
C2126 C2125 1.398 . S
C2126 C2127 1.391 . S
C2127 H2115 0.950 . S
C2127 C2123 1.393 . S
C2127 C2126 1.391 . S
H2128 C2136 0.950 . S
H2129 C2141 0.950 . S
H2130 C2138 0.950 . S
H2131 C2140 0.950 . S
H2132 C2142 0.950 1_565 S
H2133 C2144 0.950 . S
H2134 C2146 0.950 . S
H2135 C2147 0.950 . S
C2136 H2128 0.950 . S
C2136 C2137 1.386 . S
C2136 C2138 1.391 . S
C2137 C2136 1.386 . S
C2137 C2141 1.393 . S
C2138 H2130 0.950 . S
C2138 C2136 1.391 . S
C2138 C2139 1.400 . S
C2139 C2138 1.400 . S
C2139 C2140 1.398 . S
C2139 C2145 1.491 . S
C2140 H2131 0.950 . S
C2140 C2139 1.398 . S
C2140 C2141 1.391 . S
C2141 H2129 0.950 . S
C2141 C2137 1.393 . S
C2141 C2140 1.391 . S
C2142 H2132 0.950 1_545 S
C2142 C2143 1.386 . S
C2142 C2144 1.391 . S
C2143 C2142 1.386 . S
C2143 C2147 1.393 . S
C2144 H2133 0.950 . S
C2144 C2142 1.391 . S
C2144 C2145 1.400 . S
C2145 C2139 1.491 . S
C2145 C2144 1.400 . S
C2145 C2146 1.398 . S
C2146 H2134 0.950 . S
C2146 C2145 1.398 . S
C2146 C2147 1.391 . S
C2147 H2135 0.950 . S
C2147 C2143 1.393 . S
C2147 C2146 1.391 . S
H2148 C2156 0.950 . S
H2149 C2161 0.950 . S
H2150 C2158 0.950 . S
H2151 C2160 0.950 . S
H2152 C2162 0.950 . S
H2153 C2164 0.950 . S
H2154 C2166 0.950 . S
H2155 C2167 0.950 . S
C2156 H2148 0.950 . S
C2156 C2157 1.386 . S
C2156 C2158 1.391 . S
C2157 C2156 1.386 . S
C2157 C2161 1.393 . S
C2158 H2150 0.950 . S
C2158 C2156 1.391 . S
C2158 C2159 1.400 . S
C2159 C2158 1.400 . S
C2159 C2160 1.398 . S
C2159 C2165 1.491 . S
C2160 H2151 0.950 . S
C2160 C2159 1.398 . S
C2160 C2161 1.391 . S
C2161 H2149 0.950 . S
C2161 C2157 1.393 . S
C2161 C2160 1.391 . S
C2162 H2152 0.950 . S
C2162 C2163 1.386 . S
C2162 C2164 1.391 . S
C2163 C2162 1.386 . S
C2163 C2167 1.393 . S
C2164 H2153 0.950 . S
C2164 C2162 1.391 . S
C2164 C2165 1.400 . S
C2165 C2159 1.491 . S
C2165 C2164 1.400 . S
C2165 C2166 1.398 . S
C2166 H2154 0.950 . S
C2166 C2165 1.398 . S
C2166 C2167 1.391 . S
C2167 H2155 0.950 . S
C2167 C2163 1.393 . S
C2167 C2166 1.391 . S
H2168 C2176 0.950 . S
H2169 C2181 0.950 . S
H2170 C2178 0.950 . S
H2171 C2180 0.950 . S
H2172 C2182 0.950 . S
H2173 C2184 0.950 . S
H2174 C2186 0.950 . S
H2175 C2187 0.950 . S
C2176 H2168 0.950 . S
C2176 C2177 1.386 . S
C2176 C2178 1.391 . S
C2177 C2176 1.386 . S
C2177 C2181 1.393 . S
C2178 H2170 0.950 . S
C2178 C2176 1.391 . S
C2178 C2179 1.400 . S
C2179 C2178 1.400 . S
C2179 C2180 1.398 . S
C2179 C2185 1.491 . S
C2180 H2171 0.950 . S
C2180 C2179 1.398 . S
C2180 C2181 1.391 . S
C2181 H2169 0.950 . S
C2181 C2177 1.393 . S
C2181 C2180 1.391 . S
C2182 H2172 0.950 . S
C2182 C2183 1.386 . S
C2182 C2184 1.391 . S
C2183 C2182 1.386 . S
C2183 C2187 1.393 . S
C2184 H2173 0.950 . S
C2184 C2182 1.391 . S
C2184 C2185 1.400 . S
C2185 C2179 1.491 . S
C2185 C2184 1.400 . S
C2185 C2186 1.398 . S
C2186 H2174 0.950 . S
C2186 C2185 1.398 . S
C2186 C2187 1.391 . S
C2187 H2175 0.950 . S
C2187 C2183 1.393 . S
C2187 C2186 1.391 . S
H2188 C2196 0.950 . S
H2189 C2201 0.950 . S
H2190 C2198 0.950 . S
H2191 C2200 0.950 . S
H2192 C2202 0.950 . S
H2193 C2204 0.950 . S
H2194 C2206 0.950 . S
H2195 C2207 0.950 . S
C2196 H2188 0.950 . S
C2196 C2197 1.386 . S
C2196 C2198 1.391 . S
C2197 C2196 1.386 . S
C2197 C2201 1.393 . S
C2198 H2190 0.950 . S
C2198 C2196 1.391 . S
C2198 C2199 1.400 . S
C2199 C2198 1.400 . S
C2199 C2200 1.398 . S
C2199 C2205 1.491 . S
C2200 H2191 0.950 . S
C2200 C2199 1.398 . S
C2200 C2201 1.391 . S
C2201 H2189 0.950 . S
C2201 C2197 1.393 . S
C2201 C2200 1.391 . S
C2202 H2192 0.950 . S
C2202 C2203 1.386 . S
C2202 C2204 1.391 . S
C2203 C2202 1.386 . S
C2203 C2207 1.393 . S
C2204 H2193 0.950 . S
C2204 C2202 1.391 . S
C2204 C2205 1.400 . S
C2205 C2199 1.491 . S
C2205 C2204 1.400 . S
C2205 C2206 1.398 . S
C2206 H2194 0.950 . S
C2206 C2205 1.398 . S
C2206 C2207 1.391 . S
C2207 H2195 0.950 . S
C2207 C2203 1.393 . S
C2207 C2206 1.391 . S
H2208 C2216 0.950 . S
H2209 C2221 0.950 . S
H2210 C2218 0.950 . S
H2211 C2220 0.950 . S
H2212 C2222 0.950 1_655 S
H2213 C2224 0.958 . S
H2214 C2226 0.950 . S
H2215 C2227 0.950 . S
C2216 H2208 0.950 . S
C2216 C2217 1.386 . S
C2216 C2218 1.391 . S
C2217 C2216 1.386 . S
C2217 C2221 1.393 . S
C2218 H2210 0.950 . S
C2218 C2216 1.391 . S
C2218 C2219 1.400 . S
C2219 C2218 1.400 . S
C2219 C2220 1.398 . S
C2219 C2225 1.491 . S
C2220 H2211 0.950 . S
C2220 C2219 1.398 . S
C2220 C2221 1.391 . S
C2221 H2209 0.950 . S
C2221 C2217 1.393 . S
C2221 C2220 1.391 . S
C2222 H2212 0.950 1_455 S
C2222 C2223 1.386 . S
C2222 C2224 1.391 . S
C2223 C2222 1.386 . S
C2223 C2227 1.393 . S
C2224 H2213 0.958 . S
C2224 C2222 1.391 . S
C2224 C2225 1.400 . S
C2225 C2219 1.491 . S
C2225 C2224 1.400 . S
C2225 C2226 1.398 . S
C2226 H2214 0.950 . S
C2226 C2225 1.398 . S
C2226 C2227 1.391 . S
C2227 H2215 0.950 . S
C2227 C2223 1.393 . S
C2227 C2226 1.391 . S
H2228 C2236 0.950 . S
H2229 C2241 0.950 . S
H2230 C2238 0.950 . S
H2231 C2240 0.950 . S
H2232 C2242 0.950 . S
H2233 C2244 0.950 . S
H2234 C2246 0.950 . S
H2235 C2247 0.950 . S
C2236 H2228 0.950 . S
C2236 C2237 1.386 . S
C2236 C2238 1.391 . S
C2237 C2236 1.386 . S
C2237 C2241 1.393 . S
C2238 H2230 0.950 . S
C2238 C2236 1.391 . S
C2238 C2239 1.400 . S
C2239 C2238 1.400 . S
C2239 C2240 1.398 . S
C2239 C2245 1.491 . S
C2240 H2231 0.950 . S
C2240 C2239 1.398 . S
C2240 C2241 1.391 . S
C2241 H2229 0.950 . S
C2241 C2237 1.393 . S
C2241 C2240 1.391 . S
C2242 H2232 0.950 . S
C2242 C2243 1.386 . S
C2242 C2244 1.391 . S
C2243 C2242 1.386 . S
C2243 C2247 1.393 . S
C2244 H2233 0.950 . S
C2244 C2242 1.391 . S
C2244 C2245 1.400 . S
C2245 C2239 1.491 . S
C2245 C2244 1.400 . S
C2245 C2246 1.398 . S
C2246 H2234 0.950 . S
C2246 C2245 1.398 . S
C2246 C2247 1.391 . S
C2247 H2235 0.950 . S
C2247 C2243 1.393 . S
C2247 C2246 1.391 . S
H2248 C2256 0.950 . S
H2249 C2261 0.976 . S
H2250 C2258 0.950 . S
H2251 C2260 0.950 . S
H2252 C2262 0.950 . S
H2253 C2264 0.950 . S
H2254 C2266 0.950 . S
H2255 C2267 0.950 . S
C2256 H2248 0.950 . S
C2256 C2257 1.386 . S
C2256 C2258 1.391 . S
C2257 C2256 1.386 . S
C2257 C2261 1.393 . S
C2258 H2250 0.950 . S
C2258 C2256 1.391 . S
C2258 C2259 1.400 . S
C2259 C2258 1.400 . S
C2259 C2260 1.398 . S
C2259 C2265 1.491 . S
C2260 H2251 0.950 . S
C2260 C2259 1.398 . S
C2260 C2261 1.391 . S
C2261 H2249 0.976 . S
C2261 C2257 1.393 . S
C2261 C2260 1.391 . S
C2262 H2252 0.950 . S
C2262 C2263 1.386 . S
C2262 C2264 1.391 . S
C2263 C2262 1.386 . S
C2263 C2267 1.393 . S
C2264 H2253 0.950 . S
C2264 C2262 1.391 . S
C2264 C2265 1.400 . S
C2265 C2259 1.491 . S
C2265 C2264 1.400 . S
C2265 C2266 1.398 . S
C2266 H2254 0.950 . S
C2266 C2265 1.398 . S
C2266 C2267 1.391 . S
C2267 H2255 0.950 . S
C2267 C2263 1.393 . S
C2267 C2266 1.391 . S
H2268 C2276 0.950 . S
H2269 C2281 0.950 . S
H2270 C2278 0.950 . S
H2271 C2280 0.950 . S
H2272 C2282 0.950 . S
H2273 C2284 0.950 . S
H2274 C2286 0.950 . S
H2275 C2287 0.950 . S
C2276 H2268 0.950 . S
C2276 C2277 1.386 . S
C2276 C2278 1.391 . S
C2277 C2276 1.386 . S
C2277 C2281 1.393 . S
C2278 H2270 0.950 . S
C2278 C2276 1.391 . S
C2278 C2279 1.400 . S
C2279 C2278 1.400 . S
C2279 C2280 1.398 . S
C2279 C2285 1.491 . S
C2280 H2271 0.950 . S
C2280 C2279 1.398 . S
C2280 C2281 1.391 . S
C2281 H2269 0.950 . S
C2281 C2277 1.393 . S
C2281 C2280 1.391 . S
C2282 H2272 0.950 . S
C2282 C2283 1.386 . S
C2282 C2284 1.391 . S
C2283 C2282 1.386 . S
C2283 C2287 1.393 . S
C2284 H2273 0.950 . S
C2284 C2282 1.391 . S
C2284 C2285 1.400 . S
C2285 C2279 1.491 . S
C2285 C2284 1.400 . S
C2285 C2286 1.398 . S
C2286 H2274 0.950 . S
C2286 C2285 1.398 . S
C2286 C2287 1.391 . S
C2287 H2275 0.950 . S
C2287 C2283 1.393 . S
C2287 C2286 1.391 . S
H2288 C2296 0.950 . S
H2289 C2301 0.950 . S
H2290 C2298 0.950 . S
H2291 C2300 0.950 . S
H2292 C2302 0.950 . S
H2293 C2304 0.950 . S
H2294 C2306 0.950 . S
H2295 C2307 0.950 . S
C2296 H2288 0.950 . S
C2296 C2297 1.386 . S
C2296 C2298 1.391 . S
C2297 C2296 1.386 . S
C2297 C2301 1.393 . S
C2298 H2290 0.950 . S
C2298 C2296 1.391 . S
C2298 C2299 1.400 . S
C2299 C2298 1.400 . S
C2299 C2300 1.398 . S
C2299 C2305 1.491 . S
C2300 H2291 0.950 . S
C2300 C2299 1.398 . S
C2300 C2301 1.391 . S
C2301 H2289 0.950 . S
C2301 C2297 1.393 . S
C2301 C2300 1.391 . S
C2302 H2292 0.950 . S
C2302 C2303 1.386 . S
C2302 C2304 1.391 . S
C2303 C2302 1.386 . S
C2303 C2307 1.393 . S
C2304 H2293 0.950 . S
C2304 C2302 1.391 . S
C2304 C2305 1.400 . S
C2305 C2299 1.491 . S
C2305 C2304 1.400 . S
C2305 C2306 1.398 . S
C2306 H2294 0.950 . S
C2306 C2305 1.398 . S
C2306 C2307 1.391 . S
C2307 H2295 0.950 . S
C2307 C2303 1.393 . S
C2307 C2306 1.391 . S
H2308 C2316 0.950 . S
H2309 C2321 0.950 . S
H2310 C2318 0.950 . S
H2311 C2320 0.950 . S
H2312 C2322 0.950 . S
H2313 C2324 0.950 . S
H2314 C2326 0.950 . S
H2315 C2327 0.950 . S
C2316 H2308 0.950 . S
C2316 C2317 1.386 . S
C2316 C2318 1.391 . S
C2317 C2316 1.386 . S
C2317 C2321 1.393 . S
C2318 H2310 0.950 . S
C2318 C2316 1.391 . S
C2318 C2319 1.400 . S
C2319 C2318 1.400 . S
C2319 C2320 1.398 . S
C2319 C2325 1.491 . S
C2320 H2311 0.950 . S
C2320 C2319 1.398 . S
C2320 C2321 1.391 . S
C2321 H2309 0.950 . S
C2321 C2317 1.393 . S
C2321 C2320 1.391 . S
C2322 H2312 0.950 . S
C2322 C2323 1.386 . S
C2322 C2324 1.391 . S
C2323 C2322 1.386 . S
C2323 C2327 1.393 . S
C2324 H2313 0.950 . S
C2324 C2322 1.391 . S
C2324 C2325 1.400 . S
C2325 C2319 1.491 . S
C2325 C2324 1.400 . S
C2325 C2326 1.398 . S
C2326 H2314 0.950 . S
C2326 C2325 1.398 . S
C2326 C2327 1.391 . S
C2327 H2315 0.950 . S
C2327 C2323 1.393 . S
C2327 C2326 1.391 . S
H2328 C2336 0.950 . S
H2329 C2341 0.950 . S
H2330 C2338 0.950 . S
H2331 C2340 0.950 . S
H2332 C2342 0.950 . S
H2333 C2344 0.950 . S
H2334 C2346 0.950 . S
H2335 C2347 0.950 . S
C2336 H2328 0.950 . S
C2336 C2337 1.386 . S
C2336 C2338 1.391 . S
C2337 C2336 1.386 . S
C2337 C2341 1.393 . S
C2338 H2330 0.950 . S
C2338 C2336 1.391 . S
C2338 C2339 1.400 . S
C2339 C2338 1.400 . S
C2339 C2340 1.398 . S
C2339 C2345 1.491 . S
C2340 H2331 0.950 . S
C2340 C2339 1.398 . S
C2340 C2341 1.391 . S
C2341 H2329 0.950 . S
C2341 C2337 1.393 . S
C2341 C2340 1.391 . S
C2342 H2332 0.950 . S
C2342 C2343 1.386 . S
C2342 C2344 1.391 . S
C2343 C2342 1.386 . S
C2343 C2347 1.393 . S
C2344 H2333 0.950 . S
C2344 C2342 1.391 . S
C2344 C2345 1.400 . S
C2345 C2339 1.491 . S
C2345 C2344 1.400 . S
C2345 C2346 1.398 . S
C2346 H2334 0.950 . S
C2346 C2345 1.398 . S
C2346 C2347 1.391 . S
C2347 H2335 0.950 . S
C2347 C2343 1.393 . S
C2347 C2346 1.391 . S
H2348 C2356 0.950 . S
H2349 C2361 0.950 . S
H2350 C2358 0.950 . S
H2351 C2360 0.950 . S
H2352 C2362 0.950 . S
H2353 C2364 0.950 . S
H2354 C2366 0.950 . S
H2355 C2367 0.950 . S
C2356 H2348 0.950 . S
C2356 C2357 1.386 . S
C2356 C2358 1.391 . S
C2357 C2356 1.386 . S
C2357 C2361 1.393 . S
C2358 H2350 0.950 . S
C2358 C2356 1.391 . S
C2358 C2359 1.400 . S
C2359 C2358 1.400 . S
C2359 C2360 1.398 . S
C2359 C2365 1.491 . S
C2360 H2351 0.950 . S
C2360 C2359 1.398 . S
C2360 C2361 1.391 . S
C2361 H2349 0.950 . S
C2361 C2357 1.393 . S
C2361 C2360 1.391 . S
C2362 H2352 0.950 . S
C2362 C2363 1.386 . S
C2362 C2364 1.391 . S
C2363 C2362 1.386 . S
C2363 C2367 1.393 . S
C2364 H2353 0.950 . S
C2364 C2362 1.391 . S
C2364 C2365 1.400 . S
C2365 C2359 1.491 . S
C2365 C2364 1.400 . S
C2365 C2366 1.398 . S
C2366 H2354 0.950 . S
C2366 C2365 1.398 . S
C2366 C2367 1.391 . S
C2367 H2355 0.950 . S
C2367 C2363 1.393 . S
C2367 C2366 1.391 . S
H2368 C2376 0.950 . S
H2369 C2381 0.950 . S
H2370 C2378 0.950 . S
H2371 C2380 0.950 . S
H2372 C2382 0.950 . S
H2373 C2384 0.950 . S
H2374 C2386 0.950 . S
H2375 C2387 0.950 . S
C2376 H2368 0.950 . S
C2376 C2377 1.386 . S
C2376 C2378 1.391 . S
C2377 C2376 1.386 . S
C2377 C2381 1.393 . S
C2378 H2370 0.950 . S
C2378 C2376 1.391 . S
C2378 C2379 1.400 . S
C2379 C2378 1.400 . S
C2379 C2380 1.398 . S
C2379 C2385 1.491 . S
C2380 H2371 0.950 . S
C2380 C2379 1.398 . S
C2380 C2381 1.391 . S
C2381 H2369 0.950 . S
C2381 C2377 1.393 . S
C2381 C2380 1.391 . S
C2382 H2372 0.950 . S
C2382 C2383 1.386 . S
C2382 C2384 1.391 . S
C2383 C2382 1.386 . S
C2383 C2387 1.393 . S
C2384 H2373 0.950 . S
C2384 C2382 1.391 . S
C2384 C2385 1.400 . S
C2385 C2379 1.491 . S
C2385 C2384 1.400 . S
C2385 C2386 1.398 . S
C2386 H2374 0.950 . S
C2386 C2385 1.398 . S
C2386 C2387 1.391 . S
C2387 H2375 0.950 . S
C2387 C2383 1.393 . S
C2387 C2386 1.391 . S
H2388 C2396 0.950 . S
H2389 C2401 0.950 . S
H2390 C2398 0.950 . S
H2391 C2400 0.950 . S
H2392 C2402 0.950 . S
H2393 C2404 0.950 . S
H2394 C2406 0.950 . S
H2395 C2407 0.950 . S
C2396 H2388 0.950 . S
C2396 C2397 1.386 . S
C2396 C2398 1.391 . S
C2397 C2396 1.386 . S
C2397 C2401 1.393 . S
C2398 H2390 0.950 . S
C2398 C2396 1.391 . S
C2398 C2399 1.400 . S
C2399 C2398 1.400 . S
C2399 C2400 1.398 . S
C2399 C2405 1.491 . S
C2400 H2391 0.950 . S
C2400 C2399 1.398 . S
C2400 C2401 1.391 . S
C2401 H2389 0.950 . S
C2401 C2397 1.393 . S
C2401 C2400 1.391 . S
C2402 H2392 0.950 . S
C2402 C2403 1.386 . S
C2402 C2404 1.391 . S
C2403 C2402 1.386 . S
C2403 C2407 1.393 . S
C2404 H2393 0.950 . S
C2404 C2402 1.391 . S
C2404 C2405 1.400 . S
C2405 C2399 1.491 . S
C2405 C2404 1.400 . S
C2405 C2406 1.398 . S
C2406 H2394 0.950 . S
C2406 C2405 1.398 . S
C2406 C2407 1.391 . S
C2407 H2395 0.950 . S
C2407 C2403 1.393 . S
C2407 C2406 1.391 . S
H2408 C2416 0.950 . S
H2409 C2421 0.950 . S
H2410 C2418 0.950 . S
H2411 C2420 0.950 . S
H2412 C2422 0.950 . S
H2413 C2424 0.950 . S
H2414 C2426 0.950 . S
H2415 C2427 0.950 . S
C2416 H2408 0.950 . S
C2416 C2417 1.386 . S
C2416 C2418 1.391 . S
C2417 C2416 1.386 . S
C2417 C2421 1.393 . S
C2418 H2410 0.950 . S
C2418 C2416 1.391 . S
C2418 C2419 1.400 . S
C2419 C2418 1.400 . S
C2419 C2420 1.398 . S
C2419 C2425 1.491 . S
C2420 H2411 0.950 . S
C2420 C2419 1.398 . S
C2420 C2421 1.391 . S
C2421 H2409 0.950 . S
C2421 C2417 1.393 . S
C2421 C2420 1.391 . S
C2422 H2412 0.950 . S
C2422 C2423 1.386 . S
C2422 C2424 1.391 . S
C2423 C2422 1.386 . S
C2423 C2427 1.393 . S
C2424 H2413 0.950 . S
C2424 C2422 1.391 . S
C2424 C2425 1.400 . S
C2425 C2419 1.491 . S
C2425 C2424 1.400 . S
C2425 C2426 1.398 . S
C2426 H2414 0.950 . S
C2426 C2425 1.398 . S
C2426 C2427 1.391 . S
C2427 H2415 0.950 . S
C2427 C2423 1.393 . S
C2427 C2426 1.391 . S
H2428 C2436 0.950 . S
H2429 C2441 0.950 . S
H2430 C2438 0.950 . S
H2431 C2440 0.950 . S
H2432 C2442 0.950 . S
H2433 C2444 0.950 . S
H2434 C2446 0.950 . S
H2435 C2447 0.950 . S
C2436 H2428 0.950 . S
C2436 C2437 1.386 . S
C2436 C2438 1.391 . S
C2437 C2436 1.386 . S
C2437 C2441 1.393 . S
C2438 H2430 0.950 . S
C2438 C2436 1.391 . S
C2438 C2439 1.400 . S
C2439 C2438 1.400 . S
C2439 C2440 1.398 . S
C2439 C2445 1.491 . S
C2440 H2431 0.950 . S
C2440 C2439 1.398 . S
C2440 C2441 1.391 . S
C2441 H2429 0.950 . S
C2441 C2437 1.393 . S
C2441 C2440 1.391 . S
C2442 H2432 0.950 . S
C2442 C2443 1.386 . S
C2442 C2444 1.391 . S
C2443 C2442 1.386 . S
C2443 C2447 1.393 . S
C2444 H2433 0.950 . S
C2444 C2442 1.391 . S
C2444 C2445 1.400 . S
C2445 C2439 1.491 . S
C2445 C2444 1.400 . S
C2445 C2446 1.398 . S
C2446 H2434 0.950 . S
C2446 C2445 1.398 . S
C2446 C2447 1.391 . S
C2447 H2435 0.950 . S
C2447 C2443 1.393 . S
C2447 C2446 1.391 . S
H2448 C2456 0.950 . S
H2449 C2461 0.950 . S
H2450 C2458 0.950 . S
H2451 C2460 0.950 . S
H2452 C2462 0.950 . S
H2453 C2464 0.950 . S
H2454 C2466 0.950 . S
H2455 C2467 0.950 . S
C2456 H2448 0.950 . S
C2456 C2457 1.386 . S
C2456 C2458 1.391 . S
C2457 C2456 1.386 . S
C2457 C2461 1.393 . S
C2458 H2450 0.950 . S
C2458 C2456 1.391 . S
C2458 C2459 1.400 . S
C2459 C2458 1.400 . S
C2459 C2460 1.398 . S
C2459 C2465 1.491 . S
C2460 H2451 0.950 . S
C2460 C2459 1.398 . S
C2460 C2461 1.391 . S
C2461 H2449 0.950 . S
C2461 C2457 1.393 . S
C2461 C2460 1.391 . S
C2462 H2452 0.950 . S
C2462 C2463 1.386 . S
C2462 C2464 1.391 . S
C2463 C2462 1.386 . S
C2463 C2467 1.393 . S
C2464 H2453 0.950 . S
C2464 C2462 1.391 . S
C2464 C2465 1.400 . S
C2465 C2459 1.491 . S
C2465 C2464 1.400 . S
C2465 C2466 1.398 . S
C2466 H2454 0.950 . S
C2466 C2465 1.398 . S
C2466 C2467 1.391 . S
C2467 H2455 0.950 . S
C2467 C2463 1.393 . S
C2467 C2466 1.391 . S
H2468 C2476 0.950 . S
H2469 C2481 0.950 . S
H2470 C2478 0.950 . S
H2471 C2480 0.950 . S
H2472 C2482 0.950 . S
H2473 C2484 0.950 . S
H2474 C2486 0.950 . S
H2475 C2487 0.950 . S
C2476 H2468 0.950 . S
C2476 C2477 1.386 . S
C2476 C2478 1.391 . S
C2477 C2476 1.386 . S
C2477 C2481 1.393 . S
C2478 H2470 0.950 . S
C2478 C2476 1.391 . S
C2478 C2479 1.400 . S
C2479 C2478 1.400 . S
C2479 C2480 1.398 . S
C2479 C2485 1.491 . S
C2480 H2471 0.950 . S
C2480 C2479 1.398 . S
C2480 C2481 1.391 . S
C2481 H2469 0.950 . S
C2481 C2477 1.393 . S
C2481 C2480 1.391 . S
C2482 H2472 0.950 . S
C2482 C2483 1.386 . S
C2482 C2484 1.391 . S
C2483 C2482 1.386 . S
C2483 C2487 1.393 . S
C2484 H2473 0.950 . S
C2484 C2482 1.391 . S
C2484 C2485 1.400 . S
C2485 C2479 1.491 . S
C2485 C2484 1.400 . S
C2485 C2486 1.398 . S
C2486 H2474 0.950 . S
C2486 C2485 1.398 . S
C2486 C2487 1.391 . S
C2487 H2475 0.950 . S
C2487 C2483 1.393 . S
C2487 C2486 1.391 . S
H2488 C2496 0.950 . S
H2489 C2501 0.950 . S
H2490 C2498 0.950 . S
H2491 C2500 0.950 . S
H2492 C2502 0.950 . S
H2493 C2504 0.950 . S
H2494 C2506 0.950 . S
H2495 C2507 0.950 . S
C2496 H2488 0.950 . S
C2496 C2497 1.386 . S
C2496 C2498 1.391 . S
C2497 C2496 1.386 . S
C2497 C2501 1.393 . S
C2498 H2490 0.950 . S
C2498 C2496 1.391 . S
C2498 C2499 1.400 . S
C2499 C2498 1.400 . S
C2499 C2500 1.398 . S
C2499 C2505 1.491 . S
C2500 H2491 0.950 . S
C2500 C2499 1.398 . S
C2500 C2501 1.391 . S
C2501 H2489 0.950 . S
C2501 C2497 1.393 . S
C2501 C2500 1.391 . S
C2502 H2492 0.950 . S
C2502 C2503 1.386 . S
C2502 C2504 1.391 . S
C2503 C2502 1.386 . S
C2503 C2507 1.393 . S
C2504 H2493 0.950 . S
C2504 C2502 1.391 . S
C2504 C2505 1.400 . S
C2505 C2499 1.491 . S
C2505 C2504 1.400 . S
C2505 C2506 1.398 . S
C2506 H2494 0.950 . S
C2506 C2505 1.398 . S
C2506 C2507 1.391 . S
C2507 H2495 0.950 . S
C2507 C2503 1.393 . S
C2507 C2506 1.391 . S
H2508 C2516 0.950 . S
H2509 C2521 0.950 . S
H2510 C2518 0.950 . S
H2511 C2520 0.950 . S
H2512 C2522 0.950 . S
H2513 C2524 0.950 . S
H2514 C2526 0.950 . S
H2515 C2527 0.950 . S
C2516 H2508 0.950 . S
C2516 C2517 1.386 . S
C2516 C2518 1.391 . S
C2517 C2516 1.386 . S
C2517 C2521 1.393 . S
C2518 H2510 0.950 . S
C2518 C2516 1.391 . S
C2518 C2519 1.400 . S
C2519 C2518 1.400 . S
C2519 C2520 1.398 . S
C2519 C2525 1.491 . S
C2520 H2511 0.950 . S
C2520 C2519 1.398 . S
C2520 C2521 1.391 . S
C2521 H2509 0.950 . S
C2521 C2517 1.393 . S
C2521 C2520 1.391 . S
C2522 H2512 0.950 . S
C2522 C2523 1.386 . S
C2522 C2524 1.391 . S
C2523 C2522 1.386 . S
C2523 C2527 1.393 . S
C2524 H2513 0.950 . S
C2524 C2522 1.391 . S
C2524 C2525 1.400 . S
C2525 C2519 1.491 . S
C2525 C2524 1.400 . S
C2525 C2526 1.398 . S
C2526 H2514 0.950 . S
C2526 C2525 1.398 . S
C2526 C2527 1.391 . S
C2527 H2515 0.950 . S
C2527 C2523 1.393 . S
C2527 C2526 1.391 . S
H2528 C2536 0.950 . S
H2529 C2541 0.950 . S
H2530 C2538 0.950 . S
H2531 C2540 0.950 . S
H2532 C2542 0.950 . S
H2533 C2544 0.950 . S
H2534 C2546 0.950 . S
H2535 C2547 0.950 . S
C2536 H2528 0.950 . S
C2536 C2537 1.386 . S
C2536 C2538 1.391 . S
C2537 C2536 1.386 . S
C2537 C2541 1.393 . S
C2538 H2530 0.950 . S
C2538 C2536 1.391 . S
C2538 C2539 1.400 . S
C2539 C2538 1.400 . S
C2539 C2540 1.398 . S
C2539 C2545 1.491 . S
C2540 H2531 0.950 . S
C2540 C2539 1.398 . S
C2540 C2541 1.391 . S
C2541 H2529 0.950 . S
C2541 C2537 1.393 . S
C2541 C2540 1.391 . S
C2542 H2532 0.950 . S
C2542 C2543 1.386 . S
C2542 C2544 1.391 . S
C2543 C2542 1.386 . S
C2543 C2547 1.393 . S
C2544 H2533 0.950 . S
C2544 C2542 1.391 . S
C2544 C2545 1.400 . S
C2545 C2539 1.491 . S
C2545 C2544 1.400 . S
C2545 C2546 1.398 . S
C2546 H2534 0.950 . S
C2546 C2545 1.398 . S
C2546 C2547 1.391 . S
C2547 H2535 0.950 . S
C2547 C2543 1.393 . S
C2547 C2546 1.391 . S
H2548 C2556 0.950 . S
H2549 C2561 0.950 . S
H2550 C2558 0.950 . S
H2551 C2560 0.950 . S
H2552 C2562 0.950 . S
H2553 C2564 0.950 . S
H2554 C2566 0.950 . S
H2555 C2567 0.950 1_545 S
C2556 H2548 0.950 . S
C2556 C2557 1.386 . S
C2556 C2558 1.391 . S
C2557 C2556 1.386 . S
C2557 C2561 1.393 . S
C2558 H2550 0.950 . S
C2558 C2556 1.391 . S
C2558 C2559 1.400 . S
C2559 C2558 1.400 . S
C2559 C2560 1.398 . S
C2559 C2565 1.491 . S
C2560 H2551 0.950 . S
C2560 C2559 1.398 . S
C2560 C2561 1.391 . S
C2561 H2549 0.950 . S
C2561 C2557 1.393 . S
C2561 C2560 1.391 . S
C2562 H2552 0.950 . S
C2562 C2563 1.386 . S
C2562 C2564 1.391 . S
C2563 C2562 1.386 . S
C2563 C2567 1.393 . S
C2564 H2553 0.950 . S
C2564 C2562 1.391 . S
C2564 C2565 1.400 . S
C2565 C2559 1.491 . S
C2565 C2564 1.400 . S
C2565 C2566 1.398 . S
C2566 H2554 0.950 . S
C2566 C2565 1.398 . S
C2566 C2567 1.391 . S
C2567 H2555 0.950 1_565 S
C2567 C2563 1.393 . S
C2567 C2566 1.391 . S
H2568 C2576 0.950 . S
H2569 C2581 0.950 . S
H2570 C2578 0.950 . S
H2571 C2580 0.950 . S
H2572 C2582 0.950 . S
H2573 C2584 0.950 . S
H2574 C2586 0.950 . S
H2575 C2587 0.950 . S
C2576 H2568 0.950 . S
C2576 C2577 1.386 . S
C2576 C2578 1.391 . S
C2577 C2576 1.386 . S
C2577 C2581 1.393 . S
C2578 H2570 0.950 . S
C2578 C2576 1.391 . S
C2578 C2579 1.400 . S
C2579 C2578 1.400 . S
C2579 C2580 1.398 . S
C2579 C2585 1.491 . S
C2580 H2571 0.950 . S
C2580 C2579 1.398 . S
C2580 C2581 1.391 . S
C2581 H2569 0.950 . S
C2581 C2577 1.393 . S
C2581 C2580 1.391 . S
C2582 H2572 0.950 . S
C2582 C2583 1.386 . S
C2582 C2584 1.391 . S
C2583 C2582 1.386 . S
C2583 C2587 1.393 . S
C2584 H2573 0.950 . S
C2584 C2582 1.391 . S
C2584 C2585 1.400 . S
C2585 C2579 1.491 . S
C2585 C2584 1.400 . S
C2585 C2586 1.398 . S
C2586 H2574 0.950 . S
C2586 C2585 1.398 . S
C2586 C2587 1.391 . S
C2587 H2575 0.950 . S
C2587 C2583 1.393 . S
C2587 C2586 1.391 . S
H2588 C2596 0.968 . S
H2589 C2601 0.950 . S
H2590 C2598 0.950 . S
H2591 C2600 0.950 . S
H2592 C2602 0.950 . S
H2593 C2604 0.950 . S
H2594 C2606 0.950 . S
H2595 C2607 0.950 1_545 S
C2596 H2588 0.968 . S
C2596 C2597 1.386 . S
C2596 C2598 1.391 . S
C2597 C2596 1.386 . S
C2597 C2601 1.393 . S
C2598 H2590 0.950 . S
C2598 C2596 1.391 . S
C2598 C2599 1.400 . S
C2599 C2598 1.400 . S
C2599 C2600 1.398 . S
C2599 C2605 1.491 . S
C2600 H2591 0.950 . S
C2600 C2599 1.398 . S
C2600 C2601 1.391 . S
C2601 H2589 0.950 . S
C2601 C2597 1.393 . S
C2601 C2600 1.391 . S
C2602 H2592 0.950 . S
C2602 C2603 1.386 . S
C2602 C2604 1.391 . S
C2603 C2602 1.386 . S
C2603 C2607 1.393 . S
C2604 H2593 0.950 . S
C2604 C2602 1.391 . S
C2604 C2605 1.400 . S
C2605 C2599 1.491 . S
C2605 C2604 1.400 . S
C2605 C2606 1.398 . S
C2606 H2594 0.950 . S
C2606 C2605 1.398 . S
C2606 C2607 1.391 . S
C2607 H2595 0.950 1_565 S
C2607 C2603 1.393 . S
C2607 C2606 1.391 . S
H2608 C2616 0.950 . S
H2609 C2621 0.950 . S
H2610 C2618 0.950 . S
H2611 C2620 0.950 . S
H2612 C2622 0.950 . S
H2613 C2624 0.950 . S
H2614 C2626 0.950 . S
H2615 C2627 0.950 . S
C2616 H2608 0.950 . S
C2616 C2617 1.386 . S
C2616 C2618 1.391 . S
C2617 C2616 1.386 . S
C2617 C2621 1.393 . S
C2618 H2610 0.950 . S
C2618 C2616 1.391 . S
C2618 C2619 1.400 . S
C2619 C2618 1.400 . S
C2619 C2620 1.398 . S
C2619 C2625 1.491 . S
C2620 H2611 0.950 . S
C2620 C2619 1.398 . S
C2620 C2621 1.391 . S
C2621 H2609 0.950 . S
C2621 C2617 1.393 . S
C2621 C2620 1.391 . S
C2622 H2612 0.950 . S
C2622 C2623 1.386 . S
C2622 C2624 1.391 . S
C2623 C2622 1.386 . S
C2623 C2627 1.393 . S
C2624 H2613 0.950 . S
C2624 C2622 1.391 . S
C2624 C2625 1.400 . S
C2625 C2619 1.491 . S
C2625 C2624 1.400 . S
C2625 C2626 1.398 . S
C2626 H2614 0.950 . S
C2626 C2625 1.398 . S
C2626 C2627 1.391 . S
C2627 H2615 0.950 . S
C2627 C2623 1.393 . S
C2627 C2626 1.391 . S
C723 C360 1.102 . S
C717 C213 1.054 . S
C743 C368 1.102 . S
C737 C256 1.139 . S
C763 C363 1.290 . S
C757 C234 1.197 . S
C777 C196 1.480 . S
C783 C367 1.525 . S
C803 C422 1.296 . S
C797 C109 1.217 . S
C817 C129 1.123 . S
C823 C398 1.107 . S
C843 C425 1.143 . S
C837 C151 1.071 . S
C857 C100 1.577 . S
C863 C399 1.616 . S
C877 C313 1.554 . S
C883 C456 1.678 . S
C897 C322 1.231 . S
C903 C460 1.370 . S
C923 C515 0.975 . S
C917 C187 0.941 . S
C943 C523 1.596 . S
C937 C277 1.571 . S
C963 C453 1.040 . S
C957 C67 0.991 . S
C983 C461 1.537 . S
C977 C20 1.403 . S
C997 C28 1.505 . S
C1003 C518 1.624 . S
C1017 C62 1.455 . S
C1023 C522 1.447 . S
C1037 C40 1.326 . S
C1043 C487 1.209 . S
C1063 C577 1.129 . S
C1057 C184 1.080 . S
C1077 C293 1.462 . S
C1083 C585 1.519 . S
C1103 C639 1.087 . S
C1097 C310 1.283 . S
C1117 C146 1.326 . S
C1123 C491 1.375 . S
C1143 C580 1.138 . S
C1137 C230 1.040 . S
C1163 C584 1.422 . S
C1157 C255 1.446 . S
C1183 C647 1.410 . S
C1177 C205 1.327 . S
C1197 C66 1.074 . S
C1203 C391 1.117 . S
C1217 C4 1.130 . S
C1223 C337 1.102 . S
C1243 C394 1.266 . S
C1237 C37 1.173 . S
C1257 C46 1.481 . S
C1263 C336 1.528 . S
C1277 C301 1.261 . S
C1283 C701 1.335 . S
C1297 C331 1.131 . S
C1303 C677 1.104 . S
C1323 C704 1.145 . S
C1317 C175 1.073 . S
C1337 C276 1.596 . S
C1343 C678 1.604 . S
C1357 C125 1.520 . S
C1363 C611 1.649 . S
C1383 C615 1.384 . S
C1377 C130 1.251 . S
C1403 C670 0.942 . S
C1397 C167 0.910 . S
C1423 C554 1.598 . S
C1417 C91 1.570 . S
C1443 C608 1.040 . S
C1437 C214 0.991 . S
C1457 C272 1.403 . S
C1463 C616 1.537 . S
C1477 C235 1.465 . S
C1483 C673 1.593 . S
C1503 C553 1.470 . S
C1497 C208 1.434 . S
C1517 C251 1.325 . S
C1523 C642 1.210 . S
C1543 C546 1.155 . S
C1537 C150 1.113 . S
C1557 C103 1.465 . S
C1563 C430 1.517 . S
C1577 C108 1.272 . S
C1583 C484 1.103 . S
C1597 C334 1.340 . S
C1603 C646 1.364 . S
C1617 C83 1.098 . S
C1623 C549 1.180 . S
C1637 C3 1.443 . S
C1643 C429 1.440 . S
C1663 C492 1.376 . S
C1657 C45 1.360 . S
C1683 C347 1.647 . S
C1677 C318 1.588 . S
C1703 C377 1.777 . S
C1697 C188 1.659 . S
C1723 C354 1.626 . S
C1717 C289 1.516 . S
C1743 C369 1.884 . S
C1737 C314 1.735 1_565 S
C1763 C409 1.515 . S
C1757 C209 1.438 . S
C1777 C226 1.888 . S
C1783 C400 2.062 . S
C1797 C271 1.573 . S
C1803 C416 1.691 . S
C1817 C247 1.850 1_565 S
C1823 C408 1.960 . S
C1843 C447 1.330 . S
C1837 C58 1.260 . S
C1863 C470 1.774 . S
C1857 C70 1.620 . S
C1877 C16 1.161 . S
C1883 C502 1.204 . S
C1903 C532 1.797 . S
C1897 C25 1.652 . S
C1917 C133 1.163 . S
C1923 C440 1.188 . S
C1943 C462 1.880 . S
C1937 C163 1.730 1_455 S
C1963 C509 1.215 . S
C1957 C88 1.115 . S
C1977 C121 1.768 1_655 S
C1983 C524 1.913 . S
C2003 C471 1.302 . S
C1997 C104 1.232 . S
C2017 C7 1.352 . S
C2023 C564 1.392 . S
C2037 C41 1.230 1_556 S
C2043 C594 1.365 . S
C2057 C49 1.154 . S
C2063 C633 1.229 . S
C2083 C493 1.698 . S
C2077 C229 1.504 . S
C2103 C571 1.249 . S
C2097 C335 1.188 . S
C2117 C172 1.654 . S
C2123 C586 1.843 . S
C2143 C656 1.190 . S
C2137 C298 1.079 . S
C2163 C378 1.656 . S
C2157 C142 1.596 . S
C2177 C166 1.638 1_545 S
C2183 C346 1.787 . S
C2197 C87 1.527 . S
C2203 C385 1.626 . S
C2217 C124 1.706 . S
C2223 C338 1.877 . S
C2243 C688 1.498 . S
C2237 C61 1.443 . S
C2263 C679 2.063 . S
C2257 C79 1.876 1_545 S
C2277 C19 1.581 . S
C2283 C695 1.692 . S
C2297 C24 1.875 . S
C2303 C687 1.946 . S
C2317 C192 1.223 . S
C2323 C602 1.322 . S
C2343 C625 1.776 . S
C2337 C217 1.649 1_655 S
C2363 C657 1.205 . S
C2357 C268 1.161 . S
C2377 C238 1.655 1_455 S
C2383 C563 1.792 . S
C2403 C595 1.221 . S
C2397 C319 1.164 . S
C2417 C171 1.735 . S
C2423 C617 1.883 . S
C2443 C664 1.224 . S
C2437 C280 1.122 . S
C2457 C297 1.765 . S
C2463 C555 1.912 . S
C2477 C292 1.239 . S
C2483 C626 1.302 . S
C2497 C259 1.336 . S
C2503 C533 1.396 . S
C2523 C439 1.348 . S
C2517 C250 1.257 . S
C2537 C193 1.128 . S
C2543 C478 1.246 . S
C2557 C82 1.541 1_556 S
C2563 C648 1.696 . S
C2577 C145 1.194 . S
C2583 C540 1.250 . S
C2603 C431 1.836 . S
C2597 C154 1.675 1_554 S
C2617 C112 1.063 . S
C2623 C501 1.190 . S
