# Generated by pormake.
# Topology pts, (4,4)-cn, num edge types: 1
# Building blocks:
#     Node 0, Type 0, BuildingBlock: ESEHIV_clean_sbu_0, # of connection points: 4
#     Node 1, Type 0, BuildingBlock: ESEHIV_clean_sbu_0, # of connection points: 4
#     Node 2, Type 1, BuildingBlock: UXUYUI_clean_sbu_0, # of connection points: 4
#     Node 3, Type 1, BuildingBlock: UXUYUI_clean_sbu_0, # of connection points: 4
#     Edge 4, Type (0, 1), BuildingBlock: CIFDUS_clean_linker_0, # of connection points: 2
#     Edge 5, Type (0, 1), BuildingBlock: CIFDUS_clean_linker_0, # of connection points: 2
#     Edge 6, Type (0, 1), BuildingBlock: CIFDUS_clean_linker_0, # of connection points: 2
#     Edge 7, Type (0, 1), BuildingBlock: CIFDUS_clean_linker_0, # of connection points: 2
#     Edge 8, Type (0, 1), BuildingBlock: CIFDUS_clean_linker_0, # of connection points: 2
#     Edge 9, Type (0, 1), BuildingBlock: CIFDUS_clean_linker_0, # of connection points: 2
#     Edge 10, Type (0, 1), BuildingBlock: CIFDUS_clean_linker_0, # of connection points: 2
#     Edge 11, Type (0, 1), BuildingBlock: CIFDUS_clean_linker_0, # of connection points: 2
# Relax obj value: 0.002
# Max RMSD: 0.096
# Mean RMSD: 0.063
data_MOF--net-pts--node1-ESEHIV_clean_sbu_0--node2-UXUYUI_clean_sbu_0--edge1-CIFDUS_clean_linker_0
_symmetry_space_group_name_H-M    P1
_symmetry_Int_Tables_number       1
_symmetry_cell_setting            triclinic
loop_
_symmetry_equiv_pos_as_xyz
'x, y, z'
_cell_length_a     27.675093
_cell_length_b     27.744096
_cell_length_c     41.137007
_cell_angle_alpha  93.325651
_cell_angle_beta   93.154927
_cell_angle_gamma 89.977458
loop_
_atom_site_label
_atom_site_type_symbol
_atom_site_fract_x
_atom_site_fract_y
_atom_site_fract_z
_atom_type_partial_charge
Cu0 Cu 0.55457 0.05313 0.01651 0.0
N1 N 0.59065 1.01319 0.98874 0.0
N2 N 0.64928 0.99323 0.95507 0.0
C3 C 0.62752 0.02923 0.97225 0.0
C4 C 0.62478 0.95279 0.96105 0.0
C5 C 0.58863 0.96524 0.98185 0.0
O6 O 0.60147 0.0931 0.04328 0.0
C7 C 0.47603 0.05487 0.97477 0.0
O8 O 0.48237 1.00882 0.97952 0.0
H9 H 0.63903 0.06659 0.97386 0.0
H10 H 0.56313 0.94104 0.99153 0.0
N11 N 0.51888 0.01992 0.04549 0.0
N12 N 0.45881 1.00774 0.07832 0.0
C13 C 0.47619 0.03585 0.05597 0.0
C14 C 0.52918 0.98021 0.06185 0.0
C15 C 0.49212 0.97268 0.08227 0.0
C16 C 0.63616 0.06852 0.05562 0.0
O17 O 0.63644 0.02153 0.04968 0.0
H18 H 0.45887 0.06842 0.04797 0.0
H19 H 0.56154 0.95873 0.0595 0.0
O20 O 0.50639 0.08516 0.98867 0.0
H21 H 0.63229 0.91675 0.95116 0.0
H22 H 0.48984 0.94374 0.09868 0.0
Cu23 Cu 0.07756 0.57305 0.52307 0.0
N24 N 0.1164 0.53612 0.55096 0.0
N25 N 0.13441 0.47835 0.58541 0.0
C26 C 0.0995 0.49889 0.56664 0.0
C27 C 0.17501 0.50384 0.58134 0.0
C28 C 0.16384 0.53935 0.55997 0.0
O29 O 0.04603 0.526 0.49159 0.0
C30 C 0.05934 0.63692 0.57384 0.0
O31 O 0.1055 0.62768 0.57928 0.0
H32 H 0.06194 0.48772 0.56465 0.0
H33 H 0.18843 0.56586 0.5519 0.0
N34 N 0.11159 0.61637 0.49961 0.0
N35 N 0.12091 0.6798 0.4693 0.0
C36 C 0.0906 0.65546 0.48707 0.0
C37 C 0.15708 0.61587 0.48956 0.0
C38 C 0.16289 0.65496 0.47074 0.0
C39 C 0.07698 0.50036 0.47656 0.0
O40 O 0.12307 0.51022 0.4829 0.0
H41 H 0.05308 0.66484 0.49009 0.0
H42 H 0.18379 0.58857 0.49486 0.0
O43 O 0.03637 0.61452 0.54979 0.0
H44 H 0.21035 0.49711 0.59274 0.0
H45 H 0.19539 0.66423 0.45899 0.0
Li46 Li 0.05306 0.11769 0.29173 0.0
Li47 Li 0.05179 0.03132 0.28896 0.0
Li48 Li 0.09576 0.06978 0.24979 0.0
Li49 Li 1.00516 0.07119 0.2468 0.0
C50 C 0.14991 0.10019 0.30515 0.0
N51 N 0.2328 0.15411 0.32071 0.0
C52 C 0.18395 0.08534 0.32884 0.0
C53 C 0.15808 0.1425 0.28933 0.0
C54 C 0.22561 0.11309 0.33638 0.0
C55 C 0.20018 0.16924 0.29755 0.0
C56 C 0.97099 0.06172 0.31971 0.0
C57 C 0.89978 0.02827 0.34114 0.0
N58 N 0.92148 0.03256 0.37166 0.0
C59 C 0.99254 0.06603 0.35127 0.0
C60 C 0.92421 0.04286 0.31453 0.0
C61 C 0.96693 0.05097 0.37722 0.0
C62 C 0.0309 0.2158 0.31072 0.0
N63 N 0.05377 0.17496 0.32001 0.0
C64 C 0.08263 0.21505 0.3703 0.0
C65 C 0.07846 0.17367 0.34943 0.0
C66 C 0.06069 0.25817 0.36104 0.0
C67 C 0.03368 0.25811 0.33112 0.0
H68 H 1.01125 0.21573 0.28725 0.0
H69 H 0.09576 0.14065 0.35649 0.0
C70 C 0.10569 0.96149 0.31931 0.0
N71 N 0.05884 0.97554 0.31486 0.0
C72 C 0.11759 0.92117 0.33682 0.0
C73 C 0.03269 0.90977 0.34491 0.0
C74 C 0.02237 0.95037 0.32705 0.0
C75 C 0.08091 0.89463 0.34994 0.0
H76 H 0.13398 0.9815 0.30894 0.0
H77 H 0.98523 0.9611 0.32253 0.0
C78 C 0.04972 0.14159 0.21265 0.0
N79 N 0.04414 0.17164 0.1497 0.0
C80 C 0.04871 0.10763 0.18614 0.0
C81 C 0.04784 0.19079 0.20716 0.0
C82 C 0.04587 0.12356 0.1545 0.0
C83 C 0.04508 0.20527 0.17515 0.0
C84 C 0.0373 0.96773 0.241 0.0
C85 C 0.07186 0.93206 0.23494 0.0
C86 C 0.99052 0.95436 0.24814 0.0
C87 C 0.05912 0.88354 0.2364 0.0
C88 C 0.97916 0.90546 0.24928 0.0
N89 N 1.01344 0.87135 0.24349 0.0
C90 C 0.17976 0.02312 0.23232 0.0
C91 C 0.16921 0.09614 0.20574 0.0
C92 C 0.22239 1.01335 0.21657 0.0
N93 N 0.15368 0.06346 0.2263 0.0
C94 C 0.21182 0.08783 0.18944 0.0
C95 C 0.23893 0.04573 0.19459 0.0
H96 H 0.16735 0.99848 0.2495 0.0
H97 H 0.1489 0.12881 0.20208 0.0
C98 C 0.92041 0.11374 0.21806 0.0
N99 N 0.94954 0.0742 0.21709 0.0
C100 C 0.88274 0.11845 0.19424 0.0
C101 C 0.9053 0.04127 0.16943 0.0
C102 C 0.94263 0.0383 0.19341 0.0
C103 C 0.87511 0.08212 0.16918 0.0
H104 H 0.92731 0.14224 0.23682 0.0
H105 H 0.96687 1.00778 0.19263 0.0
O106 O 0.10898 0.07318 0.29766 0.0
O107 O 0.99539 0.07609 0.29397 0.0
O108 O 0.05164 0.12696 0.24387 0.0
O109 O 0.04926 0.01554 0.24059 0.0
H110 H 0.17817 0.05275 0.34136 0.0
H111 H 0.1323 0.15476 0.27096 0.0
H112 H 0.25223 0.10203 0.3547 0.0
H113 H 0.20692 0.20204 0.28552 0.0
H114 H 0.86359 1.01348 0.33752 0.0
H115 H 0.02885 0.08022 0.35559 0.0
H116 H 0.90707 0.03943 0.2902 0.0
H117 H 0.98324 0.05381 0.40177 0.0
H118 H 0.10346 0.21359 0.3933 0.0
H119 H 0.01655 0.29078 0.32308 0.0
H120 H 0.15527 0.91117 0.34027 0.0
H121 H 1.00319 0.88991 0.35413 0.0
H122 H 0.05019 0.0694 0.18989 0.0
H123 H 0.04846 0.21749 0.22745 0.0
H124 H 0.04505 0.0977 0.13376 0.0
H125 H 0.04362 0.24325 0.17052 0.0
H126 H 0.10811 0.94163 0.22916 0.0
H127 H 0.96346 0.98153 0.25322 0.0
H128 H 0.08555 0.85556 0.23188 0.0
H129 H 0.94319 0.89464 0.25498 0.0
H130 H 0.24178 0.98035 0.22127 0.0
H131 H 0.22368 0.11439 0.17331 0.0
H132 H 0.86083 0.15079 0.19494 0.0
H133 H 0.90044 1.0118 0.15111 0.0
Li134 Li 1.00753 0.0722 0.78703 0.0
Li135 Li 0.09629 0.06912 0.78857 0.0
Li136 Li 0.05174 0.11243 0.74406 0.0
Li137 Li 0.04722 0.02601 0.74633 0.0
C138 C 0.03182 0.17126 0.79895 0.0
N139 N 0.98632 0.25874 0.81076 0.0
C140 C 0.05344 0.20644 0.82073 0.0
C141 C 0.98699 0.18057 0.78323 0.0
C142 C 0.02987 0.25043 0.82637 0.0
C143 C 0.9646 0.22501 0.7895 0.0
C144 C 0.05246 1.00661 0.82612 0.0
C145 C 0.05845 0.95053 0.86888 0.0
N146 N 0.05855 0.98815 0.89159 0.0
C147 C 0.05288 0.04473 0.84996 0.0
C148 C 0.05547 0.95911 0.8357 0.0
C149 C 0.05586 0.03465 0.88288 0.0
C150 C 0.92445 0.03051 0.80879 0.0
N151 N 0.95209 0.0711 0.81337 0.0
C152 C 0.90149 0.10198 0.8551 0.0
C153 C 0.94187 0.10626 0.83641 0.0
C154 C 0.87166 0.06083 0.85039 0.0
C155 C 0.88386 0.02468 0.82694 0.0
H156 H 0.93435 1.00228 0.7912 0.0
H157 H 0.96531 0.13731 0.84079 0.0
C158 C 0.17263 0.11031 0.83155 0.0
N159 N 0.15394 0.0689 0.81653 0.0
C160 C 0.21288 0.10865 0.85371 0.0
C161 C 0.21451 0.02203 0.84364 0.0
C162 C 0.17432 0.02534 0.8219 0.0
C163 C 0.2339 0.06391 0.86042 0.0
H164 H 0.15576 0.14451 0.82681 0.0
H165 H 0.1587 0.99295 0.80973 0.0
C166 C 0.97061 0.05219 0.71079 0.0
N167 N 0.92719 1.01149 0.65357 0.0
C168 C 0.98547 0.06559 0.68065 0.0
C169 C 0.93353 0.0182 0.71181 0.0
C170 C 0.96305 0.04465 0.65201 0.0
C171 C 0.91212 0.99796 0.68262 0.0
C172 C 0.13029 0.04076 0.71809 0.0
C173 C 0.13084 0.05648 0.68644 0.0
C174 C 0.15481 0.99859 0.72595 0.0
C175 C 0.15564 0.02938 0.66303 0.0
C176 C 0.17907 0.97244 0.70182 0.0
N177 N 0.17898 0.98825 0.67113 0.0
C178 C 0.10182 0.18399 0.71379 0.0
C179 C 0.01675 0.18872 0.70465 0.0
C180 C 0.1084 0.22334 0.69474 0.0
N181 N 0.0566 0.16728 0.71815 0.0
C182 C 0.02163 0.22838 0.68557 0.0
C183 C 0.068 0.24612 0.68018 0.0
H184 H 0.13289 0.16629 0.72485 0.0
H185 H 0.98113 0.17487 0.70855 0.0
C186 C 0.02954 0.9265 0.73754 0.0
N187 N 0.04086 0.96523 0.72062 0.0
C188 C 0.02599 0.88041 0.72207 0.0
C189 C 0.04306 0.91481 0.67135 0.0
C190 C 0.04666 0.96032 0.68792 0.0
C191 C 0.03356 0.87397 0.68863 0.0
H192 H 0.02367 0.93132 0.76323 0.0
H193 H 0.05476 0.99147 0.67465 0.0
O194 O 0.05477 0.12818 0.793 0.0
O195 O 0.05028 0.01539 0.79361 0.0
O196 O 0.99244 0.07204 0.7391 0.0
O197 O 0.10616 0.06673 0.74131 0.0
H198 H 0.08805 0.19986 0.83318 0.0
H199 H 0.96938 0.15372 0.76656 0.0
H200 H 0.04621 0.27798 0.84316 0.0
H201 H 0.92989 0.23264 0.77752 0.0
H202 H 0.0608 0.91394 0.87658 0.0
H203 H 0.05108 0.08176 0.8433 0.0
H204 H 0.05588 0.92909 0.81773 0.0
H205 H 0.05614 0.06383 0.90151 0.0
H206 H 0.89418 0.13025 0.87342 0.0
H207 H 0.862 0.99238 0.82238 0.0
H208 H 0.22636 0.1418 0.86617 0.0
H209 H 0.22996 0.98681 0.84747 0.0
H210 H 1.01461 0.09118 0.67932 0.0
H211 H 0.92151 1.00737 0.73484 0.0
H212 H 0.9744 0.05449 0.62853 0.0
H213 H 0.88354 0.97146 0.68306 0.0
H214 H 0.11195 0.08898 0.67994 0.0
H215 H 0.15456 0.98587 0.7503 0.0
H216 H 0.15618 0.04096 0.63839 0.0
H217 H 0.1979 0.93954 0.70748 0.0
H218 H 0.14486 0.23513 0.69098 0.0
H219 H 0.98935 0.24511 0.67532 0.0
H220 H 0.01796 0.84998 0.73622 0.0
H221 H 0.04941 0.9114 0.64558 0.0
H222 H 0.44256 0.9883 0.14033 0.0
H223 H 0.37553 0.04486 0.05351 0.0
H224 H 0.30161 0.06198 0.08181 0.0
H225 H 0.25597 0.06119 0.13128 0.0
H226 H 0.32367 1.00687 0.2188 0.0
H227 H 0.39682 0.98795 0.19013 0.0
C228 C 0.41157 1.00389 0.12758 0.0
C229 C 0.4146 0.01536 0.09488 0.0
C230 C 0.36922 0.01408 0.14414 0.0
C231 C 0.37433 0.0362 0.07877 0.0
C232 C 0.33198 0.04587 0.09492 0.0
C233 C 0.28687 0.0457 0.14423 0.0
C234 C 0.28405 0.03544 0.17719 0.0
C235 C 0.32912 0.0353 0.12768 0.0
C236 C 0.32437 0.01457 0.19333 0.0
C237 C 0.36641 1.00393 0.17699 0.0
H238 H 0.06891 0.40604 0.5764 0.0
H239 H 0.18759 0.46001 0.64064 0.0
H240 H 0.17754 0.39303 0.67571 0.0
H241 H 0.13398 0.31995 0.68875 0.0
H242 H 0.01621 0.26535 0.62372 0.0
H243 H 0.0261 0.33252 0.58898 0.0
C244 C 0.09234 0.40345 0.5982 0.0
C245 C 0.1289 0.43825 0.60584 0.0
C246 C 0.08626 0.36488 0.61833 0.0
C247 C 0.1595 0.4336 0.63392 0.0
C248 C 0.15357 0.39542 0.65413 0.0
C249 C 0.11074 0.32238 0.66682 0.0
C250 C 0.07424 0.28748 0.65908 0.0
C251 C 0.11702 0.36086 0.6466 0.0
C252 C 0.04405 0.29194 0.63074 0.0
C253 C 0.04992 0.33021 0.61065 0.0
H254 H 0.73005 0.0573 0.04603 0.0
H255 H 0.63207 0.12451 0.11246 0.0
H256 H 0.69917 0.13848 0.15366 0.0
H257 H 0.78349 0.12044 0.17293 0.0
H258 H 0.88066 0.05466 0.1047 0.0
H259 H 0.81606 0.05097 0.06217 0.0
C260 C 0.72379 0.07638 0.0692 0.0
C261 C 0.67655 0.0901 0.07631 0.0
C262 C 0.76216 0.08336 0.0927 0.0
C263 C 0.66843 0.11439 0.10638 0.0
C264 C 0.70668 0.1217 0.13003 0.0
C265 C 0.79086 0.10622 0.14861 0.0
C266 C 0.83674 0.08643 0.14248 0.0
C267 C 0.75342 0.10469 0.12386 0.0
C268 C 0.8454 0.06842 0.11063 0.0
C269 C 0.80855 0.0667 0.0861 0.0
H270 H 0.08152 0.66258 0.63662 0.0
H271 H 0.99249 0.70375 0.55362 0.0
H272 H 0.97425 0.78103 0.58259 0.0
H273 H 0.99128 0.84018 0.62971 0.0
H274 H 0.08136 0.79686 0.7119 0.0
H275 H 0.09153 0.71721 0.68512 0.0
C276 C 0.05728 0.68808 0.62512 0.0
C277 C 0.03845 0.67767 0.59307 0.0
C278 C 0.04777 0.73236 0.64165 0.0
C279 C 1.00697 0.71081 0.57844 0.0
C280 C 0.99709 0.7552 0.59486 0.0
C281 C 1.01282 0.81309 0.64175 0.0
C282 C 0.03571 0.82454 0.67272 0.0
C283 C 0.01853 0.76697 0.62614 0.0
C284 C 0.06306 0.78894 0.68823 0.0
C285 C 0.06907 0.74339 0.67288 0.0
H286 H 0.39207 1.0068 0.9672 0.0
H287 H 0.46245 0.13459 0.93793 0.0
H288 H 0.39242 0.15031 0.90051 0.0
H289 H 0.31336 0.12347 0.87337 0.0
H290 H 0.24468 0.99586 0.90516 0.0
H291 H 0.31225 0.9841 0.94407 0.0
C292 C 0.39215 0.03829 0.95273 0.0
C293 C 0.43262 0.06915 0.95496 0.0
C294 C 0.35224 0.04676 0.93144 0.0
C295 C 0.4317 0.11029 0.93659 0.0
C296 C 0.39179 0.11905 0.91509 0.0
C297 C 0.31297 0.09344 0.88908 0.0
C298 C 0.27428 0.05996 0.88569 0.0
C299 C 0.35214 0.08695 0.91188 0.0
C300 C 0.27445 0.02136 0.9064 0.0
C301 C 0.31296 0.01476 0.92892 0.0
H302 H 0.13823 0.43634 0.44978 0.0
H303 H 0.98604 0.46898 0.45267 0.0
H304 H 0.96707 0.39754 0.41593 0.0
H305 H 0.99473 0.32441 0.38374 0.0
H306 H 0.14754 0.29334 0.38393 0.0
H307 H 0.16528 0.36583 0.41875 0.0
C308 C 0.10075 0.42824 0.4424 0.0
C309 C 0.06361 0.45818 0.45395 0.0
C310 C 0.09031 0.38721 0.42183 0.0
C311 C 0.01535 0.44659 0.44414 0.0
C312 C 1.00455 0.40575 0.42314 0.0
C313 C 0.03181 0.33386 0.39135 0.0
C314 C 0.06982 0.30345 0.38146 0.0
C315 C 0.04182 0.37561 0.4119 0.0
C316 C 0.11772 0.31583 0.39156 0.0
C317 C 0.1279 0.35734 0.41137 0.0
H318 H 0.68023 0.07311 0.92758 0.0
H319 H 0.7132 0.92266 0.9386 0.0
H320 H 0.78453 0.93012 0.90694 0.0
H321 H 0.83886 0.97984 0.87716 0.0
H322 H 0.80605 0.13049 0.86689 0.0
H323 H 0.73426 0.12269 0.89809 0.0
C324 C 0.70313 0.04196 0.92342 0.0
C325 C 0.69104 0.99737 0.93569 0.0
C326 C 0.74453 0.04663 0.90551 0.0
C327 C 0.72098 0.9573 0.92927 0.0
C328 C 0.76211 0.96161 0.91131 0.0
C329 C 0.8158 1.0109 0.8815 0.0
C330 C 0.82804 0.05573 0.86966 0.0
C331 C 0.77431 1.00613 0.89938 0.0
C332 C 0.79802 0.09571 0.87603 0.0
C333 C 0.75671 0.09121 0.89371 0.0
H334 H 0.15908 0.70531 0.41372 0.0
H335 H 0.05631 0.74954 0.48461 0.0
H336 H 0.03386 0.81927 0.45358 0.0
H337 H 0.04367 0.8682 0.40637 0.0
H338 H 0.14619 0.82373 0.33529 0.0
H339 H 0.16887 0.75419 0.36646 0.0
C340 C 0.13217 0.73047 0.42255 0.0
C341 C 0.10939 0.72203 0.45145 0.0
C342 C 0.11933 0.77057 0.40451 0.0
C343 C 0.07401 0.75473 0.46226 0.0
C344 C 0.06125 0.79478 0.44458 0.0
C345 C 0.07063 0.84304 0.39754 0.0
C346 C 0.09325 0.85137 0.36855 0.0
C347 C 0.0835 0.80296 0.41558 0.0
C348 C 0.12862 0.81865 0.35773 0.0
C349 C 0.14151 0.77871 0.37548 0.0
loop_
_geom_bond_atom_site_label_1
_geom_bond_atom_site_label_2
_geom_bond_distance
_geom_bond_site_symmetry_2
_ccdc_geom_bond_type
Cu0 N1 1.999 1_554 S
Cu0 O6 1.974 . S
Cu0 N11 1.985 . S
Cu0 O20 1.959 1_554 S
N1 Cu0 1.999 1_556 S
N1 C3 1.263 . S
N1 C5 1.389 . S
N2 C3 1.358 . S
N2 C4 1.400 . S
C3 N1 1.263 . S
C3 N2 1.358 . S
C3 H9 0.930 . S
C4 N2 1.400 . S
C4 C5 1.351 . S
C4 H21 0.930 . S
C5 N1 1.389 . S
C5 C4 1.351 . S
C5 H10 0.930 . S
O6 Cu0 1.974 . S
O6 C16 1.282 . S
C7 O8 1.261 1_545 S
C7 O20 1.251 . S
O8 C7 1.261 1_565 S
H9 C3 0.930 . S
H10 C5 0.930 . S
N11 Cu0 1.985 . S
N11 C13 1.335 . S
N11 C14 1.390 . S
N12 C13 1.345 . S
N12 C15 1.336 . S
C13 N11 1.335 . S
C13 N12 1.345 . S
C13 H18 0.930 . S
C14 N11 1.390 . S
C14 C15 1.346 . S
C14 H19 0.930 . S
C15 N12 1.336 . S
C15 C14 1.346 . S
C15 H22 0.929 . S
C16 O6 1.282 . S
C16 O17 1.216 1_545 S
O17 C16 1.216 1_565 S
H18 C13 0.930 . S
H19 C14 0.930 . S
O20 Cu0 1.959 1_556 S
O20 C7 1.251 . S
H21 C4 0.930 . S
H22 C15 0.929 . S
Cu23 N24 1.999 . S
Cu23 O29 1.974 . S
Cu23 N34 1.985 . S
Cu23 O43 1.959 . S
N24 Cu23 1.999 . S
N24 C26 1.263 . S
N24 C28 1.389 1_455 S
N25 C26 1.358 . S
N25 C27 1.400 . S
C26 N24 1.263 . S
C26 N25 1.358 . S
C26 H32 0.930 . S
C27 N25 1.400 . S
C27 C28 1.351 1_455 S
C27 H44 0.930 1_455 S
C28 N24 1.389 1_655 S
C28 C27 1.351 1_655 S
C28 H33 0.930 . S
O29 Cu23 1.974 . S
O29 C39 1.282 . S
C30 O31 1.261 . S
C30 O43 1.251 . S
O31 C30 1.261 . S
H32 C26 0.930 . S
H33 C28 0.930 . S
N34 Cu23 1.985 . S
N34 C36 1.335 . S
N34 C37 1.390 . S
N35 C36 1.345 . S
N35 C38 1.336 . S
C36 N34 1.335 . S
C36 N35 1.345 . S
C36 H41 0.930 . S
C37 N34 1.390 . S
C37 C38 1.346 . S
C37 H42 0.930 . S
C38 N35 1.336 . S
C38 C37 1.346 . S
C38 H45 0.929 . S
C39 O29 1.282 . S
C39 O40 1.216 . S
O40 C39 1.216 . S
H41 C36 0.930 . S
H42 C37 0.930 . S
O43 Cu23 1.959 . S
O43 C30 1.251 . S
H44 C27 0.930 1_655 S
H45 C38 0.929 . S
Li46 N63 1.990 . S
Li46 O106 1.956 . S
Li46 O107 1.970 1_455 S
Li46 O108 1.961 . S
Li47 N71 1.990 1_545 S
Li47 O106 1.970 . S
Li47 O107 1.956 1_455 S
Li47 O109 1.961 . S
Li48 N93 1.990 . S
Li48 O106 1.961 . S
Li48 O108 1.956 . S
Li48 O109 1.970 . S
Li49 N99 1.990 . S
Li49 O107 1.961 . S
Li49 O108 1.970 1_655 S
Li49 O109 1.956 1_655 S
C50 C52 1.348 . S
C50 C53 1.356 . S
C50 O106 1.325 . S
N51 C54 1.314 . S
N51 C55 1.279 . S
C52 C50 1.348 . S
C52 C54 1.353 . S
C52 H110 0.929 . S
C53 C50 1.356 . S
C53 C55 1.358 . S
C53 H111 0.930 . S
C54 N51 1.314 . S
C54 C52 1.353 . S
C54 H112 0.930 . S
C55 N51 1.279 . S
C55 C53 1.358 . S
C55 H113 0.930 . S
C56 C59 1.348 . S
C56 C60 1.356 . S
C56 O107 1.325 . S
C57 N58 1.279 . S
C57 C60 1.358 . S
C57 H114 0.930 . S
N58 C57 1.279 . S
N58 C61 1.314 . S
C59 C56 1.348 . S
C59 C61 1.353 . S
C59 H115 0.929 . S
C60 C56 1.356 . S
C60 C57 1.358 . S
C60 H116 0.930 . S
C61 N58 1.314 . S
C61 C59 1.353 . S
C61 H117 0.930 . S
C62 N63 1.314 . S
C62 C67 1.353 . S
C62 H68 0.930 1_455 S
N63 Li46 1.990 . S
N63 C62 1.314 . S
N63 C65 1.279 . S
C64 C65 1.358 . S
C64 C66 1.356 . S
C64 H118 0.930 . S
C65 N63 1.279 . S
C65 C64 1.358 . S
C65 H69 0.930 . S
C66 C64 1.356 . S
C66 C67 1.348 . S
C67 C62 1.353 . S
C67 C66 1.348 . S
C67 H119 0.929 1_455 S
H68 C62 0.930 1_655 S
H69 C65 0.930 . S
C70 N71 1.314 . S
C70 C72 1.353 . S
C70 H76 0.930 . S
N71 Li47 1.990 1_565 S
N71 C70 1.314 . S
N71 C74 1.279 . S
C72 C70 1.353 . S
C72 C75 1.348 . S
C72 H120 0.929 . S
C73 C74 1.358 . S
C73 C75 1.356 . S
C73 H121 0.930 1_455 S
C74 N71 1.279 . S
C74 C73 1.358 . S
C74 H77 0.930 1_455 S
C75 C72 1.348 . S
C75 C73 1.356 . S
H76 C70 0.930 . S
H77 C74 0.930 1_655 S
C78 C80 1.348 . S
C78 C81 1.356 . S
C78 O108 1.325 . S
N79 C82 1.314 . S
N79 C83 1.279 . S
C80 C78 1.348 . S
C80 C82 1.353 . S
C80 H122 0.929 1_455 S
C81 C78 1.356 . S
C81 C83 1.358 . S
C81 H123 0.930 . S
C82 N79 1.314 . S
C82 C80 1.353 . S
C82 H124 0.930 1_455 S
C83 N79 1.279 . S
C83 C81 1.358 . S
C83 H125 0.930 . S
C84 C85 1.348 . S
C84 C86 1.356 . S
C84 O109 1.325 1_565 S
C85 C84 1.348 . S
C85 C87 1.353 . S
C85 H126 0.929 . S
C86 C84 1.356 . S
C86 C88 1.358 . S
C86 H127 0.930 1_455 S
C87 C85 1.353 . S
C87 N89 1.314 . S
C87 H128 0.930 . S
C88 C86 1.358 . S
C88 N89 1.279 . S
C88 H129 0.930 1_455 S
N89 C87 1.314 . S
N89 C88 1.279 . S
C90 C92 1.353 . S
C90 N93 1.314 . S
C90 H96 0.930 . S
C91 N93 1.279 . S
C91 C94 1.358 . S
C91 H97 0.930 . S
C92 C90 1.353 . S
C92 C95 1.348 . S
C92 H130 0.929 . S
N93 Li48 1.990 . S
N93 C90 1.314 . S
N93 C91 1.279 . S
C94 C91 1.358 . S
C94 C95 1.356 . S
C94 H131 0.930 . S
C95 C92 1.348 . S
C95 C94 1.356 . S
H96 C90 0.930 . S
H97 C91 0.930 . S
C98 N99 1.314 . S
C98 C100 1.353 . S
C98 H104 0.930 . S
N99 Li49 1.990 . S
N99 C98 1.314 . S
N99 C102 1.279 . S
C100 C98 1.353 . S
C100 C103 1.348 . S
C100 H132 0.929 . S
C101 C102 1.358 . S
C101 C103 1.356 . S
C101 H133 0.930 . S
C102 N99 1.279 . S
C102 C101 1.358 . S
C102 H105 0.930 . S
C103 C100 1.348 . S
C103 C101 1.356 . S
H104 C98 0.930 . S
H105 C102 0.930 . S
O106 Li46 1.956 . S
O106 Li47 1.970 . S
O106 Li48 1.961 . S
O106 C50 1.325 . S
O107 Li46 1.970 1_655 S
O107 Li47 1.956 1_655 S
O107 Li49 1.961 . S
O107 C56 1.325 . S
O108 Li46 1.961 . S
O108 Li48 1.956 . S
O108 Li49 1.970 1_455 S
O108 C78 1.325 . S
O109 Li47 1.961 . S
O109 Li48 1.970 . S
O109 Li49 1.956 1_455 S
O109 C84 1.325 1_545 S
H110 C52 0.929 . S
H111 C53 0.930 . S
H112 C54 0.930 . S
H113 C55 0.930 . S
H114 C57 0.930 . S
H115 C59 0.929 . S
H116 C60 0.930 . S
H117 C61 0.930 . S
H118 C64 0.930 . S
H119 C67 0.929 1_655 S
H120 C72 0.929 . S
H121 C73 0.930 1_655 S
H122 C80 0.929 1_655 S
H123 C81 0.930 . S
H124 C82 0.930 1_655 S
H125 C83 0.930 . S
H126 C85 0.929 . S
H127 C86 0.930 1_655 S
H128 C87 0.930 . S
H129 C88 0.930 1_655 S
H130 C92 0.929 . S
H131 C94 0.930 . S
H132 C100 0.929 . S
H133 C101 0.930 . S
Li134 N151 1.990 1_455 S
Li134 O194 1.956 . S
Li134 O195 1.970 1_545 S
Li134 O196 1.961 . S
Li135 N159 1.990 . S
Li135 O194 1.970 . S
Li135 O195 1.956 1_545 S
Li135 O197 1.961 . S
Li136 N181 1.990 . S
Li136 O194 1.961 . S
Li136 O196 1.956 . S
Li136 O197 1.970 . S
Li137 N187 1.990 . S
Li137 O195 1.961 . S
Li137 O196 1.970 1_565 S
Li137 O197 1.956 1_565 S
C138 C140 1.348 . S
C138 C141 1.356 . S
C138 O194 1.325 . S
N139 C142 1.314 . S
N139 C143 1.279 . S
C140 C138 1.348 . S
C140 C142 1.353 . S
C140 H198 0.929 . S
C141 C138 1.356 . S
C141 C143 1.358 . S
C141 H199 0.930 . S
C142 N139 1.314 . S
C142 C140 1.353 . S
C142 H200 0.930 . S
C143 N139 1.279 . S
C143 C141 1.358 . S
C143 H201 0.930 . S
C144 C147 1.348 . S
C144 C148 1.356 . S
C144 O195 1.325 . S
C145 N146 1.279 . S
C145 C148 1.358 . S
C145 H202 0.930 . S
N146 C145 1.279 . S
N146 C149 1.314 . S
C147 C144 1.348 . S
C147 C149 1.353 . S
C147 H203 0.929 . S
C148 C144 1.356 . S
C148 C145 1.358 . S
C148 H204 0.930 . S
C149 N146 1.314 . S
C149 C147 1.353 . S
C149 H205 0.930 . S
C150 N151 1.314 . S
C150 C155 1.353 . S
C150 H156 0.930 1_545 S
N151 Li134 1.990 1_655 S
N151 C150 1.314 . S
N151 C153 1.279 . S
C152 C153 1.358 . S
C152 C154 1.356 . S
C152 H206 0.930 . S
C153 N151 1.279 . S
C153 C152 1.358 . S
C153 H157 0.930 . S
C154 C152 1.356 . S
C154 C155 1.348 . S
C155 C150 1.353 . S
C155 C154 1.348 . S
C155 H207 0.929 1_545 S
H156 C150 0.930 1_565 S
H157 C153 0.930 . S
C158 N159 1.314 . S
C158 C160 1.353 . S
C158 H164 0.930 . S
N159 Li135 1.990 . S
N159 C158 1.314 . S
N159 C162 1.279 . S
C160 C158 1.353 . S
C160 C163 1.348 . S
C160 H208 0.929 . S
C161 C162 1.358 . S
C161 C163 1.356 . S
C161 H209 0.930 1_545 S
C162 N159 1.279 . S
C162 C161 1.358 . S
C162 H165 0.930 1_545 S
C163 C160 1.348 . S
C163 C161 1.356 . S
H164 C158 0.930 . S
H165 C162 0.930 1_565 S
C166 C168 1.348 . S
C166 C169 1.356 . S
C166 O196 1.325 1_655 S
N167 C170 1.314 . S
N167 C171 1.279 . S
C168 C166 1.348 . S
C168 C170 1.353 . S
C168 H210 0.929 1_545 S
C169 C166 1.356 . S
C169 C171 1.358 . S
C169 H211 0.930 . S
C170 N167 1.314 . S
C170 C168 1.353 . S
C170 H212 0.930 1_545 S
C171 N167 1.279 . S
C171 C169 1.358 . S
C171 H213 0.930 . S
C172 C173 1.348 . S
C172 C174 1.356 . S
C172 O197 1.325 . S
C173 C172 1.348 . S
C173 C175 1.353 . S
C173 H214 0.929 . S
C174 C172 1.356 . S
C174 C176 1.358 . S
C174 H215 0.930 1_545 S
C175 C173 1.353 . S
C175 N177 1.314 . S
C175 H216 0.930 . S
C176 C174 1.358 . S
C176 N177 1.279 . S
C176 H217 0.930 1_545 S
N177 C175 1.314 . S
N177 C176 1.279 . S
C178 C180 1.353 . S
C178 N181 1.314 . S
C178 H184 0.930 . S
C179 N181 1.279 . S
C179 C182 1.358 . S
C179 H185 0.930 . S
C180 C178 1.353 . S
C180 C183 1.348 . S
C180 H218 0.929 . S
N181 Li136 1.990 . S
N181 C178 1.314 . S
N181 C179 1.279 . S
C182 C179 1.358 . S
C182 C183 1.356 . S
C182 H219 0.930 . S
C183 C180 1.348 . S
C183 C182 1.356 . S
H184 C178 0.930 . S
H185 C179 0.930 . S
C186 N187 1.314 . S
C186 C188 1.353 . S
C186 H192 0.930 . S
N187 Li137 1.990 . S
N187 C186 1.314 . S
N187 C190 1.279 . S
C188 C186 1.353 . S
C188 C191 1.348 . S
C188 H220 0.929 . S
C189 C190 1.358 . S
C189 C191 1.356 . S
C189 H221 0.930 . S
C190 N187 1.279 . S
C190 C189 1.358 . S
C190 H193 0.930 . S
C191 C188 1.348 . S
C191 C189 1.356 . S
H192 C186 0.930 . S
H193 C190 0.930 . S
O194 Li134 1.956 . S
O194 Li135 1.970 . S
O194 Li136 1.961 . S
O194 C138 1.325 . S
O195 Li134 1.970 1_565 S
O195 Li135 1.956 1_565 S
O195 Li137 1.961 . S
O195 C144 1.325 . S
O196 Li134 1.961 . S
O196 Li136 1.956 . S
O196 Li137 1.970 1_545 S
O196 C166 1.325 1_455 S
O197 Li135 1.961 . S
O197 Li136 1.970 . S
O197 Li137 1.956 1_545 S
O197 C172 1.325 . S
H198 C140 0.929 . S
H199 C141 0.930 . S
H200 C142 0.930 . S
H201 C143 0.930 . S
H202 C145 0.930 . S
H203 C147 0.929 . S
H204 C148 0.930 . S
H205 C149 0.930 . S
H206 C152 0.930 . S
H207 C155 0.929 1_565 S
H208 C160 0.929 . S
H209 C161 0.930 1_565 S
H210 C168 0.929 1_565 S
H211 C169 0.930 . S
H212 C170 0.930 1_565 S
H213 C171 0.930 . S
H214 C173 0.929 . S
H215 C174 0.930 1_565 S
H216 C175 0.930 . S
H217 C176 0.930 1_565 S
H218 C180 0.929 . S
H219 C182 0.930 . S
H220 C188 0.929 . S
H221 C189 0.930 . S
H222 C228 0.930 . S
H223 C231 0.930 . S
H224 C232 0.930 . S
H225 C233 0.930 . S
H226 C236 0.930 . S
H227 C237 0.930 . S
C228 H222 0.930 . S
C228 C229 1.355 . S
C228 C230 1.415 . S
C229 C228 1.355 . S
C229 C231 1.419 . S
C230 C228 1.415 . S
C230 C235 1.425 . S
C230 C237 1.409 . S
C231 H223 0.930 . S
C231 C229 1.419 . S
C231 C232 1.362 . S
C232 H224 0.930 . S
C232 C231 1.362 . S
C232 C235 1.409 . S
C233 H225 0.930 . S
C233 C234 1.355 . S
C233 C235 1.415 . S
C234 C233 1.355 . S
C234 C236 1.419 . S
C235 C230 1.425 . S
C235 C232 1.409 . S
C235 C233 1.415 . S
C236 H226 0.930 . S
C236 C234 1.419 . S
C236 C237 1.362 . S
C237 H227 0.930 . S
C237 C230 1.409 . S
C237 C236 1.362 . S
H238 C244 0.930 . S
H239 C247 0.930 . S
H240 C248 0.930 . S
H241 C249 0.930 . S
H242 C252 0.930 . S
H243 C253 0.930 . S
C244 H238 0.930 . S
C244 C245 1.355 . S
C244 C246 1.415 . S
C245 C244 1.355 . S
C245 C247 1.419 . S
C246 C244 1.415 . S
C246 C251 1.425 . S
C246 C253 1.409 . S
C247 H239 0.930 . S
C247 C245 1.419 . S
C247 C248 1.362 . S
C248 H240 0.930 . S
C248 C247 1.362 . S
C248 C251 1.409 . S
C249 H241 0.930 . S
C249 C250 1.355 . S
C249 C251 1.415 . S
C250 C249 1.355 . S
C250 C252 1.419 . S
C251 C246 1.425 . S
C251 C248 1.409 . S
C251 C249 1.415 . S
C252 H242 0.930 . S
C252 C250 1.419 . S
C252 C253 1.362 . S
C253 H243 0.930 . S
C253 C246 1.409 . S
C253 C252 1.362 . S
H254 C260 0.930 . S
H255 C263 0.930 . S
H256 C264 0.930 . S
H257 C265 0.930 . S
H258 C268 0.930 . S
H259 C269 0.930 . S
C260 H254 0.930 . S
C260 C261 1.355 . S
C260 C262 1.415 . S
C261 C260 1.355 . S
C261 C263 1.419 . S
C262 C260 1.415 . S
C262 C267 1.425 . S
C262 C269 1.409 . S
C263 H255 0.930 . S
C263 C261 1.419 . S
C263 C264 1.362 . S
C264 H256 0.930 . S
C264 C263 1.362 . S
C264 C267 1.409 . S
C265 H257 0.930 . S
C265 C266 1.355 . S
C265 C267 1.415 . S
C266 C265 1.355 . S
C266 C268 1.419 . S
C267 C262 1.425 . S
C267 C264 1.409 . S
C267 C265 1.415 . S
C268 H258 0.930 . S
C268 C266 1.419 . S
C268 C269 1.362 . S
C269 H259 0.930 . S
C269 C262 1.409 . S
C269 C268 1.362 . S
H270 C276 0.930 . S
H271 C279 0.930 . S
H272 C280 0.930 . S
H273 C281 0.930 . S
H274 C284 0.930 . S
H275 C285 0.930 . S
C276 H270 0.930 . S
C276 C277 1.355 . S
C276 C278 1.415 . S
C277 C276 1.355 . S
C277 C279 1.419 . S
C278 C276 1.415 . S
C278 C283 1.425 . S
C278 C285 1.409 . S
C279 H271 0.930 . S
C279 C277 1.419 . S
C279 C280 1.362 . S
C280 H272 0.930 . S
C280 C279 1.362 . S
C280 C283 1.409 . S
C281 H273 0.930 . S
C281 C282 1.355 . S
C281 C283 1.415 . S
C282 C281 1.355 . S
C282 C284 1.419 . S
C283 C278 1.425 . S
C283 C280 1.409 . S
C283 C281 1.415 . S
C284 H274 0.930 . S
C284 C282 1.419 . S
C284 C285 1.362 . S
C285 H275 0.930 . S
C285 C278 1.409 . S
C285 C284 1.362 . S
H286 C292 0.930 . S
H287 C295 0.930 . S
H288 C296 0.930 . S
H289 C297 0.930 . S
H290 C300 0.930 . S
H291 C301 0.930 . S
C292 H286 0.930 . S
C292 C293 1.355 . S
C292 C294 1.415 . S
C293 C292 1.355 . S
C293 C295 1.419 . S
C294 C292 1.415 . S
C294 C299 1.425 . S
C294 C301 1.409 . S
C295 H287 0.930 . S
C295 C293 1.419 . S
C295 C296 1.362 . S
C296 H288 0.930 . S
C296 C295 1.362 . S
C296 C299 1.409 . S
C297 H289 0.930 . S
C297 C298 1.355 . S
C297 C299 1.415 . S
C298 C297 1.355 . S
C298 C300 1.419 . S
C299 C294 1.425 . S
C299 C296 1.409 . S
C299 C297 1.415 . S
C300 H290 0.930 . S
C300 C298 1.419 . S
C300 C301 1.362 . S
C301 H291 0.930 . S
C301 C294 1.409 . S
C301 C300 1.362 . S
H302 C308 0.930 . S
H303 C311 0.930 1_655 S
H304 C312 0.930 . S
H305 C313 0.930 1_655 S
H306 C316 0.930 . S
H307 C317 0.930 . S
C308 H302 0.930 . S
C308 C309 1.355 . S
C308 C310 1.415 . S
C309 C308 1.355 . S
C309 C311 1.419 . S
C310 C308 1.415 . S
C310 C315 1.425 . S
C310 C317 1.409 . S
C311 H303 0.930 1_455 S
C311 C309 1.419 . S
C311 C312 1.362 1_455 S
C312 H304 0.930 . S
C312 C311 1.362 1_655 S
C312 C315 1.409 1_655 S
C313 H305 0.930 1_455 S
C313 C314 1.355 . S
C313 C315 1.415 . S
C314 C313 1.355 . S
C314 C316 1.419 . S
C315 C310 1.425 . S
C315 C312 1.409 1_455 S
C315 C313 1.415 . S
C316 H306 0.930 . S
C316 C314 1.419 . S
C316 C317 1.362 . S
C317 H307 0.930 . S
C317 C310 1.409 . S
C317 C316 1.362 . S
H318 C324 0.930 . S
H319 C327 0.930 1_565 S
H320 C328 0.930 . S
H321 C329 0.930 1_565 S
H322 C332 0.930 . S
H323 C333 0.930 . S
C324 H318 0.930 . S
C324 C325 1.355 . S
C324 C326 1.415 . S
C325 C324 1.355 . S
C325 C327 1.419 . S
C326 C324 1.415 . S
C326 C331 1.425 . S
C326 C333 1.409 . S
C327 H319 0.930 1_545 S
C327 C325 1.419 . S
C327 C328 1.362 1_545 S
C328 H320 0.930 . S
C328 C327 1.362 1_565 S
C328 C331 1.409 1_565 S
C329 H321 0.930 1_545 S
C329 C330 1.355 . S
C329 C331 1.415 . S
C330 C329 1.355 . S
C330 C332 1.419 . S
C331 C326 1.425 . S
C331 C328 1.409 1_545 S
C331 C329 1.415 . S
C332 H322 0.930 . S
C332 C330 1.419 . S
C332 C333 1.362 . S
C333 H323 0.930 . S
C333 C326 1.409 . S
C333 C332 1.362 . S
H334 C340 0.930 . S
H335 C343 0.930 . S
H336 C344 0.930 . S
H337 C345 0.930 . S
H338 C348 0.930 . S
H339 C349 0.930 . S
C340 H334 0.930 . S
C340 C341 1.355 . S
C340 C342 1.415 . S
C341 C340 1.355 . S
C341 C343 1.419 . S
C342 C340 1.415 . S
C342 C347 1.425 . S
C342 C349 1.409 . S
C343 H335 0.930 . S
C343 C341 1.419 . S
C343 C344 1.362 . S
C344 H336 0.930 . S
C344 C343 1.362 . S
C344 C347 1.409 . S
C345 H337 0.930 . S
C345 C346 1.355 . S
C345 C347 1.415 . S
C346 C345 1.355 . S
C346 C348 1.419 . S
C347 C342 1.425 . S
C347 C344 1.409 . S
C347 C345 1.415 . S
C348 H338 0.930 . S
C348 C346 1.419 . S
C348 C349 1.362 . S
C349 H339 0.930 . S
C349 C342 1.409 . S
C349 C348 1.362 . S
C234 C95 1.459 . S
C229 N12 1.440 . S
C250 C183 1.497 . S
C245 N25 1.456 . S
C266 C103 1.448 . S
C261 C16 1.435 . S
C282 C191 1.492 . S
C277 C30 1.495 . S
C298 C163 1.491 . S
C293 C7 1.488 . S
C314 C66 1.440 . S
C309 C39 1.452 . S
C330 C154 1.493 . S
C325 N2 1.477 . S
C341 N35 1.445 . S
C346 C75 1.460 . S
