# Generated by pormake.
# Topology ocu, (6,8)-cn, num edge types: 1
# Building blocks:
#     Node 0, Type 0, BuildingBlock: VOLQOD_clean_sbu_1, # of connection points: 6
#     Node 1, Type 0, BuildingBlock: VOLQOD_clean_sbu_1, # of connection points: 6
#     Node 2, Type 0, BuildingBlock: VOLQOD_clean_sbu_1, # of connection points: 6
#     Node 3, Type 0, BuildingBlock: VOLQOD_clean_sbu_1, # of connection points: 6
#     Node 4, Type 0, BuildingBlock: VOLQOD_clean_sbu_1, # of connection points: 6
#     Node 5, Type 0, BuildingBlock: VOLQOD_clean_sbu_1, # of connection points: 6
#     Node 6, Type 0, BuildingBlock: VOLQOD_clean_sbu_1, # of connection points: 6
#     Node 7, Type 0, BuildingBlock: VOLQOD_clean_sbu_1, # of connection points: 6
#     Node 8, Type 1, BuildingBlock: TAGTUT_clean_sbu_1, # of connection points: 8
#     Node 9, Type 1, BuildingBlock: TAGTUT_clean_sbu_1, # of connection points: 8
#     Node 10, Type 1, BuildingBlock: TAGTUT_clean_sbu_1, # of connection points: 8
#     Node 11, Type 1, BuildingBlock: TAGTUT_clean_sbu_1, # of connection points: 8
#     Node 12, Type 1, BuildingBlock: TAGTUT_clean_sbu_1, # of connection points: 8
#     Node 13, Type 1, BuildingBlock: TAGTUT_clean_sbu_1, # of connection points: 8
#     Edge 14, Type (0, 1), BuildingBlock: UVAHIK_clean_linker_0, # of connection points: 2
#     Edge 15, Type (0, 1), BuildingBlock: UVAHIK_clean_linker_0, # of connection points: 2
#     Edge 16, Type (0, 1), BuildingBlock: UVAHIK_clean_linker_0, # of connection points: 2
#     Edge 17, Type (0, 1), BuildingBlock: UVAHIK_clean_linker_0, # of connection points: 2
#     Edge 18, Type (0, 1), BuildingBlock: UVAHIK_clean_linker_0, # of connection points: 2
#     Edge 19, Type (0, 1), BuildingBlock: UVAHIK_clean_linker_0, # of connection points: 2
#     Edge 20, Type (0, 1), BuildingBlock: UVAHIK_clean_linker_0, # of connection points: 2
#     Edge 21, Type (0, 1), BuildingBlock: UVAHIK_clean_linker_0, # of connection points: 2
#     Edge 22, Type (0, 1), BuildingBlock: UVAHIK_clean_linker_0, # of connection points: 2
#     Edge 23, Type (0, 1), BuildingBlock: UVAHIK_clean_linker_0, # of connection points: 2
#     Edge 24, Type (0, 1), BuildingBlock: UVAHIK_clean_linker_0, # of connection points: 2
#     Edge 25, Type (0, 1), BuildingBlock: UVAHIK_clean_linker_0, # of connection points: 2
#     Edge 26, Type (0, 1), BuildingBlock: UVAHIK_clean_linker_0, # of connection points: 2
#     Edge 27, Type (0, 1), BuildingBlock: UVAHIK_clean_linker_0, # of connection points: 2
#     Edge 28, Type (0, 1), BuildingBlock: UVAHIK_clean_linker_0, # of connection points: 2
#     Edge 29, Type (0, 1), BuildingBlock: UVAHIK_clean_linker_0, # of connection points: 2
#     Edge 30, Type (0, 1), BuildingBlock: UVAHIK_clean_linker_0, # of connection points: 2
#     Edge 31, Type (0, 1), BuildingBlock: UVAHIK_clean_linker_0, # of connection points: 2
#     Edge 32, Type (0, 1), BuildingBlock: UVAHIK_clean_linker_0, # of connection points: 2
#     Edge 33, Type (0, 1), BuildingBlock: UVAHIK_clean_linker_0, # of connection points: 2
#     Edge 34, Type (0, 1), BuildingBlock: UVAHIK_clean_linker_0, # of connection points: 2
#     Edge 35, Type (0, 1), BuildingBlock: UVAHIK_clean_linker_0, # of connection points: 2
#     Edge 36, Type (0, 1), BuildingBlock: UVAHIK_clean_linker_0, # of connection points: 2
#     Edge 37, Type (0, 1), BuildingBlock: UVAHIK_clean_linker_0, # of connection points: 2
#     Edge 38, Type (0, 1), BuildingBlock: UVAHIK_clean_linker_0, # of connection points: 2
#     Edge 39, Type (0, 1), BuildingBlock: UVAHIK_clean_linker_0, # of connection points: 2
#     Edge 40, Type (0, 1), BuildingBlock: UVAHIK_clean_linker_0, # of connection points: 2
#     Edge 41, Type (0, 1), BuildingBlock: UVAHIK_clean_linker_0, # of connection points: 2
#     Edge 42, Type (0, 1), BuildingBlock: UVAHIK_clean_linker_0, # of connection points: 2
#     Edge 43, Type (0, 1), BuildingBlock: UVAHIK_clean_linker_0, # of connection points: 2
#     Edge 44, Type (0, 1), BuildingBlock: UVAHIK_clean_linker_0, # of connection points: 2
#     Edge 45, Type (0, 1), BuildingBlock: UVAHIK_clean_linker_0, # of connection points: 2
#     Edge 46, Type (0, 1), BuildingBlock: UVAHIK_clean_linker_0, # of connection points: 2
#     Edge 47, Type (0, 1), BuildingBlock: UVAHIK_clean_linker_0, # of connection points: 2
#     Edge 48, Type (0, 1), BuildingBlock: UVAHIK_clean_linker_0, # of connection points: 2
#     Edge 49, Type (0, 1), BuildingBlock: UVAHIK_clean_linker_0, # of connection points: 2
#     Edge 50, Type (0, 1), BuildingBlock: UVAHIK_clean_linker_0, # of connection points: 2
#     Edge 51, Type (0, 1), BuildingBlock: UVAHIK_clean_linker_0, # of connection points: 2
#     Edge 52, Type (0, 1), BuildingBlock: UVAHIK_clean_linker_0, # of connection points: 2
#     Edge 53, Type (0, 1), BuildingBlock: UVAHIK_clean_linker_0, # of connection points: 2
#     Edge 54, Type (0, 1), BuildingBlock: UVAHIK_clean_linker_0, # of connection points: 2
#     Edge 55, Type (0, 1), BuildingBlock: UVAHIK_clean_linker_0, # of connection points: 2
#     Edge 56, Type (0, 1), BuildingBlock: UVAHIK_clean_linker_0, # of connection points: 2
#     Edge 57, Type (0, 1), BuildingBlock: UVAHIK_clean_linker_0, # of connection points: 2
#     Edge 58, Type (0, 1), BuildingBlock: UVAHIK_clean_linker_0, # of connection points: 2
#     Edge 59, Type (0, 1), BuildingBlock: UVAHIK_clean_linker_0, # of connection points: 2
#     Edge 60, Type (0, 1), BuildingBlock: UVAHIK_clean_linker_0, # of connection points: 2
#     Edge 61, Type (0, 1), BuildingBlock: UVAHIK_clean_linker_0, # of connection points: 2
# Relax obj value: 0.190
# Max RMSD: 0.327
# Mean RMSD: 0.222
data_MOF--net-ocu--node1-VOLQOD_clean_sbu_1--node2-TAGTUT_clean_sbu_1--edge1-UVAHIK_clean_linker_0
_symmetry_space_group_name_H-M    P1
_symmetry_Int_Tables_number       1
_symmetry_cell_setting            triclinic
loop_
_symmetry_equiv_pos_as_xyz
'x, y, z'
_cell_length_a     48.407169
_cell_length_b     45.968318
_cell_length_c     49.876442
_cell_angle_alpha  91.254922
_cell_angle_beta   92.023036
_cell_angle_gamma 99.548522
loop_
_atom_site_label
_atom_site_type_symbol
_atom_site_fract_x
_atom_site_fract_y
_atom_site_fract_z
_atom_type_partial_charge
O0 O 0.30077 0.28525 0.26237 0.0
Zn1 Zn 0.27001 0.25773 0.28024 0.0
O2 O 0.23802 0.24399 0.25485 0.0
Zn3 Zn 0.20368 0.2518 0.26996 0.0
Zn4 Zn 0.24332 0.26494 0.22138 0.0
Zn5 Zn 0.23383 0.20153 0.24763 0.0
O6 O 0.17516 0.21557 0.2728 0.0
O7 O 0.19618 0.17932 0.2581 0.0
O8 O 0.25774 0.27861 0.31323 0.0
O9 O 0.21141 0.26922 0.30672 0.0
O10 O 0.18621 0.28068 0.24873 0.0
O11 O 0.21359 0.28995 0.21413 0.0
O12 O 0.24596 0.23689 0.19018 0.0
O13 O 0.28735 0.22296 0.29232 0.0
O14 O 0.24034 0.19309 0.20897 0.0
O15 O 0.26336 0.18501 0.26851 0.0
C16 C 0.30096 0.2974 0.23965 0.0
C17 C 0.17498 0.18833 0.26775 0.0
C18 C 0.19238 0.29409 0.22719 0.0
C19 C 0.23313 0.27966 0.3211 0.0
C20 C 0.24514 0.20905 0.18856 0.0
C21 C 0.28291 0.19566 0.28542 0.0
O22 O 0.28004 0.29206 0.2231 0.0
O23 O 0.78781 0.21495 0.21145 0.0
Zn24 Zn 0.79532 0.24246 0.24441 0.0
O25 O 0.76043 0.25233 0.25834 0.0
Zn26 Zn 0.7586 0.29385 0.25342 0.0
Zn27 Zn 0.7286 0.22873 0.23936 0.0
Zn28 Zn 0.75816 0.24411 0.29634 0.0
O29 O 0.7592 0.31559 0.28876 0.0
O30 O 0.76154 0.28132 0.31893 0.0
O31 O 0.82065 0.27951 0.23399 0.0
O32 O 0.79282 0.31342 0.2354 0.0
O33 O 0.72371 0.2998 0.2326 0.0
O34 O 0.70259 0.25392 0.22335 0.0
O35 O 0.70532 0.20143 0.26349 0.0
O36 O 0.81578 0.22226 0.27255 0.0
O37 O 0.72153 0.21871 0.304 0.0
O38 O 0.78941 0.22282 0.30808 0.0
C39 C 0.76467 0.20186 0.20076 0.0
C40 C 0.761 0.30802 0.31306 0.0
C41 C 0.70318 0.28163 0.22225 0.0
C42 C 0.81626 0.30576 0.23039 0.0
C43 C 0.70373 0.20186 0.28886 0.0
C44 C 0.81076 0.21593 0.29685 0.0
O45 O 0.74116 0.2052 0.20979 0.0
O46 O 0.73173 0.69249 0.25656 0.0
Zn47 Zn 0.75579 0.72841 0.27394 0.0
O48 O 0.76214 0.76089 0.24851 0.0
Zn49 Zn 0.80208 0.77104 0.24082 0.0
Zn50 Zn 0.73957 0.75011 0.21548 0.0
Zn51 Zn 0.75054 0.79539 0.26395 0.0
O52 O 0.81921 0.81276 0.25333 0.0
O53 O 0.78188 0.82862 0.26875 0.0
O54 O 0.79245 0.71558 0.284 0.0
O55 O 0.82398 0.74408 0.26055 0.0
O56 O 0.80785 0.76418 0.20149 0.0
O57 O 0.76491 0.74725 0.1846 0.0
O58 O 0.71264 0.77845 0.20703 0.0
O59 O 0.73746 0.74022 0.308 0.0
O60 O 0.72073 0.80956 0.24208 0.0
O61 O 0.73646 0.78749 0.30023 0.0
C62 C 0.71705 0.68902 0.23471 0.0
C63 C 0.80783 0.83291 0.2642 0.0
C64 C 0.79129 0.75367 0.18191 0.0
C65 C 0.81756 0.72334 0.27686 0.0
C66 C 0.70765 0.80104 0.22006 0.0
C67 C 0.73205 0.76538 0.31523 0.0
O68 O 0.71716 0.70967 0.21813 0.0
O69 O 0.26022 0.75455 0.30912 0.0
Zn70 Zn 0.25129 0.7331 0.27282 0.0
O71 O 0.24659 0.76127 0.24435 0.0
Zn72 Zn 0.20794 0.75566 0.23014 0.0
Zn73 Zn 0.25587 0.80178 0.2577 0.0
Zn74 Zn 0.27145 0.75602 0.21595 0.0
O75 O 0.20611 0.74876 0.19 0.0
O76 O 0.25013 0.7454 0.18099 0.0
O77 O 0.21522 0.70486 0.27542 0.0
O78 O 0.18583 0.71961 0.2454 0.0
O79 O 0.18835 0.78916 0.24172 0.0
O80 O 0.22389 0.82403 0.25454 0.0
O81 O 0.29018 0.82456 0.24166 0.0
O82 O 0.2809 0.70779 0.26434 0.0
O83 O 0.30072 0.79142 0.21236 0.0
O84 O 0.29278 0.72386 0.22396 0.0
C85 C 0.26332 0.78209 0.31494 0.0
C86 C 0.22448 0.74378 0.17354 0.0
C87 C 0.19772 0.81528 0.25051 0.0
C88 C 0.19128 0.70185 0.26327 0.0
C89 C 0.30593 0.81674 0.22393 0.0
C90 C 0.29517 0.70703 0.24343 0.0
O91 O 0.26253 0.80116 0.297 0.0
O92 O 0.28698 0.70554 0.71235 0.0
Zn93 Zn 0.30013 0.73337 0.74443 0.0
O94 O 0.26873 0.748 0.76147 0.0
Zn95 Zn 0.2717 0.79069 0.75794 0.0
Zn96 Zn 0.23377 0.72947 0.74415 0.0
Zn97 Zn 0.26813 0.7381 0.7993 0.0
O98 O 0.27265 0.81082 0.79415 0.0
O99 O 0.27021 0.7744 0.8229 0.0
O100 O 0.32754 0.76761 0.73207 0.0
O101 O 0.30789 0.80698 0.74097 0.0
O102 O 0.23892 0.802 0.73658 0.0
O103 O 0.21172 0.75865 0.72898 0.0
O104 O 0.20925 0.70492 0.7689 0.0
O105 O 0.32213 0.71282 0.77127 0.0
O106 O 0.23339 0.70959 0.80776 0.0
O107 O 0.30144 0.71947 0.80944 0.0
C108 C 0.26207 0.69514 0.70393 0.0
C109 C 0.27191 0.8017 0.81807 0.0
C110 C 0.21625 0.78655 0.72709 0.0
C111 C 0.32808 0.7954 0.73216 0.0
C112 C 0.2117 0.69868 0.79343 0.0
C113 C 0.32068 0.7102 0.79659 0.0
O114 O 0.2408 0.70256 0.71469 0.0
O115 O 0.23174 0.20694 0.75352 0.0
Zn116 Zn 0.25448 0.24247 0.77353 0.0
O117 O 0.26694 0.27483 0.74906 0.0
Zn118 Zn 0.30782 0.28233 0.74638 0.0
Zn119 Zn 0.24949 0.2658 0.71355 0.0
Zn120 Zn 0.25517 0.31012 0.76236 0.0
O121 O 0.32468 0.32483 0.75627 0.0
O122 O 0.28667 0.34341 0.76588 0.0
O123 O 0.28859 0.22794 0.78875 0.0
O124 O 0.32521 0.25594 0.77132 0.0
O125 O 0.31836 0.27182 0.70901 0.0
O126 O 0.27799 0.26561 0.68537 0.0
O127 O 0.22099 0.29182 0.70356 0.0
O128 O 0.23299 0.25597 0.80484 0.0
O129 O 0.22584 0.32281 0.73874 0.0
O130 O 0.23934 0.30425 0.79841 0.0
C131 C 0.22522 0.20333 0.72857 0.0
C132 C 0.31298 0.34653 0.7633 0.0
C133 C 0.30438 0.26617 0.68684 0.0
C134 C 0.31495 0.2351 0.78632 0.0
C135 C 0.21418 0.31379 0.7162 0.0
C136 C 0.23056 0.2821 0.81243 0.0
O137 O 0.2307 0.22418 0.71228 0.0
O138 O 0.76192 0.26402 0.80307 0.0
Zn139 Zn 0.75072 0.24044 0.76818 0.0
O140 O 0.74309 0.26619 0.73865 0.0
Zn141 Zn 0.70358 0.25934 0.72715 0.0
Zn142 Zn 0.75321 0.30727 0.74991 0.0
Zn143 Zn 0.7653 0.25911 0.70863 0.0
O144 O 0.69831 0.2496 0.68735 0.0
O145 O 0.74175 0.24822 0.67518 0.0
O146 O 0.71548 0.21206 0.77439 0.0
O147 O 0.68326 0.22469 0.74607 0.0
O148 O 0.68521 0.29389 0.73797 0.0
O149 O 0.72128 0.32978 0.74642 0.0
O150 O 0.78751 0.32769 0.73227 0.0
O151 O 0.78019 0.21538 0.7589 0.0
O152 O 0.79507 0.29363 0.70248 0.0
O153 O 0.78533 0.22564 0.71579 0.0
C154 C 0.76453 0.29175 0.80768 0.0
C155 C 0.71558 0.24516 0.66958 0.0
C156 C 0.69496 0.32067 0.74449 0.0
C157 C 0.69056 0.20823 0.76428 0.0
C158 C 0.80185 0.31906 0.71368 0.0
C159 C 0.7905 0.21124 0.73626 0.0
O160 O 0.76181 0.30949 0.78899 0.0
O161 O 0.80524 0.79074 0.76584 0.0
Zn162 Zn 0.77515 0.76226 0.7836 0.0
O163 O 0.7437 0.74645 0.75811 0.0
Zn164 Zn 0.70915 0.75631 0.77122 0.0
Zn165 Zn 0.75019 0.76423 0.72355 0.0
Zn166 Zn 0.73924 0.70349 0.75323 0.0
O167 O 0.67987 0.72067 0.77504 0.0
O168 O 0.70142 0.68312 0.76492 0.0
O169 O 0.76182 0.78254 0.81652 0.0
O170 O 0.71583 0.77478 0.80764 0.0
O171 O 0.69358 0.78514 0.74799 0.0
O172 O 0.7219 0.78988 0.71375 0.0
O173 O 0.75099 0.73418 0.69436 0.0
O174 O 0.79419 0.72851 0.7955 0.0
O175 O 0.74559 0.69144 0.71484 0.0
O176 O 0.76868 0.68855 0.77567 0.0
C177 C 0.80758 0.79752 0.7413 0.0
C178 C 0.67991 0.69307 0.77274 0.0
C179 C 0.70083 0.79634 0.7257 0.0
C180 C 0.73694 0.78447 0.82308 0.0
C181 C 0.75001 0.70638 0.69373 0.0
C182 C 0.78926 0.70071 0.79082 0.0
O183 O 0.78824 0.78846 0.72374 0.0
C184 C 0.94797 0.06993 0.5614 0.0
C185 C 0.96709 0.06399 0.4765 0.0
C186 C 0.9558 0.94923 0.4872 0.0
Mg187 Mg 0.00166 0.06629 0.52977 0.0
O188 O 0.98813 0.02602 0.5336 0.0
Mg189 Mg 0.94881 0.0101 0.52096 0.0
Mg190 Mg 0.00736 0.99553 0.51687 0.0
O191 O 0.02629 0.96499 0.5001 0.0
Mg192 Mg 0.01194 0.92471 0.50374 0.0
Mg193 Mg 0.06537 0.98061 0.51366 0.0
C194 C 0.05873 0.04252 0.54523 0.0
C195 C 0.04614 0.02465 0.46931 0.0
O196 O 0.93571 0.04606 0.54919 0.0
O197 O 0.97348 0.08129 0.55739 0.0
O198 O 0.95122 0.04157 0.48553 0.0
O199 O 0.98918 0.07666 0.48956 0.0
O200 O 0.04521 0.06428 0.54273 0.0
O201 O 0.04758 0.01596 0.53847 0.0
C202 C 0.96945 0.96611 0.56465 0.0
O203 O 0.99276 0.96757 0.55296 0.0
O204 O 0.95001 0.97983 0.55628 0.0
O205 O 0.07837 0.94467 0.48547 0.0
O206 O 0.04076 0.90937 0.47682 0.0
O207 O 0.06135 0.94913 0.54898 0.0
C208 C 0.06628 0.92089 0.47302 0.0
O209 O 0.02279 0.91483 0.54457 0.0
O210 O 0.96882 0.92704 0.48915 0.0
C211 C 0.04475 0.92725 0.55799 0.0
O212 O 0.96704 0.97519 0.49564 0.0
O213 O 0.02242 0.02321 0.48041 0.0
O214 O 0.06533 0.01116 0.4787 0.0
C215 C 0.43714 0.08928 0.03037 0.0
C216 C 0.47275 0.07757 0.9545 0.0
C217 C 0.46596 0.96371 0.9805 0.0
Mg218 Mg 0.49776 0.08824 0.01259 0.0
O219 O 0.48733 0.04763 0.01748 0.0
Mg220 Mg 0.45117 0.0268 0.00048 0.0
Mg221 Mg 0.51155 0.01833 0.00693 0.0
O222 O 0.53566 0.98903 -0.00357 0.0
Mg223 Mg 0.52476 0.94875 0.00205 0.0
Mg224 Mg 0.57188 0.00953 0.01359 0.0
C225 C 0.55639 0.07294 0.03523 0.0
C226 C 0.55434 0.04502 0.96173 0.0
O227 O 0.43016 0.06341 0.01948 0.0
O228 O 0.4626 0.10281 0.03176 0.0
O229 O 0.45736 0.05426 0.96255 0.0
O230 O 0.49126 0.09335 0.96999 0.0
O231 O 0.54061 0.09249 0.03084 0.0
O232 O 0.54809 0.04536 0.0299 0.0
C233 C 0.4687 0.99132 0.05218 0.0
O234 O 0.49387 0.99399 0.04403 0.0
O235 O 0.44926 0.00145 0.03908 0.0
O236 O 0.59258 0.97225 0.99434 0.0
O237 O 0.55923 0.93323 0.98317 0.0
O238 O 0.5657 0.98261 0.05224 0.0
C239 C 0.58487 0.94623 0.98386 0.0
O240 O 0.53161 0.94388 0.04409 0.0
O241 O 0.48135 0.94408 0.98586 0.0
C242 C 0.54985 0.95939 0.05992 0.0
O243 O 0.47511 0.99142 0.98385 0.0
O244 O 0.52916 0.04236 0.96983 0.0
O245 O 0.57372 0.03484 0.97493 0.0
C246 C 0.9349 0.58149 0.01426 0.0
C247 C 0.95443 0.54153 0.93971 0.0
C248 C 0.94994 0.44118 0.99165 0.0
Mg249 Mg 0.98917 0.56651 0.99016 0.0
O250 O 0.97809 0.53166 0.00824 0.0
Mg251 Mg 0.9392 0.50998 -0.00084 0.0
Mg252 Mg -0.00042 0.49876 0.00259 0.0
O253 O 0.02106 0.46582 -0.00358 0.0
Mg254 Mg 0.0105 0.4291 0.01163 0.0
Mg255 Mg 0.05992 0.4873 0.00496 0.0
C256 C 0.04968 0.55526 0.01052 0.0
C257 C 0.03609 0.51108 0.94948 0.0
O258 O 0.92389 0.554 0.01174 0.0
O259 O 0.96019 0.59109 0.00797 0.0
O260 O 0.93896 0.52418 0.95487 0.0
O261 O 0.97636 0.55846 0.94897 0.0
O262 O 0.03381 0.57253 0.0007 0.0
O263 O 0.04023 0.52847 0.01654 0.0
C264 C 0.96262 0.48768 0.05573 0.0
O265 O 0.98628 0.48606 0.04529 0.0
O266 O 0.94239 0.49604 0.04231 0.0
O267 O 0.07558 0.44432 0.99095 0.0
O268 O 0.04019 0.406 0.99248 0.0
O269 O 0.05994 0.47123 0.04854 0.0
C270 C 0.06546 0.4168 0.98699 0.0
O271 O 0.02318 0.43545 0.05312 0.0
O272 O 0.96599 0.42321 -0.00016 0.0
C273 C 0.04479 0.45261 0.06291 0.0
O274 O 0.95926 0.46878 0.98869 0.0
O275 O 0.01257 0.51234 0.96016 0.0
O276 O 0.0565 0.5023 0.96222 0.0
C277 C 0.44629 0.56256 0.06826 0.0
C278 C 0.47049 0.56809 0.98415 0.0
C279 C 0.45406 0.45319 0.98137 0.0
Mg280 Mg 0.50166 0.56197 0.03801 0.0
O281 O 0.48661 0.52152 0.0371 0.0
Mg282 Mg 0.44763 0.50865 0.02136 0.0
Mg283 Mg 0.50557 0.49278 0.01739 0.0
O284 O 0.52385 0.46362 -0.00224 0.0
Mg285 Mg 0.50721 0.42348 -0.00312 0.0
Mg286 Mg 0.56235 0.47525 0.0143 0.0
C287 C 0.55709 0.53395 0.051 0.0
C288 C 0.54818 0.5264 0.97473 0.0
O289 O 0.43424 0.54052 0.05342 0.0
O290 O 0.47211 0.57413 0.06602 0.0
O291 O 0.4533 0.54532 0.99052 0.0
O292 O 0.49235 0.57804 -0.00119 0.0
O293 O 0.54463 0.55667 0.05088 0.0
O294 O 0.54504 0.50852 0.04192 0.0
C295 C 0.46338 0.45641 0.0588 0.0
O296 O 0.48794 0.46031 0.04934 0.0
O297 O 0.44478 0.47165 0.05123 0.0
O298 O 0.57518 0.44191 0.9831 0.0
O299 O 0.53664 0.40956 0.97 0.0
O300 O 0.5541 0.4396 0.04599 0.0
C301 C 0.56271 0.42015 0.96813 0.0
O302 O 0.51443 0.40793 0.03662 0.0
O303 O 0.46553 0.42984 0.9812 0.0
C304 C 0.53576 0.41759 0.05206 0.0
O305 O 0.46613 0.47739 0.99281 0.0
O306 O 0.52399 0.52482 0.98497 0.0
O307 O 0.56597 0.5105 0.98299 0.0
C308 C 0.93643 0.58918 0.52502 0.0
C309 C 0.9717 0.57713 0.44791 0.0
C310 C 0.96486 0.46394 0.4718 0.0
Mg311 Mg -0.00326 0.58826 0.50583 0.0
O312 O 0.98593 0.54773 0.51146 0.0
Mg313 Mg 0.94969 0.52697 0.49437 0.0
Mg314 Mg 0.00978 0.51814 0.50093 0.0
O315 O 0.03358 0.4887 0.49005 0.0
Mg316 Mg 0.02259 0.44833 0.49509 0.0
Mg317 Mg 0.06987 0.50903 0.50677 0.0
C318 C 0.05556 0.57275 0.52825 0.0
C319 C 0.0521 0.54445 0.4552 0.0
O320 O 0.92932 0.56323 0.51438 0.0
O321 O 0.96168 0.60328 0.52505 0.0
O322 O 0.95578 0.55431 0.45622 0.0
O323 O 0.99052 0.59265 0.46322 0.0
O324 O 0.04002 0.5924 0.52324 0.0
O325 O 0.04662 0.54508 0.52378 0.0
C326 C 0.96684 0.49133 0.54608 0.0
O327 O 0.99219 0.49412 0.53838 0.0
O328 O 0.94769 0.50137 0.53251 0.0
O329 O 0.09053 0.47198 0.48743 0.0
O330 O 0.05735 0.4327 0.47685 0.0
O331 O 0.06328 0.48168 0.54504 0.0
C332 C 0.08291 0.44582 0.4773 0.0
O333 O 0.02827 0.4436 0.53746 0.0
O334 O 0.98039 0.44422 0.47618 0.0
C335 C 0.04703 0.45887 0.553 0.0
O336 O 0.97319 0.49135 0.47783 0.0
O337 O 0.02706 0.54177 0.46363 0.0
O338 O 0.07172 0.53452 0.46825 0.0
C339 C 0.43211 0.0713 0.52318 0.0
C340 C 0.44416 0.03699 0.44367 0.0
C341 C 0.44791 0.93434 0.48768 0.0
Mg342 Mg 0.4834 0.05942 0.49177 0.0
O343 O 0.47487 0.02363 0.50907 0.0
Mg344 Mg 0.43574 0.00137 0.50207 0.0
Mg345 Mg 0.49696 0.99247 0.49903 0.0
O346 O 0.51897 0.96127 0.48835 0.0
Mg347 Mg 0.51011 0.92361 0.50212 0.0
Mg348 Mg 0.55757 0.98354 0.49716 0.0
C349 C 0.54563 0.04993 0.50692 0.0
C350 C 0.53032 0.01134 0.44521 0.0
O351 O 0.42087 0.04389 0.52005 0.0
O352 O 0.45622 0.08164 0.51437 0.0
O353 O 0.43063 0.01879 0.45945 0.0
O354 O 0.46683 0.05368 0.45138 0.0
O355 O 0.52854 0.06683 0.49889 0.0
O356 O 0.53742 0.02272 0.51239 0.0
C357 C 0.46448 0.97415 0.55358 0.0
O358 O 0.4874 0.97518 0.54116 0.0
O359 O 0.44295 0.98318 0.54312 0.0
O360 O 0.5742 0.94226 0.4803 0.0
O361 O 0.54002 0.90267 0.48112 0.0
O362 O 0.55947 0.96481 0.53986 0.0
C363 C 0.5649 0.91469 0.47551 0.0
O364 O 0.52347 0.92799 0.54332 0.0
O365 O 0.46517 0.9166 0.49304 0.0
C366 C 0.54486 0.94506 0.55357 0.0
O367 O 0.45613 0.96232 0.4859 0.0
O368 O 0.50724 0.01042 0.45739 0.0
O369 O 0.55171 0.00196 0.45566 0.0
C370 C 0.15441 0.13796 0.2825 0.0
C371 C 0.15105 0.16693 0.27666 0.0
C372 C 0.13418 0.11994 0.29669 0.0
C373 C 0.08266 0.12928 0.34689 0.0
H374 H 0.07234 0.04384 0.34596 0.0
C375 C 0.03349 0.05931 0.43414 0.0
C376 C 0.05114 0.04015 0.44378 0.0
C377 C 0.03841 0.07314 0.4096 0.0
C378 C 0.0748 0.0677 0.3463 0.0
H379 H 0.12249 0.19859 0.27837 0.0
H380 H 0.08687 0.16686 0.30245 0.0
H381 H 0.09306 0.07051 0.3078 0.0
H382 H 0.08741 0.01994 0.43479 0.0
H383 H 0.09582 0.04383 0.39235 0.0
H384 H 0.06527 0.1264 0.38583 0.0
C385 C 0.10553 0.15839 0.29692 0.0
C386 C 0.08675 0.08298 0.32453 0.0
C387 C 0.12588 0.17651 0.283 0.0
C388 C 0.07349 0.03475 0.42818 0.0
C389 C 0.07813 0.04815 0.40363 0.0
C390 C 0.07049 0.11397 0.36856 0.0
C391 C 0.11004 0.13042 0.30505 0.0
C392 C 0.09192 0.11399 0.32507 0.0
C393 C 0.06074 0.06752 0.39409 0.0
C394 C 0.06756 0.08313 0.36893 0.0
H395 H 0.17357 0.12994 0.27789 0.0
H396 H 0.13851 0.09861 0.30273 0.0
H397 H 0.08655 0.15316 0.34821 0.0
H398 H 0.01607 0.06378 0.44558 0.0
H399 H 0.02475 0.0881 0.4027 0.0
C400 C 0.82444 0.1927 0.33912 0.0
C401 C 0.82991 0.19999 0.31239 0.0
C402 C 0.84191 0.17705 0.35372 0.0
C403 C 0.87042 0.1277 0.37337 0.0
H404 H 0.95151 0.14706 0.3731 0.0
C405 C 0.93685 0.06025 0.43456 0.0
C406 C 0.95802 0.07669 0.45131 0.0
C407 C 0.92464 0.0735 0.41336 0.0
C408 C 0.92889 0.14141 0.37334 0.0
H409 H 0.85844 0.19694 0.28021 0.0
H410 H 0.88893 0.16936 0.30582 0.0
H411 H 0.92278 0.17472 0.3453 0.0
H412 H 0.98454 0.11936 0.4576 0.0
H413 H 0.96262 0.1428 0.42093 0.0
H414 H 0.87617 0.09527 0.402 0.0
C415 C 0.87114 0.17597 0.31543 0.0
C416 C 0.91246 0.15707 0.35728 0.0
C417 C 0.85358 0.19164 0.30074 0.0
C418 C 0.96815 0.10614 0.44515 0.0
C419 C 0.95567 0.11954 0.42404 0.0
C420 C 0.88674 0.1121 0.38932 0.0
C421 C 0.86529 0.16826 0.34199 0.0
C422 C 0.88303 0.15065 0.35749 0.0
C423 C 0.93302 0.10362 0.40859 0.0
C424 C 0.91617 0.11892 0.38974 0.0
H425 H 0.80654 0.19892 0.34883 0.0
H426 H 0.83713 0.17192 0.37431 0.0
H427 H 0.84781 0.12193 0.37368 0.0
H428 H 0.92884 0.03741 0.43845 0.0
H429 H 0.90778 0.06039 0.40137 0.0
C430 C 0.81181 0.88231 0.28662 0.0
C431 C 0.82515 0.85949 0.27682 0.0
C432 C 0.8249 0.90193 0.30666 0.0
C433 C 0.84488 0.90792 0.36539 0.0
H434 H 0.92106 0.94979 0.37508 0.0
C435 C 0.91523 0.9183 0.46228 0.0
C436 C 0.93099 0.94623 0.4687 0.0
C437 C 0.89759 0.91412 0.43924 0.0
C438 C 0.89959 0.93854 0.37251 0.0
H439 H 0.86414 0.84208 0.27738 0.0
H440 H 0.88726 0.8769 0.31217 0.0
H441 H 0.90254 0.93324 0.32988 0.0
H442 H 0.93913 0.99195 0.45711 0.0
H443 H 0.90865 0.98447 0.41679 0.0
H444 H 0.84259 0.91132 0.40819 0.0
C445 C 0.86651 0.87921 0.30458 0.0
C446 C 0.88912 0.92904 0.34678 0.0
C447 C 0.85329 0.85932 0.28463 0.0
C448 C 0.92694 0.97031 0.45297 0.0
C449 C 0.90977 0.96602 0.42971 0.0
C450 C 0.85555 0.91684 0.39115 0.0
C451 C 0.85169 0.89936 0.31687 0.0
C452 C 0.86181 0.91332 0.34309 0.0
C453 C 0.89588 0.93769 0.42215 0.0
C454 C 0.8831 0.93182 0.39492 0.0
H455 H 0.79027 0.88336 0.28063 0.0
H456 H 0.81328 0.91762 0.31562 0.0
H457 H 0.82386 0.89541 0.36305 0.0
H458 H 0.91802 0.89935 0.47398 0.0
H459 H 0.88706 0.89203 0.43367 0.0
C460 C 0.18897 0.86143 0.27363 0.0
C461 C 0.1784 0.83303 0.26293 0.0
C462 C 0.17455 0.87425 0.29322 0.0
C463 C 0.10854 0.86725 0.33011 0.0
H464 H 0.15937 0.89199 0.39132 0.0
C465 C 0.06798 0.88367 0.43578 0.0
C466 C 0.08097 0.90881 0.4508 0.0
C467 C 0.07963 0.8751 0.41222 0.0
C468 C 0.14489 0.88555 0.37436 0.0
H469 H 0.14263 0.79758 0.26193 0.0
H470 H 0.11748 0.82003 0.29602 0.0
H471 H 0.17803 0.87919 0.34884 0.0
H472 H 0.11712 0.94388 0.45328 0.0
H473 H 0.13724 0.92904 0.41225 0.0
H474 H 0.07536 0.87343 0.3558 0.0
C475 C 0.13704 0.83227 0.28946 0.0
C476 C 0.1556 0.87832 0.34993 0.0
C477 C 0.15146 0.81941 0.26981 0.0
C478 C 0.10656 0.92433 0.44233 0.0
C479 C 0.11814 0.9158 0.41874 0.0
C480 C 0.09781 0.87461 0.35457 0.0
C481 C 0.14922 0.85902 0.30243 0.0
C482 C 0.13757 0.86898 0.32755 0.0
C483 C 0.10451 0.89146 0.40309 0.0
C484 C 0.11586 0.88367 0.37705 0.0
H485 H 0.20947 0.87276 0.26851 0.0
H486 H 0.18408 0.8953 0.30234 0.0
H487 H 0.09415 0.86024 0.3132 0.0
H488 H 0.04832 0.87109 0.44172 0.0
H489 H 0.06892 0.85584 0.40096 0.0
C490 C 0.16844 0.78413 0.70554 0.0
C491 C 0.1943 0.80102 0.71415 0.0
C492 C 0.14755 0.79746 0.69337 0.0
C493 C 0.12479 0.86962 0.68326 0.0
H494 H 0.08783 0.83081 0.6187 0.0
C495 C 0.07574 0.92973 0.59931 0.0
C496 C 0.05302 0.91461 0.58348 0.0
C497 C 0.08739 0.91582 0.62041 0.0
C498 C 0.09739 0.84166 0.63704 0.0
H499 H 0.2183 0.84532 0.71699 0.0
H500 H 0.18194 0.86855 0.69521 0.0
H501 H 0.12013 0.80652 0.64489 0.0
H502 H 0.02294 0.87403 0.57909 0.0
H503 H 0.04335 0.84967 0.61615 0.0
H504 H 0.10266 0.90525 0.67477 0.0
C505 C 0.17772 0.84501 0.69829 0.0
C506 C 0.11604 0.82776 0.65202 0.0
C507 C 0.19865 0.83166 0.71056 0.0
C508 C 0.04066 0.88615 0.59069 0.0
C509 C 0.05243 0.87215 0.61181 0.0
C510 C 0.1061 0.88355 0.66825 0.0
C511 C 0.152 0.82801 0.68942 0.0
C512 C 0.13039 0.84183 0.67498 0.0
C513 C 0.07659 0.88646 0.62619 0.0
C514 C 0.09268 0.86998 0.64464 0.0
H515 H 0.16423 0.7605 0.70819 0.0
H516 H 0.12786 0.78381 0.68708 0.0
H517 H 0.13513 0.88078 0.70115 0.0
H518 H 0.08555 0.95184 0.59456 0.0
H519 H 0.10605 0.92747 0.63097 0.0
C520 C 0.19427 0.15371 0.73016 0.0
C521 C 0.21394 0.17385 0.71706 0.0
C522 C 0.18168 0.12737 0.71689 0.0
C523 C 0.14273 0.09522 0.67243 0.0
H524 H 0.17926 0.05626 0.61726 0.0
C525 C 0.09875 0.07667 0.56723 0.0
C526 C 0.08522 0.04764 0.56154 0.0
C527 C 0.11826 0.08267 0.58864 0.0
C528 C 0.16882 0.06639 0.63294 0.0
H529 H 0.238 0.18124 0.68124 0.0
H530 H 0.2163 0.13591 0.65833 0.0
H531 H 0.20719 0.08184 0.65538 0.0
H532 H 0.08369 0.00183 0.5721 0.0
H533 H 0.11821 0.01258 0.6096 0.0
H534 H 0.10474 0.08156 0.64893 0.0
C535 C 0.21033 0.14003 0.67862 0.0
C536 C 0.18469 0.08103 0.65466 0.0
C537 C 0.22245 0.16632 0.69158 0.0
C538 C 0.0938 0.02441 0.57593 0.0
C539 C 0.11339 0.03048 0.59746 0.0
C540 C 0.12695 0.08062 0.65077 0.0
C541 C 0.18913 0.1207 0.69066 0.0
C542 C 0.17199 0.09705 0.67374 0.0
C543 C 0.1247 0.05977 0.60457 0.0
C544 C 0.14014 0.06743 0.63029 0.0
H545 H 0.18762 0.15901 0.74993 0.0
H546 H 0.16537 0.11281 0.72663 0.0
H547 H 0.13233 0.10748 0.68662 0.0
H548 H 0.0928 0.095 0.55641 0.0
H549 H 0.12706 0.10543 0.59384 0.0
C550 C 0.83778 0.19763 0.73595 0.0
C551 C 0.80868 0.18916 0.73262 0.0
C552 C 0.85573 0.18094 0.72373 0.0
C553 C 0.85903 0.11181 0.68441 0.0
H554 H 0.90994 0.16416 0.64165 0.0
C555 C 0.90498 0.07191 0.5877 0.0
C556 C 0.93299 0.08344 0.58253 0.0
C557 C 0.89166 0.08327 0.60902 0.0
C558 C 0.89625 0.14915 0.65372 0.0
H559 H 0.77527 0.15615 0.71559 0.0
H560 H 0.80647 0.12674 0.69442 0.0
H561 H 0.88486 0.1847 0.67675 0.0
H562 H 0.96886 0.11612 0.59576 0.0
H563 H 0.94576 0.13561 0.63293 0.0
H564 H 0.87007 0.07627 0.66085 0.0
C565 C 0.81562 0.14589 0.70668 0.0
C566 C 0.88193 0.16094 0.67397 0.0
C567 C 0.79772 0.16263 0.71884 0.0
C568 C 0.94721 0.10682 0.59897 0.0
C569 C 0.93395 0.11806 0.62032 0.0
C570 C 0.87349 0.09997 0.66418 0.0
C571 C 0.84475 0.1557 0.70785 0.0
C572 C 0.86282 0.14247 0.68927 0.0
C573 C 0.90606 0.10635 0.6257 0.0
C574 C 0.89191 0.11857 0.64829 0.0
H575 H 0.84655 0.21837 0.74609 0.0
H576 H 0.87811 0.18882 0.72524 0.0
H577 H 0.84455 0.09703 0.69597 0.0
H578 H 0.89337 0.05391 0.57546 0.0
H579 H 0.86999 0.0741 0.61229 0.0
C580 C 0.84413 0.80589 0.70757 0.0
C581 C 0.83393 0.81428 0.73206 0.0
C582 C 0.86765 0.82266 0.69702 0.0
C583 C 0.9247 0.85813 0.68422 0.0
H584 H 0.9082 0.93557 0.66797 0.0
C585 C 0.95996 0.96578 0.61296 0.0
C586 C 0.96536 0.9503 0.58976 0.0
C587 C 0.95238 0.95076 0.63626 0.0
C588 C 0.91392 0.91447 0.67283 0.0
H589 H 0.8407 0.84601 0.76533 0.0
H590 H 0.88152 0.87654 0.74603 0.0
H591 H 0.88055 0.90588 0.70007 0.0
H592 H 0.96858 0.90748 0.5726 0.0
H593 H 0.95352 0.88066 0.61271 0.0
H594 H 0.95784 0.8664 0.65672 0.0
C595 C 0.8715 0.85653 0.73542 0.0
C596 C 0.89789 0.89742 0.69129 0.0
C597 C 0.84826 0.8392 0.7464 0.0
C598 C 0.96445 0.91974 0.59041 0.0
C599 C 0.95603 0.9045 0.61353 0.0
C600 C 0.94118 0.87543 0.66611 0.0
C601 C 0.88111 0.84853 0.71046 0.0
C602 C 0.90244 0.86871 0.69636 0.0
C603 C 0.94902 0.91976 0.63653 0.0
C604 C 0.93527 0.9034 0.65934 0.0
H605 H 0.83355 0.78657 0.69628 0.0
H606 H 0.8744 0.81625 0.67759 0.0
H607 H 0.92862 0.83601 0.68794 0.0
H608 H 0.96099 0.98951 0.61287 0.0
H609 H 0.94819 0.96346 0.65374 0.0
C610 C 0.26465 0.21337 0.14257 0.0
C611 C 0.25477 0.19568 0.16401 0.0
C612 C 0.27969 0.20219 0.12243 0.0
C613 C 0.30181 0.13311 0.09609 0.0
H614 H 0.36979 0.18633 0.08026 0.0
C615 C 0.38659 0.09385 0.03306 0.0
C616 C 0.41469 0.10368 0.04145 0.0
C617 C 0.36507 0.10656 0.0439 0.0
C618 C 0.351 0.17111 0.08459 0.0
H619 H 0.25082 0.15155 0.1797 0.0
H620 H 0.2773 0.13238 0.14514 0.0
H621 H 0.33394 0.20461 0.10559 0.0
H622 H 0.44226 0.13488 0.06757 0.0
H623 H 0.40463 0.15642 0.08728 0.0
H624 H 0.31962 0.09917 0.07666 0.0
C625 C 0.27338 0.15481 0.14361 0.0
C626 C 0.33015 0.18173 0.09873 0.0
C627 C 0.25823 0.1659 0.16361 0.0
C628 C 0.42083 0.12688 0.06064 0.0
C629 C 0.39922 0.13935 0.07179 0.0
C630 C 0.32277 0.12242 0.0822 0.0
C631 C 0.28523 0.17312 0.12333 0.0
C632 C 0.30551 0.16273 0.10512 0.0
C633 C 0.37102 0.12917 0.06371 0.0
C634 C 0.34786 0.14117 0.07667 0.0
H635 H 0.26215 0.23634 0.1421 0.0
H636 H 0.28793 0.21669 0.10673 0.0
H637 H 0.28296 0.11793 0.1003 0.0
H638 H 0.38115 0.0763 0.018 0.0
H639 H 0.34373 0.09857 0.03673 0.0
C640 C 0.86651 0.32242 0.21933 0.0
C641 C 0.83894 0.32815 0.22067 0.0
C642 C 0.88774 0.34375 0.20997 0.0
C643 C 0.90341 0.42323 0.19225 0.0
H644 H 0.94882 0.39463 0.13828 0.0
C645 C 0.93139 0.47915 0.09457 0.0
C646 C 0.95756 0.47815 0.08352 0.0
C647 C 0.92488 0.46639 0.1191 0.0
C648 C 0.93689 0.40302 0.15381 0.0
H649 H 0.81214 0.3609 0.21361 0.0
H650 H 0.84867 0.39744 0.19652 0.0
H651 H 0.92149 0.35968 0.16698 0.0
H652 H -0.00164 0.46609 0.091 0.0
H653 H 0.98648 0.44247 0.13372 0.0
H654 H 0.91706 0.46635 0.17724 0.0
C655 C 0.85425 0.37691 0.20337 0.0
C656 C 0.92118 0.38298 0.17029 0.0
C657 C 0.83315 0.35576 0.21288 0.0
C658 C 0.9778 0.4662 0.09859 0.0
C659 C 0.97112 0.45299 0.12305 0.0
C660 C 0.91882 0.4432 0.17551 0.0
C661 C 0.88177 0.37115 0.20162 0.0
C662 C 0.90321 0.39273 0.1888 0.0
C663 C 0.94429 0.45221 0.13304 0.0
C664 C 0.93468 0.43306 0.15538 0.0
H665 H 0.87171 0.30146 0.22547 0.0
H666 H 0.90876 0.33869 0.20908 0.0
H667 H 0.8904 0.43154 0.20686 0.0
H668 H 0.91539 0.48862 0.08376 0.0
H669 H 0.90394 0.46593 0.12628 0.0
C670 C 0.66646 0.80644 0.18963 0.0
C671 C 0.68666 0.81829 0.20959 0.0
C672 C 0.64691 0.82326 0.17986 0.0
C673 C 0.64047 0.89856 0.16745 0.0
H674 H 0.56053 0.87034 0.15907 0.0
C675 C 0.57385 0.96473 0.10551 0.0
C676 C 0.55564 0.94765 0.08651 0.0
C677 C 0.58455 0.95148 0.12765 0.0
C678 C 0.58282 0.87853 0.16113 0.0
H679 H 0.70204 0.85691 0.23511 0.0
H680 H 0.66843 0.88634 0.21749 0.0
H681 H 0.59055 0.84049 0.18255 0.0
H682 H 0.53192 0.90398 0.07739 0.0
H683 H 0.55144 0.88076 0.11487 0.0
H684 H 0.63362 0.9354 0.14457 0.0
C685 C 0.66756 0.864 0.20969 0.0
C686 C 0.59992 0.86144 0.17463 0.0
C687 C 0.68676 0.84711 0.21973 0.0
C688 C 0.54619 0.91775 0.09149 0.0
C689 C 0.5573 0.9044 0.11325 0.0
C690 C 0.62355 0.91534 0.15352 0.0
C691 C 0.64759 0.8523 0.1896 0.0
C692 C 0.62893 0.87114 0.17746 0.0
C693 C 0.57772 0.92079 0.13087 0.0
C694 C 0.59456 0.9053 0.14965 0.0
H695 H 0.66578 0.78425 0.18157 0.0
H696 H 0.63182 0.81392 0.16414 0.0
H697 H 0.66286 0.90638 0.16923 0.0
H698 H 0.58104 0.988 0.10254 0.0
H699 H 0.59941 0.96504 0.14137 0.0
C700 C 0.233 0.71687 0.13126 0.0
C701 C 0.21515 0.73136 0.1465 0.0
C702 C 0.2225 0.69954 0.10865 0.0
C703 C 0.18706 0.64532 0.08094 0.0
H704 H 0.12883 0.66407 0.03223 0.0
C705 C 0.09302 0.56177 0.0401 0.0
C706 C 0.0793 0.56798 0.01619 0.0
C707 C 0.1176 0.58025 0.04932 0.0
C708 C 0.14549 0.65848 0.04518 0.0
H709 H 0.17293 0.74112 0.14854 0.0
H710 H 0.15472 0.71114 0.10903 0.0
H711 H 0.15673 0.70312 0.05985 0.0
H712 H 0.08224 0.59541 0.98128 0.0
H713 H 0.12553 0.62703 -0.00309 0.0
H714 H 0.17502 0.60041 0.06699 0.0
C715 C 0.17679 0.71304 0.11462 0.0
C716 C 0.16127 0.68089 0.06121 0.0
C717 C 0.1872 0.73014 0.13735 0.0
C718 C 0.09222 0.59056 8e-05 0.0
C719 C 0.11691 0.60873 0.00908 0.0
C720 C 0.17119 0.62282 0.06492 0.0
C721 C 0.19407 0.6967 0.10064 0.0
C722 C 0.18151 0.67437 0.07992 0.0
C723 C 0.12888 0.60492 0.03455 0.0
C724 C 0.1496 0.62901 0.04751 0.0
H725 H 0.25469 0.71741 0.13769 0.0
H726 H 0.23633 0.68744 0.09804 0.0
H727 H 0.20245 0.6396 0.09531 0.0
H728 H 0.08343 0.54444 0.05284 0.0
H729 H 0.12627 0.57669 0.06906 0.0
C730 C 0.2842 0.815 0.86633 0.0
C731 C 0.27648 0.82354 0.84064 0.0
C732 C 0.29424 0.83624 0.88627 0.0
C733 C 0.31434 0.88458 0.92747 0.0
H734 H 0.36982 0.94366 0.89648 0.0
C735 C 0.42167 0.97353 0.95765 0.0
C736 C 0.43661 0.95396 0.9709 0.0
C737 C 0.3948 0.96355 0.9465 0.0
C738 C 0.35402 0.92786 0.9056 0.0
H739 H 0.27004 0.86085 0.81667 0.0
H740 H 0.28693 0.89792 0.85174 0.0
H741 H 0.33351 0.91501 0.86769 0.0
H742 H 0.43446 0.90909 0.98432 0.0
H743 H 0.38773 0.89166 0.96472 0.0
H744 H 0.33658 0.89612 0.96514 0.0
C745 C 0.28612 0.87485 0.8562 0.0
C746 C 0.33304 0.9114 0.88906 0.0
C747 C 0.27636 0.8536 0.83612 0.0
C748 C 0.4236 0.92463 0.97399 0.0
C749 C 0.39668 0.91474 0.96307 0.0
C750 C 0.33555 0.90088 0.94398 0.0
C751 C 0.2965 0.86648 0.88105 0.0
C752 C 0.31372 0.88863 0.89958 0.0
C753 C 0.3823 0.9339 0.94863 0.0
C754 C 0.35626 0.92178 0.93296 0.0
H755 H 0.28437 0.79202 0.87055 0.0
H756 H 0.30222 0.82887 0.90504 0.0
H757 H 0.29939 0.86768 0.93632 0.0
H758 H 0.43112 -0.00374 0.95492 0.0
H759 H 0.38414 0.97877 0.9355 0.0
C760 C 0.224 0.31528 0.85082 0.0
C761 C 0.21676 0.28764 0.83756 0.0
C762 C 0.20892 0.32279 0.87245 0.0
C763 C 0.1386 0.30878 0.89713 0.0
H764 H 0.17303 0.35856 0.95711 0.0
C765 C 0.07294 0.36708 0.96944 0.0
C766 C 0.08341 0.39711 0.97502 0.0
C767 C 0.08952 0.34894 0.95702 0.0
C768 C 0.16308 0.34471 0.94047 0.0
H769 H 0.18879 0.24564 0.83727 0.0
H770 H 0.16188 0.25902 0.87521 0.0
H771 H 0.2022 0.33396 0.9282 0.0
H772 H 0.11988 0.43135 0.97239 0.0
H773 H 0.14851 0.39992 0.95051 0.0
H774 H 0.09964 0.32054 0.90865 0.0
C775 C 0.17938 0.27479 0.86874 0.0
C776 C 0.17977 0.33053 0.92399 0.0
C777 C 0.19484 0.26707 0.84719 0.0
C778 C 0.11107 0.40836 0.96842 0.0
C779 C 0.12762 0.39024 0.95605 0.0
C780 C 0.12188 0.32303 0.9136 0.0
C781 C 0.186 0.30297 0.88126 0.0
C782 C 0.16783 0.31316 0.90165 0.0
C783 C 0.11698 0.36037 0.94996 0.0
C784 C 0.13406 0.3419 0.93495 0.0
H785 H 0.24091 0.33155 0.84397 0.0
H786 H 0.21438 0.34478 0.8814 0.0
H787 H 0.12881 0.2958 0.87992 0.0
H788 H 0.05179 0.3576 0.97435 0.0
H789 H 0.08079 0.32597 0.95283 0.0
C790 C 0.67781 0.16271 0.79041 0.0
C791 C 0.66936 0.18501 0.7749 0.0
C792 C 0.658 0.14246 0.80278 0.0
C793 C 0.59117 0.13902 0.83284 0.0
H794 H 0.60132 0.05836 0.84498 0.0
C795 C 0.54082 0.06966 0.9199 0.0
C796 C 0.56114 0.05852 0.93566 0.0
C797 C 0.54735 0.08137 0.89481 0.0
C798 C 0.59799 0.08073 0.84153 0.0
H799 H 0.63345 0.2028 0.7591 0.0
H800 H 0.59874 0.16747 0.78125 0.0
H801 H 0.62496 0.08521 0.80829 0.0
H802 H 0.60425 0.05074 0.93728 0.0
H803 H 0.61548 0.07096 0.8938 0.0
H804 H 0.56554 0.13507 0.86714 0.0
C805 C 0.62073 0.16574 0.78367 0.0
C806 C 0.61147 0.09604 0.8206 0.0
C807 C 0.64058 0.18587 0.77101 0.0
C808 C 0.58804 0.05915 0.92576 0.0
C809 C 0.59443 0.07044 0.90068 0.0
C810 C 0.57763 0.12366 0.85381 0.0
C811 C 0.62934 0.1442 0.80006 0.0
C812 C 0.60933 0.12579 0.81695 0.0
C813 C 0.57418 0.08158 0.88495 0.0
C814 C 0.58215 0.09493 0.85912 0.0
H815 H 0.69981 0.16136 0.79362 0.0
H816 H 0.6653 0.12636 0.81562 0.0
H817 H 0.58925 0.16199 0.83054 0.0
H818 H 0.51987 0.06915 0.9268 0.0
H819 H 0.53143 0.08997 0.88306 0.0
C820 C 0.79983 0.6519 0.80523 0.0
C821 C 0.80886 0.68216 0.80168 0.0
C822 C 0.81868 0.63401 0.81428 0.0
C823 C 0.88842 0.63872 0.8489 0.0
H824 H 0.87821 0.55558 0.82844 0.0
C825 C 0.95962 0.56778 0.89643 0.0
C826 C 0.94394 0.54659 0.91228 0.0
C827 C 0.94663 0.58014 0.87514 0.0
C828 C 0.88143 0.57883 0.83404 0.0
H829 H 0.84477 0.71733 0.80406 0.0
H830 H 0.87792 0.68605 0.81884 0.0
H831 H 0.84837 0.58728 0.80725 0.0
H832 H 0.90357 0.51841 0.91551 0.0
H833 H 0.88099 0.54005 0.87828 0.0
H834 H 0.92133 0.63028 0.8757 0.0
C835 C 0.85612 0.67617 0.81559 0.0
C836 C 0.86419 0.59696 0.82219 0.0
C837 C 0.83714 0.69416 0.80708 0.0
C838 C 0.91614 0.53501 0.90398 0.0
C839 C 0.90318 0.54734 0.88257 0.0
C840 C 0.90589 0.62077 0.86033 0.0
C841 C 0.84713 0.64587 0.81948 0.0
C842 C 0.86705 0.62702 0.82996 0.0
C843 C 0.91787 0.57132 0.86918 0.0
C844 C 0.90223 0.59057 0.85343 0.0
H845 H 0.77809 0.64209 0.80124 0.0
H846 H 0.81077 0.61099 0.81759 0.0
H847 H 0.89098 0.6615 0.85589 0.0
H848 H 0.98126 0.57676 0.90189 0.0
H849 H 0.95851 0.59826 0.86474 0.0
C850 C 0.18544 0.33746 0.19991 0.0
C851 C 0.1749 0.31547 0.21773 0.0
C852 C 0.16891 0.35786 0.19125 0.0
C853 C 0.09747 0.3628 0.17553 0.0
H854 H 0.12357 0.44701 0.17182 0.0
C855 C 0.03775 0.4287 0.10723 0.0
C856 C 0.05467 0.4478 0.09058 0.0
C857 C 0.04893 0.41908 0.13092 0.0
C858 C 0.11596 0.42354 0.17261 0.0
H859 H 0.13898 0.29778 0.24075 0.0
H860 H 0.10981 0.33292 0.22481 0.0
H861 H 0.15141 0.41643 0.19717 0.0
H862 H 0.0961 0.47355 0.08679 0.0
H863 H 0.11615 0.45514 0.12681 0.0
H864 H 0.06348 0.36882 0.14933 0.0
C865 C 0.13098 0.33454 0.21794 0.0
C866 C 0.13185 0.40614 0.18724 0.0
C867 C 0.14764 0.31445 0.22695 0.0
C868 C 0.08248 0.45876 0.09912 0.0
C869 C 0.09394 0.44833 0.12235 0.0
C870 C 0.08192 0.37999 0.16049 0.0
C871 C 0.14146 0.35632 0.19997 0.0
C872 C 0.12302 0.37555 0.1882 0.0
C873 C 0.07763 0.42725 0.13786 0.0
C874 C 0.09134 0.41049 0.15815 0.0
H875 H 0.20645 0.33895 0.19267 0.0
H876 H 0.17726 0.37426 0.17707 0.0
H877 H 0.09039 0.33918 0.17581 0.0
H878 H 0.01623 0.41983 0.10127 0.0
H879 H 0.03542 0.40373 0.14284 0.0
C880 C 0.19251 0.66722 0.83098 0.0
C881 C 0.18923 0.67753 0.80497 0.0
C882 C 0.17181 0.64606 0.8412 0.0
C883 C 0.09736 0.61416 0.83423 0.0
H884 H 0.1218 0.55082 0.87391 0.0
C885 C 0.03658 0.5514 0.91726 0.0
C886 C 0.04152 0.52292 0.92282 0.0
C887 C 0.04894 0.56622 0.89546 0.0
C888 C 0.11444 0.56791 0.86238 0.0
H889 H 0.16133 0.67422 0.7695 0.0
H890 H 0.12526 0.63728 0.7875 0.0
H891 H 0.15603 0.58563 0.85152 0.0
H892 H 0.06068 0.48632 0.90895 0.0
H893 H 0.08173 0.51186 0.87036 0.0
H894 H 0.05574 0.59666 0.84565 0.0
C895 C 0.14382 0.64562 0.79991 0.0
C896 C 0.13418 0.58815 0.84995 0.0
C897 C 0.16456 0.66669 0.78962 0.0
C898 C 0.0567 0.50836 0.90496 0.0
C899 C 0.06881 0.52302 0.88303 0.0
C900 C 0.07753 0.59387 0.84676 0.0
C901 C 0.14741 0.63488 0.82566 0.0
C902 C 0.12595 0.61191 0.8364 0.0
C903 C 0.06643 0.55269 0.87902 0.0
C904 C 0.086 0.57095 0.8615 0.0
H905 H 0.2112 0.67518 0.84334 0.0
H906 H 0.17487 0.63848 0.86134 0.0
H907 H 0.09048 0.63231 0.82385 0.0
H908 H 0.02566 0.56332 0.9312 0.0
H909 H 0.04691 0.58914 0.89312 0.0
C910 C 0.32382 0.18868 0.8074 0.0
C911 C 0.33393 0.2177 0.80011 0.0
C912 C 0.34168 0.1717 0.81972 0.0
C913 C 0.41713 0.16801 0.83477 0.0
H914 H 0.38532 0.11569 0.88973 0.0
C915 C 0.47699 0.11767 0.92082 0.0
C916 C 0.46561 0.08883 0.92799 0.0
C917 C 0.46462 0.13118 0.89973 0.0
C918 C 0.39442 0.12985 0.87413 0.0
H919 H 0.37072 0.25176 0.79994 0.0
H920 H 0.40174 0.22259 0.82274 0.0
H921 H 0.35577 0.1447 0.86553 0.0
H922 H 0.43491 0.05021 0.91628 0.0
H923 H 0.4134 0.07388 0.87976 0.0
H924 H 0.45631 0.15392 0.84486 0.0
C925 C 0.38017 0.21258 0.8182 0.0
C926 C 0.37745 0.14649 0.86016 0.0
C927 C 0.36235 0.22942 0.80536 0.0
C928 C 0.44384 0.07266 0.91169 0.0
C929 C 0.43146 0.08618 0.89077 0.0
C930 C 0.43429 0.15161 0.84916 0.0
C931 C 0.37003 0.1835 0.82562 0.0
C932 C 0.38848 0.16574 0.84021 0.0
C933 C 0.44077 0.11601 0.88558 0.0
C934 C 0.42298 0.13229 0.86887 0.0
H935 H 0.30213 0.17884 0.80316 0.0
H936 H 0.33321 0.14918 0.82446 0.0
H937 H 0.4263 0.18233 0.81935 0.0
H938 H 0.49399 0.13063 0.93274 0.0
H939 H 0.47225 0.15419 0.89602 0.0
C940 C 0.7639 0.33221 0.84129 0.0
C941 C 0.77109 0.30452 0.835 0.0
C942 C 0.77378 0.34721 0.86515 0.0
C943 C 0.81049 0.34305 0.93071 0.0
H944 H 0.85128 0.41916 0.91155 0.0
C945 C 0.9111 0.39827 0.98596 0.0
C946 C 0.92047 0.42875 0.98399 0.0
C947 C 0.88537 0.3851 0.97434 0.0
C948 C 0.83943 0.39848 0.91772 0.0
H949 H 0.79215 0.26963 0.84972 0.0
H950 H 0.81006 0.29631 0.89155 0.0
H951 H 0.81904 0.39067 0.87903 0.0
H952 H 0.90868 0.46973 0.97067 0.0
H953 H 0.86319 0.44693 0.95122 0.0
H954 H 0.83141 0.3507 0.96935 0.0
C955 C 0.79655 0.30621 0.878 0.0
C956 C 0.82099 0.382 0.8989 0.0
C957 C 0.78646 0.29101 0.85404 0.0
C958 C 0.90232 0.44619 0.97228 0.0
C959 C 0.87629 0.43301 0.96094 0.0
C960 C 0.82869 0.3598 0.94978 0.0
C961 C 0.79121 0.33495 0.88317 0.0
C962 C 0.80703 0.35376 0.90489 0.0
C963 C 0.8681 0.40213 0.96071 0.0
C964 C 0.84421 0.38725 0.94314 0.0
H965 H 0.7515 0.34288 0.82725 0.0
H966 H 0.76895 0.36909 0.86888 0.0
H967 H 0.79969 0.32146 0.93589 0.0
H968 H 0.92434 0.3841 -0.00486 0.0
H969 H 0.88008 0.36129 0.97447 0.0
C970 C 0.74877 0.8247 0.85855 0.0
C971 C 0.73153 0.79882 0.84864 0.0
C972 C 0.73999 0.84116 0.8797 0.0
C973 C 0.68656 0.8386 0.93206 0.0
H974 H 0.68475 0.91972 0.91341 0.0
C975 C 0.5996 0.90055 0.96478 0.0
C976 C 0.60643 0.9305 0.97264 0.0
C977 C 0.61991 0.88556 0.9545 0.0
C978 C 0.68552 0.89731 0.91924 0.0
H979 H 0.69292 0.76857 0.8542 0.0
H980 H 0.67785 0.79678 0.89095 0.0
H981 H 0.71348 0.89077 0.88819 0.0
H982 H 0.64013 0.96816 0.97587 0.0
H983 H 0.67553 0.94192 0.95762 0.0
H984 H 0.65753 0.8447 0.96224 0.0
C985 C 0.69802 0.80463 0.88263 0.0
C986 C 0.70209 0.88074 0.90486 0.0
C987 C 0.70655 0.78853 0.86141 0.0
C988 C 0.63412 0.9451 0.96999 0.0
C989 C 0.65441 0.93012 0.95949 0.0
C990 C 0.66996 0.85511 0.94635 0.0
C991 C 0.71412 0.83162 0.89146 0.0
C992 C 0.70196 0.85088 0.91047 0.0
C993 C 0.64751 0.90017 0.95168 0.0
C994 C 0.66849 0.8843 0.93946 0.0
H995 H 0.76807 0.83313 0.84892 0.0
H996 H 0.75289 0.86181 0.88622 0.0
H997 H 0.68639 0.81578 0.93714 0.0
H998 H 0.57854 0.88857 0.96657 0.0
H999 H 0.61381 0.86261 0.94822 0.0
C1000 C 0.78842 0.72147 0.14051 0.0
C1001 C 0.80344 0.74441 0.15692 0.0
C1002 C 0.80176 0.70814 0.12035 0.0
C1003 C 0.87331 0.69666 0.10479 0.0
H1004 H 0.83588 0.65615 0.04116 0.0
C1005 C 0.93139 0.63206 0.03201 0.0
C1006 C 0.9184 0.60287 0.02576 0.0
C1007 C 0.91667 0.65188 0.04447 0.0
C1008 C 0.84653 0.66735 0.0589 0.0
H1009 H 0.84343 0.77327 0.16337 0.0
H1010 H 0.86636 0.75101 0.1274 0.0
H1011 H 0.81159 0.68843 0.06804 0.0
H1012 H 0.87929 0.57209 0.02678 0.0
H1013 H 0.85352 0.60696 0.04855 0.0
H1014 H 0.9082 0.67565 0.09563 0.0
C1015 C 0.8446 0.74239 0.13081 0.0
C1016 C 0.83264 0.6858 0.07434 0.0
C1017 C 0.83139 0.75538 0.15128 0.0
C1018 C 0.88998 0.59433 0.03143 0.0
C1019 C 0.87516 0.61433 0.04373 0.0
C1020 C 0.88724 0.67858 0.08921 0.0
C1021 C 0.83032 0.71775 0.11586 0.0
C1022 C 0.84575 0.70042 0.09771 0.0
C1023 C 0.88855 0.64313 0.05081 0.0
C1024 C 0.87392 0.66347 0.06629 0.0
H1025 H 0.76687 0.71239 0.14439 0.0
H1026 H 0.79005 0.68914 0.10946 0.0
H1027 H 0.88392 0.70684 0.12296 0.0
H1028 H 0.95318 0.63954 0.02785 0.0
H1029 H 0.92742 0.67404 0.04945 0.0
C1030 C 0.35515 0.82546 0.20976 0.0
C1031 C 0.33119 0.83694 0.21673 0.0
C1032 C 0.37835 0.8439 0.20035 0.0
C1033 C 0.40744 0.92277 0.1873 0.0
H1034 H 0.43429 0.8876 0.12396 0.0
C1035 C 0.43932 0.98428 0.09221 0.0
C1036 C 0.46172 0.97699 0.07777 0.0
C1037 C 0.43133 0.96965 0.11557 0.0
C1038 C 0.4276 0.89763 0.14195 0.0
H1039 H 0.31301 0.87667 0.2209 0.0
H1040 H 0.35286 0.90882 0.20288 0.0
H1041 H 0.40503 0.85663 0.15398 0.0
H1042 H 0.49382 0.94946 0.07694 0.0
H1043 H 0.47961 0.92339 0.11766 0.0
H1044 H 0.42844 0.96425 0.17362 0.0
C1045 C 0.35426 0.88578 0.20543 0.0
C1046 C 0.41081 0.87986 0.15929 0.0
C1047 C 0.33128 0.86737 0.21551 0.0
C1048 C 0.47665 0.95559 0.0877 0.0
C1049 C 0.46847 0.94066 0.11095 0.0
C1050 C 0.42398 0.94064 0.16968 0.0
C1051 C 0.37775 0.87407 0.19698 0.0
C1052 C 0.39972 0.89232 0.1817 0.0
C1053 C 0.4454 0.94723 0.12479 0.0
C1054 C 0.43339 0.92828 0.14641 0.0
H1055 H 0.35576 0.80208 0.21115 0.0
H1056 H 0.39637 0.83427 0.19482 0.0
H1057 H 0.3998 0.93299 0.20469 0.0
H1058 H 0.42759 0.00095 0.0852 0.0
H1059 H 0.41321 0.97486 0.12564 0.0
C1060 C 0.75859 0.19375 0.15185 0.0
C1061 C 0.76395 0.18248 0.17703 0.0
C1062 C 0.74552 0.17491 0.13113 0.0
C1063 C 0.69082 0.11234 0.1308 0.0
H1064 H 0.6886 0.12188 0.05372 0.0
C1065 C 0.58887 0.10378 0.06826 0.0
C1066 C 0.58473 0.08255 0.04726 0.0
C1067 C 0.61514 0.1114 0.08126 0.0
C1068 C 0.68922 0.11872 0.07518 0.0
H1069 H 0.76291 0.14289 0.19981 0.0
H1070 H 0.74056 0.10972 0.16345 0.0
H1071 H 0.73169 0.14127 0.08035 0.0
H1072 H 0.60511 0.05404 0.02218 0.0
H1073 H 0.65139 0.06786 0.04476 0.0
H1074 H 0.64793 0.09157 0.12593 0.0
C1075 C 0.74625 0.13302 0.15964 0.0
C1076 C 0.71376 0.12975 0.09036 0.0
C1077 C 0.75927 0.1519 0.18035 0.0
C1078 C 0.60759 0.06994 0.03872 0.0
C1079 C 0.63407 0.07801 0.05141 0.0
C1080 C 0.66632 0.10177 0.11573 0.0
C1081 C 0.73742 0.14464 0.13555 0.0
C1082 C 0.71452 0.12737 0.11845 0.0
C1083 C 0.63785 0.09837 0.0731 0.0
C1084 C 0.66507 0.10566 0.08797 0.0
H1085 H 0.76161 0.21738 0.14912 0.0
H1086 H 0.73889 0.18458 0.11288 0.0
H1087 H 0.69047 0.11055 0.15241 0.0
H1088 H 0.57157 0.11381 0.07518 0.0
H1089 H 0.61773 0.12737 0.09784 0.0
C1090 C 0.65882 0.64353 0.7891 0.0
C1091 C 0.65601 0.67264 0.78313 0.0
C1092 C 0.63895 0.62632 0.80428 0.0
C1093 C 0.5897 0.63715 0.85637 0.0
H1094 H 0.57686 0.55163 0.8546 0.0
C1095 C 0.57836 0.54053 0.93607 0.0
C1096 C 0.5551 0.5446 0.95098 0.0
C1097 C 0.58402 0.55545 0.9124 0.0
C1098 C 0.58004 0.57553 0.85518 0.0
H1099 H 0.62865 0.70542 0.78605 0.0
H1100 H 0.59368 0.67511 0.812 0.0
H1101 H 0.5972 0.57812 0.81622 0.0
H1102 H 0.51992 0.56805 0.9528 0.0
H1103 H 0.53046 0.59515 0.91151 0.0
H1104 H 0.57315 0.63435 0.89573 0.0
C1105 C 0.61168 0.66591 0.80566 0.0
C1106 C 0.59179 0.5907 0.83329 0.0
C1107 C 0.63166 0.68321 0.79064 0.0
C1108 C 0.53798 0.56454 0.94185 0.0
C1109 C 0.54394 0.57993 0.91822 0.0
C1110 C 0.57766 0.62193 0.87817 0.0
C1111 C 0.61568 0.63772 0.81362 0.0
C1112 C 0.59786 0.6217 0.83408 0.0
C1113 C 0.56681 0.5751 0.90312 0.0
C1114 C 0.57381 0.59102 0.87818 0.0
H1115 H 0.6773 0.63468 0.78362 0.0
H1116 H 0.64291 0.60481 0.81017 0.0
H1117 H 0.59429 0.66101 0.85785 0.0
H1118 H 0.59201 0.52529 0.94233 0.0
H1119 H 0.6021 0.55176 0.9014 0.0
C1120 C 0.36276 0.68448 0.7986 0.0
C1121 C 0.34231 0.69726 0.8118 0.0
C1122 C 0.38329 0.67277 0.81336 0.0
C1123 C 0.41741 0.67495 0.88119 0.0
H1124 H 0.42822 0.59515 0.86365 0.0
C1125 C 0.44161 0.57057 0.94202 0.0
C1126 C 0.46414 0.5833 0.95934 0.0
C1127 C 0.43376 0.58556 0.9198 0.0
C1128 C 0.42564 0.61756 0.86865 0.0
H1129 H 0.32764 0.70793 0.8509 0.0
H1130 H 0.36311 0.68748 0.87639 0.0
H1131 H 0.40035 0.62048 0.83302 0.0
H1132 H 0.49696 0.62132 0.96605 0.0
H1133 H 0.4829 0.64783 0.92714 0.0
H1134 H 0.44128 0.67147 0.91753 0.0
C1135 C 0.36354 0.68678 0.85468 0.0
C1136 C 0.40986 0.63214 0.85102 0.0
C1137 C 0.34298 0.69823 0.84001 0.0
C1138 C 0.47938 0.61099 0.95323 0.0
C1139 C 0.47134 0.62617 0.93099 0.0
C1140 C 0.43323 0.66042 0.89877 0.0
C1141 C 0.38392 0.67393 0.84157 0.0
C1142 C 0.4047 0.66056 0.85763 0.0
C1143 C 0.44809 0.6138 0.91434 0.0
C1144 C 0.43663 0.63117 0.89317 0.0
H1145 H 0.36287 0.68344 0.77689 0.0
H1146 H 0.39876 0.66299 0.80273 0.0
H1147 H 0.41416 0.69705 0.88658 0.0
H1148 H 0.42936 0.54931 0.94602 0.0
H1149 H 0.41551 0.57557 0.90766 0.0
C1150 C 0.31652 0.39848 0.77989 0.0
C1151 C 0.32998 0.37445 0.77358 0.0
C1152 C 0.32912 0.42049 0.79814 0.0
C1153 C 0.39184 0.44896 0.84075 0.0
H1154 H 0.34157 0.43373 0.89974 0.0
C1155 C 0.41229 0.42822 0.95402 0.0
C1156 C 0.43013 0.45424 0.96259 0.0
C1157 C 0.39496 0.42803 0.93101 0.0
C1158 C 0.35553 0.43878 0.88335 0.0
H1159 H 0.36894 0.35722 0.77785 0.0
H1160 H 0.39106 0.39591 0.8096 0.0
H1161 H 0.32441 0.4194 0.85392 0.0
H1162 H 0.44263 0.50074 0.95485 0.0
H1163 H 0.41276 0.50014 0.91444 0.0
H1164 H 0.42334 0.46699 0.87054 0.0
C1165 C 0.37063 0.39748 0.8007 0.0
C1166 C 0.34577 0.43078 0.85716 0.0
C1167 C 0.35793 0.37526 0.78255 0.0
C1168 C 0.4287 0.48051 0.94904 0.0
C1169 C 0.41185 0.48018 0.92577 0.0
C1170 C 0.40145 0.45755 0.86692 0.0
C1171 C 0.35549 0.419 0.81001 0.0
C1172 C 0.36415 0.43469 0.83582 0.0
C1173 C 0.39571 0.45369 0.91606 0.0
C1174 C 0.38364 0.45137 0.88847 0.0
H1175 H 0.29517 0.39883 0.77278 0.0
H1176 H 0.31725 0.43714 0.80479 0.0
H1177 H 0.40637 0.45201 0.82462 0.0
H1178 H 0.41309 0.40769 0.96404 0.0
H1179 H 0.38276 0.40729 0.92368 0.0
C1180 C 0.68758 0.36733 0.76777 0.0
C1181 C 0.67625 0.33924 0.7568 0.0
C1182 C 0.67334 0.38067 0.78719 0.0
C1183 C 0.60678 0.37529 0.82321 0.0
H1184 H 0.65697 0.39671 0.88548 0.0
C1185 C 0.56497 0.38564 0.92896 0.0
C1186 C 0.5778 0.40969 0.94542 0.0
C1187 C 0.57693 0.37873 0.90505 0.0
C1188 C 0.64269 0.39124 0.86822 0.0
H1189 H 0.63936 0.3051 0.75498 0.0
H1190 H 0.61461 0.32838 0.78875 0.0
H1191 H 0.67599 0.38514 0.84281 0.0
H1192 H 0.61394 0.44461 0.95005 0.0
H1193 H 0.63468 0.43261 0.90835 0.0
H1194 H 0.57342 0.38102 0.84881 0.0
C1195 C 0.63461 0.33998 0.78259 0.0
C1196 C 0.65361 0.38473 0.84368 0.0
C1197 C 0.64885 0.32661 0.76315 0.0
C1198 C 0.60354 0.42582 0.93798 0.0
C1199 C 0.61545 0.41896 0.91401 0.0
C1200 C 0.59585 0.38191 0.84777 0.0
C1201 C 0.64744 0.36629 0.79591 0.0
C1202 C 0.63577 0.37638 0.82096 0.0
C1203 C 0.60196 0.39574 0.89697 0.0
C1204 C 0.61365 0.38959 0.87065 0.0
H1205 H 0.70846 0.37795 0.76306 0.0
H1206 H 0.68341 0.40138 0.79658 0.0
H1207 H 0.59254 0.36912 0.80603 0.0
H1208 H 0.54521 0.37262 0.93411 0.0
H1209 H 0.56635 0.36025 0.89272 0.0
C1210 C 0.67887 0.32328 0.20836 0.0
C1211 C 0.67915 0.29281 0.20935 0.0
C1212 C 0.65612 0.33378 0.19632 0.0
C1213 C 0.59961 0.31302 0.14546 0.0
H1214 H 0.57484 0.38368 0.17265 0.0
C1215 C 0.52846 0.37259 0.0802 0.0
C1216 C 0.5407 0.40217 0.07698 0.0
C1217 C 0.53739 0.35669 0.10152 0.0
C1218 C 0.58136 0.36378 0.16493 0.0
H1219 H 0.65544 0.24944 0.19884 0.0
H1220 H 0.61578 0.26786 0.17783 0.0
H1221 H 0.60716 0.36009 0.20003 0.0
H1222 H 0.56958 0.43913 0.09504 0.0
H1223 H 0.58511 0.41158 0.13188 0.0
H1224 H 0.57491 0.31742 0.10989 0.0
C1225 C 0.63327 0.28359 0.18621 0.0
C1226 C 0.59995 0.35038 0.18052 0.0
C1227 C 0.65601 0.27307 0.19828 0.0
C1228 C 0.56008 0.41623 0.09672 0.0
C1229 C 0.56878 0.40048 0.11806 0.0
C1230 C 0.58103 0.32641 0.12988 0.0
C1231 C 0.63314 0.31407 0.185 0.0
C1232 C 0.61005 0.32547 0.17053 0.0
C1233 C 0.55839 0.37025 0.12009 0.0
C1234 C 0.57253 0.35255 0.13904 0.0
H1235 H 0.69631 0.3391 0.21671 0.0
H1236 H 0.65689 0.35741 0.19528 0.0
H1237 H 0.60712 0.29397 0.13711 0.0
H1238 H 0.51326 0.36125 0.06543 0.0
H1239 H 0.52879 0.33348 0.10281 0.0
C1240 C 0.67517 0.65628 0.21489 0.0
C1241 C 0.70241 0.65958 0.22627 0.0
C1242 C 0.66355 0.63025 0.20099 0.0
C1243 C 0.68454 0.58388 0.15334 0.0
H1244 H 0.60912 0.53999 0.15639 0.0
C1245 C 0.58942 0.51297 0.08212 0.0
C1246 C 0.58409 0.53634 0.06606 0.0
C1247 C 0.61068 0.5177 0.10219 0.0
C1248 C 0.63053 0.55137 0.1555 0.0
H1249 H 0.7386 0.63825 0.23326 0.0
H1250 H 0.71862 0.59294 0.20761 0.0
H1251 H 0.63134 0.56716 0.19635 0.0
H1252 H 0.59853 0.58182 0.05619 0.0
H1253 H 0.63634 0.58983 0.0906 0.0
H1254 H 0.68244 0.57097 0.11163 0.0
C1255 C 0.70604 0.61012 0.21026 0.0
C1256 C 0.64314 0.56691 0.17831 0.0
C1257 C 0.71734 0.63589 0.22493 0.0
C1258 C 0.60221 0.56351 0.06837 0.0
C1259 C 0.6239 0.56801 0.08795 0.0
C1260 C 0.67169 0.56887 0.13036 0.0
C1261 C 0.67937 0.60753 0.1976 0.0
C1262 C 0.66975 0.58425 0.17703 0.0
C1263 C 0.62736 0.54562 0.10587 0.0
C1264 C 0.64413 0.55357 0.13101 0.0
H1265 H 0.66348 0.67443 0.21552 0.0
H1266 H 0.64309 0.62883 0.19104 0.0
H1267 H 0.70497 0.59744 0.15188 0.0
H1268 H 0.57559 0.49186 0.08085 0.0
H1269 H 0.61294 0.5002 0.11589 0.0
C1270 C 0.34155 0.69559 0.23248 0.0
C1271 C 0.31413 0.68552 0.24021 0.0
C1272 C 0.35734 0.67603 0.22125 0.0
C1273 C 0.34428 0.61236 0.17688 0.0
H1274 H 0.42503 0.61745 0.18243 0.0
C1275 C 0.40485 0.55713 0.0977 0.0
C1276 C 0.43045 0.57351 0.09017 0.0
C1277 C 0.39098 0.56626 0.11969 0.0
C1278 C 0.40247 0.61589 0.18052 0.0
H1279 H 0.28209 0.64714 0.24392 0.0
H1280 H 0.30968 0.61265 0.22378 0.0
H1281 H 0.40103 0.63999 0.21759 0.0
H1282 H 0.46122 0.61269 0.09961 0.0
H1283 H 0.43665 0.62908 0.13732 0.0
H1284 H 0.34571 0.58982 0.13916 0.0
C1285 C 0.31905 0.63564 0.22671 0.0
C1286 C 0.38875 0.62856 0.20079 0.0
C1287 C 0.3034 0.65523 0.23845 0.0
C1288 C 0.44161 0.59947 0.10489 0.0
C1289 C 0.42765 0.6087 0.12674 0.0
C1290 C 0.35801 0.5999 0.1565 0.0
C1291 C 0.34572 0.64612 0.21701 0.0
C1292 C 0.3596 0.6276 0.19882 0.0
C1293 C 0.40228 0.59208 0.13458 0.0
C1294 C 0.38738 0.60226 0.15769 0.0
H1295 H 0.35003 0.71896 0.23338 0.0
H1296 H 0.37768 0.68484 0.21376 0.0
H1297 H 0.32184 0.61167 0.17458 0.0
H1298 H 0.39576 0.53685 0.08699 0.0
H1299 H 0.37163 0.55277 0.12527 0.0
C1300 C 0.35333 0.30951 0.23782 0.0
C1301 C 0.32664 0.31587 0.2306 0.0
C1302 C 0.37698 0.32279 0.22445 0.0
C1303 C 0.41436 0.38033 0.1909 0.0
H1304 H 0.41244 0.33964 0.12166 0.0
C1305 C 0.42835 0.41947 0.08027 0.0
C1306 C 0.45609 0.43417 0.07933 0.0
C1307 C 0.42034 0.40045 0.10099 0.0
C1308 C 0.41378 0.35082 0.14113 0.0
H1309 H 0.30403 0.34268 0.20551 0.0
H1310 H 0.34533 0.36617 0.18271 0.0
H1311 H 0.38419 0.31671 0.15771 0.0
H1312 H 0.49747 0.44006 0.0988 0.0
H1313 H 0.48299 0.40728 0.13598 0.0
H1314 H 0.44246 0.41541 0.17363 0.0
C1315 C 0.34787 0.35076 0.1984 0.0
C1316 C 0.39773 0.33773 0.16169 0.0
C1317 C 0.32431 0.3373 0.21139 0.0
C1318 C 0.47596 0.42884 0.09909 0.0
C1319 C 0.46773 0.41025 0.12031 0.0
C1320 C 0.43074 0.39333 0.17037 0.0
C1321 C 0.37413 0.3429 0.2042 0.0
C1322 C 0.39705 0.35292 0.18628 0.0
C1323 C 0.43975 0.39618 0.12148 0.0
C1324 C 0.42952 0.37921 0.14497 0.0
H1325 H 0.35563 0.29286 0.25239 0.0
H1326 H 0.39713 0.31633 0.22896 0.0
H1327 H 0.4137 0.39252 0.20964 0.0
H1328 H 0.41269 0.42308 0.0652 0.0
H1329 H 0.39858 0.39006 0.10163 0.0
C1330 C 0.7701 0.71036 0.64824 0.0
C1331 C 0.75928 0.69247 0.66927 0.0
C1332 C 0.78515 0.69913 0.62826 0.0
C1333 C 0.80226 0.63362 0.59477 0.0
H1334 H 0.87848 0.67643 0.59671 0.0
C1335 C 0.8918 0.58364 0.54918 0.0
C1336 C 0.91461 0.60224 0.53867 0.0
C1337 C 0.87103 0.59537 0.56233 0.0
C1338 C 0.85721 0.66452 0.59532 0.0
H1339 H 0.75344 0.64795 0.68417 0.0
H1340 H 0.77929 0.62818 0.64866 0.0
H1341 H 0.84327 0.69489 0.62284 0.0
H1342 H 0.93334 0.64776 0.5332 0.0
H1343 H 0.89637 0.66847 0.55518 0.0
H1344 H 0.81581 0.60354 0.56685 0.0
C1345 C 0.77636 0.65102 0.64807 0.0
C1346 C 0.83707 0.67506 0.61045 0.0
C1347 C 0.7616 0.66236 0.66837 0.0
C1348 C 0.91609 0.63292 0.54132 0.0
C1349 C 0.89492 0.64472 0.55404 0.0
C1350 C 0.82227 0.62336 0.57915 0.0
C1351 C 0.78925 0.66967 0.62856 0.0
C1352 C 0.80956 0.65948 0.61062 0.0
C1353 C 0.87216 0.62607 0.56488 0.0
C1354 C 0.85019 0.63836 0.57962 0.0
H1355 H 0.76858 0.7336 0.6481 0.0
H1356 H 0.79467 0.71382 0.61322 0.0
H1357 H 0.7811 0.62137 0.59449 0.0
H1358 H 0.89025 0.55986 0.54774 0.0
H1359 H 0.85439 0.58021 0.57097 0.0
C1360 C 0.35293 0.84505 0.71963 0.0
C1361 C 0.35291 0.81469 0.72219 0.0
C1362 C 0.37583 0.86309 0.70918 0.0
C1363 C 0.43086 0.85808 0.66241 0.0
H1364 H 0.44704 0.94235 0.67812 0.0
C1365 C 0.48501 0.95664 0.5961 0.0
C1366 C 0.46152 0.95968 0.57963 0.0
C1367 C 0.48167 0.94036 0.61954 0.0
C1368 C 0.44352 0.91875 0.67402 0.0
H1369 H 0.37763 0.77974 0.71721 0.0
H1370 H 0.4177 0.81137 0.69901 0.0
H1371 H 0.42272 0.90935 0.71076 0.0
H1372 H 0.41613 0.94906 0.57522 0.0
H1373 H 0.4105 0.92078 0.61584 0.0
H1374 H 0.44998 0.86793 0.62488 0.0
C1375 C 0.39981 0.8211 0.70477 0.0
C1376 C 0.4293 0.89991 0.69244 0.0
C1377 C 0.3768 0.80298 0.71511 0.0
C1378 C 0.43466 0.94721 0.58747 0.0
C1379 C 0.43138 0.93097 0.61063 0.0
C1380 C 0.44522 0.87691 0.64413 0.0
C1381 C 0.39935 0.85125 0.70119 0.0
C1382 C 0.42131 0.86963 0.68605 0.0
C1383 C 0.45482 0.92704 0.6265 0.0
C1384 C 0.45028 0.90744 0.64926 0.0
H1385 H 0.33494 0.85482 0.725 0.0
H1386 H 0.37446 0.88608 0.70621 0.0
H1387 H 0.42496 0.83495 0.65673 0.0
H1388 H 0.50585 0.9666 0.59073 0.0
H1389 H 0.4999 0.93764 0.63185 0.0
C1390 C 0.17322 0.31632 0.68457 0.0
C1391 C 0.19244 0.32949 0.70484 0.0
C1392 C 0.15261 0.33149 0.67427 0.0
C1393 C 0.14096 0.40524 0.66147 0.0
H1394 H 0.06236 0.37097 0.65203 0.0
C1395 C 0.06973 0.46549 0.599 0.0
C1396 C 0.05301 0.4474 0.57959 0.0
C1397 C 0.08104 0.45307 0.62128 0.0
C1398 C 0.08425 0.38085 0.65441 0.0
H1399 H 0.20509 0.36878 0.73025 0.0
H1400 H 0.16961 0.39537 0.71171 0.0
H1401 H 0.09458 0.34392 0.67594 0.0
H1402 H 0.03254 0.40263 0.56969 0.0
H1403 H 0.05318 0.38087 0.60753 0.0
H1404 H 0.13161 0.44109 0.63855 0.0
C1405 C 0.17032 0.37327 0.70408 0.0
C1406 C 0.10261 0.36535 0.66814 0.0
C1407 C 0.19059 0.35801 0.71465 0.0
C1408 C 0.04556 0.41714 0.58421 0.0
C1409 C 0.05733 0.40464 0.60613 0.0
C1410 C 0.12281 0.42046 0.64736 0.0
C1411 C 0.15123 0.36018 0.68379 0.0
C1412 C 0.13117 0.37726 0.67134 0.0
C1413 C 0.07638 0.42226 0.6242 0.0
C1414 C 0.09429 0.40823 0.64313 0.0
H1415 H 0.17405 0.29433 0.67676 0.0
H1416 H 0.13823 0.32113 0.65838 0.0
H1417 H 0.16299 0.41476 0.66355 0.0
H1418 H 0.07531 0.48902 0.59624 0.0
H1419 H 0.09476 0.46747 0.63535 0.0
C1420 C 0.72296 0.22018 0.62598 0.0
C1421 C 0.70487 0.232 0.64312 0.0
C1422 C 0.71223 0.20254 0.60364 0.0
C1423 C 0.67967 0.14648 0.57622 0.0
H1424 H 0.61693 0.16103 0.53104 0.0
C1425 C 0.59005 0.05764 0.53487 0.0
C1426 C 0.57509 0.06372 0.51165 0.0
C1427 C 0.61381 0.07739 0.54409 0.0
C1428 C 0.63485 0.15673 0.54301 0.0
H1429 H 0.66157 0.23651 0.64896 0.0
H1430 H 0.6429 0.20599 0.6098 0.0
H1431 H 0.64252 0.2008 0.55958 0.0
H1432 H 0.57524 0.09233 0.47767 0.0
H1433 H 0.61707 0.12633 0.49337 0.0
H1434 H 0.67115 0.10197 0.56048 0.0
C1435 C 0.66537 0.21026 0.61376 0.0
C1436 C 0.64928 0.17948 0.55957 0.0
C1437 C 0.67606 0.22766 0.63626 0.0
C1438 C 0.58621 0.08752 0.49595 0.0
C1439 C 0.61005 0.10703 0.50498 0.0
C1440 C 0.66509 0.1236 0.55975 0.0
C1441 C 0.68326 0.19671 0.59779 0.0
C1442 C 0.67127 0.17434 0.57692 0.0
C1443 C 0.62296 0.10324 0.53001 0.0
C1444 C 0.64201 0.12828 0.54353 0.0
H1445 H 0.74531 0.22316 0.63057 0.0
H1446 H 0.72647 0.19263 0.59146 0.0
H1447 H 0.69647 0.14186 0.58955 0.0
H1448 H 0.58185 0.03939 0.54729 0.0
H1449 H 0.62333 0.07382 0.56346 0.0
C1450 C 0.76819 0.36114 0.32804 0.0
C1451 C 0.76643 0.33127 0.33446 0.0
C1452 C 0.77997 0.38332 0.34657 0.0
C1453 C 0.81111 0.39804 0.41608 0.0
H1454 H 0.87354 0.44105 0.37893 0.0
C1455 C 0.91379 0.46734 0.46621 0.0
C1456 C 0.93698 0.45462 0.45877 0.0
C1457 C 0.88761 0.4585 0.45308 0.0
C1458 C 0.85594 0.42969 0.38953 0.0
H1459 H 0.77227 0.30138 0.36649 0.0
H1460 H 0.79326 0.33996 0.39852 0.0
H1461 H 0.83306 0.415 0.35312 0.0
H1462 H 0.95118 0.42284 0.43206 0.0
H1463 H 0.90567 0.40795 0.40875 0.0
H1464 H 0.83533 0.41146 0.45249 0.0
C1465 C 0.78552 0.34635 0.37926 0.0
C1466 C 0.83262 0.41495 0.37482 0.0
C1467 C 0.7737 0.32416 0.36076 0.0
C1468 C 0.93362 0.43293 0.43818 0.0
C1469 C 0.90772 0.42459 0.42476 0.0
C1470 C 0.83443 0.41312 0.43086 0.0
C1471 C 0.79022 0.37602 0.37181 0.0
C1472 C 0.81054 0.39783 0.38786 0.0
C1473 C 0.88458 0.43736 0.43203 0.0
C1474 C 0.85748 0.42787 0.41752 0.0
H1475 H 0.76227 0.36741 0.30811 0.0
H1476 H 0.78288 0.40607 0.34048 0.0
H1477 H 0.79429 0.38517 0.42663 0.0
H1478 H 0.91572 0.48365 0.48239 0.0
H1479 H 0.86988 0.46838 0.45908 0.0
C1480 C 0.69298 0.75628 0.34681 0.0
C1481 C 0.72014 0.77016 0.34128 0.0
C1482 C 0.67819 0.76794 0.36698 0.0
C1483 C 0.67596 0.84114 0.39542 0.0
H1484 H 0.6205 0.80124 0.44222 0.0
C1485 C 0.61247 0.90704 0.46159 0.0
C1486 C 0.58374 0.89611 0.46345 0.0
C1487 C 0.63028 0.88966 0.45017 0.0
C1488 C 0.63579 0.81266 0.42909 0.0
H1489 H 0.75425 0.80499 0.3537 0.0
H1490 H 0.729 0.82462 0.38946 0.0
H1491 H 0.65034 0.77267 0.41759 0.0
H1492 H 0.55128 0.85809 0.45499 0.0
H1493 H 0.58224 0.82808 0.43436 0.0
H1494 H 0.66108 0.88084 0.40591 0.0
C1495 C 0.71874 0.80532 0.37798 0.0
C1496 C 0.65292 0.7963 0.4151 0.0
C1497 C 0.7333 0.79392 0.35774 0.0
C1498 C 0.57331 0.86722 0.45388 0.0
C1499 C 0.59111 0.8499 0.44224 0.0
C1500 C 0.65883 0.85737 0.4092 0.0
C1501 C 0.69052 0.79354 0.38179 0.0
C1502 C 0.6732 0.81042 0.39813 0.0
C1503 C 0.61978 0.861 0.44005 0.0
C1504 C 0.63848 0.84341 0.42618 0.0
H1505 H 0.68234 0.73819 0.33404 0.0
H1506 H 0.65645 0.75841 0.36943 0.0
H1507 H 0.69083 0.85262 0.38193 0.0
H1508 H 0.62132 0.92904 0.46906 0.0
H1509 H 0.65234 0.89874 0.44928 0.0
C1510 C 0.14058 0.67959 0.26526 0.0
C1511 C 0.16894 0.67814 0.27118 0.0
C1512 C 0.11943 0.65914 0.27587 0.0
C1513 C 0.10664 0.58882 0.31224 0.0
H1514 H 0.06009 0.62943 0.35675 0.0
C1515 C 0.03676 0.56471 0.41181 0.0
C1516 C 0.05823 0.55718 0.42871 0.0
C1517 C 0.04256 0.57515 0.38616 0.0
C1518 C 0.07231 0.61758 0.34392 0.0
H1519 H 0.19741 0.65295 0.29102 0.0
H1520 H 0.16074 0.61752 0.30953 0.0
H1521 H 0.08464 0.6552 0.32001 0.0
H1522 H 0.10262 0.55447 0.43175 0.0
H1523 H 0.11253 0.57215 0.38705 0.0
H1524 H 0.09625 0.55213 0.33777 0.0
C1525 C 0.1547 0.63427 0.29667 0.0
C1526 C 0.08631 0.63226 0.32285 0.0
C1527 C 0.17576 0.65481 0.28634 0.0
C1528 C 0.08555 0.56009 0.41936 0.0
C1529 C 0.09121 0.56995 0.39366 0.0
C1530 C 0.09282 0.57426 0.33338 0.0
C1531 C 0.12635 0.63672 0.29221 0.0
C1532 C 0.10493 0.61856 0.30791 0.0
C1533 C 0.06979 0.57742 0.37683 0.0
C1534 C 0.0769 0.58916 0.35027 0.0
H1535 H 0.1347 0.69731 0.25351 0.0
H1536 H 0.09773 0.66146 0.2721 0.0
H1537 H 0.12042 0.57759 0.30065 0.0
H1538 H 0.01544 0.56199 0.41819 0.0
H1539 H 0.02578 0.58099 0.37349 0.0
C1540 C 0.30143 0.14799 0.28451 0.0
C1541 C 0.30141 0.17597 0.2965 0.0
C1542 C 0.31935 0.12958 0.2945 0.0
C1543 C 0.34631 0.08829 0.32971 0.0
H1544 H 0.41885 0.12278 0.36154 0.0
C1545 C 0.4021 0.03387 0.41276 0.0
C1546 C 0.43115 0.0422 0.41738 0.0
C1547 C 0.38849 0.04521 0.39124 0.0
C1548 C 0.39898 0.11251 0.3522 0.0
H1549 H 0.31994 0.20644 0.32852 0.0
H1550 H 0.35048 0.17398 0.34653 0.0
H1551 H 0.39121 0.15371 0.3373 0.0
H1552 H 0.46922 0.06575 0.40117 0.0
H1553 H 0.44563 0.08458 0.36298 0.0
H1554 H 0.35427 0.04699 0.34441 0.0
C1555 C 0.33727 0.16655 0.32891 0.0
C1556 C 0.38286 0.13045 0.33873 0.0
C1557 C 0.31957 0.18509 0.31875 0.0
C1558 C 0.44672 0.05939 0.39841 0.0
C1559 C 0.43316 0.07036 0.37663 0.0
C1560 C 0.36261 0.07023 0.34294 0.0
C1561 C 0.33746 0.13861 0.31685 0.0
C1562 C 0.35594 0.11878 0.32812 0.0
C1563 C 0.40373 0.06474 0.37366 0.0
C1564 C 0.38876 0.08231 0.35513 0.0
H1565 H 0.28786 0.14041 0.26715 0.0
H1566 H 0.31919 0.10839 0.28452 0.0
H1567 H 0.32566 0.07853 0.3218 0.0
H1568 H 0.38949 0.02054 0.42694 0.0
H1569 H 0.36582 0.04042 0.38975 0.0
C1570 C 0.66592 0.83073 0.72847 0.0
C1571 C 0.68405 0.81673 0.71316 0.0
C1572 C 0.6491 0.84896 0.71622 0.0
C1573 C 0.6119 0.85503 0.65442 0.0
H1574 H 0.61394 0.93843 0.67025 0.0
C1575 C 0.5812 0.95317 0.59128 0.0
C1576 C 0.55492 0.93898 0.58087 0.0
C1577 C 0.59346 0.94242 0.61399 0.0
C1578 C 0.613 0.91509 0.66592 0.0
H1579 H 0.69924 0.81131 0.67324 0.0
H1580 H 0.66922 0.84249 0.65181 0.0
H1581 H 0.64418 0.91065 0.69668 0.0
H1582 H 0.51944 0.90474 0.58803 0.0
H1583 H 0.54073 0.88639 0.62762 0.0
H1584 H 0.58143 0.85912 0.62346 0.0
C1585 C 0.66834 0.83954 0.67328 0.0
C1586 C 0.63017 0.8993 0.68097 0.0
C1587 C 0.68548 0.82177 0.68555 0.0
C1588 C 0.53993 0.91591 0.59521 0.0
C1589 C 0.55208 0.90535 0.61792 0.0
C1590 C 0.59453 0.87056 0.63976 0.0
C1591 C 0.64985 0.85296 0.68848 0.0
C1592 C 0.63012 0.86935 0.67481 0.0
C1593 C 0.57954 0.91744 0.62659 0.0
C1594 C 0.59525 0.90084 0.64502 0.0
H1595 H 0.66456 0.82742 0.74985 0.0
H1596 H 0.63484 0.8591 0.7282 0.0
H1597 H 0.61152 0.83188 0.6495 0.0
H1598 H 0.59318 0.97118 0.58084 0.0
H1599 H 0.6147 0.95212 0.62028 0.0
C1600 C 0.66961 0.15504 0.2902 0.0
C1601 C 0.67995 0.18338 0.30084 0.0
C1602 C 0.64719 0.13741 0.3019 0.0
C1603 C 0.60988 0.13139 0.36582 0.0
H1604 H 0.56006 0.0691 0.32613 0.0
C1605 C 0.55002 0.0184 0.39996 0.0
C1606 C 0.53434 0.02798 0.42052 0.0
C1607 C 0.56003 0.03766 0.3799 0.0
C1608 C 0.57367 0.08667 0.33727 0.0
H1609 H 0.67429 0.21645 0.33078 0.0
H1610 H 0.63414 0.18661 0.35025 0.0
H1611 H 0.59331 0.10413 0.30199 0.0
H1612 H 0.51618 0.06459 0.436 0.0
H1613 H 0.53355 0.09817 0.40098 0.0
H1614 H 0.59003 0.11408 0.40097 0.0
C1615 C 0.64404 0.17714 0.33382 0.0
C1616 C 0.59292 0.10653 0.3236 0.0
C1617 C 0.66698 0.19435 0.32265 0.0
C1618 C 0.52723 0.05632 0.4198 0.0
C1619 C 0.53745 0.07564 0.39997 0.0
C1620 C 0.59027 0.11209 0.37929 0.0
C1621 C 0.63419 0.14817 0.324 0.0
C1622 C 0.61171 0.12877 0.33781 0.0
C1623 C 0.55491 0.06683 0.3806 0.0
C1624 C 0.57239 0.0893 0.36522 0.0
H1625 H 0.67936 0.14621 0.27331 0.0
H1626 H 0.64064 0.11511 0.29403 0.0
H1627 H 0.62434 0.14756 0.37767 0.0
H1628 H 0.55599 -0.00329 0.40038 0.0
H1629 H 0.57379 0.0306 0.36531 0.0
C1630 C 0.83228 0.67936 0.29813 0.0
C1631 C 0.83961 0.70738 0.28723 0.0
C1632 C 0.85299 0.66419 0.308 0.0
C1633 C 0.9217 0.67693 0.34012 0.0
H1634 H 0.91785 0.5927 0.32798 0.0
C1635 C 0.98278 0.61262 0.41072 0.0
C1636 C 0.96604 0.58755 0.42071 0.0
C1637 C 0.97437 0.62552 0.38733 0.0
C1638 C 0.91927 0.61623 0.33157 0.0
H1639 H 0.8744 0.74136 0.27786 0.0
H1640 H 0.91064 0.71503 0.29595 0.0
H1641 H 0.88835 0.61952 0.30045 0.0
H1642 H 0.92869 0.55483 0.41261 0.0
H1643 H 0.91362 0.57769 0.37271 0.0
H1644 H 0.9509 0.67355 0.37246 0.0
C1645 C 0.88884 0.7048 0.29648 0.0
C1646 C 0.90246 0.63155 0.31575 0.0
C1647 C 0.86812 0.71981 0.28618 0.0
C1648 C 0.94198 0.5743 0.40566 0.0
C1649 C 0.93344 0.58733 0.38251 0.0
C1650 C 0.93824 0.66157 0.35618 0.0
C1651 C 0.88142 0.67688 0.30752 0.0
C1652 C 0.90283 0.66182 0.32054 0.0
C1653 C 0.94892 0.61377 0.37364 0.0
C1654 C 0.93642 0.63081 0.35278 0.0
H1655 H 0.81052 0.66909 0.29904 0.0
H1656 H 0.84669 0.64288 0.31678 0.0
H1657 H 0.92226 0.70025 0.3443 0.0
H1658 H 0.00175 0.62305 0.42155 0.0
H1659 H 0.98716 0.64545 0.38068 0.0
C1660 C 0.28459 0.78078 0.36141 0.0
C1661 C 0.26767 0.79315 0.34294 0.0
C1662 C 0.29337 0.79572 0.38581 0.0
C1663 C 0.31172 0.87185 0.40713 0.0
H1664 H 0.33014 0.84081 0.47584 0.0
C1665 C 0.39823 0.93826 0.47355 0.0
C1666 C 0.41806 0.9213 0.48272 0.0
C1667 C 0.37131 0.92451 0.46491 0.0
C1668 C 0.32514 0.84987 0.45677 0.0
H1669 H 0.24369 0.82848 0.33662 0.0
H1670 H 0.25873 0.85421 0.37913 0.0
H1671 H 0.29759 0.81003 0.44409 0.0
H1672 H 0.42426 0.87689 0.49244 0.0
H1673 H 0.3785 0.85314 0.47633 0.0
H1674 H 0.3408 0.91049 0.41827 0.0
C1675 C 0.2658 0.83354 0.37465 0.0
C1676 C 0.30642 0.83224 0.43869 0.0
C1677 C 0.25729 0.81885 0.35032 0.0
C1678 C 0.40972 0.89071 0.48507 0.0
C1679 C 0.3831 0.87699 0.47614 0.0
C1680 C 0.33072 0.88921 0.4249 0.0
C1681 C 0.28509 0.82299 0.39197 0.0
C1682 C 0.30029 0.84278 0.41337 0.0
C1683 C 0.36389 0.89353 0.46491 0.0
C1684 C 0.33861 0.87803 0.44951 0.0
H1685 H 0.29273 0.76092 0.35617 0.0
H1686 H 0.30835 0.78715 0.3988 0.0
H1687 H 0.30765 0.88049 0.38761 0.0
H1688 H 0.40382 0.9619 0.47183 0.0
H1689 H 0.3568 0.93806 0.45702 0.0
C1690 C 0.20457 0.28447 0.36067 0.0
C1691 C 0.22879 0.29459 0.34668 0.0
C1692 C 0.19663 0.30133 0.38165 0.0
C1693 C 0.20014 0.37836 0.40033 0.0
H1694 H 0.15729 0.3452 0.45991 0.0
C1695 C 0.13205 0.44484 0.46313 0.0
C1696 C 0.10456 0.43002 0.46643 0.0
C1697 C 0.15251 0.42973 0.4532 0.0
C1698 C 0.16927 0.3548 0.44341 0.0
H1699 H 0.26476 0.32932 0.34466 0.0
H1700 H 0.25067 0.35929 0.38155 0.0
H1701 H 0.18627 0.31543 0.43591 0.0
H1702 H 0.07717 0.38759 0.46208 0.0
H1703 H 0.11276 0.36138 0.44472 0.0
H1704 H 0.18223 0.41733 0.40718 0.0
C1705 C 0.23787 0.33821 0.37616 0.0
C1706 C 0.18593 0.33782 0.42974 0.0
C1707 C 0.24604 0.32101 0.35525 0.0
C1708 C 0.09807 0.39974 0.45975 0.0
C1709 C 0.11856 0.38462 0.45005 0.0
C1710 C 0.18355 0.39541 0.41409 0.0
C1711 C 0.2126 0.32891 0.38901 0.0
C1712 C 0.20065 0.34899 0.40737 0.0
C1713 C 0.14598 0.39944 0.44665 0.0
C1714 C 0.16712 0.38337 0.43509 0.0
H1715 H 0.19095 0.26409 0.3545 0.0
H1716 H 0.17691 0.29361 0.39085 0.0
H1717 H 0.21099 0.38752 0.38302 0.0
H1718 H 0.13778 0.46817 0.4681 0.0
H1719 H 0.17348 0.44169 0.4508 0.0
C1720 C 0.30141 0.23626 0.64409 0.0
C1721 C 0.31791 0.25425 0.66381 0.0
C1722 C 0.31372 0.21897 0.62615 0.0
C1723 C 0.37778 0.18525 0.62237 0.0
H1724 H 0.34738 0.15959 0.55115 0.0
C1725 C 0.43351 0.11783 0.55007 0.0
C1726 C 0.41766 0.092 0.53831 0.0
C1727 C 0.4206 0.13789 0.5643 0.0
C1728 C 0.35586 0.16644 0.57111 0.0
H1729 H 0.36051 0.27041 0.67841 0.0
H1730 H 0.38215 0.2414 0.64626 0.0
H1731 H 0.32773 0.19735 0.57597 0.0
H1732 H 0.37572 0.06708 0.53209 0.0
H1733 H 0.35288 0.10284 0.55681 0.0
H1734 H 0.40633 0.15485 0.61716 0.0
C1735 C 0.35955 0.2396 0.6454 0.0
C1736 C 0.34468 0.18806 0.58535 0.0
C1737 C 0.34719 0.25654 0.66365 0.0
C1738 C 0.38846 0.08674 0.54101 0.0
C1739 C 0.37541 0.10722 0.55497 0.0
C1740 C 0.38916 0.16402 0.60801 0.0
C1741 C 0.34288 0.21959 0.62723 0.0
C1742 C 0.35551 0.19776 0.61121 0.0
C1743 C 0.39148 0.13285 0.56686 0.0
C1744 C 0.37833 0.15441 0.58228 0.0
H1745 H 0.27875 0.23383 0.64369 0.0
H1746 H 0.30011 0.2038 0.61261 0.0
H1747 H 0.38619 0.1914 0.64248 0.0
H1748 H 0.45607 0.12253 0.54852 0.0
H1749 H 0.43343 0.15756 0.57313 0.0
C1750 C 0.84129 0.33071 0.68273 0.0
C1751 C 0.82747 0.33834 0.70547 0.0
C1752 C 0.8653 0.34887 0.67462 0.0
C1753 C 0.92047 0.38598 0.66373 0.0
H1754 H 0.91076 0.46776 0.65955 0.0
C1755 C 0.97847 0.46491 0.58768 0.0
C1756 C 0.95913 0.47729 0.57174 0.0
C1757 C 0.9704 0.45142 0.61173 0.0
C1758 C 0.91406 0.44509 0.66092 0.0
H1759 H 0.82881 0.37033 0.73835 0.0
H1760 H 0.87101 0.40208 0.72421 0.0
H1761 H 0.88129 0.43505 0.68836 0.0
H1762 H 0.91637 0.48612 0.56913 0.0
H1763 H 0.90245 0.46277 0.61045 0.0
H1764 H 0.9514 0.39557 0.63415 0.0
C1765 C 0.86297 0.38221 0.71244 0.0
C1766 C 0.89733 0.42635 0.67763 0.0
C1767 C 0.83874 0.36409 0.72047 0.0
C1768 C 0.93187 0.4767 0.58072 0.0
C1769 C 0.92394 0.46362 0.60469 0.0
C1770 C 0.93704 0.40471 0.6468 0.0
C1771 C 0.87626 0.37503 0.68917 0.0
C1772 C 0.89919 0.39618 0.67795 0.0
C1773 C 0.94298 0.45065 0.62038 0.0
C1774 C 0.9327 0.43394 0.64404 0.0
H1775 H 0.83322 0.31099 0.67075 0.0
H1776 H 0.87453 0.34295 0.65624 0.0
H1777 H 0.92294 0.363 0.66418 0.0
H1778 H -0.00031 0.46545 0.58153 0.0
H1779 H 0.98546 0.44148 0.62344 0.0
C1780 C 0.26657 0.68116 0.65579 0.0
C1781 C 0.25656 0.67387 0.68125 0.0
C1782 C 0.2542 0.66509 0.63297 0.0
C1783 C 0.20026 0.59947 0.6116 0.0
H1784 H 0.17632 0.65335 0.56043 0.0
C1785 C 0.10286 0.56187 0.5432 0.0
C1786 C 0.08479 0.58246 0.53886 0.0
C1787 C 0.13009 0.57081 0.55374 0.0
C1788 C 0.18264 0.63797 0.5746 0.0
H1789 H 0.22801 0.64298 0.70342 0.0
H1790 H 0.20665 0.61506 0.66425 0.0
H1791 H 0.21515 0.67078 0.59206 0.0
H1792 H 0.08146 0.62887 0.54253 0.0
H1793 H 0.12808 0.64415 0.56277 0.0
H1794 H 0.16613 0.56756 0.59635 0.0
C1795 C 0.22397 0.63276 0.66136 0.0
C1796 C 0.20539 0.64783 0.59242 0.0
C1797 C 0.23611 0.64884 0.68392 0.0
C1798 C 0.09478 0.61232 0.54541 0.0
C1799 C 0.12181 0.62119 0.55673 0.0
C1800 C 0.17719 0.5898 0.59423 0.0
C1801 C 0.23185 0.64151 0.63549 0.0
C1802 C 0.2136 0.62905 0.61199 0.0
C1803 C 0.13979 0.60047 0.56132 0.0
C1804 C 0.1673 0.60927 0.57623 0.0
H1805 H 0.28219 0.70062 0.65334 0.0
H1806 H 0.26098 0.67216 0.61335 0.0
H1807 H 0.20644 0.58421 0.62599 0.0
H1808 H 0.09603 0.5387 0.53906 0.0
H1809 H 0.1433 0.55417 0.55641 0.0
loop_
_geom_bond_atom_site_label_1
_geom_bond_atom_site_label_2
_geom_bond_distance
_geom_bond_site_symmetry_2
_ccdc_geom_bond_type
O0 Zn1 1.953 . S
O0 C16 1.225 . S
Zn1 O0 1.953 . S
Zn1 O2 1.949 . S
Zn1 O8 1.919 . S
Zn1 O13 1.924 . S
O2 Zn1 1.949 . S
O2 Zn3 1.923 . S
O2 Zn4 1.950 . S
O2 Zn5 1.945 . S
Zn3 O2 1.923 . S
Zn3 O6 1.933 . S
Zn3 O9 1.941 . S
Zn3 O10 1.965 . S
Zn4 O2 1.950 . S
Zn4 O11 1.938 . S
Zn4 O12 1.906 . S
Zn4 O22 1.953 . S
Zn5 O2 1.945 . S
Zn5 O7 1.932 . S
Zn5 O14 1.977 . S
Zn5 O15 1.910 . S
O6 Zn3 1.933 . S
O6 C17 1.226 . S
O7 Zn5 1.932 . S
O7 C17 1.307 . S
O8 Zn1 1.919 . S
O8 C19 1.253 . S
O9 Zn3 1.941 . S
O9 C19 1.283 . S
O10 Zn3 1.965 . S
O10 C18 1.303 . S
O11 Zn4 1.938 . S
O11 C18 1.247 . S
O12 Zn4 1.906 . S
O12 C20 1.304 . S
O13 Zn1 1.924 . S
O13 C21 1.311 . S
O14 Zn5 1.977 . S
O14 C20 1.272 . S
O15 Zn5 1.910 . S
O15 C21 1.231 . S
C16 O0 1.225 . S
C16 O22 1.298 . S
C17 O6 1.226 . S
C17 O7 1.307 . S
C18 O10 1.303 . S
C18 O11 1.247 . S
C19 O8 1.253 . S
C19 O9 1.283 . S
C20 O12 1.304 . S
C20 O14 1.272 . S
C21 O13 1.311 . S
C21 O15 1.231 . S
O22 Zn4 1.953 . S
O22 C16 1.298 . S
O23 Zn24 1.953 . S
O23 C39 1.225 . S
Zn24 O23 1.953 . S
Zn24 O25 1.949 . S
Zn24 O31 1.919 . S
Zn24 O36 1.924 . S
O25 Zn24 1.949 . S
O25 Zn26 1.923 . S
O25 Zn27 1.950 . S
O25 Zn28 1.945 . S
Zn26 O25 1.923 . S
Zn26 O29 1.933 . S
Zn26 O32 1.941 . S
Zn26 O33 1.965 . S
Zn27 O25 1.950 . S
Zn27 O34 1.938 . S
Zn27 O35 1.906 . S
Zn27 O45 1.953 . S
Zn28 O25 1.945 . S
Zn28 O30 1.932 . S
Zn28 O37 1.977 . S
Zn28 O38 1.910 . S
O29 Zn26 1.933 . S
O29 C40 1.226 . S
O30 Zn28 1.932 . S
O30 C40 1.307 . S
O31 Zn24 1.919 . S
O31 C42 1.253 . S
O32 Zn26 1.941 . S
O32 C42 1.283 . S
O33 Zn26 1.965 . S
O33 C41 1.303 . S
O34 Zn27 1.938 . S
O34 C41 1.247 . S
O35 Zn27 1.906 . S
O35 C43 1.304 . S
O36 Zn24 1.924 . S
O36 C44 1.311 . S
O37 Zn28 1.977 . S
O37 C43 1.272 . S
O38 Zn28 1.910 . S
O38 C44 1.231 . S
C39 O23 1.225 . S
C39 O45 1.298 . S
C40 O29 1.226 . S
C40 O30 1.307 . S
C41 O33 1.303 . S
C41 O34 1.247 . S
C42 O31 1.253 . S
C42 O32 1.283 . S
C43 O35 1.304 . S
C43 O37 1.272 . S
C44 O36 1.311 . S
C44 O38 1.231 . S
O45 Zn27 1.953 . S
O45 C39 1.298 . S
O46 Zn47 1.953 . S
O46 C62 1.225 . S
Zn47 O46 1.953 . S
Zn47 O48 1.949 . S
Zn47 O54 1.919 . S
Zn47 O59 1.924 . S
O48 Zn47 1.949 . S
O48 Zn49 1.923 . S
O48 Zn50 1.950 . S
O48 Zn51 1.945 . S
Zn49 O48 1.923 . S
Zn49 O52 1.933 . S
Zn49 O55 1.941 . S
Zn49 O56 1.965 . S
Zn50 O48 1.950 . S
Zn50 O57 1.938 . S
Zn50 O58 1.906 . S
Zn50 O68 1.953 . S
Zn51 O48 1.945 . S
Zn51 O53 1.932 . S
Zn51 O60 1.977 . S
Zn51 O61 1.910 . S
O52 Zn49 1.933 . S
O52 C63 1.226 . S
O53 Zn51 1.932 . S
O53 C63 1.307 . S
O54 Zn47 1.919 . S
O54 C65 1.253 . S
O55 Zn49 1.941 . S
O55 C65 1.283 . S
O56 Zn49 1.965 . S
O56 C64 1.303 . S
O57 Zn50 1.938 . S
O57 C64 1.247 . S
O58 Zn50 1.906 . S
O58 C66 1.304 . S
O59 Zn47 1.924 . S
O59 C67 1.311 . S
O60 Zn51 1.977 . S
O60 C66 1.272 . S
O61 Zn51 1.910 . S
O61 C67 1.231 . S
C62 O46 1.225 . S
C62 O68 1.298 . S
C63 O52 1.226 . S
C63 O53 1.307 . S
C64 O56 1.303 . S
C64 O57 1.247 . S
C65 O54 1.253 . S
C65 O55 1.283 . S
C66 O58 1.304 . S
C66 O60 1.272 . S
C67 O59 1.311 . S
C67 O61 1.231 . S
O68 Zn50 1.953 . S
O68 C62 1.298 . S
O69 Zn70 1.953 . S
O69 C85 1.225 . S
Zn70 O69 1.953 . S
Zn70 O71 1.949 . S
Zn70 O77 1.919 . S
Zn70 O82 1.924 . S
O71 Zn70 1.949 . S
O71 Zn72 1.923 . S
O71 Zn73 1.950 . S
O71 Zn74 1.945 . S
Zn72 O71 1.923 . S
Zn72 O75 1.933 . S
Zn72 O78 1.941 . S
Zn72 O79 1.965 . S
Zn73 O71 1.950 . S
Zn73 O80 1.938 . S
Zn73 O81 1.906 . S
Zn73 O91 1.953 . S
Zn74 O71 1.945 . S
Zn74 O76 1.932 . S
Zn74 O83 1.977 . S
Zn74 O84 1.910 . S
O75 Zn72 1.933 . S
O75 C86 1.226 . S
O76 Zn74 1.932 . S
O76 C86 1.307 . S
O77 Zn70 1.919 . S
O77 C88 1.253 . S
O78 Zn72 1.941 . S
O78 C88 1.283 . S
O79 Zn72 1.965 . S
O79 C87 1.303 . S
O80 Zn73 1.938 . S
O80 C87 1.247 . S
O81 Zn73 1.906 . S
O81 C89 1.304 . S
O82 Zn70 1.924 . S
O82 C90 1.311 . S
O83 Zn74 1.977 . S
O83 C89 1.272 . S
O84 Zn74 1.910 . S
O84 C90 1.231 . S
C85 O69 1.225 . S
C85 O91 1.298 . S
C86 O75 1.226 . S
C86 O76 1.307 . S
C87 O79 1.303 . S
C87 O80 1.247 . S
C88 O77 1.253 . S
C88 O78 1.283 . S
C89 O81 1.304 . S
C89 O83 1.272 . S
C90 O82 1.311 . S
C90 O84 1.231 . S
O91 Zn73 1.953 . S
O91 C85 1.298 . S
O92 Zn93 1.953 . S
O92 C108 1.225 . S
Zn93 O92 1.953 . S
Zn93 O94 1.949 . S
Zn93 O100 1.919 . S
Zn93 O105 1.924 . S
O94 Zn93 1.949 . S
O94 Zn95 1.923 . S
O94 Zn96 1.950 . S
O94 Zn97 1.945 . S
Zn95 O94 1.923 . S
Zn95 O98 1.933 . S
Zn95 O101 1.941 . S
Zn95 O102 1.965 . S
Zn96 O94 1.950 . S
Zn96 O103 1.938 . S
Zn96 O104 1.906 . S
Zn96 O114 1.953 . S
Zn97 O94 1.945 . S
Zn97 O99 1.932 . S
Zn97 O106 1.977 . S
Zn97 O107 1.910 . S
O98 Zn95 1.933 . S
O98 C109 1.226 . S
O99 Zn97 1.932 . S
O99 C109 1.307 . S
O100 Zn93 1.919 . S
O100 C111 1.253 . S
O101 Zn95 1.941 . S
O101 C111 1.283 . S
O102 Zn95 1.965 . S
O102 C110 1.303 . S
O103 Zn96 1.938 . S
O103 C110 1.247 . S
O104 Zn96 1.906 . S
O104 C112 1.304 . S
O105 Zn93 1.924 . S
O105 C113 1.311 . S
O106 Zn97 1.977 . S
O106 C112 1.272 . S
O107 Zn97 1.910 . S
O107 C113 1.231 . S
C108 O92 1.225 . S
C108 O114 1.298 . S
C109 O98 1.226 . S
C109 O99 1.307 . S
C110 O102 1.303 . S
C110 O103 1.247 . S
C111 O100 1.253 . S
C111 O101 1.283 . S
C112 O104 1.304 . S
C112 O106 1.272 . S
C113 O105 1.311 . S
C113 O107 1.231 . S
O114 Zn96 1.953 . S
O114 C108 1.298 . S
O115 Zn116 1.953 . S
O115 C131 1.225 . S
Zn116 O115 1.953 . S
Zn116 O117 1.949 . S
Zn116 O123 1.919 . S
Zn116 O128 1.924 . S
O117 Zn116 1.949 . S
O117 Zn118 1.923 . S
O117 Zn119 1.950 . S
O117 Zn120 1.945 . S
Zn118 O117 1.923 . S
Zn118 O121 1.933 . S
Zn118 O124 1.941 . S
Zn118 O125 1.965 . S
Zn119 O117 1.950 . S
Zn119 O126 1.938 . S
Zn119 O127 1.906 . S
Zn119 O137 1.953 . S
Zn120 O117 1.945 . S
Zn120 O122 1.932 . S
Zn120 O129 1.977 . S
Zn120 O130 1.910 . S
O121 Zn118 1.933 . S
O121 C132 1.226 . S
O122 Zn120 1.932 . S
O122 C132 1.307 . S
O123 Zn116 1.919 . S
O123 C134 1.253 . S
O124 Zn118 1.941 . S
O124 C134 1.283 . S
O125 Zn118 1.965 . S
O125 C133 1.303 . S
O126 Zn119 1.938 . S
O126 C133 1.247 . S
O127 Zn119 1.906 . S
O127 C135 1.304 . S
O128 Zn116 1.924 . S
O128 C136 1.311 . S
O129 Zn120 1.977 . S
O129 C135 1.272 . S
O130 Zn120 1.910 . S
O130 C136 1.231 . S
C131 O115 1.225 . S
C131 O137 1.298 . S
C132 O121 1.226 . S
C132 O122 1.307 . S
C133 O125 1.303 . S
C133 O126 1.247 . S
C134 O123 1.253 . S
C134 O124 1.283 . S
C135 O127 1.304 . S
C135 O129 1.272 . S
C136 O128 1.311 . S
C136 O130 1.231 . S
O137 Zn119 1.953 . S
O137 C131 1.298 . S
O138 Zn139 1.953 . S
O138 C154 1.225 . S
Zn139 O138 1.953 . S
Zn139 O140 1.949 . S
Zn139 O146 1.919 . S
Zn139 O151 1.924 . S
O140 Zn139 1.949 . S
O140 Zn141 1.923 . S
O140 Zn142 1.950 . S
O140 Zn143 1.945 . S
Zn141 O140 1.923 . S
Zn141 O144 1.933 . S
Zn141 O147 1.941 . S
Zn141 O148 1.965 . S
Zn142 O140 1.950 . S
Zn142 O149 1.938 . S
Zn142 O150 1.906 . S
Zn142 O160 1.953 . S
Zn143 O140 1.945 . S
Zn143 O145 1.932 . S
Zn143 O152 1.977 . S
Zn143 O153 1.910 . S
O144 Zn141 1.933 . S
O144 C155 1.226 . S
O145 Zn143 1.932 . S
O145 C155 1.307 . S
O146 Zn139 1.919 . S
O146 C157 1.253 . S
O147 Zn141 1.941 . S
O147 C157 1.283 . S
O148 Zn141 1.965 . S
O148 C156 1.303 . S
O149 Zn142 1.938 . S
O149 C156 1.247 . S
O150 Zn142 1.906 . S
O150 C158 1.304 . S
O151 Zn139 1.924 . S
O151 C159 1.311 . S
O152 Zn143 1.977 . S
O152 C158 1.272 . S
O153 Zn143 1.910 . S
O153 C159 1.231 . S
C154 O138 1.225 . S
C154 O160 1.298 . S
C155 O144 1.226 . S
C155 O145 1.307 . S
C156 O148 1.303 . S
C156 O149 1.247 . S
C157 O146 1.253 . S
C157 O147 1.283 . S
C158 O150 1.304 . S
C158 O152 1.272 . S
C159 O151 1.311 . S
C159 O153 1.231 . S
O160 Zn142 1.953 . S
O160 C154 1.298 . S
O161 Zn162 1.953 . S
O161 C177 1.225 . S
Zn162 O161 1.953 . S
Zn162 O163 1.949 . S
Zn162 O169 1.919 . S
Zn162 O174 1.924 . S
O163 Zn162 1.949 . S
O163 Zn164 1.923 . S
O163 Zn165 1.950 . S
O163 Zn166 1.945 . S
Zn164 O163 1.923 . S
Zn164 O167 1.933 . S
Zn164 O170 1.941 . S
Zn164 O171 1.965 . S
Zn165 O163 1.950 . S
Zn165 O172 1.938 . S
Zn165 O173 1.906 . S
Zn165 O183 1.953 . S
Zn166 O163 1.945 . S
Zn166 O168 1.932 . S
Zn166 O175 1.977 . S
Zn166 O176 1.910 . S
O167 Zn164 1.933 . S
O167 C178 1.226 . S
O168 Zn166 1.932 . S
O168 C178 1.307 . S
O169 Zn162 1.919 . S
O169 C180 1.253 . S
O170 Zn164 1.941 . S
O170 C180 1.283 . S
O171 Zn164 1.965 . S
O171 C179 1.303 . S
O172 Zn165 1.938 . S
O172 C179 1.247 . S
O173 Zn165 1.906 . S
O173 C181 1.304 . S
O174 Zn162 1.924 . S
O174 C182 1.311 . S
O175 Zn166 1.977 . S
O175 C181 1.272 . S
O176 Zn166 1.910 . S
O176 C182 1.231 . S
C177 O161 1.225 . S
C177 O183 1.298 . S
C178 O167 1.226 . S
C178 O168 1.307 . S
C179 O171 1.303 . S
C179 O172 1.247 . S
C180 O169 1.253 . S
C180 O170 1.283 . S
C181 O173 1.304 . S
C181 O175 1.272 . S
C182 O174 1.311 . S
C182 O176 1.231 . S
O183 Zn165 1.953 . S
O183 C177 1.298 . S
C184 O196 1.241 . S
C184 O197 1.280 . S
C185 O198 1.277 . S
C185 O199 1.245 . S
C186 O210 1.247 . S
C186 O212 1.289 . S
Mg187 O188 1.926 . S
Mg187 O197 1.984 . S
Mg187 O199 1.988 . S
Mg187 O200 2.061 1_655 S
O188 Mg187 1.926 . S
O188 Mg189 1.986 . S
O188 Mg190 1.917 1_655 S
Mg189 O188 1.986 . S
Mg189 O196 2.042 . S
Mg189 O198 2.041 . S
Mg189 O204 2.038 1_545 S
Mg189 O212 2.238 1_545 S
Mg190 O188 1.917 1_455 S
Mg190 O191 1.917 1_545 S
Mg190 O201 2.106 . S
Mg190 O203 2.079 1_445 S
Mg190 O212 2.106 1_445 S
Mg190 O213 2.079 . S
O191 Mg190 1.917 1_565 S
O191 Mg192 1.926 . S
O191 Mg193 1.986 1_565 S
Mg192 O191 1.926 . S
Mg192 O206 1.984 . S
Mg192 O209 1.988 . S
Mg192 O210 2.061 1_455 S
Mg193 O191 1.986 1_545 S
Mg193 O201 2.238 . S
Mg193 O205 2.042 1_545 S
Mg193 O207 2.041 1_545 S
Mg193 O214 2.038 . S
C194 O200 1.247 . S
C194 O201 1.289 . S
C195 O213 1.245 . S
C195 O214 1.274 . S
O196 C184 1.241 . S
O196 Mg189 2.042 . S
O197 C184 1.280 . S
O197 Mg187 1.984 . S
O198 C185 1.277 . S
O198 Mg189 2.041 . S
O199 C185 1.245 . S
O199 Mg187 1.988 . S
O200 Mg187 2.061 1_455 S
O200 C194 1.247 . S
O201 Mg190 2.106 . S
O201 Mg193 2.238 . S
O201 C194 1.289 . S
C202 O203 1.245 . S
C202 O204 1.274 . S
O203 Mg190 2.079 1_665 S
O203 C202 1.245 . S
O204 Mg189 2.038 1_565 S
O204 C202 1.274 . S
O205 Mg193 2.042 1_565 S
O205 C208 1.241 . S
O206 Mg192 1.984 . S
O206 C208 1.280 . S
O207 Mg193 2.041 1_565 S
O207 C211 1.277 . S
C208 O205 1.241 . S
C208 O206 1.280 . S
O209 Mg192 1.988 . S
O209 C211 1.245 . S
O210 C186 1.247 . S
O210 Mg192 2.061 1_655 S
C211 O207 1.277 . S
C211 O209 1.245 . S
O212 C186 1.289 . S
O212 Mg189 2.238 1_565 S
O212 Mg190 2.106 1_665 S
O213 Mg190 2.079 . S
O213 C195 1.245 . S
O214 Mg193 2.038 . S
O214 C195 1.274 . S
C215 O227 1.241 . S
C215 O228 1.280 . S
C216 O229 1.277 . S
C216 O230 1.245 . S
C217 O241 1.247 . S
C217 O243 1.289 . S
Mg218 O219 1.926 . S
Mg218 O228 1.984 . S
Mg218 O230 1.988 1_554 S
Mg218 O231 2.061 . S
O219 Mg218 1.926 . S
O219 Mg220 1.986 . S
O219 Mg221 1.917 . S
Mg220 O219 1.986 . S
Mg220 O227 2.042 . S
Mg220 O229 2.041 1_554 S
Mg220 O235 2.038 1_545 S
Mg220 O243 2.238 1_544 S
Mg221 O219 1.917 . S
Mg221 O222 1.917 1_545 S
Mg221 O232 2.106 . S
Mg221 O234 2.079 1_545 S
Mg221 O243 2.106 1_544 S
Mg221 O244 2.079 1_554 S
O222 Mg221 1.917 1_565 S
O222 Mg223 1.926 . S
O222 Mg224 1.986 . S
Mg223 O222 1.926 . S
Mg223 O237 1.984 1_554 S
Mg223 O240 1.988 . S
Mg223 O241 2.061 1_554 S
Mg224 O222 1.986 . S
Mg224 O232 2.238 1_565 S
Mg224 O236 2.042 1_554 S
Mg224 O238 2.041 . S
Mg224 O245 2.038 1_564 S
C225 O231 1.247 . S
C225 O232 1.289 . S
C226 O244 1.245 . S
C226 O245 1.274 . S
O227 C215 1.241 . S
O227 Mg220 2.042 . S
O228 C215 1.280 . S
O228 Mg218 1.984 . S
O229 C216 1.277 . S
O229 Mg220 2.041 1_556 S
O230 C216 1.245 . S
O230 Mg218 1.988 1_556 S
O231 Mg218 2.061 . S
O231 C225 1.247 . S
O232 Mg221 2.106 . S
O232 Mg224 2.238 1_545 S
O232 C225 1.289 . S
C233 O234 1.245 . S
C233 O235 1.274 . S
O234 Mg221 2.079 1_565 S
O234 C233 1.245 . S
O235 Mg220 2.038 1_565 S
O235 C233 1.274 . S
O236 Mg224 2.042 1_556 S
O236 C239 1.241 . S
O237 Mg223 1.984 1_556 S
O237 C239 1.280 . S
O238 Mg224 2.041 . S
O238 C242 1.277 . S
C239 O236 1.241 . S
C239 O237 1.280 . S
O240 Mg223 1.988 . S
O240 C242 1.245 . S
O241 C217 1.247 . S
O241 Mg223 2.061 1_556 S
C242 O238 1.277 . S
C242 O240 1.245 . S
O243 C217 1.289 . S
O243 Mg220 2.238 1_566 S
O243 Mg221 2.106 1_566 S
O244 Mg221 2.079 1_556 S
O244 C226 1.245 . S
O245 Mg224 2.038 1_546 S
O245 C226 1.274 . S
C246 O258 1.241 . S
C246 O259 1.280 . S
C247 O260 1.277 . S
C247 O261 1.245 . S
C248 O272 1.247 . S
C248 O274 1.289 . S
Mg249 O250 1.926 . S
Mg249 O259 1.984 . S
Mg249 O261 1.988 1_554 S
Mg249 O262 2.061 1_655 S
O250 Mg249 1.926 . S
O250 Mg251 1.986 . S
O250 Mg252 1.917 1_655 S
Mg251 O250 1.986 . S
Mg251 O258 2.042 . S
Mg251 O260 2.041 1_554 S
Mg251 O266 2.038 . S
Mg251 O274 2.238 1_554 S
Mg252 O250 1.917 1_455 S
Mg252 O253 1.917 1_554 S
Mg252 O263 2.106 . S
Mg252 O265 2.079 1_455 S
Mg252 O274 2.106 1_454 S
Mg252 O275 2.079 1_554 S
O253 Mg252 1.917 1_556 S
O253 Mg254 1.926 . S
O253 Mg255 1.986 1_556 S
Mg254 O253 1.926 . S
Mg254 O268 1.984 . S
Mg254 O271 1.988 1_556 S
Mg254 O272 2.061 1_455 S
Mg255 O253 1.986 1_554 S
Mg255 O263 2.238 . S
Mg255 O267 2.042 1_554 S
Mg255 O269 2.041 . S
Mg255 O276 2.038 1_554 S
C256 O262 1.247 . S
C256 O263 1.289 . S
C257 O275 1.245 . S
C257 O276 1.274 . S
O258 C246 1.241 . S
O258 Mg251 2.042 . S
O259 C246 1.280 . S
O259 Mg249 1.984 . S
O260 C247 1.277 . S
O260 Mg251 2.041 1_556 S
O261 C247 1.245 . S
O261 Mg249 1.988 1_556 S
O262 Mg249 2.061 1_455 S
O262 C256 1.247 . S
O263 Mg252 2.106 . S
O263 Mg255 2.238 . S
O263 C256 1.289 . S
C264 O265 1.245 . S
C264 O266 1.274 . S
O265 Mg252 2.079 1_655 S
O265 C264 1.245 . S
O266 Mg251 2.038 . S
O266 C264 1.274 . S
O267 Mg255 2.042 1_556 S
O267 C270 1.241 . S
O268 Mg254 1.984 . S
O268 C270 1.280 . S
O269 Mg255 2.041 . S
O269 C273 1.277 . S
C270 O267 1.241 . S
C270 O268 1.280 . S
O271 Mg254 1.988 1_554 S
O271 C273 1.245 . S
O272 C248 1.247 . S
O272 Mg254 2.061 1_655 S
C273 O269 1.277 . S
C273 O271 1.245 . S
O274 C248 1.289 . S
O274 Mg251 2.238 1_556 S
O274 Mg252 2.106 1_656 S
O275 Mg252 2.079 1_556 S
O275 C257 1.245 . S
O276 Mg255 2.038 1_556 S
O276 C257 1.274 . S
C277 O289 1.241 . S
C277 O290 1.280 . S
C278 O291 1.277 . S
C278 O292 1.245 . S
C279 O303 1.247 . S
C279 O305 1.289 . S
Mg280 O281 1.926 . S
Mg280 O290 1.984 . S
Mg280 O292 1.988 1_554 S
Mg280 O293 2.061 . S
O281 Mg280 1.926 . S
O281 Mg282 1.986 . S
O281 Mg283 1.917 . S
Mg282 O281 1.986 . S
Mg282 O289 2.042 . S
Mg282 O291 2.041 1_554 S
Mg282 O297 2.038 . S
Mg282 O305 2.238 1_554 S
Mg283 O281 1.917 . S
Mg283 O284 1.917 . S
Mg283 O294 2.106 . S
Mg283 O296 2.079 . S
Mg283 O305 2.106 1_554 S
Mg283 O306 2.079 1_554 S
O284 Mg283 1.917 . S
O284 Mg285 1.926 1_554 S
O284 Mg286 1.986 . S
Mg285 O284 1.926 1_556 S
Mg285 O299 1.991 . S
Mg285 O302 1.978 1_556 S
Mg285 O303 2.066 . S
Mg286 O284 1.986 . S
Mg286 O294 2.238 . S
Mg286 O298 2.042 1_554 S
Mg286 O300 2.041 . S
Mg286 O307 2.038 1_554 S
C287 O293 1.247 . S
C287 O294 1.289 . S
C288 O306 1.245 . S
C288 O307 1.274 . S
O289 C277 1.241 . S
O289 Mg282 2.042 . S
O290 C277 1.280 . S
O290 Mg280 1.984 . S
O291 C278 1.277 . S
O291 Mg282 2.041 1_556 S
O292 C278 1.245 . S
O292 Mg280 1.988 1_556 S
O293 Mg280 2.061 . S
O293 C287 1.247 . S
O294 Mg283 2.106 . S
O294 Mg286 2.238 . S
O294 C287 1.289 . S
C295 O296 1.245 . S
C295 O297 1.274 . S
O296 Mg283 2.079 . S
O296 C295 1.245 . S
O297 Mg282 2.038 . S
O297 C295 1.274 . S
O298 Mg286 2.042 1_556 S
O298 C301 1.241 . S
O299 Mg285 1.991 . S
O299 C301 1.280 . S
O300 Mg286 2.041 . S
O300 C304 1.277 . S
C301 O298 1.241 . S
C301 O299 1.280 . S
O302 Mg285 1.978 1_554 S
O302 C304 1.245 . S
O303 C279 1.247 . S
O303 Mg285 2.066 . S
C304 O300 1.277 . S
C304 O302 1.245 . S
O305 C279 1.289 . S
O305 Mg282 2.238 1_556 S
O305 Mg283 2.106 1_556 S
O306 Mg283 2.079 1_556 S
O306 C288 1.245 . S
O307 Mg286 2.038 1_556 S
O307 C288 1.274 . S
C308 O320 1.241 . S
C308 O321 1.280 . S
C309 O322 1.277 . S
C309 O323 1.245 . S
C310 O334 1.247 . S
C310 O336 1.289 . S
Mg311 O312 1.926 . S
Mg311 O321 1.984 . S
Mg311 O323 1.988 . S
Mg311 O324 2.061 1_655 S
O312 Mg311 1.926 . S
O312 Mg313 1.986 . S
O312 Mg314 1.917 1_655 S
Mg313 O312 1.986 . S
Mg313 O320 2.042 . S
Mg313 O322 2.041 . S
Mg313 O328 2.038 . S
Mg313 O336 2.238 . S
Mg314 O312 1.917 1_455 S
Mg314 O315 1.917 . S
Mg314 O325 2.106 . S
Mg314 O327 2.079 1_455 S
Mg314 O336 2.106 1_455 S
Mg314 O337 2.079 . S
O315 Mg314 1.917 . S
O315 Mg316 1.926 . S
O315 Mg317 1.986 . S
Mg316 O315 1.926 . S
Mg316 O330 1.984 . S
Mg316 O333 1.988 . S
Mg316 O334 2.061 1_455 S
Mg317 O315 1.986 . S
Mg317 O325 2.238 . S
Mg317 O329 2.042 . S
Mg317 O331 2.041 . S
Mg317 O338 2.038 . S
C318 O324 1.247 . S
C318 O325 1.289 . S
C319 O337 1.245 . S
C319 O338 1.274 . S
O320 C308 1.241 . S
O320 Mg313 2.042 . S
O321 C308 1.280 . S
O321 Mg311 1.984 . S
O322 C309 1.277 . S
O322 Mg313 2.041 . S
O323 C309 1.245 . S
O323 Mg311 1.988 . S
O324 Mg311 2.061 1_455 S
O324 C318 1.247 . S
O325 Mg314 2.106 . S
O325 Mg317 2.238 . S
O325 C318 1.289 . S
C326 O327 1.245 . S
C326 O328 1.274 . S
O327 Mg314 2.079 1_655 S
O327 C326 1.245 . S
O328 Mg313 2.038 . S
O328 C326 1.274 . S
O329 Mg317 2.042 . S
O329 C332 1.241 . S
O330 Mg316 1.984 . S
O330 C332 1.280 . S
O331 Mg317 2.041 . S
O331 C335 1.277 . S
C332 O329 1.241 . S
C332 O330 1.280 . S
O333 Mg316 1.988 . S
O333 C335 1.245 . S
O334 C310 1.247 . S
O334 Mg316 2.061 1_655 S
C335 O331 1.277 . S
C335 O333 1.245 . S
O336 C310 1.289 . S
O336 Mg313 2.238 . S
O336 Mg314 2.106 1_655 S
O337 Mg314 2.079 . S
O337 C319 1.245 . S
O338 Mg317 2.038 . S
O338 C319 1.274 . S
C339 O351 1.241 . S
C339 O352 1.280 . S
C340 O353 1.277 . S
C340 O354 1.245 . S
C341 O365 1.247 . S
C341 O367 1.289 . S
Mg342 O343 1.926 . S
Mg342 O352 1.984 . S
Mg342 O354 1.988 . S
Mg342 O355 2.061 . S
O343 Mg342 1.926 . S
O343 Mg344 1.986 . S
O343 Mg345 1.917 . S
Mg344 O343 1.986 . S
Mg344 O351 2.042 . S
Mg344 O353 2.041 . S
Mg344 O359 2.038 1_545 S
Mg344 O367 2.238 1_545 S
Mg345 O343 1.917 . S
Mg345 O346 1.917 1_545 S
Mg345 O356 2.106 . S
Mg345 O358 2.079 1_545 S
Mg345 O367 2.106 1_545 S
Mg345 O368 2.079 . S
O346 Mg345 1.917 1_565 S
O346 Mg347 1.926 . S
O346 Mg348 1.986 1_565 S
Mg347 O346 1.926 . S
Mg347 O361 1.984 . S
Mg347 O364 1.988 . S
Mg347 O365 2.061 . S
Mg348 O346 1.986 1_545 S
Mg348 O356 2.238 . S
Mg348 O360 2.042 1_545 S
Mg348 O362 2.041 1_545 S
Mg348 O369 2.038 . S
C349 O355 1.247 . S
C349 O356 1.289 . S
C350 O368 1.245 . S
C350 O369 1.274 . S
O351 C339 1.241 . S
O351 Mg344 2.042 . S
O352 C339 1.280 . S
O352 Mg342 1.984 . S
O353 C340 1.277 . S
O353 Mg344 2.041 . S
O354 C340 1.245 . S
O354 Mg342 1.988 . S
O355 Mg342 2.061 . S
O355 C349 1.247 . S
O356 Mg345 2.106 . S
O356 Mg348 2.238 . S
O356 C349 1.289 . S
C357 O358 1.245 . S
C357 O359 1.274 . S
O358 Mg345 2.079 1_565 S
O358 C357 1.245 . S
O359 Mg344 2.038 1_565 S
O359 C357 1.274 . S
O360 Mg348 2.042 1_565 S
O360 C363 1.241 . S
O361 Mg347 1.984 . S
O361 C363 1.280 . S
O362 Mg348 2.041 1_565 S
O362 C366 1.277 . S
C363 O360 1.241 . S
C363 O361 1.280 . S
O364 Mg347 1.988 . S
O364 C366 1.245 . S
O365 C341 1.247 . S
O365 Mg347 2.061 . S
C366 O362 1.277 . S
C366 O364 1.245 . S
O367 C341 1.289 . S
O367 Mg344 2.238 1_565 S
O367 Mg345 2.106 1_565 S
O368 Mg345 2.079 . S
O368 C350 1.245 . S
O369 Mg348 2.038 . S
O369 C350 1.274 . S
C370 C371 1.349 . S
C370 C372 1.327 . S
C370 H395 0.950 . S
C371 C370 1.349 . S
C371 C387 1.349 . S
C372 C370 1.327 . S
C372 C391 1.429 . S
C372 H396 0.950 . S
C373 C390 1.574 . S
C373 C392 1.368 . S
C373 H397 0.949 . S
H374 C378 0.949 . S
C375 C376 1.349 . S
C375 C377 1.327 . S
C375 H398 0.950 . S
C376 C375 1.349 . S
C376 C388 1.349 . S
C377 C375 1.327 . S
C377 C393 1.429 . S
C377 H399 0.950 . S
C378 H374 0.949 . S
C378 C386 1.574 . S
C378 C394 1.368 . S
H379 C387 0.950 . S
H380 C385 0.950 . S
H381 C386 0.949 . S
H382 C388 0.950 . S
H383 C389 0.950 . S
H384 C390 0.949 . S
C385 H380 0.950 . S
C385 C387 1.327 . S
C385 C391 1.429 . S
C386 C378 1.574 . S
C386 H381 0.949 . S
C386 C392 1.368 . S
C387 C371 1.349 . S
C387 H379 0.950 . S
C387 C385 1.327 . S
C388 C376 1.349 . S
C388 H382 0.950 . S
C388 C389 1.327 . S
C389 H383 0.950 . S
C389 C388 1.327 . S
C389 C393 1.429 . S
C390 C373 1.574 . S
C390 H384 0.949 . S
C390 C394 1.368 . S
C391 C372 1.429 . S
C391 C385 1.429 . S
C391 C392 1.523 . S
C392 C373 1.368 . S
C392 C386 1.368 . S
C392 C391 1.523 . S
C393 C377 1.429 . S
C393 C389 1.429 . S
C393 C394 1.523 . S
C394 C378 1.368 . S
C394 C390 1.368 . S
C394 C393 1.523 . S
H395 C370 0.950 . S
H396 C372 0.950 . S
H397 C373 0.949 . S
H398 C375 0.950 . S
H399 C377 0.950 . S
C400 C401 1.349 . S
C400 C402 1.327 . S
C400 H425 0.950 . S
C401 C400 1.349 . S
C401 C417 1.349 . S
C402 C400 1.327 . S
C402 C421 1.429 . S
C402 H426 0.950 . S
C403 C420 1.574 . S
C403 C422 1.368 . S
C403 H427 0.949 . S
H404 C408 0.949 . S
C405 C406 1.349 . S
C405 C407 1.327 . S
C405 H428 0.950 . S
C406 C405 1.349 . S
C406 C418 1.349 . S
C407 C405 1.327 . S
C407 C423 1.429 . S
C407 H429 0.950 . S
C408 H404 0.949 . S
C408 C416 1.574 . S
C408 C424 1.368 . S
H409 C417 0.950 . S
H410 C415 0.950 . S
H411 C416 0.949 . S
H412 C418 0.950 . S
H413 C419 0.950 . S
H414 C420 0.949 . S
C415 H410 0.950 . S
C415 C417 1.327 . S
C415 C421 1.429 . S
C416 C408 1.574 . S
C416 H411 0.949 . S
C416 C422 1.368 . S
C417 C401 1.349 . S
C417 H409 0.950 . S
C417 C415 1.327 . S
C418 C406 1.349 . S
C418 H412 0.950 . S
C418 C419 1.327 . S
C419 H413 0.950 . S
C419 C418 1.327 . S
C419 C423 1.429 . S
C420 C403 1.574 . S
C420 H414 0.949 . S
C420 C424 1.368 . S
C421 C402 1.429 . S
C421 C415 1.429 . S
C421 C422 1.523 . S
C422 C403 1.368 . S
C422 C416 1.368 . S
C422 C421 1.523 . S
C423 C407 1.429 . S
C423 C419 1.429 . S
C423 C424 1.523 . S
C424 C408 1.368 . S
C424 C420 1.368 . S
C424 C423 1.523 . S
H425 C400 0.950 . S
H426 C402 0.950 . S
H427 C403 0.949 . S
H428 C405 0.950 . S
H429 C407 0.950 . S
C430 C431 1.349 . S
C430 C432 1.327 . S
C430 H455 0.950 . S
C431 C430 1.349 . S
C431 C447 1.349 . S
C432 C430 1.327 . S
C432 C451 1.429 . S
C432 H456 0.950 . S
C433 C450 1.574 . S
C433 C452 1.368 . S
C433 H457 0.949 . S
H434 C438 0.949 . S
C435 C436 1.349 . S
C435 C437 1.327 . S
C435 H458 0.950 . S
C436 C435 1.349 . S
C436 C448 1.349 . S
C437 C435 1.327 . S
C437 C453 1.429 . S
C437 H459 0.950 . S
C438 H434 0.949 . S
C438 C446 1.574 . S
C438 C454 1.368 . S
H439 C447 0.950 . S
H440 C445 0.950 . S
H441 C446 0.949 . S
H442 C448 0.950 . S
H443 C449 0.950 . S
H444 C450 0.949 . S
C445 H440 0.950 . S
C445 C447 1.327 . S
C445 C451 1.429 . S
C446 C438 1.574 . S
C446 H441 0.949 . S
C446 C452 1.368 . S
C447 C431 1.349 . S
C447 H439 0.950 . S
C447 C445 1.327 . S
C448 C436 1.349 . S
C448 H442 0.950 . S
C448 C449 1.327 . S
C449 H443 0.950 . S
C449 C448 1.327 . S
C449 C453 1.429 . S
C450 C433 1.574 . S
C450 H444 0.949 . S
C450 C454 1.368 . S
C451 C432 1.429 . S
C451 C445 1.429 . S
C451 C452 1.523 . S
C452 C433 1.368 . S
C452 C446 1.368 . S
C452 C451 1.523 . S
C453 C437 1.429 . S
C453 C449 1.429 . S
C453 C454 1.523 . S
C454 C438 1.368 . S
C454 C450 1.368 . S
C454 C453 1.523 . S
H455 C430 0.950 . S
H456 C432 0.950 . S
H457 C433 0.949 . S
H458 C435 0.950 . S
H459 C437 0.950 . S
C460 C461 1.349 . S
C460 C462 1.327 . S
C460 H485 0.950 . S
C461 C460 1.349 . S
C461 C477 1.349 . S
C462 C460 1.327 . S
C462 C481 1.429 . S
C462 H486 0.950 . S
C463 C480 1.574 . S
C463 C482 1.368 . S
C463 H487 0.949 . S
H464 C468 0.949 . S
C465 C466 1.349 . S
C465 C467 1.327 . S
C465 H488 0.950 . S
C466 C465 1.349 . S
C466 C478 1.349 . S
C467 C465 1.327 . S
C467 C483 1.429 . S
C467 H489 0.950 . S
C468 H464 0.949 . S
C468 C476 1.574 . S
C468 C484 1.368 . S
H469 C477 0.950 . S
H470 C475 0.950 . S
H471 C476 0.949 . S
H472 C478 0.950 . S
H473 C479 0.950 . S
H474 C480 0.949 . S
C475 H470 0.950 . S
C475 C477 1.327 . S
C475 C481 1.429 . S
C476 C468 1.574 . S
C476 H471 0.949 . S
C476 C482 1.368 . S
C477 C461 1.349 . S
C477 H469 0.950 . S
C477 C475 1.327 . S
C478 C466 1.349 . S
C478 H472 0.950 . S
C478 C479 1.327 . S
C479 H473 0.950 . S
C479 C478 1.327 . S
C479 C483 1.429 . S
C480 C463 1.574 . S
C480 H474 0.949 . S
C480 C484 1.368 . S
C481 C462 1.429 . S
C481 C475 1.429 . S
C481 C482 1.523 . S
C482 C463 1.368 . S
C482 C476 1.368 . S
C482 C481 1.523 . S
C483 C467 1.429 . S
C483 C479 1.429 . S
C483 C484 1.523 . S
C484 C468 1.368 . S
C484 C480 1.368 . S
C484 C483 1.523 . S
H485 C460 0.950 . S
H486 C462 0.950 . S
H487 C463 0.949 . S
H488 C465 0.950 . S
H489 C467 0.950 . S
C490 C491 1.349 . S
C490 C492 1.327 . S
C490 H515 0.950 . S
C491 C490 1.349 . S
C491 C507 1.349 . S
C492 C490 1.327 . S
C492 C511 1.429 . S
C492 H516 0.950 . S
C493 C510 1.574 . S
C493 C512 1.368 . S
C493 H517 0.949 . S
H494 C498 0.949 . S
C495 C496 1.349 . S
C495 C497 1.327 . S
C495 H518 0.950 . S
C496 C495 1.349 . S
C496 C508 1.349 . S
C497 C495 1.327 . S
C497 C513 1.429 . S
C497 H519 0.950 . S
C498 H494 0.949 . S
C498 C506 1.574 . S
C498 C514 1.368 . S
H499 C507 0.950 . S
H500 C505 0.950 . S
H501 C506 0.949 . S
H502 C508 0.950 . S
H503 C509 0.950 . S
H504 C510 0.949 . S
C505 H500 0.950 . S
C505 C507 1.327 . S
C505 C511 1.429 . S
C506 C498 1.574 . S
C506 H501 0.949 . S
C506 C512 1.368 . S
C507 C491 1.349 . S
C507 H499 0.950 . S
C507 C505 1.327 . S
C508 C496 1.349 . S
C508 H502 0.950 . S
C508 C509 1.327 . S
C509 H503 0.950 . S
C509 C508 1.327 . S
C509 C513 1.429 . S
C510 C493 1.574 . S
C510 H504 0.949 . S
C510 C514 1.368 . S
C511 C492 1.429 . S
C511 C505 1.429 . S
C511 C512 1.523 . S
C512 C493 1.368 . S
C512 C506 1.368 . S
C512 C511 1.523 . S
C513 C497 1.429 . S
C513 C509 1.429 . S
C513 C514 1.523 . S
C514 C498 1.368 . S
C514 C510 1.368 . S
C514 C513 1.523 . S
H515 C490 0.950 . S
H516 C492 0.950 . S
H517 C493 0.949 . S
H518 C495 0.950 . S
H519 C497 0.950 . S
C520 C521 1.349 . S
C520 C522 1.327 . S
C520 H545 0.950 . S
C521 C520 1.349 . S
C521 C537 1.349 . S
C522 C520 1.327 . S
C522 C541 1.429 . S
C522 H546 0.950 . S
C523 C540 1.574 . S
C523 C542 1.368 . S
C523 H547 0.949 . S
H524 C528 0.949 . S
C525 C526 1.349 . S
C525 C527 1.327 . S
C525 H548 0.950 . S
C526 C525 1.349 . S
C526 C538 1.349 . S
C527 C525 1.327 . S
C527 C543 1.429 . S
C527 H549 0.950 . S
C528 H524 0.949 . S
C528 C536 1.574 . S
C528 C544 1.368 . S
H529 C537 0.950 . S
H530 C535 0.950 . S
H531 C536 0.949 . S
H532 C538 0.950 . S
H533 C539 0.950 . S
H534 C540 0.949 . S
C535 H530 0.950 . S
C535 C537 1.327 . S
C535 C541 1.429 . S
C536 C528 1.574 . S
C536 H531 0.949 . S
C536 C542 1.368 . S
C537 C521 1.349 . S
C537 H529 0.950 . S
C537 C535 1.327 . S
C538 C526 1.349 . S
C538 H532 0.950 . S
C538 C539 1.327 . S
C539 H533 0.950 . S
C539 C538 1.327 . S
C539 C543 1.429 . S
C540 C523 1.574 . S
C540 H534 0.949 . S
C540 C544 1.368 . S
C541 C522 1.429 . S
C541 C535 1.429 . S
C541 C542 1.523 . S
C542 C523 1.368 . S
C542 C536 1.368 . S
C542 C541 1.523 . S
C543 C527 1.429 . S
C543 C539 1.429 . S
C543 C544 1.523 . S
C544 C528 1.368 . S
C544 C540 1.368 . S
C544 C543 1.523 . S
H545 C520 0.950 . S
H546 C522 0.950 . S
H547 C523 0.949 . S
H548 C525 0.950 . S
H549 C527 0.950 . S
C550 C551 1.349 . S
C550 C552 1.327 . S
C550 H575 0.950 . S
C551 C550 1.349 . S
C551 C567 1.349 . S
C552 C550 1.327 . S
C552 C571 1.429 . S
C552 H576 0.950 . S
C553 C570 1.574 . S
C553 C572 1.368 . S
C553 H577 0.949 . S
H554 C558 0.949 . S
C555 C556 1.349 . S
C555 C557 1.327 . S
C555 H578 0.950 . S
C556 C555 1.349 . S
C556 C568 1.349 . S
C557 C555 1.327 . S
C557 C573 1.429 . S
C557 H579 0.950 . S
C558 H554 0.949 . S
C558 C566 1.574 . S
C558 C574 1.368 . S
H559 C567 0.950 . S
H560 C565 0.950 . S
H561 C566 0.949 . S
H562 C568 0.950 . S
H563 C569 0.950 . S
H564 C570 0.949 . S
C565 H560 0.950 . S
C565 C567 1.327 . S
C565 C571 1.429 . S
C566 C558 1.574 . S
C566 H561 0.949 . S
C566 C572 1.368 . S
C567 C551 1.349 . S
C567 H559 0.950 . S
C567 C565 1.327 . S
C568 C556 1.349 . S
C568 H562 0.950 . S
C568 C569 1.327 . S
C569 H563 0.950 . S
C569 C568 1.327 . S
C569 C573 1.429 . S
C570 C553 1.574 . S
C570 H564 0.949 . S
C570 C574 1.368 . S
C571 C552 1.429 . S
C571 C565 1.429 . S
C571 C572 1.523 . S
C572 C553 1.368 . S
C572 C566 1.368 . S
C572 C571 1.523 . S
C573 C557 1.429 . S
C573 C569 1.429 . S
C573 C574 1.523 . S
C574 C558 1.368 . S
C574 C570 1.368 . S
C574 C573 1.523 . S
H575 C550 0.950 . S
H576 C552 0.950 . S
H577 C553 0.949 . S
H578 C555 0.950 . S
H579 C557 0.950 . S
C580 C581 1.349 . S
C580 C582 1.327 . S
C580 H605 0.950 . S
C581 C580 1.349 . S
C581 C597 1.349 . S
C582 C580 1.327 . S
C582 C601 1.429 . S
C582 H606 0.950 . S
C583 C600 1.574 . S
C583 C602 1.368 . S
C583 H607 0.949 . S
H584 C588 0.949 . S
C585 C586 1.349 . S
C585 C587 1.327 . S
C585 H608 0.950 . S
C586 C585 1.349 . S
C586 C598 1.349 . S
C587 C585 1.327 . S
C587 C603 1.429 . S
C587 H609 0.950 . S
C588 H584 0.949 . S
C588 C596 1.574 . S
C588 C604 1.368 . S
H589 C597 0.950 . S
H590 C595 0.950 . S
H591 C596 0.949 . S
H592 C598 0.950 . S
H593 C599 0.950 . S
H594 C600 0.949 . S
C595 H590 0.950 . S
C595 C597 1.327 . S
C595 C601 1.429 . S
C596 C588 1.574 . S
C596 H591 0.949 . S
C596 C602 1.368 . S
C597 C581 1.349 . S
C597 H589 0.950 . S
C597 C595 1.327 . S
C598 C586 1.349 . S
C598 H592 0.950 . S
C598 C599 1.327 . S
C599 H593 0.950 . S
C599 C598 1.327 . S
C599 C603 1.429 . S
C600 C583 1.574 . S
C600 H594 0.949 . S
C600 C604 1.368 . S
C601 C582 1.429 . S
C601 C595 1.429 . S
C601 C602 1.523 . S
C602 C583 1.368 . S
C602 C596 1.368 . S
C602 C601 1.523 . S
C603 C587 1.429 . S
C603 C599 1.429 . S
C603 C604 1.523 . S
C604 C588 1.368 . S
C604 C600 1.368 . S
C604 C603 1.523 . S
H605 C580 0.950 . S
H606 C582 0.950 . S
H607 C583 0.949 . S
H608 C585 0.950 . S
H609 C587 0.950 . S
C610 C611 1.349 . S
C610 C612 1.327 . S
C610 H635 0.950 . S
C611 C610 1.349 . S
C611 C627 1.349 . S
C612 C610 1.327 . S
C612 C631 1.429 . S
C612 H636 0.950 . S
C613 C630 1.574 . S
C613 C632 1.368 . S
C613 H637 0.949 . S
H614 C618 0.949 . S
C615 C616 1.349 . S
C615 C617 1.327 . S
C615 H638 0.950 . S
C616 C615 1.349 . S
C616 C628 1.349 . S
C617 C615 1.327 . S
C617 C633 1.429 . S
C617 H639 0.950 . S
C618 H614 0.949 . S
C618 C626 1.574 . S
C618 C634 1.368 . S
H619 C627 0.950 . S
H620 C625 0.950 . S
H621 C626 0.949 . S
H622 C628 0.950 . S
H623 C629 0.950 . S
H624 C630 0.949 . S
C625 H620 0.950 . S
C625 C627 1.327 . S
C625 C631 1.429 . S
C626 C618 1.574 . S
C626 H621 0.949 . S
C626 C632 1.368 . S
C627 C611 1.349 . S
C627 H619 0.950 . S
C627 C625 1.327 . S
C628 C616 1.349 . S
C628 H622 0.950 . S
C628 C629 1.327 . S
C629 H623 0.950 . S
C629 C628 1.327 . S
C629 C633 1.429 . S
C630 C613 1.574 . S
C630 H624 0.949 . S
C630 C634 1.368 . S
C631 C612 1.429 . S
C631 C625 1.429 . S
C631 C632 1.523 . S
C632 C613 1.368 . S
C632 C626 1.368 . S
C632 C631 1.523 . S
C633 C617 1.429 . S
C633 C629 1.429 . S
C633 C634 1.523 . S
C634 C618 1.368 . S
C634 C630 1.368 . S
C634 C633 1.523 . S
H635 C610 0.950 . S
H636 C612 0.950 . S
H637 C613 0.949 . S
H638 C615 0.950 . S
H639 C617 0.950 . S
C640 C641 1.349 . S
C640 C642 1.327 . S
C640 H665 0.950 . S
C641 C640 1.349 . S
C641 C657 1.349 . S
C642 C640 1.327 . S
C642 C661 1.429 . S
C642 H666 0.950 . S
C643 C660 1.574 . S
C643 C662 1.368 . S
C643 H667 0.949 . S
H644 C648 0.949 . S
C645 C646 1.349 . S
C645 C647 1.327 . S
C645 H668 0.950 . S
C646 C645 1.349 . S
C646 C658 1.349 . S
C647 C645 1.327 . S
C647 C663 1.429 . S
C647 H669 0.950 . S
C648 H644 0.949 . S
C648 C656 1.574 . S
C648 C664 1.368 . S
H649 C657 0.950 . S
H650 C655 0.950 . S
H651 C656 0.949 . S
H652 C658 0.950 . S
H653 C659 0.950 . S
H654 C660 0.949 . S
C655 H650 0.950 . S
C655 C657 1.327 . S
C655 C661 1.429 . S
C656 C648 1.574 . S
C656 H651 0.949 . S
C656 C662 1.368 . S
C657 C641 1.349 . S
C657 H649 0.950 . S
C657 C655 1.327 . S
C658 C646 1.349 . S
C658 H652 0.950 . S
C658 C659 1.327 . S
C659 H653 0.950 . S
C659 C658 1.327 . S
C659 C663 1.429 . S
C660 C643 1.574 . S
C660 H654 0.949 . S
C660 C664 1.368 . S
C661 C642 1.429 . S
C661 C655 1.429 . S
C661 C662 1.523 . S
C662 C643 1.368 . S
C662 C656 1.368 . S
C662 C661 1.523 . S
C663 C647 1.429 . S
C663 C659 1.429 . S
C663 C664 1.523 . S
C664 C648 1.368 . S
C664 C660 1.368 . S
C664 C663 1.523 . S
H665 C640 0.950 . S
H666 C642 0.950 . S
H667 C643 0.949 . S
H668 C645 0.950 . S
H669 C647 0.950 . S
C670 C671 1.349 . S
C670 C672 1.327 . S
C670 H695 0.950 . S
C671 C670 1.349 . S
C671 C687 1.349 . S
C672 C670 1.327 . S
C672 C691 1.429 . S
C672 H696 0.950 . S
C673 C690 1.574 . S
C673 C692 1.368 . S
C673 H697 0.949 . S
H674 C678 0.949 . S
C675 C676 1.349 . S
C675 C677 1.327 . S
C675 H698 0.950 . S
C676 C675 1.349 . S
C676 C688 1.349 . S
C677 C675 1.327 . S
C677 C693 1.429 . S
C677 H699 0.950 . S
C678 H674 0.949 . S
C678 C686 1.574 . S
C678 C694 1.368 . S
H679 C687 0.950 . S
H680 C685 0.950 . S
H681 C686 0.949 . S
H682 C688 0.950 . S
H683 C689 0.950 . S
H684 C690 0.949 . S
C685 H680 0.950 . S
C685 C687 1.327 . S
C685 C691 1.429 . S
C686 C678 1.574 . S
C686 H681 0.949 . S
C686 C692 1.368 . S
C687 C671 1.349 . S
C687 H679 0.950 . S
C687 C685 1.327 . S
C688 C676 1.349 . S
C688 H682 0.950 . S
C688 C689 1.327 . S
C689 H683 0.950 . S
C689 C688 1.327 . S
C689 C693 1.429 . S
C690 C673 1.574 . S
C690 H684 0.949 . S
C690 C694 1.368 . S
C691 C672 1.429 . S
C691 C685 1.429 . S
C691 C692 1.523 . S
C692 C673 1.368 . S
C692 C686 1.368 . S
C692 C691 1.523 . S
C693 C677 1.429 . S
C693 C689 1.429 . S
C693 C694 1.523 . S
C694 C678 1.368 . S
C694 C690 1.368 . S
C694 C693 1.523 . S
H695 C670 0.950 . S
H696 C672 0.950 . S
H697 C673 0.949 . S
H698 C675 0.950 . S
H699 C677 0.950 . S
C700 C701 1.349 . S
C700 C702 1.327 . S
C700 H725 0.950 . S
C701 C700 1.349 . S
C701 C717 1.349 . S
C702 C700 1.327 . S
C702 C721 1.429 . S
C702 H726 0.950 . S
C703 C720 1.574 . S
C703 C722 1.368 . S
C703 H727 0.949 . S
H704 C708 0.949 . S
C705 C706 1.349 . S
C705 C707 1.327 . S
C705 H728 0.950 . S
C706 C705 1.349 . S
C706 C718 1.349 . S
C707 C705 1.327 . S
C707 C723 1.429 . S
C707 H729 0.950 . S
C708 H704 0.949 . S
C708 C716 1.574 . S
C708 C724 1.368 . S
H709 C717 0.950 . S
H710 C715 0.950 . S
H711 C716 0.949 . S
H712 C718 0.950 . S
H713 C719 0.950 . S
H714 C720 0.949 . S
C715 H710 0.950 . S
C715 C717 1.327 . S
C715 C721 1.429 . S
C716 C708 1.574 . S
C716 H711 0.949 . S
C716 C722 1.368 . S
C717 C701 1.349 . S
C717 H709 0.950 . S
C717 C715 1.327 . S
C718 C706 1.349 . S
C718 H712 0.950 . S
C718 C719 1.327 . S
C719 H713 0.950 . S
C719 C718 1.327 . S
C719 C723 1.429 . S
C720 C703 1.574 . S
C720 H714 0.949 . S
C720 C724 1.368 . S
C721 C702 1.429 . S
C721 C715 1.429 . S
C721 C722 1.523 . S
C722 C703 1.368 . S
C722 C716 1.368 . S
C722 C721 1.523 . S
C723 C707 1.429 . S
C723 C719 1.429 . S
C723 C724 1.523 . S
C724 C708 1.368 . S
C724 C720 1.368 . S
C724 C723 1.523 . S
H725 C700 0.950 . S
H726 C702 0.950 . S
H727 C703 0.949 . S
H728 C705 0.950 . S
H729 C707 0.950 . S
C730 C731 1.349 . S
C730 C732 1.327 . S
C730 H755 0.950 . S
C731 C730 1.349 . S
C731 C747 1.349 . S
C732 C730 1.327 . S
C732 C751 1.429 . S
C732 H756 0.950 . S
C733 C750 1.574 . S
C733 C752 1.368 . S
C733 H757 0.949 . S
H734 C738 0.949 . S
C735 C736 1.349 . S
C735 C737 1.327 . S
C735 H758 0.950 . S
C736 C735 1.349 . S
C736 C748 1.349 . S
C737 C735 1.327 . S
C737 C753 1.429 . S
C737 H759 0.950 . S
C738 H734 0.949 . S
C738 C746 1.574 . S
C738 C754 1.368 . S
H739 C747 0.950 . S
H740 C745 0.950 . S
H741 C746 0.949 . S
H742 C748 0.950 . S
H743 C749 0.950 . S
H744 C750 0.949 . S
C745 H740 0.950 . S
C745 C747 1.327 . S
C745 C751 1.429 . S
C746 C738 1.574 . S
C746 H741 0.949 . S
C746 C752 1.368 . S
C747 C731 1.349 . S
C747 H739 0.950 . S
C747 C745 1.327 . S
C748 C736 1.349 . S
C748 H742 0.950 . S
C748 C749 1.327 . S
C749 H743 0.950 . S
C749 C748 1.327 . S
C749 C753 1.429 . S
C750 C733 1.574 . S
C750 H744 0.949 . S
C750 C754 1.368 . S
C751 C732 1.429 . S
C751 C745 1.429 . S
C751 C752 1.523 . S
C752 C733 1.368 . S
C752 C746 1.368 . S
C752 C751 1.523 . S
C753 C737 1.429 . S
C753 C749 1.429 . S
C753 C754 1.523 . S
C754 C738 1.368 . S
C754 C750 1.368 . S
C754 C753 1.523 . S
H755 C730 0.950 . S
H756 C732 0.950 . S
H757 C733 0.949 . S
H758 C735 0.950 . S
H759 C737 0.950 . S
C760 C761 1.349 . S
C760 C762 1.327 . S
C760 H785 0.950 . S
C761 C760 1.349 . S
C761 C777 1.349 . S
C762 C760 1.327 . S
C762 C781 1.429 . S
C762 H786 0.950 . S
C763 C780 1.574 . S
C763 C782 1.368 . S
C763 H787 0.949 . S
H764 C768 0.949 . S
C765 C766 1.349 . S
C765 C767 1.327 . S
C765 H788 0.950 . S
C766 C765 1.349 . S
C766 C778 1.349 . S
C767 C765 1.327 . S
C767 C783 1.429 . S
C767 H789 0.950 . S
C768 H764 0.949 . S
C768 C776 1.574 . S
C768 C784 1.368 . S
H769 C777 0.950 . S
H770 C775 0.950 . S
H771 C776 0.949 . S
H772 C778 0.950 . S
H773 C779 0.950 . S
H774 C780 0.949 . S
C775 H770 0.950 . S
C775 C777 1.327 . S
C775 C781 1.429 . S
C776 C768 1.574 . S
C776 H771 0.949 . S
C776 C782 1.368 . S
C777 C761 1.349 . S
C777 H769 0.950 . S
C777 C775 1.327 . S
C778 C766 1.349 . S
C778 H772 0.950 . S
C778 C779 1.327 . S
C779 H773 0.950 . S
C779 C778 1.327 . S
C779 C783 1.429 . S
C780 C763 1.574 . S
C780 H774 0.949 . S
C780 C784 1.368 . S
C781 C762 1.429 . S
C781 C775 1.429 . S
C781 C782 1.523 . S
C782 C763 1.368 . S
C782 C776 1.368 . S
C782 C781 1.523 . S
C783 C767 1.429 . S
C783 C779 1.429 . S
C783 C784 1.523 . S
C784 C768 1.368 . S
C784 C780 1.368 . S
C784 C783 1.523 . S
H785 C760 0.950 . S
H786 C762 0.950 . S
H787 C763 0.949 . S
H788 C765 0.950 . S
H789 C767 0.950 . S
C790 C791 1.349 . S
C790 C792 1.327 . S
C790 H815 0.950 . S
C791 C790 1.349 . S
C791 C807 1.349 . S
C792 C790 1.327 . S
C792 C811 1.429 . S
C792 H816 0.950 . S
C793 C810 1.574 . S
C793 C812 1.368 . S
C793 H817 0.949 . S
H794 C798 0.949 . S
C795 C796 1.349 . S
C795 C797 1.327 . S
C795 H818 0.950 . S
C796 C795 1.349 . S
C796 C808 1.349 . S
C797 C795 1.327 . S
C797 C813 1.429 . S
C797 H819 0.950 . S
C798 H794 0.949 . S
C798 C806 1.574 . S
C798 C814 1.368 . S
H799 C807 0.950 . S
H800 C805 0.950 . S
H801 C806 0.949 . S
H802 C808 0.950 . S
H803 C809 0.950 . S
H804 C810 0.949 . S
C805 H800 0.950 . S
C805 C807 1.327 . S
C805 C811 1.429 . S
C806 C798 1.574 . S
C806 H801 0.949 . S
C806 C812 1.368 . S
C807 C791 1.349 . S
C807 H799 0.950 . S
C807 C805 1.327 . S
C808 C796 1.349 . S
C808 H802 0.950 . S
C808 C809 1.327 . S
C809 H803 0.950 . S
C809 C808 1.327 . S
C809 C813 1.429 . S
C810 C793 1.574 . S
C810 H804 0.949 . S
C810 C814 1.368 . S
C811 C792 1.429 . S
C811 C805 1.429 . S
C811 C812 1.523 . S
C812 C793 1.368 . S
C812 C806 1.368 . S
C812 C811 1.523 . S
C813 C797 1.429 . S
C813 C809 1.429 . S
C813 C814 1.523 . S
C814 C798 1.368 . S
C814 C810 1.368 . S
C814 C813 1.523 . S
H815 C790 0.950 . S
H816 C792 0.950 . S
H817 C793 0.949 . S
H818 C795 0.950 . S
H819 C797 0.950 . S
C820 C821 1.349 . S
C820 C822 1.327 . S
C820 H845 0.950 . S
C821 C820 1.349 . S
C821 C837 1.349 . S
C822 C820 1.327 . S
C822 C841 1.429 . S
C822 H846 0.950 . S
C823 C840 1.574 . S
C823 C842 1.368 . S
C823 H847 0.949 . S
H824 C828 0.949 . S
C825 C826 1.349 . S
C825 C827 1.327 . S
C825 H848 0.950 . S
C826 C825 1.349 . S
C826 C838 1.349 . S
C827 C825 1.327 . S
C827 C843 1.429 . S
C827 H849 0.950 . S
C828 H824 0.949 . S
C828 C836 1.574 . S
C828 C844 1.368 . S
H829 C837 0.950 . S
H830 C835 0.950 . S
H831 C836 0.949 . S
H832 C838 0.950 . S
H833 C839 0.950 . S
H834 C840 0.949 . S
C835 H830 0.950 . S
C835 C837 1.327 . S
C835 C841 1.429 . S
C836 C828 1.574 . S
C836 H831 0.949 . S
C836 C842 1.368 . S
C837 C821 1.349 . S
C837 H829 0.950 . S
C837 C835 1.327 . S
C838 C826 1.349 . S
C838 H832 0.950 . S
C838 C839 1.327 . S
C839 H833 0.950 . S
C839 C838 1.327 . S
C839 C843 1.429 . S
C840 C823 1.574 . S
C840 H834 0.949 . S
C840 C844 1.368 . S
C841 C822 1.429 . S
C841 C835 1.429 . S
C841 C842 1.523 . S
C842 C823 1.368 . S
C842 C836 1.368 . S
C842 C841 1.523 . S
C843 C827 1.429 . S
C843 C839 1.429 . S
C843 C844 1.523 . S
C844 C828 1.368 . S
C844 C840 1.368 . S
C844 C843 1.523 . S
H845 C820 0.950 . S
H846 C822 0.950 . S
H847 C823 0.949 . S
H848 C825 0.950 . S
H849 C827 0.950 . S
C850 C851 1.349 . S
C850 C852 1.327 . S
C850 H875 0.950 . S
C851 C850 1.349 . S
C851 C867 1.349 . S
C852 C850 1.327 . S
C852 C871 1.429 . S
C852 H876 0.950 . S
C853 C870 1.574 . S
C853 C872 1.368 . S
C853 H877 0.949 . S
H854 C858 0.949 . S
C855 C856 1.349 . S
C855 C857 1.327 . S
C855 H878 0.950 . S
C856 C855 1.349 . S
C856 C868 1.349 . S
C857 C855 1.327 . S
C857 C873 1.429 . S
C857 H879 0.950 . S
C858 H854 0.949 . S
C858 C866 1.574 . S
C858 C874 1.368 . S
H859 C867 0.950 . S
H860 C865 0.950 . S
H861 C866 0.949 . S
H862 C868 0.950 . S
H863 C869 0.950 . S
H864 C870 0.949 . S
C865 H860 0.950 . S
C865 C867 1.327 . S
C865 C871 1.429 . S
C866 C858 1.574 . S
C866 H861 0.949 . S
C866 C872 1.368 . S
C867 C851 1.349 . S
C867 H859 0.950 . S
C867 C865 1.327 . S
C868 C856 1.349 . S
C868 H862 0.950 . S
C868 C869 1.327 . S
C869 H863 0.950 . S
C869 C868 1.327 . S
C869 C873 1.429 . S
C870 C853 1.574 . S
C870 H864 0.949 . S
C870 C874 1.368 . S
C871 C852 1.429 . S
C871 C865 1.429 . S
C871 C872 1.523 . S
C872 C853 1.368 . S
C872 C866 1.368 . S
C872 C871 1.523 . S
C873 C857 1.429 . S
C873 C869 1.429 . S
C873 C874 1.523 . S
C874 C858 1.368 . S
C874 C870 1.368 . S
C874 C873 1.523 . S
H875 C850 0.950 . S
H876 C852 0.950 . S
H877 C853 0.949 . S
H878 C855 0.950 . S
H879 C857 0.950 . S
C880 C881 1.349 . S
C880 C882 1.327 . S
C880 H905 0.950 . S
C881 C880 1.349 . S
C881 C897 1.349 . S
C882 C880 1.327 . S
C882 C901 1.429 . S
C882 H906 0.950 . S
C883 C900 1.574 . S
C883 C902 1.368 . S
C883 H907 0.949 . S
H884 C888 0.949 . S
C885 C886 1.349 . S
C885 C887 1.327 . S
C885 H908 0.950 . S
C886 C885 1.349 . S
C886 C898 1.349 . S
C887 C885 1.327 . S
C887 C903 1.429 . S
C887 H909 0.950 . S
C888 H884 0.949 . S
C888 C896 1.574 . S
C888 C904 1.368 . S
H889 C897 0.950 . S
H890 C895 0.950 . S
H891 C896 0.949 . S
H892 C898 0.950 . S
H893 C899 0.950 . S
H894 C900 0.949 . S
C895 H890 0.950 . S
C895 C897 1.327 . S
C895 C901 1.429 . S
C896 C888 1.574 . S
C896 H891 0.949 . S
C896 C902 1.368 . S
C897 C881 1.349 . S
C897 H889 0.950 . S
C897 C895 1.327 . S
C898 C886 1.349 . S
C898 H892 0.950 . S
C898 C899 1.327 . S
C899 H893 0.950 . S
C899 C898 1.327 . S
C899 C903 1.429 . S
C900 C883 1.574 . S
C900 H894 0.949 . S
C900 C904 1.368 . S
C901 C882 1.429 . S
C901 C895 1.429 . S
C901 C902 1.523 . S
C902 C883 1.368 . S
C902 C896 1.368 . S
C902 C901 1.523 . S
C903 C887 1.429 . S
C903 C899 1.429 . S
C903 C904 1.523 . S
C904 C888 1.368 . S
C904 C900 1.368 . S
C904 C903 1.523 . S
H905 C880 0.950 . S
H906 C882 0.950 . S
H907 C883 0.949 . S
H908 C885 0.950 . S
H909 C887 0.950 . S
C910 C911 1.349 . S
C910 C912 1.327 . S
C910 H935 0.950 . S
C911 C910 1.349 . S
C911 C927 1.349 . S
C912 C910 1.327 . S
C912 C931 1.429 . S
C912 H936 0.950 . S
C913 C930 1.574 . S
C913 C932 1.368 . S
C913 H937 0.949 . S
H914 C918 0.949 . S
C915 C916 1.349 . S
C915 C917 1.327 . S
C915 H938 0.950 . S
C916 C915 1.349 . S
C916 C928 1.349 . S
C917 C915 1.327 . S
C917 C933 1.429 . S
C917 H939 0.950 . S
C918 H914 0.949 . S
C918 C926 1.574 . S
C918 C934 1.368 . S
H919 C927 0.950 . S
H920 C925 0.950 . S
H921 C926 0.949 . S
H922 C928 0.950 . S
H923 C929 0.950 . S
H924 C930 0.949 . S
C925 H920 0.950 . S
C925 C927 1.327 . S
C925 C931 1.429 . S
C926 C918 1.574 . S
C926 H921 0.949 . S
C926 C932 1.368 . S
C927 C911 1.349 . S
C927 H919 0.950 . S
C927 C925 1.327 . S
C928 C916 1.349 . S
C928 H922 0.950 . S
C928 C929 1.327 . S
C929 H923 0.950 . S
C929 C928 1.327 . S
C929 C933 1.429 . S
C930 C913 1.574 . S
C930 H924 0.949 . S
C930 C934 1.368 . S
C931 C912 1.429 . S
C931 C925 1.429 . S
C931 C932 1.523 . S
C932 C913 1.368 . S
C932 C926 1.368 . S
C932 C931 1.523 . S
C933 C917 1.429 . S
C933 C929 1.429 . S
C933 C934 1.523 . S
C934 C918 1.368 . S
C934 C930 1.368 . S
C934 C933 1.523 . S
H935 C910 0.950 . S
H936 C912 0.950 . S
H937 C913 0.949 . S
H938 C915 0.950 . S
H939 C917 0.950 . S
C940 C941 1.349 . S
C940 C942 1.327 . S
C940 H965 0.950 . S
C941 C940 1.349 . S
C941 C957 1.349 . S
C942 C940 1.327 . S
C942 C961 1.429 . S
C942 H966 0.950 . S
C943 C960 1.574 . S
C943 C962 1.368 . S
C943 H967 0.949 . S
H944 C948 0.949 . S
C945 C946 1.349 . S
C945 C947 1.327 . S
C945 H968 0.950 . S
C946 C945 1.349 . S
C946 C958 1.349 . S
C947 C945 1.327 . S
C947 C963 1.429 . S
C947 H969 0.950 . S
C948 H944 0.949 . S
C948 C956 1.574 . S
C948 C964 1.368 . S
H949 C957 0.950 . S
H950 C955 0.950 . S
H951 C956 0.949 . S
H952 C958 0.950 . S
H953 C959 0.950 . S
H954 C960 0.949 . S
C955 H950 0.950 . S
C955 C957 1.327 . S
C955 C961 1.429 . S
C956 C948 1.574 . S
C956 H951 0.949 . S
C956 C962 1.368 . S
C957 C941 1.349 . S
C957 H949 0.950 . S
C957 C955 1.327 . S
C958 C946 1.349 . S
C958 H952 0.950 . S
C958 C959 1.327 . S
C959 H953 0.950 . S
C959 C958 1.327 . S
C959 C963 1.429 . S
C960 C943 1.574 . S
C960 H954 0.949 . S
C960 C964 1.368 . S
C961 C942 1.429 . S
C961 C955 1.429 . S
C961 C962 1.523 . S
C962 C943 1.368 . S
C962 C956 1.368 . S
C962 C961 1.523 . S
C963 C947 1.429 . S
C963 C959 1.429 . S
C963 C964 1.523 . S
C964 C948 1.368 . S
C964 C960 1.368 . S
C964 C963 1.523 . S
H965 C940 0.950 . S
H966 C942 0.950 . S
H967 C943 0.949 . S
H968 C945 0.950 . S
H969 C947 0.950 . S
C970 C971 1.349 . S
C970 C972 1.327 . S
C970 H995 0.950 . S
C971 C970 1.349 . S
C971 C987 1.349 . S
C972 C970 1.327 . S
C972 C991 1.429 . S
C972 H996 0.950 . S
C973 C990 1.574 . S
C973 C992 1.368 . S
C973 H997 0.949 . S
H974 C978 0.949 . S
C975 C976 1.349 . S
C975 C977 1.327 . S
C975 H998 0.950 . S
C976 C975 1.349 . S
C976 C988 1.349 . S
C977 C975 1.327 . S
C977 C993 1.429 . S
C977 H999 0.950 . S
C978 H974 0.949 . S
C978 C986 1.574 . S
C978 C994 1.368 . S
H979 C987 0.950 . S
H980 C985 0.950 . S
H981 C986 0.949 . S
H982 C988 0.950 . S
H983 C989 0.950 . S
H984 C990 0.949 . S
C985 H980 0.950 . S
C985 C987 1.327 . S
C985 C991 1.429 . S
C986 C978 1.574 . S
C986 H981 0.949 . S
C986 C992 1.368 . S
C987 C971 1.349 . S
C987 H979 0.950 . S
C987 C985 1.327 . S
C988 C976 1.349 . S
C988 H982 0.950 . S
C988 C989 1.327 . S
C989 H983 0.950 . S
C989 C988 1.327 . S
C989 C993 1.429 . S
C990 C973 1.574 . S
C990 H984 0.949 . S
C990 C994 1.368 . S
C991 C972 1.429 . S
C991 C985 1.429 . S
C991 C992 1.523 . S
C992 C973 1.368 . S
C992 C986 1.368 . S
C992 C991 1.523 . S
C993 C977 1.429 . S
C993 C989 1.429 . S
C993 C994 1.523 . S
C994 C978 1.368 . S
C994 C990 1.368 . S
C994 C993 1.523 . S
H995 C970 0.950 . S
H996 C972 0.950 . S
H997 C973 0.949 . S
H998 C975 0.950 . S
H999 C977 0.950 . S
C1000 C1001 1.349 . S
C1000 C1002 1.327 . S
C1000 H1025 0.950 . S
C1001 C1000 1.349 . S
C1001 C1017 1.349 . S
C1002 C1000 1.327 . S
C1002 C1021 1.429 . S
C1002 H1026 0.950 . S
C1003 C1020 1.574 . S
C1003 C1022 1.368 . S
C1003 H1027 0.949 . S
H1004 C1008 0.949 . S
C1005 C1006 1.349 . S
C1005 C1007 1.327 . S
C1005 H1028 0.950 . S
C1006 C1005 1.349 . S
C1006 C1018 1.349 . S
C1007 C1005 1.327 . S
C1007 C1023 1.429 . S
C1007 H1029 0.950 . S
C1008 H1004 0.949 . S
C1008 C1016 1.574 . S
C1008 C1024 1.368 . S
H1009 C1017 0.950 . S
H1010 C1015 0.950 . S
H1011 C1016 0.949 . S
H1012 C1018 0.950 . S
H1013 C1019 0.950 . S
H1014 C1020 0.949 . S
C1015 H1010 0.950 . S
C1015 C1017 1.327 . S
C1015 C1021 1.429 . S
C1016 C1008 1.574 . S
C1016 H1011 0.949 . S
C1016 C1022 1.368 . S
C1017 C1001 1.349 . S
C1017 H1009 0.950 . S
C1017 C1015 1.327 . S
C1018 C1006 1.349 . S
C1018 H1012 0.950 . S
C1018 C1019 1.327 . S
C1019 H1013 0.950 . S
C1019 C1018 1.327 . S
C1019 C1023 1.429 . S
C1020 C1003 1.574 . S
C1020 H1014 0.949 . S
C1020 C1024 1.368 . S
C1021 C1002 1.429 . S
C1021 C1015 1.429 . S
C1021 C1022 1.523 . S
C1022 C1003 1.368 . S
C1022 C1016 1.368 . S
C1022 C1021 1.523 . S
C1023 C1007 1.429 . S
C1023 C1019 1.429 . S
C1023 C1024 1.523 . S
C1024 C1008 1.368 . S
C1024 C1020 1.368 . S
C1024 C1023 1.523 . S
H1025 C1000 0.950 . S
H1026 C1002 0.950 . S
H1027 C1003 0.949 . S
H1028 C1005 0.950 . S
H1029 C1007 0.950 . S
C1030 C1031 1.349 . S
C1030 C1032 1.327 . S
C1030 H1055 0.950 . S
C1031 C1030 1.349 . S
C1031 C1047 1.349 . S
C1032 C1030 1.327 . S
C1032 C1051 1.429 . S
C1032 H1056 0.950 . S
C1033 C1050 1.574 . S
C1033 C1052 1.368 . S
C1033 H1057 0.949 . S
H1034 C1038 0.949 . S
C1035 C1036 1.349 . S
C1035 C1037 1.327 . S
C1035 H1058 0.950 . S
C1036 C1035 1.349 . S
C1036 C1048 1.349 . S
C1037 C1035 1.327 . S
C1037 C1053 1.429 . S
C1037 H1059 0.950 . S
C1038 H1034 0.949 . S
C1038 C1046 1.574 . S
C1038 C1054 1.368 . S
H1039 C1047 0.950 . S
H1040 C1045 0.950 . S
H1041 C1046 0.949 . S
H1042 C1048 0.950 . S
H1043 C1049 0.950 . S
H1044 C1050 0.949 . S
C1045 H1040 0.950 . S
C1045 C1047 1.327 . S
C1045 C1051 1.429 . S
C1046 C1038 1.574 . S
C1046 H1041 0.949 . S
C1046 C1052 1.368 . S
C1047 C1031 1.349 . S
C1047 H1039 0.950 . S
C1047 C1045 1.327 . S
C1048 C1036 1.349 . S
C1048 H1042 0.950 . S
C1048 C1049 1.327 . S
C1049 H1043 0.950 . S
C1049 C1048 1.327 . S
C1049 C1053 1.429 . S
C1050 C1033 1.574 . S
C1050 H1044 0.949 . S
C1050 C1054 1.368 . S
C1051 C1032 1.429 . S
C1051 C1045 1.429 . S
C1051 C1052 1.523 . S
C1052 C1033 1.368 . S
C1052 C1046 1.368 . S
C1052 C1051 1.523 . S
C1053 C1037 1.429 . S
C1053 C1049 1.429 . S
C1053 C1054 1.523 . S
C1054 C1038 1.368 . S
C1054 C1050 1.368 . S
C1054 C1053 1.523 . S
H1055 C1030 0.950 . S
H1056 C1032 0.950 . S
H1057 C1033 0.949 . S
H1058 C1035 0.950 . S
H1059 C1037 0.950 . S
C1060 C1061 1.349 . S
C1060 C1062 1.327 . S
C1060 H1085 0.950 . S
C1061 C1060 1.349 . S
C1061 C1077 1.349 . S
C1062 C1060 1.327 . S
C1062 C1081 1.429 . S
C1062 H1086 0.950 . S
C1063 C1080 1.574 . S
C1063 C1082 1.368 . S
C1063 H1087 0.949 . S
H1064 C1068 0.949 . S
C1065 C1066 1.349 . S
C1065 C1067 1.327 . S
C1065 H1088 0.950 . S
C1066 C1065 1.349 . S
C1066 C1078 1.349 . S
C1067 C1065 1.327 . S
C1067 C1083 1.429 . S
C1067 H1089 0.950 . S
C1068 H1064 0.949 . S
C1068 C1076 1.574 . S
C1068 C1084 1.368 . S
H1069 C1077 0.950 . S
H1070 C1075 0.950 . S
H1071 C1076 0.949 . S
H1072 C1078 0.950 . S
H1073 C1079 0.950 . S
H1074 C1080 0.949 . S
C1075 H1070 0.950 . S
C1075 C1077 1.327 . S
C1075 C1081 1.429 . S
C1076 C1068 1.574 . S
C1076 H1071 0.949 . S
C1076 C1082 1.368 . S
C1077 C1061 1.349 . S
C1077 H1069 0.950 . S
C1077 C1075 1.327 . S
C1078 C1066 1.349 . S
C1078 H1072 0.950 . S
C1078 C1079 1.327 . S
C1079 H1073 0.950 . S
C1079 C1078 1.327 . S
C1079 C1083 1.429 . S
C1080 C1063 1.574 . S
C1080 H1074 0.949 . S
C1080 C1084 1.368 . S
C1081 C1062 1.429 . S
C1081 C1075 1.429 . S
C1081 C1082 1.523 . S
C1082 C1063 1.368 . S
C1082 C1076 1.368 . S
C1082 C1081 1.523 . S
C1083 C1067 1.429 . S
C1083 C1079 1.429 . S
C1083 C1084 1.523 . S
C1084 C1068 1.368 . S
C1084 C1080 1.368 . S
C1084 C1083 1.523 . S
H1085 C1060 0.950 . S
H1086 C1062 0.950 . S
H1087 C1063 0.949 . S
H1088 C1065 0.950 . S
H1089 C1067 0.950 . S
C1090 C1091 1.349 . S
C1090 C1092 1.327 . S
C1090 H1115 0.950 . S
C1091 C1090 1.349 . S
C1091 C1107 1.349 . S
C1092 C1090 1.327 . S
C1092 C1111 1.429 . S
C1092 H1116 0.950 . S
C1093 C1110 1.574 . S
C1093 C1112 1.368 . S
C1093 H1117 0.949 . S
H1094 C1098 0.949 . S
C1095 C1096 1.349 . S
C1095 C1097 1.327 . S
C1095 H1118 0.950 . S
C1096 C1095 1.349 . S
C1096 C1108 1.349 . S
C1097 C1095 1.327 . S
C1097 C1113 1.429 . S
C1097 H1119 0.950 . S
C1098 H1094 0.949 . S
C1098 C1106 1.574 . S
C1098 C1114 1.368 . S
H1099 C1107 0.950 . S
H1100 C1105 0.950 . S
H1101 C1106 0.949 . S
H1102 C1108 0.950 . S
H1103 C1109 0.950 . S
H1104 C1110 0.949 . S
C1105 H1100 0.950 . S
C1105 C1107 1.327 . S
C1105 C1111 1.429 . S
C1106 C1098 1.574 . S
C1106 H1101 0.949 . S
C1106 C1112 1.368 . S
C1107 C1091 1.349 . S
C1107 H1099 0.950 . S
C1107 C1105 1.327 . S
C1108 C1096 1.349 . S
C1108 H1102 0.950 . S
C1108 C1109 1.327 . S
C1109 H1103 0.950 . S
C1109 C1108 1.327 . S
C1109 C1113 1.429 . S
C1110 C1093 1.574 . S
C1110 H1104 0.949 . S
C1110 C1114 1.368 . S
C1111 C1092 1.429 . S
C1111 C1105 1.429 . S
C1111 C1112 1.523 . S
C1112 C1093 1.368 . S
C1112 C1106 1.368 . S
C1112 C1111 1.523 . S
C1113 C1097 1.429 . S
C1113 C1109 1.429 . S
C1113 C1114 1.523 . S
C1114 C1098 1.368 . S
C1114 C1110 1.368 . S
C1114 C1113 1.523 . S
H1115 C1090 0.950 . S
H1116 C1092 0.950 . S
H1117 C1093 0.949 . S
H1118 C1095 0.950 . S
H1119 C1097 0.950 . S
C1120 C1121 1.349 . S
C1120 C1122 1.327 . S
C1120 H1145 0.950 . S
C1121 C1120 1.349 . S
C1121 C1137 1.349 . S
C1122 C1120 1.327 . S
C1122 C1141 1.429 . S
C1122 H1146 0.950 . S
C1123 C1140 1.574 . S
C1123 C1142 1.368 . S
C1123 H1147 0.949 . S
H1124 C1128 0.949 . S
C1125 C1126 1.349 . S
C1125 C1127 1.327 . S
C1125 H1148 0.950 . S
C1126 C1125 1.349 . S
C1126 C1138 1.349 . S
C1127 C1125 1.327 . S
C1127 C1143 1.429 . S
C1127 H1149 0.950 . S
C1128 H1124 0.949 . S
C1128 C1136 1.574 . S
C1128 C1144 1.368 . S
H1129 C1137 0.950 . S
H1130 C1135 0.950 . S
H1131 C1136 0.949 . S
H1132 C1138 0.950 . S
H1133 C1139 0.950 . S
H1134 C1140 0.949 . S
C1135 H1130 0.950 . S
C1135 C1137 1.327 . S
C1135 C1141 1.429 . S
C1136 C1128 1.574 . S
C1136 H1131 0.949 . S
C1136 C1142 1.368 . S
C1137 C1121 1.349 . S
C1137 H1129 0.950 . S
C1137 C1135 1.327 . S
C1138 C1126 1.349 . S
C1138 H1132 0.950 . S
C1138 C1139 1.327 . S
C1139 H1133 0.950 . S
C1139 C1138 1.327 . S
C1139 C1143 1.429 . S
C1140 C1123 1.574 . S
C1140 H1134 0.949 . S
C1140 C1144 1.368 . S
C1141 C1122 1.429 . S
C1141 C1135 1.429 . S
C1141 C1142 1.523 . S
C1142 C1123 1.368 . S
C1142 C1136 1.368 . S
C1142 C1141 1.523 . S
C1143 C1127 1.429 . S
C1143 C1139 1.429 . S
C1143 C1144 1.523 . S
C1144 C1128 1.368 . S
C1144 C1140 1.368 . S
C1144 C1143 1.523 . S
H1145 C1120 0.950 . S
H1146 C1122 0.950 . S
H1147 C1123 0.949 . S
H1148 C1125 0.950 . S
H1149 C1127 0.950 . S
C1150 C1151 1.349 . S
C1150 C1152 1.327 . S
C1150 H1175 0.950 . S
C1151 C1150 1.349 . S
C1151 C1167 1.349 . S
C1152 C1150 1.327 . S
C1152 C1171 1.429 . S
C1152 H1176 0.950 . S
C1153 C1170 1.574 . S
C1153 C1172 1.368 . S
C1153 H1177 0.949 . S
H1154 C1158 0.949 . S
C1155 C1156 1.349 . S
C1155 C1157 1.327 . S
C1155 H1178 0.950 . S
C1156 C1155 1.349 . S
C1156 C1168 1.349 . S
C1157 C1155 1.327 . S
C1157 C1173 1.429 . S
C1157 H1179 0.950 . S
C1158 H1154 0.949 . S
C1158 C1166 1.574 . S
C1158 C1174 1.368 . S
H1159 C1167 0.950 . S
H1160 C1165 0.950 . S
H1161 C1166 0.949 . S
H1162 C1168 0.950 . S
H1163 C1169 0.950 . S
H1164 C1170 0.949 . S
C1165 H1160 0.950 . S
C1165 C1167 1.327 . S
C1165 C1171 1.429 . S
C1166 C1158 1.574 . S
C1166 H1161 0.949 . S
C1166 C1172 1.368 . S
C1167 C1151 1.349 . S
C1167 H1159 0.950 . S
C1167 C1165 1.327 . S
C1168 C1156 1.349 . S
C1168 H1162 0.950 . S
C1168 C1169 1.327 . S
C1169 H1163 0.950 . S
C1169 C1168 1.327 . S
C1169 C1173 1.429 . S
C1170 C1153 1.574 . S
C1170 H1164 0.949 . S
C1170 C1174 1.368 . S
C1171 C1152 1.429 . S
C1171 C1165 1.429 . S
C1171 C1172 1.523 . S
C1172 C1153 1.368 . S
C1172 C1166 1.368 . S
C1172 C1171 1.523 . S
C1173 C1157 1.429 . S
C1173 C1169 1.429 . S
C1173 C1174 1.523 . S
C1174 C1158 1.368 . S
C1174 C1170 1.368 . S
C1174 C1173 1.523 . S
H1175 C1150 0.950 . S
H1176 C1152 0.950 . S
H1177 C1153 0.949 . S
H1178 C1155 0.950 . S
H1179 C1157 0.950 . S
C1180 C1181 1.349 . S
C1180 C1182 1.327 . S
C1180 H1205 0.950 . S
C1181 C1180 1.349 . S
C1181 C1197 1.349 . S
C1182 C1180 1.327 . S
C1182 C1201 1.429 . S
C1182 H1206 0.950 . S
C1183 C1200 1.574 . S
C1183 C1202 1.368 . S
C1183 H1207 0.949 . S
H1184 C1188 0.949 . S
C1185 C1186 1.349 . S
C1185 C1187 1.327 . S
C1185 H1208 0.950 . S
C1186 C1185 1.349 . S
C1186 C1198 1.349 . S
C1187 C1185 1.327 . S
C1187 C1203 1.429 . S
C1187 H1209 0.950 . S
C1188 H1184 0.949 . S
C1188 C1196 1.574 . S
C1188 C1204 1.368 . S
H1189 C1197 0.950 . S
H1190 C1195 0.950 . S
H1191 C1196 0.949 . S
H1192 C1198 0.950 . S
H1193 C1199 0.950 . S
H1194 C1200 0.949 . S
C1195 H1190 0.950 . S
C1195 C1197 1.327 . S
C1195 C1201 1.429 . S
C1196 C1188 1.574 . S
C1196 H1191 0.949 . S
C1196 C1202 1.368 . S
C1197 C1181 1.349 . S
C1197 H1189 0.950 . S
C1197 C1195 1.327 . S
C1198 C1186 1.349 . S
C1198 H1192 0.950 . S
C1198 C1199 1.327 . S
C1199 H1193 0.950 . S
C1199 C1198 1.327 . S
C1199 C1203 1.429 . S
C1200 C1183 1.574 . S
C1200 H1194 0.949 . S
C1200 C1204 1.368 . S
C1201 C1182 1.429 . S
C1201 C1195 1.429 . S
C1201 C1202 1.523 . S
C1202 C1183 1.368 . S
C1202 C1196 1.368 . S
C1202 C1201 1.523 . S
C1203 C1187 1.429 . S
C1203 C1199 1.429 . S
C1203 C1204 1.523 . S
C1204 C1188 1.368 . S
C1204 C1200 1.368 . S
C1204 C1203 1.523 . S
H1205 C1180 0.950 . S
H1206 C1182 0.950 . S
H1207 C1183 0.949 . S
H1208 C1185 0.950 . S
H1209 C1187 0.950 . S
C1210 C1211 1.349 . S
C1210 C1212 1.327 . S
C1210 H1235 0.950 . S
C1211 C1210 1.349 . S
C1211 C1227 1.349 . S
C1212 C1210 1.327 . S
C1212 C1231 1.429 . S
C1212 H1236 0.950 . S
C1213 C1230 1.574 . S
C1213 C1232 1.368 . S
C1213 H1237 0.949 . S
H1214 C1218 0.949 . S
C1215 C1216 1.349 . S
C1215 C1217 1.327 . S
C1215 H1238 0.950 . S
C1216 C1215 1.349 . S
C1216 C1228 1.349 . S
C1217 C1215 1.327 . S
C1217 C1233 1.429 . S
C1217 H1239 0.950 . S
C1218 H1214 0.949 . S
C1218 C1226 1.574 . S
C1218 C1234 1.368 . S
H1219 C1227 0.950 . S
H1220 C1225 0.950 . S
H1221 C1226 0.949 . S
H1222 C1228 0.950 . S
H1223 C1229 0.950 . S
H1224 C1230 0.949 . S
C1225 H1220 0.950 . S
C1225 C1227 1.327 . S
C1225 C1231 1.429 . S
C1226 C1218 1.574 . S
C1226 H1221 0.949 . S
C1226 C1232 1.368 . S
C1227 C1211 1.349 . S
C1227 H1219 0.950 . S
C1227 C1225 1.327 . S
C1228 C1216 1.349 . S
C1228 H1222 0.950 . S
C1228 C1229 1.327 . S
C1229 H1223 0.950 . S
C1229 C1228 1.327 . S
C1229 C1233 1.429 . S
C1230 C1213 1.574 . S
C1230 H1224 0.949 . S
C1230 C1234 1.368 . S
C1231 C1212 1.429 . S
C1231 C1225 1.429 . S
C1231 C1232 1.523 . S
C1232 C1213 1.368 . S
C1232 C1226 1.368 . S
C1232 C1231 1.523 . S
C1233 C1217 1.429 . S
C1233 C1229 1.429 . S
C1233 C1234 1.523 . S
C1234 C1218 1.368 . S
C1234 C1230 1.368 . S
C1234 C1233 1.523 . S
H1235 C1210 0.950 . S
H1236 C1212 0.950 . S
H1237 C1213 0.949 . S
H1238 C1215 0.950 . S
H1239 C1217 0.950 . S
C1240 C1241 1.349 . S
C1240 C1242 1.327 . S
C1240 H1265 0.950 . S
C1241 C1240 1.349 . S
C1241 C1257 1.349 . S
C1242 C1240 1.327 . S
C1242 C1261 1.429 . S
C1242 H1266 0.950 . S
C1243 C1260 1.574 . S
C1243 C1262 1.368 . S
C1243 H1267 0.949 . S
H1244 C1248 0.949 . S
C1245 C1246 1.349 . S
C1245 C1247 1.327 . S
C1245 H1268 0.950 . S
C1246 C1245 1.349 . S
C1246 C1258 1.349 . S
C1247 C1245 1.327 . S
C1247 C1263 1.429 . S
C1247 H1269 0.950 . S
C1248 H1244 0.949 . S
C1248 C1256 1.574 . S
C1248 C1264 1.368 . S
H1249 C1257 0.950 . S
H1250 C1255 0.950 . S
H1251 C1256 0.949 . S
H1252 C1258 0.950 . S
H1253 C1259 0.950 . S
H1254 C1260 0.949 . S
C1255 H1250 0.950 . S
C1255 C1257 1.327 . S
C1255 C1261 1.429 . S
C1256 C1248 1.574 . S
C1256 H1251 0.949 . S
C1256 C1262 1.368 . S
C1257 C1241 1.349 . S
C1257 H1249 0.950 . S
C1257 C1255 1.327 . S
C1258 C1246 1.349 . S
C1258 H1252 0.950 . S
C1258 C1259 1.327 . S
C1259 H1253 0.950 . S
C1259 C1258 1.327 . S
C1259 C1263 1.429 . S
C1260 C1243 1.574 . S
C1260 H1254 0.949 . S
C1260 C1264 1.368 . S
C1261 C1242 1.429 . S
C1261 C1255 1.429 . S
C1261 C1262 1.523 . S
C1262 C1243 1.368 . S
C1262 C1256 1.368 . S
C1262 C1261 1.523 . S
C1263 C1247 1.429 . S
C1263 C1259 1.429 . S
C1263 C1264 1.523 . S
C1264 C1248 1.368 . S
C1264 C1260 1.368 . S
C1264 C1263 1.523 . S
H1265 C1240 0.950 . S
H1266 C1242 0.950 . S
H1267 C1243 0.949 . S
H1268 C1245 0.950 . S
H1269 C1247 0.950 . S
C1270 C1271 1.349 . S
C1270 C1272 1.327 . S
C1270 H1295 0.950 . S
C1271 C1270 1.349 . S
C1271 C1287 1.349 . S
C1272 C1270 1.327 . S
C1272 C1291 1.429 . S
C1272 H1296 0.950 . S
C1273 C1290 1.574 . S
C1273 C1292 1.368 . S
C1273 H1297 0.949 . S
H1274 C1278 0.949 . S
C1275 C1276 1.349 . S
C1275 C1277 1.327 . S
C1275 H1298 0.950 . S
C1276 C1275 1.349 . S
C1276 C1288 1.349 . S
C1277 C1275 1.327 . S
C1277 C1293 1.429 . S
C1277 H1299 0.950 . S
C1278 H1274 0.949 . S
C1278 C1286 1.574 . S
C1278 C1294 1.368 . S
H1279 C1287 0.950 . S
H1280 C1285 0.950 . S
H1281 C1286 0.949 . S
H1282 C1288 0.950 . S
H1283 C1289 0.950 . S
H1284 C1290 0.949 . S
C1285 H1280 0.950 . S
C1285 C1287 1.327 . S
C1285 C1291 1.429 . S
C1286 C1278 1.574 . S
C1286 H1281 0.949 . S
C1286 C1292 1.368 . S
C1287 C1271 1.349 . S
C1287 H1279 0.950 . S
C1287 C1285 1.327 . S
C1288 C1276 1.349 . S
C1288 H1282 0.950 . S
C1288 C1289 1.327 . S
C1289 H1283 0.950 . S
C1289 C1288 1.327 . S
C1289 C1293 1.429 . S
C1290 C1273 1.574 . S
C1290 H1284 0.949 . S
C1290 C1294 1.368 . S
C1291 C1272 1.429 . S
C1291 C1285 1.429 . S
C1291 C1292 1.523 . S
C1292 C1273 1.368 . S
C1292 C1286 1.368 . S
C1292 C1291 1.523 . S
C1293 C1277 1.429 . S
C1293 C1289 1.429 . S
C1293 C1294 1.523 . S
C1294 C1278 1.368 . S
C1294 C1290 1.368 . S
C1294 C1293 1.523 . S
H1295 C1270 0.950 . S
H1296 C1272 0.950 . S
H1297 C1273 0.949 . S
H1298 C1275 0.950 . S
H1299 C1277 0.950 . S
C1300 C1301 1.349 . S
C1300 C1302 1.327 . S
C1300 H1325 0.950 . S
C1301 C1300 1.349 . S
C1301 C1317 1.349 . S
C1302 C1300 1.327 . S
C1302 C1321 1.429 . S
C1302 H1326 0.950 . S
C1303 C1320 1.574 . S
C1303 C1322 1.368 . S
C1303 H1327 0.949 . S
H1304 C1308 0.949 . S
C1305 C1306 1.349 . S
C1305 C1307 1.327 . S
C1305 H1328 0.950 . S
C1306 C1305 1.349 . S
C1306 C1318 1.349 . S
C1307 C1305 1.327 . S
C1307 C1323 1.429 . S
C1307 H1329 0.950 . S
C1308 H1304 0.949 . S
C1308 C1316 1.574 . S
C1308 C1324 1.368 . S
H1309 C1317 0.950 . S
H1310 C1315 0.950 . S
H1311 C1316 0.949 . S
H1312 C1318 0.950 . S
H1313 C1319 0.950 . S
H1314 C1320 0.949 . S
C1315 H1310 0.950 . S
C1315 C1317 1.327 . S
C1315 C1321 1.429 . S
C1316 C1308 1.574 . S
C1316 H1311 0.949 . S
C1316 C1322 1.368 . S
C1317 C1301 1.349 . S
C1317 H1309 0.950 . S
C1317 C1315 1.327 . S
C1318 C1306 1.349 . S
C1318 H1312 0.950 . S
C1318 C1319 1.327 . S
C1319 H1313 0.950 . S
C1319 C1318 1.327 . S
C1319 C1323 1.429 . S
C1320 C1303 1.574 . S
C1320 H1314 0.949 . S
C1320 C1324 1.368 . S
C1321 C1302 1.429 . S
C1321 C1315 1.429 . S
C1321 C1322 1.523 . S
C1322 C1303 1.368 . S
C1322 C1316 1.368 . S
C1322 C1321 1.523 . S
C1323 C1307 1.429 . S
C1323 C1319 1.429 . S
C1323 C1324 1.523 . S
C1324 C1308 1.368 . S
C1324 C1320 1.368 . S
C1324 C1323 1.523 . S
H1325 C1300 0.950 . S
H1326 C1302 0.950 . S
H1327 C1303 0.949 . S
H1328 C1305 0.950 . S
H1329 C1307 0.950 . S
C1330 C1331 1.349 . S
C1330 C1332 1.327 . S
C1330 H1355 0.950 . S
C1331 C1330 1.349 . S
C1331 C1347 1.349 . S
C1332 C1330 1.327 . S
C1332 C1351 1.429 . S
C1332 H1356 0.950 . S
C1333 C1350 1.574 . S
C1333 C1352 1.368 . S
C1333 H1357 0.949 . S
H1334 C1338 0.949 . S
C1335 C1336 1.349 . S
C1335 C1337 1.327 . S
C1335 H1358 0.950 . S
C1336 C1335 1.349 . S
C1336 C1348 1.349 . S
C1337 C1335 1.327 . S
C1337 C1353 1.429 . S
C1337 H1359 0.950 . S
C1338 H1334 0.949 . S
C1338 C1346 1.574 . S
C1338 C1354 1.368 . S
H1339 C1347 0.950 . S
H1340 C1345 0.950 . S
H1341 C1346 0.949 . S
H1342 C1348 0.950 . S
H1343 C1349 0.950 . S
H1344 C1350 0.949 . S
C1345 H1340 0.950 . S
C1345 C1347 1.327 . S
C1345 C1351 1.429 . S
C1346 C1338 1.574 . S
C1346 H1341 0.949 . S
C1346 C1352 1.368 . S
C1347 C1331 1.349 . S
C1347 H1339 0.950 . S
C1347 C1345 1.327 . S
C1348 C1336 1.349 . S
C1348 H1342 0.950 . S
C1348 C1349 1.327 . S
C1349 H1343 0.950 . S
C1349 C1348 1.327 . S
C1349 C1353 1.429 . S
C1350 C1333 1.574 . S
C1350 H1344 0.949 . S
C1350 C1354 1.368 . S
C1351 C1332 1.429 . S
C1351 C1345 1.429 . S
C1351 C1352 1.523 . S
C1352 C1333 1.368 . S
C1352 C1346 1.368 . S
C1352 C1351 1.523 . S
C1353 C1337 1.429 . S
C1353 C1349 1.429 . S
C1353 C1354 1.523 . S
C1354 C1338 1.368 . S
C1354 C1350 1.368 . S
C1354 C1353 1.523 . S
H1355 C1330 0.950 . S
H1356 C1332 0.950 . S
H1357 C1333 0.949 . S
H1358 C1335 0.950 . S
H1359 C1337 0.950 . S
C1360 C1361 1.349 . S
C1360 C1362 1.327 . S
C1360 H1385 0.950 . S
C1361 C1360 1.349 . S
C1361 C1377 1.349 . S
C1362 C1360 1.327 . S
C1362 C1381 1.429 . S
C1362 H1386 0.950 . S
C1363 C1380 1.574 . S
C1363 C1382 1.368 . S
C1363 H1387 0.949 . S
H1364 C1368 0.949 . S
C1365 C1366 1.349 . S
C1365 C1367 1.327 . S
C1365 H1388 0.950 . S
C1366 C1365 1.349 . S
C1366 C1378 1.349 . S
C1367 C1365 1.327 . S
C1367 C1383 1.429 . S
C1367 H1389 0.950 . S
C1368 H1364 0.949 . S
C1368 C1376 1.574 . S
C1368 C1384 1.368 . S
H1369 C1377 0.950 . S
H1370 C1375 0.950 . S
H1371 C1376 0.949 . S
H1372 C1378 0.950 . S
H1373 C1379 0.950 . S
H1374 C1380 0.949 . S
C1375 H1370 0.950 . S
C1375 C1377 1.327 . S
C1375 C1381 1.429 . S
C1376 C1368 1.574 . S
C1376 H1371 0.949 . S
C1376 C1382 1.368 . S
C1377 C1361 1.349 . S
C1377 H1369 0.950 . S
C1377 C1375 1.327 . S
C1378 C1366 1.349 . S
C1378 H1372 0.950 . S
C1378 C1379 1.327 . S
C1379 H1373 0.950 . S
C1379 C1378 1.327 . S
C1379 C1383 1.429 . S
C1380 C1363 1.574 . S
C1380 H1374 0.949 . S
C1380 C1384 1.368 . S
C1381 C1362 1.429 . S
C1381 C1375 1.429 . S
C1381 C1382 1.523 . S
C1382 C1363 1.368 . S
C1382 C1376 1.368 . S
C1382 C1381 1.523 . S
C1383 C1367 1.429 . S
C1383 C1379 1.429 . S
C1383 C1384 1.523 . S
C1384 C1368 1.368 . S
C1384 C1380 1.368 . S
C1384 C1383 1.523 . S
H1385 C1360 0.950 . S
H1386 C1362 0.950 . S
H1387 C1363 0.949 . S
H1388 C1365 0.950 . S
H1389 C1367 0.950 . S
C1390 C1391 1.349 . S
C1390 C1392 1.327 . S
C1390 H1415 0.950 . S
C1391 C1390 1.349 . S
C1391 C1407 1.349 . S
C1392 C1390 1.327 . S
C1392 C1411 1.429 . S
C1392 H1416 0.950 . S
C1393 C1410 1.574 . S
C1393 C1412 1.368 . S
C1393 H1417 0.949 . S
H1394 C1398 0.949 . S
C1395 C1396 1.349 . S
C1395 C1397 1.327 . S
C1395 H1418 0.950 . S
C1396 C1395 1.349 . S
C1396 C1408 1.349 . S
C1397 C1395 1.327 . S
C1397 C1413 1.429 . S
C1397 H1419 0.950 . S
C1398 H1394 0.949 . S
C1398 C1406 1.574 . S
C1398 C1414 1.368 . S
H1399 C1407 0.950 . S
H1400 C1405 0.950 . S
H1401 C1406 0.949 . S
H1402 C1408 0.950 . S
H1403 C1409 0.950 . S
H1404 C1410 0.949 . S
C1405 H1400 0.950 . S
C1405 C1407 1.327 . S
C1405 C1411 1.429 . S
C1406 C1398 1.574 . S
C1406 H1401 0.949 . S
C1406 C1412 1.368 . S
C1407 C1391 1.349 . S
C1407 H1399 0.950 . S
C1407 C1405 1.327 . S
C1408 C1396 1.349 . S
C1408 H1402 0.950 . S
C1408 C1409 1.327 . S
C1409 H1403 0.950 . S
C1409 C1408 1.327 . S
C1409 C1413 1.429 . S
C1410 C1393 1.574 . S
C1410 H1404 0.949 . S
C1410 C1414 1.368 . S
C1411 C1392 1.429 . S
C1411 C1405 1.429 . S
C1411 C1412 1.523 . S
C1412 C1393 1.368 . S
C1412 C1406 1.368 . S
C1412 C1411 1.523 . S
C1413 C1397 1.429 . S
C1413 C1409 1.429 . S
C1413 C1414 1.523 . S
C1414 C1398 1.368 . S
C1414 C1410 1.368 . S
C1414 C1413 1.523 . S
H1415 C1390 0.950 . S
H1416 C1392 0.950 . S
H1417 C1393 0.949 . S
H1418 C1395 0.950 . S
H1419 C1397 0.950 . S
C1420 C1421 1.349 . S
C1420 C1422 1.327 . S
C1420 H1445 0.950 . S
C1421 C1420 1.349 . S
C1421 C1437 1.349 . S
C1422 C1420 1.327 . S
C1422 C1441 1.429 . S
C1422 H1446 0.950 . S
C1423 C1440 1.574 . S
C1423 C1442 1.368 . S
C1423 H1447 0.949 . S
H1424 C1428 0.949 . S
C1425 C1426 1.349 . S
C1425 C1427 1.327 . S
C1425 H1448 0.950 . S
C1426 C1425 1.349 . S
C1426 C1438 1.349 . S
C1427 C1425 1.327 . S
C1427 C1443 1.429 . S
C1427 H1449 0.950 . S
C1428 H1424 0.949 . S
C1428 C1436 1.574 . S
C1428 C1444 1.368 . S
H1429 C1437 0.950 . S
H1430 C1435 0.950 . S
H1431 C1436 0.949 . S
H1432 C1438 0.950 . S
H1433 C1439 0.950 . S
H1434 C1440 0.949 . S
C1435 H1430 0.950 . S
C1435 C1437 1.327 . S
C1435 C1441 1.429 . S
C1436 C1428 1.574 . S
C1436 H1431 0.949 . S
C1436 C1442 1.368 . S
C1437 C1421 1.349 . S
C1437 H1429 0.950 . S
C1437 C1435 1.327 . S
C1438 C1426 1.349 . S
C1438 H1432 0.950 . S
C1438 C1439 1.327 . S
C1439 H1433 0.950 . S
C1439 C1438 1.327 . S
C1439 C1443 1.429 . S
C1440 C1423 1.574 . S
C1440 H1434 0.949 . S
C1440 C1444 1.368 . S
C1441 C1422 1.429 . S
C1441 C1435 1.429 . S
C1441 C1442 1.523 . S
C1442 C1423 1.368 . S
C1442 C1436 1.368 . S
C1442 C1441 1.523 . S
C1443 C1427 1.429 . S
C1443 C1439 1.429 . S
C1443 C1444 1.523 . S
C1444 C1428 1.368 . S
C1444 C1440 1.368 . S
C1444 C1443 1.523 . S
H1445 C1420 0.950 . S
H1446 C1422 0.950 . S
H1447 C1423 0.949 . S
H1448 C1425 0.950 . S
H1449 C1427 0.950 . S
C1450 C1451 1.349 . S
C1450 C1452 1.327 . S
C1450 H1475 0.950 . S
C1451 C1450 1.349 . S
C1451 C1467 1.349 . S
C1452 C1450 1.327 . S
C1452 C1471 1.429 . S
C1452 H1476 0.950 . S
C1453 C1470 1.574 . S
C1453 C1472 1.368 . S
C1453 H1477 0.949 . S
H1454 C1458 0.949 . S
C1455 C1456 1.349 . S
C1455 C1457 1.327 . S
C1455 H1478 0.950 . S
C1456 C1455 1.349 . S
C1456 C1468 1.349 . S
C1457 C1455 1.327 . S
C1457 C1473 1.429 . S
C1457 H1479 0.950 . S
C1458 H1454 0.949 . S
C1458 C1466 1.574 . S
C1458 C1474 1.368 . S
H1459 C1467 0.950 . S
H1460 C1465 0.950 . S
H1461 C1466 0.949 . S
H1462 C1468 0.950 . S
H1463 C1469 0.950 . S
H1464 C1470 0.949 . S
C1465 H1460 0.950 . S
C1465 C1467 1.327 . S
C1465 C1471 1.429 . S
C1466 C1458 1.574 . S
C1466 H1461 0.949 . S
C1466 C1472 1.368 . S
C1467 C1451 1.349 . S
C1467 H1459 0.950 . S
C1467 C1465 1.327 . S
C1468 C1456 1.349 . S
C1468 H1462 0.950 . S
C1468 C1469 1.327 . S
C1469 H1463 0.950 . S
C1469 C1468 1.327 . S
C1469 C1473 1.429 . S
C1470 C1453 1.574 . S
C1470 H1464 0.949 . S
C1470 C1474 1.368 . S
C1471 C1452 1.429 . S
C1471 C1465 1.429 . S
C1471 C1472 1.523 . S
C1472 C1453 1.368 . S
C1472 C1466 1.368 . S
C1472 C1471 1.523 . S
C1473 C1457 1.429 . S
C1473 C1469 1.429 . S
C1473 C1474 1.523 . S
C1474 C1458 1.368 . S
C1474 C1470 1.368 . S
C1474 C1473 1.523 . S
H1475 C1450 0.950 . S
H1476 C1452 0.950 . S
H1477 C1453 0.949 . S
H1478 C1455 0.950 . S
H1479 C1457 0.950 . S
C1480 C1481 1.349 . S
C1480 C1482 1.327 . S
C1480 H1505 0.950 . S
C1481 C1480 1.349 . S
C1481 C1497 1.349 . S
C1482 C1480 1.327 . S
C1482 C1501 1.429 . S
C1482 H1506 0.950 . S
C1483 C1500 1.574 . S
C1483 C1502 1.368 . S
C1483 H1507 0.949 . S
H1484 C1488 0.949 . S
C1485 C1486 1.349 . S
C1485 C1487 1.327 . S
C1485 H1508 0.950 . S
C1486 C1485 1.349 . S
C1486 C1498 1.349 . S
C1487 C1485 1.327 . S
C1487 C1503 1.429 . S
C1487 H1509 0.950 . S
C1488 H1484 0.949 . S
C1488 C1496 1.574 . S
C1488 C1504 1.368 . S
H1489 C1497 0.950 . S
H1490 C1495 0.950 . S
H1491 C1496 0.949 . S
H1492 C1498 0.950 . S
H1493 C1499 0.950 . S
H1494 C1500 0.949 . S
C1495 H1490 0.950 . S
C1495 C1497 1.327 . S
C1495 C1501 1.429 . S
C1496 C1488 1.574 . S
C1496 H1491 0.949 . S
C1496 C1502 1.368 . S
C1497 C1481 1.349 . S
C1497 H1489 0.950 . S
C1497 C1495 1.327 . S
C1498 C1486 1.349 . S
C1498 H1492 0.950 . S
C1498 C1499 1.327 . S
C1499 H1493 0.950 . S
C1499 C1498 1.327 . S
C1499 C1503 1.429 . S
C1500 C1483 1.574 . S
C1500 H1494 0.949 . S
C1500 C1504 1.368 . S
C1501 C1482 1.429 . S
C1501 C1495 1.429 . S
C1501 C1502 1.523 . S
C1502 C1483 1.368 . S
C1502 C1496 1.368 . S
C1502 C1501 1.523 . S
C1503 C1487 1.429 . S
C1503 C1499 1.429 . S
C1503 C1504 1.523 . S
C1504 C1488 1.368 . S
C1504 C1500 1.368 . S
C1504 C1503 1.523 . S
H1505 C1480 0.950 . S
H1506 C1482 0.950 . S
H1507 C1483 0.949 . S
H1508 C1485 0.950 . S
H1509 C1487 0.950 . S
C1510 C1511 1.349 . S
C1510 C1512 1.327 . S
C1510 H1535 0.950 . S
C1511 C1510 1.349 . S
C1511 C1527 1.349 . S
C1512 C1510 1.327 . S
C1512 C1531 1.429 . S
C1512 H1536 0.950 . S
C1513 C1530 1.574 . S
C1513 C1532 1.368 . S
C1513 H1537 0.949 . S
H1514 C1518 0.949 . S
C1515 C1516 1.349 . S
C1515 C1517 1.327 . S
C1515 H1538 0.950 . S
C1516 C1515 1.349 . S
C1516 C1528 1.349 . S
C1517 C1515 1.327 . S
C1517 C1533 1.429 . S
C1517 H1539 0.950 . S
C1518 H1514 0.949 . S
C1518 C1526 1.574 . S
C1518 C1534 1.368 . S
H1519 C1527 0.950 . S
H1520 C1525 0.950 . S
H1521 C1526 0.949 . S
H1522 C1528 0.950 . S
H1523 C1529 0.950 . S
H1524 C1530 0.949 . S
C1525 H1520 0.950 . S
C1525 C1527 1.327 . S
C1525 C1531 1.429 . S
C1526 C1518 1.574 . S
C1526 H1521 0.949 . S
C1526 C1532 1.368 . S
C1527 C1511 1.349 . S
C1527 H1519 0.950 . S
C1527 C1525 1.327 . S
C1528 C1516 1.349 . S
C1528 H1522 0.950 . S
C1528 C1529 1.327 . S
C1529 H1523 0.950 . S
C1529 C1528 1.327 . S
C1529 C1533 1.429 . S
C1530 C1513 1.574 . S
C1530 H1524 0.949 . S
C1530 C1534 1.368 . S
C1531 C1512 1.429 . S
C1531 C1525 1.429 . S
C1531 C1532 1.523 . S
C1532 C1513 1.368 . S
C1532 C1526 1.368 . S
C1532 C1531 1.523 . S
C1533 C1517 1.429 . S
C1533 C1529 1.429 . S
C1533 C1534 1.523 . S
C1534 C1518 1.368 . S
C1534 C1530 1.368 . S
C1534 C1533 1.523 . S
H1535 C1510 0.950 . S
H1536 C1512 0.950 . S
H1537 C1513 0.949 . S
H1538 C1515 0.950 . S
H1539 C1517 0.950 . S
C1540 C1541 1.349 . S
C1540 C1542 1.327 . S
C1540 H1565 0.950 . S
C1541 C1540 1.349 . S
C1541 C1557 1.349 . S
C1542 C1540 1.327 . S
C1542 C1561 1.429 . S
C1542 H1566 0.950 . S
C1543 C1560 1.574 . S
C1543 C1562 1.368 . S
C1543 H1567 0.949 . S
H1544 C1548 0.949 . S
C1545 C1546 1.349 . S
C1545 C1547 1.327 . S
C1545 H1568 0.950 . S
C1546 C1545 1.349 . S
C1546 C1558 1.349 . S
C1547 C1545 1.327 . S
C1547 C1563 1.429 . S
C1547 H1569 0.950 . S
C1548 H1544 0.949 . S
C1548 C1556 1.574 . S
C1548 C1564 1.368 . S
H1549 C1557 0.950 . S
H1550 C1555 0.950 . S
H1551 C1556 0.949 . S
H1552 C1558 0.950 . S
H1553 C1559 0.950 . S
H1554 C1560 0.949 . S
C1555 H1550 0.950 . S
C1555 C1557 1.327 . S
C1555 C1561 1.429 . S
C1556 C1548 1.574 . S
C1556 H1551 0.949 . S
C1556 C1562 1.368 . S
C1557 C1541 1.349 . S
C1557 H1549 0.950 . S
C1557 C1555 1.327 . S
C1558 C1546 1.349 . S
C1558 H1552 0.950 . S
C1558 C1559 1.327 . S
C1559 H1553 0.950 . S
C1559 C1558 1.327 . S
C1559 C1563 1.429 . S
C1560 C1543 1.574 . S
C1560 H1554 0.949 . S
C1560 C1564 1.368 . S
C1561 C1542 1.429 . S
C1561 C1555 1.429 . S
C1561 C1562 1.523 . S
C1562 C1543 1.368 . S
C1562 C1556 1.368 . S
C1562 C1561 1.523 . S
C1563 C1547 1.429 . S
C1563 C1559 1.429 . S
C1563 C1564 1.523 . S
C1564 C1548 1.368 . S
C1564 C1560 1.368 . S
C1564 C1563 1.523 . S
H1565 C1540 0.950 . S
H1566 C1542 0.950 . S
H1567 C1543 0.949 . S
H1568 C1545 0.950 . S
H1569 C1547 0.950 . S
C1570 C1571 1.349 . S
C1570 C1572 1.327 . S
C1570 H1595 0.950 . S
C1571 C1570 1.349 . S
C1571 C1587 1.349 . S
C1572 C1570 1.327 . S
C1572 C1591 1.429 . S
C1572 H1596 0.950 . S
C1573 C1590 1.574 . S
C1573 C1592 1.368 . S
C1573 H1597 0.949 . S
H1574 C1578 0.949 . S
C1575 C1576 1.349 . S
C1575 C1577 1.327 . S
C1575 H1598 0.950 . S
C1576 C1575 1.349 . S
C1576 C1588 1.349 . S
C1577 C1575 1.327 . S
C1577 C1593 1.429 . S
C1577 H1599 0.950 . S
C1578 H1574 0.949 . S
C1578 C1586 1.574 . S
C1578 C1594 1.368 . S
H1579 C1587 0.950 . S
H1580 C1585 0.950 . S
H1581 C1586 0.949 . S
H1582 C1588 0.950 . S
H1583 C1589 0.950 . S
H1584 C1590 0.949 . S
C1585 H1580 0.950 . S
C1585 C1587 1.327 . S
C1585 C1591 1.429 . S
C1586 C1578 1.574 . S
C1586 H1581 0.949 . S
C1586 C1592 1.368 . S
C1587 C1571 1.349 . S
C1587 H1579 0.950 . S
C1587 C1585 1.327 . S
C1588 C1576 1.349 . S
C1588 H1582 0.950 . S
C1588 C1589 1.327 . S
C1589 H1583 0.950 . S
C1589 C1588 1.327 . S
C1589 C1593 1.429 . S
C1590 C1573 1.574 . S
C1590 H1584 0.949 . S
C1590 C1594 1.368 . S
C1591 C1572 1.429 . S
C1591 C1585 1.429 . S
C1591 C1592 1.523 . S
C1592 C1573 1.368 . S
C1592 C1586 1.368 . S
C1592 C1591 1.523 . S
C1593 C1577 1.429 . S
C1593 C1589 1.429 . S
C1593 C1594 1.523 . S
C1594 C1578 1.368 . S
C1594 C1590 1.368 . S
C1594 C1593 1.523 . S
H1595 C1570 0.950 . S
H1596 C1572 0.950 . S
H1597 C1573 0.949 . S
H1598 C1575 0.950 . S
H1599 C1577 0.950 . S
C1600 C1601 1.349 . S
C1600 C1602 1.327 . S
C1600 H1625 0.950 . S
C1601 C1600 1.349 . S
C1601 C1617 1.349 . S
C1602 C1600 1.327 . S
C1602 C1621 1.429 . S
C1602 H1626 0.950 . S
C1603 C1620 1.574 . S
C1603 C1622 1.368 . S
C1603 H1627 0.949 . S
H1604 C1608 0.949 . S
C1605 C1606 1.349 . S
C1605 C1607 1.327 . S
C1605 H1628 0.950 . S
C1606 C1605 1.349 . S
C1606 C1618 1.349 . S
C1607 C1605 1.327 . S
C1607 C1623 1.429 . S
C1607 H1629 0.950 . S
C1608 H1604 0.949 . S
C1608 C1616 1.574 . S
C1608 C1624 1.368 . S
H1609 C1617 0.950 . S
H1610 C1615 0.950 . S
H1611 C1616 0.949 . S
H1612 C1618 0.950 . S
H1613 C1619 0.950 . S
H1614 C1620 0.949 . S
C1615 H1610 0.950 . S
C1615 C1617 1.327 . S
C1615 C1621 1.429 . S
C1616 C1608 1.574 . S
C1616 H1611 0.949 . S
C1616 C1622 1.368 . S
C1617 C1601 1.349 . S
C1617 H1609 0.950 . S
C1617 C1615 1.327 . S
C1618 C1606 1.349 . S
C1618 H1612 0.950 . S
C1618 C1619 1.327 . S
C1619 H1613 0.950 . S
C1619 C1618 1.327 . S
C1619 C1623 1.429 . S
C1620 C1603 1.574 . S
C1620 H1614 0.949 . S
C1620 C1624 1.368 . S
C1621 C1602 1.429 . S
C1621 C1615 1.429 . S
C1621 C1622 1.523 . S
C1622 C1603 1.368 . S
C1622 C1616 1.368 . S
C1622 C1621 1.523 . S
C1623 C1607 1.429 . S
C1623 C1619 1.429 . S
C1623 C1624 1.523 . S
C1624 C1608 1.368 . S
C1624 C1620 1.368 . S
C1624 C1623 1.523 . S
H1625 C1600 0.950 . S
H1626 C1602 0.950 . S
H1627 C1603 0.949 . S
H1628 C1605 0.950 . S
H1629 C1607 0.950 . S
C1630 C1631 1.349 . S
C1630 C1632 1.327 . S
C1630 H1655 0.950 . S
C1631 C1630 1.349 . S
C1631 C1647 1.349 . S
C1632 C1630 1.327 . S
C1632 C1651 1.429 . S
C1632 H1656 0.950 . S
C1633 C1650 1.574 . S
C1633 C1652 1.368 . S
C1633 H1657 0.949 . S
H1634 C1638 0.949 . S
C1635 C1636 1.349 . S
C1635 C1637 1.327 . S
C1635 H1658 0.950 . S
C1636 C1635 1.349 . S
C1636 C1648 1.349 . S
C1637 C1635 1.327 . S
C1637 C1653 1.429 . S
C1637 H1659 0.950 . S
C1638 H1634 0.949 . S
C1638 C1646 1.574 . S
C1638 C1654 1.368 . S
H1639 C1647 0.950 . S
H1640 C1645 0.950 . S
H1641 C1646 0.949 . S
H1642 C1648 0.950 . S
H1643 C1649 0.950 . S
H1644 C1650 0.949 . S
C1645 H1640 0.950 . S
C1645 C1647 1.327 . S
C1645 C1651 1.429 . S
C1646 C1638 1.574 . S
C1646 H1641 0.949 . S
C1646 C1652 1.368 . S
C1647 C1631 1.349 . S
C1647 H1639 0.950 . S
C1647 C1645 1.327 . S
C1648 C1636 1.349 . S
C1648 H1642 0.950 . S
C1648 C1649 1.327 . S
C1649 H1643 0.950 . S
C1649 C1648 1.327 . S
C1649 C1653 1.429 . S
C1650 C1633 1.574 . S
C1650 H1644 0.949 . S
C1650 C1654 1.368 . S
C1651 C1632 1.429 . S
C1651 C1645 1.429 . S
C1651 C1652 1.523 . S
C1652 C1633 1.368 . S
C1652 C1646 1.368 . S
C1652 C1651 1.523 . S
C1653 C1637 1.429 . S
C1653 C1649 1.429 . S
C1653 C1654 1.523 . S
C1654 C1638 1.368 . S
C1654 C1650 1.368 . S
C1654 C1653 1.523 . S
H1655 C1630 0.950 . S
H1656 C1632 0.950 . S
H1657 C1633 0.949 . S
H1658 C1635 0.950 . S
H1659 C1637 0.950 . S
C1660 C1661 1.349 . S
C1660 C1662 1.327 . S
C1660 H1685 0.950 . S
C1661 C1660 1.349 . S
C1661 C1677 1.349 . S
C1662 C1660 1.327 . S
C1662 C1681 1.429 . S
C1662 H1686 0.950 . S
C1663 C1680 1.574 . S
C1663 C1682 1.368 . S
C1663 H1687 0.949 . S
H1664 C1668 0.949 . S
C1665 C1666 1.349 . S
C1665 C1667 1.327 . S
C1665 H1688 0.950 . S
C1666 C1665 1.349 . S
C1666 C1678 1.349 . S
C1667 C1665 1.327 . S
C1667 C1683 1.429 . S
C1667 H1689 0.950 . S
C1668 H1664 0.949 . S
C1668 C1676 1.574 . S
C1668 C1684 1.368 . S
H1669 C1677 0.950 . S
H1670 C1675 0.950 . S
H1671 C1676 0.949 . S
H1672 C1678 0.950 . S
H1673 C1679 0.950 . S
H1674 C1680 0.949 . S
C1675 H1670 0.950 . S
C1675 C1677 1.327 . S
C1675 C1681 1.429 . S
C1676 C1668 1.574 . S
C1676 H1671 0.949 . S
C1676 C1682 1.368 . S
C1677 C1661 1.349 . S
C1677 H1669 0.950 . S
C1677 C1675 1.327 . S
C1678 C1666 1.349 . S
C1678 H1672 0.950 . S
C1678 C1679 1.327 . S
C1679 H1673 0.950 . S
C1679 C1678 1.327 . S
C1679 C1683 1.429 . S
C1680 C1663 1.574 . S
C1680 H1674 0.949 . S
C1680 C1684 1.368 . S
C1681 C1662 1.429 . S
C1681 C1675 1.429 . S
C1681 C1682 1.523 . S
C1682 C1663 1.368 . S
C1682 C1676 1.368 . S
C1682 C1681 1.523 . S
C1683 C1667 1.429 . S
C1683 C1679 1.429 . S
C1683 C1684 1.523 . S
C1684 C1668 1.368 . S
C1684 C1680 1.368 . S
C1684 C1683 1.523 . S
H1685 C1660 0.950 . S
H1686 C1662 0.950 . S
H1687 C1663 0.949 . S
H1688 C1665 0.950 . S
H1689 C1667 0.950 . S
C1690 C1691 1.349 . S
C1690 C1692 1.327 . S
C1690 H1715 0.950 . S
C1691 C1690 1.349 . S
C1691 C1707 1.349 . S
C1692 C1690 1.327 . S
C1692 C1711 1.429 . S
C1692 H1716 0.950 . S
C1693 C1710 1.574 . S
C1693 C1712 1.368 . S
C1693 H1717 0.949 . S
H1694 C1698 0.949 . S
C1695 C1696 1.349 . S
C1695 C1697 1.327 . S
C1695 H1718 0.950 . S
C1696 C1695 1.349 . S
C1696 C1708 1.349 . S
C1697 C1695 1.327 . S
C1697 C1713 1.429 . S
C1697 H1719 0.950 . S
C1698 H1694 0.949 . S
C1698 C1706 1.574 . S
C1698 C1714 1.368 . S
H1699 C1707 0.950 . S
H1700 C1705 0.950 . S
H1701 C1706 0.949 . S
H1702 C1708 0.950 . S
H1703 C1709 0.950 . S
H1704 C1710 0.949 . S
C1705 H1700 0.950 . S
C1705 C1707 1.327 . S
C1705 C1711 1.429 . S
C1706 C1698 1.574 . S
C1706 H1701 0.949 . S
C1706 C1712 1.368 . S
C1707 C1691 1.349 . S
C1707 H1699 0.950 . S
C1707 C1705 1.327 . S
C1708 C1696 1.349 . S
C1708 H1702 0.950 . S
C1708 C1709 1.327 . S
C1709 H1703 0.950 . S
C1709 C1708 1.327 . S
C1709 C1713 1.429 . S
C1710 C1693 1.574 . S
C1710 H1704 0.949 . S
C1710 C1714 1.368 . S
C1711 C1692 1.429 . S
C1711 C1705 1.429 . S
C1711 C1712 1.523 . S
C1712 C1693 1.368 . S
C1712 C1706 1.368 . S
C1712 C1711 1.523 . S
C1713 C1697 1.429 . S
C1713 C1709 1.429 . S
C1713 C1714 1.523 . S
C1714 C1698 1.368 . S
C1714 C1710 1.368 . S
C1714 C1713 1.523 . S
H1715 C1690 0.950 . S
H1716 C1692 0.950 . S
H1717 C1693 0.949 . S
H1718 C1695 0.950 . S
H1719 C1697 0.950 . S
C1720 C1721 1.349 . S
C1720 C1722 1.327 . S
C1720 H1745 0.950 . S
C1721 C1720 1.349 . S
C1721 C1737 1.349 . S
C1722 C1720 1.327 . S
C1722 C1741 1.429 . S
C1722 H1746 0.950 . S
C1723 C1740 1.574 . S
C1723 C1742 1.368 . S
C1723 H1747 0.949 . S
H1724 C1728 0.949 . S
C1725 C1726 1.349 . S
C1725 C1727 1.327 . S
C1725 H1748 0.950 . S
C1726 C1725 1.349 . S
C1726 C1738 1.349 . S
C1727 C1725 1.327 . S
C1727 C1743 1.429 . S
C1727 H1749 0.950 . S
C1728 H1724 0.949 . S
C1728 C1736 1.574 . S
C1728 C1744 1.368 . S
H1729 C1737 0.950 . S
H1730 C1735 0.950 . S
H1731 C1736 0.949 . S
H1732 C1738 0.950 . S
H1733 C1739 0.950 . S
H1734 C1740 0.949 . S
C1735 H1730 0.950 . S
C1735 C1737 1.327 . S
C1735 C1741 1.429 . S
C1736 C1728 1.574 . S
C1736 H1731 0.949 . S
C1736 C1742 1.368 . S
C1737 C1721 1.349 . S
C1737 H1729 0.950 . S
C1737 C1735 1.327 . S
C1738 C1726 1.349 . S
C1738 H1732 0.950 . S
C1738 C1739 1.327 . S
C1739 H1733 0.950 . S
C1739 C1738 1.327 . S
C1739 C1743 1.429 . S
C1740 C1723 1.574 . S
C1740 H1734 0.949 . S
C1740 C1744 1.368 . S
C1741 C1722 1.429 . S
C1741 C1735 1.429 . S
C1741 C1742 1.523 . S
C1742 C1723 1.368 . S
C1742 C1736 1.368 . S
C1742 C1741 1.523 . S
C1743 C1727 1.429 . S
C1743 C1739 1.429 . S
C1743 C1744 1.523 . S
C1744 C1728 1.368 . S
C1744 C1740 1.368 . S
C1744 C1743 1.523 . S
H1745 C1720 0.950 . S
H1746 C1722 0.950 . S
H1747 C1723 0.949 . S
H1748 C1725 0.950 . S
H1749 C1727 0.950 . S
C1750 C1751 1.349 . S
C1750 C1752 1.327 . S
C1750 H1775 0.950 . S
C1751 C1750 1.349 . S
C1751 C1767 1.349 . S
C1752 C1750 1.327 . S
C1752 C1771 1.429 . S
C1752 H1776 0.950 . S
C1753 C1770 1.574 . S
C1753 C1772 1.368 . S
C1753 H1777 0.949 . S
H1754 C1758 0.949 . S
C1755 C1756 1.349 . S
C1755 C1757 1.327 . S
C1755 H1778 0.950 . S
C1756 C1755 1.349 . S
C1756 C1768 1.349 . S
C1757 C1755 1.327 . S
C1757 C1773 1.429 . S
C1757 H1779 0.950 . S
C1758 H1754 0.949 . S
C1758 C1766 1.574 . S
C1758 C1774 1.368 . S
H1759 C1767 0.950 . S
H1760 C1765 0.950 . S
H1761 C1766 0.949 . S
H1762 C1768 0.950 . S
H1763 C1769 0.950 . S
H1764 C1770 0.949 . S
C1765 H1760 0.950 . S
C1765 C1767 1.327 . S
C1765 C1771 1.429 . S
C1766 C1758 1.574 . S
C1766 H1761 0.949 . S
C1766 C1772 1.368 . S
C1767 C1751 1.349 . S
C1767 H1759 0.950 . S
C1767 C1765 1.327 . S
C1768 C1756 1.349 . S
C1768 H1762 0.950 . S
C1768 C1769 1.327 . S
C1769 H1763 0.950 . S
C1769 C1768 1.327 . S
C1769 C1773 1.429 . S
C1770 C1753 1.574 . S
C1770 H1764 0.949 . S
C1770 C1774 1.368 . S
C1771 C1752 1.429 . S
C1771 C1765 1.429 . S
C1771 C1772 1.523 . S
C1772 C1753 1.368 . S
C1772 C1766 1.368 . S
C1772 C1771 1.523 . S
C1773 C1757 1.429 . S
C1773 C1769 1.429 . S
C1773 C1774 1.523 . S
C1774 C1758 1.368 . S
C1774 C1770 1.368 . S
C1774 C1773 1.523 . S
H1775 C1750 0.950 . S
H1776 C1752 0.950 . S
H1777 C1753 0.949 . S
H1778 C1755 0.950 . S
H1779 C1757 0.950 . S
C1780 C1781 1.349 . S
C1780 C1782 1.327 . S
C1780 H1805 0.950 . S
C1781 C1780 1.349 . S
C1781 C1797 1.349 . S
C1782 C1780 1.327 . S
C1782 C1801 1.429 . S
C1782 H1806 0.950 . S
C1783 C1800 1.574 . S
C1783 C1802 1.368 . S
C1783 H1807 0.949 . S
H1784 C1788 0.949 . S
C1785 C1786 1.349 . S
C1785 C1787 1.327 . S
C1785 H1808 0.950 . S
C1786 C1785 1.349 . S
C1786 C1798 1.349 . S
C1787 C1785 1.327 . S
C1787 C1803 1.429 . S
C1787 H1809 0.950 . S
C1788 H1784 0.949 . S
C1788 C1796 1.574 . S
C1788 C1804 1.368 . S
H1789 C1797 0.950 . S
H1790 C1795 0.950 . S
H1791 C1796 0.949 . S
H1792 C1798 0.950 . S
H1793 C1799 0.950 . S
H1794 C1800 0.949 . S
C1795 H1790 0.950 . S
C1795 C1797 1.327 . S
C1795 C1801 1.429 . S
C1796 C1788 1.574 . S
C1796 H1791 0.949 . S
C1796 C1802 1.368 . S
C1797 C1781 1.349 . S
C1797 H1789 0.950 . S
C1797 C1795 1.327 . S
C1798 C1786 1.349 . S
C1798 H1792 0.950 . S
C1798 C1799 1.327 . S
C1799 H1793 0.950 . S
C1799 C1798 1.327 . S
C1799 C1803 1.429 . S
C1800 C1783 1.574 . S
C1800 H1794 0.949 . S
C1800 C1804 1.368 . S
C1801 C1782 1.429 . S
C1801 C1795 1.429 . S
C1801 C1802 1.523 . S
C1802 C1783 1.368 . S
C1802 C1796 1.368 . S
C1802 C1801 1.523 . S
C1803 C1787 1.429 . S
C1803 C1799 1.429 . S
C1803 C1804 1.523 . S
C1804 C1788 1.368 . S
C1804 C1800 1.368 . S
C1804 C1803 1.523 . S
H1805 C1780 0.950 . S
H1806 C1782 0.950 . S
H1807 C1783 0.949 . S
H1808 C1785 0.950 . S
H1809 C1787 0.950 . S
C376 C195 1.186 . S
C371 C17 1.212 . S
C406 C185 1.627 . S
C401 C44 1.522 . S
C436 C186 0.795 . S
C431 C63 0.799 . S
C461 C87 1.364 . S
C466 C208 1.336 . S
C491 C110 1.390 . S
C496 C211 1.366 . S
C526 C194 0.813 . S
C521 C131 0.817 . S
C551 C159 1.428 . S
C556 C184 1.511 . S
C581 C177 1.226 . S
C586 C202 1.201 . S
C616 C215 1.415 . S
C611 C20 1.339 . S
C641 C42 1.320 . S
C646 C264 1.306 . S
C676 C242 1.558 . S
C671 C66 1.457 . S
C706 C256 0.712 . S
C701 C86 0.705 . S
C731 C109 0.700 . S
C736 C217 0.705 . S
C766 C270 1.454 . S
C761 C136 1.403 . S
C791 C157 1.317 . S
C796 C226 1.297 . S
C821 C182 1.420 . S
C826 C247 1.473 . S
C851 C18 1.462 . S
C856 C273 1.424 . S
C881 C112 1.139 . S
C886 C257 1.164 . S
C916 C216 1.408 . S
C911 C134 1.420 . S
C946 C248 0.839 . S
C941 C154 0.855 . S
C971 C180 1.351 . S
C976 C239 1.335 . S
C1001 C64 1.383 . S
C1006 C246 1.338 . S
C1036 C233 1.178 . S
C1031 C89 1.162 . S
C1061 C39 0.875 . S
C1066 C225 0.863 . S
C1091 C178 1.212 . S
C1096 C288 1.186 . S
C1121 C113 1.522 . S
C1126 C278 1.627 . S
C1156 C279 0.795 . S
C1151 C132 0.799 . S
C1186 C301 1.336 . S
C1181 C156 1.364 . S
C1211 C41 1.390 . S
C1216 C304 1.366 . S
C1246 C287 0.813 . S
C1241 C62 0.817 . S
C1271 C90 1.428 . S
C1276 C277 1.511 . S
C1301 C16 1.226 . S
C1306 C295 1.201 . S
C1331 C181 1.338 . S
C1336 C308 1.415 . S
C1366 C357 1.306 . S
C1361 C111 1.320 . S
C1391 C135 1.457 . S
C1396 C335 1.558 . S
C1421 C155 0.705 . S
C1426 C349 0.713 . S
C1456 C310 0.705 . S
C1451 C40 0.700 . S
C1481 C67 1.403 . S
C1486 C363 1.454 . S
C1516 C319 1.297 . S
C1511 C88 1.317 . S
C1546 C340 1.473 . S
C1541 C21 1.420 . S
C1576 C366 1.424 . S
C1571 C179 1.462 . S
C1601 C43 1.139 . S
C1606 C350 1.164 . S
C1631 C65 1.420 . S
C1636 C309 1.408 . S
C1666 C341 0.839 . S
C1661 C85 0.855 . S
C1691 C19 1.351 . S
C1696 C332 1.335 . S
C1721 C133 1.383 . S
C1726 C339 1.338 . S
C1756 C326 1.178 . S
C1751 C158 1.162 . S
C1786 C318 0.863 . S
C1781 C108 0.875 . S
