# Generated by pormake.
# Topology rtl, (3,6)-cn, num edge types: 1
# Building blocks:
#     Node 0, Type 0, BuildingBlock: WUSLED_clean_sbu_0, # of connection points: 3
#     Node 1, Type 0, BuildingBlock: WUSLED_clean_sbu_0, # of connection points: 3
#     Node 2, Type 0, BuildingBlock: WUSLED_clean_sbu_0, # of connection points: 3
#     Node 3, Type 0, BuildingBlock: WUSLED_clean_sbu_0, # of connection points: 3
#     Node 4, Type 1, BuildingBlock: FUNLAD_clean_sbu_0, # of connection points: 6
#     Node 5, Type 1, BuildingBlock: FUNLAD_clean_sbu_0, # of connection points: 6
#     Edge 6, Type (0, 1), BuildingBlock: XIVTED_clean_linker_0, # of connection points: 2
#     Edge 7, Type (0, 1), BuildingBlock: XIVTED_clean_linker_0, # of connection points: 2
#     Edge 8, Type (0, 1), BuildingBlock: XIVTED_clean_linker_0, # of connection points: 2
#     Edge 9, Type (0, 1), BuildingBlock: XIVTED_clean_linker_0, # of connection points: 2
#     Edge 10, Type (0, 1), BuildingBlock: XIVTED_clean_linker_0, # of connection points: 2
#     Edge 11, Type (0, 1), BuildingBlock: XIVTED_clean_linker_0, # of connection points: 2
#     Edge 12, Type (0, 1), BuildingBlock: XIVTED_clean_linker_0, # of connection points: 2
#     Edge 13, Type (0, 1), BuildingBlock: XIVTED_clean_linker_0, # of connection points: 2
#     Edge 14, Type (0, 1), BuildingBlock: XIVTED_clean_linker_0, # of connection points: 2
#     Edge 15, Type (0, 1), BuildingBlock: XIVTED_clean_linker_0, # of connection points: 2
#     Edge 16, Type (0, 1), BuildingBlock: XIVTED_clean_linker_0, # of connection points: 2
#     Edge 17, Type (0, 1), BuildingBlock: XIVTED_clean_linker_0, # of connection points: 2
# Relax obj value: 0.025
# Max RMSD: 0.087
# Mean RMSD: 0.074
data_MOF--net-rtl--node1-WUSLED_clean_sbu_0--node2-FUNLAD_clean_sbu_0--edge1-XIVTED_clean_linker_0
_symmetry_space_group_name_H-M    P1
_symmetry_Int_Tables_number       1
_symmetry_cell_setting            triclinic
loop_
_symmetry_equiv_pos_as_xyz
'x, y, z'
_cell_length_a     51.554393
_cell_length_b     42.81353
_cell_length_c     30.136067
_cell_angle_alpha  90.401964
_cell_angle_beta   91.312013
_cell_angle_gamma 90.985885
loop_
_atom_site_label
_atom_site_type_symbol
_atom_site_fract_x
_atom_site_fract_y
_atom_site_fract_z
_atom_type_partial_charge
C0 C 0.15001 0.81726 0.14572 0.0
C1 C 0.1383 0.84584 0.13596 0.0
C2 C 0.12288 0.84958 0.21149 0.0
C3 C 0.125 0.86193 0.16859 0.0
C4 C 0.13396 0.82048 0.2208 0.0
C5 C 0.14753 0.8045 0.18816 0.0
U6 U 0.16397 0.80458 0.0249 0.0
O7 O 0.20064 0.80267 0.98942 0.0
O8 O 0.17351 0.76256 0.98639 0.0
C9 C 0.19647 0.77375 0.97588 0.0
C10 C 0.16489 0.80103 0.11171 0.0
C11 C 0.21848 0.75279 0.98227 0.0
C12 C 0.24804 0.72378 0.0298 0.0
C13 C 0.226 0.74223 0.02454 0.0
C14 C 0.25494 0.72617 0.9506 0.0
C15 C 0.26294 0.71589 0.99289 0.0
C16 C 0.23293 0.74444 0.9454 0.0
C17 C 0.12368 0.85222 0.9411 0.0
C18 C 0.11725 0.89513 0.88984 0.0
C19 C 0.10829 0.84197 0.86531 0.0
C20 C 0.11568 0.83107 0.90736 0.0
C21 C 0.10895 0.87413 0.85615 0.0
C22 C 0.12443 0.88428 0.93186 0.0
C23 C 0.13051 0.8418 0.98647 0.0
O24 O 0.15141 0.78143 0.08612 0.0
O25 O 0.18084 0.81905 0.08953 0.0
O26 O 0.15325 0.85147 1.00226 0.0
O27 O 0.12505 0.81255 0.99626 0.0
H28 H 0.13969 0.8559 0.10319 0.0
H29 H 0.11634 0.88407 0.16026 0.0
H30 H 0.13274 0.81049 0.25363 0.0
H31 H 0.15633 0.78238 0.19618 0.0
H32 H 0.25381 0.7164 0.06283 0.0
H33 H 0.2151 0.74866 0.05343 0.0
H34 H 0.26572 0.7201 0.92144 0.0
H35 H 0.22736 0.75242 0.91254 0.0
H36 H 0.11762 0.92007 0.88406 0.0
H37 H 0.10218 0.82522 0.8399 0.0
H38 H 0.11494 0.80618 0.91343 0.0
H39 H 0.13033 0.90105 0.95741 0.0
C40 C 0.64672 0.71505 0.6599 0.0
C41 C 0.63652 0.68469 0.65364 0.0
C42 C 0.62397 0.68296 0.73084 0.0
C43 C 0.62541 0.66873 0.68884 0.0
C44 C 0.63353 0.71371 0.73677 0.0
C45 C 0.64496 0.72959 0.70153 0.0
U46 U 0.65332 0.7252 0.53679 0.0
O47 O 0.66019 0.76676 0.49567 0.0
O48 O 0.6876 0.72808 0.49515 0.0
C49 C 0.68273 0.75672 0.48243 0.0
C50 C 0.65914 0.73136 0.623 0.0
C51 C 0.70472 0.77871 0.48782 0.0
C52 C 0.73797 0.8041 0.5344 0.0
C53 C 0.71562 0.78526 0.53 0.0
C54 C 0.73829 0.81063 0.45458 0.0
C55 C 0.74974 0.8167 0.49667 0.0
C56 C 0.71598 0.79174 0.45024 0.0
C57 C 0.61029 0.67272 0.46144 0.0
C58 C 0.59674 0.62854 0.41511 0.0
C59 C 0.60128 0.67993 0.38267 0.0
C60 C 0.60888 0.69223 0.4242 0.0
C61 C 0.59533 0.6479 0.37769 0.0
C62 C 0.60409 0.64088 0.4566 0.0
C63 C 0.61874 0.68468 0.50541 0.0
O64 O 0.67413 0.71389 0.59878 0.0
O65 O 0.6438 0.74923 0.59916 0.0
O66 O 0.61331 0.71391 0.51449 0.0
O67 O 0.64231 0.67695 0.51808 0.0
H68 H 0.63733 0.6732 0.62156 0.0
H69 H 0.61783 0.64524 0.68318 0.0
H70 H 0.63269 0.72517 0.76885 0.0
H71 H 0.65259 0.75309 0.70684 0.0
H72 H 0.74611 0.80867 0.5673 0.0
H73 H 0.70712 0.77531 0.55939 0.0
H74 H 0.74702 0.81966 0.42483 0.0
H75 H 0.70787 0.78672 0.41742 0.0
H76 H 0.59198 0.60385 0.41236 0.0
H77 H 0.60056 0.69532 0.35431 0.0
H78 H 0.61382 0.71687 0.42712 0.0
H79 H 0.60508 0.62548 0.48495 0.0
C80 C 0.88311 0.20574 0.14026 0.0
C81 C 0.90742 0.19236 0.13386 0.0
C82 C 0.90856 0.17457 0.21045 0.0
C83 C 0.9201 0.17702 0.16873 0.0
C84 C 0.88432 0.18834 0.21674 0.0
C85 C 0.87173 0.20381 0.18192 0.0
U86 U 0.87289 0.21788 0.01667 0.0
O87 O 0.83695 0.21845 0.97602 0.0
O88 O 0.86274 0.25978 0.97863 0.0
C89 C 0.84019 0.24792 0.96518 0.0
C90 C 0.86893 0.22033 0.10323 0.0
C91 C 0.81771 0.26775 0.9724 0.0
C92 C 0.78819 0.29369 0.02179 0.0
C93 C 0.81009 0.27545 0.01545 0.0
C94 C 0.78148 0.29677 0.94208 0.0
C95 C 0.77353 0.3044 0.98514 0.0
C96 C 0.80337 0.2786 0.93582 0.0
C97 C 0.91747 0.17554 0.93711 0.0
C98 C 0.90794 0.16685 0.85861 0.0
C99 C 0.95049 0.15508 0.88929 0.0
C100 C 0.9427 0.16493 0.93114 0.0
C101 C 0.93311 0.15557 0.85263 0.0
C102 C 0.90021 0.17687 0.9005 0.0
C103 C 0.9093 0.184 0.98196 0.0
O104 O 0.88214 0.2411 0.08057 0.0
O105 O 0.85527 0.20078 0.07788 0.0
O106 O 0.88667 0.1725 0.99355 0.0
O107 O 0.91292 0.21343 0.9936 0.0
H108 H 0.91638 0.19335 0.1017 0.0
H109 H 0.93859 0.16634 0.16268 0.0
H110 H 0.87506 0.18713 0.2486 0.0
H111 H 0.85294 0.21394 0.18736 0.0
H112 H 0.78245 0.29885 0.05536 0.0
H113 H 0.82094 0.26711 0.04409 0.0
H114 H 0.77086 0.30502 0.91316 0.0
H115 H 0.80904 0.2729 0.90236 0.0
H116 H 0.89421 0.16786 0.83093 0.0
H117 H 0.9699 0.14618 0.88595 0.0
H118 H 0.95626 0.16373 0.95907 0.0
H119 H 0.88067 0.18521 0.90446 0.0
C120 C 0.38783 0.304 0.37958 0.0
C121 C 0.4126 0.31775 0.38503 0.0
C122 C 0.41185 0.33334 0.30752 0.0
C123 C 0.42458 0.33217 0.34925 0.0
C124 C 0.38717 0.31911 0.3021 0.0
C125 C 0.37527 0.30452 0.33789 0.0
U126 U 0.38038 0.29904 0.50375 0.0
O127 O 0.34556 0.30007 0.54432 0.0
O128 O 0.37093 0.25944 0.54699 0.0
C129 C 0.34881 0.27148 0.55876 0.0
C130 C 0.37432 0.29099 0.41781 0.0
C131 C 0.32601 0.25073 0.55349 0.0
C132 C 0.29299 0.22514 0.50668 0.0
C133 C 0.31526 0.24407 0.51123 0.0
C134 C 0.29229 0.21896 0.58656 0.0
C135 C 0.28117 0.2125 0.54433 0.0
C136 C 0.31452 0.23797 0.59106 0.0
C137 C 0.42574 0.3472 0.5792 0.0
C138 C 0.41656 0.35589 0.65694 0.0
C139 C 0.4577 0.37324 0.62752 0.0
C140 C 0.45013 0.36159 0.58567 0.0
C141 C 0.44089 0.37079 0.66351 0.0
C142 C 0.40908 0.34408 0.61515 0.0
C143 C 0.41756 0.33626 0.5347 0.0
O144 O 0.38798 0.27215 0.4431 0.0
O145 O 0.36123 0.31146 0.44054 0.0
O146 O 0.39485 0.34623 0.52073 0.0
O147 O 0.42093 0.3064 0.52665 0.0
H148 H 0.42245 0.31792 0.4172 0.0
H149 H 0.44343 0.34329 0.35463 0.0
H150 H 0.377 0.31942 0.27026 0.0
H151 H 0.35608 0.29415 0.33321 0.0
H152 H 0.28509 0.22028 0.47369 0.0
H153 H 0.32401 0.25371 0.48185 0.0
H154 H 0.2835 0.20989 0.61622 0.0
H155 H 0.32258 0.24298 0.62391 0.0
H156 H 0.40334 0.35332 0.68415 0.0
H157 H 0.47645 0.38486 0.63145 0.0
H158 H 0.46319 0.36419 0.55822 0.0
H159 H 0.39021 0.33281 0.61074 0.0
C160 C 0.03755 0.97378 0.44982 0.0
N161 N 0.06842 0.05297 0.51572 0.0
C162 C 0.09146 0.03794 0.51666 0.0
C163 C 0.11482 0.0549 0.51831 0.0
C164 C 0.11451 0.08769 0.51893 0.0
C165 C 0.09044 0.10261 0.51752 0.0
C166 C 0.06752 0.08471 0.51599 0.0
Zn167 Zn 0.03485 0.02689 0.51482 0.0
C168 C 0.99593 0.04904 0.44959 0.0
N169 N 0.96578 0.9704 0.51384 0.0
C170 C 0.96603 0.93862 0.51368 0.0
C171 C 0.94305 0.98609 0.51303 0.0
C172 C 0.91937 0.96985 0.51163 0.0
C173 C 0.91897 0.93706 0.51109 0.0
C174 C 0.94272 0.9214 0.5124 0.0
Zn175 Zn 0.99957 0.99616 0.5147 0.0
O176 O 0.04974 0.99777 0.46493 0.0
C177 C 0.03833 0.97426 0.58035 0.0
O178 O 0.01536 0.96681 0.46492 0.0
H179 H 0.94324 0.01135 0.51337 0.0
H180 H 0.09176 0.01269 0.51628 0.0
H181 H 0.98433 0.92662 0.51427 0.0
O182 O 0.0506 0.99763 0.5649 0.0
O183 O 0.01572 0.96754 0.56502 0.0
H184 H 0.04898 0.09617 0.51536 0.0
O185 O 0.98454 0.02578 0.56465 0.0
O186 O 0.01952 0.05568 0.56482 0.0
O187 O 0.98387 0.02534 0.4645 0.0
O188 O 0.01852 0.05579 0.46491 0.0
C189 C 0.99728 0.0493 0.58003 0.0
H190 H 0.13292 0.04244 0.51873 0.0
H191 H 0.08931 0.12784 0.51843 0.0
H192 H 0.90156 0.9829 0.51137 0.0
H193 H 0.9433 0.89613 0.51163 0.0
C194 C 0.49952 0.47568 0.94795 0.0
N195 N 0.56844 0.46757 0.02277 0.0
C196 C 0.56576 0.4361 0.01746 0.0
C197 C 0.58761 0.41737 0.01548 0.0
C198 C 0.61253 0.43113 0.01897 0.0
C199 C 0.6147 0.46363 0.02528 0.0
C200 C 0.59231 0.48149 0.02705 0.0
Zn201 Zn 0.53596 0.4944 0.02192 0.0
C202 C 0.54268 0.55036 0.96429 0.0
N203 N 0.4682 0.55067 0.0183 0.0
C204 C 0.44449 0.53637 0.01381 0.0
C205 C 0.47052 0.58228 0.02221 0.0
C206 C 0.44847 0.6008 0.02148 0.0
C207 C 0.42373 0.58667 0.01686 0.0
C208 C 0.42193 0.55398 0.01311 0.0
Zn209 Zn 0.50082 0.52402 0.0195 0.0
O210 O 0.52112 0.469 0.96634 0.0
C211 C 0.49425 0.4679 0.07707 0.0
O212 O 0.48646 0.498 0.96351 0.0
H213 H 0.48954 0.59318 0.02596 0.0
H214 H 0.54661 0.42549 0.01422 0.0
H215 H 0.44306 0.51122 0.01063 0.0
O216 O 0.51732 0.46296 0.06521 0.0
O217 O 0.48258 0.49185 0.06268 0.0
H218 H 0.59401 0.50656 0.03111 0.0
O219 O 0.5158 0.54955 0.07545 0.0
O220 O 0.55033 0.52023 0.07741 0.0
O221 O 0.51969 0.55571 0.97631 0.0
O222 O 0.55408 0.52622 0.97861 0.0
C223 C 0.53751 0.54262 0.09335 0.0
H224 H 0.585 0.39237 0.01124 0.0
H225 H 0.6335 0.47528 0.02764 0.0
H226 H 0.45076 0.62589 0.02499 0.0
H227 H 0.40329 0.54213 0.00891 0.0
H228 H 0.26857 0.15873 0.58846 0.0
H229 H 0.12713 0.1413 0.47429 0.0
H230 H 0.23881 0.22225 0.48986 0.0
H231 H 0.15807 0.07615 0.5696 0.0
H232 H 0.16782 0.1714 0.47964 0.0
H233 H 0.22819 0.12816 0.58195 0.0
C234 C 0.25351 0.1663 0.56552 0.0
C235 C 0.25707 0.19314 0.53973 0.0
C236 C 0.16573 0.15049 0.49933 0.0
C237 C 0.21081 0.15813 0.53189 0.0
C238 C 0.14244 0.1334 0.49649 0.0
C239 C 0.13917 0.10615 0.52153 0.0
C240 C 0.1859 0.14036 0.52757 0.0
C241 C 0.15983 0.09678 0.54926 0.0
C242 C 0.2305 0.14875 0.56165 0.0
C243 C 0.23703 0.20155 0.51004 0.0
N244 N 0.18227 0.11388 0.55159 0.0
N245 N 0.21474 0.18417 0.50704 0.0
H246 H 0.30952 0.72614 0.9534 0.0
H247 H 0.37707 0.57514 0.05642 0.0
H248 H 0.27142 0.66416 0.04458 0.0
H249 H 0.41624 0.64206 0.97375 0.0
H250 H 0.33803 0.60681 0.05213 0.0
H251 H 0.34862 0.69513 0.96024 0.0
C252 C 0.30935 0.7059 0.97475 0.0
C253 C 0.28707 0.69762 0.9982 0.0
C254 C 0.3552 0.6146 0.03505 0.0
C255 C 0.332 0.66203 0.00651 0.0
C256 C 0.37745 0.59644 0.03726 0.0
C257 C 0.4 0.60593 0.01538 0.0
C258 C 0.35541 0.6424 0.01056 0.0
C259 C 0.39945 0.63399 0.99158 0.0
C260 C 0.33176 0.68829 0.97885 0.0
C261 C 0.28819 0.6715 0.02608 0.0
N262 N 0.37752 0.65114 0.98969 0.0
N263 N 0.31023 0.65454 0.02929 0.0
H264 H 0.79208 0.80522 0.55044 0.0
H265 H 0.87555 0.95014 0.46096 0.0
H266 H 0.7637 0.86994 0.45224 0.0
H267 H 0.90511 0.88396 0.55609 0.0
H268 H 0.8341 0.92174 0.45882 0.0
H269 H 0.83309 0.83467 0.55489 0.0
C270 C 0.79437 0.8258 0.5301 0.0
C271 C 0.77439 0.83511 0.5009 0.0
C272 C 0.84963 0.9134 0.48018 0.0
C273 C 0.82148 0.86871 0.5054 0.0
C274 C 0.87329 0.92971 0.4816 0.0
C275 C 0.89385 0.91949 0.50887 0.0
C276 C 0.8464 0.88663 0.50627 0.0
C277 C 0.8899 0.89251 0.53425 0.0
C278 C 0.81788 0.84247 0.53242 0.0
C279 C 0.77866 0.86167 0.47482 0.0
N280 N 0.86663 0.87706 0.5324 0.0
N281 N 0.80172 0.87751 0.47768 0.0
H282 H 0.766 0.35168 0.04546 0.0
H283 H 0.62012 0.38241 0.96156 0.0
H284 H 0.72696 0.29957 0.93974 0.0
H285 H 0.65866 0.43588 0.06645 0.0
H286 H 0.65892 0.35117 0.95444 0.0
H287 H 0.72675 0.38212 0.05498 0.0
C288 C 0.74915 0.34652 0.0244 0.0
C289 C 0.74984 0.32307 0.99164 0.0
C290 C 0.65892 0.3697 0.97908 0.0
C291 C 0.70489 0.358 1.00214 0.0
C292 C 0.63667 0.38744 0.98338 0.0
C293 C 0.63604 0.41179 0.01477 0.0
C294 C 0.68082 0.37626 0.00635 0.0
C295 C 0.65833 0.41757 0.04149 0.0
C296 C 0.72678 0.36403 0.0297 0.0
C297 C 0.72749 0.31771 0.96496 0.0
N298 N 0.67979 0.39993 0.03669 0.0
N299 N 0.70598 0.33501 0.97081 0.0
H300 H 0.12911 0.91157 0.23112 0.0
H301 H 0.02186 0.91577 0.41847 0.0
H302 H 0.08734 0.82882 0.27177 0.0
H303 H 0.08006 0.98811 0.40125 0.0
H304 H 0.04228 0.88481 0.36035 0.0
H305 H 0.10778 0.94144 0.28866 0.0
C306 C 0.11531 0.89973 0.25206 0.0
C307 C 0.10994 0.86768 0.2466 0.0
C308 C 0.05054 0.90745 0.36944 0.0
C309 C 0.08547 0.90175 0.31278 0.0
C310 C 0.03887 0.92516 0.40246 0.0
C311 C 0.04928 0.95457 0.41477 0.0
C312 C 0.07255 0.91945 0.34829 0.0
C313 C 0.07139 0.96555 0.39298 0.0
C314 C 0.10326 0.91674 0.28509 0.0
C315 C 0.09216 0.85344 0.2751 0.0
N316 N 0.08218 0.94806 0.36076 0.0
N317 N 0.08044 0.87061 0.30687 0.0
H318 H 0.58808 0.70224 0.79064 0.0
H319 H 0.58872 0.54113 0.92356 0.0
H320 H 0.63488 0.62354 0.75606 0.0
H321 H 0.52681 0.60733 0.93337 0.0
H322 H 0.60951 0.57472 0.86936 0.0
H323 H 0.56898 0.67127 0.85037 0.0
C324 C 0.59444 0.67854 0.79587 0.0
C325 C 0.61294 0.66531 0.76829 0.0
C326 C 0.5914 0.58194 0.88342 0.0
C327 C 0.59134 0.62994 0.83627 0.0
C328 C 0.57953 0.56282 0.91449 0.0
C329 C 0.55589 0.57134 0.93287 0.0
C330 C 0.5797 0.60998 0.87078 0.0
C331 C 0.54495 0.59977 0.91984 0.0
C332 C 0.58346 0.66086 0.82971 0.0
C333 C 0.62043 0.63447 0.77624 0.0
N334 N 0.55695 0.6181 0.88954 0.0
N335 N 0.60964 0.61787 0.8095 0.0
H336 H 0.88615 0.13301 0.26715 0.0
H337 H 0.01751 0.09766 0.40329 0.0
H338 H 0.96004 0.17545 0.23634 0.0
H339 H 0.94614 0.04468 0.41674 0.0
H340 H 0.99642 0.129 0.34559 0.0
H341 H 0.90739 0.10329 0.32604 0.0
C342 C 0.90683 0.13626 0.27301 0.0
C343 C 0.92132 0.15681 0.24682 0.0
C344 C 0.98542 0.11049 0.36118 0.0
C345 C 0.94587 0.12257 0.31404 0.0
C346 C 0.99742 0.09263 0.39417 0.0
C347 C 0.98359 0.06845 0.41483 0.0
C348 C 0.95935 0.10428 0.34902 0.0
C349 C 0.9576 0.063 0.40165 0.0
C350 C 0.91899 0.11911 0.30645 0.0
C351 C 0.94816 0.15966 0.25547 0.0
N352 N 0.94634 0.08078 0.36969 0.0
N353 N 0.95956 0.14279 0.28842 0.0
H354 H 0.41122 0.40529 0.71922 0.0
H355 H 0.52475 0.43036 0.90231 0.0
H356 H 0.48784 0.3675 0.70759 0.0
H357 H 0.45307 0.48107 0.90259 0.0
H358 H 0.50987 0.40316 0.83474 0.0
H359 H 0.42456 0.42913 0.79031 0.0
C360 C 0.43079 0.40179 0.73182 0.0
C361 C 0.44847 0.38444 0.7074 0.0
C362 C 0.49737 0.42019 0.84961 0.0
C363 C 0.46392 0.41184 0.78855 0.0
C364 C 0.50582 0.4357 0.88828 0.0
C365 C 0.49018 0.45816 0.90806 0.0
C366 C 0.47303 0.42703 0.8306 0.0
C367 C 0.46582 0.46404 0.88838 0.0
C368 C 0.43844 0.41557 0.77225 0.0
C369 C 0.47368 0.381 0.72506 0.0
N370 N 0.45801 0.4486 0.85069 0.0
N371 N 0.48065 0.39457 0.76455 0.0
H372 H 0.56101 0.67087 0.31566 0.0
H373 H 0.58057 0.52995 0.14427 0.0
H374 H 0.61278 0.59438 0.33958 0.0
H375 H 0.51724 0.59437 0.1331 0.0
H376 H 0.59582 0.5571 0.2116 0.0
H377 H 0.54795 0.64691 0.24427 0.0
C378 C 0.56975 0.64916 0.30571 0.0
C379 C 0.58788 0.63447 0.33365 0.0
C380 C 0.57861 0.56535 0.1944 0.0
C381 C 0.57305 0.60698 0.25229 0.0
C382 C 0.56991 0.54989 0.15586 0.0
C383 C 0.54749 0.55978 0.13312 0.0
C384 C 0.56491 0.59102 0.2103 0.0
C385 C 0.53453 0.58583 0.14971 0.0
C386 C 0.5622 0.63543 0.26514 0.0
C387 C 0.59847 0.60626 0.31933 0.0
N388 N 0.54342 0.60054 0.18735 0.0
N389 N 0.59091 0.59345 0.27968 0.0
H390 H 0.9048 0.11806 0.79477 0.0
H391 H 0.02104 0.09792 0.62556 0.0
H392 H 0.97946 0.16437 0.81103 0.0
H393 H 0.9497 0.04361 0.61818 0.0
H394 H 1.00442 0.1265 0.68906 0.0
H395 H 0.91916 0.09487 0.72539 0.0
C396 C 0.92411 0.12366 0.78349 0.0
C397 C 0.94099 0.14309 0.80889 0.0
C398 C 0.99236 0.10843 0.67342 0.0
C399 C 0.95768 0.11631 0.72967 0.0
C400 C 1.00181 0.09213 0.63708 0.0
C401 C 0.98681 0.06818 0.61664 0.0
C402 C 0.96768 0.10083 0.68943 0.0
C403 C 0.96201 0.06176 0.63303 0.0
C404 C 0.93237 0.11023 0.74401 0.0
C405 C 0.96592 0.14918 0.79286 0.0
N406 N 0.95327 0.07791 0.66853 0.0
N407 N 0.97353 0.13577 0.75438 0.0
H408 H 0.46248 0.33265 0.28151 0.0
H409 H 0.44382 0.46859 0.10363 0.0
H410 H 0.38856 0.37365 0.24955 0.0
H411 H 0.51517 0.41832 0.12142 0.0
H412 H 0.42328 0.43406 0.15714 0.0
H413 H 0.48227 0.3639 0.22322 0.0
C414 C 0.45041 0.34819 0.26215 0.0
C415 C 0.42384 0.3506 0.27046 0.0
C416 C 0.4434 0.43048 0.1492 0.0
C417 C 0.44633 0.38642 0.20371 0.0
C418 C 0.45516 0.45024 0.11869 0.0
C419 C 0.4813 0.44643 0.10814 0.0
C420 C 0.4579 0.40686 0.16959 0.0
C421 C 0.49499 0.42216 0.12859 0.0
C422 C 0.46168 0.36591 0.22876 0.0
C423 C 0.40906 0.37082 0.244 0.0
N424 N 0.48316 0.40341 0.15852 0.0
N425 N 0.42053 0.3881 0.21204 0.0
H426 H 0.13202 0.91979 0.80674 0.0
H427 H 0.01737 0.92374 0.62336 0.0
H428 H 0.06645 0.85576 0.80532 0.0
H429 H 0.08556 0.98367 0.62189 0.0
H430 H 0.0358 0.89673 0.68776 0.0
H431 H 0.11608 0.94181 0.73698 0.0
C432 C 0.11427 0.91033 0.79168 0.0
C433 C 0.10045 0.88605 0.81207 0.0
C434 C 0.04679 0.91566 0.67315 0.0
C435 C 0.08205 0.91112 0.73199 0.0
C436 C 0.03628 0.93109 0.63636 0.0
C437 C 0.04986 0.95615 0.61732 0.0
C438 C 0.07101 0.92542 0.69113 0.0
C439 C 0.07432 0.9646 0.63554 0.0
C440 C 0.10522 0.92282 0.75173 0.0
C441 C 0.0778 0.87435 0.79064 0.0
N442 N 0.08401 0.9494 0.67152 0.0
N443 N 0.06919 0.88715 0.75195 0.0
loop_
_geom_bond_atom_site_label_1
_geom_bond_atom_site_label_2
_geom_bond_distance
_geom_bond_site_symmetry_2
_ccdc_geom_bond_type
C0 C1 1.264 . S
C0 C5 1.479 . S
C0 C10 1.465 . S
C1 C0 1.264 . S
C1 C3 1.339 . S
C1 H28 0.931 . S
C2 C3 1.395 . S
C2 C4 1.320 . S
C3 C1 1.339 . S
C3 C2 1.395 . S
C3 H29 0.929 . S
C4 C2 1.320 . S
C4 C5 1.405 . S
C4 H30 0.930 . S
C5 C0 1.479 . S
C5 C4 1.405 . S
C5 H31 0.931 . S
U6 O7 2.454 . S
U6 O8 2.458 1_554 S
U6 C9 2.984 . S
U6 C10 2.847 . S
U6 C23 2.882 1_554 S
U6 O24 2.441 . S
U6 O25 2.420 . S
U6 O26 2.455 1_554 S
U6 O27 2.449 1_554 S
O7 U6 2.454 . S
O7 C9 1.353 . S
O8 U6 2.458 1_556 S
O8 C9 1.286 1_556 S
C9 U6 2.984 . S
C9 O7 1.353 . S
C9 O8 1.286 1_554 S
C9 C11 1.363 . S
C10 C0 1.465 . S
C10 U6 2.847 . S
C10 O24 1.249 . S
C10 O25 1.202 . S
C11 C9 1.363 . S
C11 C13 1.408 . S
C11 C16 1.342 1_554 S
C12 C13 1.310 . S
C12 C15 1.461 . S
C12 H32 0.932 . S
C13 C11 1.408 . S
C13 C12 1.310 . S
C13 H33 0.930 . S
C14 C15 1.474 1_556 S
C14 C16 1.285 . S
C14 H34 0.929 . S
C15 C12 1.461 . S
C15 C14 1.474 1_554 S
C16 C11 1.342 1_556 S
C16 C14 1.285 . S
C16 H35 0.930 . S
C17 C20 1.424 . S
C17 C22 1.245 . S
C17 C23 1.428 . S
C18 C21 1.260 . S
C18 C22 1.477 . S
C18 H36 0.932 . S
C19 C20 1.384 . S
C19 C21 1.479 . S
C19 H37 0.929 . S
C20 C17 1.424 . S
C20 C19 1.384 . S
C20 H38 0.928 . S
C21 C18 1.260 . S
C21 C19 1.479 . S
C22 C17 1.245 . S
C22 C18 1.477 . S
C22 H39 0.932 . S
C23 U6 2.882 1_556 S
C23 C17 1.428 . S
C23 O26 1.301 . S
C23 O27 1.282 . S
O24 U6 2.441 . S
O24 C10 1.249 . S
O25 U6 2.420 . S
O25 C10 1.202 . S
O26 U6 2.455 1_556 S
O26 C23 1.301 . S
O27 U6 2.449 1_556 S
O27 C23 1.282 . S
H28 C1 0.931 . S
H29 C3 0.929 . S
H30 C4 0.930 . S
H31 C5 0.931 . S
H32 C12 0.932 . S
H33 C13 0.930 . S
H34 C14 0.929 . S
H35 C16 0.930 . S
H36 C18 0.932 . S
H37 C19 0.929 . S
H38 C20 0.928 . S
H39 C22 0.932 . S
C40 C41 1.264 . S
C40 C45 1.479 . S
C40 C50 1.465 . S
C41 C40 1.264 . S
C41 C43 1.339 . S
C41 H68 0.931 . S
C42 C43 1.395 . S
C42 C44 1.320 . S
C43 C41 1.339 . S
C43 C42 1.395 . S
C43 H69 0.929 . S
C44 C42 1.320 . S
C44 C45 1.405 . S
C44 H70 0.930 . S
C45 C40 1.479 . S
C45 C44 1.405 . S
C45 H71 0.931 . S
U46 O47 2.454 . S
U46 O48 2.458 . S
U46 C49 2.984 . S
U46 C50 2.847 . S
U46 C63 2.882 . S
U46 O64 2.441 . S
U46 O65 2.420 . S
U46 O66 2.455 . S
U46 O67 2.449 . S
O47 U46 2.454 . S
O47 C49 1.353 . S
O48 U46 2.458 . S
O48 C49 1.286 . S
C49 U46 2.984 . S
C49 O47 1.353 . S
C49 O48 1.286 . S
C49 C51 1.363 . S
C50 C40 1.465 . S
C50 U46 2.847 . S
C50 O64 1.249 . S
C50 O65 1.202 . S
C51 C49 1.363 . S
C51 C53 1.408 . S
C51 C56 1.342 . S
C52 C53 1.310 . S
C52 C55 1.461 . S
C52 H72 0.932 . S
C53 C51 1.408 . S
C53 C52 1.310 . S
C53 H73 0.930 . S
C54 C55 1.474 . S
C54 C56 1.285 . S
C54 H74 0.929 . S
C55 C52 1.461 . S
C55 C54 1.474 . S
C56 C51 1.342 . S
C56 C54 1.285 . S
C56 H75 0.930 . S
C57 C60 1.424 . S
C57 C62 1.245 . S
C57 C63 1.428 . S
C58 C61 1.260 . S
C58 C62 1.477 . S
C58 H76 0.932 . S
C59 C60 1.384 . S
C59 C61 1.479 . S
C59 H77 0.929 . S
C60 C57 1.424 . S
C60 C59 1.384 . S
C60 H78 0.928 . S
C61 C58 1.260 . S
C61 C59 1.479 . S
C62 C57 1.245 . S
C62 C58 1.477 . S
C62 H79 0.932 . S
C63 U46 2.882 . S
C63 C57 1.428 . S
C63 O66 1.301 . S
C63 O67 1.282 . S
O64 U46 2.441 . S
O64 C50 1.249 . S
O65 U46 2.420 . S
O65 C50 1.202 . S
O66 U46 2.455 . S
O66 C63 1.301 . S
O67 U46 2.449 . S
O67 C63 1.282 . S
H68 C41 0.931 . S
H69 C43 0.929 . S
H70 C44 0.930 . S
H71 C45 0.931 . S
H72 C52 0.932 . S
H73 C53 0.930 . S
H74 C54 0.929 . S
H75 C56 0.930 . S
H76 C58 0.932 . S
H77 C59 0.929 . S
H78 C60 0.928 . S
H79 C62 0.932 . S
C80 C81 1.264 . S
C80 C85 1.479 . S
C80 C90 1.465 . S
C81 C80 1.264 . S
C81 C83 1.339 . S
C81 H108 0.931 . S
C82 C83 1.395 . S
C82 C84 1.320 . S
C83 C81 1.339 . S
C83 C82 1.395 . S
C83 H109 0.929 . S
C84 C82 1.320 . S
C84 C85 1.405 . S
C84 H110 0.930 . S
C85 C80 1.479 . S
C85 C84 1.405 . S
C85 H111 0.931 . S
U86 O87 2.454 . S
U86 O88 2.458 1_554 S
U86 C89 2.984 . S
U86 C90 2.847 . S
U86 C103 2.882 1_554 S
U86 O104 2.441 . S
U86 O105 2.420 . S
U86 O106 2.455 1_554 S
U86 O107 2.449 1_554 S
O87 U86 2.454 . S
O87 C89 1.353 . S
O88 U86 2.458 1_556 S
O88 C89 1.286 1_556 S
C89 U86 2.984 . S
C89 O87 1.353 . S
C89 O88 1.286 1_554 S
C89 C91 1.363 . S
C90 C80 1.465 . S
C90 U86 2.847 . S
C90 O104 1.249 . S
C90 O105 1.202 . S
C91 C89 1.363 . S
C91 C93 1.408 . S
C91 C96 1.342 1_554 S
C92 C93 1.310 . S
C92 C95 1.461 . S
C92 H112 0.932 . S
C93 C91 1.408 . S
C93 C92 1.310 . S
C93 H113 0.930 . S
C94 C95 1.474 1_556 S
C94 C96 1.285 . S
C94 H114 0.929 . S
C95 C92 1.461 . S
C95 C94 1.474 1_554 S
C96 C91 1.342 1_556 S
C96 C94 1.285 . S
C96 H115 0.930 . S
C97 C100 1.424 . S
C97 C102 1.245 . S
C97 C103 1.428 . S
C98 C101 1.260 . S
C98 C102 1.477 . S
C98 H116 0.932 . S
C99 C100 1.384 . S
C99 C101 1.479 . S
C99 H117 0.929 . S
C100 C97 1.424 . S
C100 C99 1.384 . S
C100 H118 0.928 . S
C101 C98 1.260 . S
C101 C99 1.479 . S
C102 C97 1.245 . S
C102 C98 1.477 . S
C102 H119 0.932 . S
C103 U86 2.882 1_556 S
C103 C97 1.428 . S
C103 O106 1.301 . S
C103 O107 1.282 . S
O104 U86 2.441 . S
O104 C90 1.249 . S
O105 U86 2.420 . S
O105 C90 1.202 . S
O106 U86 2.455 1_556 S
O106 C103 1.301 . S
O107 U86 2.449 1_556 S
O107 C103 1.282 . S
H108 C81 0.931 . S
H109 C83 0.929 . S
H110 C84 0.930 . S
H111 C85 0.931 . S
H112 C92 0.932 . S
H113 C93 0.930 . S
H114 C94 0.929 . S
H115 C96 0.930 . S
H116 C98 0.932 . S
H117 C99 0.929 . S
H118 C100 0.928 . S
H119 C102 0.932 . S
C120 C121 1.264 . S
C120 C125 1.479 . S
C120 C130 1.465 . S
C121 C120 1.264 . S
C121 C123 1.339 . S
C121 H148 0.931 . S
C122 C123 1.395 . S
C122 C124 1.320 . S
C123 C121 1.339 . S
C123 C122 1.395 . S
C123 H149 0.929 . S
C124 C122 1.320 . S
C124 C125 1.405 . S
C124 H150 0.930 . S
C125 C120 1.479 . S
C125 C124 1.405 . S
C125 H151 0.931 . S
U126 O127 2.454 . S
U126 O128 2.458 . S
U126 C129 2.984 . S
U126 C130 2.847 . S
U126 C143 2.882 . S
U126 O144 2.441 . S
U126 O145 2.420 . S
U126 O146 2.455 . S
U126 O147 2.449 . S
O127 U126 2.454 . S
O127 C129 1.353 . S
O128 U126 2.458 . S
O128 C129 1.286 . S
C129 U126 2.984 . S
C129 O127 1.353 . S
C129 O128 1.286 . S
C129 C131 1.363 . S
C130 C120 1.465 . S
C130 U126 2.847 . S
C130 O144 1.249 . S
C130 O145 1.202 . S
C131 C129 1.363 . S
C131 C133 1.408 . S
C131 C136 1.342 . S
C132 C133 1.310 . S
C132 C135 1.461 . S
C132 H152 0.932 . S
C133 C131 1.408 . S
C133 C132 1.310 . S
C133 H153 0.930 . S
C134 C135 1.474 . S
C134 C136 1.285 . S
C134 H154 0.929 . S
C135 C132 1.461 . S
C135 C134 1.474 . S
C136 C131 1.342 . S
C136 C134 1.285 . S
C136 H155 0.930 . S
C137 C140 1.424 . S
C137 C142 1.245 . S
C137 C143 1.428 . S
C138 C141 1.260 . S
C138 C142 1.477 . S
C138 H156 0.932 . S
C139 C140 1.384 . S
C139 C141 1.479 . S
C139 H157 0.929 . S
C140 C137 1.424 . S
C140 C139 1.384 . S
C140 H158 0.928 . S
C141 C138 1.260 . S
C141 C139 1.479 . S
C142 C137 1.245 . S
C142 C138 1.477 . S
C142 H159 0.932 . S
C143 U126 2.882 . S
C143 C137 1.428 . S
C143 O146 1.301 . S
C143 O147 1.282 . S
O144 U126 2.441 . S
O144 C130 1.249 . S
O145 U126 2.420 . S
O145 C130 1.202 . S
O146 U126 2.455 . S
O146 C143 1.301 . S
O147 U126 2.449 . S
O147 C143 1.282 . S
H148 C121 0.931 . S
H149 C123 0.929 . S
H150 C124 0.930 . S
H151 C125 0.931 . S
H152 C132 0.932 . S
H153 C133 0.930 . S
H154 C134 0.929 . S
H155 C136 0.930 . S
H156 C138 0.932 . S
H157 C139 0.929 . S
H158 C140 0.928 . S
H159 C142 0.932 . S
C160 O176 1.251 . S
C160 O178 1.254 . S
N161 C162 1.333 . S
N161 C166 1.307 . S
N161 Zn167 2.020 . S
C162 N161 1.333 . S
C162 C163 1.379 . S
C162 H180 0.952 . S
C163 C162 1.379 . S
C163 C164 1.390 . S
C163 H190 0.949 . S
C164 C163 1.390 . S
C164 C165 1.357 . S
C165 C164 1.357 . S
C165 C166 1.370 . S
C165 H191 0.950 . S
C166 N161 1.307 . S
C166 C165 1.370 . S
C166 H184 0.948 . S
Zn167 N161 2.020 . S
Zn167 O176 2.039 1_545 S
Zn167 O182 2.034 1_545 S
Zn167 O186 2.025 . S
Zn167 O188 2.024 . S
C168 O187 1.246 . S
C168 O188 1.249 1_655 S
N169 C170 1.307 . S
N169 C171 1.333 . S
N169 Zn175 2.020 . S
C170 N169 1.307 . S
C170 C174 1.370 . S
C170 H181 0.948 . S
C171 N169 1.333 . S
C171 C172 1.379 . S
C171 H179 0.952 1_565 S
C172 C171 1.379 . S
C172 C173 1.390 . S
C172 H192 0.949 . S
C173 C172 1.390 . S
C173 C174 1.357 . S
C174 C170 1.370 . S
C174 C173 1.357 . S
C174 H193 0.950 . S
Zn175 N169 2.020 . S
Zn175 O178 2.025 1_655 S
Zn175 O183 2.024 1_655 S
Zn175 O185 2.039 1_565 S
Zn175 O187 2.034 1_565 S
O176 C160 1.251 . S
O176 Zn167 2.039 1_565 S
C177 O182 1.246 . S
C177 O183 1.249 . S
O178 C160 1.254 . S
O178 Zn175 2.025 1_455 S
H179 C171 0.952 1_545 S
H180 C162 0.952 . S
H181 C170 0.948 . S
O182 Zn167 2.034 1_565 S
O182 C177 1.246 . S
O183 Zn175 2.024 1_455 S
O183 C177 1.249 . S
H184 C166 0.948 . S
O185 Zn175 2.039 1_545 S
O185 C189 1.251 . S
O186 Zn167 2.025 . S
O186 C189 1.254 1_455 S
O187 C168 1.246 . S
O187 Zn175 2.034 1_545 S
O188 Zn167 2.024 . S
O188 C168 1.249 1_455 S
C189 O185 1.251 . S
C189 O186 1.254 1_655 S
H190 C163 0.949 . S
H191 C165 0.950 . S
H192 C172 0.949 . S
H193 C174 0.950 . S
C194 O210 1.251 . S
C194 O212 1.254 . S
N195 C196 1.339 . S
N195 C200 1.307 . S
N195 Zn201 2.020 . S
C196 N195 1.339 . S
C196 C197 1.379 1_554 S
C196 H214 0.946 1_554 S
C197 C196 1.379 1_556 S
C197 C198 1.387 1_556 S
C197 H224 0.952 . S
C198 C197 1.387 1_554 S
C198 C199 1.357 . S
C199 C198 1.357 . S
C199 C200 1.370 . S
C199 H225 0.950 . S
C200 N195 1.307 . S
C200 C199 1.370 . S
C200 H218 0.948 . S
Zn201 N195 2.020 . S
Zn201 O210 2.039 1_554 S
Zn201 O216 2.034 . S
Zn201 O220 2.025 . S
Zn201 O222 2.024 1_554 S
C202 O221 1.246 . S
C202 O222 1.249 . S
N203 C204 1.307 . S
N203 C205 1.333 . S
N203 Zn209 2.020 . S
C204 N203 1.307 . S
C204 C208 1.370 . S
C204 H215 0.948 1_554 S
C205 N203 1.333 . S
C205 C206 1.379 . S
C205 H213 0.952 . S
C206 C205 1.379 . S
C206 C207 1.390 . S
C206 H226 0.949 . S
C207 C206 1.390 . S
C207 C208 1.357 . S
C208 C204 1.370 . S
C208 C207 1.357 . S
C208 H227 0.950 1_554 S
Zn209 N203 2.020 . S
Zn209 O212 2.025 1_554 S
Zn209 O217 2.024 . S
Zn209 O219 2.039 . S
Zn209 O221 2.034 1_554 S
O210 C194 1.251 . S
O210 Zn201 2.039 1_556 S
C211 O216 1.246 . S
C211 O217 1.249 . S
O212 C194 1.254 . S
O212 Zn209 2.025 1_556 S
H213 C205 0.952 . S
H214 C196 0.946 1_556 S
H215 C204 0.948 1_556 S
O216 Zn201 2.034 . S
O216 C211 1.246 . S
O217 Zn209 2.024 . S
O217 C211 1.249 . S
H218 C200 0.948 . S
O219 Zn209 2.039 . S
O219 C223 1.251 . S
O220 Zn201 2.025 . S
O220 C223 1.254 . S
O221 C202 1.246 . S
O221 Zn209 2.034 1_556 S
O222 Zn201 2.024 1_556 S
O222 C202 1.249 . S
C223 O219 1.251 . S
C223 O220 1.254 . S
H224 C197 0.952 . S
H225 C199 0.950 . S
H226 C206 0.949 . S
H227 C208 0.950 1_556 S
H228 C234 0.930 . S
H229 C238 0.930 . S
H230 C243 0.929 . S
H231 C241 0.929 . S
H232 C236 0.929 . S
H233 C242 0.929 . S
C234 H228 0.930 . S
C234 C235 1.367 . S
C234 C242 1.378 . S
C235 C234 1.367 . S
C235 C243 1.433 . S
C236 H232 0.929 . S
C236 C238 1.378 . S
C236 C240 1.350 . S
C237 C240 1.463 . S
C237 C242 1.350 . S
C237 N245 1.427 . S
C238 H229 0.930 . S
C238 C236 1.378 . S
C238 C239 1.367 . S
C239 C238 1.367 . S
C239 C241 1.433 . S
C240 C236 1.350 . S
C240 C237 1.463 . S
C240 N244 1.427 . S
C241 H231 0.929 . S
C241 C239 1.433 . S
C241 N244 1.384 . S
C242 H233 0.929 . S
C242 C234 1.378 . S
C242 C237 1.350 . S
C243 H230 0.929 . S
C243 C235 1.433 . S
C243 N245 1.384 . S
N244 C240 1.427 . S
N244 C241 1.384 . S
N245 C237 1.427 . S
N245 C243 1.384 . S
H246 C252 0.930 . S
H247 C256 0.930 . S
H248 C261 0.929 . S
H249 C259 0.929 . S
H250 C254 0.929 . S
H251 C260 0.929 . S
C252 H246 0.930 . S
C252 C253 1.367 1_556 S
C252 C260 1.378 . S
C253 C252 1.367 1_554 S
C253 C261 1.433 . S
C254 H250 0.929 . S
C254 C256 1.378 . S
C254 C258 1.350 . S
C255 C258 1.463 . S
C255 C260 1.350 1_554 S
C255 N263 1.427 . S
C256 H247 0.930 . S
C256 C254 1.378 . S
C256 C257 1.367 . S
C257 C256 1.367 . S
C257 C259 1.433 1_554 S
C258 C254 1.350 . S
C258 C255 1.463 . S
C258 N262 1.427 1_554 S
C259 H249 0.929 . S
C259 C257 1.433 1_556 S
C259 N262 1.384 . S
C260 H251 0.929 . S
C260 C252 1.378 . S
C260 C255 1.350 1_556 S
C261 H248 0.929 . S
C261 C253 1.433 . S
C261 N263 1.384 . S
N262 C258 1.427 1_556 S
N262 C259 1.384 . S
N263 C255 1.427 . S
N263 C261 1.384 . S
H264 C270 0.930 . S
H265 C274 0.930 . S
H266 C279 0.929 . S
H267 C277 0.929 . S
H268 C272 0.929 . S
H269 C278 0.929 . S
C270 H264 0.930 . S
C270 C271 1.367 . S
C270 C278 1.378 . S
C271 C270 1.367 . S
C271 C279 1.433 . S
C272 H268 0.929 . S
C272 C274 1.378 . S
C272 C276 1.350 . S
C273 C276 1.463 . S
C273 C278 1.350 . S
C273 N281 1.427 . S
C274 H265 0.930 . S
C274 C272 1.378 . S
C274 C275 1.367 . S
C275 C274 1.367 . S
C275 C277 1.433 . S
C276 C272 1.350 . S
C276 C273 1.463 . S
C276 N280 1.427 . S
C277 H267 0.929 . S
C277 C275 1.433 . S
C277 N280 1.384 . S
C278 H269 0.929 . S
C278 C270 1.378 . S
C278 C273 1.350 . S
C279 H266 0.929 . S
C279 C271 1.433 . S
C279 N281 1.384 . S
N280 C276 1.427 . S
N280 C277 1.384 . S
N281 C273 1.427 . S
N281 C279 1.384 . S
H282 C288 0.930 . S
H283 C292 0.930 . S
H284 C297 0.929 . S
H285 C295 0.929 . S
H286 C290 0.929 . S
H287 C296 0.929 . S
C288 H282 0.930 . S
C288 C289 1.367 . S
C288 C296 1.378 . S
C289 C288 1.367 . S
C289 C297 1.433 1_554 S
C290 H286 0.929 . S
C290 C292 1.378 . S
C290 C294 1.350 1_556 S
C291 C294 1.463 . S
C291 C296 1.350 . S
C291 N299 1.427 1_554 S
C292 H283 0.930 . S
C292 C290 1.378 . S
C292 C293 1.367 1_556 S
C293 C292 1.367 1_554 S
C293 C295 1.433 . S
C294 C290 1.350 1_554 S
C294 C291 1.463 . S
C294 N298 1.427 . S
C295 H285 0.929 . S
C295 C293 1.433 . S
C295 N298 1.384 . S
C296 H287 0.929 . S
C296 C288 1.378 . S
C296 C291 1.350 . S
C297 H284 0.929 . S
C297 C289 1.433 1_556 S
C297 N299 1.384 . S
N298 C294 1.427 . S
N298 C295 1.384 . S
N299 C291 1.427 1_556 S
N299 C297 1.384 . S
H300 C306 0.930 . S
H301 C310 0.930 . S
H302 C315 0.929 . S
H303 C313 0.929 . S
H304 C308 0.929 . S
H305 C314 0.929 . S
C306 H300 0.930 . S
C306 C307 1.367 . S
C306 C314 1.378 . S
C307 C306 1.367 . S
C307 C315 1.433 . S
C308 H304 0.929 . S
C308 C310 1.378 . S
C308 C312 1.350 . S
C309 C312 1.463 . S
C309 C314 1.350 . S
C309 N317 1.427 . S
C310 H301 0.930 . S
C310 C308 1.378 . S
C310 C311 1.367 . S
C311 C310 1.367 . S
C311 C313 1.433 . S
C312 C308 1.350 . S
C312 C309 1.463 . S
C312 N316 1.427 . S
C313 H303 0.929 . S
C313 C311 1.433 . S
C313 N316 1.384 . S
C314 H305 0.929 . S
C314 C306 1.378 . S
C314 C309 1.350 . S
C315 H302 0.929 . S
C315 C307 1.433 . S
C315 N317 1.384 . S
N316 C312 1.427 . S
N316 C313 1.384 . S
N317 C309 1.427 . S
N317 C315 1.384 . S
H318 C324 0.930 . S
H319 C328 0.930 . S
H320 C333 0.929 . S
H321 C331 0.929 . S
H322 C326 0.929 . S
H323 C332 0.929 . S
C324 H318 0.930 . S
C324 C325 1.367 . S
C324 C332 1.378 . S
C325 C324 1.367 . S
C325 C333 1.433 . S
C326 H322 0.929 . S
C326 C328 1.378 . S
C326 C330 1.350 . S
C327 C330 1.463 . S
C327 C332 1.350 . S
C327 N335 1.427 . S
C328 H319 0.930 . S
C328 C326 1.378 . S
C328 C329 1.367 . S
C329 C328 1.367 . S
C329 C331 1.433 . S
C330 C326 1.350 . S
C330 C327 1.463 . S
C330 N334 1.427 . S
C331 H321 0.929 . S
C331 C329 1.433 . S
C331 N334 1.384 . S
C332 H323 0.929 . S
C332 C324 1.378 . S
C332 C327 1.350 . S
C333 H320 0.929 . S
C333 C325 1.433 . S
C333 N335 1.384 . S
N334 C330 1.427 . S
N334 C331 1.384 . S
N335 C327 1.427 . S
N335 C333 1.384 . S
H336 C342 0.930 . S
H337 C346 0.930 . S
H338 C351 0.929 . S
H339 C349 0.929 . S
H340 C344 0.908 1_455 S
H341 C350 0.929 . S
C342 H336 0.930 . S
C342 C343 1.367 . S
C342 C350 1.378 . S
C343 C342 1.367 . S
C343 C351 1.433 . S
C344 H340 0.908 1_655 S
C344 C346 1.373 1_655 S
C344 C348 1.377 . S
C345 C348 1.463 . S
C345 C350 1.350 . S
C345 N353 1.427 . S
C346 H337 0.930 . S
C346 C344 1.373 1_455 S
C346 C347 1.367 1_455 S
C347 C346 1.367 1_655 S
C347 C349 1.433 . S
C348 C344 1.377 . S
C348 C345 1.463 . S
C348 N352 1.427 . S
C349 H339 0.929 . S
C349 C347 1.433 . S
C349 N352 1.384 . S
C350 H341 0.929 . S
C350 C342 1.378 . S
C350 C345 1.350 . S
C351 H338 0.929 . S
C351 C343 1.433 . S
C351 N353 1.384 . S
N352 C348 1.427 . S
N352 C349 1.384 . S
N353 C345 1.427 . S
N353 C351 1.384 . S
H354 C360 0.930 . S
H355 C364 0.930 . S
H356 C369 0.929 . S
H357 C367 0.929 . S
H358 C362 0.929 . S
H359 C368 0.929 . S
C360 H354 0.930 . S
C360 C361 1.367 . S
C360 C368 1.378 . S
C361 C360 1.367 . S
C361 C369 1.433 . S
C362 H358 0.929 . S
C362 C364 1.378 . S
C362 C366 1.350 . S
C363 C366 1.463 . S
C363 C368 1.350 . S
C363 N371 1.427 . S
C364 H355 0.930 . S
C364 C362 1.378 . S
C364 C365 1.367 . S
C365 C364 1.367 . S
C365 C367 1.433 . S
C366 C362 1.350 . S
C366 C363 1.463 . S
C366 N370 1.427 . S
C367 H357 0.929 . S
C367 C365 1.433 . S
C367 N370 1.384 . S
C368 H359 0.929 . S
C368 C360 1.378 . S
C368 C363 1.350 . S
C369 H356 0.929 . S
C369 C361 1.433 . S
C369 N371 1.384 . S
N370 C366 1.427 . S
N370 C367 1.384 . S
N371 C363 1.427 . S
N371 C369 1.384 . S
H372 C378 0.930 . S
H373 C382 0.930 . S
H374 C387 0.929 . S
H375 C385 0.929 . S
H376 C380 0.929 . S
H377 C386 0.929 . S
C378 H372 0.930 . S
C378 C379 1.367 . S
C378 C386 1.378 . S
C379 C378 1.367 . S
C379 C387 1.433 . S
C380 H376 0.929 . S
C380 C382 1.378 . S
C380 C384 1.350 . S
C381 C384 1.463 . S
C381 C386 1.350 . S
C381 N389 1.427 . S
C382 H373 0.930 . S
C382 C380 1.378 . S
C382 C383 1.367 . S
C383 C382 1.367 . S
C383 C385 1.433 . S
C384 C380 1.350 . S
C384 C381 1.463 . S
C384 N388 1.427 . S
C385 H375 0.929 . S
C385 C383 1.433 . S
C385 N388 1.384 . S
C386 H377 0.929 . S
C386 C378 1.378 . S
C386 C381 1.350 . S
C387 H374 0.929 . S
C387 C379 1.433 . S
C387 N389 1.384 . S
N388 C384 1.427 . S
N388 C385 1.384 . S
N389 C381 1.427 . S
N389 C387 1.384 . S
H390 C396 0.930 . S
H391 C400 0.930 1_455 S
H392 C405 0.929 . S
H393 C403 0.929 . S
H394 C398 0.929 . S
H395 C404 0.929 . S
C396 H390 0.930 . S
C396 C397 1.367 . S
C396 C404 1.378 . S
C397 C396 1.367 . S
C397 C405 1.433 . S
C398 H394 0.929 . S
C398 C400 1.378 . S
C398 C402 1.350 . S
C399 C402 1.463 . S
C399 C404 1.350 . S
C399 N407 1.427 . S
C400 H391 0.930 1_655 S
C400 C398 1.378 . S
C400 C401 1.367 . S
C401 C400 1.367 . S
C401 C403 1.433 . S
C402 C398 1.350 . S
C402 C399 1.463 . S
C402 N406 1.427 . S
C403 H393 0.929 . S
C403 C401 1.433 . S
C403 N406 1.384 . S
C404 H395 0.929 . S
C404 C396 1.378 . S
C404 C399 1.350 . S
C405 H392 0.929 . S
C405 C397 1.433 . S
C405 N407 1.384 . S
N406 C402 1.427 . S
N406 C403 1.384 . S
N407 C399 1.427 . S
N407 C405 1.384 . S
H408 C414 0.930 . S
H409 C418 0.930 . S
H410 C423 0.929 . S
H411 C421 0.929 . S
H412 C416 0.929 . S
H413 C422 0.929 . S
C414 H408 0.930 . S
C414 C415 1.367 . S
C414 C422 1.378 . S
C415 C414 1.367 . S
C415 C423 1.433 . S
C416 H412 0.929 . S
C416 C418 1.378 . S
C416 C420 1.350 . S
C417 C420 1.463 . S
C417 C422 1.350 . S
C417 N425 1.427 . S
C418 H409 0.930 . S
C418 C416 1.378 . S
C418 C419 1.367 . S
C419 C418 1.367 . S
C419 C421 1.433 . S
C420 C416 1.350 . S
C420 C417 1.463 . S
C420 N424 1.427 . S
C421 H411 0.929 . S
C421 C419 1.433 . S
C421 N424 1.384 . S
C422 H413 0.929 . S
C422 C414 1.378 . S
C422 C417 1.350 . S
C423 H410 0.929 . S
C423 C415 1.433 . S
C423 N425 1.384 . S
N424 C420 1.427 . S
N424 C421 1.384 . S
N425 C417 1.427 . S
N425 C423 1.384 . S
H426 C432 0.930 . S
H427 C436 0.930 . S
H428 C441 0.929 . S
H429 C439 0.929 . S
H430 C434 0.929 . S
H431 C440 0.929 . S
C432 H426 0.930 . S
C432 C433 1.367 . S
C432 C440 1.378 . S
C433 C432 1.367 . S
C433 C441 1.433 . S
C434 H430 0.929 . S
C434 C436 1.378 . S
C434 C438 1.350 . S
C435 C438 1.463 . S
C435 C440 1.350 . S
C435 N443 1.427 . S
C436 H427 0.930 . S
C436 C434 1.378 . S
C436 C437 1.367 . S
C437 C436 1.367 . S
C437 C439 1.433 . S
C438 C434 1.350 . S
C438 C435 1.463 . S
C438 N442 1.427 . S
C439 H429 0.929 . S
C439 C437 1.433 . S
C439 N442 1.384 . S
C440 H431 0.929 . S
C440 C432 1.378 . S
C440 C435 1.350 . S
C441 H428 0.929 . S
C441 C433 1.433 . S
C441 N443 1.384 . S
N442 C438 1.427 . S
N442 C439 1.384 . S
N443 C435 1.427 . S
N443 C441 1.384 . S
C239 C164 1.694 . S
C235 C135 1.657 . S
C253 C15 1.579 . S
C257 C207 1.596 . S
C271 C55 1.663 . S
C275 C173 1.690 . S
C289 C95 1.583 . S
C293 C198 1.600 . S
C311 C160 1.647 . S
C307 C2 1.568 . S
C329 C202 1.773 . S
C325 C42 1.771 . S
C343 C82 1.563 . S
C347 C168 1.634 . S
C361 C141 1.643 . S
C365 C194 1.763 . S
C383 C223 1.787 . S
C379 C61 1.774 . S
C401 C189 1.691 . S
C397 C101 1.595 . S
C419 C211 1.795 . S
C415 C122 1.703 . S
C433 C21 1.602 . S
C437 C177 1.679 . S
