# Generated by pormake.
# Topology tsx, (6,3)-cn, num edge types: 1
# Building blocks:
#     Node 0, Type 0, BuildingBlock: JUFBIX_clean_sbu_0, # of connection points: 6
#     Node 1, Type 0, BuildingBlock: JUFBIX_clean_sbu_0, # of connection points: 6
#     Node 2, Type 1, BuildingBlock: WUSLED_clean_sbu_0, # of connection points: 3
#     Node 3, Type 1, BuildingBlock: WUSLED_clean_sbu_0, # of connection points: 3
#     Node 4, Type 1, BuildingBlock: WUSLED_clean_sbu_0, # of connection points: 3
#     Node 5, Type 1, BuildingBlock: WUSLED_clean_sbu_0, # of connection points: 3
#     Edge 6, Type (0, 1), BuildingBlock: CIFDUS_clean_linker_0, # of connection points: 2
#     Edge 7, Type (0, 1), BuildingBlock: CIFDUS_clean_linker_0, # of connection points: 2
#     Edge 8, Type (0, 1), BuildingBlock: CIFDUS_clean_linker_0, # of connection points: 2
#     Edge 9, Type (0, 1), BuildingBlock: CIFDUS_clean_linker_0, # of connection points: 2
#     Edge 10, Type (0, 1), BuildingBlock: CIFDUS_clean_linker_0, # of connection points: 2
#     Edge 11, Type (0, 1), BuildingBlock: CIFDUS_clean_linker_0, # of connection points: 2
#     Edge 12, Type (0, 1), BuildingBlock: CIFDUS_clean_linker_0, # of connection points: 2
#     Edge 13, Type (0, 1), BuildingBlock: CIFDUS_clean_linker_0, # of connection points: 2
#     Edge 14, Type (0, 1), BuildingBlock: CIFDUS_clean_linker_0, # of connection points: 2
#     Edge 15, Type (0, 1), BuildingBlock: CIFDUS_clean_linker_0, # of connection points: 2
#     Edge 16, Type (0, 1), BuildingBlock: CIFDUS_clean_linker_0, # of connection points: 2
#     Edge 17, Type (0, 1), BuildingBlock: CIFDUS_clean_linker_0, # of connection points: 2
# Relax obj value: 0.150
# Max RMSD: 0.163
# Mean RMSD: 0.129
data_MOF--net-tsx--node1-JUFBIX_clean_sbu_0--node2-WUSLED_clean_sbu_0--edge1-CIFDUS_clean_linker_0
_symmetry_space_group_name_H-M    P1
_symmetry_Int_Tables_number       1
_symmetry_cell_setting            triclinic
loop_
_symmetry_equiv_pos_as_xyz
'x, y, z'
_cell_length_a     23.285395
_cell_length_b     27.493882
_cell_length_c     41.321103
_cell_angle_alpha  92.703192
_cell_angle_beta   89.597513
_cell_angle_gamma 97.765379
loop_
_atom_site_label
_atom_site_type_symbol
_atom_site_fract_x
_atom_site_fract_y
_atom_site_fract_z
_atom_type_partial_charge
Co0 Co 0.0493 0.99662 0.02191 0.0
C1 C 1.003 0.02505 0.96362 0.0
Co2 Co 0.97904 0.04399 0.02751 0.0
C3 C 0.122 0.91657 0.02604 0.0
C4 C 0.14914 0.96893 0.99033 0.0
N5 N 0.10927 0.95879 0.01378 0.0
N6 N 0.16762 0.90009 0.01059 0.0
C7 C 0.18451 0.93293 0.98817 0.0
H8 H 0.09727 0.89751 0.04503 0.0
H9 H 0.15161 1.00018 0.9752 0.0
C10 C 0.02584 0.01696 0.0858 0.0
N11 N 0.92007 0.08308 0.0356 0.0
C12 C 0.90183 0.11825 0.01781 0.0
C13 C 0.88727 0.0828 0.06272 0.0
N14 N 0.85982 0.13989 0.03315 0.0
C15 C 0.85036 0.11757 0.06125 0.0
C16 C 0.94043 0.94375 0.02402 0.0
O17 O 0.05757 0.99234 0.06807 0.0
O18 O 0.99019 0.0409 0.07258 0.0
O19 O 0.92433 0.98611 0.02764 0.0
O20 O 0.99394 0.93965 0.02064 0.0
O21 O 0.97009 0.04732 0.98202 0.0
H22 H 0.88941 0.05849 0.08236 0.0
H23 H 0.91843 0.12748 0.99402 0.0
O24 O 0.03986 1.00127 0.97601 0.0
O25 O 0.10429 0.05539 0.02339 0.0
O26 O 0.03346 0.10056 0.02785 0.0
C27 C 0.08729 0.0975 0.02642 0.0
H28 H 0.21989 0.93076 0.97124 0.0
H29 H 0.81792 0.1251 0.07901 0.0
Co30 Co 0.54625 0.48984 0.52101 0.0
C31 C 0.50464 0.52683 0.46364 0.0
Co32 Co 0.48414 0.54454 0.52762 0.0
C33 C 0.62284 0.41305 0.52865 0.0
C34 C 0.6294 0.44509 0.48234 0.0
N35 N 0.6017 0.44732 0.51117 0.0
N36 N 0.6613 0.38959 0.51136 0.0
C37 C 0.66509 0.40949 0.4823 0.0
H38 H 0.60981 0.40491 0.55322 0.0
H39 H 0.62474 0.468 0.46227 0.0
C40 C 0.52524 0.50792 0.58498 0.0
N41 N 0.42898 0.58661 0.53662 0.0
C42 C 0.41836 0.62769 0.52216 0.0
C43 C 0.38741 0.57927 0.55939 0.0
N44 N 0.37155 0.64603 0.53503 0.0
C45 C 0.35236 0.61551 0.55855 0.0
C46 C 0.43378 0.44467 0.52265 0.0
O47 O 0.5539 0.4823 0.56613 0.0
O48 O 0.49376 0.53714 0.57318 0.0
O49 O 0.42329 0.48897 0.52589 0.0
O50 O 0.48586 0.43603 0.51963 0.0
O51 O 0.47569 0.55192 0.48256 0.0
H52 H 0.38239 0.54895 0.57539 0.0
H53 H 0.44355 0.64299 0.50205 0.0
O54 O 0.53625 0.4981 0.47566 0.0
O55 O 0.60662 0.54448 0.52316 0.0
O56 O 0.54556 0.5987 0.52912 0.0
C57 C 0.59751 0.5891 0.52682 0.0
H58 H 0.69236 0.39915 0.4625 0.0
H59 H 0.31563 0.61905 0.57424 0.0
C60 C 0.93968 0.11017 0.49222 0.0
C61 C 0.91526 0.12718 0.46468 0.0
C62 C 0.85876 0.17812 0.4988 0.0
C63 C 0.87527 0.1608 0.46794 0.0
C64 C 0.88489 0.16233 0.52629 0.0
C65 C 0.92475 0.12845 0.52299 0.0
U66 U 0.02152 0.02517 0.43943 0.0
O67 O 0.10936 1.00409 0.44345 0.0
O68 O 0.03255 0.94754 0.44401 0.0
C69 C 0.08942 0.95711 0.44449 0.0
C70 C 0.97886 0.07216 0.48905 0.0
C71 C 0.12238 0.92501 0.46246 0.0
C72 C 0.13867 0.87616 0.50834 0.0
C73 C 0.1091 0.91124 0.49425 0.0
C74 C 0.19513 0.86938 0.45928 0.0
C75 C 0.18166 0.85444 0.49079 0.0
C76 C 0.16593 0.90422 0.44541 0.0
C77 C 1.00392 0.03557 0.34632 0.0
C78 C 0.04505 0.98928 0.30223 0.0
C79 C 0.98579 0.05215 0.29041 0.0
C80 C 0.97837 0.06185 0.32349 0.0
C81 C 0.01961 0.01606 0.27918 0.0
C82 C 0.03729 0.999 0.33561 0.0
C83 C 0.99426 0.04782 0.38087 0.0
O84 O 0.95488 0.02903 0.47718 0.0
O85 O 0.03006 0.0862 0.47643 0.0
O86 O 0.03893 0.07077 0.39715 0.0
O87 O 0.9629 0.01411 0.39736 0.0
H88 H 0.92636 0.11379 0.44067 0.0
H89 H 0.85672 0.17289 0.44624 0.0
H90 H 0.87298 0.17477 0.55037 0.0
H91 H 0.94289 0.11571 0.54454 0.0
H92 H 0.12754 0.86564 0.53277 0.0
H93 H 0.07539 0.92673 0.50783 0.0
H94 H 0.22687 0.85281 0.44476 0.0
H95 H 0.17621 0.91384 0.42069 0.0
H96 H 0.07158 0.96141 0.29452 0.0
H97 H 0.96428 0.07276 0.27362 0.0
H98 H 0.95226 0.09004 0.33128 0.0
H99 H 0.0574 0.97824 0.35294 0.0
C100 C 0.91101 0.90672 0.58218 0.0
C101 C 0.88929 0.86638 0.60016 0.0
C102 C 0.83041 0.8296 0.55457 0.0
C103 C 0.84958 0.8285 0.58667 0.0
C104 C 0.85251 0.87006 0.53622 0.0
C105 C 0.89267 0.90844 0.54994 0.0
U106 U 0.02571 0.02525 0.60992 0.0
O107 O 0.02604 0.0853 0.57652 0.0
O108 O 0.09586 0.03938 0.57395 0.0
C109 C 0.07653 0.0788 0.56387 0.0
C110 C 0.94978 0.94656 0.59932 0.0
C111 C 0.11985 0.12345 0.56221 0.0
C112 C 0.18893 0.17664 0.53053 0.0
C113 C 0.14771 0.13467 0.53274 0.0
C114 C 0.17521 0.19697 0.58742 0.0
C115 C 0.20354 0.20828 0.55788 0.0
C116 C 0.13382 0.15506 0.58956 0.0
C117 C 0.0415 0.03818 0.70416 0.0
C118 C 0.07068 0.0496 0.76063 0.0
C119 C 0.98124 0.99772 0.74615 0.0
C120 C 0.99165 1.00709 0.7133 0.0
C121 C 0.02033 0.01959 0.77024 0.0
C122 C 0.08105 0.05873 0.72803 0.0
C123 C 0.05328 0.05196 0.67043 0.0
O124 O 0.93523 0.99115 0.60208 0.0
O125 O 1.00587 0.94482 0.60056 0.0
O126 O 0.01122 0.06819 0.65484 0.0
O127 O 0.08204 0.02296 0.65233 0.0
H128 H 0.90224 0.8646 0.62518 0.0
H129 H 0.83267 0.79882 0.60186 0.0
H130 H 0.83879 0.87201 0.51138 0.0
H131 H 0.9088 0.93938 0.53561 0.0
H132 H 0.2103 0.1837 0.50754 0.0
H133 H 0.13784 0.11072 0.51137 0.0
H134 H 0.18483 0.22071 0.6089 0.0
H135 H 0.11285 0.14727 0.61258 0.0
H136 H 0.10228 0.06619 0.77839 0.0
H137 H 0.94202 0.97445 0.75277 0.0
H138 H 0.96057 0.99075 0.69519 0.0
H139 H 0.1199 0.08256 0.72146 0.0
C140 C 0.43344 0.6087 0.99045 0.0
C141 C 0.43115 0.64011 0.96483 0.0
C142 C 0.35701 0.68087 0.99315 0.0
C143 C 0.39382 0.67597 0.96628 0.0
C144 C 0.36041 0.65 0.01913 0.0
C145 C 0.39824 0.61424 0.01774 0.0
U146 U 0.5163 0.5237 0.93903 0.0
O147 O 0.6023 0.50034 0.94496 0.0
O148 O 0.52434 0.4449 0.94143 0.0
C149 C 0.58108 0.45345 0.94412 0.0
C150 C 0.4709 0.56923 0.9883 0.0
C151 C 0.61095 0.41918 0.96212 0.0
C152 C 0.67314 0.3991 1.00536 0.0
C153 C 0.63893 0.4316 0.99199 0.0
C154 C 0.65091 0.34197 0.95935 0.0
C155 C 0.68024 0.35408 0.98888 0.0
C156 C 0.61655 0.37389 0.94637 0.0
C157 C 0.50102 0.54279 0.84581 0.0
C158 C 0.54168 0.50422 0.79811 0.0
C159 C 0.48254 0.56928 0.7922 0.0
C160 C 0.47489 0.57275 0.82561 0.0
C161 C 0.51684 0.53578 0.778 0.0
C162 C 0.53404 0.50787 0.83198 0.0
C163 C 0.49265 0.55058 0.88095 0.0
O164 O 0.44658 0.52704 0.97517 0.0
O165 O 0.52388 0.58216 0.97766 0.0
O166 O 0.53761 0.57122 0.898 0.0
O167 O 0.46008 0.51586 0.89594 0.0
H168 H 0.45786 0.63662 0.94349 0.0
H169 H 0.39363 0.69974 0.94613 0.0
H170 H 0.33266 0.65242 0.04012 0.0
H171 H 0.3993 0.59031 0.03776 0.0
H172 H 0.69446 0.40947 0.02834 0.0
H173 H 0.63541 0.46656 1.00454 0.0
H174 H 0.65612 0.30853 0.9454 0.0
H175 H 0.59603 0.36391 0.92309 0.0
H176 H 0.56825 0.47798 0.78779 0.0
H177 H 0.4619 0.5934 0.77739 0.0
H178 H 0.44888 0.59957 0.83578 0.0
H179 H 0.55437 0.48417 0.84726 0.0
C180 C 0.4249 0.40291 0.06115 0.0
C181 C 0.39087 0.38188 0.08629 0.0
C182 C 0.34682 0.31718 0.04832 0.0
C183 C 0.35175 0.3392 0.07984 0.0
C184 C 0.38126 0.33853 0.02341 0.0
C185 C 0.41984 0.3811 0.0298 0.0
U186 U 0.52491 0.51604 0.10318 0.0
O187 O 0.60811 0.5452 0.08121 0.0
O188 O 0.53463 0.58807 0.08134 0.0
C189 C 0.58797 0.58468 0.07188 0.0
C190 C 0.46508 0.44831 0.06577 0.0
C191 C 0.62816 0.63013 0.07041 0.0
C192 C 0.67793 0.6918 0.03638 0.0
C193 C 0.64063 0.64835 0.03973 0.0
C194 C 0.69101 0.69948 0.09468 0.0
C195 C 0.70344 0.71793 0.06379 0.0
C196 C 0.65353 0.65561 0.098 0.0
C197 C 0.52059 0.51471 0.20178 0.0
C198 C 0.54322 0.55547 0.25458 0.0
C199 C 0.49723 0.4709 0.25082 0.0
C200 C 0.49723 0.47204 0.21703 0.0
C201 C 0.52066 0.51243 0.26994 0.0
C202 C 0.54326 0.55655 0.22069 0.0
C203 C 0.52213 0.51516 0.16621 0.0
O204 O 0.44419 0.48767 0.07736 0.0
O205 O 0.51758 0.44474 0.07596 0.0
O206 O 0.55885 0.49236 0.14888 0.0
O207 O 0.48672 0.53821 0.14982 0.0
H208 H 0.39435 0.39847 0.11062 0.0
H209 H 0.32571 0.32316 0.09945 0.0
H210 H 0.37764 0.32272 0.99886 0.0
H211 H 0.44557 0.39733 0.01009 0.0
H212 H 0.68606 0.70536 0.01236 0.0
H213 H 0.62112 0.62898 0.01822 0.0
H214 H 0.71063 0.71875 0.11616 0.0
H215 H 0.64431 0.64175 0.12186 0.0
H216 H 0.56204 0.58781 0.26874 0.0
H217 H 0.47896 0.43747 0.26207 0.0
H218 H 0.47918 0.43953 0.2028 0.0
H219 H 0.56177 0.58973 0.20924 0.0
H220 H 0.20138 0.11225 1.00882 0.0
H221 H 0.06638 0.1839 0.05501 0.0
H222 H 0.13472 0.25779 0.06617 0.0
H223 H 0.23317 0.30188 0.06393 0.0
H224 H 0.3679 0.23289 0.01572 0.0
H225 H 0.29949 0.15848 1.00394 0.0
C226 C 0.18707 0.14415 0.02122 0.0
C227 C 0.12904 0.14259 0.03114 0.0
C228 C 0.22653 0.18698 0.02726 0.0
C229 C 0.1108 0.18427 0.04694 0.0
C230 C 0.14987 0.22652 0.05349 0.0
C231 C 0.2475 0.27035 0.05106 0.0
C232 C 0.30542 0.27236 0.04113 0.0
C233 C 0.20787 0.22817 0.044 0.0
C234 C 0.32338 0.23189 0.02373 0.0
C235 C 0.28437 0.1894 0.01704 0.0
H236 H 0.18573 0.83329 0.96441 0.0
H237 H 0.20873 0.86951 0.06622 0.0
H238 H 0.26878 0.80291 0.07078 0.0
H239 H 0.32167 0.73901 0.044 0.0
H240 H 0.2934 0.70246 0.94198 0.0
H241 H 0.22907 0.76464 0.93921 0.0
C242 C 0.20315 0.82586 0.98766 0.0
C243 C 0.19315 0.85599 0.01491 0.0
C244 C 0.23753 0.78801 0.98988 0.0
C245 C 0.21557 0.84629 0.04503 0.0
C246 C 0.25029 0.80859 0.04749 0.0
C247 C 0.30084 0.74415 0.02127 0.0
C248 C 0.31395 0.71667 0.99302 0.0
C249 C 0.26267 0.77984 0.01985 0.0
C250 C 0.28609 0.724 0.96387 0.0
C251 C 0.24868 0.75932 0.96227 0.0
H252 H 0.84824 0.92939 0.06398 0.0
H253 H 0.93831 0.85902 0.98741 0.0
H254 H 0.87097 0.78309 0.99197 0.0
H255 H 0.78998 0.73572 0.01985 0.0
H256 H 0.70362 0.80456 0.09875 0.0
H257 H 0.76682 0.88194 0.09175 0.0
C258 C 0.85258 0.89746 0.04814 0.0
C259 C 0.89772 0.89942 0.02536 0.0
C260 C 0.81513 0.85361 0.05174 0.0
C261 C 0.9038 0.85793 1.0052 0.0
C262 C 0.86546 0.81465 1.00784 0.0
C263 C 0.78479 0.76779 0.03536 0.0
C264 C 0.74237 0.76451 0.05985 0.0
C265 C 0.82156 0.81187 0.03138 0.0
C266 C 0.73651 0.8061 0.08002 0.0
C267 C 0.77231 0.85038 0.07587 0.0
H268 H 0.87858 0.23839 0.03922 0.0
H269 H 0.76025 0.11562 1.0014 0.0
H270 H 0.69183 0.17103 0.98617 0.0
H271 H 0.66519 0.25375 0.98486 0.0
H272 H 0.78491 0.37826 0.02035 0.0
H273 H 0.85246 0.32298 0.03634 0.0
C274 C 0.83821 0.22431 0.02707 0.0
C275 C 0.82444 0.17344 0.02065 0.0
C276 C 0.79908 0.25652 0.01866 0.0
C277 C 0.77168 0.15488 1.00575 0.0
C278 C 0.73259 0.18646 0.99739 0.0
C279 C 0.70632 0.26912 0.9957 0.0
C280 C 0.71974 0.3204 1.00112 0.0
C281 C 0.74572 0.2373 1.00388 0.0
C282 C 0.77274 0.33906 0.01618 0.0
C283 C 0.81184 0.30746 0.025 0.0
H284 H 0.60616 0.68524 0.50954 0.0
H285 H 0.70161 0.58131 0.55317 0.0
H286 H 0.78342 0.6454 0.5632 0.0
H287 H 0.82646 0.73144 0.56208 0.0
H288 H 0.73372 0.83653 0.51788 0.0
H289 H 0.6537 0.77138 0.50429 0.0
C290 C 0.64503 0.67674 0.52109 0.0
C291 C 0.64755 0.62858 0.53082 0.0
C292 C 0.69275 0.71387 0.52636 0.0
C293 C 0.69852 0.61794 0.54537 0.0
C294 C 0.74538 0.65463 0.55117 0.0
C295 C 0.7888 0.7402 0.54941 0.0
C296 C 0.78584 0.78914 0.54158 0.0
C297 C 0.74277 0.70277 0.54211 0.0
C298 C 0.73732 0.79933 0.52429 0.0
C299 C 0.69122 0.7621 0.5168 0.0
H300 H 0.64982 0.29948 0.48451 0.0
H301 H 0.74647 0.39523 0.55582 0.0
H302 H 0.8166 0.33634 0.56006 0.0
H303 H 0.85528 0.26103 0.53856 0.0
H304 H 0.75646 0.16666 0.46654 0.0
H305 H 0.68225 0.22113 0.46746 0.0
C306 C 0.68531 0.30642 0.5017 0.0
C307 C 0.69284 0.35086 0.5202 0.0
C308 C 0.7256 0.27303 0.50332 0.0
C309 C 0.73941 0.36053 0.54196 0.0
C310 C 0.77977 0.32719 0.54398 0.0
C311 C 0.81711 0.25213 0.52342 0.0
C312 C 0.81214 0.21028 0.50194 0.0
C313 C 0.77416 0.28384 0.52407 0.0
C314 C 0.76226 0.19926 0.48257 0.0
C315 C 0.71951 0.2302 0.48326 0.0
H316 H 0.41576 0.37965 0.56969 0.0
H317 H 0.34576 0.41775 0.47961 0.0
H318 H 0.26876 0.34739 0.48191 0.0
H319 H 0.22136 0.27481 0.50994 0.0
H320 H 0.28969 0.23987 0.60156 0.0
H321 H 0.36627 0.30947 0.59867 0.0
C322 C 0.38346 0.3724 0.55064 0.0
C323 C 0.3863 0.40337 0.52442 0.0
C324 C 0.33874 0.33263 0.55258 0.0
C325 C 0.34413 0.39426 0.50001 0.0
C326 C 0.30026 0.35404 0.50135 0.0
C327 C 0.25315 0.28228 0.52921 0.0
C328 C 0.24952 0.25182 0.55595 0.0
C329 C 0.29712 0.32287 0.52753 0.0
C330 C 0.29079 0.26273 0.58087 0.0
C331 C 0.33495 0.30245 0.57916 0.0
H332 H 0.26016 0.66174 0.54328 0.0
H333 H 0.4247 0.72614 0.50529 0.0
H334 H 0.38105 0.79758 0.4896 0.0
H335 H 0.29577 0.84132 0.48619 0.0
H336 H 0.13166 0.7764 0.52447 0.0
H337 H 0.17621 0.70636 0.5416 0.0
C338 C 0.28689 0.69155 0.53196 0.0
C339 C 0.34587 0.68829 0.52554 0.0
C340 C 0.26163 0.7327 0.52329 0.0
C341 C 0.37916 0.72715 0.51018 0.0
C342 C 0.35427 0.76824 0.50141 0.0
C343 C 0.26973 0.81186 0.49832 0.0
C344 C 0.21032 0.81426 0.50401 0.0
C345 C 0.29548 0.7713 0.50773 0.0
C346 C 0.17753 0.77601 0.52016 0.0
C347 C 0.20288 0.73565 0.52968 0.0
H348 H 0.03167 0.94634 0.13036 0.0
H349 H 0.03431 0.10211 0.12059 0.0
H350 H 0.03699 0.11585 0.17924 0.0
H351 H 0.03431 0.08403 0.23312 0.0
H352 H 0.02317 0.92793 0.24476 0.0
H353 H 0.02949 0.914 0.18592 0.0
C354 C 0.03372 0.9832 0.14124 0.0
C355 C 0.03317 0.02324 0.12128 0.0
C356 C 0.03357 0.99081 0.17532 0.0
C357 C 0.03474 0.07079 0.13554 0.0
C358 C 0.0362 0.07869 0.16906 0.0
C359 C 0.03274 0.0468 0.22293 0.0
C360 C 0.02766 1.00713 0.24354 0.0
C361 C 0.03472 0.03898 0.18917 0.0
C362 C 0.02748 0.95933 0.22965 0.0
C363 C 0.03066 0.95128 0.19591 0.0
H364 H 0.97989 0.95465 0.91507 0.0
H365 H 0.0291 0.1101 0.93387 0.0
H366 H 0.03843 0.12231 0.87567 0.0
H367 H 0.03416 0.08875 0.81968 0.0
H368 H 0.98076 0.93391 0.79982 0.0
H369 H 0.96939 0.92158 0.858 0.0
C370 C 0.99205 0.99114 0.90621 0.0
C371 C 1.00363 0.03157 0.92844 0.0
C372 C 0.99608 0.99797 0.87262 0.0
C373 C 0.01939 0.07871 0.917 0.0
C374 C 0.02491 0.08561 0.8838 0.0
C375 C 0.02023 0.05222 0.82805 0.0
C376 C 1.00913 0.01221 0.80539 0.0
C377 C 0.01363 0.04552 0.86142 0.0
C378 C 0.98962 0.96536 0.81668 0.0
C379 C 0.98346 0.95825 0.84998 0.0
H380 H 0.54438 0.58188 0.63024 0.0
H381 H 0.5099 0.42425 0.61855 0.0
H382 H 0.50634 0.41772 0.67766 0.0
H383 H 0.50922 0.45804 0.73298 0.0
H384 H 0.54938 0.61586 0.74327 0.0
H385 H 0.55578 0.62114 0.6847 0.0
C386 C 0.53659 0.54614 0.64075 0.0
C387 C 0.52737 0.50363 0.62036 0.0
C388 C 0.53588 0.54275 0.67456 0.0
C389 C 0.51762 0.45742 0.63401 0.0
C390 C 0.51541 0.45374 0.66774 0.0
C391 C 0.52025 0.4934 0.72234 0.0
C392 C 0.52786 0.53658 0.74248 0.0
C393 C 0.52416 0.49625 0.68834 0.0
C394 C 0.54215 0.58218 0.7283 0.0
C395 C 0.5459 0.58528 0.69479 0.0
H396 H 0.54397 0.46654 0.41711 0.0
H397 H 0.46243 0.59801 0.43021 0.0
H398 H 0.46239 0.60663 0.37152 0.0
H399 H 0.48459 0.57596 0.31615 0.0
H400 H 0.56249 0.44265 0.30373 0.0
H401 H 0.56515 0.43572 0.36239 0.0
C402 C 0.52618 0.49713 0.40717 0.0
C403 C 0.50316 0.53153 0.42805 0.0
C404 C 0.52572 0.50154 0.37346 0.0
C405 C 0.48007 0.5708 0.41469 0.0
C406 C 0.48021 0.57586 0.38112 0.0
C407 C 0.5024 0.54562 0.3264 0.0
C408 C 0.52324 0.5098 0.30569 0.0
C409 C 0.50284 0.54139 0.36024 0.0
C410 C 0.54576 0.47041 0.3192 0.0
C411 C 0.54739 0.46648 0.35272 0.0
loop_
_geom_bond_atom_site_label_1
_geom_bond_atom_site_label_2
_geom_bond_distance
_geom_bond_site_symmetry_2
_ccdc_geom_bond_type
Co0 N5 2.057 . S
Co0 O17 2.021 . S
Co0 O20 2.062 1_455 S
Co0 O24 2.117 1_554 S
Co0 O25 2.020 1_565 S
C1 O21 1.259 1_455 S
C1 O24 1.258 1_545 S
Co2 N11 2.057 . S
Co2 O18 2.117 . S
Co2 O19 2.020 1_545 S
Co2 O21 2.021 1_554 S
Co2 O26 2.062 1_655 S
C3 N5 1.316 . S
C3 N6 1.347 . S
C3 H8 0.931 . S
C4 N5 1.375 1_556 S
C4 C7 1.350 . S
C4 H9 0.930 . S
N5 Co0 2.057 . S
N5 C3 1.316 . S
N5 C4 1.375 1_554 S
N6 C3 1.347 . S
N6 C7 1.373 1_554 S
C7 C4 1.350 . S
C7 N6 1.373 1_556 S
C7 H28 0.931 . S
H8 C3 0.931 . S
H9 C4 0.930 . S
C10 O17 1.259 1_545 S
C10 O18 1.258 1_455 S
N11 Co2 2.057 . S
N11 C12 1.316 . S
N11 C13 1.375 . S
C12 N11 1.316 . S
C12 N14 1.347 . S
C12 H23 0.931 1_554 S
C13 N11 1.375 . S
C13 C15 1.350 . S
C13 H22 0.930 . S
N14 C12 1.347 . S
N14 C15 1.373 . S
C15 C13 1.350 . S
C15 N14 1.373 . S
C15 H29 0.931 . S
C16 O19 1.256 . S
C16 O20 1.255 . S
O17 Co0 2.021 . S
O17 C10 1.259 1_565 S
O18 Co2 2.117 . S
O18 C10 1.258 1_655 S
O19 Co2 2.020 1_565 S
O19 C16 1.256 . S
O20 Co0 2.062 1_655 S
O20 C16 1.255 . S
O21 C1 1.259 1_655 S
O21 Co2 2.021 1_556 S
H22 C13 0.930 . S
H23 C12 0.931 1_556 S
O24 Co0 2.117 1_556 S
O24 C1 1.258 1_565 S
O25 Co0 2.020 1_545 S
O25 C27 1.256 . S
O26 Co2 2.062 1_455 S
O26 C27 1.255 . S
C27 O25 1.256 . S
C27 O26 1.255 . S
H28 C7 0.931 . S
H29 C15 0.931 . S
Co30 N35 2.057 . S
Co30 O47 2.021 . S
Co30 O50 2.062 . S
Co30 O54 2.117 . S
Co30 O55 2.020 . S
C31 O51 1.259 . S
C31 O54 1.258 . S
Co32 N41 2.057 . S
Co32 O48 2.117 . S
Co32 O49 2.020 . S
Co32 O51 2.021 . S
Co32 O56 2.062 . S
C33 N35 1.316 . S
C33 N36 1.347 . S
C33 H38 0.931 . S
C34 N35 1.375 . S
C34 C37 1.350 . S
C34 H39 0.930 . S
N35 Co30 2.057 . S
N35 C33 1.316 . S
N35 C34 1.375 . S
N36 C33 1.347 . S
N36 C37 1.373 . S
C37 C34 1.350 . S
C37 N36 1.373 . S
C37 H58 0.931 . S
H38 C33 0.931 . S
H39 C34 0.930 . S
C40 O47 1.259 . S
C40 O48 1.258 . S
N41 Co32 2.057 . S
N41 C42 1.316 . S
N41 C43 1.375 . S
C42 N41 1.316 . S
C42 N44 1.347 . S
C42 H53 0.931 . S
C43 N41 1.375 . S
C43 C45 1.350 . S
C43 H52 0.930 . S
N44 C42 1.347 . S
N44 C45 1.373 . S
C45 C43 1.350 . S
C45 N44 1.373 . S
C45 H59 0.931 . S
C46 O49 1.256 . S
C46 O50 1.255 . S
O47 Co30 2.021 . S
O47 C40 1.259 . S
O48 Co32 2.117 . S
O48 C40 1.258 . S
O49 Co32 2.020 . S
O49 C46 1.256 . S
O50 Co30 2.062 . S
O50 C46 1.255 . S
O51 C31 1.259 . S
O51 Co32 2.021 . S
H52 C43 0.930 . S
H53 C42 0.931 . S
O54 Co30 2.117 . S
O54 C31 1.258 . S
O55 Co30 2.020 . S
O55 C57 1.256 . S
O56 Co32 2.062 . S
O56 C57 1.255 . S
C57 O55 1.256 . S
C57 O56 1.255 . S
H58 C37 0.931 . S
H59 C45 0.931 . S
C60 C61 1.264 . S
C60 C65 1.479 . S
C60 C70 1.465 . S
C61 C60 1.264 . S
C61 C63 1.339 . S
C61 H88 0.931 . S
C62 C63 1.395 . S
C62 C64 1.320 . S
C63 C61 1.339 . S
C63 C62 1.395 . S
C63 H89 0.929 . S
C64 C62 1.320 . S
C64 C65 1.405 . S
C64 H90 0.930 . S
C65 C60 1.479 . S
C65 C64 1.405 . S
C65 H91 0.931 . S
U66 O67 2.454 1_545 S
U66 O68 2.458 1_545 S
U66 C69 2.984 1_545 S
U66 C70 2.847 1_455 S
U66 C83 2.882 . S
U66 O84 2.441 1_455 S
U66 O85 2.420 1_455 S
U66 O86 2.455 1_545 S
U66 O87 2.449 . S
O67 U66 2.454 1_565 S
O67 C69 1.353 . S
O68 U66 2.458 1_565 S
O68 C69 1.286 . S
C69 U66 2.984 1_565 S
C69 O67 1.353 . S
C69 O68 1.286 . S
C69 C71 1.363 . S
C70 C60 1.465 . S
C70 U66 2.847 1_655 S
C70 O84 1.249 . S
C70 O85 1.202 . S
C71 C69 1.363 . S
C71 C73 1.408 . S
C71 C76 1.342 . S
C72 C73 1.310 . S
C72 C75 1.461 . S
C72 H92 0.932 . S
C73 C71 1.408 . S
C73 C72 1.310 . S
C73 H93 0.930 . S
C74 C75 1.474 . S
C74 C76 1.285 . S
C74 H94 0.929 . S
C75 C72 1.461 . S
C75 C74 1.474 . S
C76 C71 1.342 . S
C76 C74 1.285 . S
C76 H95 0.930 . S
C77 C80 1.424 1_455 S
C77 C82 1.245 1_545 S
C77 C83 1.428 . S
C78 C81 1.260 1_565 S
C78 C82 1.477 . S
C78 H96 0.932 . S
C79 C80 1.384 . S
C79 C81 1.479 1_655 S
C79 H97 0.929 . S
C80 C77 1.424 1_655 S
C80 C79 1.384 . S
C80 H98 0.928 . S
C81 C78 1.260 1_545 S
C81 C79 1.479 1_455 S
C82 C77 1.245 1_565 S
C82 C78 1.477 . S
C82 H99 0.932 . S
C83 U66 2.882 . S
C83 C77 1.428 . S
C83 O86 1.301 1_545 S
C83 O87 1.282 . S
O84 U66 2.441 1_655 S
O84 C70 1.249 . S
O85 U66 2.420 1_655 S
O85 C70 1.202 . S
O86 U66 2.455 1_565 S
O86 C83 1.301 1_565 S
O87 U66 2.449 . S
O87 C83 1.282 . S
H88 C61 0.931 . S
H89 C63 0.929 . S
H90 C64 0.930 . S
H91 C65 0.931 . S
H92 C72 0.932 . S
H93 C73 0.930 . S
H94 C74 0.929 . S
H95 C76 0.930 . S
H96 C78 0.932 . S
H97 C79 0.929 . S
H98 C80 0.928 . S
H99 C82 0.932 . S
C100 C101 1.264 . S
C100 C105 1.479 . S
C100 C110 1.465 . S
C101 C100 1.264 . S
C101 C103 1.339 . S
C101 H128 0.931 . S
C102 C103 1.395 . S
C102 C104 1.320 . S
C103 C101 1.339 . S
C103 C102 1.395 . S
C103 H129 0.929 . S
C104 C102 1.320 . S
C104 C105 1.405 . S
C104 H130 0.930 . S
C105 C100 1.479 . S
C105 C104 1.405 . S
C105 H131 0.931 . S
U106 O107 2.454 . S
U106 O108 2.458 . S
U106 C109 2.984 . S
U106 C110 2.847 1_445 S
U106 C123 2.883 . S
U106 O124 2.441 1_445 S
U106 O125 2.420 1_445 S
U106 O126 2.455 . S
U106 O127 2.449 1_545 S
O107 U106 2.454 . S
O107 C109 1.353 . S
O108 U106 2.458 . S
O108 C109 1.286 . S
C109 U106 2.984 . S
C109 O107 1.353 . S
C109 O108 1.286 . S
C109 C111 1.363 . S
C110 C100 1.465 . S
C110 U106 2.847 1_665 S
C110 O124 1.249 . S
C110 O125 1.202 . S
C111 C109 1.363 . S
C111 C113 1.408 . S
C111 C116 1.342 . S
C112 C113 1.310 . S
C112 C115 1.461 . S
C112 H132 0.932 . S
C113 C111 1.408 . S
C113 C112 1.310 . S
C113 H133 0.930 . S
C114 C115 1.474 . S
C114 C116 1.285 . S
C114 H134 0.929 . S
C115 C112 1.461 . S
C115 C114 1.474 . S
C116 C111 1.342 . S
C116 C114 1.285 . S
C116 H135 0.930 . S
C117 C120 1.424 1_445 S
C117 C122 1.245 . S
C117 C123 1.428 . S
C118 C121 1.260 . S
C118 C122 1.477 . S
C118 H136 0.932 . S
C119 C120 1.384 . S
C119 C121 1.479 1_665 S
C119 H137 0.929 . S
C120 C117 1.424 1_665 S
C120 C119 1.384 . S
C120 H138 0.928 . S
C121 C118 1.260 . S
C121 C119 1.479 1_445 S
C122 C117 1.245 . S
C122 C118 1.477 . S
C122 H139 0.932 . S
C123 U106 2.883 . S
C123 C117 1.428 . S
C123 O126 1.307 . S
C123 O127 1.275 1_545 S
O124 U106 2.441 1_665 S
O124 C110 1.249 . S
O125 U106 2.420 1_665 S
O125 C110 1.202 . S
O126 U106 2.455 . S
O126 C123 1.307 . S
O127 U106 2.449 1_565 S
O127 C123 1.275 1_565 S
H128 C101 0.931 . S
H129 C103 0.929 . S
H130 C104 0.930 . S
H131 C105 0.931 . S
H132 C112 0.932 . S
H133 C113 0.930 . S
H134 C114 0.929 . S
H135 C116 0.930 . S
H136 C118 0.932 . S
H137 C119 0.929 . S
H138 C120 0.928 . S
H139 C122 0.932 . S
C140 C141 1.264 . S
C140 C145 1.479 1_556 S
C140 C150 1.465 . S
C141 C140 1.264 . S
C141 C143 1.339 . S
C141 H168 0.931 . S
C142 C143 1.395 1_554 S
C142 C144 1.320 . S
C143 C141 1.339 . S
C143 C142 1.395 1_556 S
C143 H169 0.929 . S
C144 C142 1.320 . S
C144 C145 1.405 . S
C144 H170 0.930 . S
C145 C140 1.479 1_554 S
C145 C144 1.405 . S
C145 H171 0.931 . S
U146 O147 2.454 . S
U146 O148 2.458 . S
U146 C149 2.984 . S
U146 C150 2.847 . S
U146 C163 2.882 . S
U146 O164 2.441 . S
U146 O165 2.420 . S
U146 O166 2.455 . S
U146 O167 2.449 . S
O147 U146 2.454 . S
O147 C149 1.353 . S
O148 U146 2.458 . S
O148 C149 1.286 . S
C149 U146 2.984 . S
C149 O147 1.353 . S
C149 O148 1.286 . S
C149 C151 1.363 . S
C150 C140 1.465 . S
C150 U146 2.847 . S
C150 O164 1.249 . S
C150 O165 1.202 . S
C151 C149 1.363 . S
C151 C153 1.408 1_556 S
C151 C156 1.342 . S
C152 C153 1.310 . S
C152 C155 1.461 . S
C152 H172 0.932 . S
C153 C151 1.408 1_554 S
C153 C152 1.310 . S
C153 H173 0.930 . S
C154 C155 1.474 1_556 S
C154 C156 1.285 . S
C154 H174 0.929 . S
C155 C152 1.461 . S
C155 C154 1.474 1_554 S
C156 C151 1.342 . S
C156 C154 1.285 . S
C156 H175 0.930 . S
C157 C160 1.424 . S
C157 C162 1.245 . S
C157 C163 1.428 . S
C158 C161 1.260 . S
C158 C162 1.477 . S
C158 H176 0.932 . S
C159 C160 1.384 . S
C159 C161 1.479 . S
C159 H177 0.929 . S
C160 C157 1.424 . S
C160 C159 1.384 . S
C160 H178 0.928 . S
C161 C158 1.260 . S
C161 C159 1.479 . S
C162 C157 1.245 . S
C162 C158 1.477 . S
C162 H179 0.932 . S
C163 U146 2.882 . S
C163 C157 1.428 . S
C163 O166 1.301 . S
C163 O167 1.282 . S
O164 U146 2.441 . S
O164 C150 1.249 . S
O165 U146 2.420 . S
O165 C150 1.202 . S
O166 U146 2.455 . S
O166 C163 1.301 . S
O167 U146 2.449 . S
O167 C163 1.282 . S
H168 C141 0.931 . S
H169 C143 0.929 . S
H170 C144 0.930 . S
H171 C145 0.931 . S
H172 C152 0.932 . S
H173 C153 0.930 . S
H174 C154 0.929 . S
H175 C156 0.930 . S
H176 C158 0.932 . S
H177 C159 0.929 . S
H178 C160 0.928 . S
H179 C162 0.932 . S
C180 C181 1.264 . S
C180 C185 1.479 . S
C180 C190 1.465 . S
C181 C180 1.264 . S
C181 C183 1.339 . S
C181 H208 0.931 . S
C182 C183 1.395 . S
C182 C184 1.320 1_554 S
C183 C181 1.339 . S
C183 C182 1.395 . S
C183 H209 0.929 . S
C184 C182 1.320 1_556 S
C184 C185 1.405 1_556 S
C184 H210 0.930 . S
C185 C180 1.479 . S
C185 C184 1.405 1_554 S
C185 H211 0.913 1_554 S
U186 O187 2.454 . S
U186 O188 2.458 . S
U186 C189 2.984 . S
U186 C190 2.847 . S
U186 C203 2.882 . S
U186 O204 2.441 . S
U186 O205 2.420 . S
U186 O206 2.455 . S
U186 O207 2.449 . S
O187 U186 2.454 . S
O187 C189 1.353 . S
O188 U186 2.458 . S
O188 C189 1.286 . S
C189 U186 2.984 . S
C189 O187 1.353 . S
C189 O188 1.286 . S
C189 C191 1.363 . S
C190 C180 1.465 . S
C190 U186 2.847 . S
C190 O204 1.249 . S
C190 O205 1.202 . S
C191 C189 1.363 . S
C191 C193 1.408 . S
C191 C196 1.342 . S
C192 C193 1.324 . S
C192 C195 1.475 . S
C192 H212 0.904 1_554 S
C193 C191 1.408 . S
C193 C192 1.324 . S
C193 H213 0.930 . S
C194 C195 1.474 . S
C194 C196 1.285 . S
C194 H214 0.929 . S
C195 C192 1.475 . S
C195 C194 1.474 . S
C196 C191 1.342 . S
C196 C194 1.285 . S
C196 H215 0.930 . S
C197 C200 1.424 . S
C197 C202 1.245 . S
C197 C203 1.428 . S
C198 C201 1.260 . S
C198 C202 1.477 . S
C198 H216 0.932 . S
C199 C200 1.384 . S
C199 C201 1.479 . S
C199 H217 0.929 . S
C200 C197 1.424 . S
C200 C199 1.384 . S
C200 H218 0.928 . S
C201 C198 1.260 . S
C201 C199 1.479 . S
C202 C197 1.245 . S
C202 C198 1.477 . S
C202 H219 0.932 . S
C203 U186 2.882 . S
C203 C197 1.428 . S
C203 O206 1.301 . S
C203 O207 1.282 . S
O204 U186 2.441 . S
O204 C190 1.249 . S
O205 U186 2.420 . S
O205 C190 1.202 . S
O206 U186 2.455 . S
O206 C203 1.301 . S
O207 U186 2.449 . S
O207 C203 1.282 . S
H208 C181 0.931 . S
H209 C183 0.929 . S
H210 C184 0.930 . S
H211 C185 0.913 1_556 S
H212 C192 0.904 1_556 S
H213 C193 0.930 . S
H214 C194 0.929 . S
H215 C196 0.930 . S
H216 C198 0.932 . S
H217 C199 0.929 . S
H218 C200 0.928 . S
H219 C202 0.932 . S
H220 C226 0.934 . S
H221 C229 0.930 . S
H222 C230 0.930 . S
H223 C231 0.930 . S
H224 C234 0.930 . S
H225 C235 0.930 . S
C226 H220 0.934 . S
C226 C227 1.355 . S
C226 C228 1.415 . S
C227 C226 1.355 . S
C227 C229 1.419 . S
C228 C226 1.415 . S
C228 C233 1.425 . S
C228 C235 1.409 1_554 S
C229 H221 0.930 . S
C229 C227 1.419 . S
C229 C230 1.362 . S
C230 H222 0.930 . S
C230 C229 1.362 . S
C230 C233 1.409 . S
C231 H223 0.930 . S
C231 C232 1.355 . S
C231 C233 1.415 . S
C232 C231 1.355 . S
C232 C234 1.419 1_554 S
C233 C228 1.425 . S
C233 C230 1.409 . S
C233 C231 1.415 . S
C234 H224 0.930 . S
C234 C232 1.419 1_556 S
C234 C235 1.362 . S
C235 H225 0.930 . S
C235 C228 1.409 1_556 S
C235 C234 1.362 . S
H236 C242 0.930 . S
H237 C245 0.930 . S
H238 C246 0.930 . S
H239 C247 0.930 . S
H240 C250 0.930 . S
H241 C251 0.930 . S
C242 H236 0.930 . S
C242 C243 1.355 1_556 S
C242 C244 1.415 1_556 S
C243 C242 1.355 1_554 S
C243 C245 1.419 . S
C244 C242 1.415 1_554 S
C244 C249 1.425 . S
C244 C251 1.409 1_554 S
C245 H237 0.930 . S
C245 C243 1.419 . S
C245 C246 1.362 . S
C246 H238 0.930 . S
C246 C245 1.362 . S
C246 C249 1.409 . S
C247 H239 0.930 . S
C247 C248 1.355 . S
C247 C249 1.415 . S
C248 C247 1.355 . S
C248 C250 1.419 1_554 S
C249 C244 1.425 . S
C249 C246 1.409 . S
C249 C247 1.415 . S
C250 H240 0.930 . S
C250 C248 1.419 1_556 S
C250 C251 1.362 . S
C251 H241 0.930 . S
C251 C244 1.409 1_556 S
C251 C250 1.362 . S
H252 C258 0.930 . S
H253 C261 0.930 . S
H254 C262 0.930 . S
H255 C263 0.930 . S
H256 C266 0.930 . S
H257 C267 0.930 . S
C258 H252 0.930 . S
C258 C259 1.355 . S
C258 C260 1.415 . S
C259 C258 1.355 . S
C259 C261 1.419 1_554 S
C260 C258 1.415 . S
C260 C265 1.425 1_554 S
C260 C267 1.409 . S
C261 H253 0.930 . S
C261 C259 1.419 1_556 S
C261 C262 1.362 . S
C262 H254 0.930 . S
C262 C261 1.362 . S
C262 C265 1.409 . S
C263 H255 0.930 . S
C263 C264 1.355 1_556 S
C263 C265 1.415 . S
C264 C263 1.355 1_554 S
C264 C266 1.419 . S
C265 C260 1.425 1_556 S
C265 C262 1.409 . S
C265 C263 1.415 . S
C266 H256 0.930 . S
C266 C264 1.419 . S
C266 C267 1.362 . S
C267 H257 0.930 . S
C267 C260 1.409 . S
C267 C266 1.362 . S
H268 C274 0.930 . S
H269 C277 0.930 . S
H270 C278 0.930 . S
H271 C279 0.930 . S
H272 C282 0.930 . S
H273 C283 0.930 . S
C274 H268 0.930 . S
C274 C275 1.355 . S
C274 C276 1.415 . S
C275 C274 1.355 . S
C275 C277 1.419 . S
C276 C274 1.415 . S
C276 C281 1.425 . S
C276 C283 1.409 . S
C277 H269 0.930 . S
C277 C275 1.419 . S
C277 C278 1.362 . S
C278 H270 0.930 . S
C278 C277 1.362 . S
C278 C281 1.409 . S
C279 H271 0.930 . S
C279 C280 1.355 . S
C279 C281 1.415 . S
C280 C279 1.355 . S
C280 C282 1.419 . S
C281 C276 1.425 . S
C281 C278 1.409 . S
C281 C279 1.415 . S
C282 H272 0.930 . S
C282 C280 1.419 . S
C282 C283 1.362 . S
C283 H273 0.930 . S
C283 C276 1.409 . S
C283 C282 1.362 . S
H284 C290 0.930 . S
H285 C293 0.930 . S
H286 C294 0.930 . S
H287 C295 0.930 . S
H288 C298 0.930 . S
H289 C299 0.930 . S
C290 H284 0.930 . S
C290 C291 1.355 . S
C290 C292 1.415 . S
C291 C290 1.355 . S
C291 C293 1.419 . S
C292 C290 1.415 . S
C292 C297 1.425 . S
C292 C299 1.409 . S
C293 H285 0.930 . S
C293 C291 1.419 . S
C293 C294 1.362 . S
C294 H286 0.930 . S
C294 C293 1.362 . S
C294 C297 1.409 . S
C295 H287 0.930 . S
C295 C296 1.355 . S
C295 C297 1.415 . S
C296 C295 1.355 . S
C296 C298 1.419 . S
C297 C292 1.425 . S
C297 C294 1.409 . S
C297 C295 1.415 . S
C298 H288 0.930 . S
C298 C296 1.419 . S
C298 C299 1.362 . S
C299 H289 0.930 . S
C299 C292 1.409 . S
C299 C298 1.362 . S
H300 C306 0.930 . S
H301 C309 0.930 . S
H302 C310 0.930 . S
H303 C311 0.930 . S
H304 C314 0.930 . S
H305 C315 0.930 . S
C306 H300 0.930 . S
C306 C307 1.355 . S
C306 C308 1.415 . S
C307 C306 1.355 . S
C307 C309 1.419 . S
C308 C306 1.415 . S
C308 C313 1.425 . S
C308 C315 1.409 . S
C309 H301 0.930 . S
C309 C307 1.419 . S
C309 C310 1.362 . S
C310 H302 0.930 . S
C310 C309 1.362 . S
C310 C313 1.409 . S
C311 H303 0.930 . S
C311 C312 1.355 . S
C311 C313 1.415 . S
C312 C311 1.355 . S
C312 C314 1.419 . S
C313 C308 1.425 . S
C313 C310 1.409 . S
C313 C311 1.415 . S
C314 H304 0.930 . S
C314 C312 1.419 . S
C314 C315 1.362 . S
C315 H305 0.930 . S
C315 C308 1.409 . S
C315 C314 1.362 . S
H316 C322 0.930 . S
H317 C325 0.930 . S
H318 C326 0.930 . S
H319 C327 0.930 . S
H320 C330 0.930 . S
H321 C331 0.930 . S
C322 H316 0.930 . S
C322 C323 1.355 . S
C322 C324 1.415 . S
C323 C322 1.355 . S
C323 C325 1.419 . S
C324 C322 1.415 . S
C324 C329 1.425 . S
C324 C331 1.409 . S
C325 H317 0.930 . S
C325 C323 1.419 . S
C325 C326 1.362 . S
C326 H318 0.930 . S
C326 C325 1.362 . S
C326 C329 1.409 . S
C327 H319 0.930 . S
C327 C328 1.355 . S
C327 C329 1.415 . S
C328 C327 1.355 . S
C328 C330 1.419 . S
C329 C324 1.425 . S
C329 C326 1.409 . S
C329 C327 1.415 . S
C330 H320 0.930 . S
C330 C328 1.419 . S
C330 C331 1.362 . S
C331 H321 0.930 . S
C331 C324 1.409 . S
C331 C330 1.362 . S
H332 C338 0.930 . S
H333 C341 0.930 . S
H334 C342 0.930 . S
H335 C343 0.930 . S
H336 C346 0.930 . S
H337 C347 0.930 . S
C338 H332 0.930 . S
C338 C339 1.355 . S
C338 C340 1.415 . S
C339 C338 1.355 . S
C339 C341 1.419 . S
C340 C338 1.415 . S
C340 C345 1.425 . S
C340 C347 1.409 . S
C341 H333 0.930 . S
C341 C339 1.419 . S
C341 C342 1.362 . S
C342 H334 0.930 . S
C342 C341 1.362 . S
C342 C345 1.409 . S
C343 H335 0.930 . S
C343 C344 1.355 . S
C343 C345 1.415 . S
C344 C343 1.355 . S
C344 C346 1.419 . S
C345 C340 1.425 . S
C345 C342 1.409 . S
C345 C343 1.415 . S
C346 H336 0.930 . S
C346 C344 1.419 . S
C346 C347 1.362 . S
C347 H337 0.930 . S
C347 C340 1.409 . S
C347 C346 1.362 . S
H348 C354 0.930 . S
H349 C357 0.930 . S
H350 C358 0.930 . S
H351 C359 0.930 . S
H352 C362 0.930 . S
H353 C363 0.930 . S
C354 H348 0.930 . S
C354 C355 1.355 1_665 S
C354 C356 1.415 . S
C355 C354 1.355 1_445 S
C355 C357 1.419 . S
C356 C354 1.415 . S
C356 C361 1.425 1_665 S
C356 C363 1.409 . S
C357 H349 0.930 . S
C357 C355 1.419 . S
C357 C358 1.362 . S
C358 H350 0.930 . S
C358 C357 1.362 . S
C358 C361 1.409 . S
C359 H351 0.930 . S
C359 C360 1.355 1_545 S
C359 C361 1.415 . S
C360 C359 1.355 1_565 S
C360 C362 1.419 1_455 S
C361 C356 1.425 1_445 S
C361 C358 1.409 . S
C361 C359 1.415 . S
C362 H352 0.930 . S
C362 C360 1.419 1_655 S
C362 C363 1.362 . S
C363 H353 0.930 . S
C363 C356 1.409 . S
C363 C362 1.362 . S
H364 C370 0.930 . S
H365 C373 0.930 . S
H366 C374 0.930 . S
H367 C375 0.930 . S
H368 C378 0.930 . S
H369 C379 0.930 . S
C370 H364 0.930 . S
C370 C371 1.355 1_665 S
C370 C372 1.415 . S
C371 C370 1.355 1_445 S
C371 C373 1.419 . S
C372 C370 1.415 . S
C372 C377 1.425 1_665 S
C372 C379 1.409 . S
C373 H365 0.930 . S
C373 C371 1.419 . S
C373 C374 1.362 . S
C374 H366 0.930 . S
C374 C373 1.362 . S
C374 C377 1.409 . S
C375 H367 0.930 . S
C375 C376 1.354 . S
C375 C377 1.415 . S
C376 C375 1.354 . S
C376 C378 1.420 1_445 S
C377 C372 1.425 1_445 S
C377 C374 1.409 . S
C377 C375 1.415 . S
C378 H368 0.930 . S
C378 C376 1.420 1_665 S
C378 C379 1.362 . S
C379 H369 0.930 . S
C379 C372 1.409 . S
C379 C378 1.362 . S
H380 C386 0.930 . S
H381 C389 0.930 . S
H382 C390 0.930 . S
H383 C391 0.930 . S
H384 C394 0.930 . S
H385 C395 0.930 . S
C386 H380 0.930 . S
C386 C387 1.355 . S
C386 C388 1.415 . S
C387 C386 1.355 . S
C387 C389 1.419 . S
C388 C386 1.415 . S
C388 C393 1.425 . S
C388 C395 1.409 . S
C389 H381 0.930 . S
C389 C387 1.419 . S
C389 C390 1.362 . S
C390 H382 0.930 . S
C390 C389 1.362 . S
C390 C393 1.409 . S
C391 H383 0.930 . S
C391 C392 1.355 . S
C391 C393 1.415 . S
C392 C391 1.355 . S
C392 C394 1.419 . S
C393 C388 1.425 . S
C393 C390 1.409 . S
C393 C391 1.415 . S
C394 H384 0.930 . S
C394 C392 1.419 . S
C394 C395 1.362 . S
C395 H385 0.930 . S
C395 C388 1.409 . S
C395 C394 1.362 . S
H396 C402 0.930 . S
H397 C405 0.930 . S
H398 C406 0.930 . S
H399 C407 0.930 . S
H400 C410 0.930 . S
H401 C411 0.930 . S
C402 H396 0.930 . S
C402 C403 1.355 . S
C402 C404 1.415 . S
C403 C402 1.355 . S
C403 C405 1.419 . S
C404 C402 1.415 . S
C404 C409 1.425 . S
C404 C411 1.409 . S
C405 H397 0.930 . S
C405 C403 1.419 . S
C405 C406 1.362 . S
C406 H398 0.930 . S
C406 C405 1.362 . S
C406 C409 1.409 . S
C407 H399 0.930 . S
C407 C408 1.355 . S
C407 C409 1.415 . S
C408 C407 1.355 . S
C408 C410 1.419 . S
C409 C404 1.425 . S
C409 C406 1.409 . S
C409 C407 1.415 . S
C410 H400 0.930 . S
C410 C408 1.419 . S
C410 C411 1.362 . S
C411 H401 0.930 . S
C411 C404 1.409 . S
C411 C410 1.362 . S
C232 C182 1.543 . S
C227 C27 1.587 . S
C243 N6 1.517 . S
C248 C142 1.451 . S
C259 C16 1.564 . S
C264 C195 1.483 . S
C275 N14 1.445 . S
C280 C155 1.445 . S
C291 C57 1.589 . S
C296 C102 1.564 . S
C307 N36 1.503 . S
C312 C62 1.475 . S
C328 C115 1.475 . S
C323 C46 1.563 . S
C344 C75 1.475 . S
C339 N44 1.492 . S
C355 C10 1.395 . S
C360 C81 1.392 1_565 S
C371 C1 1.529 . S
C376 C121 1.514 . S
C392 C161 1.361 . S
C387 C40 1.385 . S
C403 C31 1.518 . S
C408 C201 1.499 . S
