# Generated by pormake.
# Topology ibd, (4,6)-cn, num edge types: 1
# Building blocks:
#     Node 0, Type 0, BuildingBlock: GALJAG_clean_sbu_0, # of connection points: 4
#     Node 1, Type 0, BuildingBlock: GALJAG_clean_sbu_0, # of connection points: 4
#     Node 2, Type 0, BuildingBlock: GALJAG_clean_sbu_0, # of connection points: 4
#     Node 3, Type 0, BuildingBlock: GALJAG_clean_sbu_0, # of connection points: 4
#     Node 4, Type 0, BuildingBlock: GALJAG_clean_sbu_0, # of connection points: 4
#     Node 5, Type 0, BuildingBlock: GALJAG_clean_sbu_0, # of connection points: 4
#     Node 6, Type 0, BuildingBlock: GALJAG_clean_sbu_0, # of connection points: 4
#     Node 7, Type 0, BuildingBlock: GALJAG_clean_sbu_0, # of connection points: 4
#     Node 8, Type 0, BuildingBlock: GALJAG_clean_sbu_0, # of connection points: 4
#     Node 9, Type 0, BuildingBlock: GALJAG_clean_sbu_0, # of connection points: 4
#     Node 10, Type 0, BuildingBlock: GALJAG_clean_sbu_0, # of connection points: 4
#     Node 11, Type 0, BuildingBlock: GALJAG_clean_sbu_0, # of connection points: 4
#     Node 12, Type 0, BuildingBlock: GALJAG_clean_sbu_0, # of connection points: 4
#     Node 13, Type 0, BuildingBlock: GALJAG_clean_sbu_0, # of connection points: 4
#     Node 14, Type 0, BuildingBlock: GALJAG_clean_sbu_0, # of connection points: 4
#     Node 15, Type 0, BuildingBlock: GALJAG_clean_sbu_0, # of connection points: 4
#     Node 16, Type 0, BuildingBlock: GALJAG_clean_sbu_0, # of connection points: 4
#     Node 17, Type 0, BuildingBlock: GALJAG_clean_sbu_0, # of connection points: 4
#     Node 18, Type 0, BuildingBlock: GALJAG_clean_sbu_0, # of connection points: 4
#     Node 19, Type 0, BuildingBlock: GALJAG_clean_sbu_0, # of connection points: 4
#     Node 20, Type 0, BuildingBlock: GALJAG_clean_sbu_0, # of connection points: 4
#     Node 21, Type 0, BuildingBlock: GALJAG_clean_sbu_0, # of connection points: 4
#     Node 22, Type 0, BuildingBlock: GALJAG_clean_sbu_0, # of connection points: 4
#     Node 23, Type 0, BuildingBlock: GALJAG_clean_sbu_0, # of connection points: 4
#     Node 24, Type 1, BuildingBlock: IZENUY_clean_sbu_0, # of connection points: 6
#     Node 25, Type 1, BuildingBlock: IZENUY_clean_sbu_0, # of connection points: 6
#     Node 26, Type 1, BuildingBlock: IZENUY_clean_sbu_0, # of connection points: 6
#     Node 27, Type 1, BuildingBlock: IZENUY_clean_sbu_0, # of connection points: 6
#     Node 28, Type 1, BuildingBlock: IZENUY_clean_sbu_0, # of connection points: 6
#     Node 29, Type 1, BuildingBlock: IZENUY_clean_sbu_0, # of connection points: 6
#     Node 30, Type 1, BuildingBlock: IZENUY_clean_sbu_0, # of connection points: 6
#     Node 31, Type 1, BuildingBlock: IZENUY_clean_sbu_0, # of connection points: 6
#     Node 32, Type 1, BuildingBlock: IZENUY_clean_sbu_0, # of connection points: 6
#     Node 33, Type 1, BuildingBlock: IZENUY_clean_sbu_0, # of connection points: 6
#     Node 34, Type 1, BuildingBlock: IZENUY_clean_sbu_0, # of connection points: 6
#     Node 35, Type 1, BuildingBlock: IZENUY_clean_sbu_0, # of connection points: 6
#     Node 36, Type 1, BuildingBlock: IZENUY_clean_sbu_0, # of connection points: 6
#     Node 37, Type 1, BuildingBlock: IZENUY_clean_sbu_0, # of connection points: 6
#     Node 38, Type 1, BuildingBlock: IZENUY_clean_sbu_0, # of connection points: 6
#     Node 39, Type 1, BuildingBlock: IZENUY_clean_sbu_0, # of connection points: 6
#     Edge 40, Type (0, 1), BuildingBlock: ZUJKAS_clean_linker_0, # of connection points: 2
#     Edge 41, Type (0, 1), BuildingBlock: ZUJKAS_clean_linker_0, # of connection points: 2
#     Edge 42, Type (0, 1), BuildingBlock: ZUJKAS_clean_linker_0, # of connection points: 2
#     Edge 43, Type (0, 1), BuildingBlock: ZUJKAS_clean_linker_0, # of connection points: 2
#     Edge 44, Type (0, 1), BuildingBlock: ZUJKAS_clean_linker_0, # of connection points: 2
#     Edge 45, Type (0, 1), BuildingBlock: ZUJKAS_clean_linker_0, # of connection points: 2
#     Edge 46, Type (0, 1), BuildingBlock: ZUJKAS_clean_linker_0, # of connection points: 2
#     Edge 47, Type (0, 1), BuildingBlock: ZUJKAS_clean_linker_0, # of connection points: 2
#     Edge 48, Type (0, 1), BuildingBlock: ZUJKAS_clean_linker_0, # of connection points: 2
#     Edge 49, Type (0, 1), BuildingBlock: ZUJKAS_clean_linker_0, # of connection points: 2
#     Edge 50, Type (0, 1), BuildingBlock: ZUJKAS_clean_linker_0, # of connection points: 2
#     Edge 51, Type (0, 1), BuildingBlock: ZUJKAS_clean_linker_0, # of connection points: 2
#     Edge 52, Type (0, 1), BuildingBlock: ZUJKAS_clean_linker_0, # of connection points: 2
#     Edge 53, Type (0, 1), BuildingBlock: ZUJKAS_clean_linker_0, # of connection points: 2
#     Edge 54, Type (0, 1), BuildingBlock: ZUJKAS_clean_linker_0, # of connection points: 2
#     Edge 55, Type (0, 1), BuildingBlock: ZUJKAS_clean_linker_0, # of connection points: 2
#     Edge 56, Type (0, 1), BuildingBlock: ZUJKAS_clean_linker_0, # of connection points: 2
#     Edge 57, Type (0, 1), BuildingBlock: ZUJKAS_clean_linker_0, # of connection points: 2
#     Edge 58, Type (0, 1), BuildingBlock: ZUJKAS_clean_linker_0, # of connection points: 2
#     Edge 59, Type (0, 1), BuildingBlock: ZUJKAS_clean_linker_0, # of connection points: 2
#     Edge 60, Type (0, 1), BuildingBlock: ZUJKAS_clean_linker_0, # of connection points: 2
#     Edge 61, Type (0, 1), BuildingBlock: ZUJKAS_clean_linker_0, # of connection points: 2
#     Edge 62, Type (0, 1), BuildingBlock: ZUJKAS_clean_linker_0, # of connection points: 2
#     Edge 63, Type (0, 1), BuildingBlock: ZUJKAS_clean_linker_0, # of connection points: 2
#     Edge 64, Type (0, 1), BuildingBlock: ZUJKAS_clean_linker_0, # of connection points: 2
#     Edge 65, Type (0, 1), BuildingBlock: ZUJKAS_clean_linker_0, # of connection points: 2
#     Edge 66, Type (0, 1), BuildingBlock: ZUJKAS_clean_linker_0, # of connection points: 2
#     Edge 67, Type (0, 1), BuildingBlock: ZUJKAS_clean_linker_0, # of connection points: 2
#     Edge 68, Type (0, 1), BuildingBlock: ZUJKAS_clean_linker_0, # of connection points: 2
#     Edge 69, Type (0, 1), BuildingBlock: ZUJKAS_clean_linker_0, # of connection points: 2
#     Edge 70, Type (0, 1), BuildingBlock: ZUJKAS_clean_linker_0, # of connection points: 2
#     Edge 71, Type (0, 1), BuildingBlock: ZUJKAS_clean_linker_0, # of connection points: 2
#     Edge 72, Type (0, 1), BuildingBlock: ZUJKAS_clean_linker_0, # of connection points: 2
#     Edge 73, Type (0, 1), BuildingBlock: ZUJKAS_clean_linker_0, # of connection points: 2
#     Edge 74, Type (0, 1), BuildingBlock: ZUJKAS_clean_linker_0, # of connection points: 2
#     Edge 75, Type (0, 1), BuildingBlock: ZUJKAS_clean_linker_0, # of connection points: 2
#     Edge 76, Type (0, 1), BuildingBlock: ZUJKAS_clean_linker_0, # of connection points: 2
#     Edge 77, Type (0, 1), BuildingBlock: ZUJKAS_clean_linker_0, # of connection points: 2
#     Edge 78, Type (0, 1), BuildingBlock: ZUJKAS_clean_linker_0, # of connection points: 2
#     Edge 79, Type (0, 1), BuildingBlock: ZUJKAS_clean_linker_0, # of connection points: 2
#     Edge 80, Type (0, 1), BuildingBlock: ZUJKAS_clean_linker_0, # of connection points: 2
#     Edge 81, Type (0, 1), BuildingBlock: ZUJKAS_clean_linker_0, # of connection points: 2
#     Edge 82, Type (0, 1), BuildingBlock: ZUJKAS_clean_linker_0, # of connection points: 2
#     Edge 83, Type (0, 1), BuildingBlock: ZUJKAS_clean_linker_0, # of connection points: 2
#     Edge 84, Type (0, 1), BuildingBlock: ZUJKAS_clean_linker_0, # of connection points: 2
#     Edge 85, Type (0, 1), BuildingBlock: ZUJKAS_clean_linker_0, # of connection points: 2
#     Edge 86, Type (0, 1), BuildingBlock: ZUJKAS_clean_linker_0, # of connection points: 2
#     Edge 87, Type (0, 1), BuildingBlock: ZUJKAS_clean_linker_0, # of connection points: 2
#     Edge 88, Type (0, 1), BuildingBlock: ZUJKAS_clean_linker_0, # of connection points: 2
#     Edge 89, Type (0, 1), BuildingBlock: ZUJKAS_clean_linker_0, # of connection points: 2
#     Edge 90, Type (0, 1), BuildingBlock: ZUJKAS_clean_linker_0, # of connection points: 2
#     Edge 91, Type (0, 1), BuildingBlock: ZUJKAS_clean_linker_0, # of connection points: 2
#     Edge 92, Type (0, 1), BuildingBlock: ZUJKAS_clean_linker_0, # of connection points: 2
#     Edge 93, Type (0, 1), BuildingBlock: ZUJKAS_clean_linker_0, # of connection points: 2
#     Edge 94, Type (0, 1), BuildingBlock: ZUJKAS_clean_linker_0, # of connection points: 2
#     Edge 95, Type (0, 1), BuildingBlock: ZUJKAS_clean_linker_0, # of connection points: 2
#     Edge 96, Type (0, 1), BuildingBlock: ZUJKAS_clean_linker_0, # of connection points: 2
#     Edge 97, Type (0, 1), BuildingBlock: ZUJKAS_clean_linker_0, # of connection points: 2
#     Edge 98, Type (0, 1), BuildingBlock: ZUJKAS_clean_linker_0, # of connection points: 2
#     Edge 99, Type (0, 1), BuildingBlock: ZUJKAS_clean_linker_0, # of connection points: 2
#     Edge 100, Type (0, 1), BuildingBlock: ZUJKAS_clean_linker_0, # of connection points: 2
#     Edge 101, Type (0, 1), BuildingBlock: ZUJKAS_clean_linker_0, # of connection points: 2
#     Edge 102, Type (0, 1), BuildingBlock: ZUJKAS_clean_linker_0, # of connection points: 2
#     Edge 103, Type (0, 1), BuildingBlock: ZUJKAS_clean_linker_0, # of connection points: 2
#     Edge 104, Type (0, 1), BuildingBlock: ZUJKAS_clean_linker_0, # of connection points: 2
#     Edge 105, Type (0, 1), BuildingBlock: ZUJKAS_clean_linker_0, # of connection points: 2
#     Edge 106, Type (0, 1), BuildingBlock: ZUJKAS_clean_linker_0, # of connection points: 2
#     Edge 107, Type (0, 1), BuildingBlock: ZUJKAS_clean_linker_0, # of connection points: 2
#     Edge 108, Type (0, 1), BuildingBlock: ZUJKAS_clean_linker_0, # of connection points: 2
#     Edge 109, Type (0, 1), BuildingBlock: ZUJKAS_clean_linker_0, # of connection points: 2
#     Edge 110, Type (0, 1), BuildingBlock: ZUJKAS_clean_linker_0, # of connection points: 2
#     Edge 111, Type (0, 1), BuildingBlock: ZUJKAS_clean_linker_0, # of connection points: 2
#     Edge 112, Type (0, 1), BuildingBlock: ZUJKAS_clean_linker_0, # of connection points: 2
#     Edge 113, Type (0, 1), BuildingBlock: ZUJKAS_clean_linker_0, # of connection points: 2
#     Edge 114, Type (0, 1), BuildingBlock: ZUJKAS_clean_linker_0, # of connection points: 2
#     Edge 115, Type (0, 1), BuildingBlock: ZUJKAS_clean_linker_0, # of connection points: 2
#     Edge 116, Type (0, 1), BuildingBlock: ZUJKAS_clean_linker_0, # of connection points: 2
#     Edge 117, Type (0, 1), BuildingBlock: ZUJKAS_clean_linker_0, # of connection points: 2
#     Edge 118, Type (0, 1), BuildingBlock: ZUJKAS_clean_linker_0, # of connection points: 2
#     Edge 119, Type (0, 1), BuildingBlock: ZUJKAS_clean_linker_0, # of connection points: 2
#     Edge 120, Type (0, 1), BuildingBlock: ZUJKAS_clean_linker_0, # of connection points: 2
#     Edge 121, Type (0, 1), BuildingBlock: ZUJKAS_clean_linker_0, # of connection points: 2
#     Edge 122, Type (0, 1), BuildingBlock: ZUJKAS_clean_linker_0, # of connection points: 2
#     Edge 123, Type (0, 1), BuildingBlock: ZUJKAS_clean_linker_0, # of connection points: 2
#     Edge 124, Type (0, 1), BuildingBlock: ZUJKAS_clean_linker_0, # of connection points: 2
#     Edge 125, Type (0, 1), BuildingBlock: ZUJKAS_clean_linker_0, # of connection points: 2
#     Edge 126, Type (0, 1), BuildingBlock: ZUJKAS_clean_linker_0, # of connection points: 2
#     Edge 127, Type (0, 1), BuildingBlock: ZUJKAS_clean_linker_0, # of connection points: 2
#     Edge 128, Type (0, 1), BuildingBlock: ZUJKAS_clean_linker_0, # of connection points: 2
#     Edge 129, Type (0, 1), BuildingBlock: ZUJKAS_clean_linker_0, # of connection points: 2
#     Edge 130, Type (0, 1), BuildingBlock: ZUJKAS_clean_linker_0, # of connection points: 2
#     Edge 131, Type (0, 1), BuildingBlock: ZUJKAS_clean_linker_0, # of connection points: 2
#     Edge 132, Type (0, 1), BuildingBlock: ZUJKAS_clean_linker_0, # of connection points: 2
#     Edge 133, Type (0, 1), BuildingBlock: ZUJKAS_clean_linker_0, # of connection points: 2
#     Edge 134, Type (0, 1), BuildingBlock: ZUJKAS_clean_linker_0, # of connection points: 2
#     Edge 135, Type (0, 1), BuildingBlock: ZUJKAS_clean_linker_0, # of connection points: 2
# Relax obj value: 0.206
# Max RMSD: 0.229
# Mean RMSD: 0.214
data_MOF--net-ibd--node1-GALJAG_clean_sbu_0--node2-IZENUY_clean_sbu_0--edge1-ZUJKAS_clean_linker_0
_symmetry_space_group_name_H-M    P1
_symmetry_Int_Tables_number       1
_symmetry_cell_setting            triclinic
loop_
_symmetry_equiv_pos_as_xyz
'x, y, z'
_cell_length_a     63.60114
_cell_length_b     63.602658
_cell_length_c     63.59921
_cell_angle_alpha  90.040039
_cell_angle_beta   90.050067
_cell_angle_gamma 90.058641
loop_
_atom_site_label
_atom_site_type_symbol
_atom_site_fract_x
_atom_site_fract_y
_atom_site_fract_z
_atom_type_partial_charge
In0 In 0.99545 0.24998 0.37648 0.0
O1 O 0.02699 0.24143 0.36183 0.0
O2 O -0.00064 0.22925 0.34756 0.0
C3 C 0.01296 0.27894 0.40188 0.0
C4 C 0.96828 0.27189 0.35243 0.0
C5 C 0.9825 0.22 0.40346 0.0
O6 O 0.02219 0.27169 0.38592 0.0
O7 O 0.99479 0.2716 0.40507 0.0
O8 O 0.97038 0.2338 0.39606 0.0
O9 O 0.0013 0.2213 0.39731 0.0
C10 C 0.01913 0.23064 0.34718 0.0
O11 O 0.96451 0.25348 0.35868 0.0
O12 O 0.98563 0.27932 0.35849 0.0
In13 In -0.00038 0.74983 0.62587 0.0
O14 O 0.97685 0.7755 0.63578 0.0
O15 O 0.97555 0.74651 0.65223 0.0
C16 C 0.02172 0.7741 0.59928 0.0
C17 C 0.02974 0.73783 0.65307 0.0
C18 C 0.97845 0.7237 0.60005 0.0
O19 O 0.00835 0.78149 0.61189 0.0
O20 O 0.02434 0.75447 0.60045 0.0
O21 O 0.98841 0.71713 0.61587 0.0
O22 O 0.97902 0.74332 0.59748 0.0
C23 C 0.9684 0.76487 0.65019 0.0
O24 O 0.02183 0.72549 0.6397 0.0
O25 O 0.02273 0.75636 0.65246 0.0
In26 In 0.50339 0.75496 0.87667 0.0
O27 O 0.53133 0.75437 0.85443 0.0
O28 O 0.51768 0.72508 0.86297 0.0
C29 C 0.51966 0.78428 0.90274 0.0
C30 C 0.47755 0.77418 0.84912 0.0
C31 C 0.48448 0.72549 0.90042 0.0
O32 O 0.53017 0.76898 0.89588 0.0
O33 O 0.50088 0.78485 0.89647 0.0
O34 O 0.47761 0.73076 0.88257 0.0
O35 O 0.50098 0.73494 0.90616 0.0
C36 C 0.53156 0.73464 0.85253 0.0
O37 O 0.4715 0.7687 0.86718 0.0
O38 O 0.49648 0.77004 0.84512 0.0
In39 In 0.49882 0.2498 0.12557 0.0
O40 O 0.52251 0.22406 0.13297 0.0
O41 O 0.52301 0.25151 0.15196 0.0
C42 C 0.47363 0.22665 0.10069 0.0
C43 C 0.47067 0.26354 0.15397 0.0
C44 C 0.51982 0.27485 0.09875 0.0
O45 O 0.4849 0.21861 0.11487 0.0
O46 O 0.47484 0.24639 0.09928 0.0
O47 O 0.50884 0.28212 0.11357 0.0
O48 O 0.52034 0.25507 0.09769 0.0
C49 C 0.53071 0.23364 0.14826 0.0
O50 O 0.47963 0.27569 0.14111 0.0
O51 O 0.4758 0.24447 0.15238 0.0
In52 In -0.00142 0.75413 0.12459 0.0
O53 O 0.97244 0.75853 0.10059 0.0
O54 O 0.98946 0.78563 0.11033 0.0
C55 C 0.9754 0.73355 0.15334 0.0
C56 C 0.01939 0.72748 0.09903 0.0
C57 C 0.02434 0.77801 0.14817 0.0
O58 O 0.96713 0.74328 0.13817 0.0
O59 O 0.9952 0.73407 0.15378 0.0
O60 O 0.03118 0.76529 0.13458 0.0
O61 O 0.00458 0.77889 0.14956 0.0
C62 C 0.97515 0.7781 0.09883 0.0
O63 O 0.01875 0.74704 0.09599 0.0
O64 O 0.00962 0.72127 0.11509 0.0
In65 In 0.49591 0.74711 0.37318 0.0
O66 O 0.49676 0.71713 0.39287 0.0
O67 O 0.52244 0.73833 0.39544 0.0
C68 C 0.46732 0.73386 0.34491 0.0
C69 C 0.47704 0.77356 0.40028 0.0
C70 C 0.52532 0.76061 0.34601 0.0
O71 O 0.47902 0.72137 0.35493 0.0
O72 O 0.46993 0.75303 0.34928 0.0
O73 O 0.51345 0.77296 0.35598 0.0
O74 O 0.52246 0.74135 0.34984 0.0
C75 C 0.51415 0.72136 0.40142 0.0
O76 O 0.49452 0.77761 0.39189 0.0
O77 O 0.46896 0.75629 0.39479 0.0
In78 In 0.49121 0.25235 0.62048 0.0
O79 O 0.5178 0.23325 0.60614 0.0
O80 O 0.48784 0.2318 0.59136 0.0
C81 C 0.51544 0.27178 0.64926 0.0
C82 C 0.47518 0.28385 0.59712 0.0
C83 C 0.46819 0.22698 0.64527 0.0
O84 O 0.52295 0.26383 0.63273 0.0
O85 O 0.49578 0.27009 0.65112 0.0
O86 O 0.46149 0.2445 0.63882 0.0
O87 O 0.48638 0.2222 0.63902 0.0
C88 C 0.50676 0.22585 0.59141 0.0
O89 O 0.46397 0.26928 0.60452 0.0
O90 O 0.49444 0.28258 0.60159 0.0
In91 In 0.99694 0.24839 0.86945 0.0
O92 O 0.00877 0.2168 0.88143 0.0
O93 O 0.02001 0.24463 0.89632 0.0
C94 C 0.96682 0.2345 0.84308 0.0
C95 C 0.97426 0.27095 0.89699 0.0
C96 C 0.02727 0.26289 0.8438 0.0
O97 O 0.97612 0.22257 0.85588 0.0
O98 O 0.97259 0.25346 0.84372 0.0
O99 O 0.0171 0.27476 0.85598 0.0
O100 O 0.02214 0.24377 0.8446 0.0
C101 C 0.02022 0.22481 0.89555 0.0
O102 O 0.98574 0.2795 0.88326 0.0
O103 O 0.97401 0.25113 0.89655 0.0
In104 In 0.37281 0.99541 0.2483 0.0
O105 O 0.36209 0.9623 0.25706 0.0
O106 O 0.34606 0.98821 0.27072 0.0
C107 C 0.39932 0.98457 0.21713 0.0
C108 C 0.34473 0.02061 0.22924 0.0
C109 C 0.39909 0.00834 0.27888 0.0
O110 O 0.38566 0.97215 0.22433 0.0
O111 O 0.39938 0.00258 0.22542 0.0
O112 O 0.38815 0.02087 0.26813 0.0
O113 O 0.3968 0.98921 0.27421 0.0
C114 C 0.34769 0.96852 0.26916 0.0
O115 O 0.35572 0.02653 0.24464 0.0
O116 O 0.34808 0.002 0.22324 0.0
In117 In 0.24839 0.12998 0.49938 0.0
O118 O 0.22335 0.14876 0.51659 0.0
O119 O 0.25525 0.15353 0.52546 0.0
C120 C 0.22208 0.10322 0.47948 0.0
C121 C 0.26385 0.15705 0.47089 0.0
C122 C 0.27317 0.10205 0.51932 0.0
O123 O 0.218 0.11089 0.49728 0.0
O124 O 0.23912 0.10944 0.47154 0.0
O125 O 0.27868 0.11117 0.50262 0.0
O126 O 0.25528 0.10721 0.52608 0.0
C127 C 0.23623 0.15837 0.52825 0.0
O128 O 0.2752 0.14399 0.48057 0.0
O129 O 0.24452 0.15628 0.47535 0.0
In130 In 0.12205 -0.00054 0.7536 0.0
O131 O 0.1071 0.97429 0.7741 0.0
O132 O 0.10017 0.00619 0.78114 0.0
C133 C 0.14762 0.97433 0.73119 0.0
C134 C 0.09309 0.01133 0.72515 0.0
C135 C 0.15037 0.02508 0.77194 0.0
O136 O 0.13928 0.96857 0.74822 0.0
O137 O 0.14287 0.99268 0.72538 0.0
O138 O 0.13592 0.03192 0.76022 0.0
O139 O 0.15036 0.00544 0.77453 0.0
C140 C 0.09733 0.9871 0.78565 0.0
O141 O 0.10669 0.02382 0.73245 0.0
O142 O 0.09422 0.99279 0.73208 0.0
In143 In 0.23764 0.87508 0.99394 0.0
O144 O 0.21316 0.90105 0.99041 0.0
O145 O 0.21685 0.88687 0.02042 0.0
C146 C 0.22521 0.84898 0.96294 0.0
C147 C 0.26692 0.90338 0.98249 0.0
C148 C 0.25169 0.8471 0.02235 0.0
O149 O 0.21246 0.86019 0.97318 0.0
O150 O 0.24422 0.85129 0.96805 0.0
O151 O 0.26381 0.85949 0.01273 0.0
O152 O 0.2325 0.84893 0.01773 0.0
C153 C 0.20751 0.90042 0.00941 0.0
O154 O 0.26229 0.89994 0.00146 0.0
O155 O 0.25685 0.89247 0.96932 0.0
In156 In 0.2535 0.37628 0.99342 0.0
O157 O 0.26902 0.36751 0.96216 0.0
O158 O 0.27311 0.34699 0.9881 0.0
C159 C 0.22236 0.40028 0.97777 0.0
C160 C 0.23101 0.35093 0.01869 0.0
C161 C 0.28308 0.40203 0.00952 0.0
O162 O 0.2301 0.38497 0.96785 0.0
O163 O 0.23027 0.40346 0.9957 0.0
O164 O 0.27503 0.38716 0.01984 0.0
O165 O 0.27624 0.40393 0.99101 0.0
C166 C 0.27684 0.35067 0.96902 0.0
O167 O 0.24449 0.3637 0.02571 0.0
O168 O 0.22861 0.35128 -0.001 0.0
In169 In 0.74268 0.12401 -4e-05 0.0
O170 O 0.71956 0.11639 0.02611 0.0
O171 O 0.71935 0.09687 -0.00103 0.0
C172 C 0.76637 0.14835 0.02522 0.0
C173 C 0.77272 0.09874 0.98416 0.0
C174 C 0.71962 0.14853 0.97437 0.0
O175 O 0.75655 0.13249 0.03191 0.0
O176 O 0.76443 0.15174 0.00578 0.0
O177 O 0.72895 0.1323 0.96786 0.0
O178 O 0.72179 0.15219 0.99373 0.0
C179 C 0.71173 0.10068 0.01688 0.0
O180 O 0.76677 0.11524 0.97496 0.0
O181 O 0.76364 0.09508 0.00138 0.0
In182 In 0.12414 0.49329 0.24729 0.0
O183 O 0.13728 0.47124 0.2722 0.0
O184 O 0.14826 0.4676 0.24089 0.0
C185 C 0.09943 0.51605 0.27291 0.0
C186 C 0.15117 0.52293 0.23363 0.0
C187 C 0.09574 0.47285 0.22349 0.0
O188 O 0.11252 0.50283 0.27976 0.0
O189 O 0.09905 0.51799 0.25317 0.0
O190 O 0.11062 0.48332 0.21559 0.0
O191 O 0.09543 0.47248 0.24331 0.0
C192 C 0.14918 0.46149 0.25972 0.0
O193 O 0.13714 0.5151 0.222 0.0
O194 O 0.15142 0.51597 0.25217 0.0
In195 In 0.74629 0.87254 0.49269 0.0
O196 O 0.74734 0.85113 0.46407 0.0
O197 O 0.77625 0.85828 0.47929 0.0
C198 C 0.71582 0.89811 0.47805 0.0
C199 C 0.72843 0.84433 0.51878 0.0
C200 C 0.77544 0.89803 0.50976 0.0
O201 O 0.73029 0.89099 0.46655 0.0
O202 O 0.71656 0.89215 0.49691 0.0
O203 O 0.77052 0.88058 0.51783 0.0
O204 O 0.76588 0.90242 0.49294 0.0
C205 C 0.76698 0.8485 0.46471 0.0
O206 O 0.73432 0.86221 0.52502 0.0
O207 O 0.73141 0.84087 0.49952 0.0
In208 In 0.87413 0.00415 0.25009 0.0
O209 O 0.89169 0.00034 0.28093 0.0
O210 O 0.8986 0.9788 0.2563 0.0
C211 C 0.84745 0.03389 0.26412 0.0
C212 C 0.89999 0.02553 0.22429 0.0
C213 C 0.84829 0.97284 0.23778 0.0
O214 O 0.85792 0.02227 0.27626 0.0
O215 O 0.85043 0.03054 0.24481 0.0
O216 O 0.86116 0.98155 0.22549 0.0
O217 O 0.84864 0.97974 0.25637 0.0
C218 C 0.90241 0.98483 0.27483 0.0
O219 O 0.88491 0.01461 0.21745 0.0
O220 O 0.9018 0.02581 0.24402 0.0
In221 In 0.24703 0.62602 0.50553 0.0
O222 O 0.26714 0.61913 0.47652 0.0
O223 O 0.26552 0.59591 0.5004 0.0
C224 C 0.2265 0.65278 0.48017 0.0
C225 C 0.21874 0.60146 0.52534 0.0
C226 C 0.26943 0.64934 0.533 0.0
O227 O 0.2272 0.63327 0.4765 0.0
O228 O 0.23603 0.6586 0.49659 0.0
O229 O 0.2504 0.64468 0.53595 0.0
O230 O 0.27722 0.64206 0.51629 0.0
C231 C 0.27285 0.60123 0.4828 0.0
O232 O 0.23824 0.60031 0.5286 0.0
O233 O 0.21335 0.61511 0.51204 0.0
In234 In 0.36985 0.50511 0.7546 0.0
O235 O 0.38831 0.50097 0.78499 0.0
O236 O 0.3914 0.47743 0.76148 0.0
C237 C 0.34319 0.53521 0.7678 0.0
C238 C 0.39733 0.52522 0.72954 0.0
C239 C 0.34223 0.47602 0.74103 0.0
O240 O 0.35221 0.52269 0.78024 0.0
O241 O 0.34784 0.53274 0.7487 0.0
O242 O 0.35582 0.48423 0.72915 0.0
O243 O 0.34286 0.48218 0.75988 0.0
C244 C 0.39681 0.48396 0.77942 0.0
O245 O 0.38329 0.51317 0.72235 0.0
O246 O 0.39728 0.52728 0.74925 0.0
In247 In 0.62542 0.00752 0.75355 0.0
O248 O 0.64533 0.99026 0.7776 0.0
O249 O 0.64598 0.97903 0.74615 0.0
C250 C 0.60189 0.02483 0.78407 0.0
C251 C 0.64887 0.03893 0.73742 0.0
C252 C 0.59653 0.98842 0.72904 0.0
O253 O 0.61014 0.0069 0.78578 0.0
O254 O 0.60588 0.03427 0.76707 0.0
O255 O 0.61381 0.99494 0.72185 0.0
O256 O 0.59401 0.99138 0.74845 0.0
C257 C 0.6524 0.9769 0.76479 0.0
O258 O 0.6316 0.03331 0.72948 0.0
O259 O 0.65413 0.02897 0.75373 0.0
In260 In 0.75231 0.62562 0.99729 0.0
O261 O 0.72559 0.64809 0.0049 0.0
O262 O 0.74944 0.64372 0.02797 0.0
C263 C 0.72594 0.59847 0.97834 0.0
C264 C 0.7716 0.65333 0.97185 0.0
C265 C 0.7784 0.59764 0.01548 0.0
O266 O 0.7216 0.60715 0.99563 0.0
O267 O 0.74338 0.60376 0.97053 0.0
O268 O 0.78327 0.60756 -0.00095 0.0
O269 O 0.7606 0.60213 0.02288 0.0
C270 C 0.73256 0.6528 0.02289 0.0
O271 O 0.77643 0.65121 0.99096 0.0
O272 O 0.75701 0.64146 0.96551 0.0
In273 In 0.8714 0.49604 0.74924 0.0
O274 O 0.84259 0.47495 0.74753 0.0
O275 O 0.86252 0.47183 0.77414 0.0
C276 C 0.89637 0.47237 0.72458 0.0
C277 C 0.84748 0.52686 0.7329 0.0
C278 C 0.89546 0.5196 0.77489 0.0
O279 O 0.87997 0.48114 0.71773 0.0
O280 O 0.90009 0.47553 0.74379 0.0
O281 O 0.89862 0.51833 0.75535 0.0
O282 O 0.88005 0.50903 0.78153 0.0
C283 C 0.84613 0.4658 0.76474 0.0
O284 O 0.84448 0.51943 0.75103 0.0
O285 O 0.8627 0.51885 0.72303 0.0
In286 In 0.74317 0.37225 0.49913 0.0
O287 O 0.71914 0.39855 0.49632 0.0
O288 O 0.72333 0.38448 0.52633 0.0
C289 C 0.72643 0.34632 0.47013 0.0
C290 C 0.77122 0.3988 0.48189 0.0
C291 C 0.76173 0.34649 0.52729 0.0
O292 O 0.71528 0.35778 0.48186 0.0
O293 O 0.74598 0.34803 0.47299 0.0
O294 O 0.77113 0.36182 0.51901 0.0
O295 O 0.74287 0.34432 0.52161 0.0
C296 C 0.71395 0.39815 0.51544 0.0
O297 O 0.76569 0.4 0.50089 0.0
O298 O 0.76264 0.38416 0.47159 0.0
In299 In 0.62324 0.50749 0.24505 0.0
O300 O 0.59536 0.48608 0.25135 0.0
O301 O 0.61029 0.50016 0.27772 0.0
C302 C 0.6485 0.48071 0.22407 0.0
C303 C 0.59749 0.53016 0.22035 0.0
C304 C 0.65146 0.53162 0.26529 0.0
O305 O 0.6349 0.47449 0.23705 0.0
O306 O 0.64915 0.50034 0.22151 0.0
O307 O 0.63997 0.53863 0.25073 0.0
O308 O 0.64849 0.51253 0.2698 0.0
C309 C 0.5959 0.48825 0.27104 0.0
O310 O 0.60027 0.53424 0.23957 0.0
O311 O 0.6078 0.51467 0.21353 0.0
Fe312 Fe 0.12141 0.10811 0.14133 0.0
Fe313 Fe 0.10403 0.14779 0.12035 0.0
O314 O 0.12303 0.12755 0.12153 0.0
Fe315 Fe 0.14367 0.12679 0.10295 0.0
O316 O 0.13548 0.10119 0.0937 0.0
O317 O 0.13244 0.08698 0.12501 0.0
O318 O 0.09576 0.09977 0.13232 0.0
C319 C 0.08007 0.11175 0.13076 0.0
C320 C 0.16365 0.11522 0.14099 0.0
O321 O 0.08236 0.13152 0.13029 0.0
C322 C 0.14206 0.16886 0.11077 0.0
O323 O 0.11002 0.12568 0.16118 0.0
O324 O 0.11088 0.15688 0.14645 0.0
O325 O 0.163 0.11542 0.1211 0.0
O326 O 0.14695 0.11525 0.15163 0.0
C327 C 0.10834 0.13866 0.07873 0.0
O328 O 0.1222 0.1677 0.11011 0.0
O329 O 0.15312 0.15243 0.11103 0.0
C330 C 0.11029 0.14553 0.16267 0.0
O331 O 0.09606 0.13998 0.09421 0.0
O332 O 0.12806 0.13789 0.08139 0.0
C333 C 0.13355 0.08519 0.1052 0.0
Fe334 Fe 0.10483 0.85622 0.37222 0.0
Fe335 Fe 0.12817 0.89447 0.35451 0.0
O336 O 0.12617 0.87407 0.3733 0.0
Fe337 Fe 0.14547 0.87151 0.39316 0.0
O338 O 0.15221 0.84531 0.3844 0.0
O339 O 0.11973 0.83376 0.38251 0.0
O340 O 0.11221 0.84755 0.34615 0.0
C341 C 0.11443 0.85961 0.33058 0.0
C342 C 0.10742 0.86281 0.4145 0.0
O343 O 0.11628 0.87927 0.33308 0.0
C344 C 0.14071 0.91415 0.3924 0.0
O345 O 0.08604 0.87537 0.36172 0.0
O346 O 0.10309 0.90538 0.36238 0.0
O347 O 0.12722 0.86143 0.41304 0.0
O348 O 0.0961 0.86381 0.39824 0.0
C349 C 0.16911 0.88195 0.35704 0.0
O350 O 0.14051 0.91332 0.37252 0.0
O351 O 0.13998 0.89758 0.40323 0.0
C352 C 0.08604 0.89526 0.36227 0.0
O353 O 0.15332 0.88489 0.34544 0.0
O354 O 0.16722 0.88104 0.37683 0.0
C355 C 0.13932 0.8303 0.38309 0.0
Fe356 Fe 0.37441 0.89714 0.64582 0.0
Fe357 Fe 0.35578 0.8761 0.6067 0.0
O358 O 0.37513 0.87699 0.62666 0.0
Fe359 Fe 0.39516 0.85773 0.62746 0.0
O360 O 0.38718 0.84921 0.6534 0.0
O361 O 0.38523 0.88088 0.66703 0.0
O362 O 0.34863 0.88899 0.65459 0.0
C363 C 0.3327 0.88788 0.64285 0.0
C364 C 0.41651 0.89534 0.638 0.0
O365 O 0.33472 0.88708 0.62306 0.0
C366 C 0.39315 0.86494 0.58529 0.0
O367 O 0.36341 0.91705 0.62807 0.0
O368 O 0.3633 0.90179 0.59709 0.0
O369 O 0.41525 0.87547 0.63814 0.0
O370 O 0.40018 0.90654 0.63829 0.0
C371 C 0.35885 0.83447 0.61629 0.0
O372 O 0.37329 0.86495 0.58668 0.0
O373 O 0.40443 0.86502 0.60158 0.0
C374 C 0.3633 0.91822 0.60819 0.0
O375 O 0.34707 0.85035 0.61506 0.0
O376 O 0.37865 0.83652 0.6169 0.0
C377 C 0.38583 0.86111 0.66919 0.0
Fe378 Fe 0.39592 0.14253 0.87517 0.0
Fe379 Fe 0.37492 0.1028 0.85763 0.0
O380 O 0.37499 0.12419 0.87549 0.0
Fe381 Fe 0.35421 0.1272 0.89368 0.0
O382 O 0.34748 0.15279 0.88327 0.0
O383 O 0.37978 0.16502 0.88307 0.0
O384 O 0.39026 0.14963 0.84825 0.0
C385 C 0.38985 0.13682 0.83314 0.0
C386 C 0.39027 0.1376 0.9174 0.0
O387 O 0.38818 0.11724 0.83642 0.0
C388 C 0.35999 0.08474 0.89541 0.0
O389 O 0.41588 0.1234 0.86719 0.0
O390 O 0.39957 0.09298 0.868 0.0
O391 O 0.37063 0.13858 0.91441 0.0
O392 O 0.40286 0.13658 0.90213 0.0
C393 C 0.33361 0.11425 0.85642 0.0
O394 O 0.3616 0.08452 0.87557 0.0
O395 O 0.35963 0.10186 0.90535 0.0
C396 C 0.41631 0.10357 0.86883 0.0
O397 O 0.35027 0.11119 0.84615 0.0
O398 O 0.33403 0.11631 0.87621 0.0
C399 C 0.36014 0.16798 0.88193 0.0
Fe400 Fe 0.60215 0.35381 0.87346 0.0
Fe401 Fe 0.62457 0.39209 0.85456 0.0
O402 O 0.62314 0.3721 0.87386 0.0
Fe403 Fe 0.64275 0.3704 0.89355 0.0
O404 O 0.64999 0.34416 0.88529 0.0
O405 O 0.61771 0.33191 0.88382 0.0
O406 O 0.60928 0.34479 0.84746 0.0
C407 C 0.61084 0.3565 0.83157 0.0
C408 C 0.60521 0.36159 0.91554 0.0
O409 O 0.61268 0.37622 0.83358 0.0
C410 C 0.6371 0.41285 0.89192 0.0
O411 O 0.58282 0.3724 0.86293 0.0
O412 O 0.59936 0.40273 0.86239 0.0
O413 O 0.625 0.36044 0.91389 0.0
O414 O 0.59362 0.36162 0.89946 0.0
C415 C 0.66583 0.38067 0.85697 0.0
O416 O 0.63675 0.41161 0.87205 0.0
O417 O 0.63672 0.3965 0.90307 0.0
C418 C 0.58249 0.3923 0.86276 0.0
O419 O 0.64983 0.38273 0.84546 0.0
O420 O 0.66409 0.38013 0.87679 0.0
C421 C 0.63738 0.32892 0.88397 0.0
Fe422 Fe 0.84909 0.3689 0.10431 0.0
Fe423 Fe 0.86901 0.39119 0.14222 0.0
O424 O 0.86894 0.37027 0.12381 0.0
Fe425 Fe 0.8887 0.35073 0.12487 0.0
O426 O 0.89746 0.35675 0.0985 0.0
O427 O 0.86596 0.3569 0.08429 0.0
O428 O 0.85679 0.39409 0.09362 0.0
C429 C 0.85774 0.41093 0.10402 0.0
C430 C 0.85184 0.32763 0.11565 0.0
O431 O 0.85803 0.41061 0.12393 0.0
C432 C 0.88064 0.35587 0.16668 0.0
O433 O 0.82857 0.38068 0.12075 0.0
O434 O 0.84324 0.38399 0.15186 0.0
O435 O 0.87165 0.32943 0.11564 0.0
O436 O 0.8402 0.34354 0.11372 0.0
C437 C 0.91091 0.38832 0.1336 0.0
O438 O 0.88003 0.37556 0.16381 0.0
O439 O 0.88124 0.3434 0.15129 0.0
C440 C 0.82707 0.38237 0.14052 0.0
O441 O 0.89479 0.39983 0.13386 0.0
O442 O 0.90932 0.3685 0.13431 0.0
C443 C 0.88576 0.35661 0.0825 0.0
Fe444 Fe 0.85771 0.62048 0.39574 0.0
Fe445 Fe 0.89837 0.63967 0.37844 0.0
O446 O 0.87811 0.62064 0.37685 0.0
Fe447 Fe 0.87815 0.60185 0.35633 0.0
O448 O 0.85295 0.61093 0.3468 0.0
O449 O 0.83741 0.61088 0.37757 0.0
O450 O 0.84977 0.64687 0.38861 0.0
C451 C 0.86182 0.66262 0.38894 0.0
C452 C 0.86505 0.57846 0.39185 0.0
O453 O 0.88158 0.66031 0.38951 0.0
C454 C 0.91984 0.60263 0.36637 0.0
O455 O 0.87425 0.62997 0.4174 0.0
O456 O 0.90616 0.63058 0.40423 0.0
O457 O 0.8661 0.58089 0.37211 0.0
O458 O 0.86442 0.59413 0.40397 0.0
C459 C 0.89106 0.63924 0.33615 0.0
O460 O 0.9188 0.62246 0.36769 0.0
O461 O 0.90344 0.59164 0.36443 0.0
C462 C 0.894 0.62958 0.41983 0.0
O463 O 0.89191 0.65003 0.35275 0.0
O464 O 0.89014 0.61937 0.33688 0.0
C465 C 0.83646 0.61165 0.35771 0.0
Fe466 Fe 0.8928 0.85929 0.87323 0.0
Fe467 Fe 0.85163 0.87732 0.8906 0.0
O468 O 0.87238 0.87806 0.87212 0.0
Fe469 Fe 0.87272 0.8977 0.8525 0.0
O470 O 0.89742 0.90794 0.8621 0.0
O471 O 0.9133 0.87733 0.86367 0.0
O472 O 0.89994 0.86739 0.89954 0.0
C473 C 0.88754 0.86741 0.91498 0.0
C474 C 0.8865 0.86147 0.83093 0.0
O475 O 0.86782 0.86699 0.91218 0.0
C476 C 0.83127 0.88717 0.85233 0.0
O477 O 0.87594 0.83793 0.88292 0.0
O478 O 0.84401 0.85121 0.88237 0.0
O479 O 0.88568 0.88128 0.83261 0.0
O480 O 0.88687 0.85 0.84704 0.0
C481 C 0.85885 0.91948 0.88856 0.0
O482 O 0.83168 0.88745 0.87226 0.0
O483 O 0.84802 0.8885 0.84187 0.0
C484 C 0.85616 0.83557 0.88217 0.0
O485 O 0.85808 0.90337 0.90004 0.0
O486 O 0.85982 0.91776 0.86875 0.0
C487 C 0.91398 0.89724 0.86391 0.0
Fe488 Fe 0.86832 0.10255 0.64191 0.0
Fe489 Fe 0.85202 0.12112 0.60059 0.0
O490 O 0.87068 0.12089 0.6212 0.0
Fe491 Fe 0.8917 0.13905 0.6211 0.0
O492 O 0.88317 0.15026 0.64574 0.0
O493 O 0.87951 0.12007 0.66207 0.0
O494 O 0.84286 0.11276 0.64914 0.0
C495 C 0.82734 0.11392 0.63689 0.0
C496 C 0.9106 0.10146 0.63548 0.0
O497 O 0.82984 0.1127 0.61716 0.0
C498 C 0.89072 0.12819 0.57975 0.0
O499 O 0.85676 0.08174 0.62548 0.0
O500 O 0.85839 0.09439 0.59339 0.0
O501 O 0.91045 0.12134 0.63418 0.0
O502 O 0.89364 0.09123 0.63587 0.0
C503 C 0.85712 0.16315 0.60705 0.0
O504 O 0.87084 0.12962 0.58033 0.0
O505 O 0.90139 0.12886 0.59643 0.0
C506 C 0.85754 0.07895 0.60577 0.0
O507 O 0.84455 0.14784 0.60664 0.0
O508 O 0.87679 0.16012 0.60806 0.0
C509 C 0.88088 0.13995 0.66248 0.0
Fe510 Fe 0.62176 0.10195 0.352 0.0
Fe511 Fe 0.63995 0.12415 0.39054 0.0
O512 O 0.62059 0.1224 0.37071 0.0
Fe513 Fe 0.60009 0.14106 0.36952 0.0
O514 O 0.608 0.14926 0.3435 0.0
O515 O 0.61005 0.11736 0.33056 0.0
O516 O 0.64699 0.111 0.34276 0.0
C517 C 0.66298 0.11302 0.35427 0.0
C518 C 0.57986 0.10253 0.36042 0.0
O519 O 0.66125 0.11337 0.37413 0.0
C520 C 0.60227 0.13476 0.41177 0.0
O521 O 0.63371 0.08277 0.37 0.0
O522 O 0.63294 0.09853 0.40068 0.0
O523 O 0.58046 0.12243 0.35917 0.0
O524 O 0.59656 0.09191 0.3603 0.0
C525 C 0.63586 0.16543 0.38002 0.0
O526 O 0.62216 0.13533 0.41044 0.0
O527 O 0.59106 0.13397 0.39546 0.0
C528 C 0.63315 0.08193 0.38989 0.0
O529 O 0.64797 0.14984 0.38151 0.0
O530 O 0.61608 0.16297 0.37973 0.0
C531 C 0.60949 0.13709 0.32795 0.0
Fe532 Fe 0.60559 0.85724 0.12503 0.0
Fe533 Fe 0.64644 0.87639 0.10845 0.0
O534 O 0.62611 0.87582 0.12734 0.0
Fe535 Fe 0.62625 0.89381 0.14848 0.0
O536 O 0.60126 0.9046 0.14048 0.0
O537 O 0.58536 0.8742 0.13686 0.0
O538 O 0.59782 0.86788 0.09987 0.0
C539 C 0.60986 0.86907 0.08421 0.0
C540 C 0.61311 0.85565 0.16713 0.0
O541 O 0.62963 0.86773 0.08648 0.0
C542 C 0.66783 0.88389 0.14682 0.0
O543 O 0.62206 0.83686 0.11279 0.0
O544 O 0.65404 0.84977 0.11479 0.0
O545 O 0.61394 0.87557 0.16726 0.0
O546 O 0.61229 0.84565 0.15005 0.0
C547 C 0.63914 0.91828 0.11374 0.0
O548 O 0.66689 0.88522 0.12696 0.0
O549 O 0.65131 0.88415 0.15771 0.0
C550 C 0.6418 0.83422 0.11357 0.0
O551 O 0.63992 0.90301 0.10112 0.0
O552 O 0.63851 0.91522 0.13342 0.0
C553 C 0.58466 0.89405 0.13833 0.0
Fe554 Fe 0.38794 0.64939 0.11718 0.0
Fe555 Fe 0.34985 0.62538 0.10002 0.0
O556 O 0.37037 0.6279 0.1186 0.0
Fe557 Fe 0.37336 0.60893 0.13863 0.0
O558 O 0.39938 0.60224 0.12947 0.0
O559 O 0.41067 0.6348 0.12755 0.0
O560 O 0.39647 0.64165 0.09124 0.0
C561 C 0.3844 0.63938 0.07567 0.0
C562 C 0.38188 0.64736 0.15946 0.0
O563 O 0.36474 0.63727 0.07824 0.0
C564 C 0.33078 0.61329 0.13839 0.0
O565 O 0.36844 0.66785 0.10657 0.0
O566 O 0.33871 0.65034 0.10776 0.0
O567 O 0.38369 0.62756 0.15821 0.0
O568 O 0.3804 0.65839 0.14308 0.0
C569 C 0.36252 0.58461 0.10296 0.0
O570 O 0.3313 0.61302 0.11846 0.0
O571 O 0.34752 0.61455 0.14893 0.0
C572 C 0.34855 0.66753 0.10746 0.0
O573 O 0.35971 0.60026 0.09117 0.0
O574 O 0.36359 0.58685 0.12272 0.0
C575 C 0.41429 0.61522 0.12807 0.0
Fe576 Fe 0.11411 0.6028 0.85627 0.0
Fe577 Fe 0.13731 0.61797 0.89566 0.0
O578 O 0.11647 0.62067 0.87745 0.0
Fe579 Fe 0.09813 0.64131 0.88036 0.0
O580 O 0.10492 0.65203 0.85496 0.0
O581 O 0.10302 0.62211 0.83785 0.0
O582 O 0.13968 0.61012 0.84624 0.0
C583 C 0.15649 0.60916 0.85666 0.0
C584 C 0.07302 0.60674 0.86771 0.0
O585 O 0.15606 0.60733 0.87648 0.0
C586 C 0.10273 0.62946 0.92121 0.0
O587 O 0.12481 0.58024 0.87089 0.0
O588 O 0.12838 0.59208 0.90315 0.0
O589 O 0.07586 0.62637 0.86959 0.0
O590 O 0.08836 0.59451 0.86495 0.0
C591 C 0.13697 0.66049 0.8902 0.0
O592 O 0.12237 0.62815 0.91819 0.0
O593 O 0.09029 0.63192 0.90598 0.0
C594 C 0.12613 0.57698 0.89051 0.0
O595 O 0.14746 0.64373 0.88915 0.0
O596 O 0.11711 0.65996 0.89163 0.0
C597 C 0.10414 0.64199 0.83791 0.0
Fe598 Fe 0.14078 0.38239 0.60502 0.0
Fe599 Fe 0.10338 0.35674 0.6211 0.0
O600 O 0.1201 0.37884 0.62325 0.0
Fe601 Fe 0.11613 0.39726 0.64368 0.0
O602 O 0.14212 0.39261 0.65414 0.0
O603 O 0.1587 0.39495 0.62394 0.0
O604 O 0.15268 0.35761 0.61233 0.0
C605 C 0.1434 0.34014 0.61137 0.0
C606 C 0.1266 0.42266 0.60864 0.0
O607 O 0.12355 0.33927 0.61015 0.0
C608 C 0.07556 0.38947 0.63248 0.0
O609 O 0.12645 0.37052 0.58279 0.0
O610 O 0.09476 0.36484 0.59532 0.0
O611 O 0.125 0.42005 0.62832 0.0
O612 O 0.13027 0.40737 0.59661 0.0
C613 C 0.10942 0.35803 0.66344 0.0
O614 O 0.08003 0.37009 0.6316 0.0
O615 O 0.08986 0.40303 0.63449 0.0
C616 C 0.10688 0.36788 0.57996 0.0
O617 O 0.11117 0.34744 0.64679 0.0
O618 O 0.10657 0.37774 0.66271 0.0
C619 C 0.15893 0.39448 0.64386 0.0
Fe620 Fe 0.64185 0.624 0.6067 0.0
Fe621 Fe 0.62397 0.60377 0.64661 0.0
O622 O 0.62328 0.6239 0.62742 0.0
Fe623 Fe 0.60407 0.6439 0.62902 0.0
O624 O 0.5935 0.63704 0.60353 0.0
O625 O 0.6239 0.63552 0.58724 0.0
O626 O 0.63316 0.59844 0.59758 0.0
C627 C 0.63294 0.58212 0.60882 0.0
C628 C 0.64067 0.66582 0.61628 0.0
O629 O 0.63375 0.58347 0.62866 0.0
C630 C 0.61447 0.64008 0.67042 0.0
O631 O 0.66315 0.61257 0.62248 0.0
O632 O 0.6503 0.61114 0.65451 0.0
O633 O 0.62087 0.66452 0.61792 0.0
O634 O 0.65177 0.64953 0.61441 0.0
C635 C 0.58177 0.60704 0.63993 0.0
O636 O 0.61428 0.62032 0.66812 0.0
O637 O 0.61338 0.65206 0.65469 0.0
C638 C 0.66582 0.61198 0.64221 0.0
O639 O 0.59766 0.59521 0.63989 0.0
O640 O 0.58375 0.62685 0.64029 0.0
C641 C 0.60401 0.63643 0.58676 0.0
Fe642 Fe 0.39462 0.36353 0.37761 0.0
Fe643 Fe 0.37561 0.3999 0.35255 0.0
O644 O 0.37478 0.38264 0.3743 0.0
Fe645 Fe 0.35407 0.38445 0.39273 0.0
O646 O 0.34571 0.35784 0.38724 0.0
O647 O 0.3772 0.34395 0.38982 0.0
O648 O 0.38829 0.35142 0.35268 0.0
C649 C 0.38823 0.36094 0.33532 0.0
C650 C 0.38978 0.37657 0.41807 0.0
O651 O 0.38787 0.38084 0.33466 0.0
C652 C 0.36231 0.42594 0.38609 0.0
O653 O 0.4156 0.37963 0.36601 0.0
O654 O 0.40079 0.41035 0.36063 0.0
O655 O 0.37005 0.37608 0.41537 0.0
O656 O 0.40211 0.37454 0.40272 0.0
C657 C 0.3338 0.39064 0.35368 0.0
O658 O 0.36348 0.42211 0.36656 0.0
O659 O 0.36124 0.41116 0.39924 0.0
C660 C 0.41699 0.39935 0.36357 0.0
O661 O 0.35054 0.39041 0.34312 0.0
O662 O 0.33432 0.39309 0.37345 0.0
C663 C 0.35739 0.34194 0.38891 0.0
H664 H 0.06131 0.23522 0.34073 0.0
H665 H 0.0817 0.22273 0.31052 0.0
H666 H 0.02619 0.19293 0.28527 0.0
H667 H 0.00565 0.20565 0.31513 0.0
H668 H 0.08927 0.18257 0.29473 0.0
H669 H 0.04544 0.23131 0.23746 0.0
H670 H 0.04364 0.23534 0.2655 0.0
H671 H 0.02845 0.21498 0.25297 0.0
C672 C 0.0535 0.2259 0.32878 0.0
C673 C 0.03187 0.22155 0.33013 0.0
C674 C 0.06516 0.2188 0.31158 0.0
C675 C 0.05532 0.20732 0.29551 0.0
C676 C 0.03393 0.20221 0.2973 0.0
H677 H 0.09899 0.12625 0.19927 0.0
H678 H 0.08938 0.14292 0.23236 0.0
C679 C 0.02226 0.20937 0.31441 0.0
C680 C 0.06722 0.20085 0.27667 0.0
H681 H 0.06624 0.20343 0.22317 0.0
C682 C 0.08445 0.1873 0.27907 0.0
C683 C 0.0612 0.2075 0.25633 0.0
C684 C 0.04381 0.22327 0.25288 0.0
C685 C 0.09513 0.17931 0.26151 0.0
C686 C 0.08806 0.18471 0.24112 0.0
C687 C 0.07153 0.19913 0.23881 0.0
C688 C 0.09641 0.17456 0.22193 0.0
C689 C 0.11378 0.16509 0.265 0.0
C690 C 0.10335 0.18682 0.20495 0.0
C691 C 0.1085 0.17735 0.18582 0.0
C692 C 0.10679 0.15544 0.18337 0.0
C693 C 0.10056 0.14315 0.20065 0.0
C694 C 0.09524 0.15265 0.21968 0.0
H695 H 0.12157 0.16852 0.28027 0.0
H696 H 0.10833 0.14852 0.26542 0.0
H697 H 0.12555 0.16673 0.25221 0.0
H698 H 0.10425 0.20377 0.20634 0.0
H699 H 0.11337 0.18723 0.17284 0.0
H700 H 0.01537 0.81575 0.59134 0.0
H701 H 0.02865 0.83597 0.56139 0.0
H702 H 0.06414 0.78205 0.54068 0.0
H703 H 0.05072 0.76165 0.57036 0.0
H704 H 0.06969 0.84571 0.54697 0.0
H705 H 0.02543 0.79598 0.49058 0.0
H706 H 0.02045 0.7956 0.51851 0.0
H707 H 0.04222 0.78115 0.50774 0.0
C708 C 0.0262 0.80829 0.58053 0.0
C709 C 0.03186 0.78707 0.58301 0.0
C710 C 0.03375 0.81985 0.56347 0.0
C711 C 0.04699 0.81032 0.54867 0.0
C712 C 0.05357 0.7895 0.55175 0.0
H713 H 0.12676 0.85434 0.45183 0.0
H714 H 0.1102 0.84551 0.48514 0.0
C715 C 0.04599 0.77792 0.56875 0.0
C716 C 0.05327 0.82176 0.5295 0.0
H717 H 0.0516 0.81856 0.47606 0.0
C718 C 0.06559 0.83996 0.53144 0.0
C719 C 0.04739 0.81449 0.50933 0.0
C720 C 0.03296 0.79586 0.50635 0.0
C721 C 0.07314 0.85048 0.51359 0.0
C722 C 0.06849 0.84231 0.49342 0.0
C723 C 0.05529 0.82473 0.49154 0.0
C724 C 0.07841 0.85054 0.47408 0.0
C725 C 0.08611 0.87014 0.51652 0.0
C726 C 0.06602 0.85618 0.45671 0.0
C727 C 0.07543 0.86093 0.43745 0.0
C728 C 0.09741 0.86003 0.43527 0.0
C729 C 0.10979 0.8552 0.45295 0.0
C730 C 0.10036 0.85034 0.47212 0.0
H731 H 0.08208 0.87821 0.53148 0.0
H732 H 0.10299 0.86583 0.51723 0.0
H733 H 0.0838 0.88132 0.50331 0.0
H734 H 0.04902 0.8563 0.45789 0.0
H735 H 0.06547 0.86472 0.42417 0.0
H736 H 0.48814 0.78785 0.81016 0.0
H737 H 0.4655 0.80471 0.78425 0.0
H738 H 0.41305 0.80078 0.82702 0.0
H739 H 0.43573 0.78364 0.8532 0.0
H740 H 0.40406 0.78739 0.78518 0.0
H741 H 0.44283 0.86526 0.78663 0.0
H742 H 0.46135 0.84423 0.78346 0.0
H743 H 0.44624 0.84611 0.80731 0.0
C744 C 0.47182 0.79064 0.81413 0.0
C745 C 0.4637 0.78455 0.83372 0.0
C746 C 0.45894 0.80037 0.79935 0.0
C747 C 0.43774 0.8043 0.80391 0.0
C748 C 0.42945 0.79803 0.82335 0.0
H749 H 0.37859 0.88076 0.70664 0.0
H750 H 0.3856 0.86716 0.74188 0.0
C751 C 0.44239 0.78828 0.83824 0.0
C752 C 0.42437 0.81439 0.78786 0.0
H753 H 0.42332 0.85679 0.75524 0.0
C754 C 0.40792 0.80276 0.77886 0.0
C755 C 0.42916 0.8346 0.78 0.0
C756 C 0.44572 0.84837 0.79 0.0
C757 C 0.39715 0.8102 0.7611 0.0
C758 C 0.40335 0.82954 0.75202 0.0
C759 C 0.41873 0.84183 0.76203 0.0
C760 C 0.39573 0.8365 0.73116 0.0
C761 C 0.37959 0.79708 0.75201 0.0
C762 C 0.39879 0.82366 0.71346 0.0
C763 C 0.39469 0.83134 0.69332 0.0
C764 C 0.38783 0.85214 0.69051 0.0
C765 C 0.38406 0.86472 0.7083 0.0
C766 C 0.38797 0.85696 0.72844 0.0
H767 H 0.37177 0.78761 0.76443 0.0
H768 H 0.36759 0.807 0.74412 0.0
H769 H 0.38619 0.78597 0.74029 0.0
H770 H 0.40531 0.80803 0.71511 0.0
H771 H 0.3978 0.82126 0.67995 0.0
H772 H 0.45269 0.24019 0.06601 0.0
H773 H 0.4352 0.21872 0.03949 0.0
H774 H 0.44883 0.1628 0.07539 0.0
H775 H 0.46697 0.18425 0.10181 0.0
H776 H 0.4598 0.15803 0.03535 0.0
H777 H 0.37921 0.18975 0.038 0.0
H778 H 0.39779 0.21071 0.03484 0.0
H779 H 0.39823 0.19501 0.05844 0.0
C780 C 0.45167 0.22336 0.06844 0.0
C781 C 0.46117 0.21387 0.08594 0.0
C782 C 0.44152 0.21112 0.05335 0.0
C783 C 0.44037 0.1892 0.05567 0.0
C784 C 0.44942 0.17971 0.0734 0.0
H785 H 0.36979 0.1295 0.95401 0.0
H786 H 0.38193 0.13693 0.98972 0.0
C787 C 0.45974 0.19196 0.08845 0.0
C788 C 0.43141 0.17626 0.03854 0.0
H789 H 0.38981 0.17394 0.00488 0.0
C790 C 0.44431 0.16116 0.02893 0.0
C791 C 0.41104 0.17997 0.03047 0.0
C792 C 0.39571 0.19458 0.04116 0.0
C793 C 0.43794 0.15078 0.01054 0.0
C794 C 0.41844 0.15612 0.00129 0.0
C795 C 0.40494 0.17009 0.01176 0.0
C796 C 0.41233 0.1488 0.98005 0.0
C797 C 0.45232 0.13445 0.00112 0.0
C798 C 0.42551 0.15272 0.96277 0.0
C799 C 0.41872 0.14823 0.94238 0.0
C800 C 0.39843 0.14025 0.93892 0.0
C801 C 0.38545 0.13585 0.95624 0.0
C802 C 0.39237 0.14002 0.97664 0.0
H803 H 0.46186 0.12663 0.0135 0.0
H804 H 0.44336 0.12225 0.99239 0.0
H805 H 0.46338 0.14222 0.9901 0.0
H806 H 0.44072 0.16007 0.96495 0.0
H807 H 0.429 0.15191 0.92931 0.0
H808 H 0.01277 0.80257 0.1811 0.0
H809 H 0.03561 0.81918 0.20698 0.0
H810 H 0.09023 0.797 0.17344 0.0
H811 H 0.0673 0.77972 0.14766 0.0
H812 H 0.09306 0.78818 0.21413 0.0
H813 H 0.07071 0.87144 0.20619 0.0
H814 H 0.04762 0.85569 0.20969 0.0
H815 H 0.06375 0.852 0.18667 0.0
C816 C 0.02964 0.80151 0.17902 0.0
C817 C 0.03828 0.78987 0.16239 0.0
C818 C 0.04269 0.81117 0.19374 0.0
C819 C 0.06463 0.80969 0.19191 0.0
C820 C 0.07333 0.79848 0.17502 0.0
H821 H 0.12669 0.87803 0.29392 0.0
H822 H 0.12014 0.86553 0.25815 0.0
C823 C 0.06024 0.78865 0.16033 0.0
C824 C 0.07815 0.81816 0.20886 0.0
H825 H 0.08364 0.86088 0.2407 0.0
C826 C 0.0914 0.80423 0.21968 0.0
C827 C 0.07643 0.83921 0.2158 0.0
C828 C 0.06403 0.85547 0.20378 0.0
C829 C 0.10165 0.81034 0.23822 0.0
C830 C 0.09802 0.83069 0.24642 0.0
C831 C 0.08613 0.84512 0.23467 0.0
C832 C 0.10466 0.83682 0.26788 0.0
C833 C 0.11591 0.79477 0.24901 0.0
C834 C 0.09835 0.82472 0.28524 0.0
C835 C 0.10229 0.8317 0.30567 0.0
C836 C 0.11216 0.85116 0.3091 0.0
C837 C 0.1189 0.86304 0.29173 0.0
C838 C 0.11523 0.8559 0.2713 0.0
H839 H 0.12337 0.78406 0.2374 0.0
H840 H 0.12847 0.80277 0.25815 0.0
H841 H 0.10648 0.78492 0.25989 0.0
H842 H 0.08959 0.81028 0.28304 0.0
H843 H 0.09679 0.82227 0.31874 0.0
H844 H 0.44018 0.76729 0.42106 0.0
H845 H 0.42621 0.78787 0.45035 0.0
H846 H 0.47851 0.83081 0.4455 0.0
H847 H 0.49255 0.81038 0.41603 0.0
H848 H 0.44973 0.79386 0.48783 0.0
H849 H 0.42619 0.86968 0.45115 0.0
H850 H 0.42962 0.84581 0.43611 0.0
H851 H 0.45215 0.86034 0.44498 0.0
C852 C 0.44853 0.7813 0.426 0.0
C853 C 0.46749 0.7872 0.41636 0.0
C854 C 0.44053 0.79303 0.4427 0.0
C855 C 0.45128 0.81089 0.44992 0.0
C856 C 0.46984 0.81725 0.43989 0.0
H857 H 0.43506 0.86028 0.57653 0.0
H858 H 0.45068 0.84982 0.54299 0.0
C859 C 0.47788 0.80551 0.42316 0.0
C860 C 0.44408 0.82154 0.46922 0.0
H861 H 0.42412 0.86754 0.48831 0.0
C862 C 0.44417 0.80998 0.48798 0.0
C863 C 0.43685 0.84254 0.46922 0.0
C864 C 0.436 0.85535 0.44929 0.0
C865 C 0.43701 0.8188 0.50681 0.0
C866 C 0.42989 0.83984 0.50688 0.0
C867 C 0.42985 0.85148 0.48814 0.0
C868 C 0.42114 0.84937 0.52611 0.0
C869 C 0.43657 0.80535 0.52636 0.0
C870 C 0.39953 0.85338 0.52736 0.0
C871 C 0.39054 0.85935 0.54645 0.0
C872 C 0.40306 0.86138 0.56459 0.0
C873 C 0.42494 0.8586 0.56292 0.0
C874 C 0.4339 0.85263 0.5438 0.0
H875 H 0.43882 0.78842 0.52273 0.0
H876 H 0.44941 0.81037 0.53709 0.0
H877 H 0.42143 0.80727 0.53483 0.0
H878 H 0.38948 0.85097 0.5138 0.0
H879 H 0.37368 0.86159 0.54713 0.0
H880 H 0.47932 0.18862 0.66062 0.0
H881 H 0.46236 0.16918 0.68911 0.0
H882 H 0.41427 0.2168 0.69312 0.0
H883 H 0.43094 0.23615 0.66441 0.0
H884 H 0.45838 0.18611 0.72843 0.0
H885 H 0.38019 0.1625 0.69778 0.0
H886 H 0.40154 0.17042 0.68081 0.0
H887 H 0.38596 0.18989 0.6941 0.0
C888 C 0.46488 0.19471 0.66728 0.0
C889 C 0.45649 0.21394 0.66041 0.0
C890 C 0.45521 0.18359 0.68351 0.0
C891 C 0.43698 0.19146 0.69307 0.0
C892 C 0.42808 0.21023 0.68565 0.0
H893 H 0.39726 0.17731 0.8208 0.0
H894 H 0.4075 0.18954 0.78589 0.0
C895 C 0.43771 0.22134 0.66936 0.0
C896 C 0.42885 0.18153 0.71242 0.0
H897 H 0.38479 0.16102 0.73521 0.0
C898 C 0.44236 0.18041 0.72983 0.0
C899 C 0.40798 0.17405 0.71414 0.0
C900 C 0.39312 0.17407 0.69565 0.0
C901 C 0.43538 0.17255 0.74914 0.0
C902 C 0.41428 0.16592 0.75113 0.0
C903 C 0.4009 0.16639 0.7336 0.0
C904 C 0.40596 0.15876 0.77151 0.0
C905 C 0.4506 0.17149 0.76734 0.0
C906 C 0.40112 0.1375 0.77469 0.0
C907 C 0.39531 0.13041 0.79464 0.0
C908 C 0.3942 0.14452 0.81166 0.0
C909 C 0.39816 0.16599 0.80811 0.0
C910 C 0.40401 0.17302 0.78819 0.0
H911 H 0.46719 0.17283 0.76206 0.0
H912 H 0.44735 0.18463 0.77834 0.0
H913 H 0.44869 0.15652 0.77612 0.0
H914 H 0.40252 0.12632 0.7619 0.0
H915 H 0.3922 0.11381 0.79681 0.0
H916 H 0.02758 0.18247 0.89436 0.0
H917 H 0.04577 0.16131 0.92097 0.0
H918 H 0.05696 0.21726 0.95778 0.0
H919 H 0.03958 0.23846 0.93103 0.0
H920 H 0.09101 0.19226 0.95666 0.0
H921 H 0.01977 0.14549 0.97668 0.0
H922 H 0.02831 0.14381 0.94983 0.0
H923 H 0.01866 0.16835 0.95998 0.0
C924 C 0.03407 0.19021 0.90809 0.0
C925 C 0.03208 0.21205 0.91075 0.0
C926 C 0.04433 0.17811 0.9233 0.0
C927 C 0.05236 0.18768 0.9415 0.0
C928 C 0.05085 0.20956 0.94385 0.0
H929 H 0.07008 0.15427 0.06736 0.0
H930 H 0.05785 0.16221 0.0319 0.0
C931 C 0.04088 0.22165 0.92858 0.0
C932 C 0.06186 0.17517 0.95862 0.0
H933 H 0.04999 0.13961 0.99697 0.0
C934 C 0.08218 0.18054 0.96536 0.0
C935 C 0.05019 0.15997 0.96992 0.0
C936 C 0.02797 0.15412 0.9639 0.0
C937 C 0.09073 0.17205 0.98379 0.0
C938 C 0.07887 0.15719 0.99536 0.0
C939 C 0.05903 0.15094 0.98798 0.0
C940 C 0.0856 0.15002 0.01642 0.0
C941 C 0.11175 0.18015 0.99137 0.0
C942 C 0.10498 0.13995 0.01942 0.0
C943 C 0.1122 0.13575 0.03973 0.0
C944 C 0.09991 0.14116 0.05729 0.0
C945 C 0.07994 0.15001 0.05415 0.0
C946 C 0.0729 0.1545 0.03389 0.0
H947 H 0.11656 0.19474 0.98306 0.0
H948 H 0.11135 0.18347 0.00851 0.0
H949 H 0.12397 0.16806 0.98845 0.0
H950 H 0.11476 0.13585 0.00611 0.0
H951 H 0.12751 0.12857 0.0417 0.0
H952 H 0.33378 0.06043 0.24074 0.0
H953 H 0.30421 0.08119 0.22743 0.0
H954 H 0.2891 0.03173 0.1835 0.0
H955 H 0.31847 0.0108 0.19682 0.0
H956 H 0.2938 0.09522 0.18565 0.0
H957 H 0.235 0.04001 0.21898 0.0
H958 H 0.2623 0.03992 0.22682 0.0
H959 H 0.25438 0.0276 0.20262 0.0
C960 C 0.32425 0.05406 0.22813 0.0
C961 C 0.32826 0.03393 0.21993 0.0
C962 C 0.30742 0.06594 0.22055 0.0
C963 C 0.29436 0.0578 0.20477 0.0
C964 C 0.29885 0.03809 0.19596 0.0
H965 H 0.20201 0.10869 0.12289 0.0
H966 H 0.23449 0.09831 0.14035 0.0
C967 C 0.31565 0.0262 0.20351 0.0
C968 C 0.27555 0.06949 0.19796 0.0
H969 H 0.22223 0.06548 0.19474 0.0
C970 C 0.27811 0.08887 0.18778 0.0
C971 C 0.25514 0.06133 0.20122 0.0
C972 C 0.25144 0.04117 0.21319 0.0
C973 C 0.26072 0.0999 0.17986 0.0
C974 C 0.24042 0.09108 0.182 0.0
C975 C 0.23784 0.07215 0.19302 0.0
C976 C 0.2217 0.10031 0.17182 0.0
C977 C 0.26425 0.12079 0.16922 0.0
C978 C 0.20371 0.10486 0.18373 0.0
C979 C 0.18499 0.11054 0.17377 0.0
C980 C 0.18395 0.11165 0.15171 0.0
C981 C 0.20226 0.10797 0.1399 0.0
C982 C 0.22093 0.10221 0.14987 0.0
H983 H 0.27898 0.12838 0.17481 0.0
H984 H 0.26575 0.11826 0.15202 0.0
H985 H 0.2509 0.13167 0.17202 0.0
H986 H 0.20399 0.10337 0.2007 0.0
H987 H 0.1712 0.11341 0.18334 0.0
H988 H 0.22874 0.08392 0.44189 0.0
H989 H 0.21011 0.0534 0.42775 0.0
H990 H 0.16798 0.05423 0.48084 0.0
H991 H 0.18647 0.08493 0.49508 0.0
H992 H 0.20756 0.0152 0.45114 0.0
H993 H 0.12878 0.04601 0.42881 0.0
H994 H 0.15147 0.06285 0.43193 0.0
H995 H 0.13816 0.05275 0.45465 0.0
C996 C 0.21526 0.07786 0.45037 0.0
C997 C 0.20909 0.08672 0.46963 0.0
C998 C 0.20466 0.06044 0.44227 0.0
C999 C 0.18766 0.05168 0.45322 0.0
C1000 C 0.1809 0.06098 0.47203 0.0
H1001 H 0.14707 0.9218 0.43439 0.0
H1002 H 0.15628 0.95539 0.45083 0.0
C1003 C 0.19152 0.07844 0.48017 0.0
C1004 C 0.17846 0.03164 0.44593 0.0
H1005 H 0.13398 0.00927 0.4258 0.0
C1006 C 0.19145 0.01385 0.44566 0.0
C1007 C 0.15747 0.03007 0.43881 0.0
C1008 C 0.14312 0.04893 0.43837 0.0
C1009 C 0.1841 0.99448 0.4382 0.0
C1010 C 0.16309 0.99285 0.43111 0.0
C1011 C 0.15001 0.01061 0.43149 0.0
C1012 C 0.15506 0.97313 0.42185 0.0
C1013 C 0.19904 0.97606 0.43736 0.0
C1014 C 0.15066 0.97225 0.40029 0.0
C1015 C 0.14543 0.95315 0.39084 0.0
C1016 C 0.14445 0.9346 0.40284 0.0
C1017 C 0.14789 0.93575 0.42466 0.0
C1018 C 0.15317 0.9549 0.43409 0.0
H1019 H 0.21564 0.98097 0.43972 0.0
H1020 H 0.1949 0.96471 0.44994 0.0
H1021 H 0.19776 0.96779 0.42203 0.0
H1022 H 0.15202 0.98621 0.39063 0.0
H1023 H 0.14265 0.95287 0.37404 0.0
H1024 H 0.16711 0.98351 0.69424 0.0
H1025 H 0.19572 0.96402 0.6776 0.0
H1026 H 0.19201 0.9168 0.72611 0.0
H1027 H 0.16316 0.93606 0.74272 0.0
H1028 H 0.23333 0.95685 0.69858 0.0
H1029 H 0.19736 0.88181 0.67182 0.0
H1030 H 0.18196 0.90488 0.67791 0.0
H1031 H 0.19207 0.88868 0.69872 0.0
C1032 C 0.17211 0.96877 0.70114 0.0
C1033 C 0.16302 0.96133 0.71982 0.0
C1034 C 0.18842 0.95766 0.69161 0.0
C1035 C 0.19583 0.93892 0.70055 0.0
C1036 C 0.18624 0.93103 0.71876 0.0
H1037 H 0.32247 0.89197 0.68444 0.0
H1038 H 0.28837 0.90193 0.69904 0.0
C1039 C 0.16987 0.94212 0.72829 0.0
C1040 C 0.21506 0.92904 0.69217 0.0
H1041 H 0.23474 0.88397 0.67069 0.0
C1042 C 0.23363 0.94094 0.69242 0.0
C1043 C 0.21531 0.90832 0.68414 0.0
C1044 C 0.19559 0.89519 0.68292 0.0
C1045 C 0.25255 0.93265 0.6849 0.0
C1046 C 0.25293 0.91177 0.67728 0.0
C1047 C 0.23434 0.89988 0.67682 0.0
C1048 C 0.27248 0.90255 0.66897 0.0
C1049 C 0.27191 0.94641 0.68485 0.0
C1050 C 0.27446 0.89875 0.64737 0.0
C1051 C 0.29389 0.89305 0.63895 0.0
C1052 C 0.31162 0.89108 0.65205 0.0
C1053 C 0.3092 0.89363 0.67388 0.0
C1054 C 0.28975 0.8993 0.68227 0.0
H1055 H 0.26797 0.96327 0.68711 0.0
H1056 H 0.28248 0.94154 0.69785 0.0
H1057 H 0.28067 0.94469 0.66985 0.0
H1058 H 0.26122 0.90115 0.63691 0.0
H1059 H 0.29517 0.89101 0.62209 0.0
H1060 H 0.28051 0.91226 0.94289 0.0
H1061 H 0.30287 0.94155 0.93198 0.0
H1062 H 0.30969 0.96081 0.99666 0.0
H1063 H 0.28723 0.93153 0.00774 0.0
H1064 H 0.29493 0.99224 0.96907 0.0
H1065 H 0.36642 0.95364 0.93762 0.0
H1066 H 0.34228 0.94268 0.92784 0.0
H1067 H 0.34846 0.94059 0.95535 0.0
C1068 C 0.28705 0.92252 0.95482 0.0
C1069 C 0.28208 0.9197 0.97614 0.0
C1070 C 0.29996 0.93913 0.94858 0.0
C1071 C 0.30812 0.95313 0.96356 0.0
C1072 C 0.30366 0.95002 0.98492 0.0
H1073 H 0.36003 0.07835 0.93793 0.0
H1074 H 0.35042 0.04617 0.95667 0.0
C1075 C 0.29083 0.93334 0.9912 0.0
C1076 C 0.31922 0.97228 0.9566 0.0
H1077 H 0.36064 0.9894 0.92719 0.0
C1078 C 0.3095 0.99172 0.96023 0.0
C1079 C 0.33814 0.97142 0.94502 0.0
C1080 C 0.34956 0.95098 0.94136 0.0
C1081 C 0.31761 0.0103 0.95162 0.0
C1082 C 0.33624 0.00938 0.93949 0.0
C1083 C 0.34638 0.99002 0.93651 0.0
C1084 C 0.34442 0.02811 0.92844 0.0
C1085 C 0.30553 0.03051 0.95463 0.0
C1086 C 0.34515 0.02825 0.90641 0.0
C1087 C 0.35083 0.0465 0.89566 0.0
C1088 C 0.3558 0.06495 0.90679 0.0
C1089 C 0.35595 0.06448 0.9289 0.0
C1090 C 0.35044 0.04614 0.93964 0.0
H1091 H 0.28927 0.02762 0.9603 0.0
H1092 H 0.31369 0.04039 0.96648 0.0
H1093 H 0.30467 0.03952 0.9397 0.0
H1094 H 0.34063 0.01444 0.8975 0.0
H1095 H 0.35068 0.0463 0.87863 0.0
H1096 H 0.31407 0.97889 0.29323 0.0
H1097 H 0.28935 0.95519 0.31032 0.0
H1098 H 0.32434 0.90173 0.28757 0.0
H1099 H 0.34904 0.92553 0.26988 0.0
H1100 H 0.28291 0.89718 0.28065 0.0
H1101 H 0.29483 0.92085 0.36309 0.0
H1102 H 0.29009 0.94368 0.3473 0.0
H1103 H 0.31315 0.92787 0.34257 0.0
C1104 C 0.31666 0.9621 0.29203 0.0
C1105 C 0.33349 0.95403 0.28029 0.0
C1106 C 0.30263 0.94857 0.30197 0.0
C1107 C 0.30531 0.92671 0.30063 0.0
C1108 C 0.32216 0.91856 0.28898 0.0
H1109 H 0.20572 0.86826 0.3747 0.0
H1110 H 0.24129 0.87225 0.36066 0.0
C1111 C 0.33621 0.93214 0.2789 0.0
C1112 C 0.28939 0.91269 0.31012 0.0
H1113 H 0.25984 0.90756 0.35439 0.0
C1114 C 0.27815 0.89901 0.29692 0.0
C1115 C 0.28359 0.91455 0.33148 0.0
C1116 C 0.29625 0.92736 0.34694 0.0
C1117 C 0.26002 0.88869 0.30406 0.0
C1118 C 0.25273 0.89271 0.32469 0.0
C1119 C 0.26513 0.90478 0.33842 0.0
C1120 C 0.23128 0.88687 0.3316 0.0
C1121 C 0.2486 0.87411 0.28922 0.0
C1122 C 0.21381 0.89347 0.31981 0.0
C1123 C 0.19351 0.891 0.32767 0.0
C1124 C 0.19032 0.88236 0.34773 0.0
C1125 C 0.20774 0.87516 0.35927 0.0
C1126 C 0.22805 0.87735 0.35124 0.0
H1127 H 0.25985 0.86609 0.27854 0.0
H1128 H 0.23943 0.862 0.29783 0.0
H1129 H 0.23769 0.8834 0.27927 0.0
H1130 H 0.21588 0.90149 0.30494 0.0
H1131 H 0.18041 0.89679 0.31845 0.0
H1132 H 0.26378 0.07972 0.55456 0.0
H1133 H 0.28361 0.05044 0.56958 0.0
H1134 H 0.33109 0.05782 0.52176 0.0
H1135 H 0.31143 0.0873 0.50672 0.0
H1136 H 0.29291 0.01366 0.54663 0.0
H1137 H 0.36517 0.05249 0.57711 0.0
H1138 H 0.34133 0.06682 0.5714 0.0
H1139 H 0.35824 0.05857 0.55038 0.0
C1140 C 0.2786 0.07531 0.54743 0.0
C1141 C 0.28606 0.08572 0.52945 0.0
C1142 C 0.28988 0.05861 0.55601 0.0
C1143 C 0.30885 0.05213 0.54685 0.0
C1144 C 0.31665 0.06284 0.52924 0.0
H1145 H 0.3602 0.92674 0.56609 0.0
H1146 H 0.34954 0.95991 0.54987 0.0
C1147 C 0.30535 0.07957 0.52062 0.0
C1148 C 0.31945 0.03308 0.55472 0.0
H1149 H 0.36426 0.01524 0.57824 0.0
C1150 C 0.30853 0.01396 0.55351 0.0
C1151 C 0.33977 0.03367 0.56372 0.0
C1152 C 0.35182 0.05399 0.56594 0.0
C1153 C 0.31732 0.99534 0.56121 0.0
C1154 C 0.33773 0.99584 0.57002 0.0
C1155 C 0.34872 0.01495 0.57121 0.0
C1156 C 0.3472 0.97682 0.5793 0.0
C1157 C 0.30444 0.97539 0.56041 0.0
C1158 C 0.35031 0.97573 0.60108 0.0
C1159 C 0.35647 0.95687 0.6104 0.0
C1160 C 0.35958 0.93878 0.59805 0.0
C1161 C 0.35767 0.9403 0.57607 0.0
C1162 C 0.35156 0.95921 0.56677 0.0
H1163 H 0.28757 0.97859 0.55719 0.0
H1164 H 0.31049 0.96512 0.54768 0.0
H1165 H 0.30567 0.96663 0.57546 0.0
H1166 H 0.34709 0.98923 0.61096 0.0
H1167 H 0.35799 0.9563 0.62735 0.0
H1168 H 0.18428 0.01308 0.79494 0.0
H1169 H 0.21182 0.03545 0.80951 0.0
H1170 H 0.18048 0.09042 0.78514 0.0
H1171 H 0.15293 0.06797 0.77002 0.0
H1172 H 0.2225 0.09066 0.77674 0.0
H1173 H 0.20963 0.07305 0.86073 0.0
H1174 H 0.21251 0.04932 0.8458 0.0
H1175 H 0.19056 0.06649 0.84073 0.0
C1176 C 0.18313 0.02994 0.79282 0.0
C1177 C 0.16643 0.03881 0.78144 0.0
C1178 C 0.1988 0.04272 0.80128 0.0
C1179 C 0.19793 0.06461 0.79877 0.0
C1180 C 0.18129 0.07356 0.78739 0.0
H1181 H 0.29587 0.12889 0.87022 0.0
H1182 H 0.26125 0.12233 0.85483 0.0
C1183 C 0.16561 0.06074 0.7788 0.0
C1184 C 0.2151 0.07783 0.80721 0.0
H1185 H 0.24435 0.08543 0.85142 0.0
C1186 C 0.22709 0.08989 0.79315 0.0
C1187 C 0.22075 0.07723 0.82869 0.0
C1188 C 0.20752 0.06601 0.84488 0.0
C1189 C 0.24546 0.10018 0.79978 0.0
C1190 C 0.2522 0.09784 0.82085 0.0
C1191 C 0.23939 0.08699 0.83518 0.0
C1192 C 0.27317 0.1049 0.82814 0.0
C1193 C 0.25756 0.11316 0.78406 0.0
C1194 C 0.29141 0.09765 0.81802 0.0
C1195 C 0.31121 0.10161 0.82664 0.0
C1196 C 0.31307 0.11245 0.8458 0.0
C1197 C 0.29487 0.12032 0.85552 0.0
C1198 C 0.27511 0.11664 0.84673 0.0
H1199 H 0.24689 0.11987 0.77196 0.0
H1200 H 0.26622 0.12622 0.79179 0.0
H1201 H 0.26905 0.10295 0.77582 0.0
H1202 H 0.29031 0.08805 0.804 0.0
H1203 H 0.32495 0.09524 0.81886 0.0
H1204 H 0.19134 0.90023 0.04901 0.0
H1205 H 0.17105 0.92814 0.06591 0.0
H1206 H 0.17074 0.96315 0.00783 0.0
H1207 H 0.19063 0.9351 0.99071 0.0
H1208 H 0.18729 0.9672 0.0701 0.0
H1209 H 0.11101 0.97196 0.02837 0.0
H1210 H 0.12795 0.94924 0.02663 0.0
H1211 H 0.13308 0.97212 0.01081 0.0
C1212 C 0.1865 0.91365 0.03972 0.0
C1213 C 0.19266 0.91561 0.0186 0.0
C1214 C 0.17489 0.92954 0.04938 0.0
C1215 C 0.16923 0.94761 0.03808 0.0
C1216 C 0.17452 0.94913 0.01671 0.0
H1217 H 0.13978 0.07547 0.06377 0.0
H1218 H 0.14573 0.04069 0.0486 0.0
C1219 C 0.18603 0.93317 0.00699 0.0
C1220 C 0.16057 0.96603 0.0493 0.0
H1221 H 0.12125 0.00249 0.04833 0.0
C1222 C 0.17265 0.97471 0.06561 0.0
C1223 C 0.14157 0.97583 0.04326 0.0
C1224 C 0.12755 0.96669 0.02643 0.0
C1225 C 0.1667 0.99343 0.07551 0.0
C1226 C 0.14797 0.00353 0.06913 0.0
C1227 C 0.13559 0.99462 0.05317 0.0
C1228 C 0.14185 0.02407 0.07801 0.0
C1229 C 0.181 0.00275 0.09205 0.0
C1230 C 0.13716 0.02608 0.09945 0.0
C1231 C 0.13392 0.04594 0.10823 0.0
C1232 C 0.13522 0.06407 0.09564 0.0
C1233 C 0.13888 0.06185 0.07394 0.0
C1234 C 0.14217 0.042 0.06521 0.0
H1235 H 0.19678 0.99527 0.09207 0.0
H1236 H 0.183 0.01992 0.08956 0.0
H1237 H 0.1739 0.00038 0.1078 0.0
H1238 H 0.13656 0.01234 0.10948 0.0
H1239 H 0.13086 0.04708 0.12494 0.0
H1240 H 0.19951 0.32425 0.00749 0.0
H1241 H 0.18465 0.2957 0.02843 0.0
H1242 H 0.22406 0.31341 0.08079 0.0
H1243 H 0.2387 0.34235 0.06004 0.0
H1244 H 0.20852 0.26319 0.04369 0.0
H1245 H 0.16689 0.30402 0.10876 0.0
H1246 H 0.17476 0.3173 0.08494 0.0
H1247 H 0.19382 0.31171 0.10501 0.0
C1248 C 0.20472 0.32231 0.02359 0.0
C1249 C 0.22028 0.33545 0.03214 0.0
C1250 C 0.19625 0.306 0.03552 0.0
C1251 C 0.20319 0.30254 0.05617 0.0
C1252 C 0.21823 0.31606 0.06501 0.0
H1253 H 0.18421 0.178 0.11151 0.0
H1254 H 0.20091 0.21126 0.1017 0.0
C1255 C 0.22663 0.3325 0.05311 0.0
C1256 C 0.196 0.28363 0.06758 0.0
H1257 H 0.16891 0.26687 0.11074 0.0
C1258 C 0.19991 0.26397 0.05839 0.0
C1259 C 0.1848 0.28479 0.08673 0.0
C1260 C 0.17963 0.30557 0.09691 0.0
C1261 C 0.1925 0.24539 0.06755 0.0
C1262 C 0.18133 0.24649 0.08674 0.0
C1263 C 0.17771 0.26613 0.09616 0.0
C1264 C 0.1716 0.22757 0.09605 0.0
C1265 C 0.19594 0.22486 0.05611 0.0
C1266 C 0.14965 0.22616 0.0972 0.0
C1267 C 0.14007 0.20731 0.10296 0.0
C1268 C 0.15231 0.18948 0.10759 0.0
C1269 C 0.17434 0.19134 0.10771 0.0
C1270 C 0.18392 0.2103 0.10209 0.0
H1271 H 0.20077 0.22734 0.03951 0.0
H1272 H 0.20858 0.21588 0.0641 0.0
H1273 H 0.18143 0.21513 0.05624 0.0
H1274 H 0.13989 0.23936 0.09268 0.0
H1275 H 0.12306 0.2065 0.10291 0.0
H1276 H 0.69946 0.1845 0.98525 0.0
H1277 H 0.6822 0.20953 0.96199 0.0
H1278 H 0.69592 0.16995 0.90862 0.0
H1279 H 0.71367 0.14483 0.93191 0.0
H1280 H 0.70677 0.21076 0.90178 0.0
H1281 H 0.62587 0.20737 0.93264 0.0
H1282 H 0.64421 0.21136 0.95368 0.0
H1283 H 0.64519 0.18742 0.93852 0.0
C1284 C 0.69859 0.18096 0.9686 0.0
C1285 C 0.70787 0.16272 0.96037 0.0
C1286 C 0.68857 0.1952 0.95535 0.0
C1287 C 0.68742 0.19137 0.93365 0.0
C1288 C 0.69647 0.17305 0.92536 0.0
H1289 H 0.61676 0.29268 0.87393 0.0
H1290 H 0.62873 0.25663 0.87978 0.0
C1291 C 0.70657 0.15876 0.93866 0.0
C1292 C 0.67821 0.20752 0.91973 0.0
H1293 H 0.63619 0.24044 0.91638 0.0
C1294 C 0.69114 0.21698 0.90457 0.0
C1295 C 0.65765 0.21525 0.92297 0.0
C1296 C 0.64237 0.20463 0.93768 0.0
C1297 C 0.68468 0.23513 0.89388 0.0
C1298 C 0.66505 0.24426 0.89895 0.0
C1299 C 0.65143 0.2337 0.91274 0.0
C1300 C 0.65917 0.2657 0.89207 0.0
C1301 C 0.69919 0.24461 0.8777 0.0
C1302 C 0.67243 0.28275 0.89673 0.0
C1303 C 0.66573 0.30333 0.89321 0.0
C1304 C 0.64544 0.30723 0.88543 0.0
C1305 C 0.63242 0.29014 0.88014 0.0
C1306 C 0.63925 0.26955 0.8834 0.0
H1307 H 0.70863 0.23222 0.8698 0.0
H1308 H 0.69036 0.25352 0.86556 0.0
H1309 H 0.71034 0.25546 0.88562 0.0
H1310 H 0.68761 0.28024 0.90403 0.0
H1311 H 0.67608 0.31617 0.89753 0.0
H1312 H 0.09521 0.46731 0.18085 0.0
H1313 H 0.06698 0.45162 0.15972 0.0
H1314 H 0.03092 0.44069 0.21612 0.0
H1315 H 0.05923 0.45562 0.23727 0.0
H1316 H 0.03031 0.40721 0.19047 0.0
H1317 H 0.0118 0.47975 0.14536 0.0
H1318 H 0.03841 0.47065 0.14302 0.0
H1319 H 0.02892 0.47988 0.16798 0.0
C1320 C 0.08127 0.46146 0.18869 0.0
C1321 C 0.07933 0.46272 0.21067 0.0
C1322 C 0.06513 0.45266 0.17661 0.0
C1323 C 0.04672 0.44535 0.18633 0.0
C1324 C 0.04498 0.44629 0.2083 0.0
H1325 H 0.92036 0.42726 0.14906 0.0
H1326 H 0.95518 0.44065 0.15825 0.0
C1327 C 0.06116 0.45483 0.22037 0.0
C1328 C 0.02906 0.43667 0.1739 0.0
H1329 H 0.99142 0.44971 0.13792 0.0
C1330 C 0.02189 0.41641 0.17884 0.0
C1331 C 0.01808 0.44883 0.15886 0.0
C1332 C 0.02453 0.47105 0.15356 0.0
C1333 C 0.00354 0.40824 0.1698 0.0
C1334 C 0.99247 0.42042 0.15481 0.0
C1335 C 6e-05 0.44039 0.14929 0.0
C1336 C 0.97193 0.41352 0.14635 0.0
C1337 C 0.99559 0.38716 0.17733 0.0
C1338 C 0.96989 0.39423 0.13583 0.0
C1339 C 0.94999 0.38637 0.13092 0.0
C1340 C 0.93186 0.39793 0.13601 0.0
C1341 C 0.93404 0.41798 0.14502 0.0
C1342 C 0.95393 0.42566 0.15025 0.0
H1343 H 0.00315 0.38231 0.19232 0.0
H1344 H 0.9783 0.38748 0.17974 0.0
H1345 H -0.0008 0.37501 0.16535 0.0
H1346 H 0.98364 0.38491 0.13212 0.0
H1347 H 0.94876 0.37102 0.12363 0.0
H1348 H 0.74934 0.81881 0.43939 0.0
H1349 H 0.76742 0.79007 0.42139 0.0
H1350 H 0.82728 0.81561 0.44067 0.0
H1351 H 0.80925 0.84401 0.45935 0.0
H1352 H 0.79757 0.78613 0.39057 0.0
H1353 H 0.82741 0.75795 0.46771 0.0
H1354 H 0.80791 0.77837 0.46553 0.0
H1355 H 0.83527 0.78429 0.46138 0.0
C1356 C 0.76636 0.81846 0.43953 0.0
C1357 C 0.77792 0.83339 0.45103 0.0
C1358 C 0.77666 0.80206 0.42922 0.0
C1359 C 0.79864 0.80047 0.43015 0.0
C1360 C 0.81027 0.81629 0.44025 0.0
H1361 H 0.88303 0.69932 0.39583 0.0
H1362 H 0.86813 0.73395 0.40293 0.0
C1363 C 0.79997 0.83253 0.45082 0.0
C1364 C 0.80914 0.7814 0.42207 0.0
H1365 H 0.83849 0.73933 0.43767 0.0
C1366 C 0.80659 0.77592 0.40082 0.0
C1367 C 0.82068 0.768 0.43559 0.0
C1368 C 0.82285 0.77229 0.45886 0.0
C1369 C 0.81542 0.7574 0.39271 0.0
C1370 C 0.82698 0.74415 0.40623 0.0
C1371 C 0.82972 0.74971 0.42737 0.0
C1372 C 0.83585 0.72395 0.39916 0.0
C1373 C 0.81242 0.75209 0.36979 0.0
C1374 C 0.82254 0.70697 0.39458 0.0
C1375 C 0.83096 0.68707 0.39069 0.0
C1376 C 0.85284 0.6839 0.39138 0.0
C1377 C 0.86612 0.70118 0.39525 0.0
C1378 C 0.85767 0.721 0.39925 0.0
H1379 H 0.8067 0.7658 0.36061 0.0
H1380 H 0.82738 0.74643 0.36281 0.0
H1381 H 0.80067 0.73925 0.36835 0.0
H1382 H 0.80562 0.70894 0.39478 0.0
H1383 H 0.82033 0.67411 0.38765 0.0
H1384 H 0.8972 0.03142 0.18174 0.0
H1385 H 0.92318 0.04848 0.15888 0.0
H1386 H 0.96272 0.06038 0.21279 0.0
H1387 H 0.93666 0.04411 0.23565 0.0
H1388 H 0.96026 0.09409 0.18734 0.0
H1389 H 0.97821 0.02222 0.14074 0.0
H1390 H 0.95129 0.03073 0.14032 0.0
H1391 H 0.96268 0.02141 0.16443 0.0
C1392 C 0.91141 0.03779 0.18866 0.0
C1393 C 0.915 0.03639 0.21043 0.0
C1394 C 0.92627 0.04739 0.17559 0.0
C1395 C 0.94501 0.05539 0.18411 0.0
C1396 C 0.94836 0.05431 0.20589 0.0
H1397 H 0.06934 0.07313 0.14601 0.0
H1398 H 0.03418 0.06056 0.15461 0.0
C1399 C 0.93347 0.04498 0.21893 0.0
C1400 C 0.96153 0.06469 0.17065 0.0
H1401 H -0.00168 0.05233 0.13364 0.0
C1402 C 0.96845 0.0851 0.17539 0.0
C1403 C 0.97215 0.05281 0.15514 0.0
C1404 C 0.96587 0.03052 0.1499 0.0
C1405 C 0.98648 0.09355 0.16597 0.0
C1406 C -0.00258 0.08149 0.1508 0.0
C1407 C 0.9898 0.06154 0.1452 0.0
C1408 C 0.01819 0.08815 0.14271 0.0
C1409 C 0.99437 0.11468 0.17347 0.0
C1410 C 0.02081 0.1075 0.13245 0.0
C1411 C 0.04098 0.11492 0.12787 0.0
C1412 C 0.05876 0.10287 0.13307 0.0
C1413 C 0.05596 0.08282 0.1419 0.0
C1414 C 0.03586 0.07559 0.14678 0.0
H1415 H 0.98665 0.11969 0.18831 0.0
H1416 H 0.01162 0.11432 0.17611 0.0
H1417 H 0.99095 0.12673 0.16134 0.0
H1418 H 0.00734 0.11716 0.12863 0.0
H1419 H 0.04266 0.13028 0.12072 0.0
H1420 H 0.3101 0.66218 0.52911 0.0
H1421 H 0.3276 0.69016 0.5489 0.0
H1422 H 0.27228 0.69774 0.58734 0.0
H1423 H 0.25475 0.66961 0.5678 0.0
H1424 H 0.3109 0.73047 0.54868 0.0
H1425 H 0.32055 0.70133 0.6304 0.0
H1426 H 0.31626 0.68396 0.6083 0.0
H1427 H 0.29459 0.698 0.61973 0.0
C1428 C 0.30184 0.66948 0.54209 0.0
C1429 C 0.28103 0.66386 0.54684 0.0
C1430 C 0.31186 0.68541 0.55338 0.0
C1431 C 0.30127 0.69587 0.56965 0.0
C1432 C 0.28085 0.68958 0.5751 0.0
H1433 H 0.31772 0.82425 0.60873 0.0
H1434 H 0.30366 0.78961 0.59971 0.0
C1435 C 0.27082 0.67362 0.56383 0.0
C1436 C 0.31042 0.71512 0.57886 0.0
H1437 H 0.32541 0.73823 0.62499 0.0
C1438 C 0.31424 0.7321 0.56534 0.0
C1439 C 0.31471 0.71713 0.60059 0.0
C1440 C 0.3115 0.69909 0.61561 0.0
C1441 C 0.32191 0.75123 0.57301 0.0
C1442 C 0.32563 0.75346 0.59478 0.0
C1443 C 0.32226 0.73641 0.60832 0.0
C1444 C 0.33335 0.77351 0.60343 0.0
C1445 C 0.32599 0.76899 0.55779 0.0
C1446 C 0.35452 0.77561 0.60909 0.0
C1447 C 0.36266 0.79537 0.61414 0.0
C1448 C 0.34969 0.81328 0.61361 0.0
C1449 C 0.32817 0.81082 0.60911 0.0
C1450 C 0.32009 0.79107 0.60401 0.0
H1451 H 0.32563 0.7636 0.54117 0.0
H1452 H 0.31375 0.78124 0.55983 0.0
H1453 H 0.3415 0.77635 0.561 0.0
H1454 H 0.36494 0.76215 0.60868 0.0
H1455 H 0.37926 0.79669 0.61773 0.0
H1456 H 0.06659 0.54072 0.26119 0.0
H1457 H 0.04039 0.55698 0.28393 0.0
H1458 H 0.07286 0.53342 0.33866 0.0
H1459 H 0.0989 0.51651 0.31585 0.0
H1460 H 0.03187 0.52542 0.3409 0.0
H1461 H 0.04246 0.60881 0.31973 0.0
H1462 H 0.03847 0.59329 0.29654 0.0
H1463 H 0.06139 0.58891 0.31266 0.0
C1464 C 0.06833 0.53924 0.27808 0.0
C1465 C 0.08478 0.5274 0.28678 0.0
C1466 C 0.05343 0.54868 0.29107 0.0
C1467 C 0.05491 0.54677 0.313 0.0
C1468 C 0.07154 0.53522 0.32177 0.0
H1469 H 0.95782 0.6184 0.37841 0.0
H1470 H 0.99257 0.60394 0.3707 0.0
C1471 C 0.08638 0.52561 0.30875 0.0
C1472 C 0.0381 0.55547 0.3265 0.0
H1473 H 0.00816 0.59928 0.33343 0.0
C1474 C 0.02692 0.54168 0.33962 0.0
C1475 C 0.03195 0.57678 0.32525 0.0
C1476 C 0.04439 0.59282 0.31296 0.0
C1477 C 0.00887 0.54832 0.35038 0.0
C1478 C 0.00153 0.5691 0.34741 0.0
C1479 C 0.01356 0.58324 0.33546 0.0
C1480 C 0.98069 0.57613 0.35501 0.0
C1481 C -0.00225 0.5329 0.36456 0.0
C1482 C 0.96246 0.56512 0.3491 0.0
C1483 C 0.9426 0.57319 0.35375 0.0
C1484 C 0.94064 0.59269 0.36393 0.0
C1485 C 0.95888 0.60339 0.37041 0.0
C1486 C 0.97872 0.59515 0.36604 0.0
H1487 H 0.00901 0.52144 0.37138 0.0
H1488 H 0.98943 0.541 0.37759 0.0
H1489 H 0.98608 0.52388 0.35521 0.0
H1490 H 0.96353 0.55075 0.34003 0.0
H1491 H 0.92883 0.56467 0.34842 0.0
H1492 H 0.41696 0.44728 0.77057 0.0
H1493 H 0.44674 0.43197 0.78944 0.0
H1494 H 0.44379 0.48199 0.83519 0.0
H1495 H 0.41377 0.49725 0.81655 0.0
H1496 H 0.4845 0.45341 0.79515 0.0
H1497 H 0.45016 0.42892 0.87167 0.0
H1498 H 0.43424 0.43428 0.84876 0.0
H1499 H 0.44481 0.45558 0.86402 0.0
C1500 C 0.42242 0.45481 0.78485 0.0
C1501 C 0.41312 0.47347 0.79208 0.0
C1502 C 0.43941 0.44607 0.7956 0.0
C1503 C 0.44733 0.45579 0.81376 0.0
C1504 C 0.43766 0.47406 0.8214 0.0
H1505 H 0.57562 0.43452 0.85734 0.0
H1506 H 0.54244 0.45155 0.84789 0.0
C1507 C 0.4206 0.4828 0.81068 0.0
C1508 C 0.46685 0.44782 0.82348 0.0
H1509 H 0.48726 0.42668 0.86838 0.0
C1510 C 0.48513 0.44758 0.81117 0.0
C1511 C 0.46751 0.44023 0.84435 0.0
C1512 C 0.44812 0.43956 0.85797 0.0
C1513 C 0.5041 0.43976 0.8191 0.0
C1514 C 0.50486 0.43236 0.84004 0.0
C1515 C 0.48661 0.43265 0.85242 0.0
C1516 C 0.52417 0.42285 0.84868 0.0
C1517 C 0.52302 0.4389 0.8048 0.0
C1518 C 0.52457 0.40129 0.85312 0.0
C1519 C 0.54342 0.39152 0.85855 0.0
C1520 C 0.5622 0.40318 0.85965 0.0
C1521 C 0.56148 0.42504 0.85639 0.0
C1522 C 0.54258 0.4348 0.85097 0.0
H1523 H 0.51867 0.44122 0.78803 0.0
H1524 H 0.53423 0.45151 0.80929 0.0
H1525 H 0.53124 0.42358 0.80634 0.0
H1526 H 0.51047 0.39185 0.85149 0.0
H1527 H 0.54337 0.3747 0.86118 0.0
H1528 H 0.95189 0.74682 0.68536 0.0
H1529 H 0.93056 0.76399 0.71227 0.0
H1530 H 0.92852 0.8205 0.67483 0.0
H1531 H 0.95019 0.80354 0.648 0.0
H1532 H 0.94405 0.82685 0.71419 0.0
H1533 H 0.86959 0.78195 0.71903 0.0
H1534 H 0.89241 0.76541 0.72 0.0
H1535 H 0.88695 0.78036 0.69661 0.0
C1536 C 0.94648 0.76273 0.68264 0.0
C1537 C 0.95282 0.77393 0.66471 0.0
C1538 C 0.93415 0.77247 0.69795 0.0
C1539 C 0.92778 0.79343 0.69542 0.0
C1540 C 0.93319 0.80426 0.67699 0.0
H1541 H 0.88471 0.88083 0.79261 0.0
H1542 H 0.89174 0.86521 0.75819 0.0
C1543 C 0.94559 0.79457 0.66173 0.0
C1544 C 0.91827 0.80489 0.71323 0.0
H1545 H 0.87851 0.80313 0.74917 0.0
C1546 C 0.9295 0.82194 0.72162 0.0
C1547 C 0.8994 0.79829 0.72293 0.0
C1548 C 0.88627 0.78062 0.71406 0.0
C1549 C 0.9229 0.83201 0.74003 0.0
C1550 C 0.90433 0.82505 0.75007 0.0
C1551 C 0.89273 0.8084 0.74137 0.0
C1552 C 0.89762 0.83402 0.77038 0.0
C1553 C 0.93642 0.84931 0.74914 0.0
C1554 C 0.89783 0.82142 0.78845 0.0
C1555 C 0.89372 0.83023 0.80811 0.0
C1556 C 0.8894 0.85183 0.81 0.0
C1557 C 0.88832 0.86422 0.79172 0.0
C1558 C 0.89232 0.85534 0.77205 0.0
H1559 H 0.95232 0.84971 0.74193 0.0
H1560 H 0.92879 0.86471 0.7462 0.0
H1561 H 0.9382 0.84737 0.7664 0.0
H1562 H 0.90185 0.8049 0.78742 0.0
H1563 H 0.89449 0.82021 0.82186 0.0
H1564 H 0.94249 0.21328 0.41688 0.0
H1565 H 0.93081 0.1892 0.44443 0.0
H1566 H 0.99435 0.1669 0.4522 0.0
H1567 H 0.00625 0.19107 0.42459 0.0
H1568 H 0.93637 0.14294 0.44947 0.0
H1569 H 0.97591 0.19219 0.51044 0.0
H1570 H 0.97065 0.20197 0.48433 0.0
H1571 H 0.99138 0.18332 0.48849 0.0
C1572 C 0.95396 0.20311 0.42429 0.0
C1573 C 0.97531 0.20418 0.41877 0.0
C1574 C 0.94724 0.18931 0.43993 0.0
C1575 C 0.96176 0.17645 0.45036 0.0
C1576 C 0.98297 0.17685 0.44436 0.0
H1577 H 0.93233 0.12085 0.5721 0.0
H1578 H 0.95142 0.12715 0.53937 0.0
C1579 C 0.98972 0.19063 0.42863 0.0
C1580 C 0.95474 0.16402 0.46862 0.0
H1581 H 0.95438 0.16485 0.52217 0.0
C1582 C 0.94052 0.14745 0.4654 0.0
C1583 C 0.96033 0.16994 0.48929 0.0
C1584 C 0.97531 0.18788 0.49352 0.0
C1585 C 0.93116 0.13704 0.48245 0.0
C1586 C 0.9358 0.14381 0.50313 0.0
C1587 C 0.95084 0.15968 0.5063 0.0
C1588 C 0.92386 0.13635 0.52165 0.0
C1589 C 0.91622 0.11913 0.47811 0.0
C1590 C 0.90196 0.13904 0.52244 0.0
C1591 C 0.89099 0.13533 0.54107 0.0
C1592 C 0.90179 0.12925 0.55937 0.0
C1593 C 0.92359 0.12571 0.55831 0.0
C1594 C 0.93451 0.12923 0.53961 0.0
H1595 H 0.92026 0.11103 0.46316 0.0
H1596 H 0.91632 0.10743 0.49105 0.0
H1597 H 0.90004 0.12543 0.47645 0.0
H1598 H 0.89347 0.14506 0.50897 0.0
H1599 H 0.87422 0.13826 0.54138 0.0
H1600 H 0.55018 0.19582 0.14285 0.0
H1601 H 0.57213 0.17726 0.16846 0.0
H1602 H 0.56828 0.23039 0.21046 0.0
H1603 H 0.54672 0.2492 0.18482 0.0
H1604 H 0.60836 0.21006 0.21009 0.0
H1605 H 0.54155 0.15427 0.22059 0.0
H1606 H 0.5519 0.1566 0.19442 0.0
H1607 H 0.53881 0.1786 0.20632 0.0
C1608 C 0.55435 0.20368 0.15739 0.0
C1609 C 0.54651 0.22381 0.16203 0.0
C1610 C 0.56684 0.19305 0.17198 0.0
C1611 C 0.57144 0.20234 0.19145 0.0
C1612 C 0.56482 0.22297 0.19551 0.0
H1613 H 0.60565 0.17834 0.31665 0.0
H1614 H 0.60071 0.19248 0.28139 0.0
C1615 C 0.55245 0.23365 0.18089 0.0
C1616 C 0.58112 0.18998 0.20853 0.0
H1617 H 0.5703 0.15053 0.24315 0.0
C1618 C 0.60024 0.19684 0.21717 0.0
C1619 C 0.57042 0.17275 0.21767 0.0
C1620 C 0.54947 0.16513 0.20944 0.0
C1621 C 0.60865 0.18728 0.23518 0.0
C1622 C 0.59743 0.17072 0.24487 0.0
C1623 C 0.57886 0.16322 0.23562 0.0
C1624 C 0.60327 0.16236 0.26573 0.0
C1625 C 0.62927 0.19521 0.24385 0.0
C1626 C 0.60612 0.14069 0.26863 0.0
C1627 C 0.60867 0.13249 0.28884 0.0
C1628 C 0.60823 0.14584 0.30648 0.0
C1629 C 0.606 0.16761 0.30342 0.0
C1630 C 0.60343 0.17577 0.28324 0.0
H1631 H 0.63904 0.20244 0.23131 0.0
H1632 H 0.62611 0.20747 0.25585 0.0
H1633 H 0.63835 0.18235 0.25138 0.0
H1634 H 0.60584 0.13008 0.2553 0.0
H1635 H 0.61049 0.11566 0.29064 0.0
H1636 H 0.55987 0.78654 0.91723 0.0
H1637 H 0.5734 0.80934 0.94512 0.0
H1638 H 0.51278 0.83919 0.95035 0.0
H1639 H 0.49904 0.81637 0.92244 0.0
H1640 H 0.57302 0.85625 0.95063 0.0
H1641 H 0.52569 0.81091 0.00886 0.0
H1642 H 0.53104 0.80098 0.98282 0.0
H1643 H 0.51214 0.82158 0.98644 0.0
C1644 C 0.54949 0.79814 0.92413 0.0
C1645 C 0.52834 0.79954 0.91788 0.0
C1646 C 0.55726 0.8112 0.93995 0.0
C1647 C 0.54401 0.82577 0.9498 0.0
C1648 C 0.52317 0.82792 0.94294 0.0
H1649 H 0.56978 0.87929 0.07304 0.0
H1650 H 0.55304 0.87399 0.03885 0.0
C1651 C 0.51537 0.81488 0.92705 0.0
C1652 C 0.55158 0.83714 0.96855 0.0
H1653 H 0.54864 0.83644 0.022 0.0
C1654 C 0.56755 0.85219 0.96627 0.0
C1655 C 0.5443 0.83177 0.98882 0.0
C1656 C 0.52744 0.81536 0.99206 0.0
C1657 C 0.57679 0.86175 0.9839 0.0
C1658 C 0.57019 0.85564 0.00424 0.0
C1659 C 0.55365 0.84116 0.0064 0.0
C1660 C 0.58118 0.86251 0.02359 0.0
C1661 C 0.59357 0.87818 0.98056 0.0
C1662 C 0.60268 0.85823 0.02623 0.0
C1663 C 0.61234 0.86142 0.0457 0.0
C1664 C 0.60053 0.86851 0.06297 0.0
C1665 C 0.57923 0.87361 0.06006 0.0
C1666 C 0.56966 0.87067 0.04053 0.0
H1667 H 0.59141 0.88635 0.96527 0.0
H1668 H 0.59355 0.89007 0.99335 0.0
H1669 H 0.60919 0.87043 0.98025 0.0
H1670 H 0.61177 0.85139 0.01358 0.0
H1671 H 0.62876 0.85727 0.04749 0.0
H1672 H 0.95455 0.19393 0.83666 0.0
H1673 H 0.93311 0.18044 0.80766 0.0
H1674 H 0.92331 0.24369 0.78534 0.0
H1675 H 0.94496 0.25732 0.81414 0.0
H1676 H 0.89088 0.18944 0.79242 0.0
H1677 H 0.95444 0.21292 0.737 0.0
H1678 H 0.95837 0.21193 0.76508 0.0
H1679 H 0.94429 0.23348 0.7535 0.0
C1680 C 0.94758 0.20498 0.82575 0.0
C1681 C 0.95165 0.22663 0.82744 0.0
C1682 C 0.93529 0.19726 0.80927 0.0
C1683 C 0.92694 0.21108 0.79428 0.0
C1684 C 0.9299 0.2328 0.79665 0.0
H1685 H 0.88018 0.1823 0.66933 0.0
H1686 H 0.88736 0.20075 0.70224 0.0
C1687 C 0.94223 0.24053 0.81309 0.0
C1688 C 0.91687 0.20259 0.77517 0.0
H1689 H 0.92467 0.19665 0.7225 0.0
C1690 C 0.89812 0.19111 0.77707 0.0
C1691 C 0.92649 0.20479 0.75526 0.0
C1692 C 0.94709 0.21629 0.75249 0.0
C1693 C 0.88871 0.18168 0.75945 0.0
C1694 C 0.89857 0.18354 0.73963 0.0
C1695 C 0.9171 0.19537 0.73773 0.0
C1696 C 0.89086 0.17241 0.72072 0.0
C1697 C 0.86832 0.16987 0.7622 0.0
C1698 C 0.89013 0.15037 0.72032 0.0
C1699 C 0.886 0.13975 0.70153 0.0
C1700 C 0.88283 0.15104 0.6828 0.0
C1701 C 0.88276 0.17314 0.68346 0.0
C1702 C 0.88677 0.18372 0.70225 0.0
H1703 H 0.85968 0.17529 0.77638 0.0
H1704 H 0.85799 0.17174 0.74824 0.0
H1705 H 0.87176 0.15289 0.76421 0.0
H1706 H 0.89373 0.14134 0.73429 0.0
H1707 H 0.88617 0.12272 0.70154 0.0
H1708 H 0.48583 0.20764 0.55872 0.0
H1709 H 0.50083 0.18659 0.53024 0.0
H1710 H 0.56229 0.19211 0.55847 0.0
H1711 H 0.54737 0.21288 0.58716 0.0
H1712 H 0.53105 0.20139 0.50317 0.0
H1713 H 0.55948 0.12968 0.54378 0.0
H1714 H 0.54083 0.14755 0.55556 0.0
H1715 H 0.56843 0.15374 0.55558 0.0
C1716 C 0.50248 0.2041 0.55901 0.0
C1717 C 0.51546 0.21192 0.5751 0.0
C1718 C 0.511 0.19206 0.54277 0.0
C1719 C 0.53259 0.18757 0.54243 0.0
C1720 C 0.54551 0.19499 0.55871 0.0
H1721 H 0.62076 0.14538 0.44922 0.0
H1722 H 0.60301 0.15596 0.48167 0.0
C1723 C 0.53699 0.20699 0.57499 0.0
C1724 C 0.54193 0.17701 0.52397 0.0
H1725 H 0.57206 0.13529 0.50878 0.0
C1726 C 0.5398 0.1868 0.50434 0.0
C1727 C 0.55345 0.15808 0.52565 0.0
C1728 C 0.55555 0.14652 0.54624 0.0
C1729 C 0.54934 0.17846 0.48636 0.0
C1730 C 0.56102 0.15964 0.48805 0.0
C1731 C 0.56304 0.1497 0.50762 0.0
C1732 C 0.57167 0.15051 0.46959 0.0
C1733 C 0.54739 0.19021 0.46582 0.0
C1734 C 0.55987 0.14329 0.45243 0.0
C1735 C 0.5699 0.13735 0.43387 0.0
C1736 C 0.59194 0.13846 0.43223 0.0
C1737 C 0.60377 0.14449 0.44993 0.0
C1738 C 0.59368 0.15049 0.46849 0.0
H1739 H 0.54179 0.20659 0.46816 0.0
H1740 H 0.56271 0.19069 0.45748 0.0
H1741 H 0.5359 0.18198 0.45556 0.0
H1742 H 0.54286 0.14291 0.45318 0.0
H1743 H 0.56034 0.13249 0.42063 0.0
H1744 H 0.5344 0.8012 0.33604 0.0
H1745 H 0.55646 0.81372 0.3072 0.0
H1746 H 0.57244 0.74976 0.29139 0.0
H1747 H 0.55024 0.73702 0.3202 0.0
H1748 H 0.60079 0.80596 0.2962 0.0
H1749 H 0.54271 0.77474 0.23832 0.0
H1750 H 0.53643 0.77796 0.2658 0.0
H1751 H 0.55286 0.7566 0.25749 0.0
C1752 C 0.5428 0.7898 0.32659 0.0
C1753 C 0.54043 0.76813 0.33017 0.0
C1754 C 0.55545 0.79698 0.3102 0.0
C1755 C 0.56584 0.78263 0.29712 0.0
C1756 C 0.56434 0.76102 0.30126 0.0
H1757 H 0.61551 0.81324 0.17322 0.0
H1758 H 0.60828 0.79384 0.20555 0.0
C1759 C 0.5517 0.75381 0.31769 0.0
C1760 C 0.57671 0.79037 0.27818 0.0
H1761 H 0.57104 0.79407 0.22504 0.0
C1762 C 0.5945 0.80319 0.28058 0.0
C1763 C 0.5684 0.78663 0.2579 0.0
C1764 C 0.54898 0.77336 0.25458 0.0
C1765 C 0.60401 0.81278 0.26314 0.0
C1766 C 0.59513 0.80979 0.24296 0.0
C1767 C 0.57781 0.79631 0.24053 0.0
C1768 C 0.60238 0.82161 0.22431 0.0
C1769 C 0.62336 0.8261 0.26653 0.0
C1770 C 0.60163 0.84366 0.22421 0.0
C1771 C 0.60582 0.85481 0.20579 0.0
C1772 C 0.61048 0.84405 0.18706 0.0
C1773 C 0.61178 0.82198 0.18735 0.0
C1774 C 0.60774 0.81087 0.20582 0.0
H1775 H 0.63209 0.8211 0.28081 0.0
H1776 H 0.63411 0.8253 0.2528 0.0
H1777 H 0.61856 0.84271 0.26881 0.0
H1778 H 0.59697 0.85225 0.23816 0.0
H1779 H 0.60464 0.8718 0.20606 0.0
H1780 H 0.94428 0.7651 0.07211 0.0
H1781 H 0.9285 0.78513 0.04334 0.0
H1782 H 0.96465 0.83969 0.06126 0.0
H1783 H 0.9804 0.81982 0.09025 0.0
H1784 H 0.9211 0.84784 0.04886 0.0
H1785 H 0.966 0.79963 0.99156 0.0
H1786 H 0.95052 0.78467 0.00984 0.0
H1787 H 0.97219 0.80021 0.01926 0.0
C1788 C 0.94865 0.78144 0.07011 0.0
C1789 C 0.96373 0.79085 0.08324 0.0
C1790 C 0.93966 0.79283 0.05367 0.0
C1791 C 0.9457 0.81373 0.05007 0.0
C1792 C 0.95989 0.82353 0.06381 0.0
H1793 H 0.92855 0.87057 0.92739 0.0
H1794 H 0.94326 0.86141 0.96167 0.0
C1795 C 0.96888 0.81215 0.0803 0.0
C1796 C 0.93833 0.82478 0.03107 0.0
H1797 H 0.93997 0.82231 0.9776 0.0
C1798 C 0.92528 0.84241 0.03325 0.0
C1799 C 0.94423 0.81784 0.01081 0.0
C1800 C 0.95917 0.79967 0.00763 0.0
C1801 C 0.91732 0.85288 0.01552 0.0
C1802 C 0.92242 0.84528 0.99525 0.0
C1803 C 0.93602 0.82806 0.99317 0.0
C1804 C 0.9132 0.85416 0.97586 0.0
C1805 C 0.90362 0.87197 0.01864 0.0
C1806 C 0.89139 0.8535 0.97263 0.0
C1807 C 0.88292 0.8588 0.95309 0.0
C1808 C 0.89617 0.86453 0.93635 0.0
C1809 C 0.91794 0.86603 0.93991 0.0
C1810 C 0.92637 0.86087 0.95949 0.0
H1811 H 0.90656 0.87947 0.03415 0.0
H1812 H 0.9063 0.88379 0.00608 0.0
H1813 H 0.88687 0.86712 0.01811 0.0
H1814 H 0.88098 0.84792 0.98489 0.0
H1815 H 0.86608 0.85746 0.95086 0.0
H1816 H 0.67502 0.95083 0.73926 0.0
H1817 H 0.70288 0.92638 0.7499 0.0
H1818 H 0.69196 0.94218 0.81494 0.0
H1819 H 0.66428 0.96659 0.80449 0.0
H1820 H 0.73847 0.94108 0.77267 0.0
H1821 H 0.69755 0.87733 0.81558 0.0
H1822 H 0.68438 0.89417 0.79684 0.0
H1823 H 0.6892 0.9032 0.82322 0.0
C1824 C 0.67834 0.94878 0.75584 0.0
C1825 C 0.66763 0.96067 0.77106 0.0
C1826 C 0.69417 0.9348 0.76187 0.0
C1827 C 0.6992 0.93228 0.78319 0.0
C1828 C 0.68798 0.94357 0.79843 0.0
H1829 H 0.79316 0.89835 0.86854 0.0
H1830 H 0.76079 0.90519 0.84906 0.0
C1831 C 0.67232 0.95766 0.79242 0.0
C1832 C 0.71792 0.9202 0.78956 0.0
H1833 H 0.73428 0.88217 0.82359 0.0
C1834 C 0.73764 0.92786 0.78341 0.0
C1835 C 0.71664 0.90308 0.80363 0.0
C1836 C 0.69579 0.89381 0.81007 0.0
C1837 C 0.75619 0.91984 0.79215 0.0
C1838 C 0.75491 0.9033 0.80699 0.0
C1839 C 0.7352 0.89485 0.81223 0.0
C1840 C 0.77361 0.89623 0.81883 0.0
C1841 C 0.77683 0.93017 0.7865 0.0
C1842 C 0.79128 0.88823 0.80838 0.0
C1843 C 0.80991 0.88465 0.81941 0.0
C1844 C 0.81101 0.88865 0.84114 0.0
C1845 C 0.79284 0.89524 0.8518 0.0
C1846 C 0.77431 0.89909 0.8407 0.0
H1847 H 0.77452 0.94545 0.77835 0.0
H1848 H 0.78653 0.93294 0.80076 0.0
H1849 H 0.78575 0.9197 0.77578 0.0
H1850 H 0.79087 0.88542 0.79159 0.0
H1851 H 0.82359 0.87919 0.81086 0.0
H1852 H 0.7958 0.89327 0.54729 0.0
H1853 H 0.8169 0.91971 0.56583 0.0
H1854 H 0.80903 0.96252 0.51388 0.0
H1855 H 0.78809 0.93622 0.49519 0.0
H1856 H 0.85116 0.96125 0.53279 0.0
H1857 H 0.78604 0.97212 0.59041 0.0
H1858 H 0.79588 0.94587 0.58679 0.0
H1859 H 0.78222 0.95869 0.5657 0.0
C1860 C 0.79883 0.90821 0.53971 0.0
C1861 C 0.79013 0.91281 0.51991 0.0
C1862 C 0.81083 0.92326 0.55032 0.0
C1863 C 0.81425 0.94307 0.54128 0.0
C1864 C 0.80651 0.94729 0.52108 0.0
H1865 H 0.85293 0.06769 0.56455 0.0
H1866 H 0.84615 0.03268 0.55051 0.0
C1867 C 0.7945 0.93229 0.51047 0.0
C1868 C 0.82433 0.96012 0.55337 0.0
H1869 H 0.81477 0.99496 0.59296 0.0
C1870 C 0.8434 0.96849 0.54613 0.0
C1871 C 0.81414 0.96939 0.5708 0.0
C1872 C 0.79337 0.96122 0.5789 0.0
C1873 C 0.8523 0.98635 0.55556 0.0
C1874 C 0.84154 0.99628 0.57229 0.0
C1875 C 0.82297 0.98731 0.58012 0.0
C1876 C 0.84802 0.017 0.58066 0.0
C1877 C 0.87299 0.99454 0.54735 0.0
C1878 C 0.85101 0.01986 0.60233 0.0
C1879 C 0.85458 0.03995 0.61048 0.0
C1880 C 0.8551 0.05753 0.59708 0.0
C1881 C 0.85264 0.0545 0.57531 0.0
C1882 C 0.84899 0.03444 0.56722 0.0
H1883 H 0.88246 0.98172 0.54021 0.0
H1884 H 0.86993 0.0064 0.53493 0.0
H1885 H 0.88236 0.00209 0.56002 0.0
H1886 H 0.85016 0.0066 0.61298 0.0
H1887 H 0.85653 0.04174 0.62731 0.0
H1888 H 0.82048 0.05793 0.24102 0.0
H1889 H 0.7917 0.07975 0.25432 0.0
H1890 H 0.81026 0.06555 0.31799 0.0
H1891 H 0.83909 0.04389 0.30487 0.0
H1892 H 0.76034 0.06171 0.27888 0.0
H1893 H 0.79719 0.1287 0.3208 0.0
H1894 H 0.81104 0.11324 0.3014 0.0
H1895 H 0.80807 0.10363 0.32782 0.0
C1896 C 0.81869 0.05984 0.25785 0.0
C1897 C 0.83188 0.04912 0.27193 0.0
C1898 C 0.80231 0.07233 0.2654 0.0
C1899 C 0.79905 0.07444 0.28711 0.0
C1900 C 0.8128 0.0645 0.30119 0.0
H1901 H 0.70049 0.10307 0.37284 0.0
H1902 H 0.73412 0.09694 0.35517 0.0
C1903 C 0.82913 0.05197 0.29366 0.0
C1904 C 0.77965 0.08433 0.29508 0.0
H1905 H 0.76119 0.12113 0.32947 0.0
C1906 C 0.76045 0.07496 0.28963 0.0
C1907 C 0.77998 0.10144 0.30925 0.0
C1908 C 0.80017 0.11248 0.31504 0.0
C1909 C 0.74157 0.08161 0.29872 0.0
C1910 C 0.7419 0.09846 0.31326 0.0
C1911 C 0.76104 0.10825 0.31829 0.0
C1912 C 0.72259 0.10517 0.32422 0.0
C1913 C 0.72161 0.06983 0.29346 0.0
C1914 C 0.70529 0.11255 0.31275 0.0
C1915 C 0.68604 0.11576 0.32271 0.0
C1916 C 0.6839 0.11195 0.34438 0.0
C1917 C 0.70165 0.10599 0.3561 0.0
C1918 C 0.72087 0.10255 0.34606 0.0
H1919 H 0.72488 0.0544 0.28594 0.0
H1920 H 0.71203 0.06708 0.30779 0.0
H1921 H 0.7121 0.07929 0.28231 0.0
H1922 H 0.70648 0.1151 0.29596 0.0
H1923 H 0.67271 0.12075 0.31335 0.0
H1924 H 0.69467 0.06472 0.00103 0.0
H1925 H 0.67394 0.03865 0.02006 0.0
H1926 H 0.67359 0.07869 0.07485 0.0
H1927 H 0.69463 0.10478 0.05596 0.0
H1928 H 0.68947 0.03965 0.08245 0.0
H1929 H 0.6137 0.0323 0.04042 0.0
H1930 H 0.6357 0.03113 0.02283 0.0
H1931 H 0.63073 0.05486 0.03744 0.0
C1932 C 0.68975 0.0682 0.01696 0.0
C1933 C 0.69639 0.08667 0.02709 0.0
C1934 C 0.67774 0.05337 0.02776 0.0
C1935 C 0.67202 0.05687 0.04878 0.0
C1936 C 0.67772 0.0758 0.05858 0.0
H1937 H 0.63633 0.95524 0.13564 0.0
H1938 H 0.64085 0.99092 0.12193 0.0
C1939 C 0.68976 0.09064 0.04779 0.0
C1940 C 0.66304 0.03947 0.06126 0.0
H1941 H 0.62465 0.00201 0.06072 0.0
C1942 C 0.67502 0.03168 0.07806 0.0
C1943 C 0.64425 0.02914 0.0554 0.0
C1944 C 0.63025 0.03742 0.03816 0.0
C1945 C 0.66949 0.01299 0.08828 0.0
C1946 C 0.65125 0.00207 0.08172 0.0
C1947 C 0.63865 0.01043 0.06565 0.0
C1948 C 0.64629 0.98092 0.08987 0.0
C1949 C 0.68393 0.0044 0.10506 0.0
C1950 C 0.64715 0.96363 0.07622 0.0
C1951 C 0.64448 0.9433 0.08393 0.0
C1952 C 0.64095 0.9399 0.10548 0.0
C1953 C 0.63935 0.95733 0.11902 0.0
C1954 C 0.64192 0.9777 0.11124 0.0
H1955 H 0.69927 0.01276 0.10549 0.0
H1956 H 0.67637 0.00624 0.12067 0.0
H1957 H 0.68692 0.98739 0.10249 0.0
H1958 H 0.6505 0.96584 0.05966 0.0
H1959 H 0.64563 0.93025 0.07304 0.0
H1960 H 0.64195 0.06044 0.70094 0.0
H1961 H 0.66734 0.08204 0.68162 0.0
H1962 H 0.71258 0.07365 0.73145 0.0
H1963 H 0.6873 0.05224 0.75093 0.0
H1964 H 0.71116 0.1158 0.71244 0.0
H1965 H 0.71783 0.05013 0.65468 0.0
H1966 H 0.69202 0.06059 0.65947 0.0
H1967 H 0.70551 0.04671 0.67999 0.0
C1968 C 0.65718 0.06353 0.70794 0.0
C1969 C 0.66279 0.05445 0.7273 0.0
C1970 C 0.67163 0.07583 0.69689 0.0
C1971 C 0.69185 0.07915 0.70503 0.0
C1972 C 0.69701 0.07122 0.72494 0.0
H1973 H 0.81631 0.11213 0.67834 0.0
H1974 H 0.78118 0.10829 0.69293 0.0
C1975 C 0.6826 0.05893 0.736 0.0
C1976 C 0.70845 0.08888 0.69207 0.0
H1977 H 0.7414 0.07807 0.65124 0.0
C1978 C 0.71761 0.10778 0.69885 0.0
C1979 C 0.71669 0.07837 0.67431 0.0
C1980 C 0.70767 0.05776 0.66665 0.0
C1981 C 0.73534 0.1161 0.6887 0.0
C1982 C 0.74433 0.10492 0.6717 0.0
C1983 C 0.73446 0.08662 0.66427 0.0
C1984 C 0.76519 0.11033 0.66293 0.0
C1985 C 0.74446 0.13656 0.69651 0.0
C1986 C 0.76794 0.11255 0.64115 0.0
C1987 C 0.78812 0.1144 0.63267 0.0
C1988 C 0.80589 0.11394 0.64585 0.0
C1989 C 0.80299 0.11251 0.66772 0.0
C1990 C 0.78286 0.11057 0.67614 0.0
H1991 H 0.7321 0.14663 0.70363 0.0
H1992 H 0.75631 0.13323 0.70888 0.0
H1993 H 0.75223 0.14544 0.68364 0.0
H1994 H 0.75451 0.11223 0.63067 0.0
H1995 H 0.78981 0.11561 0.61577 0.0
H1996 H 0.71059 0.91194 0.4379 0.0
H1997 H 0.68849 0.94107 0.42609 0.0
H1998 H 0.66444 0.94863 0.489 0.0
H1999 H 0.68654 0.91945 0.50102 0.0
H2000 H 0.6419 0.94987 0.43103 0.0
H2001 H 0.69618 0.00492 0.47264 0.0
H2002 H 0.70365 0.97825 0.46649 0.0
H2003 H 0.68532 0.9833 0.4873 0.0
C2004 C 0.70034 0.91957 0.44916 0.0
C2005 C 0.70043 0.91362 0.47042 0.0
C2006 C 0.68769 0.93613 0.44237 0.0
C2007 C 0.67504 0.94701 0.45675 0.0
C2008 C 0.67423 0.94042 0.47775 0.0
H2009 H 0.62807 0.07346 0.43171 0.0
H2010 H 0.63365 0.0399 0.44958 0.0
C2011 C 0.68683 0.92378 0.48456 0.0
C2012 C 0.66449 0.96649 0.45003 0.0
H2013 H 0.67008 0.01975 0.45145 0.0
C2014 C 0.6478 0.9652 0.43568 0.0
C2015 C 0.67224 0.98636 0.45626 0.0
C2016 C 0.6904 0.98848 0.47144 0.0
C2017 C 0.63896 0.9834 0.42691 0.0
C2018 C 0.64749 0.00325 0.43228 0.0
C2019 C 0.66357 0.00451 0.44735 0.0
C2020 C 0.64143 0.02278 0.42121 0.0
C2021 C 0.62073 0.98115 0.41189 0.0
C2022 C 0.64388 0.02425 0.39934 0.0
C2023 C 0.64061 0.04335 0.38908 0.0
C2024 C 0.63522 0.06143 0.40057 0.0
C2025 C 0.63238 0.05984 0.42244 0.0
C2026 C 0.63546 0.04067 0.43266 0.0
H2027 H 0.61148 0.96672 0.41528 0.0
H2028 H 0.61008 0.99496 0.41266 0.0
H2029 H 0.62685 0.97978 0.39561 0.0
H2030 H 0.64908 0.01082 0.39026 0.0
H2031 H 0.64299 0.04406 0.37223 0.0
H2032 H 0.84154 0.95929 0.19768 0.0
H2033 H 0.81272 0.93707 0.18517 0.0
H2034 H 0.79152 0.92845 0.24899 0.0
H2035 H 0.82007 0.95104 0.26161 0.0
H2036 H 0.79856 0.8956 0.19409 0.0
H2037 H 0.74167 0.95696 0.21959 0.0
H2038 H 0.7696 0.96171 0.21844 0.0
H2039 H 0.75858 0.94701 0.2399 0.0
C2040 C 0.83091 0.95244 0.20907 0.0
C2041 C 0.83282 0.95713 0.23058 0.0
C2042 C 0.81451 0.9397 0.20191 0.0
C2043 C 0.79984 0.93145 0.21614 0.0
C2044 C 0.80251 0.935 0.23775 0.0
H2045 H 0.67573 0.88089 0.18896 0.0
H2046 H 0.70883 0.88819 0.20704 0.0
C2047 C 0.81883 0.94785 0.24492 0.0
C2048 C 0.7808 0.92077 0.20813 0.0
H2049 H 0.72773 0.92678 0.20361 0.0
C2050 C 0.78302 0.90227 0.19629 0.0
C2051 C 0.76061 0.92963 0.21098 0.0
C2052 C 0.75738 0.95001 0.22276 0.0
C2053 C 0.76551 0.89244 0.18707 0.0
C2054 C 0.74541 0.90157 0.18958 0.0
C2055 C 0.74317 0.91976 0.20185 0.0
C2056 C 0.72657 0.89357 0.17854 0.0
C2057 C 0.76865 0.87245 0.17471 0.0
C2058 C 0.7257 0.8938 0.1565 0.0
C2059 C 0.7068 0.88966 0.14608 0.0
C2060 C 0.68839 0.88545 0.15758 0.0
C2061 C 0.68957 0.88426 0.17963 0.0
C2062 C 0.70848 0.88835 0.19001 0.0
H2063 H 0.78329 0.86423 0.17951 0.0
H2064 H 0.75514 0.86158 0.17673 0.0
H2065 H 0.77001 0.87636 0.15776 0.0
H2066 H 0.73937 0.89823 0.14737 0.0
H2067 H 0.70645 0.89068 0.12909 0.0
H2068 H 0.79414 0.10319 0.94725 0.0
H2069 H 0.81611 0.07679 0.92984 0.0
H2070 H 0.80721 0.03471 0.98224 0.0
H2071 H 0.78554 0.06107 -0.00012 0.0
H2072 H 0.84899 0.03487 0.96513 0.0
H2073 H 0.78664 0.02486 0.90432 0.0
H2074 H 0.79685 0.05101 0.90765 0.0
H2075 H 0.78212 0.03898 0.9285 0.0
C2076 C 0.79712 0.08842 0.95518 0.0
C2077 C 0.78793 0.08403 0.97478 0.0
C2078 C 0.80962 0.07338 0.94521 0.0
C2079 C 0.81295 0.05374 0.95465 0.0
C2080 C 0.80475 0.04979 0.97471 0.0
H2081 H 0.85143 0.92887 0.92987 0.0
H2082 H 0.84409 0.96335 0.94497 0.0
C2083 C 0.79233 0.06482 0.98472 0.0
C2084 C 0.82338 0.03659 0.94303 0.0
H2085 H 0.81579 0.00253 0.90231 0.0
C2086 C 0.84192 0.02791 0.95124 0.0
C2087 C 0.81404 0.02762 0.92493 0.0
C2088 C 0.79374 0.03593 0.91584 0.0
C2089 C 0.85117 0.01013 0.94204 0.0
C2090 C 0.84135 0.00068 0.92446 0.0
C2091 C 0.82328 0.00987 0.91578 0.0
C2092 C 0.84835 0.98031 0.91578 0.0
C2093 C 0.87122 0.00154 0.95132 0.0
C2094 C 0.85297 0.97839 0.89431 0.0
C2095 C 0.8569 0.95866 0.88555 0.0
C2096 C 0.85614 0.94048 0.89811 0.0
C2097 C 0.85212 0.94255 0.91975 0.0
C2098 C 0.84813 0.96228 0.92847 0.0
H2099 H 0.88018 0.01396 0.95975 0.0
H2100 H 0.86729 0.98905 0.96285 0.0
H2101 H 0.88144 0.9946 0.93899 0.0
H2102 H 0.85305 0.99213 0.88424 0.0
H2103 H 0.86009 0.95763 0.86885 0.0
H2104 H 0.77022 0.65541 0.929 0.0
H2105 H 0.78714 0.68163 0.90638 0.0
H2106 H 0.81207 0.71281 0.96134 0.0
H2107 H 0.79605 0.68623 0.9838 0.0
H2108 H 0.78083 0.7218 0.90336 0.0
H2109 H 0.86356 0.7108 0.92616 0.0
H2110 H 0.84338 0.69222 0.9334 0.0
H2111 H 0.84818 0.71526 0.94929 0.0
C2112 C 0.77955 0.66774 0.93617 0.0
C2113 C 0.78198 0.66876 0.9581 0.0
C2114 C 0.7892 0.68268 0.92326 0.0
C2115 C 0.8013 0.69891 0.93212 0.0
C2116 C 0.80348 0.70002 0.95407 0.0
H2117 H 0.81785 0.82482 0.89793 0.0
H2118 H 0.80478 0.7896 0.9052 0.0
C2119 C 0.79414 0.68493 0.96692 0.0
C2120 C 0.81043 0.71563 0.91874 0.0
H2121 H 0.85441 0.7457 0.91326 0.0
C2122 C 0.79705 0.72676 0.90517 0.0
C2123 C 0.83174 0.72174 0.9205 0.0
C2124 C 0.84755 0.70917 0.93295 0.0
C2125 C 0.80401 0.74482 0.89462 0.0
C2126 C 0.82462 0.75234 0.89841 0.0
C2127 C 0.83845 0.74026 0.91065 0.0
C2128 C 0.83159 0.77353 0.89164 0.0
C2129 C 0.78907 0.75574 0.87979 0.0
C2130 C 0.85125 0.77635 0.882 0.0
C2131 C 0.85905 0.79657 0.87841 0.0
C2132 C 0.84722 0.81429 0.88419 0.0
C2133 C 0.82722 0.81145 0.8931 0.0
C2134 C 0.81963 0.79128 0.89707 0.0
H2135 H 0.77841 0.74421 0.87209 0.0
H2136 H 0.77909 0.76683 0.88882 0.0
H2137 H 0.79757 0.76461 0.8674 0.0
H2138 H 0.86081 0.76291 0.87777 0.0
H2139 H 0.87448 0.79834 0.87141 0.0
H2140 H 0.29237 0.83888 0.03297 0.0
H2141 H 0.30538 0.80951 0.05412 0.0
H2142 H 0.24166 0.78947 0.06584 0.0
H2143 H 0.22849 0.81866 0.0445 0.0
H2144 H 0.29674 0.79594 0.09687 0.0
H2145 H 0.27005 0.73913 0.03566 0.0
H2146 H 0.27186 0.76701 0.03074 0.0
H2147 H 0.25042 0.75667 0.0459 0.0
C2148 C 0.28113 0.82835 0.04024 0.0
C2149 C 0.25944 0.83086 0.0369 0.0
C2150 C 0.28858 0.81166 0.05236 0.0
C2151 C 0.27446 0.79726 0.06126 0.0
C2152 C 0.25277 0.80032 0.05883 0.0
H2153 H 0.30594 0.67298 0.10948 0.0
H2154 H 0.28623 0.70517 0.1024 0.0
C2155 C 0.2453 0.81698 0.04668 0.0
C2156 C 0.2826 0.77823 0.07168 0.0
H2157 H 0.28771 0.72533 0.06488 0.0
C2158 C 0.29463 0.78044 0.09005 0.0
C2159 C 0.27973 0.7581 0.06268 0.0
C2160 C 0.26745 0.75496 0.04258 0.0
C2161 C 0.30421 0.76298 0.09951 0.0
C2162 C 0.30196 0.74297 0.09007 0.0
C2163 C 0.28934 0.7407 0.07211 0.0
C2164 C 0.31384 0.72441 0.09736 0.0
C2165 C 0.31672 0.76613 0.11943 0.0
C2166 C 0.33589 0.72465 0.09706 0.0
C2167 C 0.34721 0.70632 0.1011 0.0
C2168 C 0.33665 0.68734 0.10523 0.0
C2169 C 0.31455 0.6873 0.1062 0.0
C2170 C 0.30326 0.70568 0.10223 0.0
H2171 H 0.31129 0.78024 0.12819 0.0
H2172 H 0.31557 0.75221 0.1299 0.0
H2173 H 0.3335 0.76857 0.11533 0.0
H2174 H 0.34436 0.73881 0.09283 0.0
H2175 H 0.36421 0.70689 0.10024 0.0
H2176 H 0.89173 0.52511 0.81738 0.0
H2177 H 0.91607 0.5439 0.84072 0.0
H2178 H 0.95491 0.55965 0.7874 0.0
H2179 H 0.93056 0.5414 0.76407 0.0
H2180 H 0.95666 0.53491 0.84794 0.0
H2181 H 0.95132 0.61556 0.81684 0.0
H2182 H 0.93211 0.59559 0.81054 0.0
H2183 H 0.95626 0.59745 0.79583 0.0
C2184 C 0.90532 0.53286 0.81065 0.0
C2185 C 0.90926 0.53186 0.78892 0.0
C2186 C 0.91916 0.54358 0.82398 0.0
C2187 C 0.93706 0.55351 0.81574 0.0
C2188 C 0.94087 0.55263 0.79402 0.0
H2189 H 0.06095 0.56803 0.85356 0.0
H2190 H 0.02538 0.55595 0.84633 0.0
C2191 C 0.92704 0.54203 0.78072 0.0
C2192 C 0.95286 0.56327 0.82976 0.0
H2193 H 0.98458 0.60628 0.83348 0.0
C2194 C 0.96247 0.55071 0.84515 0.0
C2195 C 0.96007 0.58405 0.82658 0.0
C2196 C 0.9492 0.59899 0.81171 0.0
C2197 C 0.98027 0.55776 0.8561 0.0
C2198 C 0.98894 0.57762 0.85108 0.0
C2199 C 0.97821 0.59087 0.83707 0.0
C2200 C 0.01019 0.58404 0.85817 0.0
C2201 C 0.98989 0.54361 0.87252 0.0
C2202 C 0.01358 0.60399 0.86698 0.0
C2203 C 0.03402 0.61116 0.87073 0.0
C2204 C 0.05141 0.59846 0.86573 0.0
C2205 C 0.04792 0.57817 0.85768 0.0
C2206 C 0.02753 0.57114 0.85374 0.0
H2207 H 0.97763 0.53388 0.8803 0.0
H2208 H 0.00111 0.5327 0.86483 0.0
H2209 H -0.00159 0.55274 0.88473 0.0
H2210 H 0.00043 0.61426 0.87041 0.0
H2211 H 0.0362 0.62682 0.87708 0.0
H2212 H 0.26131 0.18529 0.55041 0.0
H2213 H 0.25005 0.21502 0.5722 0.0
H2214 H 0.18519 0.19858 0.56102 0.0
H2215 H 0.19626 0.16893 0.53925 0.0
H2216 H 0.22447 0.24769 0.55563 0.0
H2217 H 0.1875 0.21031 0.62504 0.0
H2218 H 0.20605 0.19674 0.60833 0.0
H2219 H 0.17902 0.19931 0.60042 0.0
C2220 C 0.24465 0.18781 0.55292 0.0
C2221 C 0.22963 0.17488 0.5431 0.0
C2222 C 0.23828 0.20475 0.56537 0.0
C2223 C 0.21682 0.20877 0.56841 0.0
C2224 C 0.20183 0.19545 0.5592 0.0
H2225 H 0.12891 0.30099 0.60146 0.0
H2226 H 0.14959 0.26957 0.59425 0.0
C2227 C 0.20817 0.17864 0.54664 0.0
C2228 C 0.2099 0.22817 0.57909 0.0
H2229 H 0.17757 0.24606 0.6179 0.0
C2230 C 0.21458 0.24747 0.56952 0.0
C2231 C 0.197 0.22768 0.59714 0.0
C2232 C 0.19223 0.20741 0.60848 0.0
C2233 C 0.20552 0.26622 0.57669 0.0
C2234 C 0.19184 0.26563 0.59421 0.0
C2235 C 0.18805 0.24644 0.60445 0.0
C2236 C 0.1796 0.28429 0.60069 0.0
C2237 C 0.20962 0.28624 0.5646 0.0
C2238 C 0.18962 0.30284 0.60721 0.0
C2239 C 0.17785 0.32097 0.61112 0.0
C2240 C 0.15584 0.32071 0.6088 0.0
C2241 C 0.14583 0.30178 0.60327 0.0
C2242 C 0.15761 0.28377 0.59921 0.0
H2243 H 0.21707 0.28316 0.54911 0.0
H2244 H 0.19476 0.29501 0.56194 0.0
H2245 H 0.22037 0.29645 0.57382 0.0
H2246 H 0.20656 0.30341 0.60888 0.0
H2247 H 0.186 0.33523 0.61566 0.0
H2248 H 0.07146 0.01161 0.80948 0.0
H2249 H 0.0428 -0.00032 0.83222 0.0
H2250 H 0.06026 0.9352 0.82055 0.0
H2251 H 0.08897 0.94697 0.79798 0.0
H2252 H 0.01109 0.9752 0.81512 0.0
H2253 H 0.0466 0.93476 0.88351 0.0
H2254 H 0.061 0.95331 0.8675 0.0
H2255 H 0.05764 0.92657 0.85886 0.0
C2256 C 0.0695 0.99491 0.81219 0.0
C2257 C 0.08229 0.98019 0.80184 0.0
C2258 C 0.05318 0.98814 0.82522 0.0
C2259 C 0.04958 0.96659 0.82823 0.0
C2260 C 0.06306 0.95191 0.8188 0.0
H2261 H 0.95252 0.88031 0.85541 0.0
H2262 H 0.98561 0.89923 0.85043 0.0
C2263 C 0.07933 0.95866 0.80574 0.0
C2264 C 0.02996 0.9593 0.83827 0.0
H2265 H 0.01075 0.92551 0.87521 0.0
C2266 C 0.01093 0.9647 0.82855 0.0
C2267 C 0.02992 0.94549 0.85565 0.0
C2268 C 0.04988 0.93983 0.86712 0.0
C2269 C 0.9919 0.95569 0.83496 0.0
C2270 C 0.9919 0.94131 0.85192 0.0
C2271 C 0.01084 0.93656 0.86222 0.0
C2272 C 0.97263 0.92978 0.8579 0.0
C2273 C 0.9722 0.96071 0.82266 0.0
C2274 C 0.9546 0.94063 0.86443 0.0
C2275 C 0.93561 0.92993 0.86696 0.0
C2276 C 0.93446 0.90814 0.86334 0.0
C2277 C 0.95288 0.89711 0.85817 0.0
C2278 C 0.97181 0.90788 0.8554 0.0
H2279 H 0.97577 0.96835 0.80737 0.0
H2280 H 0.9629 0.94625 0.81957 0.0
H2281 H 0.96228 0.97167 0.83192 0.0
H2282 H 0.95506 0.95748 0.86689 0.0
H2283 H 0.92174 0.93879 0.87134 0.0
H2284 H 0.68492 0.33763 0.46357 0.0
H2285 H 0.6702 0.30948 0.44176 0.0
H2286 H 0.73255 0.2928 0.42105 0.0
H2287 H 0.74743 0.32072 0.44299 0.0
H2288 H 0.67418 0.29862 0.39707 0.0
H2289 H 0.70922 0.23989 0.45164 0.0
H2290 H 0.70694 0.26738 0.4583 0.0
H2291 H 0.72724 0.25871 0.44071 0.0
C2292 C 0.69546 0.32813 0.45416 0.0
C2293 C 0.71733 0.33113 0.45517 0.0
C2294 C 0.68703 0.31215 0.44167 0.0
C2295 C 0.70035 0.29898 0.43006 0.0
C2296 C 0.72208 0.3027 0.43013 0.0
H2297 H 0.6768 0.17695 0.37482 0.0
H2298 H 0.69264 0.21096 0.38297 0.0
C2299 C 0.73053 0.31862 0.44265 0.0
C2300 C 0.69169 0.28025 0.41946 0.0
H2301 H 0.69079 0.22678 0.42245 0.0
C2302 C 0.67784 0.28287 0.40248 0.0
C2303 C 0.6965 0.25982 0.42671 0.0
C2304 C 0.71065 0.25616 0.44544 0.0
C2305 C 0.66872 0.26544 0.39242 0.0
C2306 C 0.67337 0.24502 0.39985 0.0
C2307 C 0.68739 0.24247 0.41669 0.0
C2308 C 0.66325 0.22592 0.39126 0.0
C2309 C 0.65436 0.26901 0.37389 0.0
C2310 C 0.6414 0.22323 0.39277 0.0
C2311 C 0.63226 0.20381 0.38803 0.0
C2312 C 0.64491 0.18671 0.38205 0.0
C2313 C 0.66666 0.18977 0.37961 0.0
C2314 C 0.67574 0.2092 0.38417 0.0
H2315 H 0.65739 0.28447 0.36634 0.0
H2316 H 0.65622 0.25642 0.36192 0.0
H2317 H 0.6378 0.26889 0.37937 0.0
H2318 H 0.63153 0.23579 0.39865 0.0
H2319 H 0.61546 0.20193 0.3901 0.0
H2320 H 0.89076 0.46148 0.68334 0.0
H2321 H 0.91525 0.44196 0.66084 0.0
H2322 H 0.9585 0.43655 0.71287 0.0
H2323 H 0.93402 0.45546 0.73543 0.0
H2324 H 0.95424 0.45292 0.64955 0.0
H2325 H 0.9581 0.37718 0.69131 0.0
H2326 H 0.93768 0.39622 0.69641 0.0
H2327 H 0.96283 0.39829 0.70937 0.0
C2328 C 0.90539 0.45585 0.69 0.0
C2329 C 0.91049 0.4599 0.71113 0.0
C2330 C 0.91932 0.44471 0.67716 0.0
C2331 C 0.93848 0.43742 0.68531 0.0
C2332 C 0.94352 0.44144 0.70642 0.0
H2333 H 0.06058 0.42853 0.64205 0.0
H2334 H 0.02442 0.43829 0.64958 0.0
C2335 C 0.92959 0.45243 0.71925 0.0
C2336 C 0.95417 0.42715 0.67157 0.0
H2337 H 0.98938 0.38684 0.67133 0.0
C2338 C 0.96161 0.4382 0.65399 0.0
C2339 C 0.9634 0.40767 0.67695 0.0
C2340 C 0.95488 0.39407 0.69441 0.0
C2341 C 0.97928 0.43122 0.64283 0.0
C2342 C 0.99002 0.41306 0.64982 0.0
C2343 C 0.98141 0.40101 0.66618 0.0
C2344 C 0.01137 0.40766 0.6423 0.0
C2345 C 0.98658 0.44372 0.62405 0.0
C2346 C 0.01617 0.3871 0.63591 0.0
C2347 C 0.03699 0.38132 0.63197 0.0
C2348 C 0.05336 0.39603 0.63441 0.0
C2349 C 0.04837 0.41682 0.63998 0.0
C2350 C 0.02762 0.42251 0.64407 0.0
H2351 H 0.97305 0.4512 0.61592 0.0
H2352 H 0.99719 0.4565 0.62942 0.0
H2353 H 0.99517 0.43373 0.6126 0.0
H2354 H 0.00389 0.37536 0.63458 0.0
H2355 H 0.04031 0.36521 0.62757 0.0
H2356 H 0.58605 0.52198 0.17978 0.0
H2357 H 0.55806 0.53907 0.15964 0.0
H2358 H 0.54696 0.5817 0.21122 0.0
H2359 H 0.57467 0.56454 0.23155 0.0
H2360 H 0.51165 0.55997 0.19822 0.0
H2361 H 0.55244 0.5964 0.13017 0.0
H2362 H 0.55869 0.5692 0.13458 0.0
H2363 H 0.56609 0.58854 0.15382 0.0
C2364 C 0.57788 0.53523 0.18667 0.0
C2365 C 0.5824 0.54186 0.20727 0.0
C2366 C 0.56202 0.54506 0.17509 0.0
C2367 C 0.55063 0.56176 0.18389 0.0
C2368 C 0.55568 0.5689 0.20415 0.0
H2369 H 0.4497 0.63856 0.13564 0.0
H2370 H 0.48413 0.62537 0.1466 0.0
C2371 C 0.57146 0.55905 0.21574 0.0
C2372 C 0.53189 0.57018 0.17309 0.0
H2373 H 0.51499 0.59517 0.12868 0.0
C2374 C 0.51239 0.56775 0.18306 0.0
C2375 C 0.53299 0.58035 0.15336 0.0
C2376 C 0.55369 0.58398 0.14239 0.0
C2377 C 0.49387 0.57507 0.17377 0.0
C2378 C 0.49486 0.58475 0.1538 0.0
C2379 C 0.51436 0.58748 0.14388 0.0
C2380 C 0.47564 0.59259 0.1435 0.0
C2381 C 0.47339 0.57261 0.18553 0.0
C2382 C 0.45988 0.57845 0.13735 0.0
C2383 C 0.44019 0.58587 0.13124 0.0
C2384 C 0.436 0.60758 0.13111 0.0
C2385 C 0.45238 0.62174 0.13574 0.0
C2386 C 0.47207 0.61427 0.14194 0.0
H2387 H 0.47595 0.56896 0.20242 0.0
H2388 H 0.46379 0.58715 0.18436 0.0
H2389 H 0.46423 0.55952 0.17848 0.0
H2390 H 0.46252 0.56165 0.13824 0.0
H2391 H 0.42801 0.57457 0.12745 0.0
H2392 H 0.5558 0.75231 0.82206 0.0
H2393 H 0.57545 0.73406 0.79456 0.0
H2394 H 0.55959 0.67439 0.82264 0.0
H2395 H 0.53921 0.69254 0.84978 0.0
H2396 H 0.60832 0.70644 0.79302 0.0
H2397 H 0.53473 0.66877 0.76445 0.0
H2398 H 0.5347 0.68935 0.78394 0.0
H2399 H 0.54105 0.66279 0.79128 0.0
C2400 C 0.55669 0.73531 0.8225 0.0
C2401 C 0.54573 0.72379 0.83781 0.0
C2402 C 0.56796 0.72492 0.80682 0.0
C2403 C 0.56857 0.70288 0.80632 0.0
C2404 C 0.55884 0.6914 0.82246 0.0
H2405 H 0.61058 0.61873 0.70744 0.0
H2406 H 0.60295 0.63337 0.74209 0.0
C2407 C 0.5473 0.70177 0.83798 0.0
C2408 C 0.57803 0.69204 0.78807 0.0
H2409 H 0.56598 0.65984 0.74686 0.0
C2410 C 0.59913 0.69615 0.78297 0.0
C2411 C 0.56589 0.6788 0.77489 0.0
C2412 C 0.54279 0.67479 0.77875 0.0
C2413 C 0.60839 0.68737 0.76497 0.0
C2414 C 0.59619 0.67424 0.75186 0.0
C2415 C 0.57527 0.66981 0.75714 0.0
C2416 C 0.60424 0.66575 0.73186 0.0
C2417 C 0.63106 0.6922 0.76001 0.0
C2418 C 0.60775 0.67921 0.71477 0.0
C2419 C 0.61194 0.67092 0.69486 0.0
C2420 C 0.6126 0.64903 0.69179 0.0
C2421 C 0.61007 0.63566 0.70922 0.0
C2422 C 0.60578 0.64396 0.72906 0.0
H2423 H 0.6395 0.6988 0.77382 0.0
H2424 H 0.63936 0.67782 0.75461 0.0
H2425 H 0.63172 0.70392 0.7471 0.0
H2426 H 0.60629 0.69608 0.71662 0.0
H2427 H 0.61392 0.68165 0.68179 0.0
H2428 H 0.54105 0.26219 0.06399 0.0
H2429 H 0.55708 0.28419 0.03708 0.0
H2430 H 0.53893 0.33987 0.07132 0.0
H2431 H 0.52229 0.31781 0.09825 0.0
H2432 H 0.52942 0.34291 0.02996 0.0
H2433 H 0.61156 0.3165 0.03846 0.0
H2434 H 0.59439 0.29437 0.03518 0.0
H2435 H 0.59177 0.31096 0.05803 0.0
C2436 C 0.54065 0.27911 0.06594 0.0
C2437 C 0.53051 0.28831 0.08324 0.0
C2438 C 0.54995 0.29167 0.05061 0.0
C2439 C 0.54959 0.31365 0.05244 0.0
C2440 C 0.53954 0.32292 0.06975 0.0
H2441 H 0.62288 0.37282 0.95283 0.0
H2442 H 0.60878 0.36687 0.98808 0.0
C2443 C 0.53009 0.31033 0.08509 0.0
C2444 C 0.55865 0.32669 0.03548 0.0
H2445 H 0.60199 0.33056 0.00435 0.0
C2446 C 0.54543 0.34058 0.02458 0.0
C2447 C 0.57968 0.32407 0.02881 0.0
C2448 C 0.59521 0.31084 0.04091 0.0
C2449 C 0.55225 0.35074 0.00623 0.0
C2450 C 0.57258 0.34637 -0.00165 0.0
C2451 C 0.58627 0.33368 0.01015 0.0
C2452 C 0.57952 0.3532 0.9772 0.0
C2453 C 0.53747 0.36576 0.99538 0.0
C2454 C 0.56761 0.34787 0.95936 0.0
C2455 C 0.5755 0.35155 0.93921 0.0
C2456 C 0.59569 0.3601 0.9366 0.0
C2457 C 0.60734 0.36601 0.95443 0.0
C2458 C 0.59928 0.36268 0.97455 0.0
H2459 H 0.52687 0.3735 0.0069 0.0
H2460 H 0.54615 0.37811 0.98659 0.0
H2461 H 0.52746 0.35689 0.98416 0.0
H2462 H 0.55262 0.33995 0.96095 0.0
H2463 H 0.56625 0.34671 0.92574 0.0
H2464 H 0.97338 0.31152 0.33712 0.0
H2465 H 0.95319 0.3283 0.30904 0.0
H2466 H 0.91227 0.27425 0.30589 0.0
H2467 H 0.93222 0.25747 0.33417 0.0
H2468 H 0.95092 0.30978 0.26966 0.0
H2469 H 0.87102 0.32391 0.30182 0.0
H2470 H 0.89369 0.31952 0.3184 0.0
H2471 H 0.88081 0.29772 0.30582 0.0
C2472 C 0.95981 0.30341 0.33075 0.0
C2473 C 0.95443 0.28315 0.33769 0.0
C2474 C 0.94829 0.31302 0.31477 0.0
C2475 C 0.93117 0.30257 0.30554 0.0
C2476 C 0.92518 0.28274 0.31309 0.0
H2477 H 0.88707 0.31499 0.17836 0.0
H2478 H 0.89709 0.30212 0.21315 0.0
C2479 C 0.93668 0.27312 0.32913 0.0
C2480 C 0.92146 0.31115 0.2863 0.0
H2481 H 0.875 0.32702 0.26457 0.0
C2482 C 0.93435 0.3137 0.2686 0.0
C2483 C 0.89986 0.31623 0.28503 0.0
C2484 C 0.88553 0.3144 0.30382 0.0
C2485 C 0.92616 0.32089 0.24951 0.0
C2486 C 0.90448 0.32541 0.24806 0.0
C2487 C 0.89158 0.32328 0.2658 0.0
C2488 C 0.89527 0.33261 0.2281 0.0
C2489 C 0.94072 0.32362 0.23097 0.0
C2490 C 0.89034 0.35387 0.22532 0.0
C2491 C 0.88473 0.36134 0.20546 0.0
C2492 C 0.88394 0.34759 0.18812 0.0
C2493 C 0.88772 0.32604 0.19132 0.0
C2494 C 0.89338 0.31862 0.21117 0.0
H2495 H 0.95754 0.32283 0.23566 0.0
H2496 H 0.93767 0.31097 0.21934 0.0
H2497 H 0.93781 0.33892 0.22311 0.0
H2498 H 0.89176 0.36484 0.23829 0.0
H2499 H 0.88173 0.37799 0.20357 0.0
H2500 H 0.9718 0.68131 0.60363 0.0
H2501 H 0.95505 0.65807 0.57771 0.0
H2502 H 0.94502 0.71119 0.53673 0.0
H2503 H 0.96105 0.73442 0.56265 0.0
H2504 H 0.91064 0.68617 0.53939 0.0
H2505 H 0.98224 0.6385 0.52333 0.0
H2506 H 0.9733 0.63894 0.55012 0.0
H2507 H 0.98314 0.66261 0.53826 0.0
C2508 C 0.96591 0.68797 0.58911 0.0
C2509 C 0.96776 0.70962 0.58508 0.0
C2510 C 0.95648 0.67469 0.5743 0.0
C2511 C 0.94909 0.68288 0.55519 0.0
C2512 C 0.95064 0.70455 0.55138 0.0
H2513 H 0.93277 0.64421 0.43099 0.0
H2514 H 0.94505 0.65259 0.46635 0.0
C2515 C 0.95982 0.7178 0.5662 0.0
C2516 C 0.93988 0.66921 0.53877 0.0
H2517 H 0.9525 0.6317 0.50255 0.0
C2518 C 0.91964 0.67403 0.53148 0.0
C2519 C 0.95177 0.65347 0.52853 0.0
C2520 C 0.97388 0.6481 0.53529 0.0
C2521 C 0.9114 0.66449 0.51341 0.0
C2522 C 0.9235 0.64912 0.5028 0.0
C2523 C 0.94327 0.64341 0.51081 0.0
C2524 C 0.91713 0.64093 0.48197 0.0
C2525 C 0.89048 0.67207 0.5051 0.0
C2526 C 0.89772 0.63083 0.47909 0.0
C2527 C 0.89047 0.62641 0.45883 0.0
C2528 C 0.90276 0.63158 0.44121 0.0
C2529 C 0.9229 0.64014 0.44425 0.0
C2530 C 0.92996 0.64489 0.46447 0.0
H2531 H 0.88546 0.687 0.51264 0.0
H2532 H 0.89118 0.6746 0.48784 0.0
H2533 H 0.87826 0.66005 0.50835 0.0
H2534 H 0.88785 0.6271 0.49244 0.0
H2535 H 0.87504 0.61943 0.45693 0.0
H2536 H 0.55752 0.28049 0.64751 0.0
H2537 H 0.57921 0.29657 0.67509 0.0
H2538 H 0.52472 0.30115 0.7152 0.0
H2539 H 0.50295 0.28567 0.68764 0.0
H2540 H 0.54795 0.33723 0.7147 0.0
H2541 H 0.59897 0.2676 0.7287 0.0
H2542 H 0.59856 0.27736 0.7022 0.0
H2543 H 0.57515 0.26615 0.71333 0.0
C2544 C 0.55021 0.28498 0.66222 0.0
C2545 C 0.52859 0.2818 0.6655 0.0
C2546 C 0.56262 0.29403 0.67797 0.0
C2547 C 0.5536 0.29975 0.69727 0.0
C2548 C 0.53197 0.2968 0.70041 0.0
H2549 H 0.59553 0.31753 0.82182 0.0
H2550 H 0.5851 0.30467 0.7872 0.0
C2551 C 0.51956 0.28794 0.68467 0.0
C2552 C 0.56642 0.30891 0.71438 0.0
H2553 H 0.60513 0.29744 0.74974 0.0
C2554 C 0.56061 0.32866 0.72226 0.0
C2555 C 0.58282 0.29755 0.7242 0.0
C2556 C 0.58921 0.27592 0.71684 0.0
C2557 C 0.57016 0.33706 0.74025 0.0
C2558 C 0.58641 0.32562 0.75024 0.0
C2559 C 0.59277 0.3062 0.74191 0.0
C2560 C 0.59537 0.33252 0.77056 0.0
C2561 C 0.56193 0.35754 0.74902 0.0
C2562 C 0.60529 0.35213 0.77254 0.0
C2563 C 0.611 0.35967 0.79237 0.0
C2564 C 0.60718 0.34755 0.81046 0.0
C2565 C 0.59856 0.32732 0.80822 0.0
C2566 C 0.59264 0.31991 0.78843 0.0
H2567 H 0.54648 0.36187 0.7421 0.0
H2568 H 0.56018 0.35663 0.76636 0.0
H2569 H 0.57322 0.37033 0.74537 0.0
H2570 H 0.60801 0.36186 0.75885 0.0
H2571 H 0.61795 0.37518 0.79356 0.0
H2572 H 0.9684 0.31351 0.89885 0.0
H2573 H 0.95137 0.33344 0.92712 0.0
H2574 H 0.93867 0.27556 0.96016 0.0
H2575 H 0.9549 0.25562 0.93175 0.0
H2576 H 0.90552 0.30138 0.96107 0.0
H2577 H 0.97791 0.34505 0.98363 0.0
H2578 H 0.96953 0.34876 0.95693 0.0
H2579 H 0.9783 0.32329 0.96544 0.0
C2580 C 0.96183 0.30509 0.91211 0.0
C2581 C 0.96304 0.28305 0.91321 0.0
C2582 C 0.95226 0.31648 0.92829 0.0
C2583 C 0.94413 0.30599 0.94592 0.0
C2584 C 0.94489 0.28396 0.94672 0.0
H2585 H 0.92409 0.3397 0.07322 0.0
H2586 H 0.93753 0.33047 0.03845 0.0
C2587 C 0.95418 0.27259 0.93049 0.0
C2588 C 0.93505 0.31768 0.96385 0.0
H2589 H 0.9474 0.35183 0.0034 0.0
C2590 C 0.91459 0.31255 0.97026 0.0
C2591 C 0.94704 0.33212 0.97584 0.0
C2592 C 0.96947 0.33755 0.97028 0.0
C2593 C 0.90603 0.32078 0.9888 0.0
C2594 C 0.91804 0.33516 0.00085 0.0
C2595 C 0.93822 0.34091 0.99403 0.0
C2596 C 0.9107 0.34286 0.02154 0.0
C2597 C 0.8847 0.31306 0.99584 0.0
C2598 C 0.89149 0.35349 0.02349 0.0
C2599 C 0.88359 0.35841 0.04336 0.0
C2600 C 0.89504 0.35322 0.06155 0.0
C2601 C 0.91489 0.34381 0.05948 0.0
C2602 C 0.9226 0.33857 0.03963 0.0
H2603 H 0.88001 0.29837 0.98759 0.0
H2604 H 0.8845 0.31003 0.01303 0.0
H2605 H 0.87272 0.32521 0.99228 0.0
H2606 H 0.88236 0.35751 0.00969 0.0
H2607 H 0.86841 0.36602 0.04451 0.0
H2608 H 0.93282 0.72726 0.15451 0.0
H2609 H 0.91261 0.71008 0.18253 0.0
H2610 H 0.96994 0.69937 0.21722 0.0
H2611 H 0.99017 0.71589 0.18921 0.0
H2612 H 0.94483 0.66473 0.21581 0.0
H2613 H 0.89915 0.73533 0.23988 0.0
H2614 H 0.89674 0.72773 0.21277 0.0
H2615 H 0.92158 0.73693 0.22262 0.0
C2616 C 0.94106 0.72118 0.16812 0.0
C2617 C 0.96303 0.72293 0.16975 0.0
C2618 C 0.9295 0.71151 0.18414 0.0
C2619 C 0.93977 0.70374 0.20205 0.0
C2620 C 0.96172 0.70529 0.20352 0.0
H2621 H 0.90765 0.67808 0.32832 0.0
H2622 H 0.91597 0.69322 0.29401 0.0
C2623 C 0.97325 0.71475 0.18752 0.0
C2624 C 0.928 0.69383 0.21945 0.0
H2625 H 0.8935 0.70427 0.25916 0.0
C2626 C 0.93343 0.67326 0.22519 0.0
C2627 C 0.91325 0.70514 0.23165 0.0
C2628 C 0.90739 0.72756 0.22659 0.0
C2629 C 0.92523 0.66394 0.24336 0.0
C2630 C 0.91065 0.67531 0.25573 0.0
C2631 C 0.90458 0.6956 0.24954 0.0
C2632 C 0.90317 0.66717 0.27616 0.0
C2633 C 0.93318 0.64249 0.24971 0.0
C2634 C 0.89259 0.64786 0.27744 0.0
C2635 C 0.88817 0.63901 0.29701 0.0
C2636 C 0.89387 0.64956 0.3156 0.0
C2637 C 0.90318 0.66954 0.31427 0.0
C2638 C 0.90789 0.67823 0.29469 0.0
H2639 H 0.94779 0.63815 0.24118 0.0
H2640 H 0.93642 0.64186 0.26686 0.0
H2641 H 0.92106 0.6305 0.24598 0.0
H2642 H 0.88831 0.63935 0.26331 0.0
H2643 H 0.8806 0.62375 0.29759 0.0
H2644 H 0.49875 0.6847 0.41774 0.0
H2645 H 0.51236 0.66533 0.4482 0.0
H2646 H 0.56365 0.70941 0.45348 0.0
H2647 H 0.55024 0.72883 0.42316 0.0
H2648 H 0.55614 0.64798 0.45659 0.0
H2649 H 0.5293 0.7111 0.51077 0.0
H2650 H 0.51894 0.70799 0.48449 0.0
H2651 H 0.54428 0.71982 0.48844 0.0
C2652 C 0.51307 0.69009 0.42525 0.0
C2653 C 0.52336 0.70836 0.41822 0.0
C2654 C 0.52081 0.67901 0.44258 0.0
C2655 C 0.53883 0.68614 0.4531 0.0
C2656 C 0.54959 0.70383 0.44559 0.0
H2657 H 0.62171 0.64024 0.54777 0.0
H2658 H 0.604 0.64908 0.5149 0.0
C2659 C 0.54193 0.71487 0.42828 0.0
C2660 C 0.54584 0.67592 0.47267 0.0
H2661 H 0.55176 0.68507 0.52513 0.0
C2662 C 0.55504 0.65592 0.47164 0.0
C2663 C 0.54402 0.68627 0.49223 0.0
C2664 C 0.53345 0.70742 0.49421 0.0
C2665 C 0.56331 0.64634 0.48973 0.0
C2666 C 0.56245 0.6572 0.50912 0.0
C2667 C 0.55247 0.67682 0.51021 0.0
C2668 C 0.57275 0.64919 0.52834 0.0
C2669 C 0.57297 0.62476 0.48791 0.0
C2670 C 0.56104 0.64639 0.54681 0.0
C2671 C 0.57112 0.64154 0.56569 0.0
C2672 C 0.59314 0.63956 0.56645 0.0
C2673 C 0.60474 0.64167 0.54775 0.0
C2674 C 0.59463 0.64654 0.52889 0.0
H2675 H 0.5669 0.61618 0.47395 0.0
H2676 H 0.59025 0.62637 0.48614 0.0
H2677 H 0.56981 0.61523 0.50219 0.0
H2678 H 0.54413 0.6485 0.5467 0.0
H2679 H 0.5617 0.6399 0.57977 0.0
H2680 H 0.84953 0.54364 0.69346 0.0
H2681 H 0.82327 0.56599 0.67636 0.0
H2682 H 0.78683 0.56693 0.73354 0.0
H2683 H 0.81308 0.54492 0.75078 0.0
H2684 H 0.78285 0.55278 0.67089 0.0
H2685 H 0.78316 0.62787 0.71481 0.0
H2686 H 0.80463 0.60933 0.71614 0.0
H2687 H 0.78145 0.60551 0.73191 0.0
C2688 C 0.83615 0.54901 0.7025 0.0
C2689 C 0.83326 0.54247 0.7234 0.0
C2690 C 0.8212 0.56179 0.69274 0.0
C2691 C 0.80326 0.56832 0.70376 0.0
C2692 C 0.80081 0.5625 0.72489 0.0
H2693 H 0.6773 0.60462 0.68303 0.0
H2694 H 0.71252 0.59702 0.69632 0.0
C2695 C 0.81573 0.54975 0.73466 0.0
C2696 C 0.78572 0.57866 0.69256 0.0
H2697 H 0.75142 0.61977 0.6955 0.0
C2698 C 0.77623 0.56766 0.67594 0.0
C2699 C 0.7771 0.598 0.6993 0.0
C2700 C 0.78725 0.61096 0.71639 0.0
C2701 C 0.75762 0.57487 0.66665 0.0
C2702 C 0.74852 0.59379 0.67396 0.0
C2703 C 0.75846 0.60525 0.69 0.0
C2704 C 0.72784 0.60092 0.66621 0.0
C2705 C 0.74723 0.56157 0.64991 0.0
C2706 C 0.72496 0.6062 0.64501 0.0
C2707 C 0.70483 0.61037 0.63731 0.0
C2708 C 0.68729 0.60947 0.65074 0.0
C2709 C 0.69043 0.60527 0.67222 0.0
C2710 C 0.71055 0.60102 0.67987 0.0
H2711 H 0.75409 0.54553 0.64904 0.0
H2712 H 0.73009 0.56011 0.6529 0.0
H2713 H 0.74936 0.56919 0.63437 0.0
H2714 H 0.73821 0.60654 0.63432 0.0
H2715 H 0.70299 0.61385 0.62074 0.0
H2716 H 0.7328 0.57751 0.94173 0.0
H2717 H 0.71275 0.54787 0.92768 0.0
H2718 H 0.66909 0.55265 0.97931 0.0
H2719 H 0.68904 0.58248 0.99346 0.0
H2720 H 0.70668 0.51039 0.95191 0.0
H2721 H 0.6313 0.54635 0.92574 0.0
H2722 H 0.65507 0.56154 0.92926 0.0
H2723 H 0.64033 0.55302 0.95174 0.0
C2724 C 0.71874 0.57248 0.94992 0.0
C2725 C 0.71251 0.58222 0.96873 0.0
C2726 C 0.70732 0.55558 0.94187 0.0
C2727 C 0.68943 0.54822 0.95242 0.0
C2728 C 0.68271 0.55834 0.97082 0.0
H2729 H 0.64109 0.42128 0.93396 0.0
H2730 H 0.65126 0.45466 0.95017 0.0
C2731 C 0.69416 0.57528 0.97891 0.0
C2732 C 0.6791 0.52877 0.94513 0.0
H2733 H 0.63411 0.50933 0.9232 0.0
C2734 C 0.69078 0.5101 0.94571 0.0
C2735 C 0.65841 0.52861 0.93705 0.0
C2736 C 0.6455 0.54844 0.93572 0.0
C2737 C 0.68241 0.49121 0.93815 0.0
C2738 C 0.6617 0.49098 0.93007 0.0
C2739 C 0.64991 0.50962 0.92962 0.0
C2740 C 0.6527 0.47171 0.9208 0.0
C2741 C 0.69601 0.47176 0.93825 0.0
C2742 C 0.64941 0.47059 0.89905 0.0
C2743 C 0.6436 0.45159 0.88971 0.0
C2744 C 0.64101 0.43341 0.90203 0.0
C2745 C 0.64323 0.43492 0.924 0.0
C2746 C 0.64902 0.45395 0.9333 0.0
H2747 H 0.71281 0.47553 0.94127 0.0
H2748 H 0.69054 0.46097 0.95082 0.0
H2749 H 0.69481 0.4633 0.92302 0.0
H2750 H 0.65215 0.48421 0.88919 0.0
H2751 H 0.64182 0.45103 0.87278 0.0
H2752 H 0.68223 0.4913 0.20014 0.0
H2753 H 0.70808 0.46777 0.18452 0.0
H2754 H 0.67391 0.41411 0.20813 0.0
H2755 H 0.6482 0.43774 0.22444 0.0
H2756 H 0.71477 0.4106 0.21626 0.0
H2757 H 0.70524 0.43191 0.1328 0.0
H2758 H 0.70979 0.45504 0.14824 0.0
H2759 H 0.68641 0.43957 0.15259 0.0
C2760 C 0.68007 0.47449 0.2018 0.0
C2761 C 0.66319 0.46633 0.21343 0.0
C2762 C 0.69477 0.46104 0.19272 0.0
C2763 C 0.69267 0.43917 0.19476 0.0
C2764 C 0.6757 0.43094 0.20621 0.0
H2765 H 0.78902 0.37158 0.12393 0.0
H2766 H 0.75423 0.38011 0.13788 0.0
C2767 C 0.66105 0.44443 0.21549 0.0
C2768 C 0.70914 0.42517 0.18617 0.0
H2769 H 0.7392 0.41749 0.14256 0.0
C2770 C 0.71987 0.41176 0.20003 0.0
C2771 C 0.71545 0.42623 0.16489 0.0
C2772 C 0.70343 0.43879 0.14875 0.0
C2773 C 0.73769 0.40055 0.19351 0.0
C2774 C 0.74528 0.40336 0.17279 0.0
C2775 C 0.73364 0.41558 0.15856 0.0
C2776 C 0.76605 0.39536 0.16595 0.0
C2777 C 0.74831 0.38607 0.20899 0.0
C2778 C 0.78424 0.40082 0.17724 0.0
C2779 C 0.8041 0.39571 0.16947 0.0
C2780 C 0.80614 0.38552 0.14998 0.0
C2781 C 0.78792 0.37958 0.13894 0.0
C2782 C 0.76805 0.3844 0.1469 0.0
H2783 H 0.73675 0.37943 0.22028 0.0
H2784 H 0.75646 0.3729 0.20095 0.0
H2785 H 0.76004 0.39513 0.21823 0.0
H2786 H 0.78318 0.40985 0.19164 0.0
H2787 H 0.81785 0.40064 0.17825 0.0
H2788 H 0.78823 0.43377 0.49988 0.0
H2789 H 0.80974 0.46067 0.48277 0.0
H2790 H 0.80898 0.42478 0.42519 0.0
H2791 H 0.78709 0.39799 0.44207 0.0
H2792 H 0.84894 0.45947 0.46187 0.0
H2793 H 0.78324 0.48136 0.40832 0.0
H2794 H 0.77947 0.46475 0.43098 0.0
H2795 H 0.79102 0.45423 0.40745 0.0
C2796 C 0.79278 0.43154 0.48362 0.0
C2797 C 0.78578 0.41396 0.4722 0.0
C2798 C 0.80511 0.44686 0.47391 0.0
C2799 C 0.81063 0.44482 0.45266 0.0
C2800 C 0.80453 0.42678 0.4415 0.0
H2801 H 0.86218 0.54134 0.37031 0.0
H2802 H 0.85262 0.5069 0.38439 0.0
C2803 C 0.79209 0.4115 0.45117 0.0
C2804 C 0.82166 0.46222 0.44197 0.0
H2805 H 0.81481 0.50016 0.40475 0.0
C2806 C 0.84159 0.46829 0.44926 0.0
C2807 C 0.81195 0.47366 0.42556 0.0
C2808 C 0.79018 0.46835 0.41768 0.0
C2809 C 0.85201 0.48575 0.4407 0.0
C2810 C 0.84205 0.49748 0.42468 0.0
C2811 C 0.82241 0.49102 0.41698 0.0
C2812 C 0.85081 0.51743 0.41668 0.0
C2813 C 0.8735 0.49155 0.44892 0.0
C2814 C 0.85315 0.53466 0.43025 0.0
C2815 C 0.85856 0.55437 0.42229 0.0
C2816 C 0.86151 0.55722 0.40056 0.0
C2817 C 0.85991 0.53972 0.38711 0.0
C2818 C 0.8545 0.52002 0.39511 0.0
H2819 H 0.88146 0.47783 0.45623 0.0
H2820 H 0.88364 0.49783 0.43618 0.0
H2821 H 0.87183 0.5039 0.46114 0.0
H2822 H 0.84993 0.53308 0.4469 0.0
H2823 H 0.85971 0.5675 0.43309 0.0
H2824 H 0.80857 0.45309 0.74861 0.0
H2825 H 0.78225 0.43088 0.76563 0.0
H2826 H 0.82415 0.42119 0.8181 0.0
H2827 H 0.85049 0.44377 0.80133 0.0
H2828 H 0.78224 0.38902 0.78151 0.0
H2829 H 0.77223 0.44934 0.84428 0.0
H2830 H 0.78655 0.45461 0.8204 0.0
H2831 H 0.79834 0.43916 0.84088 0.0
C2832 C 0.81229 0.44604 0.76366 0.0
C2833 C 0.83143 0.45038 0.77381 0.0
C2834 C 0.79728 0.4333 0.77331 0.0
C2835 C 0.80118 0.4247 0.79322 0.0
C2836 C 0.82076 0.428 0.80287 0.0
H2837 H 0.70375 0.37662 0.87678 0.0
H2838 H 0.73862 0.3826 0.86184 0.0
C2839 C 0.83577 0.44084 0.79326 0.0
C2840 C 0.78401 0.41387 0.80447 0.0
H2841 H 0.74976 0.42023 0.84517 0.0
C2842 C 0.77526 0.39565 0.79559 0.0
C2843 C 0.77501 0.42261 0.82282 0.0
C2844 C 0.78335 0.44258 0.83264 0.0
C2845 C 0.75734 0.3862 0.80432 0.0
C2846 C 0.74784 0.39547 0.82214 0.0
C2847 C 0.75714 0.41315 0.83152 0.0
C2848 C 0.72726 0.38844 0.83031 0.0
C2849 C 0.7486 0.36656 0.79426 0.0
C2850 C 0.70936 0.38948 0.81744 0.0
C2851 C 0.6894 0.38609 0.82591 0.0
C2852 C 0.687 0.38187 0.84747 0.0
C2853 C 0.70504 0.38001 0.86014 0.0
C2854 C 0.72499 0.38333 0.85164 0.0
H2855 H 0.76102 0.35776 0.7857 0.0
H2856 H 0.74139 0.35601 0.80614 0.0
H2857 H 0.73632 0.37102 0.78269 0.0
H2858 H 0.71071 0.39389 0.80106 0.0
H2859 H 0.67584 0.38762 0.81571 0.0
H2860 H 0.81642 0.58368 0.00114 0.0
H2861 H 0.83609 0.55296 0.01373 0.0
H2862 H 0.78973 0.54304 0.06214 0.0
H2863 H 0.77001 0.57358 0.04976 0.0
H2864 H 0.85129 0.54182 0.05808 0.0
H2865 H 0.79148 0.48842 0.0232 0.0
H2866 H 0.79467 0.51541 0.01493 0.0
H2867 H 0.78107 0.50947 0.03895 0.0
C2868 C 0.8106 0.5751 0.01465 0.0
C2869 C 0.79161 0.58086 0.02438 0.0
C2870 C 0.82185 0.55764 0.0218 0.0
C2871 C 0.81415 0.54574 0.03866 0.0
C2872 C 0.79574 0.55202 0.04897 0.0
H2873 H 0.85362 0.44999 0.12141 0.0
H2874 H 0.8471 0.48302 0.10316 0.0
C2875 C 0.78454 0.56945 0.0419 0.0
C2876 C 0.82446 0.52596 0.04482 0.0
H2877 H 0.81553 0.47324 0.04742 0.0
C2878 C 0.8437 0.52675 0.05555 0.0
C2879 C 0.81462 0.5064 0.04107 0.0
C2880 C 0.7944 0.50474 0.02875 0.0
C2881 C 0.85284 0.5084 0.06369 0.0
C2882 C 0.84224 0.48899 0.06118 0.0
C2883 C 0.82358 0.48815 0.04943 0.0
C2884 C 0.8491 0.46959 0.07194 0.0
C2885 C 0.87358 0.50999 0.0751 0.0
C2886 C 0.85224 0.45102 0.06044 0.0
C2887 C 0.85566 0.43201 0.07084 0.0
C2888 C 0.85591 0.43125 0.09294 0.0
C2889 C 0.85351 0.45002 0.10438 0.0
C2890 C 0.85001 0.46898 0.09397 0.0
H2891 H 0.88277 0.52382 0.06966 0.0
H2892 H 0.87059 0.512 0.09217 0.0
H2893 H 0.88317 0.49559 0.07285 0.0
H2894 H 0.85145 0.45117 0.04342 0.0
H2895 H 0.85761 0.41786 0.06156 0.0
H2896 H 0.66212 0.57236 0.25685 0.0
H2897 H 0.69218 0.59199 0.27104 0.0
H2898 H 0.70818 0.53914 0.31034 0.0
H2899 H 0.67835 0.5194 0.29622 0.0
H2900 H 0.70453 0.60181 0.3148 0.0
H2901 H 0.76067 0.55046 0.27213 0.0
H2902 H 0.7331 0.55188 0.26547 0.0
H2903 H 0.7416 0.53643 0.28755 0.0
C2904 C 0.67193 0.56503 0.26868 0.0
C2905 C 0.66807 0.54429 0.27529 0.0
C2906 C 0.68902 0.57626 0.27676 0.0
C2907 C 0.70245 0.56684 0.29146 0.0
C2908 C 0.69808 0.54651 0.29877 0.0
H2909 H 0.79817 0.6045 0.37576 0.0
H2910 H 0.76489 0.59796 0.35788 0.0
C2911 C 0.68103 0.5353 0.29073 0.0
C2912 C 0.72171 0.57766 0.29847 0.0
H2913 H 0.77497 0.57233 0.29896 0.0
C2914 C 0.71998 0.59559 0.31118 0.0
C2915 C 0.74178 0.56971 0.29328 0.0
C2916 C 0.7445 0.55118 0.27869 0.0
C2917 C 0.73792 0.60517 0.3198 0.0
C2918 C 0.75792 0.59631 0.31577 0.0
C2919 C 0.75962 0.57904 0.30215 0.0
C2920 C 0.77718 0.6035 0.32663 0.0
C2921 C 0.73528 0.62451 0.33327 0.0
C2922 C 0.79518 0.60872 0.31499 0.0
C2923 C 0.81434 0.61212 0.32515 0.0
C2924 C 0.81583 0.61031 0.34713 0.0
C2925 C 0.79756 0.60602 0.35881 0.0
C2926 C 0.77845 0.60248 0.34863 0.0
H2927 H 0.72077 0.63324 0.32899 0.0
H2928 H 0.73386 0.61971 0.34998 0.0
H2929 H 0.74897 0.63526 0.33177 0.0
H2930 H 0.79453 0.60947 0.29799 0.0
H2931 H 0.82809 0.61558 0.31572 0.0
H2932 H 0.70003 0.40004 0.55595 0.0
H2933 H 0.6793 0.42814 0.57208 0.0
H2934 H 0.67496 0.45946 0.51209 0.0
H2935 H 0.69526 0.43127 0.49579 0.0
H2936 H 0.69325 0.46843 0.5733 0.0
H2937 H 0.61546 0.46582 0.53412 0.0
H2938 H 0.63375 0.44413 0.53317 0.0
H2939 H 0.63695 0.46628 0.51587 0.0
C2940 C 0.69426 0.4127 0.54612 0.0
C2941 C 0.69932 0.41355 0.52465 0.0
C2942 C 0.68241 0.42869 0.55534 0.0
C2943 C 0.6754 0.44575 0.54323 0.0
C2944 C 0.67977 0.44621 0.52162 0.0
H2945 H 0.63847 0.57311 0.56701 0.0
H2946 H 0.64622 0.53874 0.55151 0.0
C2947 C 0.69154 0.43017 0.51237 0.0
C2948 C 0.66598 0.46428 0.55362 0.0
H2949 H 0.62409 0.49781 0.55236 0.0
C2950 C 0.67798 0.47467 0.56896 0.0
C2951 C 0.64615 0.47246 0.54775 0.0
C2952 C 0.63223 0.46148 0.53196 0.0
C2953 C 0.671 0.49338 0.57816 0.0
C2954 C 0.65134 0.50175 0.57207 0.0
C2955 C 0.63915 0.49127 0.55695 0.0
C2956 C 0.64371 0.5218 0.58087 0.0
C2957 C 0.68504 0.50446 0.59382 0.0
C2958 C 0.63909 0.5234 0.60234 0.0
C2959 C 0.63479 0.54296 0.61127 0.0
C2960 C 0.63497 0.56124 0.59883 0.0
C2961 C 0.63838 0.55937 0.57705 0.0
C2962 C 0.64273 0.53976 0.56815 0.0
H2963 H 0.70136 0.49824 0.59355 0.0
H2964 H 0.68557 0.52161 0.59061 0.0
H2965 H 0.67866 0.50219 0.60989 0.0
H2966 H 0.63952 0.5096 0.61232 0.0
H2967 H 0.63194 0.5438 0.62804 0.0
H2968 H 0.7186 0.84836 0.56052 0.0
H2969 H 0.70271 0.82159 0.58337 0.0
H2970 H 0.70155 0.77795 0.53142 0.0
H2971 H 0.717 0.80453 0.50855 0.0
H2972 H 0.66359 0.78081 0.55322 0.0
H2973 H 0.73152 0.76846 0.60711 0.0
H2974 H 0.72227 0.79501 0.60408 0.0
H2975 H 0.73415 0.78177 0.58219 0.0
C2976 C 0.71497 0.83303 0.55404 0.0
C2977 C 0.71901 0.82849 0.53279 0.0
C2978 C 0.70602 0.81776 0.56711 0.0
C2979 C 0.70118 0.79778 0.55909 0.0
C2980 C 0.7052 0.7933 0.53788 0.0
H2981 H 0.6802 0.67456 0.60184 0.0
H2982 H 0.69417 0.70891 0.59194 0.0
C2983 C 0.71403 0.80849 0.52485 0.0
C2984 C 0.69147 0.78141 0.57237 0.0
H2985 H 0.70177 0.74704 0.61224 0.0
C2986 C 0.67177 0.77358 0.56632 0.0
C2987 C 0.70233 0.77204 0.58934 0.0
C2988 C 0.72381 0.77958 0.59607 0.0
C2989 C 0.66297 0.75597 0.57617 0.0
C2990 C 0.67399 0.7463 0.5929 0.0
C2991 C 0.69334 0.75464 0.59951 0.0
C2992 C 0.6667 0.72623 0.60205 0.0
C2993 C 0.64255 0.74719 0.56774 0.0
C2994 C 0.64698 0.72473 0.61176 0.0
C2995 C 0.63881 0.70509 0.61717 0.0
C2996 C 0.6504 0.68668 0.61322 0.0
C2997 C 0.67081 0.68842 0.60494 0.0
C2998 C 0.67886 0.70804 0.59933 0.0
H2999 H 0.63842 0.75393 0.55216 0.0
H3000 H 0.64342 0.72982 0.56617 0.0
H3001 H 0.62964 0.75099 0.57882 0.0
H3002 H 0.63757 0.73867 0.6144 0.0
H3003 H 0.62318 0.70429 0.62388 0.0
H3004 H 0.20554 0.6447 0.44337 0.0
H3005 H 0.1874 0.67027 0.4208 0.0
H3006 H 0.20478 0.72011 0.46344 0.0
H3007 H 0.2227 0.69485 0.486 0.0
H3008 H 0.16101 0.71856 0.45127 0.0
H3009 H 0.21648 0.71641 0.38348 0.0
H3010 H 0.20631 0.69187 0.3933 0.0
H3011 H 0.22387 0.70711 0.40928 0.0
C3012 C 0.20548 0.66112 0.44787 0.0
C3013 C 0.21553 0.66782 0.46641 0.0
C3014 C 0.19521 0.67567 0.43495 0.0
C3015 C 0.19493 0.69702 0.44044 0.0
C3016 C 0.20487 0.70367 0.45897 0.0
H3017 H 0.1795 0.81738 0.39126 0.0
H3018 H 0.19088 0.78217 0.40126 0.0
C3019 C 0.21511 0.68922 0.47182 0.0
C3020 C 0.18411 0.71275 0.4273 0.0
H3021 H 0.18965 0.74178 0.38256 0.0
C3022 C 0.16696 0.72344 0.43605 0.0
C3023 C 0.19211 0.719 0.40756 0.0
C3024 C 0.21077 0.70814 0.39777 0.0
C3025 C 0.15821 0.74099 0.42608 0.0
C3026 C 0.16664 0.74772 0.40663 0.0
C3027 C 0.18318 0.73643 0.39739 0.0
C3028 C 0.16023 0.76792 0.39716 0.0
C3029 C 0.14091 0.75295 0.4371 0.0
C3030 C 0.13941 0.77134 0.39078 0.0
C3031 C 0.13278 0.79152 0.38526 0.0
C3032 C 0.14693 0.80854 0.38589 0.0
C3033 C 0.16814 0.80469 0.39082 0.0
C3034 C 0.1747 0.78455 0.39644 0.0
H3035 H 0.13881 0.74776 0.45364 0.0
H3036 H 0.14428 0.77008 0.43706 0.0
H3037 H 0.12584 0.75037 0.42867 0.0
H3038 H 0.12812 0.75858 0.39087 0.0
H3039 H 0.1164 0.7939 0.38122 0.0
H3040 H 0.59905 0.97756 0.68744 0.0
H3041 H 0.57168 0.96062 0.66607 0.0
H3042 H 0.53016 0.96018 0.71968 0.0
H3043 H 0.55739 0.9766 0.74112 0.0
H3044 H 0.53224 0.92201 0.69911 0.0
H3045 H 0.5177 0.98774 0.64321 0.0
H3046 H 0.54439 0.97868 0.64529 0.0
H3047 H 0.53216 0.99126 0.66739 0.0
C3048 C 0.58405 0.97385 0.6946 0.0
C3049 C 0.58031 0.97837 0.71591 0.0
C3050 C 0.56844 0.96431 0.68237 0.0
C3051 C 0.54887 0.95938 0.69127 0.0
C3052 C 0.54518 0.96388 0.71253 0.0
H3053 H 0.4249 0.93556 0.65066 0.0
H3054 H 0.45915 0.95029 0.65992 0.0
C3055 C 0.56074 0.97327 0.72475 0.0
C3056 C 0.53214 0.94909 0.67886 0.0
H3057 H 0.49681 0.95739 0.63932 0.0
C3058 C 0.52461 0.92959 0.68587 0.0
C3059 C 0.52225 0.95917 0.6617 0.0
C3060 C 0.52936 0.98044 0.65397 0.0
C3061 C 0.50687 0.92025 0.67677 0.0
C3062 C 0.49676 0.93044 0.65978 0.0
C3063 C 0.50474 0.94959 0.65224 0.0
C3064 C 0.47669 0.92248 0.65117 0.0
C3065 C 0.49845 0.90015 0.68624 0.0
C3066 C 0.47534 0.90227 0.64245 0.0
C3067 C 0.45576 0.89368 0.63745 0.0
C3068 C 0.43727 0.90533 0.64077 0.0
C3069 C 0.43884 0.92614 0.64806 0.0
C3070 C 0.4584 0.93461 0.65329 0.0
H3071 H 0.50538 0.89693 0.70196 0.0
H3072 H 0.48109 0.90083 0.68788 0.0
H3073 H 0.50239 0.88676 0.67579 0.0
H3074 H 0.48935 0.89287 0.64023 0.0
H3075 H 0.45506 0.87774 0.63149 0.0
H3076 H 0.2879 0.35522 0.92765 0.0
H3077 H 0.30551 0.32915 0.90529 0.0
H3078 H 0.30886 0.28646 0.95789 0.0
H3079 H 0.29186 0.31244 0.98029 0.0
H3080 H 0.3457 0.28853 0.93542 0.0
H3081 H 0.27675 0.27616 0.88273 0.0
H3082 H 0.28677 0.30252 0.88478 0.0
H3083 H 0.27474 0.29035 0.90721 0.0
C3084 C 0.29255 0.34031 0.93442 0.0
C3085 C 0.28845 0.33577 0.95565 0.0
C3086 C 0.30247 0.32543 0.92162 0.0
C3087 C 0.3082 0.30581 0.9299 0.0
C3088 C 0.30455 0.30153 0.95121 0.0
H3089 H 0.32111 0.18103 0.89408 0.0
H3090 H 0.30996 0.2171 0.90082 0.0
C3091 C 0.2948 0.31637 0.96398 0.0
C3092 C 0.31759 0.28923 0.91662 0.0
H3093 H 0.30547 0.2535 0.87843 0.0
C3094 C 0.33712 0.28104 0.92269 0.0
C3095 C 0.30622 0.27957 0.90011 0.0
C3096 C 0.28489 0.28743 0.89332 0.0
C3097 C 0.34503 0.26259 0.91367 0.0
C3098 C 0.33333 0.25247 0.89764 0.0
C3099 C 0.3144 0.26139 0.89066 0.0
C3100 C 0.33903 0.23123 0.8901 0.0
C3101 C 0.36505 0.25334 0.92249 0.0
C3102 C 0.35872 0.22731 0.88102 0.0
C3103 C 0.36529 0.20667 0.87751 0.0
C3104 C 0.35207 0.18969 0.88265 0.0
C3105 C 0.3317 0.19377 0.89009 0.0
C3106 C 0.32528 0.21439 0.89389 0.0
H3107 H 0.36976 0.26091 0.93753 0.0
H3108 H 0.36324 0.2362 0.92529 0.0
H3109 H 0.37801 0.25566 0.91106 0.0
H3110 H 0.36934 0.24015 0.87746 0.0
H3111 H 0.38094 0.20398 0.87137 0.0
H3112 H 0.43179 0.547 0.74228 0.0
H3113 H 0.4592 0.5623 0.72034 0.0
H3114 H 0.42614 0.54214 0.66457 0.0
H3115 H 0.39881 0.52615 0.68658 0.0
H3116 H 0.46699 0.53272 0.66225 0.0
H3117 H 0.45912 0.61555 0.68663 0.0
H3118 H 0.46227 0.59904 0.70922 0.0
H3119 H 0.43941 0.59604 0.69269 0.0
C3120 C 0.43022 0.54601 0.72534 0.0
C3121 C 0.41314 0.53548 0.71611 0.0
C3122 C 0.44582 0.5549 0.71281 0.0
C3123 C 0.44446 0.55377 0.69082 0.0
C3124 C 0.42736 0.54334 0.68152 0.0
H3125 H 0.54441 0.62481 0.6292 0.0
H3126 H 0.50916 0.61121 0.63629 0.0
C3127 C 0.41179 0.53425 0.69408 0.0
C3128 C 0.46169 0.56238 0.6778 0.0
H3129 H 0.49319 0.60541 0.67293 0.0
C3130 C 0.47251 0.54874 0.66423 0.0
C3131 C 0.46856 0.58341 0.67995 0.0
C3132 C 0.45655 0.59938 0.69274 0.0
C3133 C 0.49088 0.5552 0.65389 0.0
C3134 C 0.49892 0.57559 0.65778 0.0
C3135 C 0.48727 0.58964 0.6702 0.0
C3136 C 0.52003 0.58229 0.65057 0.0
C3137 C 0.50156 0.54001 0.63915 0.0
C3138 C 0.53786 0.57042 0.65593 0.0
C3139 C 0.55799 0.57801 0.6516 0.0
C3140 C 0.56063 0.59787 0.64236 0.0
C3141 C 0.5428 0.60951 0.63652 0.0
C3142 C 0.52267 0.60174 0.64051 0.0
H3143 H 0.48995 0.52924 0.63175 0.0
H3144 H 0.51029 0.54834 0.62654 0.0
H3145 H 0.5128 0.5302 0.64818 0.0
H3146 H 0.53628 0.55568 0.6643 0.0
H3147 H 0.57147 0.56878 0.65641 0.0
H3148 H 0.78751 0.18377 0.01414 0.0
H3149 H 0.80462 0.209 0.03741 0.0
H3150 H 0.78903 0.17056 0.09106 0.0
H3151 H 0.77147 0.14526 0.06778 0.0
H3152 H 0.77835 0.21179 0.09668 0.0
H3153 H 0.86018 0.20644 0.06847 0.0
H3154 H 0.84243 0.21032 0.04692 0.0
H3155 H 0.84068 0.18668 0.06242 0.0
C3156 C 0.78796 0.18052 0.03085 0.0
C3157 C 0.7782 0.16256 0.03916 0.0
C3158 C 0.79787 0.19487 0.04412 0.0
C3159 C 0.7984 0.19143 0.0659 0.0
C3160 C 0.78893 0.17336 0.07426 0.0
H3161 H 0.87004 0.2908 0.12758 0.0
H3162 H 0.85666 0.25525 0.12172 0.0
C3163 C 0.77895 0.15896 0.06096 0.0
C3164 C 0.80745 0.20769 0.07981 0.0
H3165 H 0.85018 0.2396 0.08449 0.0
C3166 C 0.79422 0.21762 0.09441 0.0
C3167 C 0.82829 0.21493 0.07721 0.0
C3168 C 0.84376 0.20385 0.06306 0.0
C3169 C 0.80078 0.23569 0.10523 0.0
C3170 C 0.82085 0.24423 0.1009 0.0
C3171 C 0.83464 0.23327 0.08759 0.0
C3172 C 0.82719 0.26544 0.10808 0.0
C3173 C 0.78594 0.2457 0.12078 0.0
C3174 C 0.81487 0.28297 0.10279 0.0
C3175 C 0.82238 0.3033 0.10631 0.0
C3176 C 0.84256 0.30641 0.11474 0.0
C3177 C 0.85451 0.28886 0.12085 0.0
C3178 C 0.84687 0.26855 0.11758 0.0
H3179 H 0.77569 0.23368 0.12824 0.0
H3180 H 0.79458 0.2543 0.1333 0.0
H3181 H 0.77558 0.25695 0.11239 0.0
H3182 H 0.7999 0.281 0.0949 0.0
H3183 H 0.81285 0.31651 0.10137 0.0
H3184 H 0.58904 0.00603 0.82042 0.0
H3185 H 0.55945 0.01661 0.84271 0.0
H3186 H 0.55054 0.07197 0.8047 0.0
H3187 H 0.58004 0.06159 0.78233 0.0
H3188 H 0.54853 0.06152 0.86368 0.0
H3189 H 0.49611 0.02947 0.80126 0.0
H3190 H 0.52296 0.02085 0.80461 0.0
H3191 H 0.51757 0.04581 0.79264 0.0
C3192 C 0.58107 0.02069 0.81709 0.0
C3193 C 0.58666 0.0329 0.79953 0.0
C3194 C 0.56424 0.0267 0.82986 0.0
C3195 C 0.55288 0.04494 0.82517 0.0
C3196 C 0.55922 0.05781 0.80845 0.0
H3197 H 0.45526 0.1215 0.86837 0.0
H3198 H 0.48878 0.10409 0.86261 0.0
C3199 C 0.57602 0.05185 0.79571 0.0
C3200 C 0.53302 0.04946 0.8361 0.0
H3201 H 0.48016 0.05013 0.82773 0.0
C3202 C 0.53352 0.05881 0.85604 0.0
C3203 C 0.51357 0.04545 0.82618 0.0
C3204 C 0.51235 0.0347 0.80505 0.0
C3205 C 0.51488 0.06536 0.86588 0.0
C3206 C 0.49549 0.06268 0.85526 0.0
C3207 C 0.49503 0.0522 0.83585 0.0
C3208 C 0.47581 0.07261 0.86259 0.0
C3209 C 0.51616 0.07537 0.88734 0.0
C3210 C 0.45732 0.06069 0.86451 0.0
C3211 C 0.43798 0.07065 0.8675 0.0
C3212 C 0.43684 0.09271 0.86845 0.0
C3213 C 0.45555 0.10449 0.8676 0.0
C3214 C 0.47481 0.09454 0.86457 0.0
H3215 H 0.53003 0.06953 0.89622 0.0
H3216 H 0.51795 0.09263 0.88552 0.0
H3217 H 0.50175 0.07225 0.89669 0.0
H3218 H 0.45776 0.04374 0.86287 0.0
H3219 H 0.42388 0.06111 0.86824 0.0
H3220 H 0.91455 0.99661 0.31426 0.0
H3221 H 0.94495 0.98373 0.33411 0.0
H3222 H 0.95857 0.93951 0.28453 0.0
H3223 H 0.92838 0.95241 0.26449 0.0
H3224 H 0.95622 0.94239 0.34821 0.0
H3225 H 0.01272 0.97535 0.29055 0.0
H3226 H 0.9854 0.98299 0.29131 0.0
H3227 H 0.99302 0.95875 0.27893 0.0
C3228 C 0.92392 0.98401 0.30768 0.0
C3229 C 0.91926 0.97562 0.28775 0.0
C3230 C 0.94123 0.97669 0.31904 0.0
C3231 C 0.95412 0.96098 0.31056 0.0
C3232 C 0.94896 0.95194 0.29111 0.0
H3233 H 0.04688 0.87834 0.3576 0.0
H3234 H 0.01449 0.89669 0.34881 0.0
C3235 C 0.93168 0.95924 0.27975 0.0
C3236 C 0.97341 0.95443 0.32165 0.0
H3237 H 0.02649 0.95097 0.31545 0.0
C3238 C 0.97164 0.94443 0.34121 0.0
C3239 C 0.99348 0.95762 0.31267 0.0
C3240 C 0.99637 0.96945 0.29231 0.0
C3241 C 0.98944 0.93651 0.35155 0.0
C3242 C 0.00936 0.93843 0.34185 0.0
C3243 C 0.01118 0.94939 0.3228 0.0
C3244 C 0.02828 0.92779 0.35012 0.0
C3245 C 0.98674 0.92603 0.37265 0.0
C3246 C 0.04685 0.93919 0.35369 0.0
C3247 C 0.06555 0.92871 0.35845 0.0
C3248 C 0.06597 0.90663 0.35957 0.0
C3249 C 0.04713 0.89535 0.35682 0.0
C3250 C 0.02851 0.90584 0.352 0.0
H3251 H 0.97261 0.93206 0.38095 0.0
H3252 H 0.98458 0.90887 0.37027 0.0
H3253 H 0.00072 0.92849 0.38282 0.0
H3254 H 0.047 0.95616 0.35217 0.0
H3255 H 0.07976 0.93787 0.3606 0.0
H3256 H 0.45904 0.30405 0.16166 0.0
H3257 H 0.43881 0.31713 0.19165 0.0
H3258 H 0.42994 0.25359 0.21359 0.0
H3259 H 0.45036 0.24037 0.18376 0.0
H3260 H 0.39693 0.30737 0.2075 0.0
H3261 H 0.46173 0.28429 0.26176 0.0
H3262 H 0.46522 0.28563 0.23364 0.0
H3263 H 0.45136 0.26389 0.24514 0.0
C3264 C 0.45257 0.29285 0.17274 0.0
C3265 C 0.45647 0.27123 0.17056 0.0
C3266 C 0.44097 0.30033 0.18979 0.0
C3267 C 0.43317 0.28631 0.20489 0.0
C3268 C 0.4361 0.26464 0.20219 0.0
H3269 H 0.38877 0.31818 0.33058 0.0
H3270 H 0.39598 0.29834 0.29846 0.0
C3271 C 0.44772 0.25713 0.18515 0.0
C3272 C 0.42344 0.29459 0.22424 0.0
H3273 H 0.43255 0.30113 0.27666 0.0
C3274 C 0.40457 0.30588 0.22269 0.0
C3275 C 0.4335 0.29253 0.24395 0.0
C3276 C 0.45415 0.28108 0.24634 0.0
C3277 C 0.39559 0.31547 0.24041 0.0
C3278 C 0.40605 0.31401 0.25999 0.0
C3279 C 0.42457 0.30216 0.26161 0.0
C3280 C 0.39907 0.32585 0.27872 0.0
C3281 C 0.37508 0.3271 0.238 0.0
C3282 C 0.39833 0.34788 0.27819 0.0
C3283 C 0.39421 0.35928 0.29648 0.0
C3284 C 0.39104 0.34883 0.31569 0.0
C3285 C 0.39129 0.32672 0.31606 0.0
C3286 C 0.39533 0.31534 0.29773 0.0
H3287 H 0.36593 0.32111 0.22435 0.0
H3288 H 0.36528 0.32572 0.25238 0.0
H3289 H 0.37839 0.344 0.2352 0.0
H3290 H 0.40169 0.35632 0.26379 0.0
H3291 H 0.39414 0.37629 0.29564 0.0
H3292 H 0.49769 0.71024 0.93813 0.0
H3293 H 0.47808 0.68786 0.96236 0.0
H3294 H 0.42687 0.68419 0.918 0.0
H3295 H 0.44642 0.70673 0.8936 0.0
H3296 H 0.41525 0.6976 0.95817 0.0
H3297 H 0.46301 0.62512 0.96287 0.0
H3298 H 0.47851 0.64852 0.96589 0.0
H3299 H 0.46523 0.64357 0.94138 0.0
C3300 C 0.4824 0.70438 0.93337 0.0
C3301 C 0.47354 0.71027 0.91403 0.0
C3302 C 0.4713 0.69145 0.94715 0.0
C3303 C 0.45118 0.68413 0.94181 0.0
C3304 C 0.44248 0.68953 0.92228 0.0
H3305 H 0.36352 0.63629 0.03803 0.0
H3306 H 0.37761 0.64337 0.00291 0.0
C3307 C 0.45364 0.7024 0.9084 0.0
C3308 C 0.43846 0.673 0.95774 0.0
H3309 H 0.44034 0.63224 0.99249 0.0
C3310 C 0.42039 0.68303 0.9654 0.0
C3311 C 0.44526 0.65402 0.96704 0.0
C3312 C 0.46396 0.64206 0.95873 0.0
C3313 C 0.40982 0.67544 0.98318 0.0
C3314 C 0.41734 0.65708 0.99323 0.0
C3315 C 0.43466 0.64635 0.98478 0.0
C3316 C 0.40908 0.65032 0.01386 0.0
C3317 C 0.39161 0.68793 0.99188 0.0
C3318 C 0.42233 0.65106 0.03147 0.0
C3319 C 0.41442 0.64689 0.05147 0.0
C3320 C 0.39305 0.64195 0.05425 0.0
C3321 C 0.37999 0.64032 0.03645 0.0
C3322 C 0.38798 0.6444 0.01639 0.0
H3323 H 0.39022 0.70364 0.98439 0.0
H3324 H 0.37676 0.67923 0.98899 0.0
H3325 H 0.39333 0.69013 0.00912 0.0
H3326 H 0.43869 0.65555 0.02983 0.0
H3327 H 0.42498 0.64812 0.06479 0.0
H3328 H 0.04329 0.69784 0.6601 0.0
H3329 H 0.0628 0.68507 0.69066 0.0
H3330 H 0.06888 0.7486 0.71365 0.0
H3331 H 0.04898 0.7615 0.6833 0.0
H3332 H 0.10255 0.69408 0.70915 0.0
H3333 H 0.03534 0.71821 0.75974 0.0
H3334 H 0.03354 0.71748 0.73145 0.0
H3335 H 0.047 0.73877 0.7443 0.0
C3336 C 0.04907 0.70913 0.67149 0.0
C3337 C 0.04436 0.73062 0.66953 0.0
C3338 C 0.06025 0.70182 0.68889 0.0
C3339 C 0.0669 0.71587 0.70454 0.0
C3340 C 0.06352 0.7375 0.70188 0.0
H3341 H 0.1055 0.68459 0.83224 0.0
H3342 H 0.10013 0.70397 0.79953 0.0
C3343 C 0.05222 0.74483 0.68454 0.0
C3344 C 0.07554 0.70759 0.72443 0.0
H3345 H 0.06365 0.70146 0.77634 0.0
C3346 C 0.0942 0.69584 0.72391 0.0
C3347 C 0.0645 0.70988 0.74359 0.0
C3348 C 0.0439 0.72161 0.7449 0.0
C3349 C 0.102 0.68607 0.74209 0.0
C3350 C 0.09063 0.68791 0.76109 0.0
C3351 C 0.07234 0.70018 0.76172 0.0
C3352 C 0.09647 0.67617 0.78025 0.0
C3353 C 0.12224 0.67381 0.7408 0.0
C3354 C 0.09625 0.65412 0.78019 0.0
C3355 C 0.09924 0.64297 0.79884 0.0
C3356 C 0.1023 0.65371 0.81794 0.0
C3357 C 0.10304 0.67582 0.81783 0.0
C3358 C 0.10007 0.68694 0.79916 0.0
H3359 H 0.13206 0.67907 0.72735 0.0
H3360 H 0.13152 0.67538 0.75551 0.0
H3361 H 0.11854 0.65691 0.73844 0.0
H3362 H 0.09302 0.64552 0.76583 0.0
H3363 H 0.09861 0.62595 0.79837 0.0
H3364 H 0.99693 0.29543 0.43804 0.0
H3365 H 0.01503 0.31802 0.46335 0.0
H3366 H 0.06977 0.31938 0.42336 0.0
H3367 H 0.05185 0.29654 0.39806 0.0
H3368 H 0.07836 0.30719 0.46375 0.0
H3369 H 0.03103 0.38011 0.46438 0.0
H3370 H 0.01517 0.35695 0.46738 0.0
H3371 H 0.0295 0.36106 0.44334 0.0
C3372 C 0.01269 0.30082 0.43448 0.0
C3373 C 0.02304 0.29416 0.41616 0.0
C3374 C 0.02294 0.31388 0.44886 0.0
C3375 C 0.04361 0.32063 0.44505 0.0
C3376 C 0.05375 0.31448 0.42646 0.0
H3377 H 0.12827 0.37071 0.54264 0.0
H3378 H 0.11471 0.36303 0.5074 0.0
C3379 C 0.04351 0.30141 0.41208 0.0
C3380 C 0.05536 0.33191 0.46163 0.0
H3381 H 0.05244 0.37372 0.49509 0.0
C3382 C 0.07301 0.32198 0.47034 0.0
C3383 C 0.0483 0.35118 0.47012 0.0
C3384 C 0.03008 0.36306 0.46068 0.0
C3385 C 0.08297 0.33008 0.48826 0.0
C3386 C 0.07526 0.34883 0.49739 0.0
C3387 C 0.05827 0.35934 0.48803 0.0
C3388 C 0.08307 0.35632 0.51794 0.0
C3389 C 0.10079 0.31779 0.49801 0.0
C3390 C 0.06952 0.35597 0.5353 0.0
C3391 C 0.07713 0.36045 0.55536 0.0
C3392 C 0.09849 0.36533 0.55843 0.0
C3393 C 0.11181 0.36674 0.54083 0.0
C3394 C 0.10412 0.36232 0.52071 0.0
H3395 H 0.1023 0.3018 0.49113 0.0
H3396 H 0.1158 0.32628 0.49533 0.0
H3397 H 0.0985 0.31623 0.51525 0.0
H3398 H 0.0532 0.35142 0.53344 0.0
H3399 H 0.06638 0.35943 0.56851 0.0
H3400 H 0.44358 0.75807 0.31867 0.0
H3401 H 0.42198 0.74612 0.28907 0.0
H3402 H 0.43675 0.6817 0.30417 0.0
H3403 H 0.45826 0.69348 0.33379 0.0
H3404 H 0.439 0.72259 0.25574 0.0
H3405 H 0.37285 0.68016 0.29339 0.0
H3406 H 0.38892 0.69905 0.30732 0.0
H3407 H 0.39824 0.67268 0.30323 0.0
C3408 C 0.44191 0.74135 0.31589 0.0
C3409 C 0.45264 0.72669 0.32846 0.0
C3410 C 0.42957 0.73457 0.29902 0.0
C3411 C 0.42758 0.71304 0.29464 0.0
C3412 C 0.43774 0.69836 0.30758 0.0
H3413 H 0.39386 0.6295 0.19662 0.0
H3414 H 0.40204 0.64744 0.22956 0.0
C3415 C 0.45015 0.70512 0.32438 0.0
C3416 C 0.41694 0.70595 0.27525 0.0
H3417 H 0.37898 0.67272 0.25692 0.0
C3418 C 0.42563 0.71199 0.25592 0.0
C3419 C 0.3996 0.69206 0.27566 0.0
C3420 C 0.3892 0.68574 0.29601 0.0
C3421 C 0.41814 0.70363 0.23695 0.0
C3422 C 0.40117 0.68923 0.23738 0.0
C3423 C 0.39197 0.68378 0.25668 0.0
C3424 C 0.39394 0.67842 0.2181 0.0
C3425 C 0.42922 0.70941 0.21677 0.0
C3426 C 0.38609 0.68985 0.20096 0.0
C3427 C 0.38161 0.67968 0.182 0.0
C3428 C 0.38469 0.65787 0.17999 0.0
C3429 C 0.39145 0.64633 0.19759 0.0
C3430 C 0.39608 0.65654 0.21646 0.0
H3431 H 0.4447 0.71697 0.21973 0.0
H3432 H 0.43173 0.6953 0.2068 0.0
H3433 H 0.41937 0.72067 0.20782 0.0
H3434 H 0.38391 0.7067 0.20209 0.0
H3435 H 0.37612 0.68896 0.16883 0.0
H3436 H 0.03617 0.73702 0.06102 0.0
H3437 H 0.05269 0.7131 0.03606 0.0
H3438 H 0.04429 0.66161 0.07942 0.0
H3439 H 0.02705 0.68549 0.10434 0.0
H3440 H 0.08774 0.68906 0.03957 0.0
H3441 H 0.01718 0.63885 0.0263 0.0
H3442 H 0.0158 0.66355 0.04016 0.0
H3443 H 0.0264 0.64072 0.05295 0.0
C3444 C 0.03785 0.72061 0.06527 0.0
C3445 C 0.03022 0.71306 0.08453 0.0
C3446 C 0.04733 0.70697 0.05102 0.0
C3447 C 0.04948 0.68554 0.05579 0.0
C3448 C 0.04239 0.67801 0.07527 0.0
H3449 H 0.12301 0.62044 0.95808 0.0
H3450 H 0.11113 0.62871 0.99376 0.0
C3451 C 0.03266 0.69166 0.0895 0.0
C3452 C 0.05889 0.67138 0.03994 0.0
H3453 H 0.04677 0.63211 0.00542 0.0
C3454 C 0.07895 0.67638 0.03226 0.0
C3455 C 0.0473 0.65488 0.03052 0.0
C3456 C 0.02542 0.64919 0.03774 0.0
C3457 C 0.08721 0.66631 0.01451 0.0
C3458 C 0.07532 0.65028 0.00461 0.0
C3459 C 0.05584 0.64434 0.01312 0.0
C3460 C 0.08134 0.6418 0.98381 0.0
C3461 C 0.10787 0.67402 0.00568 0.0
C3462 C 0.06798 0.64521 0.96658 0.0
C3463 C 0.07453 0.64017 0.9463 0.0
C3464 C 0.09468 0.63183 0.94284 0.0
C3465 C 0.10754 0.62721 0.96024 0.0
C3466 C 0.10083 0.63199 0.98061 0.0
H3467 H 0.11288 0.68915 0.01285 0.0
H3468 H 0.12028 0.66221 0.00889 0.0
H3469 H 0.10677 0.67621 0.98839 0.0
H3470 H 0.05283 0.65269 0.96871 0.0
H3471 H 0.06417 0.64379 0.93327 0.0
H3472 H 0.05111 0.24009 0.81651 0.0
H3473 H 0.07365 0.25363 0.78847 0.0
H3474 H 0.06071 0.3171 0.8086 0.0
H3475 H 0.03842 0.30369 0.83685 0.0
H3476 H 0.0573 0.27841 0.75751 0.0
H3477 H 0.12355 0.31963 0.79624 0.0
H3478 H 0.10734 0.30061 0.80976 0.0
H3479 H 0.09841 0.32726 0.80652 0.0
C3480 C 0.05344 0.25692 0.81523 0.0
C3481 C 0.04291 0.27087 0.82872 0.0
C3482 C 0.06636 0.2646 0.79927 0.0
C3483 C 0.06903 0.28633 0.79664 0.0
C3484 C 0.05926 0.30026 0.81067 0.0
H3485 H 0.09751 0.37436 0.70135 0.0
H3486 H 0.09124 0.35517 0.73399 0.0
C3487 C 0.04637 0.29259 0.82668 0.0
C3488 C 0.07937 0.29452 0.77754 0.0
H3489 H 0.11636 0.32934 0.76031 0.0
C3490 C 0.07049 0.28922 0.75805 0.0
C3491 C 0.09646 0.3087 0.7784 0.0
C3492 C 0.10713 0.31424 0.79885 0.0
C3493 C 0.07753 0.29855 0.73942 0.0
C3494 C 0.0942 0.31326 0.74033 0.0
C3495 C 0.1036 0.31803 0.75973 0.0
C3496 C 0.1008 0.32503 0.72147 0.0
C3497 C 0.06629 0.29344 0.71912 0.0
C3498 C 0.10886 0.31448 0.70387 0.0
C3499 C 0.11223 0.32533 0.68511 0.0
C3500 C 0.10779 0.34695 0.68376 0.0
C3501 C 0.10092 0.35768 0.70182 0.0
C3502 C 0.09742 0.34678 0.72051 0.0
H3503 H 0.05113 0.28521 0.72187 0.0
H3504 H 0.06314 0.30796 0.70996 0.0
H3505 H 0.07636 0.28301 0.70942 0.0
H3506 H 0.11193 0.29774 0.70448 0.0
H3507 H 0.11788 0.31669 0.67156 0.0
H3508 H 0.43456 0.28888 0.58437 0.0
H3509 H 0.42151 0.31307 0.55745 0.0
H3510 H 0.48352 0.33981 0.55118 0.0
H3511 H 0.49677 0.3156 0.57802 0.0
H3512 H 0.42418 0.35993 0.55204 0.0
H3513 H 0.46814 0.3125 0.4929 0.0
H3514 H 0.46279 0.30288 0.51904 0.0
H3515 H 0.48281 0.32236 0.515 0.0
C3516 C 0.44534 0.30014 0.5775 0.0
C3517 C 0.46673 0.30019 0.58305 0.0
C3518 C 0.43785 0.31399 0.56222 0.0
C3519 C 0.45163 0.32802 0.55229 0.0
C3520 C 0.47272 0.32895 0.55864 0.0
H3521 H 0.43008 0.38488 0.43013 0.0
H3522 H 0.44586 0.37833 0.46455 0.0
C3523 C 0.48024 0.31511 0.57392 0.0
C3524 C 0.4444 0.3399 0.53374 0.0
H3525 H 0.44737 0.34003 0.48029 0.0
C3526 C 0.42937 0.35581 0.53633 0.0
C3527 C 0.45129 0.33442 0.51336 0.0
C3528 C 0.46704 0.31703 0.50974 0.0
C3529 C 0.42079 0.36627 0.51888 0.0
C3530 C 0.42711 0.36022 0.49842 0.0
C3531 C 0.44262 0.34473 0.49598 0.0
C3532 C 0.41682 0.36828 0.47917 0.0
C3533 C 0.40505 0.38361 0.52253 0.0
C3534 C 0.39514 0.36535 0.47613 0.0
C3535 C 0.38605 0.36927 0.45653 0.0
C3536 C 0.39858 0.37576 0.43953 0.0
C3537 C 0.42007 0.37969 0.44289 0.0
C3538 C 0.42909 0.37602 0.46255 0.0
H3539 H 0.40754 0.39122 0.53807 0.0
H3540 H 0.40599 0.39581 0.51008 0.0
H3541 H 0.38897 0.37684 0.52245 0.0
H3542 H 0.38545 0.35888 0.48853 0.0
H3543 H 0.36946 0.36603 0.4544 0.0
H3544 H 0.17731 0.43955 0.23596 0.0
H3545 H 0.20652 0.41804 0.24875 0.0
H3546 H 0.18542 0.42721 0.31255 0.0
H3547 H 0.15605 0.44837 0.29988 0.0
H3548 H 0.23613 0.43569 0.27391 0.0
H3549 H 0.20283 0.36583 0.31356 0.0
H3550 H 0.18791 0.38147 0.29512 0.0
H3551 H 0.19061 0.38979 0.32205 0.0
C3552 C 0.1786 0.4365 0.25266 0.0
C3553 C 0.16455 0.44576 0.26696 0.0
C3554 C 0.19524 0.42419 0.25993 0.0
C3555 C 0.19801 0.42087 0.28156 0.0
C3556 C 0.18331 0.42915 0.29576 0.0
H3557 H 0.29499 0.39948 0.3699 0.0
H3558 H 0.262 0.40325 0.35054 0.0
C3559 C 0.16664 0.44141 0.28851 0.0
C3560 C 0.21788 0.41184 0.28954 0.0
H3561 H 0.23791 0.37608 0.32414 0.0
C3562 C 0.23661 0.42235 0.28453 0.0
C3563 C 0.21837 0.39457 0.30351 0.0
C3564 C 0.19886 0.38214 0.30871 0.0
C3565 C 0.25569 0.41682 0.29398 0.0
C3566 C 0.25608 0.40002 0.30853 0.0
C3567 C 0.2375 0.38896 0.31297 0.0
C3568 C 0.27536 0.39491 0.3204 0.0
C3569 C 0.27502 0.42977 0.2892 0.0
C3570 C 0.29359 0.38836 0.30991 0.0
C3571 C 0.31252 0.38643 0.32085 0.0
C3572 C 0.31344 0.39082 0.34252 0.0
C3573 C 0.29485 0.39616 0.35319 0.0
C3574 C 0.27596 0.39823 0.34219 0.0
H3575 H 0.27107 0.44472 0.28107 0.0
H3576 H 0.28374 0.43358 0.30385 0.0
H3577 H 0.28563 0.42064 0.2788 0.0
H3578 H 0.29331 0.38536 0.29314 0.0
H3579 H 0.3265 0.38193 0.31224 0.0
H3580 H 0.29915 0.43763 0.9919 0.0
H3581 H 0.32069 0.46438 0.00913 0.0
H3582 H 0.32284 0.42667 0.06545 0.0
H3583 H 0.30092 0.39999 0.04843 0.0
H3584 H 0.30867 0.46603 0.07257 0.0
H3585 H 0.38192 0.47017 0.02595 0.0
H3586 H 0.35888 0.47173 0.00974 0.0
H3587 H 0.36407 0.4481 0.02443 0.0
C3588 C 0.30456 0.43485 0.00781 0.0
C3589 C 0.29825 0.41683 0.01889 0.0
C3590 C 0.31704 0.45006 0.01757 0.0
C3591 C 0.32361 0.44736 0.03847 0.0
C3592 C 0.31805 0.42895 0.04926 0.0
H3593 H 0.36771 0.54704 0.12327 0.0
H3594 H 0.36212 0.5118 0.10884 0.0
C3595 C 0.30549 0.41378 0.03954 0.0
C3596 C 0.33372 0.46496 0.04984 0.0
H3597 H 0.3735 0.50086 0.04672 0.0
C3598 C 0.3231 0.4734 0.06722 0.0
C3599 C 0.35248 0.47454 0.04274 0.0
C3600 C 0.36511 0.46553 0.02481 0.0
C3601 C 0.33005 0.49188 0.07698 0.0
C3602 C 0.34834 0.50195 0.06934 0.0
C3603 C 0.35947 0.49306 0.0525 0.0
C3604 C 0.35489 0.5227 0.07744 0.0
C3605 C 0.31708 0.5011 0.0946 0.0
C3606 C 0.35361 0.54032 0.06429 0.0
C3607 C 0.35689 0.56043 0.07241 0.0
C3608 C 0.36146 0.56324 0.09387 0.0
C3609 C 0.3639 0.54543 0.10674 0.0
C3610 C 0.36071 0.5253 0.09855 0.0
H3611 H 0.30138 0.49352 0.09587 0.0
H3612 H 0.32544 0.49878 0.10974 0.0
H3613 H 0.31481 0.51825 0.09228 0.0
H3614 H 0.34918 0.53858 0.04792 0.0
H3615 H 0.35509 0.57379 0.06201 0.0
H3616 H 0.33053 0.54276 0.80796 0.0
H3617 H 0.30029 0.5636 0.81919 0.0
H3618 H 0.28898 0.58221 0.75498 0.0
H3619 H 0.31919 0.56124 0.74354 0.0
H3620 H 0.2878 0.60778 0.8127 0.0
H3621 H 0.23558 0.54888 0.77389 0.0
H3622 H 0.26299 0.54367 0.77902 0.0
H3623 H 0.25561 0.56098 0.75802 0.0
C3624 C 0.32182 0.55156 0.79627 0.0
C3625 C 0.32701 0.55018 0.77486 0.0
C3626 C 0.30462 0.56351 0.80272 0.0
C3627 C 0.29235 0.57418 0.78786 0.0
C3628 C 0.29821 0.57387 0.76662 0.0
H3629 H 0.16377 0.61456 0.8146 0.0
H3630 H 0.19718 0.61066 0.796 0.0
C3631 C 0.31545 0.56193 0.76014 0.0
C3632 C 0.27232 0.58375 0.79452 0.0
H3633 H 0.21946 0.57491 0.79418 0.0
C3634 C 0.2728 0.60084 0.80845 0.0
C3635 C 0.25285 0.57465 0.78882 0.0
C3636 C 0.25156 0.55595 0.77422 0.0
C3637 C 0.25424 0.60871 0.81737 0.0
C3638 C 0.23488 0.59885 0.81256 0.0
C3639 C 0.23435 0.58242 0.79784 0.0
C3640 C 0.21527 0.60381 0.824 0.0
C3641 C 0.25559 0.62729 0.83206 0.0
C3642 C 0.21441 0.60125 0.84589 0.0
C3643 C 0.19539 0.60348 0.85656 0.0
C3644 C 0.17681 0.60799 0.84548 0.0
C3645 C 0.17778 0.61094 0.82358 0.0
C3646 C 0.19686 0.60881 0.81293 0.0
H3647 H 0.26943 0.6373 0.82835 0.0
H3648 H 0.24118 0.6371 0.83125 0.0
H3649 H 0.25747 0.62155 0.84842 0.0
H3650 H 0.2283 0.5968 0.85467 0.0
H3651 H 0.19519 0.60108 0.87342 0.0
H3652 H 0.22777 0.56665 0.54812 0.0
H3653 H 0.20314 0.54197 0.56391 0.0
H3654 H 0.15105 0.57995 0.54278 0.0
H3655 H 0.1758 0.60445 0.52611 0.0
H3656 H 0.17418 0.5466 0.59413 0.0
H3657 H 0.13553 0.52326 0.51901 0.0
H3658 H 0.1591 0.53902 0.5196 0.0
H3659 H 0.13413 0.55061 0.52591 0.0
C3660 C 0.21107 0.56979 0.54684 0.0
C3661 C 0.20366 0.58734 0.53575 0.0
C3662 C 0.19701 0.55571 0.55593 0.0
C3663 C 0.17525 0.55898 0.55431 0.0
C3664 C 0.16776 0.57689 0.54382 0.0
H3665 H 0.11167 0.45891 0.62636 0.0
H3666 H 0.11701 0.49491 0.61367 0.0
C3667 C 0.18189 0.59089 0.53442 0.0
C3668 C 0.16084 0.54304 0.56324 0.0
H3669 H 0.12681 0.50403 0.54908 0.0
C3670 C 0.16353 0.53745 0.58441 0.0
C3671 C 0.14693 0.53126 0.55046 0.0
C3672 C 0.14377 0.53617 0.52745 0.0
C3673 C 0.15416 0.51934 0.59273 0.0
C3674 C 0.141 0.50696 0.57967 0.0
C3675 C 0.13691 0.51356 0.559 0.0
C3676 C 0.13434 0.48554 0.58591 0.0
C3677 C 0.15986 0.51278 0.61483 0.0
C3678 C 0.1411 0.46835 0.57384 0.0
C3679 C 0.13765 0.44787 0.58076 0.0
C3680 C 0.12761 0.44418 0.60006 0.0
C3681 C 0.11979 0.46134 0.6116 0.0
C3682 C 0.12291 0.48189 0.60442 0.0
H3683 H 0.1733 0.52198 0.6212 0.0
H3684 H 0.14619 0.51537 0.62533 0.0
H3685 H 0.16406 0.49585 0.61538 0.0
H3686 H 0.14991 0.47078 0.55946 0.0
H3687 H 0.14378 0.435 0.57145 0.0
H3688 H 0.18292 0.54139 0.25576 0.0
H3689 H 0.21156 0.56296 0.24183 0.0
H3690 H 0.18426 0.55916 0.17982 0.0
H3691 H 0.15543 0.53786 0.19368 0.0
H3692 H 0.23878 0.54811 0.21181 0.0
H3693 H 0.20042 0.62116 0.18387 0.0
H3694 H 0.18792 0.60331 0.20208 0.0
H3695 H 0.18803 0.59762 0.17437 0.0
C3696 C 0.18281 0.5455 0.23924 0.0
C3697 C 0.16702 0.53789 0.22577 0.0
C3698 C 0.19914 0.55784 0.23132 0.0
C3699 C 0.19988 0.56284 0.20986 0.0
C3700 C 0.18373 0.55587 0.19652 0.0
H3701 H 0.29257 0.60345 0.12114 0.0
H3702 H 0.26049 0.59339 0.1398 0.0
C3703 C 0.16737 0.54356 0.20443 0.0
C3704 C 0.21873 0.57313 0.20098 0.0
H3705 H 0.23519 0.61446 0.17097 0.0
C3706 C 0.23807 0.56278 0.20314 0.0
C3707 C 0.21765 0.59217 0.18957 0.0
C3708 C 0.19742 0.60433 0.18747 0.0
C3709 C 0.2563 0.57058 0.19359 0.0
C3710 C 0.25518 0.58943 0.18189 0.0
C3711 C 0.23593 0.60001 0.18 0.0
C3712 C 0.27377 0.59781 0.17081 0.0
C3713 C 0.27643 0.55814 0.19543 0.0
C3714 C 0.29159 0.60418 0.18214 0.0
C3715 C 0.30996 0.60979 0.17157 0.0
C3716 C 0.31077 0.60924 0.14947 0.0
C3717 C 0.29252 0.60389 0.13817 0.0
C3718 C 0.27416 0.5982 0.14878 0.0
H3719 H 0.27356 0.54184 0.20103 0.0
H3720 H 0.28468 0.55737 0.18007 0.0
H3721 H 0.28703 0.56599 0.20687 0.0
H3722 H 0.29142 0.6043 0.19917 0.0
H3723 H 0.32366 0.61413 0.18075 0.0
H3724 H 0.20257 0.39581 0.93997 0.0
H3725 H 0.17863 0.42079 0.92312 0.0
H3726 H 0.1822 0.46104 0.97762 0.0
H3727 H 0.20588 0.43601 0.99471 0.0
H3728 H 0.14087 0.45734 0.95931 0.0
H3729 H 0.2031 0.47657 0.90074 0.0
H3730 H 0.19561 0.4494 0.90267 0.0
H3731 H 0.2086 0.46194 0.92439 0.0
C3732 C 0.19804 0.40987 0.94846 0.0
C3733 C 0.20627 0.41414 0.96853 0.0
C3734 C 0.18441 0.4241 0.9388 0.0
C3735 C 0.17895 0.44285 0.94903 0.0
C3736 C 0.18629 0.44663 0.96949 0.0
H3737 H 0.13107 0.56443 0.93128 0.0
H3738 H 0.1395 0.52932 0.94391 0.0
C3739 C 0.19986 0.43238 0.97918 0.0
C3740 C 0.16703 0.45937 0.93793 0.0
H3741 H 0.17195 0.49602 0.89916 0.0
C3742 C 0.1475 0.46566 0.94599 0.0
C3743 C 0.17574 0.47009 0.92051 0.0
C3744 C 0.19697 0.46433 0.91159 0.0
C3745 C 0.13667 0.48286 0.93741 0.0
C3746 C 0.14587 0.49418 0.92064 0.0
C3747 C 0.16492 0.48725 0.91199 0.0
C3748 C 0.13741 0.51454 0.9133 0.0
C3749 C 0.11567 0.4889 0.94658 0.0
C3750 C 0.13347 0.51793 0.89186 0.0
C3751 C 0.12889 0.53811 0.8845 0.0
C3752 C 0.12837 0.55526 0.89847 0.0
C3753 C 0.13141 0.5516 0.92007 0.0
C3754 C 0.13601 0.53146 0.92738 0.0
H3755 H 0.10764 0.47509 0.95364 0.0
H3756 H 0.11813 0.50067 0.95924 0.0
H3757 H 0.10521 0.49591 0.93447 0.0
H3758 H 0.13464 0.50508 0.88073 0.0
H3759 H 0.12652 0.54036 0.86779 0.0
H3760 H 0.31015 0.45823 0.76322 0.0
H3761 H 0.28035 0.43833 0.74912 0.0
H3762 H 0.30692 0.44242 0.68688 0.0
H3763 H 0.33686 0.46206 0.70087 0.0
H3764 H 0.25343 0.45531 0.71961 0.0
H3765 H 0.28792 0.3811 0.68973 0.0
H3766 H 0.30139 0.39787 0.70832 0.0
H3767 H 0.30146 0.40419 0.68076 0.0
C3768 C 0.30986 0.45449 0.74661 0.0
C3769 C 0.32576 0.46174 0.73311 0.0
C3770 C 0.29284 0.44313 0.73859 0.0
C3771 C 0.29156 0.43872 0.71701 0.0
C3772 C 0.30783 0.44526 0.70365 0.0
H3773 H 0.19748 0.40391 0.62724 0.0
H3774 H 0.22965 0.4128 0.64637 0.0
C3775 C 0.32485 0.45662 0.71164 0.0
C3776 C 0.27214 0.42957 0.70809 0.0
H3777 H 0.25354 0.38993 0.677 0.0
C3778 C 0.25336 0.44084 0.71056 0.0
C3779 C 0.27221 0.4108 0.69618 0.0
C3780 C 0.29179 0.39766 0.69373 0.0
C3781 C 0.23474 0.43425 0.7008 0.0
C3782 C 0.23488 0.41569 0.68856 0.0
C3783 C 0.25355 0.40416 0.68641 0.0
C3784 C 0.21592 0.40857 0.67719 0.0
C3785 C 0.21529 0.44767 0.70297 0.0
C3786 C 0.19776 0.40279 0.68824 0.0
C3787 C 0.17932 0.39782 0.6774 0.0
C3788 C 0.1788 0.39845 0.65529 0.0
C3789 C 0.1973 0.40343 0.64426 0.0
C3790 C 0.21571 0.40844 0.65515 0.0
H3791 H 0.219 0.46365 0.70901 0.0
H3792 H 0.20709 0.44926 0.68763 0.0
H3793 H 0.20429 0.44009 0.71419 0.0
H3794 H 0.19775 0.40246 0.70527 0.0
H3795 H 0.16542 0.39379 0.68637 0.0
H3796 H 0.28885 0.60808 0.44346 0.0
H3797 H 0.31051 0.58391 0.42258 0.0
H3798 H 0.30957 0.53912 0.47346 0.0
H3799 H 0.28812 0.56309 0.49439 0.0
H3800 H 0.35052 0.54615 0.45328 0.0
H3801 H 0.28517 0.5286 0.39735 0.0
H3802 H 0.29212 0.55568 0.40179 0.0
H3803 H 0.28045 0.54066 0.4226 0.0
C3804 C 0.29339 0.59313 0.45021 0.0
C3805 C 0.28669 0.58736 0.47047 0.0
C3806 C 0.30571 0.57938 0.43828 0.0
C3807 C 0.31145 0.55974 0.44649 0.0
C3808 C 0.30528 0.55425 0.46691 0.0
H3809 H 0.35831 0.43959 0.42657 0.0
H3810 H 0.35002 0.47496 0.43857 0.0
C3811 C 0.29297 0.56791 0.47879 0.0
C3812 C 0.32296 0.54423 0.43367 0.0
H3813 H 0.31545 0.50791 0.39496 0.0
C3814 C 0.34306 0.538 0.44027 0.0
C3815 C 0.3132 0.53383 0.41662 0.0
C3816 C 0.29151 0.53986 0.40912 0.0
C3817 C 0.35327 0.52089 0.43087 0.0
C3818 C 0.34285 0.50953 0.41483 0.0
C3819 C 0.32336 0.51663 0.40732 0.0
C3820 C 0.35046 0.48883 0.40749 0.0
C3821 C 0.37485 0.51481 0.43858 0.0
C3822 C 0.35325 0.48482 0.38598 0.0
C3823 C 0.35778 0.46448 0.379 0.0
C3824 C 0.35937 0.44779 0.39344 0.0
C3825 C 0.35716 0.45204 0.41502 0.0
C3826 C 0.35264 0.47233 0.42194 0.0
H3827 H 0.38349 0.5287 0.44476 0.0
H3828 H 0.37325 0.50336 0.45164 0.0
H3829 H 0.38432 0.50747 0.4259 0.0
H3830 H 0.35143 0.49733 0.37457 0.0
H3831 H 0.35944 0.46174 0.36228 0.0
H3832 H 0.30399 0.15918 0.45625 0.0
H3833 H 0.32016 0.18815 0.43683 0.0
H3834 H 0.26053 0.22033 0.43491 0.0
H3835 H 0.2441 0.19118 0.45399 0.0
H3836 H 0.28459 0.22358 0.39706 0.0
H3837 H 0.33096 0.2435 0.46852 0.0
H3838 H 0.33419 0.21701 0.45929 0.0
H3839 H 0.30907 0.22545 0.46907 0.0
C3840 C 0.29425 0.17229 0.45142 0.0
C3841 C 0.27286 0.1731 0.45684 0.0
C3842 C 0.30352 0.18882 0.44039 0.0
C3843 C 0.2916 0.2065 0.43485 0.0
C3844 C 0.26998 0.20682 0.43916 0.0
H3845 H 0.31553 0.33226 0.39141 0.0
H3846 H 0.2999 0.29825 0.39994 0.0
C3847 C 0.26065 0.1902 0.45007 0.0
C3848 C 0.30198 0.22531 0.42607 0.0
H3849 H 0.33758 0.26359 0.43816 0.0
C3850 C 0.29622 0.23233 0.40596 0.0
C3851 C 0.31705 0.23669 0.43785 0.0
C3852 C 0.32309 0.23045 0.45995 0.0
C3853 C 0.30535 0.25043 0.39722 0.0
C3854 C 0.32034 0.26183 0.40907 0.0
C3855 C 0.32619 0.25468 0.42908 0.0
C3856 C 0.32961 0.28176 0.40158 0.0
C3857 C 0.29902 0.25711 0.37536 0.0
C3858 C 0.3515 0.28377 0.39983 0.0
C3859 C 0.36051 0.30322 0.39518 0.0
C3860 C 0.34778 0.32106 0.39234 0.0
C3861 C 0.3258 0.31885 0.39354 0.0
C3862 C 0.31681 0.29938 0.39822 0.0
H3863 H 0.29208 0.24385 0.36632 0.0
H3864 H 0.28701 0.2697 0.37648 0.0
H3865 H 0.3127 0.26341 0.36653 0.0
H3866 H 0.36162 0.27034 0.40251 0.0
H3867 H 0.37748 0.30435 0.39426 0.0
H3868 H 0.80207 0.34824 0.54182 0.0
H3869 H 0.82091 0.32102 0.56147 0.0
H3870 H 0.7646 0.28322 0.56321 0.0
H3871 H 0.74557 0.31047 0.54392 0.0
H3872 H 0.78814 0.28314 0.6014 0.0
H3873 H 0.83755 0.26636 0.53111 0.0
H3874 H 0.83798 0.29301 0.54049 0.0
H3875 H 0.81415 0.2823 0.52972 0.0
C3876 C 0.79365 0.33424 0.54664 0.0
C3877 C 0.77243 0.33133 0.54115 0.0
C3878 C 0.80444 0.31871 0.55779 0.0
C3879 C 0.79421 0.30001 0.56343 0.0
C3880 C 0.77276 0.29755 0.55891 0.0
H3881 H 0.81604 0.17519 0.60378 0.0
H3882 H 0.8025 0.21024 0.59636 0.0
C3883 C 0.76194 0.31309 0.54786 0.0
C3884 C 0.80604 0.28232 0.57269 0.0
H3885 H 0.84285 0.24521 0.5608 0.0
C3886 C 0.80026 0.27494 0.59265 0.0
C3887 C 0.82186 0.27173 0.5612 0.0
C3888 C 0.82821 0.27858 0.53938 0.0
C3889 C 0.8096 0.25693 0.60127 0.0
C3890 C 0.82483 0.24591 0.58943 0.0
C3891 C 0.83119 0.25376 0.56984 0.0
C3892 C 0.83307 0.22523 0.59608 0.0
C3893 C 0.80296 0.24974 0.62287 0.0
C3894 C 0.85478 0.22199 0.59811 0.0
C3895 C 0.86263 0.20189 0.60216 0.0
C3896 C 0.84887 0.18466 0.60402 0.0
C3897 C 0.82709 0.18809 0.60239 0.0
C3898 C 0.81928 0.20817 0.59837 0.0
H3899 H 0.79664 0.263 0.63233 0.0
H3900 H 0.79031 0.23781 0.62128 0.0
H3901 H 0.81629 0.24251 0.63152 0.0
H3902 H 0.86567 0.23496 0.59621 0.0
H3903 H 0.87949 0.1998 0.60339 0.0
H3904 H 0.42633 0.98456 0.30196 0.0
H3905 H 0.45467 -0.00271 0.32477 0.0
H3906 H 0.43501 0.06123 0.31363 0.0
H3907 H 0.40659 0.04866 0.29108 0.0
H3908 H 0.48576 0.02261 0.30889 0.0
H3909 H 0.44768 0.06189 0.3765 0.0
H3910 H 0.43404 0.04323 0.35993 0.0
H3911 H 0.43698 0.07015 0.35173 0.0
C3912 C 0.42779 0.0013 0.30476 0.0
C3913 C 0.4144 0.01565 0.29465 0.0
C3914 C 0.44391 0.00853 0.31782 0.0
C3915 C 0.44674 0.03017 0.32109 0.0
C3916 C 0.4328 0.04445 0.31173 0.0
H3917 H 0.54152 0.11876 0.3497 0.0
H3918 H 0.50889 0.09925 0.34376 0.0
C3919 C 0.4167 0.03725 0.29867 0.0
C3920 C 0.46593 0.03805 0.33154 0.0
H3921 H 0.48334 0.0725 0.36884 0.0
C3922 C 0.48532 0.03316 0.3223 0.0
C3923 C 0.46519 0.0519 0.3489 0.0
C3924 C 0.44485 0.05695 0.35998 0.0
C3925 C 0.50394 0.04268 0.32918 0.0
C3926 C 0.50313 0.05714 0.34607 0.0
C3927 C 0.48385 0.06141 0.35588 0.0
C3928 C 0.52194 0.0691 0.35255 0.0
C3929 C 0.5241 0.03809 0.31751 0.0
C3930 C 0.5398 0.05865 0.3601 0.0
C3931 C 0.55851 0.06968 0.36325 0.0
C3932 C 0.55956 0.09138 0.35913 0.0
C3933 C 0.54125 0.10203 0.35286 0.0
C3934 C 0.52259 0.09094 0.34954 0.0
H3935 H 0.52117 0.03009 0.30225 0.0
H3936 H 0.53301 0.0528 0.31447 0.0
H3937 H 0.53411 0.02762 0.32723 0.0
H3938 H 0.53945 0.04186 0.36291 0.0
H3939 H 0.57227 0.06111 0.36847 0.0
H3940 H 0.69567 0.67336 0.01578 0.0
H3941 H 0.6803 0.70159 0.03697 0.0
H3942 H 0.73097 0.69606 0.08166 0.0
H3943 H 0.74648 0.66772 0.06064 0.0
H3944 H 0.67512 0.70115 0.09078 0.0
H3945 H 0.72544 0.7596 0.04894 0.0
H3946 H 0.71626 0.73626 0.03559 0.0
H3947 H 0.73563 0.73406 0.05592 0.0
C3948 C 0.7034 0.67796 0.03025 0.0
C3949 C 0.72233 0.66847 0.03651 0.0
C3950 C 0.69457 0.69399 0.04234 0.0
C3951 C 0.70456 0.70074 0.06078 0.0
C3952 C 0.72306 0.69088 0.06748 0.0
H3953 H 0.68213 0.82143 0.12052 0.0
H3954 H 0.69768 0.78749 0.1115 0.0
C3955 C 0.73189 0.67479 0.05544 0.0
C3956 C 0.69657 0.71932 0.07197 0.0
H3957 H 0.70041 0.77269 0.07258 0.0
C3958 C 0.6807 0.71682 0.08702 0.0
C3959 C 0.70413 0.73956 0.06704 0.0
C3960 C 0.72132 0.74275 0.051 0.0
C3961 C 0.67183 0.73434 0.0971 0.0
C3962 C 0.67878 0.75474 0.09151 0.0
C3963 C 0.6951 0.75706 0.07685 0.0
C3964 C 0.66871 0.77404 0.09967 0.0
C3965 C 0.6552 0.73081 0.11362 0.0
C3966 C 0.64721 0.77763 0.09626 0.0
C3967 C 0.63825 0.79694 0.10154 0.0
C3968 C 0.65074 0.81313 0.10996 0.0
C3969 C 0.67214 0.80931 0.11389 0.0
C3970 C 0.68104 0.78992 0.10882 0.0
H3971 H 0.6568 0.71505 0.12097 0.0
H3972 H 0.65601 0.74295 0.12615 0.0
H3973 H 0.63945 0.73159 0.10615 0.0
H3974 H 0.63752 0.76582 0.0887 0.0
H3975 H 0.62173 0.79945 0.09823 0.0
H3976 H 0.59573 0.48772 0.31404 0.0
H3977 H 0.56993 0.47061 0.33704 0.0
H3978 H 0.53574 0.44897 0.28252 0.0
H3979 H 0.56161 0.46548 0.25959 0.0
H3980 H 0.52855 0.47795 0.34084 0.0
H3981 H 0.5401 0.39564 0.3162 0.0
H3982 H 0.55859 0.41617 0.30964 0.0
H3983 H 0.53549 0.41197 0.29372 0.0
C3984 C 0.5828 0.47913 0.30702 0.0
C3985 C 0.58071 0.4778 0.28505 0.0
C3986 C 0.56812 0.46937 0.32015 0.0
C3987 C 0.55119 0.45814 0.31148 0.0
C3988 C 0.54903 0.457 0.28955 0.0
H3989 H 0.4263 0.43767 0.34666 0.0
H3990 H 0.46099 0.45189 0.339 0.0
C3991 C 0.56373 0.46659 0.27645 0.0
C3992 C 0.53495 0.44861 0.32512 0.0
H3993 H 0.50584 0.404 0.33077 0.0
C3994 C 0.52383 0.46166 0.339 0.0
C3995 C 0.52917 0.42723 0.32318 0.0
C3996 C 0.54165 0.41192 0.31005 0.0
C3997 C 0.50604 0.45428 0.34973 0.0
C3998 C 0.49892 0.43352 0.34597 0.0
C3999 C 0.51104 0.42004 0.33339 0.0
C4000 C 0.47806 0.42603 0.35312 0.0
C4001 C 0.49487 0.46893 0.36466 0.0
C4002 C 0.47603 0.40658 0.36335 0.0
C4003 C 0.45614 0.39816 0.36732 0.0
C4004 C 0.43794 0.40908 0.36118 0.0
C4005 C 0.44001 0.42891 0.35168 0.0
C4006 C 0.45988 0.43718 0.34748 0.0
H4007 H 0.50611 0.48015 0.37198 0.0
H4008 H 0.48314 0.4783 0.35579 0.0
H4009 H 0.48664 0.46018 0.37732 0.0
H4010 H 0.48986 0.39765 0.36773 0.0
H4011 H 0.45503 0.3829 0.3748 0.0
H4012 H 0.18499 0.83855 0.95238 0.0
H4013 H 0.17358 0.80775 0.93235 0.0
H4014 H 0.23824 0.79191 0.91961 0.0
H4015 H 0.24984 0.82255 0.93987 0.0
H4016 H 0.18176 0.79172 0.89032 0.0
H4017 H 0.21486 0.74194 0.95436 0.0
H4018 H 0.21115 0.7699 0.95733 0.0
H4019 H 0.23269 0.76004 0.942 0.0
C4020 C 0.19677 0.82873 0.94499 0.0
C4021 C 0.2183 0.83273 0.94793 0.0
C4022 C 0.19023 0.8112 0.93352 0.0
C4023 C 0.20511 0.79745 0.92484 0.0
C4024 C 0.22657 0.80222 0.92648 0.0
H4025 H 0.17928 0.66784 0.88718 0.0
H4026 H 0.19756 0.70141 0.89155 0.0
C4027 C 0.23314 0.81973 0.938 0.0
C4028 C 0.19811 0.77712 0.91611 0.0
H4029 H 0.19678 0.72472 0.92731 0.0
C4030 C 0.18521 0.77701 0.89821 0.0
C4031 C 0.20271 0.75801 0.92651 0.0
C4032 C 0.21598 0.75734 0.9462 0.0
C4033 C 0.1764 0.75823 0.89065 0.0
C4034 C 0.18031 0.73927 0.90157 0.0
C4035 C 0.19386 0.7393 0.91897 0.0
C4036 C 0.16918 0.7195 0.89647 0.0
C4037 C 0.16286 0.7589 0.87118 0.0
C4038 C 0.14719 0.71858 0.89782 0.0
C4039 C 0.1367 0.69947 0.89537 0.0
C4040 C 0.14805 0.68085 0.89178 0.0
C4041 C 0.17008 0.68188 0.89006 0.0
C4042 C 0.18055 0.70104 0.89246 0.0
H4043 H 0.16704 0.77249 0.86103 0.0
H4044 H 0.16438 0.74422 0.86185 0.0
H4045 H 0.14616 0.76071 0.87587 0.0
H4046 H 0.13816 0.73254 0.90147 0.0
H4047 H 0.11974 0.69925 0.89679 0.0
H4048 H 0.43075 0.00829 0.20019 0.0
H4049 H 0.46037 0.99579 0.17912 0.0
H4050 H 0.43406 0.93324 0.1791 0.0
H4051 H 0.40427 0.94567 0.19985 0.0
H4052 H 0.4869 0.96597 0.19507 0.0
H4053 H 0.45472 0.93893 0.11872 0.0
H4054 H 0.4405 0.95643 0.13599 0.0
H4055 H 0.44075 0.92859 0.14094 0.0
C4056 C 0.43102 0.99199 0.19525 0.0
C4057 C 0.41531 0.9779 0.20177 0.0
C4058 C 0.44792 0.98489 0.18319 0.0
C4059 C 0.4493 0.96365 0.17739 0.0
C4060 C 0.43307 0.94979 0.183 0.0
H4061 H 0.54577 0.87634 0.14378 0.0
H4062 H 0.51266 0.89468 0.15066 0.0
C4063 C 0.41615 0.95688 0.19501 0.0
C4064 C 0.469 0.95536 0.16833 0.0
H4065 H 0.48896 0.92598 0.1281 0.0
C4066 C 0.48744 0.95754 0.18025 0.0
C4067 C 0.46955 0.94418 0.14911 0.0
C4068 C 0.45035 0.94204 0.13534 0.0
C4069 C 0.50629 0.94819 0.17388 0.0
C4070 C 0.50679 0.93671 0.15484 0.0
C4071 C 0.48847 0.93484 0.14267 0.0
C4072 C 0.52608 0.92583 0.14796 0.0
C4073 C 0.5253 0.94997 0.18803 0.0
C4074 C 0.54435 0.93734 0.14354 0.0
C4075 C 0.56329 0.92696 0.13983 0.0
C4076 C 0.56422 0.90487 0.14028 0.0
C4077 C 0.5456 0.89337 0.14349 0.0
C4078 C 0.52667 0.90379 0.14734 0.0
H4079 H 0.52103 0.95524 0.20412 0.0
H4080 H 0.53361 0.93467 0.18921 0.0
H4081 H 0.5364 0.96165 0.18133 0.0
H4082 H 0.54407 0.95437 0.14359 0.0
H4083 H 0.57728 0.93627 0.13704 0.0
H4084 H 0.06128 0.98766 0.70875 0.0
H4085 H 0.03169 -4e-05 0.68742 0.0
H4086 H 0.05742 0.06274 0.68793 0.0
H4087 H 0.08713 0.05055 0.70902 0.0
H4088 H 0.00396 0.03032 0.70148 0.0
H4089 H 0.04044 0.05506 0.62634 0.0
H4090 H 0.05351 0.03788 0.64479 0.0
H4091 H 0.05322 0.06582 0.64912 0.0
C4092 C 0.06081 0.00401 0.70399 0.0
C4093 C 0.07644 0.01819 0.71058 0.0
C4094 C 0.04394 0.01098 0.6918 0.0
C4095 C 0.04254 0.03218 0.68589 0.0
C4096 C 0.05846 0.04622 0.69193 0.0
H4097 H 0.94933 0.11862 0.64307 0.0
H4098 H 0.98146 0.10008 0.65312 0.0
C4099 C 0.07533 0.03927 0.70412 0.0
C4100 C 0.02334 0.04014 0.67554 0.0
H4101 H 0.00573 0.06806 0.63325 0.0
C4102 C 0.00425 0.03828 0.6864 0.0
C4103 C 0.02388 0.05062 0.65595 0.0
C4104 C 0.04383 0.05232 0.64326 0.0
C4105 C 0.98578 0.04736 0.67861 0.0
C4106 C 0.98639 0.05823 0.65923 0.0
C4107 C 0.00537 0.05969 0.6481 0.0
C4108 C 0.96763 0.06907 0.65091 0.0
C4109 C 0.96598 0.04603 0.69164 0.0
C4110 C 0.94946 0.05767 0.64576 0.0
C4111 C 0.93105 0.0682 0.64018 0.0
C4112 C 0.93056 0.0903 0.6395 0.0
C4113 C 0.94914 0.1016 0.6436 0.0
C4114 C 0.96752 0.09105 0.64928 0.0
H4115 H 0.9693 0.04122 0.70811 0.0
H4116 H 0.95768 0.06138 0.69191 0.0
H4117 H 0.95525 0.03419 0.68462 0.0
H4118 H 0.9494 0.04066 0.64656 0.0
H4119 H 0.91709 0.05901 0.63681 0.0
loop_
_geom_bond_atom_site_label_1
_geom_bond_atom_site_label_2
_geom_bond_distance
_geom_bond_site_symmetry_2
_ccdc_geom_bond_type
In0 O1 2.322 . S
In0 O2 2.323 1_455 S
In0 O6 2.294 . S
In0 O7 2.321 1_455 S
In0 O8 2.239 1_455 S
In0 O9 2.331 . S
In0 O11 2.266 1_455 S
In0 O12 2.330 . S
O1 In0 2.322 . S
O1 C10 1.240 . S
O2 In0 2.323 1_655 S
O2 C10 1.252 1_655 S
C3 O6 1.252 . S
C3 O7 1.260 1_455 S
C4 O11 1.240 . S
C4 O12 1.252 1_655 S
C5 O8 1.252 . S
C5 O9 1.260 1_655 S
O6 In0 2.294 . S
O6 C3 1.252 . S
O7 In0 2.321 1_655 S
O7 C3 1.260 1_655 S
O8 In0 2.239 1_655 S
O8 C5 1.252 . S
O9 In0 2.331 . S
O9 C5 1.260 1_455 S
C10 O1 1.240 . S
C10 O2 1.252 1_455 S
O11 In0 2.266 1_655 S
O11 C4 1.240 . S
O12 In0 2.330 . S
O12 C4 1.252 1_455 S
In13 O14 2.294 1_455 S
In13 O15 2.326 1_455 S
In13 O19 2.266 . S
In13 O20 2.326 . S
In13 O21 2.266 1_455 S
In13 O22 2.326 1_455 S
In13 O24 2.294 . S
In13 O25 2.326 . S
O14 In13 2.294 1_655 S
O14 C23 1.240 . S
O15 In13 2.326 1_655 S
O15 C23 1.252 . S
C16 O19 1.252 . S
C16 O20 1.260 . S
C17 O24 1.240 . S
C17 O25 1.252 . S
C18 O21 1.252 . S
C18 O22 1.260 . S
O19 In13 2.266 . S
O19 C16 1.252 . S
O20 In13 2.326 . S
O20 C16 1.260 . S
O21 In13 2.266 1_655 S
O21 C18 1.252 . S
O22 In13 2.326 1_655 S
O22 C18 1.260 . S
C23 O14 1.240 . S
C23 O15 1.252 . S
O24 In13 2.294 . S
O24 C17 1.240 . S
O25 In13 2.326 . S
O25 C17 1.252 . S
In26 O27 2.294 . S
In26 O28 2.326 . S
In26 O32 2.266 . S
In26 O33 2.326 . S
In26 O34 2.266 . S
In26 O35 2.326 . S
In26 O37 2.294 . S
In26 O38 2.326 . S
O27 In26 2.294 . S
O27 C36 1.240 . S
O28 In26 2.326 . S
O28 C36 1.252 . S
C29 O32 1.252 . S
C29 O33 1.260 . S
C30 O37 1.240 . S
C30 O38 1.252 . S
C31 O34 1.252 . S
C31 O35 1.260 . S
O32 In26 2.266 . S
O32 C29 1.252 . S
O33 In26 2.326 . S
O33 C29 1.260 . S
O34 In26 2.266 . S
O34 C31 1.252 . S
O35 In26 2.326 . S
O35 C31 1.260 . S
C36 O27 1.240 . S
C36 O28 1.252 . S
O37 In26 2.294 . S
O37 C30 1.240 . S
O38 In26 2.326 . S
O38 C30 1.252 . S
In39 O40 2.294 . S
In39 O41 2.326 . S
In39 O45 2.266 . S
In39 O46 2.326 . S
In39 O47 2.266 . S
In39 O48 2.326 . S
In39 O50 2.294 . S
In39 O51 2.326 . S
O40 In39 2.294 . S
O40 C49 1.240 . S
O41 In39 2.326 . S
O41 C49 1.252 . S
C42 O45 1.252 . S
C42 O46 1.260 . S
C43 O50 1.240 . S
C43 O51 1.252 . S
C44 O47 1.252 . S
C44 O48 1.260 . S
O45 In39 2.266 . S
O45 C42 1.252 . S
O46 In39 2.326 . S
O46 C42 1.260 . S
O47 In39 2.266 . S
O47 C44 1.252 . S
O48 In39 2.326 . S
O48 C44 1.260 . S
C49 O40 1.240 . S
C49 O41 1.252 . S
O50 In39 2.294 . S
O50 C43 1.240 . S
O51 In39 2.326 . S
O51 C43 1.252 . S
In52 O53 2.282 1_455 S
In52 O54 2.328 . S
In52 O58 2.254 1_455 S
In52 O59 2.328 . S
In52 O60 2.279 . S
In52 O61 2.324 1_455 S
In52 O63 2.306 . S
In52 O64 2.325 1_455 S
O53 In52 2.282 1_655 S
O53 C62 1.240 . S
O54 In52 2.328 . S
O54 C62 1.252 1_455 S
C55 O58 1.252 . S
C55 O59 1.260 1_655 S
C56 O63 1.240 . S
C56 O64 1.252 1_455 S
C57 O60 1.252 . S
C57 O61 1.260 1_455 S
O58 In52 2.254 1_655 S
O58 C55 1.252 . S
O59 In52 2.328 . S
O59 C55 1.260 1_455 S
O60 In52 2.279 . S
O60 C57 1.252 . S
O61 In52 2.324 1_655 S
O61 C57 1.260 1_655 S
C62 O53 1.240 . S
C62 O54 1.252 1_655 S
O63 In52 2.306 . S
O63 C56 1.240 . S
O64 In52 2.325 1_655 S
O64 C56 1.252 1_655 S
In65 O66 2.294 . S
In65 O67 2.326 . S
In65 O71 2.266 . S
In65 O72 2.326 . S
In65 O73 2.266 . S
In65 O74 2.326 . S
In65 O76 2.294 . S
In65 O77 2.326 . S
O66 In65 2.294 . S
O66 C75 1.240 . S
O67 In65 2.326 . S
O67 C75 1.252 . S
C68 O71 1.252 . S
C68 O72 1.260 . S
C69 O76 1.240 . S
C69 O77 1.252 . S
C70 O73 1.252 . S
C70 O74 1.260 . S
O71 In65 2.266 . S
O71 C68 1.252 . S
O72 In65 2.326 . S
O72 C68 1.260 . S
O73 In65 2.266 . S
O73 C70 1.252 . S
O74 In65 2.326 . S
O74 C70 1.260 . S
C75 O66 1.240 . S
C75 O67 1.252 . S
O76 In65 2.294 . S
O76 C69 1.240 . S
O77 In65 2.326 . S
O77 C69 1.252 . S
In78 O79 2.294 . S
In78 O80 2.326 . S
In78 O84 2.266 . S
In78 O85 2.326 . S
In78 O86 2.266 . S
In78 O87 2.326 . S
In78 O89 2.294 . S
In78 O90 2.326 . S
O79 In78 2.294 . S
O79 C88 1.240 . S
O80 In78 2.326 . S
O80 C88 1.252 . S
C81 O84 1.252 . S
C81 O85 1.260 . S
C82 O89 1.240 . S
C82 O90 1.252 . S
C83 O86 1.252 . S
C83 O87 1.260 . S
O84 In78 2.266 . S
O84 C81 1.252 . S
O85 In78 2.326 . S
O85 C81 1.260 . S
O86 In78 2.266 . S
O86 C83 1.252 . S
O87 In78 2.326 . S
O87 C83 1.260 . S
C88 O79 1.240 . S
C88 O80 1.252 . S
O89 In78 2.294 . S
O89 C82 1.240 . S
O90 In78 2.326 . S
O90 C82 1.252 . S
In91 O92 2.299 . S
In91 O93 2.336 . S
In91 O97 2.261 1_455 S
In91 O98 2.316 1_455 S
In91 O99 2.271 . S
In91 O100 2.335 . S
In91 O102 2.288 1_455 S
In91 O103 2.317 1_455 S
O92 In91 2.299 . S
O92 C101 1.240 . S
O93 In91 2.336 . S
O93 C101 1.252 . S
C94 O97 1.252 . S
C94 O98 1.260 . S
C95 O102 1.240 . S
C95 O103 1.252 . S
C96 O99 1.252 . S
C96 O100 1.260 . S
O97 In91 2.261 1_655 S
O97 C94 1.252 . S
O98 In91 2.316 1_655 S
O98 C94 1.260 . S
O99 In91 2.271 . S
O99 C96 1.252 . S
O100 In91 2.335 . S
O100 C96 1.260 . S
C101 O92 1.240 . S
C101 O93 1.252 . S
O102 In91 2.288 1_655 S
O102 C95 1.240 . S
O103 In91 2.317 1_655 S
O103 C95 1.252 . S
In104 O105 2.294 1_545 S
In104 O106 2.326 . S
In104 O110 2.266 1_545 S
In104 O111 2.326 . S
In104 O112 2.266 . S
In104 O113 2.326 1_545 S
In104 O115 2.294 . S
In104 O116 2.326 1_545 S
O105 In104 2.294 1_565 S
O105 C114 1.240 . S
O106 In104 2.326 . S
O106 C114 1.252 1_545 S
C107 O110 1.252 . S
C107 O111 1.260 1_565 S
C108 O115 1.240 . S
C108 O116 1.252 1_545 S
C109 O112 1.252 . S
C109 O113 1.260 1_545 S
O110 In104 2.266 1_565 S
O110 C107 1.252 . S
O111 In104 2.326 . S
O111 C107 1.260 1_545 S
O112 In104 2.266 . S
O112 C109 1.252 . S
O113 In104 2.326 1_565 S
O113 C109 1.260 1_565 S
C114 O105 1.240 . S
C114 O106 1.252 1_565 S
O115 In104 2.294 . S
O115 C108 1.240 . S
O116 In104 2.326 1_565 S
O116 C108 1.252 1_565 S
In117 O118 2.294 . S
In117 O119 2.326 . S
In117 O123 2.266 . S
In117 O124 2.326 . S
In117 O125 2.266 . S
In117 O126 2.326 . S
In117 O128 2.294 . S
In117 O129 2.326 . S
O118 In117 2.294 . S
O118 C127 1.240 . S
O119 In117 2.326 . S
O119 C127 1.252 . S
C120 O123 1.252 . S
C120 O124 1.260 . S
C121 O128 1.240 . S
C121 O129 1.252 . S
C122 O125 1.252 . S
C122 O126 1.260 . S
O123 In117 2.266 . S
O123 C120 1.252 . S
O124 In117 2.326 . S
O124 C120 1.260 . S
O125 In117 2.266 . S
O125 C122 1.252 . S
O126 In117 2.326 . S
O126 C122 1.260 . S
C127 O118 1.240 . S
C127 O119 1.252 . S
O128 In117 2.294 . S
O128 C121 1.240 . S
O129 In117 2.326 . S
O129 C121 1.252 . S
In130 O131 2.294 1_545 S
In130 O132 2.326 . S
In130 O136 2.266 1_545 S
In130 O137 2.326 . S
In130 O138 2.266 . S
In130 O139 2.323 1_545 S
In130 O141 2.294 . S
In130 O142 2.326 . S
O131 In130 2.294 1_565 S
O131 C140 1.240 . S
O132 In130 2.326 . S
O132 C140 1.252 1_545 S
C133 O136 1.252 . S
C133 O137 1.260 1_565 S
C134 O141 1.240 . S
C134 O142 1.254 . S
C135 O138 1.252 . S
C135 O139 1.239 1_545 S
O136 In130 2.266 1_565 S
O136 C133 1.252 . S
O137 In130 2.326 . S
O137 C133 1.260 1_545 S
O138 In130 2.266 . S
O138 C135 1.252 . S
O139 In130 2.323 1_565 S
O139 C135 1.239 1_565 S
C140 O131 1.240 . S
C140 O132 1.252 1_565 S
O141 In130 2.294 . S
O141 C134 1.240 . S
O142 In130 2.326 . S
O142 C134 1.254 . S
In143 O144 2.294 . S
In143 O145 2.326 . S
In143 O149 2.266 1_554 S
In143 O150 2.326 1_554 S
In143 O151 2.266 . S
In143 O152 2.326 . S
In143 O154 2.294 1_554 S
In143 O155 2.326 1_554 S
O144 In143 2.294 . S
O144 C153 1.240 . S
O145 In143 2.326 . S
O145 C153 1.252 . S
C146 O149 1.252 . S
C146 O150 1.260 . S
C147 O154 1.240 . S
C147 O155 1.252 . S
C148 O151 1.252 . S
C148 O152 1.260 . S
O149 In143 2.266 1_556 S
O149 C146 1.252 . S
O150 In143 2.326 1_556 S
O150 C146 1.260 . S
O151 In143 2.266 . S
O151 C148 1.252 . S
O152 In143 2.326 . S
O152 C148 1.260 . S
C153 O144 1.240 . S
C153 O145 1.252 . S
O154 In143 2.294 1_556 S
O154 C147 1.240 . S
O155 In143 2.326 1_556 S
O155 C147 1.252 . S
In156 O157 2.281 1_554 S
In156 O158 2.328 . S
In156 O162 2.253 1_554 S
In156 O163 2.328 . S
In156 O164 2.279 . S
In156 O165 2.323 1_554 S
In156 O167 2.307 . S
In156 O168 2.324 1_554 S
O157 In156 2.281 1_556 S
O157 C166 1.240 . S
O158 In156 2.328 . S
O158 C166 1.252 1_554 S
C159 O162 1.252 . S
C159 O163 1.260 1_556 S
C160 O167 1.240 . S
C160 O168 1.252 1_554 S
C161 O164 1.252 . S
C161 O165 1.260 1_554 S
O162 In156 2.253 1_556 S
O162 C159 1.252 . S
O163 In156 2.328 . S
O163 C159 1.260 1_554 S
O164 In156 2.279 . S
O164 C161 1.252 . S
O165 In156 2.323 1_556 S
O165 C161 1.260 1_556 S
C166 O157 1.240 . S
C166 O158 1.252 1_556 S
O167 In156 2.307 . S
O167 C160 1.240 . S
O168 In156 2.324 1_556 S
O168 C160 1.252 1_556 S
In169 O170 2.294 . S
In169 O171 2.326 1_554 S
In169 O175 2.266 . S
In169 O176 2.326 1_554 S
In169 O177 2.266 1_554 S
In169 O178 2.326 . S
In169 O180 2.294 1_554 S
In169 O181 2.326 . S
O170 In169 2.294 . S
O170 C179 1.240 . S
O171 In169 2.326 1_556 S
O171 C179 1.252 1_556 S
C172 O175 1.252 . S
C172 O176 1.260 1_554 S
C173 O180 1.240 . S
C173 O181 1.252 1_556 S
C174 O177 1.252 . S
C174 O178 1.260 1_556 S
O175 In169 2.266 . S
O175 C172 1.252 . S
O176 In169 2.326 1_556 S
O176 C172 1.260 1_556 S
O177 In169 2.266 1_556 S
O177 C174 1.252 . S
O178 In169 2.326 . S
O178 C174 1.260 1_554 S
C179 O170 1.240 . S
C179 O171 1.252 1_554 S
O180 In169 2.294 1_556 S
O180 C173 1.240 . S
O181 In169 2.326 . S
O181 C173 1.252 1_554 S
In182 O183 2.294 . S
In182 O184 2.326 . S
In182 O188 2.266 . S
In182 O189 2.326 . S
In182 O190 2.266 . S
In182 O191 2.326 . S
In182 O193 2.294 . S
In182 O194 2.326 . S
O183 In182 2.294 . S
O183 C192 1.240 . S
O184 In182 2.326 . S
O184 C192 1.252 . S
C185 O188 1.252 . S
C185 O189 1.260 . S
C186 O193 1.240 . S
C186 O194 1.252 . S
C187 O190 1.252 . S
C187 O191 1.260 . S
O188 In182 2.266 . S
O188 C185 1.252 . S
O189 In182 2.326 . S
O189 C185 1.260 . S
O190 In182 2.266 . S
O190 C187 1.252 . S
O191 In182 2.326 . S
O191 C187 1.260 . S
C192 O183 1.240 . S
C192 O184 1.252 . S
O193 In182 2.294 . S
O193 C186 1.240 . S
O194 In182 2.326 . S
O194 C186 1.252 . S
In195 O196 2.294 . S
In195 O197 2.326 . S
In195 O201 2.266 . S
In195 O202 2.326 . S
In195 O203 2.266 . S
In195 O204 2.326 . S
In195 O206 2.294 . S
In195 O207 2.326 . S
O196 In195 2.294 . S
O196 C205 1.240 . S
O197 In195 2.326 . S
O197 C205 1.252 . S
C198 O201 1.252 . S
C198 O202 1.260 . S
C199 O206 1.240 . S
C199 O207 1.252 . S
C200 O203 1.252 . S
C200 O204 1.260 . S
O201 In195 2.266 . S
O201 C198 1.252 . S
O202 In195 2.326 . S
O202 C198 1.260 . S
O203 In195 2.266 . S
O203 C200 1.252 . S
O204 In195 2.326 . S
O204 C200 1.260 . S
C205 O196 1.240 . S
C205 O197 1.252 . S
O206 In195 2.294 . S
O206 C199 1.240 . S
O207 In195 2.326 . S
O207 C199 1.252 . S
In208 O209 2.294 1_545 S
In208 O210 2.326 1_545 S
In208 O214 2.266 . S
In208 O215 2.326 . S
In208 O216 2.266 1_545 S
In208 O217 2.326 1_545 S
In208 O219 2.294 . S
In208 O220 2.326 . S
O209 In208 2.294 1_565 S
O209 C218 1.240 . S
O210 In208 2.326 1_565 S
O210 C218 1.252 . S
C211 O214 1.252 . S
C211 O215 1.260 . S
C212 O219 1.240 . S
C212 O220 1.252 . S
C213 O216 1.252 . S
C213 O217 1.260 . S
O214 In208 2.266 . S
O214 C211 1.252 . S
O215 In208 2.326 . S
O215 C211 1.260 . S
O216 In208 2.266 1_565 S
O216 C213 1.252 . S
O217 In208 2.326 1_565 S
O217 C213 1.260 . S
C218 O209 1.240 . S
C218 O210 1.252 . S
O219 In208 2.294 . S
O219 C212 1.240 . S
O220 In208 2.326 . S
O220 C212 1.252 . S
In221 O222 2.294 . S
In221 O223 2.326 . S
In221 O227 2.266 . S
In221 O228 2.326 . S
In221 O229 2.266 . S
In221 O230 2.326 . S
In221 O232 2.294 . S
In221 O233 2.326 . S
O222 In221 2.294 . S
O222 C231 1.240 . S
O223 In221 2.326 . S
O223 C231 1.252 . S
C224 O227 1.252 . S
C224 O228 1.260 . S
C225 O232 1.240 . S
C225 O233 1.252 . S
C226 O229 1.252 . S
C226 O230 1.260 . S
O227 In221 2.266 . S
O227 C224 1.252 . S
O228 In221 2.326 . S
O228 C224 1.260 . S
O229 In221 2.266 . S
O229 C226 1.252 . S
O230 In221 2.326 . S
O230 C226 1.260 . S
C231 O222 1.240 . S
C231 O223 1.252 . S
O232 In221 2.294 . S
O232 C225 1.240 . S
O233 In221 2.326 . S
O233 C225 1.252 . S
In234 O235 2.294 . S
In234 O236 2.326 . S
In234 O240 2.266 . S
In234 O241 2.326 . S
In234 O242 2.266 . S
In234 O243 2.326 . S
In234 O245 2.294 . S
In234 O246 2.326 . S
O235 In234 2.294 . S
O235 C244 1.240 . S
O236 In234 2.326 . S
O236 C244 1.252 . S
C237 O240 1.252 . S
C237 O241 1.260 . S
C238 O245 1.240 . S
C238 O246 1.252 . S
C239 O242 1.252 . S
C239 O243 1.260 . S
O240 In234 2.266 . S
O240 C237 1.252 . S
O241 In234 2.326 . S
O241 C237 1.260 . S
O242 In234 2.266 . S
O242 C239 1.252 . S
O243 In234 2.326 . S
O243 C239 1.260 . S
C244 O235 1.240 . S
C244 O236 1.252 . S
O245 In234 2.294 . S
O245 C238 1.240 . S
O246 In234 2.326 . S
O246 C238 1.252 . S
In247 O248 2.294 1_545 S
In247 O249 2.326 1_545 S
In247 O253 2.266 . S
In247 O254 2.326 . S
In247 O255 2.266 1_545 S
In247 O256 2.326 1_545 S
In247 O258 2.294 . S
In247 O259 2.326 . S
O248 In247 2.294 1_565 S
O248 C257 1.240 . S
O249 In247 2.326 1_565 S
O249 C257 1.252 . S
C250 O253 1.252 . S
C250 O254 1.260 . S
C251 O258 1.240 . S
C251 O259 1.252 . S
C252 O255 1.252 . S
C252 O256 1.260 . S
O253 In247 2.266 . S
O253 C250 1.252 . S
O254 In247 2.326 . S
O254 C250 1.260 . S
O255 In247 2.266 1_565 S
O255 C252 1.252 . S
O256 In247 2.326 1_565 S
O256 C252 1.260 . S
C257 O248 1.240 . S
C257 O249 1.252 . S
O258 In247 2.294 . S
O258 C251 1.240 . S
O259 In247 2.326 . S
O259 C251 1.252 . S
In260 O261 2.294 . S
In260 O262 2.326 . S
In260 O266 2.266 1_554 S
In260 O267 2.326 1_554 S
In260 O268 2.266 . S
In260 O269 2.326 . S
In260 O271 2.294 1_554 S
In260 O272 2.326 1_554 S
O261 In260 2.294 . S
O261 C270 1.240 . S
O262 In260 2.326 . S
O262 C270 1.252 . S
C263 O266 1.252 . S
C263 O267 1.260 . S
C264 O271 1.240 . S
C264 O272 1.252 . S
C265 O268 1.252 . S
C265 O269 1.260 . S
O266 In260 2.266 1_556 S
O266 C263 1.252 . S
O267 In260 2.326 1_556 S
O267 C263 1.260 . S
O268 In260 2.266 . S
O268 C265 1.252 . S
O269 In260 2.326 . S
O269 C265 1.260 . S
C270 O261 1.240 . S
C270 O262 1.252 . S
O271 In260 2.294 1_556 S
O271 C264 1.240 . S
O272 In260 2.326 1_556 S
O272 C264 1.252 . S
In273 O274 2.294 . S
In273 O275 2.326 . S
In273 O279 2.266 . S
In273 O280 2.326 . S
In273 O281 2.266 . S
In273 O282 2.326 . S
In273 O284 2.294 . S
In273 O285 2.326 . S
O274 In273 2.294 . S
O274 C283 1.240 . S
O275 In273 2.326 . S
O275 C283 1.252 . S
C276 O279 1.252 . S
C276 O280 1.260 . S
C277 O284 1.240 . S
C277 O285 1.252 . S
C278 O281 1.252 . S
C278 O282 1.260 . S
O279 In273 2.266 . S
O279 C276 1.252 . S
O280 In273 2.326 . S
O280 C276 1.260 . S
O281 In273 2.266 . S
O281 C278 1.252 . S
O282 In273 2.326 . S
O282 C278 1.260 . S
C283 O274 1.240 . S
C283 O275 1.252 . S
O284 In273 2.294 . S
O284 C277 1.240 . S
O285 In273 2.326 . S
O285 C277 1.252 . S
In286 O287 2.294 . S
In286 O288 2.326 . S
In286 O292 2.266 . S
In286 O293 2.326 . S
In286 O294 2.266 . S
In286 O295 2.326 . S
In286 O297 2.294 . S
In286 O298 2.326 . S
O287 In286 2.294 . S
O287 C296 1.240 . S
O288 In286 2.326 . S
O288 C296 1.252 . S
C289 O292 1.252 . S
C289 O293 1.260 . S
C290 O297 1.240 . S
C290 O298 1.252 . S
C291 O294 1.252 . S
C291 O295 1.260 . S
O292 In286 2.266 . S
O292 C289 1.252 . S
O293 In286 2.326 . S
O293 C289 1.260 . S
O294 In286 2.266 . S
O294 C291 1.252 . S
O295 In286 2.326 . S
O295 C291 1.260 . S
C296 O287 1.240 . S
C296 O288 1.252 . S
O297 In286 2.294 . S
O297 C290 1.240 . S
O298 In286 2.326 . S
O298 C290 1.252 . S
In299 O300 2.294 . S
In299 O301 2.326 . S
In299 O305 2.266 . S
In299 O306 2.326 . S
In299 O307 2.266 . S
In299 O308 2.326 . S
In299 O310 2.294 . S
In299 O311 2.326 . S
O300 In299 2.294 . S
O300 C309 1.240 . S
O301 In299 2.326 . S
O301 C309 1.252 . S
C302 O305 1.252 . S
C302 O306 1.260 . S
C303 O310 1.240 . S
C303 O311 1.252 . S
C304 O307 1.252 . S
C304 O308 1.260 . S
O305 In299 2.266 . S
O305 C302 1.252 . S
O306 In299 2.326 . S
O306 C302 1.260 . S
O307 In299 2.266 . S
O307 C304 1.252 . S
O308 In299 2.326 . S
O308 C304 1.260 . S
C309 O300 1.240 . S
C309 O301 1.252 . S
O310 In299 2.294 . S
O310 C303 1.240 . S
O311 In299 2.326 . S
O311 C303 1.252 . S
Fe312 O314 1.918 . S
Fe312 O317 1.997 . S
Fe312 O318 2.002 . S
Fe312 O323 1.976 . S
Fe312 O326 1.996 . S
Fe313 O314 1.918 . S
Fe313 O321 1.997 . S
Fe313 O324 1.996 . S
Fe313 O328 1.976 . S
Fe313 O331 2.002 . S
O314 Fe312 1.918 . S
O314 Fe313 1.918 . S
O314 Fe315 1.918 . S
Fe315 O314 1.918 . S
Fe315 O316 2.002 . S
Fe315 O325 1.976 . S
Fe315 O329 1.996 . S
Fe315 O332 1.997 . S
O316 Fe315 2.002 . S
O316 C333 1.295 . S
O317 Fe312 1.997 . S
O317 C333 1.235 . S
O318 Fe312 2.002 . S
O318 C319 1.295 . S
C319 O318 1.295 . S
C319 O321 1.235 . S
C320 O325 1.287 . S
C320 O326 1.255 . S
O321 Fe313 1.997 . S
O321 C319 1.235 . S
C322 O328 1.287 . S
C322 O329 1.255 . S
O323 Fe312 1.976 . S
O323 C330 1.287 . S
O324 Fe313 1.996 . S
O324 C330 1.255 . S
O325 Fe315 1.976 . S
O325 C320 1.287 . S
O326 Fe312 1.996 . S
O326 C320 1.255 . S
C327 O331 1.295 . S
C327 O332 1.235 . S
O328 Fe313 1.976 . S
O328 C322 1.287 . S
O329 Fe315 1.996 . S
O329 C322 1.255 . S
C330 O323 1.287 . S
C330 O324 1.255 . S
O331 Fe313 2.002 . S
O331 C327 1.295 . S
O332 Fe315 1.997 . S
O332 C327 1.235 . S
C333 O316 1.295 . S
C333 O317 1.235 . S
Fe334 O336 1.918 . S
Fe334 O339 1.997 . S
Fe334 O340 2.002 . S
Fe334 O345 1.976 . S
Fe334 O348 1.996 . S
Fe335 O336 1.918 . S
Fe335 O343 1.997 . S
Fe335 O346 1.996 . S
Fe335 O350 1.976 . S
Fe335 O353 2.002 . S
O336 Fe334 1.918 . S
O336 Fe335 1.918 . S
O336 Fe337 1.918 . S
Fe337 O336 1.918 . S
Fe337 O338 2.002 . S
Fe337 O347 1.976 . S
Fe337 O351 1.996 . S
Fe337 O354 1.997 . S
O338 Fe337 2.002 . S
O338 C355 1.295 . S
O339 Fe334 1.997 . S
O339 C355 1.235 . S
O340 Fe334 2.002 . S
O340 C341 1.295 . S
C341 O340 1.295 . S
C341 O343 1.235 . S
C342 O347 1.287 . S
C342 O348 1.255 . S
O343 Fe335 1.997 . S
O343 C341 1.235 . S
C344 O350 1.287 . S
C344 O351 1.255 . S
O345 Fe334 1.976 . S
O345 C352 1.287 . S
O346 Fe335 1.996 . S
O346 C352 1.255 . S
O347 Fe337 1.976 . S
O347 C342 1.287 . S
O348 Fe334 1.996 . S
O348 C342 1.255 . S
C349 O353 1.295 . S
C349 O354 1.235 . S
O350 Fe335 1.976 . S
O350 C344 1.287 . S
O351 Fe337 1.996 . S
O351 C344 1.255 . S
C352 O345 1.287 . S
C352 O346 1.255 . S
O353 Fe335 2.002 . S
O353 C349 1.295 . S
O354 Fe337 1.997 . S
O354 C349 1.235 . S
C355 O338 1.295 . S
C355 O339 1.235 . S
Fe356 O358 1.918 . S
Fe356 O361 1.997 . S
Fe356 O362 2.002 . S
Fe356 O367 1.976 . S
Fe356 O370 1.996 . S
Fe357 O358 1.918 . S
Fe357 O365 1.997 . S
Fe357 O368 1.996 . S
Fe357 O372 1.976 . S
Fe357 O375 2.002 . S
O358 Fe356 1.918 . S
O358 Fe357 1.918 . S
O358 Fe359 1.918 . S
Fe359 O358 1.918 . S
Fe359 O360 2.002 . S
Fe359 O369 1.976 . S
Fe359 O373 1.996 . S
Fe359 O376 1.997 . S
O360 Fe359 2.002 . S
O360 C377 1.295 . S
O361 Fe356 1.997 . S
O361 C377 1.235 . S
O362 Fe356 2.002 . S
O362 C363 1.295 . S
C363 O362 1.295 . S
C363 O365 1.235 . S
C364 O369 1.287 . S
C364 O370 1.255 . S
O365 Fe357 1.997 . S
O365 C363 1.235 . S
C366 O372 1.287 . S
C366 O373 1.255 . S
O367 Fe356 1.976 . S
O367 C374 1.287 . S
O368 Fe357 1.996 . S
O368 C374 1.255 . S
O369 Fe359 1.976 . S
O369 C364 1.287 . S
O370 Fe356 1.996 . S
O370 C364 1.255 . S
C371 O375 1.295 . S
C371 O376 1.235 . S
O372 Fe357 1.976 . S
O372 C366 1.287 . S
O373 Fe359 1.996 . S
O373 C366 1.255 . S
C374 O367 1.287 . S
C374 O368 1.255 . S
O375 Fe357 2.002 . S
O375 C371 1.295 . S
O376 Fe359 1.997 . S
O376 C371 1.235 . S
C377 O360 1.295 . S
C377 O361 1.235 . S
Fe378 O380 1.918 . S
Fe378 O383 1.997 . S
Fe378 O384 2.002 . S
Fe378 O389 1.976 . S
Fe378 O392 1.996 . S
Fe379 O380 1.918 . S
Fe379 O387 1.997 . S
Fe379 O390 1.996 . S
Fe379 O394 1.976 . S
Fe379 O397 2.002 . S
O380 Fe378 1.918 . S
O380 Fe379 1.918 . S
O380 Fe381 1.918 . S
Fe381 O380 1.918 . S
Fe381 O382 2.002 . S
Fe381 O391 1.976 . S
Fe381 O395 1.996 . S
Fe381 O398 1.997 . S
O382 Fe381 2.002 . S
O382 C399 1.295 . S
O383 Fe378 1.997 . S
O383 C399 1.235 . S
O384 Fe378 2.002 . S
O384 C385 1.295 . S
C385 O384 1.295 . S
C385 O387 1.235 . S
C386 O391 1.287 . S
C386 O392 1.255 . S
O387 Fe379 1.997 . S
O387 C385 1.235 . S
C388 O394 1.287 . S
C388 O395 1.255 . S
O389 Fe378 1.976 . S
O389 C396 1.287 . S
O390 Fe379 1.996 . S
O390 C396 1.255 . S
O391 Fe381 1.976 . S
O391 C386 1.287 . S
O392 Fe378 1.996 . S
O392 C386 1.255 . S
C393 O397 1.295 . S
C393 O398 1.235 . S
O394 Fe379 1.976 . S
O394 C388 1.287 . S
O395 Fe381 1.996 . S
O395 C388 1.255 . S
C396 O389 1.287 . S
C396 O390 1.255 . S
O397 Fe379 2.002 . S
O397 C393 1.295 . S
O398 Fe381 1.997 . S
O398 C393 1.235 . S
C399 O382 1.295 . S
C399 O383 1.235 . S
Fe400 O402 1.918 . S
Fe400 O405 1.997 . S
Fe400 O406 2.002 . S
Fe400 O411 1.976 . S
Fe400 O414 1.996 . S
Fe401 O402 1.918 . S
Fe401 O409 1.997 . S
Fe401 O412 1.996 . S
Fe401 O416 1.976 . S
Fe401 O419 2.002 . S
O402 Fe400 1.918 . S
O402 Fe401 1.918 . S
O402 Fe403 1.918 . S
Fe403 O402 1.918 . S
Fe403 O404 2.002 . S
Fe403 O413 1.976 . S
Fe403 O417 1.996 . S
Fe403 O420 1.997 . S
O404 Fe403 2.002 . S
O404 C421 1.295 . S
O405 Fe400 1.997 . S
O405 C421 1.235 . S
O406 Fe400 2.002 . S
O406 C407 1.295 . S
C407 O406 1.295 . S
C407 O409 1.235 . S
C408 O413 1.287 . S
C408 O414 1.255 . S
O409 Fe401 1.997 . S
O409 C407 1.235 . S
C410 O416 1.287 . S
C410 O417 1.255 . S
O411 Fe400 1.976 . S
O411 C418 1.287 . S
O412 Fe401 1.996 . S
O412 C418 1.255 . S
O413 Fe403 1.976 . S
O413 C408 1.287 . S
O414 Fe400 1.996 . S
O414 C408 1.255 . S
C415 O419 1.295 . S
C415 O420 1.235 . S
O416 Fe401 1.976 . S
O416 C410 1.287 . S
O417 Fe403 1.996 . S
O417 C410 1.255 . S
C418 O411 1.287 . S
C418 O412 1.255 . S
O419 Fe401 2.002 . S
O419 C415 1.295 . S
O420 Fe403 1.997 . S
O420 C415 1.235 . S
C421 O404 1.295 . S
C421 O405 1.235 . S
Fe422 O424 1.918 . S
Fe422 O427 1.997 . S
Fe422 O428 2.002 . S
Fe422 O433 1.976 . S
Fe422 O436 1.996 . S
Fe423 O424 1.918 . S
Fe423 O431 1.997 . S
Fe423 O434 1.996 . S
Fe423 O438 1.976 . S
Fe423 O441 2.002 . S
O424 Fe422 1.918 . S
O424 Fe423 1.918 . S
O424 Fe425 1.918 . S
Fe425 O424 1.918 . S
Fe425 O426 2.002 . S
Fe425 O435 1.976 . S
Fe425 O439 1.996 . S
Fe425 O442 1.997 . S
O426 Fe425 2.002 . S
O426 C443 1.295 . S
O427 Fe422 1.997 . S
O427 C443 1.235 . S
O428 Fe422 2.002 . S
O428 C429 1.295 . S
C429 O428 1.295 . S
C429 O431 1.235 . S
C430 O435 1.287 . S
C430 O436 1.255 . S
O431 Fe423 1.997 . S
O431 C429 1.235 . S
C432 O438 1.287 . S
C432 O439 1.255 . S
O433 Fe422 1.976 . S
O433 C440 1.287 . S
O434 Fe423 1.996 . S
O434 C440 1.255 . S
O435 Fe425 1.976 . S
O435 C430 1.287 . S
O436 Fe422 1.996 . S
O436 C430 1.255 . S
C437 O441 1.295 . S
C437 O442 1.235 . S
O438 Fe423 1.976 . S
O438 C432 1.287 . S
O439 Fe425 1.996 . S
O439 C432 1.255 . S
C440 O433 1.287 . S
C440 O434 1.255 . S
O441 Fe423 2.002 . S
O441 C437 1.295 . S
O442 Fe425 1.997 . S
O442 C437 1.235 . S
C443 O426 1.295 . S
C443 O427 1.235 . S
Fe444 O446 1.918 . S
Fe444 O449 1.997 . S
Fe444 O450 2.002 . S
Fe444 O455 1.976 . S
Fe444 O458 1.996 . S
Fe445 O446 1.918 . S
Fe445 O453 1.997 . S
Fe445 O456 1.996 . S
Fe445 O460 1.976 . S
Fe445 O463 2.002 . S
O446 Fe444 1.918 . S
O446 Fe445 1.918 . S
O446 Fe447 1.918 . S
Fe447 O446 1.918 . S
Fe447 O448 2.002 . S
Fe447 O457 1.976 . S
Fe447 O461 1.996 . S
Fe447 O464 1.997 . S
O448 Fe447 2.002 . S
O448 C465 1.295 . S
O449 Fe444 1.997 . S
O449 C465 1.235 . S
O450 Fe444 2.002 . S
O450 C451 1.295 . S
C451 O450 1.295 . S
C451 O453 1.235 . S
C452 O457 1.287 . S
C452 O458 1.255 . S
O453 Fe445 1.997 . S
O453 C451 1.235 . S
C454 O460 1.287 . S
C454 O461 1.255 . S
O455 Fe444 1.976 . S
O455 C462 1.287 . S
O456 Fe445 1.996 . S
O456 C462 1.255 . S
O457 Fe447 1.976 . S
O457 C452 1.287 . S
O458 Fe444 1.996 . S
O458 C452 1.255 . S
C459 O463 1.295 . S
C459 O464 1.235 . S
O460 Fe445 1.976 . S
O460 C454 1.287 . S
O461 Fe447 1.996 . S
O461 C454 1.255 . S
C462 O455 1.287 . S
C462 O456 1.255 . S
O463 Fe445 2.002 . S
O463 C459 1.295 . S
O464 Fe447 1.997 . S
O464 C459 1.235 . S
C465 O448 1.295 . S
C465 O449 1.235 . S
Fe466 O468 1.918 . S
Fe466 O471 1.997 . S
Fe466 O472 2.002 . S
Fe466 O477 1.976 . S
Fe466 O480 1.996 . S
Fe467 O468 1.918 . S
Fe467 O475 1.997 . S
Fe467 O478 1.996 . S
Fe467 O482 1.976 . S
Fe467 O485 2.002 . S
O468 Fe466 1.918 . S
O468 Fe467 1.918 . S
O468 Fe469 1.918 . S
Fe469 O468 1.918 . S
Fe469 O470 2.002 . S
Fe469 O479 1.976 . S
Fe469 O483 1.996 . S
Fe469 O486 1.997 . S
O470 Fe469 2.002 . S
O470 C487 1.295 . S
O471 Fe466 1.997 . S
O471 C487 1.235 . S
O472 Fe466 2.002 . S
O472 C473 1.295 . S
C473 O472 1.295 . S
C473 O475 1.235 . S
C474 O479 1.287 . S
C474 O480 1.255 . S
O475 Fe467 1.997 . S
O475 C473 1.235 . S
C476 O482 1.287 . S
C476 O483 1.255 . S
O477 Fe466 1.976 . S
O477 C484 1.287 . S
O478 Fe467 1.996 . S
O478 C484 1.255 . S
O479 Fe469 1.976 . S
O479 C474 1.287 . S
O480 Fe466 1.996 . S
O480 C474 1.255 . S
C481 O485 1.295 . S
C481 O486 1.235 . S
O482 Fe467 1.976 . S
O482 C476 1.287 . S
O483 Fe469 1.996 . S
O483 C476 1.255 . S
C484 O477 1.287 . S
C484 O478 1.255 . S
O485 Fe467 2.002 . S
O485 C481 1.295 . S
O486 Fe469 1.997 . S
O486 C481 1.235 . S
C487 O470 1.295 . S
C487 O471 1.235 . S
Fe488 O490 1.918 . S
Fe488 O493 1.997 . S
Fe488 O494 2.002 . S
Fe488 O499 1.976 . S
Fe488 O502 1.996 . S
Fe489 O490 1.918 . S
Fe489 O497 1.997 . S
Fe489 O500 1.996 . S
Fe489 O504 1.976 . S
Fe489 O507 2.002 . S
O490 Fe488 1.918 . S
O490 Fe489 1.918 . S
O490 Fe491 1.918 . S
Fe491 O490 1.918 . S
Fe491 O492 2.002 . S
Fe491 O501 1.976 . S
Fe491 O505 1.996 . S
Fe491 O508 1.997 . S
O492 Fe491 2.002 . S
O492 C509 1.295 . S
O493 Fe488 1.997 . S
O493 C509 1.235 . S
O494 Fe488 2.002 . S
O494 C495 1.295 . S
C495 O494 1.295 . S
C495 O497 1.235 . S
C496 O501 1.287 . S
C496 O502 1.255 . S
O497 Fe489 1.997 . S
O497 C495 1.235 . S
C498 O504 1.287 . S
C498 O505 1.255 . S
O499 Fe488 1.976 . S
O499 C506 1.287 . S
O500 Fe489 1.996 . S
O500 C506 1.255 . S
O501 Fe491 1.976 . S
O501 C496 1.287 . S
O502 Fe488 1.996 . S
O502 C496 1.255 . S
C503 O507 1.295 . S
C503 O508 1.235 . S
O504 Fe489 1.976 . S
O504 C498 1.287 . S
O505 Fe491 1.996 . S
O505 C498 1.255 . S
C506 O499 1.287 . S
C506 O500 1.255 . S
O507 Fe489 2.002 . S
O507 C503 1.295 . S
O508 Fe491 1.997 . S
O508 C503 1.235 . S
C509 O492 1.295 . S
C509 O493 1.235 . S
Fe510 O512 1.918 . S
Fe510 O515 1.997 . S
Fe510 O516 2.002 . S
Fe510 O521 1.976 . S
Fe510 O524 1.996 . S
Fe511 O512 1.918 . S
Fe511 O519 1.997 . S
Fe511 O522 1.996 . S
Fe511 O526 1.976 . S
Fe511 O529 2.002 . S
O512 Fe510 1.918 . S
O512 Fe511 1.918 . S
O512 Fe513 1.918 . S
Fe513 O512 1.918 . S
Fe513 O514 2.002 . S
Fe513 O523 1.976 . S
Fe513 O527 1.996 . S
Fe513 O530 1.997 . S
O514 Fe513 2.002 . S
O514 C531 1.295 . S
O515 Fe510 1.997 . S
O515 C531 1.235 . S
O516 Fe510 2.002 . S
O516 C517 1.295 . S
C517 O516 1.295 . S
C517 O519 1.235 . S
C518 O523 1.287 . S
C518 O524 1.255 . S
O519 Fe511 1.997 . S
O519 C517 1.235 . S
C520 O526 1.287 . S
C520 O527 1.255 . S
O521 Fe510 1.976 . S
O521 C528 1.287 . S
O522 Fe511 1.996 . S
O522 C528 1.255 . S
O523 Fe513 1.976 . S
O523 C518 1.287 . S
O524 Fe510 1.996 . S
O524 C518 1.255 . S
C525 O529 1.295 . S
C525 O530 1.235 . S
O526 Fe511 1.976 . S
O526 C520 1.287 . S
O527 Fe513 1.996 . S
O527 C520 1.255 . S
C528 O521 1.287 . S
C528 O522 1.255 . S
O529 Fe511 2.002 . S
O529 C525 1.295 . S
O530 Fe513 1.997 . S
O530 C525 1.235 . S
C531 O514 1.295 . S
C531 O515 1.235 . S
Fe532 O534 1.918 . S
Fe532 O537 1.997 . S
Fe532 O538 2.002 . S
Fe532 O543 1.976 . S
Fe532 O546 1.996 . S
Fe533 O534 1.918 . S
Fe533 O541 1.997 . S
Fe533 O544 1.996 . S
Fe533 O548 1.976 . S
Fe533 O551 2.002 . S
O534 Fe532 1.918 . S
O534 Fe533 1.918 . S
O534 Fe535 1.918 . S
Fe535 O534 1.918 . S
Fe535 O536 2.002 . S
Fe535 O545 1.976 . S
Fe535 O549 1.996 . S
Fe535 O552 1.997 . S
O536 Fe535 2.002 . S
O536 C553 1.295 . S
O537 Fe532 1.997 . S
O537 C553 1.235 . S
O538 Fe532 2.002 . S
O538 C539 1.295 . S
C539 O538 1.295 . S
C539 O541 1.235 . S
C540 O545 1.287 . S
C540 O546 1.255 . S
O541 Fe533 1.997 . S
O541 C539 1.235 . S
C542 O548 1.287 . S
C542 O549 1.255 . S
O543 Fe532 1.976 . S
O543 C550 1.287 . S
O544 Fe533 1.996 . S
O544 C550 1.255 . S
O545 Fe535 1.976 . S
O545 C540 1.287 . S
O546 Fe532 1.996 . S
O546 C540 1.255 . S
C547 O551 1.295 . S
C547 O552 1.235 . S
O548 Fe533 1.976 . S
O548 C542 1.287 . S
O549 Fe535 1.996 . S
O549 C542 1.255 . S
C550 O543 1.287 . S
C550 O544 1.255 . S
O551 Fe533 2.002 . S
O551 C547 1.295 . S
O552 Fe535 1.997 . S
O552 C547 1.235 . S
C553 O536 1.295 . S
C553 O537 1.235 . S
Fe554 O556 1.918 . S
Fe554 O559 1.997 . S
Fe554 O560 2.002 . S
Fe554 O565 1.976 . S
Fe554 O568 1.996 . S
Fe555 O556 1.918 . S
Fe555 O563 1.997 . S
Fe555 O566 1.996 . S
Fe555 O570 1.976 . S
Fe555 O573 2.002 . S
O556 Fe554 1.918 . S
O556 Fe555 1.918 . S
O556 Fe557 1.918 . S
Fe557 O556 1.918 . S
Fe557 O558 2.002 . S
Fe557 O567 1.976 . S
Fe557 O571 1.996 . S
Fe557 O574 1.997 . S
O558 Fe557 2.002 . S
O558 C575 1.295 . S
O559 Fe554 1.997 . S
O559 C575 1.235 . S
O560 Fe554 2.002 . S
O560 C561 1.295 . S
C561 O560 1.295 . S
C561 O563 1.235 . S
C562 O567 1.287 . S
C562 O568 1.255 . S
O563 Fe555 1.997 . S
O563 C561 1.235 . S
C564 O570 1.287 . S
C564 O571 1.255 . S
O565 Fe554 1.976 . S
O565 C572 1.287 . S
O566 Fe555 1.996 . S
O566 C572 1.255 . S
O567 Fe557 1.976 . S
O567 C562 1.287 . S
O568 Fe554 1.996 . S
O568 C562 1.255 . S
C569 O573 1.295 . S
C569 O574 1.235 . S
O570 Fe555 1.976 . S
O570 C564 1.287 . S
O571 Fe557 1.996 . S
O571 C564 1.255 . S
C572 O565 1.287 . S
C572 O566 1.255 . S
O573 Fe555 2.002 . S
O573 C569 1.295 . S
O574 Fe557 1.997 . S
O574 C569 1.235 . S
C575 O558 1.295 . S
C575 O559 1.235 . S
Fe576 O578 1.918 . S
Fe576 O581 1.997 . S
Fe576 O582 2.002 . S
Fe576 O587 1.976 . S
Fe576 O590 1.996 . S
Fe577 O578 1.918 . S
Fe577 O585 1.997 . S
Fe577 O588 1.996 . S
Fe577 O592 1.976 . S
Fe577 O595 2.002 . S
O578 Fe576 1.918 . S
O578 Fe577 1.918 . S
O578 Fe579 1.918 . S
Fe579 O578 1.918 . S
Fe579 O580 2.002 . S
Fe579 O589 1.976 . S
Fe579 O593 1.996 . S
Fe579 O596 1.997 . S
O580 Fe579 2.002 . S
O580 C597 1.295 . S
O581 Fe576 1.997 . S
O581 C597 1.235 . S
O582 Fe576 2.002 . S
O582 C583 1.295 . S
C583 O582 1.295 . S
C583 O585 1.235 . S
C584 O589 1.287 . S
C584 O590 1.255 . S
O585 Fe577 1.997 . S
O585 C583 1.235 . S
C586 O592 1.287 . S
C586 O593 1.255 . S
O587 Fe576 1.976 . S
O587 C594 1.287 . S
O588 Fe577 1.996 . S
O588 C594 1.255 . S
O589 Fe579 1.976 . S
O589 C584 1.287 . S
O590 Fe576 1.996 . S
O590 C584 1.255 . S
C591 O595 1.295 . S
C591 O596 1.235 . S
O592 Fe577 1.976 . S
O592 C586 1.287 . S
O593 Fe579 1.996 . S
O593 C586 1.255 . S
C594 O587 1.287 . S
C594 O588 1.255 . S
O595 Fe577 2.002 . S
O595 C591 1.295 . S
O596 Fe579 1.997 . S
O596 C591 1.235 . S
C597 O580 1.295 . S
C597 O581 1.235 . S
Fe598 O600 1.918 . S
Fe598 O603 1.997 . S
Fe598 O604 2.002 . S
Fe598 O609 1.976 . S
Fe598 O612 1.996 . S
Fe599 O600 1.918 . S
Fe599 O607 1.997 . S
Fe599 O610 1.996 . S
Fe599 O614 1.976 . S
Fe599 O617 2.002 . S
O600 Fe598 1.918 . S
O600 Fe599 1.918 . S
O600 Fe601 1.918 . S
Fe601 O600 1.918 . S
Fe601 O602 2.002 . S
Fe601 O611 1.976 . S
Fe601 O615 1.996 . S
Fe601 O618 1.997 . S
O602 Fe601 2.002 . S
O602 C619 1.295 . S
O603 Fe598 1.997 . S
O603 C619 1.235 . S
O604 Fe598 2.002 . S
O604 C605 1.295 . S
C605 O604 1.295 . S
C605 O607 1.235 . S
C606 O611 1.287 . S
C606 O612 1.255 . S
O607 Fe599 1.997 . S
O607 C605 1.235 . S
C608 O614 1.287 . S
C608 O615 1.255 . S
O609 Fe598 1.976 . S
O609 C616 1.287 . S
O610 Fe599 1.996 . S
O610 C616 1.255 . S
O611 Fe601 1.976 . S
O611 C606 1.287 . S
O612 Fe598 1.996 . S
O612 C606 1.255 . S
C613 O617 1.295 . S
C613 O618 1.235 . S
O614 Fe599 1.976 . S
O614 C608 1.287 . S
O615 Fe601 1.996 . S
O615 C608 1.255 . S
C616 O609 1.287 . S
C616 O610 1.255 . S
O617 Fe599 2.002 . S
O617 C613 1.295 . S
O618 Fe601 1.997 . S
O618 C613 1.235 . S
C619 O602 1.295 . S
C619 O603 1.235 . S
Fe620 O622 1.918 . S
Fe620 O625 1.997 . S
Fe620 O626 2.002 . S
Fe620 O631 1.976 . S
Fe620 O634 1.996 . S
Fe621 O622 1.918 . S
Fe621 O629 1.997 . S
Fe621 O632 1.996 . S
Fe621 O636 1.976 . S
Fe621 O639 2.002 . S
O622 Fe620 1.918 . S
O622 Fe621 1.918 . S
O622 Fe623 1.918 . S
Fe623 O622 1.918 . S
Fe623 O624 2.002 . S
Fe623 O633 1.976 . S
Fe623 O637 1.996 . S
Fe623 O640 1.997 . S
O624 Fe623 2.002 . S
O624 C641 1.295 . S
O625 Fe620 1.997 . S
O625 C641 1.235 . S
O626 Fe620 2.002 . S
O626 C627 1.295 . S
C627 O626 1.295 . S
C627 O629 1.235 . S
C628 O633 1.287 . S
C628 O634 1.255 . S
O629 Fe621 1.997 . S
O629 C627 1.235 . S
C630 O636 1.287 . S
C630 O637 1.255 . S
O631 Fe620 1.976 . S
O631 C638 1.287 . S
O632 Fe621 1.996 . S
O632 C638 1.255 . S
O633 Fe623 1.976 . S
O633 C628 1.287 . S
O634 Fe620 1.996 . S
O634 C628 1.255 . S
C635 O639 1.295 . S
C635 O640 1.235 . S
O636 Fe621 1.976 . S
O636 C630 1.287 . S
O637 Fe623 1.996 . S
O637 C630 1.255 . S
C638 O631 1.287 . S
C638 O632 1.255 . S
O639 Fe621 2.002 . S
O639 C635 1.295 . S
O640 Fe623 1.997 . S
O640 C635 1.235 . S
C641 O624 1.295 . S
C641 O625 1.235 . S
Fe642 O644 1.918 . S
Fe642 O647 1.997 . S
Fe642 O648 2.002 . S
Fe642 O653 1.976 . S
Fe642 O656 1.996 . S
Fe643 O644 1.918 . S
Fe643 O651 1.997 . S
Fe643 O654 1.996 . S
Fe643 O658 1.976 . S
Fe643 O661 2.002 . S
O644 Fe642 1.918 . S
O644 Fe643 1.918 . S
O644 Fe645 1.918 . S
Fe645 O644 1.918 . S
Fe645 O646 2.002 . S
Fe645 O655 1.976 . S
Fe645 O659 1.996 . S
Fe645 O662 1.997 . S
O646 Fe645 2.002 . S
O646 C663 1.295 . S
O647 Fe642 1.997 . S
O647 C663 1.235 . S
O648 Fe642 2.002 . S
O648 C649 1.295 . S
C649 O648 1.295 . S
C649 O651 1.235 . S
C650 O655 1.287 . S
C650 O656 1.255 . S
O651 Fe643 1.997 . S
O651 C649 1.235 . S
C652 O658 1.287 . S
C652 O659 1.255 . S
O653 Fe642 1.976 . S
O653 C660 1.287 . S
O654 Fe643 1.996 . S
O654 C660 1.255 . S
O655 Fe645 1.976 . S
O655 C650 1.287 . S
O656 Fe642 1.996 . S
O656 C650 1.255 . S
C657 O661 1.295 . S
C657 O662 1.235 . S
O658 Fe643 1.976 . S
O658 C652 1.287 . S
O659 Fe645 1.996 . S
O659 C652 1.255 . S
C660 O653 1.287 . S
C660 O654 1.255 . S
O661 Fe643 2.002 . S
O661 C657 1.295 . S
O662 Fe645 1.997 . S
O662 C657 1.235 . S
C663 O646 1.295 . S
C663 O647 1.235 . S
H664 C672 0.929 . S
H665 C674 0.930 . S
H666 C676 0.930 . S
H667 C679 0.916 1_655 S
H668 C682 0.930 . S
H669 C684 0.960 . S
H670 C684 0.960 . S
H671 C684 0.960 . S
C672 H664 0.929 . S
C672 C673 1.377 . S
C672 C674 1.384 . S
C673 C672 1.377 . S
C673 C679 1.390 . S
C674 H665 0.930 . S
C674 C672 1.384 . S
C674 C675 1.372 . S
C675 C674 1.372 . S
C675 C676 1.400 . S
C675 C680 1.490 . S
C676 H666 0.930 . S
C676 C675 1.400 . S
C676 C679 1.386 . S
H677 C693 0.930 . S
H678 C694 0.931 . S
C679 H667 0.916 1_455 S
C679 C673 1.390 . S
C679 C676 1.386 . S
C680 C675 1.490 . S
C680 C682 1.395 . S
C680 C683 1.403 . S
H681 C687 0.930 . S
C682 H668 0.930 . S
C682 C680 1.395 . S
C682 C685 1.403 . S
C683 C680 1.403 . S
C683 C684 1.524 . S
C683 C687 1.400 . S
C684 H669 0.960 . S
C684 H670 0.960 . S
C684 H671 0.960 . S
C684 C683 1.524 . S
C685 C682 1.403 . S
C685 C686 1.392 . S
C685 C689 1.495 . S
C686 C685 1.392 . S
C686 C687 1.385 . S
C686 C688 1.478 . S
C687 H681 0.930 . S
C687 C683 1.400 . S
C687 C686 1.385 . S
C688 C686 1.478 . S
C688 C690 1.381 . S
C688 C694 1.383 . S
C689 C685 1.495 . S
C689 H695 0.959 . S
C689 H696 0.961 . S
C689 H697 0.960 . S
C690 C688 1.381 . S
C690 C691 1.394 . S
C690 H698 0.930 . S
C691 C690 1.394 . S
C691 C692 1.383 . S
C691 H699 0.929 . S
C692 C691 1.383 . S
C692 C693 1.377 . S
C693 H677 0.930 . S
C693 C692 1.377 . S
C693 C694 1.379 . S
C694 H678 0.931 . S
C694 C688 1.383 . S
C694 C693 1.379 . S
H695 C689 0.959 . S
H696 C689 0.961 . S
H697 C689 0.960 . S
H698 C690 0.930 . S
H699 C691 0.929 . S
H700 C708 0.929 . S
H701 C710 0.930 . S
H702 C712 0.930 . S
H703 C715 0.929 . S
H704 C718 0.930 . S
H705 C720 0.960 . S
H706 C720 0.960 . S
H707 C720 0.960 . S
C708 H700 0.929 . S
C708 C709 1.377 . S
C708 C710 1.384 . S
C709 C708 1.377 . S
C709 C715 1.390 . S
C710 H701 0.930 . S
C710 C708 1.384 . S
C710 C711 1.372 . S
C711 C710 1.372 . S
C711 C712 1.400 . S
C711 C716 1.490 . S
C712 H702 0.930 . S
C712 C711 1.400 . S
C712 C715 1.386 . S
H713 C729 0.930 . S
H714 C730 0.931 . S
C715 H703 0.929 . S
C715 C709 1.390 . S
C715 C712 1.386 . S
C716 C711 1.490 . S
C716 C718 1.395 . S
C716 C719 1.403 . S
H717 C723 0.930 . S
C718 H704 0.930 . S
C718 C716 1.395 . S
C718 C721 1.403 . S
C719 C716 1.403 . S
C719 C720 1.524 . S
C719 C723 1.400 . S
C720 H705 0.960 . S
C720 H706 0.960 . S
C720 H707 0.960 . S
C720 C719 1.524 . S
C721 C718 1.403 . S
C721 C722 1.392 . S
C721 C725 1.495 . S
C722 C721 1.392 . S
C722 C723 1.385 . S
C722 C724 1.478 . S
C723 H717 0.930 . S
C723 C719 1.400 . S
C723 C722 1.385 . S
C724 C722 1.478 . S
C724 C726 1.381 . S
C724 C730 1.383 . S
C725 C721 1.495 . S
C725 H731 0.959 . S
C725 H732 0.961 . S
C725 H733 0.960 . S
C726 C724 1.381 . S
C726 C727 1.394 . S
C726 H734 0.930 . S
C727 C726 1.394 . S
C727 C728 1.383 . S
C727 H735 0.929 . S
C728 C727 1.383 . S
C728 C729 1.377 . S
C729 H713 0.930 . S
C729 C728 1.377 . S
C729 C730 1.379 . S
C730 H714 0.931 . S
C730 C724 1.383 . S
C730 C729 1.379 . S
H731 C725 0.959 . S
H732 C725 0.961 . S
H733 C725 0.960 . S
H734 C726 0.930 . S
H735 C727 0.929 . S
H736 C744 0.929 . S
H737 C746 0.930 . S
H738 C748 0.930 . S
H739 C751 0.929 . S
H740 C754 0.930 . S
H741 C756 0.960 . S
H742 C756 0.960 . S
H743 C756 0.960 . S
C744 H736 0.929 . S
C744 C745 1.377 . S
C744 C746 1.384 . S
C745 C744 1.377 . S
C745 C751 1.390 . S
C746 H737 0.930 . S
C746 C744 1.384 . S
C746 C747 1.372 . S
C747 C746 1.372 . S
C747 C748 1.400 . S
C747 C752 1.490 . S
C748 H738 0.930 . S
C748 C747 1.400 . S
C748 C751 1.386 . S
H749 C765 0.930 . S
H750 C766 0.931 . S
C751 H739 0.929 . S
C751 C745 1.390 . S
C751 C748 1.386 . S
C752 C747 1.490 . S
C752 C754 1.395 . S
C752 C755 1.403 . S
H753 C759 0.930 . S
C754 H740 0.930 . S
C754 C752 1.395 . S
C754 C757 1.403 . S
C755 C752 1.403 . S
C755 C756 1.524 . S
C755 C759 1.400 . S
C756 H741 0.960 . S
C756 H742 0.960 . S
C756 H743 0.960 . S
C756 C755 1.524 . S
C757 C754 1.403 . S
C757 C758 1.392 . S
C757 C761 1.495 . S
C758 C757 1.392 . S
C758 C759 1.385 . S
C758 C760 1.478 . S
C759 H753 0.930 . S
C759 C755 1.400 . S
C759 C758 1.385 . S
C760 C758 1.478 . S
C760 C762 1.381 . S
C760 C766 1.383 . S
C761 C757 1.495 . S
C761 H767 0.959 . S
C761 H768 0.961 . S
C761 H769 0.960 . S
C762 C760 1.381 . S
C762 C763 1.394 . S
C762 H770 0.930 . S
C763 C762 1.394 . S
C763 C764 1.383 . S
C763 H771 0.929 . S
C764 C763 1.383 . S
C764 C765 1.377 . S
C765 H749 0.930 . S
C765 C764 1.377 . S
C765 C766 1.379 . S
C766 H750 0.931 . S
C766 C760 1.383 . S
C766 C765 1.379 . S
H767 C761 0.959 . S
H768 C761 0.961 . S
H769 C761 0.960 . S
H770 C762 0.930 . S
H771 C763 0.929 . S
H772 C780 0.929 . S
H773 C782 0.930 . S
H774 C784 0.930 . S
H775 C787 0.929 . S
H776 C790 0.930 . S
H777 C792 0.960 . S
H778 C792 0.960 . S
H779 C792 0.960 . S
C780 H772 0.929 . S
C780 C781 1.377 . S
C780 C782 1.384 . S
C781 C780 1.377 . S
C781 C787 1.390 . S
C782 H773 0.930 . S
C782 C780 1.384 . S
C782 C783 1.372 . S
C783 C782 1.372 . S
C783 C784 1.400 . S
C783 C788 1.490 . S
C784 H774 0.930 . S
C784 C783 1.400 . S
C784 C787 1.386 . S
H785 C801 0.930 . S
H786 C802 0.931 . S
C787 H775 0.929 . S
C787 C781 1.390 . S
C787 C784 1.386 . S
C788 C783 1.490 . S
C788 C790 1.395 . S
C788 C791 1.403 . S
H789 C795 0.930 . S
C790 H776 0.930 . S
C790 C788 1.395 . S
C790 C793 1.403 1_554 S
C791 C788 1.403 . S
C791 C792 1.524 . S
C791 C795 1.400 . S
C792 H777 0.960 . S
C792 H778 0.960 . S
C792 H779 0.960 . S
C792 C791 1.524 . S
C793 C790 1.403 1_556 S
C793 C794 1.392 . S
C793 C797 1.495 . S
C794 C793 1.392 . S
C794 C795 1.385 1_556 S
C794 C796 1.478 . S
C795 H789 0.930 . S
C795 C791 1.400 . S
C795 C794 1.385 1_554 S
C796 C794 1.478 . S
C796 C798 1.381 . S
C796 C802 1.383 . S
C797 C793 1.495 . S
C797 H803 0.959 . S
C797 H804 0.961 . S
C797 H805 0.960 . S
C798 C796 1.381 . S
C798 C799 1.394 . S
C798 H806 0.930 . S
C799 C798 1.394 . S
C799 C800 1.383 . S
C799 H807 0.929 . S
C800 C799 1.383 . S
C800 C801 1.377 . S
C801 H785 0.930 . S
C801 C800 1.377 . S
C801 C802 1.379 . S
C802 H786 0.931 . S
C802 C796 1.383 . S
C802 C801 1.379 . S
H803 C797 0.959 . S
H804 C797 0.961 . S
H805 C797 0.960 . S
H806 C798 0.930 . S
H807 C799 0.929 . S
H808 C816 0.929 1_655 S
H809 C818 0.930 . S
H810 C820 0.930 . S
H811 C823 0.929 . S
H812 C826 0.930 . S
H813 C828 0.960 . S
H814 C828 0.960 . S
H815 C828 0.960 . S
C816 H808 0.929 1_455 S
C816 C817 1.377 . S
C816 C818 1.384 . S
C817 C816 1.377 . S
C817 C823 1.390 . S
C818 H809 0.930 . S
C818 C816 1.384 . S
C818 C819 1.372 . S
C819 C818 1.372 . S
C819 C820 1.400 . S
C819 C824 1.490 . S
C820 H810 0.930 . S
C820 C819 1.400 . S
C820 C823 1.386 . S
H821 C837 0.930 . S
H822 C838 0.931 . S
C823 H811 0.929 . S
C823 C817 1.390 . S
C823 C820 1.386 . S
C824 C819 1.490 . S
C824 C826 1.395 . S
C824 C827 1.403 . S
H825 C831 0.930 . S
C826 H812 0.930 . S
C826 C824 1.395 . S
C826 C829 1.403 . S
C827 C824 1.403 . S
C827 C828 1.524 . S
C827 C831 1.400 . S
C828 H813 0.960 . S
C828 H814 0.960 . S
C828 H815 0.960 . S
C828 C827 1.524 . S
C829 C826 1.403 . S
C829 C830 1.392 . S
C829 C833 1.495 . S
C830 C829 1.392 . S
C830 C831 1.385 . S
C830 C832 1.478 . S
C831 H825 0.930 . S
C831 C827 1.400 . S
C831 C830 1.385 . S
C832 C830 1.478 . S
C832 C834 1.381 . S
C832 C838 1.383 . S
C833 C829 1.495 . S
C833 H839 0.959 . S
C833 H840 0.961 . S
C833 H841 0.960 . S
C834 C832 1.381 . S
C834 C835 1.394 . S
C834 H842 0.930 . S
C835 C834 1.394 . S
C835 C836 1.383 . S
C835 H843 0.929 . S
C836 C835 1.383 . S
C836 C837 1.377 . S
C837 H821 0.930 . S
C837 C836 1.377 . S
C837 C838 1.379 . S
C838 H822 0.931 . S
C838 C832 1.383 . S
C838 C837 1.379 . S
H839 C833 0.959 . S
H840 C833 0.961 . S
H841 C833 0.960 . S
H842 C834 0.930 . S
H843 C835 0.929 . S
H844 C852 0.929 . S
H845 C854 0.930 . S
H846 C856 0.930 . S
H847 C859 0.929 . S
H848 C862 0.930 . S
H849 C864 0.960 . S
H850 C864 0.960 . S
H851 C864 0.960 . S
C852 H844 0.929 . S
C852 C853 1.377 . S
C852 C854 1.384 . S
C853 C852 1.377 . S
C853 C859 1.390 . S
C854 H845 0.930 . S
C854 C852 1.384 . S
C854 C855 1.372 . S
C855 C854 1.372 . S
C855 C856 1.400 . S
C855 C860 1.490 . S
C856 H846 0.930 . S
C856 C855 1.400 . S
C856 C859 1.386 . S
H857 C873 0.930 . S
H858 C874 0.931 . S
C859 H847 0.929 . S
C859 C853 1.390 . S
C859 C856 1.386 . S
C860 C855 1.490 . S
C860 C862 1.395 . S
C860 C863 1.403 . S
H861 C867 0.930 . S
C862 H848 0.930 . S
C862 C860 1.395 . S
C862 C865 1.403 . S
C863 C860 1.403 . S
C863 C864 1.524 . S
C863 C867 1.400 . S
C864 H849 0.960 . S
C864 H850 0.960 . S
C864 H851 0.960 . S
C864 C863 1.524 . S
C865 C862 1.403 . S
C865 C866 1.392 . S
C865 C869 1.495 . S
C866 C865 1.392 . S
C866 C867 1.385 . S
C866 C868 1.478 . S
C867 H861 0.930 . S
C867 C863 1.400 . S
C867 C866 1.385 . S
C868 C866 1.478 . S
C868 C870 1.381 . S
C868 C874 1.383 . S
C869 C865 1.495 . S
C869 H875 0.959 . S
C869 H876 0.961 . S
C869 H877 0.960 . S
C870 C868 1.381 . S
C870 C871 1.394 . S
C870 H878 0.930 . S
C871 C870 1.394 . S
C871 C872 1.383 . S
C871 H879 0.929 . S
C872 C871 1.383 . S
C872 C873 1.377 . S
C873 H857 0.930 . S
C873 C872 1.377 . S
C873 C874 1.379 . S
C874 H858 0.931 . S
C874 C868 1.383 . S
C874 C873 1.379 . S
H875 C869 0.959 . S
H876 C869 0.961 . S
H877 C869 0.960 . S
H878 C870 0.930 . S
H879 C871 0.929 . S
H880 C888 0.929 . S
H881 C890 0.930 . S
H882 C892 0.930 . S
H883 C895 0.929 . S
H884 C898 0.930 . S
H885 C900 0.960 . S
H886 C900 0.960 . S
H887 C900 0.960 . S
C888 H880 0.929 . S
C888 C889 1.377 . S
C888 C890 1.384 . S
C889 C888 1.377 . S
C889 C895 1.390 . S
C890 H881 0.930 . S
C890 C888 1.384 . S
C890 C891 1.372 . S
C891 C890 1.372 . S
C891 C892 1.400 . S
C891 C896 1.490 . S
C892 H882 0.930 . S
C892 C891 1.400 . S
C892 C895 1.386 . S
H893 C909 0.930 . S
H894 C910 0.931 . S
C895 H883 0.929 . S
C895 C889 1.390 . S
C895 C892 1.386 . S
C896 C891 1.490 . S
C896 C898 1.395 . S
C896 C899 1.403 . S
H897 C903 0.930 . S
C898 H884 0.930 . S
C898 C896 1.395 . S
C898 C901 1.403 . S
C899 C896 1.403 . S
C899 C900 1.524 . S
C899 C903 1.400 . S
C900 H885 0.960 . S
C900 H886 0.960 . S
C900 H887 0.960 . S
C900 C899 1.524 . S
C901 C898 1.403 . S
C901 C902 1.392 . S
C901 C905 1.495 . S
C902 C901 1.392 . S
C902 C903 1.385 . S
C902 C904 1.478 . S
C903 H897 0.930 . S
C903 C899 1.400 . S
C903 C902 1.385 . S
C904 C902 1.478 . S
C904 C906 1.381 . S
C904 C910 1.383 . S
C905 C901 1.495 . S
C905 H911 0.959 . S
C905 H912 0.961 . S
C905 H913 0.960 . S
C906 C904 1.381 . S
C906 C907 1.394 . S
C906 H914 0.930 . S
C907 C906 1.394 . S
C907 C908 1.383 . S
C907 H915 0.929 . S
C908 C907 1.383 . S
C908 C909 1.377 . S
C909 H893 0.930 . S
C909 C908 1.377 . S
C909 C910 1.379 . S
C910 H894 0.931 . S
C910 C904 1.383 . S
C910 C909 1.379 . S
H911 C905 0.959 . S
H912 C905 0.961 . S
H913 C905 0.960 . S
H914 C906 0.930 . S
H915 C907 0.929 . S
H916 C924 0.929 . S
H917 C926 0.930 . S
H918 C928 0.930 . S
H919 C931 0.929 . S
H920 C934 0.930 . S
H921 C936 0.960 . S
H922 C936 0.960 . S
H923 C936 0.960 . S
C924 H916 0.929 . S
C924 C925 1.377 . S
C924 C926 1.384 . S
C925 C924 1.377 . S
C925 C931 1.390 . S
C926 H917 0.930 . S
C926 C924 1.384 . S
C926 C927 1.372 . S
C927 C926 1.372 . S
C927 C928 1.400 . S
C927 C932 1.490 . S
C928 H918 0.930 . S
C928 C927 1.400 . S
C928 C931 1.386 . S
H929 C945 0.930 . S
H930 C946 0.931 . S
C931 H919 0.929 . S
C931 C925 1.390 . S
C931 C928 1.386 . S
C932 C927 1.490 . S
C932 C934 1.395 . S
C932 C935 1.403 . S
H933 C939 0.930 . S
C934 H920 0.930 . S
C934 C932 1.395 . S
C934 C937 1.403 . S
C935 C932 1.403 . S
C935 C936 1.524 . S
C935 C939 1.400 1_556 S
C936 H921 0.960 . S
C936 H922 0.960 . S
C936 H923 0.960 . S
C936 C935 1.524 . S
C937 C934 1.403 . S
C937 C938 1.392 1_556 S
C937 C941 1.495 1_556 S
C938 C937 1.392 1_554 S
C938 C939 1.385 . S
C938 C940 1.478 . S
C939 H933 0.930 . S
C939 C935 1.400 1_554 S
C939 C938 1.385 . S
C940 C938 1.478 . S
C940 C942 1.381 . S
C940 C946 1.383 . S
C941 C937 1.495 1_554 S
C941 H947 0.959 1_554 S
C941 H948 0.961 . S
C941 H949 0.960 . S
C942 C940 1.381 . S
C942 C943 1.394 . S
C942 H950 0.930 . S
C943 C942 1.394 . S
C943 C944 1.383 . S
C943 H951 0.929 . S
C944 C943 1.383 . S
C944 C945 1.377 . S
C945 H929 0.930 . S
C945 C944 1.377 . S
C945 C946 1.379 . S
C946 H930 0.931 . S
C946 C940 1.383 . S
C946 C945 1.379 . S
H947 C941 0.959 1_556 S
H948 C941 0.961 . S
H949 C941 0.960 . S
H950 C942 0.930 . S
H951 C943 0.929 . S
H952 C960 0.929 . S
H953 C962 0.930 . S
H954 C964 0.930 . S
H955 C967 0.929 . S
H956 C970 0.930 . S
H957 C972 0.960 . S
H958 C972 0.960 . S
H959 C972 0.960 . S
C960 H952 0.929 . S
C960 C961 1.377 . S
C960 C962 1.384 . S
C961 C960 1.377 . S
C961 C967 1.390 . S
C962 H953 0.930 . S
C962 C960 1.384 . S
C962 C963 1.372 . S
C963 C962 1.372 . S
C963 C964 1.400 . S
C963 C968 1.490 . S
C964 H954 0.930 . S
C964 C963 1.400 . S
C964 C967 1.386 . S
H965 C981 0.930 . S
H966 C982 0.931 . S
C967 H955 0.929 . S
C967 C961 1.390 . S
C967 C964 1.386 . S
C968 C963 1.490 . S
C968 C970 1.395 . S
C968 C971 1.403 . S
H969 C975 0.930 . S
C970 H956 0.930 . S
C970 C968 1.395 . S
C970 C973 1.403 . S
C971 C968 1.403 . S
C971 C972 1.524 . S
C971 C975 1.400 . S
C972 H957 0.960 . S
C972 H958 0.960 . S
C972 H959 0.960 . S
C972 C971 1.524 . S
C973 C970 1.403 . S
C973 C974 1.392 . S
C973 C977 1.495 . S
C974 C973 1.392 . S
C974 C975 1.385 . S
C974 C976 1.478 . S
C975 H969 0.930 . S
C975 C971 1.400 . S
C975 C974 1.385 . S
C976 C974 1.478 . S
C976 C978 1.381 . S
C976 C982 1.383 . S
C977 C973 1.495 . S
C977 H983 0.959 . S
C977 H984 0.961 . S
C977 H985 0.960 . S
C978 C976 1.381 . S
C978 C979 1.394 . S
C978 H986 0.930 . S
C979 C978 1.394 . S
C979 C980 1.383 . S
C979 H987 0.929 . S
C980 C979 1.383 . S
C980 C981 1.377 . S
C981 H965 0.930 . S
C981 C980 1.377 . S
C981 C982 1.379 . S
C982 H966 0.931 . S
C982 C976 1.383 . S
C982 C981 1.379 . S
H983 C977 0.959 . S
H984 C977 0.961 . S
H985 C977 0.960 . S
H986 C978 0.930 . S
H987 C979 0.929 . S
H988 C996 0.929 . S
H989 C998 0.930 . S
H990 C1000 0.930 . S
H991 C1003 0.929 . S
H992 C1006 0.930 . S
H993 C1008 0.960 . S
H994 C1008 0.960 . S
H995 C1008 0.960 . S
C996 H988 0.929 . S
C996 C997 1.377 . S
C996 C998 1.384 . S
C997 C996 1.377 . S
C997 C1003 1.390 . S
C998 H989 0.930 . S
C998 C996 1.384 . S
C998 C999 1.372 . S
C999 C998 1.372 . S
C999 C1000 1.400 . S
C999 C1004 1.490 . S
C1000 H990 0.930 . S
C1000 C999 1.400 . S
C1000 C1003 1.386 . S
H1001 C1017 0.930 . S
H1002 C1018 0.931 . S
C1003 H991 0.929 . S
C1003 C997 1.390 . S
C1003 C1000 1.386 . S
C1004 C999 1.490 . S
C1004 C1006 1.395 . S
C1004 C1007 1.403 . S
H1005 C1011 0.930 . S
C1006 H992 0.930 . S
C1006 C1004 1.395 . S
C1006 C1009 1.403 1_545 S
C1007 C1004 1.403 . S
C1007 C1008 1.524 . S
C1007 C1011 1.400 . S
C1008 H993 0.960 . S
C1008 H994 0.960 . S
C1008 H995 0.960 . S
C1008 C1007 1.524 . S
C1009 C1006 1.403 1_565 S
C1009 C1010 1.392 . S
C1009 C1013 1.495 . S
C1010 C1009 1.392 . S
C1010 C1011 1.385 1_565 S
C1010 C1012 1.478 . S
C1011 H1005 0.930 . S
C1011 C1007 1.400 . S
C1011 C1010 1.385 1_545 S
C1012 C1010 1.478 . S
C1012 C1014 1.381 . S
C1012 C1018 1.383 . S
C1013 C1009 1.495 . S
C1013 H1019 0.959 . S
C1013 H1020 0.961 . S
C1013 H1021 0.960 . S
C1014 C1012 1.381 . S
C1014 C1015 1.394 . S
C1014 H1022 0.930 . S
C1015 C1014 1.394 . S
C1015 C1016 1.383 . S
C1015 H1023 0.929 . S
C1016 C1015 1.383 . S
C1016 C1017 1.377 . S
C1017 H1001 0.930 . S
C1017 C1016 1.377 . S
C1017 C1018 1.379 . S
C1018 H1002 0.931 . S
C1018 C1012 1.383 . S
C1018 C1017 1.379 . S
H1019 C1013 0.959 . S
H1020 C1013 0.961 . S
H1021 C1013 0.960 . S
H1022 C1014 0.930 . S
H1023 C1015 0.929 . S
H1024 C1032 0.929 1_545 S
H1025 C1034 0.930 . S
H1026 C1036 0.930 . S
H1027 C1039 0.929 . S
H1028 C1042 0.930 . S
H1029 C1044 0.960 . S
H1030 C1044 0.960 . S
H1031 C1044 0.960 . S
C1032 H1024 0.929 1_565 S
C1032 C1033 1.377 . S
C1032 C1034 1.384 . S
C1033 C1032 1.377 . S
C1033 C1039 1.390 . S
C1034 H1025 0.930 . S
C1034 C1032 1.384 . S
C1034 C1035 1.372 . S
C1035 C1034 1.372 . S
C1035 C1036 1.400 . S
C1035 C1040 1.490 . S
C1036 H1026 0.930 . S
C1036 C1035 1.400 . S
C1036 C1039 1.386 . S
H1037 C1053 0.930 . S
H1038 C1054 0.931 . S
C1039 H1027 0.929 . S
C1039 C1033 1.390 . S
C1039 C1036 1.386 . S
C1040 C1035 1.490 . S
C1040 C1042 1.395 . S
C1040 C1043 1.403 . S
H1041 C1047 0.930 . S
C1042 H1028 0.930 . S
C1042 C1040 1.395 . S
C1042 C1045 1.403 . S
C1043 C1040 1.403 . S
C1043 C1044 1.524 . S
C1043 C1047 1.400 . S
C1044 H1029 0.960 . S
C1044 H1030 0.960 . S
C1044 H1031 0.960 . S
C1044 C1043 1.524 . S
C1045 C1042 1.403 . S
C1045 C1046 1.392 . S
C1045 C1049 1.495 . S
C1046 C1045 1.392 . S
C1046 C1047 1.385 . S
C1046 C1048 1.478 . S
C1047 H1041 0.930 . S
C1047 C1043 1.400 . S
C1047 C1046 1.385 . S
C1048 C1046 1.478 . S
C1048 C1050 1.381 . S
C1048 C1054 1.383 . S
C1049 C1045 1.495 . S
C1049 H1055 0.959 . S
C1049 H1056 0.961 . S
C1049 H1057 0.960 . S
C1050 C1048 1.381 . S
C1050 C1051 1.394 . S
C1050 H1058 0.930 . S
C1051 C1050 1.394 . S
C1051 C1052 1.383 . S
C1051 H1059 0.929 . S
C1052 C1051 1.383 . S
C1052 C1053 1.377 . S
C1053 H1037 0.930 . S
C1053 C1052 1.377 . S
C1053 C1054 1.379 . S
C1054 H1038 0.931 . S
C1054 C1048 1.383 . S
C1054 C1053 1.379 . S
H1055 C1049 0.959 . S
H1056 C1049 0.961 . S
H1057 C1049 0.960 . S
H1058 C1050 0.930 . S
H1059 C1051 0.929 . S
H1060 C1068 0.929 . S
H1061 C1070 0.930 . S
H1062 C1072 0.930 . S
H1063 C1075 0.929 . S
H1064 C1078 0.930 . S
H1065 C1080 0.960 . S
H1066 C1080 0.960 . S
H1067 C1080 0.960 . S
C1068 H1060 0.929 . S
C1068 C1069 1.377 . S
C1068 C1070 1.384 . S
C1069 C1068 1.377 . S
C1069 C1075 1.390 . S
C1070 H1061 0.930 . S
C1070 C1068 1.384 . S
C1070 C1071 1.372 . S
C1071 C1070 1.372 . S
C1071 C1072 1.400 . S
C1071 C1076 1.490 . S
C1072 H1062 0.930 . S
C1072 C1071 1.400 . S
C1072 C1075 1.386 . S
H1073 C1089 0.930 . S
H1074 C1090 0.931 . S
C1075 H1063 0.929 . S
C1075 C1069 1.390 . S
C1075 C1072 1.386 . S
C1076 C1071 1.490 . S
C1076 C1078 1.395 . S
C1076 C1079 1.403 . S
H1077 C1083 0.930 . S
C1078 H1064 0.930 . S
C1078 C1076 1.395 . S
C1078 C1081 1.403 1_565 S
C1079 C1076 1.403 . S
C1079 C1080 1.524 . S
C1079 C1083 1.400 . S
C1080 H1065 0.960 . S
C1080 H1066 0.960 . S
C1080 H1067 0.960 . S
C1080 C1079 1.524 . S
C1081 C1078 1.403 1_545 S
C1081 C1082 1.392 . S
C1081 C1085 1.495 . S
C1082 C1081 1.392 . S
C1082 C1083 1.385 1_545 S
C1082 C1084 1.478 . S
C1083 H1077 0.930 . S
C1083 C1079 1.400 . S
C1083 C1082 1.385 1_565 S
C1084 C1082 1.478 . S
C1084 C1086 1.381 . S
C1084 C1090 1.383 . S
C1085 C1081 1.495 . S
C1085 H1091 0.959 . S
C1085 H1092 0.961 . S
C1085 H1093 0.960 . S
C1086 C1084 1.381 . S
C1086 C1087 1.394 . S
C1086 H1094 0.930 . S
C1087 C1086 1.394 . S
C1087 C1088 1.383 . S
C1087 H1095 0.929 . S
C1088 C1087 1.383 . S
C1088 C1089 1.377 . S
C1089 H1073 0.930 . S
C1089 C1088 1.377 . S
C1089 C1090 1.379 . S
C1090 H1074 0.931 . S
C1090 C1084 1.383 . S
C1090 C1089 1.379 . S
H1091 C1085 0.959 . S
H1092 C1085 0.961 . S
H1093 C1085 0.960 . S
H1094 C1086 0.930 . S
H1095 C1087 0.929 . S
H1096 C1104 0.929 1_545 S
H1097 C1106 0.930 . S
H1098 C1108 0.930 . S
H1099 C1111 0.929 . S
H1100 C1114 0.930 . S
H1101 C1116 0.960 . S
H1102 C1116 0.960 . S
H1103 C1116 0.960 . S
C1104 H1096 0.929 1_565 S
C1104 C1105 1.377 . S
C1104 C1106 1.384 . S
C1105 C1104 1.377 . S
C1105 C1111 1.390 . S
C1106 H1097 0.930 . S
C1106 C1104 1.384 . S
C1106 C1107 1.372 . S
C1107 C1106 1.372 . S
C1107 C1108 1.400 . S
C1107 C1112 1.490 . S
C1108 H1098 0.930 . S
C1108 C1107 1.400 . S
C1108 C1111 1.386 . S
H1109 C1125 0.930 . S
H1110 C1126 0.931 . S
C1111 H1099 0.929 . S
C1111 C1105 1.390 . S
C1111 C1108 1.386 . S
C1112 C1107 1.490 . S
C1112 C1114 1.395 . S
C1112 C1115 1.403 . S
H1113 C1119 0.930 . S
C1114 H1100 0.930 . S
C1114 C1112 1.395 . S
C1114 C1117 1.403 . S
C1115 C1112 1.403 . S
C1115 C1116 1.524 . S
C1115 C1119 1.400 . S
C1116 H1101 0.960 . S
C1116 H1102 0.960 . S
C1116 H1103 0.960 . S
C1116 C1115 1.524 . S
C1117 C1114 1.403 . S
C1117 C1118 1.392 . S
C1117 C1121 1.495 . S
C1118 C1117 1.392 . S
C1118 C1119 1.385 . S
C1118 C1120 1.478 . S
C1119 H1113 0.930 . S
C1119 C1115 1.400 . S
C1119 C1118 1.385 . S
C1120 C1118 1.478 . S
C1120 C1122 1.381 . S
C1120 C1126 1.383 . S
C1121 C1117 1.495 . S
C1121 H1127 0.959 . S
C1121 H1128 0.961 . S
C1121 H1129 0.960 . S
C1122 C1120 1.381 . S
C1122 C1123 1.394 . S
C1122 H1130 0.930 . S
C1123 C1122 1.394 . S
C1123 C1124 1.383 . S
C1123 H1131 0.929 . S
C1124 C1123 1.383 . S
C1124 C1125 1.377 . S
C1125 H1109 0.930 . S
C1125 C1124 1.377 . S
C1125 C1126 1.379 . S
C1126 H1110 0.931 . S
C1126 C1120 1.383 . S
C1126 C1125 1.379 . S
H1127 C1121 0.959 . S
H1128 C1121 0.961 . S
H1129 C1121 0.960 . S
H1130 C1122 0.930 . S
H1131 C1123 0.929 . S
H1132 C1140 0.929 . S
H1133 C1142 0.930 . S
H1134 C1144 0.930 . S
H1135 C1147 0.929 . S
H1136 C1150 0.930 . S
H1137 C1152 0.960 . S
H1138 C1152 0.960 . S
H1139 C1152 0.960 . S
C1140 H1132 0.929 . S
C1140 C1141 1.377 . S
C1140 C1142 1.384 . S
C1141 C1140 1.377 . S
C1141 C1147 1.390 . S
C1142 H1133 0.930 . S
C1142 C1140 1.384 . S
C1142 C1143 1.372 . S
C1143 C1142 1.372 . S
C1143 C1144 1.400 . S
C1143 C1148 1.490 . S
C1144 H1134 0.930 . S
C1144 C1143 1.400 . S
C1144 C1147 1.386 . S
H1145 C1161 0.930 . S
H1146 C1162 0.931 . S
C1147 H1135 0.929 . S
C1147 C1141 1.390 . S
C1147 C1144 1.386 . S
C1148 C1143 1.490 . S
C1148 C1150 1.395 . S
C1148 C1151 1.403 . S
H1149 C1155 0.930 . S
C1150 H1136 0.930 . S
C1150 C1148 1.395 . S
C1150 C1153 1.403 1_545 S
C1151 C1148 1.403 . S
C1151 C1152 1.524 . S
C1151 C1155 1.400 . S
C1152 H1137 0.960 . S
C1152 H1138 0.960 . S
C1152 H1139 0.960 . S
C1152 C1151 1.524 . S
C1153 C1150 1.403 1_565 S
C1153 C1154 1.392 . S
C1153 C1157 1.495 . S
C1154 C1153 1.392 . S
C1154 C1155 1.385 1_565 S
C1154 C1156 1.478 . S
C1155 H1149 0.930 . S
C1155 C1151 1.400 . S
C1155 C1154 1.385 1_545 S
C1156 C1154 1.478 . S
C1156 C1158 1.381 . S
C1156 C1162 1.383 . S
C1157 C1153 1.495 . S
C1157 H1163 0.959 . S
C1157 H1164 0.961 . S
C1157 H1165 0.960 . S
C1158 C1156 1.381 . S
C1158 C1159 1.394 . S
C1158 H1166 0.930 . S
C1159 C1158 1.394 . S
C1159 C1160 1.383 . S
C1159 H1167 0.929 . S
C1160 C1159 1.383 . S
C1160 C1161 1.377 . S
C1161 H1145 0.930 . S
C1161 C1160 1.377 . S
C1161 C1162 1.379 . S
C1162 H1146 0.931 . S
C1162 C1156 1.383 . S
C1162 C1161 1.379 . S
H1163 C1157 0.959 . S
H1164 C1157 0.961 . S
H1165 C1157 0.960 . S
H1166 C1158 0.930 . S
H1167 C1159 0.929 . S
H1168 C1176 0.929 . S
H1169 C1178 0.930 . S
H1170 C1180 0.930 . S
H1171 C1183 0.929 . S
H1172 C1186 0.930 . S
H1173 C1188 0.960 . S
H1174 C1188 0.960 . S
H1175 C1188 0.960 . S
C1176 H1168 0.929 . S
C1176 C1177 1.377 . S
C1176 C1178 1.384 . S
C1177 C1176 1.377 . S
C1177 C1183 1.390 . S
C1178 H1169 0.930 . S
C1178 C1176 1.384 . S
C1178 C1179 1.372 . S
C1179 C1178 1.372 . S
C1179 C1180 1.400 . S
C1179 C1184 1.490 . S
C1180 H1170 0.930 . S
C1180 C1179 1.400 . S
C1180 C1183 1.386 . S
H1181 C1197 0.930 . S
H1182 C1198 0.931 . S
C1183 H1171 0.929 . S
C1183 C1177 1.390 . S
C1183 C1180 1.386 . S
C1184 C1179 1.490 . S
C1184 C1186 1.395 . S
C1184 C1187 1.403 . S
H1185 C1191 0.930 . S
C1186 H1172 0.930 . S
C1186 C1184 1.395 . S
C1186 C1189 1.403 . S
C1187 C1184 1.403 . S
C1187 C1188 1.524 . S
C1187 C1191 1.400 . S
C1188 H1173 0.960 . S
C1188 H1174 0.960 . S
C1188 H1175 0.960 . S
C1188 C1187 1.524 . S
C1189 C1186 1.403 . S
C1189 C1190 1.392 . S
C1189 C1193 1.495 . S
C1190 C1189 1.392 . S
C1190 C1191 1.385 . S
C1190 C1192 1.478 . S
C1191 H1185 0.930 . S
C1191 C1187 1.400 . S
C1191 C1190 1.385 . S
C1192 C1190 1.478 . S
C1192 C1194 1.381 . S
C1192 C1198 1.383 . S
C1193 C1189 1.495 . S
C1193 H1199 0.959 . S
C1193 H1200 0.961 . S
C1193 H1201 0.960 . S
C1194 C1192 1.381 . S
C1194 C1195 1.394 . S
C1194 H1202 0.930 . S
C1195 C1194 1.394 . S
C1195 C1196 1.383 . S
C1195 H1203 0.929 . S
C1196 C1195 1.383 . S
C1196 C1197 1.377 . S
C1197 H1181 0.930 . S
C1197 C1196 1.377 . S
C1197 C1198 1.379 . S
C1198 H1182 0.931 . S
C1198 C1192 1.383 . S
C1198 C1197 1.379 . S
H1199 C1193 0.959 . S
H1200 C1193 0.961 . S
H1201 C1193 0.960 . S
H1202 C1194 0.930 . S
H1203 C1195 0.929 . S
H1204 C1212 0.929 . S
H1205 C1214 0.930 . S
H1206 C1216 0.930 . S
H1207 C1219 0.929 . S
H1208 C1222 0.930 . S
H1209 C1224 0.960 . S
H1210 C1224 0.960 . S
H1211 C1224 0.960 . S
C1212 H1204 0.929 . S
C1212 C1213 1.377 . S
C1212 C1214 1.384 . S
C1213 C1212 1.377 . S
C1213 C1219 1.390 . S
C1214 H1205 0.930 . S
C1214 C1212 1.384 . S
C1214 C1215 1.372 . S
C1215 C1214 1.372 . S
C1215 C1216 1.400 . S
C1215 C1220 1.490 . S
C1216 H1206 0.930 . S
C1216 C1215 1.400 . S
C1216 C1219 1.386 . S
H1217 C1233 0.930 . S
H1218 C1234 0.931 . S
C1219 H1207 0.929 . S
C1219 C1213 1.390 . S
C1219 C1216 1.386 . S
C1220 C1215 1.490 . S
C1220 C1222 1.395 . S
C1220 C1223 1.403 . S
H1221 C1227 0.930 . S
C1222 H1208 0.930 . S
C1222 C1220 1.395 . S
C1222 C1225 1.403 1_565 S
C1223 C1220 1.403 . S
C1223 C1224 1.524 . S
C1223 C1227 1.400 1_565 S
C1224 H1209 0.960 . S
C1224 H1210 0.960 . S
C1224 H1211 0.960 . S
C1224 C1223 1.524 . S
C1225 C1222 1.403 1_545 S
C1225 C1226 1.392 . S
C1225 C1229 1.495 . S
C1226 C1225 1.392 . S
C1226 C1227 1.385 . S
C1226 C1228 1.478 . S
C1227 H1221 0.930 . S
C1227 C1223 1.400 1_545 S
C1227 C1226 1.385 . S
C1228 C1226 1.478 . S
C1228 C1230 1.381 . S
C1228 C1234 1.383 . S
C1229 C1225 1.495 . S
C1229 H1235 0.959 . S
C1229 H1236 0.961 . S
C1229 H1237 0.960 . S
C1230 C1228 1.381 . S
C1230 C1231 1.394 . S
C1230 H1238 0.930 . S
C1231 C1230 1.394 . S
C1231 C1232 1.383 . S
C1231 H1239 0.929 . S
C1232 C1231 1.383 . S
C1232 C1233 1.377 . S
C1233 H1217 0.930 . S
C1233 C1232 1.377 . S
C1233 C1234 1.379 . S
C1234 H1218 0.931 . S
C1234 C1228 1.383 . S
C1234 C1233 1.379 . S
H1235 C1229 0.959 . S
H1236 C1229 0.961 . S
H1237 C1229 0.960 . S
H1238 C1230 0.930 . S
H1239 C1231 0.929 . S
H1240 C1248 0.929 1_556 S
H1241 C1250 0.930 . S
H1242 C1252 0.930 . S
H1243 C1255 0.929 . S
H1244 C1258 0.930 . S
H1245 C1260 0.960 . S
H1246 C1260 0.960 . S
H1247 C1260 0.960 . S
C1248 H1240 0.929 1_554 S
C1248 C1249 1.377 . S
C1248 C1250 1.384 . S
C1249 C1248 1.377 . S
C1249 C1255 1.390 . S
C1250 H1241 0.930 . S
C1250 C1248 1.384 . S
C1250 C1251 1.372 . S
C1251 C1250 1.372 . S
C1251 C1252 1.400 . S
C1251 C1256 1.490 . S
C1252 H1242 0.930 . S
C1252 C1251 1.400 . S
C1252 C1255 1.386 . S
H1253 C1269 0.930 . S
H1254 C1270 0.931 . S
C1255 H1243 0.929 . S
C1255 C1249 1.390 . S
C1255 C1252 1.386 . S
C1256 C1251 1.490 . S
C1256 C1258 1.395 . S
C1256 C1259 1.403 . S
H1257 C1263 0.930 . S
C1258 H1244 0.930 . S
C1258 C1256 1.395 . S
C1258 C1261 1.403 . S
C1259 C1256 1.403 . S
C1259 C1260 1.524 . S
C1259 C1263 1.400 . S
C1260 H1245 0.960 . S
C1260 H1246 0.960 . S
C1260 H1247 0.960 . S
C1260 C1259 1.524 . S
C1261 C1258 1.403 . S
C1261 C1262 1.392 . S
C1261 C1265 1.495 . S
C1262 C1261 1.392 . S
C1262 C1263 1.385 . S
C1262 C1264 1.478 . S
C1263 H1257 0.930 . S
C1263 C1259 1.400 . S
C1263 C1262 1.385 . S
C1264 C1262 1.478 . S
C1264 C1266 1.381 . S
C1264 C1270 1.383 . S
C1265 C1261 1.495 . S
C1265 H1271 0.959 . S
C1265 H1272 0.961 . S
C1265 H1273 0.960 . S
C1266 C1264 1.381 . S
C1266 C1267 1.394 . S
C1266 H1274 0.930 . S
C1267 C1266 1.394 . S
C1267 C1268 1.383 . S
C1267 H1275 0.929 . S
C1268 C1267 1.383 . S
C1268 C1269 1.377 . S
C1269 H1253 0.930 . S
C1269 C1268 1.377 . S
C1269 C1270 1.379 . S
C1270 H1254 0.931 . S
C1270 C1264 1.383 . S
C1270 C1269 1.379 . S
H1271 C1265 0.959 . S
H1272 C1265 0.961 . S
H1273 C1265 0.960 . S
H1274 C1266 0.930 . S
H1275 C1267 0.929 . S
H1276 C1284 0.929 . S
H1277 C1286 0.930 . S
H1278 C1288 0.930 . S
H1279 C1291 0.929 . S
H1280 C1294 0.930 . S
H1281 C1296 0.960 . S
H1282 C1296 0.960 . S
H1283 C1296 0.960 . S
C1284 H1276 0.929 . S
C1284 C1285 1.377 . S
C1284 C1286 1.384 . S
C1285 C1284 1.377 . S
C1285 C1291 1.390 . S
C1286 H1277 0.930 . S
C1286 C1284 1.384 . S
C1286 C1287 1.372 . S
C1287 C1286 1.372 . S
C1287 C1288 1.400 . S
C1287 C1292 1.490 . S
C1288 H1278 0.930 . S
C1288 C1287 1.400 . S
C1288 C1291 1.386 . S
H1289 C1305 0.930 . S
H1290 C1306 0.931 . S
C1291 H1279 0.929 . S
C1291 C1285 1.390 . S
C1291 C1288 1.386 . S
C1292 C1287 1.490 . S
C1292 C1294 1.395 . S
C1292 C1295 1.403 . S
H1293 C1299 0.930 . S
C1294 H1280 0.930 . S
C1294 C1292 1.395 . S
C1294 C1297 1.403 . S
C1295 C1292 1.403 . S
C1295 C1296 1.524 . S
C1295 C1299 1.400 . S
C1296 H1281 0.960 . S
C1296 H1282 0.960 . S
C1296 H1283 0.960 . S
C1296 C1295 1.524 . S
C1297 C1294 1.403 . S
C1297 C1298 1.392 . S
C1297 C1301 1.495 . S
C1298 C1297 1.392 . S
C1298 C1299 1.385 . S
C1298 C1300 1.478 . S
C1299 H1293 0.930 . S
C1299 C1295 1.400 . S
C1299 C1298 1.385 . S
C1300 C1298 1.478 . S
C1300 C1302 1.381 . S
C1300 C1306 1.383 . S
C1301 C1297 1.495 . S
C1301 H1307 0.959 . S
C1301 H1308 0.961 . S
C1301 H1309 0.960 . S
C1302 C1300 1.381 . S
C1302 C1303 1.394 . S
C1302 H1310 0.930 . S
C1303 C1302 1.394 . S
C1303 C1304 1.383 . S
C1303 H1311 0.929 . S
C1304 C1303 1.383 . S
C1304 C1305 1.377 . S
C1305 H1289 0.930 . S
C1305 C1304 1.377 . S
C1305 C1306 1.379 . S
C1306 H1290 0.931 . S
C1306 C1300 1.383 . S
C1306 C1305 1.379 . S
H1307 C1301 0.959 . S
H1308 C1301 0.961 . S
H1309 C1301 0.960 . S
H1310 C1302 0.930 . S
H1311 C1303 0.929 . S
H1312 C1320 0.929 . S
H1313 C1322 0.930 . S
H1314 C1324 0.930 . S
H1315 C1327 0.929 . S
H1316 C1330 0.930 . S
H1317 C1332 0.960 . S
H1318 C1332 0.960 . S
H1319 C1332 0.960 . S
C1320 H1312 0.929 . S
C1320 C1321 1.377 . S
C1320 C1322 1.384 . S
C1321 C1320 1.377 . S
C1321 C1327 1.390 . S
C1322 H1313 0.930 . S
C1322 C1320 1.384 . S
C1322 C1323 1.372 . S
C1323 C1322 1.372 . S
C1323 C1324 1.400 . S
C1323 C1328 1.490 . S
C1324 H1314 0.930 . S
C1324 C1323 1.400 . S
C1324 C1327 1.386 . S
H1325 C1341 0.930 . S
H1326 C1342 0.931 . S
C1327 H1315 0.929 . S
C1327 C1321 1.390 . S
C1327 C1324 1.386 . S
C1328 C1323 1.490 . S
C1328 C1330 1.395 . S
C1328 C1331 1.403 . S
H1329 C1335 0.930 1_655 S
C1330 H1316 0.930 . S
C1330 C1328 1.395 . S
C1330 C1333 1.403 1_455 S
C1331 C1328 1.403 . S
C1331 C1332 1.524 . S
C1331 C1335 1.400 . S
C1332 H1317 0.960 . S
C1332 H1318 0.960 . S
C1332 H1319 0.960 . S
C1332 C1331 1.524 . S
C1333 C1330 1.403 1_655 S
C1333 C1334 1.392 . S
C1333 C1337 1.495 . S
C1334 C1333 1.392 . S
C1334 C1335 1.385 1_655 S
C1334 C1336 1.478 . S
C1335 H1329 0.930 1_455 S
C1335 C1331 1.400 . S
C1335 C1334 1.385 1_455 S
C1336 C1334 1.478 . S
C1336 C1338 1.381 . S
C1336 C1342 1.383 . S
C1337 C1333 1.495 . S
C1337 H1343 0.959 . S
C1337 H1344 0.961 . S
C1337 H1345 0.960 . S
C1338 C1336 1.381 . S
C1338 C1339 1.394 . S
C1338 H1346 0.930 . S
C1339 C1338 1.394 . S
C1339 C1340 1.383 . S
C1339 H1347 0.929 . S
C1340 C1339 1.383 . S
C1340 C1341 1.377 . S
C1341 H1325 0.930 . S
C1341 C1340 1.377 . S
C1341 C1342 1.379 . S
C1342 H1326 0.931 . S
C1342 C1336 1.383 . S
C1342 C1341 1.379 . S
H1343 C1337 0.959 . S
H1344 C1337 0.961 . S
H1345 C1337 0.960 . S
H1346 C1338 0.930 . S
H1347 C1339 0.929 . S
H1348 C1356 0.929 . S
H1349 C1358 0.930 . S
H1350 C1360 0.930 . S
H1351 C1363 0.929 . S
H1352 C1366 0.930 . S
H1353 C1368 0.960 . S
H1354 C1368 0.960 . S
H1355 C1368 0.960 . S
C1356 H1348 0.929 . S
C1356 C1357 1.377 . S
C1356 C1358 1.384 . S
C1357 C1356 1.377 . S
C1357 C1363 1.390 . S
C1358 H1349 0.930 . S
C1358 C1356 1.384 . S
C1358 C1359 1.372 . S
C1359 C1358 1.372 . S
C1359 C1360 1.400 . S
C1359 C1364 1.490 . S
C1360 H1350 0.930 . S
C1360 C1359 1.400 . S
C1360 C1363 1.386 . S
H1361 C1377 0.930 . S
H1362 C1378 0.931 . S
C1363 H1351 0.929 . S
C1363 C1357 1.390 . S
C1363 C1360 1.386 . S
C1364 C1359 1.490 . S
C1364 C1366 1.395 . S
C1364 C1367 1.403 . S
H1365 C1371 0.930 . S
C1366 H1352 0.930 . S
C1366 C1364 1.395 . S
C1366 C1369 1.403 . S
C1367 C1364 1.403 . S
C1367 C1368 1.524 . S
C1367 C1371 1.400 . S
C1368 H1353 0.960 . S
C1368 H1354 0.960 . S
C1368 H1355 0.960 . S
C1368 C1367 1.524 . S
C1369 C1366 1.403 . S
C1369 C1370 1.392 . S
C1369 C1373 1.495 . S
C1370 C1369 1.392 . S
C1370 C1371 1.385 . S
C1370 C1372 1.478 . S
C1371 H1365 0.930 . S
C1371 C1367 1.400 . S
C1371 C1370 1.385 . S
C1372 C1370 1.478 . S
C1372 C1374 1.381 . S
C1372 C1378 1.383 . S
C1373 C1369 1.495 . S
C1373 H1379 0.959 . S
C1373 H1380 0.961 . S
C1373 H1381 0.960 . S
C1374 C1372 1.381 . S
C1374 C1375 1.394 . S
C1374 H1382 0.930 . S
C1375 C1374 1.394 . S
C1375 C1376 1.383 . S
C1375 H1383 0.929 . S
C1376 C1375 1.383 . S
C1376 C1377 1.377 . S
C1377 H1361 0.930 . S
C1377 C1376 1.377 . S
C1377 C1378 1.379 . S
C1378 H1362 0.931 . S
C1378 C1372 1.383 . S
C1378 C1377 1.379 . S
H1379 C1373 0.959 . S
H1380 C1373 0.961 . S
H1381 C1373 0.960 . S
H1382 C1374 0.930 . S
H1383 C1375 0.929 . S
H1384 C1392 0.929 . S
H1385 C1394 0.930 . S
H1386 C1396 0.930 . S
H1387 C1399 0.929 . S
H1388 C1402 0.930 . S
H1389 C1404 0.960 . S
H1390 C1404 0.960 . S
H1391 C1404 0.960 . S
C1392 H1384 0.929 . S
C1392 C1393 1.377 . S
C1392 C1394 1.384 . S
C1393 C1392 1.377 . S
C1393 C1399 1.390 . S
C1394 H1385 0.930 . S
C1394 C1392 1.384 . S
C1394 C1395 1.372 . S
C1395 C1394 1.372 . S
C1395 C1396 1.400 . S
C1395 C1400 1.490 . S
C1396 H1386 0.930 . S
C1396 C1395 1.400 . S
C1396 C1399 1.386 . S
H1397 C1413 0.930 . S
H1398 C1414 0.931 . S
C1399 H1387 0.929 . S
C1399 C1393 1.390 . S
C1399 C1396 1.386 . S
C1400 C1395 1.490 . S
C1400 C1402 1.395 . S
C1400 C1403 1.403 . S
H1401 C1407 0.930 . S
C1402 H1388 0.930 . S
C1402 C1400 1.395 . S
C1402 C1405 1.403 . S
C1403 C1400 1.403 . S
C1403 C1404 1.524 . S
C1403 C1407 1.400 1_655 S
C1404 H1389 0.960 . S
C1404 H1390 0.960 . S
C1404 H1391 0.960 . S
C1404 C1403 1.524 . S
C1405 C1402 1.403 . S
C1405 C1406 1.392 1_655 S
C1405 C1409 1.495 . S
C1406 C1405 1.392 1_455 S
C1406 C1407 1.385 . S
C1406 C1408 1.478 . S
C1407 H1401 0.930 . S
C1407 C1403 1.400 1_455 S
C1407 C1406 1.385 . S
C1408 C1406 1.478 . S
C1408 C1410 1.381 . S
C1408 C1414 1.383 . S
C1409 C1405 1.495 . S
C1409 H1415 0.959 . S
C1409 H1416 0.961 1_655 S
C1409 H1417 0.960 . S
C1410 C1408 1.381 . S
C1410 C1411 1.394 . S
C1410 H1418 0.930 . S
C1411 C1410 1.394 . S
C1411 C1412 1.383 . S
C1411 H1419 0.929 . S
C1412 C1411 1.383 . S
C1412 C1413 1.377 . S
C1413 H1397 0.930 . S
C1413 C1412 1.377 . S
C1413 C1414 1.379 . S
C1414 H1398 0.931 . S
C1414 C1408 1.383 . S
C1414 C1413 1.379 . S
H1415 C1409 0.959 . S
H1416 C1409 0.961 1_455 S
H1417 C1409 0.960 . S
H1418 C1410 0.930 . S
H1419 C1411 0.929 . S
H1420 C1428 0.929 . S
H1421 C1430 0.930 . S
H1422 C1432 0.930 . S
H1423 C1435 0.929 . S
H1424 C1438 0.930 . S
H1425 C1440 0.960 . S
H1426 C1440 0.960 . S
H1427 C1440 0.960 . S
C1428 H1420 0.929 . S
C1428 C1429 1.377 . S
C1428 C1430 1.384 . S
C1429 C1428 1.377 . S
C1429 C1435 1.390 . S
C1430 H1421 0.930 . S
C1430 C1428 1.384 . S
C1430 C1431 1.372 . S
C1431 C1430 1.372 . S
C1431 C1432 1.400 . S
C1431 C1436 1.490 . S
C1432 H1422 0.930 . S
C1432 C1431 1.400 . S
C1432 C1435 1.386 . S
H1433 C1449 0.930 . S
H1434 C1450 0.931 . S
C1435 H1423 0.929 . S
C1435 C1429 1.390 . S
C1435 C1432 1.386 . S
C1436 C1431 1.490 . S
C1436 C1438 1.395 . S
C1436 C1439 1.403 . S
H1437 C1443 0.930 . S
C1438 H1424 0.930 . S
C1438 C1436 1.395 . S
C1438 C1441 1.403 . S
C1439 C1436 1.403 . S
C1439 C1440 1.524 . S
C1439 C1443 1.400 . S
C1440 H1425 0.960 . S
C1440 H1426 0.960 . S
C1440 H1427 0.960 . S
C1440 C1439 1.524 . S
C1441 C1438 1.403 . S
C1441 C1442 1.392 . S
C1441 C1445 1.495 . S
C1442 C1441 1.392 . S
C1442 C1443 1.385 . S
C1442 C1444 1.478 . S
C1443 H1437 0.930 . S
C1443 C1439 1.400 . S
C1443 C1442 1.385 . S
C1444 C1442 1.478 . S
C1444 C1446 1.381 . S
C1444 C1450 1.383 . S
C1445 C1441 1.495 . S
C1445 H1451 0.959 . S
C1445 H1452 0.961 . S
C1445 H1453 0.960 . S
C1446 C1444 1.381 . S
C1446 C1447 1.394 . S
C1446 H1454 0.930 . S
C1447 C1446 1.394 . S
C1447 C1448 1.383 . S
C1447 H1455 0.929 . S
C1448 C1447 1.383 . S
C1448 C1449 1.377 . S
C1449 H1433 0.930 . S
C1449 C1448 1.377 . S
C1449 C1450 1.379 . S
C1450 H1434 0.931 . S
C1450 C1444 1.383 . S
C1450 C1449 1.379 . S
H1451 C1445 0.959 . S
H1452 C1445 0.961 . S
H1453 C1445 0.960 . S
H1454 C1446 0.930 . S
H1455 C1447 0.929 . S
H1456 C1464 0.929 . S
H1457 C1466 0.930 . S
H1458 C1468 0.930 . S
H1459 C1471 0.929 . S
H1460 C1474 0.930 . S
H1461 C1476 0.960 . S
H1462 C1476 0.960 . S
H1463 C1476 0.960 . S
C1464 H1456 0.929 . S
C1464 C1465 1.377 . S
C1464 C1466 1.384 . S
C1465 C1464 1.377 . S
C1465 C1471 1.390 . S
C1466 H1457 0.930 . S
C1466 C1464 1.384 . S
C1466 C1467 1.372 . S
C1467 C1466 1.372 . S
C1467 C1468 1.400 . S
C1467 C1472 1.490 . S
C1468 H1458 0.930 . S
C1468 C1467 1.400 . S
C1468 C1471 1.386 . S
H1469 C1485 0.930 . S
H1470 C1486 0.931 . S
C1471 H1459 0.929 . S
C1471 C1465 1.390 . S
C1471 C1468 1.386 . S
C1472 C1467 1.490 . S
C1472 C1474 1.395 . S
C1472 C1475 1.403 . S
H1473 C1479 0.930 . S
C1474 H1460 0.930 . S
C1474 C1472 1.395 . S
C1474 C1477 1.403 1_455 S
C1475 C1472 1.403 . S
C1475 C1476 1.524 . S
C1475 C1479 1.400 . S
C1476 H1461 0.960 . S
C1476 H1462 0.960 . S
C1476 H1463 0.960 . S
C1476 C1475 1.524 . S
C1477 C1474 1.403 1_655 S
C1477 C1478 1.392 . S
C1477 C1481 1.495 . S
C1478 C1477 1.392 . S
C1478 C1479 1.385 1_655 S
C1478 C1480 1.478 . S
C1479 H1473 0.930 . S
C1479 C1475 1.400 . S
C1479 C1478 1.385 1_455 S
C1480 C1478 1.478 . S
C1480 C1482 1.381 . S
C1480 C1486 1.383 . S
C1481 C1477 1.495 . S
C1481 H1487 0.959 . S
C1481 H1488 0.961 . S
C1481 H1489 0.960 . S
C1482 C1480 1.381 . S
C1482 C1483 1.394 . S
C1482 H1490 0.930 . S
C1483 C1482 1.394 . S
C1483 C1484 1.383 . S
C1483 H1491 0.929 . S
C1484 C1483 1.383 . S
C1484 C1485 1.377 . S
C1485 H1469 0.930 . S
C1485 C1484 1.377 . S
C1485 C1486 1.379 . S
C1486 H1470 0.931 . S
C1486 C1480 1.383 . S
C1486 C1485 1.379 . S
H1487 C1481 0.959 . S
H1488 C1481 0.961 . S
H1489 C1481 0.960 . S
H1490 C1482 0.930 . S
H1491 C1483 0.929 . S
H1492 C1500 0.929 . S
H1493 C1502 0.930 . S
H1494 C1504 0.930 . S
H1495 C1507 0.929 . S
H1496 C1510 0.930 . S
H1497 C1512 0.960 . S
H1498 C1512 0.960 . S
H1499 C1512 0.960 . S
C1500 H1492 0.929 . S
C1500 C1501 1.377 . S
C1500 C1502 1.384 . S
C1501 C1500 1.377 . S
C1501 C1507 1.390 . S
C1502 H1493 0.930 . S
C1502 C1500 1.384 . S
C1502 C1503 1.372 . S
C1503 C1502 1.372 . S
C1503 C1504 1.400 . S
C1503 C1508 1.490 . S
C1504 H1494 0.930 . S
C1504 C1503 1.400 . S
C1504 C1507 1.386 . S
H1505 C1521 0.930 . S
H1506 C1522 0.931 . S
C1507 H1495 0.929 . S
C1507 C1501 1.390 . S
C1507 C1504 1.386 . S
C1508 C1503 1.490 . S
C1508 C1510 1.395 . S
C1508 C1511 1.403 . S
H1509 C1515 0.930 . S
C1510 H1496 0.930 . S
C1510 C1508 1.395 . S
C1510 C1513 1.403 . S
C1511 C1508 1.403 . S
C1511 C1512 1.524 . S
C1511 C1515 1.400 . S
C1512 H1497 0.960 . S
C1512 H1498 0.960 . S
C1512 H1499 0.960 . S
C1512 C1511 1.524 . S
C1513 C1510 1.403 . S
C1513 C1514 1.392 . S
C1513 C1517 1.495 . S
C1514 C1513 1.392 . S
C1514 C1515 1.385 . S
C1514 C1516 1.478 . S
C1515 H1509 0.930 . S
C1515 C1511 1.400 . S
C1515 C1514 1.385 . S
C1516 C1514 1.478 . S
C1516 C1518 1.381 . S
C1516 C1522 1.383 . S
C1517 C1513 1.495 . S
C1517 H1523 0.959 . S
C1517 H1524 0.961 . S
C1517 H1525 0.960 . S
C1518 C1516 1.381 . S
C1518 C1519 1.394 . S
C1518 H1526 0.930 . S
C1519 C1518 1.394 . S
C1519 C1520 1.383 . S
C1519 H1527 0.929 . S
C1520 C1519 1.383 . S
C1520 C1521 1.377 . S
C1521 H1505 0.930 . S
C1521 C1520 1.377 . S
C1521 C1522 1.379 . S
C1522 H1506 0.931 . S
C1522 C1516 1.383 . S
C1522 C1521 1.379 . S
H1523 C1517 0.959 . S
H1524 C1517 0.961 . S
H1525 C1517 0.960 . S
H1526 C1518 0.930 . S
H1527 C1519 0.929 . S
H1528 C1536 0.929 . S
H1529 C1538 0.930 . S
H1530 C1540 0.930 . S
H1531 C1543 0.929 . S
H1532 C1546 0.930 . S
H1533 C1548 0.960 . S
H1534 C1548 0.960 . S
H1535 C1548 0.960 . S
C1536 H1528 0.929 . S
C1536 C1537 1.377 . S
C1536 C1538 1.384 . S
C1537 C1536 1.377 . S
C1537 C1543 1.390 . S
C1538 H1529 0.930 . S
C1538 C1536 1.384 . S
C1538 C1539 1.372 . S
C1539 C1538 1.372 . S
C1539 C1540 1.400 . S
C1539 C1544 1.490 . S
C1540 H1530 0.930 . S
C1540 C1539 1.400 . S
C1540 C1543 1.386 . S
H1541 C1557 0.930 . S
H1542 C1558 0.931 . S
C1543 H1531 0.929 . S
C1543 C1537 1.390 . S
C1543 C1540 1.386 . S
C1544 C1539 1.490 . S
C1544 C1546 1.395 . S
C1544 C1547 1.403 . S
H1545 C1551 0.930 . S
C1546 H1532 0.930 . S
C1546 C1544 1.395 . S
C1546 C1549 1.403 . S
C1547 C1544 1.403 . S
C1547 C1548 1.524 . S
C1547 C1551 1.400 . S
C1548 H1533 0.960 . S
C1548 H1534 0.960 . S
C1548 H1535 0.960 . S
C1548 C1547 1.524 . S
C1549 C1546 1.403 . S
C1549 C1550 1.392 . S
C1549 C1553 1.495 . S
C1550 C1549 1.392 . S
C1550 C1551 1.385 . S
C1550 C1552 1.478 . S
C1551 H1545 0.930 . S
C1551 C1547 1.400 . S
C1551 C1550 1.385 . S
C1552 C1550 1.478 . S
C1552 C1554 1.381 . S
C1552 C1558 1.383 . S
C1553 C1549 1.495 . S
C1553 H1559 0.959 . S
C1553 H1560 0.961 . S
C1553 H1561 0.960 . S
C1554 C1552 1.381 . S
C1554 C1555 1.394 . S
C1554 H1562 0.930 . S
C1555 C1554 1.394 . S
C1555 C1556 1.383 . S
C1555 H1563 0.929 . S
C1556 C1555 1.383 . S
C1556 C1557 1.377 . S
C1557 H1541 0.930 . S
C1557 C1556 1.377 . S
C1557 C1558 1.379 . S
C1558 H1542 0.931 . S
C1558 C1552 1.383 . S
C1558 C1557 1.379 . S
H1559 C1553 0.959 . S
H1560 C1553 0.961 . S
H1561 C1553 0.960 . S
H1562 C1554 0.930 . S
H1563 C1555 0.929 . S
H1564 C1572 0.929 . S
H1565 C1574 0.930 . S
H1566 C1576 0.930 . S
H1567 C1579 0.929 1_455 S
H1568 C1582 0.930 . S
H1569 C1584 0.960 . S
H1570 C1584 0.960 . S
H1571 C1584 0.960 . S
C1572 H1564 0.929 . S
C1572 C1573 1.377 . S
C1572 C1574 1.384 . S
C1573 C1572 1.377 . S
C1573 C1579 1.390 . S
C1574 H1565 0.930 . S
C1574 C1572 1.384 . S
C1574 C1575 1.372 . S
C1575 C1574 1.372 . S
C1575 C1576 1.400 . S
C1575 C1580 1.490 . S
C1576 H1566 0.930 . S
C1576 C1575 1.400 . S
C1576 C1579 1.386 . S
H1577 C1593 0.930 . S
H1578 C1594 0.931 . S
C1579 H1567 0.929 1_655 S
C1579 C1573 1.390 . S
C1579 C1576 1.386 . S
C1580 C1575 1.490 . S
C1580 C1582 1.395 . S
C1580 C1583 1.403 . S
H1581 C1587 0.930 . S
C1582 H1568 0.930 . S
C1582 C1580 1.395 . S
C1582 C1585 1.403 . S
C1583 C1580 1.403 . S
C1583 C1584 1.524 . S
C1583 C1587 1.400 . S
C1584 H1569 0.960 . S
C1584 H1570 0.960 . S
C1584 H1571 0.960 . S
C1584 C1583 1.524 . S
C1585 C1582 1.403 . S
C1585 C1586 1.392 . S
C1585 C1589 1.495 . S
C1586 C1585 1.392 . S
C1586 C1587 1.385 . S
C1586 C1588 1.478 . S
C1587 H1581 0.930 . S
C1587 C1583 1.400 . S
C1587 C1586 1.385 . S
C1588 C1586 1.478 . S
C1588 C1590 1.381 . S
C1588 C1594 1.383 . S
C1589 C1585 1.495 . S
C1589 H1595 0.959 . S
C1589 H1596 0.961 . S
C1589 H1597 0.960 . S
C1590 C1588 1.381 . S
C1590 C1591 1.394 . S
C1590 H1598 0.930 . S
C1591 C1590 1.394 . S
C1591 C1592 1.383 . S
C1591 H1599 0.929 . S
C1592 C1591 1.383 . S
C1592 C1593 1.377 . S
C1593 H1577 0.930 . S
C1593 C1592 1.377 . S
C1593 C1594 1.379 . S
C1594 H1578 0.931 . S
C1594 C1588 1.383 . S
C1594 C1593 1.379 . S
H1595 C1589 0.959 . S
H1596 C1589 0.961 . S
H1597 C1589 0.960 . S
H1598 C1590 0.930 . S
H1599 C1591 0.929 . S
H1600 C1608 0.929 . S
H1601 C1610 0.930 . S
H1602 C1612 0.930 . S
H1603 C1615 0.929 . S
H1604 C1618 0.930 . S
H1605 C1620 0.960 . S
H1606 C1620 0.960 . S
H1607 C1620 0.960 . S
C1608 H1600 0.929 . S
C1608 C1609 1.377 . S
C1608 C1610 1.384 . S
C1609 C1608 1.377 . S
C1609 C1615 1.390 . S
C1610 H1601 0.930 . S
C1610 C1608 1.384 . S
C1610 C1611 1.372 . S
C1611 C1610 1.372 . S
C1611 C1612 1.400 . S
C1611 C1616 1.490 . S
C1612 H1602 0.930 . S
C1612 C1611 1.400 . S
C1612 C1615 1.386 . S
H1613 C1629 0.930 . S
H1614 C1630 0.931 . S
C1615 H1603 0.929 . S
C1615 C1609 1.390 . S
C1615 C1612 1.386 . S
C1616 C1611 1.490 . S
C1616 C1618 1.395 . S
C1616 C1619 1.403 . S
H1617 C1623 0.930 . S
C1618 H1604 0.930 . S
C1618 C1616 1.395 . S
C1618 C1621 1.403 . S
C1619 C1616 1.403 . S
C1619 C1620 1.524 . S
C1619 C1623 1.400 . S
C1620 H1605 0.960 . S
C1620 H1606 0.960 . S
C1620 H1607 0.960 . S
C1620 C1619 1.524 . S
C1621 C1618 1.403 . S
C1621 C1622 1.392 . S
C1621 C1625 1.495 . S
C1622 C1621 1.392 . S
C1622 C1623 1.385 . S
C1622 C1624 1.478 . S
C1623 H1617 0.930 . S
C1623 C1619 1.400 . S
C1623 C1622 1.385 . S
C1624 C1622 1.478 . S
C1624 C1626 1.381 . S
C1624 C1630 1.383 . S
C1625 C1621 1.495 . S
C1625 H1631 0.959 . S
C1625 H1632 0.961 . S
C1625 H1633 0.960 . S
C1626 C1624 1.381 . S
C1626 C1627 1.394 . S
C1626 H1634 0.930 . S
C1627 C1626 1.394 . S
C1627 C1628 1.383 . S
C1627 H1635 0.929 . S
C1628 C1627 1.383 . S
C1628 C1629 1.377 . S
C1629 H1613 0.930 . S
C1629 C1628 1.377 . S
C1629 C1630 1.379 . S
C1630 H1614 0.931 . S
C1630 C1624 1.383 . S
C1630 C1629 1.379 . S
H1631 C1625 0.959 . S
H1632 C1625 0.961 . S
H1633 C1625 0.960 . S
H1634 C1626 0.930 . S
H1635 C1627 0.929 . S
H1636 C1644 0.929 . S
H1637 C1646 0.930 . S
H1638 C1648 0.930 . S
H1639 C1651 0.929 . S
H1640 C1654 0.930 . S
H1641 C1656 0.960 1_554 S
H1642 C1656 0.960 . S
H1643 C1656 0.960 . S
C1644 H1636 0.929 . S
C1644 C1645 1.377 . S
C1644 C1646 1.384 . S
C1645 C1644 1.377 . S
C1645 C1651 1.390 . S
C1646 H1637 0.930 . S
C1646 C1644 1.384 . S
C1646 C1647 1.372 . S
C1647 C1646 1.372 . S
C1647 C1648 1.400 . S
C1647 C1652 1.490 . S
C1648 H1638 0.930 . S
C1648 C1647 1.400 . S
C1648 C1651 1.386 . S
H1649 C1665 0.930 . S
H1650 C1666 0.931 . S
C1651 H1639 0.929 . S
C1651 C1645 1.390 . S
C1651 C1648 1.386 . S
C1652 C1647 1.490 . S
C1652 C1654 1.395 . S
C1652 C1655 1.403 . S
H1653 C1659 0.930 . S
C1654 H1640 0.930 . S
C1654 C1652 1.395 . S
C1654 C1657 1.403 . S
C1655 C1652 1.403 . S
C1655 C1656 1.524 . S
C1655 C1659 1.400 1_556 S
C1656 H1641 0.960 1_556 S
C1656 H1642 0.960 . S
C1656 H1643 0.960 . S
C1656 C1655 1.524 . S
C1657 C1654 1.403 . S
C1657 C1658 1.392 1_556 S
C1657 C1661 1.495 . S
C1658 C1657 1.392 1_554 S
C1658 C1659 1.385 . S
C1658 C1660 1.478 . S
C1659 H1653 0.930 . S
C1659 C1655 1.400 1_554 S
C1659 C1658 1.385 . S
C1660 C1658 1.478 . S
C1660 C1662 1.381 . S
C1660 C1666 1.383 . S
C1661 C1657 1.495 . S
C1661 H1667 0.959 . S
C1661 H1668 0.961 . S
C1661 H1669 0.950 1_556 S
C1662 C1660 1.381 . S
C1662 C1663 1.394 . S
C1662 H1670 0.930 . S
C1663 C1662 1.394 . S
C1663 C1664 1.383 . S
C1663 H1671 0.929 . S
C1664 C1663 1.383 . S
C1664 C1665 1.377 . S
C1665 H1649 0.930 . S
C1665 C1664 1.377 . S
C1665 C1666 1.379 . S
C1666 H1650 0.931 . S
C1666 C1660 1.383 . S
C1666 C1665 1.379 . S
H1667 C1661 0.959 . S
H1668 C1661 0.961 . S
H1669 C1661 0.950 1_554 S
H1670 C1662 0.930 . S
H1671 C1663 0.929 . S
H1672 C1680 0.929 . S
H1673 C1682 0.930 . S
H1674 C1684 0.930 . S
H1675 C1687 0.929 . S
H1676 C1690 0.930 . S
H1677 C1692 0.960 . S
H1678 C1692 0.960 . S
H1679 C1692 0.960 . S
C1680 H1672 0.929 . S
C1680 C1681 1.377 . S
C1680 C1682 1.384 . S
C1681 C1680 1.377 . S
C1681 C1687 1.390 . S
C1682 H1673 0.930 . S
C1682 C1680 1.384 . S
C1682 C1683 1.372 . S
C1683 C1682 1.372 . S
C1683 C1684 1.400 . S
C1683 C1688 1.490 . S
C1684 H1674 0.930 . S
C1684 C1683 1.400 . S
C1684 C1687 1.386 . S
H1685 C1701 0.930 . S
H1686 C1702 0.931 . S
C1687 H1675 0.929 . S
C1687 C1681 1.390 . S
C1687 C1684 1.386 . S
C1688 C1683 1.490 . S
C1688 C1690 1.395 . S
C1688 C1691 1.403 . S
H1689 C1695 0.930 . S
C1690 H1676 0.930 . S
C1690 C1688 1.395 . S
C1690 C1693 1.403 . S
C1691 C1688 1.403 . S
C1691 C1692 1.524 . S
C1691 C1695 1.400 . S
C1692 H1677 0.960 . S
C1692 H1678 0.960 . S
C1692 H1679 0.960 . S
C1692 C1691 1.524 . S
C1693 C1690 1.403 . S
C1693 C1694 1.392 . S
C1693 C1697 1.495 . S
C1694 C1693 1.392 . S
C1694 C1695 1.385 . S
C1694 C1696 1.478 . S
C1695 H1689 0.930 . S
C1695 C1691 1.400 . S
C1695 C1694 1.385 . S
C1696 C1694 1.478 . S
C1696 C1698 1.381 . S
C1696 C1702 1.383 . S
C1697 C1693 1.495 . S
C1697 H1703 0.959 . S
C1697 H1704 0.961 . S
C1697 H1705 0.960 . S
C1698 C1696 1.381 . S
C1698 C1699 1.394 . S
C1698 H1706 0.930 . S
C1699 C1698 1.394 . S
C1699 C1700 1.383 . S
C1699 H1707 0.929 . S
C1700 C1699 1.383 . S
C1700 C1701 1.377 . S
C1701 H1685 0.930 . S
C1701 C1700 1.377 . S
C1701 C1702 1.379 . S
C1702 H1686 0.931 . S
C1702 C1696 1.383 . S
C1702 C1701 1.379 . S
H1703 C1697 0.959 . S
H1704 C1697 0.961 . S
H1705 C1697 0.960 . S
H1706 C1698 0.930 . S
H1707 C1699 0.929 . S
H1708 C1716 0.929 . S
H1709 C1718 0.930 . S
H1710 C1720 0.930 . S
H1711 C1723 0.929 . S
H1712 C1726 0.930 . S
H1713 C1728 0.960 . S
H1714 C1728 0.960 . S
H1715 C1728 0.960 . S
C1716 H1708 0.929 . S
C1716 C1717 1.377 . S
C1716 C1718 1.384 . S
C1717 C1716 1.377 . S
C1717 C1723 1.390 . S
C1718 H1709 0.930 . S
C1718 C1716 1.384 . S
C1718 C1719 1.372 . S
C1719 C1718 1.372 . S
C1719 C1720 1.400 . S
C1719 C1724 1.490 . S
C1720 H1710 0.930 . S
C1720 C1719 1.400 . S
C1720 C1723 1.386 . S
H1721 C1737 0.930 . S
H1722 C1738 0.931 . S
C1723 H1711 0.929 . S
C1723 C1717 1.390 . S
C1723 C1720 1.386 . S
C1724 C1719 1.490 . S
C1724 C1726 1.395 . S
C1724 C1727 1.403 . S
H1725 C1731 0.930 . S
C1726 H1712 0.930 . S
C1726 C1724 1.395 . S
C1726 C1729 1.403 . S
C1727 C1724 1.403 . S
C1727 C1728 1.524 . S
C1727 C1731 1.400 . S
C1728 H1713 0.960 . S
C1728 H1714 0.960 . S
C1728 H1715 0.960 . S
C1728 C1727 1.524 . S
C1729 C1726 1.403 . S
C1729 C1730 1.392 . S
C1729 C1733 1.495 . S
C1730 C1729 1.392 . S
C1730 C1731 1.385 . S
C1730 C1732 1.478 . S
C1731 H1725 0.930 . S
C1731 C1727 1.400 . S
C1731 C1730 1.385 . S
C1732 C1730 1.478 . S
C1732 C1734 1.381 . S
C1732 C1738 1.383 . S
C1733 C1729 1.495 . S
C1733 H1739 0.959 . S
C1733 H1740 0.961 . S
C1733 H1741 0.960 . S
C1734 C1732 1.381 . S
C1734 C1735 1.394 . S
C1734 H1742 0.930 . S
C1735 C1734 1.394 . S
C1735 C1736 1.383 . S
C1735 H1743 0.929 . S
C1736 C1735 1.383 . S
C1736 C1737 1.377 . S
C1737 H1721 0.930 . S
C1737 C1736 1.377 . S
C1737 C1738 1.379 . S
C1738 H1722 0.931 . S
C1738 C1732 1.383 . S
C1738 C1737 1.379 . S
H1739 C1733 0.959 . S
H1740 C1733 0.961 . S
H1741 C1733 0.960 . S
H1742 C1734 0.930 . S
H1743 C1735 0.929 . S
H1744 C1752 0.929 . S
H1745 C1754 0.930 . S
H1746 C1756 0.930 . S
H1747 C1759 0.929 . S
H1748 C1762 0.930 . S
H1749 C1764 0.960 . S
H1750 C1764 0.960 . S
H1751 C1764 0.960 . S
C1752 H1744 0.929 . S
C1752 C1753 1.377 . S
C1752 C1754 1.384 . S
C1753 C1752 1.377 . S
C1753 C1759 1.390 . S
C1754 H1745 0.930 . S
C1754 C1752 1.384 . S
C1754 C1755 1.372 . S
C1755 C1754 1.372 . S
C1755 C1756 1.400 . S
C1755 C1760 1.490 . S
C1756 H1746 0.930 . S
C1756 C1755 1.400 . S
C1756 C1759 1.386 . S
H1757 C1773 0.930 . S
H1758 C1774 0.931 . S
C1759 H1747 0.929 . S
C1759 C1753 1.390 . S
C1759 C1756 1.386 . S
C1760 C1755 1.490 . S
C1760 C1762 1.395 . S
C1760 C1763 1.403 . S
H1761 C1767 0.930 . S
C1762 H1748 0.930 . S
C1762 C1760 1.395 . S
C1762 C1765 1.403 . S
C1763 C1760 1.403 . S
C1763 C1764 1.524 . S
C1763 C1767 1.400 . S
C1764 H1749 0.960 . S
C1764 H1750 0.960 . S
C1764 H1751 0.960 . S
C1764 C1763 1.524 . S
C1765 C1762 1.403 . S
C1765 C1766 1.392 . S
C1765 C1769 1.495 . S
C1766 C1765 1.392 . S
C1766 C1767 1.385 . S
C1766 C1768 1.478 . S
C1767 H1761 0.930 . S
C1767 C1763 1.400 . S
C1767 C1766 1.385 . S
C1768 C1766 1.478 . S
C1768 C1770 1.381 . S
C1768 C1774 1.383 . S
C1769 C1765 1.495 . S
C1769 H1775 0.959 . S
C1769 H1776 0.961 . S
C1769 H1777 0.960 . S
C1770 C1768 1.381 . S
C1770 C1771 1.394 . S
C1770 H1778 0.930 . S
C1771 C1770 1.394 . S
C1771 C1772 1.383 . S
C1771 H1779 0.929 . S
C1772 C1771 1.383 . S
C1772 C1773 1.377 . S
C1773 H1757 0.930 . S
C1773 C1772 1.377 . S
C1773 C1774 1.379 . S
C1774 H1758 0.931 . S
C1774 C1768 1.383 . S
C1774 C1773 1.379 . S
H1775 C1769 0.959 . S
H1776 C1769 0.961 . S
H1777 C1769 0.960 . S
H1778 C1770 0.930 . S
H1779 C1771 0.929 . S
H1780 C1788 0.929 . S
H1781 C1790 0.930 . S
H1782 C1792 0.930 . S
H1783 C1795 0.929 . S
H1784 C1798 0.930 . S
H1785 C1800 0.960 1_556 S
H1786 C1800 0.960 . S
H1787 C1800 0.960 . S
C1788 H1780 0.929 . S
C1788 C1789 1.377 . S
C1788 C1790 1.384 . S
C1789 C1788 1.377 . S
C1789 C1795 1.390 . S
C1790 H1781 0.930 . S
C1790 C1788 1.384 . S
C1790 C1791 1.372 . S
C1791 C1790 1.372 . S
C1791 C1792 1.400 . S
C1791 C1796 1.490 . S
C1792 H1782 0.930 . S
C1792 C1791 1.400 . S
C1792 C1795 1.386 . S
H1793 C1809 0.930 . S
H1794 C1810 0.931 . S
C1795 H1783 0.929 . S
C1795 C1789 1.390 . S
C1795 C1792 1.386 . S
C1796 C1791 1.490 . S
C1796 C1798 1.395 . S
C1796 C1799 1.403 . S
H1797 C1803 0.930 . S
C1798 H1784 0.930 . S
C1798 C1796 1.395 . S
C1798 C1801 1.403 . S
C1799 C1796 1.403 . S
C1799 C1800 1.524 . S
C1799 C1803 1.400 1_554 S
C1800 H1785 0.960 1_554 S
C1800 H1786 0.960 . S
C1800 H1787 0.960 . S
C1800 C1799 1.524 . S
C1801 C1798 1.403 . S
C1801 C1802 1.392 1_554 S
C1801 C1805 1.495 . S
C1802 C1801 1.392 1_556 S
C1802 C1803 1.385 . S
C1802 C1804 1.478 . S
C1803 H1797 0.930 . S
C1803 C1799 1.400 1_556 S
C1803 C1802 1.385 . S
C1804 C1802 1.478 . S
C1804 C1806 1.381 . S
C1804 C1810 1.383 . S
C1805 C1801 1.495 . S
C1805 H1811 0.959 . S
C1805 H1812 0.961 . S
C1805 H1813 0.960 . S
C1806 C1804 1.381 . S
C1806 C1807 1.394 . S
C1806 H1814 0.930 . S
C1807 C1806 1.394 . S
C1807 C1808 1.383 . S
C1807 H1815 0.929 . S
C1808 C1807 1.383 . S
C1808 C1809 1.377 . S
C1809 H1793 0.930 . S
C1809 C1808 1.377 . S
C1809 C1810 1.379 . S
C1810 H1794 0.931 . S
C1810 C1804 1.383 . S
C1810 C1809 1.379 . S
H1811 C1805 0.959 . S
H1812 C1805 0.961 . S
H1813 C1805 0.960 . S
H1814 C1806 0.930 . S
H1815 C1807 0.929 . S
H1816 C1824 0.929 . S
H1817 C1826 0.930 . S
H1818 C1828 0.930 . S
H1819 C1831 0.929 . S
H1820 C1834 0.930 . S
H1821 C1836 0.960 . S
H1822 C1836 0.960 . S
H1823 C1836 0.960 . S
C1824 H1816 0.929 . S
C1824 C1825 1.377 . S
C1824 C1826 1.384 . S
C1825 C1824 1.377 . S
C1825 C1831 1.390 . S
C1826 H1817 0.930 . S
C1826 C1824 1.384 . S
C1826 C1827 1.372 . S
C1827 C1826 1.372 . S
C1827 C1828 1.400 . S
C1827 C1832 1.490 . S
C1828 H1818 0.930 . S
C1828 C1827 1.400 . S
C1828 C1831 1.386 . S
H1829 C1845 0.930 . S
H1830 C1846 0.931 . S
C1831 H1819 0.929 . S
C1831 C1825 1.390 . S
C1831 C1828 1.386 . S
C1832 C1827 1.490 . S
C1832 C1834 1.395 . S
C1832 C1835 1.403 . S
H1833 C1839 0.930 . S
C1834 H1820 0.930 . S
C1834 C1832 1.395 . S
C1834 C1837 1.403 . S
C1835 C1832 1.403 . S
C1835 C1836 1.524 . S
C1835 C1839 1.400 . S
C1836 H1821 0.960 . S
C1836 H1822 0.960 . S
C1836 H1823 0.960 . S
C1836 C1835 1.524 . S
C1837 C1834 1.403 . S
C1837 C1838 1.392 . S
C1837 C1841 1.495 . S
C1838 C1837 1.392 . S
C1838 C1839 1.385 . S
C1838 C1840 1.478 . S
C1839 H1833 0.930 . S
C1839 C1835 1.400 . S
C1839 C1838 1.385 . S
C1840 C1838 1.478 . S
C1840 C1842 1.381 . S
C1840 C1846 1.383 . S
C1841 C1837 1.495 . S
C1841 H1847 0.959 . S
C1841 H1848 0.961 . S
C1841 H1849 0.960 . S
C1842 C1840 1.381 . S
C1842 C1843 1.394 . S
C1842 H1850 0.930 . S
C1843 C1842 1.394 . S
C1843 C1844 1.383 . S
C1843 H1851 0.929 . S
C1844 C1843 1.383 . S
C1844 C1845 1.377 . S
C1845 H1829 0.930 . S
C1845 C1844 1.377 . S
C1845 C1846 1.379 . S
C1846 H1830 0.931 . S
C1846 C1840 1.383 . S
C1846 C1845 1.379 . S
H1847 C1841 0.959 . S
H1848 C1841 0.961 . S
H1849 C1841 0.960 . S
H1850 C1842 0.930 . S
H1851 C1843 0.929 . S
H1852 C1860 0.929 . S
H1853 C1862 0.930 . S
H1854 C1864 0.930 . S
H1855 C1867 0.929 . S
H1856 C1870 0.930 . S
H1857 C1872 0.960 . S
H1858 C1872 0.960 . S
H1859 C1872 0.960 . S
C1860 H1852 0.929 . S
C1860 C1861 1.377 . S
C1860 C1862 1.384 . S
C1861 C1860 1.377 . S
C1861 C1867 1.390 . S
C1862 H1853 0.930 . S
C1862 C1860 1.384 . S
C1862 C1863 1.372 . S
C1863 C1862 1.372 . S
C1863 C1864 1.400 . S
C1863 C1868 1.490 . S
C1864 H1854 0.930 . S
C1864 C1863 1.400 . S
C1864 C1867 1.386 . S
H1865 C1881 0.930 . S
H1866 C1882 0.931 . S
C1867 H1855 0.929 . S
C1867 C1861 1.390 . S
C1867 C1864 1.386 . S
C1868 C1863 1.490 . S
C1868 C1870 1.395 . S
C1868 C1871 1.403 . S
H1869 C1875 0.930 . S
C1870 H1856 0.930 . S
C1870 C1868 1.395 . S
C1870 C1873 1.403 . S
C1871 C1868 1.403 . S
C1871 C1872 1.524 . S
C1871 C1875 1.400 1_565 S
C1872 H1857 0.960 . S
C1872 H1858 0.960 . S
C1872 H1859 0.960 . S
C1872 C1871 1.524 . S
C1873 C1870 1.403 . S
C1873 C1874 1.392 1_565 S
C1873 C1877 1.495 . S
C1874 C1873 1.392 1_545 S
C1874 C1875 1.385 . S
C1874 C1876 1.478 . S
C1875 H1869 0.930 . S
C1875 C1871 1.400 1_545 S
C1875 C1874 1.385 . S
C1876 C1874 1.478 . S
C1876 C1878 1.381 . S
C1876 C1882 1.383 . S
C1877 C1873 1.495 . S
C1877 H1883 0.959 . S
C1877 H1884 0.961 1_565 S
C1877 H1885 0.960 . S
C1878 C1876 1.381 . S
C1878 C1879 1.394 . S
C1878 H1886 0.930 . S
C1879 C1878 1.394 . S
C1879 C1880 1.383 . S
C1879 H1887 0.929 . S
C1880 C1879 1.383 . S
C1880 C1881 1.377 . S
C1881 H1865 0.930 . S
C1881 C1880 1.377 . S
C1881 C1882 1.379 . S
C1882 H1866 0.931 . S
C1882 C1876 1.383 . S
C1882 C1881 1.379 . S
H1883 C1877 0.959 . S
H1884 C1877 0.961 1_545 S
H1885 C1877 0.960 . S
H1886 C1878 0.930 . S
H1887 C1879 0.929 . S
H1888 C1896 0.929 . S
H1889 C1898 0.930 . S
H1890 C1900 0.930 . S
H1891 C1903 0.929 . S
H1892 C1906 0.930 . S
H1893 C1908 0.960 . S
H1894 C1908 0.960 . S
H1895 C1908 0.960 . S
C1896 H1888 0.929 . S
C1896 C1897 1.377 . S
C1896 C1898 1.384 . S
C1897 C1896 1.377 . S
C1897 C1903 1.390 . S
C1898 H1889 0.930 . S
C1898 C1896 1.384 . S
C1898 C1899 1.372 . S
C1899 C1898 1.372 . S
C1899 C1900 1.400 . S
C1899 C1904 1.490 . S
C1900 H1890 0.930 . S
C1900 C1899 1.400 . S
C1900 C1903 1.386 . S
H1901 C1917 0.930 . S
H1902 C1918 0.931 . S
C1903 H1891 0.929 . S
C1903 C1897 1.390 . S
C1903 C1900 1.386 . S
C1904 C1899 1.490 . S
C1904 C1906 1.395 . S
C1904 C1907 1.403 . S
H1905 C1911 0.930 . S
C1906 H1892 0.930 . S
C1906 C1904 1.395 . S
C1906 C1909 1.403 . S
C1907 C1904 1.403 . S
C1907 C1908 1.524 . S
C1907 C1911 1.400 . S
C1908 H1893 0.960 . S
C1908 H1894 0.960 . S
C1908 H1895 0.960 . S
C1908 C1907 1.524 . S
C1909 C1906 1.403 . S
C1909 C1910 1.392 . S
C1909 C1913 1.495 . S
C1910 C1909 1.392 . S
C1910 C1911 1.385 . S
C1910 C1912 1.478 . S
C1911 H1905 0.930 . S
C1911 C1907 1.400 . S
C1911 C1910 1.385 . S
C1912 C1910 1.478 . S
C1912 C1914 1.381 . S
C1912 C1918 1.383 . S
C1913 C1909 1.495 . S
C1913 H1919 0.959 . S
C1913 H1920 0.961 . S
C1913 H1921 0.960 . S
C1914 C1912 1.381 . S
C1914 C1915 1.394 . S
C1914 H1922 0.930 . S
C1915 C1914 1.394 . S
C1915 C1916 1.383 . S
C1915 H1923 0.929 . S
C1916 C1915 1.383 . S
C1916 C1917 1.377 . S
C1917 H1901 0.930 . S
C1917 C1916 1.377 . S
C1917 C1918 1.379 . S
C1918 H1902 0.931 . S
C1918 C1912 1.383 . S
C1918 C1917 1.379 . S
H1919 C1913 0.959 . S
H1920 C1913 0.961 . S
H1921 C1913 0.960 . S
H1922 C1914 0.930 . S
H1923 C1915 0.929 . S
H1924 C1932 0.929 . S
H1925 C1934 0.930 . S
H1926 C1936 0.930 . S
H1927 C1939 0.929 . S
H1928 C1942 0.930 . S
H1929 C1944 0.960 . S
H1930 C1944 0.960 . S
H1931 C1944 0.960 . S
C1932 H1924 0.929 . S
C1932 C1933 1.377 . S
C1932 C1934 1.384 . S
C1933 C1932 1.377 . S
C1933 C1939 1.390 . S
C1934 H1925 0.930 . S
C1934 C1932 1.384 . S
C1934 C1935 1.372 . S
C1935 C1934 1.372 . S
C1935 C1936 1.400 . S
C1935 C1940 1.490 . S
C1936 H1926 0.930 . S
C1936 C1935 1.400 . S
C1936 C1939 1.386 . S
H1937 C1953 0.930 . S
H1938 C1954 0.931 . S
C1939 H1927 0.929 . S
C1939 C1933 1.390 . S
C1939 C1936 1.386 . S
C1940 C1935 1.490 . S
C1940 C1942 1.395 . S
C1940 C1943 1.403 . S
H1941 C1947 0.930 . S
C1942 H1928 0.930 . S
C1942 C1940 1.395 . S
C1942 C1945 1.403 1_545 S
C1943 C1940 1.403 . S
C1943 C1944 1.524 . S
C1943 C1947 1.400 . S
C1944 H1929 0.960 . S
C1944 H1930 0.960 . S
C1944 H1931 0.960 . S
C1944 C1943 1.524 . S
C1945 C1942 1.403 1_565 S
C1945 C1946 1.392 . S
C1945 C1949 1.495 . S
C1946 C1945 1.392 . S
C1946 C1947 1.385 1_565 S
C1946 C1948 1.478 . S
C1947 H1941 0.930 . S
C1947 C1943 1.400 . S
C1947 C1946 1.385 1_545 S
C1948 C1946 1.478 . S
C1948 C1950 1.381 . S
C1948 C1954 1.383 . S
C1949 C1945 1.495 . S
C1949 H1955 0.959 . S
C1949 H1956 0.961 . S
C1949 H1957 0.960 . S
C1950 C1948 1.381 . S
C1950 C1951 1.394 . S
C1950 H1958 0.930 . S
C1951 C1950 1.394 . S
C1951 C1952 1.383 . S
C1951 H1959 0.929 . S
C1952 C1951 1.383 . S
C1952 C1953 1.377 . S
C1953 H1937 0.930 . S
C1953 C1952 1.377 . S
C1953 C1954 1.379 . S
C1954 H1938 0.931 . S
C1954 C1948 1.383 . S
C1954 C1953 1.379 . S
H1955 C1949 0.959 . S
H1956 C1949 0.961 . S
H1957 C1949 0.960 . S
H1958 C1950 0.930 . S
H1959 C1951 0.929 . S
H1960 C1968 0.929 . S
H1961 C1970 0.930 . S
H1962 C1972 0.930 . S
H1963 C1975 0.929 . S
H1964 C1978 0.930 . S
H1965 C1980 0.960 . S
H1966 C1980 0.960 . S
H1967 C1980 0.960 . S
C1968 H1960 0.929 . S
C1968 C1969 1.377 . S
C1968 C1970 1.384 . S
C1969 C1968 1.377 . S
C1969 C1975 1.390 . S
C1970 H1961 0.930 . S
C1970 C1968 1.384 . S
C1970 C1971 1.372 . S
C1971 C1970 1.372 . S
C1971 C1972 1.400 . S
C1971 C1976 1.490 . S
C1972 H1962 0.930 . S
C1972 C1971 1.400 . S
C1972 C1975 1.386 . S
H1973 C1989 0.930 . S
H1974 C1990 0.931 . S
C1975 H1963 0.929 . S
C1975 C1969 1.390 . S
C1975 C1972 1.386 . S
C1976 C1971 1.490 . S
C1976 C1978 1.395 . S
C1976 C1979 1.403 . S
H1977 C1983 0.930 . S
C1978 H1964 0.930 . S
C1978 C1976 1.395 . S
C1978 C1981 1.403 . S
C1979 C1976 1.403 . S
C1979 C1980 1.524 . S
C1979 C1983 1.400 . S
C1980 H1965 0.960 . S
C1980 H1966 0.960 . S
C1980 H1967 0.960 . S
C1980 C1979 1.524 . S
C1981 C1978 1.403 . S
C1981 C1982 1.392 . S
C1981 C1985 1.495 . S
C1982 C1981 1.392 . S
C1982 C1983 1.385 . S
C1982 C1984 1.478 . S
C1983 H1977 0.930 . S
C1983 C1979 1.400 . S
C1983 C1982 1.385 . S
C1984 C1982 1.478 . S
C1984 C1986 1.381 . S
C1984 C1990 1.383 . S
C1985 C1981 1.495 . S
C1985 H1991 0.959 . S
C1985 H1992 0.961 . S
C1985 H1993 0.960 . S
C1986 C1984 1.381 . S
C1986 C1987 1.394 . S
C1986 H1994 0.930 . S
C1987 C1986 1.394 . S
C1987 C1988 1.383 . S
C1987 H1995 0.929 . S
C1988 C1987 1.383 . S
C1988 C1989 1.377 . S
C1989 H1973 0.930 . S
C1989 C1988 1.377 . S
C1989 C1990 1.379 . S
C1990 H1974 0.931 . S
C1990 C1984 1.383 . S
C1990 C1989 1.379 . S
H1991 C1985 0.959 . S
H1992 C1985 0.961 . S
H1993 C1985 0.960 . S
H1994 C1986 0.930 . S
H1995 C1987 0.929 . S
H1996 C2004 0.929 . S
H1997 C2006 0.930 . S
H1998 C2008 0.930 . S
H1999 C2011 0.929 . S
H2000 C2014 0.930 . S
H2001 C2016 0.959 . S
H2002 C2016 0.960 1_565 S
H2003 C2016 0.961 1_565 S
C2004 H1996 0.929 . S
C2004 C2005 1.377 . S
C2004 C2006 1.384 . S
C2005 C2004 1.377 . S
C2005 C2011 1.390 . S
C2006 H1997 0.930 . S
C2006 C2004 1.384 . S
C2006 C2007 1.372 . S
C2007 C2006 1.372 . S
C2007 C2008 1.400 . S
C2007 C2012 1.490 . S
C2008 H1998 0.930 . S
C2008 C2007 1.400 . S
C2008 C2011 1.386 . S
H2009 C2025 0.930 . S
H2010 C2026 0.931 . S
C2011 H1999 0.929 . S
C2011 C2005 1.390 . S
C2011 C2008 1.386 . S
C2012 C2007 1.490 . S
C2012 C2014 1.395 . S
C2012 C2015 1.403 . S
H2013 C2019 0.930 . S
C2014 H2000 0.930 . S
C2014 C2012 1.395 . S
C2014 C2017 1.403 . S
C2015 C2012 1.403 . S
C2015 C2016 1.524 1_565 S
C2015 C2019 1.400 1_565 S
C2016 H2001 0.959 . S
C2016 H2002 0.960 1_545 S
C2016 H2003 0.961 1_545 S
C2016 C2015 1.524 1_545 S
C2017 C2014 1.403 . S
C2017 C2018 1.392 1_565 S
C2017 C2021 1.495 . S
C2018 C2017 1.392 1_545 S
C2018 C2019 1.385 . S
C2018 C2020 1.478 . S
C2019 H2013 0.930 . S
C2019 C2015 1.400 1_545 S
C2019 C2018 1.385 . S
C2020 C2018 1.478 . S
C2020 C2022 1.381 . S
C2020 C2026 1.383 . S
C2021 C2017 1.495 . S
C2021 H2027 0.959 . S
C2021 H2028 0.961 . S
C2021 H2029 0.960 . S
C2022 C2020 1.381 . S
C2022 C2023 1.394 . S
C2022 H2030 0.930 . S
C2023 C2022 1.394 . S
C2023 C2024 1.383 . S
C2023 H2031 0.929 . S
C2024 C2023 1.383 . S
C2024 C2025 1.377 . S
C2025 H2009 0.930 . S
C2025 C2024 1.377 . S
C2025 C2026 1.379 . S
C2026 H2010 0.931 . S
C2026 C2020 1.383 . S
C2026 C2025 1.379 . S
H2027 C2021 0.959 . S
H2028 C2021 0.961 . S
H2029 C2021 0.960 . S
H2030 C2022 0.930 . S
H2031 C2023 0.929 . S
H2032 C2040 0.929 . S
H2033 C2042 0.930 . S
H2034 C2044 0.930 . S
H2035 C2047 0.929 . S
H2036 C2050 0.930 . S
H2037 C2052 0.960 . S
H2038 C2052 0.960 . S
H2039 C2052 0.960 . S
C2040 H2032 0.929 . S
C2040 C2041 1.377 . S
C2040 C2042 1.384 . S
C2041 C2040 1.377 . S
C2041 C2047 1.390 . S
C2042 H2033 0.930 . S
C2042 C2040 1.384 . S
C2042 C2043 1.372 . S
C2043 C2042 1.372 . S
C2043 C2044 1.400 . S
C2043 C2048 1.490 . S
C2044 H2034 0.930 . S
C2044 C2043 1.400 . S
C2044 C2047 1.386 . S
H2045 C2061 0.930 . S
H2046 C2062 0.931 . S
C2047 H2035 0.929 . S
C2047 C2041 1.390 . S
C2047 C2044 1.386 . S
C2048 C2043 1.490 . S
C2048 C2050 1.395 . S
C2048 C2051 1.403 . S
H2049 C2055 0.930 . S
C2050 H2036 0.930 . S
C2050 C2048 1.395 . S
C2050 C2053 1.403 . S
C2051 C2048 1.403 . S
C2051 C2052 1.524 . S
C2051 C2055 1.400 . S
C2052 H2037 0.960 . S
C2052 H2038 0.960 . S
C2052 H2039 0.960 . S
C2052 C2051 1.524 . S
C2053 C2050 1.403 . S
C2053 C2054 1.392 . S
C2053 C2057 1.495 . S
C2054 C2053 1.392 . S
C2054 C2055 1.385 . S
C2054 C2056 1.478 . S
C2055 H2049 0.930 . S
C2055 C2051 1.400 . S
C2055 C2054 1.385 . S
C2056 C2054 1.478 . S
C2056 C2058 1.381 . S
C2056 C2062 1.383 . S
C2057 C2053 1.495 . S
C2057 H2063 0.959 . S
C2057 H2064 0.961 . S
C2057 H2065 0.960 . S
C2058 C2056 1.381 . S
C2058 C2059 1.394 . S
C2058 H2066 0.930 . S
C2059 C2058 1.394 . S
C2059 C2060 1.383 . S
C2059 H2067 0.929 . S
C2060 C2059 1.383 . S
C2060 C2061 1.377 . S
C2061 H2045 0.930 . S
C2061 C2060 1.377 . S
C2061 C2062 1.379 . S
C2062 H2046 0.931 . S
C2062 C2056 1.383 . S
C2062 C2061 1.379 . S
H2063 C2057 0.959 . S
H2064 C2057 0.961 . S
H2065 C2057 0.960 . S
H2066 C2058 0.930 . S
H2067 C2059 0.929 . S
H2068 C2076 0.929 . S
H2069 C2078 0.930 . S
H2070 C2080 0.930 . S
H2071 C2083 0.929 . S
H2072 C2086 0.930 . S
H2073 C2088 0.960 . S
H2074 C2088 0.960 . S
H2075 C2088 0.960 . S
C2076 H2068 0.929 . S
C2076 C2077 1.377 . S
C2076 C2078 1.384 . S
C2077 C2076 1.377 . S
C2077 C2083 1.390 . S
C2078 H2069 0.930 . S
C2078 C2076 1.384 . S
C2078 C2079 1.372 . S
C2079 C2078 1.372 . S
C2079 C2080 1.400 . S
C2079 C2084 1.490 . S
C2080 H2070 0.930 . S
C2080 C2079 1.400 . S
C2080 C2083 1.386 . S
H2081 C2097 0.930 . S
H2082 C2098 0.931 . S
C2083 H2071 0.929 . S
C2083 C2077 1.390 . S
C2083 C2080 1.386 . S
C2084 C2079 1.490 . S
C2084 C2086 1.395 . S
C2084 C2087 1.403 . S
H2085 C2091 0.940 . S
C2086 H2072 0.930 . S
C2086 C2084 1.395 . S
C2086 C2089 1.403 . S
C2087 C2084 1.403 . S
C2087 C2088 1.524 . S
C2087 C2091 1.385 1_545 S
C2088 H2073 0.960 . S
C2088 H2074 0.960 . S
C2088 H2075 0.960 . S
C2088 C2087 1.524 . S
C2089 C2086 1.403 . S
C2089 C2090 1.392 1_545 S
C2089 C2093 1.485 1_545 S
C2090 C2089 1.392 1_565 S
C2090 C2091 1.390 . S
C2090 C2092 1.478 . S
C2091 H2085 0.940 . S
C2091 C2087 1.385 1_565 S
C2091 C2090 1.390 . S
C2092 C2090 1.478 . S
C2092 C2094 1.381 . S
C2092 C2098 1.383 . S
C2093 C2089 1.485 1_565 S
C2093 H2099 0.932 1_565 S
C2093 H2100 1.000 . S
C2093 H2101 0.959 . S
C2094 C2092 1.381 . S
C2094 C2095 1.394 . S
C2094 H2102 0.930 . S
C2095 C2094 1.394 . S
C2095 C2096 1.383 . S
C2095 H2103 0.929 . S
C2096 C2095 1.383 . S
C2096 C2097 1.377 . S
C2097 H2081 0.930 . S
C2097 C2096 1.377 . S
C2097 C2098 1.379 . S
C2098 H2082 0.931 . S
C2098 C2092 1.383 . S
C2098 C2097 1.379 . S
H2099 C2093 0.932 1_545 S
H2100 C2093 1.000 . S
H2101 C2093 0.959 . S
H2102 C2094 0.930 . S
H2103 C2095 0.929 . S
H2104 C2112 0.929 . S
H2105 C2114 0.930 . S
H2106 C2116 0.930 . S
H2107 C2119 0.929 . S
H2108 C2122 0.930 . S
H2109 C2124 0.960 . S
H2110 C2124 0.960 . S
H2111 C2124 0.960 . S
C2112 H2104 0.929 . S
C2112 C2113 1.377 . S
C2112 C2114 1.384 . S
C2113 C2112 1.377 . S
C2113 C2119 1.390 . S
C2114 H2105 0.930 . S
C2114 C2112 1.384 . S
C2114 C2115 1.372 . S
C2115 C2114 1.372 . S
C2115 C2116 1.400 . S
C2115 C2120 1.490 . S
C2116 H2106 0.930 . S
C2116 C2115 1.400 . S
C2116 C2119 1.386 . S
H2117 C2133 0.930 . S
H2118 C2134 0.931 . S
C2119 H2107 0.929 . S
C2119 C2113 1.390 . S
C2119 C2116 1.386 . S
C2120 C2115 1.490 . S
C2120 C2122 1.395 . S
C2120 C2123 1.403 . S
H2121 C2127 0.930 . S
C2122 H2108 0.930 . S
C2122 C2120 1.395 . S
C2122 C2125 1.403 . S
C2123 C2120 1.403 . S
C2123 C2124 1.524 . S
C2123 C2127 1.400 . S
C2124 H2109 0.960 . S
C2124 H2110 0.960 . S
C2124 H2111 0.960 . S
C2124 C2123 1.524 . S
C2125 C2122 1.403 . S
C2125 C2126 1.392 . S
C2125 C2129 1.495 . S
C2126 C2125 1.392 . S
C2126 C2127 1.385 . S
C2126 C2128 1.478 . S
C2127 H2121 0.930 . S
C2127 C2123 1.400 . S
C2127 C2126 1.385 . S
C2128 C2126 1.478 . S
C2128 C2130 1.381 . S
C2128 C2134 1.383 . S
C2129 C2125 1.495 . S
C2129 H2135 0.959 . S
C2129 H2136 0.961 . S
C2129 H2137 0.960 . S
C2130 C2128 1.381 . S
C2130 C2131 1.394 . S
C2130 H2138 0.930 . S
C2131 C2130 1.394 . S
C2131 C2132 1.383 . S
C2131 H2139 0.929 . S
C2132 C2131 1.383 . S
C2132 C2133 1.377 . S
C2133 H2117 0.930 . S
C2133 C2132 1.377 . S
C2133 C2134 1.379 . S
C2134 H2118 0.931 . S
C2134 C2128 1.383 . S
C2134 C2133 1.379 . S
H2135 C2129 0.959 . S
H2136 C2129 0.961 . S
H2137 C2129 0.960 . S
H2138 C2130 0.930 . S
H2139 C2131 0.929 . S
H2140 C2148 0.929 . S
H2141 C2150 0.930 . S
H2142 C2152 0.930 . S
H2143 C2155 0.929 . S
H2144 C2158 0.930 . S
H2145 C2160 0.960 . S
H2146 C2160 0.960 . S
H2147 C2160 0.960 . S
C2148 H2140 0.929 . S
C2148 C2149 1.377 . S
C2148 C2150 1.384 . S
C2149 C2148 1.377 . S
C2149 C2155 1.390 . S
C2150 H2141 0.930 . S
C2150 C2148 1.384 . S
C2150 C2151 1.372 . S
C2151 C2150 1.372 . S
C2151 C2152 1.400 . S
C2151 C2156 1.490 . S
C2152 H2142 0.930 . S
C2152 C2151 1.400 . S
C2152 C2155 1.386 . S
H2153 C2169 0.930 . S
H2154 C2170 0.931 . S
C2155 H2143 0.929 . S
C2155 C2149 1.390 . S
C2155 C2152 1.386 . S
C2156 C2151 1.490 . S
C2156 C2158 1.395 . S
C2156 C2159 1.403 . S
H2157 C2163 0.930 . S
C2158 H2144 0.930 . S
C2158 C2156 1.395 . S
C2158 C2161 1.403 . S
C2159 C2156 1.403 . S
C2159 C2160 1.524 . S
C2159 C2163 1.400 . S
C2160 H2145 0.960 . S
C2160 H2146 0.960 . S
C2160 H2147 0.960 . S
C2160 C2159 1.524 . S
C2161 C2158 1.403 . S
C2161 C2162 1.392 . S
C2161 C2165 1.495 . S
C2162 C2161 1.392 . S
C2162 C2163 1.385 . S
C2162 C2164 1.478 . S
C2163 H2157 0.930 . S
C2163 C2159 1.400 . S
C2163 C2162 1.385 . S
C2164 C2162 1.478 . S
C2164 C2166 1.381 . S
C2164 C2170 1.383 . S
C2165 C2161 1.495 . S
C2165 H2171 0.959 . S
C2165 H2172 0.961 . S
C2165 H2173 0.960 . S
C2166 C2164 1.381 . S
C2166 C2167 1.394 . S
C2166 H2174 0.930 . S
C2167 C2166 1.394 . S
C2167 C2168 1.383 . S
C2167 H2175 0.929 . S
C2168 C2167 1.383 . S
C2168 C2169 1.377 . S
C2169 H2153 0.930 . S
C2169 C2168 1.377 . S
C2169 C2170 1.379 . S
C2170 H2154 0.931 . S
C2170 C2164 1.383 . S
C2170 C2169 1.379 . S
H2171 C2165 0.959 . S
H2172 C2165 0.961 . S
H2173 C2165 0.960 . S
H2174 C2166 0.930 . S
H2175 C2167 0.929 . S
H2176 C2184 0.929 . S
H2177 C2186 0.930 . S
H2178 C2188 0.930 . S
H2179 C2191 0.929 . S
H2180 C2194 0.930 . S
H2181 C2196 0.960 . S
H2182 C2196 0.960 . S
H2183 C2196 0.960 . S
C2184 H2176 0.929 . S
C2184 C2185 1.377 . S
C2184 C2186 1.384 . S
C2185 C2184 1.377 . S
C2185 C2191 1.390 . S
C2186 H2177 0.930 . S
C2186 C2184 1.384 . S
C2186 C2187 1.372 . S
C2187 C2186 1.372 . S
C2187 C2188 1.400 . S
C2187 C2192 1.490 . S
C2188 H2178 0.930 . S
C2188 C2187 1.400 . S
C2188 C2191 1.386 . S
H2189 C2205 0.930 . S
H2190 C2206 0.931 . S
C2191 H2179 0.929 . S
C2191 C2185 1.390 . S
C2191 C2188 1.386 . S
C2192 C2187 1.490 . S
C2192 C2194 1.395 . S
C2192 C2195 1.403 . S
H2193 C2199 0.931 . S
C2194 H2180 0.930 . S
C2194 C2192 1.395 . S
C2194 C2197 1.403 1_655 S
C2195 C2192 1.403 . S
C2195 C2196 1.524 . S
C2195 C2199 1.400 . S
C2196 H2181 0.960 . S
C2196 H2182 0.960 . S
C2196 H2183 0.960 . S
C2196 C2195 1.524 . S
C2197 C2194 1.403 1_455 S
C2197 C2198 1.392 . S
C2197 C2201 1.495 . S
C2198 C2197 1.392 . S
C2198 C2199 1.385 1_455 S
C2198 C2200 1.478 . S
C2199 H2193 0.931 . S
C2199 C2195 1.400 . S
C2199 C2198 1.385 1_655 S
C2200 C2198 1.478 . S
C2200 C2202 1.381 . S
C2200 C2206 1.383 . S
C2201 C2197 1.495 . S
C2201 H2207 0.959 . S
C2201 H2208 0.961 . S
C2201 H2209 0.960 . S
C2202 C2200 1.381 . S
C2202 C2203 1.394 . S
C2202 H2210 0.930 . S
C2203 C2202 1.394 . S
C2203 C2204 1.383 . S
C2203 H2211 0.929 . S
C2204 C2203 1.383 . S
C2204 C2205 1.377 . S
C2205 H2189 0.930 . S
C2205 C2204 1.377 . S
C2205 C2206 1.379 . S
C2206 H2190 0.931 . S
C2206 C2200 1.383 . S
C2206 C2205 1.379 . S
H2207 C2201 0.959 . S
H2208 C2201 0.961 . S
H2209 C2201 0.960 . S
H2210 C2202 0.930 . S
H2211 C2203 0.929 . S
H2212 C2220 0.929 . S
H2213 C2222 0.930 . S
H2214 C2224 0.930 . S
H2215 C2227 0.929 . S
H2216 C2230 0.930 . S
H2217 C2232 0.960 . S
H2218 C2232 0.960 . S
H2219 C2232 0.960 . S
C2220 H2212 0.929 . S
C2220 C2221 1.377 . S
C2220 C2222 1.384 . S
C2221 C2220 1.377 . S
C2221 C2227 1.390 . S
C2222 H2213 0.930 . S
C2222 C2220 1.384 . S
C2222 C2223 1.372 . S
C2223 C2222 1.372 . S
C2223 C2224 1.400 . S
C2223 C2228 1.490 . S
C2224 H2214 0.930 . S
C2224 C2223 1.400 . S
C2224 C2227 1.386 . S
H2225 C2241 0.930 . S
H2226 C2242 0.931 . S
C2227 H2215 0.929 . S
C2227 C2221 1.390 . S
C2227 C2224 1.386 . S
C2228 C2223 1.490 . S
C2228 C2230 1.395 . S
C2228 C2231 1.403 . S
H2229 C2235 0.930 . S
C2230 H2216 0.930 . S
C2230 C2228 1.395 . S
C2230 C2233 1.403 . S
C2231 C2228 1.403 . S
C2231 C2232 1.524 . S
C2231 C2235 1.400 . S
C2232 H2217 0.960 . S
C2232 H2218 0.960 . S
C2232 H2219 0.960 . S
C2232 C2231 1.524 . S
C2233 C2230 1.403 . S
C2233 C2234 1.392 . S
C2233 C2237 1.495 . S
C2234 C2233 1.392 . S
C2234 C2235 1.385 . S
C2234 C2236 1.478 . S
C2235 H2229 0.930 . S
C2235 C2231 1.400 . S
C2235 C2234 1.385 . S
C2236 C2234 1.478 . S
C2236 C2238 1.381 . S
C2236 C2242 1.383 . S
C2237 C2233 1.495 . S
C2237 H2243 0.959 . S
C2237 H2244 0.961 . S
C2237 H2245 0.960 . S
C2238 C2236 1.381 . S
C2238 C2239 1.394 . S
C2238 H2246 0.930 . S
C2239 C2238 1.394 . S
C2239 C2240 1.383 . S
C2239 H2247 0.929 . S
C2240 C2239 1.383 . S
C2240 C2241 1.377 . S
C2241 H2225 0.930 . S
C2241 C2240 1.377 . S
C2241 C2242 1.379 . S
C2242 H2226 0.931 . S
C2242 C2236 1.383 . S
C2242 C2241 1.379 . S
H2243 C2237 0.959 . S
H2244 C2237 0.961 . S
H2245 C2237 0.960 . S
H2246 C2238 0.930 . S
H2247 C2239 0.929 . S
H2248 C2256 0.929 . S
H2249 C2258 0.930 . S
H2250 C2260 0.930 . S
H2251 C2263 0.929 . S
H2252 C2266 0.930 . S
H2253 C2268 0.960 . S
H2254 C2268 0.960 . S
H2255 C2268 0.960 . S
C2256 H2248 0.929 . S
C2256 C2257 1.377 . S
C2256 C2258 1.384 . S
C2257 C2256 1.377 . S
C2257 C2263 1.390 . S
C2258 H2249 0.930 . S
C2258 C2256 1.384 . S
C2258 C2259 1.372 . S
C2259 C2258 1.372 . S
C2259 C2260 1.400 . S
C2259 C2264 1.490 . S
C2260 H2250 0.930 . S
C2260 C2259 1.400 . S
C2260 C2263 1.386 . S
H2261 C2277 0.930 . S
H2262 C2278 0.931 . S
C2263 H2251 0.929 . S
C2263 C2257 1.390 . S
C2263 C2260 1.386 . S
C2264 C2259 1.490 . S
C2264 C2266 1.395 . S
C2264 C2267 1.403 . S
H2265 C2271 0.930 . S
C2266 H2252 0.930 . S
C2266 C2264 1.395 . S
C2266 C2269 1.403 1_455 S
C2267 C2264 1.403 . S
C2267 C2268 1.524 . S
C2267 C2271 1.400 . S
C2268 H2253 0.960 . S
C2268 H2254 0.960 . S
C2268 H2255 0.960 . S
C2268 C2267 1.524 . S
C2269 C2266 1.403 1_655 S
C2269 C2270 1.392 . S
C2269 C2273 1.495 . S
C2270 C2269 1.392 . S
C2270 C2271 1.385 1_655 S
C2270 C2272 1.478 . S
C2271 H2265 0.930 . S
C2271 C2267 1.400 . S
C2271 C2270 1.385 1_455 S
C2272 C2270 1.478 . S
C2272 C2274 1.381 . S
C2272 C2278 1.383 . S
C2273 C2269 1.495 . S
C2273 H2279 0.959 . S
C2273 H2280 0.961 . S
C2273 H2281 0.960 . S
C2274 C2272 1.381 . S
C2274 C2275 1.394 . S
C2274 H2282 0.930 . S
C2275 C2274 1.394 . S
C2275 C2276 1.383 . S
C2275 H2283 0.929 . S
C2276 C2275 1.383 . S
C2276 C2277 1.377 . S
C2277 H2261 0.930 . S
C2277 C2276 1.377 . S
C2277 C2278 1.379 . S
C2278 H2262 0.931 . S
C2278 C2272 1.383 . S
C2278 C2277 1.379 . S
H2279 C2273 0.959 . S
H2280 C2273 0.961 . S
H2281 C2273 0.960 . S
H2282 C2274 0.930 . S
H2283 C2275 0.929 . S
H2284 C2292 0.929 . S
H2285 C2294 0.930 . S
H2286 C2296 0.930 . S
H2287 C2299 0.929 . S
H2288 C2302 0.930 . S
H2289 C2304 0.960 . S
H2290 C2304 0.960 . S
H2291 C2304 0.960 . S
C2292 H2284 0.929 . S
C2292 C2293 1.377 . S
C2292 C2294 1.384 . S
C2293 C2292 1.377 . S
C2293 C2299 1.390 . S
C2294 H2285 0.930 . S
C2294 C2292 1.384 . S
C2294 C2295 1.372 . S
C2295 C2294 1.372 . S
C2295 C2296 1.400 . S
C2295 C2300 1.490 . S
C2296 H2286 0.930 . S
C2296 C2295 1.400 . S
C2296 C2299 1.386 . S
H2297 C2313 0.930 . S
H2298 C2314 0.931 . S
C2299 H2287 0.929 . S
C2299 C2293 1.390 . S
C2299 C2296 1.386 . S
C2300 C2295 1.490 . S
C2300 C2302 1.395 . S
C2300 C2303 1.403 . S
H2301 C2307 0.930 . S
C2302 H2288 0.930 . S
C2302 C2300 1.395 . S
C2302 C2305 1.403 . S
C2303 C2300 1.403 . S
C2303 C2304 1.524 . S
C2303 C2307 1.400 . S
C2304 H2289 0.960 . S
C2304 H2290 0.960 . S
C2304 H2291 0.960 . S
C2304 C2303 1.524 . S
C2305 C2302 1.403 . S
C2305 C2306 1.392 . S
C2305 C2309 1.495 . S
C2306 C2305 1.392 . S
C2306 C2307 1.385 . S
C2306 C2308 1.478 . S
C2307 H2301 0.930 . S
C2307 C2303 1.400 . S
C2307 C2306 1.385 . S
C2308 C2306 1.478 . S
C2308 C2310 1.381 . S
C2308 C2314 1.383 . S
C2309 C2305 1.495 . S
C2309 H2315 0.959 . S
C2309 H2316 0.961 . S
C2309 H2317 0.960 . S
C2310 C2308 1.381 . S
C2310 C2311 1.394 . S
C2310 H2318 0.930 . S
C2311 C2310 1.394 . S
C2311 C2312 1.383 . S
C2311 H2319 0.929 . S
C2312 C2311 1.383 . S
C2312 C2313 1.377 . S
C2313 H2297 0.930 . S
C2313 C2312 1.377 . S
C2313 C2314 1.379 . S
C2314 H2298 0.931 . S
C2314 C2308 1.383 . S
C2314 C2313 1.379 . S
H2315 C2309 0.959 . S
H2316 C2309 0.961 . S
H2317 C2309 0.960 . S
H2318 C2310 0.930 . S
H2319 C2311 0.929 . S
H2320 C2328 0.929 . S
H2321 C2330 0.930 . S
H2322 C2332 0.930 . S
H2323 C2335 0.929 . S
H2324 C2338 0.930 . S
H2325 C2340 0.960 . S
H2326 C2340 0.960 . S
H2327 C2340 0.960 . S
C2328 H2320 0.929 . S
C2328 C2329 1.377 . S
C2328 C2330 1.384 . S
C2329 C2328 1.377 . S
C2329 C2335 1.390 . S
C2330 H2321 0.930 . S
C2330 C2328 1.384 . S
C2330 C2331 1.372 . S
C2331 C2330 1.372 . S
C2331 C2332 1.400 . S
C2331 C2336 1.490 . S
C2332 H2322 0.930 . S
C2332 C2331 1.400 . S
C2332 C2335 1.386 . S
H2333 C2349 0.930 . S
H2334 C2350 0.931 . S
C2335 H2323 0.929 . S
C2335 C2329 1.390 . S
C2335 C2332 1.386 . S
C2336 C2331 1.490 . S
C2336 C2338 1.395 . S
C2336 C2339 1.403 . S
H2337 C2343 0.930 . S
C2338 H2324 0.930 . S
C2338 C2336 1.395 . S
C2338 C2341 1.403 . S
C2339 C2336 1.403 . S
C2339 C2340 1.524 . S
C2339 C2343 1.400 1_655 S
C2340 H2325 0.960 . S
C2340 H2326 0.960 . S
C2340 H2327 0.960 . S
C2340 C2339 1.524 . S
C2341 C2338 1.403 . S
C2341 C2342 1.392 1_655 S
C2341 C2345 1.495 . S
C2342 C2341 1.392 1_455 S
C2342 C2343 1.385 . S
C2342 C2344 1.478 . S
C2343 H2337 0.930 . S
C2343 C2339 1.400 1_455 S
C2343 C2342 1.385 . S
C2344 C2342 1.478 . S
C2344 C2346 1.381 . S
C2344 C2350 1.383 . S
C2345 C2341 1.495 . S
C2345 H2351 0.959 . S
C2345 H2352 0.961 1_655 S
C2345 H2353 0.960 . S
C2346 C2344 1.381 . S
C2346 C2347 1.394 . S
C2346 H2354 0.930 . S
C2347 C2346 1.394 . S
C2347 C2348 1.383 . S
C2347 H2355 0.929 . S
C2348 C2347 1.383 . S
C2348 C2349 1.377 . S
C2349 H2333 0.930 . S
C2349 C2348 1.377 . S
C2349 C2350 1.379 . S
C2350 H2334 0.931 . S
C2350 C2344 1.383 . S
C2350 C2349 1.379 . S
H2351 C2345 0.959 . S
H2352 C2345 0.961 1_455 S
H2353 C2345 0.960 . S
H2354 C2346 0.930 . S
H2355 C2347 0.929 . S
H2356 C2364 0.929 . S
H2357 C2366 0.930 . S
H2358 C2368 0.930 . S
H2359 C2371 0.929 . S
H2360 C2374 0.930 . S
H2361 C2376 0.960 . S
H2362 C2376 0.960 . S
H2363 C2376 0.960 . S
C2364 H2356 0.929 . S
C2364 C2365 1.377 . S
C2364 C2366 1.384 . S
C2365 C2364 1.377 . S
C2365 C2371 1.390 . S
C2366 H2357 0.930 . S
C2366 C2364 1.384 . S
C2366 C2367 1.372 . S
C2367 C2366 1.372 . S
C2367 C2368 1.400 . S
C2367 C2372 1.490 . S
C2368 H2358 0.930 . S
C2368 C2367 1.400 . S
C2368 C2371 1.386 . S
H2369 C2385 0.930 . S
H2370 C2386 0.931 . S
C2371 H2359 0.929 . S
C2371 C2365 1.390 . S
C2371 C2368 1.386 . S
C2372 C2367 1.490 . S
C2372 C2374 1.395 . S
C2372 C2375 1.403 . S
H2373 C2379 0.930 . S
C2374 H2360 0.930 . S
C2374 C2372 1.395 . S
C2374 C2377 1.403 . S
C2375 C2372 1.403 . S
C2375 C2376 1.524 . S
C2375 C2379 1.400 . S
C2376 H2361 0.960 . S
C2376 H2362 0.960 . S
C2376 H2363 0.960 . S
C2376 C2375 1.524 . S
C2377 C2374 1.403 . S
C2377 C2378 1.392 . S
C2377 C2381 1.495 . S
C2378 C2377 1.392 . S
C2378 C2379 1.385 . S
C2378 C2380 1.478 . S
C2379 H2373 0.930 . S
C2379 C2375 1.400 . S
C2379 C2378 1.385 . S
C2380 C2378 1.478 . S
C2380 C2382 1.381 . S
C2380 C2386 1.383 . S
C2381 C2377 1.495 . S
C2381 H2387 0.959 . S
C2381 H2388 0.961 . S
C2381 H2389 0.960 . S
C2382 C2380 1.381 . S
C2382 C2383 1.394 . S
C2382 H2390 0.930 . S
C2383 C2382 1.394 . S
C2383 C2384 1.383 . S
C2383 H2391 0.929 . S
C2384 C2383 1.383 . S
C2384 C2385 1.377 . S
C2385 H2369 0.930 . S
C2385 C2384 1.377 . S
C2385 C2386 1.379 . S
C2386 H2370 0.931 . S
C2386 C2380 1.383 . S
C2386 C2385 1.379 . S
H2387 C2381 0.959 . S
H2388 C2381 0.961 . S
H2389 C2381 0.960 . S
H2390 C2382 0.930 . S
H2391 C2383 0.929 . S
H2392 C2400 0.929 . S
H2393 C2402 0.930 . S
H2394 C2404 0.930 . S
H2395 C2407 0.929 . S
H2396 C2410 0.930 . S
H2397 C2412 0.960 . S
H2398 C2412 0.960 . S
H2399 C2412 0.960 . S
C2400 H2392 0.929 . S
C2400 C2401 1.377 . S
C2400 C2402 1.384 . S
C2401 C2400 1.377 . S
C2401 C2407 1.390 . S
C2402 H2393 0.930 . S
C2402 C2400 1.384 . S
C2402 C2403 1.372 . S
C2403 C2402 1.372 . S
C2403 C2404 1.400 . S
C2403 C2408 1.490 . S
C2404 H2394 0.930 . S
C2404 C2403 1.400 . S
C2404 C2407 1.386 . S
H2405 C2421 0.930 . S
H2406 C2422 0.931 . S
C2407 H2395 0.929 . S
C2407 C2401 1.390 . S
C2407 C2404 1.386 . S
C2408 C2403 1.490 . S
C2408 C2410 1.395 . S
C2408 C2411 1.403 . S
H2409 C2415 0.930 . S
C2410 H2396 0.930 . S
C2410 C2408 1.395 . S
C2410 C2413 1.403 . S
C2411 C2408 1.403 . S
C2411 C2412 1.524 . S
C2411 C2415 1.400 . S
C2412 H2397 0.960 . S
C2412 H2398 0.960 . S
C2412 H2399 0.960 . S
C2412 C2411 1.524 . S
C2413 C2410 1.403 . S
C2413 C2414 1.392 . S
C2413 C2417 1.495 . S
C2414 C2413 1.392 . S
C2414 C2415 1.385 . S
C2414 C2416 1.478 . S
C2415 H2409 0.930 . S
C2415 C2411 1.400 . S
C2415 C2414 1.385 . S
C2416 C2414 1.478 . S
C2416 C2418 1.381 . S
C2416 C2422 1.383 . S
C2417 C2413 1.495 . S
C2417 H2423 0.959 . S
C2417 H2424 0.961 . S
C2417 H2425 0.960 . S
C2418 C2416 1.381 . S
C2418 C2419 1.394 . S
C2418 H2426 0.930 . S
C2419 C2418 1.394 . S
C2419 C2420 1.383 . S
C2419 H2427 0.929 . S
C2420 C2419 1.383 . S
C2420 C2421 1.377 . S
C2421 H2405 0.930 . S
C2421 C2420 1.377 . S
C2421 C2422 1.379 . S
C2422 H2406 0.931 . S
C2422 C2416 1.383 . S
C2422 C2421 1.379 . S
H2423 C2417 0.959 . S
H2424 C2417 0.961 . S
H2425 C2417 0.960 . S
H2426 C2418 0.930 . S
H2427 C2419 0.929 . S
H2428 C2436 0.929 . S
H2429 C2438 0.930 . S
H2430 C2440 0.930 . S
H2431 C2443 0.929 . S
H2432 C2446 0.930 . S
H2433 C2448 0.960 . S
H2434 C2448 0.960 . S
H2435 C2448 0.960 . S
C2436 H2428 0.929 . S
C2436 C2437 1.377 . S
C2436 C2438 1.384 . S
C2437 C2436 1.377 . S
C2437 C2443 1.390 . S
C2438 H2429 0.930 . S
C2438 C2436 1.384 . S
C2438 C2439 1.372 . S
C2439 C2438 1.372 . S
C2439 C2440 1.400 . S
C2439 C2444 1.490 . S
C2440 H2430 0.930 . S
C2440 C2439 1.400 . S
C2440 C2443 1.386 . S
H2441 C2457 0.930 . S
H2442 C2458 0.931 . S
C2443 H2431 0.929 . S
C2443 C2437 1.390 . S
C2443 C2440 1.386 . S
C2444 C2439 1.490 . S
C2444 C2446 1.395 . S
C2444 C2447 1.403 . S
H2445 C2451 0.930 1_556 S
C2446 H2432 0.930 . S
C2446 C2444 1.395 . S
C2446 C2449 1.403 . S
C2447 C2444 1.403 . S
C2447 C2448 1.524 . S
C2447 C2451 1.400 . S
C2448 H2433 0.960 . S
C2448 H2434 0.960 . S
C2448 H2435 0.960 . S
C2448 C2447 1.524 . S
C2449 C2446 1.403 . S
C2449 C2450 1.392 1_554 S
C2449 C2453 1.507 . S
C2450 C2449 1.392 1_556 S
C2450 C2451 1.385 1_556 S
C2450 C2452 1.478 . S
C2451 H2445 0.930 1_554 S
C2451 C2447 1.400 . S
C2451 C2450 1.385 1_554 S
C2452 C2450 1.478 . S
C2452 C2454 1.381 . S
C2452 C2458 1.383 . S
C2453 C2449 1.507 . S
C2453 H2459 0.989 . S
C2453 H2460 0.965 . S
C2453 H2461 0.917 1_554 S
C2454 C2452 1.381 . S
C2454 C2455 1.394 . S
C2454 H2462 0.930 . S
C2455 C2454 1.394 . S
C2455 C2456 1.383 . S
C2455 H2463 0.929 . S
C2456 C2455 1.383 . S
C2456 C2457 1.377 . S
C2457 H2441 0.930 . S
C2457 C2456 1.377 . S
C2457 C2458 1.379 . S
C2458 H2442 0.931 . S
C2458 C2452 1.383 . S
C2458 C2457 1.379 . S
H2459 C2453 0.989 . S
H2460 C2453 0.965 . S
H2461 C2453 0.917 1_556 S
H2462 C2454 0.930 . S
H2463 C2455 0.929 . S
H2464 C2472 0.929 . S
H2465 C2474 0.930 . S
H2466 C2476 0.930 . S
H2467 C2479 0.929 . S
H2468 C2482 0.930 . S
H2469 C2484 0.960 . S
H2470 C2484 0.960 . S
H2471 C2484 0.960 . S
C2472 H2464 0.929 . S
C2472 C2473 1.377 . S
C2472 C2474 1.384 . S
C2473 C2472 1.377 . S
C2473 C2479 1.390 . S
C2474 H2465 0.930 . S
C2474 C2472 1.384 . S
C2474 C2475 1.372 . S
C2475 C2474 1.372 . S
C2475 C2476 1.400 . S
C2475 C2480 1.490 . S
C2476 H2466 0.930 . S
C2476 C2475 1.400 . S
C2476 C2479 1.386 . S
H2477 C2493 0.930 . S
H2478 C2494 0.931 . S
C2479 H2467 0.929 . S
C2479 C2473 1.390 . S
C2479 C2476 1.386 . S
C2480 C2475 1.490 . S
C2480 C2482 1.395 . S
C2480 C2483 1.403 . S
H2481 C2487 0.930 . S
C2482 H2468 0.930 . S
C2482 C2480 1.395 . S
C2482 C2485 1.403 . S
C2483 C2480 1.403 . S
C2483 C2484 1.524 . S
C2483 C2487 1.400 . S
C2484 H2469 0.960 . S
C2484 H2470 0.960 . S
C2484 H2471 0.960 . S
C2484 C2483 1.524 . S
C2485 C2482 1.403 . S
C2485 C2486 1.392 . S
C2485 C2489 1.495 . S
C2486 C2485 1.392 . S
C2486 C2487 1.385 . S
C2486 C2488 1.478 . S
C2487 H2481 0.930 . S
C2487 C2483 1.400 . S
C2487 C2486 1.385 . S
C2488 C2486 1.478 . S
C2488 C2490 1.381 . S
C2488 C2494 1.383 . S
C2489 C2485 1.495 . S
C2489 H2495 0.959 . S
C2489 H2496 0.961 . S
C2489 H2497 0.960 . S
C2490 C2488 1.381 . S
C2490 C2491 1.394 . S
C2490 H2498 0.930 . S
C2491 C2490 1.394 . S
C2491 C2492 1.383 . S
C2491 H2499 0.929 . S
C2492 C2491 1.383 . S
C2492 C2493 1.377 . S
C2493 H2477 0.930 . S
C2493 C2492 1.377 . S
C2493 C2494 1.379 . S
C2494 H2478 0.931 . S
C2494 C2488 1.383 . S
C2494 C2493 1.379 . S
H2495 C2489 0.959 . S
H2496 C2489 0.961 . S
H2497 C2489 0.960 . S
H2498 C2490 0.930 . S
H2499 C2491 0.929 . S
H2500 C2508 0.929 . S
H2501 C2510 0.930 . S
H2502 C2512 0.930 . S
H2503 C2515 0.929 . S
H2504 C2518 0.930 . S
H2505 C2520 0.960 . S
H2506 C2520 0.960 . S
H2507 C2520 0.960 . S
C2508 H2500 0.929 . S
C2508 C2509 1.377 . S
C2508 C2510 1.384 . S
C2509 C2508 1.377 . S
C2509 C2515 1.390 . S
C2510 H2501 0.930 . S
C2510 C2508 1.384 . S
C2510 C2511 1.372 . S
C2511 C2510 1.372 . S
C2511 C2512 1.400 . S
C2511 C2516 1.490 . S
C2512 H2502 0.930 . S
C2512 C2511 1.400 . S
C2512 C2515 1.386 . S
H2513 C2529 0.930 . S
H2514 C2530 0.931 . S
C2515 H2503 0.929 . S
C2515 C2509 1.390 . S
C2515 C2512 1.386 . S
C2516 C2511 1.490 . S
C2516 C2518 1.395 . S
C2516 C2519 1.403 . S
H2517 C2523 0.930 . S
C2518 H2504 0.930 . S
C2518 C2516 1.395 . S
C2518 C2521 1.403 . S
C2519 C2516 1.403 . S
C2519 C2520 1.524 . S
C2519 C2523 1.400 . S
C2520 H2505 0.960 . S
C2520 H2506 0.960 . S
C2520 H2507 0.960 . S
C2520 C2519 1.524 . S
C2521 C2518 1.403 . S
C2521 C2522 1.392 . S
C2521 C2525 1.495 . S
C2522 C2521 1.392 . S
C2522 C2523 1.385 . S
C2522 C2524 1.478 . S
C2523 H2517 0.930 . S
C2523 C2519 1.400 . S
C2523 C2522 1.385 . S
C2524 C2522 1.478 . S
C2524 C2526 1.381 . S
C2524 C2530 1.383 . S
C2525 C2521 1.495 . S
C2525 H2531 0.959 . S
C2525 H2532 0.961 . S
C2525 H2533 0.960 . S
C2526 C2524 1.381 . S
C2526 C2527 1.394 . S
C2526 H2534 0.930 . S
C2527 C2526 1.394 . S
C2527 C2528 1.383 . S
C2527 H2535 0.929 . S
C2528 C2527 1.383 . S
C2528 C2529 1.377 . S
C2529 H2513 0.930 . S
C2529 C2528 1.377 . S
C2529 C2530 1.379 . S
C2530 H2514 0.931 . S
C2530 C2524 1.383 . S
C2530 C2529 1.379 . S
H2531 C2525 0.959 . S
H2532 C2525 0.961 . S
H2533 C2525 0.960 . S
H2534 C2526 0.930 . S
H2535 C2527 0.929 . S
H2536 C2544 0.929 . S
H2537 C2546 0.930 . S
H2538 C2548 0.930 . S
H2539 C2551 0.929 . S
H2540 C2554 0.930 . S
H2541 C2556 0.960 . S
H2542 C2556 0.960 . S
H2543 C2556 0.960 . S
C2544 H2536 0.929 . S
C2544 C2545 1.377 . S
C2544 C2546 1.384 . S
C2545 C2544 1.377 . S
C2545 C2551 1.390 . S
C2546 H2537 0.930 . S
C2546 C2544 1.384 . S
C2546 C2547 1.372 . S
C2547 C2546 1.372 . S
C2547 C2548 1.400 . S
C2547 C2552 1.490 . S
C2548 H2538 0.930 . S
C2548 C2547 1.400 . S
C2548 C2551 1.386 . S
H2549 C2565 0.930 . S
H2550 C2566 0.931 . S
C2551 H2539 0.929 . S
C2551 C2545 1.390 . S
C2551 C2548 1.386 . S
C2552 C2547 1.490 . S
C2552 C2554 1.395 . S
C2552 C2555 1.403 . S
H2553 C2559 0.930 . S
C2554 H2540 0.930 . S
C2554 C2552 1.395 . S
C2554 C2557 1.403 . S
C2555 C2552 1.403 . S
C2555 C2556 1.524 . S
C2555 C2559 1.400 . S
C2556 H2541 0.960 . S
C2556 H2542 0.960 . S
C2556 H2543 0.960 . S
C2556 C2555 1.524 . S
C2557 C2554 1.403 . S
C2557 C2558 1.392 . S
C2557 C2561 1.495 . S
C2558 C2557 1.392 . S
C2558 C2559 1.385 . S
C2558 C2560 1.478 . S
C2559 H2553 0.930 . S
C2559 C2555 1.400 . S
C2559 C2558 1.385 . S
C2560 C2558 1.478 . S
C2560 C2562 1.381 . S
C2560 C2566 1.383 . S
C2561 C2557 1.495 . S
C2561 H2567 0.959 . S
C2561 H2568 0.961 . S
C2561 H2569 0.960 . S
C2562 C2560 1.381 . S
C2562 C2563 1.394 . S
C2562 H2570 0.930 . S
C2563 C2562 1.394 . S
C2563 C2564 1.383 . S
C2563 H2571 0.929 . S
C2564 C2563 1.383 . S
C2564 C2565 1.377 . S
C2565 H2549 0.930 . S
C2565 C2564 1.377 . S
C2565 C2566 1.379 . S
C2566 H2550 0.931 . S
C2566 C2560 1.383 . S
C2566 C2565 1.379 . S
H2567 C2561 0.959 . S
H2568 C2561 0.961 . S
H2569 C2561 0.960 . S
H2570 C2562 0.930 . S
H2571 C2563 0.929 . S
H2572 C2580 0.929 . S
H2573 C2582 0.930 . S
H2574 C2584 0.930 . S
H2575 C2587 0.929 . S
H2576 C2590 0.930 . S
H2577 C2592 0.960 1_554 S
H2578 C2592 0.960 . S
H2579 C2592 0.960 . S
C2580 H2572 0.929 . S
C2580 C2581 1.377 . S
C2580 C2582 1.384 . S
C2581 C2580 1.377 . S
C2581 C2587 1.390 . S
C2582 H2573 0.930 . S
C2582 C2580 1.384 . S
C2582 C2583 1.372 . S
C2583 C2582 1.372 . S
C2583 C2584 1.400 . S
C2583 C2588 1.490 . S
C2584 H2574 0.930 . S
C2584 C2583 1.400 . S
C2584 C2587 1.386 . S
H2585 C2601 0.930 . S
H2586 C2602 0.931 . S
C2587 H2575 0.929 . S
C2587 C2581 1.390 . S
C2587 C2584 1.386 . S
C2588 C2583 1.490 . S
C2588 C2590 1.395 . S
C2588 C2591 1.403 . S
H2589 C2595 0.930 . S
C2590 H2576 0.930 . S
C2590 C2588 1.395 . S
C2590 C2593 1.403 . S
C2591 C2588 1.403 . S
C2591 C2592 1.524 . S
C2591 C2595 1.400 1_556 S
C2592 H2577 0.960 1_556 S
C2592 H2578 0.960 . S
C2592 H2579 0.960 . S
C2592 C2591 1.524 . S
C2593 C2590 1.403 . S
C2593 C2594 1.392 1_556 S
C2593 C2597 1.495 . S
C2594 C2593 1.392 1_554 S
C2594 C2595 1.385 . S
C2594 C2596 1.478 . S
C2595 H2589 0.930 . S
C2595 C2591 1.400 1_554 S
C2595 C2594 1.385 . S
C2596 C2594 1.478 . S
C2596 C2598 1.381 . S
C2596 C2602 1.383 . S
C2597 C2593 1.495 . S
C2597 H2603 0.959 . S
C2597 H2604 0.961 1_556 S
C2597 H2605 0.960 . S
C2598 C2596 1.381 . S
C2598 C2599 1.394 . S
C2598 H2606 0.930 . S
C2599 C2598 1.394 . S
C2599 C2600 1.383 . S
C2599 H2607 0.929 . S
C2600 C2599 1.383 . S
C2600 C2601 1.377 . S
C2601 H2585 0.930 . S
C2601 C2600 1.377 . S
C2601 C2602 1.379 . S
C2602 H2586 0.931 . S
C2602 C2596 1.383 . S
C2602 C2601 1.379 . S
H2603 C2597 0.959 . S
H2604 C2597 0.961 1_554 S
H2605 C2597 0.960 . S
H2606 C2598 0.930 . S
H2607 C2599 0.929 . S
H2608 C2616 0.929 . S
H2609 C2618 0.930 . S
H2610 C2620 0.930 . S
H2611 C2623 0.929 . S
H2612 C2626 0.930 . S
H2613 C2628 0.960 . S
H2614 C2628 0.960 . S
H2615 C2628 0.960 . S
C2616 H2608 0.929 . S
C2616 C2617 1.377 . S
C2616 C2618 1.384 . S
C2617 C2616 1.377 . S
C2617 C2623 1.390 . S
C2618 H2609 0.930 . S
C2618 C2616 1.384 . S
C2618 C2619 1.372 . S
C2619 C2618 1.372 . S
C2619 C2620 1.400 . S
C2619 C2624 1.490 . S
C2620 H2610 0.930 . S
C2620 C2619 1.400 . S
C2620 C2623 1.386 . S
H2621 C2637 0.930 . S
H2622 C2638 0.931 . S
C2623 H2611 0.929 . S
C2623 C2617 1.390 . S
C2623 C2620 1.386 . S
C2624 C2619 1.490 . S
C2624 C2626 1.395 . S
C2624 C2627 1.403 . S
H2625 C2631 0.930 . S
C2626 H2612 0.930 . S
C2626 C2624 1.395 . S
C2626 C2629 1.403 . S
C2627 C2624 1.403 . S
C2627 C2628 1.524 . S
C2627 C2631 1.400 . S
C2628 H2613 0.960 . S
C2628 H2614 0.960 . S
C2628 H2615 0.960 . S
C2628 C2627 1.524 . S
C2629 C2626 1.403 . S
C2629 C2630 1.392 . S
C2629 C2633 1.495 . S
C2630 C2629 1.392 . S
C2630 C2631 1.385 . S
C2630 C2632 1.478 . S
C2631 H2625 0.930 . S
C2631 C2627 1.400 . S
C2631 C2630 1.385 . S
C2632 C2630 1.478 . S
C2632 C2634 1.381 . S
C2632 C2638 1.383 . S
C2633 C2629 1.495 . S
C2633 H2639 0.959 . S
C2633 H2640 0.961 . S
C2633 H2641 0.960 . S
C2634 C2632 1.381 . S
C2634 C2635 1.394 . S
C2634 H2642 0.930 . S
C2635 C2634 1.394 . S
C2635 C2636 1.383 . S
C2635 H2643 0.929 . S
C2636 C2635 1.383 . S
C2636 C2637 1.377 . S
C2637 H2621 0.930 . S
C2637 C2636 1.377 . S
C2637 C2638 1.379 . S
C2638 H2622 0.931 . S
C2638 C2632 1.383 . S
C2638 C2637 1.379 . S
H2639 C2633 0.959 . S
H2640 C2633 0.961 . S
H2641 C2633 0.960 . S
H2642 C2634 0.930 . S
H2643 C2635 0.929 . S
H2644 C2652 0.929 . S
H2645 C2654 0.930 . S
H2646 C2656 0.930 . S
H2647 C2659 0.929 . S
H2648 C2662 0.930 . S
H2649 C2664 0.960 . S
H2650 C2664 0.960 . S
H2651 C2664 0.960 . S
C2652 H2644 0.929 . S
C2652 C2653 1.377 . S
C2652 C2654 1.384 . S
C2653 C2652 1.377 . S
C2653 C2659 1.390 . S
C2654 H2645 0.930 . S
C2654 C2652 1.384 . S
C2654 C2655 1.372 . S
C2655 C2654 1.372 . S
C2655 C2656 1.400 . S
C2655 C2660 1.490 . S
C2656 H2646 0.930 . S
C2656 C2655 1.400 . S
C2656 C2659 1.386 . S
H2657 C2673 0.930 . S
H2658 C2674 0.931 . S
C2659 H2647 0.929 . S
C2659 C2653 1.390 . S
C2659 C2656 1.386 . S
C2660 C2655 1.490 . S
C2660 C2662 1.395 . S
C2660 C2663 1.403 . S
H2661 C2667 0.930 . S
C2662 H2648 0.930 . S
C2662 C2660 1.395 . S
C2662 C2665 1.403 . S
C2663 C2660 1.403 . S
C2663 C2664 1.524 . S
C2663 C2667 1.400 . S
C2664 H2649 0.960 . S
C2664 H2650 0.960 . S
C2664 H2651 0.960 . S
C2664 C2663 1.524 . S
C2665 C2662 1.403 . S
C2665 C2666 1.392 . S
C2665 C2669 1.495 . S
C2666 C2665 1.392 . S
C2666 C2667 1.385 . S
C2666 C2668 1.478 . S
C2667 H2661 0.930 . S
C2667 C2663 1.400 . S
C2667 C2666 1.385 . S
C2668 C2666 1.478 . S
C2668 C2670 1.381 . S
C2668 C2674 1.383 . S
C2669 C2665 1.495 . S
C2669 H2675 0.959 . S
C2669 H2676 0.961 . S
C2669 H2677 0.960 . S
C2670 C2668 1.381 . S
C2670 C2671 1.394 . S
C2670 H2678 0.930 . S
C2671 C2670 1.394 . S
C2671 C2672 1.383 . S
C2671 H2679 0.929 . S
C2672 C2671 1.383 . S
C2672 C2673 1.377 . S
C2673 H2657 0.930 . S
C2673 C2672 1.377 . S
C2673 C2674 1.379 . S
C2674 H2658 0.931 . S
C2674 C2668 1.383 . S
C2674 C2673 1.379 . S
H2675 C2669 0.959 . S
H2676 C2669 0.961 . S
H2677 C2669 0.960 . S
H2678 C2670 0.930 . S
H2679 C2671 0.929 . S
H2680 C2688 0.929 . S
H2681 C2690 0.930 . S
H2682 C2692 0.930 . S
H2683 C2695 0.929 . S
H2684 C2698 0.930 . S
H2685 C2700 0.960 . S
H2686 C2700 0.960 . S
H2687 C2700 0.960 . S
C2688 H2680 0.929 . S
C2688 C2689 1.377 . S
C2688 C2690 1.384 . S
C2689 C2688 1.377 . S
C2689 C2695 1.390 . S
C2690 H2681 0.930 . S
C2690 C2688 1.384 . S
C2690 C2691 1.372 . S
C2691 C2690 1.372 . S
C2691 C2692 1.400 . S
C2691 C2696 1.490 . S
C2692 H2682 0.930 . S
C2692 C2691 1.400 . S
C2692 C2695 1.386 . S
H2693 C2709 0.930 . S
H2694 C2710 0.931 . S
C2695 H2683 0.929 . S
C2695 C2689 1.390 . S
C2695 C2692 1.386 . S
C2696 C2691 1.490 . S
C2696 C2698 1.395 . S
C2696 C2699 1.403 . S
H2697 C2703 0.930 . S
C2698 H2684 0.930 . S
C2698 C2696 1.395 . S
C2698 C2701 1.403 . S
C2699 C2696 1.403 . S
C2699 C2700 1.524 . S
C2699 C2703 1.400 . S
C2700 H2685 0.960 . S
C2700 H2686 0.960 . S
C2700 H2687 0.960 . S
C2700 C2699 1.524 . S
C2701 C2698 1.403 . S
C2701 C2702 1.392 . S
C2701 C2705 1.495 . S
C2702 C2701 1.392 . S
C2702 C2703 1.385 . S
C2702 C2704 1.478 . S
C2703 H2697 0.930 . S
C2703 C2699 1.400 . S
C2703 C2702 1.385 . S
C2704 C2702 1.478 . S
C2704 C2706 1.381 . S
C2704 C2710 1.383 . S
C2705 C2701 1.495 . S
C2705 H2711 0.959 . S
C2705 H2712 0.961 . S
C2705 H2713 0.960 . S
C2706 C2704 1.381 . S
C2706 C2707 1.394 . S
C2706 H2714 0.930 . S
C2707 C2706 1.394 . S
C2707 C2708 1.383 . S
C2707 H2715 0.929 . S
C2708 C2707 1.383 . S
C2708 C2709 1.377 . S
C2709 H2693 0.930 . S
C2709 C2708 1.377 . S
C2709 C2710 1.379 . S
C2710 H2694 0.931 . S
C2710 C2704 1.383 . S
C2710 C2709 1.379 . S
H2711 C2705 0.959 . S
H2712 C2705 0.961 . S
H2713 C2705 0.960 . S
H2714 C2706 0.930 . S
H2715 C2707 0.929 . S
H2716 C2724 0.929 . S
H2717 C2726 0.930 . S
H2718 C2728 0.930 . S
H2719 C2731 0.929 . S
H2720 C2734 0.930 . S
H2721 C2736 0.960 . S
H2722 C2736 0.960 . S
H2723 C2736 0.960 . S
C2724 H2716 0.929 . S
C2724 C2725 1.377 . S
C2724 C2726 1.384 . S
C2725 C2724 1.377 . S
C2725 C2731 1.390 . S
C2726 H2717 0.930 . S
C2726 C2724 1.384 . S
C2726 C2727 1.372 . S
C2727 C2726 1.372 . S
C2727 C2728 1.400 . S
C2727 C2732 1.490 . S
C2728 H2718 0.930 . S
C2728 C2727 1.400 . S
C2728 C2731 1.386 . S
H2729 C2745 0.930 . S
H2730 C2746 0.931 . S
C2731 H2719 0.929 . S
C2731 C2725 1.390 . S
C2731 C2728 1.386 . S
C2732 C2727 1.490 . S
C2732 C2734 1.395 . S
C2732 C2735 1.403 . S
H2733 C2739 0.930 . S
C2734 H2720 0.930 . S
C2734 C2732 1.395 . S
C2734 C2737 1.403 . S
C2735 C2732 1.403 . S
C2735 C2736 1.524 . S
C2735 C2739 1.400 . S
C2736 H2721 0.960 . S
C2736 H2722 0.960 . S
C2736 H2723 0.960 . S
C2736 C2735 1.524 . S
C2737 C2734 1.403 . S
C2737 C2738 1.392 . S
C2737 C2741 1.495 . S
C2738 C2737 1.392 . S
C2738 C2739 1.385 . S
C2738 C2740 1.478 . S
C2739 H2733 0.930 . S
C2739 C2735 1.400 . S
C2739 C2738 1.385 . S
C2740 C2738 1.478 . S
C2740 C2742 1.381 . S
C2740 C2746 1.383 . S
C2741 C2737 1.495 . S
C2741 H2747 0.959 . S
C2741 H2748 0.961 . S
C2741 H2749 0.960 . S
C2742 C2740 1.381 . S
C2742 C2743 1.394 . S
C2742 H2750 0.930 . S
C2743 C2742 1.394 . S
C2743 C2744 1.383 . S
C2743 H2751 0.929 . S
C2744 C2743 1.383 . S
C2744 C2745 1.377 . S
C2745 H2729 0.930 . S
C2745 C2744 1.377 . S
C2745 C2746 1.379 . S
C2746 H2730 0.931 . S
C2746 C2740 1.383 . S
C2746 C2745 1.379 . S
H2747 C2741 0.959 . S
H2748 C2741 0.961 . S
H2749 C2741 0.960 . S
H2750 C2742 0.930 . S
H2751 C2743 0.929 . S
H2752 C2760 0.929 . S
H2753 C2762 0.930 . S
H2754 C2764 0.930 . S
H2755 C2767 0.929 . S
H2756 C2770 0.930 . S
H2757 C2772 0.960 . S
H2758 C2772 0.960 . S
H2759 C2772 0.960 . S
C2760 H2752 0.929 . S
C2760 C2761 1.377 . S
C2760 C2762 1.384 . S
C2761 C2760 1.377 . S
C2761 C2767 1.390 . S
C2762 H2753 0.930 . S
C2762 C2760 1.384 . S
C2762 C2763 1.372 . S
C2763 C2762 1.372 . S
C2763 C2764 1.400 . S
C2763 C2768 1.490 . S
C2764 H2754 0.930 . S
C2764 C2763 1.400 . S
C2764 C2767 1.386 . S
H2765 C2781 0.930 . S
H2766 C2782 0.931 . S
C2767 H2755 0.929 . S
C2767 C2761 1.390 . S
C2767 C2764 1.386 . S
C2768 C2763 1.490 . S
C2768 C2770 1.395 . S
C2768 C2771 1.403 . S
H2769 C2775 0.930 . S
C2770 H2756 0.930 . S
C2770 C2768 1.395 . S
C2770 C2773 1.403 . S
C2771 C2768 1.403 . S
C2771 C2772 1.524 . S
C2771 C2775 1.400 . S
C2772 H2757 0.960 . S
C2772 H2758 0.960 . S
C2772 H2759 0.960 . S
C2772 C2771 1.524 . S
C2773 C2770 1.403 . S
C2773 C2774 1.392 . S
C2773 C2777 1.495 . S
C2774 C2773 1.392 . S
C2774 C2775 1.385 . S
C2774 C2776 1.478 . S
C2775 H2769 0.930 . S
C2775 C2771 1.400 . S
C2775 C2774 1.385 . S
C2776 C2774 1.478 . S
C2776 C2778 1.381 . S
C2776 C2782 1.383 . S
C2777 C2773 1.495 . S
C2777 H2783 0.959 . S
C2777 H2784 0.961 . S
C2777 H2785 0.960 . S
C2778 C2776 1.381 . S
C2778 C2779 1.394 . S
C2778 H2786 0.930 . S
C2779 C2778 1.394 . S
C2779 C2780 1.383 . S
C2779 H2787 0.929 . S
C2780 C2779 1.383 . S
C2780 C2781 1.377 . S
C2781 H2765 0.930 . S
C2781 C2780 1.377 . S
C2781 C2782 1.379 . S
C2782 H2766 0.931 . S
C2782 C2776 1.383 . S
C2782 C2781 1.379 . S
H2783 C2777 0.959 . S
H2784 C2777 0.961 . S
H2785 C2777 0.960 . S
H2786 C2778 0.930 . S
H2787 C2779 0.929 . S
H2788 C2796 0.929 . S
H2789 C2798 0.930 . S
H2790 C2800 0.930 . S
H2791 C2803 0.929 . S
H2792 C2806 0.930 . S
H2793 C2808 0.960 . S
H2794 C2808 0.960 . S
H2795 C2808 0.960 . S
C2796 H2788 0.929 . S
C2796 C2797 1.377 . S
C2796 C2798 1.384 . S
C2797 C2796 1.377 . S
C2797 C2803 1.390 . S
C2798 H2789 0.930 . S
C2798 C2796 1.384 . S
C2798 C2799 1.372 . S
C2799 C2798 1.372 . S
C2799 C2800 1.400 . S
C2799 C2804 1.490 . S
C2800 H2790 0.930 . S
C2800 C2799 1.400 . S
C2800 C2803 1.386 . S
H2801 C2817 0.930 . S
H2802 C2818 0.931 . S
C2803 H2791 0.929 . S
C2803 C2797 1.390 . S
C2803 C2800 1.386 . S
C2804 C2799 1.490 . S
C2804 C2806 1.395 . S
C2804 C2807 1.403 . S
H2805 C2811 0.930 . S
C2806 H2792 0.930 . S
C2806 C2804 1.395 . S
C2806 C2809 1.403 . S
C2807 C2804 1.403 . S
C2807 C2808 1.524 . S
C2807 C2811 1.400 . S
C2808 H2793 0.960 . S
C2808 H2794 0.960 . S
C2808 H2795 0.960 . S
C2808 C2807 1.524 . S
C2809 C2806 1.403 . S
C2809 C2810 1.392 . S
C2809 C2813 1.495 . S
C2810 C2809 1.392 . S
C2810 C2811 1.385 . S
C2810 C2812 1.478 . S
C2811 H2805 0.930 . S
C2811 C2807 1.400 . S
C2811 C2810 1.385 . S
C2812 C2810 1.478 . S
C2812 C2814 1.381 . S
C2812 C2818 1.383 . S
C2813 C2809 1.495 . S
C2813 H2819 0.959 . S
C2813 H2820 0.961 . S
C2813 H2821 0.960 . S
C2814 C2812 1.381 . S
C2814 C2815 1.394 . S
C2814 H2822 0.930 . S
C2815 C2814 1.394 . S
C2815 C2816 1.383 . S
C2815 H2823 0.929 . S
C2816 C2815 1.383 . S
C2816 C2817 1.377 . S
C2817 H2801 0.930 . S
C2817 C2816 1.377 . S
C2817 C2818 1.379 . S
C2818 H2802 0.931 . S
C2818 C2812 1.383 . S
C2818 C2817 1.379 . S
H2819 C2813 0.959 . S
H2820 C2813 0.961 . S
H2821 C2813 0.960 . S
H2822 C2814 0.930 . S
H2823 C2815 0.929 . S
H2824 C2832 0.929 . S
H2825 C2834 0.930 . S
H2826 C2836 0.930 . S
H2827 C2839 0.929 . S
H2828 C2842 0.930 . S
H2829 C2844 0.960 . S
H2830 C2844 0.960 . S
H2831 C2844 0.960 . S
C2832 H2824 0.929 . S
C2832 C2833 1.377 . S
C2832 C2834 1.384 . S
C2833 C2832 1.377 . S
C2833 C2839 1.390 . S
C2834 H2825 0.930 . S
C2834 C2832 1.384 . S
C2834 C2835 1.372 . S
C2835 C2834 1.372 . S
C2835 C2836 1.400 . S
C2835 C2840 1.490 . S
C2836 H2826 0.930 . S
C2836 C2835 1.400 . S
C2836 C2839 1.386 . S
H2837 C2853 0.930 . S
H2838 C2854 0.931 . S
C2839 H2827 0.929 . S
C2839 C2833 1.390 . S
C2839 C2836 1.386 . S
C2840 C2835 1.490 . S
C2840 C2842 1.395 . S
C2840 C2843 1.403 . S
H2841 C2847 0.930 . S
C2842 H2828 0.930 . S
C2842 C2840 1.395 . S
C2842 C2845 1.403 . S
C2843 C2840 1.403 . S
C2843 C2844 1.524 . S
C2843 C2847 1.400 . S
C2844 H2829 0.960 . S
C2844 H2830 0.960 . S
C2844 H2831 0.960 . S
C2844 C2843 1.524 . S
C2845 C2842 1.403 . S
C2845 C2846 1.392 . S
C2845 C2849 1.495 . S
C2846 C2845 1.392 . S
C2846 C2847 1.385 . S
C2846 C2848 1.478 . S
C2847 H2841 0.930 . S
C2847 C2843 1.400 . S
C2847 C2846 1.385 . S
C2848 C2846 1.478 . S
C2848 C2850 1.381 . S
C2848 C2854 1.383 . S
C2849 C2845 1.495 . S
C2849 H2855 0.959 . S
C2849 H2856 0.961 . S
C2849 H2857 0.960 . S
C2850 C2848 1.381 . S
C2850 C2851 1.394 . S
C2850 H2858 0.930 . S
C2851 C2850 1.394 . S
C2851 C2852 1.383 . S
C2851 H2859 0.929 . S
C2852 C2851 1.383 . S
C2852 C2853 1.377 . S
C2853 H2837 0.930 . S
C2853 C2852 1.377 . S
C2853 C2854 1.379 . S
C2854 H2838 0.931 . S
C2854 C2848 1.383 . S
C2854 C2853 1.379 . S
H2855 C2849 0.959 . S
H2856 C2849 0.961 . S
H2857 C2849 0.960 . S
H2858 C2850 0.930 . S
H2859 C2851 0.929 . S
H2860 C2868 0.929 . S
H2861 C2870 0.930 . S
H2862 C2872 0.930 . S
H2863 C2875 0.929 . S
H2864 C2878 0.930 . S
H2865 C2880 0.960 . S
H2866 C2880 0.960 . S
H2867 C2880 0.960 . S
C2868 H2860 0.929 . S
C2868 C2869 1.377 . S
C2868 C2870 1.384 . S
C2869 C2868 1.377 . S
C2869 C2875 1.390 . S
C2870 H2861 0.930 . S
C2870 C2868 1.384 . S
C2870 C2871 1.372 . S
C2871 C2870 1.372 . S
C2871 C2872 1.400 . S
C2871 C2876 1.490 . S
C2872 H2862 0.930 . S
C2872 C2871 1.400 . S
C2872 C2875 1.386 . S
H2873 C2889 0.930 . S
H2874 C2890 0.931 . S
C2875 H2863 0.929 . S
C2875 C2869 1.390 . S
C2875 C2872 1.386 . S
C2876 C2871 1.490 . S
C2876 C2878 1.395 . S
C2876 C2879 1.403 . S
H2877 C2883 0.930 . S
C2878 H2864 0.930 . S
C2878 C2876 1.395 . S
C2878 C2881 1.403 . S
C2879 C2876 1.403 . S
C2879 C2880 1.524 . S
C2879 C2883 1.400 . S
C2880 H2865 0.960 . S
C2880 H2866 0.960 . S
C2880 H2867 0.960 . S
C2880 C2879 1.524 . S
C2881 C2878 1.403 . S
C2881 C2882 1.392 . S
C2881 C2885 1.495 . S
C2882 C2881 1.392 . S
C2882 C2883 1.385 . S
C2882 C2884 1.478 . S
C2883 H2877 0.930 . S
C2883 C2879 1.400 . S
C2883 C2882 1.385 . S
C2884 C2882 1.478 . S
C2884 C2886 1.381 . S
C2884 C2890 1.383 . S
C2885 C2881 1.495 . S
C2885 H2891 0.959 . S
C2885 H2892 0.961 . S
C2885 H2893 0.960 . S
C2886 C2884 1.381 . S
C2886 C2887 1.394 . S
C2886 H2894 0.930 . S
C2887 C2886 1.394 . S
C2887 C2888 1.383 . S
C2887 H2895 0.929 . S
C2888 C2887 1.383 . S
C2888 C2889 1.377 . S
C2889 H2873 0.930 . S
C2889 C2888 1.377 . S
C2889 C2890 1.379 . S
C2890 H2874 0.931 . S
C2890 C2884 1.383 . S
C2890 C2889 1.379 . S
H2891 C2885 0.959 . S
H2892 C2885 0.961 . S
H2893 C2885 0.960 . S
H2894 C2886 0.930 . S
H2895 C2887 0.929 . S
H2896 C2904 0.929 . S
H2897 C2906 0.930 . S
H2898 C2908 0.930 . S
H2899 C2911 0.929 . S
H2900 C2914 0.930 . S
H2901 C2916 0.960 . S
H2902 C2916 0.960 . S
H2903 C2916 0.960 . S
C2904 H2896 0.929 . S
C2904 C2905 1.377 . S
C2904 C2906 1.384 . S
C2905 C2904 1.377 . S
C2905 C2911 1.390 . S
C2906 H2897 0.930 . S
C2906 C2904 1.384 . S
C2906 C2907 1.372 . S
C2907 C2906 1.372 . S
C2907 C2908 1.400 . S
C2907 C2912 1.490 . S
C2908 H2898 0.930 . S
C2908 C2907 1.400 . S
C2908 C2911 1.386 . S
H2909 C2925 0.930 . S
H2910 C2926 0.931 . S
C2911 H2899 0.929 . S
C2911 C2905 1.390 . S
C2911 C2908 1.386 . S
C2912 C2907 1.490 . S
C2912 C2914 1.395 . S
C2912 C2915 1.403 . S
H2913 C2919 0.930 . S
C2914 H2900 0.930 . S
C2914 C2912 1.395 . S
C2914 C2917 1.403 . S
C2915 C2912 1.403 . S
C2915 C2916 1.524 . S
C2915 C2919 1.400 . S
C2916 H2901 0.960 . S
C2916 H2902 0.960 . S
C2916 H2903 0.960 . S
C2916 C2915 1.524 . S
C2917 C2914 1.403 . S
C2917 C2918 1.392 . S
C2917 C2921 1.495 . S
C2918 C2917 1.392 . S
C2918 C2919 1.385 . S
C2918 C2920 1.478 . S
C2919 H2913 0.930 . S
C2919 C2915 1.400 . S
C2919 C2918 1.385 . S
C2920 C2918 1.478 . S
C2920 C2922 1.381 . S
C2920 C2926 1.383 . S
C2921 C2917 1.495 . S
C2921 H2927 0.959 . S
C2921 H2928 0.961 . S
C2921 H2929 0.960 . S
C2922 C2920 1.381 . S
C2922 C2923 1.394 . S
C2922 H2930 0.930 . S
C2923 C2922 1.394 . S
C2923 C2924 1.383 . S
C2923 H2931 0.929 . S
C2924 C2923 1.383 . S
C2924 C2925 1.377 . S
C2925 H2909 0.930 . S
C2925 C2924 1.377 . S
C2925 C2926 1.379 . S
C2926 H2910 0.931 . S
C2926 C2920 1.383 . S
C2926 C2925 1.379 . S
H2927 C2921 0.959 . S
H2928 C2921 0.961 . S
H2929 C2921 0.960 . S
H2930 C2922 0.930 . S
H2931 C2923 0.929 . S
H2932 C2940 0.929 . S
H2933 C2942 0.930 . S
H2934 C2944 0.930 . S
H2935 C2947 0.929 . S
H2936 C2950 0.930 . S
H2937 C2952 0.960 . S
H2938 C2952 0.960 . S
H2939 C2952 0.960 . S
C2940 H2932 0.929 . S
C2940 C2941 1.377 . S
C2940 C2942 1.384 . S
C2941 C2940 1.377 . S
C2941 C2947 1.390 . S
C2942 H2933 0.930 . S
C2942 C2940 1.384 . S
C2942 C2943 1.372 . S
C2943 C2942 1.372 . S
C2943 C2944 1.400 . S
C2943 C2948 1.490 . S
C2944 H2934 0.930 . S
C2944 C2943 1.400 . S
C2944 C2947 1.386 . S
H2945 C2961 0.930 . S
H2946 C2962 0.931 . S
C2947 H2935 0.929 . S
C2947 C2941 1.390 . S
C2947 C2944 1.386 . S
C2948 C2943 1.490 . S
C2948 C2950 1.395 . S
C2948 C2951 1.403 . S
H2949 C2955 0.930 . S
C2950 H2936 0.930 . S
C2950 C2948 1.395 . S
C2950 C2953 1.403 . S
C2951 C2948 1.403 . S
C2951 C2952 1.524 . S
C2951 C2955 1.400 . S
C2952 H2937 0.960 . S
C2952 H2938 0.960 . S
C2952 H2939 0.960 . S
C2952 C2951 1.524 . S
C2953 C2950 1.403 . S
C2953 C2954 1.392 . S
C2953 C2957 1.495 . S
C2954 C2953 1.392 . S
C2954 C2955 1.385 . S
C2954 C2956 1.478 . S
C2955 H2949 0.930 . S
C2955 C2951 1.400 . S
C2955 C2954 1.385 . S
C2956 C2954 1.478 . S
C2956 C2958 1.381 . S
C2956 C2962 1.383 . S
C2957 C2953 1.495 . S
C2957 H2963 0.959 . S
C2957 H2964 0.961 . S
C2957 H2965 0.960 . S
C2958 C2956 1.381 . S
C2958 C2959 1.394 . S
C2958 H2966 0.930 . S
C2959 C2958 1.394 . S
C2959 C2960 1.383 . S
C2959 H2967 0.929 . S
C2960 C2959 1.383 . S
C2960 C2961 1.377 . S
C2961 H2945 0.930 . S
C2961 C2960 1.377 . S
C2961 C2962 1.379 . S
C2962 H2946 0.931 . S
C2962 C2956 1.383 . S
C2962 C2961 1.379 . S
H2963 C2957 0.959 . S
H2964 C2957 0.961 . S
H2965 C2957 0.960 . S
H2966 C2958 0.930 . S
H2967 C2959 0.929 . S
H2968 C2976 0.929 . S
H2969 C2978 0.930 . S
H2970 C2980 0.930 . S
H2971 C2983 0.929 . S
H2972 C2986 0.930 . S
H2973 C2988 0.960 . S
H2974 C2988 0.960 . S
H2975 C2988 0.960 . S
C2976 H2968 0.929 . S
C2976 C2977 1.377 . S
C2976 C2978 1.384 . S
C2977 C2976 1.377 . S
C2977 C2983 1.390 . S
C2978 H2969 0.930 . S
C2978 C2976 1.384 . S
C2978 C2979 1.372 . S
C2979 C2978 1.372 . S
C2979 C2980 1.400 . S
C2979 C2984 1.490 . S
C2980 H2970 0.930 . S
C2980 C2979 1.400 . S
C2980 C2983 1.386 . S
H2981 C2997 0.930 . S
H2982 C2998 0.931 . S
C2983 H2971 0.929 . S
C2983 C2977 1.390 . S
C2983 C2980 1.386 . S
C2984 C2979 1.490 . S
C2984 C2986 1.395 . S
C2984 C2987 1.403 . S
H2985 C2991 0.930 . S
C2986 H2972 0.930 . S
C2986 C2984 1.395 . S
C2986 C2989 1.403 . S
C2987 C2984 1.403 . S
C2987 C2988 1.524 . S
C2987 C2991 1.400 . S
C2988 H2973 0.960 . S
C2988 H2974 0.960 . S
C2988 H2975 0.960 . S
C2988 C2987 1.524 . S
C2989 C2986 1.403 . S
C2989 C2990 1.392 . S
C2989 C2993 1.495 . S
C2990 C2989 1.392 . S
C2990 C2991 1.385 . S
C2990 C2992 1.478 . S
C2991 H2985 0.930 . S
C2991 C2987 1.400 . S
C2991 C2990 1.385 . S
C2992 C2990 1.478 . S
C2992 C2994 1.381 . S
C2992 C2998 1.383 . S
C2993 C2989 1.495 . S
C2993 H2999 0.959 . S
C2993 H3000 0.961 . S
C2993 H3001 0.960 . S
C2994 C2992 1.381 . S
C2994 C2995 1.394 . S
C2994 H3002 0.930 . S
C2995 C2994 1.394 . S
C2995 C2996 1.383 . S
C2995 H3003 0.929 . S
C2996 C2995 1.383 . S
C2996 C2997 1.377 . S
C2997 H2981 0.930 . S
C2997 C2996 1.377 . S
C2997 C2998 1.379 . S
C2998 H2982 0.931 . S
C2998 C2992 1.383 . S
C2998 C2997 1.379 . S
H2999 C2993 0.959 . S
H3000 C2993 0.961 . S
H3001 C2993 0.960 . S
H3002 C2994 0.930 . S
H3003 C2995 0.929 . S
H3004 C3012 0.929 . S
H3005 C3014 0.930 . S
H3006 C3016 0.930 . S
H3007 C3019 0.929 . S
H3008 C3022 0.930 . S
H3009 C3024 0.960 . S
H3010 C3024 0.960 . S
H3011 C3024 0.960 . S
C3012 H3004 0.929 . S
C3012 C3013 1.377 . S
C3012 C3014 1.384 . S
C3013 C3012 1.377 . S
C3013 C3019 1.390 . S
C3014 H3005 0.930 . S
C3014 C3012 1.384 . S
C3014 C3015 1.372 . S
C3015 C3014 1.372 . S
C3015 C3016 1.400 . S
C3015 C3020 1.490 . S
C3016 H3006 0.930 . S
C3016 C3015 1.400 . S
C3016 C3019 1.386 . S
H3017 C3033 0.930 . S
H3018 C3034 0.931 . S
C3019 H3007 0.929 . S
C3019 C3013 1.390 . S
C3019 C3016 1.386 . S
C3020 C3015 1.490 . S
C3020 C3022 1.395 . S
C3020 C3023 1.403 . S
H3021 C3027 0.930 . S
C3022 H3008 0.930 . S
C3022 C3020 1.395 . S
C3022 C3025 1.403 . S
C3023 C3020 1.403 . S
C3023 C3024 1.524 . S
C3023 C3027 1.400 . S
C3024 H3009 0.960 . S
C3024 H3010 0.960 . S
C3024 H3011 0.960 . S
C3024 C3023 1.524 . S
C3025 C3022 1.403 . S
C3025 C3026 1.392 . S
C3025 C3029 1.495 . S
C3026 C3025 1.392 . S
C3026 C3027 1.385 . S
C3026 C3028 1.478 . S
C3027 H3021 0.930 . S
C3027 C3023 1.400 . S
C3027 C3026 1.385 . S
C3028 C3026 1.478 . S
C3028 C3030 1.381 . S
C3028 C3034 1.383 . S
C3029 C3025 1.495 . S
C3029 H3035 0.959 . S
C3029 H3036 0.961 . S
C3029 H3037 0.960 . S
C3030 C3028 1.381 . S
C3030 C3031 1.394 . S
C3030 H3038 0.930 . S
C3031 C3030 1.394 . S
C3031 C3032 1.383 . S
C3031 H3039 0.929 . S
C3032 C3031 1.383 . S
C3032 C3033 1.377 . S
C3033 H3017 0.930 . S
C3033 C3032 1.377 . S
C3033 C3034 1.379 . S
C3034 H3018 0.931 . S
C3034 C3028 1.383 . S
C3034 C3033 1.379 . S
H3035 C3029 0.959 . S
H3036 C3029 0.961 . S
H3037 C3029 0.960 . S
H3038 C3030 0.930 . S
H3039 C3031 0.929 . S
H3040 C3048 0.929 . S
H3041 C3050 0.930 . S
H3042 C3052 0.930 . S
H3043 C3055 0.929 . S
H3044 C3058 0.930 . S
H3045 C3060 0.960 . S
H3046 C3060 0.960 . S
H3047 C3060 0.960 . S
C3048 H3040 0.929 . S
C3048 C3049 1.377 . S
C3048 C3050 1.384 . S
C3049 C3048 1.377 . S
C3049 C3055 1.390 . S
C3050 H3041 0.930 . S
C3050 C3048 1.384 . S
C3050 C3051 1.372 . S
C3051 C3050 1.372 . S
C3051 C3052 1.400 . S
C3051 C3056 1.490 . S
C3052 H3042 0.930 . S
C3052 C3051 1.400 . S
C3052 C3055 1.386 . S
H3053 C3069 0.930 . S
H3054 C3070 0.931 . S
C3055 H3043 0.929 . S
C3055 C3049 1.390 . S
C3055 C3052 1.386 . S
C3056 C3051 1.490 . S
C3056 C3058 1.395 . S
C3056 C3059 1.403 . S
H3057 C3063 0.930 . S
C3058 H3044 0.930 . S
C3058 C3056 1.395 . S
C3058 C3061 1.403 . S
C3059 C3056 1.403 . S
C3059 C3060 1.524 . S
C3059 C3063 1.400 . S
C3060 H3045 0.960 . S
C3060 H3046 0.960 . S
C3060 H3047 0.960 . S
C3060 C3059 1.524 . S
C3061 C3058 1.403 . S
C3061 C3062 1.392 . S
C3061 C3065 1.495 . S
C3062 C3061 1.392 . S
C3062 C3063 1.385 . S
C3062 C3064 1.478 . S
C3063 H3057 0.930 . S
C3063 C3059 1.400 . S
C3063 C3062 1.385 . S
C3064 C3062 1.478 . S
C3064 C3066 1.381 . S
C3064 C3070 1.383 . S
C3065 C3061 1.495 . S
C3065 H3071 0.959 . S
C3065 H3072 0.961 . S
C3065 H3073 0.960 . S
C3066 C3064 1.381 . S
C3066 C3067 1.394 . S
C3066 H3074 0.930 . S
C3067 C3066 1.394 . S
C3067 C3068 1.383 . S
C3067 H3075 0.929 . S
C3068 C3067 1.383 . S
C3068 C3069 1.377 . S
C3069 H3053 0.930 . S
C3069 C3068 1.377 . S
C3069 C3070 1.379 . S
C3070 H3054 0.931 . S
C3070 C3064 1.383 . S
C3070 C3069 1.379 . S
H3071 C3065 0.959 . S
H3072 C3065 0.961 . S
H3073 C3065 0.960 . S
H3074 C3066 0.930 . S
H3075 C3067 0.929 . S
H3076 C3084 0.929 . S
H3077 C3086 0.930 . S
H3078 C3088 0.930 . S
H3079 C3091 0.929 . S
H3080 C3094 0.930 . S
H3081 C3096 0.960 . S
H3082 C3096 0.960 . S
H3083 C3096 0.960 . S
C3084 H3076 0.929 . S
C3084 C3085 1.377 . S
C3084 C3086 1.384 . S
C3085 C3084 1.377 . S
C3085 C3091 1.390 . S
C3086 H3077 0.930 . S
C3086 C3084 1.384 . S
C3086 C3087 1.372 . S
C3087 C3086 1.372 . S
C3087 C3088 1.400 . S
C3087 C3092 1.490 . S
C3088 H3078 0.930 . S
C3088 C3087 1.400 . S
C3088 C3091 1.386 . S
H3089 C3105 0.930 . S
H3090 C3106 0.931 . S
C3091 H3079 0.929 . S
C3091 C3085 1.390 . S
C3091 C3088 1.386 . S
C3092 C3087 1.490 . S
C3092 C3094 1.395 . S
C3092 C3095 1.403 . S
H3093 C3099 0.930 . S
C3094 H3080 0.930 . S
C3094 C3092 1.395 . S
C3094 C3097 1.403 . S
C3095 C3092 1.403 . S
C3095 C3096 1.524 . S
C3095 C3099 1.400 . S
C3096 H3081 0.960 . S
C3096 H3082 0.960 . S
C3096 H3083 0.960 . S
C3096 C3095 1.524 . S
C3097 C3094 1.403 . S
C3097 C3098 1.392 . S
C3097 C3101 1.495 . S
C3098 C3097 1.392 . S
C3098 C3099 1.385 . S
C3098 C3100 1.478 . S
C3099 H3093 0.930 . S
C3099 C3095 1.400 . S
C3099 C3098 1.385 . S
C3100 C3098 1.478 . S
C3100 C3102 1.381 . S
C3100 C3106 1.383 . S
C3101 C3097 1.495 . S
C3101 H3107 0.959 . S
C3101 H3108 0.961 . S
C3101 H3109 0.960 . S
C3102 C3100 1.381 . S
C3102 C3103 1.394 . S
C3102 H3110 0.930 . S
C3103 C3102 1.394 . S
C3103 C3104 1.383 . S
C3103 H3111 0.929 . S
C3104 C3103 1.383 . S
C3104 C3105 1.377 . S
C3105 H3089 0.930 . S
C3105 C3104 1.377 . S
C3105 C3106 1.379 . S
C3106 H3090 0.931 . S
C3106 C3100 1.383 . S
C3106 C3105 1.379 . S
H3107 C3101 0.959 . S
H3108 C3101 0.961 . S
H3109 C3101 0.960 . S
H3110 C3102 0.930 . S
H3111 C3103 0.929 . S
H3112 C3120 0.929 . S
H3113 C3122 0.930 . S
H3114 C3124 0.930 . S
H3115 C3127 0.929 . S
H3116 C3130 0.930 . S
H3117 C3132 0.960 . S
H3118 C3132 0.960 . S
H3119 C3132 0.960 . S
C3120 H3112 0.929 . S
C3120 C3121 1.377 . S
C3120 C3122 1.384 . S
C3121 C3120 1.377 . S
C3121 C3127 1.390 . S
C3122 H3113 0.930 . S
C3122 C3120 1.384 . S
C3122 C3123 1.372 . S
C3123 C3122 1.372 . S
C3123 C3124 1.400 . S
C3123 C3128 1.490 . S
C3124 H3114 0.930 . S
C3124 C3123 1.400 . S
C3124 C3127 1.386 . S
H3125 C3141 0.930 . S
H3126 C3142 0.931 . S
C3127 H3115 0.929 . S
C3127 C3121 1.390 . S
C3127 C3124 1.386 . S
C3128 C3123 1.490 . S
C3128 C3130 1.395 . S
C3128 C3131 1.403 . S
H3129 C3135 0.930 . S
C3130 H3116 0.930 . S
C3130 C3128 1.395 . S
C3130 C3133 1.403 . S
C3131 C3128 1.403 . S
C3131 C3132 1.524 . S
C3131 C3135 1.400 . S
C3132 H3117 0.960 . S
C3132 H3118 0.960 . S
C3132 H3119 0.960 . S
C3132 C3131 1.524 . S
C3133 C3130 1.403 . S
C3133 C3134 1.392 . S
C3133 C3137 1.495 . S
C3134 C3133 1.392 . S
C3134 C3135 1.385 . S
C3134 C3136 1.478 . S
C3135 H3129 0.930 . S
C3135 C3131 1.400 . S
C3135 C3134 1.385 . S
C3136 C3134 1.478 . S
C3136 C3138 1.381 . S
C3136 C3142 1.383 . S
C3137 C3133 1.495 . S
C3137 H3143 0.959 . S
C3137 H3144 0.961 . S
C3137 H3145 0.960 . S
C3138 C3136 1.381 . S
C3138 C3139 1.394 . S
C3138 H3146 0.930 . S
C3139 C3138 1.394 . S
C3139 C3140 1.383 . S
C3139 H3147 0.929 . S
C3140 C3139 1.383 . S
C3140 C3141 1.377 . S
C3141 H3125 0.930 . S
C3141 C3140 1.377 . S
C3141 C3142 1.379 . S
C3142 H3126 0.931 . S
C3142 C3136 1.383 . S
C3142 C3141 1.379 . S
H3143 C3137 0.959 . S
H3144 C3137 0.961 . S
H3145 C3137 0.960 . S
H3146 C3138 0.930 . S
H3147 C3139 0.929 . S
H3148 C3156 0.929 . S
H3149 C3158 0.930 . S
H3150 C3160 0.930 . S
H3151 C3163 0.929 . S
H3152 C3166 0.930 . S
H3153 C3168 0.960 . S
H3154 C3168 0.960 . S
H3155 C3168 0.960 . S
C3156 H3148 0.929 . S
C3156 C3157 1.377 . S
C3156 C3158 1.384 . S
C3157 C3156 1.377 . S
C3157 C3163 1.390 . S
C3158 H3149 0.930 . S
C3158 C3156 1.384 . S
C3158 C3159 1.372 . S
C3159 C3158 1.372 . S
C3159 C3160 1.400 . S
C3159 C3164 1.490 . S
C3160 H3150 0.930 . S
C3160 C3159 1.400 . S
C3160 C3163 1.386 . S
H3161 C3177 0.930 . S
H3162 C3178 0.931 . S
C3163 H3151 0.929 . S
C3163 C3157 1.390 . S
C3163 C3160 1.386 . S
C3164 C3159 1.490 . S
C3164 C3166 1.395 . S
C3164 C3167 1.403 . S
H3165 C3171 0.930 . S
C3166 H3152 0.930 . S
C3166 C3164 1.395 . S
C3166 C3169 1.403 . S
C3167 C3164 1.403 . S
C3167 C3168 1.524 . S
C3167 C3171 1.400 . S
C3168 H3153 0.960 . S
C3168 H3154 0.960 . S
C3168 H3155 0.960 . S
C3168 C3167 1.524 . S
C3169 C3166 1.403 . S
C3169 C3170 1.392 . S
C3169 C3173 1.495 . S
C3170 C3169 1.392 . S
C3170 C3171 1.385 . S
C3170 C3172 1.478 . S
C3171 H3165 0.930 . S
C3171 C3167 1.400 . S
C3171 C3170 1.385 . S
C3172 C3170 1.478 . S
C3172 C3174 1.381 . S
C3172 C3178 1.383 . S
C3173 C3169 1.495 . S
C3173 H3179 0.959 . S
C3173 H3180 0.961 . S
C3173 H3181 0.960 . S
C3174 C3172 1.381 . S
C3174 C3175 1.394 . S
C3174 H3182 0.930 . S
C3175 C3174 1.394 . S
C3175 C3176 1.383 . S
C3175 H3183 0.929 . S
C3176 C3175 1.383 . S
C3176 C3177 1.377 . S
C3177 H3161 0.930 . S
C3177 C3176 1.377 . S
C3177 C3178 1.379 . S
C3178 H3162 0.931 . S
C3178 C3172 1.383 . S
C3178 C3177 1.379 . S
H3179 C3173 0.959 . S
H3180 C3173 0.961 . S
H3181 C3173 0.960 . S
H3182 C3174 0.930 . S
H3183 C3175 0.929 . S
H3184 C3192 0.929 . S
H3185 C3194 0.930 . S
H3186 C3196 0.930 . S
H3187 C3199 0.929 . S
H3188 C3202 0.930 . S
H3189 C3204 0.960 . S
H3190 C3204 0.960 . S
H3191 C3204 0.960 . S
C3192 H3184 0.929 . S
C3192 C3193 1.377 . S
C3192 C3194 1.384 . S
C3193 C3192 1.377 . S
C3193 C3199 1.390 . S
C3194 H3185 0.930 . S
C3194 C3192 1.384 . S
C3194 C3195 1.372 . S
C3195 C3194 1.372 . S
C3195 C3196 1.400 . S
C3195 C3200 1.490 . S
C3196 H3186 0.930 . S
C3196 C3195 1.400 . S
C3196 C3199 1.386 . S
H3197 C3213 0.930 . S
H3198 C3214 0.931 . S
C3199 H3187 0.929 . S
C3199 C3193 1.390 . S
C3199 C3196 1.386 . S
C3200 C3195 1.490 . S
C3200 C3202 1.395 . S
C3200 C3203 1.403 . S
H3201 C3207 0.930 . S
C3202 H3188 0.930 . S
C3202 C3200 1.395 . S
C3202 C3205 1.403 . S
C3203 C3200 1.403 . S
C3203 C3204 1.524 . S
C3203 C3207 1.400 . S
C3204 H3189 0.960 . S
C3204 H3190 0.960 . S
C3204 H3191 0.960 . S
C3204 C3203 1.524 . S
C3205 C3202 1.403 . S
C3205 C3206 1.392 . S
C3205 C3209 1.495 . S
C3206 C3205 1.392 . S
C3206 C3207 1.385 . S
C3206 C3208 1.478 . S
C3207 H3201 0.930 . S
C3207 C3203 1.400 . S
C3207 C3206 1.385 . S
C3208 C3206 1.478 . S
C3208 C3210 1.381 . S
C3208 C3214 1.383 . S
C3209 C3205 1.495 . S
C3209 H3215 0.959 . S
C3209 H3216 0.961 . S
C3209 H3217 0.960 . S
C3210 C3208 1.381 . S
C3210 C3211 1.394 . S
C3210 H3218 0.930 . S
C3211 C3210 1.394 . S
C3211 C3212 1.383 . S
C3211 H3219 0.929 . S
C3212 C3211 1.383 . S
C3212 C3213 1.377 . S
C3213 H3197 0.930 . S
C3213 C3212 1.377 . S
C3213 C3214 1.379 . S
C3214 H3198 0.931 . S
C3214 C3208 1.383 . S
C3214 C3213 1.379 . S
H3215 C3209 0.959 . S
H3216 C3209 0.961 . S
H3217 C3209 0.960 . S
H3218 C3210 0.930 . S
H3219 C3211 0.929 . S
H3220 C3228 0.929 . S
H3221 C3230 0.930 . S
H3222 C3232 0.930 . S
H3223 C3235 0.929 . S
H3224 C3238 0.930 . S
H3225 C3240 0.924 1_455 S
H3226 C3240 0.970 . S
H3227 C3240 0.979 . S
C3228 H3220 0.929 . S
C3228 C3229 1.377 . S
C3228 C3230 1.384 . S
C3229 C3228 1.377 . S
C3229 C3235 1.390 . S
C3230 H3221 0.930 . S
C3230 C3228 1.384 . S
C3230 C3231 1.372 . S
C3231 C3230 1.372 . S
C3231 C3232 1.400 . S
C3231 C3236 1.490 . S
C3232 H3222 0.930 . S
C3232 C3231 1.400 . S
C3232 C3235 1.386 . S
H3233 C3249 0.930 . S
H3234 C3250 0.931 . S
C3235 H3223 0.929 . S
C3235 C3229 1.390 . S
C3235 C3232 1.386 . S
C3236 C3231 1.490 . S
C3236 C3238 1.395 . S
C3236 C3239 1.403 . S
H3237 C3243 0.930 . S
C3238 H3224 0.930 . S
C3238 C3236 1.395 . S
C3238 C3241 1.403 . S
C3239 C3236 1.403 . S
C3239 C3240 1.533 . S
C3239 C3243 1.400 1_655 S
C3240 H3225 0.924 1_655 S
C3240 H3226 0.970 . S
C3240 H3227 0.979 . S
C3240 C3239 1.533 . S
C3241 C3238 1.403 . S
C3241 C3242 1.392 1_655 S
C3241 C3245 1.495 . S
C3242 C3241 1.392 1_455 S
C3242 C3243 1.385 . S
C3242 C3244 1.478 . S
C3243 H3237 0.930 . S
C3243 C3239 1.400 1_455 S
C3243 C3242 1.385 . S
C3244 C3242 1.478 . S
C3244 C3246 1.381 . S
C3244 C3250 1.383 . S
C3245 C3241 1.495 . S
C3245 H3251 0.959 . S
C3245 H3252 0.961 . S
C3245 H3253 0.960 . S
C3246 C3244 1.381 . S
C3246 C3247 1.394 . S
C3246 H3254 0.930 . S
C3247 C3246 1.394 . S
C3247 C3248 1.383 . S
C3247 H3255 0.929 . S
C3248 C3247 1.383 . S
C3248 C3249 1.377 . S
C3249 H3233 0.930 . S
C3249 C3248 1.377 . S
C3249 C3250 1.379 . S
C3250 H3234 0.931 . S
C3250 C3244 1.383 . S
C3250 C3249 1.379 . S
H3251 C3245 0.959 . S
H3252 C3245 0.961 . S
H3253 C3245 0.960 . S
H3254 C3246 0.930 . S
H3255 C3247 0.929 . S
H3256 C3264 0.929 . S
H3257 C3266 0.930 . S
H3258 C3268 0.930 . S
H3259 C3271 0.929 . S
H3260 C3274 0.930 . S
H3261 C3276 0.960 . S
H3262 C3276 0.960 . S
H3263 C3276 0.960 . S
C3264 H3256 0.929 . S
C3264 C3265 1.377 . S
C3264 C3266 1.384 . S
C3265 C3264 1.377 . S
C3265 C3271 1.390 . S
C3266 H3257 0.930 . S
C3266 C3264 1.384 . S
C3266 C3267 1.372 . S
C3267 C3266 1.372 . S
C3267 C3268 1.400 . S
C3267 C3272 1.490 . S
C3268 H3258 0.930 . S
C3268 C3267 1.400 . S
C3268 C3271 1.386 . S
H3269 C3285 0.930 . S
H3270 C3286 0.931 . S
C3271 H3259 0.929 . S
C3271 C3265 1.390 . S
C3271 C3268 1.386 . S
C3272 C3267 1.490 . S
C3272 C3274 1.395 . S
C3272 C3275 1.403 . S
H3273 C3279 0.930 . S
C3274 H3260 0.930 . S
C3274 C3272 1.395 . S
C3274 C3277 1.403 . S
C3275 C3272 1.403 . S
C3275 C3276 1.524 . S
C3275 C3279 1.400 . S
C3276 H3261 0.960 . S
C3276 H3262 0.960 . S
C3276 H3263 0.960 . S
C3276 C3275 1.524 . S
C3277 C3274 1.403 . S
C3277 C3278 1.392 . S
C3277 C3281 1.495 . S
C3278 C3277 1.392 . S
C3278 C3279 1.385 . S
C3278 C3280 1.478 . S
C3279 H3273 0.930 . S
C3279 C3275 1.400 . S
C3279 C3278 1.385 . S
C3280 C3278 1.478 . S
C3280 C3282 1.381 . S
C3280 C3286 1.383 . S
C3281 C3277 1.495 . S
C3281 H3287 0.959 . S
C3281 H3288 0.961 . S
C3281 H3289 0.960 . S
C3282 C3280 1.381 . S
C3282 C3283 1.394 . S
C3282 H3290 0.930 . S
C3283 C3282 1.394 . S
C3283 C3284 1.383 . S
C3283 H3291 0.929 . S
C3284 C3283 1.383 . S
C3284 C3285 1.377 . S
C3285 H3269 0.930 . S
C3285 C3284 1.377 . S
C3285 C3286 1.379 . S
C3286 H3270 0.931 . S
C3286 C3280 1.383 . S
C3286 C3285 1.379 . S
H3287 C3281 0.959 . S
H3288 C3281 0.961 . S
H3289 C3281 0.960 . S
H3290 C3282 0.930 . S
H3291 C3283 0.929 . S
H3292 C3300 0.929 . S
H3293 C3302 0.930 . S
H3294 C3304 0.930 . S
H3295 C3307 0.929 . S
H3296 C3310 0.930 . S
H3297 C3312 0.960 . S
H3298 C3312 0.960 . S
H3299 C3312 0.960 . S
C3300 H3292 0.929 . S
C3300 C3301 1.377 . S
C3300 C3302 1.384 . S
C3301 C3300 1.377 . S
C3301 C3307 1.390 . S
C3302 H3293 0.930 . S
C3302 C3300 1.384 . S
C3302 C3303 1.372 . S
C3303 C3302 1.372 . S
C3303 C3304 1.400 . S
C3303 C3308 1.490 . S
C3304 H3294 0.930 . S
C3304 C3303 1.400 . S
C3304 C3307 1.386 . S
H3305 C3321 0.930 . S
H3306 C3322 0.931 . S
C3307 H3295 0.929 . S
C3307 C3301 1.390 . S
C3307 C3304 1.386 . S
C3308 C3303 1.490 . S
C3308 C3310 1.395 . S
C3308 C3311 1.403 . S
H3309 C3315 0.944 . S
C3310 H3296 0.930 . S
C3310 C3308 1.395 . S
C3310 C3313 1.403 1_556 S
C3311 C3308 1.403 . S
C3311 C3312 1.524 . S
C3311 C3315 1.367 1_556 S
C3312 H3297 0.960 . S
C3312 H3298 0.960 . S
C3312 H3299 0.960 . S
C3312 C3311 1.524 . S
C3313 C3310 1.403 1_554 S
C3313 C3314 1.392 . S
C3313 C3317 1.495 . S
C3314 C3313 1.392 . S
C3314 C3315 1.407 . S
C3314 C3316 1.478 . S
C3315 H3309 0.944 . S
C3315 C3311 1.367 1_554 S
C3315 C3314 1.407 . S
C3316 C3314 1.478 . S
C3316 C3318 1.381 . S
C3316 C3322 1.383 . S
C3317 C3313 1.495 . S
C3317 H3323 0.959 . S
C3317 H3324 0.961 . S
C3317 H3325 0.960 . S
C3318 C3316 1.381 . S
C3318 C3319 1.394 . S
C3318 H3326 0.930 . S
C3319 C3318 1.394 . S
C3319 C3320 1.383 . S
C3319 H3327 0.929 . S
C3320 C3319 1.383 . S
C3320 C3321 1.377 . S
C3321 H3305 0.930 . S
C3321 C3320 1.377 . S
C3321 C3322 1.379 . S
C3322 H3306 0.931 . S
C3322 C3316 1.383 . S
C3322 C3321 1.379 . S
H3323 C3317 0.959 . S
H3324 C3317 0.961 . S
H3325 C3317 0.960 . S
H3326 C3318 0.930 . S
H3327 C3319 0.929 . S
H3328 C3336 0.929 . S
H3329 C3338 0.930 . S
H3330 C3340 0.930 . S
H3331 C3343 0.929 . S
H3332 C3346 0.930 . S
H3333 C3348 0.960 . S
H3334 C3348 0.960 . S
H3335 C3348 0.960 . S
C3336 H3328 0.929 . S
C3336 C3337 1.377 . S
C3336 C3338 1.384 . S
C3337 C3336 1.377 . S
C3337 C3343 1.390 . S
C3338 H3329 0.930 . S
C3338 C3336 1.384 . S
C3338 C3339 1.372 . S
C3339 C3338 1.372 . S
C3339 C3340 1.400 . S
C3339 C3344 1.490 . S
C3340 H3330 0.930 . S
C3340 C3339 1.400 . S
C3340 C3343 1.386 . S
H3341 C3357 0.930 . S
H3342 C3358 0.931 . S
C3343 H3331 0.929 . S
C3343 C3337 1.390 . S
C3343 C3340 1.386 . S
C3344 C3339 1.490 . S
C3344 C3346 1.395 . S
C3344 C3347 1.403 . S
H3345 C3351 0.930 . S
C3346 H3332 0.930 . S
C3346 C3344 1.395 . S
C3346 C3349 1.403 . S
C3347 C3344 1.403 . S
C3347 C3348 1.524 . S
C3347 C3351 1.400 . S
C3348 H3333 0.960 . S
C3348 H3334 0.960 . S
C3348 H3335 0.960 . S
C3348 C3347 1.524 . S
C3349 C3346 1.403 . S
C3349 C3350 1.392 . S
C3349 C3353 1.495 . S
C3350 C3349 1.392 . S
C3350 C3351 1.385 . S
C3350 C3352 1.478 . S
C3351 H3345 0.930 . S
C3351 C3347 1.400 . S
C3351 C3350 1.385 . S
C3352 C3350 1.478 . S
C3352 C3354 1.381 . S
C3352 C3358 1.383 . S
C3353 C3349 1.495 . S
C3353 H3359 0.959 . S
C3353 H3360 0.961 . S
C3353 H3361 0.960 . S
C3354 C3352 1.381 . S
C3354 C3355 1.394 . S
C3354 H3362 0.930 . S
C3355 C3354 1.394 . S
C3355 C3356 1.383 . S
C3355 H3363 0.929 . S
C3356 C3355 1.383 . S
C3356 C3357 1.377 . S
C3357 H3341 0.930 . S
C3357 C3356 1.377 . S
C3357 C3358 1.379 . S
C3358 H3342 0.931 . S
C3358 C3352 1.383 . S
C3358 C3357 1.379 . S
H3359 C3353 0.959 . S
H3360 C3353 0.961 . S
H3361 C3353 0.960 . S
H3362 C3354 0.930 . S
H3363 C3355 0.929 . S
H3364 C3372 0.929 . S
H3365 C3374 0.930 . S
H3366 C3376 0.930 . S
H3367 C3379 0.929 . S
H3368 C3382 0.930 . S
H3369 C3384 0.960 . S
H3370 C3384 0.960 . S
H3371 C3384 0.960 . S
C3372 H3364 0.929 . S
C3372 C3373 1.377 . S
C3372 C3374 1.384 . S
C3373 C3372 1.377 . S
C3373 C3379 1.390 . S
C3374 H3365 0.930 . S
C3374 C3372 1.384 . S
C3374 C3375 1.372 . S
C3375 C3374 1.372 . S
C3375 C3376 1.400 . S
C3375 C3380 1.490 . S
C3376 H3366 0.930 . S
C3376 C3375 1.400 . S
C3376 C3379 1.386 . S
H3377 C3393 0.930 . S
H3378 C3394 0.931 . S
C3379 H3367 0.929 . S
C3379 C3373 1.390 . S
C3379 C3376 1.386 . S
C3380 C3375 1.490 . S
C3380 C3382 1.395 . S
C3380 C3383 1.403 . S
H3381 C3387 0.930 . S
C3382 H3368 0.930 . S
C3382 C3380 1.395 . S
C3382 C3385 1.403 . S
C3383 C3380 1.403 . S
C3383 C3384 1.524 . S
C3383 C3387 1.400 . S
C3384 H3369 0.960 . S
C3384 H3370 0.960 . S
C3384 H3371 0.960 . S
C3384 C3383 1.524 . S
C3385 C3382 1.403 . S
C3385 C3386 1.392 . S
C3385 C3389 1.495 . S
C3386 C3385 1.392 . S
C3386 C3387 1.385 . S
C3386 C3388 1.478 . S
C3387 H3381 0.930 . S
C3387 C3383 1.400 . S
C3387 C3386 1.385 . S
C3388 C3386 1.478 . S
C3388 C3390 1.381 . S
C3388 C3394 1.383 . S
C3389 C3385 1.495 . S
C3389 H3395 0.959 . S
C3389 H3396 0.961 . S
C3389 H3397 0.960 . S
C3390 C3388 1.381 . S
C3390 C3391 1.394 . S
C3390 H3398 0.930 . S
C3391 C3390 1.394 . S
C3391 C3392 1.383 . S
C3391 H3399 0.929 . S
C3392 C3391 1.383 . S
C3392 C3393 1.377 . S
C3393 H3377 0.930 . S
C3393 C3392 1.377 . S
C3393 C3394 1.379 . S
C3394 H3378 0.931 . S
C3394 C3388 1.383 . S
C3394 C3393 1.379 . S
H3395 C3389 0.959 . S
H3396 C3389 0.961 . S
H3397 C3389 0.960 . S
H3398 C3390 0.930 . S
H3399 C3391 0.929 . S
H3400 C3408 0.929 . S
H3401 C3410 0.930 . S
H3402 C3412 0.930 . S
H3403 C3415 0.929 . S
H3404 C3418 0.930 . S
H3405 C3420 0.960 . S
H3406 C3420 0.960 . S
H3407 C3420 0.960 . S
C3408 H3400 0.929 . S
C3408 C3409 1.377 . S
C3408 C3410 1.384 . S
C3409 C3408 1.377 . S
C3409 C3415 1.390 . S
C3410 H3401 0.930 . S
C3410 C3408 1.384 . S
C3410 C3411 1.372 . S
C3411 C3410 1.372 . S
C3411 C3412 1.400 . S
C3411 C3416 1.490 . S
C3412 H3402 0.930 . S
C3412 C3411 1.400 . S
C3412 C3415 1.386 . S
H3413 C3429 0.930 . S
H3414 C3430 0.931 . S
C3415 H3403 0.929 . S
C3415 C3409 1.390 . S
C3415 C3412 1.386 . S
C3416 C3411 1.490 . S
C3416 C3418 1.395 . S
C3416 C3419 1.403 . S
H3417 C3423 0.930 . S
C3418 H3404 0.930 . S
C3418 C3416 1.395 . S
C3418 C3421 1.403 . S
C3419 C3416 1.403 . S
C3419 C3420 1.524 . S
C3419 C3423 1.400 . S
C3420 H3405 0.960 . S
C3420 H3406 0.960 . S
C3420 H3407 0.960 . S
C3420 C3419 1.524 . S
C3421 C3418 1.403 . S
C3421 C3422 1.392 . S
C3421 C3425 1.495 . S
C3422 C3421 1.392 . S
C3422 C3423 1.385 . S
C3422 C3424 1.478 . S
C3423 H3417 0.930 . S
C3423 C3419 1.400 . S
C3423 C3422 1.385 . S
C3424 C3422 1.478 . S
C3424 C3426 1.381 . S
C3424 C3430 1.383 . S
C3425 C3421 1.495 . S
C3425 H3431 0.959 . S
C3425 H3432 0.961 . S
C3425 H3433 0.960 . S
C3426 C3424 1.381 . S
C3426 C3427 1.394 . S
C3426 H3434 0.930 . S
C3427 C3426 1.394 . S
C3427 C3428 1.383 . S
C3427 H3435 0.929 . S
C3428 C3427 1.383 . S
C3428 C3429 1.377 . S
C3429 H3413 0.930 . S
C3429 C3428 1.377 . S
C3429 C3430 1.379 . S
C3430 H3414 0.931 . S
C3430 C3424 1.383 . S
C3430 C3429 1.379 . S
H3431 C3425 0.959 . S
H3432 C3425 0.961 . S
H3433 C3425 0.960 . S
H3434 C3426 0.930 . S
H3435 C3427 0.929 . S
H3436 C3444 0.929 . S
H3437 C3446 0.930 . S
H3438 C3448 0.930 . S
H3439 C3451 0.929 . S
H3440 C3454 0.930 . S
H3441 C3456 0.960 . S
H3442 C3456 0.960 . S
H3443 C3456 0.960 . S
C3444 H3436 0.929 . S
C3444 C3445 1.377 . S
C3444 C3446 1.384 . S
C3445 C3444 1.377 . S
C3445 C3451 1.390 . S
C3446 H3437 0.930 . S
C3446 C3444 1.384 . S
C3446 C3447 1.372 . S
C3447 C3446 1.372 . S
C3447 C3448 1.400 . S
C3447 C3452 1.490 . S
C3448 H3438 0.930 . S
C3448 C3447 1.400 . S
C3448 C3451 1.386 . S
H3449 C3465 0.930 . S
H3450 C3466 0.931 . S
C3451 H3439 0.929 . S
C3451 C3445 1.390 . S
C3451 C3448 1.386 . S
C3452 C3447 1.490 . S
C3452 C3454 1.395 . S
C3452 C3455 1.403 . S
H3453 C3459 0.930 . S
C3454 H3440 0.930 . S
C3454 C3452 1.395 . S
C3454 C3457 1.403 . S
C3455 C3452 1.403 . S
C3455 C3456 1.524 . S
C3455 C3459 1.400 1_554 S
C3456 H3441 0.960 . S
C3456 H3442 0.960 . S
C3456 H3443 0.960 . S
C3456 C3455 1.524 . S
C3457 C3454 1.403 . S
C3457 C3458 1.392 1_554 S
C3457 C3461 1.495 . S
C3458 C3457 1.392 1_556 S
C3458 C3459 1.385 . S
C3458 C3460 1.478 . S
C3459 H3453 0.930 . S
C3459 C3455 1.400 1_556 S
C3459 C3458 1.385 . S
C3460 C3458 1.478 . S
C3460 C3462 1.381 . S
C3460 C3466 1.383 . S
C3461 C3457 1.495 . S
C3461 H3467 0.959 . S
C3461 H3468 0.961 . S
C3461 H3469 0.960 1_554 S
C3462 C3460 1.381 . S
C3462 C3463 1.394 . S
C3462 H3470 0.930 . S
C3463 C3462 1.394 . S
C3463 C3464 1.383 . S
C3463 H3471 0.929 . S
C3464 C3463 1.383 . S
C3464 C3465 1.377 . S
C3465 H3449 0.930 . S
C3465 C3464 1.377 . S
C3465 C3466 1.379 . S
C3466 H3450 0.931 . S
C3466 C3460 1.383 . S
C3466 C3465 1.379 . S
H3467 C3461 0.959 . S
H3468 C3461 0.961 . S
H3469 C3461 0.960 1_556 S
H3470 C3462 0.930 . S
H3471 C3463 0.929 . S
H3472 C3480 0.929 . S
H3473 C3482 0.930 . S
H3474 C3484 0.930 . S
H3475 C3487 0.929 . S
H3476 C3490 0.930 . S
H3477 C3492 0.960 . S
H3478 C3492 0.960 . S
H3479 C3492 0.960 . S
C3480 H3472 0.929 . S
C3480 C3481 1.377 . S
C3480 C3482 1.384 . S
C3481 C3480 1.377 . S
C3481 C3487 1.390 . S
C3482 H3473 0.930 . S
C3482 C3480 1.384 . S
C3482 C3483 1.372 . S
C3483 C3482 1.372 . S
C3483 C3484 1.400 . S
C3483 C3488 1.490 . S
C3484 H3474 0.930 . S
C3484 C3483 1.400 . S
C3484 C3487 1.386 . S
H3485 C3501 0.930 . S
H3486 C3502 0.931 . S
C3487 H3475 0.929 . S
C3487 C3481 1.390 . S
C3487 C3484 1.386 . S
C3488 C3483 1.490 . S
C3488 C3490 1.395 . S
C3488 C3491 1.403 . S
H3489 C3495 0.930 . S
C3490 H3476 0.930 . S
C3490 C3488 1.395 . S
C3490 C3493 1.403 . S
C3491 C3488 1.403 . S
C3491 C3492 1.524 . S
C3491 C3495 1.400 . S
C3492 H3477 0.960 . S
C3492 H3478 0.960 . S
C3492 H3479 0.960 . S
C3492 C3491 1.524 . S
C3493 C3490 1.403 . S
C3493 C3494 1.392 . S
C3493 C3497 1.495 . S
C3494 C3493 1.392 . S
C3494 C3495 1.385 . S
C3494 C3496 1.478 . S
C3495 H3489 0.930 . S
C3495 C3491 1.400 . S
C3495 C3494 1.385 . S
C3496 C3494 1.478 . S
C3496 C3498 1.381 . S
C3496 C3502 1.383 . S
C3497 C3493 1.495 . S
C3497 H3503 0.959 . S
C3497 H3504 0.961 . S
C3497 H3505 0.960 . S
C3498 C3496 1.381 . S
C3498 C3499 1.394 . S
C3498 H3506 0.930 . S
C3499 C3498 1.394 . S
C3499 C3500 1.383 . S
C3499 H3507 0.929 . S
C3500 C3499 1.383 . S
C3500 C3501 1.377 . S
C3501 H3485 0.930 . S
C3501 C3500 1.377 . S
C3501 C3502 1.379 . S
C3502 H3486 0.931 . S
C3502 C3496 1.383 . S
C3502 C3501 1.379 . S
H3503 C3497 0.959 . S
H3504 C3497 0.961 . S
H3505 C3497 0.960 . S
H3506 C3498 0.930 . S
H3507 C3499 0.929 . S
H3508 C3516 0.929 . S
H3509 C3518 0.930 . S
H3510 C3520 0.930 . S
H3511 C3523 0.929 . S
H3512 C3526 0.930 . S
H3513 C3528 0.960 . S
H3514 C3528 0.960 . S
H3515 C3528 0.960 . S
C3516 H3508 0.929 . S
C3516 C3517 1.377 . S
C3516 C3518 1.384 . S
C3517 C3516 1.377 . S
C3517 C3523 1.390 . S
C3518 H3509 0.930 . S
C3518 C3516 1.384 . S
C3518 C3519 1.372 . S
C3519 C3518 1.372 . S
C3519 C3520 1.400 . S
C3519 C3524 1.490 . S
C3520 H3510 0.930 . S
C3520 C3519 1.400 . S
C3520 C3523 1.386 . S
H3521 C3537 0.930 . S
H3522 C3538 0.931 . S
C3523 H3511 0.929 . S
C3523 C3517 1.390 . S
C3523 C3520 1.386 . S
C3524 C3519 1.490 . S
C3524 C3526 1.395 . S
C3524 C3527 1.403 . S
H3525 C3531 0.930 . S
C3526 H3512 0.930 . S
C3526 C3524 1.395 . S
C3526 C3529 1.403 . S
C3527 C3524 1.403 . S
C3527 C3528 1.524 . S
C3527 C3531 1.400 . S
C3528 H3513 0.960 . S
C3528 H3514 0.960 . S
C3528 H3515 0.960 . S
C3528 C3527 1.524 . S
C3529 C3526 1.403 . S
C3529 C3530 1.392 . S
C3529 C3533 1.495 . S
C3530 C3529 1.392 . S
C3530 C3531 1.385 . S
C3530 C3532 1.478 . S
C3531 H3525 0.930 . S
C3531 C3527 1.400 . S
C3531 C3530 1.385 . S
C3532 C3530 1.478 . S
C3532 C3534 1.381 . S
C3532 C3538 1.383 . S
C3533 C3529 1.495 . S
C3533 H3539 0.959 . S
C3533 H3540 0.961 . S
C3533 H3541 0.960 . S
C3534 C3532 1.381 . S
C3534 C3535 1.394 . S
C3534 H3542 0.930 . S
C3535 C3534 1.394 . S
C3535 C3536 1.383 . S
C3535 H3543 0.929 . S
C3536 C3535 1.383 . S
C3536 C3537 1.377 . S
C3537 H3521 0.930 . S
C3537 C3536 1.377 . S
C3537 C3538 1.379 . S
C3538 H3522 0.931 . S
C3538 C3532 1.383 . S
C3538 C3537 1.379 . S
H3539 C3533 0.959 . S
H3540 C3533 0.961 . S
H3541 C3533 0.960 . S
H3542 C3534 0.930 . S
H3543 C3535 0.929 . S
H3544 C3552 0.929 . S
H3545 C3554 0.930 . S
H3546 C3556 0.930 . S
H3547 C3559 0.929 . S
H3548 C3562 0.930 . S
H3549 C3564 0.960 . S
H3550 C3564 0.960 . S
H3551 C3564 0.960 . S
C3552 H3544 0.929 . S
C3552 C3553 1.377 . S
C3552 C3554 1.384 . S
C3553 C3552 1.377 . S
C3553 C3559 1.390 . S
C3554 H3545 0.930 . S
C3554 C3552 1.384 . S
C3554 C3555 1.372 . S
C3555 C3554 1.372 . S
C3555 C3556 1.400 . S
C3555 C3560 1.490 . S
C3556 H3546 0.930 . S
C3556 C3555 1.400 . S
C3556 C3559 1.386 . S
H3557 C3573 0.930 . S
H3558 C3574 0.931 . S
C3559 H3547 0.929 . S
C3559 C3553 1.390 . S
C3559 C3556 1.386 . S
C3560 C3555 1.490 . S
C3560 C3562 1.395 . S
C3560 C3563 1.403 . S
H3561 C3567 0.930 . S
C3562 H3548 0.930 . S
C3562 C3560 1.395 . S
C3562 C3565 1.403 . S
C3563 C3560 1.403 . S
C3563 C3564 1.524 . S
C3563 C3567 1.400 . S
C3564 H3549 0.960 . S
C3564 H3550 0.960 . S
C3564 H3551 0.960 . S
C3564 C3563 1.524 . S
C3565 C3562 1.403 . S
C3565 C3566 1.392 . S
C3565 C3569 1.495 . S
C3566 C3565 1.392 . S
C3566 C3567 1.385 . S
C3566 C3568 1.478 . S
C3567 H3561 0.930 . S
C3567 C3563 1.400 . S
C3567 C3566 1.385 . S
C3568 C3566 1.478 . S
C3568 C3570 1.381 . S
C3568 C3574 1.383 . S
C3569 C3565 1.495 . S
C3569 H3575 0.959 . S
C3569 H3576 0.961 . S
C3569 H3577 0.960 . S
C3570 C3568 1.381 . S
C3570 C3571 1.394 . S
C3570 H3578 0.930 . S
C3571 C3570 1.394 . S
C3571 C3572 1.383 . S
C3571 H3579 0.929 . S
C3572 C3571 1.383 . S
C3572 C3573 1.377 . S
C3573 H3557 0.930 . S
C3573 C3572 1.377 . S
C3573 C3574 1.379 . S
C3574 H3558 0.931 . S
C3574 C3568 1.383 . S
C3574 C3573 1.379 . S
H3575 C3569 0.959 . S
H3576 C3569 0.961 . S
H3577 C3569 0.960 . S
H3578 C3570 0.930 . S
H3579 C3571 0.929 . S
H3580 C3588 0.929 . S
H3581 C3590 0.930 . S
H3582 C3592 0.930 . S
H3583 C3595 0.929 . S
H3584 C3598 0.930 . S
H3585 C3600 0.960 . S
H3586 C3600 0.960 . S
H3587 C3600 0.960 . S
C3588 H3580 0.929 . S
C3588 C3589 1.377 . S
C3588 C3590 1.384 . S
C3589 C3588 1.377 . S
C3589 C3595 1.390 . S
C3590 H3581 0.930 . S
C3590 C3588 1.384 . S
C3590 C3591 1.372 . S
C3591 C3590 1.372 . S
C3591 C3592 1.400 . S
C3591 C3596 1.490 . S
C3592 H3582 0.930 . S
C3592 C3591 1.400 . S
C3592 C3595 1.386 . S
H3593 C3609 0.930 . S
H3594 C3610 0.931 . S
C3595 H3583 0.929 . S
C3595 C3589 1.390 . S
C3595 C3592 1.386 . S
C3596 C3591 1.490 . S
C3596 C3598 1.395 . S
C3596 C3599 1.403 . S
H3597 C3603 0.930 . S
C3598 H3584 0.930 . S
C3598 C3596 1.395 . S
C3598 C3601 1.403 . S
C3599 C3596 1.403 . S
C3599 C3600 1.524 . S
C3599 C3603 1.400 . S
C3600 H3585 0.960 . S
C3600 H3586 0.960 . S
C3600 H3587 0.960 . S
C3600 C3599 1.524 . S
C3601 C3598 1.403 . S
C3601 C3602 1.392 . S
C3601 C3605 1.495 . S
C3602 C3601 1.392 . S
C3602 C3603 1.385 . S
C3602 C3604 1.478 . S
C3603 H3597 0.930 . S
C3603 C3599 1.400 . S
C3603 C3602 1.385 . S
C3604 C3602 1.478 . S
C3604 C3606 1.381 . S
C3604 C3610 1.383 . S
C3605 C3601 1.495 . S
C3605 H3611 0.959 . S
C3605 H3612 0.961 . S
C3605 H3613 0.960 . S
C3606 C3604 1.381 . S
C3606 C3607 1.394 . S
C3606 H3614 0.930 . S
C3607 C3606 1.394 . S
C3607 C3608 1.383 . S
C3607 H3615 0.929 . S
C3608 C3607 1.383 . S
C3608 C3609 1.377 . S
C3609 H3593 0.930 . S
C3609 C3608 1.377 . S
C3609 C3610 1.379 . S
C3610 H3594 0.931 . S
C3610 C3604 1.383 . S
C3610 C3609 1.379 . S
H3611 C3605 0.959 . S
H3612 C3605 0.961 . S
H3613 C3605 0.960 . S
H3614 C3606 0.930 . S
H3615 C3607 0.929 . S
H3616 C3624 0.929 . S
H3617 C3626 0.930 . S
H3618 C3628 0.930 . S
H3619 C3631 0.929 . S
H3620 C3634 0.930 . S
H3621 C3636 0.960 . S
H3622 C3636 0.960 . S
H3623 C3636 0.960 . S
C3624 H3616 0.929 . S
C3624 C3625 1.377 . S
C3624 C3626 1.384 . S
C3625 C3624 1.377 . S
C3625 C3631 1.390 . S
C3626 H3617 0.930 . S
C3626 C3624 1.384 . S
C3626 C3627 1.372 . S
C3627 C3626 1.372 . S
C3627 C3628 1.400 . S
C3627 C3632 1.490 . S
C3628 H3618 0.930 . S
C3628 C3627 1.400 . S
C3628 C3631 1.386 . S
H3629 C3645 0.930 . S
H3630 C3646 0.931 . S
C3631 H3619 0.929 . S
C3631 C3625 1.390 . S
C3631 C3628 1.386 . S
C3632 C3627 1.490 . S
C3632 C3634 1.395 . S
C3632 C3635 1.403 . S
H3633 C3639 0.930 . S
C3634 H3620 0.930 . S
C3634 C3632 1.395 . S
C3634 C3637 1.403 . S
C3635 C3632 1.403 . S
C3635 C3636 1.524 . S
C3635 C3639 1.400 . S
C3636 H3621 0.960 . S
C3636 H3622 0.960 . S
C3636 H3623 0.960 . S
C3636 C3635 1.524 . S
C3637 C3634 1.403 . S
C3637 C3638 1.392 . S
C3637 C3641 1.495 . S
C3638 C3637 1.392 . S
C3638 C3639 1.385 . S
C3638 C3640 1.478 . S
C3639 H3633 0.930 . S
C3639 C3635 1.400 . S
C3639 C3638 1.385 . S
C3640 C3638 1.478 . S
C3640 C3642 1.381 . S
C3640 C3646 1.383 . S
C3641 C3637 1.495 . S
C3641 H3647 0.959 . S
C3641 H3648 0.961 . S
C3641 H3649 0.960 . S
C3642 C3640 1.381 . S
C3642 C3643 1.394 . S
C3642 H3650 0.930 . S
C3643 C3642 1.394 . S
C3643 C3644 1.383 . S
C3643 H3651 0.929 . S
C3644 C3643 1.383 . S
C3644 C3645 1.377 . S
C3645 H3629 0.930 . S
C3645 C3644 1.377 . S
C3645 C3646 1.379 . S
C3646 H3630 0.931 . S
C3646 C3640 1.383 . S
C3646 C3645 1.379 . S
H3647 C3641 0.959 . S
H3648 C3641 0.961 . S
H3649 C3641 0.960 . S
H3650 C3642 0.930 . S
H3651 C3643 0.929 . S
H3652 C3660 0.929 . S
H3653 C3662 0.930 . S
H3654 C3664 0.930 . S
H3655 C3667 0.929 . S
H3656 C3670 0.930 . S
H3657 C3672 0.960 . S
H3658 C3672 0.960 . S
H3659 C3672 0.960 . S
C3660 H3652 0.929 . S
C3660 C3661 1.377 . S
C3660 C3662 1.384 . S
C3661 C3660 1.377 . S
C3661 C3667 1.390 . S
C3662 H3653 0.930 . S
C3662 C3660 1.384 . S
C3662 C3663 1.372 . S
C3663 C3662 1.372 . S
C3663 C3664 1.400 . S
C3663 C3668 1.490 . S
C3664 H3654 0.930 . S
C3664 C3663 1.400 . S
C3664 C3667 1.386 . S
H3665 C3681 0.930 . S
H3666 C3682 0.931 . S
C3667 H3655 0.929 . S
C3667 C3661 1.390 . S
C3667 C3664 1.386 . S
C3668 C3663 1.490 . S
C3668 C3670 1.395 . S
C3668 C3671 1.403 . S
H3669 C3675 0.930 . S
C3670 H3656 0.930 . S
C3670 C3668 1.395 . S
C3670 C3673 1.403 . S
C3671 C3668 1.403 . S
C3671 C3672 1.524 . S
C3671 C3675 1.400 . S
C3672 H3657 0.960 . S
C3672 H3658 0.960 . S
C3672 H3659 0.960 . S
C3672 C3671 1.524 . S
C3673 C3670 1.403 . S
C3673 C3674 1.392 . S
C3673 C3677 1.495 . S
C3674 C3673 1.392 . S
C3674 C3675 1.385 . S
C3674 C3676 1.478 . S
C3675 H3669 0.930 . S
C3675 C3671 1.400 . S
C3675 C3674 1.385 . S
C3676 C3674 1.478 . S
C3676 C3678 1.381 . S
C3676 C3682 1.383 . S
C3677 C3673 1.495 . S
C3677 H3683 0.959 . S
C3677 H3684 0.961 . S
C3677 H3685 0.960 . S
C3678 C3676 1.381 . S
C3678 C3679 1.394 . S
C3678 H3686 0.930 . S
C3679 C3678 1.394 . S
C3679 C3680 1.383 . S
C3679 H3687 0.929 . S
C3680 C3679 1.383 . S
C3680 C3681 1.377 . S
C3681 H3665 0.930 . S
C3681 C3680 1.377 . S
C3681 C3682 1.379 . S
C3682 H3666 0.931 . S
C3682 C3676 1.383 . S
C3682 C3681 1.379 . S
H3683 C3677 0.959 . S
H3684 C3677 0.961 . S
H3685 C3677 0.960 . S
H3686 C3678 0.930 . S
H3687 C3679 0.929 . S
H3688 C3696 0.929 . S
H3689 C3698 0.930 . S
H3690 C3700 0.930 . S
H3691 C3703 0.929 . S
H3692 C3706 0.930 . S
H3693 C3708 0.960 . S
H3694 C3708 0.960 . S
H3695 C3708 0.960 . S
C3696 H3688 0.929 . S
C3696 C3697 1.377 . S
C3696 C3698 1.384 . S
C3697 C3696 1.377 . S
C3697 C3703 1.390 . S
C3698 H3689 0.930 . S
C3698 C3696 1.384 . S
C3698 C3699 1.372 . S
C3699 C3698 1.372 . S
C3699 C3700 1.400 . S
C3699 C3704 1.490 . S
C3700 H3690 0.930 . S
C3700 C3699 1.400 . S
C3700 C3703 1.386 . S
H3701 C3717 0.930 . S
H3702 C3718 0.931 . S
C3703 H3691 0.929 . S
C3703 C3697 1.390 . S
C3703 C3700 1.386 . S
C3704 C3699 1.490 . S
C3704 C3706 1.395 . S
C3704 C3707 1.403 . S
H3705 C3711 0.930 . S
C3706 H3692 0.930 . S
C3706 C3704 1.395 . S
C3706 C3709 1.403 . S
C3707 C3704 1.403 . S
C3707 C3708 1.524 . S
C3707 C3711 1.400 . S
C3708 H3693 0.960 . S
C3708 H3694 0.960 . S
C3708 H3695 0.960 . S
C3708 C3707 1.524 . S
C3709 C3706 1.403 . S
C3709 C3710 1.392 . S
C3709 C3713 1.495 . S
C3710 C3709 1.392 . S
C3710 C3711 1.385 . S
C3710 C3712 1.478 . S
C3711 H3705 0.930 . S
C3711 C3707 1.400 . S
C3711 C3710 1.385 . S
C3712 C3710 1.478 . S
C3712 C3714 1.381 . S
C3712 C3718 1.383 . S
C3713 C3709 1.495 . S
C3713 H3719 0.959 . S
C3713 H3720 0.961 . S
C3713 H3721 0.960 . S
C3714 C3712 1.381 . S
C3714 C3715 1.394 . S
C3714 H3722 0.930 . S
C3715 C3714 1.394 . S
C3715 C3716 1.383 . S
C3715 H3723 0.929 . S
C3716 C3715 1.383 . S
C3716 C3717 1.377 . S
C3717 H3701 0.930 . S
C3717 C3716 1.377 . S
C3717 C3718 1.379 . S
C3718 H3702 0.931 . S
C3718 C3712 1.383 . S
C3718 C3717 1.379 . S
H3719 C3713 0.959 . S
H3720 C3713 0.961 . S
H3721 C3713 0.960 . S
H3722 C3714 0.930 . S
H3723 C3715 0.929 . S
H3724 C3732 0.929 . S
H3725 C3734 0.930 . S
H3726 C3736 0.930 . S
H3727 C3739 0.929 . S
H3728 C3742 0.930 . S
H3729 C3744 0.960 . S
H3730 C3744 0.960 . S
H3731 C3744 0.960 . S
C3732 H3724 0.929 . S
C3732 C3733 1.377 . S
C3732 C3734 1.384 . S
C3733 C3732 1.377 . S
C3733 C3739 1.390 . S
C3734 H3725 0.930 . S
C3734 C3732 1.384 . S
C3734 C3735 1.372 . S
C3735 C3734 1.372 . S
C3735 C3736 1.400 . S
C3735 C3740 1.490 . S
C3736 H3726 0.930 . S
C3736 C3735 1.400 . S
C3736 C3739 1.386 . S
H3737 C3753 0.930 . S
H3738 C3754 0.931 . S
C3739 H3727 0.929 . S
C3739 C3733 1.390 . S
C3739 C3736 1.386 . S
C3740 C3735 1.490 . S
C3740 C3742 1.395 . S
C3740 C3743 1.403 . S
H3741 C3747 0.930 . S
C3742 H3728 0.930 . S
C3742 C3740 1.395 . S
C3742 C3745 1.403 . S
C3743 C3740 1.403 . S
C3743 C3744 1.524 . S
C3743 C3747 1.400 . S
C3744 H3729 0.960 . S
C3744 H3730 0.960 . S
C3744 H3731 0.960 . S
C3744 C3743 1.524 . S
C3745 C3742 1.403 . S
C3745 C3746 1.392 . S
C3745 C3749 1.495 . S
C3746 C3745 1.392 . S
C3746 C3747 1.385 . S
C3746 C3748 1.478 . S
C3747 H3741 0.930 . S
C3747 C3743 1.400 . S
C3747 C3746 1.385 . S
C3748 C3746 1.478 . S
C3748 C3750 1.381 . S
C3748 C3754 1.383 . S
C3749 C3745 1.495 . S
C3749 H3755 0.959 . S
C3749 H3756 0.961 . S
C3749 H3757 0.960 . S
C3750 C3748 1.381 . S
C3750 C3751 1.394 . S
C3750 H3758 0.930 . S
C3751 C3750 1.394 . S
C3751 C3752 1.383 . S
C3751 H3759 0.929 . S
C3752 C3751 1.383 . S
C3752 C3753 1.377 . S
C3753 H3737 0.930 . S
C3753 C3752 1.377 . S
C3753 C3754 1.379 . S
C3754 H3738 0.931 . S
C3754 C3748 1.383 . S
C3754 C3753 1.379 . S
H3755 C3749 0.959 . S
H3756 C3749 0.961 . S
H3757 C3749 0.960 . S
H3758 C3750 0.930 . S
H3759 C3751 0.929 . S
H3760 C3768 0.929 . S
H3761 C3770 0.930 . S
H3762 C3772 0.930 . S
H3763 C3775 0.929 . S
H3764 C3778 0.930 . S
H3765 C3780 0.960 . S
H3766 C3780 0.960 . S
H3767 C3780 0.960 . S
C3768 H3760 0.929 . S
C3768 C3769 1.377 . S
C3768 C3770 1.384 . S
C3769 C3768 1.377 . S
C3769 C3775 1.390 . S
C3770 H3761 0.930 . S
C3770 C3768 1.384 . S
C3770 C3771 1.372 . S
C3771 C3770 1.372 . S
C3771 C3772 1.400 . S
C3771 C3776 1.490 . S
C3772 H3762 0.930 . S
C3772 C3771 1.400 . S
C3772 C3775 1.386 . S
H3773 C3789 0.930 . S
H3774 C3790 0.931 . S
C3775 H3763 0.929 . S
C3775 C3769 1.390 . S
C3775 C3772 1.386 . S
C3776 C3771 1.490 . S
C3776 C3778 1.395 . S
C3776 C3779 1.403 . S
H3777 C3783 0.930 . S
C3778 H3764 0.930 . S
C3778 C3776 1.395 . S
C3778 C3781 1.403 . S
C3779 C3776 1.403 . S
C3779 C3780 1.524 . S
C3779 C3783 1.400 . S
C3780 H3765 0.960 . S
C3780 H3766 0.960 . S
C3780 H3767 0.960 . S
C3780 C3779 1.524 . S
C3781 C3778 1.403 . S
C3781 C3782 1.392 . S
C3781 C3785 1.495 . S
C3782 C3781 1.392 . S
C3782 C3783 1.385 . S
C3782 C3784 1.478 . S
C3783 H3777 0.930 . S
C3783 C3779 1.400 . S
C3783 C3782 1.385 . S
C3784 C3782 1.478 . S
C3784 C3786 1.381 . S
C3784 C3790 1.383 . S
C3785 C3781 1.495 . S
C3785 H3791 0.959 . S
C3785 H3792 0.961 . S
C3785 H3793 0.960 . S
C3786 C3784 1.381 . S
C3786 C3787 1.394 . S
C3786 H3794 0.930 . S
C3787 C3786 1.394 . S
C3787 C3788 1.383 . S
C3787 H3795 0.929 . S
C3788 C3787 1.383 . S
C3788 C3789 1.377 . S
C3789 H3773 0.930 . S
C3789 C3788 1.377 . S
C3789 C3790 1.379 . S
C3790 H3774 0.931 . S
C3790 C3784 1.383 . S
C3790 C3789 1.379 . S
H3791 C3785 0.959 . S
H3792 C3785 0.961 . S
H3793 C3785 0.960 . S
H3794 C3786 0.930 . S
H3795 C3787 0.929 . S
H3796 C3804 0.929 . S
H3797 C3806 0.930 . S
H3798 C3808 0.930 . S
H3799 C3811 0.929 . S
H3800 C3814 0.930 . S
H3801 C3816 0.960 . S
H3802 C3816 0.960 . S
H3803 C3816 0.960 . S
C3804 H3796 0.929 . S
C3804 C3805 1.377 . S
C3804 C3806 1.384 . S
C3805 C3804 1.377 . S
C3805 C3811 1.390 . S
C3806 H3797 0.930 . S
C3806 C3804 1.384 . S
C3806 C3807 1.372 . S
C3807 C3806 1.372 . S
C3807 C3808 1.400 . S
C3807 C3812 1.490 . S
C3808 H3798 0.930 . S
C3808 C3807 1.400 . S
C3808 C3811 1.386 . S
H3809 C3825 0.930 . S
H3810 C3826 0.931 . S
C3811 H3799 0.929 . S
C3811 C3805 1.390 . S
C3811 C3808 1.386 . S
C3812 C3807 1.490 . S
C3812 C3814 1.395 . S
C3812 C3815 1.403 . S
H3813 C3819 0.930 . S
C3814 H3800 0.930 . S
C3814 C3812 1.395 . S
C3814 C3817 1.403 . S
C3815 C3812 1.403 . S
C3815 C3816 1.524 . S
C3815 C3819 1.400 . S
C3816 H3801 0.960 . S
C3816 H3802 0.960 . S
C3816 H3803 0.960 . S
C3816 C3815 1.524 . S
C3817 C3814 1.403 . S
C3817 C3818 1.392 . S
C3817 C3821 1.495 . S
C3818 C3817 1.392 . S
C3818 C3819 1.385 . S
C3818 C3820 1.478 . S
C3819 H3813 0.930 . S
C3819 C3815 1.400 . S
C3819 C3818 1.385 . S
C3820 C3818 1.478 . S
C3820 C3822 1.381 . S
C3820 C3826 1.383 . S
C3821 C3817 1.495 . S
C3821 H3827 0.959 . S
C3821 H3828 0.961 . S
C3821 H3829 0.960 . S
C3822 C3820 1.381 . S
C3822 C3823 1.394 . S
C3822 H3830 0.930 . S
C3823 C3822 1.394 . S
C3823 C3824 1.383 . S
C3823 H3831 0.929 . S
C3824 C3823 1.383 . S
C3824 C3825 1.377 . S
C3825 H3809 0.930 . S
C3825 C3824 1.377 . S
C3825 C3826 1.379 . S
C3826 H3810 0.931 . S
C3826 C3820 1.383 . S
C3826 C3825 1.379 . S
H3827 C3821 0.959 . S
H3828 C3821 0.961 . S
H3829 C3821 0.960 . S
H3830 C3822 0.930 . S
H3831 C3823 0.929 . S
H3832 C3840 0.929 . S
H3833 C3842 0.930 . S
H3834 C3844 0.930 . S
H3835 C3847 0.929 . S
H3836 C3850 0.930 . S
H3837 C3852 0.960 . S
H3838 C3852 0.960 . S
H3839 C3852 0.960 . S
C3840 H3832 0.929 . S
C3840 C3841 1.377 . S
C3840 C3842 1.384 . S
C3841 C3840 1.377 . S
C3841 C3847 1.390 . S
C3842 H3833 0.930 . S
C3842 C3840 1.384 . S
C3842 C3843 1.372 . S
C3843 C3842 1.372 . S
C3843 C3844 1.400 . S
C3843 C3848 1.490 . S
C3844 H3834 0.930 . S
C3844 C3843 1.400 . S
C3844 C3847 1.386 . S
H3845 C3861 0.930 . S
H3846 C3862 0.931 . S
C3847 H3835 0.929 . S
C3847 C3841 1.390 . S
C3847 C3844 1.386 . S
C3848 C3843 1.490 . S
C3848 C3850 1.395 . S
C3848 C3851 1.403 . S
H3849 C3855 0.930 . S
C3850 H3836 0.930 . S
C3850 C3848 1.395 . S
C3850 C3853 1.403 . S
C3851 C3848 1.403 . S
C3851 C3852 1.524 . S
C3851 C3855 1.400 . S
C3852 H3837 0.960 . S
C3852 H3838 0.960 . S
C3852 H3839 0.960 . S
C3852 C3851 1.524 . S
C3853 C3850 1.403 . S
C3853 C3854 1.392 . S
C3853 C3857 1.495 . S
C3854 C3853 1.392 . S
C3854 C3855 1.385 . S
C3854 C3856 1.478 . S
C3855 H3849 0.930 . S
C3855 C3851 1.400 . S
C3855 C3854 1.385 . S
C3856 C3854 1.478 . S
C3856 C3858 1.381 . S
C3856 C3862 1.383 . S
C3857 C3853 1.495 . S
C3857 H3863 0.959 . S
C3857 H3864 0.961 . S
C3857 H3865 0.960 . S
C3858 C3856 1.381 . S
C3858 C3859 1.394 . S
C3858 H3866 0.930 . S
C3859 C3858 1.394 . S
C3859 C3860 1.383 . S
C3859 H3867 0.929 . S
C3860 C3859 1.383 . S
C3860 C3861 1.377 . S
C3861 H3845 0.930 . S
C3861 C3860 1.377 . S
C3861 C3862 1.379 . S
C3862 H3846 0.931 . S
C3862 C3856 1.383 . S
C3862 C3861 1.379 . S
H3863 C3857 0.959 . S
H3864 C3857 0.961 . S
H3865 C3857 0.960 . S
H3866 C3858 0.930 . S
H3867 C3859 0.929 . S
H3868 C3876 0.929 . S
H3869 C3878 0.930 . S
H3870 C3880 0.930 . S
H3871 C3883 0.929 . S
H3872 C3886 0.930 . S
H3873 C3888 0.960 . S
H3874 C3888 0.960 . S
H3875 C3888 0.960 . S
C3876 H3868 0.929 . S
C3876 C3877 1.377 . S
C3876 C3878 1.384 . S
C3877 C3876 1.377 . S
C3877 C3883 1.390 . S
C3878 H3869 0.930 . S
C3878 C3876 1.384 . S
C3878 C3879 1.372 . S
C3879 C3878 1.372 . S
C3879 C3880 1.400 . S
C3879 C3884 1.490 . S
C3880 H3870 0.930 . S
C3880 C3879 1.400 . S
C3880 C3883 1.386 . S
H3881 C3897 0.930 . S
H3882 C3898 0.931 . S
C3883 H3871 0.929 . S
C3883 C3877 1.390 . S
C3883 C3880 1.386 . S
C3884 C3879 1.490 . S
C3884 C3886 1.395 . S
C3884 C3887 1.403 . S
H3885 C3891 0.930 . S
C3886 H3872 0.930 . S
C3886 C3884 1.395 . S
C3886 C3889 1.403 . S
C3887 C3884 1.403 . S
C3887 C3888 1.524 . S
C3887 C3891 1.400 . S
C3888 H3873 0.960 . S
C3888 H3874 0.960 . S
C3888 H3875 0.960 . S
C3888 C3887 1.524 . S
C3889 C3886 1.403 . S
C3889 C3890 1.392 . S
C3889 C3893 1.495 . S
C3890 C3889 1.392 . S
C3890 C3891 1.385 . S
C3890 C3892 1.478 . S
C3891 H3885 0.930 . S
C3891 C3887 1.400 . S
C3891 C3890 1.385 . S
C3892 C3890 1.478 . S
C3892 C3894 1.381 . S
C3892 C3898 1.383 . S
C3893 C3889 1.495 . S
C3893 H3899 0.959 . S
C3893 H3900 0.961 . S
C3893 H3901 0.960 . S
C3894 C3892 1.381 . S
C3894 C3895 1.394 . S
C3894 H3902 0.930 . S
C3895 C3894 1.394 . S
C3895 C3896 1.383 . S
C3895 H3903 0.929 . S
C3896 C3895 1.383 . S
C3896 C3897 1.377 . S
C3897 H3881 0.930 . S
C3897 C3896 1.377 . S
C3897 C3898 1.379 . S
C3898 H3882 0.931 . S
C3898 C3892 1.383 . S
C3898 C3897 1.379 . S
H3899 C3893 0.959 . S
H3900 C3893 0.961 . S
H3901 C3893 0.960 . S
H3902 C3894 0.930 . S
H3903 C3895 0.929 . S
H3904 C3912 0.929 1_565 S
H3905 C3914 0.930 . S
H3906 C3916 0.930 . S
H3907 C3919 0.929 . S
H3908 C3922 0.930 . S
H3909 C3924 0.960 . S
H3910 C3924 0.960 . S
H3911 C3924 0.960 . S
C3912 H3904 0.929 1_545 S
C3912 C3913 1.377 . S
C3912 C3914 1.384 . S
C3913 C3912 1.377 . S
C3913 C3919 1.390 . S
C3914 H3905 0.930 . S
C3914 C3912 1.384 . S
C3914 C3915 1.372 . S
C3915 C3914 1.372 . S
C3915 C3916 1.400 . S
C3915 C3920 1.490 . S
C3916 H3906 0.930 . S
C3916 C3915 1.400 . S
C3916 C3919 1.386 . S
H3917 C3933 0.930 . S
H3918 C3934 0.931 . S
C3919 H3907 0.929 . S
C3919 C3913 1.390 . S
C3919 C3916 1.386 . S
C3920 C3915 1.490 . S
C3920 C3922 1.395 . S
C3920 C3923 1.403 . S
H3921 C3927 0.930 . S
C3922 H3908 0.930 . S
C3922 C3920 1.395 . S
C3922 C3925 1.403 . S
C3923 C3920 1.403 . S
C3923 C3924 1.524 . S
C3923 C3927 1.400 . S
C3924 H3909 0.960 . S
C3924 H3910 0.960 . S
C3924 H3911 0.960 . S
C3924 C3923 1.524 . S
C3925 C3922 1.403 . S
C3925 C3926 1.392 . S
C3925 C3929 1.495 . S
C3926 C3925 1.392 . S
C3926 C3927 1.385 . S
C3926 C3928 1.478 . S
C3927 H3921 0.930 . S
C3927 C3923 1.400 . S
C3927 C3926 1.385 . S
C3928 C3926 1.478 . S
C3928 C3930 1.381 . S
C3928 C3934 1.383 . S
C3929 C3925 1.495 . S
C3929 H3935 0.959 . S
C3929 H3936 0.961 . S
C3929 H3937 0.960 . S
C3930 C3928 1.381 . S
C3930 C3931 1.394 . S
C3930 H3938 0.930 . S
C3931 C3930 1.394 . S
C3931 C3932 1.383 . S
C3931 H3939 0.929 . S
C3932 C3931 1.383 . S
C3932 C3933 1.377 . S
C3933 H3917 0.930 . S
C3933 C3932 1.377 . S
C3933 C3934 1.379 . S
C3934 H3918 0.931 . S
C3934 C3928 1.383 . S
C3934 C3933 1.379 . S
H3935 C3929 0.959 . S
H3936 C3929 0.961 . S
H3937 C3929 0.960 . S
H3938 C3930 0.930 . S
H3939 C3931 0.929 . S
H3940 C3948 0.929 . S
H3941 C3950 0.930 . S
H3942 C3952 0.930 . S
H3943 C3955 0.929 . S
H3944 C3958 0.930 . S
H3945 C3960 0.960 . S
H3946 C3960 0.960 . S
H3947 C3960 0.960 . S
C3948 H3940 0.929 . S
C3948 C3949 1.377 . S
C3948 C3950 1.384 . S
C3949 C3948 1.377 . S
C3949 C3955 1.390 . S
C3950 H3941 0.930 . S
C3950 C3948 1.384 . S
C3950 C3951 1.372 . S
C3951 C3950 1.372 . S
C3951 C3952 1.400 . S
C3951 C3956 1.490 . S
C3952 H3942 0.930 . S
C3952 C3951 1.400 . S
C3952 C3955 1.386 . S
H3953 C3969 0.930 . S
H3954 C3970 0.931 . S
C3955 H3943 0.929 . S
C3955 C3949 1.390 . S
C3955 C3952 1.386 . S
C3956 C3951 1.490 . S
C3956 C3958 1.395 . S
C3956 C3959 1.403 . S
H3957 C3963 0.930 . S
C3958 H3944 0.930 . S
C3958 C3956 1.395 . S
C3958 C3961 1.403 . S
C3959 C3956 1.403 . S
C3959 C3960 1.524 . S
C3959 C3963 1.400 . S
C3960 H3945 0.960 . S
C3960 H3946 0.960 . S
C3960 H3947 0.960 . S
C3960 C3959 1.524 . S
C3961 C3958 1.403 . S
C3961 C3962 1.392 . S
C3961 C3965 1.495 . S
C3962 C3961 1.392 . S
C3962 C3963 1.385 . S
C3962 C3964 1.478 . S
C3963 H3957 0.930 . S
C3963 C3959 1.400 . S
C3963 C3962 1.385 . S
C3964 C3962 1.478 . S
C3964 C3966 1.381 . S
C3964 C3970 1.383 . S
C3965 C3961 1.495 . S
C3965 H3971 0.959 . S
C3965 H3972 0.961 . S
C3965 H3973 0.960 . S
C3966 C3964 1.381 . S
C3966 C3967 1.394 . S
C3966 H3974 0.930 . S
C3967 C3966 1.394 . S
C3967 C3968 1.383 . S
C3967 H3975 0.929 . S
C3968 C3967 1.383 . S
C3968 C3969 1.377 . S
C3969 H3953 0.930 . S
C3969 C3968 1.377 . S
C3969 C3970 1.379 . S
C3970 H3954 0.931 . S
C3970 C3964 1.383 . S
C3970 C3969 1.379 . S
H3971 C3965 0.959 . S
H3972 C3965 0.961 . S
H3973 C3965 0.960 . S
H3974 C3966 0.930 . S
H3975 C3967 0.929 . S
H3976 C3984 0.929 . S
H3977 C3986 0.930 . S
H3978 C3988 0.930 . S
H3979 C3991 0.929 . S
H3980 C3994 0.930 . S
H3981 C3996 0.960 . S
H3982 C3996 0.960 . S
H3983 C3996 0.960 . S
C3984 H3976 0.929 . S
C3984 C3985 1.377 . S
C3984 C3986 1.384 . S
C3985 C3984 1.377 . S
C3985 C3991 1.390 . S
C3986 H3977 0.930 . S
C3986 C3984 1.384 . S
C3986 C3987 1.372 . S
C3987 C3986 1.372 . S
C3987 C3988 1.400 . S
C3987 C3992 1.490 . S
C3988 H3978 0.930 . S
C3988 C3987 1.400 . S
C3988 C3991 1.386 . S
H3989 C4005 0.930 . S
H3990 C4006 0.931 . S
C3991 H3979 0.929 . S
C3991 C3985 1.390 . S
C3991 C3988 1.386 . S
C3992 C3987 1.490 . S
C3992 C3994 1.395 . S
C3992 C3995 1.403 . S
H3993 C3999 0.930 . S
C3994 H3980 0.930 . S
C3994 C3992 1.395 . S
C3994 C3997 1.403 . S
C3995 C3992 1.403 . S
C3995 C3996 1.524 . S
C3995 C3999 1.400 . S
C3996 H3981 0.960 . S
C3996 H3982 0.960 . S
C3996 H3983 0.960 . S
C3996 C3995 1.524 . S
C3997 C3994 1.403 . S
C3997 C3998 1.392 . S
C3997 C4001 1.495 . S
C3998 C3997 1.392 . S
C3998 C3999 1.385 . S
C3998 C4000 1.478 . S
C3999 H3993 0.930 . S
C3999 C3995 1.400 . S
C3999 C3998 1.385 . S
C4000 C3998 1.478 . S
C4000 C4002 1.381 . S
C4000 C4006 1.383 . S
C4001 C3997 1.495 . S
C4001 H4007 0.959 . S
C4001 H4008 0.961 . S
C4001 H4009 0.960 . S
C4002 C4000 1.381 . S
C4002 C4003 1.394 . S
C4002 H4010 0.930 . S
C4003 C4002 1.394 . S
C4003 C4004 1.383 . S
C4003 H4011 0.929 . S
C4004 C4003 1.383 . S
C4004 C4005 1.377 . S
C4005 H3989 0.930 . S
C4005 C4004 1.377 . S
C4005 C4006 1.379 . S
C4006 H3990 0.931 . S
C4006 C4000 1.383 . S
C4006 C4005 1.379 . S
H4007 C4001 0.959 . S
H4008 C4001 0.961 . S
H4009 C4001 0.960 . S
H4010 C4002 0.930 . S
H4011 C4003 0.929 . S
H4012 C4020 0.929 . S
H4013 C4022 0.930 . S
H4014 C4024 0.930 . S
H4015 C4027 0.929 . S
H4016 C4030 0.930 . S
H4017 C4032 0.960 . S
H4018 C4032 0.960 . S
H4019 C4032 0.960 . S
C4020 H4012 0.929 . S
C4020 C4021 1.377 . S
C4020 C4022 1.384 . S
C4021 C4020 1.377 . S
C4021 C4027 1.390 . S
C4022 H4013 0.930 . S
C4022 C4020 1.384 . S
C4022 C4023 1.372 . S
C4023 C4022 1.372 . S
C4023 C4024 1.400 . S
C4023 C4028 1.490 . S
C4024 H4014 0.930 . S
C4024 C4023 1.400 . S
C4024 C4027 1.386 . S
H4025 C4041 0.930 . S
H4026 C4042 0.931 . S
C4027 H4015 0.929 . S
C4027 C4021 1.390 . S
C4027 C4024 1.386 . S
C4028 C4023 1.490 . S
C4028 C4030 1.395 . S
C4028 C4031 1.403 . S
H4029 C4035 0.930 . S
C4030 H4016 0.930 . S
C4030 C4028 1.395 . S
C4030 C4033 1.403 . S
C4031 C4028 1.403 . S
C4031 C4032 1.524 . S
C4031 C4035 1.400 . S
C4032 H4017 0.960 . S
C4032 H4018 0.960 . S
C4032 H4019 0.960 . S
C4032 C4031 1.524 . S
C4033 C4030 1.403 . S
C4033 C4034 1.392 . S
C4033 C4037 1.495 . S
C4034 C4033 1.392 . S
C4034 C4035 1.385 . S
C4034 C4036 1.478 . S
C4035 H4029 0.930 . S
C4035 C4031 1.400 . S
C4035 C4034 1.385 . S
C4036 C4034 1.478 . S
C4036 C4038 1.381 . S
C4036 C4042 1.383 . S
C4037 C4033 1.495 . S
C4037 H4043 0.959 . S
C4037 H4044 0.961 . S
C4037 H4045 0.960 . S
C4038 C4036 1.381 . S
C4038 C4039 1.394 . S
C4038 H4046 0.930 . S
C4039 C4038 1.394 . S
C4039 C4040 1.383 . S
C4039 H4047 0.929 . S
C4040 C4039 1.383 . S
C4040 C4041 1.377 . S
C4041 H4025 0.930 . S
C4041 C4040 1.377 . S
C4041 C4042 1.379 . S
C4042 H4026 0.931 . S
C4042 C4036 1.383 . S
C4042 C4041 1.379 . S
H4043 C4037 0.959 . S
H4044 C4037 0.961 . S
H4045 C4037 0.960 . S
H4046 C4038 0.930 . S
H4047 C4039 0.929 . S
H4048 C4056 0.929 1_545 S
H4049 C4058 0.930 . S
H4050 C4060 0.930 . S
H4051 C4063 0.929 . S
H4052 C4066 0.930 . S
H4053 C4068 0.960 . S
H4054 C4068 0.960 . S
H4055 C4068 0.960 . S
C4056 H4048 0.929 1_565 S
C4056 C4057 1.377 . S
C4056 C4058 1.384 . S
C4057 C4056 1.377 . S
C4057 C4063 1.390 . S
C4058 H4049 0.930 . S
C4058 C4056 1.384 . S
C4058 C4059 1.372 . S
C4059 C4058 1.372 . S
C4059 C4060 1.400 . S
C4059 C4064 1.490 . S
C4060 H4050 0.930 . S
C4060 C4059 1.400 . S
C4060 C4063 1.386 . S
H4061 C4077 0.930 . S
H4062 C4078 0.931 . S
C4063 H4051 0.929 . S
C4063 C4057 1.390 . S
C4063 C4060 1.386 . S
C4064 C4059 1.490 . S
C4064 C4066 1.395 . S
C4064 C4067 1.403 . S
H4065 C4071 0.930 . S
C4066 H4052 0.930 . S
C4066 C4064 1.395 . S
C4066 C4069 1.403 . S
C4067 C4064 1.403 . S
C4067 C4068 1.524 . S
C4067 C4071 1.400 . S
C4068 H4053 0.960 . S
C4068 H4054 0.960 . S
C4068 H4055 0.960 . S
C4068 C4067 1.524 . S
C4069 C4066 1.403 . S
C4069 C4070 1.392 . S
C4069 C4073 1.495 . S
C4070 C4069 1.392 . S
C4070 C4071 1.385 . S
C4070 C4072 1.478 . S
C4071 H4065 0.930 . S
C4071 C4067 1.400 . S
C4071 C4070 1.385 . S
C4072 C4070 1.478 . S
C4072 C4074 1.381 . S
C4072 C4078 1.383 . S
C4073 C4069 1.495 . S
C4073 H4079 0.959 . S
C4073 H4080 0.961 . S
C4073 H4081 0.960 . S
C4074 C4072 1.381 . S
C4074 C4075 1.394 . S
C4074 H4082 0.930 . S
C4075 C4074 1.394 . S
C4075 C4076 1.383 . S
C4075 H4083 0.929 . S
C4076 C4075 1.383 . S
C4076 C4077 1.377 . S
C4077 H4061 0.930 . S
C4077 C4076 1.377 . S
C4077 C4078 1.379 . S
C4078 H4062 0.931 . S
C4078 C4072 1.383 . S
C4078 C4077 1.379 . S
H4079 C4073 0.959 . S
H4080 C4073 0.961 . S
H4081 C4073 0.960 . S
H4082 C4074 0.930 . S
H4083 C4075 0.929 . S
H4084 C4092 0.927 1_565 S
H4085 C4094 0.930 . S
H4086 C4096 0.930 . S
H4087 C4099 0.929 . S
H4088 C4102 0.930 . S
H4089 C4104 0.960 . S
H4090 C4104 0.960 . S
H4091 C4104 0.960 . S
C4092 H4084 0.927 1_545 S
C4092 C4093 1.377 . S
C4092 C4094 1.384 . S
C4093 C4092 1.377 . S
C4093 C4099 1.390 . S
C4094 H4085 0.930 . S
C4094 C4092 1.384 . S
C4094 C4095 1.372 . S
C4095 C4094 1.372 . S
C4095 C4096 1.400 . S
C4095 C4100 1.490 . S
C4096 H4086 0.930 . S
C4096 C4095 1.400 . S
C4096 C4099 1.386 . S
H4097 C4113 0.930 . S
H4098 C4114 0.931 . S
C4099 H4087 0.929 . S
C4099 C4093 1.390 . S
C4099 C4096 1.386 . S
C4100 C4095 1.490 . S
C4100 C4102 1.395 . S
C4100 C4103 1.403 . S
H4101 C4107 0.930 . S
C4102 H4088 0.930 . S
C4102 C4100 1.395 . S
C4102 C4105 1.403 1_455 S
C4103 C4100 1.403 . S
C4103 C4104 1.524 . S
C4103 C4107 1.400 . S
C4104 H4089 0.960 . S
C4104 H4090 0.960 . S
C4104 H4091 0.960 . S
C4104 C4103 1.524 . S
C4105 C4102 1.403 1_655 S
C4105 C4106 1.392 . S
C4105 C4109 1.495 . S
C4106 C4105 1.392 . S
C4106 C4107 1.385 1_655 S
C4106 C4108 1.478 . S
C4107 H4101 0.930 . S
C4107 C4103 1.400 . S
C4107 C4106 1.385 1_455 S
C4108 C4106 1.478 . S
C4108 C4110 1.381 . S
C4108 C4114 1.383 . S
C4109 C4105 1.495 . S
C4109 H4115 0.959 . S
C4109 H4116 0.961 . S
C4109 H4117 0.960 . S
C4110 C4108 1.381 . S
C4110 C4111 1.394 . S
C4110 H4118 0.930 . S
C4111 C4110 1.394 . S
C4111 C4112 1.383 . S
C4111 H4119 0.929 . S
C4112 C4111 1.383 . S
C4112 C4113 1.377 . S
C4113 H4097 0.930 . S
C4113 C4112 1.377 . S
C4113 C4114 1.379 . S
C4114 H4098 0.931 . S
C4114 C4108 1.383 . S
C4114 C4113 1.379 . S
H4115 C4109 0.959 . S
H4116 C4109 0.961 . S
H4117 C4109 0.960 . S
H4118 C4110 0.930 . S
H4119 C4111 0.929 . S
C692 C330 1.149 . S
C673 C10 1.137 . S
C709 C16 1.155 . S
C728 C342 1.164 . S
C764 C377 1.166 . S
C745 C30 1.201 . S
C800 C386 1.156 . S
C781 C42 1.163 . S
C836 C341 1.161 . S
C817 C57 1.204 . S
C853 C69 1.168 . S
C872 C366 1.135 . S
C908 C385 1.121 . S
C889 C83 1.186 . S
C925 C101 1.202 . S
C944 C327 1.153 . S
C961 C108 1.163 . S
C980 C320 1.178 . S
C1016 C344 1.140 . S
C997 C120 1.182 . S
C1052 C363 1.156 . S
C1033 C133 1.206 . S
C1088 C388 1.128 . S
C1069 C147 1.165 . S
C1124 C349 1.138 . S
C1105 C114 1.179 . S
C1160 C374 1.125 . S
C1141 C122 1.167 . S
C1177 C135 1.188 . S
C1196 C393 1.139 . S
C1232 C333 1.120 . S
C1213 C153 1.176 . S
C1249 C160 1.164 . S
C1268 C322 1.135 . S
C1285 C174 1.191 . S
C1304 C421 1.169 . S
C1340 C437 1.124 . S
C1321 C187 1.187 . S
C1376 C451 1.176 . S
C1357 C205 1.169 . S
C1393 C212 1.183 . S
C1412 C319 1.140 . S
C1429 C226 1.210 . S
C1448 C371 1.145 . S
C1484 C454 1.167 . S
C1465 C185 1.178 . S
C1520 C418 1.154 . S
C1501 C244 1.194 . S
C1556 C474 1.098 . S
C1537 C23 1.129 . S
C1592 C498 1.145 . S
C1573 C5 1.133 . S
C1609 C49 1.167 . S
C1628 C531 1.169 . S
C1645 C29 1.190 . S
C1664 C539 1.173 . S
C1681 C94 1.187 . S
C1700 C509 1.188 . S
C1717 C88 1.153 . S
C1736 C520 1.117 . S
C1772 C540 1.162 . S
C1753 C70 1.154 . S
C1789 C62 1.175 . S
C1808 C473 1.160 . S
C1825 C257 1.127 . S
C1844 C476 1.109 . S
C1880 C506 1.162 . S
C1861 C200 1.157 . S
C1916 C517 1.134 . S
C1897 C211 1.188 . S
C1952 C547 1.128 . S
C1933 C179 1.180 . S
C1988 C495 1.173 . S
C1969 C251 1.172 . S
C2024 C528 1.150 . S
C2005 C198 1.140 . S
C2060 C542 1.165 . S
C2041 C213 1.156 . S
C2077 C173 1.180 . S
C2096 C481 1.177 . S
C2132 C484 1.112 . S
C2113 C264 1.122 . S
C2149 C148 1.161 . S
C2168 C572 1.163 . S
C2204 C584 1.160 . S
C2185 C278 1.171 . S
C2221 C127 1.185 . S
C2240 C605 1.140 . S
C2276 C487 1.172 . S
C2257 C140 1.201 . S
C2312 C525 1.167 . S
C2293 C289 1.166 . S
C2348 C608 1.117 . S
C2329 C276 1.111 . S
C2365 C303 1.163 . S
C2384 C575 1.118 . S
C2401 C36 1.163 . S
C2420 C630 1.175 . S
C2437 C44 1.156 . S
C2456 C408 1.163 . S
C2492 C432 1.100 . S
C2473 C4 1.141 . S
C2509 C18 1.174 . S
C2528 C462 1.166 . S
C2545 C81 1.180 . S
C2564 C407 1.126 . S
C2581 C95 1.191 . S
C2600 C443 1.158 . S
C2636 C459 1.168 . S
C2617 C55 1.209 . S
C2672 C641 1.182 . S
C2653 C75 1.177 . S
C2708 C638 1.112 . S
C2689 C277 1.150 . S
C2744 C410 1.129 . S
C2725 C263 1.171 . S
C2780 C440 1.179 . S
C2761 C302 1.182 . S
C2797 C290 1.187 . S
C2816 C452 1.200 . S
C2852 C415 1.174 . S
C2833 C283 1.170 . S
C2869 C265 1.157 . S
C2888 C429 1.155 . S
C2924 C465 1.170 . S
C2905 C304 1.186 . S
C2941 C296 1.201 . S
C2960 C627 1.137 . S
C2996 C628 1.158 . S
C2977 C199 1.166 . S
C3013 C224 1.178 . S
C3032 C355 1.141 . S
C3068 C364 1.144 . S
C3049 C252 1.146 . S
C3085 C166 1.158 . S
C3104 C399 1.120 . S
C3140 C635 1.179 . S
C3121 C238 1.177 . S
C3176 C430 1.170 . S
C3157 C172 1.179 . S
C3212 C396 1.172 . S
C3193 C250 1.158 . S
C3248 C352 1.180 . S
C3229 C218 1.168 . S
C3265 C43 1.170 . S
C3284 C649 1.177 . S
C3301 C31 1.169 . S
C3320 C561 1.119 . S
C3337 C17 1.163 . S
C3356 C597 1.165 . S
C3392 C616 1.111 . S
C3373 C3 1.138 . S
C3428 C562 1.115 . S
C3409 C68 1.147 . S
C3445 C56 1.152 . S
C3464 C586 1.146 . S
C3500 C613 1.159 . S
C3481 C96 1.195 . S
C3517 C82 1.156 . S
C3536 C650 1.165 . S
C3572 C657 1.140 . S
C3553 C192 1.177 . S
C3589 C161 1.170 . S
C3608 C569 1.121 . S
C3625 C237 1.179 . S
C3644 C583 1.171 . S
C3680 C606 1.130 . S
C3661 C225 1.142 . S
C3716 C564 1.109 . S
C3697 C186 1.143 . S
C3733 C159 1.142 . S
C3752 C594 1.147 . S
C3788 C619 1.125 . S
C3769 C239 1.181 . S
C3824 C652 1.167 . S
C3805 C231 1.162 . S
C3860 C663 1.156 . S
C3841 C121 1.153 . S
C3896 C503 1.215 . S
C3877 C291 1.213 . S
C3913 C109 1.170 . S
C3932 C518 1.131 . S
C3949 C270 1.154 . S
C3968 C550 1.163 . S
C4004 C660 1.162 . S
C3985 C309 1.169 . S
C4040 C591 1.135 . S
C4021 C146 1.161 . S
C4076 C553 1.112 . S
C4057 C107 1.169 . S
C4112 C496 1.108 . S
C4093 C134 1.143 . S
