# Generated by pormake.
# Topology ssa, (4,4)-cn, num edge types: 1
# Building blocks:
#     Node 0, Type 0, BuildingBlock: NAWXER_clean_sbu_0, # of connection points: 4
#     Node 1, Type 0, BuildingBlock: NAWXER_clean_sbu_0, # of connection points: 4
#     Node 2, Type 0, BuildingBlock: NAWXER_clean_sbu_0, # of connection points: 4
#     Node 3, Type 0, BuildingBlock: NAWXER_clean_sbu_0, # of connection points: 4
#     Node 4, Type 0, BuildingBlock: NAWXER_clean_sbu_0, # of connection points: 4
#     Node 5, Type 0, BuildingBlock: NAWXER_clean_sbu_0, # of connection points: 4
#     Node 6, Type 1, BuildingBlock: NAWXER_clean_sbu_0, # of connection points: 4
#     Node 7, Type 1, BuildingBlock: NAWXER_clean_sbu_0, # of connection points: 4
#     Node 8, Type 1, BuildingBlock: NAWXER_clean_sbu_0, # of connection points: 4
#     Node 9, Type 1, BuildingBlock: NAWXER_clean_sbu_0, # of connection points: 4
#     Node 10, Type 1, BuildingBlock: NAWXER_clean_sbu_0, # of connection points: 4
#     Node 11, Type 1, BuildingBlock: NAWXER_clean_sbu_0, # of connection points: 4
#     Edge 12, Type (0, 1), BuildingBlock: EZIPEK_clean_linker_0, # of connection points: 2
#     Edge 13, Type (0, 1), BuildingBlock: EZIPEK_clean_linker_0, # of connection points: 2
#     Edge 14, Type (0, 1), BuildingBlock: EZIPEK_clean_linker_0, # of connection points: 2
#     Edge 15, Type (0, 1), BuildingBlock: EZIPEK_clean_linker_0, # of connection points: 2
#     Edge 16, Type (0, 1), BuildingBlock: EZIPEK_clean_linker_0, # of connection points: 2
#     Edge 17, Type (0, 1), BuildingBlock: EZIPEK_clean_linker_0, # of connection points: 2
#     Edge 18, Type (0, 1), BuildingBlock: EZIPEK_clean_linker_0, # of connection points: 2
#     Edge 19, Type (0, 1), BuildingBlock: EZIPEK_clean_linker_0, # of connection points: 2
#     Edge 20, Type (0, 1), BuildingBlock: EZIPEK_clean_linker_0, # of connection points: 2
#     Edge 21, Type (0, 1), BuildingBlock: EZIPEK_clean_linker_0, # of connection points: 2
#     Edge 22, Type (0, 1), BuildingBlock: EZIPEK_clean_linker_0, # of connection points: 2
#     Edge 23, Type (0, 1), BuildingBlock: EZIPEK_clean_linker_0, # of connection points: 2
#     Edge 24, Type (0, 1), BuildingBlock: EZIPEK_clean_linker_0, # of connection points: 2
#     Edge 25, Type (0, 1), BuildingBlock: EZIPEK_clean_linker_0, # of connection points: 2
#     Edge 26, Type (0, 1), BuildingBlock: EZIPEK_clean_linker_0, # of connection points: 2
#     Edge 27, Type (0, 1), BuildingBlock: EZIPEK_clean_linker_0, # of connection points: 2
#     Edge 28, Type (0, 1), BuildingBlock: EZIPEK_clean_linker_0, # of connection points: 2
#     Edge 29, Type (0, 1), BuildingBlock: EZIPEK_clean_linker_0, # of connection points: 2
#     Edge 30, Type (0, 1), BuildingBlock: EZIPEK_clean_linker_0, # of connection points: 2
#     Edge 31, Type (0, 1), BuildingBlock: EZIPEK_clean_linker_0, # of connection points: 2
#     Edge 32, Type (0, 1), BuildingBlock: EZIPEK_clean_linker_0, # of connection points: 2
#     Edge 33, Type (0, 1), BuildingBlock: EZIPEK_clean_linker_0, # of connection points: 2
#     Edge 34, Type (0, 1), BuildingBlock: EZIPEK_clean_linker_0, # of connection points: 2
#     Edge 35, Type (0, 1), BuildingBlock: EZIPEK_clean_linker_0, # of connection points: 2
# Relax obj value: 0.024
# Max RMSD: 0.040
# Mean RMSD: 0.033
data_MOF--net-ssa--node1-NAWXER_clean_sbu_0--node2-NAWXER_clean_sbu_0--edge1-EZIPEK_clean_linker_0
_symmetry_space_group_name_H-M    P1
_symmetry_Int_Tables_number       1
_symmetry_cell_setting            triclinic
loop_
_symmetry_equiv_pos_as_xyz
'x, y, z'
_cell_length_a     32.16527
_cell_length_b     32.048089
_cell_length_c     26.894003
_cell_angle_alpha  89.955736
_cell_angle_beta   90.231485
_cell_angle_gamma 120.11857
loop_
_atom_site_label
_atom_site_type_symbol
_atom_site_fract_x
_atom_site_fract_y
_atom_site_fract_z
_atom_type_partial_charge
C0 C 0.02464 0.59178 0.08134 0.0
C1 C 0.91831 0.44685 0.9835 0.0
O2 O 0.98184 0.55937 0.09153 0.0
Zn3 Zn 0.9709 0.51728 0.03434 0.0
O4 O 0.04382 0.58806 0.041 0.0
Zn5 Zn 0.02547 0.53793 0.98015 0.0
O6 O 0.02708 0.57526 0.92179 0.0
O7 O 0.96521 0.55635 0.9707 0.0
O8 O 0.95967 0.473 0.96394 0.0
O9 O 0.90928 0.45755 0.02615 0.0
O10 O 0.02069 0.49162 0.05006 0.0
O11 O 0.07091 0.51428 0.98735 0.0
C12 C 0.98777 0.57462 0.92995 0.0
C13 C 0.0572 0.49305 0.0291 0.0
C14 C 0.52921 0.10562 0.50205 0.0
C15 C 0.56486 0.99321 0.41183 0.0
O16 O 0.5137 0.06486 0.52348 0.0
Zn17 Zn 0.5127 0.99806 0.51162 0.0
O18 O 0.54873 0.11301 0.45935 0.0
Zn19 Zn 0.54583 0.05047 0.45516 0.0
O20 O 0.46983 1.00069 0.44323 0.0
O21 O 0.44436 0.95388 0.50933 0.0
O22 O 0.57691 0.03637 0.40064 0.0
O23 O 0.54107 0.97478 0.45189 0.0
O24 O 0.54883 0.99962 0.57054 0.0
O25 O 0.59001 0.06067 0.51967 0.0
C26 C 0.43547 0.96596 0.46733 0.0
C27 C 0.5859 0.04033 0.56182 0.0
C28 C 0.49544 0.44713 0.9309 0.0
C29 C 0.56525 0.60788 0.00875 0.0
O30 O 0.49534 0.48401 0.91346 0.0
Zn31 Zn 0.52578 0.52826 0.96973 0.0
O32 O 0.50979 0.44833 0.97578 0.0
Zn33 Zn 0.54114 0.5 0.03566 0.0
O34 O 0.49309 0.47955 0.08953 0.0
O35 O 0.4723 0.50872 0.02596 0.0
O36 O 0.56502 0.57553 0.03685 0.0
O37 O 0.5478 0.59693 0.9649 0.0
O38 O 0.59323 0.5314 0.97185 0.0
O39 O 0.60353 0.50166 0.04185 0.0
C40 C 0.46476 0.49215 0.07034 0.0
C41 C 0.61899 0.52042 0.9992 0.0
C42 C 0.07302 0.56637 0.50275 0.0
C43 C 0.99196 0.4075 0.58636 0.0
O44 O 0.08431 0.55552 0.54424 0.0
Zn45 Zn 0.03114 0.48877 0.5465 0.0
O46 O 0.03308 0.53647 0.48191 0.0
Zn47 Zn 0.97627 0.46232 0.49247 0.0
O48 O 0.91827 0.46587 0.50367 0.0
O49 O 0.96818 0.4925 0.56754 0.0
O50 O 0.96847 0.40896 0.54815 0.0
O51 O 0.03133 0.44534 0.5968 0.0
O52 O 0.04772 0.46528 0.47805 0.0
O53 O 0.98454 0.43865 0.42841 0.0
C54 C 0.92756 0.48189 0.54794 0.0
C55 C 0.02812 0.44991 0.43539 0.0
C56 C 0.47644 0.90517 0.00398 0.0
C57 C 0.43574 0.01785 0.92357 0.0
O58 O 0.49265 0.94526 0.027 0.0
Zn59 Zn 0.49125 0.011 0.02078 0.0
O60 O 0.4553 0.89866 0.96215 0.0
Zn61 Zn 0.45706 0.96048 0.96263 0.0
O62 O 0.53223 0.01215 0.94922 0.0
O63 O 0.55956 0.0581 0.01584 0.0
O64 O 0.42571 0.97603 0.90926 0.0
O65 O 0.45809 0.03377 0.96513 0.0
O66 O 0.45778 0.00511 0.08289 0.0
O67 O 0.41432 0.94664 0.02964 0.0
C68 C 0.56694 0.04758 0.97244 0.0
C69 C 0.42033 0.96481 0.0734 0.0
C70 C 0.55513 0.54112 0.56548 0.0
C71 C 0.4032 0.47319 0.46274 0.0
O72 O 0.5189 0.54595 0.575 0.0
Zn73 Zn 0.47701 0.51127 0.51634 0.0
O74 O 0.55524 0.5206 0.52465 0.0
Zn75 Zn 0.5094 0.48614 0.46178 0.0
O76 O 0.54357 0.53057 0.40647 0.0
O77 O 0.509 0.55895 0.45585 0.0
O78 O 0.43748 0.4688 0.44446 0.0
O79 O 0.40927 0.49391 0.50495 0.0
O80 O 0.46584 0.44169 0.52836 0.0
O81 O 0.499 0.42009 0.46946 0.0
C82 C 0.53241 0.56267 0.4162 0.0
C83 C 0.47445 0.41035 0.50932 0.0
C84 C 0.26086 0.43002 0.30742 0.0
C85 C 0.1655 0.43447 0.15688 0.0
O86 O 0.22887 0.39093 0.28651 0.0
Zn87 Zn 0.20964 0.41949 0.22923 0.0
O88 O 0.26923 0.46997 0.28876 0.0
Zn89 Zn 0.24683 0.50071 0.23488 0.0
O90 O 0.21232 0.52254 0.28146 0.0
O91 O 0.17341 0.44358 0.27329 0.0
O92 O 0.19585 0.47337 0.17852 0.0
O93 O 0.16165 0.39465 0.17169 0.0
O94 O 0.2753 0.45437 0.1914 0.0
O95 O 0.30748 0.53321 0.19442 0.0
C96 C 0.17635 0.48119 0.29247 0.0
C97 C 0.30937 0.49623 0.17953 0.0
C98 C 0.86066 0.26238 0.72174 0.0
C99 C 0.73292 0.16094 0.84575 0.0
O100 O 0.8263 0.2714 0.7261 0.0
Zn101 Zn 0.76077 0.24542 0.76673 0.0
O102 O 0.86013 0.22875 0.74771 0.0
Zn103 Zn 0.79956 0.20813 0.78445 0.0
O104 O 0.74699 0.1749 0.72717 0.0
O105 O 0.71166 0.21807 0.71467 0.0
O106 O 0.77076 0.15831 0.83824 0.0
O107 O 0.72658 0.19089 0.82033 0.0
O108 O 0.77357 0.30048 0.80935 0.0
O109 O 0.82022 0.27079 0.82778 0.0
C110 C 0.71581 0.1815 0.70432 0.0
C111 C 0.80714 0.30176 0.83595 0.0
C112 C 0.58672 0.85967 0.28297 0.0
C113 C 0.58823 0.74978 0.1527 0.0
O114 O 0.62432 0.86416 0.26224 0.0
Zn115 Zn 0.59362 0.80536 0.2208 0.0
O116 O 0.54582 0.82234 0.2737 0.0
Zn117 Zn 0.51743 0.75803 0.22973 0.0
O118 O 0.49616 0.70496 0.27675 0.0
O119 O 0.5754 0.74725 0.27204 0.0
O120 O 0.54891 0.73515 0.17599 0.0
O121 O 0.62493 0.78953 0.16603 0.0
O122 O 0.55014 0.82126 0.17375 0.0
O123 O 0.47453 0.76505 0.18282 0.0
C124 C 0.53713 0.71144 0.28962 0.0
C125 C 0.5063 0.80243 0.16006 0.0
C126 C 0.85755 0.58937 0.79246 0.0
C127 C 0.71632 0.57007 0.6926 0.0
O128 O 0.82241 0.54605 0.78771 0.0
Zn129 Zn 0.75173 0.50724 0.75326 0.0
O130 O 0.85525 0.62396 0.77144 0.0
Zn131 Zn 0.79061 0.58362 0.74207 0.0
O132 O 0.75232 0.56049 0.81082 0.0
O133 O 0.71154 0.48129 0.81282 0.0
O134 O 0.75537 0.60896 0.70209 0.0
O135 O 0.71114 0.53038 0.70953 0.0
O136 O 0.76256 0.4665 0.70723 0.0
O137 O 0.808 0.54396 0.69021 0.0
C138 C 0.72366 0.5215 0.83374 0.0
C139 C 0.79559 0.49994 0.68134 0.0
C140 C 0.29222 0.82642 0.2208 0.0
C141 C 0.19279 0.71071 0.3554 0.0
O142 O 0.25876 0.83216 0.23891 0.0
Zn143 Zn 0.20157 0.79958 0.29064 0.0
O144 O 0.29714 0.79141 0.23626 0.0
Zn145 Zn 0.24479 0.76429 0.28615 0.0
O146 O 0.18296 0.73269 0.24066 0.0
O147 O 0.14611 0.77475 0.24341 0.0
O148 O 0.23041 0.71372 0.33602 0.0
O149 O 0.17858 0.7391 0.33933 0.0
O150 O 0.22483 0.85345 0.34081 0.0
O151 O 0.27127 0.82151 0.33541 0.0
C152 C 0.14899 0.73933 0.22555 0.0
C153 C 0.26253 0.85261 0.35445 0.0
C154 C 0.47492 0.29559 0.7951 0.0
C155 C 0.50399 0.2083 0.66089 0.0
O156 O 0.51493 0.30204 0.77907 0.0
Zn157 Zn 0.4924 0.24937 0.73171 0.0
O158 O 0.43607 0.26003 0.77798 0.0
Zn159 Zn 0.41556 0.20528 0.72178 0.0
O160 O 0.38234 0.14583 0.76232 0.0
O161 O 0.46056 0.18521 0.7748 0.0
O162 O 0.45932 0.19071 0.67138 0.0
O163 O 0.53577 0.24249 0.68738 0.0
O164 O 0.46273 0.27368 0.67857 0.0
O165 O 0.38427 0.22759 0.67199 0.0
C166 C 0.41901 0.14904 0.78436 0.0
C167 C 0.42334 0.26449 0.65797 0.0
C168 C 0.0602 0.42717 0.07984 0.0
C169 C 0.08482 0.47279 0.05545 0.0
C170 C 0.16114 0.47971 0.08266 0.0
C171 C 0.13661 0.43959 0.11525 0.0
N172 N 0.06061 0.37738 0.1477 0.0
N173 N 0.16042 0.54675 0.04274 0.0
C174 C 0.08546 0.41347 0.11424 0.0
C175 C 0.1358 0.49999 0.05876 0.0
N176 N 0.01289 0.39621 0.0692 0.0
N177 N 0.20922 0.49897 0.07469 0.0
H178 H 0.14399 0.56492 0.02797 0.0
H179 H 0.197 0.56949 0.04951 0.0
H180 H 0.22897 0.48506 0.09123 0.0
H181 H 0.22803 0.52508 0.04772 0.0
H182 H 0.99414 0.3609 0.08234 0.0
H183 H 0.99407 0.40406 0.0427 0.0
H184 H 0.02358 0.36124 0.15252 0.0
H185 H 0.07721 0.36583 0.17309 0.0
C186 C 0.60132 0.0802 0.64642 0.0
C187 C 0.61941 0.07014 0.60243 0.0
C188 C 0.70024 0.13664 0.62335 0.0
C189 C 0.68259 0.14387 0.66885 0.0
N190 N 0.61905 0.1138 0.72954 0.0
N191 N 0.68785 0.08234 0.55476 0.0
C192 C 0.63408 0.11262 0.68236 0.0
C193 C 0.66955 0.09637 0.5928 0.0
N194 N 0.55312 0.06251 0.6524 0.0
N195 N 0.74571 0.16935 0.60838 0.0
H196 H 0.66635 0.05233 0.53257 0.0
H197 H 0.72453 0.09729 0.54848 0.0
H198 H 0.76852 0.19981 0.62936 0.0
H199 H 0.75913 0.16875 0.57337 0.0
H200 H 0.53921 0.07373 0.68101 0.0
H201 H 0.52713 0.04089 0.62644 0.0
H202 H 0.58527 0.08823 0.74271 0.0
H203 H 0.64168 0.13761 0.7568 0.0
C204 C 0.62109 0.68396 0.05411 0.0
C205 C 0.57521 0.65351 0.03297 0.0
C206 C 0.544 0.69771 0.07839 0.0
C207 C 0.58707 0.72128 0.10781 0.0
N208 N 0.66532 0.73086 0.12589 0.0
N209 N 0.49052 0.6273 0.03047 0.0
C210 C 0.62573 0.71346 0.09586 0.0
C211 C 0.53615 0.65965 0.04605 0.0
N212 N 0.66018 0.68458 0.03394 0.0
N213 N 0.51034 0.71173 0.0802 0.0
H214 H 0.48243 0.59932 0.00562 0.0
H215 H 0.46004 0.62601 0.04543 0.0
H216 H 0.51308 0.7391 0.10272 0.0
H217 H 0.48178 0.69942 0.0551 0.0
H218 H 0.69537 0.70853 0.0451 0.0
H219 H 0.65709 0.66502 0.0018 0.0
H220 H 0.69199 0.72183 0.12123 0.0
H221 H 0.66954 0.7503 0.15832 0.0
C222 C 0.86815 0.51039 0.56526 0.0
C223 C 0.88979 0.48288 0.57932 0.0
C224 C 0.8484 0.46511 0.65972 0.0
C225 C 0.82406 0.48972 0.64458 0.0
N226 N 0.80328 0.52715 0.57877 0.0
N227 N 0.88861 0.42232 0.63377 0.0
C228 C 0.83166 0.50971 0.59597 0.0
C229 C 0.87627 0.45667 0.62467 0.0
N230 N 0.88389 0.53888 0.5239 0.0
N231 N 0.84774 0.45235 0.70832 0.0
H232 H 0.90694 0.41329 0.60807 0.0
H233 H 0.87578 0.39898 0.6641 0.0
H234 H 0.82927 0.45894 0.73605 0.0
H235 H 0.86997 0.43997 0.722 0.0
H236 H 0.87323 0.56371 0.51474 0.0
H237 H 0.91075 0.54068 0.50087 0.0
H238 H 0.80392 0.53805 0.54215 0.0
H239 H 0.77567 0.52624 0.59986 0.0
C240 C 0.40725 0.9184 0.15368 0.0
C241 C 0.38824 0.93362 0.11418 0.0
C242 C 0.30645 0.8749 0.14159 0.0
C243 C 0.32548 0.86239 0.18338 0.0
N244 N 0.39433 0.88239 0.23547 0.0
N245 N 0.32005 0.9328 0.07628 0.0
C246 C 0.37598 0.88715 0.19129 0.0
C247 C 0.33788 0.9137 0.1099 0.0
N248 N 0.45475 0.93137 0.15411 0.0
N249 N 0.25845 0.84866 0.13085 0.0
H250 H 0.34212 0.96149 0.05299 0.0
H251 H 0.28407 0.92357 0.07481 0.0
H252 H 0.23378 0.82048 0.1529 0.0
H253 H 0.24353 0.85216 0.09778 0.0
H254 H 0.46898 0.91653 0.17861 0.0
H255 H 0.47918 0.95318 0.12717 0.0
H256 H 0.43049 0.90333 0.24506 0.0
H257 H 0.37295 0.86118 0.26468 0.0
C258 C 0.48566 0.37979 0.58859 0.0
C259 C 0.4637 0.3685 0.54129 0.0
C260 C 0.4088 0.28564 0.56997 0.0
C261 C 0.42737 0.29967 0.61917 0.0
N262 N 0.47314 0.36541 0.67633 0.0
N263 N 0.40075 0.31213 0.4873 0.0
C264 C 0.46233 0.34857 0.62866 0.0
C265 C 0.42405 0.32174 0.53196 0.0
N266 N 0.52947 0.42031 0.5951 0.0
N267 N 0.37855 0.23819 0.5589 0.0
H268 H 0.41301 0.33709 0.45829 0.0
H269 H 0.36839 0.28059 0.4801 0.0
H270 H 0.36607 0.211 0.58552 0.0
H271 H 0.36827 0.22553 0.5227 0.0
H272 H 0.54899 0.4279 0.62818 0.0
H273 H 0.54858 0.44285 0.56556 0.0
H274 H 0.49585 0.4017 0.68492 0.0
H275 H 0.45526 0.34396 0.70685 0.0
C276 C 0.60116 0.94041 0.39476 0.0
C277 C 0.57532 0.96289 0.37736 0.0
C278 C 0.56803 0.9262 0.29498 0.0
C279 C 0.58817 0.89894 0.31424 0.0
N280 N 0.62037 0.87664 0.38363 0.0
N281 N 0.5278 0.97132 0.31256 0.0
C282 C 0.6041 0.90535 0.36441 0.0
C283 C 0.55744 0.9546 0.32772 0.0
N284 N 0.62414 0.95368 0.43974 0.0
N285 N 0.55953 0.92539 0.24503 0.0
H286 H 0.51754 0.99071 0.33556 0.0
H287 H 0.50978 0.96234 0.27857 0.0
H288 H 0.56696 0.90515 0.22001 0.0
H289 H 0.54973 0.94829 0.22777 0.0
H290 H 0.64745 0.94232 0.45249 0.0
H291 H 0.62337 0.97964 0.46248 0.0
H292 H 0.62711 0.87531 0.42132 0.0
H293 H 0.62417 0.85165 0.36217 0.0
C294 C 0.6886 0.56906 0.947 0.0
C295 C 0.66418 0.52733 0.9762 0.0
C296 C 0.6966 0.48904 0.92185 0.0
C297 C 0.70584 0.52446 0.88451 0.0
N298 N 0.70195 0.5964 0.86261 0.0
N299 N 0.65047 0.44814 0.99561 0.0
C300 C 0.70049 0.5647 0.89753 0.0
C301 C 0.67066 0.48769 0.96556 0.0
N302 N 0.69674 0.61197 0.96571 0.0
N303 N 0.71393 0.45815 0.9168 0.0
H304 H 0.63415 0.44757 0.02919 0.0
H305 H 0.64869 0.41573 0.98625 0.0
H306 H 0.73639 0.46063 0.88774 0.0
H307 H 0.71098 0.43414 0.94457 0.0
H308 H 0.71663 0.64456 0.94687 0.0
H309 H 0.68811 0.61452 0.00257 0.0
H310 H 0.69483 0.62393 0.87117 0.0
H311 H 0.70334 0.59169 0.82454 0.0
C312 C 0.10563 0.64902 0.46499 0.0
C313 C 0.10934 0.60739 0.47227 0.0
C314 C 0.16498 0.63104 0.40153 0.0
C315 C 0.1652 0.67552 0.39684 0.0
N316 N 0.14495 0.73138 0.43699 0.0
N317 N 0.15179 0.56474 0.45536 0.0
C318 C 0.13819 0.68591 0.43221 0.0
C319 C 0.14259 0.60081 0.44354 0.0
N320 N 0.07074 0.65343 0.48914 0.0
N321 N 0.18254 0.61532 0.36427 0.0
H322 H 0.13573 0.54153 0.4853 0.0
H323 H 0.17897 0.56102 0.43878 0.0
H324 H 0.19172 0.63128 0.32932 0.0
H325 H 0.18205 0.58264 0.36532 0.0
H326 H 0.06232 0.68006 0.48048 0.0
H327 H 0.04803 0.62846 0.5154 0.0
H328 H 0.12959 0.74107 0.4655 0.0
H329 H 0.17001 0.76113 0.41711 0.0
C330 C 0.46056 0.10091 0.88938 0.0
C331 C 0.42705 0.05053 0.89006 0.0
C332 C 0.38521 0.06294 0.81932 0.0
C333 C 0.41571 0.11389 0.82351 0.0
N334 N 0.46899 0.17926 0.87799 0.0
N335 N 0.34888 0.98659 0.86328 0.0
C336 C 0.44878 0.13213 0.86374 0.0
C337 C 0.38661 0.03233 0.85738 0.0
N338 N 0.50551 0.11918 0.90914 0.0
N339 N 0.35671 0.04318 0.77842 0.0
H340 H 0.34704 0.96426 0.8924 0.0
H341 H 0.31707 0.97323 0.8429 0.0
H342 H 0.35562 0.06356 0.74884 0.0
H343 H 0.33766 0.00612 0.77183 0.0
H344 H 0.5316 0.15557 0.90627 0.0
H345 H 0.51904 0.09736 0.92089 0.0
H346 H 0.49128 0.19295 0.90915 0.0
H347 H 0.45847 0.20251 0.86275 0.0
C348 C 0.34138 0.48842 0.42029 0.0
C349 C 0.35875 0.45672 0.43154 0.0
C350 C 0.30759 0.40233 0.36415 0.0
C351 C 0.28824 0.43299 0.35461 0.0
N352 N 0.27589 0.49645 0.38828 0.0
N353 N 0.34712 0.37667 0.42392 0.0
C354 C 0.30146 0.47293 0.38757 0.0
C355 C 0.33803 0.41139 0.40663 0.0
N356 N 0.3648 0.53485 0.43753 0.0
N357 N 0.29995 0.36656 0.33148 0.0
H358 H 0.36775 0.38168 0.45578 0.0
H359 H 0.32988 0.34151 0.41017 0.0
H360 H 0.27916 0.35892 0.29945 0.0
H361 H 0.31783 0.34707 0.33403 0.0
H362 H 0.3567 0.56082 0.4252 0.0
H363 H 0.39537 0.54914 0.45991 0.0
H364 H 0.28122 0.5221 0.41519 0.0
H365 H 0.24613 0.48708 0.36589 0.0
C366 C 0.87154 0.35964 0.95926 0.0
C367 C 0.88083 0.40725 0.95299 0.0
C368 C 0.8431 0.38671 0.87048 0.0
C369 C 0.83108 0.33782 0.87715 0.0
N370 N 0.82684 0.27634 0.93397 0.0
N371 N 0.8642 0.46294 0.90972 0.0
C372 C 0.84315 0.3238 0.92331 0.0
C373 C 0.86261 0.41954 0.91096 0.0
N374 N 0.89146 0.349 0.99877 0.0
N375 N 0.83996 0.40319 0.82456 0.0
H376 H 0.87772 0.48733 0.93926 0.0
H377 H 0.84754 0.47231 0.88212 0.0
H378 H 0.82995 0.38195 0.79262 0.0
H379 H 0.853 0.43956 0.81704 0.0
H380 H 0.8925 0.31713 0.00171 0.0
H381 H 0.90936 0.37342 0.02755 0.0
H382 H 0.82895 0.26422 0.96932 0.0
H383 H 0.80791 0.24801 0.9094 0.0
C384 C 0.95105 0.56239 0.84374 0.0
C385 C 0.9633 0.5874 0.89009 0.0
C386 C 0.91105 0.62088 0.86912 0.0
C387 C 0.90017 0.59696 0.82237 0.0
N388 N 0.92059 0.55673 0.75988 0.0
N389 N 0.96357 0.64888 0.94165 0.0
C390 C 0.92398 0.57179 0.808 0.0
C391 C 0.94608 0.61947 0.90097 0.0
N392 N 0.96156 0.52664 0.83512 0.0
N393 N 0.88599 0.64254 0.88445 0.0
H394 H 0.98947 0.64895 0.96521 0.0
H395 H 0.95595 0.6762 0.94929 0.0
H396 H 0.86073 0.64492 0.86205 0.0
H397 H 0.88795 0.65538 0.92044 0.0
H398 H 0.94823 0.50347 0.80464 0.0
H399 H 0.97951 0.51664 0.86049 0.0
H400 H 0.9407 0.54214 0.74581 0.0
H401 H 0.90142 0.56355 0.73279 0.0
C402 C 0.36503 0.96229 0.42009 0.0
C403 C 0.38634 0.93817 0.44472 0.0
C404 C 0.31341 0.86134 0.42763 0.0
C405 C 0.29712 0.88414 0.39374 0.0
N406 N 0.30987 0.9578 0.35562 0.0
N407 N 0.3831 0.86232 0.46182 0.0
C408 C 0.3232 0.93519 0.3898 0.0
C409 C 0.36093 0.88703 0.44645 0.0
N410 N 0.38389 0.01074 0.42655 0.0
N411 N 0.28379 0.81432 0.44061 0.0
H412 H 0.41936 0.87888 0.47137 0.0
H413 H 0.367 0.82493 0.45901 0.0
H414 H 0.2488 0.79439 0.42717 0.0
H415 H 0.29234 0.79717 0.46844 0.0
H416 H 0.36751 0.02943 0.41292 0.0
H417 H 0.41295 0.03113 0.45015 0.0
H418 H 0.331 0.99429 0.34706 0.0
H419 H 0.27906 0.93951 0.33374 0.0
C420 C 0.52139 0.39093 0.89535 0.0
C421 C 0.48662 0.40579 0.89767 0.0
C422 C 0.4405 0.34633 0.83226 0.0
C423 C 0.47391 0.32907 0.83369 0.0
N424 N 0.53489 0.3244 0.88204 0.0
N425 N 0.40734 0.38969 0.87563 0.0
C426 C 0.51062 0.34792 0.87024 0.0
C427 C 0.44436 0.38106 0.86831 0.0
N428 N 0.56655 0.41972 0.91354 0.0
N429 N 0.40636 0.33173 0.79574 0.0
H430 H 0.4089 0.41438 0.90189 0.0
H431 H 0.37361 0.36911 0.85922 0.0
H432 H 0.40032 0.30582 0.76915 0.0
H433 H 0.38589 0.34816 0.78957 0.0
H434 H 0.5942 0.41225 0.90788 0.0
H435 H 0.57775 0.454 0.92725 0.0
H436 H 0.55952 0.33526 0.91135 0.0
H437 H 0.52601 0.29094 0.86696 0.0
C438 C 0.08108 0.42408 0.39483 0.0
C439 C 0.05979 0.45323 0.39351 0.0
C440 C 0.11125 0.49809 0.32241 0.0
C441 C 0.13753 0.47363 0.32848 0.0
N442 N 0.14895 0.4149 0.37503 0.0
N443 N 0.05784 0.52204 0.35956 0.0
C444 C 0.12263 0.43684 0.36575 0.0
C445 C 0.07553 0.49119 0.35806 0.0
N446 N 0.06066 0.3832 0.42326 0.0
N447 N 0.11882 0.5264 0.28156 0.0
H448 H 0.03062 0.51753 0.38366 0.0
H449 H 0.07247 0.55396 0.33924 0.0
H450 H 0.14389 0.53181 0.2542 0.0
H451 H 0.09725 0.54102 0.27248 0.0
H452 H 0.07081 0.35706 0.42166 0.0
H453 H 0.03006 0.37289 0.44476 0.0
H454 H 0.14382 0.39349 0.40614 0.0
H455 H 0.17837 0.42047 0.35428 0.0
C456 C 0.63677 0.05471 0.92249 0.0
C457 C 0.61429 0.07755 0.94685 0.0
C458 C 0.67807 0.15571 0.91551 0.0
C459 C 0.6959 0.132 0.88455 0.0
N460 N 0.68671 0.05686 0.85418 0.0
N461 N 0.6114 0.15057 0.96159 0.0
C462 C 0.67414 0.08094 0.88724 0.0
C463 C 0.63471 0.1283 0.94261 0.0
N464 N 0.62321 0.00812 0.9341 0.0
N465 N 0.70273 0.20485 0.91975 0.0
H466 H 0.58003 0.13314 0.98234 0.0
H467 H 0.62088 0.18596 0.95304 0.0
H468 H 0.73299 0.22724 0.89906 0.0
H469 H 0.69547 0.22339 0.94699 0.0
H470 H 0.64113 0.99076 0.92124 0.0
H471 H 0.59745 0.98878 0.96111 0.0
H472 H 0.66813 0.01942 0.8508 0.0
H473 H 0.71282 0.07411 0.82698 0.0
C474 C 0.55787 0.64977 0.401 0.0
C475 C 0.54208 0.60289 0.38119 0.0
C476 C 0.53468 0.63231 0.29918 0.0
C477 C 0.54105 0.67534 0.32108 0.0
N478 N 0.55733 0.72509 0.39371 0.0
N479 N 0.50722 0.5479 0.3114 0.0
C480 C 0.55251 0.68423 0.37228 0.0
C481 C 0.52881 0.59374 0.33011 0.0
N482 N 0.57928 0.66176 0.44678 0.0
N483 N 0.5354 0.62855 0.2487 0.0
H484 H 0.49971 0.5177 0.33249 0.0
H485 H 0.49232 0.53928 0.27579 0.0
H486 H 0.53946 0.65594 0.22475 0.0
H487 H 0.53664 0.60018 0.23118 0.0
H488 H 0.59535 0.6965 0.46147 0.0
H489 H 0.58555 0.63811 0.46782 0.0
H490 H 0.56042 0.73111 0.43195 0.0
H491 H 0.5548 0.75153 0.37346 0.0
C492 C 0.56653 0.16463 0.57089 0.0
C493 C 0.53152 0.14519 0.53254 0.0
C494 C 0.48944 0.18242 0.57091 0.0
C495 C 0.51723 0.19104 0.61518 0.0
N496 N 0.58225 0.18804 0.6575 0.0
N497 N 0.45962 0.13592 0.49479 0.0
C498 C 0.55649 0.18241 0.61503 0.0
C499 C 0.49312 0.15452 0.53195 0.0
N500 N 0.60906 0.16543 0.56504 0.0
N501 N 0.46145 0.20295 0.56496 0.0
H502 H 0.46341 0.11814 0.46415 0.0
H503 H 0.42747 0.13639 0.49563 0.0
H504 H 0.46134 0.22718 0.59063 0.0
H505 H 0.44347 0.20097 0.53196 0.0
H506 H 0.63796 0.18288 0.58953 0.0
H507 H 0.61716 0.15327 0.53253 0.0
H508 H 0.6099 0.18029 0.65978 0.0
H509 H 0.57367 0.19649 0.69189 0.0
C510 C 0.37706 0.45835 0.08969 0.0
C511 C 0.42564 0.49268 0.09988 0.0
C512 C 0.39913 0.53098 0.16216 0.0
C513 C 0.35018 0.49898 0.1492 0.0
N514 N 0.29418 0.43906 0.0912 0.0
N515 N 0.48262 0.56865 0.13729 0.0
C516 C 0.33968 0.46458 0.11029 0.0
C517 C 0.43656 0.53109 0.13352 0.0
N518 N 0.36646 0.4191 0.06087 0.0
N519 N 0.41037 0.55922 0.20367 0.0
H520 H 0.51143 0.56935 0.11888 0.0
H521 H 0.49117 0.60094 0.1549 0.0
H522 H 0.38481 0.55898 0.22743 0.0
H523 H 0.44526 0.57944 0.21733 0.0
H524 H 0.33181 0.38982 0.05664 0.0
H525 H 0.39289 0.41373 0.04477 0.0
H526 H 0.28558 0.41768 0.05943 0.0
H527 H 0.26581 0.44298 0.10371 0.0
C528 C 0.97627 0.37109 0.67386 0.0
C529 C 0.96906 0.36448 0.62144 0.0
C530 C 0.9013 0.28206 0.63771 0.0
C531 C 0.90193 0.2941 0.68859 0.0
N532 N 0.93926 0.35137 0.75527 0.0
N533 N 0.9312 0.30857 0.55377 0.0
C534 C 0.93935 0.33889 0.70671 0.0
C535 C 0.9335 0.31816 0.6035 0.0
N536 N 0.01923 0.40601 0.69281 0.0
N537 N 0.87028 0.23591 0.6225 0.0
H538 H 0.95848 0.33098 0.52934 0.0
H539 H 0.90288 0.27862 0.53669 0.0
H540 H 0.8475 0.20903 0.64718 0.0
H541 H 0.86931 0.22308 0.58677 0.0
H542 H 0.02697 0.41014 0.73074 0.0
H543 H 0.04978 0.42519 0.67114 0.0
H544 H 0.96197 0.38603 0.76892 0.0
H545 H 0.91434 0.32799 0.78114 0.0
C546 C 0.44041 0.84069 0.06731 0.0
C547 C 0.47689 0.86559 0.03163 0.0
C548 C 0.52744 0.83929 0.07322 0.0
C549 C 0.49475 0.82203 0.11457 0.0
N550 N 0.42196 0.81208 0.1521 0.0
N551 N 0.55457 0.88899 0.99901 0.0
C552 C 0.45119 0.82341 0.11155 0.0
C553 C 0.51994 0.86441 0.03389 0.0
N554 N 0.39598 0.83526 0.05938 0.0
N555 N 0.5649 0.83066 0.06999 0.0
H556 H 0.54792 0.90343 0.96719 0.0
H557 H 0.59001 0.89672 0.00256 0.0
H558 H 0.57385 0.81329 0.09679 0.0
H559 H 0.58514 0.83681 0.03787 0.0
H560 H 0.36628 0.81425 0.08167 0.0
H561 H 0.38775 0.84803 0.02728 0.0
H562 H 0.39087 0.81438 0.15275 0.0
H563 H 0.43097 0.80522 0.18716 0.0
C564 C 0.64472 0.58297 0.58365 0.0
C565 C 0.59666 0.55602 0.6015 0.0
C566 C 0.62918 0.54892 0.68272 0.0
C567 C 0.67621 0.56942 0.66232 0.0
N568 N 0.72735 0.60075 0.59048 0.0
N569 N 0.54317 0.50847 0.6677 0.0
C570 C 0.68368 0.58551 0.61213 0.0
C571 C 0.58892 0.53823 0.65121 0.0
N572 N 0.65336 0.60729 0.53969 0.0
N573 N 0.623 0.54034 0.73269 0.0
H574 H 0.51266 0.49845 0.64607 0.0
H575 H 0.53537 0.49011 0.7014 0.0
H576 H 0.65131 0.54748 0.75674 0.0
H577 H 0.59094 0.53059 0.751 0.0
H578 H 0.68775 0.63147 0.52691 0.0
H579 H 0.62608 0.60718 0.51853 0.0
H580 H 0.73339 0.60735 0.55252 0.0
H581 H 0.75663 0.60289 0.60955 0.0
C582 C 0.10334 0.643 0.12557 0.0
C583 C 0.05489 0.6308 0.11801 0.0
C584 C 0.06565 0.68914 0.18382 0.0
C585 C 0.11598 0.70594 0.18562 0.0
N586 N 0.18313 0.70782 0.1423 0.0
N587 N 0.9932 0.65121 0.13317 0.0
C588 C 0.13493 0.68582 0.15142 0.0
C589 C 0.0369 0.65655 0.14508 0.0
N590 N 0.11907 0.61248 0.11091 0.0
N591 N 0.04438 0.70172 0.22006 0.0
H592 H 0.97204 0.62935 0.10402 0.0
H593 H 0.98054 0.67247 0.14877 0.0
H594 H 0.06296 0.72327 0.25038 0.0
H595 H 0.00723 0.68649 0.22265 0.0
H596 H 0.15341 0.61873 0.11941 0.0
H597 H 0.09617 0.5781 0.09678 0.0
H598 H 0.19738 0.6958 0.11474 0.0
H599 H 0.20799 0.74105 0.15738 0.0
loop_
_geom_bond_atom_site_label_1
_geom_bond_atom_site_label_2
_geom_bond_distance
_geom_bond_site_symmetry_2
_ccdc_geom_bond_type
C0 O2 1.258 . S
C0 O4 1.258 . S
C1 O8 1.254 . S
C1 O9 1.258 . S
O2 C0 1.258 . S
O2 Zn3 2.025 1_455 S
Zn3 O2 2.025 1_655 S
Zn3 O7 2.035 1_554 S
Zn3 O9 2.035 1_554 S
Zn3 O10 2.014 1_655 S
O4 C0 1.258 . S
O4 Zn5 2.035 1_554 S
Zn5 O4 2.035 1_556 S
Zn5 O6 2.019 1_455 S
Zn5 O8 2.026 1_455 S
Zn5 O11 2.035 1_556 S
O6 Zn5 2.019 1_655 S
O6 C12 1.256 . S
O7 Zn3 2.035 1_556 S
O7 C12 1.258 . S
O8 C1 1.254 . S
O8 Zn5 2.026 1_655 S
O9 C1 1.258 . S
O9 Zn3 2.035 1_556 S
O10 Zn3 2.014 1_455 S
O10 C13 1.263 . S
O11 Zn5 2.035 1_554 S
O11 C13 1.258 . S
C12 O6 1.256 . S
C12 O7 1.258 . S
C13 O10 1.263 . S
C13 O11 1.258 . S
C14 O16 1.263 . S
C14 O18 1.258 . S
C15 O22 1.257 . S
C15 O23 1.258 . S
O16 C14 1.263 . S
O16 Zn17 2.014 1_545 S
Zn17 O16 2.014 1_565 S
Zn17 O21 2.035 . S
Zn17 O23 2.035 . S
Zn17 O24 2.025 1_565 S
O18 C14 1.258 . S
O18 Zn19 2.035 . S
Zn19 O18 2.035 . S
Zn19 O20 2.026 1_545 S
Zn19 O22 2.019 1_545 S
Zn19 O25 2.035 . S
O20 Zn19 2.026 1_565 S
O20 C26 1.254 . S
O21 Zn17 2.035 . S
O21 C26 1.258 . S
O22 C15 1.257 . S
O22 Zn19 2.019 1_565 S
O23 C15 1.258 . S
O23 Zn17 2.035 . S
O24 Zn17 2.025 1_545 S
O24 C27 1.258 . S
O25 Zn19 2.035 . S
O25 C27 1.258 . S
C26 O20 1.254 . S
C26 O21 1.258 . S
C27 O24 1.258 . S
C27 O25 1.258 . S
C28 O30 1.247 . S
C28 O32 1.258 . S
C29 O36 1.247 . S
C29 O37 1.258 . S
O30 C28 1.247 . S
O30 Zn31 2.028 . S
Zn31 O30 2.028 . S
Zn31 O35 2.035 1_556 S
Zn31 O37 2.035 1_556 S
Zn31 O38 2.028 . S
O32 C28 1.258 . S
O32 Zn33 2.035 1_556 S
Zn33 O32 2.035 1_554 S
Zn33 O34 2.028 . S
Zn33 O36 2.028 . S
Zn33 O39 2.035 1_554 S
O34 Zn33 2.028 . S
O34 C40 1.247 . S
O35 Zn31 2.035 1_554 S
O35 C40 1.258 . S
O36 C29 1.247 . S
O36 Zn33 2.028 . S
O37 C29 1.258 . S
O37 Zn31 2.035 1_554 S
O38 Zn31 2.028 . S
O38 C41 1.247 . S
O39 Zn33 2.035 1_556 S
O39 C41 1.258 . S
C40 O34 1.247 . S
C40 O35 1.258 . S
C41 O38 1.247 . S
C41 O39 1.258 . S
C42 O44 1.247 . S
C42 O46 1.271 . S
C43 O50 1.247 . S
C43 O51 1.266 . S
O44 C42 1.247 . S
O44 Zn45 2.028 . S
Zn45 O44 2.028 . S
Zn45 O49 2.025 1_455 S
Zn45 O51 2.033 1_455 S
Zn45 O52 2.028 . S
O46 C42 1.271 . S
O46 Zn47 2.032 1_455 S
Zn47 O46 2.032 1_655 S
Zn47 O48 2.028 . S
Zn47 O50 2.028 . S
Zn47 O53 2.019 1_655 S
O48 Zn47 2.028 . S
O48 C54 1.247 . S
O49 Zn45 2.025 1_655 S
O49 C54 1.270 . S
O50 C43 1.247 . S
O50 Zn47 2.028 . S
O51 C43 1.266 . S
O51 Zn45 2.033 1_655 S
O52 Zn45 2.028 . S
O52 C55 1.247 . S
O53 Zn47 2.019 1_455 S
O53 C55 1.276 . S
C54 O48 1.247 . S
C54 O49 1.270 . S
C55 O52 1.247 . S
C55 O53 1.276 . S
C56 O58 1.257 . S
C56 O60 1.258 . S
C57 O64 1.263 . S
C57 O65 1.258 . S
O58 C56 1.257 . S
O58 Zn59 2.019 1_565 S
Zn59 O58 2.019 1_545 S
Zn59 O63 2.035 1_554 S
Zn59 O65 2.035 1_554 S
Zn59 O66 2.026 1_545 S
O60 C56 1.258 . S
O60 Zn61 2.035 1_554 S
Zn61 O60 2.035 1_556 S
Zn61 O62 2.025 1_565 S
Zn61 O64 2.014 1_565 S
Zn61 O67 2.035 1_556 S
O62 Zn61 2.025 1_545 S
O62 C68 1.258 . S
O63 Zn59 2.035 1_556 S
O63 C68 1.258 . S
O64 C57 1.263 . S
O64 Zn61 2.014 1_545 S
O65 C57 1.258 . S
O65 Zn59 2.035 1_556 S
O66 Zn59 2.026 1_565 S
O66 C69 1.254 . S
O67 Zn61 2.035 1_554 S
O67 C69 1.258 . S
C68 O62 1.258 . S
C68 O63 1.258 . S
C69 O66 1.254 . S
C69 O67 1.258 . S
C70 O72 1.247 . S
C70 O74 1.258 . S
C71 O78 1.247 . S
C71 O79 1.258 . S
O72 C70 1.247 . S
O72 Zn73 2.028 . S
Zn73 O72 2.028 . S
Zn73 O77 2.035 . S
Zn73 O79 2.035 . S
Zn73 O80 2.028 . S
O74 C70 1.258 . S
O74 Zn75 2.035 . S
Zn75 O74 2.035 . S
Zn75 O76 2.028 . S
Zn75 O78 2.028 . S
Zn75 O81 2.035 . S
O76 Zn75 2.028 . S
O76 C82 1.247 . S
O77 Zn73 2.035 . S
O77 C82 1.258 . S
O78 C71 1.247 . S
O78 Zn75 2.028 . S
O79 C71 1.258 . S
O79 Zn73 2.035 . S
O80 Zn73 2.028 . S
O80 C83 1.247 . S
O81 Zn75 2.035 . S
O81 C83 1.258 . S
C82 O76 1.247 . S
C82 O77 1.258 . S
C83 O80 1.247 . S
C83 O81 1.258 . S
C84 O86 1.247 . S
C84 O88 1.258 . S
C85 O92 1.247 . S
C85 O93 1.258 . S
O86 C84 1.247 . S
O86 Zn87 2.028 . S
Zn87 O86 2.028 . S
Zn87 O91 2.035 . S
Zn87 O93 2.035 . S
Zn87 O94 2.028 . S
O88 C84 1.258 . S
O88 Zn89 2.035 . S
Zn89 O88 2.035 . S
Zn89 O90 2.028 . S
Zn89 O92 2.028 . S
Zn89 O95 2.035 . S
O90 Zn89 2.028 . S
O90 C96 1.247 . S
O91 Zn87 2.035 . S
O91 C96 1.258 . S
O92 C85 1.247 . S
O92 Zn89 2.028 . S
O93 C85 1.258 . S
O93 Zn87 2.035 . S
O94 Zn87 2.028 . S
O94 C97 1.247 . S
O95 Zn89 2.035 . S
O95 C97 1.258 . S
C96 O90 1.247 . S
C96 O91 1.258 . S
C97 O94 1.247 . S
C97 O95 1.258 . S
C98 O100 1.247 . S
C98 O102 1.258 . S
C99 O106 1.247 . S
C99 O107 1.258 . S
O100 C98 1.247 . S
O100 Zn101 2.028 . S
Zn101 O100 2.028 . S
Zn101 O105 2.035 . S
Zn101 O107 2.035 . S
Zn101 O108 2.028 . S
O102 C98 1.258 . S
O102 Zn103 2.035 . S
Zn103 O102 2.035 . S
Zn103 O104 2.028 . S
Zn103 O106 2.028 . S
Zn103 O109 2.035 . S
O104 Zn103 2.028 . S
O104 C110 1.247 . S
O105 Zn101 2.035 . S
O105 C110 1.258 . S
O106 C99 1.247 . S
O106 Zn103 2.028 . S
O107 C99 1.258 . S
O107 Zn101 2.035 . S
O108 Zn101 2.028 . S
O108 C111 1.247 . S
O109 Zn103 2.035 . S
O109 C111 1.258 . S
C110 O104 1.247 . S
C110 O105 1.258 . S
C111 O108 1.247 . S
C111 O109 1.258 . S
C112 O114 1.247 . S
C112 O116 1.258 . S
C113 O120 1.247 . S
C113 O121 1.258 . S
O114 C112 1.247 . S
O114 Zn115 2.028 . S
Zn115 O114 2.028 . S
Zn115 O119 2.035 . S
Zn115 O121 2.035 . S
Zn115 O122 2.028 . S
O116 C112 1.258 . S
O116 Zn117 2.035 . S
Zn117 O116 2.035 . S
Zn117 O118 2.028 . S
Zn117 O120 2.028 . S
Zn117 O123 2.035 . S
O118 Zn117 2.028 . S
O118 C124 1.247 . S
O119 Zn115 2.035 . S
O119 C124 1.258 . S
O120 C113 1.247 . S
O120 Zn117 2.028 . S
O121 C113 1.258 . S
O121 Zn115 2.035 . S
O122 Zn115 2.028 . S
O122 C125 1.247 . S
O123 Zn117 2.035 . S
O123 C125 1.258 . S
C124 O118 1.247 . S
C124 O119 1.258 . S
C125 O122 1.247 . S
C125 O123 1.258 . S
C126 O128 1.247 . S
C126 O130 1.258 . S
C127 O134 1.247 . S
C127 O135 1.258 . S
O128 C126 1.247 . S
O128 Zn129 2.028 . S
Zn129 O128 2.028 . S
Zn129 O133 2.035 . S
Zn129 O135 2.035 . S
Zn129 O136 2.028 . S
O130 C126 1.258 . S
O130 Zn131 2.035 . S
Zn131 O130 2.035 . S
Zn131 O132 2.028 . S
Zn131 O134 2.028 . S
Zn131 O137 2.035 . S
O132 Zn131 2.028 . S
O132 C138 1.247 . S
O133 Zn129 2.035 . S
O133 C138 1.258 . S
O134 C127 1.247 . S
O134 Zn131 2.028 . S
O135 C127 1.258 . S
O135 Zn129 2.035 . S
O136 Zn129 2.028 . S
O136 C139 1.247 . S
O137 Zn131 2.035 . S
O137 C139 1.258 . S
C138 O132 1.247 . S
C138 O133 1.258 . S
C139 O136 1.247 . S
C139 O137 1.258 . S
C140 O142 1.247 . S
C140 O144 1.258 . S
C141 O148 1.247 . S
C141 O149 1.258 . S
O142 C140 1.247 . S
O142 Zn143 2.028 . S
Zn143 O142 2.028 . S
Zn143 O147 2.035 . S
Zn143 O149 2.035 . S
Zn143 O150 2.028 . S
O144 C140 1.258 . S
O144 Zn145 2.035 . S
Zn145 O144 2.035 . S
Zn145 O146 2.028 . S
Zn145 O148 2.028 . S
Zn145 O151 2.035 . S
O146 Zn145 2.028 . S
O146 C152 1.247 . S
O147 Zn143 2.035 . S
O147 C152 1.258 . S
O148 C141 1.247 . S
O148 Zn145 2.028 . S
O149 C141 1.258 . S
O149 Zn143 2.035 . S
O150 Zn143 2.028 . S
O150 C153 1.247 . S
O151 Zn145 2.035 . S
O151 C153 1.258 . S
C152 O146 1.247 . S
C152 O147 1.258 . S
C153 O150 1.247 . S
C153 O151 1.258 . S
C154 O156 1.247 . S
C154 O158 1.258 . S
C155 O162 1.247 . S
C155 O163 1.258 . S
O156 C154 1.247 . S
O156 Zn157 2.028 . S
Zn157 O156 2.028 . S
Zn157 O161 2.035 . S
Zn157 O163 2.035 . S
Zn157 O164 2.028 . S
O158 C154 1.258 . S
O158 Zn159 2.035 . S
Zn159 O158 2.035 . S
Zn159 O160 2.028 . S
Zn159 O162 2.028 . S
Zn159 O165 2.035 . S
O160 Zn159 2.028 . S
O160 C166 1.247 . S
O161 Zn157 2.035 . S
O161 C166 1.258 . S
O162 C155 1.247 . S
O162 Zn159 2.028 . S
O163 C155 1.258 . S
O163 Zn157 2.035 . S
O164 Zn157 2.028 . S
O164 C167 1.247 . S
O165 Zn159 2.035 . S
O165 C167 1.258 . S
C166 O160 1.247 . S
C166 O161 1.258 . S
C167 O164 1.247 . S
C167 O165 1.258 . S
C168 C169 1.363 . S
C168 C174 1.379 . S
C168 N176 1.356 1_455 S
C169 C168 1.363 . S
C169 C175 1.363 . S
C170 C171 1.363 . S
C170 C175 1.379 . S
C170 N177 1.356 . S
C171 C170 1.363 . S
C171 C174 1.363 . S
N172 C174 1.356 . S
N172 H184 0.984 . S
N172 H185 0.985 . S
N173 C175 1.356 . S
N173 H178 0.984 . S
N173 H179 0.985 . S
C174 C168 1.379 . S
C174 C171 1.363 . S
C174 N172 1.356 . S
C175 C169 1.363 . S
C175 C170 1.379 . S
C175 N173 1.356 . S
N176 C168 1.356 1_655 S
N176 H182 0.984 . S
N176 H183 0.984 . S
N177 C170 1.356 . S
N177 H180 0.984 . S
N177 H181 0.985 . S
H178 N173 0.984 . S
H179 N173 0.985 . S
H180 N177 0.984 . S
H181 N177 0.985 . S
H182 N176 0.984 . S
H183 N176 0.984 . S
H184 N172 0.984 . S
H185 N172 0.985 . S
C186 C187 1.363 . S
C186 C192 1.379 . S
C186 N194 1.356 . S
C187 C186 1.363 . S
C187 C193 1.363 . S
C188 C189 1.363 . S
C188 C193 1.379 . S
C188 N195 1.356 . S
C189 C188 1.363 . S
C189 C192 1.363 . S
N190 C192 1.356 . S
N190 H202 0.984 . S
N190 H203 0.985 . S
N191 C193 1.356 . S
N191 H196 0.984 . S
N191 H197 0.985 . S
C192 C186 1.379 . S
C192 C189 1.363 . S
C192 N190 1.356 . S
C193 C187 1.363 . S
C193 C188 1.379 . S
C193 N191 1.356 . S
N194 C186 1.356 . S
N194 H200 0.984 1_545 S
N194 H201 0.984 . S
N195 C188 1.356 . S
N195 H198 0.984 . S
N195 H199 0.985 . S
H196 N191 0.984 . S
H197 N191 0.985 . S
H198 N195 0.984 . S
H199 N195 0.985 . S
H200 N194 0.984 1_565 S
H201 N194 0.984 . S
H202 N190 0.984 . S
H203 N190 0.985 . S
C204 C205 1.363 . S
C204 C210 1.379 . S
C204 N212 1.356 . S
C205 C204 1.363 . S
C205 C211 1.363 . S
C206 C207 1.363 . S
C206 C211 1.379 . S
C206 N213 1.356 . S
C207 C206 1.363 . S
C207 C210 1.363 . S
N208 C210 1.356 . S
N208 H220 0.984 . S
N208 H221 0.985 . S
N209 C211 1.356 . S
N209 H214 0.984 . S
N209 H215 0.985 . S
C210 C204 1.379 . S
C210 C207 1.363 . S
C210 N208 1.356 . S
C211 C205 1.363 . S
C211 C206 1.379 . S
C211 N209 1.356 . S
N212 C204 1.356 . S
N212 H218 0.984 . S
N212 H219 0.984 . S
N213 C206 1.356 . S
N213 H216 0.984 . S
N213 H217 0.985 . S
H214 N209 0.984 . S
H215 N209 0.985 . S
H216 N213 0.984 . S
H217 N213 0.985 . S
H218 N212 0.984 . S
H219 N212 0.984 . S
H220 N208 0.984 . S
H221 N208 0.985 . S
C222 C223 1.363 . S
C222 C228 1.379 . S
C222 N230 1.356 . S
C223 C222 1.363 . S
C223 C229 1.363 . S
C224 C225 1.363 . S
C224 C229 1.379 . S
C224 N231 1.356 . S
C225 C224 1.363 . S
C225 C228 1.363 . S
N226 C228 1.356 . S
N226 H238 0.984 . S
N226 H239 0.985 . S
N227 C229 1.356 . S
N227 H232 0.984 . S
N227 H233 0.985 . S
C228 C222 1.379 . S
C228 C225 1.363 . S
C228 N226 1.356 . S
C229 C223 1.363 . S
C229 C224 1.379 . S
C229 N227 1.356 . S
N230 C222 1.356 . S
N230 H236 0.984 . S
N230 H237 0.984 . S
N231 C224 1.356 . S
N231 H234 0.984 . S
N231 H235 0.985 . S
H232 N227 0.984 . S
H233 N227 0.985 . S
H234 N231 0.984 . S
H235 N231 0.985 . S
H236 N230 0.984 . S
H237 N230 0.984 . S
H238 N226 0.984 . S
H239 N226 0.985 . S
C240 C241 1.363 . S
C240 C246 1.379 . S
C240 N248 1.356 . S
C241 C240 1.363 . S
C241 C247 1.363 . S
C242 C243 1.363 . S
C242 C247 1.379 . S
C242 N249 1.356 . S
C243 C242 1.363 . S
C243 C246 1.363 . S
N244 C246 1.356 . S
N244 H256 0.984 . S
N244 H257 0.985 . S
N245 C247 1.356 . S
N245 H250 0.984 . S
N245 H251 0.985 . S
C246 C240 1.379 . S
C246 C243 1.363 . S
C246 N244 1.356 . S
C247 C241 1.363 . S
C247 C242 1.379 . S
C247 N245 1.356 . S
N248 C240 1.356 . S
N248 H254 0.984 1_565 S
N248 H255 0.984 . S
N249 C242 1.356 . S
N249 H252 0.984 . S
N249 H253 0.985 . S
H250 N245 0.984 . S
H251 N245 0.985 . S
H252 N249 0.984 . S
H253 N249 0.985 . S
H254 N248 0.984 1_545 S
H255 N248 0.984 . S
H256 N244 0.984 . S
H257 N244 0.985 . S
C258 C259 1.363 . S
C258 C264 1.379 . S
C258 N266 1.356 . S
C259 C258 1.363 . S
C259 C265 1.363 . S
C260 C261 1.363 . S
C260 C265 1.379 . S
C260 N267 1.356 . S
C261 C260 1.363 . S
C261 C264 1.363 . S
N262 C264 1.356 . S
N262 H274 0.984 . S
N262 H275 0.985 . S
N263 C265 1.356 . S
N263 H268 0.984 . S
N263 H269 0.985 . S
C264 C258 1.379 . S
C264 C261 1.363 . S
C264 N262 1.356 . S
C265 C259 1.363 . S
C265 C260 1.379 . S
C265 N263 1.356 . S
N266 C258 1.356 . S
N266 H272 0.984 . S
N266 H273 0.984 . S
N267 C260 1.356 . S
N267 H270 0.984 . S
N267 H271 0.985 . S
H268 N263 0.984 . S
H269 N263 0.985 . S
H270 N267 0.984 . S
H271 N267 0.985 . S
H272 N266 0.984 . S
H273 N266 0.984 . S
H274 N262 0.984 . S
H275 N262 0.985 . S
C276 C277 1.363 . S
C276 C282 1.379 . S
C276 N284 1.356 . S
C277 C276 1.363 . S
C277 C283 1.363 . S
C278 C279 1.363 . S
C278 C283 1.379 . S
C278 N285 1.356 . S
C279 C278 1.363 . S
C279 C282 1.363 . S
N280 C282 1.356 . S
N280 H292 0.984 . S
N280 H293 0.985 . S
N281 C283 1.356 . S
N281 H286 0.984 . S
N281 H287 0.985 . S
C282 C276 1.379 . S
C282 C279 1.363 . S
C282 N280 1.356 . S
C283 C277 1.363 . S
C283 C278 1.379 . S
C283 N281 1.356 . S
N284 C276 1.356 . S
N284 H290 0.984 1_565 S
N284 H291 0.984 . S
N285 C278 1.356 . S
N285 H288 0.984 . S
N285 H289 0.985 . S
H286 N281 0.984 . S
H287 N281 0.985 . S
H288 N285 0.984 . S
H289 N285 0.985 . S
H290 N284 0.984 1_545 S
H291 N284 0.984 . S
H292 N280 0.984 . S
H293 N280 0.985 . S
C294 C295 1.363 . S
C294 C300 1.379 . S
C294 N302 1.356 . S
C295 C294 1.363 . S
C295 C301 1.363 . S
C296 C297 1.363 . S
C296 C301 1.379 . S
C296 N303 1.356 . S
C297 C296 1.363 . S
C297 C300 1.363 . S
N298 C300 1.356 . S
N298 H310 0.984 . S
N298 H311 0.985 . S
N299 C301 1.356 . S
N299 H304 0.984 . S
N299 H305 0.985 . S
C300 C294 1.379 . S
C300 C297 1.363 . S
C300 N298 1.356 . S
C301 C295 1.363 . S
C301 C296 1.379 . S
C301 N299 1.356 . S
N302 C294 1.356 . S
N302 H308 0.984 . S
N302 H309 0.984 . S
N303 C296 1.356 . S
N303 H306 0.984 . S
N303 H307 0.985 . S
H304 N299 0.984 . S
H305 N299 0.985 . S
H306 N303 0.984 . S
H307 N303 0.985 . S
H308 N302 0.984 . S
H309 N302 0.984 . S
H310 N298 0.984 . S
H311 N298 0.985 . S
C312 C313 1.363 . S
C312 C318 1.379 . S
C312 N320 1.356 . S
C313 C312 1.363 . S
C313 C319 1.363 . S
C314 C315 1.363 . S
C314 C319 1.379 . S
C314 N321 1.356 . S
C315 C314 1.363 . S
C315 C318 1.363 . S
N316 C318 1.356 . S
N316 H328 0.984 . S
N316 H329 0.985 . S
N317 C319 1.356 . S
N317 H322 0.984 . S
N317 H323 0.985 . S
C318 C312 1.379 . S
C318 C315 1.363 . S
C318 N316 1.356 . S
C319 C313 1.363 . S
C319 C314 1.379 . S
C319 N317 1.356 . S
N320 C312 1.356 . S
N320 H326 0.984 . S
N320 H327 0.984 . S
N321 C314 1.356 . S
N321 H324 0.984 . S
N321 H325 0.985 . S
H322 N317 0.984 . S
H323 N317 0.985 . S
H324 N321 0.984 . S
H325 N321 0.985 . S
H326 N320 0.984 . S
H327 N320 0.984 . S
H328 N316 0.984 . S
H329 N316 0.985 . S
C330 C331 1.363 . S
C330 C336 1.379 . S
C330 N338 1.356 . S
C331 C330 1.363 . S
C331 C337 1.363 . S
C332 C333 1.363 . S
C332 C337 1.379 . S
C332 N339 1.356 . S
C333 C332 1.363 . S
C333 C336 1.363 . S
N334 C336 1.356 . S
N334 H346 0.984 . S
N334 H347 0.985 . S
N335 C337 1.356 1_565 S
N335 H340 0.984 . S
N335 H341 0.985 . S
C336 C330 1.379 . S
C336 C333 1.363 . S
C336 N334 1.356 . S
C337 C331 1.363 . S
C337 C332 1.379 . S
C337 N335 1.356 1_545 S
N338 C330 1.356 . S
N338 H344 0.984 . S
N338 H345 0.984 . S
N339 C332 1.356 . S
N339 H342 0.984 . S
N339 H343 0.985 . S
H340 N335 0.984 . S
H341 N335 0.985 . S
H342 N339 0.984 . S
H343 N339 0.985 . S
H344 N338 0.984 . S
H345 N338 0.984 . S
H346 N334 0.984 . S
H347 N334 0.985 . S
C348 C349 1.363 . S
C348 C354 1.379 . S
C348 N356 1.356 . S
C349 C348 1.363 . S
C349 C355 1.363 . S
C350 C351 1.363 . S
C350 C355 1.379 . S
C350 N357 1.356 . S
C351 C350 1.363 . S
C351 C354 1.363 . S
N352 C354 1.356 . S
N352 H364 0.984 . S
N352 H365 0.985 . S
N353 C355 1.356 . S
N353 H358 0.984 . S
N353 H359 0.985 . S
C354 C348 1.379 . S
C354 C351 1.363 . S
C354 N352 1.356 . S
C355 C349 1.363 . S
C355 C350 1.379 . S
C355 N353 1.356 . S
N356 C348 1.356 . S
N356 H362 0.984 . S
N356 H363 0.984 . S
N357 C350 1.356 . S
N357 H360 0.984 . S
N357 H361 0.985 . S
H358 N353 0.984 . S
H359 N353 0.985 . S
H360 N357 0.984 . S
H361 N357 0.985 . S
H362 N356 0.984 . S
H363 N356 0.984 . S
H364 N352 0.984 . S
H365 N352 0.985 . S
C366 C367 1.363 . S
C366 C372 1.379 . S
C366 N374 1.356 . S
C367 C366 1.363 . S
C367 C373 1.363 . S
C368 C369 1.363 . S
C368 C373 1.379 . S
C368 N375 1.356 . S
C369 C368 1.363 . S
C369 C372 1.363 . S
N370 C372 1.356 . S
N370 H382 0.984 . S
N370 H383 0.985 . S
N371 C373 1.356 . S
N371 H376 0.984 . S
N371 H377 0.985 . S
C372 C366 1.379 . S
C372 C369 1.363 . S
C372 N370 1.356 . S
C373 C367 1.363 . S
C373 C368 1.379 . S
C373 N371 1.356 . S
N374 C366 1.356 . S
N374 H380 0.984 . S
N374 H381 0.984 . S
N375 C368 1.356 . S
N375 H378 0.984 . S
N375 H379 0.985 . S
H376 N371 0.984 . S
H377 N371 0.985 . S
H378 N375 0.984 . S
H379 N375 0.985 . S
H380 N374 0.984 . S
H381 N374 0.984 . S
H382 N370 0.984 . S
H383 N370 0.985 . S
C384 C385 1.363 . S
C384 C390 1.379 . S
C384 N392 1.356 . S
C385 C384 1.363 . S
C385 C391 1.363 . S
C386 C387 1.363 . S
C386 C391 1.379 . S
C386 N393 1.356 . S
C387 C386 1.363 . S
C387 C390 1.363 . S
N388 C390 1.356 . S
N388 H400 0.984 . S
N388 H401 0.985 . S
N389 C391 1.356 . S
N389 H394 0.984 . S
N389 H395 0.985 1_556 S
C390 C384 1.379 . S
C390 C387 1.363 . S
C390 N388 1.356 . S
C391 C385 1.363 . S
C391 C386 1.379 . S
C391 N389 1.356 . S
N392 C384 1.356 . S
N392 H398 0.984 . S
N392 H399 0.984 . S
N393 C386 1.356 . S
N393 H396 0.984 . S
N393 H397 0.985 . S
H394 N389 0.984 . S
H395 N389 0.985 1_554 S
H396 N393 0.984 . S
H397 N393 0.985 . S
H398 N392 0.984 . S
H399 N392 0.984 . S
H400 N388 0.984 . S
H401 N388 0.985 . S
C402 C403 1.363 . S
C402 C408 1.379 . S
C402 N410 1.356 . S
C403 C402 1.363 . S
C403 C409 1.363 . S
C404 C405 1.363 . S
C404 C409 1.379 . S
C404 N411 1.356 . S
C405 C404 1.363 . S
C405 C408 1.363 . S
N406 C408 1.356 . S
N406 H418 0.984 . S
N406 H419 0.985 . S
N407 C409 1.356 . S
N407 H412 0.984 . S
N407 H413 0.985 . S
C408 C402 1.379 . S
C408 C405 1.363 . S
C408 N406 1.356 . S
C409 C403 1.363 . S
C409 C404 1.379 . S
C409 N407 1.356 . S
N410 C402 1.356 . S
N410 H416 0.984 1_565 S
N410 H417 0.984 . S
N411 C404 1.356 . S
N411 H414 0.984 . S
N411 H415 0.985 . S
H412 N407 0.984 . S
H413 N407 0.985 . S
H414 N411 0.984 . S
H415 N411 0.985 . S
H416 N410 0.984 1_545 S
H417 N410 0.984 . S
H418 N406 0.984 . S
H419 N406 0.985 . S
C420 C421 1.363 . S
C420 C426 1.379 . S
C420 N428 1.356 . S
C421 C420 1.363 . S
C421 C427 1.363 . S
C422 C423 1.363 . S
C422 C427 1.379 . S
C422 N429 1.356 . S
C423 C422 1.363 . S
C423 C426 1.363 . S
N424 C426 1.356 . S
N424 H436 0.984 . S
N424 H437 0.985 . S
N425 C427 1.356 . S
N425 H430 0.984 . S
N425 H431 0.985 . S
C426 C420 1.379 . S
C426 C423 1.363 . S
C426 N424 1.356 . S
C427 C421 1.363 . S
C427 C422 1.379 . S
C427 N425 1.356 . S
N428 C420 1.356 . S
N428 H434 0.984 . S
N428 H435 0.984 . S
N429 C422 1.356 . S
N429 H432 0.984 . S
N429 H433 0.985 . S
H430 N425 0.984 . S
H431 N425 0.985 . S
H432 N429 0.984 . S
H433 N429 0.985 . S
H434 N428 0.984 . S
H435 N428 0.984 . S
H436 N424 0.984 . S
H437 N424 0.985 . S
C438 C439 1.363 . S
C438 C444 1.379 . S
C438 N446 1.356 . S
C439 C438 1.363 . S
C439 C445 1.363 . S
C440 C441 1.363 . S
C440 C445 1.379 . S
C440 N447 1.356 . S
C441 C440 1.363 . S
C441 C444 1.363 . S
N442 C444 1.356 . S
N442 H454 0.984 . S
N442 H455 0.985 . S
N443 C445 1.356 . S
N443 H448 0.984 . S
N443 H449 0.985 . S
C444 C438 1.379 . S
C444 C441 1.363 . S
C444 N442 1.356 . S
C445 C439 1.363 . S
C445 C440 1.379 . S
C445 N443 1.356 . S
N446 C438 1.356 . S
N446 H452 0.984 . S
N446 H453 0.984 . S
N447 C440 1.356 . S
N447 H450 0.984 . S
N447 H451 0.985 . S
H448 N443 0.984 . S
H449 N443 0.985 . S
H450 N447 0.984 . S
H451 N447 0.985 . S
H452 N446 0.984 . S
H453 N446 0.984 . S
H454 N442 0.984 . S
H455 N442 0.985 . S
C456 C457 1.363 . S
C456 C462 1.379 . S
C456 N464 1.356 1_545 S
C457 C456 1.363 . S
C457 C463 1.363 . S
C458 C459 1.363 . S
C458 C463 1.379 . S
C458 N465 1.356 . S
C459 C458 1.363 . S
C459 C462 1.363 . S
N460 C462 1.356 . S
N460 H472 0.984 . S
N460 H473 0.985 . S
N461 C463 1.356 . S
N461 H466 0.984 . S
N461 H467 0.985 . S
C462 C456 1.379 . S
C462 C459 1.363 . S
C462 N460 1.356 . S
C463 C457 1.363 . S
C463 C458 1.379 . S
C463 N461 1.356 . S
N464 C456 1.356 1_565 S
N464 H470 0.984 . S
N464 H471 0.984 . S
N465 C458 1.356 . S
N465 H468 0.984 . S
N465 H469 0.985 . S
H466 N461 0.984 . S
H467 N461 0.985 . S
H468 N465 0.984 . S
H469 N465 0.985 . S
H470 N464 0.984 . S
H471 N464 0.984 . S
H472 N460 0.984 . S
H473 N460 0.985 . S
C474 C475 1.363 . S
C474 C480 1.379 . S
C474 N482 1.356 . S
C475 C474 1.363 . S
C475 C481 1.363 . S
C476 C477 1.363 . S
C476 C481 1.379 . S
C476 N483 1.356 . S
C477 C476 1.363 . S
C477 C480 1.363 . S
N478 C480 1.356 . S
N478 H490 0.984 . S
N478 H491 0.985 . S
N479 C481 1.356 . S
N479 H484 0.984 . S
N479 H485 0.985 . S
C480 C474 1.379 . S
C480 C477 1.363 . S
C480 N478 1.356 . S
C481 C475 1.363 . S
C481 C476 1.379 . S
C481 N479 1.356 . S
N482 C474 1.356 . S
N482 H488 0.984 . S
N482 H489 0.984 . S
N483 C476 1.356 . S
N483 H486 0.984 . S
N483 H487 0.985 . S
H484 N479 0.984 . S
H485 N479 0.985 . S
H486 N483 0.984 . S
H487 N483 0.985 . S
H488 N482 0.984 . S
H489 N482 0.984 . S
H490 N478 0.984 . S
H491 N478 0.985 . S
C492 C493 1.363 . S
C492 C498 1.379 . S
C492 N500 1.356 . S
C493 C492 1.363 . S
C493 C499 1.363 . S
C494 C495 1.363 . S
C494 C499 1.379 . S
C494 N501 1.356 . S
C495 C494 1.363 . S
C495 C498 1.363 . S
N496 C498 1.356 . S
N496 H508 0.984 . S
N496 H509 0.985 . S
N497 C499 1.356 . S
N497 H502 0.984 . S
N497 H503 0.985 . S
C498 C492 1.379 . S
C498 C495 1.363 . S
C498 N496 1.356 . S
C499 C493 1.363 . S
C499 C494 1.379 . S
C499 N497 1.356 . S
N500 C492 1.356 . S
N500 H506 0.984 1_545 S
N500 H507 0.984 . S
N501 C494 1.356 . S
N501 H504 0.984 . S
N501 H505 0.985 . S
H502 N497 0.984 . S
H503 N497 0.985 . S
H504 N501 0.984 . S
H505 N501 0.985 . S
H506 N500 0.984 1_565 S
H507 N500 0.984 . S
H508 N496 0.984 . S
H509 N496 0.985 . S
C510 C511 1.363 . S
C510 C516 1.379 . S
C510 N518 1.356 . S
C511 C510 1.363 . S
C511 C517 1.363 . S
C512 C513 1.363 . S
C512 C517 1.379 . S
C512 N519 1.356 . S
C513 C512 1.363 . S
C513 C516 1.363 . S
N514 C516 1.356 . S
N514 H526 0.984 . S
N514 H527 0.985 . S
N515 C517 1.356 . S
N515 H520 0.984 . S
N515 H521 0.985 . S
C516 C510 1.379 . S
C516 C513 1.363 . S
C516 N514 1.356 . S
C517 C511 1.363 . S
C517 C512 1.379 . S
C517 N515 1.356 . S
N518 C510 1.356 . S
N518 H524 0.978 1_554 S
N518 H525 0.984 . S
N519 C512 1.356 . S
N519 H522 0.984 . S
N519 H523 0.985 . S
H520 N515 0.984 . S
H521 N515 0.985 . S
H522 N519 0.984 . S
H523 N519 0.985 . S
H524 N518 0.978 1_556 S
H525 N518 0.984 . S
H526 N514 0.984 . S
H527 N514 0.985 . S
C528 C529 1.363 . S
C528 C534 1.379 . S
C528 N536 1.356 . S
C529 C528 1.363 . S
C529 C535 1.363 . S
C530 C531 1.363 . S
C530 C535 1.379 . S
C530 N537 1.356 . S
C531 C530 1.363 . S
C531 C534 1.363 . S
N532 C534 1.356 . S
N532 H544 0.984 . S
N532 H545 0.985 . S
N533 C535 1.356 . S
N533 H538 0.984 . S
N533 H539 0.985 . S
C534 C528 1.379 . S
C534 C531 1.363 . S
C534 N532 1.356 . S
C535 C529 1.363 . S
C535 C530 1.379 . S
C535 N533 1.356 . S
N536 C528 1.356 . S
N536 H542 0.984 1_655 S
N536 H543 0.984 1_655 S
N537 C530 1.356 . S
N537 H540 0.984 . S
N537 H541 0.985 . S
H538 N533 0.984 . S
H539 N533 0.985 . S
H540 N537 0.984 . S
H541 N537 0.985 . S
H542 N536 0.984 1_455 S
H543 N536 0.984 1_455 S
H544 N532 0.984 . S
H545 N532 0.985 . S
C546 C547 1.363 . S
C546 C552 1.379 . S
C546 N554 1.356 . S
C547 C546 1.363 . S
C547 C553 1.363 . S
C548 C549 1.363 . S
C548 C553 1.379 . S
C548 N555 1.356 . S
C549 C548 1.363 . S
C549 C552 1.363 . S
N550 C552 1.356 . S
N550 H562 0.984 . S
N550 H563 0.985 . S
N551 C553 1.356 . S
N551 H556 0.984 . S
N551 H557 0.985 1_565 S
C552 C546 1.379 . S
C552 C549 1.363 . S
C552 N550 1.356 . S
C553 C547 1.363 . S
C553 C548 1.379 . S
C553 N551 1.356 . S
N554 C546 1.356 . S
N554 H560 0.984 . S
N554 H561 0.984 . S
N555 C548 1.356 . S
N555 H558 0.984 . S
N555 H559 0.985 . S
H556 N551 0.984 . S
H557 N551 0.985 1_545 S
H558 N555 0.984 . S
H559 N555 0.985 . S
H560 N554 0.984 . S
H561 N554 0.984 . S
H562 N550 0.984 . S
H563 N550 0.985 . S
C564 C565 1.363 . S
C564 C570 1.379 . S
C564 N572 1.356 . S
C565 C564 1.363 . S
C565 C571 1.363 . S
C566 C567 1.363 . S
C566 C571 1.379 . S
C566 N573 1.356 . S
C567 C566 1.363 . S
C567 C570 1.363 . S
N568 C570 1.356 . S
N568 H580 0.984 . S
N568 H581 0.985 . S
N569 C571 1.356 . S
N569 H574 0.984 . S
N569 H575 0.985 . S
C570 C564 1.379 . S
C570 C567 1.363 . S
C570 N568 1.356 . S
C571 C565 1.363 . S
C571 C566 1.379 . S
C571 N569 1.356 . S
N572 C564 1.356 . S
N572 H578 0.984 . S
N572 H579 0.984 . S
N573 C566 1.356 . S
N573 H576 0.984 . S
N573 H577 0.985 . S
H574 N569 0.984 . S
H575 N569 0.985 . S
H576 N573 0.984 . S
H577 N573 0.985 . S
H578 N572 0.984 . S
H579 N572 0.984 . S
H580 N568 0.984 . S
H581 N568 0.985 . S
C582 C583 1.363 . S
C582 C588 1.379 . S
C582 N590 1.356 . S
C583 C582 1.363 . S
C583 C589 1.363 . S
C584 C585 1.363 . S
C584 C589 1.379 . S
C584 N591 1.356 . S
C585 C584 1.363 . S
C585 C588 1.363 . S
N586 C588 1.356 . S
N586 H598 0.984 . S
N586 H599 0.985 . S
N587 C589 1.356 1_655 S
N587 H592 0.984 . S
N587 H593 0.985 . S
C588 C582 1.379 . S
C588 C585 1.363 . S
C588 N586 1.356 . S
C589 C583 1.363 . S
C589 C584 1.379 . S
C589 N587 1.356 1_455 S
N590 C582 1.356 . S
N590 H596 0.984 . S
N590 H597 0.984 . S
N591 C584 1.356 . S
N591 H594 0.984 . S
N591 H595 0.985 . S
H592 N587 0.984 . S
H593 N587 0.985 . S
H594 N591 0.984 . S
H595 N591 0.985 . S
H596 N590 0.984 . S
H597 N590 0.984 . S
H598 N586 0.984 . S
H599 N586 0.985 . S
C169 C13 1.650 . S
C171 C85 1.605 . S
C187 C27 1.650 . S
C189 C110 1.611 . S
C207 C113 1.609 . S
C205 C29 1.648 . S
C225 C139 1.609 . S
C223 C54 1.653 . S
C243 C140 1.612 . S
C241 C69 1.648 . S
C261 C167 1.609 . S
C259 C83 1.650 . S
C277 C15 1.650 . S
C279 C112 1.614 . S
C295 C41 1.650 . S
C297 C138 1.613 . S
C315 C141 1.609 . S
C313 C42 1.650 . S
C333 C166 1.612 . S
C331 C57 1.649 . S
C349 C71 1.650 . S
C351 C84 1.612 . S
C369 C111 1.609 . S
C367 C1 1.652 . S
C387 C126 1.609 . S
C385 C12 1.654 . S
C403 C26 1.650 . S
C405 C153 1.612 . S
C423 C154 1.609 . S
C421 C28 1.651 . S
C439 C55 1.650 . S
C441 C96 1.607 . S
C457 C68 1.650 . S
C459 C99 1.613 . S
C475 C82 1.650 . S
C477 C124 1.609 . S
C493 C14 1.650 . S
C495 C155 1.610 . S
C513 C97 1.612 . S
C511 C40 1.648 . S
C529 C43 1.650 . S
C531 C98 1.610 . S
C547 C56 1.650 . S
C549 C125 1.613 . S
C565 C70 1.650 . S
C567 C127 1.612 . S
C583 C0 1.650 . S
C585 C152 1.607 . S
