# Generated by pormake.
# Topology ctn, (3,4)-cn, num edge types: 1
# Building blocks:
#     Node 0, Type 0, BuildingBlock: WUSLED_clean_sbu_0, # of connection points: 3
#     Node 1, Type 0, BuildingBlock: WUSLED_clean_sbu_0, # of connection points: 3
#     Node 2, Type 0, BuildingBlock: WUSLED_clean_sbu_0, # of connection points: 3
#     Node 3, Type 0, BuildingBlock: WUSLED_clean_sbu_0, # of connection points: 3
#     Node 4, Type 0, BuildingBlock: WUSLED_clean_sbu_0, # of connection points: 3
#     Node 5, Type 0, BuildingBlock: WUSLED_clean_sbu_0, # of connection points: 3
#     Node 6, Type 0, BuildingBlock: WUSLED_clean_sbu_0, # of connection points: 3
#     Node 7, Type 0, BuildingBlock: WUSLED_clean_sbu_0, # of connection points: 3
#     Node 8, Type 0, BuildingBlock: WUSLED_clean_sbu_0, # of connection points: 3
#     Node 9, Type 0, BuildingBlock: WUSLED_clean_sbu_0, # of connection points: 3
#     Node 10, Type 0, BuildingBlock: WUSLED_clean_sbu_0, # of connection points: 3
#     Node 11, Type 0, BuildingBlock: WUSLED_clean_sbu_0, # of connection points: 3
#     Node 12, Type 0, BuildingBlock: WUSLED_clean_sbu_0, # of connection points: 3
#     Node 13, Type 0, BuildingBlock: WUSLED_clean_sbu_0, # of connection points: 3
#     Node 14, Type 0, BuildingBlock: WUSLED_clean_sbu_0, # of connection points: 3
#     Node 15, Type 0, BuildingBlock: WUSLED_clean_sbu_0, # of connection points: 3
#     Node 16, Type 1, BuildingBlock: KUFVIS_clean_sbu_0, # of connection points: 4
#     Node 17, Type 1, BuildingBlock: KUFVIS_clean_sbu_0, # of connection points: 4
#     Node 18, Type 1, BuildingBlock: KUFVIS_clean_sbu_0, # of connection points: 4
#     Node 19, Type 1, BuildingBlock: KUFVIS_clean_sbu_0, # of connection points: 4
#     Node 20, Type 1, BuildingBlock: KUFVIS_clean_sbu_0, # of connection points: 4
#     Node 21, Type 1, BuildingBlock: KUFVIS_clean_sbu_0, # of connection points: 4
#     Node 22, Type 1, BuildingBlock: KUFVIS_clean_sbu_0, # of connection points: 4
#     Node 23, Type 1, BuildingBlock: KUFVIS_clean_sbu_0, # of connection points: 4
#     Node 24, Type 1, BuildingBlock: KUFVIS_clean_sbu_0, # of connection points: 4
#     Node 25, Type 1, BuildingBlock: KUFVIS_clean_sbu_0, # of connection points: 4
#     Node 26, Type 1, BuildingBlock: KUFVIS_clean_sbu_0, # of connection points: 4
#     Node 27, Type 1, BuildingBlock: KUFVIS_clean_sbu_0, # of connection points: 4
#     Edge 28, Type (0, 1), BuildingBlock: ZUJKAS_clean_linker_0, # of connection points: 2
#     Edge 29, Type (0, 1), BuildingBlock: ZUJKAS_clean_linker_0, # of connection points: 2
#     Edge 30, Type (0, 1), BuildingBlock: ZUJKAS_clean_linker_0, # of connection points: 2
#     Edge 31, Type (0, 1), BuildingBlock: ZUJKAS_clean_linker_0, # of connection points: 2
#     Edge 32, Type (0, 1), BuildingBlock: ZUJKAS_clean_linker_0, # of connection points: 2
#     Edge 33, Type (0, 1), BuildingBlock: ZUJKAS_clean_linker_0, # of connection points: 2
#     Edge 34, Type (0, 1), BuildingBlock: ZUJKAS_clean_linker_0, # of connection points: 2
#     Edge 35, Type (0, 1), BuildingBlock: ZUJKAS_clean_linker_0, # of connection points: 2
#     Edge 36, Type (0, 1), BuildingBlock: ZUJKAS_clean_linker_0, # of connection points: 2
#     Edge 37, Type (0, 1), BuildingBlock: ZUJKAS_clean_linker_0, # of connection points: 2
#     Edge 38, Type (0, 1), BuildingBlock: ZUJKAS_clean_linker_0, # of connection points: 2
#     Edge 39, Type (0, 1), BuildingBlock: ZUJKAS_clean_linker_0, # of connection points: 2
#     Edge 40, Type (0, 1), BuildingBlock: ZUJKAS_clean_linker_0, # of connection points: 2
#     Edge 41, Type (0, 1), BuildingBlock: ZUJKAS_clean_linker_0, # of connection points: 2
#     Edge 42, Type (0, 1), BuildingBlock: ZUJKAS_clean_linker_0, # of connection points: 2
#     Edge 43, Type (0, 1), BuildingBlock: ZUJKAS_clean_linker_0, # of connection points: 2
#     Edge 44, Type (0, 1), BuildingBlock: ZUJKAS_clean_linker_0, # of connection points: 2
#     Edge 45, Type (0, 1), BuildingBlock: ZUJKAS_clean_linker_0, # of connection points: 2
#     Edge 46, Type (0, 1), BuildingBlock: ZUJKAS_clean_linker_0, # of connection points: 2
#     Edge 47, Type (0, 1), BuildingBlock: ZUJKAS_clean_linker_0, # of connection points: 2
#     Edge 48, Type (0, 1), BuildingBlock: ZUJKAS_clean_linker_0, # of connection points: 2
#     Edge 49, Type (0, 1), BuildingBlock: ZUJKAS_clean_linker_0, # of connection points: 2
#     Edge 50, Type (0, 1), BuildingBlock: ZUJKAS_clean_linker_0, # of connection points: 2
#     Edge 51, Type (0, 1), BuildingBlock: ZUJKAS_clean_linker_0, # of connection points: 2
#     Edge 52, Type (0, 1), BuildingBlock: ZUJKAS_clean_linker_0, # of connection points: 2
#     Edge 53, Type (0, 1), BuildingBlock: ZUJKAS_clean_linker_0, # of connection points: 2
#     Edge 54, Type (0, 1), BuildingBlock: ZUJKAS_clean_linker_0, # of connection points: 2
#     Edge 55, Type (0, 1), BuildingBlock: ZUJKAS_clean_linker_0, # of connection points: 2
#     Edge 56, Type (0, 1), BuildingBlock: ZUJKAS_clean_linker_0, # of connection points: 2
#     Edge 57, Type (0, 1), BuildingBlock: ZUJKAS_clean_linker_0, # of connection points: 2
#     Edge 58, Type (0, 1), BuildingBlock: ZUJKAS_clean_linker_0, # of connection points: 2
#     Edge 59, Type (0, 1), BuildingBlock: ZUJKAS_clean_linker_0, # of connection points: 2
#     Edge 60, Type (0, 1), BuildingBlock: ZUJKAS_clean_linker_0, # of connection points: 2
#     Edge 61, Type (0, 1), BuildingBlock: ZUJKAS_clean_linker_0, # of connection points: 2
#     Edge 62, Type (0, 1), BuildingBlock: ZUJKAS_clean_linker_0, # of connection points: 2
#     Edge 63, Type (0, 1), BuildingBlock: ZUJKAS_clean_linker_0, # of connection points: 2
#     Edge 64, Type (0, 1), BuildingBlock: ZUJKAS_clean_linker_0, # of connection points: 2
#     Edge 65, Type (0, 1), BuildingBlock: ZUJKAS_clean_linker_0, # of connection points: 2
#     Edge 66, Type (0, 1), BuildingBlock: ZUJKAS_clean_linker_0, # of connection points: 2
#     Edge 67, Type (0, 1), BuildingBlock: ZUJKAS_clean_linker_0, # of connection points: 2
#     Edge 68, Type (0, 1), BuildingBlock: ZUJKAS_clean_linker_0, # of connection points: 2
#     Edge 69, Type (0, 1), BuildingBlock: ZUJKAS_clean_linker_0, # of connection points: 2
#     Edge 70, Type (0, 1), BuildingBlock: ZUJKAS_clean_linker_0, # of connection points: 2
#     Edge 71, Type (0, 1), BuildingBlock: ZUJKAS_clean_linker_0, # of connection points: 2
#     Edge 72, Type (0, 1), BuildingBlock: ZUJKAS_clean_linker_0, # of connection points: 2
#     Edge 73, Type (0, 1), BuildingBlock: ZUJKAS_clean_linker_0, # of connection points: 2
#     Edge 74, Type (0, 1), BuildingBlock: ZUJKAS_clean_linker_0, # of connection points: 2
#     Edge 75, Type (0, 1), BuildingBlock: ZUJKAS_clean_linker_0, # of connection points: 2
# Relax obj value: 0.012
# Max RMSD: 0.064
# Mean RMSD: 0.032
data_MOF--net-ctn--node1-WUSLED_clean_sbu_0--node2-KUFVIS_clean_sbu_0--edge1-ZUJKAS_clean_linker_0
_symmetry_space_group_name_H-M    P1
_symmetry_Int_Tables_number       1
_symmetry_cell_setting            triclinic
loop_
_symmetry_equiv_pos_as_xyz
'x, y, z'
_cell_length_a     87.157943
_cell_length_b     87.38683
_cell_length_c     87.598632
_cell_angle_alpha  91.407757
_cell_angle_beta   90.224541
_cell_angle_gamma 91.278269
loop_
_atom_site_label
_atom_site_type_symbol
_atom_site_fract_x
_atom_site_fract_y
_atom_site_fract_z
_atom_type_partial_charge
C0 C 0.02027 0.05226 0.08221 0.0
C1 C 0.02747 0.04426 0.09387 0.0
C2 C 1.00359 0.04354 0.10855 0.0
C3 C 0.01921 0.03993 0.1069 0.0
C4 C 0.99643 0.05129 0.09664 0.0
C5 C 1.00467 0.05558 0.08368 0.0
U6 U 0.05231 0.05158 0.05111 0.0
O7 O 0.05011 0.05683 0.02674 0.0
O8 O 0.06505 0.07126 0.04157 0.0
C9 C 0.05878 0.06932 0.02797 0.0
C10 C 0.02869 0.05791 0.06871 0.0
C11 C 0.05325 0.08328 0.02042 0.0
C12 C 0.03397 0.09691 1.00604 0.0
C13 C 0.03831 0.08417 0.01441 0.0
C14 C 0.05929 0.10826 0.00978 0.0
C15 C 0.04447 0.10907 1.00342 0.0
C16 C 0.06361 0.09555 0.01811 0.0
C17 C 0.0824 0.01891 0.0512 0.0
C18 C 0.10602 0.01659 0.03654 0.0
C19 C 0.09716 0.99559 0.05194 0.0
C20 C 0.08448 1.00408 0.0565 0.0
C21 C 0.10816 1.00167 0.04189 0.0
C22 C 0.09325 0.02513 0.04114 0.0
C23 C 0.069 0.02753 0.05678 0.0
O24 O 0.04259 0.06366 0.07108 0.0
O25 O 0.02754 0.0495 0.05611 0.0
O26 O 0.05662 0.02689 0.04815 0.0
O27 O 0.07176 0.04121 0.06289 0.0
H28 H 0.03951 0.04157 0.09302 0.0
H29 H 0.02515 0.03407 0.11584 0.0
H30 H 0.98439 0.05403 0.0973 0.0
H31 H 0.99884 0.0617 0.07483 0.0
H32 H 0.02251 0.09698 1.00123 0.0
H33 H 0.03004 0.0749 0.01588 0.0
H34 H 0.06763 0.11747 0.0083 0.0
H35 H 0.07522 0.09517 0.02254 0.0
H36 H 0.11413 0.02164 0.02868 0.0
H37 H 0.09847 0.98431 0.05656 0.0
H38 H 0.07631 0.99909 0.06434 0.0
H39 H 0.09188 0.03655 0.0369 0.0
C40 C 0.29993 0.73493 0.17567 0.0
C41 C 0.29796 0.75046 0.17969 0.0
C42 C 0.29854 0.7575 0.1528 0.0
C43 C 0.29731 0.76159 0.16841 0.0
C44 C 0.30088 0.742 0.14888 0.0
C45 C 0.30151 0.7309 0.16013 0.0
U46 U 0.31382 0.7123 0.21091 0.0
O47 O 0.30015 0.70215 0.22941 0.0
O48 O 0.31337 0.68735 0.21402 0.0
C49 C 0.30374 0.68806 0.22551 0.0
C50 C 0.29893 0.72261 0.18715 0.0
C51 C 0.29123 0.67633 0.22577 0.0
C52 C 0.27052 0.6611 0.21374 0.0
C53 C 0.2819 0.67273 0.21301 0.0
C54 C 0.27768 0.65661 0.23994 0.0
C55 C 0.26823 0.65288 0.22725 0.0
C56 C 0.28898 0.66818 0.23919 0.0
C57 C 0.35129 0.72494 0.23239 0.0
C58 C 0.35922 0.72026 0.25858 0.0
C59 C 0.37802 0.72866 0.24016 0.0
C60 C 0.36654 0.72892 0.22894 0.0
C61 C 0.37453 0.72442 0.25518 0.0
C62 C 0.34772 0.72048 0.2473 0.0
C63 C 0.33938 0.72623 0.22037 0.0
O64 O 0.30914 0.71179 0.18612 0.0
O65 O 0.29586 0.72667 0.20135 0.0
O66 O 0.32564 0.73027 0.22487 0.0
O67 O 0.33899 0.71543 0.20965 0.0
H68 H 0.29655 0.754 0.19153 0.0
H69 H 0.29533 0.77335 0.17193 0.0
H70 H 0.30215 0.73838 0.13705 0.0
H71 H 0.30292 0.71904 0.15663 0.0
H72 H 0.26339 0.65868 0.20378 0.0
H73 H 0.28345 0.67887 0.20251 0.0
H74 H 0.27653 0.65042 0.25044 0.0
H75 H 0.29613 0.67067 0.24914 0.0
H76 H 0.35612 0.71677 0.26996 0.0
H77 H 0.38958 0.73215 0.23712 0.0
H78 H 0.36957 0.73249 0.21756 0.0
H79 H 0.33605 0.7173 0.25026 0.0
C80 C 0.97331 0.44405 0.01384 0.0
C81 C 0.97965 0.43207 0.02204 0.0
C82 C 0.98362 0.41727 0.99832 0.0
C83 C 0.98471 0.41881 0.01436 0.0
C84 C 0.97747 0.42944 0.9902 0.0
C85 C 0.97238 0.44262 0.99787 0.0
U86 U 0.97239 0.47596 0.04557 0.0
O87 O 0.96812 0.50059 0.04312 0.0
O88 O 0.95239 0.48647 0.05662 0.0
C89 C 0.95519 0.49998 0.05079 0.0
C90 C 0.96706 0.45789 0.02151 0.0
C91 C 0.942 0.50831 0.04439 0.0
C92 C 0.91515 0.50968 0.03644 0.0
C93 C 0.92774 0.50108 0.04107 0.0
C94 C 0.93091 0.53278 0.03808 0.0
C95 C 0.9165 0.52571 0.03511 0.0
C96 C 0.94344 0.52421 0.04268 0.0
C97 C 1.00395 0.47561 0.07772 0.0
C98 C 1.005 0.48602 0.10384 0.0
C99 C 0.02824 0.47751 0.0916 0.0
C100 C 0.01986 0.47357 0.07837 0.0
C101 C 0.02094 0.48361 0.10462 0.0
C102 C 0.99658 0.48202 0.09053 0.0
C103 C 0.99551 0.47003 0.06385 0.0
O104 O 0.96037 0.45602 0.03479 0.0
O105 O 0.97564 0.47042 0.02109 0.0
O106 O 0.99698 0.47826 0.05157 0.0
O107 O 0.98153 0.4644 0.06565 0.0
H108 H 0.98057 0.4329 0.03437 0.0
H109 H 0.98953 0.40978 0.02099 0.0
H110 H 0.97621 0.42863 0.97791 0.0
H111 H 0.96747 0.45166 0.9913 0.0
H112 H 0.90424 0.50381 0.03437 0.0
H113 H 0.9262 0.48884 0.04233 0.0
H114 H 0.93255 0.54501 0.03692 0.0
H115 H 0.95426 0.5301 0.0452 0.0
H116 H 0.99896 0.49062 0.11364 0.0
H117 H 0.0405 0.47575 0.09162 0.0
H118 H 0.02582 0.46865 0.06865 0.0
H119 H 0.9843 0.48369 0.09036 0.0
C120 C 0.71006 0.77679 0.18332 0.0
C121 C 0.71923 0.78306 0.17178 0.0
C122 C 0.71861 0.75852 0.15759 0.0
C123 C 0.72344 0.77402 0.15903 0.0
C124 C 0.70954 0.75235 0.16931 0.0
C125 C 0.70535 0.76137 0.18198 0.0
U126 U 0.71163 0.8115 0.21212 0.0
O127 O 0.69226 0.82436 0.22179 0.0
O128 O 0.70723 0.81162 0.23686 0.0
C129 C 0.69473 0.81968 0.23571 0.0
C130 C 0.70475 0.78602 0.1966 0.0
C131 C 0.68106 0.81451 0.24445 0.0
C132 C 0.66718 0.79565 0.25957 0.0
C133 C 0.67962 0.79966 0.25021 0.0
C134 C 0.65722 0.82111 0.25731 0.0
C135 C 0.65586 0.80637 0.26337 0.0
C136 C 0.66966 0.82511 0.24802 0.0
C137 C 0.74358 0.84309 0.20838 0.0
C138 C 0.75098 0.86316 0.22698 0.0
C139 C 0.76205 0.86313 0.20169 0.0
C140 C 0.75342 0.8499 0.19776 0.0
C141 C 0.76105 0.86994 0.21638 0.0
C142 C 0.74232 0.84987 0.22301 0.0
C143 C 0.73529 0.82869 0.20393 0.0
O144 O 0.71368 0.78651 0.20872 0.0
O145 O 0.69878 0.79933 0.19366 0.0
O146 O 0.72142 0.83002 0.19824 0.0
O147 O 0.73634 0.81727 0.21335 0.0
H148 H 0.72303 0.79494 0.17258 0.0
H149 H 0.73056 0.77915 0.15035 0.0
H150 H 0.70535 0.7406 0.16856 0.0
H151 H 0.69819 0.75631 0.1907 0.0
H152 H 0.66643 0.78413 0.26384 0.0
H153 H 0.6882 0.7912 0.24768 0.0
H154 H 0.64891 0.82975 0.26011 0.0
H155 H 0.67055 0.83668 0.24386 0.0
H156 H 0.74976 0.86814 0.23834 0.0
H157 H 0.76982 0.86777 0.19328 0.0
H158 H 0.75463 0.84482 0.18643 0.0
H159 H 0.73476 0.84483 0.23139 0.0
C160 C 0.01772 0.97449 0.44507 0.0
C161 C 0.02561 0.97802 0.43157 0.0
C162 C 1.00161 0.98502 0.41917 0.0
C163 C 0.01764 0.98319 0.41878 0.0
C164 C 0.99385 0.9818 0.43283 0.0
C165 C 1.0018 0.97657 0.44557 0.0
U166 U 0.05001 0.9726 0.47574 0.0
O167 O 0.04818 0.9667 0.49999 0.0
O168 O 0.06177 0.95241 0.48443 0.0
C169 C 0.05629 0.95426 0.4983 0.0
C170 C 0.02552 0.96772 0.45838 0.0
C171 C 0.05072 0.94027 0.50608 0.0
C172 C 0.03061 0.92482 0.51805 0.0
C173 C 0.03514 0.9375 0.50939 0.0
C174 C 0.05709 0.91737 0.51993 0.0
C175 C 0.04158 0.91471 0.52367 0.0
C176 C 0.06157 0.92996 0.51128 0.0
C177 C 0.08249 1.00438 0.47516 0.0
C178 C 0.10426 0.00836 0.49251 0.0
C179 C 0.1009 0.0253 0.47138 0.0
C180 C 0.08766 0.01701 0.4669 0.0
C181 C 0.10938 0.0212 0.48431 0.0
C182 C 0.09091 1.00004 0.488 0.0
C183 C 0.06824 0.99625 0.47002 0.0
O184 O 0.03876 0.9612 0.45585 0.0
O185 O 0.0253 0.97568 0.47131 0.0
O186 O 0.05636 0.99701 0.47917 0.0
O187 O 0.06974 0.98265 0.46354 0.0
H188 H 0.03789 0.97659 0.43081 0.0
H189 H 0.02406 0.98574 0.40856 0.0
H190 H 0.98152 0.98285 0.43355 0.0
H191 H 0.99541 0.97384 0.45577 0.0
H192 H 0.01858 0.92322 0.52075 0.0
H193 H 0.0265 0.94527 0.50556 0.0
H194 H 0.06585 0.90973 0.52376 0.0
H195 H 0.07366 0.93182 0.5089 0.0
H196 H 0.11041 1.0049 0.50258 0.0
H197 H 0.10457 0.03488 0.46457 0.0
H198 H 0.08139 0.02052 0.45691 0.0
H199 H 0.08712 0.99032 0.49455 0.0
C200 C 0.21243 0.74602 0.83979 0.0
C201 C 0.21783 0.73921 0.85309 0.0
C202 C 0.21974 0.76425 0.86624 0.0
C203 C 0.22143 0.74823 0.86619 0.0
C204 C 0.21454 0.77097 0.85278 0.0
C205 C 0.21094 0.76197 0.83976 0.0
U206 U 0.21475 0.71211 0.81017 0.0
O207 O 0.1957 0.69889 0.79926 0.0
O208 O 0.21128 0.71259 0.78522 0.0
C209 C 0.19876 0.70395 0.78557 0.0
C210 C 0.20749 0.73689 0.82607 0.0
C211 C 0.18555 0.70906 0.77644 0.0
C212 C 0.16208 0.72343 0.77346 0.0
C213 C 0.1747 0.71924 0.78238 0.0
C214 C 0.17111 0.70744 0.75257 0.0
C215 C 0.16009 0.71756 0.75841 0.0
C216 C 0.18365 0.70328 0.76147 0.0
C217 C 0.24689 0.68192 0.81491 0.0
C218 C 0.25731 0.66364 0.7964 0.0
C219 C 0.26437 0.6623 0.82306 0.0
C220 C 0.25505 0.67476 0.82646 0.0
C221 C 0.26581 0.65664 0.80796 0.0
C222 C 0.24797 0.67619 0.79983 0.0
C223 C 0.23812 0.69577 0.81899 0.0
O224 O 0.21678 0.73712 0.81429 0.0
O225 O 0.2013 0.72328 0.82834 0.0
O226 O 0.22404 0.69358 0.82395 0.0
O227 O 0.23948 0.70745 0.80988 0.0
H228 H 0.21913 0.72692 0.85342 0.0
H229 H 0.22557 0.74264 0.87625 0.0
H230 H 0.21287 0.7832 0.85239 0.0
H231 H 0.2067 0.76749 0.82968 0.0
H232 H 0.15396 0.73136 0.77832 0.0
H233 H 0.17596 0.72389 0.79391 0.0
H234 H 0.1699 0.70246 0.74118 0.0
H235 H 0.19183 0.69535 0.75667 0.0
H236 H 0.25818 0.65968 0.78463 0.0
H237 H 0.27047 0.65709 0.83231 0.0
H238 H 0.25439 0.67896 0.83818 0.0
H239 H 0.24181 0.68154 0.7907 0.0
C240 C 0.97621 0.58088 0.50496 0.0
C241 C 0.99182 0.58524 0.50591 0.0
C242 C 0.98547 0.60855 0.52046 0.0
C243 C 0.9964 0.59892 0.5136 0.0
C244 C 0.96986 0.60415 0.51924 0.0
C245 C 0.96532 0.59053 0.5116 0.0
U246 U 0.97732 0.54648 0.47564 0.0
O247 O 0.97279 0.52199 0.47991 0.0
O248 O 0.95778 0.53426 0.46448 0.0
C249 C 0.96028 0.5214 0.47147 0.0
C250 C 0.97087 0.56606 0.49795 0.0
C251 C 0.94672 0.51328 0.47787 0.0
C252 C 0.92142 0.51293 0.48973 0.0
C253 C 0.93452 0.52106 0.48478 0.0
C254 C 0.93267 0.48917 0.4812 0.0
C255 C 0.92022 0.49687 0.48781 0.0
C256 C 0.94571 0.49728 0.4763 0.0
C257 C 0.00922 0.5454 0.44434 0.0
C258 C 0.01002 0.53208 0.41953 0.0
C259 C 0.03328 0.54343 0.43042 0.0
C260 C 0.02506 0.54836 0.44326 0.0
C261 C 0.02588 0.5354 0.41825 0.0
C262 C 1.00177 0.53706 0.43243 0.0
C263 C 1.00086 0.55197 0.4576 0.0
O264 O 0.96467 0.56651 0.48428 0.0
O265 O 0.97974 0.55424 0.49965 0.0
O266 O 1.00204 0.54483 0.47058 0.0
O267 O 0.98698 0.55696 0.45507 0.0
H268 H 1.00047 0.578 0.50087 0.0
H269 H 0.0085 0.60197 0.51413 0.0
H270 H 0.96109 0.61104 0.52456 0.0
H271 H 0.95323 0.58737 0.51113 0.0
H272 H 0.91206 0.51928 0.49467 0.0
H273 H 0.93501 0.53342 0.48612 0.0
H274 H 0.93236 0.47682 0.47978 0.0
H275 H 0.95498 0.49101 0.47104 0.0
H276 H 1.0039 0.52601 0.41038 0.0
H277 H 0.04549 0.54596 0.43003 0.0
H278 H 0.03108 0.55474 0.45229 0.0
H279 H 0.98954 0.53464 0.43297 0.0
C280 C 0.79976 0.79422 0.84849 0.0
C281 C 0.80515 0.77946 0.84515 0.0
C282 C 0.79882 0.77132 0.871 0.0
C283 C 0.80471 0.76814 0.85631 0.0
C284 C 0.79383 0.78625 0.87432 0.0
C285 C 0.7943 0.79751 0.86322 0.0
U286 U 0.81276 0.81545 0.81186 0.0
O287 O 0.79823 0.82533 0.79414 0.0
O288 O 0.8136 0.84033 0.80796 0.0
C289 C 0.8029 0.83946 0.79733 0.0
C290 C 0.79889 0.80619 0.83681 0.0
C291 C 0.79106 0.85138 0.79782 0.0
C292 C 0.7657 0.86068 0.80457 0.0
C293 C 0.7769 0.84935 0.80522 0.0
C294 C 0.78273 0.87623 0.78932 0.0
C295 C 0.76839 0.87421 0.79643 0.0
C296 C 0.79388 0.86497 0.79001 0.0
C297 C 0.84804 0.80078 0.78879 0.0
C298 C 0.86448 0.81399 0.77059 0.0
C299 C 0.86583 0.78652 0.77279 0.0
C300 C 0.85448 0.7869 0.78405 0.0
C301 C 0.87107 0.80005 0.7659 0.0
C302 C 0.85307 0.81436 0.78191 0.0
C303 C 0.83671 0.80064 0.80138 0.0
O304 O 0.80996 0.81666 0.83692 0.0
O305 O 0.79471 0.80168 0.82295 0.0
O306 O 0.82248 0.79682 0.7977 0.0
O307 O 0.8377 0.81191 0.81159 0.0
H308 H 0.80942 0.77661 0.83387 0.0
H309 H 0.80857 0.75677 0.85328 0.0
H310 H 0.7895 0.78927 0.88554 0.0
H311 H 0.79012 0.80881 0.86609 0.0
H312 H 0.75478 0.85867 0.81012 0.0
H313 H 0.77444 0.83894 0.81131 0.0
H314 H 0.78539 0.88656 0.7832 0.0
H315 H 0.80471 0.86683 0.78424 0.0
H316 H 0.86807 0.82463 0.76546 0.0
H317 H 0.87074 0.77559 0.76974 0.0
H318 H 0.85088 0.77629 0.78926 0.0
H319 H 0.84827 0.82523 0.78535 0.0
C320 C 0.29978 0.29396 0.34844 0.0
C321 C 0.30386 0.27886 0.34461 0.0
C322 C 0.29924 0.27099 0.37089 0.0
C323 C 0.30363 0.2675 0.35573 0.0
C324 C 0.2956 0.28623 0.37468 0.0
C325 C 0.29587 0.29753 0.36361 0.0
U326 U 0.31161 0.31604 0.31183 0.0
O327 O 0.2965 0.32596 0.29463 0.0
O328 O 0.3118 0.34102 0.30846 0.0
C329 C 0.30071 0.34015 0.29824 0.0
C330 C 0.2985 0.30602 0.33688 0.0
C331 C 0.28848 0.35173 0.29958 0.0
C332 C 0.26153 0.35888 0.29969 0.0
C333 C 0.27278 0.34762 0.30004 0.0
C334 C 0.2814 0.37858 0.29876 0.0
C335 C 0.26566 0.37454 0.29888 0.0
C336 C 0.29261 0.36734 0.29907 0.0
C337 C 0.34679 0.30262 0.28779 0.0
C338 C 0.36362 0.31653 0.27046 0.0
C339 C 0.36403 0.28887 0.27074 0.0
C340 C 0.35272 0.28885 0.28204 0.0
C341 C 0.36975 0.3027 0.26482 0.0
C342 C 0.35224 0.31649 0.28181 0.0
C343 C 0.33568 0.30201 0.30056 0.0
O344 O 0.30932 0.31674 0.33695 0.0
O345 O 0.29414 0.30164 0.32303 0.0
O346 O 0.32146 0.29794 0.29707 0.0
O347 O 0.33661 0.31307 0.31099 0.0
H348 H 0.30692 0.27577 0.33298 0.0
H349 H 0.30641 0.2559 0.35234 0.0
H350 H 0.29245 0.28946 0.38624 0.0
H351 H 0.2927 0.30907 0.36687 0.0
H352 H 0.24956 0.3553 0.30001 0.0
H353 H 0.26917 0.33569 0.3004 0.0
H354 H 0.2851 0.39044 0.29791 0.0
H355 H 0.30459 0.37085 0.29852 0.0
H356 H 0.36758 0.32739 0.26609 0.0
H357 H 0.36858 0.278 0.26695 0.0
H358 H 0.3488 0.27801 0.28655 0.0
H359 H 0.34786 0.32729 0.28603 0.0
C360 C 0.47419 0.94272 0.51595 0.0
C361 C 0.47433 0.92851 0.52317 0.0
C362 C 0.48394 0.91591 0.49996 0.0
C363 C 0.47913 0.91529 0.51528 0.0
C364 C 0.48412 0.93021 0.49289 0.0
C365 C 0.47925 0.9434 0.50076 0.0
U366 U 0.47304 0.97529 0.54708 0.0
O367 O 0.46759 0.99959 0.54448 0.0
O368 O 0.45304 0.98514 0.55887 0.0
C369 C 0.4551 0.99864 0.55281 0.0
C370 C 0.46769 0.95662 0.52347 0.0
C371 C 0.4412 1.00628 0.54711 0.0
C372 C 0.42588 0.01706 0.52674 0.0
C373 C 0.43849 0.00855 0.5315 0.0
C374 C 0.41835 0.02086 0.55308 0.0
C375 C 0.41575 0.02355 0.5375 0.0
C376 C 0.43088 0.01237 0.55779 0.0
C377 C 0.50528 0.97582 0.57861 0.0
C378 C 0.50655 0.98772 0.6041 0.0
C379 C 0.52926 0.97661 0.59304 0.0
C380 C 0.52091 0.97254 0.57982 0.0
C381 C 0.52219 0.98409 0.60547 0.0
C382 C 0.49816 0.98358 0.59081 0.0
C383 C 0.49677 0.97012 0.56485 0.0
O384 O 0.46118 0.95497 0.53687 0.0
O385 O 0.47583 0.96941 0.52259 0.0
O386 O 0.49767 0.97849 0.55262 0.0
O387 O 0.48302 0.96405 0.56692 0.0
H388 H 0.47048 0.9275 0.53485 0.0
H389 H 0.47901 0.90454 0.52118 0.0
H390 H 0.48753 0.93116 0.48107 0.0
H391 H 0.47911 0.95412 0.49481 0.0
H392 H 0.42435 0.01893 0.51467 0.0
H393 H 0.44627 1.00402 0.52299 0.0
H394 H 0.41069 0.02538 0.5617 0.0
H395 H 0.43269 0.0108 0.56989 0.0
H396 H 0.5007 0.9934 0.61345 0.0
H397 H 0.54131 0.97387 0.59351 0.0
H398 H 0.52666 0.96658 0.57056 0.0
H399 H 0.48609 0.98621 0.59017 0.0
C400 C 0.20924 0.27901 0.681 0.0
C401 C 0.22468 0.27817 0.67656 0.0
C402 C 0.21752 0.26133 0.65479 0.0
C403 C 0.22878 0.26938 0.6636 0.0
C404 C 0.20207 0.26239 0.65928 0.0
C405 C 0.19802 0.27111 0.67221 0.0
U406 U 0.2127 0.31176 0.71182 0.0
O407 O 0.19415 0.32508 0.72244 0.0
O408 O 0.20854 0.31072 0.73656 0.0
C409 C 0.19645 0.31945 0.73602 0.0
C410 C 0.20445 0.28755 0.69496 0.0
C411 C 0.18257 0.31444 0.74456 0.0
C412 C 0.16808 0.29556 0.75912 0.0
C413 C 0.1807 0.29948 0.74997 0.0
C414 C 0.15879 0.32133 0.75736 0.0
C415 C 0.157 0.30648 0.76307 0.0
C416 C 0.17141 0.32525 0.74828 0.0
C417 C 0.24625 0.34192 0.70878 0.0
C418 C 0.25017 0.36559 0.72375 0.0
C419 C 0.26929 0.35771 0.70539 0.0
C420 C 0.26037 0.34464 0.70163 0.0
C421 C 0.26431 0.36846 0.71643 0.0
C422 C 0.2412 0.35246 0.71993 0.0
C423 C 0.23705 0.32818 0.70402 0.0
O424 O 0.2135 0.28695 0.70696 0.0
O425 O 0.19895 0.30124 0.69296 0.0
O426 O 0.22316 0.33051 0.69879 0.0
O427 O 0.23769 0.31631 0.71291 0.0
H428 H 0.23357 0.2842 0.68313 0.0
H429 H 0.24076 0.269 0.66042 0.0
H430 H 0.19309 0.2562 0.65299 0.0
H431 H 0.18604 0.27152 0.67546 0.0
H432 H 0.16701 0.28396 0.76312 0.0
H433 H 0.18909 0.29086 0.74732 0.0
H434 H 0.15067 0.33012 0.76029 0.0
H435 H 0.17263 0.33689 0.7444 0.0
H436 H 0.24589 0.37364 0.73223 0.0
H437 H 0.28021 0.35931 0.69972 0.0
H438 H 0.26451 0.33664 0.69303 0.0
H439 H 0.23031 0.35059 0.72558 0.0
C440 C 0.79872 0.23352 0.67499 0.0
C441 C 0.80742 0.24719 0.67672 0.0
C442 C 0.79709 0.2565 0.65269 0.0
C443 C 0.80664 0.25856 0.66566 0.0
C444 C 0.78862 0.24265 0.65098 0.0
C445 C 0.78943 0.23134 0.66198 0.0
U446 U 0.81449 0.21267 0.71044 0.0
O447 O 0.80146 0.20238 0.72928 0.0
O448 O 0.81524 0.18785 0.71417 0.0
C449 C 0.8056 0.18839 0.72566 0.0
C450 C 0.79866 0.22148 0.68662 0.0
C451 C 0.79346 0.17629 0.726 0.0
C452 C 0.77222 0.16141 0.71448 0.0
C453 C 0.78343 0.1732 0.71366 0.0
C454 C 0.78099 0.15573 0.73992 0.0
C455 C 0.77081 0.15253 0.72767 0.0
C456 C 0.79213 0.16745 0.73908 0.0
C457 C 0.85132 0.22789 0.73137 0.0
C458 C 0.86186 0.21804 0.75491 0.0
C459 C 0.87504 0.23876 0.74218 0.0
C460 C 0.86372 0.23835 0.7308 0.0
C461 C 0.87425 0.2287 0.75449 0.0
C462 C 0.85049 0.21766 0.74347 0.0
C463 C 0.83937 0.22818 0.71934 0.0
O464 O 0.80964 0.21143 0.68568 0.0
O465 O 0.79572 0.22589 0.70074 0.0
O466 O 0.82547 0.23156 0.72388 0.0
O467 O 0.83947 0.217 0.70902 0.0
H468 H 0.81467 0.24913 0.68669 0.0
H469 H 0.81325 0.26909 0.66745 0.0
H470 H 0.78138 0.24047 0.64105 0.0
H471 H 0.78267 0.22086 0.66036 0.0
H472 H 0.76451 0.15941 0.70488 0.0
H473 H 0.78425 0.1799 0.70344 0.0
H474 H 0.7805 0.14903 0.75015 0.0
H475 H 0.79982 0.16956 0.74869 0.0
H476 H 0.86078 0.2102 0.76425 0.0
H477 H 0.8845 0.24693 0.74127 0.0
H478 H 0.86462 0.2463 0.72153 0.0
H479 H 0.84099 0.2095 0.74414 0.0
C480 C 0.51968 0.55168 0.58129 0.0
C481 C 0.52668 0.54308 0.59263 0.0
C482 C 0.50309 0.54327 0.60779 0.0
C483 C 0.51845 0.53889 0.60574 0.0
C484 C 0.49614 0.55166 0.59622 0.0
C485 C 0.50433 0.5558 0.58318 0.0
U486 U 0.55169 0.55029 0.55019 0.0
O487 O 0.5493 0.55452 0.52556 0.0
O488 O 0.56404 0.5697 0.53983 0.0
C489 C 0.55802 0.56699 0.52622 0.0
C490 C 0.52803 0.55698 0.56761 0.0
C491 C 0.55246 0.58036 0.51788 0.0
C492 C 0.53908 0.60456 0.51663 0.0
C493 C 0.54352 0.59173 0.52486 0.0
C494 C 0.55227 0.5947 0.49436 0.0
C495 C 0.54353 0.6063 0.50128 0.0
C496 C 0.55666 0.58194 0.50255 0.0
C497 C 0.58214 0.518 0.55101 0.0
C498 C 0.60741 0.51644 0.53918 0.0
C499 C 0.5957 0.49389 0.55011 0.0
C500 C 0.58285 0.50238 0.5542 0.0
C501 C 0.60827 0.5008 0.54269 0.0
C502 C 0.59449 0.52496 0.54333 0.0
C503 C 0.5687 0.52665 0.55652 0.0
O504 O 0.54188 0.56292 0.56979 0.0
O505 O 0.52697 0.54813 0.55529 0.0
O506 O 0.55619 0.52556 0.54811 0.0
O507 O 0.57133 0.54054 0.56219 0.0
H508 H 0.53852 0.53976 0.59144 0.0
H509 H 0.52424 0.53252 0.61441 0.0
H510 H 0.48429 0.555 0.59717 0.0
H511 H 0.49867 0.56238 0.57456 0.0
H512 H 0.53244 0.61327 0.5224 0.0
H513 H 0.54013 0.59078 0.53669 0.0
H514 H 0.55568 0.59541 0.48252 0.0
H515 H 0.5635 0.5733 0.4969 0.0
H516 H 0.61687 0.52219 0.53356 0.0
H517 H 0.59574 0.48185 0.55275 0.0
H518 H 0.57347 0.49674 0.56008 0.0
H519 H 0.59425 0.53701 0.54074 0.0
C520 C 0.51851 0.47169 0.94315 0.0
C521 C 0.51575 0.48732 0.94115 0.0
C522 C 0.50273 0.48156 0.91676 0.0
C523 C 0.50793 0.49219 0.92812 0.0
C524 C 0.50576 0.46596 0.91877 0.0
C525 C 0.51351 0.46113 0.93177 0.0
U526 U 0.5488 0.47166 0.97613 0.0
O527 O 0.54515 0.46703 1.00055 0.0
O528 O 0.55956 0.4519 0.98667 0.0
C529 C 0.55318 0.45447 1.00004 0.0
C530 C 0.52559 0.46587 0.9573 0.0
C531 C 0.5468 0.44103 0.00816 0.0
C532 C 0.53614 0.41495 0.00862 0.0
C533 C 0.54087 0.42788 1.00044 0.0
C534 C 0.54296 0.42821 0.03232 0.0
C535 C 0.53724 0.41487 0.02471 0.0
C536 C 0.54765 0.44107 0.02416 0.0
C537 C 0.58131 0.50343 0.97727 0.0
C538 C 0.60737 0.50436 0.98767 0.0
C539 C 0.59504 0.52785 0.9811 0.0
C540 C 0.58189 0.51945 0.97648 0.0
C541 C 0.60805 0.52046 0.98668 0.0
C542 C 0.59414 0.49594 0.98303 0.0
C543 C 0.56757 0.49504 0.97102 0.0
O544 O 0.539 0.45941 0.95585 0.0
O545 O 0.52455 0.47443 0.9698 0.0
O546 O 0.55479 0.49627 0.97881 0.0
O547 O 0.56952 0.4812 0.96521 0.0
H548 H 0.51946 0.49577 0.94972 0.0
H549 H 0.50598 0.5043 0.92693 0.0
H550 H 0.50176 0.45737 0.91048 0.0
H551 H 0.51535 0.449 0.93309 0.0
H552 H 0.53164 0.40501 1.00233 0.0
H553 H 0.54008 0.42751 0.98809 0.0
H554 H 0.54427 0.42861 0.04462 0.0
H555 H 0.55231 0.451 0.03039 0.0
H556 H 0.61706 0.49826 0.99205 0.0
H557 H 0.59513 0.54015 0.97987 0.0
H558 H 0.57223 0.5255 0.97194 0.0
H559 H 0.59403 0.48358 0.98376 0.0
C560 C 0.71101 0.24319 0.34172 0.0
C561 C 0.72181 0.23812 0.3523 0.0
C562 C 0.71823 0.26113 0.36835 0.0
C563 C 0.72541 0.24703 0.36549 0.0
C564 C 0.70756 0.26613 0.35756 0.0
C565 C 0.70401 0.25728 0.34444 0.0
U566 U 0.714 0.2097 0.31149 0.0
O567 O 0.6949 0.19631 0.30075 0.0
O568 O 0.70987 0.21068 0.28671 0.0
C569 C 0.69747 0.20185 0.28716 0.0
C570 C 0.70645 0.23406 0.32793 0.0
C571 C 0.68384 0.20689 0.27859 0.0
C572 C 0.6676 0.22671 0.26852 0.0
C573 C 0.68022 0.22241 0.27735 0.0
C574 C 0.66193 0.20007 0.26223 0.0
C575 C 0.65828 0.21559 0.26079 0.0
C576 C 0.67453 0.1958 0.271 0.0
C577 C 0.74597 0.17919 0.31453 0.0
C578 C 0.76149 0.16477 0.29626 0.0
C579 C 0.7578 0.15533 0.32173 0.0
C580 C 0.74871 0.16794 0.32534 0.0
C581 C 0.76448 0.15362 0.3072 0.0
C582 C 0.75234 0.17739 0.29988 0.0
C583 C 0.73755 0.19313 0.31934 0.0
O584 O 0.71579 0.23461 0.3162 0.0
O585 O 0.70068 0.22027 0.33013 0.0
O586 O 0.72365 0.191 0.32477 0.0
O587 O 0.73875 0.20517 0.31065 0.0
H588 H 0.72734 0.22726 0.35043 0.0
H589 H 0.73361 0.24274 0.37356 0.0
H590 H 0.702 0.27702 0.35916 0.0
H591 H 0.69568 0.26144 0.33641 0.0
H592 H 0.66507 0.23875 0.26784 0.0
H593 H 0.6872 0.2312 0.28313 0.0
H594 H 0.65523 0.19117 0.25631 0.0
H595 H 0.67713 0.18377 0.2717 0.0
H596 H 0.76625 0.16378 0.28489 0.0
H597 H 0.75997 0.14716 0.33054 0.0
H598 H 0.7441 0.1691 0.33677 0.0
H599 H 0.75048 0.18585 0.29127 0.0
C600 C 0.47518 0.08256 1.00339 0.0
C601 C 0.48969 0.08928 1.00069 0.0
C602 C 0.48431 0.11025 0.01888 0.0
C603 C 0.49423 0.10299 0.00839 0.0
C604 C 0.46982 0.10336 0.02144 0.0
C605 C 0.46533 0.08974 0.01378 0.0
U606 U 0.47677 0.04843 0.97368 0.0
O607 O 0.47097 0.02416 0.97754 0.0
O608 O 0.45728 0.03708 0.96145 0.0
C609 C 0.45877 0.02417 0.96865 0.0
C610 C 0.46992 0.06799 0.99589 0.0
C611 C 0.44442 0.01685 0.97441 0.0
C612 C 0.42903 1.00556 0.99469 0.0
C613 C 0.44228 0.01354 0.98992 0.0
C614 C 0.41974 1.00426 0.96864 0.0
C615 C 0.41759 1.00072 0.98409 0.0
C616 C 0.43296 0.01218 0.96389 0.0
C617 C 0.50964 0.04665 0.94348 0.0
C618 C 0.51071 0.03247 0.91915 0.0
C619 C 0.5336 0.0452 0.92933 0.0
C620 C 0.52532 0.05023 0.9421 0.0
C621 C 0.52639 0.03643 0.91755 0.0
C622 C 0.50239 0.03757 0.93197 0.0
C623 C 0.50115 0.0533 0.95659 0.0
O624 O 0.46449 0.06882 0.98193 0.0
O625 O 0.47848 0.05599 0.99783 0.0
O626 O 0.50156 0.04585 0.96944 0.0
O627 O 0.48759 0.05888 0.95368 0.0
H628 H 0.49749 0.08392 0.9927 0.0
H629 H 0.50543 0.10797 1.00603 0.0
H630 H 0.46196 0.10832 0.02962 0.0
H631 H 0.45413 0.08472 0.01612 0.0
H632 H 0.42773 1.0032 1.0067 0.0
H633 H 0.4509 0.01697 0.99834 0.0
H634 H 0.41138 1.00055 0.96007 0.0
H635 H 0.43437 0.01442 0.95186 0.0
H636 H 0.50474 0.02582 0.91029 0.0
H637 H 0.54569 0.04824 0.92869 0.0
H638 H 0.53117 0.05719 0.95083 0.0
H639 H 0.49028 0.03466 0.93276 0.0
Mn640 Mn 0.26025 0.88163 0.01539 0.0
Mn641 Mn 0.25925 0.89542 0.97962 0.0
C642 C 0.24896 0.86718 0.99533 0.0
C643 C 0.27119 0.86762 0.03522 0.0
C644 C 0.23825 0.90659 1.00493 0.0
O645 O 0.27725 0.89849 0.01615 0.0
O646 O 0.27568 0.90617 0.99178 0.0
C647 C 0.28933 0.88455 0.96874 0.0
N648 N 0.27381 0.88503 0.96709 0.0
C649 C 0.27457 0.86949 0.94404 0.0
C650 C 0.29058 0.8689 0.94546 0.0
C651 C 0.29798 0.87643 0.95789 0.0
C652 C 0.26656 0.87777 0.95521 0.0
H653 H 0.29506 0.89031 0.97828 0.0
C654 C 0.28175 0.9069 1.00514 0.0
O655 O 0.26147 0.87836 0.03786 0.0
O656 O 0.2752 0.86547 0.02107 0.0
N657 N 0.24398 0.88588 0.96658 0.0
C658 C 0.22842 0.88697 0.96728 0.0
C659 C 0.21927 0.87988 0.95581 0.0
C660 C 0.22621 0.87184 0.94369 0.0
C661 C 0.24224 0.8709 0.9432 0.0
C662 C 0.25077 0.87832 0.95488 0.0
H663 H 0.22303 0.8932 0.97653 0.0
O664 O 0.24497 0.86485 0.00936 0.0
O665 O 0.25914 0.87804 0.99345 0.0
O666 O 0.24334 0.89778 0.01511 0.0
O667 O 0.24354 0.90672 0.99136 0.0
C668 C 0.25008 0.86274 0.93168 0.0
C669 C 0.26623 0.86198 0.93213 0.0
H670 H 0.29728 0.8626 0.93714 0.0
H671 H 0.31032 0.87597 0.9591 0.0
H672 H 0.20691 0.88063 0.95628 0.0
H673 H 0.2191 0.8664 0.93487 0.0
H674 H 0.24378 0.85683 0.92252 0.0
H675 H 0.27211 0.85549 0.92333 0.0
Mn676 Mn 0.14057 0.51215 0.2603 0.0
Mn677 Mn 0.12332 0.54646 0.26105 0.0
C678 C 0.15302 0.53372 0.25016 0.0
C679 C 0.15623 0.49309 0.27036 0.0
C680 C 0.11452 0.52095 0.23839 0.0
O681 O 0.12405 0.50931 0.2769 0.0
O682 O 0.11388 0.53275 0.27625 0.0
C683 C 0.13288 0.55725 0.29203 0.0
N684 N 0.13205 0.55951 0.27673 0.0
C685 C 0.14186 0.58534 0.27984 0.0
C686 C 0.14281 0.58332 0.29565 0.0
C687 C 0.13842 0.56917 0.30175 0.0
C688 C 0.13657 0.57295 0.27071 0.0
H689 H 0.12924 0.54648 0.29678 0.0
C690 C 0.11454 0.51931 0.28169 0.0
O691 O 0.14565 0.48999 0.26026 0.0
O692 O 0.15745 0.50728 0.2751 0.0
N693 N 0.13116 0.56117 0.24714 0.0
C694 C 0.13036 0.56091 0.2316 0.0
C695 C 0.13464 0.57407 0.22364 0.0
C696 C 0.13932 0.58745 0.23176 0.0
C697 C 0.14006 0.58742 0.24776 0.0
C698 C 0.13594 0.57388 0.25503 0.0
H699 H 0.12634 0.55078 0.22535 0.0
O700 O 0.15645 0.51996 0.24564 0.0
O701 O 0.14228 0.53455 0.26041 0.0
O702 O 0.12413 0.51138 0.24325 0.0
O703 O 0.11331 0.53434 0.2443 0.0
C704 C 0.14467 0.60029 0.25678 0.0
C705 C 0.14582 0.59919 0.27279 0.0
H706 H 0.1469 0.59255 0.3032 0.0
H707 H 0.13913 0.56751 0.31394 0.0
H708 H 0.13408 0.574 0.2113 0.0
H709 H 0.1424 0.59765 0.22558 0.0
H710 H 0.14761 0.61104 0.25151 0.0
H711 H 0.14972 0.60907 0.27956 0.0
Mn712 Mn 0.76358 0.6357 0.00834 0.0
Mn713 Mn 0.73067 0.64966 0.99414 0.0
C714 C 0.74055 0.62138 0.00936 0.0
C715 C 0.78649 0.62179 1.00706 0.0
C716 C 0.74398 0.66023 0.02466 0.0
O717 O 0.77167 0.65252 0.99409 0.0
O718 O 0.74882 0.66105 0.98626 0.0
C719 C 0.73534 0.64043 0.96175 0.0
N720 N 0.72654 0.64029 0.97457 0.0
C721 C 0.70599 0.62679 0.96124 0.0
C722 C 0.71479 0.62683 0.94788 0.0
C723 C 0.72957 0.6336 0.94817 0.0
C724 C 0.71242 0.63359 0.97449 0.0
H725 H 0.74663 0.64576 0.96188 0.0
C726 C 0.76351 0.66161 0.98635 0.0
O727 O 0.78441 0.63261 0.01717 0.0
O728 O 0.77548 0.61941 0.99717 0.0
N729 N 0.71202 0.63981 1.00047 0.0
C730 C 0.70529 0.64014 0.01448 0.0
C731 C 0.69064 0.63342 0.01626 0.0
C732 C 0.68291 0.62678 1.00356 0.0
C733 C 0.68996 0.62682 0.9892 0.0
C734 C 0.70467 0.63347 0.98817 0.0
H735 H 0.71109 0.64546 0.02423 0.0
O736 O 0.75161 0.61913 0.01895 0.0
O737 O 0.74315 0.63204 0.99953 0.0
O738 O 0.75591 0.65205 0.02374 0.0
O739 O 0.73359 0.65997 0.01434 0.0
C740 C 0.683 0.6205 0.97586 0.0
C741 C 0.69108 0.6203 0.96194 0.0
H742 H 0.71034 0.62168 0.93735 0.0
H743 H 0.73645 0.63366 0.93791 0.0
H744 H 0.68526 0.63347 0.02738 0.0
H745 H 0.67159 0.62166 1.00496 0.0
H746 H 0.67148 0.6156 0.97622 0.0
H747 H 0.68571 0.61513 0.95184 0.0
Mn748 Mn 0.88561 0.01237 0.26251 0.0
Mn749 Mn 0.90274 0.97801 0.26137 0.0
C750 C 0.87297 0.99084 0.25141 0.0
C751 C 0.87007 0.03159 0.27323 0.0
C752 C 0.91126 1.00342 0.2399 0.0
O753 O 0.90213 0.01507 0.27937 0.0
O754 O 0.91269 0.99184 0.27693 0.0
C755 C 0.89407 0.96758 0.29215 0.0
N756 N 0.89439 0.96517 0.27673 0.0
C757 C 0.88439 0.93947 0.27903 0.0
C758 C 0.88395 0.94165 0.29494 0.0
C759 C 0.88871 0.95581 0.30151 0.0
C760 C 0.88954 0.95172 0.27028 0.0
H761 H 0.89798 0.97835 0.29726 0.0
C762 C 0.91194 1.00516 0.28327 0.0
O763 O 0.88072 0.03455 0.26341 0.0
O764 O 0.86873 0.01743 0.27737 0.0
N765 N 0.8944 0.9632 0.24705 0.0
C766 C 0.89474 0.9633 0.23151 0.0
C767 C 0.89005 0.9501 0.22313 0.0
C768 C 0.88542 0.93686 0.23082 0.0
C769 C 0.88517 0.93706 0.24683 0.0
C770 C 0.88969 0.95062 0.25455 0.0
H771 H 0.8987 0.97331 0.22557 0.0
O772 O 0.86964 1.00459 0.24742 0.0
O773 O 0.88381 0.98999 0.2616 0.0
O774 O 0.90199 0.01308 0.24558 0.0
O775 O 0.91233 0.98991 0.24488 0.0
C776 C 0.88068 0.92432 0.25545 0.0
C777 C 0.88004 0.9256 0.27152 0.0
H778 H 0.88 0.93253 0.30221 0.0
H779 H 0.88842 0.95758 0.31378 0.0
H780 H 0.89024 0.95004 0.21077 0.0
H781 H 0.88202 0.92664 0.22431 0.0
H782 H 0.87744 0.91356 0.24982 0.0
H783 H 0.87622 0.91583 0.27799 0.0
Mn784 Mn 0.26504 0.1355 0.50867 0.0
Mn785 Mn 0.23206 0.14932 0.49437 0.0
C786 C 0.24207 0.12114 0.51005 0.0
C787 C 0.288 0.12166 0.50744 0.0
C788 C 0.24553 0.16026 0.52472 0.0
O789 O 0.27306 0.15218 0.49422 0.0
O790 O 0.25018 0.16049 0.4862 0.0
C791 C 0.23653 0.13931 0.46217 0.0
N792 N 0.22774 0.13963 0.47499 0.0
C793 C 0.20719 0.12565 0.46213 0.0
C794 C 0.21598 0.12524 0.44876 0.0
C795 C 0.23074 0.13205 0.44881 0.0
C796 C 0.21358 0.13302 0.47511 0.0
H797 H 0.24785 0.14457 0.46214 0.0
C798 C 0.26487 0.16111 0.48632 0.0
O799 O 0.28591 0.13256 0.51745 0.0
O800 O 0.27697 0.11914 0.4976 0.0
N801 N 0.21336 0.13978 0.50097 0.0
C802 C 0.20667 0.14056 0.51499 0.0
C803 C 0.19185 0.13429 0.5169 0.0
C804 C 0.18404 0.1274 0.50437 0.0
C805 C 0.19119 0.12665 0.49009 0.0
C806 C 0.20587 0.13329 0.48882 0.0
H807 H 0.21255 0.14603 0.5246 0.0
O808 O 0.25324 0.11906 0.51956 0.0
O809 O 0.24451 0.13169 0.50004 0.0
O810 O 0.25738 0.15196 0.52394 0.0
O811 O 0.23517 0.15998 0.51437 0.0
C812 C 0.18438 0.11945 0.4771 0.0
C813 C 0.19241 0.11887 0.46315 0.0
H814 H 0.21156 0.11964 0.43843 0.0
H815 H 0.23762 0.13173 0.43855 0.0
H816 H 0.18642 0.13484 0.52798 0.0
H817 H 0.17258 0.12262 0.50587 0.0
H818 H 0.17306 0.11414 0.47777 0.0
H819 H 0.18715 0.11311 0.4533 0.0
Mn820 Mn 0.38517 0.51447 0.76191 0.0
Mn821 Mn 0.39948 0.47882 0.75964 0.0
C822 C 0.37101 0.49425 0.75033 0.0
C823 C 0.37081 0.5342 0.77335 0.0
C824 C 0.41034 0.50443 0.73926 0.0
O825 O 0.40194 0.51528 0.7787 0.0
O826 O 0.41015 0.49104 0.77607 0.0
C827 C 0.38898 0.46759 0.78956 0.0
N828 N 0.38935 0.46605 0.77406 0.0
C829 C 0.37466 0.44243 0.77461 0.0
C830 C 0.37417 0.44372 0.79059 0.0
C831 C 0.3813 0.4564 0.79808 0.0
C832 C 0.38238 0.45399 0.76672 0.0
H833 H 0.39451 0.47727 0.79537 0.0
C834 C 0.41059 0.50433 0.78262 0.0
O835 O 0.38169 0.53695 0.76369 0.0
O836 O 0.36873 0.51998 0.77703 0.0
N837 N 0.39003 0.4657 0.74434 0.0
C838 C 0.39094 0.46653 0.72885 0.0
C839 C 0.38401 0.45494 0.71964 0.0
C840 C 0.37643 0.44251 0.72643 0.0
C841 C 0.3758 0.44182 0.74239 0.0
C842 C 0.38283 0.45376 0.75099 0.0
H843 H 0.39686 0.47599 0.72357 0.0
O844 O 0.36856 0.50831 0.74673 0.0
O845 O 0.38185 0.49243 0.76028 0.0
O846 O 0.4015 0.51451 0.74493 0.0
O847 O 0.41057 0.49075 0.74403 0.0
C848 C 0.36842 0.4298 0.7501 0.0
C849 C 0.36773 0.43016 0.7662 0.0
H850 H 0.3683 0.4351 0.79721 0.0
H851 H 0.38094 0.4575 0.81041 0.0
H852 H 0.38456 0.45555 0.70733 0.0
H853 H 0.37109 0.43359 0.71929 0.0
H854 H 0.363 0.42034 0.74376 0.0
H855 H 0.36176 0.42099 0.77198 0.0
Mn856 Mn 0.76061 0.38117 0.51554 0.0
Mn857 Mn 0.75982 0.39563 0.48008 0.0
C858 C 0.74971 0.36696 0.49507 0.0
C859 C 0.77158 0.36698 0.53522 0.0
C860 C 0.7385 0.40614 0.50541 0.0
O861 O 0.77738 0.39826 0.51679 0.0
O862 O 0.77616 0.40621 0.4925 0.0
C863 C 0.79004 0.38526 0.46906 0.0
N864 N 0.77451 0.38562 0.4674 0.0
C865 C 0.77551 0.37111 0.44373 0.0
C866 C 0.79152 0.37063 0.44516 0.0
C867 C 0.79881 0.37768 0.45792 0.0
C868 C 0.76737 0.37873 0.45525 0.0
H869 H 0.79569 0.39073 0.47881 0.0
C870 C 0.78206 0.40679 0.50594 0.0
O871 O 0.76164 0.3775 0.53794 0.0
O872 O 0.77576 0.36514 0.52108 0.0
N873 N 0.74467 0.38626 0.4668 0.0
C874 C 0.72909 0.38711 0.46753 0.0
C875 C 0.72005 0.38023 0.45584 0.0
C876 C 0.72711 0.37275 0.44345 0.0
C877 C 0.74316 0.37217 0.44288 0.0
C878 C 0.75157 0.37915 0.45489 0.0
H879 H 0.7236 0.39294 0.47696 0.0
O880 O 0.74562 0.3643 0.50901 0.0
O881 O 0.75977 0.37798 0.49353 0.0
O882 O 0.7435 0.3971 0.51542 0.0
O883 O 0.74398 0.40663 0.49193 0.0
C884 C 0.75114 0.36488 0.43091 0.0
C885 C 0.7673 0.36424 0.43139 0.0
H886 H 0.79833 0.36483 0.43657 0.0
H887 H 0.81116 0.37733 0.45912 0.0
H888 H 0.70767 0.38074 0.45636 0.0
H889 H 0.7201 0.36745 0.43446 0.0
H890 H 0.74494 0.35949 0.4214 0.0
H891 H 0.77328 0.35833 0.42225 0.0
Mn892 Mn 0.64268 0.01203 0.76063 0.0
Mn893 Mn 0.62568 0.04647 0.7615 0.0
C894 C 0.65532 0.0336 0.75067 0.0
C895 C 0.65819 0.99277 0.77058 0.0
C896 C 0.61685 0.0212 0.7386 0.0
O897 O 0.62609 0.00918 0.77716 0.0
O898 O 0.61599 0.03263 0.77644 0.0
C899 C 0.63501 0.05679 0.7927 0.0
N900 N 0.63435 0.05926 0.77742 0.0
C901 C 0.6443 0.08499 0.78096 0.0
C902 C 0.64509 0.08275 0.79674 0.0
C903 C 0.64054 0.06854 0.80262 0.0
C904 C 0.63903 0.07274 0.77162 0.0
H905 H 0.63125 0.04598 0.79728 0.0
C906 C 0.61654 0.01918 0.78185 0.0
O907 O 0.64762 0.98983 0.76043 0.0
O908 O 0.65949 1.00692 0.77544 0.0
N909 N 0.63376 0.06131 0.74786 0.0
C910 C 0.63307 0.06127 0.73232 0.0
C911 C 0.63748 0.07453 0.72458 0.0
C912 C 0.64218 0.08777 0.73291 0.0
C913 C 0.6428 0.08751 0.74891 0.0
C914 C 0.63855 0.07389 0.75596 0.0
H915 H 0.62903 0.05126 0.7259 0.0
O916 O 0.65866 0.01984 0.74607 0.0
O917 O 0.64455 0.03442 0.7609 0.0
O918 O 0.62628 0.01149 0.74354 0.0
O919 O 0.61578 0.03461 0.74451 0.0
C920 C 0.6474 0.10024 0.75814 0.0
C921 C 0.64841 0.09891 0.77413 0.0
H922 H 0.64915 0.09185 0.80445 0.0
H923 H 0.64111 0.06672 0.81478 0.0
H924 H 0.637 0.07464 0.71223 0.0
H925 H 0.64536 0.09805 0.72691 0.0
H926 H 0.65045 0.11105 0.75304 0.0
H927 H 0.65231 0.10868 0.78107 0.0
Mn928 Mn 0.01464 0.25833 0.88267 0.0
Mn929 Mn 0.97915 0.25677 0.89813 0.0
C930 C 0.99396 0.24725 0.86899 0.0
C931 C 0.03443 0.26958 0.86816 0.0
C932 C 1.00458 0.23578 0.90757 0.0
O933 O 0.01601 0.27508 0.89966 0.0
O934 O 0.99187 0.27292 0.90881 0.0
C935 C 0.96835 0.2871 0.88891 0.0
N936 N 0.96651 0.27158 0.88889 0.0
C937 C 0.94273 0.27276 0.87496 0.0
C938 C 0.94433 0.28876 0.87489 0.0
C939 C 0.95723 0.29595 0.88184 0.0
C940 C 0.95421 0.26454 0.88211 0.0
H941 H 0.97822 0.29268 0.89428 0.0
C942 C 1.00532 0.27918 0.90882 0.0
O943 O 0.03713 0.25968 0.87856 0.0
O944 O 0.02023 0.27351 0.86657 0.0
N945 N 0.96559 0.24178 0.88872 0.0
C946 C 0.96619 0.22622 0.88907 0.0
C947 C 0.95436 0.21728 0.88219 0.0
C948 C 0.94197 0.22442 0.87522 0.0
C949 C 0.94154 0.24044 0.87513 0.0
C950 C 0.95368 0.24876 0.8821 0.0
H951 H 0.97564 0.22068 0.8945 0.0
O952 O 0.00793 0.24331 0.86598 0.0
O953 O 0.99251 0.25721 0.88011 0.0
O954 O 0.01462 0.24128 0.89854 0.0
O955 O 0.99095 0.24079 0.90834 0.0
C956 C 0.9296 0.24849 0.86832 0.0
C957 C 0.93024 0.26464 0.86813 0.0
H958 H 0.93577 0.29563 0.86947 0.0
H959 H 0.95858 0.30829 0.88179 0.0
H960 H 0.95478 0.20492 0.8823 0.0
H961 H 0.93287 0.21748 0.86991 0.0
H962 H 0.91998 0.24237 0.86298 0.0
H963 H 0.92114 0.27068 0.86258 0.0
Mn964 Mn 0.51422 0.75738 0.38312 0.0
Mn965 Mn 0.47808 0.75482 0.39695 0.0
C966 C 0.49449 0.74571 0.36856 0.0
C967 C 0.53415 0.76922 0.36929 0.0
C968 C 0.50371 0.73461 0.40761 0.0
O969 O 0.5144 0.7741 0.40017 0.0
O970 O 0.48984 0.77145 0.40801 0.0
C971 C 0.4668 0.78471 0.38695 0.0
N972 N 0.46543 0.76915 0.38696 0.0
C973 C 0.44274 0.76947 0.37123 0.0
C974 C 0.44386 0.7855 0.37112 0.0
C975 C 0.45596 0.79314 0.379 0.0
C976 C 0.45385 0.76168 0.37941 0.0
H977 H 0.47609 0.79064 0.39296 0.0
C978 C 0.50313 0.77806 0.40869 0.0
O979 O 0.53682 0.75945 0.37982 0.0
O980 O 0.51989 0.77273 0.36726 0.0
N981 N 0.46543 0.73936 0.38703 0.0
C982 C 0.46646 0.72384 0.38758 0.0
C983 C 0.45542 0.71449 0.37997 0.0
C984 C 0.4434 0.72117 0.37195 0.0
C985 C 0.44254 0.73716 0.37161 0.0
C986 C 0.4538 0.7459 0.37951 0.0
H987 H 0.47567 0.71864 0.39373 0.0
O988 O 0.50869 0.7422 0.36616 0.0
O989 O 0.49227 0.75558 0.3796 0.0
O990 O 0.51398 0.7403 0.39895 0.0
O991 O 0.48994 0.7393 0.40784 0.0
C992 C 0.43108 0.74477 0.36354 0.0
C993 C 0.43121 0.76091 0.36332 0.0
H994 H 0.43557 0.79204 0.36494 0.0
H995 H 0.45694 0.80551 0.37891 0.0
H996 H 0.45618 0.70216 0.38026 0.0
H997 H 0.43497 0.71391 0.36602 0.0
H998 H 0.42224 0.73831 0.3573 0.0
H999 H 0.42247 0.76662 0.35689 0.0
Mn1000 Mn 0.01447 0.76295 0.63521 0.0
Mn1001 Mn 0.99911 0.73007 0.64872 0.0
C1002 C 0.01573 0.73993 0.62089 0.0
C1003 C 0.01345 0.78579 0.62138 0.0
C1004 C 0.02913 0.74432 0.66062 0.0
O1005 O 0.99962 0.77071 0.65194 0.0
O1006 O 0.98926 0.74797 0.6586 0.0
C1007 C 0.96757 0.73233 0.6364 0.0
N1008 N 0.9808 0.72446 0.6377 0.0
C1009 C 0.97009 0.70302 0.6232 0.0
C1010 C 0.95631 0.71086 0.6218 0.0
C1011 C 0.95508 0.72562 0.62835 0.0
C1012 C 0.9822 0.71037 0.6312 0.0
H1013 H 0.96656 0.74364 0.64149 0.0
C1014 C 0.98999 0.76263 0.65956 0.0
O1015 O 0.02343 0.78389 0.63213 0.0
O1016 O 1.00356 0.77462 0.619 0.0
N1017 N 1.00744 0.71179 0.63997 0.0
C1018 C 0.02172 0.70606 0.6418 0.0
C1019 C 0.025 0.69156 0.63553 0.0
C1020 C 0.0135 0.683 0.62767 0.0
C1021 C 0.99883 0.68906 0.62612 0.0
C1022 C 0.99627 0.70362 0.6325 0.0
H1023 H 0.03056 0.71249 0.64798 0.0
O1024 O 0.02547 0.75108 0.61859 0.0
O1025 O 1.00571 0.74252 0.6315 0.0
O1026 O 0.02947 0.75549 0.65151 0.0
O1027 O 0.01811 0.73445 0.66075 0.0
C1028 C 0.98665 0.68122 0.61849 0.0
C1029 C 0.97232 0.68824 0.61694 0.0
H1030 H 0.94662 0.70568 0.61567 0.0
H1031 H 0.9445 0.73176 0.62727 0.0
H1032 H 0.03635 0.68695 0.63681 0.0
H1033 H 0.01606 0.67182 0.62287 0.0
H1034 H 0.98825 0.66989 0.61355 0.0
H1035 H 0.96313 0.68221 0.61078 0.0
Mn1036 Mn 0.51313 0.26218 0.13656 0.0
Mn1037 Mn 0.49715 0.23131 0.15344 0.0
C1038 C 0.51276 0.23808 0.12398 0.0
C1039 C 0.51269 0.28414 0.12135 0.0
C1040 C 0.52862 0.24416 0.16215 0.0
O1041 O 0.49955 0.27213 0.15316 0.0
O1042 O 0.49008 0.25051 0.16331 0.0
C1043 C 0.46488 0.23609 0.14434 0.0
N1044 N 0.4773 0.22694 0.14493 0.0
C1045 C 0.46253 0.20519 0.13535 0.0
C1046 C 0.44955 0.21436 0.13464 0.0
C1047 C 0.45078 0.22992 0.13902 0.0
C1048 C 0.47636 0.21209 0.14034 0.0
H1049 H 0.46571 0.24797 0.14801 0.0
C1050 C 0.49113 0.26511 0.16283 0.0
O1051 O 0.523 0.28234 0.1318 0.0
O1052 O 0.50227 0.27332 0.1199 0.0
N1053 N 0.50259 0.2117 0.14533 0.0
C1054 C 0.51634 0.20465 0.14608 0.0
C1055 C 0.51718 0.18907 0.14193 0.0
C1056 C 0.5038 0.18083 0.13749 0.0
C1057 C 0.48977 0.18835 0.13684 0.0
C1058 C 0.48971 0.20395 0.14077 0.0
H1059 H 0.52654 0.21083 0.14999 0.0
O1060 O 0.52287 0.24859 0.12061 0.0
O1061 O 0.50314 0.24189 0.13467 0.0
O1062 O 0.52848 0.25521 0.15289 0.0
O1063 O 0.51753 0.23447 0.16311 0.0
C1064 C 0.4758 0.18097 0.13256 0.0
C1065 C 0.46226 0.18943 0.13153 0.0
H1066 H 0.4386 0.20957 0.13078 0.0
H1067 H 0.44082 0.23707 0.13851 0.0
H1068 H 0.52805 0.18335 0.14244 0.0
H1069 H 0.50445 0.16876 0.13454 0.0
H1070 H 0.47541 0.16882 0.12976 0.0
H1071 H 0.45168 0.18369 0.12786 0.0
H1072 H 0.21335 0.75775 0.8962 0.0
H1073 H 0.21763 0.7742 0.91893 0.0
H1074 H 0.23772 0.80919 0.89098 0.0
H1075 H 0.23362 0.79281 0.86824 0.0
H1076 H 0.24417 0.78724 0.93173 0.0
H1077 H 0.20473 0.83253 0.91414 0.0
H1078 H 0.205 0.81392 0.90475 0.0
H1079 H 0.21923 0.82832 0.90026 0.0
C1080 C 0.21883 0.76887 0.89487 0.0
C1081 C 0.22301 0.77394 0.88029 0.0
C1082 C 0.22119 0.77832 0.9079 0.0
C1083 C 0.22772 0.79309 0.90668 0.0
C1084 C 0.23229 0.79802 0.89221 0.0
H1085 H 0.26902 0.85233 0.97704 0.0
H1086 H 0.26339 0.83367 0.95637 0.0
C1087 C 0.22993 0.7886 0.87919 0.0
C1088 C 0.22985 0.8033 0.92049 0.0
H1089 H 0.22073 0.83836 0.93562 0.0
C1090 C 0.239 0.7984 0.9326 0.0
C1091 C 0.22291 0.81778 0.9218 0.0
C1092 C 0.21229 0.82342 0.90962 0.0
C1093 C 0.24177 0.80774 0.9457 0.0
C1094 C 0.23538 0.8225 0.9467 0.0
C1095 C 0.22582 0.82717 0.93482 0.0
C1096 C 0.23878 0.83344 0.95972 0.0
C1097 C 0.25139 0.80161 0.95843 0.0
C1098 C 0.22686 0.83979 0.96845 0.0
C1099 C 0.2301 0.85061 0.98022 0.0
C1100 C 0.24527 0.85558 0.98317 0.0
C1101 C 0.25719 0.84895 0.97473 0.0
C1102 C 0.25398 0.83812 0.96305 0.0
H1103 H 0.25132 0.78889 0.95814 0.0
H1104 H 0.26345 0.80568 0.95709 0.0
H1105 H 0.24725 0.80563 0.96978 0.0
H1106 H 0.21504 0.8364 0.96612 0.0
H1107 H 0.22073 0.85538 0.98674 0.0
H1108 H 0.02358 0.50863 0.40086 0.0
H1109 H 0.03838 0.50151 0.3781 0.0
H1110 H 0.06268 0.545 0.38089 0.0
H1111 H 0.04803 0.55216 0.40352 0.0
H1112 H 0.04058 0.51413 0.35035 0.0
H1113 H 0.09804 0.5162 0.37724 0.0
H1114 H 0.0806 0.51648 0.38829 0.0
H1115 H 0.08824 0.53383 0.38027 0.0
C1116 C 0.03205 0.5167 0.39662 0.0
C1117 C 0.03468 0.53093 0.40421 0.0
C1118 C 0.04058 0.51257 0.38362 0.0
C1119 C 0.05196 0.52254 0.37792 0.0
C1120 C 0.05436 0.53686 0.38529 0.0
H1121 H 0.08845 0.5342 0.28922 0.0
H1122 H 0.07319 0.53215 0.31221 0.0
C1123 C 0.04591 0.54097 0.39827 0.0
C1124 C 0.06094 0.51834 0.36395 0.0
H1125 H 0.09747 0.51727 0.3498 0.0
C1126 C 0.05302 0.51461 0.35031 0.0
C1127 C 0.07722 0.51859 0.36383 0.0
C1128 C 0.08652 0.52132 0.37824 0.0
C1129 C 0.06086 0.51202 0.33648 0.0
C1130 C 0.07709 0.51346 0.33614 0.0
C1131 C 0.08505 0.51632 0.34994 0.0
C1132 C 0.08588 0.5135 0.32149 0.0
C1133 C 0.05161 0.50788 0.32233 0.0
C1134 C 0.09835 0.50378 0.31892 0.0
C1135 C 0.1073 0.50498 0.30561 0.0
C1136 C 0.10407 0.51608 0.29475 0.0
C1137 C 0.09134 0.52549 0.29727 0.0
C1138 C 0.08246 0.52426 0.31043 0.0
H1139 H 0.04066 0.50191 0.32526 0.0
H1140 H 0.0487 0.5185 0.31638 0.0
H1141 H 0.05811 0.50042 0.31434 0.0
H1142 H 0.10133 0.49546 0.32733 0.0
H1143 H 0.11707 0.49766 0.30415 0.0
H1144 H 0.77507 0.76625 0.89081 0.0
H1145 H 0.77261 0.74674 0.91017 0.0
H1146 H 0.81636 0.72871 0.89697 0.0
H1147 H 0.81911 0.74853 0.87771 0.0
H1148 H 0.77214 0.71484 0.90575 0.0
H1149 H 0.8206 0.73368 0.94377 0.0
H1150 H 0.81277 0.7459 0.92949 0.0
H1151 H 0.82509 0.73056 0.92394 0.0
C1152 C 0.78431 0.7583 0.89212 0.0
C1153 C 0.79737 0.75913 0.88272 0.0
C1154 C 0.78283 0.74705 0.90317 0.0
C1155 C 0.79438 0.73634 0.90524 0.0
C1156 C 0.8074 0.73699 0.89582 0.0
H1157 H 0.79187 0.66106 0.97202 0.0
H1158 H 0.80112 0.67843 0.95207 0.0
C1159 C 0.80887 0.74825 0.88468 0.0
C1160 C 0.79236 0.72428 0.91694 0.0
H1161 H 0.80613 0.71195 0.95112 0.0
C1162 C 0.77966 0.71417 0.9156 0.0
C1163 C 0.80223 0.72325 0.92977 0.0
C1164 C 0.8159 0.73397 0.93198 0.0
C1165 C 0.77635 0.70334 0.92681 0.0
C1166 C 0.78581 0.70273 0.93997 0.0
C1167 C 0.79887 0.71242 0.94107 0.0
C1168 C 0.7814 0.69303 0.95314 0.0
C1169 C 0.76261 0.6927 0.92452 0.0
C1170 C 0.76762 0.6958 0.96081 0.0
C1171 C 0.76237 0.686 0.9721 0.0
C1172 C 0.7708 0.67314 0.9762 0.0
C1173 C 0.78511 0.67085 0.96919 0.0
C1174 C 0.79037 0.68073 0.95774 0.0
H1175 H 0.75938 0.69143 0.91227 0.0
H1176 H 0.76486 0.68118 0.92902 0.0
H1177 H 0.75267 0.69747 0.93075 0.0
H1178 H 0.76065 0.70538 0.95775 0.0
H1179 H 0.7514 0.68829 0.97736 0.0
H1180 H 1.00601 0.9759 0.38928 0.0
H1181 H 0.9911 0.98254 0.36677 0.0
H1182 H 0.96218 0.01083 0.39492 0.0
H1183 H 0.97727 1.00454 0.41747 0.0
H1184 H 0.95976 0.97665 0.3621 0.0
H1185 H 0.97268 0.03906 0.35945 0.0
H1186 H 0.98408 0.02638 0.37058 0.0
H1187 H 0.96582 0.03256 0.37754 0.0
C1188 C 0.99667 0.98377 0.39069 0.0
C1189 C 0.99293 0.9897 0.40527 0.0
C1190 C 0.98807 0.98749 0.37779 0.0
C1191 C 0.97559 0.99734 0.37905 0.0
C1192 C 0.9719 1.00342 0.39355 0.0
H1193 H 0.90689 0.02209 0.30979 0.0
H1194 H 0.92217 0.02154 0.33352 0.0
C1195 C 0.98046 0.99965 0.40649 0.0
C1196 C 0.96598 1.00047 0.36534 0.0
H1197 H 0.95416 0.0288 0.3419 0.0
C1198 C 0.95857 0.98806 0.3577 0.0
C1199 C 0.96424 0.01539 0.35964 0.0
C1200 C 0.9722 0.02913 0.36712 0.0
C1201 C 0.94957 0.9901 0.34458 0.0
C1202 C 0.94814 1.00493 0.33862 0.0
C1203 C 0.95527 0.01743 0.34642 0.0
C1204 C 0.93992 1.00735 0.3239 0.0
C1205 C 0.94154 0.97629 0.33724 0.0
C1206 C 0.94516 1.00024 0.31043 0.0
C1207 C 0.93651 1.00053 0.29698 0.0
C1208 C 0.92244 0.00812 0.29654 0.0
C1209 C 0.91772 0.01625 0.30971 0.0
C1210 C 0.9264 0.01586 0.3233 0.0
H1211 H 0.94018 0.9668 0.34538 0.0
H1212 H 0.93003 0.97923 0.33286 0.0
H1213 H 0.94847 0.97206 0.32748 0.0
H1214 H 0.9557 0.9939 0.31048 0.0
H1215 H 0.94056 0.99424 0.28703 0.0
H1216 H 0.24225 0.2425 0.65121 0.0
H1217 H 0.2485 0.22608 0.62911 0.0
H1218 H 0.2083 0.2413 0.60559 0.0
H1219 H 0.20226 0.25808 0.62734 0.0
H1220 H 0.23156 0.20208 0.61614 0.0
H1221 H 0.24108 0.2469 0.57337 0.0
H1222 H 0.24022 0.25123 0.5936 0.0
H1223 H 0.22284 0.24821 0.58268 0.0
C1224 C 0.23488 0.24257 0.64123 0.0
C1225 C 0.22175 0.25169 0.64112 0.0
C1226 C 0.23841 0.23307 0.62863 0.0
C1227 C 0.229 0.23256 0.61555 0.0
C1228 C 0.21593 0.24167 0.61539 0.0
H1229 H 0.22223 0.18027 0.53038 0.0
H1230 H 0.21895 0.19739 0.55254 0.0
C1231 C 0.21238 0.25115 0.62796 0.0
C1232 C 0.23248 0.2221 0.60232 0.0
H1233 H 0.23841 0.2212 0.56371 0.0
C1234 C 0.23321 0.20628 0.60471 0.0
C1235 C 0.23463 0.22753 0.58735 0.0
C1236 C 0.23481 0.24441 0.58408 0.0
C1237 C 0.23554 0.19576 0.59253 0.0
C1238 C 0.23743 0.20119 0.57753 0.0
C1239 C 0.23691 0.21701 0.57517 0.0
C1240 C 0.23961 0.19063 0.56408 0.0
C1241 C 0.23546 0.17888 0.59575 0.0
C1242 C 0.25242 0.18118 0.56304 0.0
C1243 C 0.25438 0.17134 0.55032 0.0
C1244 C 0.24357 0.17074 0.53829 0.0
C1245 C 0.23081 0.18033 0.53936 0.0
C1246 C 0.2289 0.19018 0.55205 0.0
H1247 H 0.2303 0.1764 0.60702 0.0
H1248 H 0.229 0.17223 0.58676 0.0
H1249 H 0.24744 0.17484 0.59582 0.0
H1250 H 0.26101 0.1815 0.57202 0.0
H1251 H 0.26438 0.16421 0.54993 0.0
H1252 H 0.50323 0.51646 0.62383 0.0
H1253 H 0.488 0.50989 0.64632 0.0
H1254 H 0.46785 0.55448 0.64632 0.0
H1255 H 0.48301 0.56115 0.62397 0.0
H1256 H 0.48655 0.52313 0.67537 0.0
H1257 H 0.43 0.52656 0.64666 0.0
H1258 H 0.44779 0.52621 0.63621 0.0
H1259 H 0.44156 0.5437 0.64523 0.0
C1260 C 0.49564 0.52492 0.62866 0.0
C1261 C 0.49427 0.53929 0.62189 0.0
C1262 C 0.48687 0.52112 0.64151 0.0
C1263 C 0.47648 0.53155 0.64788 0.0
C1264 C 0.47542 0.54604 0.64141 0.0
H1265 H 0.41257 0.53183 0.72441 0.0
H1266 H 0.42895 0.5383 0.70275 0.0
C1267 C 0.48414 0.54984 0.62858 0.0
C1268 C 0.46685 0.52739 0.66133 0.0
H1269 H 0.42969 0.52435 0.67364 0.0
C1270 C 0.47412 0.52331 0.67495 0.0
C1271 C 0.4506 0.52761 0.66087 0.0
C1272 C 0.442 0.53111 0.64642 0.0
C1273 C 0.46563 0.51981 0.68814 0.0
C1274 C 0.44938 0.52014 0.68769 0.0
C1275 C 0.44213 0.52416 0.67406 0.0
C1276 C 0.43969 0.51624 0.70116 0.0
C1277 C 0.47416 0.51615 0.70257 0.0
C1278 C 0.4401 0.50163 0.70748 0.0
C1279 C 0.43072 0.49787 0.71987 0.0
C1280 C 0.42061 0.50862 0.72628 0.0
C1281 C 0.42021 0.52325 0.71989 0.0
C1282 C 0.42958 0.52698 0.70745 0.0
H1283 H 0.48631 0.52026 0.70224 0.0
H1284 H 0.46857 0.52135 0.71275 0.0
H1285 H 0.47412 0.50355 0.7039 0.0
H1286 H 0.44754 0.49301 0.70267 0.0
H1287 H 0.43132 0.48645 0.72435 0.0
H1288 H 0.81987 0.27528 0.64108 0.0
H1289 H 0.81749 0.29456 0.6214 0.0
H1290 H 0.76891 0.28463 0.61809 0.0
H1291 H 0.77117 0.26542 0.63771 0.0
H1292 H 0.78204 0.28588 0.59005 0.0
H1293 H 0.79999 0.33719 0.62477 0.0
H1294 H 0.81369 0.32214 0.62451 0.0
H1295 H 0.79526 0.31905 0.63318 0.0
C1296 C 0.80864 0.27733 0.63632 0.0
C1297 C 0.79572 0.26871 0.64103 0.0
C1298 C 0.80729 0.2884 0.62505 0.0
C1299 C 0.79298 0.29123 0.61831 0.0
C1300 C 0.78009 0.28269 0.62305 0.0
H1301 H 0.76324 0.36761 0.56529 0.0
H1302 H 0.7695 0.34935 0.58494 0.0
C1303 C 0.78142 0.27162 0.63426 0.0
C1304 C 0.79138 0.30273 0.60605 0.0
H1305 H 0.79611 0.34076 0.59832 0.0
C1306 C 0.78517 0.29787 0.59186 0.0
C1307 C 0.79528 0.31845 0.6084 0.0
C1308 C 0.8013 0.32459 0.62357 0.0
C1309 C 0.78271 0.30821 0.58005 0.0
C1310 C 0.78686 0.32388 0.5823 0.0
C1311 C 0.79309 0.32875 0.59648 0.0
C1312 C 0.78399 0.33552 0.5704 0.0
C1313 C 0.77519 0.30229 0.56545 0.0
C1314 C 0.79034 0.33416 0.5557 0.0
C1315 C 0.78672 0.34461 0.54436 0.0
C1316 C 0.77677 0.35675 0.54752 0.0
C1317 C 0.77093 0.35841 0.56241 0.0
C1318 C 0.77451 0.34796 0.5737 0.0
H1319 H 0.76925 0.29106 0.56699 0.0
H1320 H 0.76673 0.31052 0.56121 0.0
H1321 H 0.78411 0.30073 0.55657 0.0
H1322 H 0.79798 0.32491 0.55292 0.0
H1323 H 0.79148 0.34301 0.53305 0.0
H1324 H 0.54319 0.96629 0.61973 0.0
H1325 H 0.55849 0.97247 0.64257 0.0
H1326 H 0.53704 0.01635 0.64664 0.0
H1327 H 0.52162 0.01022 0.62375 0.0
H1328 H 0.57956 0.99534 0.64777 0.0
H1329 H 0.53233 1.00104 0.6896 0.0
H1330 H 0.52938 0.99271 0.67073 0.0
H1331 H 0.53049 0.01317 0.67349 0.0
C1332 C 0.54171 0.97729 0.62543 0.0
C1333 C 0.53113 0.98776 0.61981 0.0
C1334 C 0.55046 0.98079 0.63857 0.0
C1335 C 0.54884 0.9948 0.64652 0.0
C1336 C 0.53828 1.0053 0.64097 0.0
H1337 H 0.5954 0.03878 0.72468 0.0
H1338 H 0.57928 0.03212 0.70254 0.0
C1339 C 0.52946 1.00178 0.62784 0.0
C1340 C 0.5586 0.99856 0.66027 0.0
H1341 H 0.55727 0.00875 0.69822 0.0
C1342 C 0.57466 0.99819 0.65882 0.0
C1343 C 0.55229 1.0023 0.67473 0.0
C1344 C 0.53518 1.0022 0.67732 0.0
C1345 C 0.58451 1.00171 0.67127 0.0
C1346 C 0.57819 1.00548 0.68571 0.0
C1347 C 0.56214 1.00586 0.68718 0.0
C1348 C 0.58802 0.00931 0.69937 0.0
C1349 C 0.60162 1.00172 0.66873 0.0
C1350 C 0.59824 0.99865 0.70519 0.0
C1351 C 0.60754 1.00241 0.71792 0.0
C1352 C 0.60679 0.01693 0.72521 0.0
C1353 C 0.59637 0.0275 0.71944 0.0
C1354 C 0.58709 0.02371 0.70674 0.0
H1355 H 0.60453 1.00244 0.65643 0.0
H1356 H 0.60737 0.01145 0.67502 0.0
H1357 H 0.60631 0.99093 0.67302 0.0
H1358 H 0.59898 0.98735 0.69992 0.0
H1359 H 0.61532 0.99393 0.72203 0.0
H1360 H 0.8878 0.20504 0.76944 0.0
H1361 H 0.90762 0.20677 0.78943 0.0
H1362 H 0.90799 0.25599 0.78714 0.0
H1363 H 0.88796 0.25441 0.76758 0.0
H1364 H 0.93741 0.2199 0.78846 0.0
H1365 H 0.90273 0.24923 0.83268 0.0
H1366 H 0.89422 0.24012 0.81588 0.0
H1367 H 0.90301 0.25889 0.81484 0.0
C1368 C 0.89195 0.21625 0.77333 0.0
C1369 C 0.88621 0.22958 0.76685 0.0
C1370 C 0.90337 0.21721 0.78469 0.0
C1371 C 0.9092 0.23152 0.78997 0.0
C1372 C 0.90353 0.24482 0.78348 0.0
H1373 H 0.97595 0.2679 0.85555 0.0
H1374 H 0.95584 0.26325 0.83633 0.0
C1375 C 0.89217 0.24387 0.77213 0.0
C1376 C 0.92137 0.23265 0.80203 0.0
H1377 H 0.92967 0.249 0.83694 0.0
C1378 C 0.93567 0.22605 0.79919 0.0
C1379 C 0.91916 0.24076 0.816 0.0
C1380 C 0.90391 0.24754 0.82013 0.0
C1381 C 0.94794 0.22777 0.8097 0.0
C1382 C 0.94577 0.23603 0.82365 0.0
C1383 C 0.93139 0.24248 0.82646 0.0
C1384 C 0.9583 0.23864 0.83527 0.0
C1385 C 0.96328 0.22132 0.80536 0.0
C1386 C 0.96646 0.2264 0.8413 0.0
C1387 C 0.97815 0.22911 0.8522 0.0
C1388 C 0.98149 0.24403 0.85772 0.0
C1389 C 0.97336 0.25623 0.85174 0.0
C1390 C 0.96188 0.25357 0.8407 0.0
H1391 H 0.9643 0.21959 0.79279 0.0
H1392 H 0.97288 0.22896 0.80939 0.0
H1393 H 0.96451 0.21001 0.81065 0.0
H1394 H 0.96371 0.21472 0.83771 0.0
H1395 H 0.98434 0.21952 0.85656 0.0
H1396 H 0.46992 0.88748 0.50059 0.0
H1397 H 0.476 0.8645 0.48551 0.0
H1398 H 0.51308 0.88903 0.46386 0.0
H1399 H 0.50729 0.91202 0.47917 0.0
H1400 H 0.47569 0.86167 0.45347 0.0
H1401 H 0.53344 0.84917 0.47653 0.0
H1402 H 0.52039 0.86178 0.48633 0.0
H1403 H 0.53097 0.86834 0.47012 0.0
C1404 C 0.47956 0.88796 0.49284 0.0
C1405 C 0.48813 0.90167 0.49119 0.0
C1406 C 0.48297 0.8748 0.48413 0.0
C1407 C 0.49512 0.87493 0.47364 0.0
C1408 C 0.50381 0.88853 0.47204 0.0
H1409 H 0.52376 0.80261 0.40787 0.0
H1410 H 0.52299 0.82648 0.42339 0.0
C1411 C 0.50037 0.90173 0.4807 0.0
C1412 C 0.49807 0.86106 0.46386 0.0
H1413 H 0.52444 0.83353 0.45578 0.0
C1414 C 0.48636 0.85554 0.454 0.0
C1415 C 0.51206 0.85311 0.46437 0.0
C1416 C 0.52493 0.85828 0.47497 0.0
C1417 C 0.48818 0.84232 0.44475 0.0
C1418 C 0.50197 0.83409 0.44558 0.0
C1419 C 0.51386 0.83979 0.45516 0.0
C1420 C 0.50376 0.81916 0.43717 0.0
C1421 C 0.47528 0.83734 0.43406 0.0
C1422 C 0.49368 0.80687 0.44015 0.0
C1423 C 0.49408 0.79333 0.43136 0.0
C1424 C 0.5047 0.79157 0.41939 0.0
C1425 C 0.51546 0.80353 0.417 0.0
C1426 C 0.51499 0.81721 0.42582 0.0
H1427 H 0.4677 0.847 0.43146 0.0
H1428 H 0.47979 0.83253 0.42316 0.0
H1429 H 0.46818 0.82834 0.43954 0.0
H1430 H 0.48516 0.80791 0.44908 0.0
H1431 H 0.48573 0.78433 0.43372 0.0
H1432 H 0.15725 0.28893 0.78871 0.0
H1433 H 0.136 0.28332 0.80605 0.0
H1434 H 0.10593 0.31009 0.77872 0.0
H1435 H 0.12697 0.31541 0.76109 0.0
H1436 H 0.11884 0.30389 0.82339 0.0
H1437 H 0.08098 0.27038 0.78326 0.0
H1438 H 0.10094 0.27444 0.77924 0.0
H1439 H 0.08685 0.28887 0.77658 0.0
C1440 C 0.14606 0.29342 0.78621 0.0
C1441 C 0.14388 0.30259 0.7734 0.0
C1442 C 0.13393 0.2903 0.79623 0.0
C1443 C 0.11927 0.29612 0.79364 0.0
C1444 C 0.11703 0.30523 0.78087 0.0
H1445 H 0.0322 0.28824 0.84341 0.0
H1446 H 0.05266 0.29565 0.82567 0.0
C1447 C 0.12916 0.3084 0.77086 0.0
C1448 C 0.1065 0.29306 0.80458 0.0
H1449 H 0.07054 0.27685 0.80744 0.0
C1450 C 0.1083 0.29794 0.8199 0.0
C1451 C 0.09267 0.28537 0.80005 0.0
C1452 C 0.09023 0.27933 0.78393 0.0
C1453 C 0.09666 0.29549 0.83074 0.0
C1454 C 0.0829 0.28765 0.82626 0.0
C1455 C 0.08104 0.28289 0.81091 0.0
C1456 C 0.07055 0.28377 0.83743 0.0
C1457 C 0.09913 0.30157 0.84685 0.0
C1458 C 0.07371 0.27459 0.84995 0.0
C1459 C 0.06207 0.27039 0.86011 0.0
C1460 C 0.04691 0.27516 0.85797 0.0
C1461 C 0.04375 0.28445 0.84548 0.0
C1462 C 0.05544 0.28864 0.83529 0.0
H1463 H 0.10784 0.31105 0.84733 0.0
H1464 H 0.08827 0.30576 0.85186 0.0
H1465 H 0.10335 0.29224 0.85402 0.0
H1466 H 0.08516 0.27037 0.85171 0.0
H1467 H 0.06493 0.26312 0.8695 0.0
H1468 H 0.56116 0.62228 0.48088 0.0
H1469 H 0.55406 0.64419 0.4658 0.0
H1470 H 0.50923 0.64374 0.4864 0.0
H1471 H 0.51623 0.62173 0.50153 0.0
H1472 H 0.5314 0.64654 0.44449 0.0
H1473 H 0.52184 0.68848 0.49184 0.0
H1474 H 0.53129 0.6706 0.49465 0.0
H1475 H 0.51071 0.67105 0.49332 0.0
C1476 C 0.54975 0.62677 0.48221 0.0
C1477 C 0.53928 0.62012 0.49247 0.0
C1478 C 0.54573 0.63939 0.47359 0.0
C1479 C 0.53116 0.64583 0.47504 0.0
C1480 C 0.52067 0.63927 0.48529 0.0
H1481 H 0.48539 0.71957 0.42821 0.0
H1482 H 0.492 0.69817 0.4443 0.0
C1483 C 0.52469 0.62663 0.49395 0.0
C1484 C 0.52688 0.65903 0.46542 0.0
H1485 H 0.51469 0.69602 0.467 0.0
C1486 C 0.52781 0.65737 0.44944 0.0
C1487 C 0.52215 0.67321 0.4718 0.0
C1488 C 0.52156 0.67605 0.48884 0.0
C1489 C 0.52397 0.66933 0.43973 0.0
C1490 C 0.51929 0.68352 0.4461 0.0
C1491 C 0.51827 0.68518 0.46207 0.0
C1492 C 0.51541 0.69676 0.43639 0.0
C1493 C 0.52465 0.66654 0.42268 0.0
C1494 C 0.52641 0.70334 0.4267 0.0
C1495 C 0.52268 0.71564 0.41746 0.0
C1496 C 0.50784 0.72173 0.41772 0.0
C1497 C 0.49692 0.71523 0.42763 0.0
C1498 C 0.50068 0.70297 0.43688 0.0
H1499 H 0.52449 0.65412 0.41964 0.0
H1500 H 0.51487 0.67193 0.41686 0.0
H1501 H 0.53545 0.67168 0.41825 0.0
H1502 H 0.53794 0.69899 0.4263 0.0
H1503 H 0.53145 0.72032 0.41008 0.0
H1504 H 0.8751 0.77832 0.74314 0.0
H1505 H 0.89615 0.77635 0.72496 0.0
H1506 H 0.91598 0.81872 0.74292 0.0
H1507 H 0.89523 0.82048 0.76163 0.0
H1508 H 0.90562 0.79499 0.7022 0.0
H1509 H 0.9523 0.79064 0.74521 0.0
H1510 H 0.93228 0.78888 0.75017 0.0
H1511 H 0.94087 0.80742 0.74709 0.0
C1512 C 0.884 0.78717 0.74339 0.0
C1513 C 0.88347 0.79947 0.75407 0.0
C1514 C 0.89601 0.78608 0.73286 0.0
C1515 C 0.90787 0.79722 0.73268 0.0
C1516 C 0.90719 0.80977 0.743 0.0
H1517 H 0.98947 0.79254 0.67129 0.0
H1518 H 0.97011 0.80363 0.68859 0.0
C1519 C 0.89516 0.81087 0.75359 0.0
C1520 C 0.92083 0.79553 0.72165 0.0
H1521 H 0.95953 0.78976 0.71932 0.0
C1522 C 0.91742 0.79402 0.70597 0.0
C1523 C 0.93631 0.79429 0.72648 0.0
C1524 C 0.94072 0.79526 0.74315 0.0
C1525 C 0.92888 0.79089 0.69514 0.0
C1526 C 0.94421 0.78911 0.70002 0.0
C1527 C 0.9478 0.79125 0.71558 0.0
C1528 C 0.95608 0.78292 0.68947 0.0
C1529 C 0.92445 0.78908 0.67852 0.0
C1530 C 0.95471 0.76765 0.68436 0.0
C1531 C 0.96569 0.76131 0.6747 0.0
C1532 C 0.97845 0.77006 0.66975 0.0
C1533 C 0.97982 0.78547 0.67481 0.0
C1534 C 0.96878 0.79181 0.68472 0.0
H1535 H 0.9133 0.79446 0.6761 0.0
H1536 H 0.93341 0.79421 0.67112 0.0
H1537 H 0.92334 0.7767 0.67546 0.0
H1538 H 0.94511 0.76053 0.68796 0.0
H1539 H 0.96408 0.74944 0.67109 0.0
H1540 H 0.01634 0.8951 0.52123 0.0
H1541 H 0.00933 0.87379 0.53778 0.0
H1542 H 0.04971 0.88333 0.56523 0.0
H1543 H 0.05659 0.90475 0.54905 0.0
H1544 H 0.02621 0.84737 0.54441 0.0
H1545 H 0.01558 0.88169 0.59718 0.0
H1546 H 0.01667 0.8901 0.57859 0.0
H1547 H 0.03393 0.88564 0.58873 0.0
C1548 C 0.02364 0.89278 0.53089 0.0
C1549 C 0.03706 0.90172 0.53374 0.0
C1550 C 0.01966 0.88052 0.5403 0.0
C1551 C 0.02887 0.87702 0.55291 0.0
C1552 C 0.04226 0.8859 0.55576 0.0
H1553 H 0.034 0.80986 0.62329 0.0
H1554 H 0.03652 0.8316 0.60643 0.0
C1555 C 0.04628 0.89808 0.54634 0.0
C1556 C 0.02479 0.86392 0.56291 0.0
H1557 H 0.01767 0.85477 0.60003 0.0
C1558 C 0.02417 0.84899 0.55655 0.0
C1559 C 0.02214 0.86598 0.57877 0.0
C1560 C 0.02196 0.88172 0.58623 0.0
C1561 C 0.0216 0.8361 0.56566 0.0
C1562 C 0.01921 0.83815 0.58158 0.0
C1563 C 0.01951 0.85312 0.58787 0.0
C1564 C 0.01714 0.82495 0.59205 0.0
C1565 C 0.02211 0.82037 0.55821 0.0
C1566 C 1.00519 0.81399 0.58989 0.0
C1567 C 1.00374 0.80143 0.59955 0.0
C1568 C 0.01412 0.79961 0.61169 0.0
C1569 C 0.02578 0.81083 0.61408 0.0
C1570 C 0.02725 0.82333 0.60441 0.0
H1571 H 0.0279 0.82059 0.54693 0.0
H1572 H 0.02819 0.81229 0.56558 0.0
H1573 H 0.01022 0.81591 0.55635 0.0
H1574 H 0.99698 0.81513 0.58071 0.0
H1575 H 0.99459 0.79306 0.5974 0.0
H1576 H 0.13007 0.72143 0.76733 0.0
H1577 H 0.10784 0.72678 0.75127 0.0
H1578 H 0.13701 0.72833 0.71172 0.0
H1579 H 0.15929 0.72317 0.72765 0.0
H1580 H 0.10146 0.75128 0.73196 0.0
H1581 H 0.1039 0.69636 0.699 0.0
H1582 H 0.11443 0.69979 0.71659 0.0
H1583 H 0.12151 0.70744 0.69903 0.0
C1584 C 0.13183 0.72308 0.75525 0.0
C1585 C 0.14655 0.72168 0.74883 0.0
C1586 C 0.11905 0.72607 0.74606 0.0
C1587 C 0.12066 0.72767 0.73021 0.0
C1588 C 0.13538 0.72677 0.72384 0.0
H1589 H 0.05442 0.7634 0.66538 0.0
H1590 H 0.07624 0.75974 0.68248 0.0
C1591 C 0.14814 0.72379 0.733 0.0
C1592 C 0.10696 0.73015 0.72032 0.0
H1593 H 0.08644 0.71462 0.69012 0.0
C1594 C 0.09816 0.74325 0.72283 0.0
C1595 C 0.10249 0.71959 0.7085 0.0
C1596 C 0.11097 0.70493 0.70566 0.0
C1597 C 0.08524 0.74621 0.71371 0.0
C1598 C 0.08105 0.73586 0.70161 0.0
C1599 C 0.0897 0.72263 0.69928 0.0
C1600 C 0.06759 0.73836 0.6914 0.0
C1601 C 0.07603 0.76024 0.71728 0.0
C1602 C 0.05551 0.72746 0.69044 0.0
C1603 C 0.04301 0.72949 0.68062 0.0
C1604 C 0.0423 0.74244 0.67138 0.0
C1605 C 0.05447 0.75333 0.67233 0.0
C1606 C 0.06695 0.7513 0.6822 0.0
H1607 H 0.07831 0.76479 0.72904 0.0
H1608 H 0.07921 0.76934 0.70918 0.0
H1609 H 0.06354 0.75771 0.71602 0.0
H1610 H 0.05574 0.71734 0.69733 0.0
H1611 H 0.03396 0.72079 0.6802 0.0
H1612 H 0.0105 0.6135 0.53949 0.0
H1613 H 0.01694 0.63641 0.55515 0.0
H1614 H 0.97755 0.65895 0.53717 0.0
H1615 H 0.97116 0.63629 0.52132 0.0
H1616 H 0.02214 0.66854 0.54713 0.0
H1617 H 0.97119 0.66027 0.58408 0.0
H1618 H 0.9781 0.64531 0.57149 0.0
H1619 H 0.96708 0.66057 0.56397 0.0
C1620 C 1.00332 0.6234 0.53866 0.0
C1621 C 0.99018 0.62289 0.5292 0.0
C1622 C 1.007 0.63649 0.5477 0.0
C1623 C 0.9976 0.64934 0.54755 0.0
C1624 C 0.98482 0.64909 0.53773 0.0
H1625 H 0.99032 0.73218 0.60433 0.0
H1626 H 0.98679 0.71122 0.58557 0.0
C1627 C 0.98115 0.63606 0.52868 0.0
C1628 C 1.00077 0.66281 0.558 0.0
H1629 H 0.98534 0.68337 0.58747 0.0
C1630 C 0.01423 0.67171 0.55613 0.0
C1631 C 0.99036 0.66707 0.5696 0.0
C1632 C 0.97592 0.65776 0.57254 0.0
C1633 C 0.0174 0.68489 0.56536 0.0
C1634 C 1.00706 0.68906 0.57718 0.0
C1635 C 0.99354 0.68016 0.57882 0.0
C1636 C 0.00979 0.70256 0.58793 0.0
C1637 C 0.03145 0.69452 0.56177 0.0
C1638 C 0.02391 0.705 0.59564 0.0
C1639 C 0.02605 0.71736 0.60607 0.0
C1640 C 0.01389 0.72706 0.60963 0.0
C1641 C 0.99982 0.72469 0.60198 0.0
C1642 C 0.99781 0.71267 0.59124 0.0
H1643 H 0.03476 0.6931 0.54959 0.0
H1644 H 0.02958 0.70686 0.56422 0.0
H1645 H 0.04124 0.69076 0.56878 0.0
H1646 H 0.03322 0.69718 0.59389 0.0
H1647 H 0.03703 0.71899 0.61179 0.0
H1648 H 0.77585 0.87651 0.24364 0.0
H1649 H 0.79339 0.898 0.24991 0.0
H1650 H 0.78688 0.91565 0.20487 0.0
H1651 H 0.76887 0.89456 0.19873 0.0
H1652 H 0.82031 0.90409 0.23623 0.0
H1653 H 0.78347 0.95444 0.23051 0.0
H1654 H 0.77569 0.93518 0.23155 0.0
H1655 H 0.78326 0.94207 0.21386 0.0
C1656 C 0.77782 0.88515 0.23518 0.0
C1657 C 0.77089 0.8837 0.22065 0.0
C1658 C 0.78796 0.89742 0.23875 0.0
C1659 C 0.79137 0.90863 0.22795 0.0
C1660 C 0.78425 0.90739 0.21355 0.0
H1661 H 0.85873 0.98447 0.22403 0.0
H1662 H 0.83922 0.96438 0.21817 0.0
C1663 C 0.77409 0.89514 0.20997 0.0
C1664 C 0.80335 0.92079 0.23133 0.0
H1665 H 0.81046 0.95952 0.23225 0.0
C1666 C 0.81808 0.91621 0.23549 0.0
C1667 C 0.80056 0.93665 0.23022 0.0
C1668 C 0.78485 0.94241 0.22643 0.0
C1669 C 0.83008 0.92692 0.23835 0.0
C1670 C 0.82738 0.94277 0.23727 0.0
C1671 C 0.81263 0.9474 0.23307 0.0
C1672 C 0.83966 0.95467 0.24065 0.0
C1673 C 0.84572 0.92111 0.24202 0.0
C1674 C 0.84642 0.95602 0.25524 0.0
C1675 C 0.85755 0.96748 0.25857 0.0
C1676 C 0.86236 0.97776 0.24735 0.0
C1677 C 0.85551 0.9765 0.2328 0.0
C1678 C 0.84431 0.96506 0.22948 0.0
H1679 H 0.8468 0.90875 0.23904 0.0
H1680 H 0.85456 0.92766 0.2357 0.0
H1681 H 0.84791 0.92271 0.25444 0.0
H1682 H 0.8428 0.94847 0.26422 0.0
H1683 H 0.86204 0.96862 0.27009 0.0
H1684 H 0.76146 0.12361 0.31586 0.0
H1685 H 0.77924 0.10269 0.31131 0.0
H1686 H 0.80869 0.13282 0.28574 0.0
H1687 H 0.79125 0.15391 0.29061 0.0
H1688 H 0.78945 0.08909 0.28435 0.0
H1689 H 0.83849 0.11559 0.31651 0.0
H1690 H 0.81926 0.12269 0.318 0.0
H1691 H 0.83106 0.12752 0.30195 0.0
C1692 C 0.77179 0.12586 0.30937 0.0
C1693 C 0.77491 0.14056 0.30371 0.0
C1694 C 0.78191 0.11382 0.3067 0.0
C1695 C 0.79549 0.11619 0.29841 0.0
C1696 C 0.79848 0.13074 0.29244 0.0
H1697 H 0.87143 0.06199 0.26677 0.0
H1698 H 0.85313 0.08175 0.27355 0.0
C1699 C 0.78835 0.14277 0.29508 0.0
C1700 C 0.80644 0.10343 0.29589 0.0
H1701 H 0.84372 0.09332 0.30146 0.0
C1702 C 0.80129 0.08996 0.28819 0.0
C1703 C 0.8219 0.10451 0.30093 0.0
C1704 C 0.82801 0.11828 0.30994 0.0
C1705 C 0.81125 0.07781 0.28498 0.0
C1706 C 0.82677 0.07898 0.28984 0.0
C1707 C 0.83186 0.09237 0.29772 0.0
C1708 C 0.83809 0.06679 0.28628 0.0
C1709 C 0.80518 0.06405 0.27593 0.0
C1710 C 0.83601 0.05175 0.29144 0.0
C1711 C 0.84655 0.04034 0.28757 0.0
C1712 C 0.85942 0.04375 0.27851 0.0
C1713 C 0.86166 0.0589 0.27373 0.0
C1714 C 0.85117 0.07026 0.27761 0.0
H1715 H 0.79426 0.06647 0.26997 0.0
H1716 H 0.81368 0.06021 0.26732 0.0
H1717 H 0.80296 0.05449 0.28379 0.0
H1718 H 0.82621 0.04881 0.29842 0.0
H1719 H 0.84447 0.02882 0.29147 0.0
H1720 H 0.41551 0.9779 1.00527 0.0
H1721 H 0.39295 0.96209 0.01168 0.0
H1722 H 0.36554 0.98717 0.98026 0.0
H1723 H 0.38789 1.0031 0.97392 0.0
H1724 H 0.36288 0.96955 0.02298 0.0
H1725 H 0.36018 0.9423 0.96517 0.0
H1726 H 0.37685 0.95301 0.97209 0.0
H1727 H 0.36043 0.96285 0.9651 0.0
C1728 C 0.40465 0.98022 0.99987 0.0
C1729 C 0.40364 0.99172 0.98892 0.0
C1730 C 0.39175 0.9711 1.00352 0.0
C1731 C 0.37758 0.97323 0.99626 0.0
C1732 C 0.3764 0.98506 0.98577 0.0
H1733 H 0.28738 0.93291 0.98959 0.0
H1734 H 0.31074 0.94868 0.98938 0.0
C1735 C 0.38925 0.99416 0.98213 0.0
C1736 C 0.36409 0.96287 0.99921 0.0
H1737 H 0.3387 0.93804 0.98121 0.0
C1738 C 0.35765 0.96255 0.0139 0.0
C1739 C 0.35732 0.95363 0.9874 0.0
C1740 C 0.36411 0.9528 0.97159 0.0
C1741 C 0.34423 0.95378 0.01689 0.0
C1742 C 0.3372 0.9449 1.00493 0.0
C1743 C 0.34397 0.9449 0.99039 0.0
C1744 C 0.32239 0.93616 1.0068 0.0
C1745 C 0.33736 0.95454 0.03265 0.0
C1746 C 0.32086 0.92399 0.01698 0.0
C1747 C 0.30729 0.91491 0.01723 0.0
C1748 C 0.29512 0.91774 1.00715 0.0
C1749 C 0.29653 0.9303 0.99745 0.0
C1750 C 0.30994 0.93935 0.99729 0.0
H1751 H 0.34212 0.96438 0.03956 0.0
H1752 H 0.32469 0.95549 0.032 0.0
H1753 H 0.33995 0.94387 0.03867 0.0
H1754 H 0.33037 0.92109 0.02428 0.0
H1755 H 0.30666 0.90524 0.02472 0.0
H1756 H 0.26574 0.40348 0.31215 0.0
H1757 H 0.24688 0.42351 0.30908 0.0
H1758 H 0.21972 0.39321 0.2797 0.0
H1759 H 0.23855 0.37315 0.28261 0.0
H1760 H 0.23767 0.43754 0.28294 0.0
H1761 H 0.1876 0.40862 0.30942 0.0
H1762 H 0.20692 0.40191 0.31154 0.0
H1763 H 0.19615 0.39744 0.29438 0.0
C1764 C 0.25577 0.40103 0.30501 0.0
C1765 C 0.25373 0.38659 0.29767 0.0
C1766 C 0.24493 0.41252 0.30332 0.0
C1767 C 0.23171 0.40988 0.29433 0.0
C1768 C 0.2296 0.39548 0.28701 0.0
H1769 H 0.15595 0.46282 0.26174 0.0
H1770 H 0.17432 0.44332 0.26835 0.0
C1771 C 0.24042 0.38397 0.2887 0.0
C1772 C 0.22047 0.42235 0.29212 0.0
H1773 H 0.18254 0.43113 0.29564 0.0
C1774 C 0.22564 0.43619 0.28585 0.0
C1775 C 0.20474 0.42064 0.29588 0.0
C1776 C 0.19851 0.40642 0.30332 0.0
C1777 C 0.21551 0.4481 0.28281 0.0
C1778 C 0.19974 0.44632 0.28642 0.0
C1779 C 0.1946 0.43256 0.29286 0.0
C1780 C 0.18828 0.45831 0.283 0.0
C1781 C 0.22172 0.46227 0.27525 0.0
C1782 C 0.18972 0.47327 0.28926 0.0
C1783 C 0.17918 0.48453 0.28547 0.0
C1784 C 0.16689 0.48105 0.2754 0.0
C1785 C 0.16526 0.46596 0.26951 0.0
C1786 C 0.17578 0.45475 0.27329 0.0
H1787 H 0.23301 0.46028 0.2698 0.0
H1788 H 0.21361 0.46622 0.26644 0.0
H1789 H 0.2233 0.47158 0.28399 0.0
H1790 H 0.19904 0.47627 0.29706 0.0
H1791 H 0.18076 0.496 0.29027 0.0
H1792 H 0.11362 0.05241 0.48419 0.0
H1793 H 0.13685 0.06746 0.49036 0.0
H1794 H 0.16008 0.0263 0.50205 0.0
H1795 H 0.13696 0.01103 0.49538 0.0
H1796 H 0.15334 0.07101 0.51704 0.0
H1797 H 0.18971 0.04539 0.47171 0.0
H1798 H 0.16917 0.04242 0.47213 0.0
H1799 H 0.18129 0.03196 0.48462 0.0
C1800 C 0.1237 0.04648 0.48792 0.0
C1801 C 0.12339 0.03042 0.48907 0.0
C1802 C 0.13697 0.05515 0.49157 0.0
C1803 C 0.15037 0.04805 0.49643 0.0
C1804 C 0.15003 0.03206 0.49803 0.0
H1805 H 0.22641 0.10778 0.53347 0.0
H1806 H 0.20533 0.08875 0.53165 0.0
C1807 C 0.13671 0.02334 0.49437 0.0
C1808 C 0.16457 0.0575 0.49977 0.0
H1809 H 0.20162 0.06356 0.48841 0.0
C1810 C 0.16392 0.06943 0.51076 0.0
C1811 C 0.17838 0.05544 0.49162 0.0
C1812 C 0.17973 0.0432 0.47926 0.0
C1813 C 0.17649 0.07953 0.51364 0.0
C1814 C 0.19038 0.07758 0.5054 0.0
C1815 C 0.19108 0.06532 0.49467 0.0
C1816 C 0.20399 0.08846 0.50691 0.0
C1817 C 0.17436 0.09226 0.52534 0.0
C1818 C 0.21131 0.09387 0.49372 0.0
C1819 C 0.22383 0.1042 0.49481 0.0
C1820 C 0.22894 0.10998 0.50906 0.0
C1821 C 0.22225 0.10404 0.52229 0.0
C1822 C 0.21004 0.09327 0.52123 0.0
H1823 H 0.16214 0.09555 0.52613 0.0
H1824 H 0.17787 0.08822 0.53671 0.0
H1825 H 0.18129 0.10259 0.52276 0.0
H1826 H 0.20727 0.09026 0.48246 0.0
H1827 H 0.22943 0.10778 0.48445 0.0
H1828 H 0.75342 0.1452 0.7526 0.0
H1829 H 0.73431 0.12458 0.75495 0.0
H1830 H 0.7411 0.11128 0.7078 0.0
H1831 H 0.76071 0.13164 0.70547 0.0
H1832 H 0.70733 0.12064 0.73949 0.0
H1833 H 0.74363 0.07017 0.72867 0.0
H1834 H 0.75165 0.08906 0.73278 0.0
H1835 H 0.74429 0.08422 0.71405 0.0
C1836 C 0.75108 0.13777 0.74276 0.0
C1837 C 0.75878 0.14008 0.72887 0.0
C1838 C 0.74004 0.126 0.74411 0.0
C1839 C 0.7364 0.11614 0.73165 0.0
C1840 C 0.74392 0.11847 0.7177 0.0
H1841 H 0.66872 0.03994 0.7233 0.0
H1842 H 0.68789 0.06017 0.71793 0.0
C1843 C 0.75499 0.13029 0.71632 0.0
C1844 C 0.72415 0.10403 0.73321 0.0
H1845 H 0.71691 0.06532 0.73131 0.0
C1846 C 0.70947 0.10855 0.73772 0.0
C1847 C 0.72684 0.08821 0.7308 0.0
C1848 C 0.74248 0.08255 0.72643 0.0
C1849 C 0.69748 0.09781 0.73989 0.0
C1850 C 0.70015 0.08198 0.73776 0.0
C1851 C 0.71478 0.07743 0.73298 0.0
C1852 C 0.68802 0.07002 0.74084 0.0
C1853 C 0.68193 0.10358 0.74411 0.0
C1854 C 0.68168 0.06867 0.7555 0.0
C1855 C 0.67075 0.05713 0.75856 0.0
C1856 C 0.66571 0.04675 0.74699 0.0
C1857 C 0.67213 0.04799 0.73236 0.0
C1858 C 0.68313 0.05951 0.7293 0.0
H1859 H 0.68075 0.11592 0.74169 0.0
H1860 H 0.67294 0.09697 0.73766 0.0
H1861 H 0.68009 0.10205 0.7565 0.0
H1862 H 0.68552 0.0763 0.76475 0.0
H1863 H 0.66661 0.05601 0.77012 0.0
H1864 H 0.40576 0.05002 0.55134 0.0
H1865 H 0.38437 0.06589 0.54396 0.0
H1866 H 0.37516 0.03589 0.50506 0.0
H1867 H 0.39637 0.01967 0.5126 0.0
H1868 H 0.37979 0.08163 0.51689 0.0
H1869 H 0.33291 0.03856 0.52539 0.0
H1870 H 0.35202 0.03629 0.53291 0.0
H1871 H 0.34814 0.03256 0.513 0.0
C1872 C 0.3991 0.04663 0.54131 0.0
C1873 C 0.40278 0.0334 0.53268 0.0
C1874 C 0.3869 0.05582 0.53703 0.0
C1875 C 0.37795 0.05202 0.52406 0.0
C1876 C 0.38169 0.03896 0.51527 0.0
H1877 H 0.29522 0.09658 0.48933 0.0
H1878 H 0.31737 0.07989 0.49188 0.0
C1879 C 0.39395 0.02976 0.51951 0.0
C1880 C 0.36491 0.06193 0.51975 0.0
H1881 H 0.32581 0.06241 0.51585 0.0
C1882 C 0.36799 0.0774 0.51663 0.0
C1883 C 0.34948 0.05645 0.51928 0.0
C1884 C 0.34534 0.0401 0.52293 0.0
C1885 C 0.35616 0.08749 0.51315 0.0
C1886 C 0.34069 0.08213 0.51311 0.0
C1887 C 0.33763 0.06658 0.51588 0.0
C1888 C 0.32751 0.09263 0.51102 0.0
C1889 C 0.36043 0.10379 0.50937 0.0
C1890 C 0.3257 0.10535 0.52093 0.0
C1891 C 0.31313 0.11492 0.51944 0.0
C1892 C 0.30189 0.11198 0.50809 0.0
C1893 C 0.3037 0.09927 0.49813 0.0
C1894 C 0.31634 0.08967 0.49962 0.0
H1895 H 0.37235 0.10472 0.50498 0.0
H1896 H 0.3525 0.10836 0.50073 0.0
H1897 H 0.35979 0.11108 0.51989 0.0
H1898 H 0.33387 0.10772 0.53008 0.0
H1899 H 0.31208 0.12449 0.52743 0.0
H1900 H 0.6262 0.50164 0.51678 0.0
H1901 H 0.64841 0.48596 0.51048 0.0
H1902 H 0.64427 0.46375 0.5537 0.0
H1903 H 0.62217 0.47931 0.56008 0.0
H1904 H 0.67647 0.48294 0.52462 0.0
H1905 H 0.6448 0.42725 0.52433 0.0
H1906 H 0.63516 0.44532 0.52446 0.0
H1907 H 0.64283 0.43803 0.54188 0.0
C1908 C 0.63005 0.49348 0.525 0.0
C1909 C 0.62219 0.49166 0.53888 0.0
C1910 C 0.64274 0.48446 0.52134 0.0
C1911 C 0.64787 0.47338 0.53144 0.0
C1912 C 0.64031 0.47186 0.54548 0.0
H1913 H 0.72201 0.40771 0.53219 0.0
H1914 H 0.70051 0.4243 0.53842 0.0
C1915 C 0.62763 0.48081 0.54912 0.0
C1916 C 0.66119 0.46354 0.52744 0.0
H1917 H 0.67202 0.42623 0.52335 0.0
C1918 C 0.67545 0.47055 0.52425 0.0
C1919 C 0.65995 0.44732 0.52695 0.0
C1920 C 0.64484 0.43902 0.52944 0.0
C1921 C 0.68851 0.46184 0.52093 0.0
C1922 C 0.68729 0.44563 0.52056 0.0
C1923 C 0.67302 0.43863 0.5237 0.0
C1924 C 0.70061 0.43574 0.5168 0.0
C1925 C 0.70361 0.47007 0.51821 0.0
C1926 C 0.7078 0.43647 0.5025 0.0
C1927 C 0.72009 0.42696 0.49887 0.0
C1928 C 0.72553 0.41642 0.50945 0.0
C1929 C 0.71825 0.41569 0.52376 0.0
C1930 C 0.70591 0.42517 0.52735 0.0
H1931 H 0.70358 0.48206 0.52272 0.0
H1932 H 0.71323 0.46404 0.52361 0.0
H1933 H 0.70578 0.47039 0.50575 0.0
H1934 H 0.70376 0.44427 0.49403 0.0
H1935 H 0.72527 0.42785 0.4877 0.0
H1936 H 0.6982 0.27733 0.3863 0.0
H1937 H 0.70405 0.29421 0.40833 0.0
H1938 H 0.75187 0.28314 0.40489 0.0
H1939 H 0.7462 0.26657 0.38252 0.0
H1940 H 0.71739 0.28854 0.43664 0.0
H1941 H 0.75329 0.32984 0.40451 0.0
H1942 H 0.74124 0.31541 0.39508 0.0
H1943 H 0.75944 0.31038 0.40305 0.0
C1944 C 0.71 0.27856 0.39011 0.0
C1945 C 0.72174 0.27068 0.38244 0.0
C1946 C 0.71331 0.28815 0.40282 0.0
C1947 C 0.72844 0.29019 0.40816 0.0
C1948 C 0.74014 0.28201 0.40083 0.0
H1949 H 0.7702 0.3522 0.47716 0.0
H1950 H 0.76512 0.33283 0.45703 0.0
C1951 C 0.73684 0.27238 0.38811 0.0
C1952 C 0.73192 0.30101 0.42126 0.0
H1953 H 0.75232 0.33353 0.43122 0.0
C1954 C 0.72492 0.29848 0.43543 0.0
C1955 C 0.74185 0.31391 0.41978 0.0
C1956 C 0.7493 0.31768 0.40476 0.0
C1957 C 0.72768 0.30838 0.44815 0.0
C1958 C 0.7374 0.3215 0.4466 0.0
C1959 C 0.7446 0.32379 0.43246 0.0
C1960 C 0.74038 0.33298 0.45936 0.0
C1961 C 0.72056 0.30429 0.46323 0.0
C1962 C 0.72825 0.33973 0.46751 0.0
C1963 C 0.7312 0.35064 0.47926 0.0
C1964 C 0.74631 0.35553 0.48266 0.0
C1965 C 0.75842 0.34885 0.47455 0.0
C1966 C 0.7555 0.33773 0.46305 0.0
H1967 H 0.71816 0.29178 0.46383 0.0
H1968 H 0.72812 0.30783 0.47298 0.0
H1969 H 0.70946 0.31016 0.46448 0.0
H1970 H 0.71645 0.33675 0.46466 0.0
H1971 H 0.72168 0.35557 0.48541 0.0
H1972 H 0.54751 0.05364 0.90192 0.0
H1973 H 0.56213 0.04638 0.87928 0.0
H1974 H 0.5401 1.00171 0.87858 0.0
H1975 H 0.52532 0.00893 0.90131 0.0
H1976 H 0.58278 0.02389 0.87448 0.0
H1977 H 0.53314 0.0148 0.83509 0.0
H1978 H 0.53133 0.02398 0.85365 0.0
H1979 H 0.53249 1.0035 0.85193 0.0
C1980 C 0.5458 0.04221 0.89705 0.0
C1981 C 0.53519 0.03188 0.90353 0.0
C1982 C 0.55417 0.03809 0.88403 0.0
C1983 C 0.55217 0.02354 0.87704 0.0
C1984 C 0.54167 0.01312 0.88351 0.0
H1985 H 0.61889 0.99764 0.80446 0.0
H1986 H 0.60312 0.99578 0.82765 0.0
C1987 C 0.53321 0.01727 0.89654 0.0
C1988 C 0.56117 0.01945 0.86306 0.0
H1989 H 0.55764 0.01005 0.82503 0.0
C1990 C 0.57728 0.02073 0.86369 0.0
C1991 C 0.55404 0.01541 0.84892 0.0
C1992 C 0.53681 0.01445 0.84724 0.0
C1993 C 0.58638 0.01849 0.8506 0.0
C1994 C 0.57925 0.01456 0.83643 0.0
C1995 C 0.56316 0.01288 0.83589 0.0
C1996 C 0.58801 0.0141 0.82177 0.0
C1997 C 0.60351 0.02113 0.85191 0.0
C1998 C 0.58437 0.02444 0.81038 0.0
C1999 C 0.5932 0.0254 0.79716 0.0
C2000 C 0.60597 0.01601 0.79483 0.0
C2001 C 0.60916 1.00504 0.80585 0.0
C2002 C 0.60025 1.0041 0.8192 0.0
H2003 H 0.60684 0.02697 0.86288 0.0
H2004 H 0.60928 0.00995 0.8513 0.0
H2005 H 0.60783 0.02816 0.84238 0.0
H2006 H 0.57498 0.03223 0.81197 0.0
H2007 H 0.59025 0.0339 0.78891 0.0
H2008 H 0.27683 0.2674 0.39245 0.0
H2009 H 0.27444 0.24781 0.41174 0.0
H2010 H 0.31565 0.22689 0.3951 0.0
H2011 H 0.31834 0.24675 0.37586 0.0
H2012 H 0.27162 0.21576 0.40659 0.0
H2013 H 0.32327 0.23101 0.44179 0.0
H2014 H 0.31521 0.24406 0.42841 0.0
H2015 H 0.32618 0.22817 0.42161 0.0
C2016 C 0.28555 0.25879 0.39298 0.0
C2017 C 0.29787 0.25881 0.38262 0.0
C2018 C 0.2841 0.24751 0.40399 0.0
C2019 C 0.29497 0.23595 0.40506 0.0
C2020 C 0.30725 0.23582 0.3947 0.0
H2021 H 0.29261 0.15994 0.47092 0.0
H2022 H 0.30155 0.17734 0.45085 0.0
C2023 C 0.30868 0.24711 0.38359 0.0
C2024 C 0.29293 0.22384 0.41669 0.0
H2025 H 0.30791 0.21014 0.44978 0.0
C2026 C 0.27963 0.21449 0.41596 0.0
C2027 C 0.30343 0.22201 0.42888 0.0
C2028 C 0.3178 0.23187 0.43038 0.0
C2029 C 0.27637 0.20364 0.42717 0.0
C2030 C 0.2865 0.20228 0.43975 0.0
C2031 C 0.30011 0.2112 0.44021 0.0
C2032 C 0.28236 0.19253 0.45297 0.0
C2033 C 0.262 0.19378 0.42547 0.0
C2034 C 0.26902 0.19563 0.46128 0.0
C2035 C 0.26393 0.18579 0.47261 0.0
C2036 C 0.27212 0.17261 0.47614 0.0
C2037 C 0.28606 0.17 0.46853 0.0
C2038 C 0.29113 0.17989 0.45701 0.0
H2039 H 0.25816 0.19279 0.41337 0.0
H2040 H 0.26381 0.1821 0.42977 0.0
H2041 H 0.25264 0.19906 0.43217 0.0
H2042 H 0.26225 0.20549 0.45869 0.0
H2043 H 0.25326 0.1883 0.47836 0.0
H2044 H 0.48069 0.50369 0.91514 0.0
H2045 H 0.46514 0.51037 0.89298 0.0
H2046 H 0.48903 0.47734 0.86516 0.0
H2047 H 0.50469 0.47072 0.88712 0.0
H2048 H 0.47286 0.52099 0.86321 0.0
H2049 H 0.44375 0.46396 0.86012 0.0
H2050 H 0.45472 0.47059 0.8766 0.0
H2051 H 0.46431 0.46309 0.85998 0.0
C2052 C 0.4828 0.49797 0.90427 0.0
C2053 C 0.49389 0.4865 0.90305 0.0
C2054 C 0.47383 0.50178 0.8916 0.0
C2055 C 0.47568 0.49417 0.87743 0.0
C2056 C 0.48711 0.48314 0.87604 0.0
H2057 H 0.4365 0.48848 0.78777 0.0
H2058 H 0.4519 0.48797 0.81096 0.0
C2059 C 0.49606 0.47934 0.88866 0.0
C2060 C 0.46547 0.49737 0.86417 0.0
H2061 H 0.44029 0.47994 0.83888 0.0
C2062 C 0.46562 0.51207 0.85796 0.0
C2063 C 0.4559 0.48578 0.85736 0.0
C2064 C 0.4545 0.47001 0.86393 0.0
C2065 C 0.45702 0.51526 0.84475 0.0
C2066 C 0.44785 0.5035 0.83767 0.0
C2067 C 0.44737 0.48896 0.84419 0.0
C2068 C 0.43934 0.50554 0.82301 0.0
C2069 C 0.45827 0.53099 0.83813 0.0
C2070 C 0.42727 0.51591 0.82176 0.0
C2071 C 0.41838 0.51632 0.8083 0.0
C2072 C 0.4213 0.50623 0.79592 0.0
C2073 C 0.4338 0.49636 0.79706 0.0
C2074 C 0.44265 0.49602 0.81038 0.0
H2075 H 0.46812 0.53777 0.84304 0.0
H2076 H 0.45957 0.53021 0.82553 0.0
H2077 H 0.44761 0.53727 0.84065 0.0
H2078 H 0.42431 0.52324 0.8314 0.0
H2079 H 0.40876 0.52394 0.8079 0.0
H2080 H 0.72007 0.76679 0.12744 0.0
H2081 H 0.7252 0.75043 0.105 0.0
H2082 H 0.73128 0.71193 0.13405 0.0
H2083 H 0.72639 0.72818 0.15653 0.0
H2084 H 0.75068 0.73245 0.09691 0.0
H2085 H 0.69809 0.69633 0.1037 0.0
H2086 H 0.70098 0.71443 0.11377 0.0
H2087 H 0.71021 0.6976 0.12033 0.0
C2088 C 0.72269 0.75489 0.12911 0.0
C2089 C 0.72264 0.74883 0.14388 0.0
C2090 C 0.72554 0.74552 0.11623 0.0
C2091 C 0.72835 0.72985 0.11778 0.0
C2092 C 0.72879 0.72388 0.1325 0.0
H2093 H 0.76406 0.66592 0.04863 0.0
H2094 H 0.7606 0.68287 0.07097 0.0
C2095 C 0.72596 0.73322 0.14537 0.0
C2096 C 0.73064 0.71973 0.10402 0.0
H2097 H 0.71575 0.68816 0.08484 0.0
C2098 C 0.74303 0.72278 0.09426 0.0
C2099 C 0.72056 0.70719 0.10042 0.0
C2100 C 0.70662 0.70373 0.11 0.0
C2101 C 0.74576 0.71351 0.08119 0.0
C2102 C 0.73592 0.70074 0.07782 0.0
C2103 C 0.72339 0.69784 0.08746 0.0
C2104 C 0.73817 0.69043 0.06418 0.0
C2105 C 0.75899 0.71767 0.07092 0.0
C2106 C 0.72659 0.6887 0.05303 0.0
C2107 C 0.72849 0.67896 0.04026 0.0
C2108 C 0.74201 0.67057 0.03834 0.0
C2109 C 0.75353 0.67221 0.04963 0.0
C2110 C 0.75162 0.682 0.0624 0.0
H2111 H 0.76298 0.72973 0.07288 0.0
H2112 H 0.76875 0.71014 0.0733 0.0
H2113 H 0.75574 0.71603 0.05871 0.0
H2114 H 0.71607 0.69499 0.05416 0.0
H2115 H 0.71931 0.678 0.0319 0.0
H2116 H 0.98229 0.06072 0.1239 0.0
H2117 H 0.96732 0.05396 0.14636 0.0
H2118 H 0.98969 0.01051 0.14772 0.0
H2119 H 1.00472 0.01718 0.12517 0.0
H2120 H 0.94677 0.03037 0.15028 0.0
H2121 H 0.99473 0.02578 0.19157 0.0
H2122 H 0.99716 0.03439 0.1732 0.0
H2123 H 0.9967 0.0139 0.17472 0.0
C2124 C 0.98403 0.04968 0.1289 0.0
C2125 C 0.99477 0.0395 0.12262 0.0
C2126 C 0.97547 0.04586 0.14184 0.0
C2127 C 0.97746 0.0318 0.14894 0.0
C2128 C 0.98816 0.02159 0.14272 0.0
H2129 H 0.93287 0.98629 0.22494 0.0
H2130 H 0.94859 0.99335 0.20306 0.0
C2131 C 0.99676 0.02542 0.12978 0.0
C2132 C 0.96798 0.02771 0.16251 0.0
H2133 H 0.97011 0.01738 0.1999 0.0
C2134 C 0.95189 0.02761 0.16115 0.0
C2135 C 0.9746 0.02407 0.17674 0.0
C2136 C 0.99174 0.02466 0.17925 0.0
C2137 C 0.94231 0.02375 0.17345 0.0
C2138 C 0.94893 0.02009 0.18766 0.0
C2139 C 0.965 0.02017 0.18903 0.0
C2140 C 0.93937 0.016 0.20117 0.0
C2141 C 0.92516 0.02325 0.171 0.0
C2142 C 0.92904 0.02644 0.20762 0.0
C2143 C 0.92 0.02245 0.22021 0.0
C2144 C 0.9211 1.00791 0.2267 0.0
C2145 C 0.93163 0.99757 0.2203 0.0
C2146 C 0.94068 1.0016 0.20776 0.0
H2147 H 0.9221 0.02251 0.15867 0.0
H2148 H 0.91977 0.01333 0.17678 0.0
H2149 H 0.92021 0.03386 0.17591 0.0
H2150 H 0.92801 0.03773 0.20296 0.0
H2151 H 0.91211 0.03076 0.22481 0.0
H2152 H 0.28389 0.75414 0.12503 0.0
H2153 H 0.28103 0.77308 0.10524 0.0
H2154 H 0.30577 0.80658 0.13328 0.0
H2155 H 0.30917 0.78752 0.15297 0.0
H2156 H 0.26647 0.80026 0.10651 0.0
H2157 H 0.32783 0.81045 0.09269 0.0
H2158 H 0.32129 0.79448 0.10382 0.0
H2159 H 0.32342 0.81324 0.11255 0.0
C2160 C 0.28899 0.76544 0.12694 0.0
C2161 C 0.2969 0.76918 0.14064 0.0
C2162 C 0.28723 0.77633 0.11561 0.0
C2163 C 0.29337 0.79125 0.11759 0.0
C2164 C 0.30118 0.79508 0.13128 0.0
H2165 H 0.26428 0.86971 0.06563 0.0
H2166 H 0.27023 0.85163 0.08557 0.0
C2167 C 0.30295 0.78419 0.14265 0.0
C2168 C 0.29106 0.80285 0.10555 0.0
H2169 H 0.30999 0.82713 0.08154 0.0
C2170 C 0.27601 0.80611 0.10106 0.0
C2171 C 0.30347 0.8104 0.09823 0.0
C2172 C 0.31992 0.80689 0.10193 0.0
C2173 C 0.27302 0.81677 0.08968 0.0
C2174 C 0.28541 0.82465 0.08268 0.0
C2175 C 0.30048 0.82124 0.08699 0.0
C2176 C 0.28287 0.83631 0.07076 0.0
C2177 C 0.25659 0.81926 0.08504 0.0
C2178 C 0.28852 0.83414 0.05587 0.0
C2179 C 0.28521 0.84456 0.0444 0.0
C2180 C 0.27624 0.85744 0.04762 0.0
C2181 C 0.27114 0.85989 0.06269 0.0
C2182 C 0.27445 0.84949 0.07412 0.0
H2183 H 0.2489 0.80963 0.08845 0.0
H2184 H 0.25249 0.82987 0.09074 0.0
H2185 H 0.25559 0.82059 0.0725 0.0
H2186 H 0.29512 0.82412 0.05299 0.0
H2187 H 0.28933 0.84229 0.03294 0.0
H2188 H 0.01859 0.50833 0.12463 0.0
H2189 H 0.03415 0.5143 0.14749 0.0
H2190 H 0.05914 0.47279 0.14004 0.0
H2191 H 0.04372 0.46677 0.11726 0.0
H2192 H 0.03837 0.49882 0.1741 0.0
H2193 H 0.09385 0.5042 0.14379 0.0
H2194 H 0.07566 0.50348 0.13386 0.0
H2195 H 0.08414 0.48614 0.14019 0.0
C2196 C 0.02734 0.50042 0.12789 0.0
C2197 C 0.02998 0.48715 0.11892 0.0
C2198 C 0.03629 0.50388 0.14096 0.0
C2199 C 0.0481 0.49419 0.14536 0.0
C2200 C 0.05045 0.48072 0.13668 0.0
H2201 H 0.11462 0.49449 0.22053 0.0
H2202 H 0.09824 0.48779 0.19844 0.0
C2203 C 0.04157 0.47728 0.12362 0.0
C2204 C 0.05785 0.49802 0.15909 0.0
H2205 H 0.09506 0.50392 0.17089 0.0
C2206 C 0.05076 0.50001 0.17336 0.0
C2207 C 0.07405 0.49957 0.15821 0.0
C2208 C 0.08238 0.49839 0.14318 0.0
C2209 C 0.05939 0.50322 0.18675 0.0
C2210 C 0.07559 0.5047 0.18587 0.0
C2211 C 0.08268 0.5027 0.17161 0.0
C2212 C 0.08534 0.50865 0.19953 0.0
C2213 C 0.05112 0.5047 0.20179 0.0
C2214 C 0.0837 0.52267 0.20746 0.0
C2215 C 0.09307 0.52657 0.22007 0.0
C2216 C 0.10438 0.51654 0.2251 0.0
C2217 C 0.10602 0.50249 0.2171 0.0
C2218 C 0.09667 0.49864 0.20442 0.0
H2219 H 0.03942 0.4994 0.20119 0.0
H2220 H 0.05766 0.49928 0.21104 0.0
H2221 H 0.04996 0.51702 0.20486 0.0
H2222 H 0.07527 0.53074 0.20376 0.0
H2223 H 0.09146 0.53752 0.22582 0.0
H2224 H 0.40444 0.71542 0.25247 0.0
H2225 H 0.42487 0.71727 0.27168 0.0
H2226 H 0.39311 0.73601 0.30438 0.0
H2227 H 0.37261 0.73425 0.2852 0.0
H2228 H 0.43668 0.74276 0.28619 0.0
H2229 H 0.41313 0.7031 0.32907 0.0
H2230 H 0.40552 0.70384 0.30991 0.0
H2231 H 0.40019 0.71791 0.32414 0.0
C2232 C 0.40176 0.71993 0.26375 0.0
C2233 C 0.38681 0.72469 0.26723 0.0
C2234 C 0.41347 0.72092 0.27476 0.0
C2235 C 0.41055 0.7266 0.28959 0.0
C2236 C 0.39562 0.73124 0.29316 0.0
H2237 H 0.47664 0.76596 0.35437 0.0
H2238 H 0.45676 0.76077 0.33501 0.0
C2239 C 0.38388 0.73024 0.28215 0.0
C2240 C 0.42332 0.7284 0.30098 0.0
H2241 H 0.43468 0.71869 0.33685 0.0
C2242 C 0.43625 0.73743 0.29724 0.0
C2243 C 0.42292 0.72131 0.31536 0.0
C2244 C 0.40977 0.71087 0.31984 0.0
C2245 C 0.44854 0.73985 0.30754 0.0
C2246 C 0.44787 0.73325 0.32213 0.0
C2247 C 0.43515 0.72389 0.32575 0.0
C2248 C 0.46006 0.73629 0.3339 0.0
C2249 C 0.46222 0.74937 0.30262 0.0
C2250 C 0.46846 0.72426 0.33996 0.0
C2251 C 0.47982 0.72724 0.35114 0.0
C2252 C 0.48263 0.74223 0.35675 0.0
C2253 C 0.47443 0.75425 0.3505 0.0
C2254 C 0.46318 0.75131 0.3393 0.0
H2255 H 0.46301 0.74982 0.28998 0.0
H2256 H 0.46108 0.76126 0.30714 0.0
H2257 H 0.47308 0.74477 0.30712 0.0
H2258 H 0.46628 0.71258 0.33597 0.0
H2259 H 0.48617 0.71781 0.35562 0.0
H2260 H 0.9988 0.41453 0.97091 0.0
H2261 H 1.00488 0.39104 0.95655 0.0
H2262 H 0.9857 0.36401 0.99258 0.0
H2263 H 0.97927 0.38741 1.00688 0.0
H2264 H 0.02294 0.36489 0.96471 0.0
H2265 H 0.96169 0.34928 0.95381 0.0
H2266 H 0.96786 0.36823 0.96019 0.0
H2267 H 0.96663 0.35295 0.97351 0.0
C2268 C 0.99581 0.4036 0.97579 0.0
C2269 C 0.9884 0.40293 0.99005 0.0
C2270 C 0.99941 0.39016 0.96759 0.0
C2271 C 0.99558 0.37573 0.97337 0.0
C2272 C 0.9886 0.375 0.98778 0.0
H2273 H 0.9938 0.28264 0.93739 0.0
H2274 H 0.99336 0.30591 0.95334 0.0
C2275 C 0.98505 0.38842 0.99602 0.0
C2276 C 0.99842 0.36149 0.96414 0.0
H2277 H 0.97996 0.33118 0.94614 0.0
C2278 C 0.01356 0.3575 0.96062 0.0
C2279 C 0.98619 0.35188 0.95873 0.0
C2280 C 0.96966 0.35581 0.96161 0.0
C2281 C 0.01681 0.34396 0.95223 0.0
C2282 C 1.00455 0.33429 0.94688 0.0
C2283 C 0.98941 0.33845 0.95027 0.0
C2284 C 1.00692 0.31967 0.93798 0.0
C2285 C 0.03334 0.33995 0.94961 0.0
C2286 C 0.01512 0.31935 0.92413 0.0
C2287 C 0.01566 0.30584 0.91508 0.0
C2288 C 0.00774 0.29249 0.91954 0.0
C2289 C 1.00004 0.29272 0.93363 0.0
C2290 C 0.99971 0.30607 0.94274 0.0
H2291 H 0.04109 0.34584 0.9581 0.0
H2292 H 0.03497 0.32741 0.95023 0.0
H2293 H 0.03685 0.34367 0.9381 0.0
H2294 H 0.02049 0.3297 0.91994 0.0
H2295 H 0.02144 0.30611 0.90416 0.0
H2296 H 0.65677 0.78942 0.2894 0.0
H2297 H 0.63581 0.7837 0.30705 0.0
H2298 H 0.60485 0.80916 0.2794 0.0
H2299 H 0.6256 0.81455 0.26147 0.0
H2300 H 0.61829 0.8041 0.32415 0.0
H2301 H 0.5809 0.76906 0.28487 0.0
H2302 H 0.60072 0.77353 0.28062 0.0
H2303 H 0.58624 0.78753 0.27779 0.0
C2304 C 0.64545 0.79359 0.2869 0.0
C2305 C 0.64293 0.80241 0.27391 0.0
C2306 C 0.63349 0.79041 0.2971 0.0
C2307 C 0.61866 0.79583 0.29451 0.0
C2308 C 0.61609 0.8046 0.28155 0.0
H2309 H 0.53189 0.78754 0.34434 0.0
H2310 H 0.55235 0.79495 0.32664 0.0
C2311 C 0.62805 0.80782 0.27137 0.0
C2312 C 0.60605 0.79269 0.30559 0.0
H2313 H 0.5704 0.77593 0.30894 0.0
C2314 C 0.60784 0.79789 0.32082 0.0
C2315 C 0.59235 0.78466 0.30129 0.0
C2316 C 0.58993 0.77824 0.28529 0.0
C2317 C 0.5963 0.79545 0.33177 0.0
C2318 C 0.58265 0.78732 0.32749 0.0
C2319 C 0.58081 0.78221 0.31224 0.0
C2320 C 0.57035 0.78356 0.33874 0.0
C2321 C 0.59874 0.80189 0.34776 0.0
C2322 C 0.57357 0.7747 0.35148 0.0
C2323 C 0.56192 0.7705 0.36163 0.0
C2324 C 0.54669 0.77496 0.35926 0.0
C2325 C 0.54349 0.78399 0.34659 0.0
C2326 C 0.55518 0.78818 0.33642 0.0
H2327 H 0.60735 0.81146 0.34803 0.0
H2328 H 0.58784 0.80607 0.35269 0.0
H2329 H 0.60306 0.79275 0.35511 0.0
H2330 H 0.58507 0.77068 0.35339 0.0
H2331 H 0.5648 0.76343 0.37117 0.0
H2332 H 0.06234 0.12448 0.98273 0.0
H2333 H 0.05548 0.14613 0.96715 0.0
H2334 H 0.00984 0.14501 0.98589 0.0
H2335 H 0.01676 0.1237 1.00197 0.0
H2336 H 0.0336 0.14814 0.94493 0.0
H2337 H 0.0216 0.1899 0.99181 0.0
H2338 H 0.03123 0.17219 0.995 0.0
H2339 H 0.01069 0.1723 0.99294 0.0
C2340 C 0.0509 0.12897 0.98378 0.0
C2341 C 0.04017 0.12233 0.9938 0.0
C2342 C 0.04695 0.14131 0.97473 0.0
C2343 C 0.0322 0.14744 0.97546 0.0
C2344 C 0.0214 0.14076 0.9853 0.0
H2345 H 0.98631 0.22034 0.92788 0.0
H2346 H 0.99309 0.19899 0.94392 0.0
C2347 C 0.02533 0.1284 0.99438 0.0
C2348 C 0.02809 0.16054 0.96565 0.0
H2349 H 0.01504 0.19722 0.96674 0.0
C2350 C 0.02961 0.15889 0.94972 0.0
C2351 C 0.02285 0.17462 0.97183 0.0
C2352 C 0.02162 0.17747 0.98883 0.0
C2353 C 0.02581 0.17074 0.93985 0.0
C2354 C 0.02058 0.18482 0.94603 0.0
C2355 C 0.01903 0.18647 0.96195 0.0
C2356 C 0.01658 0.19792 0.93619 0.0
C2357 C 0.02709 0.16793 0.92285 0.0
C2358 C 0.02756 0.20467 0.92658 0.0
C2359 C 0.02372 0.21693 0.91734 0.0
C2360 C 0.0088 0.22284 0.91753 0.0
C2361 C 0.9979 0.21616 0.92734 0.0
C2362 C 1.00176 0.20391 0.93657 0.0
H2363 H 0.02722 0.1555 0.91985 0.0
H2364 H 0.01744 0.17314 0.91668 0.0
H2365 H 0.03797 0.1732 0.91876 0.0
H2366 H 0.03917 0.20052 0.92629 0.0
H2367 H 0.03248 0.22177 0.91004 0.0
H2368 H 0.3946 0.32258 0.26241 0.0
H2369 H 0.41581 0.32133 0.2442 0.0
H2370 H 0.39513 0.28079 0.2231 0.0
H2371 H 0.37364 0.28232 0.24077 0.0
H2372 H 0.43658 0.29962 0.24051 0.0
H2373 H 0.4056 0.3047 0.18585 0.0
H2374 H 0.39678 0.30902 0.20402 0.0
H2375 H 0.39755 0.28953 0.1969 0.0
C2376 C 0.39436 0.31359 0.25368 0.0
C2377 C 0.38231 0.30256 0.25314 0.0
C2378 C 0.40659 0.31283 0.24331 0.0
C2379 C 0.40705 0.30109 0.23205 0.0
C2380 C 0.39496 0.29018 0.23139 0.0
H2381 H 0.48086 0.25536 0.19018 0.0
H2382 H 0.46177 0.26679 0.20674 0.0
C2383 C 0.38273 0.29094 0.24171 0.0
C2384 C 0.42059 0.29959 0.22169 0.0
H2385 H 0.43067 0.29352 0.18433 0.0
C2386 C 0.43528 0.29853 0.22821 0.0
C2387 C 0.41909 0.29847 0.20558 0.0
C2388 C 0.40392 0.30066 0.19767 0.0
C2389 C 0.44826 0.29551 0.2192 0.0
C2390 C 0.44654 0.29317 0.20321 0.0
C2391 C 0.43203 0.29513 0.19659 0.0
C2392 C 0.45923 0.28714 0.19348 0.0
C2393 C 0.46368 0.29465 0.22697 0.0
C2394 C 0.46425 0.29467 0.1803 0.0
C2395 C 0.47532 0.28807 0.17064 0.0
C2396 C 0.48135 0.27368 0.17388 0.0
C2397 C 0.47652 0.26644 0.18729 0.0
C2398 C 0.46562 0.27304 0.19689 0.0
H2399 H 0.46412 0.30184 0.23761 0.0
H2400 H 0.46566 0.28264 0.23017 0.0
H2401 H 0.47312 0.2984 0.21935 0.0
H2402 H 0.45941 0.30552 0.17734 0.0
H2403 H 0.47864 0.29387 0.16033 0.0
H2404 H 0.52311 0.41345 0.05275 0.0
H2405 H 0.51799 0.39094 0.06808 0.0
H2406 H 0.53565 0.36193 0.03205 0.0
H2407 H 0.54146 0.38446 0.0169 0.0
H2408 H 0.50005 0.3654 0.06392 0.0
H2409 H 0.56094 0.34882 0.06798 0.0
H2410 H 0.55532 0.36699 0.06068 0.0
H2411 H 0.55406 0.34998 0.04871 0.0
C2412 C 0.52607 0.40232 0.04809 0.0
C2413 C 0.53292 0.40092 0.03358 0.0
C2414 C 0.52299 0.38939 0.05686 0.0
C2415 C 0.52669 0.37468 0.05142 0.0
C2416 C 0.533 0.37315 0.03672 0.0
H2417 H 0.4957 0.28943 0.09545 0.0
H2418 H 0.4984 0.31101 0.07816 0.0
C2419 C 0.53613 0.38609 0.02794 0.0
C2420 C 0.52411 0.36106 0.06124 0.0
H2421 H 0.54251 0.33163 0.0781 0.0
C2422 C 0.50934 0.35801 0.067 0.0
C2423 C 0.53624 0.35146 0.0655 0.0
C2424 C 0.55256 0.35453 0.06054 0.0
C2425 C 0.50636 0.34571 0.07678 0.0
C2426 C 0.51843 0.33592 0.08076 0.0
C2427 C 0.53319 0.33899 0.075 0.0
C2428 C 0.51625 0.32286 0.0914 0.0
C2429 C 0.49041 0.34363 0.08314 0.0
C2430 C 0.52552 0.32205 0.10451 0.0
C2431 C 0.52411 0.30965 0.11429 0.0
C2432 C 0.51338 0.29767 0.11126 0.0
C2433 C 0.50398 0.29851 0.09822 0.0
C2434 C 0.50547 0.31092 0.08835 0.0
H2435 H 0.48374 0.35428 0.08243 0.0
H2436 H 0.48419 0.33452 0.07641 0.0
H2437 H 0.4908 0.34017 0.09524 0.0
H2438 H 0.53393 0.33104 0.10718 0.0
H2439 H 0.53156 0.30942 0.1242 0.0
H2440 H 0.62993 0.20134 0.25805 0.0
H2441 H 0.60867 0.20771 0.24124 0.0
H2442 H 0.63472 0.24651 0.22506 0.0
H2443 H 0.65627 0.23994 0.2415 0.0
H2444 H 0.5914 0.23381 0.24 0.0
H2445 H 0.62209 0.22454 0.18523 0.0
H2446 H 0.62948 0.21815 0.20321 0.0
H2447 H 0.63139 0.23795 0.19831 0.0
C2448 C 0.63125 0.21115 0.25081 0.0
C2449 C 0.64496 0.22002 0.25108 0.0
C2450 C 0.619 0.21485 0.24126 0.0
C2451 C 0.62013 0.22744 0.23164 0.0
C2452 C 0.63364 0.23655 0.23212 0.0
H2453 H 0.55514 0.26201 0.16415 0.0
H2454 H 0.57724 0.25882 0.18112 0.0
C2455 C 0.64591 0.23287 0.2417 0.0
C2456 C 0.60709 0.23103 0.22127 0.0
H2457 H 0.59699 0.23412 0.18367 0.0
C2458 C 0.59264 0.23387 0.22768 0.0
C2459 C 0.60866 0.2312 0.20518 0.0
C2460 C 0.62369 0.22767 0.19751 0.0
C2461 C 0.5798 0.23688 0.21851 0.0
C2462 C 0.58131 0.23678 0.20241 0.0
C2463 C 0.5958 0.2342 0.19599 0.0
C2464 C 0.56786 0.23877 0.19204 0.0
C2465 C 0.56476 0.24033 0.22618 0.0
C2466 C 0.5553 0.22843 0.1923 0.0
C2467 C 0.54267 0.2302 0.18263 0.0
C2468 C 0.54225 0.24233 0.17233 0.0
C2469 C 0.55497 0.25257 0.17194 0.0
C2470 C 0.56765 0.25076 0.18164 0.0
H2471 H 0.56649 0.24435 0.23821 0.0
H2472 H 0.55845 0.24918 0.21997 0.0
H2473 H 0.5575 0.22974 0.22627 0.0
H2474 H 0.55531 0.21888 0.19995 0.0
H2475 H 0.53322 0.22198 0.18323 0.0
H2476 H 0.46648 0.13487 0.02619 0.0
H2477 H 0.47303 0.15704 0.04262 0.0
H2478 H 0.51919 0.1411 0.04732 0.0
H2479 H 0.51264 0.11858 0.03111 0.0
H2480 H 0.48408 0.15328 0.07358 0.0
H2481 H 0.52445 0.18833 0.03917 0.0
H2482 H 0.51095 0.17466 0.03054 0.0
H2483 H 0.52781 0.1681 0.03993 0.0
C2484 C 0.47806 0.13602 0.03065 0.0
C2485 C 0.48895 0.12473 0.02742 0.0
C2486 C 0.48182 0.14883 0.03996 0.0
C2487 C 0.49663 0.15084 0.04614 0.0
C2488 C 0.50775 0.13995 0.04248 0.0
H2489 H 0.53474 0.21961 0.11176 0.0
H2490 H 0.53118 0.19815 0.0933 0.0
C2491 C 0.50397 0.12705 0.0332 0.0
C2492 C 0.49978 0.16337 0.05769 0.0
H2493 H 0.52011 0.19682 0.06461 0.0
C2494 C 0.49191 0.16284 0.07158 0.0
C2495 C 0.5102 0.1757 0.0552 0.0
C2496 C 0.51882 0.1769 0.04038 0.0
C2497 C 0.49418 0.17417 0.08306 0.0
C2498 C 0.50426 0.18682 0.08055 0.0
C2499 C 0.51231 0.18726 0.06664 0.0
C2500 C 0.50644 0.19967 0.09216 0.0
C2501 C 0.48631 0.17204 0.09809 0.0
C2502 C 0.49381 0.20785 0.09773 0.0
C2503 C 0.49584 0.21996 0.10843 0.0
C2504 C 0.51056 0.22427 0.11382 0.0
C2505 C 0.52323 0.21633 0.10806 0.0
C2506 C 0.5212 0.20412 0.09743 0.0
H2507 H 0.48234 0.16001 0.09963 0.0
H2508 H 0.49435 0.17528 0.10748 0.0
H2509 H 0.47614 0.17942 0.09879 0.0
H2510 H 0.48235 0.20514 0.09353 0.0
H2511 H 0.48592 0.22627 0.11214 0.0
H2512 H 0.28067 0.38656 0.69679 0.0
H2513 H 0.29768 0.40847 0.70302 0.0
H2514 H 0.28645 0.4046 0.75066 0.0
H2515 H 0.26976 0.38233 0.74459 0.0
H2516 H 0.29215 0.43676 0.71727 0.0
H2517 H 0.33323 0.40379 0.75129 0.0
H2518 H 0.31874 0.39459 0.73925 0.0
H2519 H 0.31371 0.40241 0.75769 0.0
C2520 C 0.2819 0.39025 0.70863 0.0
C2521 C 0.27394 0.38248 0.7202 0.0
C2522 C 0.29156 0.40289 0.71216 0.0
C2523 C 0.29359 0.40807 0.72734 0.0
C2524 C 0.28533 0.40066 0.73889 0.0
H2525 H 0.35593 0.47618 0.77027 0.0
H2526 H 0.33639 0.45625 0.76478 0.0
C2527 C 0.27563 0.38801 0.73537 0.0
C2528 C 0.3045 0.42108 0.73104 0.0
H2529 H 0.33706 0.43057 0.75117 0.0
C2530 C 0.30208 0.43539 0.72457 0.0
C2531 C 0.31739 0.41937 0.74067 0.0
C2532 C 0.32105 0.40419 0.74754 0.0
C2533 C 0.31207 0.44804 0.72759 0.0
C2534 C 0.32516 0.44626 0.73702 0.0
C2535 C 0.32735 0.43198 0.74367 0.0
C2536 C 0.33671 0.45893 0.74026 0.0
C2537 C 0.30809 0.46327 0.72105 0.0
C2538 C 0.3436 0.46721 0.72838 0.0
C2539 C 0.3546 0.47886 0.73158 0.0
C2540 C 0.35944 0.48199 0.74666 0.0
C2541 C 0.35262 0.47376 0.75851 0.0
C2542 C 0.34141 0.46238 0.75536 0.0
H2543 H 0.29557 0.46399 0.71884 0.0
H2544 H 0.31164 0.47293 0.72884 0.0
H2545 H 0.31405 0.46461 0.70998 0.0
H2546 H 0.34066 0.46454 0.71659 0.0
H2547 H 0.35965 0.4851 0.72226 0.0
H2548 H 0.26125 0.63209 0.78792 0.0
H2549 H 0.27843 0.61075 0.78274 0.0
H2550 H 0.31154 0.63066 0.81452 0.0
H2551 H 0.29449 0.65192 0.81976 0.0
H2552 H 0.30713 0.60979 0.77124 0.0
H2553 H 0.30805 0.58754 0.82982 0.0
H2554 H 0.29447 0.60152 0.82387 0.0
H2555 H 0.31371 0.60738 0.82926 0.0
C2556 C 0.27221 0.63196 0.79377 0.0
C2557 C 0.27635 0.64371 0.8044 0.0
C2558 C 0.28201 0.61969 0.79085 0.0
C2559 C 0.29619 0.61884 0.79849 0.0
C2560 C 0.3005 0.63073 0.80881 0.0
H2561 H 0.37411 0.56499 0.76909 0.0
H2562 H 0.356 0.58508 0.77548 0.0
C2563 C 0.2907 0.64294 0.81179 0.0
C2564 C 0.30665 0.60577 0.79537 0.0
H2565 H 0.32695 0.57786 0.81268 0.0
C2566 C 0.31138 0.60276 0.7803 0.0
C2567 C 0.31207 0.59637 0.80712 0.0
C2568 C 0.30669 0.59824 0.8234 0.0
C2569 C 0.32163 0.59097 0.77672 0.0
C2570 C 0.32764 0.58206 0.78858 0.0
C2571 C 0.32258 0.58478 0.80359 0.0
C2572 C 0.33916 0.56989 0.7856 0.0
C2573 C 0.32569 0.58802 0.7602 0.0
C2574 C 0.33619 0.55468 0.78983 0.0
C2575 C 0.3467 0.54314 0.78639 0.0
C2576 C 0.36043 0.54656 0.77865 0.0
C2577 C 0.36362 0.56189 0.77495 0.0
C2578 C 0.35317 0.5734 0.77847 0.0
H2579 H 0.31683 0.59243 0.75239 0.0
H2580 H 0.33671 0.59401 0.75767 0.0
H2581 H 0.32702 0.5756 0.75769 0.0
H2582 H 0.32554 0.55165 0.79546 0.0
H2583 H 0.34385 0.53147 0.78939 0.0
H2584 H 0.90196 0.50121 0.51319 0.0
H2585 H 0.8789 0.48652 0.52037 0.0
H2586 H 0.88304 0.4582 0.47968 0.0
H2587 H 0.90597 0.47275 0.47244 0.0
H2588 H 0.85142 0.48219 0.5062 0.0
H2589 H 0.87848 0.426 0.51173 0.0
H2590 H 0.88957 0.44361 0.51042 0.0
H2591 H 0.88213 0.43404 0.49342 0.0
C2592 C 0.89795 0.49188 0.50574 0.0
C2593 C 0.90601 0.48811 0.49229 0.0
C2594 C 0.88478 0.48342 0.50991 0.0
C2595 C 0.87936 0.47097 0.50078 0.0
C2596 C 0.88721 0.4674 0.48721 0.0
H2597 H 0.79054 0.43057 0.48805 0.0
H2598 H 0.81374 0.44642 0.48943 0.0
C2599 C 0.90036 0.47579 0.48306 0.0
C2600 C 0.86521 0.46205 0.505 0.0
H2601 H 0.85098 0.42556 0.50909 0.0
C2602 C 0.85139 0.46982 0.50703 0.0
C2603 C 0.8651 0.44592 0.50644 0.0
C2604 C 0.87965 0.43692 0.50556 0.0
C2605 C 0.83743 0.46188 0.5096 0.0
C2606 C 0.83715 0.44566 0.50989 0.0
C2607 C 0.85108 0.43795 0.50871 0.0
C2608 C 0.82245 0.43648 0.51001 0.0
C2609 C 0.82308 0.47099 0.51185 0.0
C2610 C 0.81952 0.42533 0.52104 0.0
C2611 C 0.8061 0.41604 0.52026 0.0
C2612 C 0.79546 0.41759 0.50828 0.0
C2613 C 0.79838 0.42897 0.49747 0.0
C2614 C 0.81167 0.43821 0.49829 0.0
H2615 H 0.82582 0.48263 0.51664 0.0
H2616 H 0.81737 0.47235 0.50064 0.0
H2617 H 0.81489 0.46516 0.5196 0.0
H2618 H 0.82772 0.42367 0.53014 0.0
H2619 H 0.80433 0.40734 0.5287 0.0
H2620 H 0.74849 0.88501 0.81844 0.0
H2621 H 0.72948 0.90509 0.81607 0.0
H2622 H 0.74197 0.91049 0.76891 0.0
H2623 H 0.76095 0.89054 0.77119 0.0
H2624 H 0.73997 0.93794 0.78346 0.0
H2625 H 0.6878 0.90289 0.79559 0.0
H2626 H 0.70213 0.90268 0.81035 0.0
H2627 H 0.70616 0.89449 0.7918 0.0
C2628 C 0.74707 0.89034 0.80751 0.0
C2629 C 0.75634 0.88611 0.79502 0.0
C2630 C 0.73615 0.90184 0.80616 0.0
C2631 C 0.7341 0.90927 0.79225 0.0
C2632 C 0.7433 0.90502 0.77978 0.0
H2633 H 0.65854 0.96288 0.76071 0.0
H2634 H 0.67691 0.94331 0.76704 0.0
C2635 C 0.75423 0.8936 0.78113 0.0
C2636 C 0.72268 0.92171 0.79063 0.0
H2637 H 0.68444 0.92953 0.79311 0.0
C2638 C 0.72783 0.9361 0.78562 0.0
C2639 C 0.70678 0.91934 0.79327 0.0
C2640 C 0.70032 0.90399 0.79791 0.0
C2641 C 0.7176 0.94806 0.78309 0.0
C2642 C 0.70173 0.94577 0.78597 0.0
C2643 C 0.69659 0.9314 0.79105 0.0
C2644 C 0.69017 0.95776 0.78283 0.0
C2645 C 0.72388 0.96286 0.77683 0.0
C2646 C 0.69119 0.97244 0.7898 0.0
C2647 C 0.68068 0.98377 0.78612 0.0
C2648 C 0.6688 0.98062 0.77549 0.0
C2649 C 0.66752 0.96577 0.76893 0.0
C2650 C 0.67805 0.95451 0.77256 0.0
H2651 H 0.73537 0.96141 0.77162 0.0
H2652 H 0.71603 0.96738 0.76808 0.0
H2653 H 0.72506 0.97151 0.78626 0.0
H2654 H 0.70018 0.97519 0.79805 0.0
H2655 H 0.68196 0.99504 0.79145 0.0
H2656 H 0.61026 0.54875 1.00115 0.0
H2657 H 0.63328 0.56462 1.006 0.0
H2658 H 0.66133 0.52893 0.98712 0.0
H2659 H 0.6383 0.51301 0.98192 0.0
H2660 H 0.67352 0.54377 0.0149 0.0
H2661 H 0.65741 0.5853 0.97098 0.0
H2662 H 0.64285 0.58153 0.98494 0.0
H2663 H 0.64854 0.56648 0.97196 0.0
C2664 C 0.62129 0.54424 0.99793 0.0
C2665 C 0.6223 0.52959 0.99093 0.0
C2666 C 0.63448 0.55334 1.00079 0.0
C2667 C 0.64905 0.54808 0.99675 0.0
C2668 C 0.65022 0.53326 0.99033 0.0
H2669 H 0.72982 0.60693 0.98349 0.0
H2670 H 0.70836 0.58845 0.98083 0.0
C2671 C 0.637 0.52413 0.98742 0.0
C2672 C 0.66293 0.55831 0.99863 0.0
H2673 H 0.67886 0.59184 0.98646 0.0
C2674 C 0.67469 0.55432 0.00871 0.0
C2675 C 0.66462 0.57195 0.99037 0.0
C2676 C 0.65277 0.57656 0.97884 0.0
C2677 C 0.68791 0.56376 0.01096 0.0
C2678 C 0.68936 0.57769 1.00304 0.0
C2679 C 0.67771 0.58141 0.99274 0.0
C2680 C 0.70288 0.58848 1.00493 0.0
C2681 C 0.70035 0.55854 0.02151 0.0
C2682 C 0.70706 0.5948 0.01933 0.0
C2683 C 0.71937 0.6054 0.02083 0.0
C2684 C 0.72746 0.61025 0.00791 0.0
C2685 C 0.72348 0.60375 0.99358 0.0
C2686 C 0.71127 0.59309 0.99208 0.0
H2687 H 0.69967 0.54596 0.02307 0.0
H2688 H 0.71192 0.56163 0.01712 0.0
H2689 H 0.69898 0.56419 0.03289 0.0
H2690 H 0.70063 0.59176 0.02941 0.0
H2691 H 0.72232 0.61011 0.03204 0.0
H2692 H 0.2495 0.64651 0.2515 0.0
H2693 H 0.23043 0.62587 0.25374 0.0
H2694 H 0.23963 0.61078 0.20753 0.0
H2695 H 0.25927 0.63113 0.20538 0.0
H2696 H 0.20434 0.6209 0.23766 0.0
H2697 H 0.24151 0.57061 0.22973 0.0
H2698 H 0.24921 0.58972 0.23329 0.0
H2699 H 0.24246 0.58403 0.21454 0.0
C2700 C 0.2477 0.63869 0.24186 0.0
C2701 C 0.25612 0.64049 0.22829 0.0
C2702 C 0.23668 0.6269 0.24314 0.0
C2703 C 0.23373 0.61652 0.23092 0.0
C2704 C 0.24191 0.61837 0.21726 0.0
H2705 H 0.16651 0.53983 0.22277 0.0
H2706 H 0.18562 0.56008 0.21727 0.0
C2707 C 0.253 0.63019 0.21597 0.0
C2708 C 0.22154 0.60433 0.23241 0.0
H2709 H 0.21473 0.56554 0.23148 0.0
C2710 C 0.20667 0.6088 0.23632 0.0
C2711 C 0.22446 0.58849 0.23058 0.0
C2712 C 0.24029 0.58286 0.22694 0.0
C2713 C 0.19474 0.598 0.23848 0.0
C2714 C 0.19763 0.58217 0.23692 0.0
C2715 C 0.21244 0.57765 0.23271 0.0
C2716 C 0.18555 0.57019 0.24006 0.0
C2717 C 0.17903 0.60368 0.24222 0.0
C2718 C 0.17913 0.56901 0.2547 0.0
C2719 C 0.16827 0.55743 0.25784 0.0
C2720 C 0.16333 0.5469 0.24637 0.0
C2721 C 0.16982 0.548 0.23175 0.0
C2722 C 0.18078 0.55953 0.22862 0.0
H2723 H 0.17776 0.61593 0.23944 0.0
H2724 H 0.17022 0.5968 0.23581 0.0
H2725 H 0.17699 0.60247 0.25463 0.0
H2726 H 0.18285 0.5768 0.26386 0.0
H2727 H 0.16409 0.55642 0.2694 0.0
H2728 H 0.89326 0.51892 0.01429 0.0
H2729 H 0.87141 0.53471 1.00763 0.0
H2730 H 0.88697 0.56952 0.04016 0.0
H2731 H 0.9087 0.55387 0.04691 0.0
H2732 H 0.84769 0.54599 0.025 0.0
H2733 H 0.88183 0.59434 1.00209 0.0
H2734 H 0.89006 0.57602 1.00579 0.0
H2735 H 0.88738 0.58975 0.02115 0.0
C2736 C 0.89202 0.52991 0.02008 0.0
C2737 C 0.90294 0.53514 0.03104 0.0
C2738 C 0.87953 0.53897 0.0162 0.0
C2739 C 0.87766 0.55351 0.02312 0.0
C2740 C 0.88834 0.55859 0.03429 0.0
H2741 H 0.81166 0.62568 0.02557 0.0
H2742 H 0.83339 0.60874 0.02825 0.0
C2743 C 0.90082 0.54958 0.03815 0.0
C2744 C 0.86443 0.56326 0.01897 0.0
H2745 H 0.85541 0.59901 1.00709 0.0
C2746 C 0.84938 0.55752 0.02091 0.0
C2747 C 0.86656 0.57833 0.01359 0.0
C2748 C 0.88232 0.58494 0.01038 0.0
C2749 C 0.8365 0.5666 0.01822 0.0
C2750 C 0.83866 0.58179 0.0132 0.0
C2751 C 0.8537 0.58741 0.01097 0.0
C2752 C 0.82555 0.59229 0.01093 0.0
C2753 C 0.8207 0.56003 0.02132 0.0
C2754 C 0.81397 0.58894 1.00003 0.0
C2755 C 0.80149 0.5987 0.99841 0.0
C2756 C 0.80031 0.61203 1.00766 0.0
C2757 C 0.81213 0.61552 0.01827 0.0
C2758 C 0.8246 0.60582 0.01983 0.0
H2759 H 0.82114 0.54956 0.02823 0.0
H2760 H 0.81356 0.56858 0.0274 0.0
H2761 H 0.81496 0.55693 0.0103 0.0
H2762 H 0.81456 0.57873 0.99281 0.0
H2763 H 0.79262 0.59565 0.99012 0.0
H2764 H 0.10922 0.97072 0.03555 0.0
H2765 H 0.13156 0.95538 0.02956 0.0
H2766 H 0.16035 0.99615 0.03086 0.0
H2767 H 0.13811 0.01155 0.03752 0.0
H2768 H 0.15106 0.95539 1.00592 0.0
H2769 H 0.18369 0.96908 0.05913 0.0
H2770 H 0.1638 0.97388 0.05681 0.0
H2771 H 0.17869 0.98568 0.0487 0.0
C2772 C 0.12031 0.97646 0.03477 0.0
C2773 C 0.12178 0.99243 0.03724 0.0
C2774 C 0.13311 0.96764 0.03121 0.0
C2775 C 0.14778 0.97449 0.03003 0.0
C2776 C 0.14926 0.99048 0.03205 0.0
H2777 H 0.22582 0.92884 0.98735 0.0
H2778 H 0.20435 0.94536 0.9934 0.0
C2779 C 0.13644 0.99933 0.03566 0.0
C2780 C 0.16138 0.96486 0.02652 0.0
H2781 H 0.19676 0.95508 0.0398 0.0
C2782 C 0.16104 0.95534 0.01334 0.0
C2783 C 0.17437 0.96452 0.0363 0.0
C2784 C 0.17516 0.97371 0.05111 0.0
C2785 C 0.17328 0.94569 0.00961 0.0
C2786 C 0.18649 0.94573 0.01912 0.0
C2787 C 0.18676 0.95512 0.0324 0.0
C2788 C 0.2 0.93596 0.01563 0.0
C2789 C 0.17173 0.93523 0.99569 0.0
C2790 C 0.20522 0.92547 0.02631 0.0
C2791 C 0.2177 0.91608 0.02296 0.0
C2792 C 0.22532 0.91695 0.00883 0.0
C2793 C 0.22023 0.92769 0.99829 0.0
C2794 C 0.20782 0.93712 1.00169 0.0
H2795 H 0.15952 0.93328 0.99235 0.0
H2796 H 0.17771 0.94059 0.98596 0.0
H2797 H 0.17694 0.92397 0.99769 0.0
H2798 H 0.19948 0.92438 0.03719 0.0
H2799 H 0.22125 0.90801 0.03139 0.0
loop_
_geom_bond_atom_site_label_1
_geom_bond_atom_site_label_2
_geom_bond_distance
_geom_bond_site_symmetry_2
_ccdc_geom_bond_type
C0 C1 1.264 . S
C0 C5 1.479 1_455 S
C0 C10 1.465 . S
C1 C0 1.264 . S
C1 C3 1.339 1_455 S
C1 H28 0.931 . S
C2 C3 1.395 . S
C2 C4 1.320 . S
C3 C1 1.339 1_655 S
C3 C2 1.395 . S
C3 H29 0.929 . S
C4 C2 1.320 . S
C4 C5 1.405 . S
C4 H30 0.930 . S
C5 C0 1.479 1_655 S
C5 C4 1.405 . S
C5 H31 0.931 . S
U6 O7 2.454 . S
U6 O8 2.458 . S
U6 C9 2.984 . S
U6 C10 2.847 . S
U6 C23 2.882 . S
U6 O24 2.441 . S
U6 O25 2.420 . S
U6 O26 2.455 . S
U6 O27 2.449 . S
O7 U6 2.454 . S
O7 C9 1.353 . S
O8 U6 2.458 . S
O8 C9 1.286 . S
C9 U6 2.984 . S
C9 O7 1.353 . S
C9 O8 1.286 . S
C9 C11 1.363 . S
C10 C0 1.465 . S
C10 U6 2.847 . S
C10 O24 1.249 . S
C10 O25 1.202 . S
C11 C9 1.363 . S
C11 C13 1.408 . S
C11 C16 1.342 1_554 S
C12 C13 1.310 1_556 S
C12 C15 1.461 . S
C12 H32 0.932 . S
C13 C11 1.408 . S
C13 C12 1.310 1_554 S
C13 H33 0.930 . S
C14 C15 1.474 . S
C14 C16 1.285 . S
C14 H34 0.929 . S
C15 C12 1.461 . S
C15 C14 1.474 . S
C16 C11 1.342 1_556 S
C16 C14 1.285 . S
C16 H35 0.930 . S
C17 C20 1.424 1_545 S
C17 C22 1.245 . S
C17 C23 1.428 . S
C18 C21 1.260 . S
C18 C22 1.477 1_565 S
C18 H36 0.932 . S
C19 C20 1.384 . S
C19 C21 1.479 . S
C19 H37 0.929 . S
C20 C17 1.424 1_565 S
C20 C19 1.384 . S
C20 H38 0.928 . S
C21 C18 1.260 . S
C21 C19 1.479 . S
C22 C17 1.245 . S
C22 C18 1.477 1_545 S
C22 H39 0.932 . S
C23 U6 2.882 . S
C23 C17 1.428 . S
C23 O26 1.301 . S
C23 O27 1.282 . S
O24 U6 2.441 . S
O24 C10 1.249 . S
O25 U6 2.420 . S
O25 C10 1.202 . S
O26 U6 2.455 . S
O26 C23 1.301 . S
O27 U6 2.449 . S
O27 C23 1.282 . S
H28 C1 0.931 . S
H29 C3 0.929 . S
H30 C4 0.930 . S
H31 C5 0.931 . S
H32 C12 0.932 . S
H33 C13 0.930 . S
H34 C14 0.929 . S
H35 C16 0.930 . S
H36 C18 0.932 . S
H37 C19 0.929 . S
H38 C20 0.928 . S
H39 C22 0.932 . S
C40 C41 1.264 . S
C40 C45 1.479 . S
C40 C50 1.465 . S
C41 C40 1.264 . S
C41 C43 1.339 . S
C41 H68 0.931 . S
C42 C43 1.395 . S
C42 C44 1.320 . S
C43 C41 1.339 . S
C43 C42 1.395 . S
C43 H69 0.929 . S
C44 C42 1.320 . S
C44 C45 1.405 . S
C44 H70 0.930 . S
C45 C40 1.479 . S
C45 C44 1.405 . S
C45 H71 0.931 . S
U46 O47 2.454 . S
U46 O48 2.458 . S
U46 C49 2.984 . S
U46 C50 2.847 . S
U46 C63 2.882 . S
U46 O64 2.441 . S
U46 O65 2.420 . S
U46 O66 2.455 . S
U46 O67 2.449 . S
O47 U46 2.454 . S
O47 C49 1.353 . S
O48 U46 2.458 . S
O48 C49 1.286 . S
C49 U46 2.984 . S
C49 O47 1.353 . S
C49 O48 1.286 . S
C49 C51 1.363 . S
C50 C40 1.465 . S
C50 U46 2.847 . S
C50 O64 1.249 . S
C50 O65 1.202 . S
C51 C49 1.363 . S
C51 C53 1.408 . S
C51 C56 1.342 . S
C52 C53 1.310 . S
C52 C55 1.461 . S
C52 H72 0.932 . S
C53 C51 1.408 . S
C53 C52 1.310 . S
C53 H73 0.930 . S
C54 C55 1.474 . S
C54 C56 1.285 . S
C54 H74 0.929 . S
C55 C52 1.461 . S
C55 C54 1.474 . S
C56 C51 1.342 . S
C56 C54 1.285 . S
C56 H75 0.930 . S
C57 C60 1.424 . S
C57 C62 1.245 . S
C57 C63 1.428 . S
C58 C61 1.260 . S
C58 C62 1.477 . S
C58 H76 0.932 . S
C59 C60 1.384 . S
C59 C61 1.479 . S
C59 H77 0.929 . S
C60 C57 1.424 . S
C60 C59 1.384 . S
C60 H78 0.928 . S
C61 C58 1.260 . S
C61 C59 1.479 . S
C62 C57 1.245 . S
C62 C58 1.477 . S
C62 H79 0.932 . S
C63 U46 2.882 . S
C63 C57 1.428 . S
C63 O66 1.301 . S
C63 O67 1.282 . S
O64 U46 2.441 . S
O64 C50 1.249 . S
O65 U46 2.420 . S
O65 C50 1.202 . S
O66 U46 2.455 . S
O66 C63 1.301 . S
O67 U46 2.449 . S
O67 C63 1.282 . S
H68 C41 0.931 . S
H69 C43 0.929 . S
H70 C44 0.930 . S
H71 C45 0.931 . S
H72 C52 0.932 . S
H73 C53 0.930 . S
H74 C54 0.929 . S
H75 C56 0.930 . S
H76 C58 0.932 . S
H77 C59 0.929 . S
H78 C60 0.928 . S
H79 C62 0.932 . S
C80 C81 1.259 1_556 S
C80 C85 1.500 . S
C80 C90 1.451 1_556 S
C81 C80 1.259 1_554 S
C81 C83 1.339 1_554 S
C81 H108 0.915 1_655 S
C82 C83 1.395 . S
C82 C84 1.320 . S
C83 C81 1.339 1_556 S
C83 C82 1.395 . S
C83 H109 0.929 1_655 S
C84 C82 1.320 . S
C84 C85 1.405 . S
C84 H110 0.930 . S
C85 C80 1.500 . S
C85 C84 1.405 . S
C85 H111 0.931 . S
U86 O87 2.454 . S
U86 O88 2.458 . S
U86 C89 2.984 . S
U86 C90 2.847 . S
U86 C103 2.882 . S
U86 O104 2.441 . S
U86 O105 2.420 . S
U86 O106 2.455 . S
U86 O107 2.449 . S
O87 U86 2.454 . S
O87 C89 1.353 . S
O88 U86 2.458 . S
O88 C89 1.286 . S
C89 U86 2.984 . S
C89 O87 1.353 . S
C89 O88 1.286 . S
C89 C91 1.363 . S
C90 C80 1.451 1_554 S
C90 U86 2.847 . S
C90 O104 1.249 . S
C90 O105 1.202 . S
C91 C89 1.363 . S
C91 C93 1.408 . S
C91 C96 1.342 . S
C92 C93 1.310 . S
C92 C95 1.461 . S
C92 H112 0.932 . S
C93 C91 1.408 . S
C93 C92 1.310 . S
C93 H113 0.930 . S
C94 C95 1.474 . S
C94 C96 1.285 . S
C94 H114 0.929 . S
C95 C92 1.461 . S
C95 C94 1.474 . S
C96 C91 1.342 . S
C96 C94 1.285 . S
C96 H115 0.930 . S
C97 C100 1.424 . S
C97 C102 1.245 . S
C97 C103 1.428 1_455 S
C98 C101 1.260 . S
C98 C102 1.477 . S
C98 H116 0.932 . S
C99 C100 1.384 . S
C99 C101 1.479 . S
C99 H117 0.929 . S
C100 C97 1.424 . S
C100 C99 1.384 . S
C100 H118 0.928 . S
C101 C98 1.260 . S
C101 C99 1.479 . S
C102 C97 1.245 . S
C102 C98 1.477 . S
C102 H119 0.932 1_455 S
C103 U86 2.882 . S
C103 C97 1.428 1_655 S
C103 O106 1.301 . S
C103 O107 1.282 . S
O104 U86 2.441 . S
O104 C90 1.249 . S
O105 U86 2.420 . S
O105 C90 1.202 . S
O106 U86 2.455 . S
O106 C103 1.301 . S
O107 U86 2.449 . S
O107 C103 1.282 . S
H108 C81 0.915 1_455 S
H109 C83 0.929 1_455 S
H110 C84 0.930 . S
H111 C85 0.931 . S
H112 C92 0.932 . S
H113 C93 0.930 . S
H114 C94 0.929 . S
H115 C96 0.930 . S
H116 C98 0.932 . S
H117 C99 0.929 . S
H118 C100 0.928 . S
H119 C102 0.932 1_655 S
C120 C121 1.264 . S
C120 C125 1.479 . S
C120 C130 1.465 . S
C121 C120 1.264 . S
C121 C123 1.339 . S
C121 H148 0.931 . S
C122 C123 1.395 . S
C122 C124 1.320 . S
C123 C121 1.339 . S
C123 C122 1.395 . S
C123 H149 0.929 . S
C124 C122 1.320 . S
C124 C125 1.405 . S
C124 H150 0.930 . S
C125 C120 1.479 . S
C125 C124 1.405 . S
C125 H151 0.931 . S
U126 O127 2.454 . S
U126 O128 2.458 . S
U126 C129 2.984 . S
U126 C130 2.847 . S
U126 C143 2.882 . S
U126 O144 2.441 . S
U126 O145 2.420 . S
U126 O146 2.455 . S
U126 O147 2.449 . S
O127 U126 2.454 . S
O127 C129 1.353 . S
O128 U126 2.458 . S
O128 C129 1.286 . S
C129 U126 2.984 . S
C129 O127 1.353 . S
C129 O128 1.286 . S
C129 C131 1.363 . S
C130 C120 1.465 . S
C130 U126 2.847 . S
C130 O144 1.249 . S
C130 O145 1.202 . S
C131 C129 1.363 . S
C131 C133 1.408 . S
C131 C136 1.342 . S
C132 C133 1.310 . S
C132 C135 1.461 . S
C132 H152 0.932 . S
C133 C131 1.408 . S
C133 C132 1.310 . S
C133 H153 0.930 . S
C134 C135 1.474 . S
C134 C136 1.285 . S
C134 H154 0.929 . S
C135 C132 1.461 . S
C135 C134 1.474 . S
C136 C131 1.342 . S
C136 C134 1.285 . S
C136 H155 0.930 . S
C137 C140 1.424 . S
C137 C142 1.245 . S
C137 C143 1.428 . S
C138 C141 1.260 . S
C138 C142 1.477 . S
C138 H156 0.932 . S
C139 C140 1.384 . S
C139 C141 1.479 . S
C139 H157 0.929 . S
C140 C137 1.424 . S
C140 C139 1.384 . S
C140 H158 0.928 . S
C141 C138 1.260 . S
C141 C139 1.479 . S
C142 C137 1.245 . S
C142 C138 1.477 . S
C142 H159 0.932 . S
C143 U126 2.882 . S
C143 C137 1.428 . S
C143 O146 1.301 . S
C143 O147 1.282 . S
O144 U126 2.441 . S
O144 C130 1.249 . S
O145 U126 2.420 . S
O145 C130 1.202 . S
O146 U126 2.455 . S
O146 C143 1.301 . S
O147 U126 2.449 . S
O147 C143 1.282 . S
H148 C121 0.931 . S
H149 C123 0.929 . S
H150 C124 0.930 . S
H151 C125 0.931 . S
H152 C132 0.932 . S
H153 C133 0.930 . S
H154 C134 0.929 . S
H155 C136 0.930 . S
H156 C138 0.932 . S
H157 C139 0.929 . S
H158 C140 0.928 . S
H159 C142 0.932 . S
C160 C161 1.264 . S
C160 C165 1.479 1_455 S
C160 C170 1.465 . S
C161 C160 1.264 . S
C161 C163 1.343 1_455 S
C161 H188 0.931 1_565 S
C162 C163 1.390 . S
C162 C164 1.320 . S
C163 C161 1.343 1_655 S
C163 C162 1.390 . S
C163 H189 0.930 1_665 S
C164 C162 1.320 . S
C164 C165 1.405 . S
C164 H190 0.930 . S
C165 C160 1.479 1_655 S
C165 C164 1.405 . S
C165 H191 0.931 . S
U166 O167 2.454 . S
U166 O168 2.458 . S
U166 C169 2.984 . S
U166 C170 2.847 . S
U166 C183 2.882 . S
U166 O184 2.441 . S
U166 O185 2.420 . S
U166 O186 2.455 . S
U166 O187 2.470 . S
O167 U166 2.454 . S
O167 C169 1.353 . S
O168 U166 2.458 . S
O168 C169 1.286 . S
C169 U166 2.984 . S
C169 O167 1.353 . S
C169 O168 1.286 . S
C169 C171 1.363 . S
C170 C160 1.465 . S
C170 U166 2.847 . S
C170 O184 1.249 . S
C170 O185 1.202 . S
C171 C169 1.363 . S
C171 C173 1.408 . S
C171 C176 1.342 . S
C172 C173 1.310 . S
C172 C175 1.461 . S
C172 H192 0.932 . S
C173 C171 1.408 . S
C173 C172 1.310 . S
C173 H193 0.930 . S
C174 C175 1.474 . S
C174 C176 1.285 . S
C174 H194 0.929 . S
C175 C172 1.461 . S
C175 C174 1.474 . S
C176 C171 1.342 . S
C176 C174 1.285 . S
C176 H195 0.930 . S
C177 C180 1.424 . S
C177 C182 1.245 . S
C177 C183 1.428 1_545 S
C178 C181 1.260 . S
C178 C182 1.477 . S
C178 H196 0.932 . S
C179 C180 1.384 . S
C179 C181 1.479 . S
C179 H197 0.929 . S
C180 C177 1.424 . S
C180 C179 1.384 . S
C180 H198 0.928 . S
C181 C178 1.260 . S
C181 C179 1.479 . S
C182 C177 1.245 . S
C182 C178 1.477 . S
C182 H199 0.932 1_545 S
C183 U166 2.882 . S
C183 C177 1.428 1_565 S
C183 O186 1.301 . S
C183 O187 1.288 . S
O184 U166 2.441 . S
O184 C170 1.249 . S
O185 U166 2.420 . S
O185 C170 1.202 . S
O186 U166 2.455 . S
O186 C183 1.301 . S
O187 U166 2.470 . S
O187 C183 1.288 . S
H188 C161 0.931 1_545 S
H189 C163 0.930 1_445 S
H190 C164 0.930 . S
H191 C165 0.931 . S
H192 C172 0.932 . S
H193 C173 0.930 . S
H194 C174 0.929 . S
H195 C176 0.930 . S
H196 C178 0.932 . S
H197 C179 0.929 . S
H198 C180 0.928 . S
H199 C182 0.932 1_565 S
C200 C201 1.264 . S
C200 C205 1.479 . S
C200 C210 1.465 . S
C201 C200 1.264 . S
C201 C203 1.339 . S
C201 H228 0.931 . S
C202 C203 1.395 . S
C202 C204 1.320 . S
C203 C201 1.339 . S
C203 C202 1.395 . S
C203 H229 0.929 . S
C204 C202 1.320 . S
C204 C205 1.405 . S
C204 H230 0.930 . S
C205 C200 1.479 . S
C205 C204 1.405 . S
C205 H231 0.931 . S
U206 O207 2.454 . S
U206 O208 2.458 . S
U206 C209 2.984 . S
U206 C210 2.847 . S
U206 C223 2.882 . S
U206 O224 2.441 . S
U206 O225 2.420 . S
U206 O226 2.455 . S
U206 O227 2.449 . S
O207 U206 2.454 . S
O207 C209 1.353 . S
O208 U206 2.458 . S
O208 C209 1.286 . S
C209 U206 2.984 . S
C209 O207 1.353 . S
C209 O208 1.286 . S
C209 C211 1.363 . S
C210 C200 1.465 . S
C210 U206 2.847 . S
C210 O224 1.249 . S
C210 O225 1.202 . S
C211 C209 1.363 . S
C211 C213 1.408 . S
C211 C216 1.342 . S
C212 C213 1.310 . S
C212 C215 1.461 . S
C212 H232 0.932 . S
C213 C211 1.408 . S
C213 C212 1.310 . S
C213 H233 0.930 . S
C214 C215 1.474 . S
C214 C216 1.285 . S
C214 H234 0.929 . S
C215 C212 1.461 . S
C215 C214 1.474 . S
C216 C211 1.342 . S
C216 C214 1.285 . S
C216 H235 0.930 . S
C217 C220 1.424 . S
C217 C222 1.245 . S
C217 C223 1.428 . S
C218 C221 1.260 . S
C218 C222 1.477 . S
C218 H236 0.932 . S
C219 C220 1.384 . S
C219 C221 1.479 . S
C219 H237 0.929 . S
C220 C217 1.424 . S
C220 C219 1.384 . S
C220 H238 0.928 . S
C221 C218 1.260 . S
C221 C219 1.479 . S
C222 C217 1.245 . S
C222 C218 1.477 . S
C222 H239 0.932 . S
C223 U206 2.882 . S
C223 C217 1.428 . S
C223 O226 1.301 . S
C223 O227 1.282 . S
O224 U206 2.441 . S
O224 C210 1.249 . S
O225 U206 2.420 . S
O225 C210 1.202 . S
O226 U206 2.455 . S
O226 C223 1.301 . S
O227 U206 2.449 . S
O227 C223 1.282 . S
H228 C201 0.931 . S
H229 C203 0.929 . S
H230 C204 0.930 . S
H231 C205 0.931 . S
H232 C212 0.932 . S
H233 C213 0.930 . S
H234 C214 0.929 . S
H235 C216 0.930 . S
H236 C218 0.932 . S
H237 C219 0.929 . S
H238 C220 0.928 . S
H239 C222 0.932 . S
C240 C241 1.264 . S
C240 C245 1.479 . S
C240 C250 1.465 . S
C241 C240 1.264 . S
C241 C243 1.339 . S
C241 H268 0.931 1_655 S
C242 C243 1.395 . S
C242 C244 1.320 . S
C243 C241 1.339 . S
C243 C242 1.395 . S
C243 H269 0.929 1_655 S
C244 C242 1.320 . S
C244 C245 1.405 . S
C244 H270 0.930 . S
C245 C240 1.479 . S
C245 C244 1.405 . S
C245 H271 0.931 . S
U246 O247 2.454 . S
U246 O248 2.458 . S
U246 C249 2.984 . S
U246 C250 2.847 . S
U246 C263 2.882 . S
U246 O264 2.441 . S
U246 O265 2.420 . S
U246 O266 2.455 . S
U246 O267 2.449 1_655 S
O247 U246 2.454 . S
O247 C249 1.353 . S
O248 U246 2.458 . S
O248 C249 1.286 . S
C249 U246 2.984 . S
C249 O247 1.353 . S
C249 O248 1.286 . S
C249 C251 1.363 . S
C250 C240 1.465 . S
C250 U246 2.847 . S
C250 O264 1.249 . S
C250 O265 1.202 . S
C251 C249 1.363 . S
C251 C253 1.408 . S
C251 C256 1.342 . S
C252 C253 1.310 . S
C252 C255 1.461 . S
C252 H272 0.932 . S
C253 C251 1.408 . S
C253 C252 1.310 . S
C253 H273 0.930 . S
C254 C255 1.474 . S
C254 C256 1.285 . S
C254 H274 0.929 . S
C255 C252 1.461 . S
C255 C254 1.474 . S
C256 C251 1.342 . S
C256 C254 1.285 . S
C256 H275 0.930 . S
C257 C260 1.424 . S
C257 C262 1.245 . S
C257 C263 1.428 1_455 S
C258 C261 1.260 . S
C258 C262 1.477 . S
C258 H276 0.932 . S
C259 C260 1.384 . S
C259 C261 1.479 . S
C259 H277 0.929 . S
C260 C257 1.424 . S
C260 C259 1.384 . S
C260 H278 0.928 . S
C261 C258 1.260 . S
C261 C259 1.479 . S
C262 C257 1.245 . S
C262 C258 1.477 . S
C262 H279 0.932 1_455 S
C263 U246 2.882 . S
C263 C257 1.428 1_655 S
C263 O266 1.301 . S
C263 O267 1.282 1_655 S
O264 U246 2.441 . S
O264 C250 1.249 . S
O265 U246 2.420 . S
O265 C250 1.202 . S
O266 U246 2.455 . S
O266 C263 1.301 . S
O267 U246 2.449 1_455 S
O267 C263 1.282 1_455 S
H268 C241 0.931 1_455 S
H269 C243 0.929 1_455 S
H270 C244 0.930 . S
H271 C245 0.931 . S
H272 C252 0.932 . S
H273 C253 0.930 . S
H274 C254 0.929 . S
H275 C256 0.930 . S
H276 C258 0.932 . S
H277 C259 0.929 . S
H278 C260 0.928 . S
H279 C262 0.932 1_655 S
C280 C281 1.264 . S
C280 C285 1.479 . S
C280 C290 1.465 . S
C281 C280 1.264 . S
C281 C283 1.339 . S
C281 H308 0.931 . S
C282 C283 1.395 . S
C282 C284 1.320 . S
C283 C281 1.339 . S
C283 C282 1.395 . S
C283 H309 0.929 . S
C284 C282 1.320 . S
C284 C285 1.405 . S
C284 H310 0.930 . S
C285 C280 1.479 . S
C285 C284 1.405 . S
C285 H311 0.931 . S
U286 O287 2.454 . S
U286 O288 2.458 . S
U286 C289 2.984 . S
U286 C290 2.847 . S
U286 C303 2.882 . S
U286 O304 2.441 . S
U286 O305 2.420 . S
U286 O306 2.455 . S
U286 O307 2.449 . S
O287 U286 2.454 . S
O287 C289 1.353 . S
O288 U286 2.458 . S
O288 C289 1.286 . S
C289 U286 2.984 . S
C289 O287 1.353 . S
C289 O288 1.286 . S
C289 C291 1.363 . S
C290 C280 1.465 . S
C290 U286 2.847 . S
C290 O304 1.249 . S
C290 O305 1.202 . S
C291 C289 1.363 . S
C291 C293 1.408 . S
C291 C296 1.342 . S
C292 C293 1.310 . S
C292 C295 1.461 . S
C292 H312 0.932 . S
C293 C291 1.408 . S
C293 C292 1.310 . S
C293 H313 0.930 . S
C294 C295 1.474 . S
C294 C296 1.285 . S
C294 H314 0.929 . S
C295 C292 1.461 . S
C295 C294 1.474 . S
C296 C291 1.342 . S
C296 C294 1.285 . S
C296 H315 0.930 . S
C297 C300 1.424 . S
C297 C302 1.245 . S
C297 C303 1.428 . S
C298 C301 1.260 . S
C298 C302 1.477 . S
C298 H316 0.932 . S
C299 C300 1.384 . S
C299 C301 1.479 . S
C299 H317 0.929 . S
C300 C297 1.424 . S
C300 C299 1.384 . S
C300 H318 0.928 . S
C301 C298 1.260 . S
C301 C299 1.479 . S
C302 C297 1.245 . S
C302 C298 1.477 . S
C302 H319 0.932 . S
C303 U286 2.882 . S
C303 C297 1.428 . S
C303 O306 1.301 . S
C303 O307 1.282 . S
O304 U286 2.441 . S
O304 C290 1.249 . S
O305 U286 2.420 . S
O305 C290 1.202 . S
O306 U286 2.455 . S
O306 C303 1.301 . S
O307 U286 2.449 . S
O307 C303 1.282 . S
H308 C281 0.931 . S
H309 C283 0.929 . S
H310 C284 0.930 . S
H311 C285 0.931 . S
H312 C292 0.932 . S
H313 C293 0.930 . S
H314 C294 0.929 . S
H315 C296 0.930 . S
H316 C298 0.932 . S
H317 C299 0.929 . S
H318 C300 0.928 . S
H319 C302 0.932 . S
C320 C321 1.264 . S
C320 C325 1.479 . S
C320 C330 1.465 . S
C321 C320 1.264 . S
C321 C323 1.339 . S
C321 H348 0.931 . S
C322 C323 1.395 . S
C322 C324 1.320 . S
C323 C321 1.339 . S
C323 C322 1.395 . S
C323 H349 0.929 . S
C324 C322 1.320 . S
C324 C325 1.405 . S
C324 H350 0.930 . S
C325 C320 1.479 . S
C325 C324 1.405 . S
C325 H351 0.931 . S
U326 O327 2.454 . S
U326 O328 2.458 . S
U326 C329 2.984 . S
U326 C330 2.847 . S
U326 C343 2.882 . S
U326 O344 2.441 . S
U326 O345 2.420 . S
U326 O346 2.455 . S
U326 O347 2.449 . S
O327 U326 2.454 . S
O327 C329 1.353 . S
O328 U326 2.458 . S
O328 C329 1.286 . S
C329 U326 2.984 . S
C329 O327 1.353 . S
C329 O328 1.286 . S
C329 C331 1.363 . S
C330 C320 1.465 . S
C330 U326 2.847 . S
C330 O344 1.249 . S
C330 O345 1.202 . S
C331 C329 1.363 . S
C331 C333 1.408 . S
C331 C336 1.342 . S
C332 C333 1.310 . S
C332 C335 1.461 . S
C332 H352 0.932 . S
C333 C331 1.408 . S
C333 C332 1.310 . S
C333 H353 0.930 . S
C334 C335 1.474 . S
C334 C336 1.285 . S
C334 H354 0.929 . S
C335 C332 1.461 . S
C335 C334 1.474 . S
C336 C331 1.342 . S
C336 C334 1.285 . S
C336 H355 0.930 . S
C337 C340 1.424 . S
C337 C342 1.245 . S
C337 C343 1.428 . S
C338 C341 1.260 . S
C338 C342 1.477 . S
C338 H356 0.932 . S
C339 C340 1.384 . S
C339 C341 1.479 . S
C339 H357 0.929 . S
C340 C337 1.424 . S
C340 C339 1.384 . S
C340 H358 0.928 . S
C341 C338 1.260 . S
C341 C339 1.479 . S
C342 C337 1.245 . S
C342 C338 1.477 . S
C342 H359 0.932 . S
C343 U326 2.882 . S
C343 C337 1.428 . S
C343 O346 1.301 . S
C343 O347 1.282 . S
O344 U326 2.441 . S
O344 C330 1.249 . S
O345 U326 2.420 . S
O345 C330 1.202 . S
O346 U326 2.455 . S
O346 C343 1.301 . S
O347 U326 2.449 . S
O347 C343 1.282 . S
H348 C321 0.931 . S
H349 C323 0.929 . S
H350 C324 0.930 . S
H351 C325 0.931 . S
H352 C332 0.932 . S
H353 C333 0.930 . S
H354 C334 0.929 . S
H355 C336 0.930 . S
H356 C338 0.932 . S
H357 C339 0.929 . S
H358 C340 0.928 . S
H359 C342 0.932 . S
C360 C361 1.264 . S
C360 C365 1.479 . S
C360 C370 1.465 . S
C361 C360 1.264 . S
C361 C363 1.339 . S
C361 H388 0.931 . S
C362 C363 1.395 . S
C362 C364 1.320 . S
C363 C361 1.339 . S
C363 C362 1.395 . S
C363 H389 0.929 . S
C364 C362 1.320 . S
C364 C365 1.405 . S
C364 H390 0.930 . S
C365 C360 1.479 . S
C365 C364 1.405 . S
C365 H391 0.931 . S
U366 O367 2.454 . S
U366 O368 2.458 . S
U366 C369 2.984 . S
U366 C370 2.847 . S
U366 C383 2.882 . S
U366 O384 2.441 . S
U366 O385 2.420 . S
U366 O386 2.455 . S
U366 O387 2.449 . S
O367 U366 2.454 . S
O367 C369 1.353 . S
O368 U366 2.458 . S
O368 C369 1.286 . S
C369 U366 2.984 . S
C369 O367 1.353 . S
C369 O368 1.286 . S
C369 C371 1.363 1_565 S
C370 C360 1.465 . S
C370 U366 2.847 . S
C370 O384 1.249 . S
C370 O385 1.202 . S
C371 C369 1.363 1_545 S
C371 C373 1.408 1_545 S
C371 C376 1.342 . S
C372 C373 1.312 1_545 S
C372 C375 1.461 . S
C372 H392 0.932 . S
C373 C371 1.408 1_565 S
C373 C372 1.312 1_565 S
C373 H393 0.928 . S
C374 C375 1.474 . S
C374 C376 1.285 . S
C374 H394 0.929 . S
C375 C372 1.461 . S
C375 C374 1.474 . S
C376 C371 1.342 . S
C376 C374 1.285 . S
C376 H395 0.930 . S
C377 C380 1.424 . S
C377 C382 1.245 . S
C377 C383 1.428 . S
C378 C381 1.260 . S
C378 C382 1.477 . S
C378 H396 0.969 . S
C379 C380 1.384 . S
C379 C381 1.479 . S
C379 H397 0.929 . S
C380 C377 1.424 . S
C380 C379 1.384 . S
C380 H398 0.928 . S
C381 C378 1.260 . S
C381 C379 1.479 . S
C382 C377 1.245 . S
C382 C378 1.477 . S
C382 H399 0.932 . S
C383 U366 2.882 . S
C383 C377 1.428 . S
C383 O386 1.301 . S
C383 O387 1.282 . S
O384 U366 2.441 . S
O384 C370 1.249 . S
O385 U366 2.420 . S
O385 C370 1.202 . S
O386 U366 2.455 . S
O386 C383 1.301 . S
O387 U366 2.449 . S
O387 C383 1.282 . S
H388 C361 0.931 . S
H389 C363 0.929 . S
H390 C364 0.930 . S
H391 C365 0.931 . S
H392 C372 0.932 . S
H393 C373 0.928 . S
H394 C374 0.929 . S
H395 C376 0.930 . S
H396 C378 0.969 . S
H397 C379 0.929 . S
H398 C380 0.928 . S
H399 C382 0.932 . S
C400 C401 1.264 . S
C400 C405 1.479 . S
C400 C410 1.465 . S
C401 C400 1.264 . S
C401 C403 1.339 . S
C401 H428 0.931 . S
C402 C403 1.395 . S
C402 C404 1.320 . S
C403 C401 1.339 . S
C403 C402 1.395 . S
C403 H429 0.929 . S
C404 C402 1.320 . S
C404 C405 1.405 . S
C404 H430 0.930 . S
C405 C400 1.479 . S
C405 C404 1.405 . S
C405 H431 0.931 . S
U406 O407 2.454 . S
U406 O408 2.458 . S
U406 C409 2.984 . S
U406 C410 2.847 . S
U406 C423 2.882 . S
U406 O424 2.441 . S
U406 O425 2.420 . S
U406 O426 2.455 . S
U406 O427 2.449 . S
O407 U406 2.454 . S
O407 C409 1.353 . S
O408 U406 2.458 . S
O408 C409 1.286 . S
C409 U406 2.984 . S
C409 O407 1.353 . S
C409 O408 1.286 . S
C409 C411 1.363 . S
C410 C400 1.465 . S
C410 U406 2.847 . S
C410 O424 1.249 . S
C410 O425 1.202 . S
C411 C409 1.363 . S
C411 C413 1.408 . S
C411 C416 1.342 . S
C412 C413 1.310 . S
C412 C415 1.461 . S
C412 H432 0.932 . S
C413 C411 1.408 . S
C413 C412 1.310 . S
C413 H433 0.930 . S
C414 C415 1.474 . S
C414 C416 1.285 . S
C414 H434 0.929 . S
C415 C412 1.461 . S
C415 C414 1.474 . S
C416 C411 1.342 . S
C416 C414 1.285 . S
C416 H435 0.930 . S
C417 C420 1.424 . S
C417 C422 1.245 . S
C417 C423 1.428 . S
C418 C421 1.260 . S
C418 C422 1.477 . S
C418 H436 0.932 . S
C419 C420 1.384 . S
C419 C421 1.479 . S
C419 H437 0.929 . S
C420 C417 1.424 . S
C420 C419 1.384 . S
C420 H438 0.928 . S
C421 C418 1.260 . S
C421 C419 1.479 . S
C422 C417 1.245 . S
C422 C418 1.477 . S
C422 H439 0.932 . S
C423 U406 2.882 . S
C423 C417 1.428 . S
C423 O426 1.301 . S
C423 O427 1.282 . S
O424 U406 2.441 . S
O424 C410 1.249 . S
O425 U406 2.420 . S
O425 C410 1.202 . S
O426 U406 2.455 . S
O426 C423 1.301 . S
O427 U406 2.449 . S
O427 C423 1.282 . S
H428 C401 0.931 . S
H429 C403 0.929 . S
H430 C404 0.930 . S
H431 C405 0.931 . S
H432 C412 0.932 . S
H433 C413 0.930 . S
H434 C414 0.929 . S
H435 C416 0.930 . S
H436 C418 0.932 . S
H437 C419 0.929 . S
H438 C420 0.928 . S
H439 C422 0.932 . S
C440 C441 1.264 . S
C440 C445 1.479 . S
C440 C450 1.465 . S
C441 C440 1.264 . S
C441 C443 1.339 . S
C441 H468 0.931 . S
C442 C443 1.395 . S
C442 C444 1.320 . S
C443 C441 1.339 . S
C443 C442 1.395 . S
C443 H469 0.929 . S
C444 C442 1.320 . S
C444 C445 1.405 . S
C444 H470 0.930 . S
C445 C440 1.479 . S
C445 C444 1.405 . S
C445 H471 0.931 . S
U446 O447 2.454 . S
U446 O448 2.458 . S
U446 C449 2.984 . S
U446 C450 2.847 . S
U446 C463 2.882 . S
U446 O464 2.441 . S
U446 O465 2.420 . S
U446 O466 2.455 . S
U446 O467 2.449 . S
O447 U446 2.454 . S
O447 C449 1.353 . S
O448 U446 2.458 . S
O448 C449 1.286 . S
C449 U446 2.984 . S
C449 O447 1.353 . S
C449 O448 1.286 . S
C449 C451 1.363 . S
C450 C440 1.465 . S
C450 U446 2.847 . S
C450 O464 1.249 . S
C450 O465 1.202 . S
C451 C449 1.363 . S
C451 C453 1.408 . S
C451 C456 1.342 . S
C452 C453 1.310 . S
C452 C455 1.461 . S
C452 H472 0.932 . S
C453 C451 1.408 . S
C453 C452 1.310 . S
C453 H473 0.930 . S
C454 C455 1.474 . S
C454 C456 1.285 . S
C454 H474 0.929 . S
C455 C452 1.461 . S
C455 C454 1.474 . S
C456 C451 1.342 . S
C456 C454 1.285 . S
C456 H475 0.930 . S
C457 C460 1.424 . S
C457 C462 1.245 . S
C457 C463 1.428 . S
C458 C461 1.260 . S
C458 C462 1.477 . S
C458 H476 0.932 . S
C459 C460 1.384 . S
C459 C461 1.479 . S
C459 H477 0.929 . S
C460 C457 1.424 . S
C460 C459 1.384 . S
C460 H478 0.928 . S
C461 C458 1.260 . S
C461 C459 1.479 . S
C462 C457 1.245 . S
C462 C458 1.477 . S
C462 H479 0.932 . S
C463 U446 2.882 . S
C463 C457 1.428 . S
C463 O466 1.301 . S
C463 O467 1.282 . S
O464 U446 2.441 . S
O464 C450 1.249 . S
O465 U446 2.420 . S
O465 C450 1.202 . S
O466 U446 2.455 . S
O466 C463 1.301 . S
O467 U446 2.449 . S
O467 C463 1.282 . S
H468 C441 0.931 . S
H469 C443 0.929 . S
H470 C444 0.930 . S
H471 C445 0.931 . S
H472 C452 0.932 . S
H473 C453 0.930 . S
H474 C454 0.929 . S
H475 C456 0.930 . S
H476 C458 0.932 . S
H477 C459 0.929 . S
H478 C460 0.928 . S
H479 C462 0.932 . S
C480 C481 1.264 . S
C480 C485 1.479 . S
C480 C490 1.465 . S
C481 C480 1.264 . S
C481 C483 1.339 . S
C481 H508 0.931 . S
C482 C483 1.395 . S
C482 C484 1.320 . S
C483 C481 1.339 . S
C483 C482 1.395 . S
C483 H509 0.929 . S
C484 C482 1.320 . S
C484 C485 1.405 . S
C484 H510 0.930 . S
C485 C480 1.479 . S
C485 C484 1.405 . S
C485 H511 0.931 . S
U486 O487 2.454 . S
U486 O488 2.458 . S
U486 C489 2.984 . S
U486 C490 2.847 . S
U486 C503 2.882 . S
U486 O504 2.441 . S
U486 O505 2.420 . S
U486 O506 2.455 . S
U486 O507 2.449 . S
O487 U486 2.454 . S
O487 C489 1.353 . S
O488 U486 2.458 . S
O488 C489 1.286 . S
C489 U486 2.984 . S
C489 O487 1.353 . S
C489 O488 1.286 . S
C489 C491 1.363 . S
C490 C480 1.465 . S
C490 U486 2.847 . S
C490 O504 1.249 . S
C490 O505 1.202 . S
C491 C489 1.363 . S
C491 C493 1.408 . S
C491 C496 1.342 . S
C492 C493 1.310 . S
C492 C495 1.461 . S
C492 H512 0.932 . S
C493 C491 1.408 . S
C493 C492 1.310 . S
C493 H513 0.930 . S
C494 C495 1.474 . S
C494 C496 1.285 . S
C494 H514 0.929 . S
C495 C492 1.461 . S
C495 C494 1.474 . S
C496 C491 1.342 . S
C496 C494 1.285 . S
C496 H515 0.930 . S
C497 C500 1.424 . S
C497 C502 1.245 . S
C497 C503 1.428 . S
C498 C501 1.260 . S
C498 C502 1.477 . S
C498 H516 0.932 . S
C499 C500 1.384 . S
C499 C501 1.479 . S
C499 H517 0.929 . S
C500 C497 1.424 . S
C500 C499 1.384 . S
C500 H518 0.928 . S
C501 C498 1.260 . S
C501 C499 1.479 . S
C502 C497 1.245 . S
C502 C498 1.477 . S
C502 H519 0.932 . S
C503 U486 2.882 . S
C503 C497 1.428 . S
C503 O506 1.301 . S
C503 O507 1.282 . S
O504 U486 2.441 . S
O504 C490 1.249 . S
O505 U486 2.420 . S
O505 C490 1.202 . S
O506 U486 2.455 . S
O506 C503 1.301 . S
O507 U486 2.449 . S
O507 C503 1.282 . S
H508 C481 0.931 . S
H509 C483 0.929 . S
H510 C484 0.930 . S
H511 C485 0.931 . S
H512 C492 0.932 . S
H513 C493 0.930 . S
H514 C494 0.929 . S
H515 C496 0.930 . S
H516 C498 0.932 . S
H517 C499 0.929 . S
H518 C500 0.928 . S
H519 C502 0.932 . S
C520 C521 1.264 . S
C520 C525 1.479 . S
C520 C530 1.465 . S
C521 C520 1.264 . S
C521 C523 1.339 . S
C521 H548 0.931 . S
C522 C523 1.395 . S
C522 C524 1.320 . S
C523 C521 1.339 . S
C523 C522 1.395 . S
C523 H549 0.929 . S
C524 C522 1.320 . S
C524 C525 1.405 . S
C524 H550 0.930 . S
C525 C520 1.479 . S
C525 C524 1.405 . S
C525 H551 0.931 . S
U526 O527 2.454 . S
U526 O528 2.458 . S
U526 C529 2.984 . S
U526 C530 2.847 . S
U526 C543 2.882 . S
U526 O544 2.441 . S
U526 O545 2.420 . S
U526 O546 2.455 . S
U526 O547 2.449 . S
O527 U526 2.454 . S
O527 C529 1.353 . S
O528 U526 2.458 . S
O528 C529 1.286 . S
C529 U526 2.984 . S
C529 O527 1.353 . S
C529 O528 1.286 . S
C529 C531 1.370 . S
C530 C520 1.465 . S
C530 U526 2.847 . S
C530 O544 1.249 . S
C530 O545 1.202 . S
C531 C529 1.370 . S
C531 C533 1.409 . S
C531 C536 1.335 1_556 S
C532 C533 1.310 1_554 S
C532 C535 1.461 . S
C532 H552 0.932 . S
C533 C531 1.409 . S
C533 C532 1.310 1_556 S
C533 H553 0.930 . S
C534 C535 1.474 . S
C534 C536 1.285 . S
C534 H554 0.929 . S
C535 C532 1.461 . S
C535 C534 1.474 . S
C536 C531 1.335 1_554 S
C536 C534 1.285 . S
C536 H555 0.930 . S
C537 C540 1.424 . S
C537 C542 1.245 . S
C537 C543 1.428 . S
C538 C541 1.260 . S
C538 C542 1.477 . S
C538 H556 0.932 . S
C539 C540 1.384 . S
C539 C541 1.479 . S
C539 H557 0.929 . S
C540 C537 1.424 . S
C540 C539 1.384 . S
C540 H558 0.928 . S
C541 C538 1.260 . S
C541 C539 1.479 . S
C542 C537 1.245 . S
C542 C538 1.477 . S
C542 H559 0.932 . S
C543 U526 2.882 . S
C543 C537 1.428 . S
C543 O546 1.301 . S
C543 O547 1.282 . S
O544 U526 2.441 . S
O544 C530 1.249 . S
O545 U526 2.420 . S
O545 C530 1.202 . S
O546 U526 2.455 . S
O546 C543 1.301 . S
O547 U526 2.449 . S
O547 C543 1.282 . S
H548 C521 0.931 . S
H549 C523 0.929 . S
H550 C524 0.930 . S
H551 C525 0.931 . S
H552 C532 0.932 . S
H553 C533 0.930 . S
H554 C534 0.929 . S
H555 C536 0.930 . S
H556 C538 0.932 . S
H557 C539 0.929 . S
H558 C540 0.928 . S
H559 C542 0.932 . S
C560 C561 1.264 . S
C560 C565 1.479 . S
C560 C570 1.465 . S
C561 C560 1.264 . S
C561 C563 1.339 . S
C561 H588 0.931 . S
C562 C563 1.395 . S
C562 C564 1.320 . S
C563 C561 1.339 . S
C563 C562 1.395 . S
C563 H589 0.929 . S
C564 C562 1.320 . S
C564 C565 1.405 . S
C564 H590 0.930 . S
C565 C560 1.479 . S
C565 C564 1.405 . S
C565 H591 0.931 . S
U566 O567 2.454 . S
U566 O568 2.458 . S
U566 C569 2.984 . S
U566 C570 2.847 . S
U566 C583 2.882 . S
U566 O584 2.441 . S
U566 O585 2.420 . S
U566 O586 2.455 . S
U566 O587 2.449 . S
O567 U566 2.454 . S
O567 C569 1.353 . S
O568 U566 2.458 . S
O568 C569 1.286 . S
C569 U566 2.984 . S
C569 O567 1.353 . S
C569 O568 1.286 . S
C569 C571 1.363 . S
C570 C560 1.465 . S
C570 U566 2.847 . S
C570 O584 1.249 . S
C570 O585 1.202 . S
C571 C569 1.363 . S
C571 C573 1.408 . S
C571 C576 1.342 . S
C572 C573 1.310 . S
C572 C575 1.461 . S
C572 H592 0.932 . S
C573 C571 1.408 . S
C573 C572 1.310 . S
C573 H593 0.930 . S
C574 C575 1.474 . S
C574 C576 1.285 . S
C574 H594 0.929 . S
C575 C572 1.461 . S
C575 C574 1.474 . S
C576 C571 1.342 . S
C576 C574 1.285 . S
C576 H595 0.930 . S
C577 C580 1.424 . S
C577 C582 1.245 . S
C577 C583 1.428 . S
C578 C581 1.260 . S
C578 C582 1.477 . S
C578 H596 0.932 . S
C579 C580 1.384 . S
C579 C581 1.479 . S
C579 H597 0.929 . S
C580 C577 1.424 . S
C580 C579 1.384 . S
C580 H598 0.928 . S
C581 C578 1.260 . S
C581 C579 1.479 . S
C582 C577 1.245 . S
C582 C578 1.477 . S
C582 H599 0.932 . S
C583 U566 2.882 . S
C583 C577 1.428 . S
C583 O586 1.301 . S
C583 O587 1.282 . S
O584 U566 2.441 . S
O584 C570 1.249 . S
O585 U566 2.420 . S
O585 C570 1.202 . S
O586 U566 2.455 . S
O586 C583 1.301 . S
O587 U566 2.449 . S
O587 C583 1.282 . S
H588 C561 0.931 . S
H589 C563 0.929 . S
H590 C564 0.930 . S
H591 C565 0.931 . S
H592 C572 0.932 . S
H593 C573 0.930 . S
H594 C574 0.929 . S
H595 C576 0.930 . S
H596 C578 0.932 . S
H597 C579 0.929 . S
H598 C580 0.928 . S
H599 C582 0.932 . S
C600 C601 1.264 . S
C600 C605 1.479 . S
C600 C610 1.446 1_554 S
C601 C600 1.264 . S
C601 C603 1.339 . S
C601 H628 0.931 1_554 S
C602 C603 1.395 . S
C602 C604 1.320 . S
C603 C601 1.339 . S
C603 C602 1.395 . S
C603 H629 0.929 . S
C604 C602 1.320 . S
C604 C605 1.405 . S
C604 H630 0.930 . S
C605 C600 1.479 . S
C605 C604 1.405 . S
C605 H631 0.931 . S
U606 O607 2.454 . S
U606 O608 2.458 . S
U606 C609 2.984 . S
U606 C610 2.874 . S
U606 C623 2.882 . S
U606 O624 2.420 1_556 S
U606 O625 2.420 . S
U606 O626 2.455 . S
U606 O627 2.449 . S
O607 U606 2.454 . S
O607 C609 1.353 . S
O608 U606 2.458 . S
O608 C609 1.286 . S
C609 U606 2.984 . S
C609 O607 1.353 . S
C609 O608 1.286 . S
C609 C611 1.363 . S
C610 C600 1.446 1_556 S
C610 U606 2.874 . S
C610 O624 1.245 1_556 S
C610 O625 1.231 . S
C611 C609 1.363 . S
C611 C613 1.408 . S
C611 C616 1.342 1_545 S
C612 C613 1.310 1_565 S
C612 C615 1.461 . S
C612 H632 0.934 1_556 S
C613 C611 1.408 . S
C613 C612 1.310 1_545 S
C613 H633 0.930 1_556 S
C614 C615 1.474 . S
C614 C616 1.285 . S
C614 H634 0.929 . S
C615 C612 1.461 . S
C615 C614 1.474 . S
C616 C611 1.342 1_565 S
C616 C614 1.285 . S
C616 H635 0.930 . S
C617 C620 1.424 . S
C617 C622 1.245 . S
C617 C623 1.428 . S
C618 C621 1.260 . S
C618 C622 1.477 . S
C618 H636 0.932 . S
C619 C620 1.384 . S
C619 C621 1.479 . S
C619 H637 0.929 . S
C620 C617 1.424 . S
C620 C619 1.384 . S
C620 H638 0.928 . S
C621 C618 1.260 . S
C621 C619 1.479 . S
C622 C617 1.245 . S
C622 C618 1.477 . S
C622 H639 0.932 . S
C623 U606 2.882 . S
C623 C617 1.428 . S
C623 O626 1.301 . S
C623 O627 1.282 . S
O624 U606 2.420 1_554 S
O624 C610 1.245 1_554 S
O625 U606 2.420 . S
O625 C610 1.231 . S
O626 U606 2.455 . S
O626 C623 1.301 . S
O627 U606 2.449 . S
O627 C623 1.282 . S
H628 C601 0.931 1_556 S
H629 C603 0.929 . S
H630 C604 0.930 . S
H631 C605 0.931 . S
H632 C612 0.934 1_554 S
H633 C613 0.930 1_554 S
H634 C614 0.929 . S
H635 C616 0.930 . S
H636 C618 0.932 . S
H637 C619 0.929 . S
H638 C620 0.928 . S
H639 C622 0.932 . S
Mn640 O645 2.095 . S
Mn640 O655 2.162 . S
Mn640 O656 2.297 . S
Mn640 O664 2.385 . S
Mn640 O665 2.209 1_554 S
Mn640 O666 2.094 . S
Mn641 O646 2.121 . S
Mn641 N648 2.257 . S
Mn641 N657 2.282 . S
Mn641 O665 2.215 . S
Mn641 O667 2.117 . S
C642 O664 1.234 1_556 S
C642 O665 1.283 . S
C643 O655 1.281 . S
C643 O656 1.236 . S
C644 O666 1.240 . S
C644 O667 1.264 1_554 S
O645 Mn640 2.095 . S
O645 C654 1.250 . S
O646 Mn641 2.121 . S
O646 C654 1.258 1_556 S
C647 N648 1.326 . S
C647 C651 1.460 . S
C647 H653 0.929 . S
N648 Mn641 2.257 . S
N648 C647 1.326 . S
N648 C652 1.362 . S
C649 C650 1.258 . S
C649 C652 1.431 . S
C649 C669 1.449 . S
C650 C649 1.258 . S
C650 C651 1.477 . S
C650 H670 0.931 . S
C651 C647 1.460 . S
C651 C650 1.477 . S
C651 H671 0.930 . S
C652 N648 1.362 . S
C652 C649 1.431 . S
C652 C662 1.476 . S
H653 C647 0.929 . S
C654 O645 1.250 . S
C654 O646 1.258 1_554 S
O655 Mn640 2.162 . S
O655 C643 1.281 . S
O656 Mn640 2.297 . S
O656 C643 1.236 . S
N657 Mn641 2.282 . S
N657 C658 1.328 . S
N657 C662 1.318 . S
C658 N657 1.328 . S
C658 C659 1.457 . S
C658 H663 0.929 . S
C659 C658 1.457 . S
C659 C660 1.291 . S
C659 H672 0.931 . S
C660 C659 1.291 . S
C660 C661 1.373 . S
C660 H673 0.929 . S
C661 C660 1.373 . S
C661 C662 1.396 . S
C661 C668 1.403 . S
C662 C652 1.476 . S
C662 N657 1.318 . S
C662 C661 1.396 . S
H663 C658 0.929 . S
O664 Mn640 2.385 . S
O664 C642 1.234 1_554 S
O665 Mn640 2.209 1_556 S
O665 Mn641 2.215 . S
O665 C642 1.283 . S
O666 Mn640 2.094 . S
O666 C644 1.240 . S
O667 Mn641 2.117 . S
O667 C644 1.264 1_556 S
C668 C661 1.403 . S
C668 C669 1.399 . S
C668 H674 0.929 . S
C669 C649 1.449 . S
C669 C668 1.399 . S
C669 H675 0.930 . S
H670 C650 0.931 . S
H671 C651 0.930 . S
H672 C659 0.931 . S
H673 C660 0.929 . S
H674 C668 0.929 . S
H675 C669 0.930 . S
Mn676 O681 2.095 . S
Mn676 O691 2.162 . S
Mn676 O692 2.297 . S
Mn676 O700 2.385 . S
Mn676 O701 2.209 . S
Mn676 O702 2.094 . S
Mn677 O682 2.121 . S
Mn677 N684 2.257 . S
Mn677 N693 2.282 . S
Mn677 O701 2.215 . S
Mn677 O703 2.117 . S
C678 O700 1.234 . S
C678 O701 1.283 . S
C679 O691 1.281 . S
C679 O692 1.236 . S
C680 O702 1.240 . S
C680 O703 1.264 . S
O681 Mn676 2.095 . S
O681 C690 1.250 . S
O682 Mn677 2.121 . S
O682 C690 1.258 . S
C683 N684 1.326 . S
C683 C687 1.460 . S
C683 H689 0.929 . S
N684 Mn677 2.257 . S
N684 C683 1.326 . S
N684 C688 1.362 . S
C685 C686 1.258 . S
C685 C688 1.431 . S
C685 C705 1.449 . S
C686 C685 1.258 . S
C686 C687 1.477 . S
C686 H706 0.931 . S
C687 C683 1.460 . S
C687 C686 1.477 . S
C687 H707 0.930 . S
C688 N684 1.362 . S
C688 C685 1.431 . S
C688 C698 1.476 . S
H689 C683 0.929 . S
C690 O681 1.250 . S
C690 O682 1.258 . S
O691 Mn676 2.162 . S
O691 C679 1.281 . S
O692 Mn676 2.297 . S
O692 C679 1.236 . S
N693 Mn677 2.282 . S
N693 C694 1.328 . S
N693 C698 1.318 . S
C694 N693 1.328 . S
C694 C695 1.457 . S
C694 H699 0.929 . S
C695 C694 1.457 . S
C695 C696 1.291 . S
C695 H708 0.931 . S
C696 C695 1.291 . S
C696 C697 1.373 . S
C696 H709 0.929 . S
C697 C696 1.373 . S
C697 C698 1.396 . S
C697 C704 1.403 . S
C698 C688 1.476 . S
C698 N693 1.318 . S
C698 C697 1.396 . S
H699 C694 0.929 . S
O700 Mn676 2.385 . S
O700 C678 1.234 . S
O701 Mn676 2.209 . S
O701 Mn677 2.215 . S
O701 C678 1.283 . S
O702 Mn676 2.094 . S
O702 C680 1.240 . S
O703 Mn677 2.117 . S
O703 C680 1.264 . S
C704 C697 1.403 . S
C704 C705 1.399 . S
C704 H710 0.929 . S
C705 C685 1.449 . S
C705 C704 1.399 . S
C705 H711 0.930 . S
H706 C686 0.931 . S
H707 C687 0.930 . S
H708 C695 0.931 . S
H709 C696 0.929 . S
H710 C704 0.929 . S
H711 C705 0.930 . S
Mn712 O717 2.095 1_554 S
Mn712 O727 2.162 . S
Mn712 O728 2.297 1_554 S
Mn712 O736 2.385 . S
Mn712 O737 2.209 1_554 S
Mn712 O738 2.094 . S
Mn713 O718 2.121 . S
Mn713 N720 2.257 . S
Mn713 N729 2.282 . S
Mn713 O737 2.215 . S
Mn713 O739 2.117 1_556 S
C714 O736 1.200 1_556 S
C714 O737 1.307 . S
C715 O727 1.281 . S
C715 O728 1.236 1_554 S
C716 O738 1.240 . S
C716 O739 1.264 . S
O717 Mn712 2.095 1_556 S
O717 C726 1.250 . S
O718 Mn713 2.121 . S
O718 C726 1.258 . S
C719 N720 1.326 . S
C719 C723 1.460 . S
C719 H725 0.929 . S
N720 Mn713 2.257 . S
N720 C719 1.326 . S
N720 C724 1.362 . S
C721 C722 1.258 . S
C721 C724 1.431 . S
C721 C741 1.449 . S
C722 C721 1.258 . S
C722 C723 1.477 . S
C722 H742 0.931 . S
C723 C719 1.460 . S
C723 C722 1.477 . S
C723 H743 0.930 . S
C724 N720 1.362 . S
C724 C721 1.431 . S
C724 C734 1.476 . S
H725 C719 0.929 . S
C726 O717 1.250 . S
C726 O718 1.258 . S
O727 Mn712 2.162 . S
O727 C715 1.281 . S
O728 Mn712 2.297 1_556 S
O728 C715 1.236 1_556 S
N729 Mn713 2.282 . S
N729 C730 1.328 1_556 S
N729 C734 1.318 . S
C730 N729 1.328 1_554 S
C730 C731 1.457 . S
C730 H735 0.929 . S
C731 C730 1.457 . S
C731 C732 1.291 . S
C731 H744 0.931 . S
C732 C731 1.291 . S
C732 C733 1.373 1_554 S
C732 H745 0.929 . S
C733 C732 1.373 1_556 S
C733 C734 1.396 . S
C733 C740 1.403 . S
C734 C724 1.476 . S
C734 N729 1.318 . S
C734 C733 1.396 . S
H735 C730 0.929 . S
O736 Mn712 2.385 . S
O736 C714 1.200 1_554 S
O737 Mn712 2.209 1_556 S
O737 Mn713 2.215 . S
O737 C714 1.307 . S
O738 Mn712 2.094 . S
O738 C716 1.240 . S
O739 Mn713 2.117 1_554 S
O739 C716 1.264 . S
C740 C733 1.403 . S
C740 C741 1.399 . S
C740 H746 0.929 . S
C741 C721 1.449 . S
C741 C740 1.399 . S
C741 H747 0.930 . S
H742 C722 0.931 . S
H743 C723 0.930 . S
H744 C731 0.931 . S
H745 C732 0.929 . S
H746 C740 0.929 . S
H747 C741 0.930 . S
Mn748 O753 2.095 . S
Mn748 O763 2.162 . S
Mn748 O764 2.297 . S
Mn748 O772 2.385 . S
Mn748 O773 2.209 1_545 S
Mn748 O774 2.094 . S
Mn749 O754 2.121 . S
Mn749 N756 2.257 . S
Mn749 N765 2.282 . S
Mn749 O773 2.215 . S
Mn749 O775 2.117 . S
C750 O772 1.234 1_565 S
C750 O773 1.283 . S
C751 O763 1.281 . S
C751 O764 1.236 . S
C752 O774 1.240 . S
C752 O775 1.264 1_545 S
O753 Mn748 2.095 . S
O753 C762 1.250 . S
O754 Mn749 2.121 . S
O754 C762 1.258 1_565 S
C755 N756 1.326 . S
C755 C759 1.460 . S
C755 H761 0.929 . S
N756 Mn749 2.257 . S
N756 C755 1.326 . S
N756 C760 1.362 . S
C757 C758 1.258 . S
C757 C760 1.431 . S
C757 C777 1.449 . S
C758 C757 1.258 . S
C758 C759 1.477 . S
C758 H778 0.931 . S
C759 C755 1.460 . S
C759 C758 1.477 . S
C759 H779 0.930 . S
C760 N756 1.362 . S
C760 C757 1.431 . S
C760 C770 1.476 . S
H761 C755 0.929 . S
C762 O753 1.250 . S
C762 O754 1.258 1_545 S
O763 Mn748 2.162 . S
O763 C751 1.281 . S
O764 Mn748 2.297 . S
O764 C751 1.236 . S
N765 Mn749 2.282 . S
N765 C766 1.328 . S
N765 C770 1.318 . S
C766 N765 1.328 . S
C766 C767 1.457 . S
C766 H771 0.929 . S
C767 C766 1.457 . S
C767 C768 1.291 . S
C767 H780 0.931 . S
C768 C767 1.291 . S
C768 C769 1.373 . S
C768 H781 0.929 . S
C769 C768 1.373 . S
C769 C770 1.396 . S
C769 C776 1.403 . S
C770 C760 1.476 . S
C770 N765 1.318 . S
C770 C769 1.396 . S
H771 C766 0.929 . S
O772 Mn748 2.385 . S
O772 C750 1.234 1_545 S
O773 Mn748 2.209 1_565 S
O773 Mn749 2.215 . S
O773 C750 1.283 . S
O774 Mn748 2.094 . S
O774 C752 1.240 . S
O775 Mn749 2.117 . S
O775 C752 1.264 1_565 S
C776 C769 1.403 . S
C776 C777 1.399 . S
C776 H782 0.929 . S
C777 C757 1.449 . S
C777 C776 1.399 . S
C777 H783 0.930 . S
H778 C758 0.931 . S
H779 C759 0.930 . S
H780 C767 0.931 . S
H781 C768 0.929 . S
H782 C776 0.929 . S
H783 C777 0.930 . S
Mn784 O789 2.095 . S
Mn784 O799 2.162 . S
Mn784 O800 2.297 . S
Mn784 O808 2.385 . S
Mn784 O809 2.209 . S
Mn784 O810 2.094 . S
Mn785 O790 2.121 . S
Mn785 N792 2.257 . S
Mn785 N801 2.282 . S
Mn785 O809 2.215 . S
Mn785 O811 2.117 . S
C786 O808 1.234 . S
C786 O809 1.283 . S
C787 O799 1.281 . S
C787 O800 1.236 . S
C788 O810 1.240 . S
C788 O811 1.264 . S
O789 Mn784 2.095 . S
O789 C798 1.250 . S
O790 Mn785 2.121 . S
O790 C798 1.258 . S
C791 N792 1.326 . S
C791 C795 1.460 . S
C791 H797 0.929 . S
N792 Mn785 2.257 . S
N792 C791 1.326 . S
N792 C796 1.362 . S
C793 C794 1.258 . S
C793 C796 1.431 . S
C793 C813 1.449 . S
C794 C793 1.258 . S
C794 C795 1.477 . S
C794 H814 0.931 . S
C795 C791 1.460 . S
C795 C794 1.477 . S
C795 H815 0.930 . S
C796 N792 1.362 . S
C796 C793 1.431 . S
C796 C806 1.476 . S
H797 C791 0.929 . S
C798 O789 1.250 . S
C798 O790 1.258 . S
O799 Mn784 2.162 . S
O799 C787 1.281 . S
O800 Mn784 2.297 . S
O800 C787 1.236 . S
N801 Mn785 2.282 . S
N801 C802 1.328 . S
N801 C806 1.318 . S
C802 N801 1.328 . S
C802 C803 1.457 . S
C802 H807 0.929 . S
C803 C802 1.457 . S
C803 C804 1.291 . S
C803 H816 0.931 . S
C804 C803 1.291 . S
C804 C805 1.373 . S
C804 H817 0.929 . S
C805 C804 1.373 . S
C805 C806 1.396 . S
C805 C812 1.403 . S
C806 C796 1.476 . S
C806 N801 1.318 . S
C806 C805 1.396 . S
H807 C802 0.929 . S
O808 Mn784 2.385 . S
O808 C786 1.234 . S
O809 Mn784 2.209 . S
O809 Mn785 2.215 . S
O809 C786 1.283 . S
O810 Mn784 2.094 . S
O810 C788 1.240 . S
O811 Mn785 2.117 . S
O811 C788 1.264 . S
C812 C805 1.403 . S
C812 C813 1.399 . S
C812 H818 0.929 . S
C813 C793 1.449 . S
C813 C812 1.399 . S
C813 H819 0.930 . S
H814 C794 0.931 . S
H815 C795 0.930 . S
H816 C803 0.931 . S
H817 C804 0.929 . S
H818 C812 0.929 . S
H819 C813 0.930 . S
Mn820 O825 2.095 . S
Mn820 O835 2.162 . S
Mn820 O836 2.297 . S
Mn820 O844 2.385 . S
Mn820 O845 2.209 . S
Mn820 O846 2.094 . S
Mn821 O826 2.121 . S
Mn821 N828 2.257 . S
Mn821 N837 2.282 . S
Mn821 O845 2.215 . S
Mn821 O847 2.117 . S
C822 O844 1.234 . S
C822 O845 1.283 . S
C823 O835 1.281 . S
C823 O836 1.236 . S
C824 O846 1.240 . S
C824 O847 1.264 . S
O825 Mn820 2.095 . S
O825 C834 1.250 . S
O826 Mn821 2.121 . S
O826 C834 1.258 . S
C827 N828 1.326 . S
C827 C831 1.460 . S
C827 H833 0.929 . S
N828 Mn821 2.257 . S
N828 C827 1.326 . S
N828 C832 1.362 . S
C829 C830 1.258 . S
C829 C832 1.431 . S
C829 C849 1.449 . S
C830 C829 1.258 . S
C830 C831 1.477 . S
C830 H850 0.931 . S
C831 C827 1.460 . S
C831 C830 1.477 . S
C831 H851 0.930 . S
C832 N828 1.362 . S
C832 C829 1.431 . S
C832 C842 1.476 . S
H833 C827 0.929 . S
C834 O825 1.250 . S
C834 O826 1.258 . S
O835 Mn820 2.162 . S
O835 C823 1.281 . S
O836 Mn820 2.297 . S
O836 C823 1.236 . S
N837 Mn821 2.282 . S
N837 C838 1.328 . S
N837 C842 1.318 . S
C838 N837 1.328 . S
C838 C839 1.457 . S
C838 H843 0.929 . S
C839 C838 1.457 . S
C839 C840 1.291 . S
C839 H852 0.931 . S
C840 C839 1.291 . S
C840 C841 1.373 . S
C840 H853 0.929 . S
C841 C840 1.373 . S
C841 C842 1.396 . S
C841 C848 1.403 . S
C842 C832 1.476 . S
C842 N837 1.318 . S
C842 C841 1.396 . S
H843 C838 0.929 . S
O844 Mn820 2.385 . S
O844 C822 1.234 . S
O845 Mn820 2.209 . S
O845 Mn821 2.215 . S
O845 C822 1.283 . S
O846 Mn820 2.094 . S
O846 C824 1.240 . S
O847 Mn821 2.117 . S
O847 C824 1.264 . S
C848 C841 1.403 . S
C848 C849 1.399 . S
C848 H854 0.929 . S
C849 C829 1.449 . S
C849 C848 1.399 . S
C849 H855 0.930 . S
H850 C830 0.931 . S
H851 C831 0.930 . S
H852 C839 0.931 . S
H853 C840 0.929 . S
H854 C848 0.929 . S
H855 C849 0.930 . S
Mn856 O861 2.095 . S
Mn856 O871 2.162 . S
Mn856 O872 2.297 . S
Mn856 O880 2.385 . S
Mn856 O881 2.209 . S
Mn856 O882 2.094 . S
Mn857 O862 2.121 . S
Mn857 N864 2.257 . S
Mn857 N873 2.282 . S
Mn857 O881 2.215 . S
Mn857 O883 2.117 . S
C858 O880 1.234 . S
C858 O881 1.283 . S
C859 O871 1.281 . S
C859 O872 1.236 . S
C860 O882 1.240 . S
C860 O883 1.264 . S
O861 Mn856 2.095 . S
O861 C870 1.250 . S
O862 Mn857 2.121 . S
O862 C870 1.258 . S
C863 N864 1.326 . S
C863 C867 1.460 . S
C863 H869 0.929 . S
N864 Mn857 2.257 . S
N864 C863 1.326 . S
N864 C868 1.362 . S
C865 C866 1.258 . S
C865 C868 1.431 . S
C865 C885 1.449 . S
C866 C865 1.258 . S
C866 C867 1.477 . S
C866 H886 0.931 . S
C867 C863 1.460 . S
C867 C866 1.477 . S
C867 H887 0.930 . S
C868 N864 1.362 . S
C868 C865 1.431 . S
C868 C878 1.476 . S
H869 C863 0.929 . S
C870 O861 1.250 . S
C870 O862 1.258 . S
O871 Mn856 2.162 . S
O871 C859 1.281 . S
O872 Mn856 2.297 . S
O872 C859 1.236 . S
N873 Mn857 2.282 . S
N873 C874 1.328 . S
N873 C878 1.318 . S
C874 N873 1.328 . S
C874 C875 1.457 . S
C874 H879 0.929 . S
C875 C874 1.457 . S
C875 C876 1.291 . S
C875 H888 0.931 . S
C876 C875 1.291 . S
C876 C877 1.373 . S
C876 H889 0.929 . S
C877 C876 1.373 . S
C877 C878 1.396 . S
C877 C884 1.403 . S
C878 C868 1.476 . S
C878 N873 1.318 . S
C878 C877 1.396 . S
H879 C874 0.929 . S
O880 Mn856 2.385 . S
O880 C858 1.234 . S
O881 Mn856 2.209 . S
O881 Mn857 2.215 . S
O881 C858 1.283 . S
O882 Mn856 2.094 . S
O882 C860 1.240 . S
O883 Mn857 2.117 . S
O883 C860 1.264 . S
C884 C877 1.403 . S
C884 C885 1.399 . S
C884 H890 0.929 . S
C885 C865 1.449 . S
C885 C884 1.399 . S
C885 H891 0.930 . S
H886 C866 0.931 . S
H887 C867 0.930 . S
H888 C875 0.931 . S
H889 C876 0.929 . S
H890 C884 0.929 . S
H891 C885 0.930 . S
Mn892 O897 2.095 . S
Mn892 O907 2.162 . S
Mn892 O908 2.297 . S
Mn892 O916 2.385 1_565 S
Mn892 O917 2.209 1_565 S
Mn892 O918 2.094 . S
Mn893 O898 2.121 . S
Mn893 N900 2.257 . S
Mn893 N909 2.282 . S
Mn893 O917 2.215 . S
Mn893 O919 2.117 . S
C894 O916 1.234 . S
C894 O917 1.283 . S
C895 O907 1.281 . S
C895 O908 1.236 . S
C896 O918 1.220 1_545 S
C896 O919 1.290 . S
O897 Mn892 2.095 . S
O897 C906 1.250 1_565 S
O898 Mn893 2.121 . S
O898 C906 1.258 . S
C899 N900 1.326 . S
C899 C903 1.460 . S
C899 H905 0.929 . S
N900 Mn893 2.257 . S
N900 C899 1.326 . S
N900 C904 1.362 . S
C901 C902 1.258 . S
C901 C904 1.431 . S
C901 C921 1.449 . S
C902 C901 1.258 . S
C902 C903 1.477 . S
C902 H922 0.931 . S
C903 C899 1.460 . S
C903 C902 1.477 . S
C903 H923 0.930 . S
C904 N900 1.362 . S
C904 C901 1.431 . S
C904 C914 1.476 . S
H905 C899 0.929 . S
C906 O897 1.250 1_545 S
C906 O898 1.258 . S
O907 Mn892 2.162 . S
O907 C895 1.281 . S
O908 Mn892 2.297 . S
O908 C895 1.236 . S
N909 Mn893 2.282 . S
N909 C910 1.328 . S
N909 C914 1.318 . S
C910 N909 1.328 . S
C910 C911 1.457 . S
C910 H915 0.929 . S
C911 C910 1.457 . S
C911 C912 1.291 . S
C911 H924 0.931 . S
C912 C911 1.291 . S
C912 C913 1.373 . S
C912 H925 0.929 . S
C913 C912 1.373 . S
C913 C914 1.396 . S
C913 C920 1.403 . S
C914 C904 1.476 . S
C914 N909 1.318 . S
C914 C913 1.396 . S
H915 C910 0.929 . S
O916 Mn892 2.385 1_545 S
O916 C894 1.234 . S
O917 Mn892 2.209 1_545 S
O917 Mn893 2.215 . S
O917 C894 1.283 . S
O918 Mn892 2.094 . S
O918 C896 1.220 1_565 S
O919 Mn893 2.117 . S
O919 C896 1.290 . S
C920 C913 1.403 . S
C920 C921 1.399 . S
C920 H926 0.929 . S
C921 C901 1.449 . S
C921 C920 1.399 . S
C921 H927 0.930 . S
H922 C902 0.931 . S
H923 C903 0.930 . S
H924 C911 0.931 . S
H925 C912 0.929 . S
H926 C920 0.929 . S
H927 C921 0.930 . S
Mn928 O933 2.095 . S
Mn928 O943 2.162 . S
Mn928 O944 2.297 . S
Mn928 O952 2.385 . S
Mn928 O953 2.209 1_455 S
Mn928 O954 2.094 . S
Mn929 O934 2.121 . S
Mn929 N936 2.257 . S
Mn929 N945 2.282 . S
Mn929 O953 2.215 . S
Mn929 O955 2.117 . S
C930 O952 1.234 1_655 S
C930 O953 1.283 . S
C931 O943 1.281 . S
C931 O944 1.236 . S
C932 O954 1.240 . S
C932 O955 1.264 1_455 S
O933 Mn928 2.095 . S
O933 C942 1.250 . S
O934 Mn929 2.121 . S
O934 C942 1.258 1_655 S
C935 N936 1.326 . S
C935 C939 1.460 . S
C935 H941 0.929 . S
N936 Mn929 2.257 . S
N936 C935 1.326 . S
N936 C940 1.362 . S
C937 C938 1.258 . S
C937 C940 1.431 . S
C937 C957 1.449 . S
C938 C937 1.258 . S
C938 C939 1.477 . S
C938 H958 0.931 . S
C939 C935 1.460 . S
C939 C938 1.477 . S
C939 H959 0.930 . S
C940 N936 1.362 . S
C940 C937 1.431 . S
C940 C950 1.476 . S
H941 C935 0.929 . S
C942 O933 1.250 . S
C942 O934 1.258 1_455 S
O943 Mn928 2.162 . S
O943 C931 1.281 . S
O944 Mn928 2.297 . S
O944 C931 1.236 . S
N945 Mn929 2.282 . S
N945 C946 1.328 . S
N945 C950 1.318 . S
C946 N945 1.328 . S
C946 C947 1.457 . S
C946 H951 0.929 . S
C947 C946 1.457 . S
C947 C948 1.291 . S
C947 H960 0.931 . S
C948 C947 1.291 . S
C948 C949 1.373 . S
C948 H961 0.929 . S
C949 C948 1.373 . S
C949 C950 1.396 . S
C949 C956 1.403 . S
C950 C940 1.476 . S
C950 N945 1.318 . S
C950 C949 1.396 . S
H951 C946 0.929 . S
O952 Mn928 2.385 . S
O952 C930 1.234 1_455 S
O953 Mn928 2.209 1_655 S
O953 Mn929 2.215 . S
O953 C930 1.283 . S
O954 Mn928 2.094 . S
O954 C932 1.240 . S
O955 Mn929 2.117 . S
O955 C932 1.264 1_655 S
C956 C949 1.403 . S
C956 C957 1.399 . S
C956 H962 0.929 . S
C957 C937 1.449 . S
C957 C956 1.399 . S
C957 H963 0.930 . S
H958 C938 0.931 . S
H959 C939 0.930 . S
H960 C947 0.931 . S
H961 C948 0.929 . S
H962 C956 0.929 . S
H963 C957 0.930 . S
Mn964 O969 2.095 . S
Mn964 O979 2.162 . S
Mn964 O980 2.297 . S
Mn964 O988 2.385 . S
Mn964 O989 2.209 . S
Mn964 O990 2.094 . S
Mn965 O970 2.121 . S
Mn965 N972 2.257 . S
Mn965 N981 2.282 . S
Mn965 O989 2.215 . S
Mn965 O991 2.117 . S
C966 O988 1.234 . S
C966 O989 1.283 . S
C967 O979 1.281 . S
C967 O980 1.236 . S
C968 O990 1.240 . S
C968 O991 1.264 . S
O969 Mn964 2.095 . S
O969 C978 1.250 . S
O970 Mn965 2.121 . S
O970 C978 1.258 . S
C971 N972 1.326 . S
C971 C975 1.460 . S
C971 H977 0.929 . S
N972 Mn965 2.257 . S
N972 C971 1.326 . S
N972 C976 1.362 . S
C973 C974 1.258 . S
C973 C976 1.431 . S
C973 C993 1.449 . S
C974 C973 1.258 . S
C974 C975 1.477 . S
C974 H994 0.931 . S
C975 C971 1.460 . S
C975 C974 1.477 . S
C975 H995 0.930 . S
C976 N972 1.362 . S
C976 C973 1.431 . S
C976 C986 1.476 . S
H977 C971 0.929 . S
C978 O969 1.250 . S
C978 O970 1.258 . S
O979 Mn964 2.162 . S
O979 C967 1.281 . S
O980 Mn964 2.297 . S
O980 C967 1.236 . S
N981 Mn965 2.282 . S
N981 C982 1.328 . S
N981 C986 1.318 . S
C982 N981 1.328 . S
C982 C983 1.457 . S
C982 H987 0.929 . S
C983 C982 1.457 . S
C983 C984 1.291 . S
C983 H996 0.931 . S
C984 C983 1.291 . S
C984 C985 1.373 . S
C984 H997 0.929 . S
C985 C984 1.373 . S
C985 C986 1.396 . S
C985 C992 1.403 . S
C986 C976 1.476 . S
C986 N981 1.318 . S
C986 C985 1.396 . S
H987 C982 0.929 . S
O988 Mn964 2.385 . S
O988 C966 1.234 . S
O989 Mn964 2.209 . S
O989 Mn965 2.215 . S
O989 C966 1.283 . S
O990 Mn964 2.094 . S
O990 C968 1.240 . S
O991 Mn965 2.117 . S
O991 C968 1.264 . S
C992 C985 1.403 . S
C992 C993 1.399 . S
C992 H998 0.929 . S
C993 C973 1.449 . S
C993 C992 1.399 . S
C993 H999 0.930 . S
H994 C974 0.931 . S
H995 C975 0.930 . S
H996 C983 0.931 . S
H997 C984 0.929 . S
H998 C992 0.929 . S
H999 C993 0.930 . S
Mn1000 O1005 2.094 1_455 S
Mn1000 O1015 2.162 . S
Mn1000 O1016 2.310 . S
Mn1000 O1024 2.385 . S
Mn1000 O1025 2.212 . S
Mn1000 O1026 2.094 . S
Mn1001 O1006 2.121 . S
Mn1001 N1008 2.257 . S
Mn1001 N1017 2.282 1_655 S
Mn1001 O1025 2.214 1_655 S
Mn1001 O1027 2.117 1_655 S
C1002 O1024 1.234 . S
C1002 O1025 1.287 . S
C1003 O1015 1.281 . S
C1003 O1016 1.255 . S
C1004 O1026 1.240 . S
C1004 O1027 1.264 . S
O1005 Mn1000 2.094 1_655 S
O1005 C1014 1.251 . S
O1006 Mn1001 2.121 . S
O1006 C1014 1.258 . S
C1007 N1008 1.326 . S
C1007 C1011 1.460 . S
C1007 H1013 0.929 . S
N1008 Mn1001 2.257 . S
N1008 C1007 1.326 . S
N1008 C1012 1.362 . S
C1009 C1010 1.258 . S
C1009 C1012 1.431 . S
C1009 C1029 1.449 . S
C1010 C1009 1.258 . S
C1010 C1011 1.477 . S
C1010 H1030 0.931 . S
C1011 C1007 1.460 . S
C1011 C1010 1.477 . S
C1011 H1031 0.930 . S
C1012 N1008 1.362 . S
C1012 C1009 1.431 . S
C1012 C1022 1.476 . S
H1013 C1007 0.929 . S
C1014 O1005 1.251 . S
C1014 O1006 1.258 . S
O1015 Mn1000 2.162 . S
O1015 C1003 1.281 . S
O1016 Mn1000 2.310 . S
O1016 C1003 1.255 . S
N1017 Mn1001 2.282 1_455 S
N1017 C1018 1.328 . S
N1017 C1022 1.318 1_455 S
C1018 N1017 1.328 . S
C1018 C1019 1.457 . S
C1018 H1023 0.929 . S
C1019 C1018 1.457 . S
C1019 C1020 1.291 . S
C1019 H1032 0.931 . S
C1020 C1019 1.291 . S
C1020 C1021 1.421 . S
C1020 H1033 0.929 . S
C1021 C1020 1.421 . S
C1021 C1022 1.384 1_455 S
C1021 C1028 1.368 1_455 S
C1022 C1012 1.476 . S
C1022 N1017 1.318 1_655 S
C1022 C1021 1.384 1_655 S
H1023 C1018 0.929 . S
O1024 Mn1000 2.385 . S
O1024 C1002 1.234 . S
O1025 Mn1000 2.212 . S
O1025 Mn1001 2.214 1_455 S
O1025 C1002 1.287 . S
O1026 Mn1000 2.094 . S
O1026 C1004 1.240 . S
O1027 Mn1001 2.117 1_455 S
O1027 C1004 1.264 . S
C1028 C1021 1.368 1_655 S
C1028 C1029 1.399 . S
C1028 H1034 0.929 . S
C1029 C1009 1.449 . S
C1029 C1028 1.399 . S
C1029 H1035 0.930 . S
H1030 C1010 0.931 . S
H1031 C1011 0.930 . S
H1032 C1019 0.931 . S
H1033 C1020 0.929 . S
H1034 C1028 0.929 . S
H1035 C1029 0.930 . S
Mn1036 O1041 2.095 . S
Mn1036 O1051 2.162 . S
Mn1036 O1052 2.297 . S
Mn1036 O1060 2.385 . S
Mn1036 O1061 2.209 . S
Mn1036 O1062 2.094 . S
Mn1037 O1042 2.121 . S
Mn1037 N1044 2.257 . S
Mn1037 N1053 2.282 . S
Mn1037 O1061 2.215 . S
Mn1037 O1063 2.117 . S
C1038 O1060 1.234 . S
C1038 O1061 1.283 . S
C1039 O1051 1.281 . S
C1039 O1052 1.236 . S
C1040 O1062 1.240 . S
C1040 O1063 1.264 . S
O1041 Mn1036 2.095 . S
O1041 C1050 1.250 . S
O1042 Mn1037 2.121 . S
O1042 C1050 1.258 . S
C1043 N1044 1.326 . S
C1043 C1047 1.460 . S
C1043 H1049 0.929 . S
N1044 Mn1037 2.257 . S
N1044 C1043 1.326 . S
N1044 C1048 1.362 . S
C1045 C1046 1.258 . S
C1045 C1048 1.431 . S
C1045 C1065 1.449 . S
C1046 C1045 1.258 . S
C1046 C1047 1.477 . S
C1046 H1066 0.931 . S
C1047 C1043 1.460 . S
C1047 C1046 1.477 . S
C1047 H1067 0.930 . S
C1048 N1044 1.362 . S
C1048 C1045 1.431 . S
C1048 C1058 1.476 . S
H1049 C1043 0.929 . S
C1050 O1041 1.250 . S
C1050 O1042 1.258 . S
O1051 Mn1036 2.162 . S
O1051 C1039 1.281 . S
O1052 Mn1036 2.297 . S
O1052 C1039 1.236 . S
N1053 Mn1037 2.282 . S
N1053 C1054 1.328 . S
N1053 C1058 1.318 . S
C1054 N1053 1.328 . S
C1054 C1055 1.457 . S
C1054 H1059 0.929 . S
C1055 C1054 1.457 . S
C1055 C1056 1.291 . S
C1055 H1068 0.931 . S
C1056 C1055 1.291 . S
C1056 C1057 1.373 . S
C1056 H1069 0.929 . S
C1057 C1056 1.373 . S
C1057 C1058 1.396 . S
C1057 C1064 1.403 . S
C1058 C1048 1.476 . S
C1058 N1053 1.318 . S
C1058 C1057 1.396 . S
H1059 C1054 0.929 . S
O1060 Mn1036 2.385 . S
O1060 C1038 1.234 . S
O1061 Mn1036 2.209 . S
O1061 Mn1037 2.215 . S
O1061 C1038 1.283 . S
O1062 Mn1036 2.094 . S
O1062 C1040 1.240 . S
O1063 Mn1037 2.117 . S
O1063 C1040 1.264 . S
C1064 C1057 1.403 . S
C1064 C1065 1.399 . S
C1064 H1070 0.929 . S
C1065 C1045 1.449 . S
C1065 C1064 1.399 . S
C1065 H1071 0.930 . S
H1066 C1046 0.931 . S
H1067 C1047 0.930 . S
H1068 C1055 0.931 . S
H1069 C1056 0.929 . S
H1070 C1064 0.929 . S
H1071 C1065 0.930 . S
H1072 C1080 0.929 . S
H1073 C1082 0.930 . S
H1074 C1084 0.930 . S
H1075 C1087 0.929 . S
H1076 C1090 0.930 . S
H1077 C1092 0.960 . S
H1078 C1092 0.960 . S
H1079 C1092 0.960 . S
C1080 H1072 0.929 . S
C1080 C1081 1.377 . S
C1080 C1082 1.384 . S
C1081 C1080 1.377 . S
C1081 C1087 1.390 . S
C1082 H1073 0.930 . S
C1082 C1080 1.384 . S
C1082 C1083 1.372 . S
C1083 C1082 1.372 . S
C1083 C1084 1.400 . S
C1083 C1088 1.490 . S
C1084 H1074 0.930 . S
C1084 C1083 1.400 . S
C1084 C1087 1.386 . S
H1085 C1101 0.930 . S
H1086 C1102 0.931 . S
C1087 H1075 0.929 . S
C1087 C1081 1.390 . S
C1087 C1084 1.386 . S
C1088 C1083 1.490 . S
C1088 C1090 1.395 . S
C1088 C1091 1.403 . S
H1089 C1095 0.930 . S
C1090 H1076 0.930 . S
C1090 C1088 1.395 . S
C1090 C1093 1.403 . S
C1091 C1088 1.403 . S
C1091 C1092 1.524 . S
C1091 C1095 1.400 . S
C1092 H1077 0.960 . S
C1092 H1078 0.960 . S
C1092 H1079 0.960 . S
C1092 C1091 1.524 . S
C1093 C1090 1.403 . S
C1093 C1094 1.392 . S
C1093 C1097 1.495 . S
C1094 C1093 1.392 . S
C1094 C1095 1.385 . S
C1094 C1096 1.478 . S
C1095 H1089 0.930 . S
C1095 C1091 1.400 . S
C1095 C1094 1.385 . S
C1096 C1094 1.478 . S
C1096 C1098 1.381 . S
C1096 C1102 1.383 . S
C1097 C1093 1.495 . S
C1097 H1103 0.959 . S
C1097 H1104 0.961 . S
C1097 H1105 0.960 . S
C1098 C1096 1.381 . S
C1098 C1099 1.394 . S
C1098 H1106 0.930 . S
C1099 C1098 1.394 . S
C1099 C1100 1.383 . S
C1099 H1107 0.929 . S
C1100 C1099 1.383 . S
C1100 C1101 1.377 . S
C1101 H1085 0.930 . S
C1101 C1100 1.377 . S
C1101 C1102 1.379 . S
C1102 H1086 0.931 . S
C1102 C1096 1.383 . S
C1102 C1101 1.379 . S
H1103 C1097 0.959 . S
H1104 C1097 0.961 . S
H1105 C1097 0.960 . S
H1106 C1098 0.930 . S
H1107 C1099 0.929 . S
H1108 C1116 0.929 . S
H1109 C1118 0.930 . S
H1110 C1120 0.930 . S
H1111 C1123 0.929 . S
H1112 C1126 0.930 . S
H1113 C1128 0.960 . S
H1114 C1128 0.960 . S
H1115 C1128 0.960 . S
C1116 H1108 0.929 . S
C1116 C1117 1.377 . S
C1116 C1118 1.384 . S
C1117 C1116 1.377 . S
C1117 C1123 1.390 . S
C1118 H1109 0.930 . S
C1118 C1116 1.384 . S
C1118 C1119 1.372 . S
C1119 C1118 1.372 . S
C1119 C1120 1.400 . S
C1119 C1124 1.490 . S
C1120 H1110 0.930 . S
C1120 C1119 1.400 . S
C1120 C1123 1.386 . S
H1121 C1137 0.930 . S
H1122 C1138 0.931 . S
C1123 H1111 0.929 . S
C1123 C1117 1.390 . S
C1123 C1120 1.386 . S
C1124 C1119 1.490 . S
C1124 C1126 1.395 . S
C1124 C1127 1.403 . S
H1125 C1131 0.930 . S
C1126 H1112 0.930 . S
C1126 C1124 1.395 . S
C1126 C1129 1.403 . S
C1127 C1124 1.403 . S
C1127 C1128 1.524 . S
C1127 C1131 1.400 . S
C1128 H1113 0.960 . S
C1128 H1114 0.960 . S
C1128 H1115 0.960 . S
C1128 C1127 1.524 . S
C1129 C1126 1.403 . S
C1129 C1130 1.392 . S
C1129 C1133 1.495 . S
C1130 C1129 1.392 . S
C1130 C1131 1.385 . S
C1130 C1132 1.478 . S
C1131 H1125 0.930 . S
C1131 C1127 1.400 . S
C1131 C1130 1.385 . S
C1132 C1130 1.478 . S
C1132 C1134 1.381 . S
C1132 C1138 1.383 . S
C1133 C1129 1.495 . S
C1133 H1139 0.959 . S
C1133 H1140 0.961 . S
C1133 H1141 0.960 . S
C1134 C1132 1.381 . S
C1134 C1135 1.394 . S
C1134 H1142 0.930 . S
C1135 C1134 1.394 . S
C1135 C1136 1.383 . S
C1135 H1143 0.929 . S
C1136 C1135 1.383 . S
C1136 C1137 1.377 . S
C1137 H1121 0.930 . S
C1137 C1136 1.377 . S
C1137 C1138 1.379 . S
C1138 H1122 0.931 . S
C1138 C1132 1.383 . S
C1138 C1137 1.379 . S
H1139 C1133 0.959 . S
H1140 C1133 0.961 . S
H1141 C1133 0.960 . S
H1142 C1134 0.930 . S
H1143 C1135 0.929 . S
H1144 C1152 0.929 . S
H1145 C1154 0.930 . S
H1146 C1156 0.930 . S
H1147 C1159 0.929 . S
H1148 C1162 0.930 . S
H1149 C1164 0.960 . S
H1150 C1164 0.960 . S
H1151 C1164 0.960 . S
C1152 H1144 0.929 . S
C1152 C1153 1.377 . S
C1152 C1154 1.384 . S
C1153 C1152 1.377 . S
C1153 C1159 1.390 . S
C1154 H1145 0.930 . S
C1154 C1152 1.384 . S
C1154 C1155 1.372 . S
C1155 C1154 1.372 . S
C1155 C1156 1.400 . S
C1155 C1160 1.490 . S
C1156 H1146 0.930 . S
C1156 C1155 1.400 . S
C1156 C1159 1.386 . S
H1157 C1173 0.930 . S
H1158 C1174 0.931 . S
C1159 H1147 0.929 . S
C1159 C1153 1.390 . S
C1159 C1156 1.386 . S
C1160 C1155 1.490 . S
C1160 C1162 1.395 . S
C1160 C1163 1.403 . S
H1161 C1167 0.930 . S
C1162 H1148 0.930 . S
C1162 C1160 1.395 . S
C1162 C1165 1.403 . S
C1163 C1160 1.403 . S
C1163 C1164 1.524 . S
C1163 C1167 1.400 . S
C1164 H1149 0.960 . S
C1164 H1150 0.960 . S
C1164 H1151 0.960 . S
C1164 C1163 1.524 . S
C1165 C1162 1.403 . S
C1165 C1166 1.392 . S
C1165 C1169 1.495 . S
C1166 C1165 1.392 . S
C1166 C1167 1.385 . S
C1166 C1168 1.478 . S
C1167 H1161 0.930 . S
C1167 C1163 1.400 . S
C1167 C1166 1.385 . S
C1168 C1166 1.478 . S
C1168 C1170 1.381 . S
C1168 C1174 1.383 . S
C1169 C1165 1.495 . S
C1169 H1175 0.959 . S
C1169 H1176 0.961 . S
C1169 H1177 0.960 . S
C1170 C1168 1.381 . S
C1170 C1171 1.394 . S
C1170 H1178 0.930 . S
C1171 C1170 1.394 . S
C1171 C1172 1.383 . S
C1171 H1179 0.929 . S
C1172 C1171 1.383 . S
C1172 C1173 1.377 . S
C1173 H1157 0.930 . S
C1173 C1172 1.377 . S
C1173 C1174 1.379 . S
C1174 H1158 0.931 . S
C1174 C1168 1.383 . S
C1174 C1173 1.379 . S
H1175 C1169 0.959 . S
H1176 C1169 0.961 . S
H1177 C1169 0.960 . S
H1178 C1170 0.930 . S
H1179 C1171 0.929 . S
H1180 C1188 0.929 . S
H1181 C1190 0.930 1_545 S
H1182 C1192 0.930 . S
H1183 C1195 0.929 . S
H1184 C1198 0.930 . S
H1185 C1200 0.960 . S
H1186 C1200 0.960 . S
H1187 C1200 0.960 . S
C1188 H1180 0.929 . S
C1188 C1189 1.377 . S
C1188 C1190 1.384 . S
C1189 C1188 1.377 . S
C1189 C1195 1.390 . S
C1190 H1181 0.930 1_565 S
C1190 C1188 1.384 . S
C1190 C1191 1.372 . S
C1191 C1190 1.372 . S
C1191 C1192 1.400 . S
C1191 C1196 1.490 . S
C1192 H1182 0.930 . S
C1192 C1191 1.400 . S
C1192 C1195 1.386 . S
H1193 C1209 0.930 . S
H1194 C1210 0.931 . S
C1195 H1183 0.929 . S
C1195 C1189 1.390 . S
C1195 C1192 1.386 . S
C1196 C1191 1.490 . S
C1196 C1198 1.395 . S
C1196 C1199 1.403 1_565 S
H1197 C1203 0.930 . S
C1198 H1184 0.930 . S
C1198 C1196 1.395 . S
C1198 C1201 1.403 . S
C1199 C1196 1.403 1_545 S
C1199 C1200 1.524 . S
C1199 C1203 1.400 . S
C1200 H1185 0.960 . S
C1200 H1186 0.960 . S
C1200 H1187 0.960 . S
C1200 C1199 1.524 . S
C1201 C1198 1.403 . S
C1201 C1202 1.392 . S
C1201 C1205 1.495 . S
C1202 C1201 1.392 . S
C1202 C1203 1.385 1_565 S
C1202 C1204 1.478 . S
C1203 H1197 0.930 . S
C1203 C1199 1.400 . S
C1203 C1202 1.385 1_545 S
C1204 C1202 1.478 . S
C1204 C1206 1.381 1_565 S
C1204 C1210 1.383 . S
C1205 C1201 1.495 . S
C1205 H1211 0.959 . S
C1205 H1212 0.961 . S
C1205 H1213 0.960 . S
C1206 C1204 1.381 1_545 S
C1206 C1207 1.394 . S
C1206 H1214 0.930 . S
C1207 C1206 1.394 . S
C1207 C1208 1.383 . S
C1207 H1215 0.929 . S
C1208 C1207 1.383 . S
C1208 C1209 1.377 1_545 S
C1209 H1193 0.930 . S
C1209 C1208 1.377 1_565 S
C1209 C1210 1.379 . S
C1210 H1194 0.931 . S
C1210 C1204 1.383 . S
C1210 C1209 1.379 . S
H1211 C1205 0.959 . S
H1212 C1205 0.961 . S
H1213 C1205 0.960 . S
H1214 C1206 0.930 . S
H1215 C1207 0.929 . S
H1216 C1224 0.929 . S
H1217 C1226 0.930 . S
H1218 C1228 0.930 . S
H1219 C1231 0.929 . S
H1220 C1234 0.930 . S
H1221 C1236 0.960 . S
H1222 C1236 0.960 . S
H1223 C1236 0.960 . S
C1224 H1216 0.929 . S
C1224 C1225 1.377 . S
C1224 C1226 1.384 . S
C1225 C1224 1.377 . S
C1225 C1231 1.390 . S
C1226 H1217 0.930 . S
C1226 C1224 1.384 . S
C1226 C1227 1.372 . S
C1227 C1226 1.372 . S
C1227 C1228 1.400 . S
C1227 C1232 1.490 . S
C1228 H1218 0.930 . S
C1228 C1227 1.400 . S
C1228 C1231 1.386 . S
H1229 C1245 0.930 . S
H1230 C1246 0.931 . S
C1231 H1219 0.929 . S
C1231 C1225 1.390 . S
C1231 C1228 1.386 . S
C1232 C1227 1.490 . S
C1232 C1234 1.395 . S
C1232 C1235 1.403 . S
H1233 C1239 0.930 . S
C1234 H1220 0.930 . S
C1234 C1232 1.395 . S
C1234 C1237 1.403 . S
C1235 C1232 1.403 . S
C1235 C1236 1.524 . S
C1235 C1239 1.400 . S
C1236 H1221 0.960 . S
C1236 H1222 0.960 . S
C1236 H1223 0.960 . S
C1236 C1235 1.524 . S
C1237 C1234 1.403 . S
C1237 C1238 1.392 . S
C1237 C1241 1.495 . S
C1238 C1237 1.392 . S
C1238 C1239 1.385 . S
C1238 C1240 1.478 . S
C1239 H1233 0.930 . S
C1239 C1235 1.400 . S
C1239 C1238 1.385 . S
C1240 C1238 1.478 . S
C1240 C1242 1.381 . S
C1240 C1246 1.383 . S
C1241 C1237 1.495 . S
C1241 H1247 0.959 . S
C1241 H1248 0.961 . S
C1241 H1249 0.960 . S
C1242 C1240 1.381 . S
C1242 C1243 1.394 . S
C1242 H1250 0.930 . S
C1243 C1242 1.394 . S
C1243 C1244 1.383 . S
C1243 H1251 0.929 . S
C1244 C1243 1.383 . S
C1244 C1245 1.377 . S
C1245 H1229 0.930 . S
C1245 C1244 1.377 . S
C1245 C1246 1.379 . S
C1246 H1230 0.931 . S
C1246 C1240 1.383 . S
C1246 C1245 1.379 . S
H1247 C1241 0.959 . S
H1248 C1241 0.961 . S
H1249 C1241 0.960 . S
H1250 C1242 0.930 . S
H1251 C1243 0.929 . S
H1252 C1260 0.929 . S
H1253 C1262 0.930 . S
H1254 C1264 0.930 . S
H1255 C1267 0.929 . S
H1256 C1270 0.930 . S
H1257 C1272 0.960 . S
H1258 C1272 0.960 . S
H1259 C1272 0.960 . S
C1260 H1252 0.929 . S
C1260 C1261 1.377 . S
C1260 C1262 1.384 . S
C1261 C1260 1.377 . S
C1261 C1267 1.390 . S
C1262 H1253 0.930 . S
C1262 C1260 1.384 . S
C1262 C1263 1.372 . S
C1263 C1262 1.372 . S
C1263 C1264 1.400 . S
C1263 C1268 1.490 . S
C1264 H1254 0.930 . S
C1264 C1263 1.400 . S
C1264 C1267 1.386 . S
H1265 C1281 0.930 . S
H1266 C1282 0.931 . S
C1267 H1255 0.929 . S
C1267 C1261 1.390 . S
C1267 C1264 1.386 . S
C1268 C1263 1.490 . S
C1268 C1270 1.395 . S
C1268 C1271 1.403 . S
H1269 C1275 0.930 . S
C1270 H1256 0.930 . S
C1270 C1268 1.395 . S
C1270 C1273 1.403 . S
C1271 C1268 1.403 . S
C1271 C1272 1.524 . S
C1271 C1275 1.400 . S
C1272 H1257 0.960 . S
C1272 H1258 0.960 . S
C1272 H1259 0.960 . S
C1272 C1271 1.524 . S
C1273 C1270 1.403 . S
C1273 C1274 1.392 . S
C1273 C1277 1.495 . S
C1274 C1273 1.392 . S
C1274 C1275 1.385 . S
C1274 C1276 1.478 . S
C1275 H1269 0.930 . S
C1275 C1271 1.400 . S
C1275 C1274 1.385 . S
C1276 C1274 1.478 . S
C1276 C1278 1.381 . S
C1276 C1282 1.383 . S
C1277 C1273 1.495 . S
C1277 H1283 0.959 . S
C1277 H1284 0.961 . S
C1277 H1285 0.960 . S
C1278 C1276 1.381 . S
C1278 C1279 1.394 . S
C1278 H1286 0.930 . S
C1279 C1278 1.394 . S
C1279 C1280 1.383 . S
C1279 H1287 0.929 . S
C1280 C1279 1.383 . S
C1280 C1281 1.377 . S
C1281 H1265 0.930 . S
C1281 C1280 1.377 . S
C1281 C1282 1.379 . S
C1282 H1266 0.931 . S
C1282 C1276 1.383 . S
C1282 C1281 1.379 . S
H1283 C1277 0.959 . S
H1284 C1277 0.961 . S
H1285 C1277 0.960 . S
H1286 C1278 0.930 . S
H1287 C1279 0.929 . S
H1288 C1296 0.929 . S
H1289 C1298 0.930 . S
H1290 C1300 0.930 . S
H1291 C1303 0.929 . S
H1292 C1306 0.930 . S
H1293 C1308 0.960 . S
H1294 C1308 0.960 . S
H1295 C1308 0.960 . S
C1296 H1288 0.929 . S
C1296 C1297 1.377 . S
C1296 C1298 1.384 . S
C1297 C1296 1.377 . S
C1297 C1303 1.390 . S
C1298 H1289 0.930 . S
C1298 C1296 1.384 . S
C1298 C1299 1.372 . S
C1299 C1298 1.372 . S
C1299 C1300 1.400 . S
C1299 C1304 1.490 . S
C1300 H1290 0.930 . S
C1300 C1299 1.400 . S
C1300 C1303 1.386 . S
H1301 C1317 0.930 . S
H1302 C1318 0.931 . S
C1303 H1291 0.929 . S
C1303 C1297 1.390 . S
C1303 C1300 1.386 . S
C1304 C1299 1.490 . S
C1304 C1306 1.395 . S
C1304 C1307 1.403 . S
H1305 C1311 0.930 . S
C1306 H1292 0.930 . S
C1306 C1304 1.395 . S
C1306 C1309 1.403 . S
C1307 C1304 1.403 . S
C1307 C1308 1.524 . S
C1307 C1311 1.400 . S
C1308 H1293 0.960 . S
C1308 H1294 0.960 . S
C1308 H1295 0.960 . S
C1308 C1307 1.524 . S
C1309 C1306 1.403 . S
C1309 C1310 1.392 . S
C1309 C1313 1.495 . S
C1310 C1309 1.392 . S
C1310 C1311 1.385 . S
C1310 C1312 1.478 . S
C1311 H1305 0.930 . S
C1311 C1307 1.400 . S
C1311 C1310 1.385 . S
C1312 C1310 1.478 . S
C1312 C1314 1.381 . S
C1312 C1318 1.383 . S
C1313 C1309 1.495 . S
C1313 H1319 0.959 . S
C1313 H1320 0.961 . S
C1313 H1321 0.960 . S
C1314 C1312 1.381 . S
C1314 C1315 1.394 . S
C1314 H1322 0.930 . S
C1315 C1314 1.394 . S
C1315 C1316 1.383 . S
C1315 H1323 0.929 . S
C1316 C1315 1.383 . S
C1316 C1317 1.377 . S
C1317 H1301 0.930 . S
C1317 C1316 1.377 . S
C1317 C1318 1.379 . S
C1318 H1302 0.931 . S
C1318 C1312 1.383 . S
C1318 C1317 1.379 . S
H1319 C1313 0.959 . S
H1320 C1313 0.961 . S
H1321 C1313 0.960 . S
H1322 C1314 0.930 . S
H1323 C1315 0.929 . S
H1324 C1332 0.929 . S
H1325 C1334 0.930 . S
H1326 C1336 0.930 1_545 S
H1327 C1339 0.932 . S
H1328 C1342 0.930 . S
H1329 C1344 0.960 . S
H1330 C1344 0.960 . S
H1331 C1344 0.960 . S
C1332 H1324 0.929 . S
C1332 C1333 1.377 . S
C1332 C1334 1.384 . S
C1333 C1332 1.377 . S
C1333 C1339 1.390 . S
C1334 H1325 0.930 . S
C1334 C1332 1.384 . S
C1334 C1335 1.372 . S
C1335 C1334 1.372 . S
C1335 C1336 1.400 . S
C1335 C1340 1.490 . S
C1336 H1326 0.930 1_565 S
C1336 C1335 1.400 . S
C1336 C1339 1.386 . S
H1337 C1353 0.930 . S
H1338 C1354 0.931 . S
C1339 H1327 0.932 . S
C1339 C1333 1.390 . S
C1339 C1336 1.386 . S
C1340 C1335 1.490 . S
C1340 C1342 1.395 . S
C1340 C1343 1.381 1_565 S
H1341 C1347 0.985 . S
C1342 H1328 0.930 . S
C1342 C1340 1.395 . S
C1342 C1345 1.403 . S
C1343 C1340 1.381 1_545 S
C1343 C1344 1.545 . S
C1343 C1347 1.401 . S
C1344 H1329 0.960 . S
C1344 H1330 0.960 . S
C1344 H1331 0.960 . S
C1344 C1343 1.545 . S
C1345 C1342 1.403 . S
C1345 C1346 1.392 . S
C1345 C1349 1.495 . S
C1346 C1345 1.392 . S
C1346 C1347 1.334 1_565 S
C1346 C1348 1.478 . S
C1347 H1341 0.985 . S
C1347 C1343 1.401 . S
C1347 C1346 1.334 1_545 S
C1348 C1346 1.478 . S
C1348 C1350 1.381 . S
C1348 C1354 1.383 1_565 S
C1349 C1345 1.495 . S
C1349 H1355 0.959 . S
C1349 H1356 0.961 . S
C1349 H1357 0.960 . S
C1350 C1348 1.381 . S
C1350 C1351 1.394 . S
C1350 H1358 0.930 . S
C1351 C1350 1.394 . S
C1351 C1352 1.383 . S
C1351 H1359 0.929 . S
C1352 C1351 1.383 . S
C1352 C1353 1.377 1_565 S
C1353 H1337 0.930 . S
C1353 C1352 1.377 1_545 S
C1353 C1354 1.379 . S
C1354 H1338 0.931 . S
C1354 C1348 1.383 1_545 S
C1354 C1353 1.379 . S
H1355 C1349 0.959 . S
H1356 C1349 0.961 . S
H1357 C1349 0.960 . S
H1358 C1350 0.930 . S
H1359 C1351 0.929 . S
H1360 C1368 0.929 . S
H1361 C1370 0.930 . S
H1362 C1372 0.930 . S
H1363 C1375 0.929 . S
H1364 C1378 0.930 . S
H1365 C1380 0.960 . S
H1366 C1380 0.960 . S
H1367 C1380 0.960 . S
C1368 H1360 0.929 . S
C1368 C1369 1.377 . S
C1368 C1370 1.384 . S
C1369 C1368 1.377 . S
C1369 C1375 1.390 . S
C1370 H1361 0.930 . S
C1370 C1368 1.384 . S
C1370 C1371 1.372 . S
C1371 C1370 1.372 . S
C1371 C1372 1.400 . S
C1371 C1376 1.490 . S
C1372 H1362 0.930 . S
C1372 C1371 1.400 . S
C1372 C1375 1.386 . S
H1373 C1389 0.930 . S
H1374 C1390 0.931 . S
C1375 H1363 0.929 . S
C1375 C1369 1.390 . S
C1375 C1372 1.386 . S
C1376 C1371 1.490 . S
C1376 C1378 1.395 . S
C1376 C1379 1.403 . S
H1377 C1383 0.930 . S
C1378 H1364 0.930 . S
C1378 C1376 1.395 . S
C1378 C1381 1.403 . S
C1379 C1376 1.403 . S
C1379 C1380 1.524 . S
C1379 C1383 1.400 . S
C1380 H1365 0.960 . S
C1380 H1366 0.960 . S
C1380 H1367 0.960 . S
C1380 C1379 1.524 . S
C1381 C1378 1.403 . S
C1381 C1382 1.392 . S
C1381 C1385 1.495 . S
C1382 C1381 1.392 . S
C1382 C1383 1.385 . S
C1382 C1384 1.478 . S
C1383 H1377 0.930 . S
C1383 C1379 1.400 . S
C1383 C1382 1.385 . S
C1384 C1382 1.478 . S
C1384 C1386 1.381 . S
C1384 C1390 1.383 . S
C1385 C1381 1.495 . S
C1385 H1391 0.959 . S
C1385 H1392 0.961 . S
C1385 H1393 0.960 . S
C1386 C1384 1.381 . S
C1386 C1387 1.394 . S
C1386 H1394 0.930 . S
C1387 C1386 1.394 . S
C1387 C1388 1.383 . S
C1387 H1395 0.929 . S
C1388 C1387 1.383 . S
C1388 C1389 1.377 . S
C1389 H1373 0.930 . S
C1389 C1388 1.377 . S
C1389 C1390 1.379 . S
C1390 H1374 0.931 . S
C1390 C1384 1.383 . S
C1390 C1389 1.379 . S
H1391 C1385 0.959 . S
H1392 C1385 0.961 . S
H1393 C1385 0.960 . S
H1394 C1386 0.930 . S
H1395 C1387 0.929 . S
H1396 C1404 0.929 . S
H1397 C1406 0.930 . S
H1398 C1408 0.930 . S
H1399 C1411 0.929 . S
H1400 C1414 0.930 . S
H1401 C1416 0.960 . S
H1402 C1416 0.960 . S
H1403 C1416 0.960 . S
C1404 H1396 0.929 . S
C1404 C1405 1.377 . S
C1404 C1406 1.384 . S
C1405 C1404 1.377 . S
C1405 C1411 1.390 . S
C1406 H1397 0.930 . S
C1406 C1404 1.384 . S
C1406 C1407 1.372 . S
C1407 C1406 1.372 . S
C1407 C1408 1.400 . S
C1407 C1412 1.490 . S
C1408 H1398 0.930 . S
C1408 C1407 1.400 . S
C1408 C1411 1.386 . S
H1409 C1425 0.930 . S
H1410 C1426 0.931 . S
C1411 H1399 0.929 . S
C1411 C1405 1.390 . S
C1411 C1408 1.386 . S
C1412 C1407 1.490 . S
C1412 C1414 1.395 . S
C1412 C1415 1.403 . S
H1413 C1419 0.930 . S
C1414 H1400 0.930 . S
C1414 C1412 1.395 . S
C1414 C1417 1.403 . S
C1415 C1412 1.403 . S
C1415 C1416 1.524 . S
C1415 C1419 1.400 . S
C1416 H1401 0.960 . S
C1416 H1402 0.960 . S
C1416 H1403 0.960 . S
C1416 C1415 1.524 . S
C1417 C1414 1.403 . S
C1417 C1418 1.392 . S
C1417 C1421 1.495 . S
C1418 C1417 1.392 . S
C1418 C1419 1.385 . S
C1418 C1420 1.478 . S
C1419 H1413 0.930 . S
C1419 C1415 1.400 . S
C1419 C1418 1.385 . S
C1420 C1418 1.478 . S
C1420 C1422 1.381 . S
C1420 C1426 1.383 . S
C1421 C1417 1.495 . S
C1421 H1427 0.959 . S
C1421 H1428 0.961 . S
C1421 H1429 0.960 . S
C1422 C1420 1.381 . S
C1422 C1423 1.394 . S
C1422 H1430 0.930 . S
C1423 C1422 1.394 . S
C1423 C1424 1.383 . S
C1423 H1431 0.929 . S
C1424 C1423 1.383 . S
C1424 C1425 1.377 . S
C1425 H1409 0.930 . S
C1425 C1424 1.377 . S
C1425 C1426 1.379 . S
C1426 H1410 0.931 . S
C1426 C1420 1.383 . S
C1426 C1425 1.379 . S
H1427 C1421 0.959 . S
H1428 C1421 0.961 . S
H1429 C1421 0.960 . S
H1430 C1422 0.930 . S
H1431 C1423 0.929 . S
H1432 C1440 0.929 . S
H1433 C1442 0.930 . S
H1434 C1444 0.930 . S
H1435 C1447 0.929 . S
H1436 C1450 0.930 . S
H1437 C1452 0.960 . S
H1438 C1452 0.960 . S
H1439 C1452 0.960 . S
C1440 H1432 0.929 . S
C1440 C1441 1.377 . S
C1440 C1442 1.384 . S
C1441 C1440 1.377 . S
C1441 C1447 1.390 . S
C1442 H1433 0.930 . S
C1442 C1440 1.384 . S
C1442 C1443 1.372 . S
C1443 C1442 1.372 . S
C1443 C1444 1.400 . S
C1443 C1448 1.490 . S
C1444 H1434 0.930 . S
C1444 C1443 1.400 . S
C1444 C1447 1.386 . S
H1445 C1461 0.930 . S
H1446 C1462 0.931 . S
C1447 H1435 0.929 . S
C1447 C1441 1.390 . S
C1447 C1444 1.386 . S
C1448 C1443 1.490 . S
C1448 C1450 1.395 . S
C1448 C1451 1.403 . S
H1449 C1455 0.930 . S
C1450 H1436 0.930 . S
C1450 C1448 1.395 . S
C1450 C1453 1.403 . S
C1451 C1448 1.403 . S
C1451 C1452 1.524 . S
C1451 C1455 1.400 . S
C1452 H1437 0.960 . S
C1452 H1438 0.960 . S
C1452 H1439 0.960 . S
C1452 C1451 1.524 . S
C1453 C1450 1.403 . S
C1453 C1454 1.392 . S
C1453 C1457 1.495 . S
C1454 C1453 1.392 . S
C1454 C1455 1.385 . S
C1454 C1456 1.478 . S
C1455 H1449 0.930 . S
C1455 C1451 1.400 . S
C1455 C1454 1.385 . S
C1456 C1454 1.478 . S
C1456 C1458 1.381 . S
C1456 C1462 1.383 . S
C1457 C1453 1.495 . S
C1457 H1463 0.959 . S
C1457 H1464 0.961 . S
C1457 H1465 0.960 . S
C1458 C1456 1.381 . S
C1458 C1459 1.394 . S
C1458 H1466 0.930 . S
C1459 C1458 1.394 . S
C1459 C1460 1.383 . S
C1459 H1467 0.929 . S
C1460 C1459 1.383 . S
C1460 C1461 1.377 . S
C1461 H1445 0.930 . S
C1461 C1460 1.377 . S
C1461 C1462 1.379 . S
C1462 H1446 0.931 . S
C1462 C1456 1.383 . S
C1462 C1461 1.379 . S
H1463 C1457 0.959 . S
H1464 C1457 0.961 . S
H1465 C1457 0.960 . S
H1466 C1458 0.930 . S
H1467 C1459 0.929 . S
H1468 C1476 0.929 . S
H1469 C1478 0.930 . S
H1470 C1480 0.930 . S
H1471 C1483 0.929 . S
H1472 C1486 0.930 . S
H1473 C1488 0.960 . S
H1474 C1488 0.960 . S
H1475 C1488 0.960 . S
C1476 H1468 0.929 . S
C1476 C1477 1.377 . S
C1476 C1478 1.384 . S
C1477 C1476 1.377 . S
C1477 C1483 1.390 . S
C1478 H1469 0.930 . S
C1478 C1476 1.384 . S
C1478 C1479 1.372 . S
C1479 C1478 1.372 . S
C1479 C1480 1.400 . S
C1479 C1484 1.490 . S
C1480 H1470 0.930 . S
C1480 C1479 1.400 . S
C1480 C1483 1.386 . S
H1481 C1497 0.930 . S
H1482 C1498 0.931 . S
C1483 H1471 0.929 . S
C1483 C1477 1.390 . S
C1483 C1480 1.386 . S
C1484 C1479 1.490 . S
C1484 C1486 1.395 . S
C1484 C1487 1.403 . S
H1485 C1491 0.930 . S
C1486 H1472 0.930 . S
C1486 C1484 1.395 . S
C1486 C1489 1.403 . S
C1487 C1484 1.403 . S
C1487 C1488 1.524 . S
C1487 C1491 1.400 . S
C1488 H1473 0.960 . S
C1488 H1474 0.960 . S
C1488 H1475 0.960 . S
C1488 C1487 1.524 . S
C1489 C1486 1.403 . S
C1489 C1490 1.392 . S
C1489 C1493 1.495 . S
C1490 C1489 1.392 . S
C1490 C1491 1.385 . S
C1490 C1492 1.478 . S
C1491 H1485 0.930 . S
C1491 C1487 1.400 . S
C1491 C1490 1.385 . S
C1492 C1490 1.478 . S
C1492 C1494 1.381 . S
C1492 C1498 1.383 . S
C1493 C1489 1.495 . S
C1493 H1499 0.959 . S
C1493 H1500 0.961 . S
C1493 H1501 0.960 . S
C1494 C1492 1.381 . S
C1494 C1495 1.394 . S
C1494 H1502 0.930 . S
C1495 C1494 1.394 . S
C1495 C1496 1.383 . S
C1495 H1503 0.929 . S
C1496 C1495 1.383 . S
C1496 C1497 1.377 . S
C1497 H1481 0.930 . S
C1497 C1496 1.377 . S
C1497 C1498 1.379 . S
C1498 H1482 0.931 . S
C1498 C1492 1.383 . S
C1498 C1497 1.379 . S
H1499 C1493 0.959 . S
H1500 C1493 0.961 . S
H1501 C1493 0.960 . S
H1502 C1494 0.930 . S
H1503 C1495 0.929 . S
H1504 C1512 0.929 . S
H1505 C1514 0.930 . S
H1506 C1516 0.930 . S
H1507 C1519 0.929 . S
H1508 C1522 0.930 . S
H1509 C1524 0.960 . S
H1510 C1524 0.960 . S
H1511 C1524 0.960 . S
C1512 H1504 0.929 . S
C1512 C1513 1.377 . S
C1512 C1514 1.384 . S
C1513 C1512 1.377 . S
C1513 C1519 1.390 . S
C1514 H1505 0.930 . S
C1514 C1512 1.384 . S
C1514 C1515 1.372 . S
C1515 C1514 1.372 . S
C1515 C1516 1.400 . S
C1515 C1520 1.490 . S
C1516 H1506 0.930 . S
C1516 C1515 1.400 . S
C1516 C1519 1.386 . S
H1517 C1533 0.930 . S
H1518 C1534 0.931 . S
C1519 H1507 0.929 . S
C1519 C1513 1.390 . S
C1519 C1516 1.386 . S
C1520 C1515 1.490 . S
C1520 C1522 1.395 . S
C1520 C1523 1.403 . S
H1521 C1527 0.930 . S
C1522 H1508 0.930 . S
C1522 C1520 1.395 . S
C1522 C1525 1.403 . S
C1523 C1520 1.403 . S
C1523 C1524 1.524 . S
C1523 C1527 1.400 . S
C1524 H1509 0.960 . S
C1524 H1510 0.960 . S
C1524 H1511 0.960 . S
C1524 C1523 1.524 . S
C1525 C1522 1.403 . S
C1525 C1526 1.392 . S
C1525 C1529 1.495 . S
C1526 C1525 1.392 . S
C1526 C1527 1.385 . S
C1526 C1528 1.478 . S
C1527 H1521 0.930 . S
C1527 C1523 1.400 . S
C1527 C1526 1.385 . S
C1528 C1526 1.478 . S
C1528 C1530 1.381 . S
C1528 C1534 1.383 . S
C1529 C1525 1.495 . S
C1529 H1535 0.959 . S
C1529 H1536 0.961 . S
C1529 H1537 0.960 . S
C1530 C1528 1.381 . S
C1530 C1531 1.394 . S
C1530 H1538 0.930 . S
C1531 C1530 1.394 . S
C1531 C1532 1.383 . S
C1531 H1539 0.929 . S
C1532 C1531 1.383 . S
C1532 C1533 1.377 . S
C1533 H1517 0.930 . S
C1533 C1532 1.377 . S
C1533 C1534 1.379 . S
C1534 H1518 0.931 . S
C1534 C1528 1.383 . S
C1534 C1533 1.379 . S
H1535 C1529 0.959 . S
H1536 C1529 0.961 . S
H1537 C1529 0.960 . S
H1538 C1530 0.930 . S
H1539 C1531 0.929 . S
H1540 C1548 0.929 . S
H1541 C1550 0.930 . S
H1542 C1552 0.930 . S
H1543 C1555 0.929 . S
H1544 C1558 0.930 . S
H1545 C1560 0.941 1_655 S
H1546 C1560 0.939 1_655 S
H1547 C1560 0.978 . S
C1548 H1540 0.929 . S
C1548 C1549 1.377 . S
C1548 C1550 1.384 . S
C1549 C1548 1.377 . S
C1549 C1555 1.390 . S
C1550 H1541 0.930 . S
C1550 C1548 1.384 . S
C1550 C1551 1.372 . S
C1551 C1550 1.372 . S
C1551 C1552 1.400 . S
C1551 C1556 1.490 . S
C1552 H1542 0.930 . S
C1552 C1551 1.400 . S
C1552 C1555 1.386 . S
H1553 C1569 0.930 . S
H1554 C1570 0.931 . S
C1555 H1543 0.929 . S
C1555 C1549 1.390 . S
C1555 C1552 1.386 . S
C1556 C1551 1.490 . S
C1556 C1558 1.395 . S
C1556 C1559 1.403 . S
H1557 C1563 0.930 . S
C1558 H1544 0.930 . S
C1558 C1556 1.395 . S
C1558 C1561 1.403 . S
C1559 C1556 1.403 . S
C1559 C1560 1.548 . S
C1559 C1563 1.400 . S
C1560 H1545 0.941 1_455 S
C1560 H1546 0.939 1_455 S
C1560 H1547 0.978 . S
C1560 C1559 1.548 . S
C1561 C1558 1.403 . S
C1561 C1562 1.392 . S
C1561 C1565 1.495 . S
C1562 C1561 1.392 . S
C1562 C1563 1.385 . S
C1562 C1564 1.478 . S
C1563 H1557 0.930 . S
C1563 C1559 1.400 . S
C1563 C1562 1.385 . S
C1564 C1562 1.478 . S
C1564 C1566 1.381 . S
C1564 C1570 1.383 . S
C1565 C1561 1.495 . S
C1565 H1571 0.959 . S
C1565 H1572 0.961 . S
C1565 H1573 0.960 . S
C1566 C1564 1.381 . S
C1566 C1567 1.394 . S
C1566 H1574 0.930 . S
C1567 C1566 1.394 . S
C1567 C1568 1.383 . S
C1567 H1575 0.929 . S
C1568 C1567 1.383 . S
C1568 C1569 1.377 . S
C1569 H1553 0.930 . S
C1569 C1568 1.377 . S
C1569 C1570 1.379 . S
C1570 H1554 0.931 . S
C1570 C1564 1.383 . S
C1570 C1569 1.379 . S
H1571 C1565 0.959 . S
H1572 C1565 0.961 . S
H1573 C1565 0.960 . S
H1574 C1566 0.930 . S
H1575 C1567 0.929 . S
H1576 C1584 0.929 . S
H1577 C1586 0.930 . S
H1578 C1588 0.930 . S
H1579 C1591 0.929 . S
H1580 C1594 0.930 . S
H1581 C1596 0.960 . S
H1582 C1596 0.960 . S
H1583 C1596 0.960 . S
C1584 H1576 0.929 . S
C1584 C1585 1.377 . S
C1584 C1586 1.384 . S
C1585 C1584 1.377 . S
C1585 C1591 1.390 . S
C1586 H1577 0.930 . S
C1586 C1584 1.384 . S
C1586 C1587 1.372 . S
C1587 C1586 1.372 . S
C1587 C1588 1.400 . S
C1587 C1592 1.490 . S
C1588 H1578 0.930 . S
C1588 C1587 1.400 . S
C1588 C1591 1.386 . S
H1589 C1605 0.930 . S
H1590 C1606 0.931 . S
C1591 H1579 0.929 . S
C1591 C1585 1.390 . S
C1591 C1588 1.386 . S
C1592 C1587 1.490 . S
C1592 C1594 1.395 . S
C1592 C1595 1.403 . S
H1593 C1599 0.930 . S
C1594 H1580 0.930 . S
C1594 C1592 1.395 . S
C1594 C1597 1.403 . S
C1595 C1592 1.403 . S
C1595 C1596 1.524 . S
C1595 C1599 1.400 . S
C1596 H1581 0.960 . S
C1596 H1582 0.960 . S
C1596 H1583 0.960 . S
C1596 C1595 1.524 . S
C1597 C1594 1.403 . S
C1597 C1598 1.392 . S
C1597 C1601 1.495 . S
C1598 C1597 1.392 . S
C1598 C1599 1.385 . S
C1598 C1600 1.478 . S
C1599 H1593 0.930 . S
C1599 C1595 1.400 . S
C1599 C1598 1.385 . S
C1600 C1598 1.478 . S
C1600 C1602 1.381 . S
C1600 C1606 1.383 . S
C1601 C1597 1.495 . S
C1601 H1607 0.959 . S
C1601 H1608 0.961 . S
C1601 H1609 0.960 . S
C1602 C1600 1.381 . S
C1602 C1603 1.394 . S
C1602 H1610 0.930 . S
C1603 C1602 1.394 . S
C1603 C1604 1.383 . S
C1603 H1611 0.929 . S
C1604 C1603 1.383 . S
C1604 C1605 1.377 . S
C1605 H1589 0.930 . S
C1605 C1604 1.377 . S
C1605 C1606 1.379 . S
C1606 H1590 0.931 . S
C1606 C1600 1.383 . S
C1606 C1605 1.379 . S
H1607 C1601 0.959 . S
H1608 C1601 0.961 . S
H1609 C1601 0.960 . S
H1610 C1602 0.930 . S
H1611 C1603 0.929 . S
H1612 C1620 0.929 . S
H1613 C1622 0.930 . S
H1614 C1624 0.930 . S
H1615 C1627 0.929 . S
H1616 C1630 0.930 . S
H1617 C1632 0.960 . S
H1618 C1632 0.960 . S
H1619 C1632 0.960 . S
C1620 H1612 0.929 . S
C1620 C1621 1.377 1_455 S
C1620 C1622 1.384 . S
C1621 C1620 1.377 1_655 S
C1621 C1627 1.390 . S
C1622 H1613 0.930 . S
C1622 C1620 1.384 . S
C1622 C1623 1.372 1_455 S
C1623 C1622 1.372 1_655 S
C1623 C1624 1.400 . S
C1623 C1628 1.490 . S
C1624 H1614 0.930 . S
C1624 C1623 1.400 . S
C1624 C1627 1.386 . S
H1625 C1641 0.930 . S
H1626 C1642 0.931 . S
C1627 H1615 0.929 . S
C1627 C1621 1.390 . S
C1627 C1624 1.386 . S
C1628 C1623 1.490 . S
C1628 C1630 1.395 1_655 S
C1628 C1631 1.403 . S
H1629 C1635 0.930 . S
C1630 H1616 0.930 . S
C1630 C1628 1.395 1_455 S
C1630 C1633 1.403 . S
C1631 C1628 1.403 . S
C1631 C1632 1.524 . S
C1631 C1635 1.400 . S
C1632 H1617 0.960 . S
C1632 H1618 0.960 . S
C1632 H1619 0.960 . S
C1632 C1631 1.524 . S
C1633 C1630 1.403 . S
C1633 C1634 1.392 . S
C1633 C1637 1.495 . S
C1634 C1633 1.392 . S
C1634 C1635 1.385 1_455 S
C1634 C1636 1.478 . S
C1635 H1629 0.930 . S
C1635 C1631 1.400 . S
C1635 C1634 1.385 1_655 S
C1636 C1634 1.478 . S
C1636 C1638 1.381 . S
C1636 C1642 1.383 1_455 S
C1637 C1633 1.495 . S
C1637 H1643 0.959 . S
C1637 H1644 0.961 . S
C1637 H1645 0.960 . S
C1638 C1636 1.381 . S
C1638 C1639 1.394 . S
C1638 H1646 0.930 . S
C1639 C1638 1.394 . S
C1639 C1640 1.383 . S
C1639 H1647 0.929 . S
C1640 C1639 1.383 . S
C1640 C1641 1.377 1_455 S
C1641 H1625 0.930 . S
C1641 C1640 1.377 1_655 S
C1641 C1642 1.379 . S
C1642 H1626 0.931 . S
C1642 C1636 1.383 1_655 S
C1642 C1641 1.379 . S
H1643 C1637 0.959 . S
H1644 C1637 0.961 . S
H1645 C1637 0.960 . S
H1646 C1638 0.930 . S
H1647 C1639 0.929 . S
H1648 C1656 0.929 . S
H1649 C1658 0.930 . S
H1650 C1660 0.930 . S
H1651 C1663 0.929 . S
H1652 C1666 0.930 . S
H1653 C1668 0.960 . S
H1654 C1668 0.960 . S
H1655 C1668 0.960 . S
C1656 H1648 0.929 . S
C1656 C1657 1.377 . S
C1656 C1658 1.384 . S
C1657 C1656 1.377 . S
C1657 C1663 1.390 . S
C1658 H1649 0.930 . S
C1658 C1656 1.384 . S
C1658 C1659 1.372 . S
C1659 C1658 1.372 . S
C1659 C1660 1.400 . S
C1659 C1664 1.490 . S
C1660 H1650 0.930 . S
C1660 C1659 1.400 . S
C1660 C1663 1.386 . S
H1661 C1677 0.930 . S
H1662 C1678 0.931 . S
C1663 H1651 0.929 . S
C1663 C1657 1.390 . S
C1663 C1660 1.386 . S
C1664 C1659 1.490 . S
C1664 C1666 1.395 . S
C1664 C1667 1.403 . S
H1665 C1671 0.930 . S
C1666 H1652 0.930 . S
C1666 C1664 1.395 . S
C1666 C1669 1.403 . S
C1667 C1664 1.403 . S
C1667 C1668 1.524 . S
C1667 C1671 1.400 . S
C1668 H1653 0.960 . S
C1668 H1654 0.960 . S
C1668 H1655 0.960 . S
C1668 C1667 1.524 . S
C1669 C1666 1.403 . S
C1669 C1670 1.392 . S
C1669 C1673 1.495 . S
C1670 C1669 1.392 . S
C1670 C1671 1.385 . S
C1670 C1672 1.478 . S
C1671 H1665 0.930 . S
C1671 C1667 1.400 . S
C1671 C1670 1.385 . S
C1672 C1670 1.478 . S
C1672 C1674 1.381 . S
C1672 C1678 1.383 . S
C1673 C1669 1.495 . S
C1673 H1679 0.959 . S
C1673 H1680 0.961 . S
C1673 H1681 0.960 . S
C1674 C1672 1.381 . S
C1674 C1675 1.394 . S
C1674 H1682 0.930 . S
C1675 C1674 1.394 . S
C1675 C1676 1.383 . S
C1675 H1683 0.929 . S
C1676 C1675 1.383 . S
C1676 C1677 1.377 . S
C1677 H1661 0.930 . S
C1677 C1676 1.377 . S
C1677 C1678 1.379 . S
C1678 H1662 0.931 . S
C1678 C1672 1.383 . S
C1678 C1677 1.379 . S
H1679 C1673 0.959 . S
H1680 C1673 0.961 . S
H1681 C1673 0.960 . S
H1682 C1674 0.930 . S
H1683 C1675 0.929 . S
H1684 C1692 0.929 . S
H1685 C1694 0.930 . S
H1686 C1696 0.930 . S
H1687 C1699 0.929 . S
H1688 C1702 0.930 . S
H1689 C1704 0.960 . S
H1690 C1704 0.960 . S
H1691 C1704 0.960 . S
C1692 H1684 0.929 . S
C1692 C1693 1.377 . S
C1692 C1694 1.384 . S
C1693 C1692 1.377 . S
C1693 C1699 1.390 . S
C1694 H1685 0.930 . S
C1694 C1692 1.384 . S
C1694 C1695 1.372 . S
C1695 C1694 1.372 . S
C1695 C1696 1.400 . S
C1695 C1700 1.490 . S
C1696 H1686 0.930 . S
C1696 C1695 1.400 . S
C1696 C1699 1.386 . S
H1697 C1713 0.930 . S
H1698 C1714 0.931 . S
C1699 H1687 0.929 . S
C1699 C1693 1.390 . S
C1699 C1696 1.386 . S
C1700 C1695 1.490 . S
C1700 C1702 1.395 . S
C1700 C1703 1.403 . S
H1701 C1707 0.930 . S
C1702 H1688 0.930 . S
C1702 C1700 1.395 . S
C1702 C1705 1.403 . S
C1703 C1700 1.403 . S
C1703 C1704 1.524 . S
C1703 C1707 1.400 . S
C1704 H1689 0.960 . S
C1704 H1690 0.960 . S
C1704 H1691 0.960 . S
C1704 C1703 1.524 . S
C1705 C1702 1.403 . S
C1705 C1706 1.392 . S
C1705 C1709 1.495 . S
C1706 C1705 1.392 . S
C1706 C1707 1.385 . S
C1706 C1708 1.478 . S
C1707 H1701 0.930 . S
C1707 C1703 1.400 . S
C1707 C1706 1.385 . S
C1708 C1706 1.478 . S
C1708 C1710 1.381 . S
C1708 C1714 1.383 . S
C1709 C1705 1.495 . S
C1709 H1715 0.959 . S
C1709 H1716 0.961 . S
C1709 H1717 0.960 . S
C1710 C1708 1.381 . S
C1710 C1711 1.394 . S
C1710 H1718 0.930 . S
C1711 C1710 1.394 . S
C1711 C1712 1.383 . S
C1711 H1719 0.929 . S
C1712 C1711 1.383 . S
C1712 C1713 1.377 . S
C1713 H1697 0.930 . S
C1713 C1712 1.377 . S
C1713 C1714 1.379 . S
C1714 H1698 0.931 . S
C1714 C1708 1.383 . S
C1714 C1713 1.379 . S
H1715 C1709 0.959 . S
H1716 C1709 0.961 . S
H1717 C1709 0.960 . S
H1718 C1710 0.930 . S
H1719 C1711 0.929 . S
H1720 C1728 0.929 1_554 S
H1721 C1730 0.930 . S
H1722 C1732 0.930 . S
H1723 C1735 0.929 . S
H1724 C1738 0.930 . S
H1725 C1740 0.960 . S
H1726 C1740 0.960 . S
H1727 C1740 0.960 . S
C1728 H1720 0.929 1_556 S
C1728 C1729 1.377 . S
C1728 C1730 1.384 1_556 S
C1729 C1728 1.377 . S
C1729 C1735 1.390 . S
C1730 H1721 0.930 . S
C1730 C1728 1.384 1_554 S
C1730 C1731 1.372 1_554 S
C1731 C1730 1.372 1_556 S
C1731 C1732 1.400 . S
C1731 C1736 1.490 . S
C1732 H1722 0.930 . S
C1732 C1731 1.400 . S
C1732 C1735 1.386 . S
H1733 C1749 0.930 . S
H1734 C1750 0.931 . S
C1735 H1723 0.929 . S
C1735 C1729 1.390 . S
C1735 C1732 1.386 . S
C1736 C1731 1.490 . S
C1736 C1738 1.395 1_556 S
C1736 C1739 1.403 . S
H1737 C1743 0.930 . S
C1738 H1724 0.930 . S
C1738 C1736 1.395 1_554 S
C1738 C1741 1.403 . S
C1739 C1736 1.403 . S
C1739 C1740 1.524 . S
C1739 C1743 1.400 . S
C1740 H1725 0.960 . S
C1740 H1726 0.960 . S
C1740 H1727 0.960 . S
C1740 C1739 1.524 . S
C1741 C1738 1.403 . S
C1741 C1742 1.392 . S
C1741 C1745 1.495 . S
C1742 C1741 1.392 . S
C1742 C1743 1.385 1_554 S
C1742 C1744 1.478 . S
C1743 H1737 0.930 . S
C1743 C1739 1.400 . S
C1743 C1742 1.385 1_556 S
C1744 C1742 1.478 . S
C1744 C1746 1.381 . S
C1744 C1750 1.383 1_554 S
C1745 C1741 1.495 . S
C1745 H1751 0.959 . S
C1745 H1752 0.961 . S
C1745 H1753 0.960 . S
C1746 C1744 1.381 . S
C1746 C1747 1.394 . S
C1746 H1754 0.930 . S
C1747 C1746 1.394 . S
C1747 C1748 1.383 . S
C1747 H1755 0.929 . S
C1748 C1747 1.383 . S
C1748 C1749 1.377 1_554 S
C1749 H1733 0.930 . S
C1749 C1748 1.377 1_556 S
C1749 C1750 1.379 . S
C1750 H1734 0.931 . S
C1750 C1744 1.383 1_556 S
C1750 C1749 1.379 . S
H1751 C1745 0.959 . S
H1752 C1745 0.961 . S
H1753 C1745 0.960 . S
H1754 C1746 0.930 . S
H1755 C1747 0.929 . S
H1756 C1764 0.929 . S
H1757 C1766 0.930 . S
H1758 C1768 0.930 . S
H1759 C1771 0.929 . S
H1760 C1774 0.930 . S
H1761 C1776 0.960 . S
H1762 C1776 0.960 . S
H1763 C1776 0.960 . S
C1764 H1756 0.929 . S
C1764 C1765 1.377 . S
C1764 C1766 1.384 . S
C1765 C1764 1.377 . S
C1765 C1771 1.390 . S
C1766 H1757 0.930 . S
C1766 C1764 1.384 . S
C1766 C1767 1.372 . S
C1767 C1766 1.372 . S
C1767 C1768 1.400 . S
C1767 C1772 1.490 . S
C1768 H1758 0.930 . S
C1768 C1767 1.400 . S
C1768 C1771 1.386 . S
H1769 C1785 0.930 . S
H1770 C1786 0.931 . S
C1771 H1759 0.929 . S
C1771 C1765 1.390 . S
C1771 C1768 1.386 . S
C1772 C1767 1.490 . S
C1772 C1774 1.395 . S
C1772 C1775 1.403 . S
H1773 C1779 0.930 . S
C1774 H1760 0.930 . S
C1774 C1772 1.395 . S
C1774 C1777 1.403 . S
C1775 C1772 1.403 . S
C1775 C1776 1.524 . S
C1775 C1779 1.400 . S
C1776 H1761 0.960 . S
C1776 H1762 0.960 . S
C1776 H1763 0.960 . S
C1776 C1775 1.524 . S
C1777 C1774 1.403 . S
C1777 C1778 1.392 . S
C1777 C1781 1.495 . S
C1778 C1777 1.392 . S
C1778 C1779 1.385 . S
C1778 C1780 1.478 . S
C1779 H1773 0.930 . S
C1779 C1775 1.400 . S
C1779 C1778 1.385 . S
C1780 C1778 1.478 . S
C1780 C1782 1.381 . S
C1780 C1786 1.383 . S
C1781 C1777 1.495 . S
C1781 H1787 0.959 . S
C1781 H1788 0.961 . S
C1781 H1789 0.960 . S
C1782 C1780 1.381 . S
C1782 C1783 1.394 . S
C1782 H1790 0.930 . S
C1783 C1782 1.394 . S
C1783 C1784 1.383 . S
C1783 H1791 0.929 . S
C1784 C1783 1.383 . S
C1784 C1785 1.377 . S
C1785 H1769 0.930 . S
C1785 C1784 1.377 . S
C1785 C1786 1.379 . S
C1786 H1770 0.931 . S
C1786 C1780 1.383 . S
C1786 C1785 1.379 . S
H1787 C1781 0.959 . S
H1788 C1781 0.961 . S
H1789 C1781 0.960 . S
H1790 C1782 0.930 . S
H1791 C1783 0.929 . S
H1792 C1800 0.929 . S
H1793 C1802 0.930 . S
H1794 C1804 0.930 . S
H1795 C1807 0.929 . S
H1796 C1810 0.930 . S
H1797 C1812 0.960 . S
H1798 C1812 0.960 . S
H1799 C1812 0.960 . S
C1800 H1792 0.929 . S
C1800 C1801 1.377 . S
C1800 C1802 1.384 . S
C1801 C1800 1.377 . S
C1801 C1807 1.390 . S
C1802 H1793 0.930 . S
C1802 C1800 1.384 . S
C1802 C1803 1.372 . S
C1803 C1802 1.372 . S
C1803 C1804 1.400 . S
C1803 C1808 1.490 . S
C1804 H1794 0.930 . S
C1804 C1803 1.400 . S
C1804 C1807 1.386 . S
H1805 C1821 0.930 . S
H1806 C1822 0.931 . S
C1807 H1795 0.929 . S
C1807 C1801 1.390 . S
C1807 C1804 1.386 . S
C1808 C1803 1.490 . S
C1808 C1810 1.395 . S
C1808 C1811 1.403 . S
H1809 C1815 0.930 . S
C1810 H1796 0.930 . S
C1810 C1808 1.395 . S
C1810 C1813 1.403 . S
C1811 C1808 1.403 . S
C1811 C1812 1.524 . S
C1811 C1815 1.400 . S
C1812 H1797 0.960 . S
C1812 H1798 0.960 . S
C1812 H1799 0.960 . S
C1812 C1811 1.524 . S
C1813 C1810 1.403 . S
C1813 C1814 1.392 . S
C1813 C1817 1.495 . S
C1814 C1813 1.392 . S
C1814 C1815 1.385 . S
C1814 C1816 1.478 . S
C1815 H1809 0.930 . S
C1815 C1811 1.400 . S
C1815 C1814 1.385 . S
C1816 C1814 1.478 . S
C1816 C1818 1.381 . S
C1816 C1822 1.383 . S
C1817 C1813 1.495 . S
C1817 H1823 0.959 . S
C1817 H1824 0.961 . S
C1817 H1825 0.960 . S
C1818 C1816 1.381 . S
C1818 C1819 1.394 . S
C1818 H1826 0.930 . S
C1819 C1818 1.394 . S
C1819 C1820 1.383 . S
C1819 H1827 0.929 . S
C1820 C1819 1.383 . S
C1820 C1821 1.377 . S
C1821 H1805 0.930 . S
C1821 C1820 1.377 . S
C1821 C1822 1.379 . S
C1822 H1806 0.931 . S
C1822 C1816 1.383 . S
C1822 C1821 1.379 . S
H1823 C1817 0.959 . S
H1824 C1817 0.961 . S
H1825 C1817 0.960 . S
H1826 C1818 0.930 . S
H1827 C1819 0.929 . S
H1828 C1836 0.929 . S
H1829 C1838 0.930 . S
H1830 C1840 0.930 . S
H1831 C1843 0.929 . S
H1832 C1846 0.930 . S
H1833 C1848 0.960 . S
H1834 C1848 0.960 . S
H1835 C1848 0.960 . S
C1836 H1828 0.929 . S
C1836 C1837 1.377 . S
C1836 C1838 1.384 . S
C1837 C1836 1.377 . S
C1837 C1843 1.390 . S
C1838 H1829 0.930 . S
C1838 C1836 1.384 . S
C1838 C1839 1.372 . S
C1839 C1838 1.372 . S
C1839 C1840 1.400 . S
C1839 C1844 1.490 . S
C1840 H1830 0.930 . S
C1840 C1839 1.400 . S
C1840 C1843 1.386 . S
H1841 C1857 0.930 . S
H1842 C1858 0.931 . S
C1843 H1831 0.929 . S
C1843 C1837 1.390 . S
C1843 C1840 1.386 . S
C1844 C1839 1.490 . S
C1844 C1846 1.395 . S
C1844 C1847 1.403 . S
H1845 C1851 0.930 . S
C1846 H1832 0.930 . S
C1846 C1844 1.395 . S
C1846 C1849 1.403 . S
C1847 C1844 1.403 . S
C1847 C1848 1.524 . S
C1847 C1851 1.400 . S
C1848 H1833 0.960 . S
C1848 H1834 0.960 . S
C1848 H1835 0.960 . S
C1848 C1847 1.524 . S
C1849 C1846 1.403 . S
C1849 C1850 1.392 . S
C1849 C1853 1.495 . S
C1850 C1849 1.392 . S
C1850 C1851 1.385 . S
C1850 C1852 1.478 . S
C1851 H1845 0.930 . S
C1851 C1847 1.400 . S
C1851 C1850 1.385 . S
C1852 C1850 1.478 . S
C1852 C1854 1.381 . S
C1852 C1858 1.383 . S
C1853 C1849 1.495 . S
C1853 H1859 0.959 . S
C1853 H1860 0.961 . S
C1853 H1861 0.960 . S
C1854 C1852 1.381 . S
C1854 C1855 1.394 . S
C1854 H1862 0.930 . S
C1855 C1854 1.394 . S
C1855 C1856 1.383 . S
C1855 H1863 0.929 . S
C1856 C1855 1.383 . S
C1856 C1857 1.377 . S
C1857 H1841 0.930 . S
C1857 C1856 1.377 . S
C1857 C1858 1.379 . S
C1858 H1842 0.931 . S
C1858 C1852 1.383 . S
C1858 C1857 1.379 . S
H1859 C1853 0.959 . S
H1860 C1853 0.961 . S
H1861 C1853 0.960 . S
H1862 C1854 0.930 . S
H1863 C1855 0.929 . S
H1864 C1872 0.929 . S
H1865 C1874 0.930 . S
H1866 C1876 0.930 . S
H1867 C1879 0.929 . S
H1868 C1882 0.930 . S
H1869 C1884 0.960 . S
H1870 C1884 0.960 . S
H1871 C1884 0.960 . S
C1872 H1864 0.929 . S
C1872 C1873 1.377 . S
C1872 C1874 1.384 . S
C1873 C1872 1.377 . S
C1873 C1879 1.390 . S
C1874 H1865 0.930 . S
C1874 C1872 1.384 . S
C1874 C1875 1.372 . S
C1875 C1874 1.372 . S
C1875 C1876 1.400 . S
C1875 C1880 1.490 . S
C1876 H1866 0.930 . S
C1876 C1875 1.400 . S
C1876 C1879 1.386 . S
H1877 C1893 0.930 . S
H1878 C1894 0.931 . S
C1879 H1867 0.929 . S
C1879 C1873 1.390 . S
C1879 C1876 1.386 . S
C1880 C1875 1.490 . S
C1880 C1882 1.395 . S
C1880 C1883 1.403 . S
H1881 C1887 0.930 . S
C1882 H1868 0.930 . S
C1882 C1880 1.395 . S
C1882 C1885 1.403 . S
C1883 C1880 1.403 . S
C1883 C1884 1.524 . S
C1883 C1887 1.400 . S
C1884 H1869 0.960 . S
C1884 H1870 0.960 . S
C1884 H1871 0.960 . S
C1884 C1883 1.524 . S
C1885 C1882 1.403 . S
C1885 C1886 1.392 . S
C1885 C1889 1.495 . S
C1886 C1885 1.392 . S
C1886 C1887 1.385 . S
C1886 C1888 1.478 . S
C1887 H1881 0.930 . S
C1887 C1883 1.400 . S
C1887 C1886 1.385 . S
C1888 C1886 1.478 . S
C1888 C1890 1.381 . S
C1888 C1894 1.383 . S
C1889 C1885 1.495 . S
C1889 H1895 0.959 . S
C1889 H1896 0.961 . S
C1889 H1897 0.960 . S
C1890 C1888 1.381 . S
C1890 C1891 1.394 . S
C1890 H1898 0.930 . S
C1891 C1890 1.394 . S
C1891 C1892 1.383 . S
C1891 H1899 0.929 . S
C1892 C1891 1.383 . S
C1892 C1893 1.377 . S
C1893 H1877 0.930 . S
C1893 C1892 1.377 . S
C1893 C1894 1.379 . S
C1894 H1878 0.931 . S
C1894 C1888 1.383 . S
C1894 C1893 1.379 . S
H1895 C1889 0.959 . S
H1896 C1889 0.961 . S
H1897 C1889 0.960 . S
H1898 C1890 0.930 . S
H1899 C1891 0.929 . S
H1900 C1908 0.929 . S
H1901 C1910 0.930 . S
H1902 C1912 0.930 . S
H1903 C1915 0.929 . S
H1904 C1918 0.930 . S
H1905 C1920 0.960 . S
H1906 C1920 0.960 . S
H1907 C1920 0.960 . S
C1908 H1900 0.929 . S
C1908 C1909 1.377 . S
C1908 C1910 1.384 . S
C1909 C1908 1.377 . S
C1909 C1915 1.390 . S
C1910 H1901 0.930 . S
C1910 C1908 1.384 . S
C1910 C1911 1.372 . S
C1911 C1910 1.372 . S
C1911 C1912 1.400 . S
C1911 C1916 1.490 . S
C1912 H1902 0.930 . S
C1912 C1911 1.400 . S
C1912 C1915 1.386 . S
H1913 C1929 0.930 . S
H1914 C1930 0.931 . S
C1915 H1903 0.929 . S
C1915 C1909 1.390 . S
C1915 C1912 1.386 . S
C1916 C1911 1.490 . S
C1916 C1918 1.395 . S
C1916 C1919 1.403 . S
H1917 C1923 0.930 . S
C1918 H1904 0.930 . S
C1918 C1916 1.395 . S
C1918 C1921 1.403 . S
C1919 C1916 1.403 . S
C1919 C1920 1.524 . S
C1919 C1923 1.400 . S
C1920 H1905 0.960 . S
C1920 H1906 0.960 . S
C1920 H1907 0.960 . S
C1920 C1919 1.524 . S
C1921 C1918 1.403 . S
C1921 C1922 1.392 . S
C1921 C1925 1.495 . S
C1922 C1921 1.392 . S
C1922 C1923 1.385 . S
C1922 C1924 1.478 . S
C1923 H1917 0.930 . S
C1923 C1919 1.400 . S
C1923 C1922 1.385 . S
C1924 C1922 1.478 . S
C1924 C1926 1.381 . S
C1924 C1930 1.383 . S
C1925 C1921 1.495 . S
C1925 H1931 0.959 . S
C1925 H1932 0.961 . S
C1925 H1933 0.960 . S
C1926 C1924 1.381 . S
C1926 C1927 1.394 . S
C1926 H1934 0.930 . S
C1927 C1926 1.394 . S
C1927 C1928 1.383 . S
C1927 H1935 0.929 . S
C1928 C1927 1.383 . S
C1928 C1929 1.377 . S
C1929 H1913 0.930 . S
C1929 C1928 1.377 . S
C1929 C1930 1.379 . S
C1930 H1914 0.931 . S
C1930 C1924 1.383 . S
C1930 C1929 1.379 . S
H1931 C1925 0.959 . S
H1932 C1925 0.961 . S
H1933 C1925 0.960 . S
H1934 C1926 0.930 . S
H1935 C1927 0.929 . S
H1936 C1944 0.929 . S
H1937 C1946 0.930 . S
H1938 C1948 0.930 . S
H1939 C1951 0.929 . S
H1940 C1954 0.930 . S
H1941 C1956 0.960 . S
H1942 C1956 0.960 . S
H1943 C1956 0.960 . S
C1944 H1936 0.929 . S
C1944 C1945 1.377 . S
C1944 C1946 1.384 . S
C1945 C1944 1.377 . S
C1945 C1951 1.390 . S
C1946 H1937 0.930 . S
C1946 C1944 1.384 . S
C1946 C1947 1.372 . S
C1947 C1946 1.372 . S
C1947 C1948 1.400 . S
C1947 C1952 1.490 . S
C1948 H1938 0.930 . S
C1948 C1947 1.400 . S
C1948 C1951 1.386 . S
H1949 C1965 0.930 . S
H1950 C1966 0.931 . S
C1951 H1939 0.929 . S
C1951 C1945 1.390 . S
C1951 C1948 1.386 . S
C1952 C1947 1.490 . S
C1952 C1954 1.395 . S
C1952 C1955 1.403 . S
H1953 C1959 0.930 . S
C1954 H1940 0.930 . S
C1954 C1952 1.395 . S
C1954 C1957 1.403 . S
C1955 C1952 1.403 . S
C1955 C1956 1.524 . S
C1955 C1959 1.400 . S
C1956 H1941 0.960 . S
C1956 H1942 0.960 . S
C1956 H1943 0.960 . S
C1956 C1955 1.524 . S
C1957 C1954 1.403 . S
C1957 C1958 1.392 . S
C1957 C1961 1.495 . S
C1958 C1957 1.392 . S
C1958 C1959 1.385 . S
C1958 C1960 1.478 . S
C1959 H1953 0.930 . S
C1959 C1955 1.400 . S
C1959 C1958 1.385 . S
C1960 C1958 1.478 . S
C1960 C1962 1.381 . S
C1960 C1966 1.383 . S
C1961 C1957 1.495 . S
C1961 H1967 0.959 . S
C1961 H1968 0.961 . S
C1961 H1969 0.960 . S
C1962 C1960 1.381 . S
C1962 C1963 1.394 . S
C1962 H1970 0.930 . S
C1963 C1962 1.394 . S
C1963 C1964 1.383 . S
C1963 H1971 0.929 . S
C1964 C1963 1.383 . S
C1964 C1965 1.377 . S
C1965 H1949 0.930 . S
C1965 C1964 1.377 . S
C1965 C1966 1.379 . S
C1966 H1950 0.931 . S
C1966 C1960 1.383 . S
C1966 C1965 1.379 . S
H1967 C1961 0.959 . S
H1968 C1961 0.961 . S
H1969 C1961 0.960 . S
H1970 C1962 0.930 . S
H1971 C1963 0.929 . S
H1972 C1980 0.929 . S
H1973 C1982 0.930 . S
H1974 C1984 0.930 1_565 S
H1975 C1987 0.966 . S
H1976 C1990 0.930 . S
H1977 C1992 0.963 1_565 S
H1978 C1992 0.960 . S
H1979 C1992 0.960 1_565 S
C1980 H1972 0.929 . S
C1980 C1981 1.377 . S
C1980 C1982 1.384 . S
C1981 C1980 1.377 . S
C1981 C1987 1.390 . S
C1982 H1973 0.930 . S
C1982 C1980 1.384 . S
C1982 C1983 1.372 . S
C1983 C1982 1.372 . S
C1983 C1984 1.400 . S
C1983 C1988 1.490 . S
C1984 H1974 0.930 1_545 S
C1984 C1983 1.400 . S
C1984 C1987 1.386 . S
H1985 C2001 0.930 . S
H1986 C2002 0.931 . S
C1987 H1975 0.966 . S
C1987 C1981 1.390 . S
C1987 C1984 1.386 . S
C1988 C1983 1.490 . S
C1988 C1990 1.395 . S
C1988 C1991 1.403 . S
H1989 C1995 0.930 . S
C1990 H1976 0.930 . S
C1990 C1988 1.395 . S
C1990 C1993 1.403 . S
C1991 C1988 1.403 . S
C1991 C1992 1.524 . S
C1991 C1995 1.400 . S
C1992 H1977 0.963 1_545 S
C1992 H1978 0.960 . S
C1992 H1979 0.960 1_545 S
C1992 C1991 1.524 . S
C1993 C1990 1.403 . S
C1993 C1994 1.392 . S
C1993 C1997 1.495 . S
C1994 C1993 1.392 . S
C1994 C1995 1.385 . S
C1994 C1996 1.478 . S
C1995 H1989 0.930 . S
C1995 C1991 1.400 . S
C1995 C1994 1.385 . S
C1996 C1994 1.478 . S
C1996 C1998 1.381 . S
C1996 C2002 1.383 1_545 S
C1997 C1993 1.495 . S
C1997 H2003 0.959 . S
C1997 H2004 0.961 . S
C1997 H2005 0.960 . S
C1998 C1996 1.381 . S
C1998 C1999 1.394 . S
C1998 H2006 0.930 . S
C1999 C1998 1.394 . S
C1999 C2000 1.383 . S
C1999 H2007 0.929 . S
C2000 C1999 1.383 . S
C2000 C2001 1.377 1_545 S
C2001 H1985 0.930 . S
C2001 C2000 1.377 1_565 S
C2001 C2002 1.379 . S
C2002 H1986 0.931 . S
C2002 C1996 1.383 1_565 S
C2002 C2001 1.379 . S
H2003 C1997 0.959 . S
H2004 C1997 0.961 . S
H2005 C1997 0.960 . S
H2006 C1998 0.930 . S
H2007 C1999 0.929 . S
H2008 C2016 0.929 . S
H2009 C2018 0.930 . S
H2010 C2020 0.930 . S
H2011 C2023 0.929 . S
H2012 C2026 0.930 . S
H2013 C2028 0.960 . S
H2014 C2028 0.960 . S
H2015 C2028 0.960 . S
C2016 H2008 0.929 . S
C2016 C2017 1.377 . S
C2016 C2018 1.384 . S
C2017 C2016 1.377 . S
C2017 C2023 1.390 . S
C2018 H2009 0.930 . S
C2018 C2016 1.384 . S
C2018 C2019 1.372 . S
C2019 C2018 1.372 . S
C2019 C2020 1.400 . S
C2019 C2024 1.490 . S
C2020 H2010 0.930 . S
C2020 C2019 1.400 . S
C2020 C2023 1.386 . S
H2021 C2037 0.930 . S
H2022 C2038 0.931 . S
C2023 H2011 0.929 . S
C2023 C2017 1.390 . S
C2023 C2020 1.386 . S
C2024 C2019 1.490 . S
C2024 C2026 1.395 . S
C2024 C2027 1.403 . S
H2025 C2031 0.930 . S
C2026 H2012 0.930 . S
C2026 C2024 1.395 . S
C2026 C2029 1.403 . S
C2027 C2024 1.403 . S
C2027 C2028 1.524 . S
C2027 C2031 1.400 . S
C2028 H2013 0.960 . S
C2028 H2014 0.960 . S
C2028 H2015 0.960 . S
C2028 C2027 1.524 . S
C2029 C2026 1.403 . S
C2029 C2030 1.392 . S
C2029 C2033 1.495 . S
C2030 C2029 1.392 . S
C2030 C2031 1.385 . S
C2030 C2032 1.478 . S
C2031 H2025 0.930 . S
C2031 C2027 1.400 . S
C2031 C2030 1.385 . S
C2032 C2030 1.478 . S
C2032 C2034 1.381 . S
C2032 C2038 1.383 . S
C2033 C2029 1.495 . S
C2033 H2039 0.959 . S
C2033 H2040 0.961 . S
C2033 H2041 0.960 . S
C2034 C2032 1.381 . S
C2034 C2035 1.394 . S
C2034 H2042 0.930 . S
C2035 C2034 1.394 . S
C2035 C2036 1.383 . S
C2035 H2043 0.929 . S
C2036 C2035 1.383 . S
C2036 C2037 1.377 . S
C2037 H2021 0.930 . S
C2037 C2036 1.377 . S
C2037 C2038 1.379 . S
C2038 H2022 0.931 . S
C2038 C2032 1.383 . S
C2038 C2037 1.379 . S
H2039 C2033 0.959 . S
H2040 C2033 0.961 . S
H2041 C2033 0.960 . S
H2042 C2034 0.930 . S
H2043 C2035 0.929 . S
H2044 C2052 0.929 . S
H2045 C2054 0.930 . S
H2046 C2056 0.930 . S
H2047 C2059 0.929 . S
H2048 C2062 0.930 . S
H2049 C2064 0.960 . S
H2050 C2064 0.960 . S
H2051 C2064 0.960 . S
C2052 H2044 0.929 . S
C2052 C2053 1.377 . S
C2052 C2054 1.384 . S
C2053 C2052 1.377 . S
C2053 C2059 1.390 . S
C2054 H2045 0.930 . S
C2054 C2052 1.384 . S
C2054 C2055 1.372 . S
C2055 C2054 1.372 . S
C2055 C2056 1.400 . S
C2055 C2060 1.490 . S
C2056 H2046 0.930 . S
C2056 C2055 1.400 . S
C2056 C2059 1.386 . S
H2057 C2073 0.930 . S
H2058 C2074 0.931 . S
C2059 H2047 0.929 . S
C2059 C2053 1.390 . S
C2059 C2056 1.386 . S
C2060 C2055 1.490 . S
C2060 C2062 1.395 . S
C2060 C2063 1.403 . S
H2061 C2067 0.930 . S
C2062 H2048 0.930 . S
C2062 C2060 1.395 . S
C2062 C2065 1.403 . S
C2063 C2060 1.403 . S
C2063 C2064 1.524 . S
C2063 C2067 1.400 . S
C2064 H2049 0.960 . S
C2064 H2050 0.960 . S
C2064 H2051 0.960 . S
C2064 C2063 1.524 . S
C2065 C2062 1.403 . S
C2065 C2066 1.392 . S
C2065 C2069 1.495 . S
C2066 C2065 1.392 . S
C2066 C2067 1.385 . S
C2066 C2068 1.478 . S
C2067 H2061 0.930 . S
C2067 C2063 1.400 . S
C2067 C2066 1.385 . S
C2068 C2066 1.478 . S
C2068 C2070 1.381 . S
C2068 C2074 1.383 . S
C2069 C2065 1.495 . S
C2069 H2075 0.959 . S
C2069 H2076 0.961 . S
C2069 H2077 0.960 . S
C2070 C2068 1.381 . S
C2070 C2071 1.394 . S
C2070 H2078 0.930 . S
C2071 C2070 1.394 . S
C2071 C2072 1.383 . S
C2071 H2079 0.929 . S
C2072 C2071 1.383 . S
C2072 C2073 1.377 . S
C2073 H2057 0.930 . S
C2073 C2072 1.377 . S
C2073 C2074 1.379 . S
C2074 H2058 0.931 . S
C2074 C2068 1.383 . S
C2074 C2073 1.379 . S
H2075 C2069 0.959 . S
H2076 C2069 0.961 . S
H2077 C2069 0.960 . S
H2078 C2070 0.930 . S
H2079 C2071 0.929 . S
H2080 C2088 0.929 . S
H2081 C2090 0.930 . S
H2082 C2092 0.930 . S
H2083 C2095 0.929 . S
H2084 C2098 0.930 . S
H2085 C2100 0.960 . S
H2086 C2100 0.960 . S
H2087 C2100 0.960 . S
C2088 H2080 0.929 . S
C2088 C2089 1.377 . S
C2088 C2090 1.384 . S
C2089 C2088 1.377 . S
C2089 C2095 1.390 . S
C2090 H2081 0.930 . S
C2090 C2088 1.384 . S
C2090 C2091 1.372 . S
C2091 C2090 1.372 . S
C2091 C2092 1.400 . S
C2091 C2096 1.490 . S
C2092 H2082 0.930 . S
C2092 C2091 1.400 . S
C2092 C2095 1.386 . S
H2093 C2109 0.930 . S
H2094 C2110 0.931 . S
C2095 H2083 0.929 . S
C2095 C2089 1.390 . S
C2095 C2092 1.386 . S
C2096 C2091 1.490 . S
C2096 C2098 1.395 . S
C2096 C2099 1.403 . S
H2097 C2103 0.930 . S
C2098 H2084 0.930 . S
C2098 C2096 1.395 . S
C2098 C2101 1.403 . S
C2099 C2096 1.403 . S
C2099 C2100 1.524 . S
C2099 C2103 1.400 . S
C2100 H2085 0.960 . S
C2100 H2086 0.960 . S
C2100 H2087 0.960 . S
C2100 C2099 1.524 . S
C2101 C2098 1.403 . S
C2101 C2102 1.392 . S
C2101 C2105 1.495 . S
C2102 C2101 1.392 . S
C2102 C2103 1.385 . S
C2102 C2104 1.478 . S
C2103 H2097 0.930 . S
C2103 C2099 1.400 . S
C2103 C2102 1.385 . S
C2104 C2102 1.478 . S
C2104 C2106 1.381 . S
C2104 C2110 1.383 . S
C2105 C2101 1.495 . S
C2105 H2111 0.959 . S
C2105 H2112 0.961 . S
C2105 H2113 0.960 . S
C2106 C2104 1.381 . S
C2106 C2107 1.394 . S
C2106 H2114 0.930 . S
C2107 C2106 1.394 . S
C2107 C2108 1.383 . S
C2107 H2115 0.929 . S
C2108 C2107 1.383 . S
C2108 C2109 1.377 . S
C2109 H2093 0.930 . S
C2109 C2108 1.377 . S
C2109 C2110 1.379 . S
C2110 H2094 0.931 . S
C2110 C2104 1.383 . S
C2110 C2109 1.379 . S
H2111 C2105 0.959 . S
H2112 C2105 0.961 . S
H2113 C2105 0.960 . S
H2114 C2106 0.930 . S
H2115 C2107 0.929 . S
H2116 C2124 0.929 . S
H2117 C2126 0.930 . S
H2118 C2128 0.930 1_565 S
H2119 C2131 0.917 1_565 S
H2120 C2134 0.930 . S
H2121 C2136 0.960 . S
H2122 C2136 0.960 . S
H2123 C2136 0.960 . S
C2124 H2116 0.929 . S
C2124 C2125 1.377 . S
C2124 C2126 1.384 . S
C2125 C2124 1.377 . S
C2125 C2131 1.390 . S
C2126 H2117 0.930 . S
C2126 C2124 1.384 . S
C2126 C2127 1.372 . S
C2127 C2126 1.372 . S
C2127 C2128 1.400 . S
C2127 C2132 1.490 . S
C2128 H2118 0.930 1_545 S
C2128 C2127 1.400 . S
C2128 C2131 1.386 . S
H2129 C2145 0.930 . S
H2130 C2146 0.922 1_565 S
C2131 H2119 0.917 1_545 S
C2131 C2125 1.390 . S
C2131 C2128 1.386 . S
C2132 C2127 1.490 . S
C2132 C2134 1.395 . S
C2132 C2135 1.403 . S
H2133 C2139 0.930 . S
C2134 H2120 0.930 . S
C2134 C2132 1.395 . S
C2134 C2137 1.403 . S
C2135 C2132 1.403 . S
C2135 C2136 1.524 . S
C2135 C2139 1.400 . S
C2136 H2121 0.960 . S
C2136 H2122 0.960 . S
C2136 H2123 0.960 . S
C2136 C2135 1.524 . S
C2137 C2134 1.403 . S
C2137 C2138 1.392 . S
C2137 C2141 1.495 . S
C2138 C2137 1.392 . S
C2138 C2139 1.385 . S
C2138 C2140 1.478 . S
C2139 H2133 0.930 . S
C2139 C2135 1.400 . S
C2139 C2138 1.385 . S
C2140 C2138 1.478 . S
C2140 C2142 1.381 . S
C2140 C2146 1.393 . S
C2141 C2137 1.495 . S
C2141 H2147 0.959 . S
C2141 H2148 0.961 . S
C2141 H2149 0.960 . S
C2142 C2140 1.381 . S
C2142 C2143 1.394 . S
C2142 H2150 0.930 . S
C2143 C2142 1.394 . S
C2143 C2144 1.383 . S
C2143 H2151 0.929 . S
C2144 C2143 1.383 . S
C2144 C2145 1.377 1_545 S
C2145 H2129 0.930 . S
C2145 C2144 1.377 1_565 S
C2145 C2146 1.378 1_565 S
C2146 H2130 0.922 1_545 S
C2146 C2140 1.393 . S
C2146 C2145 1.378 1_545 S
H2147 C2141 0.959 . S
H2148 C2141 0.961 . S
H2149 C2141 0.960 . S
H2150 C2142 0.930 . S
H2151 C2143 0.929 . S
H2152 C2160 0.929 . S
H2153 C2162 0.930 . S
H2154 C2164 0.930 . S
H2155 C2167 0.929 . S
H2156 C2170 0.930 . S
H2157 C2172 0.960 . S
H2158 C2172 0.960 . S
H2159 C2172 0.960 . S
C2160 H2152 0.929 . S
C2160 C2161 1.377 . S
C2160 C2162 1.384 . S
C2161 C2160 1.377 . S
C2161 C2167 1.390 . S
C2162 H2153 0.930 . S
C2162 C2160 1.384 . S
C2162 C2163 1.372 . S
C2163 C2162 1.372 . S
C2163 C2164 1.400 . S
C2163 C2168 1.490 . S
C2164 H2154 0.930 . S
C2164 C2163 1.400 . S
C2164 C2167 1.386 . S
H2165 C2181 0.930 . S
H2166 C2182 0.931 . S
C2167 H2155 0.929 . S
C2167 C2161 1.390 . S
C2167 C2164 1.386 . S
C2168 C2163 1.490 . S
C2168 C2170 1.395 . S
C2168 C2171 1.403 . S
H2169 C2175 0.930 . S
C2170 H2156 0.930 . S
C2170 C2168 1.395 . S
C2170 C2173 1.403 . S
C2171 C2168 1.403 . S
C2171 C2172 1.524 . S
C2171 C2175 1.400 . S
C2172 H2157 0.960 . S
C2172 H2158 0.960 . S
C2172 H2159 0.960 . S
C2172 C2171 1.524 . S
C2173 C2170 1.403 . S
C2173 C2174 1.392 . S
C2173 C2177 1.495 . S
C2174 C2173 1.392 . S
C2174 C2175 1.385 . S
C2174 C2176 1.478 . S
C2175 H2169 0.930 . S
C2175 C2171 1.400 . S
C2175 C2174 1.385 . S
C2176 C2174 1.478 . S
C2176 C2178 1.381 . S
C2176 C2182 1.383 . S
C2177 C2173 1.495 . S
C2177 H2183 0.959 . S
C2177 H2184 0.961 . S
C2177 H2185 0.960 . S
C2178 C2176 1.381 . S
C2178 C2179 1.394 . S
C2178 H2186 0.930 . S
C2179 C2178 1.394 . S
C2179 C2180 1.383 . S
C2179 H2187 0.929 . S
C2180 C2179 1.383 . S
C2180 C2181 1.377 . S
C2181 H2165 0.930 . S
C2181 C2180 1.377 . S
C2181 C2182 1.379 . S
C2182 H2166 0.931 . S
C2182 C2176 1.383 . S
C2182 C2181 1.379 . S
H2183 C2177 0.959 . S
H2184 C2177 0.961 . S
H2185 C2177 0.960 . S
H2186 C2178 0.930 . S
H2187 C2179 0.929 . S
H2188 C2196 0.929 . S
H2189 C2198 0.930 . S
H2190 C2200 0.930 . S
H2191 C2203 0.929 . S
H2192 C2206 0.930 . S
H2193 C2208 0.960 . S
H2194 C2208 0.960 . S
H2195 C2208 0.960 . S
C2196 H2188 0.929 . S
C2196 C2197 1.377 . S
C2196 C2198 1.384 . S
C2197 C2196 1.377 . S
C2197 C2203 1.390 . S
C2198 H2189 0.930 . S
C2198 C2196 1.384 . S
C2198 C2199 1.372 . S
C2199 C2198 1.372 . S
C2199 C2200 1.400 . S
C2199 C2204 1.490 . S
C2200 H2190 0.930 . S
C2200 C2199 1.400 . S
C2200 C2203 1.386 . S
H2201 C2217 0.930 . S
H2202 C2218 0.931 . S
C2203 H2191 0.929 . S
C2203 C2197 1.390 . S
C2203 C2200 1.386 . S
C2204 C2199 1.490 . S
C2204 C2206 1.395 . S
C2204 C2207 1.403 . S
H2205 C2211 0.930 . S
C2206 H2192 0.930 . S
C2206 C2204 1.395 . S
C2206 C2209 1.403 . S
C2207 C2204 1.403 . S
C2207 C2208 1.524 . S
C2207 C2211 1.400 . S
C2208 H2193 0.960 . S
C2208 H2194 0.960 . S
C2208 H2195 0.960 . S
C2208 C2207 1.524 . S
C2209 C2206 1.403 . S
C2209 C2210 1.392 . S
C2209 C2213 1.495 . S
C2210 C2209 1.392 . S
C2210 C2211 1.385 . S
C2210 C2212 1.478 . S
C2211 H2205 0.930 . S
C2211 C2207 1.400 . S
C2211 C2210 1.385 . S
C2212 C2210 1.478 . S
C2212 C2214 1.381 . S
C2212 C2218 1.383 . S
C2213 C2209 1.495 . S
C2213 H2219 0.959 . S
C2213 H2220 0.961 . S
C2213 H2221 0.960 . S
C2214 C2212 1.381 . S
C2214 C2215 1.394 . S
C2214 H2222 0.930 . S
C2215 C2214 1.394 . S
C2215 C2216 1.383 . S
C2215 H2223 0.929 . S
C2216 C2215 1.383 . S
C2216 C2217 1.377 . S
C2217 H2201 0.930 . S
C2217 C2216 1.377 . S
C2217 C2218 1.379 . S
C2218 H2202 0.931 . S
C2218 C2212 1.383 . S
C2218 C2217 1.379 . S
H2219 C2213 0.959 . S
H2220 C2213 0.961 . S
H2221 C2213 0.960 . S
H2222 C2214 0.930 . S
H2223 C2215 0.929 . S
H2224 C2232 0.929 . S
H2225 C2234 0.930 . S
H2226 C2236 0.930 . S
H2227 C2239 0.929 . S
H2228 C2242 0.930 . S
H2229 C2244 0.960 . S
H2230 C2244 0.960 . S
H2231 C2244 0.960 . S
C2232 H2224 0.929 . S
C2232 C2233 1.377 . S
C2232 C2234 1.384 . S
C2233 C2232 1.377 . S
C2233 C2239 1.390 . S
C2234 H2225 0.930 . S
C2234 C2232 1.384 . S
C2234 C2235 1.372 . S
C2235 C2234 1.372 . S
C2235 C2236 1.400 . S
C2235 C2240 1.490 . S
C2236 H2226 0.930 . S
C2236 C2235 1.400 . S
C2236 C2239 1.386 . S
H2237 C2253 0.930 . S
H2238 C2254 0.931 . S
C2239 H2227 0.929 . S
C2239 C2233 1.390 . S
C2239 C2236 1.386 . S
C2240 C2235 1.490 . S
C2240 C2242 1.395 . S
C2240 C2243 1.403 . S
H2241 C2247 0.930 . S
C2242 H2228 0.930 . S
C2242 C2240 1.395 . S
C2242 C2245 1.403 . S
C2243 C2240 1.403 . S
C2243 C2244 1.524 . S
C2243 C2247 1.400 . S
C2244 H2229 0.960 . S
C2244 H2230 0.960 . S
C2244 H2231 0.960 . S
C2244 C2243 1.524 . S
C2245 C2242 1.403 . S
C2245 C2246 1.392 . S
C2245 C2249 1.495 . S
C2246 C2245 1.392 . S
C2246 C2247 1.385 . S
C2246 C2248 1.478 . S
C2247 H2241 0.930 . S
C2247 C2243 1.400 . S
C2247 C2246 1.385 . S
C2248 C2246 1.478 . S
C2248 C2250 1.381 . S
C2248 C2254 1.383 . S
C2249 C2245 1.495 . S
C2249 H2255 0.959 . S
C2249 H2256 0.961 . S
C2249 H2257 0.960 . S
C2250 C2248 1.381 . S
C2250 C2251 1.394 . S
C2250 H2258 0.930 . S
C2251 C2250 1.394 . S
C2251 C2252 1.383 . S
C2251 H2259 0.929 . S
C2252 C2251 1.383 . S
C2252 C2253 1.377 . S
C2253 H2237 0.930 . S
C2253 C2252 1.377 . S
C2253 C2254 1.379 . S
C2254 H2238 0.931 . S
C2254 C2248 1.383 . S
C2254 C2253 1.379 . S
H2255 C2249 0.959 . S
H2256 C2249 0.961 . S
H2257 C2249 0.960 . S
H2258 C2250 0.930 . S
H2259 C2251 0.929 . S
H2260 C2268 0.929 . S
H2261 C2270 0.930 . S
H2262 C2272 0.930 1_455 S
H2263 C2275 0.929 1_455 S
H2264 C2278 0.930 . S
H2265 C2280 0.960 . S
H2266 C2280 0.960 . S
H2267 C2280 0.960 . S
C2268 H2260 0.929 . S
C2268 C2269 1.377 . S
C2268 C2270 1.384 . S
C2269 C2268 1.377 . S
C2269 C2275 1.390 . S
C2270 H2261 0.930 . S
C2270 C2268 1.384 . S
C2270 C2271 1.372 . S
C2271 C2270 1.372 . S
C2271 C2272 1.400 . S
C2271 C2276 1.490 . S
C2272 H2262 0.930 1_655 S
C2272 C2271 1.400 . S
C2272 C2275 1.386 . S
H2273 C2289 0.930 . S
H2274 C2290 0.931 . S
C2275 H2263 0.929 1_655 S
C2275 C2269 1.390 . S
C2275 C2272 1.386 . S
C2276 C2271 1.490 . S
C2276 C2278 1.395 . S
C2276 C2279 1.403 . S
H2277 C2283 0.930 . S
C2278 H2264 0.930 . S
C2278 C2276 1.395 . S
C2278 C2281 1.403 . S
C2279 C2276 1.403 . S
C2279 C2280 1.524 . S
C2279 C2283 1.400 . S
C2280 H2265 0.960 . S
C2280 H2266 0.960 . S
C2280 H2267 0.960 . S
C2280 C2279 1.524 . S
C2281 C2278 1.403 . S
C2281 C2282 1.392 . S
C2281 C2285 1.495 1_655 S
C2282 C2281 1.392 . S
C2282 C2283 1.385 . S
C2282 C2284 1.478 . S
C2283 H2277 0.930 . S
C2283 C2279 1.400 . S
C2283 C2282 1.385 . S
C2284 C2282 1.478 . S
C2284 C2286 1.384 . S
C2284 C2290 1.379 1_655 S
C2285 C2281 1.495 1_455 S
C2285 H2291 0.959 . S
C2285 H2292 0.961 . S
C2285 H2293 0.960 1_455 S
C2286 C2284 1.384 . S
C2286 C2287 1.394 . S
C2286 H2294 0.930 . S
C2287 C2286 1.394 . S
C2287 C2288 1.383 1_655 S
C2287 H2295 0.929 . S
C2288 C2287 1.383 1_455 S
C2288 C2289 1.377 . S
C2289 H2273 0.930 . S
C2289 C2288 1.377 . S
C2289 C2290 1.379 . S
C2290 H2274 0.931 . S
C2290 C2284 1.379 1_455 S
C2290 C2289 1.379 . S
H2291 C2285 0.959 . S
H2292 C2285 0.961 . S
H2293 C2285 0.960 1_655 S
H2294 C2286 0.930 . S
H2295 C2287 0.929 . S
H2296 C2304 0.929 . S
H2297 C2306 0.930 . S
H2298 C2308 0.930 . S
H2299 C2311 0.929 . S
H2300 C2314 0.930 . S
H2301 C2316 0.960 . S
H2302 C2316 0.960 . S
H2303 C2316 0.960 . S
C2304 H2296 0.929 . S
C2304 C2305 1.377 . S
C2304 C2306 1.384 . S
C2305 C2304 1.377 . S
C2305 C2311 1.390 . S
C2306 H2297 0.930 . S
C2306 C2304 1.384 . S
C2306 C2307 1.372 . S
C2307 C2306 1.372 . S
C2307 C2308 1.400 . S
C2307 C2312 1.490 . S
C2308 H2298 0.930 . S
C2308 C2307 1.400 . S
C2308 C2311 1.386 . S
H2309 C2325 0.930 . S
H2310 C2326 0.931 . S
C2311 H2299 0.929 . S
C2311 C2305 1.390 . S
C2311 C2308 1.386 . S
C2312 C2307 1.490 . S
C2312 C2314 1.395 . S
C2312 C2315 1.403 . S
H2313 C2319 0.930 . S
C2314 H2300 0.930 . S
C2314 C2312 1.395 . S
C2314 C2317 1.403 . S
C2315 C2312 1.403 . S
C2315 C2316 1.524 . S
C2315 C2319 1.400 . S
C2316 H2301 0.960 . S
C2316 H2302 0.960 . S
C2316 H2303 0.960 . S
C2316 C2315 1.524 . S
C2317 C2314 1.403 . S
C2317 C2318 1.392 . S
C2317 C2321 1.495 . S
C2318 C2317 1.392 . S
C2318 C2319 1.385 . S
C2318 C2320 1.478 . S
C2319 H2313 0.930 . S
C2319 C2315 1.400 . S
C2319 C2318 1.385 . S
C2320 C2318 1.478 . S
C2320 C2322 1.381 . S
C2320 C2326 1.383 . S
C2321 C2317 1.495 . S
C2321 H2327 0.959 . S
C2321 H2328 0.961 . S
C2321 H2329 0.960 . S
C2322 C2320 1.381 . S
C2322 C2323 1.394 . S
C2322 H2330 0.930 . S
C2323 C2322 1.394 . S
C2323 C2324 1.383 . S
C2323 H2331 0.929 . S
C2324 C2323 1.383 . S
C2324 C2325 1.377 . S
C2325 H2309 0.930 . S
C2325 C2324 1.377 . S
C2325 C2326 1.379 . S
C2326 H2310 0.931 . S
C2326 C2320 1.383 . S
C2326 C2325 1.379 . S
H2327 C2321 0.959 . S
H2328 C2321 0.961 . S
H2329 C2321 0.960 . S
H2330 C2322 0.930 . S
H2331 C2323 0.929 . S
H2332 C2340 0.929 . S
H2333 C2342 0.930 . S
H2334 C2344 0.930 . S
H2335 C2347 0.929 . S
H2336 C2350 0.930 . S
H2337 C2352 0.960 . S
H2338 C2352 0.960 . S
H2339 C2352 0.960 . S
C2340 H2332 0.929 . S
C2340 C2341 1.377 . S
C2340 C2342 1.384 . S
C2341 C2340 1.377 . S
C2341 C2347 1.390 . S
C2342 H2333 0.930 . S
C2342 C2340 1.384 . S
C2342 C2343 1.372 . S
C2343 C2342 1.372 . S
C2343 C2344 1.400 . S
C2343 C2348 1.490 . S
C2344 H2334 0.930 . S
C2344 C2343 1.400 . S
C2344 C2347 1.386 . S
H2345 C2361 0.919 1_655 S
H2346 C2362 0.931 . S
C2347 H2335 0.929 . S
C2347 C2341 1.390 . S
C2347 C2344 1.386 . S
C2348 C2343 1.490 . S
C2348 C2350 1.395 . S
C2348 C2351 1.403 . S
H2349 C2355 0.930 . S
C2350 H2336 0.930 . S
C2350 C2348 1.395 . S
C2350 C2353 1.403 . S
C2351 C2348 1.403 . S
C2351 C2352 1.524 . S
C2351 C2355 1.400 . S
C2352 H2337 0.960 . S
C2352 H2338 0.960 . S
C2352 H2339 0.960 . S
C2352 C2351 1.524 . S
C2353 C2350 1.403 . S
C2353 C2354 1.392 . S
C2353 C2357 1.495 1_455 S
C2354 C2353 1.392 . S
C2354 C2355 1.385 . S
C2354 C2356 1.478 . S
C2355 H2349 0.930 . S
C2355 C2351 1.400 . S
C2355 C2354 1.385 . S
C2356 C2354 1.478 . S
C2356 C2358 1.381 . S
C2356 C2362 1.383 . S
C2357 C2353 1.495 1_655 S
C2357 H2363 0.959 . S
C2357 H2364 0.961 . S
C2357 H2365 0.960 1_655 S
C2358 C2356 1.381 . S
C2358 C2359 1.394 . S
C2358 H2366 0.930 . S
C2359 C2358 1.394 . S
C2359 C2360 1.383 . S
C2359 H2367 0.929 . S
C2360 C2359 1.383 . S
C2360 C2361 1.377 . S
C2361 H2345 0.919 1_455 S
C2361 C2360 1.377 . S
C2361 C2362 1.379 . S
C2362 H2346 0.931 . S
C2362 C2356 1.383 . S
C2362 C2361 1.379 . S
H2363 C2357 0.959 . S
H2364 C2357 0.961 . S
H2365 C2357 0.960 1_455 S
H2366 C2358 0.930 . S
H2367 C2359 0.929 . S
H2368 C2376 0.929 . S
H2369 C2378 0.930 . S
H2370 C2380 0.930 . S
H2371 C2383 0.929 . S
H2372 C2386 0.930 . S
H2373 C2388 0.960 . S
H2374 C2388 0.960 . S
H2375 C2388 0.960 . S
C2376 H2368 0.929 . S
C2376 C2377 1.377 . S
C2376 C2378 1.384 . S
C2377 C2376 1.377 . S
C2377 C2383 1.390 . S
C2378 H2369 0.930 . S
C2378 C2376 1.384 . S
C2378 C2379 1.372 . S
C2379 C2378 1.372 . S
C2379 C2380 1.400 . S
C2379 C2384 1.490 . S
C2380 H2370 0.930 . S
C2380 C2379 1.400 . S
C2380 C2383 1.386 . S
H2381 C2397 0.930 . S
H2382 C2398 0.931 . S
C2383 H2371 0.929 . S
C2383 C2377 1.390 . S
C2383 C2380 1.386 . S
C2384 C2379 1.490 . S
C2384 C2386 1.395 . S
C2384 C2387 1.403 . S
H2385 C2391 0.930 . S
C2386 H2372 0.930 . S
C2386 C2384 1.395 . S
C2386 C2389 1.403 . S
C2387 C2384 1.403 . S
C2387 C2388 1.524 . S
C2387 C2391 1.400 . S
C2388 H2373 0.960 . S
C2388 H2374 0.960 . S
C2388 H2375 0.960 . S
C2388 C2387 1.524 . S
C2389 C2386 1.403 . S
C2389 C2390 1.392 . S
C2389 C2393 1.495 . S
C2390 C2389 1.392 . S
C2390 C2391 1.385 . S
C2390 C2392 1.478 . S
C2391 H2385 0.930 . S
C2391 C2387 1.400 . S
C2391 C2390 1.385 . S
C2392 C2390 1.478 . S
C2392 C2394 1.381 . S
C2392 C2398 1.383 . S
C2393 C2389 1.495 . S
C2393 H2399 0.959 . S
C2393 H2400 0.961 . S
C2393 H2401 0.960 . S
C2394 C2392 1.381 . S
C2394 C2395 1.394 . S
C2394 H2402 0.930 . S
C2395 C2394 1.394 . S
C2395 C2396 1.383 . S
C2395 H2403 0.929 . S
C2396 C2395 1.383 . S
C2396 C2397 1.377 . S
C2397 H2381 0.930 . S
C2397 C2396 1.377 . S
C2397 C2398 1.379 . S
C2398 H2382 0.931 . S
C2398 C2392 1.383 . S
C2398 C2397 1.379 . S
H2399 C2393 0.959 . S
H2400 C2393 0.961 . S
H2401 C2393 0.960 . S
H2402 C2394 0.930 . S
H2403 C2395 0.929 . S
H2404 C2412 0.929 . S
H2405 C2414 0.930 . S
H2406 C2416 0.930 . S
H2407 C2419 0.929 . S
H2408 C2422 0.930 . S
H2409 C2424 0.960 . S
H2410 C2424 0.960 . S
H2411 C2424 0.960 . S
C2412 H2404 0.929 . S
C2412 C2413 1.377 . S
C2412 C2414 1.384 . S
C2413 C2412 1.377 . S
C2413 C2419 1.390 . S
C2414 H2405 0.930 . S
C2414 C2412 1.384 . S
C2414 C2415 1.372 . S
C2415 C2414 1.372 . S
C2415 C2416 1.400 . S
C2415 C2420 1.490 . S
C2416 H2406 0.930 . S
C2416 C2415 1.400 . S
C2416 C2419 1.386 . S
H2417 C2433 0.930 . S
H2418 C2434 0.931 . S
C2419 H2407 0.929 . S
C2419 C2413 1.390 . S
C2419 C2416 1.386 . S
C2420 C2415 1.490 . S
C2420 C2422 1.395 . S
C2420 C2423 1.403 . S
H2421 C2427 0.930 . S
C2422 H2408 0.930 . S
C2422 C2420 1.395 . S
C2422 C2425 1.403 . S
C2423 C2420 1.403 . S
C2423 C2424 1.524 . S
C2423 C2427 1.400 . S
C2424 H2409 0.960 . S
C2424 H2410 0.960 . S
C2424 H2411 0.960 . S
C2424 C2423 1.524 . S
C2425 C2422 1.403 . S
C2425 C2426 1.392 . S
C2425 C2429 1.495 . S
C2426 C2425 1.392 . S
C2426 C2427 1.385 . S
C2426 C2428 1.478 . S
C2427 H2421 0.930 . S
C2427 C2423 1.400 . S
C2427 C2426 1.385 . S
C2428 C2426 1.478 . S
C2428 C2430 1.381 . S
C2428 C2434 1.383 . S
C2429 C2425 1.495 . S
C2429 H2435 0.959 . S
C2429 H2436 0.961 . S
C2429 H2437 0.960 . S
C2430 C2428 1.381 . S
C2430 C2431 1.394 . S
C2430 H2438 0.930 . S
C2431 C2430 1.394 . S
C2431 C2432 1.383 . S
C2431 H2439 0.929 . S
C2432 C2431 1.383 . S
C2432 C2433 1.377 . S
C2433 H2417 0.930 . S
C2433 C2432 1.377 . S
C2433 C2434 1.379 . S
C2434 H2418 0.931 . S
C2434 C2428 1.383 . S
C2434 C2433 1.379 . S
H2435 C2429 0.959 . S
H2436 C2429 0.961 . S
H2437 C2429 0.960 . S
H2438 C2430 0.930 . S
H2439 C2431 0.929 . S
H2440 C2448 0.929 . S
H2441 C2450 0.930 . S
H2442 C2452 0.930 . S
H2443 C2455 0.929 . S
H2444 C2458 0.930 . S
H2445 C2460 0.960 . S
H2446 C2460 0.960 . S
H2447 C2460 0.960 . S
C2448 H2440 0.929 . S
C2448 C2449 1.377 . S
C2448 C2450 1.384 . S
C2449 C2448 1.377 . S
C2449 C2455 1.390 . S
C2450 H2441 0.930 . S
C2450 C2448 1.384 . S
C2450 C2451 1.372 . S
C2451 C2450 1.372 . S
C2451 C2452 1.400 . S
C2451 C2456 1.490 . S
C2452 H2442 0.930 . S
C2452 C2451 1.400 . S
C2452 C2455 1.386 . S
H2453 C2469 0.930 . S
H2454 C2470 0.931 . S
C2455 H2443 0.929 . S
C2455 C2449 1.390 . S
C2455 C2452 1.386 . S
C2456 C2451 1.490 . S
C2456 C2458 1.395 . S
C2456 C2459 1.403 . S
H2457 C2463 0.930 . S
C2458 H2444 0.930 . S
C2458 C2456 1.395 . S
C2458 C2461 1.403 . S
C2459 C2456 1.403 . S
C2459 C2460 1.524 . S
C2459 C2463 1.400 . S
C2460 H2445 0.960 . S
C2460 H2446 0.960 . S
C2460 H2447 0.960 . S
C2460 C2459 1.524 . S
C2461 C2458 1.403 . S
C2461 C2462 1.392 . S
C2461 C2465 1.495 . S
C2462 C2461 1.392 . S
C2462 C2463 1.385 . S
C2462 C2464 1.478 . S
C2463 H2457 0.930 . S
C2463 C2459 1.400 . S
C2463 C2462 1.385 . S
C2464 C2462 1.478 . S
C2464 C2466 1.381 . S
C2464 C2470 1.383 . S
C2465 C2461 1.495 . S
C2465 H2471 0.959 . S
C2465 H2472 0.961 . S
C2465 H2473 0.960 . S
C2466 C2464 1.381 . S
C2466 C2467 1.394 . S
C2466 H2474 0.930 . S
C2467 C2466 1.394 . S
C2467 C2468 1.383 . S
C2467 H2475 0.929 . S
C2468 C2467 1.383 . S
C2468 C2469 1.377 . S
C2469 H2453 0.930 . S
C2469 C2468 1.377 . S
C2469 C2470 1.379 . S
C2470 H2454 0.931 . S
C2470 C2464 1.383 . S
C2470 C2469 1.379 . S
H2471 C2465 0.959 . S
H2472 C2465 0.961 . S
H2473 C2465 0.960 . S
H2474 C2466 0.930 . S
H2475 C2467 0.929 . S
H2476 C2484 0.929 . S
H2477 C2486 0.930 . S
H2478 C2488 0.930 . S
H2479 C2491 0.929 . S
H2480 C2494 0.930 . S
H2481 C2496 0.960 . S
H2482 C2496 0.960 . S
H2483 C2496 0.960 . S
C2484 H2476 0.929 . S
C2484 C2485 1.377 . S
C2484 C2486 1.384 . S
C2485 C2484 1.377 . S
C2485 C2491 1.390 . S
C2486 H2477 0.930 . S
C2486 C2484 1.384 . S
C2486 C2487 1.372 . S
C2487 C2486 1.372 . S
C2487 C2488 1.400 . S
C2487 C2492 1.490 . S
C2488 H2478 0.930 . S
C2488 C2487 1.400 . S
C2488 C2491 1.386 . S
H2489 C2505 0.930 . S
H2490 C2506 0.931 . S
C2491 H2479 0.929 . S
C2491 C2485 1.390 . S
C2491 C2488 1.386 . S
C2492 C2487 1.490 . S
C2492 C2494 1.395 . S
C2492 C2495 1.403 . S
H2493 C2499 0.930 . S
C2494 H2480 0.930 . S
C2494 C2492 1.395 . S
C2494 C2497 1.403 . S
C2495 C2492 1.403 . S
C2495 C2496 1.524 . S
C2495 C2499 1.400 . S
C2496 H2481 0.960 . S
C2496 H2482 0.960 . S
C2496 H2483 0.960 . S
C2496 C2495 1.524 . S
C2497 C2494 1.403 . S
C2497 C2498 1.392 . S
C2497 C2501 1.495 . S
C2498 C2497 1.392 . S
C2498 C2499 1.385 . S
C2498 C2500 1.478 . S
C2499 H2493 0.930 . S
C2499 C2495 1.400 . S
C2499 C2498 1.385 . S
C2500 C2498 1.478 . S
C2500 C2502 1.381 . S
C2500 C2506 1.383 . S
C2501 C2497 1.495 . S
C2501 H2507 0.959 . S
C2501 H2508 0.961 . S
C2501 H2509 0.960 . S
C2502 C2500 1.381 . S
C2502 C2503 1.394 . S
C2502 H2510 0.930 . S
C2503 C2502 1.394 . S
C2503 C2504 1.383 . S
C2503 H2511 0.929 . S
C2504 C2503 1.383 . S
C2504 C2505 1.377 . S
C2505 H2489 0.930 . S
C2505 C2504 1.377 . S
C2505 C2506 1.379 . S
C2506 H2490 0.931 . S
C2506 C2500 1.383 . S
C2506 C2505 1.379 . S
H2507 C2501 0.959 . S
H2508 C2501 0.961 . S
H2509 C2501 0.960 . S
H2510 C2502 0.930 . S
H2511 C2503 0.929 . S
H2512 C2520 0.929 . S
H2513 C2522 0.930 . S
H2514 C2524 0.930 . S
H2515 C2527 0.929 . S
H2516 C2530 0.930 . S
H2517 C2532 0.960 . S
H2518 C2532 0.960 . S
H2519 C2532 0.960 . S
C2520 H2512 0.929 . S
C2520 C2521 1.377 . S
C2520 C2522 1.384 . S
C2521 C2520 1.377 . S
C2521 C2527 1.390 . S
C2522 H2513 0.930 . S
C2522 C2520 1.384 . S
C2522 C2523 1.372 . S
C2523 C2522 1.372 . S
C2523 C2524 1.400 . S
C2523 C2528 1.490 . S
C2524 H2514 0.930 . S
C2524 C2523 1.400 . S
C2524 C2527 1.386 . S
H2525 C2541 0.930 . S
H2526 C2542 0.931 . S
C2527 H2515 0.929 . S
C2527 C2521 1.390 . S
C2527 C2524 1.386 . S
C2528 C2523 1.490 . S
C2528 C2530 1.395 . S
C2528 C2531 1.403 . S
H2529 C2535 0.930 . S
C2530 H2516 0.930 . S
C2530 C2528 1.395 . S
C2530 C2533 1.403 . S
C2531 C2528 1.403 . S
C2531 C2532 1.524 . S
C2531 C2535 1.400 . S
C2532 H2517 0.960 . S
C2532 H2518 0.960 . S
C2532 H2519 0.960 . S
C2532 C2531 1.524 . S
C2533 C2530 1.403 . S
C2533 C2534 1.392 . S
C2533 C2537 1.495 . S
C2534 C2533 1.392 . S
C2534 C2535 1.385 . S
C2534 C2536 1.478 . S
C2535 H2529 0.930 . S
C2535 C2531 1.400 . S
C2535 C2534 1.385 . S
C2536 C2534 1.478 . S
C2536 C2538 1.381 . S
C2536 C2542 1.383 . S
C2537 C2533 1.495 . S
C2537 H2543 0.959 . S
C2537 H2544 0.961 . S
C2537 H2545 0.960 . S
C2538 C2536 1.381 . S
C2538 C2539 1.394 . S
C2538 H2546 0.930 . S
C2539 C2538 1.394 . S
C2539 C2540 1.383 . S
C2539 H2547 0.929 . S
C2540 C2539 1.383 . S
C2540 C2541 1.377 . S
C2541 H2525 0.930 . S
C2541 C2540 1.377 . S
C2541 C2542 1.379 . S
C2542 H2526 0.931 . S
C2542 C2536 1.383 . S
C2542 C2541 1.379 . S
H2543 C2537 0.959 . S
H2544 C2537 0.961 . S
H2545 C2537 0.960 . S
H2546 C2538 0.930 . S
H2547 C2539 0.929 . S
H2548 C2556 0.929 . S
H2549 C2558 0.930 . S
H2550 C2560 0.930 . S
H2551 C2563 0.929 . S
H2552 C2566 0.930 . S
H2553 C2568 0.960 . S
H2554 C2568 0.960 . S
H2555 C2568 0.960 . S
C2556 H2548 0.929 . S
C2556 C2557 1.377 . S
C2556 C2558 1.384 . S
C2557 C2556 1.377 . S
C2557 C2563 1.390 . S
C2558 H2549 0.930 . S
C2558 C2556 1.384 . S
C2558 C2559 1.372 . S
C2559 C2558 1.372 . S
C2559 C2560 1.400 . S
C2559 C2564 1.490 . S
C2560 H2550 0.930 . S
C2560 C2559 1.400 . S
C2560 C2563 1.386 . S
H2561 C2577 0.930 . S
H2562 C2578 0.931 . S
C2563 H2551 0.929 . S
C2563 C2557 1.390 . S
C2563 C2560 1.386 . S
C2564 C2559 1.490 . S
C2564 C2566 1.395 . S
C2564 C2567 1.403 . S
H2565 C2571 0.930 . S
C2566 H2552 0.930 . S
C2566 C2564 1.395 . S
C2566 C2569 1.403 . S
C2567 C2564 1.403 . S
C2567 C2568 1.524 . S
C2567 C2571 1.400 . S
C2568 H2553 0.960 . S
C2568 H2554 0.960 . S
C2568 H2555 0.960 . S
C2568 C2567 1.524 . S
C2569 C2566 1.403 . S
C2569 C2570 1.392 . S
C2569 C2573 1.495 . S
C2570 C2569 1.392 . S
C2570 C2571 1.385 . S
C2570 C2572 1.478 . S
C2571 H2565 0.930 . S
C2571 C2567 1.400 . S
C2571 C2570 1.385 . S
C2572 C2570 1.478 . S
C2572 C2574 1.381 . S
C2572 C2578 1.383 . S
C2573 C2569 1.495 . S
C2573 H2579 0.959 . S
C2573 H2580 0.961 . S
C2573 H2581 0.960 . S
C2574 C2572 1.381 . S
C2574 C2575 1.394 . S
C2574 H2582 0.930 . S
C2575 C2574 1.394 . S
C2575 C2576 1.383 . S
C2575 H2583 0.929 . S
C2576 C2575 1.383 . S
C2576 C2577 1.377 . S
C2577 H2561 0.930 . S
C2577 C2576 1.377 . S
C2577 C2578 1.379 . S
C2578 H2562 0.931 . S
C2578 C2572 1.383 . S
C2578 C2577 1.379 . S
H2579 C2573 0.959 . S
H2580 C2573 0.961 . S
H2581 C2573 0.960 . S
H2582 C2574 0.930 . S
H2583 C2575 0.929 . S
H2584 C2592 0.929 . S
H2585 C2594 0.930 . S
H2586 C2596 0.930 . S
H2587 C2599 0.929 . S
H2588 C2602 0.930 . S
H2589 C2604 0.960 . S
H2590 C2604 0.960 . S
H2591 C2604 0.960 . S
C2592 H2584 0.929 . S
C2592 C2593 1.377 . S
C2592 C2594 1.384 . S
C2593 C2592 1.377 . S
C2593 C2599 1.390 . S
C2594 H2585 0.930 . S
C2594 C2592 1.384 . S
C2594 C2595 1.372 . S
C2595 C2594 1.372 . S
C2595 C2596 1.400 . S
C2595 C2600 1.490 . S
C2596 H2586 0.930 . S
C2596 C2595 1.400 . S
C2596 C2599 1.386 . S
H2597 C2613 0.930 . S
H2598 C2614 0.931 . S
C2599 H2587 0.929 . S
C2599 C2593 1.390 . S
C2599 C2596 1.386 . S
C2600 C2595 1.490 . S
C2600 C2602 1.395 . S
C2600 C2603 1.403 . S
H2601 C2607 0.930 . S
C2602 H2588 0.930 . S
C2602 C2600 1.395 . S
C2602 C2605 1.403 . S
C2603 C2600 1.403 . S
C2603 C2604 1.524 . S
C2603 C2607 1.400 . S
C2604 H2589 0.960 . S
C2604 H2590 0.960 . S
C2604 H2591 0.960 . S
C2604 C2603 1.524 . S
C2605 C2602 1.403 . S
C2605 C2606 1.392 . S
C2605 C2609 1.495 . S
C2606 C2605 1.392 . S
C2606 C2607 1.385 . S
C2606 C2608 1.478 . S
C2607 H2601 0.930 . S
C2607 C2603 1.400 . S
C2607 C2606 1.385 . S
C2608 C2606 1.478 . S
C2608 C2610 1.381 . S
C2608 C2614 1.383 . S
C2609 C2605 1.495 . S
C2609 H2615 0.959 . S
C2609 H2616 0.961 . S
C2609 H2617 0.960 . S
C2610 C2608 1.381 . S
C2610 C2611 1.394 . S
C2610 H2618 0.930 . S
C2611 C2610 1.394 . S
C2611 C2612 1.383 . S
C2611 H2619 0.929 . S
C2612 C2611 1.383 . S
C2612 C2613 1.377 . S
C2613 H2597 0.930 . S
C2613 C2612 1.377 . S
C2613 C2614 1.379 . S
C2614 H2598 0.931 . S
C2614 C2608 1.383 . S
C2614 C2613 1.379 . S
H2615 C2609 0.959 . S
H2616 C2609 0.961 . S
H2617 C2609 0.960 . S
H2618 C2610 0.930 . S
H2619 C2611 0.929 . S
H2620 C2628 0.929 . S
H2621 C2630 0.930 . S
H2622 C2632 0.930 . S
H2623 C2635 0.929 . S
H2624 C2638 0.930 . S
H2625 C2640 0.960 . S
H2626 C2640 0.960 . S
H2627 C2640 0.960 . S
C2628 H2620 0.929 . S
C2628 C2629 1.377 . S
C2628 C2630 1.384 . S
C2629 C2628 1.377 . S
C2629 C2635 1.390 . S
C2630 H2621 0.930 . S
C2630 C2628 1.384 . S
C2630 C2631 1.372 . S
C2631 C2630 1.372 . S
C2631 C2632 1.400 . S
C2631 C2636 1.490 . S
C2632 H2622 0.930 . S
C2632 C2631 1.400 . S
C2632 C2635 1.386 . S
H2633 C2649 0.930 . S
H2634 C2650 0.931 . S
C2635 H2623 0.929 . S
C2635 C2629 1.390 . S
C2635 C2632 1.386 . S
C2636 C2631 1.490 . S
C2636 C2638 1.395 . S
C2636 C2639 1.403 . S
H2637 C2643 0.930 . S
C2638 H2624 0.930 . S
C2638 C2636 1.395 . S
C2638 C2641 1.403 . S
C2639 C2636 1.403 . S
C2639 C2640 1.524 . S
C2639 C2643 1.400 . S
C2640 H2625 0.960 . S
C2640 H2626 0.960 . S
C2640 H2627 0.960 . S
C2640 C2639 1.524 . S
C2641 C2638 1.403 . S
C2641 C2642 1.392 . S
C2641 C2645 1.495 . S
C2642 C2641 1.392 . S
C2642 C2643 1.385 . S
C2642 C2644 1.478 . S
C2643 H2637 0.930 . S
C2643 C2639 1.400 . S
C2643 C2642 1.385 . S
C2644 C2642 1.478 . S
C2644 C2646 1.381 . S
C2644 C2650 1.383 . S
C2645 C2641 1.495 . S
C2645 H2651 0.959 . S
C2645 H2652 0.961 . S
C2645 H2653 0.960 . S
C2646 C2644 1.381 . S
C2646 C2647 1.394 . S
C2646 H2654 0.930 . S
C2647 C2646 1.394 . S
C2647 C2648 1.383 . S
C2647 H2655 0.929 . S
C2648 C2647 1.383 . S
C2648 C2649 1.377 . S
C2649 H2633 0.930 . S
C2649 C2648 1.377 . S
C2649 C2650 1.379 . S
C2650 H2634 0.931 . S
C2650 C2644 1.383 . S
C2650 C2649 1.379 . S
H2651 C2645 0.959 . S
H2652 C2645 0.961 . S
H2653 C2645 0.960 . S
H2654 C2646 0.930 . S
H2655 C2647 0.929 . S
H2656 C2664 0.929 . S
H2657 C2666 0.930 . S
H2658 C2668 0.930 . S
H2659 C2671 0.929 . S
H2660 C2674 0.930 . S
H2661 C2676 0.960 . S
H2662 C2676 0.960 . S
H2663 C2676 0.960 . S
C2664 H2656 0.929 . S
C2664 C2665 1.377 . S
C2664 C2666 1.384 . S
C2665 C2664 1.377 . S
C2665 C2671 1.390 . S
C2666 H2657 0.930 . S
C2666 C2664 1.384 . S
C2666 C2667 1.372 . S
C2667 C2666 1.372 . S
C2667 C2668 1.400 . S
C2667 C2672 1.490 . S
C2668 H2658 0.930 . S
C2668 C2667 1.400 . S
C2668 C2671 1.386 . S
H2669 C2685 0.930 . S
H2670 C2686 0.931 . S
C2671 H2659 0.929 . S
C2671 C2665 1.390 . S
C2671 C2668 1.386 . S
C2672 C2667 1.490 . S
C2672 C2674 1.395 1_556 S
C2672 C2675 1.403 . S
H2673 C2679 0.930 . S
C2674 H2660 0.930 . S
C2674 C2672 1.395 1_554 S
C2674 C2677 1.403 . S
C2675 C2672 1.403 . S
C2675 C2676 1.524 . S
C2675 C2679 1.400 . S
C2676 H2661 0.960 . S
C2676 H2662 0.960 . S
C2676 H2663 0.960 . S
C2676 C2675 1.524 . S
C2677 C2674 1.403 . S
C2677 C2678 1.392 1_554 S
C2677 C2681 1.495 . S
C2678 C2677 1.392 1_556 S
C2678 C2679 1.385 . S
C2678 C2680 1.478 . S
C2679 H2673 0.930 . S
C2679 C2675 1.400 . S
C2679 C2678 1.385 . S
C2680 C2678 1.478 . S
C2680 C2682 1.381 1_556 S
C2680 C2686 1.383 . S
C2681 C2677 1.495 . S
C2681 H2687 0.959 . S
C2681 H2688 0.961 . S
C2681 H2689 0.960 . S
C2682 C2680 1.381 1_554 S
C2682 C2683 1.394 . S
C2682 H2690 0.930 . S
C2683 C2682 1.394 . S
C2683 C2684 1.383 1_554 S
C2683 H2691 0.929 . S
C2684 C2683 1.383 1_556 S
C2684 C2685 1.377 . S
C2685 H2669 0.930 . S
C2685 C2684 1.377 . S
C2685 C2686 1.379 . S
C2686 H2670 0.931 . S
C2686 C2680 1.383 . S
C2686 C2685 1.379 . S
H2687 C2681 0.959 . S
H2688 C2681 0.961 . S
H2689 C2681 0.960 . S
H2690 C2682 0.930 . S
H2691 C2683 0.929 . S
H2692 C2700 0.929 . S
H2693 C2702 0.930 . S
H2694 C2704 0.930 . S
H2695 C2707 0.929 . S
H2696 C2710 0.930 . S
H2697 C2712 0.960 . S
H2698 C2712 0.960 . S
H2699 C2712 0.960 . S
C2700 H2692 0.929 . S
C2700 C2701 1.377 . S
C2700 C2702 1.384 . S
C2701 C2700 1.377 . S
C2701 C2707 1.390 . S
C2702 H2693 0.930 . S
C2702 C2700 1.384 . S
C2702 C2703 1.372 . S
C2703 C2702 1.372 . S
C2703 C2704 1.400 . S
C2703 C2708 1.490 . S
C2704 H2694 0.930 . S
C2704 C2703 1.400 . S
C2704 C2707 1.386 . S
H2705 C2721 0.930 . S
H2706 C2722 0.931 . S
C2707 H2695 0.929 . S
C2707 C2701 1.390 . S
C2707 C2704 1.386 . S
C2708 C2703 1.490 . S
C2708 C2710 1.395 . S
C2708 C2711 1.403 . S
H2709 C2715 0.930 . S
C2710 H2696 0.930 . S
C2710 C2708 1.395 . S
C2710 C2713 1.403 . S
C2711 C2708 1.403 . S
C2711 C2712 1.524 . S
C2711 C2715 1.400 . S
C2712 H2697 0.960 . S
C2712 H2698 0.960 . S
C2712 H2699 0.960 . S
C2712 C2711 1.524 . S
C2713 C2710 1.403 . S
C2713 C2714 1.392 . S
C2713 C2717 1.495 . S
C2714 C2713 1.392 . S
C2714 C2715 1.385 . S
C2714 C2716 1.478 . S
C2715 H2709 0.930 . S
C2715 C2711 1.400 . S
C2715 C2714 1.385 . S
C2716 C2714 1.478 . S
C2716 C2718 1.381 . S
C2716 C2722 1.383 . S
C2717 C2713 1.495 . S
C2717 H2723 0.959 . S
C2717 H2724 0.961 . S
C2717 H2725 0.960 . S
C2718 C2716 1.381 . S
C2718 C2719 1.394 . S
C2718 H2726 0.930 . S
C2719 C2718 1.394 . S
C2719 C2720 1.383 . S
C2719 H2727 0.929 . S
C2720 C2719 1.383 . S
C2720 C2721 1.377 . S
C2721 H2705 0.930 . S
C2721 C2720 1.377 . S
C2721 C2722 1.379 . S
C2722 H2706 0.931 . S
C2722 C2716 1.383 . S
C2722 C2721 1.379 . S
H2723 C2717 0.959 . S
H2724 C2717 0.961 . S
H2725 C2717 0.960 . S
H2726 C2718 0.930 . S
H2727 C2719 0.929 . S
H2728 C2736 0.924 . S
H2729 C2738 0.930 1_556 S
H2730 C2740 0.930 . S
H2731 C2743 0.929 . S
H2732 C2746 0.930 . S
H2733 C2748 0.960 . S
H2734 C2748 0.960 . S
H2735 C2748 0.960 . S
C2736 H2728 0.924 . S
C2736 C2737 1.377 . S
C2736 C2738 1.384 . S
C2737 C2736 1.377 . S
C2737 C2743 1.390 . S
C2738 H2729 0.930 1_554 S
C2738 C2736 1.384 . S
C2738 C2739 1.372 . S
C2739 C2738 1.372 . S
C2739 C2740 1.400 . S
C2739 C2744 1.490 . S
C2740 H2730 0.930 . S
C2740 C2739 1.400 . S
C2740 C2743 1.386 . S
H2741 C2757 0.930 . S
H2742 C2758 0.931 . S
C2743 H2731 0.929 . S
C2743 C2737 1.390 . S
C2743 C2740 1.386 . S
C2744 C2739 1.490 . S
C2744 C2746 1.395 . S
C2744 C2747 1.403 . S
H2745 C2751 0.930 . S
C2746 H2732 0.930 . S
C2746 C2744 1.395 . S
C2746 C2749 1.403 . S
C2747 C2744 1.403 . S
C2747 C2748 1.524 . S
C2747 C2751 1.400 . S
C2748 H2733 0.960 . S
C2748 H2734 0.960 . S
C2748 H2735 0.960 . S
C2748 C2747 1.524 . S
C2749 C2746 1.403 . S
C2749 C2750 1.392 . S
C2749 C2753 1.495 . S
C2750 C2749 1.392 . S
C2750 C2751 1.385 . S
C2750 C2752 1.478 . S
C2751 H2745 0.930 . S
C2751 C2747 1.400 . S
C2751 C2750 1.385 . S
C2752 C2750 1.478 . S
C2752 C2754 1.381 1_554 S
C2752 C2758 1.383 . S
C2753 C2749 1.495 . S
C2753 H2759 0.959 . S
C2753 H2760 0.961 . S
C2753 H2761 0.960 1_554 S
C2754 C2752 1.381 1_556 S
C2754 C2755 1.394 . S
C2754 H2762 0.930 . S
C2755 C2754 1.394 . S
C2755 C2756 1.383 1_556 S
C2755 H2763 0.929 . S
C2756 C2755 1.383 1_554 S
C2756 C2757 1.377 . S
C2757 H2741 0.930 . S
C2757 C2756 1.377 . S
C2757 C2758 1.379 . S
C2758 H2742 0.931 . S
C2758 C2752 1.383 . S
C2758 C2757 1.379 . S
H2759 C2753 0.959 . S
H2760 C2753 0.961 . S
H2761 C2753 0.960 1_556 S
H2762 C2754 0.930 . S
H2763 C2755 0.929 . S
H2764 C2772 0.929 . S
H2765 C2774 0.930 . S
H2766 C2776 0.930 . S
H2767 C2779 0.929 . S
H2768 C2782 0.930 . S
H2769 C2784 0.960 . S
H2770 C2784 0.960 . S
H2771 C2784 0.960 . S
C2772 H2764 0.929 . S
C2772 C2773 1.377 . S
C2772 C2774 1.384 . S
C2773 C2772 1.377 . S
C2773 C2779 1.390 . S
C2774 H2765 0.930 . S
C2774 C2772 1.384 . S
C2774 C2775 1.372 . S
C2775 C2774 1.372 . S
C2775 C2776 1.400 . S
C2775 C2780 1.490 . S
C2776 H2766 0.930 . S
C2776 C2775 1.400 . S
C2776 C2779 1.386 . S
H2777 C2793 0.930 . S
H2778 C2794 0.931 . S
C2779 H2767 0.929 . S
C2779 C2773 1.390 . S
C2779 C2776 1.386 . S
C2780 C2775 1.490 . S
C2780 C2782 1.395 . S
C2780 C2783 1.403 . S
H2781 C2787 0.930 . S
C2782 H2768 0.930 . S
C2782 C2780 1.395 . S
C2782 C2785 1.403 . S
C2783 C2780 1.403 . S
C2783 C2784 1.524 . S
C2783 C2787 1.400 . S
C2784 H2769 0.960 . S
C2784 H2770 0.960 . S
C2784 H2771 0.960 . S
C2784 C2783 1.524 . S
C2785 C2782 1.403 . S
C2785 C2786 1.392 . S
C2785 C2789 1.495 1_554 S
C2786 C2785 1.392 . S
C2786 C2787 1.385 . S
C2786 C2788 1.478 . S
C2787 H2781 0.930 . S
C2787 C2783 1.400 . S
C2787 C2786 1.385 . S
C2788 C2786 1.478 . S
C2788 C2790 1.381 . S
C2788 C2794 1.383 . S
C2789 C2785 1.495 1_556 S
C2789 H2795 0.959 . S
C2789 H2796 0.961 . S
C2789 H2797 0.960 1_556 S
C2790 C2788 1.381 . S
C2790 C2791 1.394 . S
C2790 H2798 0.930 . S
C2791 C2790 1.394 . S
C2791 C2792 1.383 . S
C2791 H2799 0.929 . S
C2792 C2791 1.383 . S
C2792 C2793 1.377 . S
C2793 H2777 0.930 . S
C2793 C2792 1.377 . S
C2793 C2794 1.379 . S
C2794 H2778 0.931 . S
C2794 C2788 1.383 . S
C2794 C2793 1.379 . S
H2795 C2789 0.959 . S
H2796 C2789 0.961 . S
H2797 C2789 0.960 1_554 S
H2798 C2790 0.930 . S
H2799 C2791 0.929 . S
C1100 C642 1.413 . S
C1081 C202 1.430 . S
C1136 C690 1.671 . S
C1117 C261 1.733 . S
C1153 C282 1.376 . S
C1172 C726 1.357 . S
C1208 C762 1.592 . S
C1189 C162 1.660 . S
C1244 C788 1.448 . S
C1225 C402 1.450 . S
C1280 C824 1.622 . S
C1261 C482 1.621 . S
C1297 C442 1.451 . S
C1316 C859 1.489 . S
C1352 C896 1.648 1_565 S
C1333 C381 1.652 . S
C1369 C461 1.431 . S
C1388 C930 1.438 . S
C1424 C978 1.534 . S
C1405 C362 1.600 . S
C1441 C415 1.390 . S
C1460 C931 1.397 . S
C1496 C968 1.661 . S
C1477 C495 1.671 . S
C1513 C301 1.454 . S
C1532 C1014 1.427 . S
C1549 C175 1.684 . S
C1568 C1003 1.677 . S
C1585 C215 1.449 . S
C1604 C1004 1.442 . S
C1621 C242 1.655 . S
C1640 C1002 1.650 . S
C1657 C141 1.502 . S
C1676 C750 1.486 . S
C1693 C581 1.474 . S
C1712 C751 1.467 . S
C1748 C654 1.595 . S
C1729 C615 1.642 . S
C1784 C679 1.422 . S
C1765 C335 1.424 . S
C1801 C181 1.725 . S
C1820 C786 1.716 . S
C1856 C894 1.447 . S
C1837 C455 1.437 . S
C1892 C787 1.563 . S
C1873 C375 1.577 . S
C1928 C860 1.708 . S
C1909 C501 1.713 . S
C1964 C858 1.400 . S
C1945 C562 1.430 . S
C1981 C621 1.736 . S
C2000 C906 1.690 . S
C2017 C322 1.378 . S
C2036 C798 1.339 . S
C2072 C834 1.604 . S
C2053 C522 1.658 . S
C2089 C122 1.448 . S
C2108 C716 1.439 . S
C2144 C752 1.616 . S
C2125 C2 1.622 . S
C2180 C643 1.488 . S
C2161 C42 1.456 . S
C2216 C680 1.652 . S
C2197 C101 1.649 . S
C2233 C61 1.436 . S
C2252 C966 1.457 . S
C2269 C82 1.599 . S
C2288 C942 1.572 . S
C2305 C135 1.388 . S
C2324 C967 1.398 . S
C2341 C15 1.671 . S
C2360 C932 1.658 . S
C2396 C1050 1.396 . S
C2377 C341 1.455 . S
C2432 C1039 1.676 . S
C2413 C535 1.684 . S
C2468 C1040 1.426 . S
C2449 C575 1.445 . S
C2485 C602 1.659 . S
C2504 C1038 1.662 . S
C2521 C421 1.501 . S
C2540 C822 1.460 . S
C2576 C823 1.468 . S
C2557 C221 1.474 . S
C2612 C870 1.572 . S
C2593 C255 1.641 . S
C2648 C895 1.426 . S
C2629 C295 1.427 . S
C2665 C541 1.724 . S
C2684 C714 1.720 . S
C2720 C678 1.444 . S
C2701 C55 1.443 . S
C2737 C95 1.577 . S
C2756 C715 1.574 . S
C2792 C644 1.701 . S
C2773 C21 1.714 . S
